
  -OEChem-04052302283D

 81 89  0     1  0  0  0  0  0999 V2000
  -27.3954  -23.6280   21.8385 C   0  0  0  0  0  0  0  0  0  0  0  0
  -26.4222  -22.7516   21.3694 C   0  0  0  0  0  0  0  0  0  0  0  0
  -26.8729  -28.6890   18.9509 C   0  0  0  0  0  0  0  0  0  0  0  0
  -25.9758  -27.0475   20.4799 C   0  0  0  0  0  0  0  0  0  0  0  0
  -28.7454  -23.3120   21.6920 C   0  0  0  0  0  0  0  0  0  0  0  0
  -26.7985  -21.5590   20.7525 C   0  0  0  0  0  0  0  0  0  0  0  0
  -24.0861  -17.5979   22.3642 C   0  0  0  0  0  0  0  0  0  0  0  0
  -26.3532  -29.7119   19.7440 C   0  0  0  0  0  0  0  0  0  0  0  0
  -25.4561  -28.0704   21.2731 C   0  0  0  0  0  0  0  0  0  0  0  0
  -22.8006  -17.4527   21.8444 C   0  0  0  0  0  0  0  0  0  0  0  0
  -23.5839  -30.2387   23.5100 C   0  0  0  0  0  0  0  0  0  0  0  0
  -22.2761  -30.0984   23.9741 C   0  0  0  0  0  0  0  0  0  0  0  0
  -19.6139  -20.3755   16.3642 C   0  0  0  0  0  0  0  0  0  0  0  0
  -20.7844  -20.3613   15.5686 C   0  0  0  0  0  0  0  0  0  0  0  0
  -23.6197  -15.7917   20.2986 C   0  0  0  0  0  0  0  0  0  0  0  0
  -21.4776  -30.0044   21.6958 C   0  0  0  0  0  0  0  0  0  0  0  0
  -26.6842  -27.3568   19.3188 C   0  0  0  0  0  0  0  0  0  0  0  0
  -28.4912  -25.7035   18.6054 C   0  0  0  0  0  0  0  0  0  0  0  0
  -29.1384  -22.1105   21.0817 C   0  0  0  0  0  0  0  0  0  0  0  0
  -25.1519  -16.8478   21.8468 C   0  0  0  0  0  0  0  0  0  0  0  0
  -28.1551  -21.2272   20.5966 C   0  0  0  0  0  0  0  0  0  0  0  0
  -24.9173  -15.9274   20.8153 C   0  0  0  0  0  0  0  0  0  0  0  0
  -25.6448  -29.4026   20.9052 C   0  0  0  0  0  0  0  0  0  0  0  0
  -22.5678  -16.5516   20.8095 C   0  0  0  0  0  0  0  0  0  0  0  0
  -23.8387  -30.2620   22.1387 C   0  0  0  0  0  0  0  0  0  0  0  0
  -21.2229  -29.9812   23.0671 C   0  0  0  0  0  0  0  0  0  0  0  0
  -22.7855  -30.1448   21.2317 C   0  0  0  0  0  0  0  0  0  0  0  0
  -27.2203  -26.2997   18.4995 C   0  0  0  0  0  0  0  0  0  0  0  0
  -20.0256  -20.1323   17.6539 C   0  0  0  0  0  0  0  0  0  0  0  0
  -21.8280  -20.1106   16.4290 C   0  0  0  0  0  0  0  0  0  0  0  0
  -28.5124  -24.7606   17.6069 C   0  0  0  0  0  0  0  0  0  0  0  0
  -29.5572  -25.9774   19.5242 C   0  0  0  0  0  0  0  0  0  0  0  0
  -27.8868  -17.5480   20.3860 C   0  0  0  0  0  0  0  0  0  0  0  0
  -28.4018  -14.3576   20.6656 C   0  0  0  0  0  0  0  0  0  0  0  0
  -27.0826  -11.2297   21.0161 C   0  0  0  0  0  0  0  0  0  0  0  0
  -24.1976  -21.7414   14.7577 C   0  0  0  0  0  0  0  0  0  0  0  0
  -30.6103  -21.8343   20.9035 C   0  0  0  0  0  0  0  0  0  0  0  0
  -26.5276  -16.9966   22.4365 C   0  0  0  0  0  0  0  0  0  0  0  0
  -26.0236  -15.0836   20.2385 C   0  0  0  0  0  0  0  0  0  0  0  0
  -30.9210  -20.3764   20.5745 C   0  0  0  0  0  0  0  0  0  0  0  0
  -26.6716  -23.8381   13.2882 C   0  0  0  0  0  0  0  0  0  0  0  0
  -29.9854  -19.8641   19.4840 C   0  0  0  0  0  0  0  0  0  0  0  0
  -27.2075  -24.6530   14.4667 C   0  0  0  0  0  0  0  0  0  0  0  0
  -25.1716  -23.5813   13.4152 C   0  0  0  0  0  0  0  0  0  0  0  0
  -25.2899  -23.7833   15.8686 C   0  0  0  0  0  0  0  0  0  0  0  0
  -28.5234  -19.9124   19.9441 C   0  0  1  0  0  0  0  0  0  0  0  0
  -27.6362  -16.5554   21.4858 C   0  0  1  0  0  0  0  0  0  0  0  0
  -26.8088  -24.0199   15.8134 C   0  0  2  0  0  0  0  0  0  0  0  0
  -27.7514   -8.8163   21.1765 C   0  0  0  0  0  0  0  0  0  0  0  0
  -28.9245  -14.3052   17.6600 C   0  0  0  0  0  0  0  0  0  0  0  0
  -28.6425  -11.8184   17.7246 C   0  0  0  0  0  0  0  0  0  0  0  0
  -30.4850  -12.8969   19.0149 C   0  0  0  0  0  0  0  0  0  0  0  0
  -25.8994  -10.9609   23.7155 C   0  0  0  0  0  0  0  0  0  0  0  0
  -19.2930  -20.0173   18.9668 C   0  0  0  0  0  0  0  0  0  0  0  0
  -23.2785  -19.9728   16.2364 C   0  0  0  0  0  0  0  0  0  0  0  0
  -18.5503  -18.6887   19.1471 C   0  0  0  0  0  0  0  0  0  0  0  0
  -19.4854  -17.4789   19.1734 C   0  0  0  0  0  0  0  0  0  0  0  0
  -20.4626  -17.5528   20.3388 C   0  0  0  0  0  0  0  0  0  1  0  0
  -28.0999  -13.1473   19.8152 C   0  0  1  0  0  0  0  0  0  0  0  0
  -27.4354  -10.0866   21.9506 C   0  0  2  0  0  0  0  0  0  0  0  0
  -29.0173  -13.0591   18.5630 C   0  0  0  0  0  0  0  0  0  0  0  0
  -26.4873  -25.7793   17.5116 N   0  0  0  0  0  0  0  0  0  0  0  0
  -27.3003  -24.8462   16.9876 N   0  0  0  0  0  0  0  0  0  0  0  0
  -27.3524  -15.2700   20.8444 N   0  0  0  0  0  0  0  0  0  0  0  0
  -24.8607  -22.9789   14.7138 N   0  0  0  0  0  0  0  0  0  0  0  0
  -29.4495  -23.8749   17.2070 N   0  0  0  0  0  0  0  0  0  0  0  0
  -29.3688  -26.9784   20.4870 N   0  0  0  0  0  0  0  0  0  0  0  0
  -28.2368  -18.8075   20.8338 N   0  0  0  0  0  0  0  0  0  0  0  0
  -28.1875  -11.9927   20.7027 N   0  0  0  0  0  0  0  0  0  0  0  0
  -23.9468  -21.2380   16.0283 N   0  0  0  0  0  0  0  0  0  0  0  0
  -26.3009   -9.8039   22.8746 N   0  3  0  0  0  0  0  0  0  0  0  0
  -30.6508  -25.3644   19.4819 O   0  0  0  0  0  0  0  0  0  0  0  0
  -27.7726  -17.1967   19.2175 O   0  0  0  0  0  0  0  0  0  0  0  0
  -29.5251  -14.4849   21.1591 O   0  0  0  0  0  0  0  0  0  0  0  0
  -25.9417  -11.4239   20.6024 O   0  0  0  0  0  0  0  0  0  0  0  0
  -23.8592  -21.1278   13.7399 O   0  0  0  0  0  0  0  0  0  0  0  0
  -21.3739  -19.9699   17.7020 O   0  0  0  0  0  0  0  0  0  0  0  0
  -25.1377  -30.4005   21.6795 O   0  0  0  0  0  0  0  0  0  0  0  0
  -21.3141  -16.4084   20.2999 O   0  0  0  0  0  0  0  0  0  1  0  0
  -19.9672  -29.8449   23.5129 F   0  0  0  0  0  0  0  0  0  0  0  0
  -23.0241  -30.1653   19.9132 F   0  0  0  0  0  0  0  0  0  0  0  0
  1  2  1  0  0  0  0
  1  5  2  0  0  0  0
  2  6  2  0  0  0  0
  3  8  2  0  0  0  0
  3 17  1  0  0  0  0
  4  9  1  0  0  0  0
  4 17  2  0  0  0  0
  5 19  1  0  0  0  0
  6 21  1  0  0  0  0
  7 10  2  0  0  0  0
  7 20  1  0  0  0  0
  8 23  1  0  0  0  0
  9 23  2  0  0  0  0
 10 24  1  0  0  0  0
 11 12  2  0  0  0  0
 11 25  1  0  0  0  0
 12 26  1  0  0  0  0
 13 14  1  0  0  0  0
 13 29  2  0  0  0  0
 14 30  2  0  0  0  0
 15 22  1  0  0  0  0
 15 24  2  0  0  0  0
 16 26  2  0  0  0  0
 16 27  1  0  0  0  0
 17 28  1  0  0  0  0
 18 28  1  0  0  0  0
 18 31  2  0  0  0  0
 18 32  1  0  0  0  0
 19 21  2  0  0  0  0
 19 37  1  0  0  0  0
 20 22  2  0  0  0  0
 20 38  1  0  0  0  0
 21 46  1  0  0  0  0
 22 39  1  0  0  0  0
 23 78  1  0  0  0  0
 24 79  1  0  0  0  0
 25 27  2  0  0  0  0
 25 78  1  0  0  0  0
 26 80  1  0  0  0  0
 27 81  1  0  0  0  0
 28 62  2  0  0  0  0
 29 54  1  0  0  0  0
 29 77  1  0  0  0  0
 30 55  1  0  0  0  0
 30 77  1  0  0  0  0
 31 63  1  0  0  0  0
 31 66  1  0  0  0  0
 32 67  1  0  0  0  0
 32 72  2  0  0  0  0
 33 47  1  0  0  0  0
 33 68  1  0  0  0  0
 33 73  2  0  0  0  0
 34 59  1  0  0  0  0
 34 64  1  0  0  0  0
 34 74  2  0  0  0  0
 35 60  1  0  0  0  0
 35 69  1  0  0  0  0
 35 75  2  0  0  0  0
 36 65  1  0  0  0  0
 36 70  1  0  0  0  0
 36 76  2  0  0  0  0
 37 40  1  0  0  0  0
 38 47  1  0  0  0  0
 39 64  1  0  0  0  0
 40 42  1  0  0  0  0
 41 43  1  0  0  0  0
 41 44  1  0  0  0  0
 42 46  1  0  0  0  0
 43 48  1  0  0  0  0
 44 65  1  0  0  0  0
 45 48  1  0  0  0  0
 45 65  1  0  0  0  0
 46 68  1  0  0  0  0
 47 64  1  0  0  0  0
 48 63  1  0  0  0  0
 49 60  1  0  0  0  0
 50 61  1  0  0  0  0
 51 61  1  0  0  0  0
 52 61  1  0  0  0  0
 53 71  1  0  0  0  0
 54 56  1  0  0  0  0
 55 70  1  0  0  0  0
 56 57  1  0  0  0  0
 57 58  1  0  0  0  0
 58 79  1  0  0  0  0
 59 61  1  0  0  0  0
 59 69  1  0  0  0  0
 60 71  1  0  0  0  0
 62 63  1  0  0  0  0
M  CHG  1  71   1
M  ISO  4  36 100  58 101  70 100  79 101
M  END
> <Batch ID>
0132

> <Smiles>
CNC(C)C(=O)NC(C(=O)N1Cc2cc([101O:1][101CH2:1]CCCc3ccc(C[100NH:0][100C:0](=O)N4CCCC(n5nc(-c6ccc(Oc7ccc(F)cc7F)cc6)c(C(N)=O)c5N)C4)o3)ccc2CC1C(=O)NC1CCCc2ccccc21)C(C)(C)C

> <Shape>
0.226

> <Color>
0.056

> <Negative vol penalty>
0.000

$$$$

  -OEChem-04052302283D

 84 92  0     1  0  0  0  0  0999 V2000
  -28.4216  -26.0222   15.6242 C   0  0  0  0  0  0  0  0  0  0  0  0
  -27.2254  -26.0569   16.3338 C   0  0  0  0  0  0  0  0  0  0  0  0
  -25.0095  -13.5885   19.8907 C   0  0  0  0  0  0  0  0  0  0  0  0
  -23.0281  -14.8318   20.4949 C   0  0  0  0  0  0  0  0  0  0  0  0
  -29.5967  -26.4804   16.2183 C   0  0  0  0  0  0  0  0  0  0  0  0
  -27.2040  -26.5489   17.6383 C   0  0  0  0  0  0  0  0  0  0  0  0
  -23.3111  -29.6790   18.4706 C   0  0  0  0  0  0  0  0  0  0  0  0
  -21.6252  -23.9295   23.0538 C   0  0  0  0  0  0  0  0  0  0  0  0
  -22.9753  -23.7388   22.7600 C   0  0  0  0  0  0  0  0  0  0  0  0
  -24.6116  -12.5470   20.7289 C   0  0  0  0  0  0  0  0  0  0  0  0
  -22.6302  -13.7903   21.3331 C   0  0  0  0  0  0  0  0  0  0  0  0
  -22.0603  -29.0987   18.6765 C   0  0  0  0  0  0  0  0  0  0  0  0
  -23.9370   -9.4075   22.4328 C   0  0  0  0  0  0  0  0  0  0  0  0
  -24.0365   -8.1057   21.9417 C   0  0  0  0  0  0  0  0  0  0  0  0
  -22.3238  -29.3898   21.0567 C   0  0  0  0  0  0  0  0  0  0  0  0
  -21.1202  -23.9924   20.6920 C   0  0  0  0  0  0  0  0  0  0  0  0
  -22.5230   -8.6680   20.1444 C   0  0  0  0  0  0  0  0  0  0  0  0
  -24.2177  -14.7309   19.7737 C   0  0  0  0  0  0  0  0  0  0  0  0
  -24.3145  -15.9697   17.5457 C   0  0  0  0  0  0  0  0  0  0  0  0
  -29.5879  -26.9871   17.5274 C   0  0  0  0  0  0  0  0  0  0  0  0
  -24.0837  -30.1098   19.5586 C   0  0  0  0  0  0  0  0  0  0  0  0
  -28.3804  -27.0130   18.2510 C   0  0  0  0  0  0  0  0  0  0  0  0
  -23.5830  -29.9775   20.8617 C   0  0  0  0  0  0  0  0  0  0  0  0
  -20.6976  -24.0562   22.0197 C   0  0  0  0  0  0  0  0  0  0  0  0
  -23.3979  -23.6750   21.4323 C   0  0  0  0  0  0  0  0  0  0  0  0
  -22.4704  -23.8017   20.3982 C   0  0  0  0  0  0  0  0  0  0  0  0
  -23.4220  -12.6479   21.4501 C   0  0  0  0  0  0  0  0  0  0  0  0
  -21.5677  -28.9514   19.9699 C   0  0  0  0  0  0  0  0  0  0  0  0
  -23.1304  -10.3395   21.7796 C   0  0  0  0  0  0  0  0  0  0  0  0
  -23.3296   -7.7360   20.7975 C   0  0  0  0  0  0  0  0  0  0  0  0
  -22.4235   -9.9698   20.6355 C   0  0  0  0  0  0  0  0  0  0  0  0
  -24.6285  -15.8074   18.9084 C   0  0  0  0  0  0  0  0  0  0  0  0
  -24.9381  -17.1396   17.1867 C   0  0  0  0  0  0  0  0  0  0  0  0
  -23.5294  -15.1374   16.6818 C   0  0  0  0  0  0  0  0  0  0  0  0
  -26.9277  -29.3243   20.7411 C   0  0  0  0  0  0  0  0  0  0  0  0
  -19.1409  -26.5618   21.2184 C   0  0  0  0  0  0  0  0  0  0  0  0
  -26.6654  -21.9155   20.3991 C   0  0  0  0  0  0  0  0  0  0  0  0
  -26.3645  -31.8331   22.7187 C   0  0  0  0  0  0  0  0  0  0  0  0
  -24.0875  -33.8836   24.2212 C   0  0  0  0  0  0  0  0  0  0  0  0
  -30.8920  -27.4272   18.1443 C   0  0  0  0  0  0  0  0  0  0  0  0
  -25.4195  -30.7581   19.3180 C   0  0  0  0  0  0  0  0  0  0  0  0
  -24.3644  -30.4423   22.0625 C   0  0  0  0  0  0  0  0  0  0  0  0
  -30.7155  -28.2809   19.3974 C   0  0  0  0  0  0  0  0  0  0  0  0
  -28.7024  -19.8720   18.2742 C   0  0  0  0  0  0  0  0  0  0  0  0
  -29.6874  -27.6513   20.3319 C   0  0  0  0  0  0  0  0  0  0  0  0
  -27.8726  -18.6013   18.0954 C   0  0  0  0  0  0  0  0  0  0  0  0
  -28.5277  -20.4611   19.6705 C   0  0  0  0  0  0  0  0  0  0  0  0
  -26.2739  -19.4592   19.8655 C   0  0  0  0  0  0  0  0  0  0  0  0
  -28.3121  -27.5624   19.6594 C   0  0  1  0  0  0  0  0  0  0  0  0
  -26.3427  -30.6922   20.5307 C   0  0  1  0  0  0  0  0  0  0  0  0
  -26.3976  -18.8487   18.4582 C   0  0  2  0  0  0  0  0  0  0  0  0
  -22.8997  -23.7370   18.9691 C   0  0  0  0  0  0  0  0  0  0  0  0
  -23.9263  -35.8171   25.8127 C   0  0  0  0  0  0  0  0  0  0  0  0
  -26.9055  -29.9498   25.0576 C   0  0  0  0  0  0  0  0  0  0  0  0
  -25.8241  -31.6279   26.5684 C   0  0  0  0  0  0  0  0  0  0  0  0
  -27.8900  -32.2350   25.3090 C   0  0  0  0  0  0  0  0  0  0  0  0
  -22.8240  -35.6110   22.1770 C   0  0  0  0  0  0  0  0  0  0  0  0
  -19.2361  -24.2631   22.3380 C   0  0  0  0  0  0  0  0  0  0  0  0
  -24.8488  -23.4713   21.1423 C   0  0  0  0  0  0  0  0  0  0  0  0
  -18.8428  -25.7364   22.4618 C   0  0  0  0  0  0  0  0  0  0  0  0
  -20.1581  -27.6720   21.3955 C   0  0  0  0  0  0  0  0  0  1  0  0
  -25.1938  -22.0439   20.7021 C   0  0  0  0  0  0  0  0  0  0  0  0
  -25.7016  -32.0063   24.0639 C   0  0  1  0  0  0  0  0  0  0  0  0
  -24.0268  -35.3945   24.3553 C   0  0  2  0  0  0  0  0  0  0  0  0
  -26.5662  -31.4441   25.2274 C   0  0  0  0  0  0  0  0  0  0  0  0
  -25.3923  -16.7951   19.3828 N   0  0  0  0  0  0  0  0  0  0  0  0
  -25.5636  -17.5892   18.3122 N   0  0  0  0  0  0  0  0  0  0  0  0
  -25.6678  -31.0641   21.7759 N   0  0  0  0  0  0  0  0  0  0  0  0
  -27.1120  -20.6602   19.9858 N   0  0  0  0  0  0  0  0  0  0  0  0
  -25.0071  -17.8172   16.0212 N   0  0  0  0  0  0  0  0  0  0  0  0
  -22.9607  -13.9716   17.2128 N   0  0  0  0  0  0  0  0  0  0  0  0
  -27.6609  -28.8548   19.6680 N   0  0  0  0  0  0  0  0  0  0  0  0
  -25.3876  -33.4259   24.1846 N   0  0  0  0  0  0  0  0  0  0  0  0
  -22.8427  -35.9320   23.6274 N   0  3  0  0  0  0  0  0  0  0  0  0
  -23.3513  -15.4106   15.4705 O   0  0  0  0  0  0  0  0  0  0  0  0
  -26.7299  -28.7388   21.7993 O   0  0  0  0  0  0  0  0  0  0  0  0
  -18.6224  -26.3285   20.1279 O   0  0  0  0  0  0  0  0  0  0  0  0
  -27.3942  -22.9032   20.5237 O   0  0  0  0  0  0  0  0  0  0  0  0
  -27.4569  -32.3667   22.5097 O   0  0  0  0  0  0  0  0  0  0  0  0
  -23.0820  -33.1795   24.1591 O   0  0  0  0  0  0  0  0  0  0  0  0
  -23.0333  -11.6317   22.2679 O   0  0  0  0  0  0  0  0  0  0  0  0
  -20.3474  -28.3847   20.1737 O   0  0  0  0  0  0  0  0  0  1  0  0
  -23.4264   -6.4863   20.3252 F   0  0  0  0  0  0  0  0  0  0  0  0
  -21.6480  -10.8611   20.0030 F   0  0  0  0  0  0  0  0  0  0  0  0
  1  2  1  0  0  0  0
  1  5  2  0  0  0  0
  2  6  2  0  0  0  0
  3 10  2  0  0  0  0
  3 18  1  0  0  0  0
  4 11  1  0  0  0  0
  4 18  2  0  0  0  0
  5 20  1  0  0  0  0
  6 22  1  0  0  0  0
  7 12  2  0  0  0  0
  7 21  1  0  0  0  0
  8  9  2  0  0  0  0
  8 24  1  0  0  0  0
  9 25  1  0  0  0  0
 10 27  1  0  0  0  0
 11 27  2  0  0  0  0
 12 28  1  0  0  0  0
 13 14  2  0  0  0  0
 13 29  1  0  0  0  0
 14 30  1  0  0  0  0
 15 23  1  0  0  0  0
 15 28  2  0  0  0  0
 16 24  2  0  0  0  0
 16 26  1  0  0  0  0
 17 30  2  0  0  0  0
 17 31  1  0  0  0  0
 18 32  1  0  0  0  0
 19 32  1  0  0  0  0
 19 33  2  0  0  0  0
 19 34  1  0  0  0  0
 20 22  2  0  0  0  0
 20 40  1  0  0  0  0
 21 23  2  0  0  0  0
 21 41  1  0  0  0  0
 22 49  1  0  0  0  0
 23 42  1  0  0  0  0
 24 58  1  0  0  0  0
 25 26  2  0  0  0  0
 25 59  1  0  0  0  0
 26 52  1  0  0  0  0
 27 81  1  0  0  0  0
 28 82  1  0  0  0  0
 29 31  2  0  0  0  0
 29 81  1  0  0  0  0
 30 83  1  0  0  0  0
 31 84  1  0  0  0  0
 32 66  2  0  0  0  0
 33 67  1  0  0  0  0
 33 70  1  0  0  0  0
 34 71  1  0  0  0  0
 34 75  2  0  0  0  0
 35 50  1  0  0  0  0
 35 72  1  0  0  0  0
 35 76  2  0  0  0  0
 36 60  1  0  0  0  0
 36 61  1  0  0  0  0
 36 77  2  0  0  0  0
 37 62  1  0  0  0  0
 37 69  1  0  0  0  0
 37 78  2  0  0  0  0
 38 63  1  0  0  0  0
 38 68  1  0  0  0  0
 38 79  2  0  0  0  0
 39 64  1  0  0  0  0
 39 73  1  0  0  0  0
 39 80  2  0  0  0  0
 40 43  1  0  0  0  0
 41 50  1  0  0  0  0
 42 68  1  0  0  0  0
 43 45  1  0  0  0  0
 44 46  1  0  0  0  0
 44 47  1  0  0  0  0
 45 49  1  0  0  0  0
 46 51  1  0  0  0  0
 47 69  1  0  0  0  0
 48 51  1  0  0  0  0
 48 69  1  0  0  0  0
 49 72  1  0  0  0  0
 50 68  1  0  0  0  0
 51 67  1  0  0  0  0
 53 64  1  0  0  0  0
 54 65  1  0  0  0  0
 55 65  1  0  0  0  0
 56 65  1  0  0  0  0
 57 74  1  0  0  0  0
 58 60  1  0  0  0  0
 59 62  1  0  0  0  0
 61 82  1  0  0  0  0
 63 65  1  0  0  0  0
 63 73  1  0  0  0  0
 64 74  1  0  0  0  0
 66 67  1  0  0  0  0
M  CHG  1  74   1
M  ISO  4  37 100  61 101  62 100  82 101
M  END
> <Batch ID>
0132

> <Smiles>
CNC(C)C(=O)NC(C(=O)N1Cc2cc([101O:1][101CH2:1]C(=O)CCc3ccc(C[100CH2:0][100C:0](=O)N4CCCC(n5nc(-c6ccc(Oc7ccc(F)cc7F)cc6)c(C(N)=O)c5N)C4)c(C)c3)ccc2CC1C(=O)NC1CCCc2ccccc21)C(C)(C)C

> <Shape>
0.275

> <Color>
0.074

> <Negative vol penalty>
0.000

$$$$

  -OEChem-04052302283D

 84 92  0     1  0  0  0  0  0999 V2000
  -37.2830  -29.8313   28.0224 C   0  0  0  0  0  0  0  0  0  0  0  0
  -36.0833  -29.2543   27.6182 C   0  0  0  0  0  0  0  0  0  0  0  0
  -23.1196   -9.8577   21.4159 C   0  0  0  0  0  0  0  0  0  0  0  0
  -23.8927  -10.7133   23.5390 C   0  0  0  0  0  0  0  0  0  0  0  0
  -37.3101  -31.1618   28.4382 C   0  0  0  0  0  0  0  0  0  0  0  0
  -34.9098  -30.0074   27.6305 C   0  0  0  0  0  0  0  0  0  0  0  0
  -32.1605  -29.3895   23.4228 C   0  0  0  0  0  0  0  0  0  0  0  0
  -29.6517  -19.3944   20.3289 C   0  0  0  0  0  0  0  0  0  0  0  0
  -29.0971  -20.5913   20.7822 C   0  0  0  0  0  0  0  0  0  0  0  0
  -22.4133   -8.8534   22.0778 C   0  0  0  0  0  0  0  0  0  0  0  0
  -23.1863   -9.7090   24.2009 C   0  0  0  0  0  0  0  0  0  0  0  0
  -31.4028  -28.2235   23.3229 C   0  0  0  0  0  0  0  0  0  0  0  0
  -23.0897   -5.8809   23.5375 C   0  0  0  0  0  0  0  0  0  0  0  0
  -23.1828   -4.5839   23.0330 C   0  0  0  0  0  0  0  0  0  0  0  0
  -29.4353  -29.4526   23.9845 C   0  0  0  0  0  0  0  0  0  0  0  0
  -30.5110  -18.9539   22.5436 C   0  0  0  0  0  0  0  0  0  0  0  0
  -20.7922   -4.5477   22.6852 C   0  0  0  0  0  0  0  0  0  0  0  0
  -23.8594  -10.7876   22.1465 C   0  0  0  0  0  0  0  0  0  0  0  0
  -24.1222  -13.1069   21.1172 C   0  0  0  0  0  0  0  0  0  0  0  0
  -36.1380  -31.9343   28.4465 C   0  0  0  0  0  0  0  0  0  0  0  0
  -31.5625  -30.5955   23.8156 C   0  0  0  0  0  0  0  0  0  0  0  0
  -34.9210  -31.3491   28.0481 C   0  0  0  0  0  0  0  0  0  0  0  0
  -30.1872  -30.6330   24.0862 C   0  0  0  0  0  0  0  0  0  0  0  0
  -30.3586  -18.5757   21.2097 C   0  0  0  0  0  0  0  0  0  0  0  0
  -29.2494  -20.9695   22.1161 C   0  0  0  0  0  0  0  0  0  0  0  0
  -22.4466   -8.7791   23.4703 C   0  0  0  0  0  0  0  0  0  0  0  0
  -30.0405  -28.2543   23.6065 C   0  0  0  0  0  0  0  0  0  0  0  0
  -21.8479   -6.5113   23.6160 C   0  0  0  0  0  0  0  0  0  0  0  0
  -22.0340   -3.9172   22.6068 C   0  0  0  0  0  0  0  0  0  0  0  0
  -20.6992   -5.8447   23.1898 C   0  0  0  0  0  0  0  0  0  0  0  0
  -29.9564  -20.1508   22.9968 C   0  0  0  0  0  0  0  0  0  0  0  0
  -24.5897  -11.8249   21.4634 C   0  0  0  0  0  0  0  0  0  0  0  0
  -25.1885  -13.7033   20.4896 C   0  0  0  0  0  0  0  0  0  0  0  0
  -22.8389  -13.7051   21.3429 C   0  0  0  0  0  0  0  0  0  0  0  0
  -31.9372  -32.5937   26.2591 C   0  0  0  0  0  0  0  0  0  0  0  0
  -29.0282  -24.7495   23.0749 C   0  0  0  0  0  0  0  0  0  0  0  0
  -30.6626  -14.8411   20.3194 C   0  0  0  0  0  0  0  0  0  0  0  0
  -29.8221  -34.4059   24.5963 C   0  0  0  0  0  0  0  0  0  0  0  0
  -27.3158  -34.5453   22.2842 C   0  0  0  0  0  0  0  0  0  0  0  0
  -36.2082  -33.3546   28.9492 C   0  0  0  0  0  0  0  0  0  0  0  0
  -32.3885  -31.8502   23.8927 C   0  0  0  0  0  0  0  0  0  0  0  0
  -29.4933  -31.9066   24.4922 C   0  0  0  0  0  0  0  0  0  0  0  0
  -34.9885  -34.1935   28.5769 C   0  0  0  0  0  0  0  0  0  0  0  0
  -29.5544  -11.7690   18.8448 C   0  0  0  0  0  0  0  0  0  0  0  0
  -33.7033  -33.4229   28.8620 C   0  0  0  0  0  0  0  0  0  0  0  0
  -28.1370  -11.5998   19.3901 C   0  0  0  0  0  0  0  0  0  0  0  0
  -30.4754  -12.4159   19.8745 C   0  0  0  0  0  0  0  0  0  0  0  0
  -28.5587  -13.5558   20.9463 C   0  0  0  0  0  0  0  0  0  0  0  0
  -33.6314  -32.1406   28.0240 C   0  0  1  0  0  0  0  0  0  0  0  0
  -31.7768  -32.9134   24.7997 C   0  0  1  0  0  0  0  0  0  0  0  0
  -27.5882  -12.9338   19.9266 C   0  0  2  0  0  0  0  0  0  0  0  0
  -25.7585  -36.1618   21.1622 C   0  0  0  0  0  0  0  0  0  0  0  0
  -28.1232  -34.5230   27.1281 C   0  0  0  0  0  0  0  0  0  0  0  0
  -26.2037  -35.2993   25.7206 C   0  0  0  0  0  0  0  0  0  0  0  0
  -28.2752  -36.6808   25.8731 C   0  0  0  0  0  0  0  0  0  0  0  0
  -28.4152  -33.9257   19.6072 C   0  0  0  0  0  0  0  0  0  0  0  0
  -30.9518  -17.2960   20.7251 C   0  0  0  0  0  0  0  0  0  0  0  0
  -28.6346  -22.2730   22.5664 C   0  0  0  0  0  0  0  0  0  0  0  0
  -29.6450  -23.4164   22.6769 C   0  0  0  0  0  0  0  0  0  0  0  0
  -29.9807  -25.9285   23.1134 C   0  0  0  0  0  0  0  0  0  1  0  0
  -30.0098  -16.0920   20.8513 C   0  0  0  0  0  0  0  0  0  0  0  0
  -28.3178  -34.5246   24.5536 C   0  0  1  0  0  0  0  0  0  0  0  0
  -27.1007  -35.4510   21.0852 C   0  0  2  0  0  0  0  0  0  0  0  0
  -27.7431  -35.2323   25.8131 C   0  0  0  0  0  0  0  0  0  0  0  0
  -25.8544  -11.6182   21.0867 N   0  0  0  0  0  0  0  0  0  0  0  0
  -26.1906  -12.7782   20.4973 N   0  0  0  0  0  0  0  0  0  0  0  0
  -30.3451  -33.1055   24.5596 N   0  0  0  0  0  0  0  0  0  0  0  0
  -29.9083  -13.6690   20.3761 N   0  0  0  0  0  0  0  0  0  0  0  0
  -25.3572  -14.9235   19.9372 N   0  0  0  0  0  0  0  0  0  0  0  0
  -21.8577  -12.9527   22.0025 N   0  0  0  0  0  0  0  0  0  0  0  0
  -33.2509  -32.4477   26.6619 N   0  0  0  0  0  0  0  0  0  0  0  0
  -27.9963  -35.1898   23.2956 N   0  0  0  0  0  0  0  0  0  0  0  0
  -27.1413  -34.6587   19.8236 N   0  3  0  0  0  0  0  0  0  0  0  0
  -22.5651  -14.8665   20.9560 O   0  0  0  0  0  0  0  0  0  0  0  0
  -30.9428  -32.4887   26.9674 O   0  0  0  0  0  0  0  0  0  0  0  0
  -27.8293  -24.8793   23.3166 O   0  0  0  0  0  0  0  0  0  0  0  0
  -31.8077  -14.9063   19.8647 O   0  0  0  0  0  0  0  0  0  0  0  0
  -30.5081  -35.4295   24.6528 O   0  0  0  0  0  0  0  0  0  0  0  0
  -26.9165  -33.3835   22.3216 O   0  0  0  0  0  0  0  0  0  0  0  0
  -21.7573   -7.7994   24.1165 O   0  0  0  0  0  0  0  0  0  0  0  0
  -29.2987  -27.1175   23.5103 O   0  0  0  0  0  0  0  0  0  1  0  0
  -22.1237   -2.6723   22.1208 F   0  0  0  0  0  0  0  0  0  0  0  0
  -19.5035   -6.4457   23.2616 F   0  0  0  0  0  0  0  0  0  0  0  0
  -30.1659  -20.5871   24.6537 Cl  0  0  0  0  0  0  0  0  0  0  0  0
  1  2  1  0  0  0  0
  1  5  2  0  0  0  0
  2  6  2  0  0  0  0
  3 10  2  0  0  0  0
  3 18  1  0  0  0  0
  4 11  1  0  0  0  0
  4 18  2  0  0  0  0
  5 20  1  0  0  0  0
  6 22  1  0  0  0  0
  7 12  2  0  0  0  0
  7 21  1  0  0  0  0
  8  9  2  0  0  0  0
  8 24  1  0  0  0  0
  9 25  1  0  0  0  0
 10 26  1  0  0  0  0
 11 26  2  0  0  0  0
 12 27  1  0  0  0  0
 13 14  2  0  0  0  0
 13 28  1  0  0  0  0
 14 29  1  0  0  0  0
 15 23  1  0  0  0  0
 15 27  2  0  0  0  0
 16 24  2  0  0  0  0
 16 31  1  0  0  0  0
 17 29  2  0  0  0  0
 17 30  1  0  0  0  0
 18 32  1  0  0  0  0
 19 32  1  0  0  0  0
 19 33  2  0  0  0  0
 19 34  1  0  0  0  0
 20 22  2  0  0  0  0
 20 40  1  0  0  0  0
 21 23  2  0  0  0  0
 21 41  1  0  0  0  0
 22 49  1  0  0  0  0
 23 42  1  0  0  0  0
 24 57  1  0  0  0  0
 25 31  2  0  0  0  0
 25 58  1  0  0  0  0
 26 80  1  0  0  0  0
 27 81  1  0  0  0  0
 28 30  2  0  0  0  0
 28 80  1  0  0  0  0
 29 82  1  0  0  0  0
 30 83  1  0  0  0  0
 31 84  1  0  0  0  0
 32 65  2  0  0  0  0
 33 66  1  0  0  0  0
 33 69  1  0  0  0  0
 34 70  1  0  0  0  0
 34 74  2  0  0  0  0
 35 50  1  0  0  0  0
 35 71  1  0  0  0  0
 35 75  2  0  0  0  0
 36 59  1  0  0  0  0
 36 60  1  0  0  0  0
 36 76  2  0  0  0  0
 37 61  1  0  0  0  0
 37 68  1  0  0  0  0
 37 77  2  0  0  0  0
 38 62  1  0  0  0  0
 38 67  1  0  0  0  0
 38 78  2  0  0  0  0
 39 63  1  0  0  0  0
 39 72  1  0  0  0  0
 39 79  2  0  0  0  0
 40 43  1  0  0  0  0
 41 50  1  0  0  0  0
 42 67  1  0  0  0  0
 43 45  1  0  0  0  0
 44 46  1  0  0  0  0
 44 47  1  0  0  0  0
 45 49  1  0  0  0  0
 46 51  1  0  0  0  0
 47 68  1  0  0  0  0
 48 51  1  0  0  0  0
 48 68  1  0  0  0  0
 49 71  1  0  0  0  0
 50 67  1  0  0  0  0
 51 66  1  0  0  0  0
 52 63  1  0  0  0  0
 53 64  1  0  0  0  0
 54 64  1  0  0  0  0
 55 64  1  0  0  0  0
 56 73  1  0  0  0  0
 57 61  1  0  0  0  0
 58 59  1  0  0  0  0
 60 81  1  0  0  0  0
 62 64  1  0  0  0  0
 62 72  1  0  0  0  0
 63 73  1  0  0  0  0
 65 66  1  0  0  0  0
M  CHG  1  73   1
M  ISO  4  37 100  60 101  61 100  81 101
M  END
> <Batch ID>
0132

> <Smiles>
CNC(C)C(=O)NC(C(=O)N1Cc2cc([101O:1][101CH2:1]C(=O)CCc3ccc(C[100CH2:0][100C:0](=O)N4CCCC(n5nc(-c6ccc(Oc7ccc(F)cc7F)cc6)c(C(N)=O)c5N)C4)cc3Cl)ccc2CC1C(=O)NC1CCCc2ccccc21)C(C)(C)C

> <Shape>
0.199

> <Color>
0.163

> <Negative vol penalty>
0.000

$$$$

  -OEChem-04052302283D

 83 91  0     1  0  0  0  0  0999 V2000
  -28.9073  -36.7687   22.7869 C   0  0  0  0  0  0  0  0  0  0  0  0
  -29.1844  -35.5574   22.1614 C   0  0  0  0  0  0  0  0  0  0  0  0
  -31.6354  -20.9199   24.4579 C   0  0  0  0  0  0  0  0  0  0  0  0
  -24.5718   -9.2510   22.1733 C   0  0  0  0  0  0  0  0  0  0  0  0
  -23.7598   -9.5351   19.9156 C   0  0  0  0  0  0  0  0  0  0  0  0
  -31.1071  -19.6305   24.3939 C   0  0  0  0  0  0  0  0  0  0  0  0
  -28.0038  -36.8134   23.8479 C   0  0  0  0  0  0  0  0  0  0  0  0
  -28.5589  -34.3898   22.5972 C   0  0  0  0  0  0  0  0  0  0  0  0
  -26.8019  -29.6461   19.1453 C   0  0  0  0  0  0  0  0  0  0  0  0
  -31.4091  -21.8189   23.4157 C   0  0  0  0  0  0  0  0  0  0  0  0
  -23.3777   -8.6209   22.5235 C   0  0  0  0  0  0  0  0  0  0  0  0
  -22.5657   -8.9049   20.2658 C   0  0  0  0  0  0  0  0  0  0  0  0
  -27.3908  -28.4108   18.8790 C   0  0  0  0  0  0  0  0  0  0  0  0
  -21.9750   -5.5654   22.1640 C   0  0  0  0  0  0  0  0  0  0  0  0
  -22.0565   -4.3964   22.9205 C   0  0  0  0  0  0  0  0  0  0  0  0
  -30.1263  -20.1392   22.2453 C   0  0  0  0  0  0  0  0  0  0  0  0
  -26.0552  -27.4059   20.6185 C   0  0  0  0  0  0  0  0  0  0  0  0
  -20.7683   -5.4427   24.6763 C   0  0  0  0  0  0  0  0  0  0  0  0
  -24.7629   -9.7082   20.8693 C   0  0  0  0  0  0  0  0  0  0  0  0
  -30.3526  -19.2402   23.2875 C   0  0  0  0  0  0  0  0  0  0  0  0
  -27.1644   -9.7519   20.0102 C   0  0  0  0  0  0  0  0  0  0  0  0
  -27.3596  -35.6474   24.2906 C   0  0  0  0  0  0  0  0  0  0  0  0
  -25.8415  -29.7730   20.1592 C   0  0  0  0  0  0  0  0  0  0  0  0
  -27.6469  -34.4187   23.6659 C   0  0  0  0  0  0  0  0  0  0  0  0
  -25.4537  -28.6434   20.8939 C   0  0  0  0  0  0  0  0  0  0  0  0
  -30.6546  -21.4286   22.3094 C   0  0  0  0  0  0  0  0  0  0  0  0
  -22.3747   -8.4478   21.5698 C   0  0  0  0  0  0  0  0  0  0  0  0
  -27.0196  -27.2910   19.6176 C   0  0  0  0  0  0  0  0  0  0  0  0
  -21.2902   -6.6732   22.6637 C   0  0  0  0  0  0  0  0  0  0  0  0
  -21.4532   -4.3350   24.1767 C   0  0  0  0  0  0  0  0  0  0  0  0
  -20.6868   -6.6118   23.9198 C   0  0  0  0  0  0  0  0  0  0  0  0
  -25.9959  -10.3597   20.5071 C   0  0  0  0  0  0  0  0  0  0  0  0
  -28.0409  -10.7930   19.8251 C   0  0  0  0  0  0  0  0  0  0  0  0
  -29.8022  -17.8953   23.2203 C   0  0  0  0  0  0  0  0  0  0  0  0
  -28.7734  -17.5085   22.4365 C   0  0  0  0  0  0  0  0  0  0  0  0
  -27.4335   -8.3697   19.7400 C   0  0  0  0  0  0  0  0  0  0  0  0
  -28.3349  -16.0989   22.4735 C   0  0  0  0  0  0  0  0  0  0  0  0
  -25.6518  -31.4104   22.8770 C   0  0  0  0  0  0  0  0  0  0  0  0
  -28.9144  -24.2666   20.2663 C   0  0  0  0  0  0  0  0  0  0  0  0
  -22.6275  -30.2382   22.9181 C   0  0  0  0  0  0  0  0  0  0  0  0
  -20.4422  -27.8232   21.8989 C   0  0  0  0  0  0  0  0  0  0  0  0
  -26.4263  -35.7376   25.4719 C   0  0  0  0  0  0  0  0  0  0  0  0
  -25.1962  -31.1072   20.4161 C   0  0  0  0  0  0  0  0  0  0  0  0
  -24.4126  -28.7225   21.9794 C   0  0  0  0  0  0  0  0  0  0  0  0
  -25.5231  -34.5170   25.6291 C   0  0  0  0  0  0  0  0  0  0  0  0
  -28.1733  -15.4643   18.8675 C   0  0  0  0  0  0  0  0  0  0  0  0
  -26.3322  -33.2320   25.4849 C   0  0  0  0  0  0  0  0  0  0  0  0
  -27.6533  -14.0294   18.8449 C   0  0  0  0  0  0  0  0  0  0  0  0
  -27.5966  -16.2630   20.0354 C   0  0  0  0  0  0  0  0  0  0  0  0
  -27.2857  -14.1790   21.3394 C   0  0  0  0  0  0  0  0  0  0  0  0
  -26.9698  -33.1347   24.0937 C   0  0  1  0  0  0  0  0  0  0  0  0
  -24.6034  -31.2244   21.8169 C   0  0  1  0  0  0  0  0  0  0  0  0
  -27.8894  -13.3434   20.1998 C   0  0  1  0  0  0  0  0  0  0  0  0
  -18.0463  -27.1119   22.1253 C   0  0  0  0  0  0  0  0  0  0  0  0
  -23.2079  -29.1838   25.7219 C   0  0  0  0  0  0  0  0  0  0  0  0
  -21.1944  -27.7111   25.5094 C   0  0  0  0  0  0  0  0  0  0  0  0
  -20.9369  -30.1912   25.4356 C   0  0  0  0  0  0  0  0  0  0  0  0
  -19.9655  -28.0956   18.9908 C   0  0  0  0  0  0  0  0  0  0  0  0
  -30.4088  -22.4025   21.1820 C   0  0  0  0  0  0  0  0  0  0  0  0
  -29.1429  -23.2414   21.3675 C   0  0  0  0  0  0  0  0  0  0  0  0
  -27.7168  -25.1770   20.4548 C   0  0  0  0  0  0  0  0  0  1  0  0
  -21.9707  -28.9933   23.4638 C   0  0  1  0  0  0  0  0  0  0  0  0
  -19.0474  -27.9119   21.3064 C   0  0  2  0  0  0  0  0  0  0  0  0
  -21.8485  -29.0184   25.0136 C   0  0  0  0  0  0  0  0  0  0  0  0
  -26.1160  -11.6842   20.6301 N   0  0  0  0  0  0  0  0  0  0  0  0
  -27.3704  -11.9173   20.2078 N   0  0  0  0  0  0  0  0  0  0  0  0
  -27.7830  -15.5591   21.3131 N   0  0  0  0  0  0  0  0  0  0  0  0
  -23.8152  -30.0503   22.1972 N   0  0  0  0  0  0  0  0  0  0  0  0
  -29.3121  -10.8473   19.3739 N   0  0  0  0  0  0  0  0  0  0  0  0
  -26.4219   -7.4315   19.9865 N   0  0  0  0  0  0  0  0  0  0  0  0
  -25.9849  -32.7305   23.1134 N   0  0  0  0  0  0  0  0  0  0  0  0
  -20.6960  -28.8649   22.7659 N   0  0  0  0  0  0  0  0  0  0  0  0
  -19.0423  -27.3848   19.9124 N   0  3  0  0  0  0  0  0  0  0  0  0
  -28.5438   -7.9764   19.3086 O   0  0  0  0  0  0  0  0  0  0  0  0
  -28.4798  -15.4859   23.5327 O   0  0  0  0  0  0  0  0  0  0  0  0
  -26.1226  -30.4290   23.4400 O   0  0  0  0  0  0  0  0  0  0  0  0
  -29.6672  -24.3808   19.3004 O   0  0  0  0  0  0  0  0  0  0  0  0
  -22.1021  -31.3363   23.1179 O   0  0  0  0  0  0  0  0  0  0  0  0
  -21.2267  -26.9181   21.6233 O   0  0  0  0  0  0  0  0  0  0  0  0
  -21.2094   -7.8328   21.9111 O   0  0  0  0  0  0  0  0  0  0  0  0
  -27.5933  -26.0842   19.3602 O   0  0  0  0  0  0  0  0  0  1  0  0
  -21.5302   -3.2118   24.9024 F   0  0  0  0  0  0  0  0  0  0  0  0
  -20.0265   -7.6724   24.4046 F   0  0  0  0  0  0  0  0  0  0  0  0
  1  2  1  0  0  0  0
  1  7  2  0  0  0  0
  2  8  2  0  0  0  0
  3  6  1  0  0  0  0
  3 10  2  0  0  0  0
  4 11  2  0  0  0  0
  4 19  1  0  0  0  0
  5 12  1  0  0  0  0
  5 19  2  0  0  0  0
  6 20  2  0  0  0  0
  7 22  1  0  0  0  0
  8 24  1  0  0  0  0
  9 13  2  0  0  0  0
  9 23  1  0  0  0  0
 10 26  1  0  0  0  0
 11 27  1  0  0  0  0
 12 27  2  0  0  0  0
 13 28  1  0  0  0  0
 14 15  2  0  0  0  0
 14 29  1  0  0  0  0
 15 30  1  0  0  0  0
 16 20  1  0  0  0  0
 16 26  2  0  0  0  0
 17 25  1  0  0  0  0
 17 28  2  0  0  0  0
 18 30  2  0  0  0  0
 18 31  1  0  0  0  0
 19 32  1  0  0  0  0
 20 34  1  0  0  0  0
 21 32  1  0  0  0  0
 21 33  2  0  0  0  0
 21 36  1  0  0  0  0
 22 24  2  0  0  0  0
 22 42  1  0  0  0  0
 23 25  2  0  0  0  0
 23 43  1  0  0  0  0
 24 51  1  0  0  0  0
 25 44  1  0  0  0  0
 26 59  1  0  0  0  0
 27 80  1  0  0  0  0
 28 81  1  0  0  0  0
 29 31  2  0  0  0  0
 29 80  1  0  0  0  0
 30 82  1  0  0  0  0
 31 83  1  0  0  0  0
 32 65  2  0  0  0  0
 33 66  1  0  0  0  0
 33 69  1  0  0  0  0
 34 35  2  0  0  0  0
 35 37  1  0  0  0  0
 36 70  1  0  0  0  0
 36 74  2  0  0  0  0
 37 67  1  0  0  0  0
 37 75  2  0  0  0  0
 38 52  1  0  0  0  0
 38 71  1  0  0  0  0
 38 76  2  0  0  0  0
 39 60  1  0  0  0  0
 39 61  1  0  0  0  0
 39 77  2  0  0  0  0
 40 62  1  0  0  0  0
 40 68  1  0  0  0  0
 40 78  2  0  0  0  0
 41 63  1  0  0  0  0
 41 72  1  0  0  0  0
 41 79  2  0  0  0  0
 42 45  1  0  0  0  0
 43 52  1  0  0  0  0
 44 68  1  0  0  0  0
 45 47  1  0  0  0  0
 46 48  1  0  0  0  0
 46 49  1  0  0  0  0
 47 51  1  0  0  0  0
 48 53  1  0  0  0  0
 49 67  1  0  0  0  0
 50 53  1  0  0  0  0
 50 67  1  0  0  0  0
 51 71  1  0  0  0  0
 52 68  1  0  0  0  0
 53 66  1  0  0  0  0
 54 63  1  0  0  0  0
 55 64  1  0  0  0  0
 56 64  1  0  0  0  0
 57 64  1  0  0  0  0
 58 73  1  0  0  0  0
 59 60  1  0  0  0  0
 61 81  1  0  0  0  0
 62 64  1  0  0  0  0
 62 72  1  0  0  0  0
 63 73  1  0  0  0  0
 65 66  1  0  0  0  0
M  CHG  1  73   1
M  ISO  4  35 100  37 100  61 101  81 101
M  END
> <Batch ID>
0132

> <Smiles>
CNC(C)C(=O)NC(C(=O)N1Cc2cc([101O:1][101CH2:1]C(=O)CCc3cccc(C=[100CH:0][100C:0](=O)N4CCCC(n5nc(-c6ccc(Oc7ccc(F)cc7F)cc6)c(C(N)=O)c5N)C4)c3)ccc2CC1C(=O)NC1CCCc2ccccc21)C(C)(C)C

> <Shape>
0.307

> <Color>
0.113

> <Negative vol penalty>
0.000

$$$$

  -OEChem-04052302283D

 86 94  0     1  0  0  0  0  0999 V2000
  -20.9389  -30.7751   24.0966 C   0  0  0  0  0  0  0  0  0  0  0  0
  -22.0715  -30.0199   23.8094 C   0  0  0  0  0  0  0  0  0  0  0  0
  -24.0869  -14.1547   20.1249 C   0  0  0  0  0  0  0  0  0  0  0  0
  -26.4436  -14.1577   20.6568 C   0  0  0  0  0  0  0  0  0  0  0  0
  -19.6733  -30.2740   23.7945 C   0  0  0  0  0  0  0  0  0  0  0  0
  -21.9390  -28.7627   23.2209 C   0  0  0  0  0  0  0  0  0  0  0  0
  -25.2222  -28.0344   19.4347 C   0  0  0  0  0  0  0  0  0  0  0  0
  -31.1584  -27.8162   18.0756 C   0  0  0  0  0  0  0  0  0  0  0  0
  -30.2353  -27.5451   17.0657 C   0  0  0  0  0  0  0  0  0  0  0  0
  -23.9204  -12.9866   20.8687 C   0  0  0  0  0  0  0  0  0  0  0  0
  -26.2771  -12.9895   21.4007 C   0  0  0  0  0  0  0  0  0  0  0  0
  -26.5365  -27.7253   19.7822 C   0  0  0  0  0  0  0  0  0  0  0  0
  -24.4736   -9.6768   20.4644 C   0  0  0  0  0  0  0  0  0  0  0  0
  -23.7067   -8.6558   19.9031 C   0  0  0  0  0  0  0  0  0  0  0  0
  -31.1599  -25.4825   18.7009 C   0  0  0  0  0  0  0  0  0  0  0  0
  -26.0945  -25.3926   19.3549 C   0  0  0  0  0  0  0  0  0  0  0  0
  -22.1751   -8.7815   21.7674 C   0  0  0  0  0  0  0  0  0  0  0  0
  -25.3485  -14.7403   20.0189 C   0  0  0  0  0  0  0  0  0  0  0  0
  -30.2368  -25.2114   17.6910 C   0  0  0  0  0  0  0  0  0  0  0  0
  -25.2557  -16.1266   17.8795 C   0  0  0  0  0  0  0  0  0  0  0  0
  -19.5258  -29.0142   23.1931 C   0  0  0  0  0  0  0  0  0  0  0  0
  -24.3295  -27.0219   19.0545 C   0  0  0  0  0  0  0  0  0  0  0  0
  -20.6702  -28.2438   22.9117 C   0  0  0  0  0  0  0  0  0  0  0  0
  -24.7701  -25.6918   19.0005 C   0  0  0  0  0  0  0  0  0  0  0  0
  -31.6208  -26.7849   18.8932 C   0  0  0  0  0  0  0  0  0  0  0  0
  -29.7745  -26.2427   16.8734 C   0  0  0  0  0  0  0  0  0  0  0  0
  -25.0155  -12.4040   21.5066 C   0  0  0  0  0  0  0  0  0  0  0  0
  -26.9720  -26.4039   19.7451 C   0  0  0  0  0  0  0  0  0  0  0  0
  -24.0914  -10.2501   21.6772 C   0  0  0  0  0  0  0  0  0  0  0  0
  -22.5574   -8.2082   20.5546 C   0  0  0  0  0  0  0  0  0  0  0  0
  -22.9421   -9.8025   22.3287 C   0  0  0  0  0  0  0  0  0  0  0  0
  -25.5211  -15.9467   19.2502 C   0  0  0  0  0  0  0  0  0  0  0  0
  -25.5808  -17.4387   17.6361 C   0  0  0  0  0  0  0  0  0  0  0  0
  -29.7740  -23.8409   17.5151 C   0  0  0  0  0  0  0  0  0  0  0  0
  -29.6467  -22.9277   18.4992 C   0  0  0  0  0  0  0  0  0  0  0  0
  -29.8629  -26.1202   21.8273 C   0  0  0  0  0  0  0  0  0  0  0  0
  -24.7597  -15.1913   16.9126 C   0  0  0  0  0  0  0  0  0  0  0  0
  -31.1916  -26.3055   21.9667 C   0  0  0  0  0  0  0  0  0  0  0  0
  -29.1528  -21.5775   18.1618 C   0  0  0  0  0  0  0  0  0  0  0  0
  -21.5870  -25.9008   20.2056 C   0  0  0  0  0  0  0  0  0  0  0  0
  -21.6246  -24.1235   17.4923 C   0  0  0  0  0  0  0  0  0  0  0  0
  -23.4519  -22.7054   14.9829 C   0  0  0  0  0  0  0  0  0  0  0  0
  -18.1349  -28.4945   22.9284 C   0  0  0  0  0  0  0  0  0  0  0  0
  -22.9226  -27.3751   18.6568 C   0  0  0  0  0  0  0  0  0  0  0  0
  -23.8569  -24.5705   18.5797 C   0  0  0  0  0  0  0  0  0  0  0  0
  -18.0997  -27.3129   21.9626 C   0  0  0  0  0  0  0  0  0  0  0  0
  -26.6302  -21.2253   20.7970 C   0  0  0  0  0  0  0  0  0  0  0  0
  -19.1612  -26.2841   22.3389 C   0  0  0  0  0  0  0  0  0  0  0  0
  -26.1307  -19.8066   20.5376 C   0  0  0  0  0  0  0  0  0  0  0  0
  -28.1190  -21.3730   20.4868 C   0  0  0  0  0  0  0  0  0  0  0  0
  -27.9869  -19.5181   18.8490 C   0  0  0  0  0  0  0  0  0  0  0  0
  -20.5688  -26.8862   22.2509 C   0  0  1  0  0  0  0  0  0  0  0  0
  -21.9546  -26.2024   18.7803 C   0  0  1  0  0  0  0  0  0  0  0  0
  -26.4810  -19.3587   19.1097 C   0  0  1  0  0  0  0  0  0  0  0  0
  -28.7838  -25.9892   15.7828 C   0  0  0  0  0  0  0  0  0  0  0  0
  -32.0742  -25.7452   24.2697 C   0  0  0  0  0  0  0  0  0  0  0  0
  -23.9083  -21.4787   12.8418 C   0  0  0  0  0  0  0  0  0  0  0  0
  -21.2624  -21.6572   19.2518 C   0  0  0  0  0  0  0  0  0  0  0  0
  -21.9713  -20.2506   17.3057 C   0  0  0  0  0  0  0  0  0  0  0  0
  -19.9095  -21.6460   17.1485 C   0  0  0  0  0  0  0  0  0  0  0  0
  -23.3031  -25.1949   13.3894 C   0  0  0  0  0  0  0  0  0  0  0  0
  -32.6190  -27.0795   19.9850 C   0  0  0  0  0  0  0  0  0  0  0  0
  -28.8899  -26.9428   21.0442 C   0  0  0  0  0  0  0  0  0  1  0  0
  -31.9942  -25.3302   22.8069 C   0  0  0  0  0  0  0  0  0  0  0  0
  -31.9711  -27.4401   21.3301 C   0  0  0  0  0  0  0  0  0  0  0  0
  -22.1734  -22.7707   17.1079 C   0  0  1  0  0  0  0  0  0  0  0  0
  -23.2602  -22.6991   13.4770 C   0  0  2  0  0  0  0  0  0  0  0  0
  -21.3461  -21.6018   17.7133 C   0  0  0  0  0  0  0  0  0  0  0  0
  -25.9796  -17.0558   19.8366 N   0  0  0  0  0  0  0  0  0  0  0  0
  -26.0049  -17.9451   18.8294 N   0  0  0  0  0  0  0  0  0  0  0  0
  -28.4387  -20.8839   19.1372 N   0  0  0  0  0  0  0  0  0  0  0  0
  -22.4888  -24.9657   18.2063 N   0  0  0  0  0  0  0  0  0  0  0  0
  -25.5424  -18.1971   16.5200 N   0  0  0  0  0  0  0  0  0  0  0  0
  -25.6833  -14.4197   16.1944 N   0  0  0  0  0  0  0  0  0  0  0  0
  -21.0014  -26.9604   20.8719 N   0  0  0  0  0  0  0  0  0  0  0  0
  -22.2468  -22.7590   15.6509 N   0  0  0  0  0  0  0  0  0  0  0  0
  -23.8643  -23.9201   12.8728 N   0  3  0  0  0  0  0  0  0  0  0  0
  -23.5344  -15.0560   16.6804 O   0  0  0  0  0  0  0  0  0  0  0  0
  -29.4073  -21.1437   17.0368 O   0  0  0  0  0  0  0  0  0  0  0  0
  -21.8161  -24.7886   20.6663 O   0  0  0  0  0  0  0  0  0  0  0  0
  -20.4742  -24.4248   17.1647 O   0  0  0  0  0  0  0  0  0  0  0  0
  -24.5596  -22.6631   15.5136 O   0  0  0  0  0  0  0  0  0  0  0  0
  -24.8534  -11.2642   22.2327 O   0  0  0  0  0  0  0  0  0  0  0  0
  -28.2542  -26.0994   20.0845 O   0  0  0  0  0  0  0  0  0  1  0  0
  -21.8202   -7.2288   20.0148 F   0  0  0  0  0  0  0  0  0  0  0  0
  -22.5692  -10.3503   23.4935 F   0  0  0  0  0  0  0  0  0  0  0  0
  1  2  1  0  0  0  0
  1  5  2  0  0  0  0
  2  6  2  0  0  0  0
  3 10  2  0  0  0  0
  3 18  1  0  0  0  0
  4 11  1  0  0  0  0
  4 18  2  0  0  0  0
  5 21  1  0  0  0  0
  6 23  1  0  0  0  0
  7 12  2  0  0  0  0
  7 22  1  0  0  0  0
  8  9  2  0  0  0  0
  8 25  1  0  0  0  0
  9 26  1  0  0  0  0
 10 27  1  0  0  0  0
 11 27  2  0  0  0  0
 12 28  1  0  0  0  0
 13 14  2  0  0  0  0
 13 29  1  0  0  0  0
 14 30  1  0  0  0  0
 15 19  1  0  0  0  0
 15 25  2  0  0  0  0
 16 24  1  0  0  0  0
 16 28  2  0  0  0  0
 17 30  2  0  0  0  0
 17 31  1  0  0  0  0
 18 32  1  0  0  0  0
 19 26  2  0  0  0  0
 19 34  1  0  0  0  0
 20 32  1  0  0  0  0
 20 33  2  0  0  0  0
 20 37  1  0  0  0  0
 21 23  2  0  0  0  0
 21 43  1  0  0  0  0
 22 24  2  0  0  0  0
 22 44  1  0  0  0  0
 23 52  1  0  0  0  0
 24 45  1  0  0  0  0
 25 62  1  0  0  0  0
 26 55  1  0  0  0  0
 27 83  1  0  0  0  0
 28 84  1  0  0  0  0
 29 31  2  0  0  0  0
 29 83  1  0  0  0  0
 30 85  1  0  0  0  0
 31 86  1  0  0  0  0
 32 69  2  0  0  0  0
 33 70  1  0  0  0  0
 33 73  1  0  0  0  0
 34 35  2  0  0  0  0
 35 39  1  0  0  0  0
 36 38  2  0  0  0  0
 36 63  1  0  0  0  0
 37 74  1  0  0  0  0
 37 78  2  0  0  0  0
 38 64  1  0  0  0  0
 38 65  1  0  0  0  0
 39 71  1  0  0  0  0
 39 79  2  0  0  0  0
 40 53  1  0  0  0  0
 40 75  1  0  0  0  0
 40 80  2  0  0  0  0
 41 66  1  0  0  0  0
 41 72  1  0  0  0  0
 41 81  2  0  0  0  0
 42 67  1  0  0  0  0
 42 76  1  0  0  0  0
 42 82  2  0  0  0  0
 43 46  1  0  0  0  0
 44 53  1  0  0  0  0
 45 72  1  0  0  0  0
 46 48  1  0  0  0  0
 47 49  1  0  0  0  0
 47 50  1  0  0  0  0
 48 52  1  0  0  0  0
 49 54  1  0  0  0  0
 50 71  1  0  0  0  0
 51 54  1  0  0  0  0
 51 71  1  0  0  0  0
 52 75  1  0  0  0  0
 53 72  1  0  0  0  0
 54 70  1  0  0  0  0
 56 64  1  0  0  0  0
 57 67  1  0  0  0  0
 58 68  1  0  0  0  0
 59 68  1  0  0  0  0
 60 68  1  0  0  0  0
 61 77  1  0  0  0  0
 62 65  1  0  0  0  0
 63 84  1  0  0  0  0
 66 68  1  0  0  0  0
 66 76  1  0  0  0  0
 67 77  1  0  0  0  0
 69 70  1  0  0  0  0
M  CHG  1  77   1
M  ISO  4  35 100  39 100  63 101  84 101
M  END
> <Batch ID>
0132

> <Smiles>
CCC(=C[101CH2:1][101O:1]c1ccc2c(c1)CN(C(=O)C(NC(=O)C(C)NC)C(C)(C)C)C(C(=O)NC1CCCc3ccccc31)C2)CCc1ccc(C)c(C=[100CH:0][100C:0](=O)N2CCCC(n3nc(-c4ccc(Oc5ccc(F)cc5F)cc4)c(C(N)=O)c3N)C2)c1

> <Shape>
0.229

> <Color>
0.060

> <Negative vol penalty>
0.000

$$$$

  -OEChem-04052302283D

 83 91  0     1  0  0  0  0  0999 V2000
  -27.6210  -20.5301   14.2879 C   0  0  0  0  0  0  0  0  0  0  0  0
  -26.8621  -21.6943   14.3517 C   0  0  0  0  0  0  0  0  0  0  0  0
  -23.8429  -14.6806   21.8033 C   0  0  0  0  0  0  0  0  0  0  0  0
  -25.9970  -15.1693   22.7822 C   0  0  0  0  0  0  0  0  0  0  0  0
  -28.1777  -19.9977   15.4501 C   0  0  0  0  0  0  0  0  0  0  0  0
  -26.6585  -22.3263   15.5779 C   0  0  0  0  0  0  0  0  0  0  0  0
  -25.8058  -28.8437   18.4261 C   0  0  0  0  0  0  0  0  0  0  0  0
  -24.3878  -13.5701   21.1587 C   0  0  0  0  0  0  0  0  0  0  0  0
  -26.5419  -14.0588   22.1375 C   0  0  0  0  0  0  0  0  0  0  0  0
  -24.9391  -29.5502   19.2589 C   0  0  0  0  0  0  0  0  0  0  0  0
  -27.6298  -13.2633   19.0367 C   0  0  0  0  0  0  0  0  0  0  0  0
  -28.8609  -13.4226   18.4006 C   0  0  0  0  0  0  0  0  0  0  0  0
  -26.0155  -28.5834   21.1892 C   0  0  0  0  0  0  0  0  0  0  0  0
  -18.9257  -28.3419   23.1319 C   0  0  0  0  0  0  0  0  0  0  0  0
  -29.8169  -11.7212   19.8249 C   0  0  0  0  0  0  0  0  0  0  0  0
  -24.6476  -15.4802   22.6151 C   0  0  0  0  0  0  0  0  0  0  0  0
  -23.4965  -16.6651   24.5589 C   0  0  0  0  0  0  0  0  0  0  0  0
  -27.9889  -20.6288   16.6897 C   0  0  0  0  0  0  0  0  0  0  0  0
  -26.7783  -27.9919   18.9693 C   0  0  0  0  0  0  0  0  0  0  0  0
  -27.2121  -21.8011   16.7579 C   0  0  0  0  0  0  0  0  0  0  0  0
  -26.8949  -27.8692   20.3612 C   0  0  0  0  0  0  0  0  0  0  0  0
  -18.9502  -27.0471   23.7260 C   0  0  0  0  0  0  0  0  0  0  0  0
  -25.7372  -13.2592   21.3257 C   0  0  0  0  0  0  0  0  0  0  0  0
  -25.0420  -29.4179   20.6406 C   0  0  0  0  0  0  0  0  0  0  0  0
  -27.4922  -12.3330   20.0670 C   0  0  0  0  0  0  0  0  0  0  0  0
  -29.9544  -12.6515   18.7947 C   0  0  0  0  0  0  0  0  0  0  0  0
  -28.5858  -11.5620   20.4610 C   0  0  0  0  0  0  0  0  0  0  0  0
  -24.0855  -16.6278   23.2808 C   0  0  0  0  0  0  0  0  0  0  0  0
  -19.5915  -26.1243   22.9293 C   0  0  0  0  0  0  0  0  0  0  0  0
  -19.5495  -28.3595   21.9037 C   0  0  0  0  0  0  0  0  0  0  0  0
  -23.1236  -17.9763   24.7269 C   0  0  0  0  0  0  0  0  0  0  0  0
  -19.8199  -24.7502   23.1637 C   0  0  0  0  0  0  0  0  0  0  0  0
  -20.4872  -23.8727   22.3421 C   0  0  0  0  0  0  0  0  0  0  0  0
  -23.3037  -15.6091   25.5093 C   0  0  0  0  0  0  0  0  0  0  0  0
  -20.6531  -22.4587   22.7343 C   0  0  0  0  0  0  0  0  0  0  0  0
  -27.3748  -24.8741   18.8031 C   0  0  0  0  0  0  0  0  0  0  0  0
  -30.0367  -25.6905   20.4675 C   0  0  0  0  0  0  0  0  0  0  0  0
  -31.5797  -27.8979   22.5635 C   0  0  0  0  0  0  0  0  0  0  0  0
  -28.5710  -19.9898   17.9257 C   0  0  0  0  0  0  0  0  0  0  0  0
  -27.7230  -27.2573   18.0580 C   0  0  0  0  0  0  0  0  0  0  0  0
  -27.9353  -26.9833   20.9948 C   0  0  0  0  0  0  0  0  0  0  0  0
  -28.6206  -20.9266   19.1299 C   0  0  0  0  0  0  0  0  0  0  0  0
  -24.2343  -22.0988   22.0433 C   0  0  0  0  0  0  0  0  0  0  0  0
  -27.2924  -21.6591   19.2915 C   0  0  0  0  0  0  0  0  0  0  0  0
  -24.4491  -20.6229   22.3676 C   0  0  0  0  0  0  0  0  0  0  0  0
  -22.8530  -22.3573   21.4434 C   0  0  0  0  0  0  0  0  0  0  0  0
  -21.9478  -20.3657   22.6073 C   0  0  0  0  0  0  0  0  0  0  0  0
  -26.9895  -22.5292   18.0657 C   0  0  1  0  0  0  0  0  0  0  0  0
  -28.3397  -26.0220   18.7069 C   0  0  1  0  0  0  0  0  0  0  0  0
  -23.3135  -20.0898   23.2555 C   0  0  1  0  0  0  0  0  0  0  0  0
  -18.3487  -26.7496   25.0496 C   0  0  0  0  0  0  0  0  0  0  0  0
  -33.7416  -28.2772   23.7800 C   0  0  0  0  0  0  0  0  0  0  0  0
  -22.2700  -31.6092   23.0596 C   0  0  0  0  0  0  0  0  0  0  0  0
  -29.2496  -23.5754   22.5209 C   0  0  0  0  0  0  0  0  0  0  0  0
  -30.8559  -24.6335   24.1235 C   0  0  0  0  0  0  0  0  0  0  0  0
  -31.6916  -23.6534   21.9872 C   0  0  0  0  0  0  0  0  0  0  0  0
  -32.0803  -30.4336   21.1218 C   0  0  0  0  0  0  0  0  0  0  0  0
  -19.7362  -29.5229   20.9621 C   0  0  0  0  0  0  0  0  0  0  0  0
  -20.4285  -30.7360   21.5988 C   0  0  0  0  0  0  0  0  0  0  0  0
  -22.8943  -30.3918   20.9481 C   0  0  0  0  0  0  0  0  0  1  0  0
  -30.3856  -25.8175   21.9307 C   0  0  1  0  0  0  0  0  0  0  0  0
  -32.9504  -28.5481   22.5098 C   0  0  2  0  0  0  0  0  0  0  0  0
  -21.8725  -30.4896   22.0891 C   0  0  1  0  0  0  0  0  0  0  0  0
  -30.5247  -24.4352   22.6289 C   0  0  0  0  0  0  0  0  0  0  0  0
  -24.0887  -17.8204   22.6795 N   0  0  0  0  0  0  0  0  0  0  0  0
  -23.4971  -18.6195   23.5837 N   0  0  0  0  0  0  0  0  0  0  0  0
  -21.7872  -21.7871   22.2811 N   0  0  0  0  0  0  0  0  0  0  0  0
  -28.8315  -26.2810   20.0616 N   0  0  0  0  0  0  0  0  0  0  0  0
  -22.5159  -18.6303   25.7395 N   0  0  0  0  0  0  0  0  0  0  0  0
  -23.7462  -14.3216   25.1764 N   0  0  0  0  0  0  0  0  0  0  0  0
  -27.7689  -23.7480   18.1060 N   0  0  0  0  0  0  0  0  0  0  0  0
  -31.5873  -26.6423   21.9937 N   0  0  0  0  0  0  0  0  0  0  0  0
  -32.8178  -30.0233   22.3443 N   0  3  0  0  0  0  0  0  0  0  0  0
  -22.7405  -15.7981   26.6141 O   0  0  0  0  0  0  0  0  0  0  0  0
  -19.7737  -21.9564   23.4364 O   0  0  0  0  0  0  0  0  0  0  0  0
  -26.3495  -25.0004   19.4622 O   0  0  0  0  0  0  0  0  0  0  0  0
  -30.8086  -25.0958   19.7111 O   0  0  0  0  0  0  0  0  0  0  0  0
  -30.6010  -28.4473   23.0644 O   0  0  0  0  0  0  0  0  0  0  0  0
  -26.2691  -12.1755   20.6970 O   0  0  0  0  0  0  0  0  0  0  0  0
  -24.1969  -30.1059   21.4557 O   0  0  0  0  0  0  0  0  0  1  0  0
  -31.1362  -12.8035   18.1827 F   0  0  0  0  0  0  0  0  0  0  0  0
  -28.4594  -10.6658   21.4493 F   0  0  0  0  0  0  0  0  0  0  0  0
  -20.1608  -26.8195   21.4715 S   0  0  0  0  0  0  0  0  0  0  0  0
  1  2  1  0  0  0  0
  1  5  2  0  0  0  0
  2  6  2  0  0  0  0
  3  8  2  0  0  0  0
  3 16  1  0  0  0  0
  4  9  1  0  0  0  0
  4 16  2  0  0  0  0
  5 18  1  0  0  0  0
  6 20  1  0  0  0  0
  7 10  2  0  0  0  0
  7 19  1  0  0  0  0
  8 23  1  0  0  0  0
  9 23  2  0  0  0  0
 10 24  1  0  0  0  0
 11 12  2  0  0  0  0
 11 25  1  0  0  0  0
 12 26  1  0  0  0  0
 13 21  1  0  0  0  0
 13 24  2  0  0  0  0
 14 22  1  0  0  0  0
 14 30  2  0  0  0  0
 15 26  2  0  0  0  0
 15 27  1  0  0  0  0
 16 28  1  0  0  0  0
 17 28  1  0  0  0  0
 17 31  2  0  0  0  0
 17 34  1  0  0  0  0
 18 20  2  0  0  0  0
 18 39  1  0  0  0  0
 19 21  2  0  0  0  0
 19 40  1  0  0  0  0
 20 48  1  0  0  0  0
 21 41  1  0  0  0  0
 22 29  2  0  0  0  0
 22 51  1  0  0  0  0
 23 79  1  0  0  0  0
 24 80  1  0  0  0  0
 25 27  2  0  0  0  0
 25 79  1  0  0  0  0
 26 81  1  0  0  0  0
 27 82  1  0  0  0  0
 28 65  2  0  0  0  0
 29 32  1  0  0  0  0
 29 83  1  0  0  0  0
 30 58  1  0  0  0  0
 30 83  1  0  0  0  0
 31 66  1  0  0  0  0
 31 69  1  0  0  0  0
 32 33  2  0  0  0  0
 33 35  1  0  0  0  0
 34 70  1  0  0  0  0
 34 74  2  0  0  0  0
 35 67  1  0  0  0  0
 35 75  2  0  0  0  0
 36 49  1  0  0  0  0
 36 71  1  0  0  0  0
 36 76  2  0  0  0  0
 37 61  1  0  0  0  0
 37 68  1  0  0  0  0
 37 77  2  0  0  0  0
 38 62  1  0  0  0  0
 38 72  1  0  0  0  0
 38 78  2  0  0  0  0
 39 42  1  0  0  0  0
 40 49  1  0  0  0  0
 41 68  1  0  0  0  0
 42 44  1  0  0  0  0
 43 45  1  0  0  0  0
 43 46  1  0  0  0  0
 44 48  1  0  0  0  0
 45 50  1  0  0  0  0
 46 67  1  0  0  0  0
 47 50  1  0  0  0  0
 47 67  1  0  0  0  0
 48 71  1  0  0  0  0
 49 68  1  0  0  0  0
 50 66  1  0  0  0  0
 52 62  1  0  0  0  0
 53 63  1  0  0  0  0
 54 64  1  0  0  0  0
 55 64  1  0  0  0  0
 56 64  1  0  0  0  0
 57 73  1  0  0  0  0
 58 59  1  0  0  0  0
 59 63  1  0  0  0  0
 60 63  1  0  0  0  0
 60 80  1  0  0  0  0
 61 64  1  0  0  0  0
 61 72  1  0  0  0  0
 62 73  1  0  0  0  0
 65 66  1  0  0  0  0
M  CHG  1  73   1
M  ISO  4  33 100  35 100  60 101  80 101
M  END
> <Batch ID>
0132

> <Smiles>
CNC(C)C(=O)NC(C(=O)N1Cc2cc([101O:1][101CH2:1]C(C)CCc3cc(C)c(C=[100CH:0][100C:0](=O)N4CCCC(n5nc(-c6ccc(Oc7ccc(F)cc7F)cc6)c(C(N)=O)c5N)C4)s3)ccc2CC1C(=O)NC1CCCc2ccccc21)C(C)(C)C

> <Shape>
0.185

> <Color>
0.081

> <Negative vol penalty>
0.000

$$$$

  -OEChem-04052302283D

 85 93  0     1  0  0  0  0  0999 V2000
  -28.0363  -37.4239   19.3293 C   0  0  0  0  0  0  0  0  0  0  0  0
  -28.4753  -36.1133   19.1717 C   0  0  0  0  0  0  0  0  0  0  0  0
  -22.9572  -10.1203   19.9010 C   0  0  0  0  0  0  0  0  0  0  0  0
  -24.0302   -9.6766   22.0197 C   0  0  0  0  0  0  0  0  0  0  0  0
  -29.7688  -17.4662   20.5230 C   0  0  0  0  0  0  0  0  0  0  0  0
  -27.1396  -37.7396   20.3492 C   0  0  0  0  0  0  0  0  0  0  0  0
  -28.0186  -35.1177   20.0346 C   0  0  0  0  0  0  0  0  0  0  0  0
  -26.9184  -29.2569   18.6395 C   0  0  0  0  0  0  0  0  0  0  0  0
  -22.2305   -8.9358   20.0210 C   0  0  0  0  0  0  0  0  0  0  0  0
  -23.3035   -8.4921   22.1397 C   0  0  0  0  0  0  0  0  0  0  0  0
  -29.0419  -18.6468   20.3706 C   0  0  0  0  0  0  0  0  0  0  0  0
  -27.6710  -28.0954   18.8078 C   0  0  0  0  0  0  0  0  0  0  0  0
  -20.1745   -7.5701   23.0231 C   0  0  0  0  0  0  0  0  0  0  0  0
  -19.5880   -7.2937   24.2580 C   0  0  0  0  0  0  0  0  0  0  0  0
  -26.4940  -27.6378   20.8632 C   0  0  0  0  0  0  0  0  0  0  0  0
  -27.8963  -18.2103   22.4525 C   0  0  0  0  0  0  0  0  0  0  0  0
  -20.8774   -5.2565   24.4144 C   0  0  0  0  0  0  0  0  0  0  0  0
  -23.8571  -10.4907   20.9004 C   0  0  0  0  0  0  0  0  0  0  0  0
  -29.5594  -16.6575   21.6401 C   0  0  0  0  0  0  0  0  0  0  0  0
  -24.2341  -12.9915   21.2341 C   0  0  0  0  0  0  0  0  0  0  0  0
  -26.6643  -36.7456   21.2191 C   0  0  0  0  0  0  0  0  0  0  0  0
  -25.9539  -29.6239   19.5890 C   0  0  0  0  0  0  0  0  0  0  0  0
  -27.1158  -35.4206   21.0680 C   0  0  0  0  0  0  0  0  0  0  0  0
  -25.7288  -28.8031   20.7033 C   0  0  0  0  0  0  0  0  0  0  0  0
  -28.6232  -17.0295   22.6048 C   0  0  0  0  0  0  0  0  0  0  0  0
  -22.4036   -8.1217   21.1403 C   0  0  0  0  0  0  0  0  0  0  0  0
  -27.4609  -27.2872   19.9213 C   0  0  0  0  0  0  0  0  0  0  0  0
  -28.1057  -19.0189   21.3353 C   0  0  0  0  0  0  0  0  0  0  0  0
  -21.1125   -6.6897   22.4837 C   0  0  0  0  0  0  0  0  0  0  0  0
  -19.9395   -6.1369   24.9537 C   0  0  0  0  0  0  0  0  0  0  0  0
  -21.4639   -5.5329   23.1794 C   0  0  0  0  0  0  0  0  0  0  0  0
  -24.6085  -11.7139   20.7767 C   0  0  0  0  0  0  0  0  0  0  0  0
  -25.2809  -13.8051   20.8753 C   0  0  0  0  0  0  0  0  0  0  0  0
  -30.3316  -15.4296   21.7734 C   0  0  0  0  0  0  0  0  0  0  0  0
  -23.0463  -13.4058   21.9220 C   0  0  0  0  0  0  0  0  0  0  0  0
  -30.7981  -14.6810   20.5838 C   0  0  0  0  0  0  0  0  0  0  0  0
  -25.5515  -32.1057   21.5339 C   0  0  0  0  0  0  0  0  0  0  0  0
  -22.7180  -30.6569   22.1618 C   0  0  0  0  0  0  0  0  0  0  0  0
  -20.8826  -27.7801   22.2086 C   0  0  0  0  0  0  0  0  0  0  0  0
  -25.7324  -37.1436   22.3362 C   0  0  0  0  0  0  0  0  0  0  0  0
  -25.1318  -30.8658   19.3792 C   0  0  0  0  0  0  0  0  0  0  0  0
  -24.6912  -29.1420   21.7412 C   0  0  0  0  0  0  0  0  0  0  0  0
  -25.0069  -35.9618   22.9743 C   0  0  0  0  0  0  0  0  0  0  0  0
  -29.2372  -12.9593   17.8532 C   0  0  0  0  0  0  0  0  0  0  0  0
  -25.9849  -34.8272   23.2622 C   0  0  0  0  0  0  0  0  0  0  0  0
  -27.8783  -12.5532   18.4224 C   0  0  0  0  0  0  0  0  0  0  0  0
  -30.3237  -12.9244   18.9231 C   0  0  0  0  0  0  0  0  0  0  0  0
  -28.6493  -13.3504   20.7018 C   0  0  0  0  0  0  0  0  0  0  0  0
  -26.6241  -34.3083   21.9685 C   0  0  1  0  0  0  0  0  0  0  0  0
  -24.5344  -31.4124   20.6721 C   0  0  1  0  0  0  0  0  0  0  0  0
  -27.5211  -13.4004   19.6567 C   0  0  2  0  0  0  0  0  0  0  0  0
  -29.0450  -16.7515   25.0607 C   0  0  0  0  0  0  0  0  0  0  0  0
  -18.6087  -26.9037   22.8075 C   0  0  0  0  0  0  0  0  0  0  0  0
  -23.4500  -30.7870   25.1211 C   0  0  0  0  0  0  0  0  0  0  0  0
  -21.6580  -29.0964   25.5671 C   0  0  0  0  0  0  0  0  0  0  0  0
  -21.0605  -31.3224   24.6129 C   0  0  0  0  0  0  0  0  0  0  0  0
  -20.3608  -26.9042   19.4302 C   0  0  0  0  0  0  0  0  0  0  0  0
  -28.3802  -16.1824   23.8112 C   0  0  0  0  0  0  0  0  0  0  0  0
  -28.1398  -23.7481   20.2952 C   0  0  0  0  0  0  0  0  0  0  0  0
  -27.4878  -22.5634   20.9995 C   0  0  0  0  0  0  0  0  0  0  0  0
  -27.5728  -25.0741   20.7848 C   0  0  0  0  0  0  0  0  0  1  0  0
  -28.0232  -21.2365   20.4802 C   0  0  0  0  0  0  0  0  0  0  0  0
  -22.2415  -29.6263   23.1568 C   0  0  1  0  0  0  0  0  0  0  0  0
  -19.4864  -27.4677   21.7010 C   0  0  2  0  0  0  0  0  0  0  0  0
  -22.1235  -30.2024   24.5961 C   0  0  0  0  0  0  0  0  0  0  0  0
  -25.8001  -11.7110   20.1732 N   0  0  0  0  0  0  0  0  0  0  0  0
  -30.6616  -14.9148   22.9257 N   0  0  0  0  0  0  0  0  0  0  0  0
  -26.1834  -12.9969   20.2489 N   0  0  0  0  0  0  0  0  0  0  0  0
  -29.9374  -13.7084   20.0945 N   0  0  0  0  0  0  0  0  0  0  0  0
  -23.9173  -30.3699   21.4946 N   0  0  0  0  0  0  0  0  0  0  0  0
  -25.5082  -15.1259   21.0376 N   0  0  0  0  0  0  0  0  0  0  0  0
  -22.0718  -12.4414   22.2127 N   0  0  0  0  0  0  0  0  0  0  0  0
  -25.7003  -33.4512   21.2568 N   0  0  0  0  0  0  0  0  0  0  0  0
  -20.9938  -29.0903   22.6235 N   0  0  0  0  0  0  0  0  0  0  0  0
  -19.5483  -26.4700   20.5957 N   0  3  0  0  0  0  0  0  0  0  0  0
  -22.8474  -14.5990   22.2540 O   0  0  0  0  0  0  0  0  0  0  0  0
  -31.8996  -15.0020   20.1572 O   0  0  0  0  0  0  0  0  0  0  0  0
  -26.1555  -31.4673   22.3879 O   0  0  0  0  0  0  0  0  0  0  0  0
  -22.0470  -31.6755   21.9780 O   0  0  0  0  0  0  0  0  0  0  0  0
  -21.7832  -26.9443   22.2378 O   0  0  0  0  0  0  0  0  0  0  0  0
  -21.6944   -6.9659   21.2578 O   0  0  0  0  0  0  0  0  0  0  0  0
  -28.1946  -26.1533   20.0883 O   0  0  0  0  0  0  0  0  0  1  0  0
  -27.3892  -20.1777   21.1844 O   0  0  0  0  0  0  0  0  0  0  0  0
  -19.3773   -5.8724   26.1404 F   0  0  0  0  0  0  0  0  0  0  0  0
  -22.3652   -4.6839   22.6668 F   0  0  0  0  0  0  0  0  0  0  0  0
  1  2  1  0  0  0  0
  1  6  2  0  0  0  0
  2  7  2  0  0  0  0
  3  9  2  0  0  0  0
  3 18  1  0  0  0  0
  4 10  1  0  0  0  0
  4 18  2  0  0  0  0
  5 11  2  0  0  0  0
  5 19  1  0  0  0  0
  6 21  1  0  0  0  0
  7 23  1  0  0  0  0
  8 12  2  0  0  0  0
  8 22  1  0  0  0  0
  9 26  1  0  0  0  0
 10 26  2  0  0  0  0
 11 28  1  0  0  0  0
 12 27  1  0  0  0  0
 13 14  2  0  0  0  0
 13 29  1  0  0  0  0
 14 30  1  0  0  0  0
 15 24  1  0  0  0  0
 15 27  2  0  0  0  0
 16 25  1  0  0  0  0
 16 28  2  0  0  0  0
 17 30  2  0  0  0  0
 17 31  1  0  0  0  0
 18 32  1  0  0  0  0
 19 25  2  0  0  0  0
 19 34  1  0  0  0  0
 20 32  1  0  0  0  0
 20 33  2  0  0  0  0
 20 35  1  0  0  0  0
 21 23  2  0  0  0  0
 21 40  1  0  0  0  0
 22 24  2  0  0  0  0
 22 41  1  0  0  0  0
 23 49  1  0  0  0  0
 24 42  1  0  0  0  0
 25 58  1  0  0  0  0
 26 81  1  0  0  0  0
 27 82  1  0  0  0  0
 28 83  1  0  0  0  0
 29 31  2  0  0  0  0
 29 81  1  0  0  0  0
 30 84  1  0  0  0  0
 31 85  1  0  0  0  0
 32 66  2  0  0  0  0
 33 68  1  0  0  0  0
 33 71  1  0  0  0  0
 34 36  1  0  0  0  0
 34 67  2  0  0  0  0
 35 72  1  0  0  0  0
 35 76  2  0  0  0  0
 36 69  1  0  0  0  0
 36 77  2  0  0  0  0
 37 50  1  0  0  0  0
 37 73  1  0  0  0  0
 37 78  2  0  0  0  0
 38 63  1  0  0  0  0
 38 70  1  0  0  0  0
 38 79  2  0  0  0  0
 39 64  1  0  0  0  0
 39 74  1  0  0  0  0
 39 80  2  0  0  0  0
 40 43  1  0  0  0  0
 41 50  1  0  0  0  0
 42 70  1  0  0  0  0
 43 45  1  0  0  0  0
 44 46  1  0  0  0  0
 44 47  1  0  0  0  0
 45 49  1  0  0  0  0
 46 51  1  0  0  0  0
 47 69  1  0  0  0  0
 48 51  1  0  0  0  0
 48 69  1  0  0  0  0
 49 73  1  0  0  0  0
 50 70  1  0  0  0  0
 51 68  1  0  0  0  0
 52 58  1  0  0  0  0
 53 64  1  0  0  0  0
 54 65  1  0  0  0  0
 55 65  1  0  0  0  0
 56 65  1  0  0  0  0
 57 75  1  0  0  0  0
 59 60  1  0  0  0  0
 59 61  1  0  0  0  0
 60 62  1  0  0  0  0
 61 82  1  0  0  0  0
 62 83  1  0  0  0  0
 63 65  1  0  0  0  0
 63 74  1  0  0  0  0
 64 75  1  0  0  0  0
 66 68  1  0  0  0  0
M  CHG  1  75   1
M  ISO  4  34 100  36 100  61 101  82 101
M  END
> <Batch ID>
0132

> <Smiles>
CCc1cc(OCCC[101CH2:1][101O:1]c2ccc3c(c2)CN(C(=O)C(NC(=O)C(C)NC)C(C)(C)C)C(C(=O)NC2CCCc4ccccc42)C3)ccc1[100C:0](=N)[100C:0](=O)N1CCCC(n2nc(-c3ccc(Oc4ccc(F)cc4F)cc3)c(C(N)=O)c2N)C1

> <Shape>
0.385

> <Color>
0.225

> <Negative vol penalty>
0.000

$$$$

  -OEChem-04052302283D

 83 91  0     1  0  0  0  0  0999 V2000
  -24.4831  -38.6903   19.9829 C   0  0  0  0  0  0  0  0  0  0  0  0
  -25.3417  -37.7546   19.4147 C   0  0  0  0  0  0  0  0  0  0  0  0
  -24.2080   -9.2930   21.9636 C   0  0  0  0  0  0  0  0  0  0  0  0
  -23.3778   -9.1590   19.6986 C   0  0  0  0  0  0  0  0  0  0  0  0
  -28.9593  -20.8396   20.1179 C   0  0  0  0  0  0  0  0  0  0  0  0
  -31.3334  -20.4348   20.3101 C   0  0  0  0  0  0  0  0  0  0  0  0
  -23.8688  -38.4194   21.2048 C   0  0  0  0  0  0  0  0  0  0  0  0
  -25.5872  -36.5478   20.0688 C   0  0  0  0  0  0  0  0  0  0  0  0
  -26.9840  -29.6518   18.7231 C   0  0  0  0  0  0  0  0  0  0  0  0
  -29.2041  -22.2047   19.9694 C   0  0  0  0  0  0  0  0  0  0  0  0
  -31.5782  -21.8000   20.1616 C   0  0  0  0  0  0  0  0  0  0  0  0
  -23.1916   -8.4368   22.3868 C   0  0  0  0  0  0  0  0  0  0  0  0
  -22.3613   -8.3027   20.1219 C   0  0  0  0  0  0  0  0  0  0  0  0
  -27.9009  -28.6544   19.0523 C   0  0  0  0  0  0  0  0  0  0  0  0
  -22.5504   -5.1172   22.3403 C   0  0  0  0  0  0  0  0  0  0  0  0
  -22.8958   -4.0787   23.2051 C   0  0  0  0  0  0  0  0  0  0  0  0
  -26.7221  -28.2617   21.1200 C   0  0  0  0  0  0  0  0  0  0  0  0
  -21.3778   -4.9575   24.8666 C   0  0  0  0  0  0  0  0  0  0  0  0
  -24.3012   -9.6542   20.6195 C   0  0  0  0  0  0  0  0  0  0  0  0
  -30.0240  -19.9546   20.2883 C   0  0  0  0  0  0  0  0  0  0  0  0
  -26.6348  -10.1779   19.7321 C   0  0  0  0  0  0  0  0  0  0  0  0
  -24.0994  -37.2046   21.8695 C   0  0  0  0  0  0  0  0  0  0  0  0
  -25.9339  -29.9696   19.5963 C   0  0  0  0  0  0  0  0  0  0  0  0
  -24.9764  -36.2609   21.3014 C   0  0  0  0  0  0  0  0  0  0  0  0
  -25.7918  -29.2618   20.7984 C   0  0  0  0  0  0  0  0  0  0  0  0
  -30.5135  -22.6849   19.9912 C   0  0  0  0  0  0  0  0  0  0  0  0
  -22.2682   -7.9416   21.4660 C   0  0  0  0  0  0  0  0  0  0  0  0
  -27.7717  -27.9612   20.2522 C   0  0  0  0  0  0  0  0  0  0  0  0
  -21.6188   -6.0759   22.7387 C   0  0  0  0  0  0  0  0  0  0  0  0
  -22.3095   -3.9988   24.4682 C   0  0  0  0  0  0  0  0  0  0  0  0
  -21.0325   -5.9960   24.0018 C   0  0  0  0  0  0  0  0  0  0  0  0
  -25.3506  -10.5391   20.1817 C   0  0  0  0  0  0  0  0  0  0  0  0
  -27.2441  -11.3730   19.4372 C   0  0  0  0  0  0  0  0  0  0  0  0
  -29.7690  -18.5310   20.4433 C   0  0  0  0  0  0  0  0  0  0  0  0
  -28.5937  -17.9820   20.8174 C   0  0  0  0  0  0  0  0  0  0  0  0
  -27.2242   -8.8783   19.5934 C   0  0  0  0  0  0  0  0  0  0  0  0
  -28.4894  -16.5126   20.9203 C   0  0  0  0  0  0  0  0  0  0  0  0
  -25.0649  -32.5682   21.2076 C   0  0  0  0  0  0  0  0  0  0  0  0
  -22.4681  -30.7688   21.9431 C   0  0  0  0  0  0  0  0  0  0  0  0
  -21.1044  -27.6612   22.3033 C   0  0  0  0  0  0  0  0  0  0  0  0
  -23.4496  -36.9765   23.2113 C   0  0  0  0  0  0  0  0  0  0  0  0
  -24.9377  -31.0298   19.2143 C   0  0  0  0  0  0  0  0  0  0  0  0
  -24.6701  -29.5509   21.7611 C   0  0  0  0  0  0  0  0  0  0  0  0
  -23.4702  -35.5169   23.6578 C   0  0  0  0  0  0  0  0  0  0  0  0
  -25.3653  -16.0379   19.0639 C   0  0  0  0  0  0  0  0  0  0  0  0
  -24.8564  -34.9149   23.4507 C   0  0  0  0  0  0  0  0  0  0  0  0
  -25.1697  -14.5302   19.1987 C   0  0  0  0  0  0  0  0  0  0  0  0
  -26.0149  -16.6437   20.3071 C   0  0  0  0  0  0  0  0  0  0  0  0
  -27.1024  -14.4779   20.8242 C   0  0  0  0  0  0  0  0  0  0  0  0
  -25.2486  -34.9301   21.9683 C   0  0  1  0  0  0  0  0  0  0  0  0
  -24.2068  -31.6234   20.4147 C   0  0  1  0  0  0  0  0  0  0  0  0
  -26.4932  -13.8403   19.5658 C   0  0  1  0  0  0  0  0  0  0  0  0
  -18.9717  -26.5090   22.9523 C   0  0  0  0  0  0  0  0  0  0  0  0
  -30.9406  -27.1059   22.4063 C   0  0  0  0  0  0  0  0  0  0  0  0
  -23.0421  -31.3656   24.8798 C   0  0  0  0  0  0  0  0  0  0  0  0
  -21.5187  -29.4747   25.4897 C   0  0  0  0  0  0  0  0  0  0  0  0
  -20.6225  -31.4466   24.2524 C   0  0  0  0  0  0  0  0  0  0  0  0
  -20.8466  -26.3888   19.6437 C   0  0  0  0  0  0  0  0  0  0  0  0
  -30.7775  -24.1609   19.8282 C   0  0  0  0  0  0  0  0  0  0  0  0
  -30.8042  -24.9398   21.1507 C   0  0  0  0  0  0  0  0  0  0  0  0
  -29.9939  -27.1327   20.0754 C   0  0  0  0  0  0  0  0  0  1  0  0
  -22.1159  -29.8009   23.0468 C   0  0  1  0  0  0  0  0  0  0  0  0
  -19.7975  -27.0708   21.8055 C   0  0  2  0  0  0  0  0  0  0  0  0
  -31.0079  -26.4650   21.0142 C   0  0  1  0  0  0  0  0  0  0  0  0
  -21.8472  -30.5176   24.4002 C   0  0  0  0  0  0  0  0  0  0  0  0
  -25.1546  -11.8603   20.1749 N   0  0  0  0  0  0  0  0  0  0  0  0
  -26.3238  -12.3398   19.7174 N   0  0  0  0  0  0  0  0  0  0  0  0
  -27.2479  -15.9299   20.6721 N   0  0  0  0  0  0  0  0  0  0  0  0
  -23.7252  -30.6007   21.3455 N   0  0  0  0  0  0  0  0  0  0  0  0
  -28.4720  -11.6807   18.9681 N   0  0  0  0  0  0  0  0  0  0  0  0
  -26.4588   -7.7569   19.9411 N   0  0  0  0  0  0  0  0  0  0  0  0
  -24.5800  -33.8612   21.2577 N   0  0  0  0  0  0  0  0  0  0  0  0
  -20.9916  -29.0122   22.5547 N   0  0  0  0  0  0  0  0  0  0  0  0
  -20.0623  -25.9717   20.8345 N   0  3  0  0  0  0  0  0  0  0  0  0
  -28.4007   -8.7172   19.1891 O   0  0  0  0  0  0  0  0  0  0  0  0
  -29.5085  -15.8902   21.2249 O   0  0  0  0  0  0  0  0  0  0  0  0
  -26.0902  -32.1544   21.7360 O   0  0  0  0  0  0  0  0  0  0  0  0
  -21.6547  -31.6374   21.6182 O   0  0  0  0  0  0  0  0  0  0  0  0
  -22.1225  -26.9902   22.4576 O   0  0  0  0  0  0  0  0  0  0  0  0
  -21.2764   -7.1058   21.8787 O   0  0  0  0  0  0  0  0  0  0  0  0
  -28.6656  -26.9877   20.5763 O   0  0  0  0  0  0  0  0  0  1  0  0
  -22.6401   -3.0007   25.2980 F   0  0  0  0  0  0  0  0  0  0  0  0
  -20.1360   -6.9134   24.3897 F   0  0  0  0  0  0  0  0  0  0  0  0
  1  2  1  0  0  0  0
  1  7  2  0  0  0  0
  2  8  2  0  0  0  0
  3 12  2  0  0  0  0
  3 19  1  0  0  0  0
  4 13  1  0  0  0  0
  4 19  2  0  0  0  0
  5 10  2  0  0  0  0
  5 20  1  0  0  0  0
  6 11  1  0  0  0  0
  6 20  2  0  0  0  0
  7 22  1  0  0  0  0
  8 24  1  0  0  0  0
  9 14  2  0  0  0  0
  9 23  1  0  0  0  0
 10 26  1  0  0  0  0
 11 26  2  0  0  0  0
 12 27  1  0  0  0  0
 13 27  2  0  0  0  0
 14 28  1  0  0  0  0
 15 16  2  0  0  0  0
 15 29  1  0  0  0  0
 16 30  1  0  0  0  0
 17 25  1  0  0  0  0
 17 28  2  0  0  0  0
 18 30  2  0  0  0  0
 18 31  1  0  0  0  0
 19 32  1  0  0  0  0
 20 34  1  0  0  0  0
 21 32  1  0  0  0  0
 21 33  2  0  0  0  0
 21 36  1  0  0  0  0
 22 24  2  0  0  0  0
 22 41  1  0  0  0  0
 23 25  2  0  0  0  0
 23 42  1  0  0  0  0
 24 50  1  0  0  0  0
 25 43  1  0  0  0  0
 26 59  1  0  0  0  0
 27 80  1  0  0  0  0
 28 81  1  0  0  0  0
 29 31  2  0  0  0  0
 29 80  1  0  0  0  0
 30 82  1  0  0  0  0
 31 83  1  0  0  0  0
 32 66  2  0  0  0  0
 33 67  1  0  0  0  0
 33 70  1  0  0  0  0
 34 35  2  0  0  0  0
 35 37  1  0  0  0  0
 36 71  1  0  0  0  0
 36 75  2  0  0  0  0
 37 68  1  0  0  0  0
 37 76  2  0  0  0  0
 38 51  1  0  0  0  0
 38 72  1  0  0  0  0
 38 77  2  0  0  0  0
 39 62  1  0  0  0  0
 39 69  1  0  0  0  0
 39 78  2  0  0  0  0
 40 63  1  0  0  0  0
 40 73  1  0  0  0  0
 40 79  2  0  0  0  0
 41 44  1  0  0  0  0
 42 51  1  0  0  0  0
 43 69  1  0  0  0  0
 44 46  1  0  0  0  0
 45 47  1  0  0  0  0
 45 48  1  0  0  0  0
 46 50  1  0  0  0  0
 47 52  1  0  0  0  0
 48 68  1  0  0  0  0
 49 52  1  0  0  0  0
 49 68  1  0  0  0  0
 50 72  1  0  0  0  0
 51 69  1  0  0  0  0
 52 67  1  0  0  0  0
 53 63  1  0  0  0  0
 54 64  1  0  0  0  0
 55 65  1  0  0  0  0
 56 65  1  0  0  0  0
 57 65  1  0  0  0  0
 58 74  1  0  0  0  0
 59 60  1  0  0  0  0
 60 64  1  0  0  0  0
 61 64  1  0  0  0  0
 61 81  1  0  0  0  0
 62 65  1  0  0  0  0
 62 73  1  0  0  0  0
 63 74  1  0  0  0  0
 66 67  1  0  0  0  0
M  CHG  1  74   1
M  ISO  4  35 100  37 100  61 101  81 101
M  END
> <Batch ID>
0132

> <Smiles>
CNC(C)C(=O)NC(C(=O)N1Cc2cc([101O:1][101CH2:1]C(C)CCc3ccc(C=[100CH:0][100C:0](=O)N4CCCC(n5nc(-c6ccc(Oc7ccc(F)cc7F)cc6)c(C(N)=O)c5N)C4)cc3)ccc2CC1C(=O)NC1CCCc2ccccc21)C(C)(C)C

> <Shape>
0.334

> <Color>
0.108

> <Negative vol penalty>
0.000

$$$$

  -OEChem-04052302283D

 85 93  0     1  0  0  0  0  0999 V2000
  -37.5374  -30.1603   28.4168 C   0  0  0  0  0  0  0  0  0  0  0  0
  -36.5066  -29.7688   27.5686 C   0  0  0  0  0  0  0  0  0  0  0  0
  -22.9976   -9.8952   19.9894 C   0  0  0  0  0  0  0  0  0  0  0  0
  -23.7569   -9.9412   22.2826 C   0  0  0  0  0  0  0  0  0  0  0  0
  -38.7053  -29.4021   28.4890 C   0  0  0  0  0  0  0  0  0  0  0  0
  -36.6435  -28.6193   26.7912 C   0  0  0  0  0  0  0  0  0  0  0  0
  -32.2217  -24.6768   25.2386 C   0  0  0  0  0  0  0  0  0  0  0  0
  -30.7073  -17.7313   24.2095 C   0  0  0  0  0  0  0  0  0  0  0  0
  -30.1899  -18.7249   25.0405 C   0  0  0  0  0  0  0  0  0  0  0  0
  -22.2391   -8.7572   20.2634 C   0  0  0  0  0  0  0  0  0  0  0  0
  -22.9983   -8.8032   22.5565 C   0  0  0  0  0  0  0  0  0  0  0  0
  -31.4557  -24.5342   24.0825 C   0  0  0  0  0  0  0  0  0  0  0  0
  -23.2471   -5.4667   22.0699 C   0  0  0  0  0  0  0  0  0  0  0  0
  -23.8493   -4.4491   22.8098 C   0  0  0  0  0  0  0  0  0  0  0  0
  -32.9869  -22.8502   23.2831 C   0  0  0  0  0  0  0  0  0  0  0  0
  -29.9127  -18.9375   22.2727 C   0  0  0  0  0  0  0  0  0  0  0  0
  -22.1497   -4.6805   24.5113 C   0  0  0  0  0  0  0  0  0  0  0  0
  -23.7566  -10.4872   20.9990 C   0  0  0  0  0  0  0  0  0  0  0  0
  -24.1305  -13.0047   20.8257 C   0  0  0  0  0  0  0  0  0  0  0  0
  -38.8526  -28.2374   27.7193 C   0  0  0  0  0  0  0  0  0  0  0  0
  -33.3840  -23.9138   25.4211 C   0  0  0  0  0  0  0  0  0  0  0  0
  -37.8149  -27.8455   26.8521 C   0  0  0  0  0  0  0  0  0  0  0  0
  -33.7645  -22.9833   24.4436 C   0  0  0  0  0  0  0  0  0  0  0  0
  -30.5688  -17.8377   22.8255 C   0  0  0  0  0  0  0  0  0  0  0  0
  -29.5339  -19.8248   24.4877 C   0  0  0  0  0  0  0  0  0  0  0  0
  -22.2394   -8.2112   21.5469 C   0  0  0  0  0  0  0  0  0  0  0  0
  -31.8399  -23.6229   23.1032 C   0  0  0  0  0  0  0  0  0  0  0  0
  -22.0963   -6.0912   22.5507 C   0  0  0  0  0  0  0  0  0  0  0  0
  -29.3953  -19.9311   23.1038 C   0  0  0  0  0  0  0  0  0  0  0  0
  -23.3006   -4.0560   24.0305 C   0  0  0  0  0  0  0  0  0  0  0  0
  -21.5476   -5.6981   23.7714 C   0  0  0  0  0  0  0  0  0  0  0  0
  -24.5408  -11.6625   20.7165 C   0  0  0  0  0  0  0  0  0  0  0  0
  -25.2322  -13.7324   20.4472 C   0  0  0  0  0  0  0  0  0  0  0  0
  -22.8665  -13.5454   21.2329 C   0  0  0  0  0  0  0  0  0  0  0  0
  -36.4732  -24.5791   25.7643 C   0  0  0  0  0  0  0  0  0  0  0  0
  -30.7484  -14.6209   20.7154 C   0  0  0  0  0  0  0  0  0  0  0  0
  -36.7008  -21.3888   26.3049 C   0  0  0  0  0  0  0  0  0  0  0  0
  -35.3781  -18.2739   25.8635 C   0  0  0  0  0  0  0  0  0  0  0  0
  -40.1524  -27.4763   27.7959 C   0  0  0  0  0  0  0  0  0  0  0  0
  -34.1847  -24.0603   26.6859 C   0  0  0  0  0  0  0  0  0  0  0  0
  -34.9926  -22.1256   24.6006 C   0  0  0  0  0  0  0  0  0  0  0  0
  -40.0672  -26.0657   27.2186 C   0  0  0  0  0  0  0  0  0  0  0  0
  -29.5552  -12.2869   18.2723 C   0  0  0  0  0  0  0  0  0  0  0  0
  -39.3557  -26.0832   25.8694 C   0  0  0  0  0  0  0  0  0  0  0  0
  -28.1208  -12.0037   18.7168 C   0  0  0  0  0  0  0  0  0  0  0  0
  -30.4778  -12.5033   19.4677 C   0  0  0  0  0  0  0  0  0  0  0  0
  -28.5836  -13.2917   20.8504 C   0  0  0  0  0  0  0  0  0  0  0  0
  -37.9159  -26.5912   26.0115 C   0  0  1  0  0  0  0  0  0  0  0  0
  -35.6315  -23.6009   26.5339 C   0  0  1  0  0  0  0  0  0  0  0  0
  -27.6122  -13.0974   19.6726 C   0  0  2  0  0  0  0  0  0  0  0  0
  -29.5190  -22.5941   27.1777 C   0  0  0  0  0  0  0  0  0  0  0  0
  -35.1246  -15.7920   26.1344 C   0  0  0  0  0  0  0  0  0  0  0  0
  -38.8346  -21.2985   24.1257 C   0  0  0  0  0  0  0  0  0  0  0  0
  -38.5359  -18.8145   24.0333 C   0  0  0  0  0  0  0  0  0  0  0  0
  -39.3350  -19.8955   26.1346 C   0  0  0  0  0  0  0  0  0  0  0  0
  -33.6774  -18.5928   28.2645 C   0  0  0  0  0  0  0  0  0  0  0  0
  -31.1228  -16.7753   21.9373 C   0  0  0  0  0  0  0  0  0  0  0  0
  -28.9852  -20.8778   25.3927 C   0  0  0  0  0  0  0  0  0  0  0  0
  -30.1327  -15.6427   21.6379 C   0  0  0  0  0  0  0  0  0  0  0  0
  -30.0734  -21.4985   26.2809 C   0  0  0  0  0  0  0  0  0  0  0  0
  -28.9387  -22.8951   21.0624 C   0  0  0  0  0  0  0  0  0  0  0  0
  -29.6936  -23.7304   22.0845 C   0  0  0  0  0  0  0  0  0  1  0  0
  -29.1853  -21.4064   21.2504 C   0  0  0  0  0  0  0  0  0  0  0  0
  -36.9197  -20.1709   25.4401 C   0  0  1  0  0  0  0  0  0  0  0  0
  -35.1253  -17.1393   26.8398 C   0  0  2  0  0  0  0  0  0  0  0  0
  -38.3842  -20.0622   24.9293 C   0  0  0  0  0  0  0  0  0  0  0  0
  -25.8045  -11.5418   20.3011 N   0  0  0  0  0  0  0  0  0  0  0  0
  -26.1977  -12.8175   20.1458 N   0  0  0  0  0  0  0  0  0  0  0  0
  -35.7459  -22.3101   25.8520 N   0  0  0  0  0  0  0  0  0  0  0  0
  -29.9486  -13.5337   20.3629 N   0  0  0  0  0  0  0  0  0  0  0  0
  -25.4595  -15.0593   20.3461 N   0  0  0  0  0  0  0  0  0  0  0  0
  -21.8430  -12.6565   21.5888 N   0  0  0  0  0  0  0  0  0  0  0  0
  -37.0639  -25.5518   26.5483 N   0  0  0  0  0  0  0  0  0  0  0  0
  -36.4750  -19.0260   26.2274 N   0  0  0  0  0  0  0  0  0  0  0  0
  -33.8074  -17.3184   27.5121 N   0  3  0  0  0  0  0  0  0  0  0  0
  -22.6459  -14.7799   21.2639 O   0  0  0  0  0  0  0  0  0  0  0  0
  -36.5802  -24.4594   24.5495 O   0  0  0  0  0  0  0  0  0  0  0  0
  -31.9047  -14.7874   20.3186 O   0  0  0  0  0  0  0  0  0  0  0  0
  -37.3479  -21.5144   27.3475 O   0  0  0  0  0  0  0  0  0  0  0  0
  -34.6752  -18.4709   24.8747 O   0  0  0  0  0  0  0  0  0  0  0  0
  -21.4991   -7.1008   21.8146 O   0  0  0  0  0  0  0  0  0  0  0  0
  -31.0944  -23.4821   21.9734 O   0  0  0  0  0  0  0  0  0  1  0  0
  -28.7546  -21.0057   22.5441 O   0  0  0  0  0  0  0  0  0  0  0  0
  -23.8782   -3.0777   24.7402 F   0  0  0  0  0  0  0  0  0  0  0  0
  -20.4414   -6.2936   24.2379 F   0  0  0  0  0  0  0  0  0  0  0  0
  1  2  1  0  0  0  0
  1  5  2  0  0  0  0
  2  6  2  0  0  0  0
  3 10  2  0  0  0  0
  3 18  1  0  0  0  0
  4 11  1  0  0  0  0
  4 18  2  0  0  0  0
  5 20  1  0  0  0  0
  6 22  1  0  0  0  0
  7 12  2  0  0  0  0
  7 21  1  0  0  0  0
  8  9  2  0  0  0  0
  8 24  1  0  0  0  0
  9 25  1  0  0  0  0
 10 26  1  0  0  0  0
 11 26  2  0  0  0  0
 12 27  1  0  0  0  0
 13 14  2  0  0  0  0
 13 28  1  0  0  0  0
 14 30  1  0  0  0  0
 15 23  1  0  0  0  0
 15 27  2  0  0  0  0
 16 24  2  0  0  0  0
 16 29  1  0  0  0  0
 17 30  2  0  0  0  0
 17 31  1  0  0  0  0
 18 32  1  0  0  0  0
 19 32  1  0  0  0  0
 19 33  2  0  0  0  0
 19 34  1  0  0  0  0
 20 22  2  0  0  0  0
 20 39  1  0  0  0  0
 21 23  2  0  0  0  0
 21 40  1  0  0  0  0
 22 48  1  0  0  0  0
 23 41  1  0  0  0  0
 24 57  1  0  0  0  0
 25 29  2  0  0  0  0
 25 58  1  0  0  0  0
 26 81  1  0  0  0  0
 27 82  1  0  0  0  0
 28 31  2  0  0  0  0
 28 81  1  0  0  0  0
 29 83  1  0  0  0  0
 30 84  1  0  0  0  0
 31 85  1  0  0  0  0
 32 67  2  0  0  0  0
 33 68  1  0  0  0  0
 33 71  1  0  0  0  0
 34 72  1  0  0  0  0
 34 76  2  0  0  0  0
 35 49  1  0  0  0  0
 35 73  1  0  0  0  0
 35 77  2  0  0  0  0
 36 59  1  0  0  0  0
 36 70  1  0  0  0  0
 36 78  2  0  0  0  0
 37 64  1  0  0  0  0
 37 69  1  0  0  0  0
 37 79  2  0  0  0  0
 38 65  1  0  0  0  0
 38 74  1  0  0  0  0
 38 80  2  0  0  0  0
 39 42  1  0  0  0  0
 40 49  1  0  0  0  0
 41 69  1  0  0  0  0
 42 44  1  0  0  0  0
 43 45  1  0  0  0  0
 43 46  1  0  0  0  0
 44 48  1  0  0  0  0
 45 50  1  0  0  0  0
 46 70  1  0  0  0  0
 47 50  1  0  0  0  0
 47 70  1  0  0  0  0
 48 73  1  0  0  0  0
 49 69  1  0  0  0  0
 50 68  1  0  0  0  0
 51 60  1  0  0  0  0
 52 65  1  0  0  0  0
 53 66  1  0  0  0  0
 54 66  1  0  0  0  0
 55 66  1  0  0  0  0
 56 75  1  0  0  0  0
 57 59  1  0  0  0  0
 58 60  1  0  0  0  0
 61 62  1  0  0  0  0
 61 63  1  0  0  0  0
 62 82  1  0  0  0  0
 63 83  1  0  0  0  0
 64 66  1  0  0  0  0
 64 74  1  0  0  0  0
 65 75  1  0  0  0  0
 67 68  1  0  0  0  0
M  CHG  1  75   1
M  ISO  4  36 100  59 100  62 101  82 101
M  END
> <Batch ID>
0132

> <Smiles>
CCCc1ccc(C[100CH2:0][100C:0](=O)N2CCCC(n3nc(-c4ccc(Oc5ccc(F)cc5F)cc4)c(C(N)=O)c3N)C2)cc1OCC[101CH2:1][101O:1]c1ccc2c(c1)CN(C(=O)C(NC(=O)C(C)NC)C(C)(C)C)C(C(=O)NC1CCCc3ccccc31)C2

> <Shape>
0.189

> <Color>
0.200

> <Negative vol penalty>
0.000

$$$$

  -OEChem-04052302283D

 83 92  0     1  0  0  0  0  0999 V2000
  -19.9353  -34.3965   20.7768 C   0  0  0  0  0  0  0  0  0  0  0  0
  -21.1264  -33.8062   20.3667 C   0  0  0  0  0  0  0  0  0  0  0  0
  -23.1052   -9.9593   22.8114 C   0  0  0  0  0  0  0  0  0  0  0  0
  -24.1326   -9.6979   20.6404 C   0  0  0  0  0  0  0  0  0  0  0  0
  -19.3261  -33.9846   21.9614 C   0  0  0  0  0  0  0  0  0  0  0  0
  -21.7096  -32.8042   21.1416 C   0  0  0  0  0  0  0  0  0  0  0  0
  -24.8306  -27.9367   19.1237 C   0  0  0  0  0  0  0  0  0  0  0  0
  -22.3720   -8.7907   22.6051 C   0  0  0  0  0  0  0  0  0  0  0  0
  -23.3995   -8.5293   20.4341 C   0  0  0  0  0  0  0  0  0  0  0  0
  -26.1960  -27.6821   19.0030 C   0  0  0  0  0  0  0  0  0  0  0  0
  -20.4986   -5.6815   22.8009 C   0  0  0  0  0  0  0  0  0  0  0  0
  -20.4285   -4.7661   23.8509 C   0  0  0  0  0  0  0  0  0  0  0  0
  -30.1529  -19.8606   18.3698 C   0  0  0  0  0  0  0  0  0  0  0  0
  -29.3780  -18.6960   18.1542 C   0  0  0  0  0  0  0  0  0  0  0  0
  -26.1675  -26.5523   21.1343 C   0  0  0  0  0  0  0  0  0  0  0  0
  -22.8335   -4.5389   23.8134 C   0  0  0  0  0  0  0  0  0  0  0  0
  -23.9854  -10.4129   21.8290 C   0  0  0  0  0  0  0  0  0  0  0  0
  -26.0163  -11.7324   22.6303 C   0  0  0  0  0  0  0  0  0  0  0  0
  -19.8971  -32.9704   22.7462 C   0  0  0  0  0  0  0  0  0  0  0  0
  -24.1244  -27.5099   20.2575 C   0  0  0  0  0  0  0  0  0  0  0  0
  -21.1082  -32.3793   22.3385 C   0  0  0  0  0  0  0  0  0  0  0  0
  -24.7927  -26.8006   21.2657 C   0  0  0  0  0  0  0  0  0  0  0  0
  -22.5192   -8.0757   21.4165 C   0  0  0  0  0  0  0  0  0  0  0  0
  -26.8653  -26.9923   20.0097 C   0  0  0  0  0  0  0  0  0  0  0  0
  -21.7361   -6.0256   22.2570 C   0  0  0  0  0  0  0  0  0  0  0  0
  -21.5959   -4.1948   24.3572 C   0  0  0  0  0  0  0  0  0  0  0  0
  -22.9036   -5.4543   22.7633 C   0  0  0  0  0  0  0  0  0  0  0  0
  -24.7426  -11.6203   22.0412 C   0  0  0  0  0  0  0  0  0  0  0  0
  -29.9018  -20.2522   19.6643 C   0  0  0  0  0  0  0  0  0  0  0  0
  -28.7089  -18.4588   19.3323 C   0  0  0  0  0  0  0  0  0  0  0  0
  -26.2922  -13.0775   22.5980 C   0  0  0  0  0  0  0  0  0  0  0  0
  -26.8734  -10.7120   23.1592 C   0  0  0  0  0  0  0  0  0  0  0  0
  -22.5078  -28.9678   22.5737 C   0  0  0  0  0  0  0  0  0  0  0  0
  -26.3391  -17.9241   19.8055 C   0  0  0  0  0  0  0  0  0  0  0  0
  -21.7654  -25.9298   23.4349 C   0  0  0  0  0  0  0  0  0  0  0  0
  -22.5827  -22.6170   23.3662 C   0  0  0  0  0  0  0  0  0  0  0  0
  -19.2265  -32.5916   24.0430 C   0  0  0  0  0  0  0  0  0  0  0  0
  -22.6463  -27.7690   20.3601 C   0  0  0  0  0  0  0  0  0  0  0  0
  -24.0762  -26.3031   22.4936 C   0  0  0  0  0  0  0  0  0  0  0  0
  -19.7132  -31.2625   24.6148 C   0  0  0  0  0  0  0  0  0  0  0  0
  -23.3323  -17.0301   21.5375 C   0  0  0  0  0  0  0  0  0  0  0  0
  -21.2365  -31.1917   24.5787 C   0  0  0  0  0  0  0  0  0  0  0  0
  -31.8102  -21.8191   20.0897 C   0  0  0  0  0  0  0  0  0  0  0  0
  -31.6680  -23.2452   19.5674 C   0  0  0  0  0  0  0  0  0  0  0  0
  -23.5228  -15.5452   21.8445 C   0  0  0  0  0  0  0  0  0  0  0  0
  -29.5004  -22.6237   20.3310 C   0  0  0  0  0  0  0  0  0  0  0  0
  -23.9528  -17.4070   20.1958 C   0  0  0  0  0  0  0  0  0  0  0  0
  -25.5905  -15.5613   20.3783 C   0  0  0  0  0  0  0  0  0  0  0  0
  -21.7586  -31.2721   23.1391 C   0  0  1  0  0  0  0  0  0  0  0  0
  -30.3887  -21.3763   20.4953 C   0  0  1  0  0  0  0  0  0  0  0  0
  -22.1326  -27.7379   21.7963 C   0  0  1  0  0  0  0  0  0  0  0  0
  -30.4802  -23.7954   20.3492 C   0  0  2  0  0  0  0  0  0  0  0  0
  -25.0051  -15.1448   21.7393 C   0  0  2  0  0  0  0  0  0  0  0  0
  -21.8041  -20.3785   24.1907 C   0  0  0  0  0  0  0  0  0  0  0  0
  -22.7951  -26.6027   26.2271 C   0  0  0  0  0  0  0  0  0  0  0  0
  -22.8853  -24.1477   26.7097 C   0  0  0  0  0  0  0  0  0  0  0  0
  -20.7016  -25.2352   26.1888 C   0  0  0  0  0  0  0  0  0  0  0  0
  -22.2617  -21.5844   20.6113 C   0  0  0  0  0  0  0  0  0  0  0  0
  -27.7597  -17.4205   19.7577 C   0  0  0  0  0  0  0  0  0  0  0  0
  -29.9055  -25.0648   19.7468 C   0  0  0  0  0  0  0  0  0  0  0  0
  -28.6942  -25.5609   20.5216 C   0  0  0  0  0  0  0  0  0  1  0  0
  -22.3881  -24.8917   24.3369 C   0  0  1  0  0  0  0  0  0  0  0  0
  -21.7581  -21.3825   23.0494 C   0  0  2  0  0  0  0  0  0  0  0  0
  -22.2067  -25.2303   25.8435 C   0  0  0  0  0  0  0  0  0  0  0  0
  -24.2439  -12.8001   21.6626 N   0  0  0  0  0  0  0  0  0  0  0  0
  -25.2091  -13.6664   22.0146 N   0  0  0  0  0  0  0  0  0  0  0  0
  -22.6326  -26.5868   22.5506 N   0  0  0  0  0  0  0  0  0  0  0  0
  -25.3544  -16.9898   20.1270 N   0  0  0  0  0  0  0  0  0  0  0  0
  -27.3532  -13.8022   23.0121 N   0  0  0  0  0  0  0  0  0  0  0  0
  -26.4354   -9.3814   23.1130 N   0  0  0  0  0  0  0  0  0  0  0  0
  -21.5943  -29.9993   22.4701 N   0  0  0  0  0  0  0  0  0  0  0  0
  -21.8164  -23.6097   23.9395 N   0  0  0  0  0  0  0  0  0  0  0  0
  -22.2720  -20.7183   21.8182 N   0  3  0  0  0  0  0  0  0  0  0  0
  -27.9873  -10.9742   23.6730 O   0  0  0  0  0  0  0  0  0  0  0  0
  -23.5483  -28.9793   23.2209 O   0  0  0  0  0  0  0  0  0  0  0  0
  -26.1137  -19.1134   19.5669 O   0  0  0  0  0  0  0  0  0  0  0  0
  -20.5528  -26.1444   23.5071 O   0  0  0  0  0  0  0  0  0  0  0  0
  -23.7869  -22.6919   23.1322 O   0  0  0  0  0  0  0  0  0  0  0  0
  -29.0227  -19.4029   20.2579 O   0  0  0  0  0  0  0  0  0  0  0  0
  -21.8041   -6.9352   21.2150 O   0  0  0  0  0  0  0  0  0  0  0  0
  -28.1982  -26.7430   19.8948 O   0  0  0  0  0  0  0  0  0  1  0  0
  -21.5286   -3.3169   25.3666 F   0  0  0  0  0  0  0  0  0  0  0  0
  -24.0955   -5.7819   22.2457 F   0  0  0  0  0  0  0  0  0  0  0  0
  1  2  1  0  0  0  0
  1  5  2  0  0  0  0
  2  6  2  0  0  0  0
  3  8  2  0  0  0  0
  3 17  1  0  0  0  0
  4  9  1  0  0  0  0
  4 17  2  0  0  0  0
  5 19  1  0  0  0  0
  6 21  1  0  0  0  0
  7 10  2  0  0  0  0
  7 20  1  0  0  0  0
  8 23  1  0  0  0  0
  9 23  2  0  0  0  0
 10 24  1  0  0  0  0
 11 12  2  0  0  0  0
 11 25  1  0  0  0  0
 12 26  1  0  0  0  0
 13 14  1  0  0  0  0
 13 29  2  0  0  0  0
 14 30  2  0  0  0  0
 15 22  1  0  0  0  0
 15 24  2  0  0  0  0
 16 26  2  0  0  0  0
 16 27  1  0  0  0  0
 17 28  1  0  0  0  0
 18 28  1  0  0  0  0
 18 31  2  0  0  0  0
 18 32  1  0  0  0  0
 19 21  2  0  0  0  0
 19 37  1  0  0  0  0
 20 22  2  0  0  0  0
 20 38  1  0  0  0  0
 21 49  1  0  0  0  0
 22 39  1  0  0  0  0
 23 80  1  0  0  0  0
 24 81  1  0  0  0  0
 25 27  2  0  0  0  0
 25 80  1  0  0  0  0
 26 82  1  0  0  0  0
 27 83  1  0  0  0  0
 28 65  2  0  0  0  0
 29 50  1  0  0  0  0
 29 79  1  0  0  0  0
 30 59  1  0  0  0  0
 30 79  1  0  0  0  0
 31 66  1  0  0  0  0
 31 69  1  0  0  0  0
 32 70  1  0  0  0  0
 32 74  2  0  0  0  0
 33 51  1  0  0  0  0
 33 71  1  0  0  0  0
 33 75  2  0  0  0  0
 34 59  1  0  0  0  0
 34 68  1  0  0  0  0
 34 76  2  0  0  0  0
 35 62  1  0  0  0  0
 35 67  1  0  0  0  0
 35 77  2  0  0  0  0
 36 63  1  0  0  0  0
 36 72  1  0  0  0  0
 36 78  2  0  0  0  0
 37 40  1  0  0  0  0
 38 51  1  0  0  0  0
 39 67  1  0  0  0  0
 40 42  1  0  0  0  0
 41 45  1  0  0  0  0
 41 47  1  0  0  0  0
 42 49  1  0  0  0  0
 43 44  1  0  0  0  0
 43 50  1  0  0  0  0
 44 52  1  0  0  0  0
 45 53  1  0  0  0  0
 46 50  1  0  0  0  0
 46 52  1  0  0  0  0
 47 68  1  0  0  0  0
 48 53  1  0  0  0  0
 48 68  1  0  0  0  0
 49 71  1  0  0  0  0
 51 67  1  0  0  0  0
 52 60  1  0  0  0  0
 53 66  1  0  0  0  0
 54 63  1  0  0  0  0
 55 64  1  0  0  0  0
 56 64  1  0  0  0  0
 57 64  1  0  0  0  0
 58 73  1  0  0  0  0
 60 61  1  0  0  0  0
 61 81  1  0  0  0  0
 62 64  1  0  0  0  0
 62 72  1  0  0  0  0
 63 73  1  0  0  0  0
 65 66  1  0  0  0  0
M  CHG  1  73   1
M  ISO  4  34 100  59 100  61 101  81 101
M  END
> <Batch ID>
0132

> <Smiles>
CNC(C)C(=O)NC(C(=O)N1Cc2cc([101O:1][101CH2:1]CC3CCC(c4ccc([100CH2:0][100C:0](=O)N5CCCC(n6nc(-c7ccc(Oc8ccc(F)cc8F)cc7)c(C(N)=O)c6N)C5)o4)C3)ccc2CC1C(=O)NC1CCCc2ccccc21)C(C)(C)C

> <Shape>
0.208

> <Color>
0.119

> <Negative vol penalty>
0.000

$$$$

  -OEChem-04052302283D

 88 96  0     1  0  0  0  0  0999 V2000
  -34.5143  -28.0824   32.8645 C   0  0  0  0  0  0  0  0  0  0  0  0
  -33.9180  -27.8673   31.6261 C   0  0  0  0  0  0  0  0  0  0  0  0
  -22.9978   -9.8962   19.9883 C   0  0  0  0  0  0  0  0  0  0  0  0
  -23.7575   -9.9403   22.2813 C   0  0  0  0  0  0  0  0  0  0  0  0
  -35.8381  -27.6991   33.0755 C   0  0  0  0  0  0  0  0  0  0  0  0
  -34.6456  -27.2697   30.5976 C   0  0  0  0  0  0  0  0  0  0  0  0
  -32.0007  -23.7005   28.1665 C   0  0  0  0  0  0  0  0  0  0  0  0
  -22.2392   -8.7580   20.2615 C   0  0  0  0  0  0  0  0  0  0  0  0
  -22.9988   -8.8021   22.5546 C   0  0  0  0  0  0  0  0  0  0  0  0
  -31.0546  -24.1310   27.2373 C   0  0  0  0  0  0  0  0  0  0  0  0
  -23.2472   -5.4660   22.0653 C   0  0  0  0  0  0  0  0  0  0  0  0
  -23.8494   -4.4477   22.8043 C   0  0  0  0  0  0  0  0  0  0  0  0
  -32.6095  -23.6728   25.4509 C   0  0  0  0  0  0  0  0  0  0  0  0
  -30.7079  -17.7273   24.2129 C   0  0  0  0  0  0  0  0  0  0  0  0
  -29.9147  -18.9358   22.2771 C   0  0  0  0  0  0  0  0  0  0  0  0
  -22.1502   -4.6780   24.5063 C   0  0  0  0  0  0  0  0  0  0  0  0
  -23.7570  -10.4873   20.9982 C   0  0  0  0  0  0  0  0  0  0  0  0
  -24.1312  -13.0049   20.8267 C   0  0  0  0  0  0  0  0  0  0  0  0
  -36.5793  -27.0877   32.0520 C   0  0  0  0  0  0  0  0  0  0  0  0
  -33.2643  -23.2624   27.7449 C   0  0  0  0  0  0  0  0  0  0  0  0
  -35.9810  -26.8790   30.7946 C   0  0  0  0  0  0  0  0  0  0  0  0
  -33.5689  -23.2348   26.3765 C   0  0  0  0  0  0  0  0  0  0  0  0
  -30.5706  -17.8354   22.8291 C   0  0  0  0  0  0  0  0  0  0  0  0
  -30.1891  -18.7195   25.0449 C   0  0  0  0  0  0  0  0  0  0  0  0
  -29.5331  -19.8199   24.4929 C   0  0  0  0  0  0  0  0  0  0  0  0
  -22.2397   -8.2110   21.5446 C   0  0  0  0  0  0  0  0  0  0  0  0
  -31.3600  -24.1200   25.8795 C   0  0  0  0  0  0  0  0  0  0  0  0
  -22.0965   -6.0903   22.5468 C   0  0  0  0  0  0  0  0  0  0  0  0
  -29.3959  -19.9280   23.1091 C   0  0  0  0  0  0  0  0  0  0  0  0
  -23.3009   -4.0537   24.0248 C   0  0  0  0  0  0  0  0  0  0  0  0
  -21.5480   -5.6963   23.7673 C   0  0  0  0  0  0  0  0  0  0  0  0
  -24.5413  -11.6627   20.7165 C   0  0  0  0  0  0  0  0  0  0  0  0
  -25.2329  -13.7327   20.4486 C   0  0  0  0  0  0  0  0  0  0  0  0
  -22.8674  -13.5454   21.2346 C   0  0  0  0  0  0  0  0  0  0  0  0
  -36.2519  -24.2338   28.2291 C   0  0  0  0  0  0  0  0  0  0  0  0
  -29.0979  -23.8785   23.0637 C   0  0  0  0  0  0  0  0  0  0  0  0
  -30.7493  -14.6203   20.7165 C   0  0  0  0  0  0  0  0  0  0  0  0
  -36.9833  -21.5258   26.5999 C   0  0  0  0  0  0  0  0  0  0  0  0
  -36.0101  -19.1365   24.3658 C   0  0  0  0  0  0  0  0  0  0  0  0
  -38.0220  -26.7336   32.3126 C   0  0  0  0  0  0  0  0  0  0  0  0
  -34.2641  -22.7759   28.7579 C   0  0  0  0  0  0  0  0  0  0  0  0
  -34.9039  -22.7546   25.8708 C   0  0  0  0  0  0  0  0  0  0  0  0
  -38.6065  -25.7658   31.2869 C   0  0  0  0  0  0  0  0  0  0  0  0
  -29.5553  -12.2884   18.2718 C   0  0  0  0  0  0  0  0  0  0  0  0
  -38.2488  -26.2078   29.8715 C   0  0  0  0  0  0  0  0  0  0  0  0
  -28.1210  -12.0050   18.7163 C   0  0  0  0  0  0  0  0  0  0  0  0
  -30.4782  -12.5037   19.4671 C   0  0  0  0  0  0  0  0  0  0  0  0
  -28.5843  -13.2912   20.8508 C   0  0  0  0  0  0  0  0  0  0  0  0
  -36.7298  -26.2111   29.6618 C   0  0  1  0  0  0  0  0  0  0  0  0
  -35.7028  -22.8354   28.2536 C   0  0  1  0  0  0  0  0  0  0  0  0
  -27.6127  -13.0980   19.6731 C   0  0  2  0  0  0  0  0  0  0  0  0
  -30.3480  -18.5797   26.5235 C   0  0  0  0  0  0  0  0  0  0  0  0
  -27.1161  -21.5248   26.9741 C   0  0  0  0  0  0  0  0  0  0  0  0
  -36.1317  -17.0273   23.0117 C   0  0  0  0  0  0  0  0  0  0  0  0
  -38.6605  -23.2548   24.7272 C   0  0  0  0  0  0  0  0  0  0  0  0
  -38.6696  -21.3560   23.0953 C   0  0  0  0  0  0  0  0  0  0  0  0
  -39.7067  -21.0692   25.3459 C   0  0  0  0  0  0  0  0  0  0  0  0
  -34.7673  -17.5405   26.5262 C   0  0  0  0  0  0  0  0  0  0  0  0
  -31.1242  -16.7738   21.9399 C   0  0  0  0  0  0  0  0  0  0  0  0
  -28.9759  -20.8869   25.3802 C   0  0  0  0  0  0  0  0  0  0  0  0
  -29.0174  -23.2450   21.6827 C   0  0  0  0  0  0  0  0  0  0  0  0
  -30.4837  -23.9419   23.6758 C   0  0  0  0  0  0  0  0  0  1  0  0
  -30.1339  -15.6414   21.6399 C   0  0  0  0  0  0  0  0  0  0  0  0
  -27.6637  -20.4515   26.0468 C   0  0  0  0  0  0  0  0  0  0  0  0
  -29.5162  -21.8074   21.6568 C   0  0  0  0  0  0  0  0  0  0  0  0
  -37.1886  -21.1754   25.1459 C   0  0  1  0  0  0  0  0  0  0  0  0
  -36.0935  -17.6215   24.4111 C   0  0  2  0  0  0  0  0  0  0  0  0
  -38.5318  -21.7248   24.5879 C   0  0  0  0  0  0  0  0  0  0  0  0
  -25.8049  -11.5421   20.3007 N   0  0  0  0  0  0  0  0  0  0  0  0
  -26.1983  -12.8179   20.1463 N   0  0  0  0  0  0  0  0  0  0  0  0
  -35.8502  -22.2949   26.9007 N   0  0  0  0  0  0  0  0  0  0  0  0
  -29.9493  -13.5334   20.3633 N   0  0  0  0  0  0  0  0  0  0  0  0
  -25.4604  -15.0596   20.3485 N   0  0  0  0  0  0  0  0  0  0  0  0
  -21.8439  -12.6563   21.5900 N   0  0  0  0  0  0  0  0  0  0  0  0
  -36.2446  -24.8627   29.4595 N   0  0  0  0  0  0  0  0  0  0  0  0
  -37.0507  -19.7260   25.0520 N   0  0  0  0  0  0  0  0  0  0  0  0
  -34.9145  -17.0590   25.1285 N   0  3  0  0  0  0  0  0  0  0  0  0
  -22.6469  -14.7798   21.2667 O   0  0  0  0  0  0  0  0  0  0  0  0
  -36.6539  -24.7066   27.1724 O   0  0  0  0  0  0  0  0  0  0  0  0
  -28.1100  -24.3156   23.6518 O   0  0  0  0  0  0  0  0  0  0  0  0
  -31.9055  -14.7870   20.3196 O   0  0  0  0  0  0  0  0  0  0  0  0
  -37.7943  -21.1256   27.4388 O   0  0  0  0  0  0  0  0  0  0  0  0
  -35.1137  -19.7370   23.7773 O   0  0  0  0  0  0  0  0  0  0  0  0
  -21.4993   -7.1005   21.8116 O   0  0  0  0  0  0  0  0  0  0  0  0
  -30.4386  -24.5403   24.9705 O   0  0  0  0  0  0  0  0  0  1  0  0
  -28.7557  -21.0021   22.5488 O   0  0  0  0  0  0  0  0  0  0  0  0
  -23.8784   -3.0748   24.7336 F   0  0  0  0  0  0  0  0  0  0  0  0
  -20.4420   -6.2915   24.2345 F   0  0  0  0  0  0  0  0  0  0  0  0
  1  2  1  0  0  0  0
  1  5  2  0  0  0  0
  2  6  2  0  0  0  0
  3  8  2  0  0  0  0
  3 17  1  0  0  0  0
  4  9  1  0  0  0  0
  4 17  2  0  0  0  0
  5 19  1  0  0  0  0
  6 21  1  0  0  0  0
  7 10  2  0  0  0  0
  7 20  1  0  0  0  0
  8 26  1  0  0  0  0
  9 26  2  0  0  0  0
 10 27  1  0  0  0  0
 11 12  2  0  0  0  0
 11 28  1  0  0  0  0
 12 30  1  0  0  0  0
 13 22  1  0  0  0  0
 13 27  2  0  0  0  0
 14 23  1  0  0  0  0
 14 24  2  0  0  0  0
 15 23  2  0  0  0  0
 15 29  1  0  0  0  0
 16 30  2  0  0  0  0
 16 31  1  0  0  0  0
 17 32  1  0  0  0  0
 18 32  1  0  0  0  0
 18 33  2  0  0  0  0
 18 34  1  0  0  0  0
 19 21  2  0  0  0  0
 19 40  1  0  0  0  0
 20 22  2  0  0  0  0
 20 41  1  0  0  0  0
 21 49  1  0  0  0  0
 22 42  1  0  0  0  0
 23 59  1  0  0  0  0
 24 25  1  0  0  0  0
 24 52  1  0  0  0  0
 25 29  2  0  0  0  0
 25 60  1  0  0  0  0
 26 84  1  0  0  0  0
 27 85  1  0  0  0  0
 28 31  2  0  0  0  0
 28 84  1  0  0  0  0
 29 86  1  0  0  0  0
 30 87  1  0  0  0  0
 31 88  1  0  0  0  0
 32 69  2  0  0  0  0
 33 70  1  0  0  0  0
 33 73  1  0  0  0  0
 34 74  1  0  0  0  0
 34 78  2  0  0  0  0
 35 50  1  0  0  0  0
 35 75  1  0  0  0  0
 35 79  2  0  0  0  0
 36 61  1  0  0  0  0
 36 62  1  0  0  0  0
 36 80  2  0  0  0  0
 37 63  1  0  0  0  0
 37 72  1  0  0  0  0
 37 81  2  0  0  0  0
 38 66  1  0  0  0  0
 38 71  1  0  0  0  0
 38 82  2  0  0  0  0
 39 67  1  0  0  0  0
 39 76  1  0  0  0  0
 39 83  2  0  0  0  0
 40 43  1  0  0  0  0
 41 50  1  0  0  0  0
 42 71  1  0  0  0  0
 43 45  1  0  0  0  0
 44 46  1  0  0  0  0
 44 47  1  0  0  0  0
 45 49  1  0  0  0  0
 46 51  1  0  0  0  0
 47 72  1  0  0  0  0
 48 51  1  0  0  0  0
 48 72  1  0  0  0  0
 49 75  1  0  0  0  0
 50 71  1  0  0  0  0
 51 70  1  0  0  0  0
 53 64  1  0  0  0  0
 54 67  1  0  0  0  0
 55 68  1  0  0  0  0
 56 68  1  0  0  0  0
 57 68  1  0  0  0  0
 58 77  1  0  0  0  0
 59 63  1  0  0  0  0
 60 64  1  0  0  0  0
 61 65  1  0  0  0  0
 62 85  1  0  0  0  0
 65 86  1  0  0  0  0
 66 68  1  0  0  0  0
 66 76  1  0  0  0  0
 67 77  1  0  0  0  0
 69 70  1  0  0  0  0
M  CHG  1  77   1
M  ISO  4  37 100  62 101  63 100  85 101
M  END
> <Batch ID>
0132

> <Smiles>
CCCc1c(C)cc(C[100CH2:0][100C:0](=O)N2CCCC(n3nc(-c4ccc(Oc5ccc(F)cc5F)cc4)c(C(N)=O)c3N)C2)cc1OCCC(=O)[101CH2:1][101O:1]c1ccc2c(c1)CN(C(=O)C(NC(=O)C(C)NC)C(C)(C)C)C(C(=O)NC1CCCc3ccccc31)C2

> <Shape>
0.181

> <Color>
0.196

> <Negative vol penalty>
0.000

$$$$

  -OEChem-04052302283D

 92101  0     1  0  0  0  0  0999 V2000
  -17.0934  -30.6891   23.5245 C   0  0  0  0  0  0  0  0  0  0  0  0
  -16.7336  -29.5676   22.7842 C   0  0  0  0  0  0  0  0  0  0  0  0
  -23.1125   -9.7538   19.9541 C   0  0  0  0  0  0  0  0  0  0  0  0
  -23.7296   -9.9292   22.2834 C   0  0  0  0  0  0  0  0  0  0  0  0
  -18.2827  -30.6904   24.2522 C   0  0  0  0  0  0  0  0  0  0  0  0
  -17.5635  -28.4471   22.7702 C   0  0  0  0  0  0  0  0  0  0  0  0
  -17.2879  -21.3005   22.3620 C   0  0  0  0  0  0  0  0  0  0  0  0
  -26.4530  -19.1318   18.4140 C   0  0  0  0  0  0  0  0  0  0  0  0
  -25.1012  -19.4189   18.2249 C   0  0  0  0  0  0  0  0  0  0  0  0
  -22.3759   -8.6033   20.2359 C   0  0  0  0  0  0  0  0  0  0  0  0
  -22.9928   -8.7788   22.5652 C   0  0  0  0  0  0  0  0  0  0  0  0
  -17.8272  -20.2417   21.6326 C   0  0  0  0  0  0  0  0  0  0  0  0
  -23.3781   -5.4345   22.2512 C   0  0  0  0  0  0  0  0  0  0  0  0
  -23.9669   -4.4729   23.0723 C   0  0  0  0  0  0  0  0  0  0  0  0
  -19.8186  -20.3281   22.9912 C   0  0  0  0  0  0  0  0  0  0  0  0
  -26.5672  -20.8114   20.1470 C   0  0  0  0  0  0  0  0  0  0  0  0
  -22.1608   -4.7208   24.6577 C   0  0  0  0  0  0  0  0  0  0  0  0
  -23.7894  -10.4167   20.9779 C   0  0  0  0  0  0  0  0  0  0  0  0
  -24.0918  -12.9354   20.7090 C   0  0  0  0  0  0  0  0  0  0  0  0
  -19.1228  -29.5658   24.2550 C   0  0  0  0  0  0  0  0  0  0  0  0
  -18.0156  -21.8891   23.4061 C   0  0  0  0  0  0  0  0  0  0  0  0
  -18.7658  -28.4339   23.4976 C   0  0  0  0  0  0  0  0  0  0  0  0
  -19.2852  -21.3925   23.7340 C   0  0  0  0  0  0  0  0  0  0  0  0
  -27.1860  -19.8280   19.3751 C   0  0  0  0  0  0  0  0  0  0  0  0
  -24.4823  -20.4022   18.9967 C   0  0  0  0  0  0  0  0  0  0  0  0
  -25.2153  -21.0985   19.9578 C   0  0  0  0  0  0  0  0  0  0  0  0
  -22.3160   -8.1158   21.5414 C   0  0  0  0  0  0  0  0  0  0  0  0
  -19.0939  -19.7573   21.9453 C   0  0  0  0  0  0  0  0  0  0  0  0
  -22.1807   -6.0394   22.6334 C   0  0  0  0  0  0  0  0  0  0  0  0
  -23.3582   -4.1160   24.2755 C   0  0  0  0  0  0  0  0  0  0  0  0
  -21.5720   -5.6825   23.8367 C   0  0  0  0  0  0  0  0  0  0  0  0
  -24.5510  -11.6048   20.6874 C   0  0  0  0  0  0  0  0  0  0  0  0
  -25.1904  -13.6834   20.3625 C   0  0  0  0  0  0  0  0  0  0  0  0
  -22.7888  -13.4493   21.0150 C   0  0  0  0  0  0  0  0  0  0  0  0
  -19.1795  -24.7927   23.9705 C   0  0  0  0  0  0  0  0  0  0  0  0
  -22.1303  -19.6871   19.3949 C   0  0  0  0  0  0  0  0  0  0  0  0
  -19.9227  -23.5090   26.8553 C   0  0  0  0  0  0  0  0  0  0  0  0
  -20.5794  -20.7140   28.7001 C   0  0  0  0  0  0  0  0  0  0  0  0
  -30.6326  -14.8349   20.8116 C   0  0  0  0  0  0  0  0  0  0  0  0
  -20.4215  -29.6317   25.0190 C   0  0  0  0  0  0  0  0  0  0  0  0
  -17.4088  -23.0129   24.2006 C   0  0  0  0  0  0  0  0  0  0  0  0
  -20.0989  -21.9764   24.8589 C   0  0  0  0  0  0  0  0  0  0  0  0
  -21.0611  -28.2653   25.2519 C   0  0  0  0  0  0  0  0  0  0  0  0
  -29.6878  -12.2731   18.5266 C   0  0  0  0  0  0  0  0  0  0  0  0
  -19.9399  -18.5164   16.7598 C   0  0  0  0  0  0  0  0  0  0  0  0
  -21.0585  -27.4481   23.9639 C   0  0  0  0  0  0  0  0  0  0  0  0
  -28.2321  -11.9766   18.8910 C   0  0  0  0  0  0  0  0  0  0  0  0
  -19.9043  -17.3600   17.7535 C   0  0  0  0  0  0  0  0  0  0  0  0
  -21.1827  -19.3006   17.1612 C   0  0  0  0  0  0  0  0  0  0  0  0
  -30.5251  -12.5932   19.7629 C   0  0  0  0  0  0  0  0  0  0  0  0
  -28.5286  -13.3717   20.9802 C   0  0  0  0  0  0  0  0  0  0  0  0
  -19.6274  -27.1900   23.4772 C   0  0  1  0  0  0  0  0  0  0  0  0
  -18.4499  -23.8739   24.9092 C   0  0  1  0  0  0  0  0  0  0  0  0
  -27.6321  -13.0979   19.7605 C   0  0  2  0  0  0  0  0  0  0  0  0
  -20.3643  -17.9863   19.0734 C   0  0  2  0  0  0  0  0  0  0  0  0
  -24.3819  -23.4620   20.0314 C   0  0  0  0  0  0  0  0  0  0  0  0
  -21.1901  -19.9850   31.0224 C   0  0  0  0  0  0  0  0  0  0  0  0
  -22.7906  -24.4416   26.3912 C   0  0  0  0  0  0  0  0  0  0  0  0
  -23.5156  -22.8969   28.2233 C   0  0  0  0  0  0  0  0  0  0  0  0
  -21.9501  -24.7737   28.7231 C   0  0  0  0  0  0  0  0  0  0  0  0
  -18.1037  -19.1157   28.9744 C   0  0  0  0  0  0  0  0  0  0  0  0
  -23.0202  -20.6957   18.7733 C   0  0  0  0  0  0  0  0  0  0  0  0
  -28.6314  -19.5213   19.5768 C   0  0  0  0  0  0  0  0  0  0  0  0
  -24.5742  -22.1557   20.7956 C   0  0  0  0  0  0  0  0  0  0  0  0
  -19.2245  -18.6038   19.8697 C   0  0  0  0  0  0  0  0  0  1  0  0
  -28.8516  -18.4221   20.6279 C   0  0  0  0  0  0  0  0  0  0  0  0
  -30.3407  -18.1429   20.8527 C   0  0  0  0  0  0  0  0  0  0  0  0
  -30.5829  -17.0634   21.9027 C   0  0  0  0  0  0  0  0  0  0  0  0
  -21.1122  -22.7734   27.4236 C   0  0  1  0  0  0  0  0  0  0  0  0
  -20.0541  -20.2493   30.0465 C   0  0  2  0  0  0  0  0  0  0  0  0
  -22.3279  -23.7114   27.6678 C   0  0  0  0  0  0  0  0  0  0  0  0
  -25.8408  -11.5098   20.3534 N   0  0  0  0  0  0  0  0  0  0  0  0
  -26.2014  -12.7902   20.1619 N   0  0  0  0  0  0  0  0  0  0  0  0
  -21.2791  -19.0499   18.6097 N   0  0  0  0  0  0  0  0  0  0  0  0
  -19.4649  -23.0777   25.6022 N   0  0  0  0  0  0  0  0  0  0  0  0
  -29.9024  -13.6655   20.5429 N   0  0  0  0  0  0  0  0  0  0  0  0
  -25.3805  -15.0115   20.2129 N   0  0  0  0  0  0  0  0  0  0  0  0
  -21.7748  -12.5420   21.3512 N   0  0  0  0  0  0  0  0  0  0  0  0
  -19.0122  -26.1348   24.2536 N   0  0  0  0  0  0  0  0  0  0  0  0
  -20.6353  -22.0894   28.6208 N   0  0  0  0  0  0  0  0  0  0  0  0
  -29.9659  -15.8037   21.5516 N   0  0  0  0  0  0  0  0  0  0  0  0
  -22.2441  -19.4845   20.6996 N   0  3  0  0  0  0  0  0  0  0  0  0
  -19.2672  -18.9935   29.8901 N   0  3  0  0  0  0  0  0  0  0  0  0
  -22.5270  -14.6754   20.9751 O   0  0  0  0  0  0  0  0  0  0  0  0
  -19.8461  -24.3190   23.0578 O   0  0  0  0  0  0  0  0  0  0  0  0
  -19.4140  -24.4276   27.5026 O   0  0  0  0  0  0  0  0  0  0  0  0
  -20.9108  -19.9347   27.8094 O   0  0  0  0  0  0  0  0  0  0  0  0
  -31.7909  -15.0054   20.4164 O   0  0  0  0  0  0  0  0  0  0  0  0
  -21.5970   -6.9934   21.8168 O   0  0  0  0  0  0  0  0  0  0  0  0
  -19.6229  -18.7244   21.2346 O   0  0  0  0  0  0  0  0  0  1  0  0
  -23.9229   -3.1914   25.0632 F   0  0  0  0  0  0  0  0  0  0  0  0
  -20.4210   -6.2593   24.2086 F   0  0  0  0  0  0  0  0  0  0  0  0
  1  2  1  0  0  0  0
  1  5  2  0  0  0  0
  2  6  2  0  0  0  0
  3 10  2  0  0  0  0
  3 18  1  0  0  0  0
  4 11  1  0  0  0  0
  4 18  2  0  0  0  0
  5 20  1  0  0  0  0
  6 22  1  0  0  0  0
  7 12  2  0  0  0  0
  7 21  1  0  0  0  0
  8  9  2  0  0  0  0
  8 24  1  0  0  0  0
  9 25  1  0  0  0  0
 10 27  1  0  0  0  0
 11 27  2  0  0  0  0
 12 28  1  0  0  0  0
 13 14  2  0  0  0  0
 13 29  1  0  0  0  0
 14 30  1  0  0  0  0
 15 23  1  0  0  0  0
 15 28  2  0  0  0  0
 16 24  2  0  0  0  0
 16 26  1  0  0  0  0
 17 30  2  0  0  0  0
 17 31  1  0  0  0  0
 18 32  1  0  0  0  0
 19 32  1  0  0  0  0
 19 33  2  0  0  0  0
 19 34  1  0  0  0  0
 20 22  2  0  0  0  0
 20 40  1  0  0  0  0
 21 23  2  0  0  0  0
 21 41  1  0  0  0  0
 22 52  1  0  0  0  0
 23 42  1  0  0  0  0
 24 63  1  0  0  0  0
 25 26  2  0  0  0  0
 25 62  1  0  0  0  0
 26 64  1  0  0  0  0
 27 89  1  0  0  0  0
 28 90  1  0  0  0  0
 29 31  2  0  0  0  0
 29 89  1  0  0  0  0
 30 91  1  0  0  0  0
 31 92  1  0  0  0  0
 32 72  2  0  0  0  0
 33 73  1  0  0  0  0
 33 77  1  0  0  0  0
 34 78  1  0  0  0  0
 34 84  2  0  0  0  0
 35 53  1  0  0  0  0
 35 79  1  0  0  0  0
 35 85  2  0  0  0  0
 36 62  1  0  0  0  0
 36 74  1  0  0  0  0
 36 82  2  0  0  0  0
 37 69  1  0  0  0  0
 37 75  1  0  0  0  0
 37 86  2  0  0  0  0
 38 70  1  0  0  0  0
 38 80  1  0  0  0  0
 38 87  2  0  0  0  0
 39 76  1  0  0  0  0
 39 81  1  0  0  0  0
 39 88  2  0  0  0  0
 40 43  1  0  0  0  0
 41 53  1  0  0  0  0
 42 75  1  0  0  0  0
 43 46  1  0  0  0  0
 44 47  1  0  0  0  0
 44 50  1  0  0  0  0
 45 48  1  0  0  0  0
 45 49  1  0  0  0  0
 46 52  1  0  0  0  0
 47 54  1  0  0  0  0
 48 55  1  0  0  0  0
 49 74  1  0  0  0  0
 50 76  1  0  0  0  0
 51 54  1  0  0  0  0
 51 76  1  0  0  0  0
 52 79  1  0  0  0  0
 53 75  1  0  0  0  0
 54 73  1  0  0  0  0
 55 65  1  0  0  0  0
 55 74  1  0  0  0  0
 56 64  1  0  0  0  0
 57 70  1  0  0  0  0
 58 71  1  0  0  0  0
 59 71  1  0  0  0  0
 60 71  1  0  0  0  0
 61 83  1  0  0  0  0
 63 66  1  0  0  0  0
 65 90  1  0  0  0  0
 66 67  1  0  0  0  0
 67 68  1  0  0  0  0
 68 81  1  0  0  0  0
 69 71  1  0  0  0  0
 69 80  1  0  0  0  0
 70 83  1  0  0  0  0
 72 73  1  0  0  0  0
M  CHG  2  82   1  83   1
M  ISO  4  39 100  65 101  81 100  90 101
M  END
> <Batch ID>
0132

> <Smiles>
CCc1cc(CCCC[100NH:0][100C:0](=O)N2CCCC(n3nc(-c4ccc(Oc5ccc(F)cc5F)cc4)c(C(N)=O)c3N)C2)ccc1CC(=N)N1CCCC1[101CH2:1][101O:1]c1ccc2c(c1)CN(C(=O)C(NC(=O)C(C)NC)C(C)(C)C)C(C(=O)NC1CCCc3ccccc31)C2

> <Shape>
0.241

> <Color>
0.208

> <Negative vol penalty>
0.000

$$$$

  -OEChem-04052302283D

 87 95  0     1  0  0  0  0  0999 V2000
  -21.0320  -22.9333   12.3130 C   0  0  0  0  0  0  0  0  0  0  0  0
  -21.5751  -22.5699   13.5412 C   0  0  0  0  0  0  0  0  0  0  0  0
  -22.9676  -10.0435   19.9103 C   0  0  0  0  0  0  0  0  0  0  0  0
  -23.9296   -9.7290   22.1041 C   0  0  0  0  0  0  0  0  0  0  0  0
  -20.9922  -24.2760   11.9395 C   0  0  0  0  0  0  0  0  0  0  0  0
  -22.0798  -23.5491   14.3962 C   0  0  0  0  0  0  0  0  0  0  0  0
  -20.6254  -22.8712   19.1993 C   0  0  0  0  0  0  0  0  0  0  0  0
  -22.2151   -8.8805   20.0735 C   0  0  0  0  0  0  0  0  0  0  0  0
  -23.1770   -8.5660   22.2674 C   0  0  0  0  0  0  0  0  0  0  0  0
  -21.2942  -21.8941   19.9352 C   0  0  0  0  0  0  0  0  0  0  0  0
  -19.3861   -7.9483   21.6738 C   0  0  0  0  0  0  0  0  0  0  0  0
  -18.0402   -7.9907   21.3099 C   0  0  0  0  0  0  0  0  0  0  0  0
  -22.6405  -23.6058   20.9729 C   0  0  0  0  0  0  0  0  0  0  0  0
  -31.6328  -18.3551   20.3730 C   0  0  0  0  0  0  0  0  0  0  0  0
  -29.5211  -18.5077   21.5367 C   0  0  0  0  0  0  0  0  0  0  0  0
  -18.4211   -6.2332   19.6963 C   0  0  0  0  0  0  0  0  0  0  0  0
  -23.8250  -10.4677   20.9256 C   0  0  0  0  0  0  0  0  0  0  0  0
  -24.2299  -12.9797   21.1091 C   0  0  0  0  0  0  0  0  0  0  0  0
  -21.4879  -25.2729   12.7945 C   0  0  0  0  0  0  0  0  0  0  0  0
  -20.9671  -24.2243   19.3368 C   0  0  0  0  0  0  0  0  0  0  0  0
  -22.0478  -24.9062   14.0332 C   0  0  0  0  0  0  0  0  0  0  0  0
  -21.9727  -24.5984   20.2395 C   0  0  0  0  0  0  0  0  0  0  0  0
  -30.7287  -17.8486   21.3066 C   0  0  0  0  0  0  0  0  0  0  0  0
  -31.3295  -19.5208   19.6696 C   0  0  0  0  0  0  0  0  0  0  0  0
  -30.1219  -20.1799   19.8996 C   0  0  0  0  0  0  0  0  0  0  0  0
  -22.3197   -8.1418   21.2521 C   0  0  0  0  0  0  0  0  0  0  0  0
  -22.3039  -22.2610   20.8201 C   0  0  0  0  0  0  0  0  0  0  0  0
  -20.2495   -7.0484   21.0489 C   0  0  0  0  0  0  0  0  0  0  0  0
  -29.2177  -19.6734   20.8332 C   0  0  0  0  0  0  0  0  0  0  0  0
  -17.5577   -7.1331   20.3212 C   0  0  0  0  0  0  0  0  0  0  0  0
  -19.7670   -6.1909   20.0602 C   0  0  0  0  0  0  0  0  0  0  0  0
  -24.6031  -11.6687   20.7573 C   0  0  0  0  0  0  0  0  0  0  0  0
  -25.3070  -13.7518   20.7484 C   0  0  0  0  0  0  0  0  0  0  0  0
  -23.0179  -13.4569   21.7085 C   0  0  0  0  0  0  0  0  0  0  0  0
  -22.1068  -26.4595   17.3853 C   0  0  0  0  0  0  0  0  0  0  0  0
  -25.6193  -20.1178   21.0237 C   0  0  0  0  0  0  0  0  0  0  0  0
  -21.6062  -28.3937   19.9408 C   0  0  0  0  0  0  0  0  0  0  0  0
  -21.2683  -28.6961   23.3233 C   0  0  0  0  0  0  0  0  0  0  0  0
  -30.8135  -14.6396   20.5608 C   0  0  0  0  0  0  0  0  0  0  0  0
  -21.4663  -26.7067   12.3270 C   0  0  0  0  0  0  0  0  0  0  0  0
  -20.2178  -25.2686   18.5555 C   0  0  0  0  0  0  0  0  0  0  0  0
  -22.3636  -26.0392   20.4388 C   0  0  0  0  0  0  0  0  0  0  0  0
  -21.6807  -27.7171   13.4510 C   0  0  0  0  0  0  0  0  0  0  0  0
  -29.3963  -12.6177   17.9956 C   0  0  0  0  0  0  0  0  0  0  0  0
  -22.8529  -27.2955   14.3314 C   0  0  0  0  0  0  0  0  0  0  0  0
  -27.9952  -12.2938   18.5173 C   0  0  0  0  0  0  0  0  0  0  0  0
  -30.4234  -12.6590   19.1250 C   0  0  0  0  0  0  0  0  0  0  0  0
  -28.6760  -13.2306   20.7662 C   0  0  0  0  0  0  0  0  0  0  0  0
  -22.5827  -25.9416   14.9987 C   0  0  1  0  0  0  0  0  0  0  0  0
  -20.9989  -26.5691   18.3944 C   0  0  1  0  0  0  0  0  0  0  0  0
  -27.5956  -13.2330   19.6712 C   0  0  2  0  0  0  0  0  0  0  0  0
  -32.3150  -20.0434   18.6763 C   0  0  0  0  0  0  0  0  0  0  0  0
  -28.7884  -21.1793   18.0263 C   0  0  0  0  0  0  0  0  0  0  0  0
  -20.9054  -30.4085   25.1215 C   0  0  0  0  0  0  0  0  0  0  0  0
  -24.5163  -29.2748   19.6858 C   0  0  0  0  0  0  0  0  0  0  0  0
  -24.3636  -30.2096   22.0033 C   0  0  0  0  0  0  0  0  0  0  0  0
  -22.9080  -31.1212   20.1942 C   0  0  0  0  0  0  0  0  0  0  0  0
  -18.7285  -27.4361   24.1720 C   0  0  0  0  0  0  0  0  0  0  0  0
  -29.7912  -21.4295   19.1476 C   0  0  0  0  0  0  0  0  0  0  0  0
  -31.0539  -16.6030   22.0596 C   0  0  0  0  0  0  0  0  0  0  0  0
  -24.3673  -19.3428   21.4070 C   0  0  0  0  0  0  0  0  0  0  0  0
  -26.9322  -19.5033   21.4685 C   0  0  0  0  0  0  0  0  0  0  0  0
  -23.0841  -20.0178   20.9450 C   0  0  0  0  0  0  0  0  0  1  0  0
  -22.4263  -28.8237   21.1331 C   0  0  1  0  0  0  0  0  0  0  0  0
  -20.2412  -29.4236   24.1720 C   0  0  2  0  0  0  0  0  0  0  0  0
  -23.5478  -29.8299   20.7491 C   0  0  0  0  0  0  0  0  0  0  0  0
  -25.8220  -11.6076   20.2146 N   0  0  0  0  0  0  0  0  0  0  0  0
  -26.2240  -12.8900   20.2227 N   0  0  0  0  0  0  0  0  0  0  0  0
  -21.6060  -27.0227   19.6474 N   0  0  0  0  0  0  0  0  0  0  0  0
  -29.9853  -13.5687   20.1863 N   0  0  0  0  0  0  0  0  0  0  0  0
  -25.5497  -15.0771   20.8328 N   0  0  0  0  0  0  0  0  0  0  0  0
  -22.0136  -12.5286   22.0149 N   0  0  0  0  0  0  0  0  0  0  0  0
  -21.6819  -26.1016   16.1201 N   0  0  0  0  0  0  0  0  0  0  0  0
  -21.4785  -29.3327   22.1184 N   0  0  0  0  0  0  0  0  0  0  0  0
  -30.3201  -15.4573   21.5701 N   0  0  0  0  0  0  0  0  0  0  0  0
  -19.4537  -28.4500   24.9800 N   0  3  0  0  0  0  0  0  0  0  0  0
  -22.8246  -14.6726   21.9496 O   0  0  0  0  0  0  0  0  0  0  0  0
  -23.2614  -26.6846   17.7288 O   0  0  0  0  0  0  0  0  0  0  0  0
  -25.5795  -21.1727   20.3926 O   0  0  0  0  0  0  0  0  0  0  0  0
  -20.9828  -29.2421   19.2980 O   0  0  0  0  0  0  0  0  0  0  0  0
  -21.8309  -27.6682   23.6939 O   0  0  0  0  0  0  0  0  0  0  0  0
  -31.9091  -14.8543   20.0310 O   0  0  0  0  0  0  0  0  0  0  0  0
  -21.5853   -7.0070   21.4118 O   0  0  0  0  0  0  0  0  0  0  0  0
  -28.0222  -20.3088   21.0726 O   0  0  0  0  0  0  0  0  0  0  0  0
  -22.9588  -21.3092   21.5392 O   0  0  0  0  0  0  0  0  0  1  0  0
  -16.2649   -7.1729   19.9730 F   0  0  0  0  0  0  0  0  0  0  0  0
  -20.5915   -5.3234   19.4572 F   0  0  0  0  0  0  0  0  0  0  0  0
  1  2  1  0  0  0  0
  1  5  2  0  0  0  0
  2  6  2  0  0  0  0
  3  8  2  0  0  0  0
  3 17  1  0  0  0  0
  4  9  1  0  0  0  0
  4 17  2  0  0  0  0
  5 19  1  0  0  0  0
  6 21  1  0  0  0  0
  7 10  2  0  0  0  0
  7 20  1  0  0  0  0
  8 26  1  0  0  0  0
  9 26  2  0  0  0  0
 10 27  1  0  0  0  0
 11 12  2  0  0  0  0
 11 28  1  0  0  0  0
 12 30  1  0  0  0  0
 13 22  1  0  0  0  0
 13 27  2  0  0  0  0
 14 23  1  0  0  0  0
 14 24  2  0  0  0  0
 15 23  2  0  0  0  0
 15 29  1  0  0  0  0
 16 30  2  0  0  0  0
 16 31  1  0  0  0  0
 17 32  1  0  0  0  0
 18 32  1  0  0  0  0
 18 33  2  0  0  0  0
 18 34  1  0  0  0  0
 19 21  2  0  0  0  0
 19 40  1  0  0  0  0
 20 22  2  0  0  0  0
 20 41  1  0  0  0  0
 21 49  1  0  0  0  0
 22 42  1  0  0  0  0
 23 60  1  0  0  0  0
 24 25  1  0  0  0  0
 24 52  1  0  0  0  0
 25 29  2  0  0  0  0
 25 59  1  0  0  0  0
 26 83  1  0  0  0  0
 27 85  1  0  0  0  0
 28 31  2  0  0  0  0
 28 83  1  0  0  0  0
 29 84  1  0  0  0  0
 30 86  1  0  0  0  0
 31 87  1  0  0  0  0
 32 67  2  0  0  0  0
 33 68  1  0  0  0  0
 33 71  1  0  0  0  0
 34 72  1  0  0  0  0
 34 77  2  0  0  0  0
 35 50  1  0  0  0  0
 35 73  1  0  0  0  0
 35 78  2  0  0  0  0
 36 61  1  0  0  0  0
 36 62  1  0  0  0  0
 36 79  2  0  0  0  0
 37 64  1  0  0  0  0
 37 69  1  0  0  0  0
 37 80  2  0  0  0  0
 38 65  1  0  0  0  0
 38 74  1  0  0  0  0
 38 81  2  0  0  0  0
 39 70  1  0  0  0  0
 39 75  1  0  0  0  0
 39 82  2  0  0  0  0
 40 43  1  0  0  0  0
 41 50  1  0  0  0  0
 42 69  1  0  0  0  0
 43 45  1  0  0  0  0
 44 46  1  0  0  0  0
 44 47  1  0  0  0  0
 45 49  1  0  0  0  0
 46 51  1  0  0  0  0
 47 70  1  0  0  0  0
 48 51  1  0  0  0  0
 48 70  1  0  0  0  0
 49 73  1  0  0  0  0
 50 69  1  0  0  0  0
 51 68  1  0  0  0  0
 53 59  1  0  0  0  0
 54 65  1  0  0  0  0
 55 66  1  0  0  0  0
 56 66  1  0  0  0  0
 57 66  1  0  0  0  0
 58 76  1  0  0  0  0
 60 75  1  0  0  0  0
 61 63  1  0  0  0  0
 62 84  1  0  0  0  0
 63 85  1  0  0  0  0
 64 66  1  0  0  0  0
 64 74  1  0  0  0  0
 65 76  1  0  0  0  0
 67 68  1  0  0  0  0
M  CHG  1  76   1
M  ISO  4  39 100  63 101  75 100  85 101
M  END
> <Batch ID>
0132

> <Smiles>
CCc1c(C)cc(C[100NH:0][100C:0](=O)N2CCCC(n3nc(-c4ccc(Oc5ccc(F)cc5F)cc4)c(C(N)=O)c3N)C2)cc1OCC(=O)C[101CH2:1][101O:1]c1ccc2c(c1)CN(C(=O)C(NC(=O)C(C)NC)C(C)(C)C)C(C(=O)NC1CCCc3ccccc31)C2

> <Shape>
0.245

> <Color>
0.197

> <Negative vol penalty>
0.000

$$$$

  -OEChem-04052302283D

 83 91  0     1  0  0  0  0  0999 V2000
  -27.7970  -37.2701   23.6723 C   0  0  0  0  0  0  0  0  0  0  0  0
  -28.0653  -35.9056   23.7086 C   0  0  0  0  0  0  0  0  0  0  0  0
  -24.9793   -8.0150   21.2970 C   0  0  0  0  0  0  0  0  0  0  0  0
  -23.8989  -10.1545   21.6008 C   0  0  0  0  0  0  0  0  0  0  0  0
  -26.4823  -37.7238   23.7703 C   0  0  0  0  0  0  0  0  0  0  0  0
  -27.0190  -34.9938   23.8441 C   0  0  0  0  0  0  0  0  0  0  0  0
  -27.4406  -31.0676   20.6736 C   0  0  0  0  0  0  0  0  0  0  0  0
  -29.2815  -19.6176   22.1179 C   0  0  0  0  0  0  0  0  0  0  0  0
  -28.9754  -19.9377   19.7428 C   0  0  0  0  0  0  0  0  0  0  0  0
  -29.6845  -20.9469   22.2451 C   0  0  0  0  0  0  0  0  0  0  0  0
  -29.3784  -21.2670   19.8700 C   0  0  0  0  0  0  0  0  0  0  0  0
  -24.2091   -7.4794   22.3292 C   0  0  0  0  0  0  0  0  0  0  0  0
  -23.1286   -9.6189   22.6330 C   0  0  0  0  0  0  0  0  0  0  0  0
  -28.3480  -30.0664   21.0171 C   0  0  0  0  0  0  0  0  0  0  0  0
  -22.2709   -5.4536   24.6431 C   0  0  0  0  0  0  0  0  0  0  0  0
  -21.6901   -4.2023   24.4368 C   0  0  0  0  0  0  0  0  0  0  0  0
  -26.5328  -28.7179   21.8572 C   0  0  0  0  0  0  0  0  0  0  0  0
  -20.4751   -5.0787   22.5413 C   0  0  0  0  0  0  0  0  0  0  0  0
  -24.8243   -9.3526   20.9328 C   0  0  0  0  0  0  0  0  0  0  0  0
  -25.3005   -9.9400   18.4965 C   0  0  0  0  0  0  0  0  0  0  0  0
  -25.4185  -36.8167   23.8975 C   0  0  0  0  0  0  0  0  0  0  0  0
  -26.0714  -30.9057   20.9297 C   0  0  0  0  0  0  0  0  0  0  0  0
  -25.6889  -35.4358   23.9454 C   0  0  0  0  0  0  0  0  0  0  0  0
  -25.6098  -29.7174   21.5137 C   0  0  0  0  0  0  0  0  0  0  0  0
  -28.9270  -19.1130   20.8667 C   0  0  0  0  0  0  0  0  0  0  0  0
  -29.7330  -21.7716   21.1212 C   0  0  0  0  0  0  0  0  0  0  0  0
  -23.2837   -8.2814   22.9972 C   0  0  0  0  0  0  0  0  0  0  0  0
  -27.8945  -28.8925   21.6116 C   0  0  0  0  0  0  0  0  0  0  0  0
  -21.9537   -6.5175   23.7986 C   0  0  0  0  0  0  0  0  0  0  0  0
  -20.7923   -4.0149   23.3859 C   0  0  0  0  0  0  0  0  0  0  0  0
  -21.0559   -6.3301   22.7477 C   0  0  0  0  0  0  0  0  0  0  0  0
  -25.6201   -9.9066   19.8670 C   0  0  0  0  0  0  0  0  0  0  0  0
  -26.3727  -10.5659   17.9090 C   0  0  0  0  0  0  0  0  0  0  0  0
  -24.1382   -9.4493   17.8153 C   0  0  0  0  0  0  0  0  0  0  0  0
  -23.9277  -32.4298   22.7145 C   0  0  0  0  0  0  0  0  0  0  0  0
  -30.4581  -14.4045   20.0737 C   0  0  0  0  0  0  0  0  0  0  0  0
  -21.8541  -30.3978   21.2676 C   0  0  0  0  0  0  0  0  0  0  0  0
  -21.3514  -27.4269   19.6652 C   0  0  0  0  0  0  0  0  0  0  0  0
  -24.0182  -37.3565   24.0476 C   0  0  0  0  0  0  0  0  0  0  0  0
  -25.1024  -31.9840   20.5288 C   0  0  0  0  0  0  0  0  0  0  0  0
  -24.1476  -29.4861   21.7911 C   0  0  0  0  0  0  0  0  0  0  0  0
  -22.9331  -36.3089   23.8123 C   0  0  0  0  0  0  0  0  0  0  0  0
  -31.0664  -11.2680   18.4512 C   0  0  0  0  0  0  0  0  0  0  0  0
  -23.2613  -35.0223   24.5630 C   0  0  0  0  0  0  0  0  0  0  0  0
  -29.7173  -10.5549   18.5311 C   0  0  0  0  0  0  0  0  0  0  0  0
  -31.3222  -12.1195   19.6908 C   0  0  0  0  0  0  0  0  0  0  0  0
  -28.8919  -12.4000   20.0607 C   0  0  0  0  0  0  0  0  0  0  0  0
  -24.5787  -34.4145   24.0665 C   0  0  1  0  0  0  0  0  0  0  0  0
  -23.7904  -31.9271   21.3052 C   0  0  1  0  0  0  0  0  0  0  0  0
  -28.5804  -11.5529   18.8142 C   0  0  2  0  0  0  0  0  0  0  0  0
  -19.5421  -26.0257   18.6353 C   0  0  0  0  0  0  0  0  0  0  0  0
  -20.8988  -29.5900   24.0506 C   0  0  0  0  0  0  0  0  0  0  0  0
  -19.8261  -27.5754   23.0215 C   0  0  0  0  0  0  0  0  0  0  0  0
  -19.0761  -29.8607   22.3598 C   0  0  0  0  0  0  0  0  0  0  0  0
  -22.6358  -27.5200   17.0005 C   0  0  0  0  0  0  0  0  0  0  0  0
  -28.4960  -17.6919   20.7298 C   0  0  0  0  0  0  0  0  0  0  0  0
  -30.1671  -23.2090   21.2599 C   0  0  0  0  0  0  0  0  0  0  0  0
  -29.2619  -15.2881   20.3232 C   0  0  0  0  0  0  0  0  0  0  0  0
  -29.6797  -16.7498   20.4499 C   0  0  0  0  0  0  0  0  0  0  0  0
  -29.0145  -24.1796   21.5405 C   0  0  0  0  0  0  0  0  0  0  0  0
  -29.4633  -25.6403   21.6013 C   0  0  0  0  0  0  0  0  0  0  0  0
  -28.3002  -26.5697   21.9208 C   0  0  0  0  0  0  0  0  0  1  0  0
  -21.3245  -29.0167   21.5694 C   0  0  1  0  0  0  0  0  0  0  0  0
  -20.6051  -27.0848   18.3882 C   0  0  2  0  0  0  0  0  0  0  0  0
  -20.3092  -29.0155   22.7470 C   0  0  0  0  0  0  0  0  0  0  0  0
  -26.8029  -10.4665   20.1344 N   0  0  0  0  0  0  0  0  0  0  0  0
  -27.2359  -10.8575   18.9238 N   0  0  0  0  0  0  0  0  0  0  0  0
  -23.2402  -30.5726   21.3867 N   0  0  0  0  0  0  0  0  0  0  0  0
  -30.2098  -13.0385   19.9383 N   0  0  0  0  0  0  0  0  0  0  0  0
  -26.6519  -10.8895   16.6285 N   0  0  0  0  0  0  0  0  0  0  0  0
  -23.1315   -8.8328   18.5708 N   0  0  0  0  0  0  0  0  0  0  0  0
  -24.3775  -33.7332   22.8056 N   0  0  0  0  0  0  0  0  0  0  0  0
  -20.7851  -28.5032   20.3149 N   0  0  0  0  0  0  0  0  0  0  0  0
  -21.5507  -26.5702   17.3577 N   0  3  0  0  0  0  0  0  0  0  0  0
  -24.0040   -9.5398   16.5714 O   0  0  0  0  0  0  0  0  0  0  0  0
  -23.6450  -31.6904   23.6499 O   0  0  0  0  0  0  0  0  0  0  0  0
  -31.5787  -14.9153   19.9986 O   0  0  0  0  0  0  0  0  0  0  0  0
  -21.0679  -31.2868   20.9314 O   0  0  0  0  0  0  0  0  0  0  0  0
  -22.3357  -26.7995   20.0498 O   0  0  0  0  0  0  0  0  0  0  0  0
  -22.5317   -7.7590   24.0043 O   0  0  0  0  0  0  0  0  0  0  0  0
  -28.7781  -27.9140   21.9484 O   0  0  0  0  0  0  0  0  0  1  0  0
  -20.2358   -2.8128   23.1870 F   0  0  0  0  0  0  0  0  0  0  0  0
  -20.7482   -7.3481   21.9323 F   0  0  0  0  0  0  0  0  0  0  0  0
  1  2  1  0  0  0  0
  1  5  2  0  0  0  0
  2  6  2  0  0  0  0
  3 12  2  0  0  0  0
  3 19  1  0  0  0  0
  4 13  1  0  0  0  0
  4 19  2  0  0  0  0
  5 21  1  0  0  0  0
  6 23  1  0  0  0  0
  7 14  2  0  0  0  0
  7 22  1  0  0  0  0
  8 10  2  0  0  0  0
  8 25  1  0  0  0  0
  9 11  1  0  0  0  0
  9 25  2  0  0  0  0
 10 26  1  0  0  0  0
 11 26  2  0  0  0  0
 12 27  1  0  0  0  0
 13 27  2  0  0  0  0
 14 28  1  0  0  0  0
 15 16  2  0  0  0  0
 15 29  1  0  0  0  0
 16 30  1  0  0  0  0
 17 24  1  0  0  0  0
 17 28  2  0  0  0  0
 18 30  2  0  0  0  0
 18 31  1  0  0  0  0
 19 32  1  0  0  0  0
 20 32  1  0  0  0  0
 20 33  2  0  0  0  0
 20 34  1  0  0  0  0
 21 23  2  0  0  0  0
 21 39  1  0  0  0  0
 22 24  2  0  0  0  0
 22 40  1  0  0  0  0
 23 48  1  0  0  0  0
 24 41  1  0  0  0  0
 25 56  1  0  0  0  0
 26 57  1  0  0  0  0
 27 80  1  0  0  0  0
 28 81  1  0  0  0  0
 29 31  2  0  0  0  0
 29 80  1  0  0  0  0
 30 82  1  0  0  0  0
 31 83  1  0  0  0  0
 32 66  2  0  0  0  0
 33 67  1  0  0  0  0
 33 70  1  0  0  0  0
 34 71  1  0  0  0  0
 34 75  2  0  0  0  0
 35 49  1  0  0  0  0
 35 72  1  0  0  0  0
 35 76  2  0  0  0  0
 36 58  1  0  0  0  0
 36 69  1  0  0  0  0
 36 77  2  0  0  0  0
 37 63  1  0  0  0  0
 37 68  1  0  0  0  0
 37 78  2  0  0  0  0
 38 64  1  0  0  0  0
 38 73  1  0  0  0  0
 38 79  2  0  0  0  0
 39 42  1  0  0  0  0
 40 49  1  0  0  0  0
 41 68  1  0  0  0  0
 42 44  1  0  0  0  0
 43 45  1  0  0  0  0
 43 46  1  0  0  0  0
 44 48  1  0  0  0  0
 45 50  1  0  0  0  0
 46 69  1  0  0  0  0
 47 50  1  0  0  0  0
 47 69  1  0  0  0  0
 48 72  1  0  0  0  0
 49 68  1  0  0  0  0
 50 67  1  0  0  0  0
 51 64  1  0  0  0  0
 52 65  1  0  0  0  0
 53 65  1  0  0  0  0
 54 65  1  0  0  0  0
 55 74  1  0  0  0  0
 56 59  1  0  0  0  0
 57 60  1  0  0  0  0
 58 59  1  0  0  0  0
 60 61  1  0  0  0  0
 61 62  1  0  0  0  0
 62 81  1  0  0  0  0
 63 65  1  0  0  0  0
 63 73  1  0  0  0  0
 64 74  1  0  0  0  0
 66 67  1  0  0  0  0
M  CHG  1  74   1
M  ISO  4  36 100  58 100  62 101  81 101
M  END
> <Batch ID>
0132

> <Smiles>
CNC(C)C(=O)NC(C(=O)N1Cc2cc([101O:1][101CH2:1]CCCc3ccc(CC[100CH2:0][100C:0](=O)N4CCCC(n5nc(-c6ccc(Oc7ccc(F)cc7F)cc6)c(C(N)=O)c5N)C4)cc3)ccc2CC1C(=O)NC1CCCc2ccccc21)C(C)(C)C

> <Shape>
0.324

> <Color>
0.076

> <Negative vol penalty>
0.000

$$$$

  -OEChem-04052302283D

 84 92  0     1  0  0  0  0  0999 V2000
  -28.0332  -26.2467   25.3780 C   0  0  0  0  0  0  0  0  0  0  0  0
  -29.0351  -25.4316   24.8611 C   0  0  0  0  0  0  0  0  0  0  0  0
  -22.9669   -9.8375   20.0475 C   0  0  0  0  0  0  0  0  0  0  0  0
  -23.6884   -9.9895   22.3483 C   0  0  0  0  0  0  0  0  0  0  0  0
  -26.8949  -26.5164   24.6194 C   0  0  0  0  0  0  0  0  0  0  0  0
  -28.8988  -24.8848   23.5856 C   0  0  0  0  0  0  0  0  0  0  0  0
  -33.1402  -25.2658   20.8452 C   0  0  0  0  0  0  0  0  0  0  0  0
  -31.8911  -16.6121   22.9851 C   0  0  0  0  0  0  0  0  0  0  0  0
  -32.7975  -17.6314   23.2768 C   0  0  0  0  0  0  0  0  0  0  0  0
  -22.1950   -8.7195   20.3634 C   0  0  0  0  0  0  0  0  0  0  0  0
  -22.9164   -8.8715   22.6642 C   0  0  0  0  0  0  0  0  0  0  0  0
  -34.1592  -24.3546   21.1190 C   0  0  0  0  0  0  0  0  0  0  0  0
  -23.1468   -5.5136   22.3442 C   0  0  0  0  0  0  0  0  0  0  0  0
  -23.7286   -4.5289   23.1426 C   0  0  0  0  0  0  0  0  0  0  0  0
  -33.4859  -23.0381   19.2131 C   0  0  0  0  0  0  0  0  0  0  0  0
  -31.1919  -17.8014   21.0017 C   0  0  0  0  0  0  0  0  0  0  0  0
  -22.0029   -4.8548   24.8019 C   0  0  0  0  0  0  0  0  0  0  0  0
  -23.7137  -10.4724   21.0399 C   0  0  0  0  0  0  0  0  0  0  0  0
  -24.1104  -12.9758   20.7511 C   0  0  0  0  0  0  0  0  0  0  0  0
  -26.7490  -25.9805   23.3302 C   0  0  0  0  0  0  0  0  0  0  0  0
  -32.2781  -25.0639   19.7578 C   0  0  0  0  0  0  0  0  0  0  0  0
  -27.7569  -25.1465   22.8096 C   0  0  0  0  0  0  0  0  0  0  0  0
  -32.4584  -23.9496   18.9260 C   0  0  0  0  0  0  0  0  0  0  0  0
  -31.0884  -16.6970   21.8475 C   0  0  0  0  0  0  0  0  0  0  0  0
  -32.9010  -18.7357   22.4311 C   0  0  0  0  0  0  0  0  0  0  0  0
  -32.0982  -18.8208   21.2935 C   0  0  0  0  0  0  0  0  0  0  0  0
  -22.1697   -8.2365   21.6717 C   0  0  0  0  0  0  0  0  0  0  0  0
  -34.3304  -23.2390   20.3046 C   0  0  0  0  0  0  0  0  0  0  0  0
  -21.9931   -6.1690   22.7746 C   0  0  0  0  0  0  0  0  0  0  0  0
  -23.1566   -4.1995   24.3715 C   0  0  0  0  0  0  0  0  0  0  0  0
  -21.4212   -5.8396   24.0034 C   0  0  0  0  0  0  0  0  0  0  0  0
  -24.5118  -11.6270   20.7141 C   0  0  0  0  0  0  0  0  0  0  0  0
  -25.2240  -13.6764   20.3565 C   0  0  0  0  0  0  0  0  0  0  0  0
  -22.8442  -13.5446   21.1101 C   0  0  0  0  0  0  0  0  0  0  0  0
  -29.1500  -24.6040   19.4306 C   0  0  0  0  0  0  0  0  0  0  0  0
  -30.7418  -14.5376   20.6748 C   0  0  0  0  0  0  0  0  0  0  0  0
  -29.8451  -24.8087   16.2687 C   0  0  0  0  0  0  0  0  0  0  0  0
  -32.1673  -24.5002   13.7870 C   0  0  0  0  0  0  0  0  0  0  0  0
  -25.4792  -26.2619   22.5666 C   0  0  0  0  0  0  0  0  0  0  0  0
  -31.2006  -26.0703   19.4601 C   0  0  0  0  0  0  0  0  0  0  0  0
  -31.5724  -23.6979   17.7343 C   0  0  0  0  0  0  0  0  0  0  0  0
  -25.5824  -25.9477   21.0763 C   0  0  0  0  0  0  0  0  0  0  0  0
  -29.5708  -12.0962   18.3278 C   0  0  0  0  0  0  0  0  0  0  0  0
  -26.2289  -24.5828   20.8620 C   0  0  0  0  0  0  0  0  0  0  0  0
  -28.1271  -11.8451   18.7612 C   0  0  0  0  0  0  0  0  0  0  0  0
  -30.4752  -12.3638   19.5268 C   0  0  0  0  0  0  0  0  0  0  0  0
  -28.5646  -13.2319   20.8373 C   0  0  0  0  0  0  0  0  0  0  0  0
  -27.6568  -24.5550   21.4203 C   0  0  1  0  0  0  0  0  0  0  0  0
  -30.0578  -25.4941   18.6298 C   0  0  1  0  0  0  0  0  0  0  0  0
  -27.6114  -12.9876   19.6541 C   0  0  2  0  0  0  0  0  0  0  0  0
  -32.1914  -19.9937   20.3736 C   0  0  0  0  0  0  0  0  0  0  0  0
  -32.4292  -24.6957   11.2989 C   0  0  0  0  0  0  0  0  0  0  0  0
  -28.4273  -22.1307   15.9115 C   0  0  0  0  0  0  0  0  0  0  0  0
  -29.5251  -21.9275   13.6705 C   0  0  0  0  0  0  0  0  0  0  0  0
  -27.9515  -23.8100   14.1205 C   0  0  0  0  0  0  0  0  0  0  0  0
  -37.4909  -20.5274   21.3063 C   0  0  0  0  0  0  0  0  0  0  0  0
  -36.6949  -20.7008   23.6778 C   0  0  0  0  0  0  0  0  0  0  0  0
  -34.1779  -26.6558   14.0514 C   0  0  0  0  0  0  0  0  0  0  0  0
  -30.1191  -15.6073   21.5361 C   0  0  0  0  0  0  0  0  0  0  0  0
  -33.8884  -19.8269   22.7683 C   0  0  0  0  0  0  0  0  0  0  0  0
  -35.1483  -19.7296   21.8966 C   0  0  0  0  0  0  0  0  0  0  0  0
  -35.7102  -22.1931   21.9351 C   0  0  0  0  0  0  0  0  0  1  0  0
  -30.2400  -23.8238   15.1950 C   0  0  1  0  0  0  0  0  0  0  0  0
  -32.5371  -25.4159   12.6340 C   0  0  2  0  0  0  0  0  0  0  0  0
  -29.0516  -22.9264   14.7479 C   0  0  0  0  0  0  0  0  0  0  0  0
  -36.2624  -20.7712   22.2025 C   0  0  0  0  0  0  0  0  0  0  0  0
  -25.7812  -11.4772   20.3265 N   0  0  0  0  0  0  0  0  0  0  0  0
  -26.1870  -12.7410   20.1162 N   0  0  0  0  0  0  0  0  0  0  0  0
  -30.5292  -24.7072   17.4884 N   0  0  0  0  0  0  0  0  0  0  0  0
  -29.9394  -13.4402   20.3619 N   0  0  0  0  0  0  0  0  0  0  0  0
  -25.4635  -14.9951   20.1951 N   0  0  0  0  0  0  0  0  0  0  0  0
  -21.8080  -12.6814   21.4913 N   0  0  0  0  0  0  0  0  0  0  0  0
  -28.5659  -25.2272   20.5168 N   0  0  0  0  0  0  0  0  0  0  0  0
  -30.8334  -24.6096   14.1185 N   0  0  0  0  0  0  0  0  0  0  0  0
  -33.9351  -25.9078   12.7911 N   0  3  0  0  0  0  0  0  0  0  0  0
  -22.6329  -14.7807   21.0776 O   0  0  0  0  0  0  0  0  0  0  0  0
  -28.9900  -23.4385   19.0874 O   0  0  0  0  0  0  0  0  0  0  0  0
  -31.9058  -14.6763   20.2900 O   0  0  0  0  0  0  0  0  0  0  0  0
  -28.9672  -25.6422   16.0316 O   0  0  0  0  0  0  0  0  0  0  0  0
  -32.9796  -23.7591   14.3360 O   0  0  0  0  0  0  0  0  0  0  0  0
  -21.4163   -7.1458   21.9804 O   0  0  0  0  0  0  0  0  0  0  0  0
  -35.3238  -22.3476   20.5701 O   0  0  0  0  0  0  0  0  0  1  0  0
  -23.7145   -3.2528   25.1374 F   0  0  0  0  0  0  0  0  0  0  0  0
  -20.3122   -6.4649   24.4217 F   0  0  0  0  0  0  0  0  0  0  0  0
  1  2  1  0  0  0  0
  1  5  2  0  0  0  0
  2  6  2  0  0  0  0
  3 10  2  0  0  0  0
  3 18  1  0  0  0  0
  4 11  1  0  0  0  0
  4 18  2  0  0  0  0
  5 20  1  0  0  0  0
  6 22  1  0  0  0  0
  7 12  2  0  0  0  0
  7 21  1  0  0  0  0
  8  9  2  0  0  0  0
  8 24  1  0  0  0  0
  9 25  1  0  0  0  0
 10 27  1  0  0  0  0
 11 27  2  0  0  0  0
 12 28  1  0  0  0  0
 13 14  2  0  0  0  0
 13 29  1  0  0  0  0
 14 30  1  0  0  0  0
 15 23  1  0  0  0  0
 15 28  2  0  0  0  0
 16 24  2  0  0  0  0
 16 26  1  0  0  0  0
 17 30  2  0  0  0  0
 17 31  1  0  0  0  0
 18 32  1  0  0  0  0
 19 32  1  0  0  0  0
 19 33  2  0  0  0  0
 19 34  1  0  0  0  0
 20 22  2  0  0  0  0
 20 39  1  0  0  0  0
 21 23  2  0  0  0  0
 21 40  1  0  0  0  0
 22 48  1  0  0  0  0
 23 41  1  0  0  0  0
 24 59  1  0  0  0  0
 25 26  2  0  0  0  0
 25 60  1  0  0  0  0
 26 51  1  0  0  0  0
 27 81  1  0  0  0  0
 28 82  1  0  0  0  0
 29 31  2  0  0  0  0
 29 81  1  0  0  0  0
 30 83  1  0  0  0  0
 31 84  1  0  0  0  0
 32 67  2  0  0  0  0
 33 68  1  0  0  0  0
 33 71  1  0  0  0  0
 34 72  1  0  0  0  0
 34 76  2  0  0  0  0
 35 49  1  0  0  0  0
 35 73  1  0  0  0  0
 35 77  2  0  0  0  0
 36 59  1  0  0  0  0
 36 70  1  0  0  0  0
 36 78  2  0  0  0  0
 37 63  1  0  0  0  0
 37 69  1  0  0  0  0
 37 79  2  0  0  0  0
 38 64  1  0  0  0  0
 38 74  1  0  0  0  0
 38 80  2  0  0  0  0
 39 42  1  0  0  0  0
 40 49  1  0  0  0  0
 41 69  1  0  0  0  0
 42 44  1  0  0  0  0
 43 45  1  0  0  0  0
 43 46  1  0  0  0  0
 44 48  1  0  0  0  0
 45 50  1  0  0  0  0
 46 70  1  0  0  0  0
 47 50  1  0  0  0  0
 47 70  1  0  0  0  0
 48 73  1  0  0  0  0
 49 69  1  0  0  0  0
 50 68  1  0  0  0  0
 52 64  1  0  0  0  0
 53 65  1  0  0  0  0
 54 65  1  0  0  0  0
 55 65  1  0  0  0  0
 56 66  1  0  0  0  0
 57 66  1  0  0  0  0
 58 75  1  0  0  0  0
 60 61  1  0  0  0  0
 61 66  1  0  0  0  0
 62 66  1  0  0  0  0
 62 82  1  0  0  0  0
 63 65  1  0  0  0  0
 63 74  1  0  0  0  0
 64 75  1  0  0  0  0
 67 68  1  0  0  0  0
M  CHG  1  75   1
M  ISO  4  36 100  59 100  62 101  82 101
M  END
> <Batch ID>
0132

> <Smiles>
CNC(C)C(=O)NC(C(=O)N1Cc2cc([101O:1][101CH2:1]C(C)(C)CCc3ccc([100CH2:0][100C:0](=O)N4CCCC(n5nc(-c6ccc(Oc7ccc(F)cc7F)cc6)c(C(N)=O)c5N)C4)cc3C)ccc2CC1C(=O)NC1CCCc2ccccc21)C(C)(C)C

> <Shape>
0.225

> <Color>
0.222

> <Negative vol penalty>
0.000

$$$$

  -OEChem-04052302283D

 84 92  0     1  0  0  0  0  0999 V2000
  -30.4443  -34.8817   20.6220 C   0  0  0  0  0  0  0  0  0  0  0  0
  -30.2756  -33.5014   20.5789 C   0  0  0  0  0  0  0  0  0  0  0  0
  -24.5539   -9.2874   22.1667 C   0  0  0  0  0  0  0  0  0  0  0  0
  -23.7154   -9.5921   19.9215 C   0  0  0  0  0  0  0  0  0  0  0  0
  -29.6735  -35.6502   21.4932 C   0  0  0  0  0  0  0  0  0  0  0  0
  -29.3366  -32.8887   21.4081 C   0  0  0  0  0  0  0  0  0  0  0  0
  -26.5611  -29.4238   18.9718 C   0  0  0  0  0  0  0  0  0  0  0  0
  -23.3615   -8.6597   22.5269 C   0  0  0  0  0  0  0  0  0  0  0  0
  -22.5230   -8.9644   20.2816 C   0  0  0  0  0  0  0  0  0  0  0  0
  -27.1532  -28.1834   18.7378 C   0  0  0  0  0  0  0  0  0  0  0  0
  -21.9411   -5.6131   22.1617 C   0  0  0  0  0  0  0  0  0  0  0  0
  -22.0269   -4.4380   22.9083 C   0  0  0  0  0  0  0  0  0  0  0  0
  -31.1612  -19.6212   24.3849 C   0  0  0  0  0  0  0  0  0  0  0  0
  -30.1559  -20.1516   22.2530 C   0  0  0  0  0  0  0  0  0  0  0  0
  -25.9662  -27.2671   20.6274 C   0  0  0  0  0  0  0  0  0  0  0  0
  -31.4597  -21.8166   23.4213 C   0  0  0  0  0  0  0  0  0  0  0  0
  -20.7649   -5.4765   24.6877 C   0  0  0  0  0  0  0  0  0  0  0  0
  -24.7309   -9.7536   20.8640 C   0  0  0  0  0  0  0  0  0  0  0  0
  -30.3915  -19.2431   23.2848 C   0  0  0  0  0  0  0  0  0  0  0  0
  -27.1219   -9.7936   19.9756 C   0  0  0  0  0  0  0  0  0  0  0  0
  -28.7178  -35.0477   22.3265 C   0  0  0  0  0  0  0  0  0  0  0  0
  -25.6740  -29.5982   20.0437 C   0  0  0  0  0  0  0  0  0  0  0  0
  -28.5533  -33.6498   22.2923 C   0  0  0  0  0  0  0  0  0  0  0  0
  -25.3622  -28.5100   20.8713 C   0  0  0  0  0  0  0  0  0  0  0  0
  -31.6953  -20.9080   24.4531 C   0  0  0  0  0  0  0  0  0  0  0  0
  -30.6900  -21.4384   22.3212 C   0  0  0  0  0  0  0  0  0  0  0  0
  -22.3460   -8.4982   21.5843 C   0  0  0  0  0  0  0  0  0  0  0  0
  -26.8580  -27.1056   19.5675 C   0  0  0  0  0  0  0  0  0  0  0  0
  -21.2673   -6.7199   22.6781 C   0  0  0  0  0  0  0  0  0  0  0  0
  -21.4388   -4.3697   24.1713 C   0  0  0  0  0  0  0  0  0  0  0  0
  -20.6792   -6.6516   23.9411 C   0  0  0  0  0  0  0  0  0  0  0  0
  -25.9622  -10.4026   20.4915 C   0  0  0  0  0  0  0  0  0  0  0  0
  -28.0005  -10.8324   19.7875 C   0  0  0  0  0  0  0  0  0  0  0  0
  -29.8346  -17.9012   23.2143 C   0  0  0  0  0  0  0  0  0  0  0  0
  -28.7944  -17.5247   22.4404 C   0  0  0  0  0  0  0  0  0  0  0  0
  -27.3816   -8.4125   19.6916 C   0  0  0  0  0  0  0  0  0  0  0  0
  -28.3502  -16.1167   22.4721 C   0  0  0  0  0  0  0  0  0  0  0  0
  -25.6490  -31.3960   22.6649 C   0  0  0  0  0  0  0  0  0  0  0  0
  -22.6588  -30.1834   22.9973 C   0  0  0  0  0  0  0  0  0  0  0  0
  -20.4531  -27.6778   22.2875 C   0  0  0  0  0  0  0  0  0  0  0  0
  -27.9413  -35.9146   23.2858 C   0  0  0  0  0  0  0  0  0  0  0  0
  -25.0231  -30.9357   20.2665 C   0  0  0  0  0  0  0  0  0  0  0  0
  -24.4007  -28.6399   22.0233 C   0  0  0  0  0  0  0  0  0  0  0  0
  -26.7051  -35.2292   23.8622 C   0  0  0  0  0  0  0  0  0  0  0  0
  -28.1415  -15.5102   18.8637 C   0  0  0  0  0  0  0  0  0  0  0  0
  -27.0461  -33.8174   24.3284 C   0  0  0  0  0  0  0  0  0  0  0  0
  -27.6150  -14.0778   18.8367 C   0  0  0  0  0  0  0  0  0  0  0  0
  -27.5827  -16.3025   20.0446 C   0  0  0  0  0  0  0  0  0  0  0  0
  -27.2788  -14.2100   21.3366 C   0  0  0  0  0  0  0  0  0  0  0  0
  -27.5276  -32.9511   23.1583 C   0  0  1  0  0  0  0  0  0  0  0  0
  -24.5307  -31.1297   21.6973 C   0  0  1  0  0  0  0  0  0  0  0  0
  -27.8648  -13.3805   20.1833 C   0  0  1  0  0  0  0  0  0  0  0  0
  -31.6739  -21.9184   26.7478 C   0  0  0  0  0  0  0  0  0  0  0  0
  -18.0940  -26.9459   22.7307 C   0  0  0  0  0  0  0  0  0  0  0  0
  -23.4601  -29.3117   25.8094 C   0  0  0  0  0  0  0  0  0  0  0  0
  -21.4655  -27.7986   25.8335 C   0  0  0  0  0  0  0  0  0  0  0  0
  -21.1552  -30.2654   25.6300 C   0  0  0  0  0  0  0  0  0  0  0  0
  -19.7628  -27.7643   19.4109 C   0  0  0  0  0  0  0  0  0  0  0  0
  -32.5181  -21.3127   25.6294 C   0  0  0  0  0  0  0  0  0  0  0  0
  -30.4352  -22.4206   21.2058 C   0  0  0  0  0  0  0  0  0  0  0  0
  -29.1742  -23.2690   21.4039 C   0  0  0  0  0  0  0  0  0  0  0  0
  -28.8905  -24.2038   20.2273 C   0  0  0  0  0  0  0  0  0  0  0  0
  -27.6547  -25.0576   20.4769 C   0  0  0  0  0  0  0  0  0  1  0  0
  -22.0674  -28.9645   23.6633 C   0  0  1  0  0  0  0  0  0  0  0  0
  -19.0177  -27.7091   21.7942 C   0  0  2  0  0  0  0  0  0  0  0  0
  -22.0567  -29.0828   25.2136 C   0  0  0  0  0  0  0  0  0  0  0  0
  -26.0896  -11.7257   20.6230 N   0  0  0  0  0  0  0  0  0  0  0  0
  -27.3397  -11.9566   20.1870 N   0  0  0  0  0  0  0  0  0  0  0  0
  -27.7817  -15.5881   21.3146 N   0  0  0  0  0  0  0  0  0  0  0  0
  -23.7949  -29.9695   22.2041 N   0  0  0  0  0  0  0  0  0  0  0  0
  -29.2663  -10.8847   19.3211 N   0  0  0  0  0  0  0  0  0  0  0  0
  -26.3690   -7.4767   19.9436 N   0  0  0  0  0  0  0  0  0  0  0  0
  -26.4041  -32.5121   22.3587 N   0  0  0  0  0  0  0  0  0  0  0  0
  -20.7484  -28.7744   23.0695 N   0  0  0  0  0  0  0  0  0  0  0  0
  -18.9224  -27.0976   20.4386 N   0  3  0  0  0  0  0  0  0  0  0  0
  -28.4847   -8.0177   19.2436 O   0  0  0  0  0  0  0  0  0  0  0  0
  -28.5055  -15.4950   23.5248 O   0  0  0  0  0  0  0  0  0  0  0  0
  -25.8136  -30.6455   23.6195 O   0  0  0  0  0  0  0  0  0  0  0  0
  -22.1279  -31.2836   23.1686 O   0  0  0  0  0  0  0  0  0  0  0  0
  -21.2331  -26.7694   22.0101 O   0  0  0  0  0  0  0  0  0  0  0  0
  -21.1824   -7.8856   21.9353 O   0  0  0  0  0  0  0  0  0  0  0  0
  -27.4351  -25.8940   19.3417 O   0  0  0  0  0  0  0  0  0  1  0  0
  -21.5199   -3.2407   24.8875 F   0  0  0  0  0  0  0  0  0  0  0  0
  -20.0296   -7.7113   24.4420 F   0  0  0  0  0  0  0  0  0  0  0  0
  1  2  1  0  0  0  0
  1  5  2  0  0  0  0
  2  6  2  0  0  0  0
  3  8  2  0  0  0  0
  3 18  1  0  0  0  0
  4  9  1  0  0  0  0
  4 18  2  0  0  0  0
  5 21  1  0  0  0  0
  6 23  1  0  0  0  0
  7 10  2  0  0  0  0
  7 22  1  0  0  0  0
  8 27  1  0  0  0  0
  9 27  2  0  0  0  0
 10 28  1  0  0  0  0
 11 12  2  0  0  0  0
 11 29  1  0  0  0  0
 12 30  1  0  0  0  0
 13 19  2  0  0  0  0
 13 25  1  0  0  0  0
 14 19  1  0  0  0  0
 14 26  2  0  0  0  0
 15 24  1  0  0  0  0
 15 28  2  0  0  0  0
 16 25  2  0  0  0  0
 16 26  1  0  0  0  0
 17 30  2  0  0  0  0
 17 31  1  0  0  0  0
 18 32  1  0  0  0  0
 19 34  1  0  0  0  0
 20 32  1  0  0  0  0
 20 33  2  0  0  0  0
 20 36  1  0  0  0  0
 21 23  2  0  0  0  0
 21 41  1  0  0  0  0
 22 24  2  0  0  0  0
 22 42  1  0  0  0  0
 23 50  1  0  0  0  0
 24 43  1  0  0  0  0
 25 59  1  0  0  0  0
 26 60  1  0  0  0  0
 27 81  1  0  0  0  0
 28 82  1  0  0  0  0
 29 31  2  0  0  0  0
 29 81  1  0  0  0  0
 30 83  1  0  0  0  0
 31 84  1  0  0  0  0
 32 67  2  0  0  0  0
 33 68  1  0  0  0  0
 33 71  1  0  0  0  0
 34 35  2  0  0  0  0
 35 37  1  0  0  0  0
 36 72  1  0  0  0  0
 36 76  2  0  0  0  0
 37 69  1  0  0  0  0
 37 77  2  0  0  0  0
 38 51  1  0  0  0  0
 38 73  1  0  0  0  0
 38 78  2  0  0  0  0
 39 64  1  0  0  0  0
 39 70  1  0  0  0  0
 39 79  2  0  0  0  0
 40 65  1  0  0  0  0
 40 74  1  0  0  0  0
 40 80  2  0  0  0  0
 41 44  1  0  0  0  0
 42 51  1  0  0  0  0
 43 70  1  0  0  0  0
 44 46  1  0  0  0  0
 45 47  1  0  0  0  0
 45 48  1  0  0  0  0
 46 50  1  0  0  0  0
 47 52  1  0  0  0  0
 48 69  1  0  0  0  0
 49 52  1  0  0  0  0
 49 69  1  0  0  0  0
 50 73  1  0  0  0  0
 51 70  1  0  0  0  0
 52 68  1  0  0  0  0
 53 59  1  0  0  0  0
 54 65  1  0  0  0  0
 55 66  1  0  0  0  0
 56 66  1  0  0  0  0
 57 66  1  0  0  0  0
 58 75  1  0  0  0  0
 60 61  1  0  0  0  0
 61 62  1  0  0  0  0
 62 63  1  0  0  0  0
 63 82  1  0  0  0  0
 64 66  1  0  0  0  0
 64 74  1  0  0  0  0
 65 75  1  0  0  0  0
 67 68  1  0  0  0  0
M  CHG  1  75   1
M  ISO  4  35 100  37 100  63 101  82 101
M  END
> <Batch ID>
0132

> <Smiles>
CCc1cc(C=[100CH:0][100C:0](=O)N2CCCC(n3nc(-c4ccc(Oc5ccc(F)cc5F)cc4)c(C(N)=O)c3N)C2)cc(CCC[101CH2:1][101O:1]c2ccc3c(c2)CN(C(=O)C(NC(=O)C(C)NC)C(C)(C)C)C(C(=O)NC2CCCc4ccccc42)C3)c1

> <Shape>
0.279

> <Color>
0.103

> <Negative vol penalty>
0.000

$$$$

  -OEChem-04052302283D

 86 94  0     1  0  0  0  0  0999 V2000
  -17.9886  -25.4024   22.9424 C   0  0  0  0  0  0  0  0  0  0  0  0
  -19.2658  -25.1419   22.4563 C   0  0  0  0  0  0  0  0  0  0  0  0
  -28.2696  -11.6686   21.9190 C   0  0  0  0  0  0  0  0  0  0  0  0
  -26.9214  -12.1933   19.9840 C   0  0  0  0  0  0  0  0  0  0  0  0
  -17.5003  -26.7084   22.9511 C   0  0  0  0  0  0  0  0  0  0  0  0
  -20.0550  -26.1870   21.9776 C   0  0  0  0  0  0  0  0  0  0  0  0
  -26.1405  -26.7086   22.4258 C   0  0  0  0  0  0  0  0  0  0  0  0
  -27.5284  -10.5041   22.1196 C   0  0  0  0  0  0  0  0  0  0  0  0
  -26.1803  -11.0288   20.1846 C   0  0  0  0  0  0  0  0  0  0  0  0
  -27.1738  -26.4349   21.5308 C   0  0  0  0  0  0  0  0  0  0  0  0
  -23.6773   -9.9854   22.2039 C   0  0  0  0  0  0  0  0  0  0  0  0
  -22.2888  -10.0762   22.1070 C   0  0  0  0  0  0  0  0  0  0  0  0
  -27.2062  -28.7542   20.8682 C   0  0  0  0  0  0  0  0  0  0  0  0
  -24.3461  -23.4533   17.6014 C   0  0  0  0  0  0  0  0  0  0  0  0
  -26.6418  -24.0111   17.0963 C   0  0  0  0  0  0  0  0  0  0  0  0
  -22.3099   -8.4705   20.3018 C   0  0  0  0  0  0  0  0  0  0  0  0
  -27.9660  -12.5132   20.8512 C   0  0  0  0  0  0  0  0  0  0  0  0
  -30.1150  -13.8138   20.4061 C   0  0  0  0  0  0  0  0  0  0  0  0
  -18.2876  -27.7713   22.4812 C   0  0  0  0  0  0  0  0  0  0  0  0
  -25.6240  -28.0071   22.5411 C   0  0  0  0  0  0  0  0  0  0  0  0
  -19.5763  -27.5082   21.9788 C   0  0  0  0  0  0  0  0  0  0  0  0
  -26.1680  -29.0422   21.7673 C   0  0  0  0  0  0  0  0  0  0  0  0
  -25.6579  -23.0544   17.3456 C   0  0  0  0  0  0  0  0  0  0  0  0
  -24.0181  -24.8091   17.6077 C   0  0  0  0  0  0  0  0  0  0  0  0
  -25.0020  -25.7659   17.3584 C   0  0  0  0  0  0  0  0  0  0  0  0
  -26.4838  -10.1841   21.2524 C   0  0  0  0  0  0  0  0  0  0  0  0
  -27.7049  -27.4571   20.7497 C   0  0  0  0  0  0  0  0  0  0  0  0
  -24.3822   -9.1373   21.3497 C   0  0  0  0  0  0  0  0  0  0  0  0
  -26.3139  -25.3669   17.1027 C   0  0  0  0  0  0  0  0  0  0  0  0
  -21.6051   -9.3187   21.1559 C   0  0  0  0  0  0  0  0  0  0  0  0
  -23.6985   -8.3799   20.3987 C   0  0  0  0  0  0  0  0  0  0  0  0
  -28.7309  -13.7166   20.6438 C   0  0  0  0  0  0  0  0  0  0  0  0
  -30.3476  -15.1613   20.2779 C   0  0  0  0  0  0  0  0  0  0  0  0
  -31.1022  -12.7785   20.3096 C   0  0  0  0  0  0  0  0  0  0  0  0
  -22.7827  -29.3432   22.0454 C   0  0  0  0  0  0  0  0  0  0  0  0
  -26.7526  -19.5931   18.6314 C   0  0  0  0  0  0  0  0  0  0  0  0
  -24.2296  -31.9616   23.2996 C   0  0  0  0  0  0  0  0  0  0  0  0
  -27.1303  -33.6434   23.9356 C   0  0  0  0  0  0  0  0  0  0  0  0
  -17.6988  -29.1598   22.4668 C   0  0  0  0  0  0  0  0  0  0  0  0
  -24.5273  -28.2913   23.5306 C   0  0  0  0  0  0  0  0  0  0  0  0
  -25.6625  -30.4574   21.8680 C   0  0  0  0  0  0  0  0  0  0  0  0
  -18.7405  -30.2614   22.2891 C   0  0  0  0  0  0  0  0  0  0  0  0
  -28.6882  -19.4080   21.7049 C   0  0  0  0  0  0  0  0  0  0  0  0
  -19.7038  -29.9081   21.1604 C   0  0  0  0  0  0  0  0  0  0  0  0
  -29.0198  -17.9176   21.7680 C   0  0  0  0  0  0  0  0  0  0  0  0
  -27.3024  -19.6501   21.1126 C   0  0  0  0  0  0  0  0  0  0  0  0
  -27.4359  -17.5386   19.8288 C   0  0  0  0  0  0  0  0  0  0  0  0
  -20.4720  -28.6186   21.4740 C   0  0  1  0  0  0  0  0  0  0  0  0
  -23.7297  -29.5474   23.1940 C   0  0  1  0  0  0  0  0  0  0  0  0
  -28.8380  -17.2531   20.3921 C   0  0  2  0  0  0  0  0  0  0  0  0
  -22.1121  -24.6997   19.2331 C   0  0  0  0  0  0  0  0  0  0  0  0
  -23.9387  -27.6485   16.0890 C   0  0  0  0  0  0  0  0  0  0  0  0
  -27.9914  -35.7759   24.9398 C   0  0  0  0  0  0  0  0  0  0  0  0
  -23.3461  -33.4880   20.8097 C   0  0  0  0  0  0  0  0  0  0  0  0
  -24.9995  -35.2723   21.4019 C   0  0  0  0  0  0  0  0  0  0  0  0
  -23.1123  -34.7595   22.9505 C   0  0  0  0  0  0  0  0  0  0  0  0
  -28.6785  -32.1851   25.9936 C   0  0  0  0  0  0  0  0  0  0  0  0
  -26.0080  -21.6047   17.3376 C   0  0  0  0  0  0  0  0  0  0  0  0
  -22.6058  -25.2104   17.8829 C   0  0  0  0  0  0  0  0  0  0  0  0
  -24.6560  -27.2207   17.3649 C   0  0  0  0  0  0  0  0  0  0  0  0
  -26.4406  -21.0665   18.7074 C   0  0  0  0  0  0  0  0  0  0  0  0
  -29.4079  -27.2041   17.5643 C   0  0  0  0  0  0  0  0  0  0  0  0
  -28.7811  -27.9986   18.6993 C   0  0  0  0  0  0  0  0  0  1  0  0
  -28.6162  -25.9454   17.2460 C   0  0  0  0  0  0  0  0  0  0  0  0
  -25.0225  -33.1170   22.7379 C   0  0  1  0  0  0  0  0  0  0  0  0
  -27.6496  -34.3159   25.1936 C   0  0  2  0  0  0  0  0  0  0  0  0
  -24.1285  -34.1323   21.9714 C   0  0  0  0  0  0  0  0  0  0  0  0
  -28.1266  -14.9076   20.6661 N   0  0  0  0  0  0  0  0  0  0  0  0
  -29.1359  -15.7659   20.4407 N   0  0  0  0  0  0  0  0  0  0  0  0
  -24.5850  -30.6837   22.8454 N   0  0  0  0  0  0  0  0  0  0  0  0
  -27.1601  -18.9781   19.8155 N   0  0  0  0  0  0  0  0  0  0  0  0
  -31.4684  -15.8763   20.0431 N   0  0  0  0  0  0  0  0  0  0  0  0
  -31.3595  -12.2158   19.0520 N   0  0  0  0  0  0  0  0  0  0  0  0
  -21.5354  -28.8811   22.4199 N   0  0  0  0  0  0  0  0  0  0  0  0
  -25.7544  -33.6938   23.8604 N   0  0  0  0  0  0  0  0  0  0  0  0
  -28.8760  -33.6242   25.6821 N   0  3  0  0  0  0  0  0  0  0  0  0
  -31.7255  -12.3532   21.3116 O   0  0  0  0  0  0  0  0  0  0  0  0
  -23.1555  -29.5883   20.9041 O   0  0  0  0  0  0  0  0  0  0  0  0
  -26.6397  -19.0088   17.5508 O   0  0  0  0  0  0  0  0  0  0  0  0
  -23.3327  -32.1842   24.1168 O   0  0  0  0  0  0  0  0  0  0  0  0
  -27.8712  -33.1284   23.1012 O   0  0  0  0  0  0  0  0  0  0  0  0
  -25.7606   -9.0478   21.4477 O   0  0  0  0  0  0  0  0  0  0  0  0
  -28.7131  -27.1926   19.8749 O   0  0  0  0  0  0  0  0  0  1  0  0
  -27.2942  -26.2927   16.8566 O   0  0  0  0  0  0  0  0  0  0  0  0
  -20.2716   -9.4048   21.0640 F   0  0  0  0  0  0  0  0  0  0  0  0
  -24.3701   -7.5624   19.5762 F   0  0  0  0  0  0  0  0  0  0  0  0
  1  2  1  0  0  0  0
  1  5  2  0  0  0  0
  2  6  2  0  0  0  0
  3  8  2  0  0  0  0
  3 17  1  0  0  0  0
  4  9  1  0  0  0  0
  4 17  2  0  0  0  0
  5 19  1  0  0  0  0
  6 21  1  0  0  0  0
  7 10  2  0  0  0  0
  7 20  1  0  0  0  0
  8 26  1  0  0  0  0
  9 26  2  0  0  0  0
 10 27  1  0  0  0  0
 11 12  2  0  0  0  0
 11 28  1  0  0  0  0
 12 30  1  0  0  0  0
 13 22  1  0  0  0  0
 13 27  2  0  0  0  0
 14 23  2  0  0  0  0
 14 24  1  0  0  0  0
 15 23  1  0  0  0  0
 15 29  2  0  0  0  0
 16 30  2  0  0  0  0
 16 31  1  0  0  0  0
 17 32  1  0  0  0  0
 18 32  1  0  0  0  0
 18 33  2  0  0  0  0
 18 34  1  0  0  0  0
 19 21  2  0  0  0  0
 19 39  1  0  0  0  0
 20 22  2  0  0  0  0
 20 40  1  0  0  0  0
 21 48  1  0  0  0  0
 22 41  1  0  0  0  0
 23 58  1  0  0  0  0
 24 25  2  0  0  0  0
 24 59  1  0  0  0  0
 25 29  1  0  0  0  0
 25 60  1  0  0  0  0
 26 82  1  0  0  0  0
 27 83  1  0  0  0  0
 28 31  2  0  0  0  0
 28 82  1  0  0  0  0
 29 84  1  0  0  0  0
 30 85  1  0  0  0  0
 31 86  1  0  0  0  0
 32 68  2  0  0  0  0
 33 69  1  0  0  0  0
 33 72  1  0  0  0  0
 34 73  1  0  0  0  0
 34 77  2  0  0  0  0
 35 49  1  0  0  0  0
 35 74  1  0  0  0  0
 35 78  2  0  0  0  0
 36 61  1  0  0  0  0
 36 71  1  0  0  0  0
 36 79  2  0  0  0  0
 37 65  1  0  0  0  0
 37 70  1  0  0  0  0
 37 80  2  0  0  0  0
 38 66  1  0  0  0  0
 38 75  1  0  0  0  0
 38 81  2  0  0  0  0
 39 42  1  0  0  0  0
 40 49  1  0  0  0  0
 41 70  1  0  0  0  0
 42 44  1  0  0  0  0
 43 45  1  0  0  0  0
 43 46  1  0  0  0  0
 44 48  1  0  0  0  0
 45 50  1  0  0  0  0
 46 71  1  0  0  0  0
 47 50  1  0  0  0  0
 47 71  1  0  0  0  0
 48 74  1  0  0  0  0
 49 70  1  0  0  0  0
 50 69  1  0  0  0  0
 51 59  1  0  0  0  0
 52 60  1  0  0  0  0
 53 66  1  0  0  0  0
 54 67  1  0  0  0  0
 55 67  1  0  0  0  0
 56 67  1  0  0  0  0
 57 76  1  0  0  0  0
 58 61  1  0  0  0  0
 62 63  1  0  0  0  0
 62 64  1  0  0  0  0
 63 83  1  0  0  0  0
 64 84  1  0  0  0  0
 65 67  1  0  0  0  0
 65 75  1  0  0  0  0
 66 76  1  0  0  0  0
 68 69  1  0  0  0  0
M  CHG  1  76   1
M  ISO  4  36 100  61 100  63 101  83 101
M  END
> <Batch ID>
0132

> <Smiles>
CCc1cc(C[100CH2:0][100C:0](=O)N2CCCC(n3nc(-c4ccc(Oc5ccc(F)cc5F)cc4)c(C(N)=O)c3N)C2)cc(OCC[101CH2:1][101O:1]c2ccc3c(c2)CN(C(=O)C(NC(=O)C(C)NC)C(C)(C)C)C(C(=O)NC2CCCc4ccccc42)C3)c1CC

> <Shape>
0.280

> <Color>
0.094

> <Negative vol penalty>
0.000

$$$$

  -OEChem-04052302283D

 85 93  0     1  0  0  0  0  0999 V2000
  -18.2377  -25.8392   25.1150 C   0  0  0  0  0  0  0  0  0  0  0  0
  -19.5714  -25.8653   25.5097 C   0  0  0  0  0  0  0  0  0  0  0  0
  -24.5558  -13.9178   20.9876 C   0  0  0  0  0  0  0  0  0  0  0  0
  -22.3915  -14.9054   20.5661 C   0  0  0  0  0  0  0  0  0  0  0  0
  -17.8494  -26.4676   23.9325 C   0  0  0  0  0  0  0  0  0  0  0  0
  -20.5180  -26.5189   24.7215 C   0  0  0  0  0  0  0  0  0  0  0  0
  -25.4429  -29.5928   26.6715 C   0  0  0  0  0  0  0  0  0  0  0  0
  -23.9371  -12.8054   21.5580 C   0  0  0  0  0  0  0  0  0  0  0  0
  -21.7728  -13.7929   21.1364 C   0  0  0  0  0  0  0  0  0  0  0  0
  -26.7874  -29.2398   26.7780 C   0  0  0  0  0  0  0  0  0  0  0  0
  -22.3681  -10.0071   20.4900 C   0  0  0  0  0  0  0  0  0  0  0  0
  -22.8371   -8.7456   20.1236 C   0  0  0  0  0  0  0  0  0  0  0  0
  -30.8735  -25.5466   19.7606 C   0  0  0  0  0  0  0  0  0  0  0  0
  -30.8573  -24.8456   22.0725 C   0  0  0  0  0  0  0  0  0  0  0  0
  -27.2200  -30.2652   24.6378 C   0  0  0  0  0  0  0  0  0  0  0  0
  -31.6373  -27.0556   21.4859 C   0  0  0  0  0  0  0  0  0  0  0  0
  -23.3862   -8.2798   22.4298 C   0  0  0  0  0  0  0  0  0  0  0  0
  -23.7830  -14.9678   20.4917 C   0  0  0  0  0  0  0  0  0  0  0  0
  -30.6081  -24.5762   20.7268 C   0  0  0  0  0  0  0  0  0  0  0  0
  -24.7672  -16.2982   18.5503 C   0  0  0  0  0  0  0  0  0  0  0  0
  -18.7901  -27.1374   23.1343 C   0  0  0  0  0  0  0  0  0  0  0  0
  -24.9739  -30.2762   25.5404 C   0  0  0  0  0  0  0  0  0  0  0  0
  -20.1422  -27.1556   23.5265 C   0  0  0  0  0  0  0  0  0  0  0  0
  -25.8696  -30.6280   24.5205 C   0  0  0  0  0  0  0  0  0  0  0  0
  -31.3881  -26.7863   20.1401 C   0  0  0  0  0  0  0  0  0  0  0  0
  -31.3719  -26.0853   22.4521 C   0  0  0  0  0  0  0  0  0  0  0  0
  -22.5456  -12.7429   21.6324 C   0  0  0  0  0  0  0  0  0  0  0  0
  -27.6757  -29.5734   25.7598 C   0  0  0  0  0  0  0  0  0  0  0  0
  -22.4083  -10.4050   21.8264 C   0  0  0  0  0  0  0  0  0  0  0  0
  -23.3461   -7.8819   21.0935 C   0  0  0  0  0  0  0  0  0  0  0  0
  -22.9173   -9.5414   22.7962 C   0  0  0  0  0  0  0  0  0  0  0  0
  -24.4215  -16.1175   19.9029 C   0  0  0  0  0  0  0  0  0  0  0  0
  -25.3434  -17.5442   18.5066 C   0  0  0  0  0  0  0  0  0  0  0  0
  -30.0717  -23.2836   20.3305 C   0  0  0  0  0  0  0  0  0  0  0  0
  -29.4262  -22.4208   21.1439 C   0  0  0  0  0  0  0  0  0  0  0  0
  -24.5839  -15.4184   17.4331 C   0  0  0  0  0  0  0  0  0  0  0  0
  -28.9296  -21.1462   20.5874 C   0  0  0  0  0  0  0  0  0  0  0  0
  -22.8628  -29.6406   23.2506 C   0  0  0  0  0  0  0  0  0  0  0  0
  -23.4802  -32.7011   22.3708 C   0  0  0  0  0  0  0  0  0  0  0  0
  -25.6357  -35.3468   22.4048 C   0  0  0  0  0  0  0  0  0  0  0  0
  -18.3309  -27.7616   21.8403 C   0  0  0  0  0  0  0  0  0  0  0  0
  -23.5258  -30.6734   25.4529 C   0  0  0  0  0  0  0  0  0  0  0  0
  -25.4204  -31.3794   23.2949 C   0  0  0  0  0  0  0  0  0  0  0  0
  -19.3323  -28.7529   21.2532 C   0  0  0  0  0  0  0  0  0  0  0  0
  -25.5286  -21.2231   21.9508 C   0  0  0  0  0  0  0  0  0  0  0  0
  -20.7401  -28.1659   21.2754 C   0  0  0  0  0  0  0  0  0  0  0  0
  -24.9855  -19.8834   21.4609 C   0  0  0  0  0  0  0  0  0  0  0  0
  -27.0188  -21.1499   22.2801 C   0  0  0  0  0  0  0  0  0  0  0  0
  -27.3092  -19.2913   20.6671 C   0  0  0  0  0  0  0  0  0  0  0  0
  -21.1942  -27.8755   22.7110 C   0  0  1  0  0  0  0  0  0  0  0  0
  -23.0581  -30.9157   24.0211 C   0  0  1  0  0  0  0  0  0  0  0  0
  -25.8220  -19.3540   20.2853 C   0  0  1  0  0  0  0  0  0  0  0  0
  -31.6722  -27.8239   19.1072 C   0  0  0  0  0  0  0  0  0  0  0  0
  -25.8791  -37.7003   21.5685 C   0  0  0  0  0  0  0  0  0  0  0  0
  -24.0914  -31.6421   19.5753 C   0  0  0  0  0  0  0  0  0  0  0  0
  -25.2167  -33.8211   19.0715 C   0  0  0  0  0  0  0  0  0  0  0  0
  -22.7838  -33.7734   19.6206 C   0  0  0  0  0  0  0  0  0  0  0  0
  -31.7636  -28.3874   26.2363 C   0  0  0  0  0  0  0  0  0  0  0  0
  -30.8822  -26.1529   26.9555 C   0  0  0  0  0  0  0  0  0  0  0  0
  -25.8184  -36.4279   25.1537 C   0  0  0  0  0  0  0  0  0  0  0  0
  -31.6418  -26.3767   23.9087 C   0  0  0  0  0  0  0  0  0  0  0  0
  -30.4129  -26.9920   24.5926 C   0  0  0  0  0  0  0  0  0  0  0  0
  -29.2950  -28.0470   26.5985 C   0  0  0  0  0  0  0  0  0  1  0  0
  -24.4764  -33.3699   21.4547 C   0  0  1  0  0  0  0  0  0  0  0  0
  -25.4215  -36.8166   22.7185 C   0  0  2  0  0  0  0  0  0  0  0  0
  -24.1505  -33.1358   19.9526 C   0  0  0  0  0  0  0  0  0  0  0  0
  -30.5999  -27.3901   26.0847 C   0  0  0  0  0  0  0  0  0  0  0  0
  -24.7507  -17.1649   20.6636 N   0  0  0  0  0  0  0  0  0  0  0  0
  -25.3094  -18.0156   19.7860 N   0  0  0  0  0  0  0  0  0  0  0  0
  -27.7901  -20.5861   21.1620 N   0  0  0  0  0  0  0  0  0  0  0  0
  -23.9935  -31.7397   23.2528 N   0  0  0  0  0  0  0  0  0  0  0  0
  -25.8708  -18.2716   17.4991 N   0  0  0  0  0  0  0  0  0  0  0  0
  -23.9746  -14.1757   17.6543 N   0  0  0  0  0  0  0  0  0  0  0  0
  -21.5973  -29.0989   23.3708 N   0  0  0  0  0  0  0  0  0  0  0  0
  -24.5121  -34.7748   21.8465 N   0  0  0  0  0  0  0  0  0  0  0  0
  -26.1840  -37.2020   23.9396 N   0  3  0  0  0  0  0  0  0  0  0  0
  -24.9643  -15.7183   16.2761 O   0  0  0  0  0  0  0  0  0  0  0  0
  -29.5581  -20.6521   19.6496 O   0  0  0  0  0  0  0  0  0  0  0  0
  -23.7911  -29.1829   22.5945 O   0  0  0  0  0  0  0  0  0  0  0  0
  -22.2914  -33.0251   22.3110 O   0  0  0  0  0  0  0  0  0  0  0  0
  -26.6950  -34.7653   22.6289 O   0  0  0  0  0  0  0  0  0  0  0  0
  -21.9416  -11.6574   22.1887 O   0  0  0  0  0  0  0  0  0  0  0  0
  -28.9884  -29.2295   25.8610 O   0  0  0  0  0  0  0  0  0  1  0  0
  -23.7950   -6.6699   20.7416 F   0  0  0  0  0  0  0  0  0  0  0  0
  -22.9573   -9.9176   24.0818 F   0  0  0  0  0  0  0  0  0  0  0  0
  1  2  1  0  0  0  0
  1  5  2  0  0  0  0
  2  6  2  0  0  0  0
  3  8  2  0  0  0  0
  3 18  1  0  0  0  0
  4  9  1  0  0  0  0
  4 18  2  0  0  0  0
  5 21  1  0  0  0  0
  6 23  1  0  0  0  0
  7 10  2  0  0  0  0
  7 22  1  0  0  0  0
  8 27  1  0  0  0  0
  9 27  2  0  0  0  0
 10 28  1  0  0  0  0
 11 12  2  0  0  0  0
 11 29  1  0  0  0  0
 12 30  1  0  0  0  0
 13 19  2  0  0  0  0
 13 25  1  0  0  0  0
 14 19  1  0  0  0  0
 14 26  2  0  0  0  0
 15 24  1  0  0  0  0
 15 28  2  0  0  0  0
 16 25  2  0  0  0  0
 16 26  1  0  0  0  0
 17 30  2  0  0  0  0
 17 31  1  0  0  0  0
 18 32  1  0  0  0  0
 19 34  1  0  0  0  0
 20 32  1  0  0  0  0
 20 33  2  0  0  0  0
 20 36  1  0  0  0  0
 21 23  2  0  0  0  0
 21 41  1  0  0  0  0
 22 24  2  0  0  0  0
 22 42  1  0  0  0  0
 23 50  1  0  0  0  0
 24 43  1  0  0  0  0
 25 53  1  0  0  0  0
 26 61  1  0  0  0  0
 27 82  1  0  0  0  0
 28 83  1  0  0  0  0
 29 31  2  0  0  0  0
 29 82  1  0  0  0  0
 30 84  1  0  0  0  0
 31 85  1  0  0  0  0
 32 68  2  0  0  0  0
 33 69  1  0  0  0  0
 33 72  1  0  0  0  0
 34 35  2  0  0  0  0
 35 37  1  0  0  0  0
 36 73  1  0  0  0  0
 36 77  2  0  0  0  0
 37 70  1  0  0  0  0
 37 78  2  0  0  0  0
 38 51  1  0  0  0  0
 38 74  1  0  0  0  0
 38 79  2  0  0  0  0
 39 64  1  0  0  0  0
 39 71  1  0  0  0  0
 39 80  2  0  0  0  0
 40 65  1  0  0  0  0
 40 75  1  0  0  0  0
 40 81  2  0  0  0  0
 41 44  1  0  0  0  0
 42 51  1  0  0  0  0
 43 71  1  0  0  0  0
 44 46  1  0  0  0  0
 45 47  1  0  0  0  0
 45 48  1  0  0  0  0
 46 50  1  0  0  0  0
 47 52  1  0  0  0  0
 48 70  1  0  0  0  0
 49 52  1  0  0  0  0
 49 70  1  0  0  0  0
 50 74  1  0  0  0  0
 51 71  1  0  0  0  0
 52 69  1  0  0  0  0
 54 65  1  0  0  0  0
 55 66  1  0  0  0  0
 56 66  1  0  0  0  0
 57 66  1  0  0  0  0
 58 67  1  0  0  0  0
 59 67  1  0  0  0  0
 60 76  1  0  0  0  0
 61 62  1  0  0  0  0
 62 67  1  0  0  0  0
 63 67  1  0  0  0  0
 63 83  1  0  0  0  0
 64 66  1  0  0  0  0
 64 75  1  0  0  0  0
 65 76  1  0  0  0  0
 68 69  1  0  0  0  0
M  CHG  1  76   1
M  ISO  4  35 100  37 100  63 101  83 101
M  END
> <Batch ID>
0132

> <Smiles>
CNC(C)C(=O)NC(C(=O)N1Cc2cc([101O:1][101CH2:1]C(C)(C)CCc3cc(C)cc(C=[100CH:0][100C:0](=O)N4CCCC(n5nc(-c6ccc(Oc7ccc(F)cc7F)cc6)c(C(N)=O)c5N)C4)c3)ccc2CC1C(=O)NC1CCCc2ccccc21)C(C)(C)C

> <Shape>
0.253

> <Color>
0.126

> <Negative vol penalty>
0.000

$$$$

  -OEChem-04052302283D

 83 91  0     1  0  0  0  0  0999 V2000
  -24.1751  -35.0261   15.0440 C   0  0  0  0  0  0  0  0  0  0  0  0
  -24.9051  -33.8917   15.3839 C   0  0  0  0  0  0  0  0  0  0  0  0
  -25.3294  -23.3045   23.1233 C   0  0  0  0  0  0  0  0  0  0  0  0
  -23.7476   -9.5816   22.4486 C   0  0  0  0  0  0  0  0  0  0  0  0
  -24.3180   -9.0763   20.1559 C   0  0  0  0  0  0  0  0  0  0  0  0
  -25.2474  -21.9256   23.3164 C   0  0  0  0  0  0  0  0  0  0  0  0
  -23.8572  -35.9679   16.0217 C   0  0  0  0  0  0  0  0  0  0  0  0
  -25.3187  -33.6990   16.7015 C   0  0  0  0  0  0  0  0  0  0  0  0
  -24.5422  -28.9596   18.3079 C   0  0  0  0  0  0  0  0  0  0  0  0
  -25.5319  -23.8187   21.8425 C   0  0  0  0  0  0  0  0  0  0  0  0
  -22.7514   -8.6059   22.4158 C   0  0  0  0  0  0  0  0  0  0  0  0
  -23.3218   -8.1006   20.1231 C   0  0  0  0  0  0  0  0  0  0  0  0
  -25.4502  -27.9883   17.8884 C   0  0  0  0  0  0  0  0  0  0  0  0
  -21.1687   -5.2276   19.5498 C   0  0  0  0  0  0  0  0  0  0  0  0
  -21.4859   -3.9948   18.9796 C   0  0  0  0  0  0  0  0  0  0  0  0
  -25.5703  -21.5748   20.9478 C   0  0  0  0  0  0  0  0  0  0  0  0
  -26.5770  -28.1313   20.0166 C   0  0  0  0  0  0  0  0  0  0  0  0
  -23.2319   -3.6850   20.6206 C   0  0  0  0  0  0  0  0  0  0  0  0
  -24.5309   -9.8169   21.3186 C   0  0  0  0  0  0  0  0  0  0  0  0
  -25.3679  -21.0607   22.2287 C   0  0  0  0  0  0  0  0  0  0  0  0
  -26.9065  -10.6534   21.7243 C   0  0  0  0  0  0  0  0  0  0  0  0
  -24.2588  -35.7819   17.3539 C   0  0  0  0  0  0  0  0  0  0  0  0
  -24.6516  -29.5329   19.5830 C   0  0  0  0  0  0  0  0  0  0  0  0
  -25.0071  -34.6398   17.6977 C   0  0  0  0  0  0  0  0  0  0  0  0
  -25.6677  -29.1078   20.4508 C   0  0  0  0  0  0  0  0  0  0  0  0
  -25.6523  -22.9538   20.7548 C   0  0  0  0  0  0  0  0  0  0  0  0
  -22.5385   -7.8654   21.2530 C   0  0  0  0  0  0  0  0  0  0  0  0
  -26.4695  -27.5761   18.7417 C   0  0  0  0  0  0  0  0  0  0  0  0
  -21.8832   -5.6892   20.6553 C   0  0  0  0  0  0  0  0  0  0  0  0
  -22.5174   -3.2235   19.5150 C   0  0  0  0  0  0  0  0  0  0  0  0
  -22.9147   -4.9179   21.1907 C   0  0  0  0  0  0  0  0  0  0  0  0
  -25.5598  -10.8250   21.3517 C   0  0  0  0  0  0  0  0  0  0  0  0
  -27.4626  -11.9017   21.5867 C   0  0  0  0  0  0  0  0  0  0  0  0
  -25.2831  -19.6224   22.4301 C   0  0  0  0  0  0  0  0  0  0  0  0
  -25.0032  -18.7129   21.4726 C   0  0  0  0  0  0  0  0  0  0  0  0
  -27.5933   -9.4712   22.1562 C   0  0  0  0  0  0  0  0  0  0  0  0
  -24.9629  -17.2816   21.8338 C   0  0  0  0  0  0  0  0  0  0  0  0
  -25.1563  -32.4711   20.6856 C   0  0  0  0  0  0  0  0  0  0  0  0
  -24.6035  -31.0682   23.5577 C   0  0  0  0  0  0  0  0  0  0  0  0
  -24.5898  -28.2185   25.4352 C   0  0  0  0  0  0  0  0  0  0  0  0
  -23.9323  -36.8508   18.3666 C   0  0  0  0  0  0  0  0  0  0  0  0
  -23.6481  -30.5601   20.0303 C   0  0  0  0  0  0  0  0  0  0  0  0
  -25.8162  -29.6774   21.8371 C   0  0  0  0  0  0  0  0  0  0  0  0
  -24.0860  -36.3870   19.8128 C   0  0  0  0  0  0  0  0  0  0  0  0
  -27.0246  -15.9548   19.1096 C   0  0  0  0  0  0  0  0  0  0  0  0
  -25.4036  -35.6408   19.9970 C   0  0  0  0  0  0  0  0  0  0  0  0
  -26.9594  -14.4567   19.3949 C   0  0  0  0  0  0  0  0  0  0  0  0
  -25.7216  -16.6637   19.4761 C   0  0  0  0  0  0  0  0  0  0  0  0
  -25.2214  -14.9232   21.1674 C   0  0  0  0  0  0  0  0  0  0  0  0
  -25.4523  -34.3830   19.1211 C   0  0  1  0  0  0  0  0  0  0  0  0
  -24.1638  -31.4472   21.1592 C   0  0  1  0  0  0  0  0  0  0  0  0
  -26.5382  -14.1975   20.8501 C   0  0  1  0  0  0  0  0  0  0  0  0
  -24.1280  -27.3931   27.7597 C   0  0  0  0  0  0  0  0  0  0  0  0
  -29.1156  -24.4873   17.4060 C   0  0  0  0  0  0  0  0  0  0  0  0
  -27.2656  -32.2275   24.4954 C   0  0  0  0  0  0  0  0  0  0  0  0
  -27.2043  -30.6282   26.4207 C   0  0  0  0  0  0  0  0  0  0  0  0
  -25.4210  -32.3556   26.1792 C   0  0  0  0  0  0  0  0  0  0  0  0
  -22.4219  -26.4357   24.4964 C   0  0  0  0  0  0  0  0  0  0  0  0
  -25.8699  -23.5102   19.3699 C   0  0  0  0  0  0  0  0  0  0  0  0
  -27.3476  -23.6853   18.9929 C   0  0  0  0  0  0  0  0  0  0  0  0
  -26.8873  -25.6555   17.4028 C   0  0  0  0  0  0  0  0  0  1  0  0
  -25.4600  -30.3848   24.5961 C   0  0  1  0  0  0  0  0  0  0  0  0
  -23.5491  -27.6361   26.3746 C   0  0  2  0  0  0  0  0  0  0  0  0
  -27.6045  -24.3139   17.6054 C   0  0  1  0  0  0  0  0  0  0  0  0
  -26.3363  -31.3895   25.3961 C   0  0  0  0  0  0  0  0  0  0  0  0
  -25.2775  -12.0832   21.0036 N   0  0  0  0  0  0  0  0  0  0  0  0
  -26.4544  -12.7136   21.1571 N   0  0  0  0  0  0  0  0  0  0  0  0
  -25.3089  -16.3536   20.8531 N   0  0  0  0  0  0  0  0  0  0  0  0
  -24.8143  -30.6836   22.2260 N   0  0  0  0  0  0  0  0  0  0  0  0
  -28.7107  -12.3731   21.7925 N   0  0  0  0  0  0  0  0  0  0  0  0
  -26.8717   -8.2728   22.2415 N   0  0  0  0  0  0  0  0  0  0  0  0
  -24.6658  -33.3230   19.7145 N   0  0  0  0  0  0  0  0  0  0  0  0
  -24.5505  -29.5967   25.4209 N   0  0  0  0  0  0  0  0  0  0  0  0
  -23.0400  -26.3399   25.8440 N   0  3  0  0  0  0  0  0  0  0  0  0
  -28.8070   -9.4810   22.4731 O   0  0  0  0  0  0  0  0  0  0  0  0
  -24.6201  -16.9943   22.9821 O   0  0  0  0  0  0  0  0  0  0  0  0
  -26.2832  -32.4879   21.1667 O   0  0  0  0  0  0  0  0  0  0  0  0
  -23.7731  -31.9072   23.9156 O   0  0  0  0  0  0  0  0  0  0  0  0
  -25.3628  -27.5207   24.7826 O   0  0  0  0  0  0  0  0  0  0  0  0
  -21.5666   -6.9130   21.2207 O   0  0  0  0  0  0  0  0  0  0  0  0
  -27.3575  -26.6287   18.3346 O   0  0  0  0  0  0  0  0  0  1  0  0
  -22.8209   -2.0389   18.9683 F   0  0  0  0  0  0  0  0  0  0  0  0
  -23.6038   -5.3556   22.2535 F   0  0  0  0  0  0  0  0  0  0  0  0
  1  2  1  0  0  0  0
  1  7  2  0  0  0  0
  2  8  2  0  0  0  0
  3  6  1  0  0  0  0
  3 10  2  0  0  0  0
  4 11  2  0  0  0  0
  4 19  1  0  0  0  0
  5 12  1  0  0  0  0
  5 19  2  0  0  0  0
  6 20  2  0  0  0  0
  7 22  1  0  0  0  0
  8 24  1  0  0  0  0
  9 13  2  0  0  0  0
  9 23  1  0  0  0  0
 10 26  1  0  0  0  0
 11 27  1  0  0  0  0
 12 27  2  0  0  0  0
 13 28  1  0  0  0  0
 14 15  2  0  0  0  0
 14 29  1  0  0  0  0
 15 30  1  0  0  0  0
 16 20  1  0  0  0  0
 16 26  2  0  0  0  0
 17 25  1  0  0  0  0
 17 28  2  0  0  0  0
 18 30  2  0  0  0  0
 18 31  1  0  0  0  0
 19 32  1  0  0  0  0
 20 34  1  0  0  0  0
 21 32  1  0  0  0  0
 21 33  2  0  0  0  0
 21 36  1  0  0  0  0
 22 24  2  0  0  0  0
 22 41  1  0  0  0  0
 23 25  2  0  0  0  0
 23 42  1  0  0  0  0
 24 50  1  0  0  0  0
 25 43  1  0  0  0  0
 26 59  1  0  0  0  0
 27 80  1  0  0  0  0
 28 81  1  0  0  0  0
 29 31  2  0  0  0  0
 29 80  1  0  0  0  0
 30 82  1  0  0  0  0
 31 83  1  0  0  0  0
 32 66  2  0  0  0  0
 33 67  1  0  0  0  0
 33 70  1  0  0  0  0
 34 35  2  0  0  0  0
 35 37  1  0  0  0  0
 36 71  1  0  0  0  0
 36 75  2  0  0  0  0
 37 68  1  0  0  0  0
 37 76  2  0  0  0  0
 38 51  1  0  0  0  0
 38 72  1  0  0  0  0
 38 77  2  0  0  0  0
 39 62  1  0  0  0  0
 39 69  1  0  0  0  0
 39 78  2  0  0  0  0
 40 63  1  0  0  0  0
 40 73  1  0  0  0  0
 40 79  2  0  0  0  0
 41 44  1  0  0  0  0
 42 51  1  0  0  0  0
 43 69  1  0  0  0  0
 44 46  1  0  0  0  0
 45 47  1  0  0  0  0
 45 48  1  0  0  0  0
 46 50  1  0  0  0  0
 47 52  1  0  0  0  0
 48 68  1  0  0  0  0
 49 52  1  0  0  0  0
 49 68  1  0  0  0  0
 50 72  1  0  0  0  0
 51 69  1  0  0  0  0
 52 67  1  0  0  0  0
 53 63  1  0  0  0  0
 54 64  1  0  0  0  0
 55 65  1  0  0  0  0
 56 65  1  0  0  0  0
 57 65  1  0  0  0  0
 58 74  1  0  0  0  0
 59 60  1  0  0  0  0
 60 64  1  0  0  0  0
 61 64  1  0  0  0  0
 61 81  1  0  0  0  0
 62 65  1  0  0  0  0
 62 73  1  0  0  0  0
 63 74  1  0  0  0  0
 66 67  1  0  0  0  0
M  CHG  1  74   1
M  ISO  4  35 100  37 100  61 101  81 101
M  END
> <Batch ID>
0132

> <Smiles>
CNC(C)C(=O)NC(C(=O)N1Cc2cc([101O:1][101CH2:1]C(C)CCc3cccc(C=[100CH:0][100C:0](=O)N4CCCC(n5nc(-c6ccc(Oc7ccc(F)cc7F)cc6)c(C(N)=O)c5N)C4)c3)ccc2CC1C(=O)NC1CCCc2ccccc21)C(C)(C)C

> <Shape>
0.187

> <Color>
0.109

> <Negative vol penalty>
0.000

$$$$

  -OEChem-04052302283D

 84 92  0     1  0  0  0  0  0999 V2000
  -25.3206  -19.4052   24.3552 C   0  0  0  0  0  0  0  0  0  0  0  0
  -25.6679  -18.6656   23.2304 C   0  0  0  0  0  0  0  0  0  0  0  0
  -22.0961  -26.7329   21.8717 C   0  0  0  0  0  0  0  0  0  0  0  0
  -23.3879  -26.9604   23.9007 C   0  0  0  0  0  0  0  0  0  0  0  0
  -24.9160  -18.7512   25.5171 C   0  0  0  0  0  0  0  0  0  0  0  0
  -25.5993  -17.2723   23.2632 C   0  0  0  0  0  0  0  0  0  0  0  0
  -26.3655  -14.8967   19.0237 C   0  0  0  0  0  0  0  0  0  0  0  0
  -30.2473  -16.9100   22.5064 C   0  0  0  0  0  0  0  0  0  0  0  0
  -20.9339  -27.0460   22.5765 C   0  0  0  0  0  0  0  0  0  0  0  0
  -22.2256  -27.2736   24.6055 C   0  0  0  0  0  0  0  0  0  0  0  0
  -27.6234  -14.8005   18.4304 C   0  0  0  0  0  0  0  0  0  0  0  0
  -30.6839  -15.7097   21.9458 C   0  0  0  0  0  0  0  0  0  0  0  0
  -19.4139  -29.8221   23.7664 C   0  0  0  0  0  0  0  0  0  0  0  0
  -18.5310  -30.7340   23.1881 C   0  0  0  0  0  0  0  0  0  0  0  0
  -27.8053  -12.5214   19.1997 C   0  0  0  0  0  0  0  0  0  0  0  0
  -31.8656  -16.9389   20.2342 C   0  0  0  0  0  0  0  0  0  0  0  0
  -16.7945  -29.0542   23.1904 C   0  0  0  0  0  0  0  0  0  0  0  0
  -23.3232  -26.6900   22.5338 C   0  0  0  0  0  0  0  0  0  0  0  0
  -25.3909  -27.2631   21.1542 C   0  0  0  0  0  0  0  0  0  0  0  0
  -24.8547  -17.3488   25.5672 C   0  0  0  0  0  0  0  0  0  0  0  0
  -25.8218  -13.8077   19.7201 C   0  0  0  0  0  0  0  0  0  0  0  0
  -25.1704  -16.5947   24.4187 C   0  0  0  0  0  0  0  0  0  0  0  0
  -26.5392  -12.6055   19.7988 C   0  0  0  0  0  0  0  0  0  0  0  0
  -30.6198  -18.1248   21.9308 C   0  0  0  0  0  0  0  0  0  0  0  0
  -31.4290  -18.1392   20.7947 C   0  0  0  0  0  0  0  0  0  0  0  0
  -20.9986  -27.3164   23.9434 C   0  0  0  0  0  0  0  0  0  0  0  0
  -28.3448  -13.6136   18.5208 C   0  0  0  0  0  0  0  0  0  0  0  0
  -31.4931  -15.7241   20.8097 C   0  0  0  0  0  0  0  0  0  0  0  0
  -18.9872  -28.5262   24.0566 C   0  0  0  0  0  0  0  0  0  0  0  0
  -17.2213  -30.3501   22.9002 C   0  0  0  0  0  0  0  0  0  0  0  0
  -17.6775  -28.1423   23.7687 C   0  0  0  0  0  0  0  0  0  0  0  0
  -24.5240  -26.3660   21.8065 C   0  0  0  0  0  0  0  0  0  0  0  0
  -26.3725  -26.4648   20.6198 C   0  0  0  0  0  0  0  0  0  0  0  0
  -25.3157  -28.6905   21.0415 C   0  0  0  0  0  0  0  0  0  0  0  0
  -24.9278  -13.2875   22.7257 C   0  0  0  0  0  0  0  0  0  0  0  0
  -23.8665  -10.4726   21.5122 C   0  0  0  0  0  0  0  0  0  0  0  0
  -24.0976   -8.0993   19.0707 C   0  0  0  0  0  0  0  0  0  0  0  0
  -28.4336  -21.1663   22.2116 C   0  0  0  0  0  0  0  0  0  0  0  0
  -24.4025  -16.6929   26.8480 C   0  0  0  0  0  0  0  0  0  0  0  0
  -24.4521  -13.9189   20.3317 C   0  0  0  0  0  0  0  0  0  0  0  0
  -25.9913  -11.4007   20.5177 C   0  0  0  0  0  0  0  0  0  0  0  0
  -24.7855  -15.2187   26.9284 C   0  0  0  0  0  0  0  0  0  0  0  0
  -27.1066  -22.0364   18.9590 C   0  0  0  0  0  0  0  0  0  0  0  0
  -24.3785  -14.5054   25.6478 C   0  0  0  0  0  0  0  0  0  0  0  0
  -26.3722  -23.3419   19.2695 C   0  0  0  0  0  0  0  0  0  0  0  0
  -26.9700  -21.0392   20.1058 C   0  0  0  0  0  0  0  0  0  0  0  0
  -26.6875  -22.8611   21.7412 C   0  0  0  0  0  0  0  0  0  0  0  0
  -25.1328  -15.0773   24.4407 C   0  0  1  0  0  0  0  0  0  0  0  0
  -24.2164  -12.9147   21.4558 C   0  0  1  0  0  0  0  0  0  0  0  0
  -26.8067  -23.9195   20.6295 C   0  0  2  0  0  0  0  0  0  0  0  0
  -33.2815  -19.8013   20.4909 C   0  0  0  0  0  0  0  0  0  0  0  0
  -23.1266   -5.8944   18.3686 C   0  0  0  0  0  0  0  0  0  0  0  0
  -25.4943   -9.0689   23.6778 C   0  0  0  0  0  0  0  0  0  0  0  0
  -25.2655   -6.9436   22.3744 C   0  0  0  0  0  0  0  0  0  0  0  0
  -23.2334   -8.0818   23.2676 C   0  0  0  0  0  0  0  0  0  0  0  0
  -23.1037   -9.2184   16.5176 C   0  0  0  0  0  0  0  0  0  0  0  0
  -31.8396  -19.4275   20.1606 C   0  0  0  0  0  0  0  0  0  0  0  0
  -30.1401  -19.3968   22.5489 C   0  0  0  0  0  0  0  0  0  0  0  0
  -31.9275  -13.1345   18.3065 C   0  0  0  0  0  0  0  0  0  0  0  0
  -30.5128  -12.6368   18.5580 C   0  0  0  0  0  0  0  0  0  1  0  0
  -32.1434  -14.5363   18.8547 C   0  0  0  0  0  0  0  0  0  0  0  0
  -24.4658   -9.1019   21.3099 C   0  0  1  0  0  0  0  0  0  0  0  0
  -23.0359   -7.4066   18.2356 C   0  0  2  0  0  0  0  0  0  0  0  0
  -24.6262   -8.3222   22.6454 C   0  0  0  0  0  0  0  0  0  0  0  0
  -24.9199  -25.0950   21.6975 N   0  0  0  0  0  0  0  0  0  0  0  0
  -26.0464  -25.1877   20.9705 N   0  0  0  0  0  0  0  0  0  0  0  0
  -24.6507  -11.5611   21.1046 N   0  0  0  0  0  0  0  0  0  0  0  0
  -27.4174  -21.6449   21.3680 N   0  0  0  0  0  0  0  0  0  0  0  0
  -27.4741  -26.7376   19.8887 N   0  0  0  0  0  0  0  0  0  0  0  0
  -24.2412  -29.3530   21.6504 N   0  0  0  0  0  0  0  0  0  0  0  0
  -24.5712  -14.5244   23.2280 N   0  0  0  0  0  0  0  0  0  0  0  0
  -23.6262   -8.4308   20.3234 N   0  0  0  0  0  0  0  0  0  0  0  0
  -29.0707  -20.0059   21.7896 N   0  0  0  0  0  0  0  0  0  0  0  0
  -23.1949   -7.7622   16.7971 N   0  3  0  0  0  0  0  0  0  0  0  0
  -26.1669  -29.3569   20.4053 O   0  0  0  0  0  0  0  0  0  0  0  0
  -25.7389  -12.5097   23.2145 O   0  0  0  0  0  0  0  0  0  0  0  0
  -22.7410  -10.5735   22.0068 O   0  0  0  0  0  0  0  0  0  0  0  0
  -25.2328   -8.3205   18.6549 O   0  0  0  0  0  0  0  0  0  0  0  0
  -28.7535  -21.7345   23.2614 O   0  0  0  0  0  0  0  0  0  0  0  0
  -19.8648  -27.6222   24.6314 O   0  0  0  0  0  0  0  0  0  0  0  0
  -29.5732  -13.5172   17.9430 O   0  0  0  0  0  0  0  0  0  1  0  0
  -31.9217  -14.5447   20.2585 O   0  0  0  0  0  0  0  0  0  0  0  0
  -16.3731  -31.2264   22.3463 F   0  0  0  0  0  0  0  0  0  0  0  0
  -17.2615  -26.8990   24.0463 F   0  0  0  0  0  0  0  0  0  0  0  0
  1  2  1  0  0  0  0
  1  5  2  0  0  0  0
  2  6  2  0  0  0  0
  3  9  2  0  0  0  0
  3 18  1  0  0  0  0
  4 10  1  0  0  0  0
  4 18  2  0  0  0  0
  5 20  1  0  0  0  0
  6 22  1  0  0  0  0
  7 11  2  0  0  0  0
  7 21  1  0  0  0  0
  8 12  2  0  0  0  0
  8 24  1  0  0  0  0
  9 26  1  0  0  0  0
 10 26  2  0  0  0  0
 11 27  1  0  0  0  0
 12 28  1  0  0  0  0
 13 14  2  0  0  0  0
 13 29  1  0  0  0  0
 14 30  1  0  0  0  0
 15 23  1  0  0  0  0
 15 27  2  0  0  0  0
 16 25  1  0  0  0  0
 16 28  2  0  0  0  0
 17 30  2  0  0  0  0
 17 31  1  0  0  0  0
 18 32  1  0  0  0  0
 19 32  1  0  0  0  0
 19 33  2  0  0  0  0
 19 34  1  0  0  0  0
 20 22  2  0  0  0  0
 20 39  1  0  0  0  0
 21 23  2  0  0  0  0
 21 40  1  0  0  0  0
 22 48  1  0  0  0  0
 23 41  1  0  0  0  0
 24 25  2  0  0  0  0
 24 58  1  0  0  0  0
 25 57  1  0  0  0  0
 26 80  1  0  0  0  0
 27 81  1  0  0  0  0
 28 82  1  0  0  0  0
 29 31  2  0  0  0  0
 29 80  1  0  0  0  0
 30 83  1  0  0  0  0
 31 84  1  0  0  0  0
 32 65  2  0  0  0  0
 33 66  1  0  0  0  0
 33 69  1  0  0  0  0
 34 70  1  0  0  0  0
 34 75  2  0  0  0  0
 35 49  1  0  0  0  0
 35 71  1  0  0  0  0
 35 76  2  0  0  0  0
 36 62  1  0  0  0  0
 36 67  1  0  0  0  0
 36 77  2  0  0  0  0
 37 63  1  0  0  0  0
 37 72  1  0  0  0  0
 37 78  2  0  0  0  0
 38 68  1  0  0  0  0
 38 73  1  0  0  0  0
 38 79  2  0  0  0  0
 39 42  1  0  0  0  0
 40 49  1  0  0  0  0
 41 67  1  0  0  0  0
 42 44  1  0  0  0  0
 43 45  1  0  0  0  0
 43 46  1  0  0  0  0
 44 48  1  0  0  0  0
 45 50  1  0  0  0  0
 46 68  1  0  0  0  0
 47 50  1  0  0  0  0
 47 68  1  0  0  0  0
 48 71  1  0  0  0  0
 49 67  1  0  0  0  0
 50 66  1  0  0  0  0
 51 57  1  0  0  0  0
 52 63  1  0  0  0  0
 53 64  1  0  0  0  0
 54 64  1  0  0  0  0
 55 64  1  0  0  0  0
 56 74  1  0  0  0  0
 58 73  1  0  0  0  0
 59 60  1  0  0  0  0
 59 61  1  0  0  0  0
 60 81  1  0  0  0  0
 61 82  1  0  0  0  0
 62 64  1  0  0  0  0
 62 72  1  0  0  0  0
 63 74  1  0  0  0  0
 65 66  1  0  0  0  0
M  CHG  1  74   1
M  ISO  4  38 100  60 101  73 100  81 101
M  END
> <Batch ID>
0132

> <Smiles>
CCc1cc(OCC[101CH2:1][101O:1]c2ccc3c(c2)CN(C(=O)C(NC(=O)C(C)NC)C(C)(C)C)C(C(=O)NC2CCCc4ccccc42)C3)ccc1C[100NH:0][100C:0](=O)N1CCCC(n2nc(-c3ccc(Oc4ccc(F)cc4F)cc3)c(C(N)=O)c2N)C1

> <Shape>
0.224

> <Color>
0.062

> <Negative vol penalty>
0.000

$$$$

  -OEChem-04052302283D

 88 97  0     1  0  0  0  0  0999 V2000
  -13.6409  -19.7585   23.6847 C   0  0  0  0  0  0  0  0  0  0  0  0
  -14.0098  -21.0276   24.1190 C   0  0  0  0  0  0  0  0  0  0  0  0
  -25.8714  -14.0530   19.6434 C   0  0  0  0  0  0  0  0  0  0  0  0
  -25.0427  -15.5211   21.3740 C   0  0  0  0  0  0  0  0  0  0  0  0
  -14.5911  -18.9168   23.1080 C   0  0  0  0  0  0  0  0  0  0  0  0
  -15.3294  -21.4554   23.9777 C   0  0  0  0  0  0  0  0  0  0  0  0
  -19.1815  -27.3759   22.7835 C   0  0  0  0  0  0  0  0  0  0  0  0
  -29.2037  -28.1981   19.3741 C   0  0  0  0  0  0  0  0  0  0  0  0
  -28.1832  -29.0845   19.7180 C   0  0  0  0  0  0  0  0  0  0  0  0
  -24.8114  -13.1774   19.8785 C   0  0  0  0  0  0  0  0  0  0  0  0
  -23.9827  -14.6455   21.6092 C   0  0  0  0  0  0  0  0  0  0  0  0
  -20.2532  -28.0896   23.3181 C   0  0  0  0  0  0  0  0  0  0  0  0
  -24.0030  -10.7951   22.1359 C   0  0  0  0  0  0  0  0  0  0  0  0
  -24.2932   -9.4329   22.2117 C   0  0  0  0  0  0  0  0  0  0  0  0
  -26.9066  -27.2548   20.6454 C   0  0  0  0  0  0  0  0  0  0  0  0
  -21.7913  -26.5797   22.2348 C   0  0  0  0  0  0  0  0  0  0  0  0
  -22.8153   -9.0141   20.3469 C   0  0  0  0  0  0  0  0  0  0  0  0
  -25.9871  -15.2248   20.3911 C   0  0  0  0  0  0  0  0  0  0  0  0
  -27.9272  -26.3684   20.3014 C   0  0  0  0  0  0  0  0  0  0  0  0
  -28.4571  -15.8493   20.2625 C   0  0  0  0  0  0  0  0  0  0  0  0
  -15.9209  -19.3381   22.9507 C   0  0  0  0  0  0  0  0  0  0  0  0
  -19.4069  -26.2503   21.9781 C   0  0  0  0  0  0  0  0  0  0  0  0
  -16.2986  -20.6181   23.3995 C   0  0  0  0  0  0  0  0  0  0  0  0
  -20.7208  -25.8549   21.6891 C   0  0  0  0  0  0  0  0  0  0  0  0
  -29.0757  -26.8400   19.6657 C   0  0  0  0  0  0  0  0  0  0  0  0
  -27.0346  -28.6129   20.3537 C   0  0  0  0  0  0  0  0  0  0  0  0
  -23.8670  -13.4737   20.8614 C   0  0  0  0  0  0  0  0  0  0  0  0
  -21.5583  -27.6899   23.0462 C   0  0  0  0  0  0  0  0  0  0  0  0
  -23.1189  -11.2668   21.1656 C   0  0  0  0  0  0  0  0  0  0  0  0
  -23.6994   -8.5424   21.3173 C   0  0  0  0  0  0  0  0  0  0  0  0
  -22.5251  -10.3764   20.2711 C   0  0  0  0  0  0  0  0  0  0  0  0
  -27.0822  -16.1294   20.1490 C   0  0  0  0  0  0  0  0  0  0  0  0
  -29.0765  -17.0289   19.9285 C   0  0  0  0  0  0  0  0  0  0  0  0
  -24.3425  -30.3165   22.2738 C   0  0  0  0  0  0  0  0  0  0  0  0
  -25.5409  -29.7317   22.0209 C   0  0  0  0  0  0  0  0  0  0  0  0
  -27.7645  -24.9558   20.6198 C   0  0  0  0  0  0  0  0  0  0  0  0
  -27.2227  -24.0290   19.8037 C   0  0  0  0  0  0  0  0  0  0  0  0
  -29.1156  -14.6318   20.6363 C   0  0  0  0  0  0  0  0  0  0  0  0
  -27.1365  -22.6301   20.2687 C   0  0  0  0  0  0  0  0  0  0  0  0
  -18.6919  -23.1604   22.1907 C   0  0  0  0  0  0  0  0  0  0  0  0
  -19.9279  -23.0676   19.1930 C   0  0  0  0  0  0  0  0  0  0  0  0
  -21.9900  -24.4724   16.8646 C   0  0  0  0  0  0  0  0  0  0  0  0
  -16.9229  -18.3752   22.3647 C   0  0  0  0  0  0  0  0  0  0  0  0
  -18.2404  -25.5071   21.3872 C   0  0  0  0  0  0  0  0  0  0  0  0
  -21.0167  -24.6656   20.8136 C   0  0  0  0  0  0  0  0  0  0  0  0
  -23.4786  -30.8233   21.1407 C   0  0  0  0  0  0  0  0  0  0  0  0
  -18.2171  -19.0449   21.9097 C   0  0  0  0  0  0  0  0  0  0  0  0
  -24.2808  -31.0788   19.8692 C   0  0  0  0  0  0  0  0  0  0  0  0
  -28.4889  -20.9643   17.2975 C   0  0  0  0  0  0  0  0  0  0  0  0
  -18.7263  -20.0049   22.9802 C   0  0  0  0  0  0  0  0  0  0  0  0
  -28.3576  -19.4973   17.6980 C   0  0  0  0  0  0  0  0  0  0  0  0
  -25.1783  -29.8944   19.5346 C   0  0  0  0  0  0  0  0  0  0  0  0
  -27.3504  -21.8145   17.8593 C   0  0  0  0  0  0  0  0  0  0  0  0
  -27.0573  -20.2250   19.7376 C   0  0  0  0  0  0  0  0  0  0  0  0
  -17.7147  -21.1275   23.2409 C   0  0  1  0  0  0  0  0  0  0  0  0
  -18.5807  -24.0710   21.0007 C   0  0  1  0  0  0  0  0  0  0  0  0
  -28.2179  -19.3596   19.2223 C   0  0  1  0  0  0  0  0  0  0  0  0
  -30.1895  -25.9195   19.2823 C   0  0  0  0  0  0  0  0  0  0  0  0
  -26.4737  -29.3618   23.1556 C   0  0  0  0  0  0  0  0  0  0  0  0
  -22.8221  -24.1493   14.5193 C   0  0  0  0  0  0  0  0  0  0  0  0
  -21.7713  -20.8355   20.1572 C   0  0  0  0  0  0  0  0  0  0  0  0
  -23.1789  -21.2135   18.1215 C   0  0  0  0  0  0  0  0  0  0  0  0
  -20.8071  -20.4804   17.8771 C   0  0  0  0  0  0  0  0  0  0  0  0
  -20.8544  -27.0589   15.9817 C   0  0  0  0  0  0  0  0  0  0  0  0
  -23.7365  -30.5141   23.6372 C   0  0  0  0  0  0  0  0  0  0  0  0
  -22.4119  -29.7797   23.7944 C   0  0  0  0  0  0  0  0  0  1  0  0
  -21.3031  -22.8487   18.6100 C   0  0  1  0  0  0  0  0  0  0  0  0
  -21.7737  -24.8103   15.4006 C   0  0  2  0  0  0  0  0  0  0  0  0
  -21.7599  -21.3658   18.7096 C   0  0  0  0  0  0  0  0  0  0  0  0
  -26.8417  -17.3882   19.7726 N   0  0  0  0  0  0  0  0  0  0  0  0
  -28.0739  -17.9095   19.6466 N   0  0  0  0  0  0  0  0  0  0  0  0
  -25.9934  -29.5172   20.7030 N   0  0  0  0  0  0  0  0  0  0  0  0
  -27.1991  -21.6211   19.3093 N   0  0  0  0  0  0  0  0  0  0  0  0
  -19.8424  -23.9677   20.2646 N   0  0  0  0  0  0  0  0  0  0  0  0
  -30.3755  -17.3883   19.8515 N   0  0  0  0  0  0  0  0  0  0  0  0
  -28.3283  -13.5149   20.9480 N   0  0  0  0  0  0  0  0  0  0  0  0
  -17.7810  -22.1214   22.1910 N   0  0  0  0  0  0  0  0  0  0  0  0
  -21.2566  -23.3694   17.2480 N   0  0  0  0  0  0  0  0  0  0  0  0
  -21.8467  -26.2843   15.1929 N   0  3  0  0  0  0  0  0  0  0  0  0
  -30.3647  -14.5418   20.7082 O   0  0  0  0  0  0  0  0  0  0  0  0
  -27.0091  -22.4402   21.4797 O   0  0  0  0  0  0  0  0  0  0  0  0
  -19.5422  -23.3832   23.0445 O   0  0  0  0  0  0  0  0  0  0  0  0
  -18.9641  -22.4676   18.7107 O   0  0  0  0  0  0  0  0  0  0  0  0
  -22.7377  -25.1197   17.5942 O   0  0  0  0  0  0  0  0  0  0  0  0
  -22.8324  -12.6196   21.0910 O   0  0  0  0  0  0  0  0  0  0  0  0
  -22.6062  -28.3844   23.5672 O   0  0  0  0  0  0  0  0  0  1  0  0
  -23.9794   -7.2345   21.3893 F   0  0  0  0  0  0  0  0  0  0  0  0
  -21.6758  -10.8238   19.3360 F   0  0  0  0  0  0  0  0  0  0  0  0
  1  2  1  0  0  0  0
  1  5  2  0  0  0  0
  2  6  2  0  0  0  0
  3 10  2  0  0  0  0
  3 18  1  0  0  0  0
  4 11  1  0  0  0  0
  4 18  2  0  0  0  0
  5 21  1  0  0  0  0
  6 23  1  0  0  0  0
  7 12  2  0  0  0  0
  7 22  1  0  0  0  0
  8  9  2  0  0  0  0
  8 25  1  0  0  0  0
  9 26  1  0  0  0  0
 10 27  1  0  0  0  0
 11 27  2  0  0  0  0
 12 28  1  0  0  0  0
 13 14  2  0  0  0  0
 13 29  1  0  0  0  0
 14 30  1  0  0  0  0
 15 19  1  0  0  0  0
 15 26  2  0  0  0  0
 16 24  1  0  0  0  0
 16 28  2  0  0  0  0
 17 30  2  0  0  0  0
 17 31  1  0  0  0  0
 18 32  1  0  0  0  0
 19 25  2  0  0  0  0
 19 36  1  0  0  0  0
 20 32  1  0  0  0  0
 20 33  2  0  0  0  0
 20 38  1  0  0  0  0
 21 23  2  0  0  0  0
 21 43  1  0  0  0  0
 22 24  2  0  0  0  0
 22 44  1  0  0  0  0
 23 55  1  0  0  0  0
 24 45  1  0  0  0  0
 25 58  1  0  0  0  0
 26 72  1  0  0  0  0
 27 85  1  0  0  0  0
 28 86  1  0  0  0  0
 29 31  2  0  0  0  0
 29 85  1  0  0  0  0
 30 87  1  0  0  0  0
 31 88  1  0  0  0  0
 32 70  2  0  0  0  0
 33 71  1  0  0  0  0
 33 75  1  0  0  0  0
 34 35  2  0  0  0  0
 34 46  1  0  0  0  0
 34 65  1  0  0  0  0
 35 59  1  0  0  0  0
 35 72  1  0  0  0  0
 36 37  2  0  0  0  0
 37 39  1  0  0  0  0
 38 76  1  0  0  0  0
 38 80  2  0  0  0  0
 39 73  1  0  0  0  0
 39 81  2  0  0  0  0
 40 56  1  0  0  0  0
 40 77  1  0  0  0  0
 40 82  2  0  0  0  0
 41 67  1  0  0  0  0
 41 74  1  0  0  0  0
 41 83  2  0  0  0  0
 42 68  1  0  0  0  0
 42 78  1  0  0  0  0
 42 84  2  0  0  0  0
 43 47  1  0  0  0  0
 44 56  1  0  0  0  0
 45 74  1  0  0  0  0
 46 48  1  0  0  0  0
 47 50  1  0  0  0  0
 48 52  1  0  0  0  0
 49 51  1  0  0  0  0
 49 53  1  0  0  0  0
 50 55  1  0  0  0  0
 51 57  1  0  0  0  0
 52 72  1  0  0  0  0
 53 73  1  0  0  0  0
 54 57  1  0  0  0  0
 54 73  1  0  0  0  0
 55 77  1  0  0  0  0
 56 74  1  0  0  0  0
 57 71  1  0  0  0  0
 60 68  1  0  0  0  0
 61 69  1  0  0  0  0
 62 69  1  0  0  0  0
 63 69  1  0  0  0  0
 64 79  1  0  0  0  0
 65 66  1  0  0  0  0
 66 86  1  0  0  0  0
 67 69  1  0  0  0  0
 67 78  1  0  0  0  0
 68 79  1  0  0  0  0
 70 71  1  0  0  0  0
M  CHG  1  79   1
M  ISO  4  37 100  39 100  66 101  86 101
M  END
> <Batch ID>
0132

> <Smiles>
CNC(C)C(=O)NC(C(=O)N1Cc2cc([101O:1][101CH2:1]CC3=C(C)N(c4ccc(C)c(C=[100CH:0][100C:0](=O)N5CCCC(n6nc(-c7ccc(Oc8ccc(F)cc8F)cc7)c(C(N)=O)c6N)C5)c4)CCC3)ccc2CC1C(=O)NC1CCCc2ccccc21)C(C)(C)C

> <Shape>
0.250

> <Color>
0.063

> <Negative vol penalty>
0.000

$$$$

  -OEChem-04052302283D

 91101  0     1  0  0  0  0  0999 V2000
  -20.5228   -7.3089   19.5959 C   0  0  0  0  0  0  0  0  0  0  0  0
  -19.8713   -8.5079   19.3251 C   0  0  0  0  0  0  0  0  0  0  0  0
  -29.3672  -25.8678   19.9740 C   0  0  0  0  0  0  0  0  0  0  0  0
  -27.6874  -24.6609   21.2224 C   0  0  0  0  0  0  0  0  0  0  0  0
  -21.7278   -7.3146   20.2973 C   0  0  0  0  0  0  0  0  0  0  0  0
  -20.4238   -9.7133   19.7566 C   0  0  0  0  0  0  0  0  0  0  0  0
  -20.9672  -16.6004   17.8623 C   0  0  0  0  0  0  0  0  0  0  0  0
  -30.3390  -24.9680   20.4116 C   0  0  0  0  0  0  0  0  0  0  0  0
  -28.6592  -23.7610   21.6600 C   0  0  0  0  0  0  0  0  0  0  0  0
  -20.7530  -17.8788   18.3757 C   0  0  0  0  0  0  0  0  0  0  0  0
  -30.6332  -20.9352   22.8161 C   0  0  0  0  0  0  0  0  0  0  0  0
  -30.3240  -19.5757   22.7766 C   0  0  0  0  0  0  0  0  0  0  0  0
  -22.8827  -22.7250   20.7116 C   0  0  0  0  0  0  0  0  0  0  0  0
  -22.8794  -17.7731   19.5100 C   0  0  0  0  0  0  0  0  0  0  0  0
  -20.9086  -21.7450   21.7701 C   0  0  0  0  0  0  0  0  0  0  0  0
  -19.2004  -28.4095   23.8670 C   0  0  0  0  0  0  0  0  0  0  0  0
  -19.3648  -26.6245   22.2472 C   0  0  0  0  0  0  0  0  0  0  0  0
  -21.2600  -27.1664   23.6442 C   0  0  0  0  0  0  0  0  0  0  0  0
  -29.9987  -19.7190   20.3869 C   0  0  0  0  0  0  0  0  0  0  0  0
  -28.0414  -25.7143   20.3794 C   0  0  0  0  0  0  0  0  0  0  0  0
  -26.2464  -26.5438   18.7677 C   0  0  0  0  0  0  0  0  0  0  0  0
  -22.3003   -8.5214   20.7291 C   0  0  0  0  0  0  0  0  0  0  0  0
  -22.1362  -15.8932   18.1782 C   0  0  0  0  0  0  0  0  0  0  0  0
  -21.6369   -9.7350   20.4655 C   0  0  0  0  0  0  0  0  0  0  0  0
  -22.4373  -23.9344   21.1758 C   0  0  0  0  0  0  0  0  0  0  0  0
  -23.1072  -16.4869   18.9972 C   0  0  0  0  0  0  0  0  0  0  0  0
  -22.0972  -21.6099   21.0185 C   0  0  0  0  0  0  0  0  0  0  0  0
  -18.6234  -27.6339   22.8614 C   0  0  0  0  0  0  0  0  0  0  0  0
  -20.5187  -28.1758   24.2583 C   0  0  0  0  0  0  0  0  0  0  0  0
  -20.4820  -22.9958   22.2290 C   0  0  0  0  0  0  0  0  0  0  0  0
  -20.6831  -26.3908   22.6386 C   0  0  0  0  0  0  0  0  0  0  0  0
  -21.2773  -24.0526   21.9070 C   0  0  0  0  0  0  0  0  0  0  0  0
  -29.9850  -23.9146   21.2546 C   0  0  0  0  0  0  0  0  0  0  0  0
  -21.7078  -18.4642   19.2020 C   0  0  0  0  0  0  0  0  0  0  0  0
  -30.6250  -21.6868   21.6410 C   0  0  0  0  0  0  0  0  0  0  0  0
  -30.0068  -18.9676   21.5620 C   0  0  0  0  0  0  0  0  0  0  0  0
  -30.3078  -21.0786   20.4264 C   0  0  0  0  0  0  0  0  0  0  0  0
  -27.0371  -26.6438   19.9281 C   0  0  0  0  0  0  0  0  0  0  0  0
  -25.4565  -27.6672   18.7926 C   0  0  0  0  0  0  0  0  0  0  0  0
  -26.2274  -25.5263   17.7577 C   0  0  0  0  0  0  0  0  0  0  0  0
  -22.7700  -13.1622   19.6762 C   0  0  0  0  0  0  0  0  0  0  0  0
  -23.6286  -31.1877   23.3066 C   0  0  0  0  0  0  0  0  0  0  0  0
  -25.8030  -13.7889   18.7113 C   0  0  0  0  0  0  0  0  0  0  0  0
  -28.1150  -16.1047   17.7426 C   0  0  0  0  0  0  0  0  0  0  0  0
  -23.5805   -8.4737   21.5251 C   0  0  0  0  0  0  0  0  0  0  0  0
  -22.3645  -14.5258   17.5948 C   0  0  0  0  0  0  0  0  0  0  0  0
  -22.6518  -25.4060   21.2751 C   0  0  0  0  0  0  0  0  0  0  0  0
  -24.3883  -15.7778   19.3501 C   0  0  0  0  0  0  0  0  0  0  0  0
  -24.2888   -9.8226   21.6208 C   0  0  0  0  0  0  0  0  0  0  0  0
  -25.4008  -32.1810   20.3549 C   0  0  0  0  0  0  0  0  0  0  0  0
  -23.2948  -10.9234   21.9771 C   0  0  0  0  0  0  0  0  0  0  0  0
  -25.9732  -30.8685   19.8211 C   0  0  0  0  0  0  0  0  0  0  0  0
  -25.3762  -32.2001   21.8800 C   0  0  0  0  0  0  0  0  0  0  0  0
  -25.2205  -29.7321   21.9582 C   0  0  0  0  0  0  0  0  0  0  0  0
  -22.2172  -11.0649   20.8954 C   0  0  1  0  0  0  0  0  0  0  0  0
  -23.3572  -13.6914   18.3983 C   0  0  1  0  0  0  0  0  0  0  0  0
  -25.2348  -29.6588   20.4210 C   0  0  2  0  0  0  0  0  0  0  0  0
  -17.2140  -27.8839   22.4430 C   0  0  0  0  0  0  0  0  0  0  0  0
  -17.9774  -23.0807   22.1510 C   0  0  0  0  0  0  0  0  0  0  0  0
  -30.5187  -16.3201   17.0549 C   0  0  0  0  0  0  0  0  0  0  0  0
  -26.6620  -13.4665   21.6214 C   0  0  0  0  0  0  0  0  0  0  0  0
  -28.8161  -14.6014   21.0384 C   0  0  0  0  0  0  0  0  0  0  0  0
  -28.2160  -12.4362   19.9547 C   0  0  0  0  0  0  0  0  0  0  0  0
  -27.3788  -17.1724   15.0824 C   0  0  0  0  0  0  0  0  0  0  0  0
  -21.1355  -29.0052   25.3335 C   0  0  0  0  0  0  0  0  0  0  0  0
  -19.2351  -23.1499   23.0184 C   0  0  0  0  0  0  0  0  0  0  0  0
  -22.5208  -20.2507   20.5448 C   0  0  0  0  0  0  0  0  0  1  0  0
  -22.9646  -29.9298   23.8072 C   0  0  0  0  0  0  0  0  0  0  0  0
  -21.8312  -30.2582   24.7740 C   0  0  0  0  0  0  0  0  0  0  0  0
  -26.9768  -14.5385   19.2938 C   0  0  1  0  0  0  0  0  0  0  0  0
  -29.0874  -16.1308   16.5772 C   0  0  2  0  0  0  0  0  0  0  0  0
  -27.6428  -13.7735   20.4722 C   0  0  0  0  0  0  0  0  0  0  0  0
  -26.7738  -27.7439   20.6383 N   0  0  0  0  0  0  0  0  0  0  0  0
  -25.8087  -28.3455   19.9222 N   0  0  0  0  0  0  0  0  0  0  0  0
  -21.4163  -25.3923   22.0311 N   0  0  0  0  0  0  0  0  0  0  0  0
  -24.5624  -14.4403   18.7601 N   0  0  0  0  0  0  0  0  0  0  0  0
  -24.6858  -31.0236   22.4114 N   0  0  0  0  0  0  0  0  0  0  0  0
  -24.5021  -28.1311   17.9582 N   0  0  0  0  0  0  0  0  0  0  0  0
  -27.1043  -24.4406   17.8864 N   0  0  0  0  0  0  0  0  0  0  0  0
  -22.7395  -11.7828   19.7525 N   0  0  0  0  0  0  0  0  0  0  0  0
  -27.8756  -14.8189   18.1794 N   0  0  0  0  0  0  0  0  0  0  0  0
  -28.7511  -17.2453   15.6469 N   0  3  0  0  0  0  0  0  0  0  0  0
  -25.4672  -25.5868   16.7616 O   0  0  0  0  0  0  0  0  0  0  0  0
  -22.3753  -13.9473   20.5303 O   0  0  0  0  0  0  0  0  0  0  0  0
  -23.2167  -32.2827   23.6984 O   0  0  0  0  0  0  0  0  0  0  0  0
  -25.9816  -12.6696   18.2244 O   0  0  0  0  0  0  0  0  0  0  0  0
  -27.6204  -17.1233   18.2204 O   0  0  0  0  0  0  0  0  0  0  0  0
  -30.9330  -23.0363   21.6817 O   0  0  0  0  0  0  0  0  0  0  0  0
  -21.5009  -19.7116   19.7050 O   0  0  0  0  0  0  0  0  0  1  0  0
  -29.7114  -17.6616   21.5240 F   0  0  0  0  0  0  0  0  0  0  0  0
  -30.2995  -21.7952   19.2940 F   0  0  0  0  0  0  0  0  0  0  0  0
  1  2  1  0  0  0  0
  1  5  2  0  0  0  0
  2  6  2  0  0  0  0
  3  8  2  0  0  0  0
  3 20  1  0  0  0  0
  4  9  1  0  0  0  0
  4 20  2  0  0  0  0
  5 22  1  0  0  0  0
  6 24  1  0  0  0  0
  7 10  2  0  0  0  0
  7 23  1  0  0  0  0
  8 33  1  0  0  0  0
  9 33  2  0  0  0  0
 10 34  1  0  0  0  0
 11 12  2  0  0  0  0
 11 35  1  0  0  0  0
 12 36  1  0  0  0  0
 13 25  2  0  0  0  0
 13 27  1  0  0  0  0
 14 26  1  0  0  0  0
 14 34  2  0  0  0  0
 15 27  2  0  0  0  0
 15 30  1  0  0  0  0
 16 28  1  0  0  0  0
 16 29  2  0  0  0  0
 17 28  2  0  0  0  0
 17 31  1  0  0  0  0
 18 29  1  0  0  0  0
 18 31  2  0  0  0  0
 19 36  2  0  0  0  0
 19 37  1  0  0  0  0
 20 38  1  0  0  0  0
 21 38  1  0  0  0  0
 21 39  2  0  0  0  0
 21 40  1  0  0  0  0
 22 24  2  0  0  0  0
 22 45  1  0  0  0  0
 23 26  2  0  0  0  0
 23 46  1  0  0  0  0
 24 55  1  0  0  0  0
 25 32  1  0  0  0  0
 25 47  1  0  0  0  0
 26 48  1  0  0  0  0
 27 67  1  0  0  0  0
 28 58  1  0  0  0  0
 29 65  1  0  0  0  0
 30 32  2  0  0  0  0
 30 66  1  0  0  0  0
 31 75  1  0  0  0  0
 32 75  1  0  0  0  0
 33 88  1  0  0  0  0
 34 89  1  0  0  0  0
 35 37  2  0  0  0  0
 35 88  1  0  0  0  0
 36 90  1  0  0  0  0
 37 91  1  0  0  0  0
 38 73  2  0  0  0  0
 39 74  1  0  0  0  0
 39 78  1  0  0  0  0
 40 79  1  0  0  0  0
 40 83  2  0  0  0  0
 41 56  1  0  0  0  0
 41 80  1  0  0  0  0
 41 84  2  0  0  0  0
 42 68  1  0  0  0  0
 42 77  1  0  0  0  0
 42 85  2  0  0  0  0
 43 70  1  0  0  0  0
 43 76  1  0  0  0  0
 43 86  2  0  0  0  0
 44 71  1  0  0  0  0
 44 81  1  0  0  0  0
 44 87  2  0  0  0  0
 45 49  1  0  0  0  0
 46 56  1  0  0  0  0
 47 75  1  0  0  0  0
 48 76  1  0  0  0  0
 49 51  1  0  0  0  0
 50 52  1  0  0  0  0
 50 53  1  0  0  0  0
 51 55  1  0  0  0  0
 52 57  1  0  0  0  0
 53 77  1  0  0  0  0
 54 57  1  0  0  0  0
 54 77  1  0  0  0  0
 55 80  1  0  0  0  0
 56 76  1  0  0  0  0
 57 74  1  0  0  0  0
 59 66  1  0  0  0  0
 60 71  1  0  0  0  0
 61 72  1  0  0  0  0
 62 72  1  0  0  0  0
 63 72  1  0  0  0  0
 64 82  1  0  0  0  0
 65 69  1  0  0  0  0
 67 89  1  0  0  0  0
 68 69  1  0  0  0  0
 70 72  1  0  0  0  0
 70 81  1  0  0  0  0
 71 82  1  0  0  0  0
 73 74  1  0  0  0  0
M  CHG  1  82   1
M  ISO  4  42 100  67 101  68 100  89 101
M  END
> <Batch ID>
0132

> <Smiles>
CCc1cc([101CH2:1][101O:1]c2ccc3c(c2)CN(C(=O)C(NC(=O)C(C)NC)C(C)(C)C)C(C(=O)NC2CCCc4ccccc42)C3)cc2c1N(c1cc(C)cc(CC[100CH2:0][100C:0](=O)N3CCCC(n4nc(-c5ccc(Oc6ccc(F)cc6F)cc5)c(C(N)=O)c4N)C3)c1)C2

> <Shape>
0.244

> <Color>
0.065

> <Negative vol penalty>
0.000

$$$$

  -OEChem-04052302283D

 87 95  0     1  0  0  0  0  0999 V2000
  -26.9060   -7.0670   24.5473 C   0  0  0  0  0  0  0  0  0  0  0  0
  -26.4951   -8.3958   24.5760 C   0  0  0  0  0  0  0  0  0  0  0  0
  -23.2087   -9.8492   19.9569 C   0  0  0  0  0  0  0  0  0  0  0  0
  -23.9042   -9.9394   22.2689 C   0  0  0  0  0  0  0  0  0  0  0  0
  -26.3078   -6.1352   25.3945 C   0  0  0  0  0  0  0  0  0  0  0  0
  -25.4850   -8.7934   25.4512 C   0  0  0  0  0  0  0  0  0  0  0  0
  -26.5862  -13.1123   27.8553 C   0  0  0  0  0  0  0  0  0  0  0  0
  -22.5164   -8.6653   20.2113 C   0  0  0  0  0  0  0  0  0  0  0  0
  -23.2119   -8.7556   22.5233 C   0  0  0  0  0  0  0  0  0  0  0  0
  -26.4236  -14.2982   27.1405 C   0  0  0  0  0  0  0  0  0  0  0  0
  -21.3293   -5.9492   23.8644 C   0  0  0  0  0  0  0  0  0  0  0  0
  -20.5444   -5.8908   25.0159 C   0  0  0  0  0  0  0  0  0  0  0  0
  -24.3050  -14.6608   28.2356 C   0  0  0  0  0  0  0  0  0  0  0  0
  -31.4804  -15.0569   25.5692 C   0  0  0  0  0  0  0  0  0  0  0  0
  -30.5665  -16.8505   26.9051 C   0  0  0  0  0  0  0  0  0  0  0  0
  -30.7120  -17.0852   24.5049 C   0  0  0  0  0  0  0  0  0  0  0  0
  -19.2257   -7.7484   24.2112 C   0  0  0  0  0  0  0  0  0  0  0  0
  -23.9027  -10.4862   20.9856 C   0  0  0  0  0  0  0  0  0  0  0  0
  -24.1219  -13.0225   20.8216 C   0  0  0  0  0  0  0  0  0  0  0  0
  -25.2966   -6.5234   26.2875 C   0  0  0  0  0  0  0  0  0  0  0  0
  -25.6026  -12.6855   28.7591 C   0  0  0  0  0  0  0  0  0  0  0  0
  -24.8719   -7.8656   26.3103 C   0  0  0  0  0  0  0  0  0  0  0  0
  -24.4587  -13.4704   28.9625 C   0  0  0  0  0  0  0  0  0  0  0  0
  -31.1273  -15.5765   26.8145 C   0  0  0  0  0  0  0  0  0  0  0  0
  -31.2729  -15.8112   24.4144 C   0  0  0  0  0  0  0  0  0  0  0  0
  -30.3588  -17.6048   25.7503 C   0  0  0  0  0  0  0  0  0  0  0  0
  -22.5180   -8.1185   21.4946 C   0  0  0  0  0  0  0  0  0  0  0  0
  -25.2816  -15.0712   27.3284 C   0  0  0  0  0  0  0  0  0  0  0  0
  -21.0626   -6.9072   22.8863 C   0  0  0  0  0  0  0  0  0  0  0  0
  -19.4925   -6.7904   25.1893 C   0  0  0  0  0  0  0  0  0  0  0  0
  -20.0107   -7.8068   23.0597 C   0  0  0  0  0  0  0  0  0  0  0  0
  -24.6185  -11.7089   20.7233 C   0  0  0  0  0  0  0  0  0  0  0  0
  -25.1851  -13.8185   20.4715 C   0  0  0  0  0  0  0  0  0  0  0  0
  -25.3555  -17.6083   24.7152 C   0  0  0  0  0  0  0  0  0  0  0  0
  -22.8164  -13.4821   21.1959 C   0  0  0  0  0  0  0  0  0  0  0  0
  -26.1959  -18.5814   24.3098 C   0  0  0  0  0  0  0  0  0  0  0  0
  -23.7046  -10.1448   28.9740 C   0  0  0  0  0  0  0  0  0  0  0  0
  -30.9637  -13.9629   21.0498 C   0  0  0  0  0  0  0  0  0  0  0  0
  -22.9096  -11.4659   31.8280 C   0  0  0  0  0  0  0  0  0  0  0  0
  -22.7051  -14.2664   33.7676 C   0  0  0  0  0  0  0  0  0  0  0  0
  -24.6469   -5.4710   27.1506 C   0  0  0  0  0  0  0  0  0  0  0  0
  -25.8055  -11.4174   29.5422 C   0  0  0  0  0  0  0  0  0  0  0  0
  -23.3828  -13.0667   29.9361 C   0  0  0  0  0  0  0  0  0  0  0  0
  -23.8436   -6.0478   28.3134 C   0  0  0  0  0  0  0  0  0  0  0  0
  -29.3715  -13.1447   17.9457 C   0  0  0  0  0  0  0  0  0  0  0  0
  -22.9559   -7.1917   27.8336 C   0  0  0  0  0  0  0  0  0  0  0  0
  -27.9439  -12.7877   18.3576 C   0  0  0  0  0  0  0  0  0  0  0  0
  -30.3830  -12.7070   19.0004 C   0  0  0  0  0  0  0  0  0  0  0  0
  -28.6758  -12.8833   20.7826 C   0  0  0  0  0  0  0  0  0  0  0  0
  -23.7965   -8.3404   27.2633 C   0  0  1  0  0  0  0  0  0  0  0  0
  -24.5004  -10.8175   30.0565 C   0  0  1  0  0  0  0  0  0  0  0  0
  -27.6195  -13.3355   19.7587 C   0  0  2  0  0  0  0  0  0  0  0  0
  -31.3492  -14.7693   28.0489 C   0  0  0  0  0  0  0  0  0  0  0  0
  -25.4658  -19.7944   22.2188 C   0  0  0  0  0  0  0  0  0  0  0  0
  -21.9795  -15.0384   36.0425 C   0  0  0  0  0  0  0  0  0  0  0  0
  -19.9916  -11.2953   30.9524 C   0  0  0  0  0  0  0  0  0  0  0  0
  -19.4205  -12.9032   32.7845 C   0  0  0  0  0  0  0  0  0  0  0  0
  -20.4019  -10.6784   33.3411 C   0  0  0  0  0  0  0  0  0  0  0  0
  -25.4333  -15.1860   34.4533 C   0  0  0  0  0  0  0  0  0  0  0  0
  -31.6500  -15.2560   23.0825 C   0  0  0  0  0  0  0  0  0  0  0  0
  -29.7524  -18.9823   25.8486 C   0  0  0  0  0  0  0  0  0  0  0  0
  -25.7176  -16.2966   25.3374 C   0  0  0  0  0  0  0  0  0  1  0  0
  -25.6433  -19.8664   23.7292 C   0  0  0  0  0  0  0  0  0  0  0  0
  -27.7031  -18.4854   24.4045 C   0  0  0  0  0  0  0  0  0  0  0  0
  -30.5230  -14.4707   22.3996 C   0  0  0  0  0  0  0  0  0  0  0  0
  -28.2219  -18.9901   25.7567 C   0  0  0  0  0  0  0  0  0  0  0  0
  -21.8679  -12.4533   32.2958 C   0  0  1  0  0  0  0  0  0  0  0  0
  -23.1394  -14.5355   35.1972 C   0  0  2  0  0  0  0  0  0  0  0  0
  -20.4396  -11.8395   32.3236 C   0  0  0  0  0  0  0  0  0  0  0  0
  -25.8975  -11.6684   20.3406 N   0  0  0  0  0  0  0  0  0  0  0  0
  -26.2136  -12.9665   20.1953 N   0  0  0  0  0  0  0  0  0  0  0  0
  -23.6241  -11.8154   30.6734 N   0  0  0  0  0  0  0  0  0  0  0  0
  -30.0274  -13.2291   20.3211 N   0  0  0  0  0  0  0  0  0  0  0  0
  -25.3311  -15.1572   20.3761 N   0  0  0  0  0  0  0  0  0  0  0  0
  -21.8420  -12.5301   21.5254 N   0  0  0  0  0  0  0  0  0  0  0  0
  -24.3775   -9.1215   28.3342 N   0  0  0  0  0  0  0  0  0  0  0  0
  -22.3291  -12.9522   33.5869 N   0  0  0  0  0  0  0  0  0  0  0  0
  -24.2208  -15.5605   35.2258 N   0  3  0  0  0  0  0  0  0  0  0  0
  -22.5179  -14.7002   21.2211 O   0  0  0  0  0  0  0  0  0  0  0  0
  -22.5638  -10.5250   28.7378 O   0  0  0  0  0  0  0  0  0  0  0  0
  -32.1053  -14.2144   20.6553 O   0  0  0  0  0  0  0  0  0  0  0  0
  -23.0878  -10.4263   32.4675 O   0  0  0  0  0  0  0  0  0  0  0  0
  -22.6966  -15.1360   32.8992 O   0  0  0  0  0  0  0  0  0  0  0  0
  -21.8423   -6.9634   21.7433 O   0  0  0  0  0  0  0  0  0  0  0  0
  -25.1201  -16.2288   26.6315 O   0  0  0  0  0  0  0  0  0  1  0  0
  -18.7378   -6.7332   26.2944 F   0  0  0  0  0  0  0  0  0  0  0  0
  -19.7489   -8.7286   22.1229 F   0  0  0  0  0  0  0  0  0  0  0  0
  1  2  1  0  0  0  0
  1  5  2  0  0  0  0
  2  6  2  0  0  0  0
  3  8  2  0  0  0  0
  3 18  1  0  0  0  0
  4  9  1  0  0  0  0
  4 18  2  0  0  0  0
  5 20  1  0  0  0  0
  6 22  1  0  0  0  0
  7 10  2  0  0  0  0
  7 21  1  0  0  0  0
  8 27  1  0  0  0  0
  9 27  2  0  0  0  0
 10 28  1  0  0  0  0
 11 12  2  0  0  0  0
 11 29  1  0  0  0  0
 12 30  1  0  0  0  0
 13 23  1  0  0  0  0
 13 28  2  0  0  0  0
 14 24  1  0  0  0  0
 14 25  2  0  0  0  0
 15 24  2  0  0  0  0
 15 26  1  0  0  0  0
 16 25  1  0  0  0  0
 16 26  2  0  0  0  0
 17 30  2  0  0  0  0
 17 31  1  0  0  0  0
 18 32  1  0  0  0  0
 19 32  1  0  0  0  0
 19 33  2  0  0  0  0
 19 35  1  0  0  0  0
 20 22  2  0  0  0  0
 20 41  1  0  0  0  0
 21 23  2  0  0  0  0
 21 42  1  0  0  0  0
 22 50  1  0  0  0  0
 23 43  1  0  0  0  0
 24 53  1  0  0  0  0
 25 60  1  0  0  0  0
 26 61  1  0  0  0  0
 27 84  1  0  0  0  0
 28 85  1  0  0  0  0
 29 31  2  0  0  0  0
 29 84  1  0  0  0  0
 30 86  1  0  0  0  0
 31 87  1  0  0  0  0
 32 70  2  0  0  0  0
 33 71  1  0  0  0  0
 33 74  1  0  0  0  0
 34 36  2  0  0  0  0
 34 62  1  0  0  0  0
 35 75  1  0  0  0  0
 35 79  2  0  0  0  0
 36 63  1  0  0  0  0
 36 64  1  0  0  0  0
 37 51  1  0  0  0  0
 37 76  1  0  0  0  0
 37 80  2  0  0  0  0
 38 65  1  0  0  0  0
 38 73  1  0  0  0  0
 38 81  2  0  0  0  0
 39 67  1  0  0  0  0
 39 72  1  0  0  0  0
 39 82  2  0  0  0  0
 40 68  1  0  0  0  0
 40 77  1  0  0  0  0
 40 83  2  0  0  0  0
 41 44  1  0  0  0  0
 42 51  1  0  0  0  0
 43 72  1  0  0  0  0
 44 46  1  0  0  0  0
 45 47  1  0  0  0  0
 45 48  1  0  0  0  0
 46 50  1  0  0  0  0
 47 52  1  0  0  0  0
 48 73  1  0  0  0  0
 49 52  1  0  0  0  0
 49 73  1  0  0  0  0
 50 76  1  0  0  0  0
 51 72  1  0  0  0  0
 52 71  1  0  0  0  0
 54 63  1  0  0  0  0
 55 68  1  0  0  0  0
 56 69  1  0  0  0  0
 57 69  1  0  0  0  0
 58 69  1  0  0  0  0
 59 78  1  0  0  0  0
 60 65  1  0  0  0  0
 61 66  1  0  0  0  0
 62 85  1  0  0  0  0
 64 66  1  0  0  0  0
 67 69  1  0  0  0  0
 67 77  1  0  0  0  0
 68 78  1  0  0  0  0
 70 71  1  0  0  0  0
M  CHG  1  78   1
M  ISO  4  38 100  62 101  65 100  85 101
M  END
> <Batch ID>
0132

> <Smiles>
CCC(=C[101CH2:1][101O:1]c1ccc2c(c1)CN(C(=O)C(NC(=O)C(C)NC)C(C)(C)C)C(C(=O)NC1CCCc3ccccc31)C2)CCCc1cc(C)cc(C[100CH2:0][100C:0](=O)N2CCCC(n3nc(-c4ccc(Oc5ccc(F)cc5F)cc4)c(C(N)=O)c3N)C2)c1

> <Shape>
0.146

> <Color>
0.185

> <Negative vol penalty>
0.000

$$$$

  -OEChem-04052302283D

 83 91  0     1  0  0  0  0  0999 V2000
  -30.2118  -35.3658   18.2633 C   0  0  0  0  0  0  0  0  0  0  0  0
  -29.9488  -34.0063   18.1295 C   0  0  0  0  0  0  0  0  0  0  0  0
  -24.6260   -8.5035   21.3056 C   0  0  0  0  0  0  0  0  0  0  0  0
  -23.3137  -10.5150   21.5677 C   0  0  0  0  0  0  0  0  0  0  0  0
  -29.9565  -36.0083   19.4741 C   0  0  0  0  0  0  0  0  0  0  0  0
  -29.4313  -33.2881   19.2069 C   0  0  0  0  0  0  0  0  0  0  0  0
  -25.4732  -28.6214   18.9597 C   0  0  0  0  0  0  0  0  0  0  0  0
  -26.4933  -19.0140   19.6925 C   0  0  0  0  0  0  0  0  0  0  0  0
  -25.3335  -19.7705   19.8598 C   0  0  0  0  0  0  0  0  0  0  0  0
  -23.8796   -7.8857   22.3089 C   0  0  0  0  0  0  0  0  0  0  0  0
  -22.5672   -9.8972   22.5710 C   0  0  0  0  0  0  0  0  0  0  0  0
  -25.6483  -27.2392   19.0115 C   0  0  0  0  0  0  0  0  0  0  0  0
  -20.8525   -6.4096   22.6108 C   0  0  0  0  0  0  0  0  0  0  0  0
  -20.4132   -5.1056   22.3822 C   0  0  0  0  0  0  0  0  0  0  0  0
  -25.1786  -27.2746   21.3774 C   0  0  0  0  0  0  0  0  0  0  0  0
  -26.6719  -18.7577   22.0882 C   0  0  0  0  0  0  0  0  0  0  0  0
  -21.6419   -4.3518   24.3211 C   0  0  0  0  0  0  0  0  0  0  0  0
  -24.3432   -9.8182   20.9350 C   0  0  0  0  0  0  0  0  0  0  0  0
  -24.8437  -10.4608   18.5176 C   0  0  0  0  0  0  0  0  0  0  0  0
  -29.4265  -35.2996   20.5639 C   0  0  0  0  0  0  0  0  0  0  0  0
  -25.1597  -29.3432   20.1203 C   0  0  0  0  0  0  0  0  0  0  0  0
  -29.1699  -33.9213   20.4339 C   0  0  0  0  0  0  0  0  0  0  0  0
  -24.9975  -28.6655   21.3371 C   0  0  0  0  0  0  0  0  0  0  0  0
  -27.1625  -18.5075   20.8067 C   0  0  0  0  0  0  0  0  0  0  0  0
  -24.8429  -20.0207   21.1414 C   0  0  0  0  0  0  0  0  0  0  0  0
  -25.5120  -19.5143   22.2556 C   0  0  0  0  0  0  0  0  0  0  0  0
  -22.8501   -8.5825   22.9416 C   0  0  0  0  0  0  0  0  0  0  0  0
  -25.5038  -26.5660   20.2210 C   0  0  0  0  0  0  0  0  0  0  0  0
  -21.6866   -6.6847   23.6945 C   0  0  0  0  0  0  0  0  0  0  0  0
  -20.8078   -4.0767   23.2374 C   0  0  0  0  0  0  0  0  0  0  0  0
  -22.0813   -5.6558   24.5496 C   0  0  0  0  0  0  0  0  0  0  0  0
  -25.1143  -10.4571   19.8991 C   0  0  0  0  0  0  0  0  0  0  0  0
  -25.8642  -11.1990   17.9698 C   0  0  0  0  0  0  0  0  0  0  0  0
  -23.7661   -9.8515   17.7941 C   0  0  0  0  0  0  0  0  0  0  0  0
  -26.5810  -31.6532   21.7778 C   0  0  0  0  0  0  0  0  0  0  0  0
  -29.4354  -15.4432   20.2816 C   0  0  0  0  0  0  0  0  0  0  0  0
  -23.8099  -31.6144   23.4636 C   0  0  0  0  0  0  0  0  0  0  0  0
  -21.0431  -29.8772   24.4503 C   0  0  0  0  0  0  0  0  0  0  0  0
  -29.2114  -36.0271   21.8674 C   0  0  0  0  0  0  0  0  0  0  0  0
  -24.9478  -30.8303   20.0425 C   0  0  0  0  0  0  0  0  0  0  0  0
  -24.6415  -29.3914   22.6078 C   0  0  0  0  0  0  0  0  0  0  0  0
  -28.3116  -35.2740   22.8439 C   0  0  0  0  0  0  0  0  0  0  0  0
  -30.4334  -12.3945   18.6850 C   0  0  0  0  0  0  0  0  0  0  0  0
  -28.7269  -33.8089   22.9312 C   0  0  0  0  0  0  0  0  0  0  0  0
  -29.1657  -11.5417   18.7153 C   0  0  0  0  0  0  0  0  0  0  0  0
  -30.5512  -13.2643   19.9326 C   0  0  0  0  0  0  0  0  0  0  0  0
  -28.0929  -13.2836   20.2120 C   0  0  0  0  0  0  0  0  0  0  0  0
  -28.5852  -33.1133   21.5720 C   0  0  1  0  0  0  0  0  0  0  0  0
  -25.1361  -31.5317   21.3842 C   0  0  1  0  0  0  0  0  0  0  0  0
  -27.9195  -12.4122   18.9554 C   0  0  2  0  0  0  0  0  0  0  0  0
  -25.0056  -19.7695   23.6373 C   0  0  0  0  0  0  0  0  0  0  0  0
  -18.9773  -30.0971   25.8579 C   0  0  0  0  0  0  0  0  0  0  0  0
  -25.4944  -31.2728   25.9847 C   0  0  0  0  0  0  0  0  0  0  0  0
  -23.4200  -30.5560   27.1895 C   0  0  0  0  0  0  0  0  0  0  0  0
  -23.5687  -32.8507   26.2225 C   0  0  0  0  0  0  0  0  0  0  0  0
  -19.2694  -29.4515   22.1198 C   0  0  0  0  0  0  0  0  0  0  0  0
  -28.4028  -17.6991   20.6275 C   0  0  0  0  0  0  0  0  0  0  0  0
  -23.5879  -20.8421   21.2972 C   0  0  0  0  0  0  0  0  0  0  0  0
  -28.1436  -16.1938   20.4860 C   0  0  0  0  0  0  0  0  0  0  0  0
  -23.8434  -22.2817   21.7571 C   0  0  0  0  0  0  0  0  0  0  0  0
  -24.6589  -23.0957   20.7515 C   0  0  0  0  0  0  0  0  0  0  0  0
  -24.9262  -24.5060   21.2597 C   0  0  0  0  0  0  0  0  0  1  0  0
  -23.3062  -30.8683   24.6755 C   0  0  1  0  0  0  0  0  0  0  0  0
  -19.5719  -30.2510   24.4667 C   0  0  2  0  0  0  0  0  0  0  0  0
  -23.9559  -31.3732   25.9947 C   0  0  0  0  0  0  0  0  0  0  0  0
  -26.2202  -11.1387   20.2097 N   0  0  0  0  0  0  0  0  0  0  0  0
  -26.6535  -11.5775   19.0157 N   0  0  0  0  0  0  0  0  0  0  0  0
  -24.4508  -30.8458   22.4816 N   0  0  0  0  0  0  0  0  0  0  0  0
  -29.3390  -14.0590   20.1381 N   0  0  0  0  0  0  0  0  0  0  0  0
  -26.1545  -11.5546   16.7003 N   0  0  0  0  0  0  0  0  0  0  0  0
  -22.8035   -9.1290   18.5123 N   0  0  0  0  0  0  0  0  0  0  0  0
  -27.1977  -32.7972   21.3083 N   0  0  0  0  0  0  0  0  0  0  0  0
  -21.8516  -30.9769   24.6461 N   0  0  0  0  0  0  0  0  0  0  0  0
  -18.8061  -29.3813   23.5295 N   0  3  0  0  0  0  0  0  0  0  0  0
  -23.6691   -9.9312   16.5461 O   0  0  0  0  0  0  0  0  0  0  0  0
  -27.0978  -30.7749   22.4585 O   0  0  0  0  0  0  0  0  0  0  0  0
  -30.4973  -16.0706   20.2477 O   0  0  0  0  0  0  0  0  0  0  0  0
  -23.6348  -32.8331   23.3877 O   0  0  0  0  0  0  0  0  0  0  0  0
  -21.4357  -28.7245   24.2844 O   0  0  0  0  0  0  0  0  0  0  0  0
  -22.1213   -7.9799   23.9206 O   0  0  0  0  0  0  0  0  0  0  0  0
  -25.6748  -25.2170   20.2746 O   0  0  0  0  0  0  0  0  0  1  0  0
  -20.3846   -2.8249   23.0186 F   0  0  0  0  0  0  0  0  0  0  0  0
  -22.8815   -5.9141   25.5931 F   0  0  0  0  0  0  0  0  0  0  0  0
  1  2  1  0  0  0  0
  1  5  2  0  0  0  0
  2  6  2  0  0  0  0
  3 10  2  0  0  0  0
  3 18  1  0  0  0  0
  4 11  1  0  0  0  0
  4 18  2  0  0  0  0
  5 20  1  0  0  0  0
  6 22  1  0  0  0  0
  7 12  2  0  0  0  0
  7 21  1  0  0  0  0
  8  9  2  0  0  0  0
  8 24  1  0  0  0  0
  9 25  1  0  0  0  0
 10 27  1  0  0  0  0
 11 27  2  0  0  0  0
 12 28  1  0  0  0  0
 13 14  2  0  0  0  0
 13 29  1  0  0  0  0
 14 30  1  0  0  0  0
 15 23  1  0  0  0  0
 15 28  2  0  0  0  0
 16 24  2  0  0  0  0
 16 26  1  0  0  0  0
 17 30  2  0  0  0  0
 17 31  1  0  0  0  0
 18 32  1  0  0  0  0
 19 32  1  0  0  0  0
 19 33  2  0  0  0  0
 19 34  1  0  0  0  0
 20 22  2  0  0  0  0
 20 39  1  0  0  0  0
 21 23  2  0  0  0  0
 21 40  1  0  0  0  0
 22 48  1  0  0  0  0
 23 41  1  0  0  0  0
 24 57  1  0  0  0  0
 25 26  2  0  0  0  0
 25 58  1  0  0  0  0
 26 51  1  0  0  0  0
 27 80  1  0  0  0  0
 28 81  1  0  0  0  0
 29 31  2  0  0  0  0
 29 80  1  0  0  0  0
 30 82  1  0  0  0  0
 31 83  1  0  0  0  0
 32 66  2  0  0  0  0
 33 67  1  0  0  0  0
 33 70  1  0  0  0  0
 34 71  1  0  0  0  0
 34 75  2  0  0  0  0
 35 49  1  0  0  0  0
 35 72  1  0  0  0  0
 35 76  2  0  0  0  0
 36 59  1  0  0  0  0
 36 69  1  0  0  0  0
 36 77  2  0  0  0  0
 37 63  1  0  0  0  0
 37 68  1  0  0  0  0
 37 78  2  0  0  0  0
 38 64  1  0  0  0  0
 38 73  1  0  0  0  0
 38 79  2  0  0  0  0
 39 42  1  0  0  0  0
 40 49  1  0  0  0  0
 41 68  1  0  0  0  0
 42 44  1  0  0  0  0
 43 45  1  0  0  0  0
 43 46  1  0  0  0  0
 44 48  1  0  0  0  0
 45 50  1  0  0  0  0
 46 69  1  0  0  0  0
 47 50  1  0  0  0  0
 47 69  1  0  0  0  0
 48 72  1  0  0  0  0
 49 68  1  0  0  0  0
 50 67  1  0  0  0  0
 52 64  1  0  0  0  0
 53 65  1  0  0  0  0
 54 65  1  0  0  0  0
 55 65  1  0  0  0  0
 56 74  1  0  0  0  0
 57 59  1  0  0  0  0
 58 60  1  0  0  0  0
 60 61  1  0  0  0  0
 61 62  1  0  0  0  0
 62 81  1  0  0  0  0
 63 65  1  0  0  0  0
 63 73  1  0  0  0  0
 64 74  1  0  0  0  0
 66 67  1  0  0  0  0
M  CHG  1  74   1
M  ISO  4  36 100  59 100  62 101  81 101
M  END
> <Batch ID>
0132

> <Smiles>
CNC(C)C(=O)NC(C(=O)N1Cc2cc([101O:1][101CH2:1]CCCc3ccc(C[100CH2:0][100C:0](=O)N4CCCC(n5nc(-c6ccc(Oc7ccc(F)cc7F)cc6)c(C(N)=O)c5N)C4)cc3C)ccc2CC1C(=O)NC1CCCc2ccccc21)C(C)(C)C

> <Shape>
0.239

> <Color>
0.101

> <Negative vol penalty>
0.000

$$$$

  -OEChem-04052302283D

 88 96  0     1  0  0  0  0  0999 V2000
  -17.0299  -25.1291   23.9292 C   0  0  0  0  0  0  0  0  0  0  0  0
  -17.6061  -24.5460   22.8052 C   0  0  0  0  0  0  0  0  0  0  0  0
  -27.9849  -12.3158   22.7359 C   0  0  0  0  0  0  0  0  0  0  0  0
  -26.9242  -12.7197   20.6032 C   0  0  0  0  0  0  0  0  0  0  0  0
  -17.3581  -26.4379   24.2799 C   0  0  0  0  0  0  0  0  0  0  0  0
  -18.5102  -25.2719   22.0306 C   0  0  0  0  0  0  0  0  0  0  0  0
  -23.4093  -23.0881   19.0750 C   0  0  0  0  0  0  0  0  0  0  0  0
  -27.4324  -11.0355   22.7684 C   0  0  0  0  0  0  0  0  0  0  0  0
  -26.3716  -11.4393   20.6356 C   0  0  0  0  0  0  0  0  0  0  0  0
  -23.6185  -22.7275   17.7446 C   0  0  0  0  0  0  0  0  0  0  0  0
  -23.7734   -9.8846   22.1400 C   0  0  0  0  0  0  0  0  0  0  0  0
  -22.4285   -9.7503   21.7955 C   0  0  0  0  0  0  0  0  0  0  0  0
  -24.5528  -24.9081   17.3068 C   0  0  0  0  0  0  0  0  0  0  0  0
  -30.5658  -22.7371   18.3143 C   0  0  0  0  0  0  0  0  0  0  0  0
  -28.6143  -22.5266   16.9057 C   0  0  0  0  0  0  0  0  0  0  0  0
  -23.0401   -8.2750   19.9826 C   0  0  0  0  0  0  0  0  0  0  0  0
  -27.7308  -13.1579   21.6533 C   0  0  0  0  0  0  0  0  0  0  0  0
  -29.5423  -14.8578   21.0732 C   0  0  0  0  0  0  0  0  0  0  0  0
  -18.2740  -27.1770   23.5147 C   0  0  0  0  0  0  0  0  0  0  0  0
  -23.7609  -24.3673   19.5294 C   0  0  0  0  0  0  0  0  0  0  0  0
  -18.8500  -26.5924   22.3706 C   0  0  0  0  0  0  0  0  0  0  0  0
  -24.3494  -25.2815   18.6440 C   0  0  0  0  0  0  0  0  0  0  0  0
  -29.1826  -22.6222   18.1759 C   0  0  0  0  0  0  0  0  0  0  0  0
  -31.3807  -22.7565   17.1824 C   0  0  0  0  0  0  0  0  0  0  0  0
  -30.8125  -22.6609   15.9121 C   0  0  0  0  0  0  0  0  0  0  0  0
  -26.6257  -10.5972   21.7182 C   0  0  0  0  0  0  0  0  0  0  0  0
  -24.1876  -23.6385   16.8595 C   0  0  0  0  0  0  0  0  0  0  0  0
  -24.7518   -9.2142   21.4057 C   0  0  0  0  0  0  0  0  0  0  0  0
  -29.4293  -22.5460   15.7737 C   0  0  0  0  0  0  0  0  0  0  0  0
  -22.0618   -8.9455   20.7169 C   0  0  0  0  0  0  0  0  0  0  0  0
  -24.3851   -8.4094   20.3270 C   0  0  0  0  0  0  0  0  0  0  0  0
  -28.3008  -14.4808   21.6195 C   0  0  0  0  0  0  0  0  0  0  0  0
  -29.6166  -16.2118   21.2917 C   0  0  0  0  0  0  0  0  0  0  0  0
  -30.5391  -14.0558   20.4261 C   0  0  0  0  0  0  0  0  0  0  0  0
  -22.1675  -26.8268   20.7606 C   0  0  0  0  0  0  0  0  0  0  0  0
  -27.1969  -21.2538   21.1787 C   0  0  0  0  0  0  0  0  0  0  0  0
  -25.1435  -28.0561   21.1539 C   0  0  0  0  0  0  0  0  0  0  0  0
  -28.4133  -28.0975   20.1777 C   0  0  0  0  0  0  0  0  0  0  0  0
  -18.5617  -28.6048   23.9062 C   0  0  0  0  0  0  0  0  0  0  0  0
  -23.5533  -24.7316   20.9740 C   0  0  0  0  0  0  0  0  0  0  0  0
  -24.7632  -26.6603   19.0869 C   0  0  0  0  0  0  0  0  0  0  0  0
  -19.8135  -29.1770   23.2459 C   0  0  0  0  0  0  0  0  0  0  0  0
  -26.7541  -19.2607   24.1234 C   0  0  0  0  0  0  0  0  0  0  0  0
  -19.8258  -28.8540   21.7552 C   0  0  0  0  0  0  0  0  0  0  0  0
  -27.1903  -17.8645   23.6809 C   0  0  0  0  0  0  0  0  0  0  0  0
  -26.0616  -20.0141   22.9921 C   0  0  0  0  0  0  0  0  0  0  0  0
  -27.3097  -18.7151   21.2960 C   0  0  0  0  0  0  0  0  0  0  0  0
  -19.8538  -27.3390   21.5192 C   0  0  1  0  0  0  0  0  0  0  0  0
  -23.4762  -26.2376   21.2053 C   0  0  1  0  0  0  0  0  0  0  0  0
  -28.0410  -17.9313   22.4002 C   0  0  2  0  0  0  0  0  0  0  0  0
  -32.8589  -22.8817   17.3574 C   0  0  0  0  0  0  0  0  0  0  0  0
  -32.1667  -24.0855   14.3555 C   0  0  0  0  0  0  0  0  0  0  0  0
  -30.8485  -28.7020   20.2201 C   0  0  0  0  0  0  0  0  0  0  0  0
  -24.1819  -30.5344   19.6562 C   0  0  0  0  0  0  0  0  0  0  0  0
  -26.5781  -31.1862   19.3376 C   0  0  0  0  0  0  0  0  0  0  0  0
  -25.6306  -31.0101   21.6385 C   0  0  0  0  0  0  0  0  0  0  0  0
  -27.5648  -22.4217   11.9204 C   0  0  0  0  0  0  0  0  0  0  0  0
  -26.9212  -24.8044   12.3061 C   0  0  0  0  0  0  0  0  0  0  0  0
  -29.0524  -25.8734   22.0226 C   0  0  0  0  0  0  0  0  0  0  0  0
  -28.3114  -22.6028   19.3863 C   0  0  0  0  0  0  0  0  0  0  0  0
  -31.6816  -22.6802   14.6953 C   0  0  0  0  0  0  0  0  0  0  0  0
  -28.0602  -21.1960   19.9436 C   0  0  0  0  0  0  0  0  0  0  0  0
  -26.0157  -22.9606   13.8061 C   0  0  0  0  0  0  0  0  0  0  0  0
  -25.4925  -23.9018   14.8888 C   0  0  0  0  0  0  0  0  0  1  0  0
  -28.4828  -23.6689   13.9031 C   0  0  0  0  0  0  0  0  0  0  0  0
  -26.0705  -28.9017   20.3145 C   0  0  1  0  0  0  0  0  0  0  0  0
  -29.7036  -28.0457   20.9759 C   0  0  2  0  0  0  0  0  0  0  0  0
  -25.6058  -30.3829   20.2276 C   0  0  0  0  0  0  0  0  0  0  0  0
  -27.2426  -23.4717   13.0051 C   0  0  0  0  0  0  0  0  0  0  0  0
  -27.6345  -15.5120   22.1456 N   0  0  0  0  0  0  0  0  0  0  0  0
  -28.4604  -16.5502   21.9310 N   0  0  0  0  0  0  0  0  0  0  0  0
  -24.5339  -26.9714   20.5075 N   0  0  0  0  0  0  0  0  0  0  0  0
  -26.8922  -20.0358   21.7867 N   0  0  0  0  0  0  0  0  0  0  0  0
  -30.5576  -17.1339   20.9974 N   0  0  0  0  0  0  0  0  0  0  0  0
  -30.3026  -12.6817   20.2844 N   0  0  0  0  0  0  0  0  0  0  0  0
  -21.1870  -26.8186   21.7343 N   0  0  0  0  0  0  0  0  0  0  0  0
  -27.4050  -28.7261   20.8772 N   0  0  0  0  0  0  0  0  0  0  0  0
  -30.0788  -26.6322   21.2627 N   0  3  0  0  0  0  0  0  0  0  0  0
  -31.6152  -14.5405   20.0011 O   0  0  0  0  0  0  0  0  0  0  0  0
  -22.0560  -27.2584   19.6191 O   0  0  0  0  0  0  0  0  0  0  0  0
  -26.8084  -22.3498   21.5908 O   0  0  0  0  0  0  0  0  0  0  0  0
  -24.9722  -28.3430   22.3414 O   0  0  0  0  0  0  0  0  0  0  0  0
  -28.3113  -27.6307   19.0454 O   0  0  0  0  0  0  0  0  0  0  0  0
  -26.0866   -9.3479   21.7494 O   0  0  0  0  0  0  0  0  0  0  0  0
  -24.3923  -23.2894   15.5603 O   0  0  0  0  0  0  0  0  0  1  0  0
  -28.8532  -22.4499   14.5340 O   0  0  0  0  0  0  0  0  0  0  0  0
  -20.7701   -8.8154   20.3871 F   0  0  0  0  0  0  0  0  0  0  0  0
  -25.3204   -7.7619   19.6186 F   0  0  0  0  0  0  0  0  0  0  0  0
  1  2  1  0  0  0  0
  1  5  2  0  0  0  0
  2  6  2  0  0  0  0
  3  8  2  0  0  0  0
  3 17  1  0  0  0  0
  4  9  1  0  0  0  0
  4 17  2  0  0  0  0
  5 19  1  0  0  0  0
  6 21  1  0  0  0  0
  7 10  2  0  0  0  0
  7 20  1  0  0  0  0
  8 26  1  0  0  0  0
  9 26  2  0  0  0  0
 10 27  1  0  0  0  0
 11 12  2  0  0  0  0
 11 28  1  0  0  0  0
 12 30  1  0  0  0  0
 13 22  1  0  0  0  0
 13 27  2  0  0  0  0
 14 23  1  0  0  0  0
 14 24  2  0  0  0  0
 15 23  2  0  0  0  0
 15 29  1  0  0  0  0
 16 30  2  0  0  0  0
 16 31  1  0  0  0  0
 17 32  1  0  0  0  0
 18 32  1  0  0  0  0
 18 33  2  0  0  0  0
 18 34  1  0  0  0  0
 19 21  2  0  0  0  0
 19 39  1  0  0  0  0
 20 22  2  0  0  0  0
 20 40  1  0  0  0  0
 21 48  1  0  0  0  0
 22 41  1  0  0  0  0
 23 60  1  0  0  0  0
 24 25  1  0  0  0  0
 24 51  1  0  0  0  0
 25 29  2  0  0  0  0
 25 61  1  0  0  0  0
 26 84  1  0  0  0  0
 27 85  1  0  0  0  0
 28 31  2  0  0  0  0
 28 84  1  0  0  0  0
 29 86  1  0  0  0  0
 30 87  1  0  0  0  0
 31 88  1  0  0  0  0
 32 70  2  0  0  0  0
 33 71  1  0  0  0  0
 33 74  1  0  0  0  0
 34 75  1  0  0  0  0
 34 79  2  0  0  0  0
 35 49  1  0  0  0  0
 35 76  1  0  0  0  0
 35 80  2  0  0  0  0
 36 62  1  0  0  0  0
 36 73  1  0  0  0  0
 36 81  2  0  0  0  0
 37 66  1  0  0  0  0
 37 72  1  0  0  0  0
 37 82  2  0  0  0  0
 38 67  1  0  0  0  0
 38 77  1  0  0  0  0
 38 83  2  0  0  0  0
 39 42  1  0  0  0  0
 40 49  1  0  0  0  0
 41 72  1  0  0  0  0
 42 44  1  0  0  0  0
 43 45  1  0  0  0  0
 43 46  1  0  0  0  0
 44 48  1  0  0  0  0
 45 50  1  0  0  0  0
 46 73  1  0  0  0  0
 47 50  1  0  0  0  0
 47 73  1  0  0  0  0
 48 76  1  0  0  0  0
 49 72  1  0  0  0  0
 50 71  1  0  0  0  0
 52 61  1  0  0  0  0
 53 67  1  0  0  0  0
 54 68  1  0  0  0  0
 55 68  1  0  0  0  0
 56 68  1  0  0  0  0
 57 69  1  0  0  0  0
 58 69  1  0  0  0  0
 59 78  1  0  0  0  0
 60 62  1  0  0  0  0
 63 64  1  0  0  0  0
 63 69  1  0  0  0  0
 64 85  1  0  0  0  0
 65 69  1  0  0  0  0
 65 86  1  0  0  0  0
 66 68  1  0  0  0  0
 66 77  1  0  0  0  0
 67 78  1  0  0  0  0
 70 71  1  0  0  0  0
M  CHG  1  78   1
M  ISO  4  36 100  62 100  64 101  85 101
M  END
> <Batch ID>
0132

> <Smiles>
CCc1c(C)cc(C[100CH2:0][100C:0](=O)N2CCCC(n3nc(-c4ccc(Oc5ccc(F)cc5F)cc4)c(C(N)=O)c3N)C2)cc1OCC(C)(C)C[101CH2:1][101O:1]c1ccc2c(c1)CN(C(=O)C(NC(=O)C(C)NC)C(C)(C)C)C(C(=O)NC1CCCc3ccccc31)C2

> <Shape>
0.241

> <Color>
0.060

> <Negative vol penalty>
0.000

$$$$

  -OEChem-04052302283D

 84 92  0     1  0  0  0  0  0999 V2000
  -23.1891  -31.4726   22.6188 C   0  0  0  0  0  0  0  0  0  0  0  0
  -23.3062  -30.1924   23.1507 C   0  0  0  0  0  0  0  0  0  0  0  0
  -23.0526   -9.8890   19.9608 C   0  0  0  0  0  0  0  0  0  0  0  0
  -23.8423   -9.8960   22.2441 C   0  0  0  0  0  0  0  0  0  0  0  0
  -22.9206  -31.6403   21.2610 C   0  0  0  0  0  0  0  0  0  0  0  0
  -23.1537  -29.0791   22.3251 C   0  0  0  0  0  0  0  0  0  0  0  0
  -26.7010  -25.5575   23.1376 C   0  0  0  0  0  0  0  0  0  0  0  0
  -29.1706  -19.7429   23.1840 C   0  0  0  0  0  0  0  0  0  0  0  0
  -29.6998  -18.7617   22.3457 C   0  0  0  0  0  0  0  0  0  0  0  0
  -22.3054   -8.7407   20.2227 C   0  0  0  0  0  0  0  0  0  0  0  0
  -23.0949   -8.7477   22.5061 C   0  0  0  0  0  0  0  0  0  0  0  0
  -26.5428  -24.7407   24.2563 C   0  0  0  0  0  0  0  0  0  0  0  0
  -19.3716   -7.9643   21.7137 C   0  0  0  0  0  0  0  0  0  0  0  0
  -18.0583   -7.9247   21.2455 C   0  0  0  0  0  0  0  0  0  0  0  0
  -25.6572  -22.9938   22.8480 C   0  0  0  0  0  0  0  0  0  0  0  0
  -30.4510  -18.8556   25.0307 C   0  0  0  0  0  0  0  0  0  0  0  0
  -18.5894   -5.9758   19.9201 C   0  0  0  0  0  0  0  0  0  0  0  0
  -23.8211  -10.4666   20.9715 C   0  0  0  0  0  0  0  0  0  0  0  0
  -24.1761  -12.9895   20.8419 C   0  0  0  0  0  0  0  0  0  0  0  0
  -22.7744  -30.5285   20.4165 C   0  0  0  0  0  0  0  0  0  0  0  0
  -26.3278  -25.1019   21.8651 C   0  0  0  0  0  0  0  0  0  0  0  0
  -22.8817  -29.2320   20.9549 C   0  0  0  0  0  0  0  0  0  0  0  0
  -25.8141  -23.8059   21.7144 C   0  0  0  0  0  0  0  0  0  0  0  0
  -29.5463  -19.7900   24.5265 C   0  0  0  0  0  0  0  0  0  0  0  0
  -30.6045  -17.8274   22.8498 C   0  0  0  0  0  0  0  0  0  0  0  0
  -30.9801  -17.8744   24.1924 C   0  0  0  0  0  0  0  0  0  0  0  0
  -22.3265   -8.1701   21.4953 C   0  0  0  0  0  0  0  0  0  0  0  0
  -26.0181  -23.4596   24.1120 C   0  0  0  0  0  0  0  0  0  0  0  0
  -20.2939   -7.0096   21.2850 C   0  0  0  0  0  0  0  0  0  0  0  0
  -17.6672   -6.9305   20.3488 C   0  0  0  0  0  0  0  0  0  0  0  0
  -19.9028   -6.0154   20.3883 C   0  0  0  0  0  0  0  0  0  0  0  0
  -24.5937  -11.6525   20.7014 C   0  0  0  0  0  0  0  0  0  0  0  0
  -25.2678  -13.7319   20.4630 C   0  0  0  0  0  0  0  0  0  0  0  0
  -22.9142  -13.5136   21.2762 C   0  0  0  0  0  0  0  0  0  0  0  0
  -24.2072  -26.0254   19.6846 C   0  0  0  0  0  0  0  0  0  0  0  0
  -30.7811  -14.6528   20.6750 C   0  0  0  0  0  0  0  0  0  0  0  0
  -25.6257  -23.7214   17.8953 C   0  0  0  0  0  0  0  0  0  0  0  0
  -27.4399  -20.8323   17.8013 C   0  0  0  0  0  0  0  0  0  0  0  0
  -22.4379  -30.7592   18.9645 C   0  0  0  0  0  0  0  0  0  0  0  0
  -26.5297  -25.9855   20.6647 C   0  0  0  0  0  0  0  0  0  0  0  0
  -25.4170  -23.2619   20.3672 C   0  0  0  0  0  0  0  0  0  0  0  0
  -22.6617  -29.5317   18.0850 C   0  0  0  0  0  0  0  0  0  0  0  0
  -29.5707  -12.3582   18.2032 C   0  0  0  0  0  0  0  0  0  0  0  0
  -22.0695  -28.2890   18.7420 C   0  0  0  0  0  0  0  0  0  0  0  0
  -28.1443  -12.0566   18.6612 C   0  0  0  0  0  0  0  0  0  0  0  0
  -30.5078  -12.5578   19.3902 C   0  0  0  0  0  0  0  0  0  0  0  0
  -28.6271  -13.3064   20.8130 C   0  0  0  0  0  0  0  0  0  0  0  0
  -22.7474  -27.9998   20.0867 C   0  0  1  0  0  0  0  0  0  0  0  0
  -25.6368  -25.6070   19.4871 C   0  0  1  0  0  0  0  0  0  0  0  0
  -27.6414  -13.1282   19.6447 C   0  0  2  0  0  0  0  0  0  0  0  0
  -31.9469  -16.8843   24.7545 C   0  0  0  0  0  0  0  0  0  0  0  0
  -28.4126  -19.1685   16.1941 C   0  0  0  0  0  0  0  0  0  0  0  0
  -25.7073  -20.9851   27.5915 C   0  0  0  0  0  0  0  0  0  0  0  0
  -22.8494  -22.5396   17.4421 C   0  0  0  0  0  0  0  0  0  0  0  0
  -23.9507  -20.4271   16.6722 C   0  0  0  0  0  0  0  0  0  0  0  0
  -24.3206  -22.5525   15.4197 C   0  0  0  0  0  0  0  0  0  0  0  0
  -30.1976  -21.3751   18.7281 C   0  0  0  0  0  0  0  0  0  0  0  0
  -28.9736  -20.8507   25.4329 C   0  0  0  0  0  0  0  0  0  0  0  0
  -31.1568  -16.7854   21.9334 C   0  0  0  0  0  0  0  0  0  0  0  0
  -30.1712  -15.6523   21.6252 C   0  0  0  0  0  0  0  0  0  0  0  0
  -27.6730  -20.4360   26.1348 C   0  0  0  0  0  0  0  0  0  0  0  0
  -26.7796  -22.8449   26.2795 C   0  0  0  0  0  0  0  0  0  1  0  0
  -25.4029  -22.2434   17.6836 C   0  0  1  0  0  0  0  0  0  0  0  0
  -28.6635  -20.4371   16.9945 C   0  0  2  0  0  0  0  0  0  0  0  0
  -27.0253  -21.5236   27.0204 C   0  0  1  0  0  0  0  0  0  0  0  0
  -24.1365  -21.9513   16.8302 C   0  0  0  0  0  0  0  0  0  0  0  0
  -25.8525  -11.5484   20.2669 N   0  0  0  0  0  0  0  0  0  0  0  0
  -26.2352  -12.8295   20.1311 N   0  0  0  0  0  0  0  0  0  0  0  0
  -25.6277  -24.1664   19.2249 N   0  0  0  0  0  0  0  0  0  0  0  0
  -29.9839  -13.5671   20.3122 N   0  0  0  0  0  0  0  0  0  0  0  0
  -25.4850  -15.0619   20.3846 N   0  0  0  0  0  0  0  0  0  0  0  0
  -21.9014  -12.6110   21.6284 N   0  0  0  0  0  0  0  0  0  0  0  0
  -24.0402  -27.3833   19.8788 N   0  0  0  0  0  0  0  0  0  0  0  0
  -26.6405  -21.7214   17.1143 N   0  0  0  0  0  0  0  0  0  0  0  0
  -29.8253  -20.2010   17.8976 N   0  3  0  0  0  0  0  0  0  0  0  0
  -22.6859  -14.7457   21.3341 O   0  0  0  0  0  0  0  0  0  0  0  0
  -23.3212  -25.1791   19.6611 O   0  0  0  0  0  0  0  0  0  0  0  0
  -31.9309  -14.8348   20.2662 O   0  0  0  0  0  0  0  0  0  0  0  0
  -25.7990  -24.4530   16.9173 O   0  0  0  0  0  0  0  0  0  0  0  0
  -27.2137  -20.3932   18.9267 O   0  0  0  0  0  0  0  0  0  0  0  0
  -21.5972   -7.0497   21.7514 O   0  0  0  0  0  0  0  0  0  0  0  0
  -25.8620  -22.6605   25.2023 O   0  0  0  0  0  0  0  0  0  1  0  0
  -16.4056   -6.8918   19.9005 F   0  0  0  0  0  0  0  0  0  0  0  0
  -20.7841   -5.0949   19.9738 F   0  0  0  0  0  0  0  0  0  0  0  0
  1  2  1  0  0  0  0
  1  5  2  0  0  0  0
  2  6  2  0  0  0  0
  3 10  2  0  0  0  0
  3 18  1  0  0  0  0
  4 11  1  0  0  0  0
  4 18  2  0  0  0  0
  5 20  1  0  0  0  0
  6 22  1  0  0  0  0
  7 12  2  0  0  0  0
  7 21  1  0  0  0  0
  8  9  2  0  0  0  0
  8 24  1  0  0  0  0
  9 25  1  0  0  0  0
 10 27  1  0  0  0  0
 11 27  2  0  0  0  0
 12 28  1  0  0  0  0
 13 14  2  0  0  0  0
 13 29  1  0  0  0  0
 14 30  1  0  0  0  0
 15 23  1  0  0  0  0
 15 28  2  0  0  0  0
 16 24  2  0  0  0  0
 16 26  1  0  0  0  0
 17 30  2  0  0  0  0
 17 31  1  0  0  0  0
 18 32  1  0  0  0  0
 19 32  1  0  0  0  0
 19 33  2  0  0  0  0
 19 34  1  0  0  0  0
 20 22  2  0  0  0  0
 20 39  1  0  0  0  0
 21 23  2  0  0  0  0
 21 40  1  0  0  0  0
 22 48  1  0  0  0  0
 23 41  1  0  0  0  0
 24 58  1  0  0  0  0
 25 26  2  0  0  0  0
 25 59  1  0  0  0  0
 26 51  1  0  0  0  0
 27 81  1  0  0  0  0
 28 82  1  0  0  0  0
 29 31  2  0  0  0  0
 29 81  1  0  0  0  0
 30 83  1  0  0  0  0
 31 84  1  0  0  0  0
 32 67  2  0  0  0  0
 33 68  1  0  0  0  0
 33 71  1  0  0  0  0
 34 72  1  0  0  0  0
 34 76  2  0  0  0  0
 35 49  1  0  0  0  0
 35 73  1  0  0  0  0
 35 77  2  0  0  0  0
 36 60  1  0  0  0  0
 36 70  1  0  0  0  0
 36 78  2  0  0  0  0
 37 63  1  0  0  0  0
 37 69  1  0  0  0  0
 37 79  2  0  0  0  0
 38 64  1  0  0  0  0
 38 74  1  0  0  0  0
 38 80  2  0  0  0  0
 39 42  1  0  0  0  0
 40 49  1  0  0  0  0
 41 69  1  0  0  0  0
 42 44  1  0  0  0  0
 43 45  1  0  0  0  0
 43 46  1  0  0  0  0
 44 48  1  0  0  0  0
 45 50  1  0  0  0  0
 46 70  1  0  0  0  0
 47 50  1  0  0  0  0
 47 70  1  0  0  0  0
 48 73  1  0  0  0  0
 49 69  1  0  0  0  0
 50 68  1  0  0  0  0
 52 64  1  0  0  0  0
 53 65  1  0  0  0  0
 54 66  1  0  0  0  0
 55 66  1  0  0  0  0
 56 66  1  0  0  0  0
 57 75  1  0  0  0  0
 58 61  1  0  0  0  0
 59 60  1  0  0  0  0
 61 65  1  0  0  0  0
 62 65  1  0  0  0  0
 62 82  1  0  0  0  0
 63 66  1  0  0  0  0
 63 74  1  0  0  0  0
 64 75  1  0  0  0  0
 67 68  1  0  0  0  0
M  CHG  1  75   1
M  ISO  4  36 100  60 100  62 101  82 101
M  END
> <Batch ID>
0132

> <Smiles>
CNC(C)C(=O)NC(C(=O)N1Cc2cc([101O:1][101CH2:1]C(C)CCc3ccc(C[100CH2:0][100C:0](=O)N4CCCC(n5nc(-c6ccc(Oc7ccc(F)cc7F)cc6)c(C(N)=O)c5N)C4)c(C)c3)ccc2CC1C(=O)NC1CCCc2ccccc21)C(C)(C)C

> <Shape>
0.215

> <Color>
0.199

> <Negative vol penalty>
0.000

$$$$

  -OEChem-04052302283D

 85 93  0     1  0  0  0  0  0999 V2000
  -31.8133  -29.4727   19.1031 C   0  0  0  0  0  0  0  0  0  0  0  0
  -31.3313  -28.2078   18.7822 C   0  0  0  0  0  0  0  0  0  0  0  0
  -28.9784  -20.6516   21.1894 C   0  0  0  0  0  0  0  0  0  0  0  0
  -29.9572  -19.8358   19.1368 C   0  0  0  0  0  0  0  0  0  0  0  0
  -31.3571  -30.1209   20.2501 C   0  0  0  0  0  0  0  0  0  0  0  0
  -30.3936  -27.5898   19.6087 C   0  0  0  0  0  0  0  0  0  0  0  0
  -24.7846  -23.1420   19.3380 C   0  0  0  0  0  0  0  0  0  0  0  0
  -28.7786  -21.8991   20.5983 C   0  0  0  0  0  0  0  0  0  0  0  0
  -29.7573  -21.0833   18.5456 C   0  0  0  0  0  0  0  0  0  0  0  0
  -24.3171  -21.9617   19.9143 C   0  0  0  0  0  0  0  0  0  0  0  0
  -29.8338  -24.1582   16.6094 C   0  0  0  0  0  0  0  0  0  0  0  0
  -30.8825  -24.6985   15.8652 C   0  0  0  0  0  0  0  0  0  0  0  0
  -23.5418  -23.2100   21.8274 C   0  0  0  0  0  0  0  0  0  0  0  0
  -22.3618  -15.7945   24.8339 C   0  0  0  0  0  0  0  0  0  0  0  0
  -23.6967  -13.8122   24.4799 C   0  0  0  0  0  0  0  0  0  0  0  0
  -32.2934  -24.6607   17.8261 C   0  0  0  0  0  0  0  0  0  0  0  0
  -29.5678  -19.6199   20.4587 C   0  0  0  0  0  0  0  0  0  0  0  0
  -30.5476  -18.0456   22.2105 C   0  0  0  0  0  0  0  0  0  0  0  0
  -30.4060  -29.5146   21.0860 C   0  0  0  0  0  0  0  0  0  0  0  0
  -24.6436  -24.3658   20.0081 C   0  0  0  0  0  0  0  0  0  0  0  0
  -29.9252  -28.2299   20.7687 C   0  0  0  0  0  0  0  0  0  0  0  0
  -24.0060  -24.4047   21.2563 C   0  0  0  0  0  0  0  0  0  0  0  0
  -23.0935  -14.7234   25.3468 C   0  0  0  0  0  0  0  0  0  0  0  0
  -22.2332  -15.9543   23.4542 C   0  0  0  0  0  0  0  0  0  0  0  0
  -23.5682  -13.9720   23.1002 C   0  0  0  0  0  0  0  0  0  0  0  0
  -22.8365  -15.0430   22.5873 C   0  0  0  0  0  0  0  0  0  0  0  0
  -29.1680  -22.1150   19.2764 C   0  0  0  0  0  0  0  0  0  0  0  0
  -23.6982  -21.9951   21.1604 C   0  0  0  0  0  0  0  0  0  0  0  0
  -30.0148  -23.8692   17.9620 C   0  0  0  0  0  0  0  0  0  0  0  0
  -32.1123  -24.9497   16.4736 C   0  0  0  0  0  0  0  0  0  0  0  0
  -31.2446  -24.1204   18.5703 C   0  0  0  0  0  0  0  0  0  0  0  0
  -29.7750  -18.3312   21.0689 C   0  0  0  0  0  0  0  0  0  0  0  0
  -30.4230  -16.6881   22.3786 C   0  0  0  0  0  0  0  0  0  0  0  0
  -31.3097  -18.9284   23.0445 C   0  0  0  0  0  0  0  0  0  0  0  0
  -26.6585  -26.5450   21.1462 C   0  0  0  0  0  0  0  0  0  0  0  0
  -23.9292  -28.1999   21.7248 C   0  0  0  0  0  0  0  0  0  0  0  0
  -20.5611  -28.1331   22.2709 C   0  0  0  0  0  0  0  0  0  0  0  0
  -26.2239  -12.7456   20.7430 C   0  0  0  0  0  0  0  0  0  0  0  0
  -29.9781  -30.2344   22.3404 C   0  0  0  0  0  0  0  0  0  0  0  0
  -25.1293  -25.6337   19.3609 C   0  0  0  0  0  0  0  0  0  0  0  0
  -23.8119  -25.6955   22.0077 C   0  0  0  0  0  0  0  0  0  0  0  0
  -28.7041  -29.6688   22.9626 C   0  0  0  0  0  0  0  0  0  0  0  0
  -29.6830  -12.6610   19.9037 C   0  0  0  0  0  0  0  0  0  0  0  0
  -28.7729  -28.1464   23.0294 C   0  0  0  0  0  0  0  0  0  0  0  0
  -30.1685  -14.0788   20.2102 C   0  0  0  0  0  0  0  0  0  0  0  0
  -28.2637  -12.6599   19.3400 C   0  0  0  0  0  0  0  0  0  0  0  0
  -27.7549  -14.7897   20.4709 C   0  0  0  0  0  0  0  0  0  0  0  0
  -28.8889  -27.5373   21.6269 C   0  0  1  0  0  0  0  0  0  0  0  0
  -25.3930  -26.7531   20.3633 C   0  0  1  0  0  0  0  0  0  0  0  0
  -29.1606  -14.8379   21.0940 C   0  0  2  0  0  0  0  0  0  0  0  0
  -23.2303  -14.5522   26.8219 C   0  0  0  0  0  0  0  0  0  0  0  0
  -21.3306  -14.7719   20.6010 C   0  0  0  0  0  0  0  0  0  0  0  0
  -18.6129  -29.6406   22.7498 C   0  0  0  0  0  0  0  0  0  0  0  0
  -24.8614  -28.4819   24.6164 C   0  0  0  0  0  0  0  0  0  0  0  0
  -22.5221  -29.1254   25.2345 C   0  0  0  0  0  0  0  0  0  0  0  0
  -23.8258  -30.5423   23.6485 C   0  0  0  0  0  0  0  0  0  0  0  0
  -19.1792  -27.3310   19.7797 C   0  0  0  0  0  0  0  0  0  0  0  0
  -21.4378  -17.1212   22.9256 C   0  0  0  0  0  0  0  0  0  0  0  0
  -22.6989  -15.2149   21.1080 C   0  0  0  0  0  0  0  0  0  0  0  0
  -24.2240  -12.9824   22.1933 C   0  0  0  0  0  0  0  0  0  0  0  0
  -22.1784  -18.4610   23.0026 C   0  0  0  0  0  0  0  0  0  0  0  0
  -21.3282  -19.6428   22.5342 C   0  0  0  0  0  0  0  0  0  0  0  0
  -22.1090  -20.9489   22.5872 C   0  0  0  0  0  0  0  0  0  1  0  0
  -22.9608  -28.2947   22.8790 C   0  0  1  0  0  0  0  0  0  0  0  0
  -19.4270  -28.9442   21.6705 C   0  0  2  0  0  0  0  0  0  0  0  0
  -23.5478  -29.0863   24.0816 C   0  0  0  0  0  0  0  0  0  0  0  0
  -29.2021  -17.2427   20.5484 N   0  0  0  0  0  0  0  0  0  0  0  0
  -29.6151  -16.2599   21.3666 N   0  0  0  0  0  0  0  0  0  0  0  0
  -24.3095  -26.9075   21.3361 N   0  0  0  0  0  0  0  0  0  0  0  0
  -27.3574  -13.3944   20.2260 N   0  0  0  0  0  0  0  0  0  0  0  0
  -30.9268  -15.8310   23.2917 N   0  0  0  0  0  0  0  0  0  0  0  0
  -32.6532  -19.1607   22.7195 N   0  0  0  0  0  0  0  0  0  0  0  0
  -27.6010  -27.5394   20.9669 N   0  0  0  0  0  0  0  0  0  0  0  0
  -21.7310  -28.8601   22.3346 N   0  0  0  0  0  0  0  0  0  0  0  0
  -25.4213  -13.5118   21.5794 N   0  0  0  0  0  0  0  0  0  0  0  0
  -18.5150  -28.0609   20.8902 N   0  3  0  0  0  0  0  0  0  0  0  0
  -30.8187  -19.4815   24.0576 O   0  0  0  0  0  0  0  0  0  0  0  0
  -26.7708  -25.5562   21.8613 O   0  0  0  0  0  0  0  0  0  0  0  0
  -24.3278  -29.2340   21.1833 O   0  0  0  0  0  0  0  0  0  0  0  0
  -20.4220  -26.9721   22.6492 O   0  0  0  0  0  0  0  0  0  0  0  0
  -25.9505  -11.5689   20.4830 O   0  0  0  0  0  0  0  0  0  0  0  0
  -28.9729  -23.3321   18.6993 O   0  0  0  0  0  0  0  0  0  0  0  0
  -23.2417  -20.8444   21.7255 O   0  0  0  0  0  0  0  0  0  1  0  0
  -33.1198  -25.4672   15.7584 F   0  0  0  0  0  0  0  0  0  0  0  0
  -31.4249  -23.8437   19.8691 F   0  0  0  0  0  0  0  0  0  0  0  0
  1  2  1  0  0  0  0
  1  5  2  0  0  0  0
  2  6  2  0  0  0  0
  3  8  2  0  0  0  0
  3 17  1  0  0  0  0
  4  9  1  0  0  0  0
  4 17  2  0  0  0  0
  5 19  1  0  0  0  0
  6 21  1  0  0  0  0
  7 10  2  0  0  0  0
  7 20  1  0  0  0  0
  8 27  1  0  0  0  0
  9 27  2  0  0  0  0
 10 28  1  0  0  0  0
 11 12  2  0  0  0  0
 11 29  1  0  0  0  0
 12 30  1  0  0  0  0
 13 22  1  0  0  0  0
 13 28  2  0  0  0  0
 14 23  1  0  0  0  0
 14 24  2  0  0  0  0
 15 23  2  0  0  0  0
 15 25  1  0  0  0  0
 16 30  2  0  0  0  0
 16 31  1  0  0  0  0
 17 32  1  0  0  0  0
 18 32  1  0  0  0  0
 18 33  2  0  0  0  0
 18 34  1  0  0  0  0
 19 21  2  0  0  0  0
 19 39  1  0  0  0  0
 20 22  2  0  0  0  0
 20 40  1  0  0  0  0
 21 48  1  0  0  0  0
 22 41  1  0  0  0  0
 23 51  1  0  0  0  0
 24 26  1  0  0  0  0
 24 58  1  0  0  0  0
 25 26  2  0  0  0  0
 25 60  1  0  0  0  0
 26 59  1  0  0  0  0
 27 82  1  0  0  0  0
 28 83  1  0  0  0  0
 29 31  2  0  0  0  0
 29 82  1  0  0  0  0
 30 84  1  0  0  0  0
 31 85  1  0  0  0  0
 32 67  2  0  0  0  0
 33 68  1  0  0  0  0
 33 71  1  0  0  0  0
 34 72  1  0  0  0  0
 34 77  2  0  0  0  0
 35 49  1  0  0  0  0
 35 73  1  0  0  0  0
 35 78  2  0  0  0  0
 36 64  1  0  0  0  0
 36 69  1  0  0  0  0
 36 79  2  0  0  0  0
 37 65  1  0  0  0  0
 37 74  1  0  0  0  0
 37 80  2  0  0  0  0
 38 70  1  0  0  0  0
 38 75  1  0  0  0  0
 38 81  2  0  0  0  0
 39 42  1  0  0  0  0
 40 49  1  0  0  0  0
 41 69  1  0  0  0  0
 42 44  1  0  0  0  0
 43 45  1  0  0  0  0
 43 46  1  0  0  0  0
 44 48  1  0  0  0  0
 45 50  1  0  0  0  0
 46 70  1  0  0  0  0
 47 50  1  0  0  0  0
 47 70  1  0  0  0  0
 48 73  1  0  0  0  0
 49 69  1  0  0  0  0
 50 68  1  0  0  0  0
 52 59  1  0  0  0  0
 53 65  1  0  0  0  0
 54 66  1  0  0  0  0
 55 66  1  0  0  0  0
 56 66  1  0  0  0  0
 57 76  1  0  0  0  0
 58 61  1  0  0  0  0
 60 75  1  0  0  0  0
 61 62  1  0  0  0  0
 62 63  1  0  0  0  0
 63 83  1  0  0  0  0
 64 66  1  0  0  0  0
 64 74  1  0  0  0  0
 65 76  1  0  0  0  0
 67 68  1  0  0  0  0
M  CHG  1  76   1
M  ISO  4  38 100  63 101  75 100  83 101
M  END
> <Batch ID>
0132

> <Smiles>
CCc1c(CCC[101CH2:1][101O:1]c2ccc3c(c2)CN(C(=O)C(NC(=O)C(C)NC)C(C)(C)C)C(C(=O)NC2CCCc4ccccc42)C3)cc(C)cc1C[100NH:0][100C:0](=O)N1CCCC(n2nc(-c3ccc(Oc4ccc(F)cc4F)cc3)c(C(N)=O)c2N)C1

> <Shape>
0.241

> <Color>
0.057

> <Negative vol penalty>
0.000

$$$$

  -OEChem-04052302283D

 86 94  0     1  0  0  0  0  0999 V2000
  -18.9211  -33.5695   21.4703 C   0  0  0  0  0  0  0  0  0  0  0  0
  -20.2519  -33.3601   21.1230 C   0  0  0  0  0  0  0  0  0  0  0  0
  -24.5728   -9.1249   21.9080 C   0  0  0  0  0  0  0  0  0  0  0  0
  -22.8793  -10.1697   20.5378 C   0  0  0  0  0  0  0  0  0  0  0  0
  -18.3171  -32.7601   22.4315 C   0  0  0  0  0  0  0  0  0  0  0  0
  -20.9798  -32.3418   21.7376 C   0  0  0  0  0  0  0  0  0  0  0  0
  -25.3456  -28.8837   19.1906 C   0  0  0  0  0  0  0  0  0  0  0  0
  -28.8043  -22.6866   18.2719 C   0  0  0  0  0  0  0  0  0  0  0  0
  -28.2813  -21.4152   18.0362 C   0  0  0  0  0  0  0  0  0  0  0  0
  -23.5882   -8.3798   22.5569 C   0  0  0  0  0  0  0  0  0  0  0  0
  -21.8947   -9.4246   21.1867 C   0  0  0  0  0  0  0  0  0  0  0  0
  -26.7375  -28.9567   19.2220 C   0  0  0  0  0  0  0  0  0  0  0  0
  -21.7439   -5.6143   21.9376 C   0  0  0  0  0  0  0  0  0  0  0  0
  -21.9865   -4.2556   22.1389 C   0  0  0  0  0  0  0  0  0  0  0  0
  -26.7749  -27.3550   21.0254 C   0  0  0  0  0  0  0  0  0  0  0  0
  -31.0310  -21.8485   17.8517 C   0  0  0  0  0  0  0  0  0  0  0  0
  -21.8002   -4.5761   24.5263 C   0  0  0  0  0  0  0  0  0  0  0  0
  -24.2183  -10.0199   20.8985 C   0  0  0  0  0  0  0  0  0  0  0  0
  -25.9493  -10.4297   19.0700 C   0  0  0  0  0  0  0  0  0  0  0  0
  -19.0351  -31.7252   23.0512 C   0  0  0  0  0  0  0  0  0  0  0  0
  -24.6561  -28.0525   20.0852 C   0  0  0  0  0  0  0  0  0  0  0  0
  -20.3851  -31.5187   22.7090 C   0  0  0  0  0  0  0  0  0  0  0  0
  -25.3744  -27.2712   21.0016 C   0  0  0  0  0  0  0  0  0  0  0  0
  -30.1792  -22.9033   18.1795 C   0  0  0  0  0  0  0  0  0  0  0  0
  -29.1331  -20.3604   17.7084 C   0  0  0  0  0  0  0  0  0  0  0  0
  -30.5080  -20.5771   17.6161 C   0  0  0  0  0  0  0  0  0  0  0  0
  -22.2492   -8.5297   22.1962 C   0  0  0  0  0  0  0  0  0  0  0  0
  -27.4522  -28.1945   20.1414 C   0  0  0  0  0  0  0  0  0  0  0  0
  -21.5296   -6.4540   23.0306 C   0  0  0  0  0  0  0  0  0  0  0  0
  -22.0146   -3.7364   23.4332 C   0  0  0  0  0  0  0  0  0  0  0  0
  -21.5577   -5.9349   24.3249 C   0  0  0  0  0  0  0  0  0  0  0  0
  -25.2349  -10.7902   20.2282 C   0  0  0  0  0  0  0  0  0  0  0  0
  -26.7893  -11.4919   18.8402 C   0  0  0  0  0  0  0  0  0  0  0  0
  -25.8614   -9.2411   18.2730 C   0  0  0  0  0  0  0  0  0  0  0  0
  -22.5260  -28.5233   22.3971 C   0  0  0  0  0  0  0  0  0  0  0  0
  -27.5380  -16.9271   18.4206 C   0  0  0  0  0  0  0  0  0  0  0  0
  -22.4478  -25.2809   22.4515 C   0  0  0  0  0  0  0  0  0  0  0  0
  -24.0314  -22.3330   21.7814 C   0  0  0  0  0  0  0  0  0  0  0  0
  -18.3531  -30.9067   24.1187 C   0  0  0  0  0  0  0  0  0  0  0  0
  -23.1559  -27.9648   20.0207 C   0  0  0  0  0  0  0  0  0  0  0  0
  -24.6827  -26.3479   21.9699 C   0  0  0  0  0  0  0  0  0  0  0  0
  -19.0847  -29.6089   24.4515 C   0  0  0  0  0  0  0  0  0  0  0  0
  -27.9490  -15.4699   21.7274 C   0  0  0  0  0  0  0  0  0  0  0  0
  -20.5775  -29.8678   24.6282 C   0  0  0  0  0  0  0  0  0  0  0  0
  -27.3061  -14.0966   21.5383 C   0  0  0  0  0  0  0  0  0  0  0  0
  -27.2297  -16.5431   20.9144 C   0  0  0  0  0  0  0  0  0  0  0  0
  -26.4840  -14.8545   19.2661 C   0  0  0  0  0  0  0  0  0  0  0  0
  -21.2005  -30.4083   23.3355 C   0  0  1  0  0  0  0  0  0  0  0  0
  -22.5296  -27.4735   21.3222 C   0  0  1  0  0  0  0  0  0  0  0  0
  -27.1990  -13.7382   20.0457 C   0  0  2  0  0  0  0  0  0  0  0  0
  -31.4393  -19.4629   17.2669 C   0  0  0  0  0  0  0  0  0  0  0  0
  -32.8714  -27.1556   22.1510 C   0  0  0  0  0  0  0  0  0  0  0  0
  -23.7318  -19.8487   21.9701 C   0  0  0  0  0  0  0  0  0  0  0  0
  -23.0170  -25.4420   25.4448 C   0  0  0  0  0  0  0  0  0  0  0  0
  -23.6413  -23.0182   25.3858 C   0  0  0  0  0  0  0  0  0  0  0  0
  -21.3217  -23.7216   24.7964 C   0  0  0  0  0  0  0  0  0  0  0  0
  -24.2292  -21.9698   18.8509 C   0  0  0  0  0  0  0  0  0  0  0  0
  -30.7448  -24.2787   18.4350 C   0  0  0  0  0  0  0  0  0  0  0  0
  -28.5501  -19.0077   17.4617 C   0  0  0  0  0  0  0  0  0  0  0  0
  -28.1434  -18.2701   18.7426 C   0  0  0  0  0  0  0  0  0  0  0  0
  -32.1339  -25.8831   21.7545 C   0  0  0  0  0  0  0  0  0  0  0  0
  -31.0963  -24.4722   19.9146 C   0  0  0  0  0  0  0  0  0  0  0  0
  -30.8567  -27.0469   19.8773 C   0  0  0  0  0  0  0  0  0  0  0  0
  -29.5114  -27.0941   20.5939 C   0  0  0  0  0  0  0  0  0  1  0  0
  -23.2103  -24.2053   23.1867 C   0  0  1  0  0  0  0  0  0  0  0  0
  -23.5578  -21.0713   21.0826 C   0  0  2  0  0  0  0  0  0  0  0  0
  -31.7335  -25.8381   20.2629 C   0  0  1  0  0  0  0  0  0  0  0  0
  -22.8108  -24.1155   24.6866 C   0  0  0  0  0  0  0  0  0  0  0  0
  -25.5902  -11.9877   20.7014 N   0  0  0  0  0  0  0  0  0  0  0  0
  -26.5370  -12.3888   19.8362 N   0  0  0  0  0  0  0  0  0  0  0  0
  -23.2145  -26.3018   21.8720 N   0  0  0  0  0  0  0  0  0  0  0  0
  -27.1239  -16.1516   19.5038 N   0  0  0  0  0  0  0  0  0  0  0  0
  -27.7118  -11.7367   17.8854 N   0  0  0  0  0  0  0  0  0  0  0  0
  -24.9454   -8.2498   18.6505 N   0  0  0  0  0  0  0  0  0  0  0  0
  -21.4078  -29.3350   22.3871 N   0  0  0  0  0  0  0  0  0  0  0  0
  -23.0001  -22.9712   22.4375 N   0  0  0  0  0  0  0  0  0  0  0  0
  -24.3297  -20.8540   19.8265 N   0  3  0  0  0  0  0  0  0  0  0  0
  -26.5857   -9.0562   17.2656 O   0  0  0  0  0  0  0  0  0  0  0  0
  -23.4674  -28.5909   23.1788 O   0  0  0  0  0  0  0  0  0  0  0  0
  -27.4397  -16.5783   17.2413 O   0  0  0  0  0  0  0  0  0  0  0  0
  -21.2177  -25.2138   22.3874 O   0  0  0  0  0  0  0  0  0  0  0  0
  -25.2000  -22.7123   21.7515 O   0  0  0  0  0  0  0  0  0  0  0  0
  -21.2881   -7.8026   22.8290 O   0  0  0  0  0  0  0  0  0  0  0  0
  -28.8109  -28.2644   20.1745 O   0  0  0  0  0  0  0  0  0  1  0  0
  -22.2460   -2.4313   23.6264 F   0  0  0  0  0  0  0  0  0  0  0  0
  -21.3512   -6.7364   25.3789 F   0  0  0  0  0  0  0  0  0  0  0  0
  1  2  1  0  0  0  0
  1  5  2  0  0  0  0
  2  6  2  0  0  0  0
  3 10  2  0  0  0  0
  3 18  1  0  0  0  0
  4 11  1  0  0  0  0
  4 18  2  0  0  0  0
  5 20  1  0  0  0  0
  6 22  1  0  0  0  0
  7 12  2  0  0  0  0
  7 21  1  0  0  0  0
  8  9  2  0  0  0  0
  8 24  1  0  0  0  0
  9 25  1  0  0  0  0
 10 27  1  0  0  0  0
 11 27  2  0  0  0  0
 12 28  1  0  0  0  0
 13 14  2  0  0  0  0
 13 29  1  0  0  0  0
 14 30  1  0  0  0  0
 15 23  1  0  0  0  0
 15 28  2  0  0  0  0
 16 24  2  0  0  0  0
 16 26  1  0  0  0  0
 17 30  2  0  0  0  0
 17 31  1  0  0  0  0
 18 32  1  0  0  0  0
 19 32  1  0  0  0  0
 19 33  2  0  0  0  0
 19 34  1  0  0  0  0
 20 22  2  0  0  0  0
 20 39  1  0  0  0  0
 21 23  2  0  0  0  0
 21 40  1  0  0  0  0
 22 48  1  0  0  0  0
 23 41  1  0  0  0  0
 24 58  1  0  0  0  0
 25 26  2  0  0  0  0
 25 59  1  0  0  0  0
 26 51  1  0  0  0  0
 27 83  1  0  0  0  0
 28 84  1  0  0  0  0
 29 31  2  0  0  0  0
 29 83  1  0  0  0  0
 30 85  1  0  0  0  0
 31 86  1  0  0  0  0
 32 69  2  0  0  0  0
 33 70  1  0  0  0  0
 33 73  1  0  0  0  0
 34 74  1  0  0  0  0
 34 78  2  0  0  0  0
 35 49  1  0  0  0  0
 35 75  1  0  0  0  0
 35 79  2  0  0  0  0
 36 60  1  0  0  0  0
 36 72  1  0  0  0  0
 36 80  2  0  0  0  0
 37 65  1  0  0  0  0
 37 71  1  0  0  0  0
 37 81  2  0  0  0  0
 38 66  1  0  0  0  0
 38 76  1  0  0  0  0
 38 82  2  0  0  0  0
 39 42  1  0  0  0  0
 40 49  1  0  0  0  0
 41 71  1  0  0  0  0
 42 44  1  0  0  0  0
 43 45  1  0  0  0  0
 43 46  1  0  0  0  0
 44 48  1  0  0  0  0
 45 50  1  0  0  0  0
 46 72  1  0  0  0  0
 47 50  1  0  0  0  0
 47 72  1  0  0  0  0
 48 75  1  0  0  0  0
 49 71  1  0  0  0  0
 50 70  1  0  0  0  0
 52 61  1  0  0  0  0
 53 66  1  0  0  0  0
 54 68  1  0  0  0  0
 55 68  1  0  0  0  0
 56 68  1  0  0  0  0
 57 77  1  0  0  0  0
 58 62  1  0  0  0  0
 59 60  1  0  0  0  0
 61 67  1  0  0  0  0
 62 67  1  0  0  0  0
 63 64  1  0  0  0  0
 63 67  1  0  0  0  0
 64 84  1  0  0  0  0
 65 68  1  0  0  0  0
 65 76  1  0  0  0  0
 66 77  1  0  0  0  0
 69 70  1  0  0  0  0
M  CHG  1  77   1
M  ISO  4  36 100  60 100  64 101  84 101
M  END
> <Batch ID>
0132

> <Smiles>
CCC(CCc1ccc(C[100CH2:0][100C:0](=O)N2CCCC(n3nc(-c4ccc(Oc5ccc(F)cc5F)cc4)c(C(N)=O)c3N)C2)c(C)c1)C[101CH2:1][101O:1]c1ccc2c(c1)CN(C(=O)C(NC(=O)C(C)NC)C(C)(C)C)C(C(=O)NC1CCCc3ccccc31)C2

> <Shape>
0.250

> <Color>
0.105

> <Negative vol penalty>
0.000

$$$$

  -OEChem-04052302283D

 85 93  0     1  0  0  0  0  0999 V2000
  -30.1687  -25.2459   15.8444 C   0  0  0  0  0  0  0  0  0  0  0  0
  -29.7788  -24.9370   17.1436 C   0  0  0  0  0  0  0  0  0  0  0  0
  -24.2290   -9.2827   22.2739 C   0  0  0  0  0  0  0  0  0  0  0  0
  -23.7136   -9.3005   19.9136 C   0  0  0  0  0  0  0  0  0  0  0  0
  -29.9911  -26.5386   15.3533 C   0  0  0  0  0  0  0  0  0  0  0  0
  -29.2120  -25.9210   17.9529 C   0  0  0  0  0  0  0  0  0  0  0  0
  -25.1338  -24.2653   20.4574 C   0  0  0  0  0  0  0  0  0  0  0  0
  -29.8936  -22.9785   21.4328 C   0  0  0  0  0  0  0  0  0  0  0  0
  -29.6007  -22.2656   20.2702 C   0  0  0  0  0  0  0  0  0  0  0  0
  -23.1975   -8.3695   22.4922 C   0  0  0  0  0  0  0  0  0  0  0  0
  -22.6822   -8.3872   20.1319 C   0  0  0  0  0  0  0  0  0  0  0  0
  -25.3561  -23.4762   21.5850 C   0  0  0  0  0  0  0  0  0  0  0  0
  -22.6916   -5.0472   22.1190 C   0  0  0  0  0  0  0  0  0  0  0  0
  -22.9569   -3.9551   22.9452 C   0  0  0  0  0  0  0  0  0  0  0  0
  -29.8272  -20.9271   22.7074 C   0  0  0  0  0  0  0  0  0  0  0  0
  -24.9847  -25.3977   22.9954 C   0  0  0  0  0  0  0  0  0  0  0  0
  -21.1995   -4.6627   24.4446 C   0  0  0  0  0  0  0  0  0  0  0  0
  -24.4870   -9.7483   20.9845 C   0  0  0  0  0  0  0  0  0  0  0  0
  -29.5342  -20.2143   21.5448 C   0  0  0  0  0  0  0  0  0  0  0  0
  -26.8971  -10.4012   20.4623 C   0  0  0  0  0  0  0  0  0  0  0  0
  -29.4130  -27.5366   16.1537 C   0  0  0  0  0  0  0  0  0  0  0  0
  -24.8456  -25.6313   20.5901 C   0  0  0  0  0  0  0  0  0  0  0  0
  -29.0277  -27.2287   17.4724 C   0  0  0  0  0  0  0  0  0  0  0  0
  -24.7566  -26.2014   21.8680 C   0  0  0  0  0  0  0  0  0  0  0  0
  -30.0069  -22.3092   22.6514 C   0  0  0  0  0  0  0  0  0  0  0  0
  -29.4209  -20.8835   20.3262 C   0  0  0  0  0  0  0  0  0  0  0  0
  -22.4242   -7.9217   21.4212 C   0  0  0  0  0  0  0  0  0  0  0  0
  -25.2844  -24.0429   22.8542 C   0  0  0  0  0  0  0  0  0  0  0  0
  -21.6804   -5.9471   22.4556 C   0  0  0  0  0  0  0  0  0  0  0  0
  -22.2108   -3.7628   24.1080 C   0  0  0  0  0  0  0  0  0  0  0  0
  -20.9343   -5.7548   23.6184 C   0  0  0  0  0  0  0  0  0  0  0  0
  -25.5519  -10.6922   20.7584 C   0  0  0  0  0  0  0  0  0  0  0  0
  -27.4956  -11.6314   20.3401 C   0  0  0  0  0  0  0  0  0  0  0  0
  -29.3516  -18.7714   21.6356 C   0  0  0  0  0  0  0  0  0  0  0  0
  -28.4035  -18.1490   22.3652 C   0  0  0  0  0  0  0  0  0  0  0  0
  -27.5475   -9.1324   20.3112 C   0  0  0  0  0  0  0  0  0  0  0  0
  -28.3410  -16.6737   22.3464 C   0  0  0  0  0  0  0  0  0  0  0  0
  -26.2585  -28.3226   19.6605 C   0  0  0  0  0  0  0  0  0  0  0  0
  -23.5630  -29.6871   20.8415 C   0  0  0  0  0  0  0  0  0  0  0  0
  -20.8981  -29.4742   22.9628 C   0  0  0  0  0  0  0  0  0  0  0  0
  -29.2847  -28.9315   15.5949 C   0  0  0  0  0  0  0  0  0  0  0  0
  -24.5820  -26.4630   19.3649 C   0  0  0  0  0  0  0  0  0  0  0  0
  -24.4304  -27.6585   22.0654 C   0  0  0  0  0  0  0  0  0  0  0  0
  -28.3326  -29.8211   16.3903 C   0  0  0  0  0  0  0  0  0  0  0  0
  -25.5119  -16.2589   20.0538 C   0  0  0  0  0  0  0  0  0  0  0  0
  -28.6113  -29.6989   17.8850 C   0  0  0  0  0  0  0  0  0  0  0  0
  -25.3561  -14.7405   20.0514 C   0  0  0  0  0  0  0  0  0  0  0  0
  -25.9672  -16.7848   21.4142 C   0  0  0  0  0  0  0  0  0  0  0  0
  -27.0554  -14.6158   21.9161 C   0  0  0  0  0  0  0  0  0  0  0  0
  -28.3865  -28.2625   18.3725 C   0  0  1  0  0  0  0  0  0  0  0  0
  -24.8031  -27.9546   19.5964 C   0  0  1  0  0  0  0  0  0  0  0  0
  -26.6434  -14.0604   20.5438 C   0  0  1  0  0  0  0  0  0  0  0  0
  -29.1061  -20.1522   19.0608 C   0  0  0  0  0  0  0  0  0  0  0  0
  -18.8868  -30.7612   23.7344 C   0  0  0  0  0  0  0  0  0  0  0  0
  -26.0925  -21.7257   26.3395 C   0  0  0  0  0  0  0  0  0  0  0  0
  -25.3615  -31.4771   22.5359 C   0  0  0  0  0  0  0  0  0  0  0  0
  -23.3639  -32.0407   23.9359 C   0  0  0  0  0  0  0  0  0  0  0  0
  -23.3968  -32.6396   21.5146 C   0  0  0  0  0  0  0  0  0  0  0  0
  -19.0435  -27.3781   22.0007 C   0  0  0  0  0  0  0  0  0  0  0  0
  -30.3237  -23.0811   23.9076 C   0  0  0  0  0  0  0  0  0  0  0  0
  -29.0812  -23.5851   24.6528 C   0  0  0  0  0  0  0  0  0  0  0  0
  -28.1442  -22.4502   25.0857 C   0  0  0  0  0  0  0  0  0  0  0  0
  -26.0579  -23.9228   25.0999 C   0  0  0  0  0  0  0  0  0  1  0  0
  -23.1349  -30.2170   22.1887 C   0  0  1  0  0  0  0  0  0  0  0  0
  -19.4174  -29.7316   22.7491 C   0  0  2  0  0  0  0  0  0  0  0  0
  -26.9239  -22.9352   25.8923 C   0  0  1  0  0  0  0  0  0  0  0  0
  -23.8224  -31.5665   22.5403 C   0  0  0  0  0  0  0  0  0  0  0  0
  -25.3098  -12.0042   20.8207 N   0  0  0  0  0  0  0  0  0  0  0  0
  -26.5110  -12.5487   20.5621 N   0  0  0  0  0  0  0  0  0  0  0  0
  -27.1661  -16.0786   21.8905 N   0  0  0  0  0  0  0  0  0  0  0  0
  -24.1871  -28.4316   20.8363 N   0  0  0  0  0  0  0  0  0  0  0  0
  -28.7628  -12.0071   20.0655 N   0  0  0  0  0  0  0  0  0  0  0  0
  -26.7845   -7.9675   20.4698 N   0  0  0  0  0  0  0  0  0  0  0  0
  -26.9721  -27.9954   18.5233 N   0  0  0  0  0  0  0  0  0  0  0  0
  -21.6776  -30.2787   22.1588 N   0  0  0  0  0  0  0  0  0  0  0  0
  -18.6420  -28.4709   22.9235 N   0  3  0  0  0  0  0  0  0  0  0  0
  -28.7725   -9.0345   20.0597 O   0  0  0  0  0  0  0  0  0  0  0  0
  -29.3327  -16.0575   22.7407 O   0  0  0  0  0  0  0  0  0  0  0  0
  -26.7009  -28.8646   20.6666 O   0  0  0  0  0  0  0  0  0  0  0  0
  -23.3450  -30.3590   19.8303 O   0  0  0  0  0  0  0  0  0  0  0  0
  -21.3210  -28.6452   23.7656 O   0  0  0  0  0  0  0  0  0  0  0  0
  -21.4178   -7.0303   21.6339 O   0  0  0  0  0  0  0  0  0  0  0  0
  -25.5016  -23.2751   23.9565 O   0  0  0  0  0  0  0  0  0  1  0  0
  -22.4645   -2.7132   24.9005 F   0  0  0  0  0  0  0  0  0  0  0  0
  -19.9607   -6.6153   23.9463 F   0  0  0  0  0  0  0  0  0  0  0  0
  1  2  1  0  0  0  0
  1  5  2  0  0  0  0
  2  6  2  0  0  0  0
  3 10  2  0  0  0  0
  3 18  1  0  0  0  0
  4 11  1  0  0  0  0
  4 18  2  0  0  0  0
  5 21  1  0  0  0  0
  6 23  1  0  0  0  0
  7 12  2  0  0  0  0
  7 22  1  0  0  0  0
  8  9  2  0  0  0  0
  8 25  1  0  0  0  0
  9 26  1  0  0  0  0
 10 27  1  0  0  0  0
 11 27  2  0  0  0  0
 12 28  1  0  0  0  0
 13 14  2  0  0  0  0
 13 29  1  0  0  0  0
 14 30  1  0  0  0  0
 15 19  1  0  0  0  0
 15 25  2  0  0  0  0
 16 24  1  0  0  0  0
 16 28  2  0  0  0  0
 17 30  2  0  0  0  0
 17 31  1  0  0  0  0
 18 32  1  0  0  0  0
 19 26  2  0  0  0  0
 19 34  1  0  0  0  0
 20 32  1  0  0  0  0
 20 33  2  0  0  0  0
 20 36  1  0  0  0  0
 21 23  2  0  0  0  0
 21 41  1  0  0  0  0
 22 24  2  0  0  0  0
 22 42  1  0  0  0  0
 23 50  1  0  0  0  0
 24 43  1  0  0  0  0
 25 60  1  0  0  0  0
 26 53  1  0  0  0  0
 27 82  1  0  0  0  0
 28 83  1  0  0  0  0
 29 31  2  0  0  0  0
 29 82  1  0  0  0  0
 30 84  1  0  0  0  0
 31 85  1  0  0  0  0
 32 68  2  0  0  0  0
 33 69  1  0  0  0  0
 33 72  1  0  0  0  0
 34 35  2  0  0  0  0
 35 37  1  0  0  0  0
 36 73  1  0  0  0  0
 36 77  2  0  0  0  0
 37 70  1  0  0  0  0
 37 78  2  0  0  0  0
 38 51  1  0  0  0  0
 38 74  1  0  0  0  0
 38 79  2  0  0  0  0
 39 64  1  0  0  0  0
 39 71  1  0  0  0  0
 39 80  2  0  0  0  0
 40 65  1  0  0  0  0
 40 75  1  0  0  0  0
 40 81  2  0  0  0  0
 41 44  1  0  0  0  0
 42 51  1  0  0  0  0
 43 71  1  0  0  0  0
 44 46  1  0  0  0  0
 45 47  1  0  0  0  0
 45 48  1  0  0  0  0
 46 50  1  0  0  0  0
 47 52  1  0  0  0  0
 48 70  1  0  0  0  0
 49 52  1  0  0  0  0
 49 70  1  0  0  0  0
 50 74  1  0  0  0  0
 51 71  1  0  0  0  0
 52 69  1  0  0  0  0
 54 65  1  0  0  0  0
 55 66  1  0  0  0  0
 56 67  1  0  0  0  0
 57 67  1  0  0  0  0
 58 67  1  0  0  0  0
 59 76  1  0  0  0  0
 60 61  1  0  0  0  0
 61 62  1  0  0  0  0
 62 66  1  0  0  0  0
 63 66  1  0  0  0  0
 63 83  1  0  0  0  0
 64 67  1  0  0  0  0
 64 75  1  0  0  0  0
 65 76  1  0  0  0  0
 68 69  1  0  0  0  0
M  CHG  1  76   1
M  ISO  4  35 100  37 100  63 101  83 101
M  END
> <Batch ID>
0132

> <Smiles>
CNC(C)C(=O)NC(C(=O)N1Cc2cc([101O:1][101CH2:1]C(C)CCCc3ccc(C)c(C=[100CH:0][100C:0](=O)N4CCCC(n5nc(-c6ccc(Oc7ccc(F)cc7F)cc6)c(C(N)=O)c5N)C4)c3)ccc2CC1C(=O)NC1CCCc2ccccc21)C(C)(C)C

> <Shape>
0.281

> <Color>
0.067

> <Negative vol penalty>
0.000

$$$$

  -OEChem-04052302283D

 84 93  0     1  0  0  0  0  0999 V2000
  -23.6626   -7.8902   21.5183 C   0  0  0  0  0  0  0  0  0  0  0  0
  -24.3831   -8.9287   20.9372 C   0  0  0  0  0  0  0  0  0  0  0  0
  -23.6254  -29.8983   21.6483 C   0  0  0  0  0  0  0  0  0  0  0  0
  -23.1136  -28.9013   23.7887 C   0  0  0  0  0  0  0  0  0  0  0  0
  -22.3410   -8.0953   21.9124 C   0  0  0  0  0  0  0  0  0  0  0  0
  -23.7821  -10.1728   20.7488 C   0  0  0  0  0  0  0  0  0  0  0  0
  -26.7886  -14.0104   22.1191 C   0  0  0  0  0  0  0  0  0  0  0  0
  -22.3686  -30.5029   21.6293 C   0  0  0  0  0  0  0  0  0  0  0  0
  -21.8567  -29.5060   23.7698 C   0  0  0  0  0  0  0  0  0  0  0  0
  -27.8015  -14.3736   21.2326 C   0  0  0  0  0  0  0  0  0  0  0  0
  -18.8584  -28.9746   22.3005 C   0  0  0  0  0  0  0  0  0  0  0  0
  -17.7587  -28.1950   22.6589 C   0  0  0  0  0  0  0  0  0  0  0  0
  -32.7660  -21.9477   16.5181 C   0  0  0  0  0  0  0  0  0  0  0  0
  -33.0220  -20.5755   16.2840 C   0  0  0  0  0  0  0  0  0  0  0  0
  -26.4448  -16.2050   20.4422 C   0  0  0  0  0  0  0  0  0  0  0  0
  -17.2744  -29.7129   24.4751 C   0  0  0  0  0  0  0  0  0  0  0  0
  -23.9979  -29.0974   22.7280 C   0  0  0  0  0  0  0  0  0  0  0  0
  -26.4867  -29.0021   23.2797 C   0  0  0  0  0  0  0  0  0  0  0  0
  -21.7265   -9.3453   21.7376 C   0  0  0  0  0  0  0  0  0  0  0  0
  -25.5898  -14.7364   22.1662 C   0  0  0  0  0  0  0  0  0  0  0  0
  -22.4506  -10.3944   21.1397 C   0  0  0  0  0  0  0  0  0  0  0  0
  -25.4193  -15.8505   21.3320 C   0  0  0  0  0  0  0  0  0  0  0  0
  -21.4842  -30.3068   22.6901 C   0  0  0  0  0  0  0  0  0  0  0  0
  -27.6285  -15.4693   20.3919 C   0  0  0  0  0  0  0  0  0  0  0  0
  -19.1662  -30.1234   23.0295 C   0  0  0  0  0  0  0  0  0  0  0  0
  -16.9667  -28.5641   23.7461 C   0  0  0  0  0  0  0  0  0  0  0  0
  -18.3741  -30.4925   24.1167 C   0  0  0  0  0  0  0  0  0  0  0  0
  -25.2959  -28.4721   22.7479 C   0  0  0  0  0  0  0  0  0  0  0  0
  -31.8090  -21.9947   17.5050 C   0  0  0  0  0  0  0  0  0  0  0  0
  -32.2034  -19.8819   17.1446 C   0  0  0  0  0  0  0  0  0  0  0  0
  -27.4278  -28.0280   23.0520 C   0  0  0  0  0  0  0  0  0  0  0  0
  -30.5504  -18.0635   17.7429 C   0  0  0  0  0  0  0  0  0  0  0  0
  -30.1520  -17.5655   18.9266 C   0  0  0  0  0  0  0  0  0  0  0  0
  -31.2271  -23.1477   18.0806 C   0  0  0  0  0  0  0  0  0  0  0  0
  -30.2865  -23.1836   19.0815 C   0  0  0  0  0  0  0  0  0  0  0  0
  -26.7212  -30.2622   23.9222 C   0  0  0  0  0  0  0  0  0  0  0  0
  -29.7806  -24.4759   19.5860 C   0  0  0  0  0  0  0  0  0  0  0  0
  -22.5331  -14.0572   21.6194 C   0  0  0  0  0  0  0  0  0  0  0  0
  -22.0703  -17.0750   22.7152 C   0  0  0  0  0  0  0  0  0  0  0  0
  -23.3481  -20.1967   23.2343 C   0  0  0  0  0  0  0  0  0  0  0  0
  -20.2808   -9.5055   22.1361 C   0  0  0  0  0  0  0  0  0  0  0  0
  -24.5176  -14.3479   23.1470 C   0  0  0  0  0  0  0  0  0  0  0  0
  -24.1592  -16.6752   21.3581 C   0  0  0  0  0  0  0  0  0  0  0  0
  -31.1147  -17.3232   20.0612 C   0  0  0  0  0  0  0  0  0  0  0  0
  -19.8366  -10.9620   22.2440 C   0  0  0  0  0  0  0  0  0  0  0  0
  -32.4771  -17.9938   19.8752 C   0  0  0  0  0  0  0  0  0  0  0  0
  -26.9334  -23.2435   21.5371 C   0  0  0  0  0  0  0  0  0  0  0  0
  -20.3105  -11.7560   21.0309 C   0  0  0  0  0  0  0  0  0  0  0  0
  -32.9834  -17.8486   18.4428 C   0  0  0  0  0  0  0  0  0  0  0  0
  -26.3257  -24.5541   22.0298 C   0  0  0  0  0  0  0  0  0  0  0  0
  -27.5414  -23.3838   20.1424 C   0  0  0  0  0  0  0  0  0  0  0  0
  -27.9282  -25.8010   20.5272 C   0  0  0  0  0  0  0  0  0  0  0  0
  -21.8413  -11.7654   20.9413 C   0  0  1  0  0  0  0  0  0  0  0  0
  -31.9839  -18.3977   17.4048 C   0  0  2  0  0  0  0  0  0  0  0  0
  -23.1328  -14.8481   22.7475 C   0  0  1  0  0  0  0  0  0  0  0  0
  -27.3524  -25.6949   21.9480 C   0  0  1  0  0  0  0  0  0  0  0  0
  -22.7189  -22.4619   24.1120 C   0  0  0  0  0  0  0  0  0  0  0  0
  -20.5127  -17.6330   20.1514 C   0  0  0  0  0  0  0  0  0  0  0  0
  -20.7361  -20.0801   20.6309 C   0  0  0  0  0  0  0  0  0  0  0  0
  -19.5002  -18.6073   22.2202 C   0  0  0  0  0  0  0  0  0  0  0  0
  -25.4058  -20.0736   25.3579 C   0  0  0  0  0  0  0  0  0  0  0  0
  -28.7187  -17.2093   19.1919 C   0  0  0  0  0  0  0  0  0  1  0  0
  -22.0196  -18.4455   22.0841 C   0  0  1  0  0  0  0  0  0  0  0  0
  -23.3214  -21.1068   24.4490 C   0  0  2  0  0  0  0  0  0  0  0  0
  -20.7152  -18.6750   21.2696 C   0  0  0  0  0  0  0  0  0  0  0  0
  -25.4626  -27.2558   22.2218 N   0  0  0  0  0  0  0  0  0  0  0  0
  -26.7692  -27.0134   22.4218 N   0  0  0  0  0  0  0  0  0  0  0  0
  -28.4757  -24.5174   20.0740 N   0  0  0  0  0  0  0  0  0  0  0  0
  -23.1376  -16.2515   22.3298 N   0  0  0  0  0  0  0  0  0  0  0  0
  -28.7462  -27.9489   23.3312 N   0  0  0  0  0  0  0  0  0  0  0  0
  -25.6435  -31.1451   24.0749 N   0  0  0  0  0  0  0  0  0  0  0  0
  -22.3972  -12.7085   21.8879 N   0  0  0  0  0  0  0  0  0  0  0  0
  -22.2237  -19.4014   23.1672 N   0  0  0  0  0  0  0  0  0  0  0  0
  -24.7026  -21.3220   24.9655 N   0  3  0  0  0  0  0  0  0  0  0  0
  -27.8564  -30.6022   24.3336 O   0  0  0  0  0  0  0  0  0  0  0  0
  -30.5438  -25.4424   19.5400 O   0  0  0  0  0  0  0  0  0  0  0  0
  -22.2158  -14.6285   20.5828 O   0  0  0  0  0  0  0  0  0  0  0  0
  -21.1991  -16.7499   23.5257 O   0  0  0  0  0  0  0  0  0  0  0  0
  -24.2721  -20.1942   22.4240 O   0  0  0  0  0  0  0  0  0  0  0  0
  -31.4607  -20.7397   17.8924 O   0  0  0  0  0  0  0  0  0  0  0  0
  -20.2578  -30.8968   22.6720 O   0  0  0  0  0  0  0  0  0  0  0  0
  -28.6153  -15.8256   19.5252 O   0  0  0  0  0  0  0  0  0  1  0  0
  -15.9098  -27.8161   24.0892 F   0  0  0  0  0  0  0  0  0  0  0  0
  -18.6641  -31.5957   24.8201 F   0  0  0  0  0  0  0  0  0  0  0  0
  1  2  1  0  0  0  0
  1  5  2  0  0  0  0
  2  6  2  0  0  0  0
  3  8  2  0  0  0  0
  3 17  1  0  0  0  0
  4  9  1  0  0  0  0
  4 17  2  0  0  0  0
  5 19  1  0  0  0  0
  6 21  1  0  0  0  0
  7 10  2  0  0  0  0
  7 20  1  0  0  0  0
  8 23  1  0  0  0  0
  9 23  2  0  0  0  0
 10 24  1  0  0  0  0
 11 12  2  0  0  0  0
 11 25  1  0  0  0  0
 12 26  1  0  0  0  0
 13 14  1  0  0  0  0
 13 29  2  0  0  0  0
 14 30  2  0  0  0  0
 15 22  1  0  0  0  0
 15 24  2  0  0  0  0
 16 26  2  0  0  0  0
 16 27  1  0  0  0  0
 17 28  1  0  0  0  0
 18 28  1  0  0  0  0
 18 31  2  0  0  0  0
 18 36  1  0  0  0  0
 19 21  2  0  0  0  0
 19 41  1  0  0  0  0
 20 22  2  0  0  0  0
 20 42  1  0  0  0  0
 21 53  1  0  0  0  0
 22 43  1  0  0  0  0
 23 81  1  0  0  0  0
 24 82  1  0  0  0  0
 25 27  2  0  0  0  0
 25 81  1  0  0  0  0
 26 83  1  0  0  0  0
 27 84  1  0  0  0  0
 28 66  2  0  0  0  0
 29 34  1  0  0  0  0
 29 80  1  0  0  0  0
 30 54  1  0  0  0  0
 30 80  1  0  0  0  0
 31 67  1  0  0  0  0
 31 70  1  0  0  0  0
 32 33  2  0  0  0  0
 32 54  1  0  0  0  0
 33 44  1  0  0  0  0
 33 62  1  0  0  0  0
 34 35  2  0  0  0  0
 35 37  1  0  0  0  0
 36 71  1  0  0  0  0
 36 75  2  0  0  0  0
 37 68  1  0  0  0  0
 37 76  2  0  0  0  0
 38 55  1  0  0  0  0
 38 72  1  0  0  0  0
 38 77  2  0  0  0  0
 39 63  1  0  0  0  0
 39 69  1  0  0  0  0
 39 78  2  0  0  0  0
 40 64  1  0  0  0  0
 40 73  1  0  0  0  0
 40 79  2  0  0  0  0
 41 45  1  0  0  0  0
 42 55  1  0  0  0  0
 43 69  1  0  0  0  0
 44 46  1  0  0  0  0
 45 48  1  0  0  0  0
 46 49  1  0  0  0  0
 47 50  1  0  0  0  0
 47 51  1  0  0  0  0
 48 53  1  0  0  0  0
 49 54  1  0  0  0  0
 50 56  1  0  0  0  0
 51 68  1  0  0  0  0
 52 56  1  0  0  0  0
 52 68  1  0  0  0  0
 53 72  1  0  0  0  0
 55 69  1  0  0  0  0
 56 67  1  0  0  0  0
 57 64  1  0  0  0  0
 58 65  1  0  0  0  0
 59 65  1  0  0  0  0
 60 65  1  0  0  0  0
 61 74  1  0  0  0  0
 62 82  1  0  0  0  0
 63 65  1  0  0  0  0
 63 73  1  0  0  0  0
 64 74  1  0  0  0  0
 66 67  1  0  0  0  0
M  CHG  1  74   1
M  ISO  4  35 100  37 100  62 101  82 101
M  END
> <Batch ID>
0132

> <Smiles>
CNC(C)C(=O)NC(C(=O)N1Cc2cc([101O:1][101CH2:1]C3=CC(c4ccc(C=[100CH:0][100C:0](=O)N5CCCC(n6nc(-c7ccc(Oc8ccc(F)cc8F)cc7)c(C(N)=O)c6N)C5)o4)CCC3)ccc2CC1C(=O)NC1CCCc2ccccc21)C(C)(C)C

> <Shape>
0.208

> <Color>
0.093

> <Negative vol penalty>
0.000

$$$$

  -OEChem-04052302283D

 85 93  0     1  0  0  0  0  0999 V2000
  -26.8550  -34.5773   23.5502 C   0  0  0  0  0  0  0  0  0  0  0  0
  -26.9324  -33.1900   23.4818 C   0  0  0  0  0  0  0  0  0  0  0  0
  -23.0484   -9.9646   19.9000 C   0  0  0  0  0  0  0  0  0  0  0  0
  -23.9367   -9.8052   22.1411 C   0  0  0  0  0  0  0  0  0  0  0  0
  -25.6781  -35.2278   23.1819 C   0  0  0  0  0  0  0  0  0  0  0  0
  -25.8324  -32.4521   23.0458 C   0  0  0  0  0  0  0  0  0  0  0  0
  -27.1086  -28.8257   19.7495 C   0  0  0  0  0  0  0  0  0  0  0  0
  -22.3284   -8.7872   20.1016 C   0  0  0  0  0  0  0  0  0  0  0  0
  -23.2167   -8.6277   22.3427 C   0  0  0  0  0  0  0  0  0  0  0  0
  -27.6736  -27.6623   20.2700 C   0  0  0  0  0  0  0  0  0  0  0  0
  -20.0337   -7.7484   23.0614 C   0  0  0  0  0  0  0  0  0  0  0  0
  -19.3446   -7.6103   24.2661 C   0  0  0  0  0  0  0  0  0  0  0  0
  -25.5378  -26.5544   20.0960 C   0  0  0  0  0  0  0  0  0  0  0  0
  -30.8382  -17.5381   24.4420 C   0  0  0  0  0  0  0  0  0  0  0  0
  -29.6435  -19.5656   24.9884 C   0  0  0  0  0  0  0  0  0  0  0  0
  -29.9120  -18.9066   22.6795 C   0  0  0  0  0  0  0  0  0  0  0  0
  -20.6399   -5.6368   24.7808 C   0  0  0  0  0  0  0  0  0  0  0  0
  -23.8526  -10.4736   20.9198 C   0  0  0  0  0  0  0  0  0  0  0  0
  -24.1685  -13.0044   20.9756 C   0  0  0  0  0  0  0  0  0  0  0  0
  -24.5664  -34.4981   22.7320 C   0  0  0  0  0  0  0  0  0  0  0  0
  -25.7491  -28.8656   19.4080 C   0  0  0  0  0  0  0  0  0  0  0  0
  -24.6391  -33.0933   22.6724 C   0  0  0  0  0  0  0  0  0  0  0  0
  -24.9585  -27.7188   19.5690 C   0  0  0  0  0  0  0  0  0  0  0  0
  -30.3505  -18.4335   25.3937 C   0  0  0  0  0  0  0  0  0  0  0  0
  -30.6190  -17.7746   23.0848 C   0  0  0  0  0  0  0  0  0  0  0  0
  -22.4125   -8.1187   21.3230 C   0  0  0  0  0  0  0  0  0  0  0  0
  -26.8875  -26.5273   20.4461 C   0  0  0  0  0  0  0  0  0  0  0  0
  -21.0260   -6.8308   22.7162 C   0  0  0  0  0  0  0  0  0  0  0  0
  -29.4242  -19.8021   23.6313 C   0  0  0  0  0  0  0  0  0  0  0  0
  -19.6476   -6.5545   25.1259 C   0  0  0  0  0  0  0  0  0  0  0  0
  -21.3290   -5.7750   23.5759 C   0  0  0  0  0  0  0  0  0  0  0  0
  -24.5971  -11.6896   20.7120 C   0  0  0  0  0  0  0  0  0  0  0  0
  -25.2328  -13.7922   20.6107 C   0  0  0  0  0  0  0  0  0  0  0  0
  -22.9200  -13.4718   21.5033 C   0  0  0  0  0  0  0  0  0  0  0  0
  -23.2365  -30.5437   20.3953 C   0  0  0  0  0  0  0  0  0  0  0  0
  -28.8023  -22.9631   21.9569 C   0  0  0  0  0  0  0  0  0  0  0  0
  -30.7376  -14.7845   20.6607 C   0  0  0  0  0  0  0  0  0  0  0  0
  -21.7492  -29.0218   17.9470 C   0  0  0  0  0  0  0  0  0  0  0  0
  -21.6407  -26.3366   15.8435 C   0  0  0  0  0  0  0  0  0  0  0  0
  -23.3000  -35.2422   22.3896 C   0  0  0  0  0  0  0  0  0  0  0  0
  -25.1609  -30.1202   18.8227 C   0  0  0  0  0  0  0  0  0  0  0  0
  -23.4987  -27.7036   19.1989 C   0  0  0  0  0  0  0  0  0  0  0  0
  -22.3052  -34.4122   21.5822 C   0  0  0  0  0  0  0  0  0  0  0  0
  -29.4506  -12.6716   18.0685 C   0  0  0  0  0  0  0  0  0  0  0  0
  -22.1464  -33.0245   22.1952 C   0  0  0  0  0  0  0  0  0  0  0  0
  -28.0497  -12.3115   18.5613 C   0  0  0  0  0  0  0  0  0  0  0  0
  -30.4360  -12.7927   19.2267 C   0  0  0  0  0  0  0  0  0  0  0  0
  -28.6095  -13.3960   20.7829 C   0  0  0  0  0  0  0  0  0  0  0  0
  -23.4755  -32.2597   22.1810 C   0  0  1  0  0  0  0  0  0  0  0  0
  -23.6470  -30.2049   18.9902 C   0  0  1  0  0  0  0  0  0  0  0  0
  -27.5761  -13.2940   19.6471 C   0  0  2  0  0  0  0  0  0  0  0  0
  -30.5858  -18.1802   26.8443 C   0  0  0  0  0  0  0  0  0  0  0  0
  -20.2865  -25.3520   13.9743 C   0  0  0  0  0  0  0  0  0  0  0  0
  -19.6356  -28.1221   19.9554 C   0  0  0  0  0  0  0  0  0  0  0  0
  -18.8780  -26.4151   18.2879 C   0  0  0  0  0  0  0  0  0  0  0  0
  -18.7287  -28.8439   17.7393 C   0  0  0  0  0  0  0  0  0  0  0  0
  -23.9234  -26.4696   13.9645 C   0  0  0  0  0  0  0  0  0  0  0  0
  -31.1409  -16.8179   22.0669 C   0  0  0  0  0  0  0  0  0  0  0  0
  -29.1108  -23.6678   20.6441 C   0  0  0  0  0  0  0  0  0  0  0  0
  -29.0591  -21.4688   21.9745 C   0  0  0  0  0  0  0  0  0  0  0  0
  -30.1566  -15.6960   21.7122 C   0  0  0  0  0  0  0  0  0  0  0  0
  -28.8191  -25.1608   20.6866 C   0  0  0  0  0  0  0  0  0  1  0  0
  -20.9942  -27.7232   17.7964 C   0  0  1  0  0  0  0  0  0  0  0  0
  -21.4643  -26.2423   14.3387 C   0  0  2  0  0  0  0  0  0  0  0  0
  -19.5862  -27.7766   18.4536 C   0  0  0  0  0  0  0  0  0  0  0  0
  -25.8370  -11.6409   20.2176 N   0  0  0  0  0  0  0  0  0  0  0  0
  -26.1965  -12.9348   20.1676 N   0  0  0  0  0  0  0  0  0  0  0  0
  -22.9684  -28.9565   18.6363 N   0  0  0  0  0  0  0  0  0  0  0  0
  -29.9396  -13.7176   20.2472 N   0  0  0  0  0  0  0  0  0  0  0  0
  -25.4289  -15.1277   20.6288 N   0  0  0  0  0  0  0  0  0  0  0  0
  -21.9355  -12.5277   21.8255 N   0  0  0  0  0  0  0  0  0  0  0  0
  -23.7467  -31.7420   20.8571 N   0  0  0  0  0  0  0  0  0  0  0  0
  -20.9762  -27.4248   16.3685 N   0  0  0  0  0  0  0  0  0  0  0  0
  -22.6916  -25.6799   13.7075 N   0  3  0  0  0  0  0  0  0  0  0  0
  -22.6783  -14.6916   21.6683 O   0  0  0  0  0  0  0  0  0  0  0  0
  -22.5095  -29.7755   21.0142 O   0  0  0  0  0  0  0  0  0  0  0  0
  -28.3751  -23.5580   22.9449 O   0  0  0  0  0  0  0  0  0  0  0  0
  -31.8659  -15.0170   20.2192 O   0  0  0  0  0  0  0  0  0  0  0  0
  -21.2781  -30.0546   17.4645 O   0  0  0  0  0  0  0  0  0  0  0  0
  -22.2988  -25.5239   16.4892 O   0  0  0  0  0  0  0  0  0  0  0  0
  -21.7098   -6.9698   21.5201 O   0  0  0  0  0  0  0  0  0  0  0  0
  -28.7278  -20.9181   23.2317 O   0  0  0  0  0  0  0  0  0  0  0  0
  -27.4364  -25.3906   20.9545 O   0  0  0  0  0  0  0  0  0  1  0  0
  -18.9868   -6.4228   26.2835 F   0  0  0  0  0  0  0  0  0  0  0  0
  -22.2821   -4.8909   23.2503 F   0  0  0  0  0  0  0  0  0  0  0  0
  1  2  1  0  0  0  0
  1  5  2  0  0  0  0
  2  6  2  0  0  0  0
  3  8  2  0  0  0  0
  3 18  1  0  0  0  0
  4  9  1  0  0  0  0
  4 18  2  0  0  0  0
  5 20  1  0  0  0  0
  6 22  1  0  0  0  0
  7 10  2  0  0  0  0
  7 21  1  0  0  0  0
  8 26  1  0  0  0  0
  9 26  2  0  0  0  0
 10 27  1  0  0  0  0
 11 12  2  0  0  0  0
 11 28  1  0  0  0  0
 12 30  1  0  0  0  0
 13 23  1  0  0  0  0
 13 27  2  0  0  0  0
 14 24  1  0  0  0  0
 14 25  2  0  0  0  0
 15 24  2  0  0  0  0
 15 29  1  0  0  0  0
 16 25  1  0  0  0  0
 16 29  2  0  0  0  0
 17 30  2  0  0  0  0
 17 31  1  0  0  0  0
 18 32  1  0  0  0  0
 19 32  1  0  0  0  0
 19 33  2  0  0  0  0
 19 34  1  0  0  0  0
 20 22  2  0  0  0  0
 20 40  1  0  0  0  0
 21 23  2  0  0  0  0
 21 41  1  0  0  0  0
 22 49  1  0  0  0  0
 23 42  1  0  0  0  0
 24 52  1  0  0  0  0
 25 58  1  0  0  0  0
 26 81  1  0  0  0  0
 27 83  1  0  0  0  0
 28 31  2  0  0  0  0
 28 81  1  0  0  0  0
 29 82  1  0  0  0  0
 30 84  1  0  0  0  0
 31 85  1  0  0  0  0
 32 66  2  0  0  0  0
 33 67  1  0  0  0  0
 33 70  1  0  0  0  0
 34 71  1  0  0  0  0
 34 75  2  0  0  0  0
 35 50  1  0  0  0  0
 35 72  1  0  0  0  0
 35 76  2  0  0  0  0
 36 59  1  0  0  0  0
 36 60  1  0  0  0  0
 36 77  2  0  0  0  0
 37 61  1  0  0  0  0
 37 69  1  0  0  0  0
 37 78  2  0  0  0  0
 38 63  1  0  0  0  0
 38 68  1  0  0  0  0
 38 79  2  0  0  0  0
 39 64  1  0  0  0  0
 39 73  1  0  0  0  0
 39 80  2  0  0  0  0
 40 43  1  0  0  0  0
 41 50  1  0  0  0  0
 42 68  1  0  0  0  0
 43 45  1  0  0  0  0
 44 46  1  0  0  0  0
 44 47  1  0  0  0  0
 45 49  1  0  0  0  0
 46 51  1  0  0  0  0
 47 69  1  0  0  0  0
 48 51  1  0  0  0  0
 48 69  1  0  0  0  0
 49 72  1  0  0  0  0
 50 68  1  0  0  0  0
 51 67  1  0  0  0  0
 53 64  1  0  0  0  0
 54 65  1  0  0  0  0
 55 65  1  0  0  0  0
 56 65  1  0  0  0  0
 57 74  1  0  0  0  0
 58 61  1  0  0  0  0
 59 62  1  0  0  0  0
 60 82  1  0  0  0  0
 62 83  1  0  0  0  0
 63 65  1  0  0  0  0
 63 73  1  0  0  0  0
 64 74  1  0  0  0  0
 66 67  1  0  0  0  0
M  CHG  1  74   1
M  ISO  4  37 100  61 100  62 101  83 101
M  END
> <Batch ID>
0132

> <Smiles>
CNC(C)C(=O)NC(C(=O)N1Cc2cc([101O:1][101CH2:1]CC(=O)COc3cc(C)cc(C[100CH2:0][100C:0](=O)N4CCCC(n5nc(-c6ccc(Oc7ccc(F)cc7F)cc6)c(C(N)=O)c5N)C4)c3)ccc2CC1C(=O)NC1CCCc2ccccc21)C(C)(C)C

> <Shape>
0.304

> <Color>
0.207

> <Negative vol penalty>
0.000

$$$$

  -OEChem-04052302283D

 86 94  0     1  0  0  0  0  0999 V2000
  -17.1457  -29.9873   23.8783 C   0  0  0  0  0  0  0  0  0  0  0  0
  -18.4671  -30.4218   23.8577 C   0  0  0  0  0  0  0  0  0  0  0  0
  -25.3351  -14.8597   19.8427 C   0  0  0  0  0  0  0  0  0  0  0  0
  -24.0145  -14.5006   21.8337 C   0  0  0  0  0  0  0  0  0  0  0  0
  -16.8361  -28.6824   23.4972 C   0  0  0  0  0  0  0  0  0  0  0  0
  -19.4800  -29.5511   23.4570 C   0  0  0  0  0  0  0  0  0  0  0  0
  -25.8083  -29.5163   20.1003 C   0  0  0  0  0  0  0  0  0  0  0  0
  -30.3685  -27.7509   23.7393 C   0  0  0  0  0  0  0  0  0  0  0  0
  -29.0634  -27.3899   24.0740 C   0  0  0  0  0  0  0  0  0  0  0  0
  -25.6342  -13.4981   19.7955 C   0  0  0  0  0  0  0  0  0  0  0  0
  -24.3135  -13.1389   21.7865 C   0  0  0  0  0  0  0  0  0  0  0  0
  -27.1178  -29.0709   20.2751 C   0  0  0  0  0  0  0  0  0  0  0  0
  -23.2761  -10.4208   20.0673 C   0  0  0  0  0  0  0  0  0  0  0  0
  -22.2294   -9.5215   20.2705 C   0  0  0  0  0  0  0  0  0  0  0  0
  -30.5711  -25.7616   22.3833 C   0  0  0  0  0  0  0  0  0  0  0  0
  -26.4557  -26.8634   19.5625 C   0  0  0  0  0  0  0  0  0  0  0  0
  -23.3840   -8.6108   22.1874 C   0  0  0  0  0  0  0  0  0  0  0  0
  -24.5253  -15.3609   20.8619 C   0  0  0  0  0  0  0  0  0  0  0  0
  -29.2660  -25.4005   22.7180 C   0  0  0  0  0  0  0  0  0  0  0  0
  -23.1260  -17.4202   20.3062 C   0  0  0  0  0  0  0  0  0  0  0  0
  -17.8445  -27.7983   23.0824 C   0  0  0  0  0  0  0  0  0  0  0  0
  -24.8086  -28.6344   19.6649 C   0  0  0  0  0  0  0  0  0  0  0  0
  -19.1837  -28.2327   23.0713 C   0  0  0  0  0  0  0  0  0  0  0  0
  -25.1348  -27.3007   19.3805 C   0  0  0  0  0  0  0  0  0  0  0  0
  -31.1223  -26.9368   22.8938 C   0  0  0  0  0  0  0  0  0  0  0  0
  -28.5122  -26.2146   23.5634 C   0  0  0  0  0  0  0  0  0  0  0  0
  -25.1234  -12.6377   20.7673 C   0  0  0  0  0  0  0  0  0  0  0  0
  -27.4410  -27.7436   20.0090 C   0  0  0  0  0  0  0  0  0  0  0  0
  -24.3768  -10.4150   20.9241 C   0  0  0  0  0  0  0  0  0  0  0  0
  -22.2833   -8.6165   21.3306 C   0  0  0  0  0  0  0  0  0  0  0  0
  -24.4308   -9.5101   21.9841 C   0  0  0  0  0  0  0  0  0  0  0  0
  -24.2165  -16.7674   20.9115 C   0  0  0  0  0  0  0  0  0  0  0  0
  -23.2827  -18.7409   20.6494 C   0  0  0  0  0  0  0  0  0  0  0  0
  -28.7184  -24.1668   22.1690 C   0  0  0  0  0  0  0  0  0  0  0  0
  -28.7836  -22.9546   22.7563 C   0  0  0  0  0  0  0  0  0  0  0  0
  -30.9670  -27.5390   19.4622 C   0  0  0  0  0  0  0  0  0  0  0  0
  -22.0660  -16.8810   19.5053 C   0  0  0  0  0  0  0  0  0  0  0  0
  -32.2011  -27.4875   20.0011 C   0  0  0  0  0  0  0  0  0  0  0  0
  -28.1694  -21.7968   22.0759 C   0  0  0  0  0  0  0  0  0  0  0  0
  -22.0898  -27.5413   20.8966 C   0  0  0  0  0  0  0  0  0  0  0  0
  -21.7591  -26.1909   17.9659 C   0  0  0  0  0  0  0  0  0  0  0  0
  -23.2516  -25.0437   15.1193 C   0  0  0  0  0  0  0  0  0  0  0  0
  -17.4668  -26.3826   22.7248 C   0  0  0  0  0  0  0  0  0  0  0  0
  -23.4065  -29.1370   19.4557 C   0  0  0  0  0  0  0  0  0  0  0  0
  -24.1026  -26.3189   18.8914 C   0  0  0  0  0  0  0  0  0  0  0  0
  -18.5546  -25.6378   21.9552 C   0  0  0  0  0  0  0  0  0  0  0  0
  -25.0957  -21.5451   24.0560 C   0  0  0  0  0  0  0  0  0  0  0  0
  -19.9132  -25.8436   22.6176 C   0  0  0  0  0  0  0  0  0  0  0  0
  -24.4475  -20.3099   23.4363 C   0  0  0  0  0  0  0  0  0  0  0  0
  -26.6201  -21.4428   24.0735 C   0  0  0  0  0  0  0  0  0  0  0  0
  -26.5655  -19.9263   22.1146 C   0  0  0  0  0  0  0  0  0  0  0  0
  -20.3074  -27.3255   22.6192 C   0  0  1  0  0  0  0  0  0  0  0  0
  -22.3609  -28.0270   19.5008 C   0  0  1  0  0  0  0  0  0  0  0  0
  -25.0339  -20.0282   22.0438 C   0  0  1  0  0  0  0  0  0  0  0  0
  -33.2884  -26.6986   19.3169 C   0  0  0  0  0  0  0  0  0  0  0  0
  -27.0251  -25.2890   25.3574 C   0  0  0  0  0  0  0  0  0  0  0  0
  -22.7247  -23.9608   12.9177 C   0  0  0  0  0  0  0  0  0  0  0  0
  -21.3470  -23.5194   19.3813 C   0  0  0  0  0  0  0  0  0  0  0  0
  -21.7764  -22.3748   17.1964 C   0  0  0  0  0  0  0  0  0  0  0  0
  -19.8276  -23.9137   17.4344 C   0  0  0  0  0  0  0  0  0  0  0  0
  -24.3527  -27.3315   13.5986 C   0  0  0  0  0  0  0  0  0  0  0  0
  -32.5336  -27.3285   22.5326 C   0  0  0  0  0  0  0  0  0  0  0  0
  -27.1114  -25.8580   23.9450 C   0  0  0  0  0  0  0  0  0  0  0  0
  -29.7628  -28.2580   19.9815 C   0  0  0  0  0  0  0  0  0  1  0  0
  -32.6230  -28.1984   21.2706 C   0  0  0  0  0  0  0  0  0  0  0  0
  -22.1634  -24.8768   17.3424 C   0  0  1  0  0  0  0  0  0  0  0  0
  -22.9357  -25.2753   13.6527 C   0  0  2  0  0  0  0  0  0  0  0  0
  -21.2979  -23.6890   17.8497 C   0  0  0  0  0  0  0  0  0  0  0  0
  -25.0077  -17.6044   21.5879 N   0  0  0  0  0  0  0  0  0  0  0  0
  -24.4138  -18.7967   21.4096 N   0  0  0  0  0  0  0  0  0  0  0  0
  -27.1529  -21.1151   22.7426 N   0  0  0  0  0  0  0  0  0  0  0  0
  -22.7444  -26.8568   18.7085 N   0  0  0  0  0  0  0  0  0  0  0  0
  -22.5621  -19.8482   20.3720 N   0  0  0  0  0  0  0  0  0  0  0  0
  -22.0564  -15.5030   19.2496 N   0  0  0  0  0  0  0  0  0  0  0  0
  -20.7845  -27.7229   21.3119 N   0  0  0  0  0  0  0  0  0  0  0  0
  -22.1144  -25.0779   15.8983 N   0  0  0  0  0  0  0  0  0  0  0  0
  -24.0519  -26.0092   12.9920 N   0  3  0  0  0  0  0  0  0  0  0  0
  -21.1634  -17.6023   19.0170 O   0  0  0  0  0  0  0  0  0  0  0  0
  -28.5978  -21.5007   20.9590 O   0  0  0  0  0  0  0  0  0  0  0  0
  -22.9974  -27.0377   21.5480 O   0  0  0  0  0  0  0  0  0  0  0  0
  -20.6133  -26.6145   17.7942 O   0  0  0  0  0  0  0  0  0  0  0  0
  -24.3926  -24.8480   15.5321 O   0  0  0  0  0  0  0  0  0  0  0  0
  -25.4148  -11.3090   20.7214 O   0  0  0  0  0  0  0  0  0  0  0  0
  -28.7183  -27.3060   20.1794 O   0  0  0  0  0  0  0  0  0  1  0  0
  -21.2774   -7.7541   21.5266 F   0  0  0  0  0  0  0  0  0  0  0  0
  -25.4851   -9.5006   22.8113 F   0  0  0  0  0  0  0  0  0  0  0  0
  1  2  1  0  0  0  0
  1  5  2  0  0  0  0
  2  6  2  0  0  0  0
  3 10  2  0  0  0  0
  3 18  1  0  0  0  0
  4 11  1  0  0  0  0
  4 18  2  0  0  0  0
  5 21  1  0  0  0  0
  6 23  1  0  0  0  0
  7 12  2  0  0  0  0
  7 22  1  0  0  0  0
  8  9  2  0  0  0  0
  8 25  1  0  0  0  0
  9 26  1  0  0  0  0
 10 27  1  0  0  0  0
 11 27  2  0  0  0  0
 12 28  1  0  0  0  0
 13 14  2  0  0  0  0
 13 29  1  0  0  0  0
 14 30  1  0  0  0  0
 15 19  1  0  0  0  0
 15 25  2  0  0  0  0
 16 24  1  0  0  0  0
 16 28  2  0  0  0  0
 17 30  2  0  0  0  0
 17 31  1  0  0  0  0
 18 32  1  0  0  0  0
 19 26  2  0  0  0  0
 19 34  1  0  0  0  0
 20 32  1  0  0  0  0
 20 33  2  0  0  0  0
 20 37  1  0  0  0  0
 21 23  2  0  0  0  0
 21 43  1  0  0  0  0
 22 24  2  0  0  0  0
 22 44  1  0  0  0  0
 23 52  1  0  0  0  0
 24 45  1  0  0  0  0
 25 62  1  0  0  0  0
 26 63  1  0  0  0  0
 27 83  1  0  0  0  0
 28 84  1  0  0  0  0
 29 31  2  0  0  0  0
 29 83  1  0  0  0  0
 30 85  1  0  0  0  0
 31 86  1  0  0  0  0
 32 69  2  0  0  0  0
 33 70  1  0  0  0  0
 33 73  1  0  0  0  0
 34 35  2  0  0  0  0
 35 39  1  0  0  0  0
 36 38  2  0  0  0  0
 36 64  1  0  0  0  0
 37 74  1  0  0  0  0
 37 78  2  0  0  0  0
 38 55  1  0  0  0  0
 38 65  1  0  0  0  0
 39 71  1  0  0  0  0
 39 79  2  0  0  0  0
 40 53  1  0  0  0  0
 40 75  1  0  0  0  0
 40 80  2  0  0  0  0
 41 66  1  0  0  0  0
 41 72  1  0  0  0  0
 41 81  2  0  0  0  0
 42 67  1  0  0  0  0
 42 76  1  0  0  0  0
 42 82  2  0  0  0  0
 43 46  1  0  0  0  0
 44 53  1  0  0  0  0
 45 72  1  0  0  0  0
 46 48  1  0  0  0  0
 47 49  1  0  0  0  0
 47 50  1  0  0  0  0
 48 52  1  0  0  0  0
 49 54  1  0  0  0  0
 50 71  1  0  0  0  0
 51 54  1  0  0  0  0
 51 71  1  0  0  0  0
 52 75  1  0  0  0  0
 53 72  1  0  0  0  0
 54 70  1  0  0  0  0
 56 63  1  0  0  0  0
 57 67  1  0  0  0  0
 58 68  1  0  0  0  0
 59 68  1  0  0  0  0
 60 68  1  0  0  0  0
 61 77  1  0  0  0  0
 62 65  1  0  0  0  0
 64 84  1  0  0  0  0
 66 68  1  0  0  0  0
 66 76  1  0  0  0  0
 67 77  1  0  0  0  0
 69 70  1  0  0  0  0
M  CHG  1  77   1
M  ISO  4  35 100  39 100  64 101  84 101
M  END
> <Batch ID>
0132

> <Smiles>
CCc1ccc(CCC(C)=C[101CH2:1][101O:1]c2ccc3c(c2)CN(C(=O)C(NC(=O)C(C)NC)C(C)(C)C)C(C(=O)NC2CCCc4ccccc42)C3)cc1C=[100CH:0][100C:0](=O)N1CCCC(n2nc(-c3ccc(Oc4ccc(F)cc4F)cc3)c(C(N)=O)c2N)C1

> <Shape>
0.219

> <Color>
0.091

> <Negative vol penalty>
0.000

$$$$

  -OEChem-04052302283D

 82 90  0     1  0  0  0  0  0999 V2000
  -30.4475  -34.8806   20.6173 C   0  0  0  0  0  0  0  0  0  0  0  0
  -30.2781  -33.5004   20.5747 C   0  0  0  0  0  0  0  0  0  0  0  0
  -31.6928  -20.9090   24.4528 C   0  0  0  0  0  0  0  0  0  0  0  0
  -24.5537   -9.2863   22.1671 C   0  0  0  0  0  0  0  0  0  0  0  0
  -23.7157   -9.5906   19.9216 C   0  0  0  0  0  0  0  0  0  0  0  0
  -31.1584  -19.6223   24.3855 C   0  0  0  0  0  0  0  0  0  0  0  0
  -29.6774  -35.6497   21.4888 C   0  0  0  0  0  0  0  0  0  0  0  0
  -29.3393  -32.8884   21.4045 C   0  0  0  0  0  0  0  0  0  0  0  0
  -26.5611  -29.4240   18.9706 C   0  0  0  0  0  0  0  0  0  0  0  0
  -31.4577  -21.8167   23.4201 C   0  0  0  0  0  0  0  0  0  0  0  0
  -23.3613   -8.6584   22.5270 C   0  0  0  0  0  0  0  0  0  0  0  0
  -22.5233   -8.9627   20.2815 C   0  0  0  0  0  0  0  0  0  0  0  0
  -27.1525  -28.1833   18.7367 C   0  0  0  0  0  0  0  0  0  0  0  0
  -21.9417   -5.6115   22.1619 C   0  0  0  0  0  0  0  0  0  0  0  0
  -22.0275   -4.4365   22.9086 C   0  0  0  0  0  0  0  0  0  0  0  0
  -30.1538  -20.1510   22.2528 C   0  0  0  0  0  0  0  0  0  0  0  0
  -25.9660  -27.2681   20.6272 C   0  0  0  0  0  0  0  0  0  0  0  0
  -20.7649   -5.4749   24.6876 C   0  0  0  0  0  0  0  0  0  0  0  0
  -24.7309   -9.7524   20.8644 C   0  0  0  0  0  0  0  0  0  0  0  0
  -30.3889  -19.2433   23.2856 C   0  0  0  0  0  0  0  0  0  0  0  0
  -27.1221   -9.7928   19.9766 C   0  0  0  0  0  0  0  0  0  0  0  0
  -28.7220  -35.0479   22.3227 C   0  0  0  0  0  0  0  0  0  0  0  0
  -25.6746  -29.5990   20.0430 C   0  0  0  0  0  0  0  0  0  0  0  0
  -28.5568  -33.6500   22.2889 C   0  0  0  0  0  0  0  0  0  0  0  0
  -25.3627  -28.5113   20.8710 C   0  0  0  0  0  0  0  0  0  0  0  0
  -30.6882  -21.4377   22.3201 C   0  0  0  0  0  0  0  0  0  0  0  0
  -22.3461   -8.4966   21.5843 C   0  0  0  0  0  0  0  0  0  0  0  0
  -26.8573  -27.1058   19.5668 C   0  0  0  0  0  0  0  0  0  0  0  0
  -21.2675   -6.7182   22.6780 C   0  0  0  0  0  0  0  0  0  0  0  0
  -21.4391   -4.3682   24.1715 C   0  0  0  0  0  0  0  0  0  0  0  0
  -20.6791   -6.6499   23.9408 C   0  0  0  0  0  0  0  0  0  0  0  0
  -25.9622  -10.4016   20.4921 C   0  0  0  0  0  0  0  0  0  0  0  0
  -28.0006  -10.8318   19.7886 C   0  0  0  0  0  0  0  0  0  0  0  0
  -29.8322  -17.9012   23.2150 C   0  0  0  0  0  0  0  0  0  0  0  0
  -28.7924  -17.5245   22.4409 C   0  0  0  0  0  0  0  0  0  0  0  0
  -27.3821   -8.4117   19.6928 C   0  0  0  0  0  0  0  0  0  0  0  0
  -28.3485  -16.1164   22.4727 C   0  0  0  0  0  0  0  0  0  0  0  0
  -25.6517  -31.3977   22.6637 C   0  0  0  0  0  0  0  0  0  0  0  0
  -22.6611  -30.1864   22.9980 C   0  0  0  0  0  0  0  0  0  0  0  0
  -20.4540  -27.6816   22.2900 C   0  0  0  0  0  0  0  0  0  0  0  0
  -27.9463  -35.9154   23.2821 C   0  0  0  0  0  0  0  0  0  0  0  0
  -25.0244  -30.9370   20.2657 C   0  0  0  0  0  0  0  0  0  0  0  0
  -24.4019  -28.6419   22.0235 C   0  0  0  0  0  0  0  0  0  0  0  0
  -26.7101  -35.2307   23.8593 C   0  0  0  0  0  0  0  0  0  0  0  0
  -28.1408  -15.5095   18.8643 C   0  0  0  0  0  0  0  0  0  0  0  0
  -27.0507  -33.8189   24.3258 C   0  0  0  0  0  0  0  0  0  0  0  0
  -27.6146  -14.0769   18.8373 C   0  0  0  0  0  0  0  0  0  0  0  0
  -27.5816  -16.3018   20.0450 C   0  0  0  0  0  0  0  0  0  0  0  0
  -27.2778  -14.2094   21.3371 C   0  0  0  0  0  0  0  0  0  0  0  0
  -27.5312  -32.9521   23.1557 C   0  0  1  0  0  0  0  0  0  0  0  0
  -24.5328  -31.1315   21.6968 C   0  0  1  0  0  0  0  0  0  0  0  0
  -27.8642  -13.3799   20.1841 C   0  0  1  0  0  0  0  0  0  0  0  0
  -18.0948  -26.9509   22.7346 C   0  0  0  0  0  0  0  0  0  0  0  0
  -23.4636  -29.3151   25.8099 C   0  0  0  0  0  0  0  0  0  0  0  0
  -21.4683  -27.8030   25.8354 C   0  0  0  0  0  0  0  0  0  0  0  0
  -21.1590  -30.2698   25.6314 C   0  0  0  0  0  0  0  0  0  0  0  0
  -19.7623  -27.7676   19.4137 C   0  0  0  0  0  0  0  0  0  0  0  0
  -30.4332  -22.4198   21.2046 C   0  0  0  0  0  0  0  0  0  0  0  0
  -29.1727  -23.2687   21.4031 C   0  0  0  0  0  0  0  0  0  0  0  0
  -28.8888  -24.2033   20.2263 C   0  0  0  0  0  0  0  0  0  0  0  0
  -27.6535  -25.0578   20.4764 C   0  0  0  0  0  0  0  0  0  1  0  0
  -22.0695  -28.9680   23.6646 C   0  0  1  0  0  0  0  0  0  0  0  0
  -19.0184  -27.7134   21.7975 C   0  0  2  0  0  0  0  0  0  0  0  0
  -22.0597  -29.0867   25.2149 C   0  0  0  0  0  0  0  0  0  0  0  0
  -26.0892  -11.7247   20.6235 N   0  0  0  0  0  0  0  0  0  0  0  0
  -27.3394  -11.9559   20.1878 N   0  0  0  0  0  0  0  0  0  0  0  0
  -27.7804  -15.5876   21.3150 N   0  0  0  0  0  0  0  0  0  0  0  0
  -23.7968  -29.9718   22.2042 N   0  0  0  0  0  0  0  0  0  0  0  0
  -29.2665  -10.8843   19.3225 N   0  0  0  0  0  0  0  0  0  0  0  0
  -26.3697   -7.4758   19.9446 N   0  0  0  0  0  0  0  0  0  0  0  0
  -26.4071  -32.5133   22.3568 N   0  0  0  0  0  0  0  0  0  0  0  0
  -20.7502  -28.7783   23.0715 N   0  0  0  0  0  0  0  0  0  0  0  0
  -18.9221  -27.1015   20.4420 N   0  3  0  0  0  0  0  0  0  0  0  0
  -28.4855   -8.0171   19.2452 O   0  0  0  0  0  0  0  0  0  0  0  0
  -28.5037  -15.4949   23.5255 O   0  0  0  0  0  0  0  0  0  0  0  0
  -25.8165  -30.6473   23.6184 O   0  0  0  0  0  0  0  0  0  0  0  0
  -22.1308  -31.2869   23.1693 O   0  0  0  0  0  0  0  0  0  0  0  0
  -21.2334  -26.7728   22.0125 O   0  0  0  0  0  0  0  0  0  0  0  0
  -21.1826   -7.8838   21.9351 O   0  0  0  0  0  0  0  0  0  0  0  0
  -27.4336  -25.8939   19.3411 O   0  0  0  0  0  0  0  0  0  1  0  0
  -21.5202   -3.2393   24.8878 F   0  0  0  0  0  0  0  0  0  0  0  0
  -20.0292   -7.7095   24.4415 F   0  0  0  0  0  0  0  0  0  0  0  0
  1  2  1  0  0  0  0
  1  7  2  0  0  0  0
  2  8  2  0  0  0  0
  3  6  1  0  0  0  0
  3 10  2  0  0  0  0
  4 11  2  0  0  0  0
  4 19  1  0  0  0  0
  5 12  1  0  0  0  0
  5 19  2  0  0  0  0
  6 20  2  0  0  0  0
  7 22  1  0  0  0  0
  8 24  1  0  0  0  0
  9 13  2  0  0  0  0
  9 23  1  0  0  0  0
 10 26  1  0  0  0  0
 11 27  1  0  0  0  0
 12 27  2  0  0  0  0
 13 28  1  0  0  0  0
 14 15  2  0  0  0  0
 14 29  1  0  0  0  0
 15 30  1  0  0  0  0
 16 20  1  0  0  0  0
 16 26  2  0  0  0  0
 17 25  1  0  0  0  0
 17 28  2  0  0  0  0
 18 30  2  0  0  0  0
 18 31  1  0  0  0  0
 19 32  1  0  0  0  0
 20 34  1  0  0  0  0
 21 32  1  0  0  0  0
 21 33  2  0  0  0  0
 21 36  1  0  0  0  0
 22 24  2  0  0  0  0
 22 41  1  0  0  0  0
 23 25  2  0  0  0  0
 23 42  1  0  0  0  0
 24 50  1  0  0  0  0
 25 43  1  0  0  0  0
 26 58  1  0  0  0  0
 27 79  1  0  0  0  0
 28 80  1  0  0  0  0
 29 31  2  0  0  0  0
 29 79  1  0  0  0  0
 30 81  1  0  0  0  0
 31 82  1  0  0  0  0
 32 65  2  0  0  0  0
 33 66  1  0  0  0  0
 33 69  1  0  0  0  0
 34 35  2  0  0  0  0
 35 37  1  0  0  0  0
 36 70  1  0  0  0  0
 36 74  2  0  0  0  0
 37 67  1  0  0  0  0
 37 75  2  0  0  0  0
 38 51  1  0  0  0  0
 38 71  1  0  0  0  0
 38 76  2  0  0  0  0
 39 62  1  0  0  0  0
 39 68  1  0  0  0  0
 39 77  2  0  0  0  0
 40 63  1  0  0  0  0
 40 72  1  0  0  0  0
 40 78  2  0  0  0  0
 41 44  1  0  0  0  0
 42 51  1  0  0  0  0
 43 68  1  0  0  0  0
 44 46  1  0  0  0  0
 45 47  1  0  0  0  0
 45 48  1  0  0  0  0
 46 50  1  0  0  0  0
 47 52  1  0  0  0  0
 48 67  1  0  0  0  0
 49 52  1  0  0  0  0
 49 67  1  0  0  0  0
 50 71  1  0  0  0  0
 51 68  1  0  0  0  0
 52 66  1  0  0  0  0
 53 63  1  0  0  0  0
 54 64  1  0  0  0  0
 55 64  1  0  0  0  0
 56 64  1  0  0  0  0
 57 73  1  0  0  0  0
 58 59  1  0  0  0  0
 59 60  1  0  0  0  0
 60 61  1  0  0  0  0
 61 80  1  0  0  0  0
 62 64  1  0  0  0  0
 62 72  1  0  0  0  0
 63 73  1  0  0  0  0
 65 66  1  0  0  0  0
M  CHG  1  73   1
M  ISO  4  35 100  37 100  61 101  80 101
M  END
> <Batch ID>
0132

> <Smiles>
CNC(C)C(=O)NC(C(=O)N1Cc2cc([101O:1][101CH2:1]CCCc3cccc(C=[100CH:0][100C:0](=O)N4CCCC(n5nc(-c6ccc(Oc7ccc(F)cc7F)cc6)c(C(N)=O)c5N)C4)c3)ccc2CC1C(=O)NC1CCCc2ccccc21)C(C)(C)C

> <Shape>
0.281

> <Color>
0.105

> <Negative vol penalty>
0.000

$$$$

  -OEChem-04052302283D

 84 92  0     1  0  0  0  0  0999 V2000
  -19.3489  -24.0834   21.9474 C   0  0  0  0  0  0  0  0  0  0  0  0
  -20.5413  -24.4327   21.3216 C   0  0  0  0  0  0  0  0  0  0  0  0
  -30.6347  -22.8641   16.3748 C   0  0  0  0  0  0  0  0  0  0  0  0
  -27.9325  -12.9844   20.6132 C   0  0  0  0  0  0  0  0  0  0  0  0
  -29.7793  -14.2232   19.6688 C   0  0  0  0  0  0  0  0  0  0  0  0
  -18.5144  -25.0764   22.4588 C   0  0  0  0  0  0  0  0  0  0  0  0
  -20.8994  -25.7753   21.2059 C   0  0  0  0  0  0  0  0  0  0  0  0
  -25.7596  -26.5968   22.3670 C   0  0  0  0  0  0  0  0  0  0  0  0
  -31.6092  -23.3646   17.2380 C   0  0  0  0  0  0  0  0  0  0  0  0
  -29.3329  -22.6632   16.8340 C   0  0  0  0  0  0  0  0  0  0  0  0
  -28.2529  -11.8922   19.8069 C   0  0  0  0  0  0  0  0  0  0  0  0
  -30.0997  -13.1310   18.8626 C   0  0  0  0  0  0  0  0  0  0  0  0
  -26.7094  -26.2677   21.4010 C   0  0  0  0  0  0  0  0  0  0  0  0
  -31.6236  -10.5408   16.8164 C   0  0  0  0  0  0  0  0  0  0  0  0
  -32.9661  -10.1734   16.7243 C   0  0  0  0  0  0  0  0  0  0  0  0
  -26.8539  -28.5890   20.7609 C   0  0  0  0  0  0  0  0  0  0  0  0
  -29.9804  -23.4634   19.0197 C   0  0  0  0  0  0  0  0  0  0  0  0
  -33.0263   -9.7954   19.1098 C   0  0  0  0  0  0  0  0  0  0  0  0
  -28.6957  -14.1500   20.5441 C   0  0  0  0  0  0  0  0  0  0  0  0
  -28.8455  -15.5499   22.6713 C   0  0  0  0  0  0  0  0  0  0  0  0
  -18.8671  -26.4314   22.3578 C   0  0  0  0  0  0  0  0  0  0  0  0
  -25.3410  -27.9252   22.5301 C   0  0  0  0  0  0  0  0  0  0  0  0
  -20.0682  -26.7875   21.7152 C   0  0  0  0  0  0  0  0  0  0  0  0
  -25.9005  -28.9327   21.7314 C   0  0  0  0  0  0  0  0  0  0  0  0
  -31.2822  -23.6643   18.5605 C   0  0  0  0  0  0  0  0  0  0  0  0
  -29.0058  -22.9628   18.1564 C   0  0  0  0  0  0  0  0  0  0  0  0
  -29.3365  -11.9654   18.9317 C   0  0  0  0  0  0  0  0  0  0  0  0
  -27.2546  -27.2634   20.5958 C   0  0  0  0  0  0  0  0  0  0  0  0
  -30.9825  -10.5355   18.0553 C   0  0  0  0  0  0  0  0  0  0  0  0
  -33.6674   -9.8007   17.8710 C   0  0  0  0  0  0  0  0  0  0  0  0
  -31.6839  -10.1628   19.2019 C   0  0  0  0  0  0  0  0  0  0  0  0
  -28.3649  -15.2787   21.3762 C   0  0  0  0  0  0  0  0  0  0  0  0
  -28.2359  -16.7291   23.0239 C   0  0  0  0  0  0  0  0  0  0  0  0
  -29.7613  -14.8028   23.4831 C   0  0  0  0  0  0  0  0  0  0  0  0
  -22.5698  -29.4552   22.2426 C   0  0  0  0  0  0  0  0  0  0  0  0
  -31.0758  -26.3738   19.8745 C   0  0  0  0  0  0  0  0  0  0  0  0
  -25.9589  -21.2102   19.7304 C   0  0  0  0  0  0  0  0  0  0  0  0
  -24.2716  -31.9526   23.4212 C   0  0  0  0  0  0  0  0  0  0  0  0
  -27.3157  -33.4273   23.8748 C   0  0  0  0  0  0  0  0  0  0  0  0
  -17.9101  -27.4717   22.8838 C   0  0  0  0  0  0  0  0  0  0  0  0
  -24.3353  -28.2676   23.5948 C   0  0  0  0  0  0  0  0  0  0  0  0
  -25.4999  -30.3769   21.8804 C   0  0  0  0  0  0  0  0  0  0  0  0
  -18.5424  -28.8508   23.0528 C   0  0  0  0  0  0  0  0  0  0  0  0
  -24.2776  -19.2867   22.2430 C   0  0  0  0  0  0  0  0  0  0  0  0
  -19.3534  -29.2216   21.8152 C   0  0  0  0  0  0  0  0  0  0  0  0
  -25.1638  -18.0520   22.4027 C   0  0  0  0  0  0  0  0  0  0  0  0
  -24.2529  -19.7730   20.7974 C   0  0  0  0  0  0  0  0  0  0  0  0
  -26.4942  -18.8104   20.3828 C   0  0  0  0  0  0  0  0  0  0  0  0
  -20.5032  -28.2317   21.5922 C   0  0  1  0  0  0  0  0  0  0  0  0
  -23.6035  -29.5790   23.3259 C   0  0  1  0  0  0  0  0  0  0  0  0
  -26.5715  -18.3047   21.8342 C   0  0  2  0  0  0  0  0  0  0  0  0
  -28.3847  -35.4827   24.8391 C   0  0  0  0  0  0  0  0  0  0  0  0
  -23.3278  -33.5706   21.0126 C   0  0  0  0  0  0  0  0  0  0  0  0
  -25.1342  -35.2316   21.5085 C   0  0  0  0  0  0  0  0  0  0  0  0
  -23.3252  -34.8237   23.1769 C   0  0  0  0  0  0  0  0  0  0  0  0
  -28.8967  -31.8391   25.8079 C   0  0  0  0  0  0  0  0  0  0  0  0
  -32.3352  -24.2064   19.4919 C   0  0  0  0  0  0  0  0  0  0  0  0
  -27.6140  -22.7473   18.6475 C   0  0  0  0  0  0  0  0  0  0  0  0
  -32.3901  -25.7325   19.4560 C   0  0  0  0  0  0  0  0  0  0  0  0
  -30.4377  -27.2918   18.8405 C   0  0  0  0  0  0  0  0  0  0  0  0
  -27.3747  -21.3487   19.2300 C   0  0  0  0  0  0  0  0  0  0  0  0
  -29.1520  -27.9409   19.3321 C   0  0  0  0  0  0  0  0  0  1  0  0
  -25.1013  -33.0604   22.8183 C   0  0  1  0  0  0  0  0  0  0  0  0
  -27.9629  -34.0452   25.1011 C   0  0  2  0  0  0  0  0  0  0  0  0
  -24.2285  -34.1442   22.1247 C   0  0  0  0  0  0  0  0  0  0  0  0
  -27.5153  -16.2106   20.9359 N   0  0  0  0  0  0  0  0  0  0  0  0
  -27.4572  -17.0788   21.9601 N   0  0  0  0  0  0  0  0  0  0  0  0
  -24.5084  -30.6605   22.9312 N   0  0  0  0  0  0  0  0  0  0  0  0
  -25.6094  -19.9798   20.2871 N   0  0  0  0  0  0  0  0  0  0  0  0
  -28.2952  -17.4906   24.1370 N   0  0  0  0  0  0  0  0  0  0  0  0
  -30.2943  -13.6136   22.9673 N   0  0  0  0  0  0  0  0  0  0  0  0
  -21.5942  -28.5113   22.5010 N   0  0  0  0  0  0  0  0  0  0  0  0
  -25.9444  -33.5706   23.8940 N   0  0  0  0  0  0  0  0  0  0  0  0
  -29.1697  -33.2662   25.4980 N   0  3  0  0  0  0  0  0  0  0  0  0
  -30.0842  -15.1701   24.6382 O   0  0  0  0  0  0  0  0  0  0  0  0
  -22.6503  -30.1647   21.2467 O   0  0  0  0  0  0  0  0  0  0  0  0
  -30.5648  -26.1643   20.9734 O   0  0  0  0  0  0  0  0  0  0  0  0
  -25.1889  -22.1692   19.6314 O   0  0  0  0  0  0  0  0  0  0  0  0
  -23.4490  -32.2227   24.2998 O   0  0  0  0  0  0  0  0  0  0  0  0
  -27.9622  -32.8761   22.9867 O   0  0  0  0  0  0  0  0  0  0  0  0
  -29.6495  -10.8998   18.1450 O   0  0  0  0  0  0  0  0  0  0  0  0
  -28.1814  -26.9448   19.6516 O   0  0  0  0  0  0  0  0  0  1  0  0
  -34.9561   -9.4464   17.7821 F   0  0  0  0  0  0  0  0  0  0  0  0
  -31.0730  -10.1546   20.3946 F   0  0  0  0  0  0  0  0  0  0  0  0
  1  2  1  0  0  0  0
  1  6  2  0  0  0  0
  2  7  2  0  0  0  0
  3  9  2  0  0  0  0
  3 10  1  0  0  0  0
  4 11  2  0  0  0  0
  4 19  1  0  0  0  0
  5 12  1  0  0  0  0
  5 19  2  0  0  0  0
  6 21  1  0  0  0  0
  7 23  1  0  0  0  0
  8 13  2  0  0  0  0
  8 22  1  0  0  0  0
  9 25  1  0  0  0  0
 10 26  2  0  0  0  0
 11 27  1  0  0  0  0
 12 27  2  0  0  0  0
 13 28  1  0  0  0  0
 14 15  2  0  0  0  0
 14 29  1  0  0  0  0
 15 30  1  0  0  0  0
 16 24  1  0  0  0  0
 16 28  2  0  0  0  0
 17 25  2  0  0  0  0
 17 26  1  0  0  0  0
 18 30  2  0  0  0  0
 18 31  1  0  0  0  0
 19 32  1  0  0  0  0
 20 32  1  0  0  0  0
 20 33  2  0  0  0  0
 20 34  1  0  0  0  0
 21 23  2  0  0  0  0
 21 40  1  0  0  0  0
 22 24  2  0  0  0  0
 22 41  1  0  0  0  0
 23 49  1  0  0  0  0
 24 42  1  0  0  0  0
 25 57  1  0  0  0  0
 26 58  1  0  0  0  0
 27 81  1  0  0  0  0
 28 82  1  0  0  0  0
 29 31  2  0  0  0  0
 29 81  1  0  0  0  0
 30 83  1  0  0  0  0
 31 84  1  0  0  0  0
 32 66  2  0  0  0  0
 33 67  1  0  0  0  0
 33 70  1  0  0  0  0
 34 71  1  0  0  0  0
 34 75  2  0  0  0  0
 35 50  1  0  0  0  0
 35 72  1  0  0  0  0
 35 76  2  0  0  0  0
 36 59  1  0  0  0  0
 36 60  1  0  0  0  0
 36 77  2  0  0  0  0
 37 61  1  0  0  0  0
 37 69  1  0  0  0  0
 37 78  2  0  0  0  0
 38 63  1  0  0  0  0
 38 68  1  0  0  0  0
 38 79  2  0  0  0  0
 39 64  1  0  0  0  0
 39 73  1  0  0  0  0
 39 80  2  0  0  0  0
 40 43  1  0  0  0  0
 41 50  1  0  0  0  0
 42 68  1  0  0  0  0
 43 45  1  0  0  0  0
 44 46  1  0  0  0  0
 44 47  1  0  0  0  0
 45 49  1  0  0  0  0
 46 51  1  0  0  0  0
 47 69  1  0  0  0  0
 48 51  1  0  0  0  0
 48 69  1  0  0  0  0
 49 72  1  0  0  0  0
 50 68  1  0  0  0  0
 51 67  1  0  0  0  0
 52 64  1  0  0  0  0
 53 65  1  0  0  0  0
 54 65  1  0  0  0  0
 55 65  1  0  0  0  0
 56 74  1  0  0  0  0
 57 59  1  0  0  0  0
 58 61  1  0  0  0  0
 60 62  1  0  0  0  0
 62 82  1  0  0  0  0
 63 65  1  0  0  0  0
 63 73  1  0  0  0  0
 64 74  1  0  0  0  0
 66 67  1  0  0  0  0
M  CHG  1  74   1
M  ISO  4  37 100  61 100  62 101  82 101
M  END
> <Batch ID>
0132

> <Smiles>
CNC(C)C(=O)NC(C(=O)N1Cc2cc([101O:1][101CH2:1]CC(=O)CCc3cccc(C[100CH2:0][100C:0](=O)N4CCCC(n5nc(-c6ccc(Oc7ccc(F)cc7F)cc6)c(C(N)=O)c5N)C4)c3)ccc2CC1C(=O)NC1CCCc2ccccc21)C(C)(C)C

> <Shape>
0.260

> <Color>
0.094

> <Negative vol penalty>
0.000

$$$$

  -OEChem-04052302283D

 86 94  0     1  0  0  0  0  0999 V2000
  -25.7166  -35.1141   23.5311 C   0  0  0  0  0  0  0  0  0  0  0  0
  -26.3250  -33.9080   23.1987 C   0  0  0  0  0  0  0  0  0  0  0  0
  -21.2392  -14.0927   22.9075 C   0  0  0  0  0  0  0  0  0  0  0  0
  -21.7015  -15.7467   21.2082 C   0  0  0  0  0  0  0  0  0  0  0  0
  -24.4400  -35.1184   24.0916 C   0  0  0  0  0  0  0  0  0  0  0  0
  -25.6575  -32.7053   23.4277 C   0  0  0  0  0  0  0  0  0  0  0  0
  -25.9985  -29.5173   19.5078 C   0  0  0  0  0  0  0  0  0  0  0  0
  -19.9797  -14.6557   23.1129 C   0  0  0  0  0  0  0  0  0  0  0  0
  -20.4419  -16.3097   21.4136 C   0  0  0  0  0  0  0  0  0  0  0  0
  -27.1947  -28.8168   19.3590 C   0  0  0  0  0  0  0  0  0  0  0  0
  -18.9690  -18.3696   23.6538 C   0  0  0  0  0  0  0  0  0  0  0  0
  -18.8871  -19.7591   23.7440 C   0  0  0  0  0  0  0  0  0  0  0  0
  -26.1780  -26.8777   20.3716 C   0  0  0  0  0  0  0  0  0  0  0  0
  -29.6671  -19.4461   17.9793 C   0  0  0  0  0  0  0  0  0  0  0  0
  -29.5537  -20.4800   20.5679 C   0  0  0  0  0  0  0  0  0  0  0  0
  -17.4076  -19.7960   21.8343 C   0  0  0  0  0  0  0  0  0  0  0  0
  -22.1002  -14.6383   21.9552 C   0  0  0  0  0  0  0  0  0  0  0  0
  -23.7381  -13.0335   20.8374 C   0  0  0  0  0  0  0  0  0  0  0  0
  -23.7526  -33.9157   24.3186 C   0  0  0  0  0  0  0  0  0  0  0  0
  -24.8845  -28.9058   20.1005 C   0  0  0  0  0  0  0  0  0  0  0  0
  -24.3710  -32.6935   23.9930 C   0  0  0  0  0  0  0  0  0  0  0  0
  -24.9681  -27.5718   20.5244 C   0  0  0  0  0  0  0  0  0  0  0  0
  -29.9430  -18.6236   19.0715 C   0  0  0  0  0  0  0  0  0  0  0  0
  -29.3345  -20.7856   18.1814 C   0  0  0  0  0  0  0  0  0  0  0  0
  -29.8863  -19.1405   20.3658 C   0  0  0  0  0  0  0  0  0  0  0  0
  -19.5810  -15.7642   22.3660 C   0  0  0  0  0  0  0  0  0  0  0  0
  -27.2855  -27.4977   19.7936 C   0  0  0  0  0  0  0  0  0  0  0  0
  -18.2703  -17.6933   22.6537 C   0  0  0  0  0  0  0  0  0  0  0  0
  -29.2778  -21.3025   19.4757 C   0  0  0  0  0  0  0  0  0  0  0  0
  -18.1064  -20.4723   22.8343 C   0  0  0  0  0  0  0  0  0  0  0  0
  -17.4896  -18.4064   21.7441 C   0  0  0  0  0  0  0  0  0  0  0  0
  -23.4016  -14.0575   21.7429 C   0  0  0  0  0  0  0  0  0  0  0  0
  -25.0864  -12.8442   21.0188 C   0  0  0  0  0  0  0  0  0  0  0  0
  -22.9064  -12.3174   19.9148 C   0  0  0  0  0  0  0  0  0  0  0  0
  -23.1416  -29.4574   22.7008 C   0  0  0  0  0  0  0  0  0  0  0  0
  -29.4033  -16.4699   23.0997 C   0  0  0  0  0  0  0  0  0  0  0  0
  -21.3051  -27.0672   21.5024 C   0  0  0  0  0  0  0  0  0  0  0  0
  -21.0837  -24.3024   19.5139 C   0  0  0  0  0  0  0  0  0  0  0  0
  -22.3935  -33.9682   24.9704 C   0  0  0  0  0  0  0  0  0  0  0  0
  -23.5934  -29.6665   20.2294 C   0  0  0  0  0  0  0  0  0  0  0  0
  -23.7948  -26.8631   21.1486 C   0  0  0  0  0  0  0  0  0  0  0  0
  -21.6023  -32.6698   24.8345 C   0  0  0  0  0  0  0  0  0  0  0  0
  -28.5175  -13.2197   24.3210 C   0  0  0  0  0  0  0  0  0  0  0  0
  -22.4830  -31.4704   25.1699 C   0  0  0  0  0  0  0  0  0  0  0  0
  -27.1240  -12.9852   23.7393 C   0  0  0  0  0  0  0  0  0  0  0  0
  -28.7342  -14.6871   24.6771 C   0  0  0  0  0  0  0  0  0  0  0  0
  -27.1011  -15.3968   22.9593 C   0  0  0  0  0  0  0  0  0  0  0  0
  -23.6691  -31.3694   24.2032 C   0  0  1  0  0  0  0  0  0  0  0  0
  -22.6774  -29.1095   21.3148 C   0  0  1  0  0  0  0  0  0  0  0  0
  -26.8518  -13.9323   22.5573 C   0  0  2  0  0  0  0  0  0  0  0  0
  -31.5234  -17.0441   17.9338 C   0  0  0  0  0  0  0  0  0  0  0  0
  -27.5457  -21.8916   16.8162 C   0  0  0  0  0  0  0  0  0  0  0  0
  -19.4627  -22.5394   18.7648 C   0  0  0  0  0  0  0  0  0  0  0  0
  -21.5757  -25.6741   24.2035 C   0  0  0  0  0  0  0  0  0  0  0  0
  -20.7813  -23.5635   23.1162 C   0  0  0  0  0  0  0  0  0  0  0  0
  -19.2896  -25.5612   23.1959 C   0  0  0  0  0  0  0  0  0  0  0  0
  -21.3359  -25.1110   16.6782 C   0  0  0  0  0  0  0  0  0  0  0  0
  -30.2985  -17.1930   18.8311 C   0  0  0  0  0  0  0  0  0  0  0  0
  -29.0412  -21.6514   17.0008 C   0  0  0  0  0  0  0  0  0  0  0  0
  -30.1776  -18.2795   21.5508 C   0  0  0  0  0  0  0  0  0  0  0  0
  -29.0329  -17.3271   21.9156 C   0  0  0  0  0  0  0  0  0  0  0  0
  -29.8408  -24.8495   19.8561 C   0  0  0  0  0  0  0  0  0  0  0  0
  -28.4745  -25.4637   20.1175 C   0  0  0  0  0  0  0  0  0  1  0  0
  -29.9247  -23.4154   20.3548 C   0  0  0  0  0  0  0  0  0  0  0  0
  -21.2829  -25.5641   21.6407 C   0  0  1  0  0  0  0  0  0  0  0  0
  -20.0700  -23.8995   18.4583 C   0  0  2  0  0  0  0  0  0  0  0  0
  -20.7552  -25.1044   23.0291 C   0  0  0  0  0  0  0  0  0  0  0  0
  -24.4514  -14.4885   22.4473 N   0  0  0  0  0  0  0  0  0  0  0  0
  -25.4608  -13.7315   21.9845 N   0  0  0  0  0  0  0  0  0  0  0  0
  -22.5562  -27.6513   21.2586 N   0  0  0  0  0  0  0  0  0  0  0  0
  -28.4437  -15.5557   23.5349 N   0  0  0  0  0  0  0  0  0  0  0  0
  -25.9763  -12.0069   20.4448 N   0  0  0  0  0  0  0  0  0  0  0  0
  -21.5432  -12.6378   19.8569 N   0  0  0  0  0  0  0  0  0  0  0  0
  -23.2426  -30.8153   22.9361 N   0  0  0  0  0  0  0  0  0  0  0  0
  -20.5085  -25.0616   20.5109 N   0  0  0  0  0  0  0  0  0  0  0  0
  -20.7169  -23.8338   17.1173 N   0  3  0  0  0  0  0  0  0  0  0  0
  -23.3555  -11.4088   19.1758 O   0  0  0  0  0  0  0  0  0  0  0  0
  -23.3885  -28.5603   23.4983 O   0  0  0  0  0  0  0  0  0  0  0  0
  -30.5138  -16.6083   23.6192 O   0  0  0  0  0  0  0  0  0  0  0  0
  -20.2502  -27.6991   21.5998 O   0  0  0  0  0  0  0  0  0  0  0  0
  -22.2667  -23.9733   19.4615 O   0  0  0  0  0  0  0  0  0  0  0  0
  -18.3520  -16.3137   22.5660 O   0  0  0  0  0  0  0  0  0  0  0  0
  -28.4521  -26.8118   19.6502 O   0  0  0  0  0  0  0  0  0  1  0  0
  -28.9540  -22.6167   19.6919 O   0  0  0  0  0  0  0  0  0  0  0  0
  -18.0267  -21.8065   22.9221 F   0  0  0  0  0  0  0  0  0  0  0  0
  -16.8150  -17.7621   20.7820 F   0  0  0  0  0  0  0  0  0  0  0  0
  1  2  1  0  0  0  0
  1  5  2  0  0  0  0
  2  6  2  0  0  0  0
  3  8  2  0  0  0  0
  3 17  1  0  0  0  0
  4  9  1  0  0  0  0
  4 17  2  0  0  0  0
  5 19  1  0  0  0  0
  6 21  1  0  0  0  0
  7 10  2  0  0  0  0
  7 20  1  0  0  0  0
  8 26  1  0  0  0  0
  9 26  2  0  0  0  0
 10 27  1  0  0  0  0
 11 12  2  0  0  0  0
 11 28  1  0  0  0  0
 12 30  1  0  0  0  0
 13 22  1  0  0  0  0
 13 27  2  0  0  0  0
 14 23  1  0  0  0  0
 14 24  2  0  0  0  0
 15 25  1  0  0  0  0
 15 29  2  0  0  0  0
 16 30  2  0  0  0  0
 16 31  1  0  0  0  0
 17 32  1  0  0  0  0
 18 32  1  0  0  0  0
 18 33  2  0  0  0  0
 18 34  1  0  0  0  0
 19 21  2  0  0  0  0
 19 39  1  0  0  0  0
 20 22  2  0  0  0  0
 20 40  1  0  0  0  0
 21 48  1  0  0  0  0
 22 41  1  0  0  0  0
 23 25  2  0  0  0  0
 23 58  1  0  0  0  0
 24 29  1  0  0  0  0
 24 59  1  0  0  0  0
 25 60  1  0  0  0  0
 26 82  1  0  0  0  0
 27 83  1  0  0  0  0
 28 31  2  0  0  0  0
 28 82  1  0  0  0  0
 29 84  1  0  0  0  0
 30 85  1  0  0  0  0
 31 86  1  0  0  0  0
 32 68  2  0  0  0  0
 33 69  1  0  0  0  0
 33 72  1  0  0  0  0
 34 73  1  0  0  0  0
 34 77  2  0  0  0  0
 35 49  1  0  0  0  0
 35 74  1  0  0  0  0
 35 78  2  0  0  0  0
 36 61  1  0  0  0  0
 36 71  1  0  0  0  0
 36 79  2  0  0  0  0
 37 65  1  0  0  0  0
 37 70  1  0  0  0  0
 37 80  2  0  0  0  0
 38 66  1  0  0  0  0
 38 75  1  0  0  0  0
 38 81  2  0  0  0  0
 39 42  1  0  0  0  0
 40 49  1  0  0  0  0
 41 70  1  0  0  0  0
 42 44  1  0  0  0  0
 43 45  1  0  0  0  0
 43 46  1  0  0  0  0
 44 48  1  0  0  0  0
 45 50  1  0  0  0  0
 46 71  1  0  0  0  0
 47 50  1  0  0  0  0
 47 71  1  0  0  0  0
 48 74  1  0  0  0  0
 49 70  1  0  0  0  0
 50 69  1  0  0  0  0
 51 58  1  0  0  0  0
 52 59  1  0  0  0  0
 53 66  1  0  0  0  0
 54 67  1  0  0  0  0
 55 67  1  0  0  0  0
 56 67  1  0  0  0  0
 57 76  1  0  0  0  0
 60 61  1  0  0  0  0
 62 63  1  0  0  0  0
 62 64  1  0  0  0  0
 63 83  1  0  0  0  0
 64 84  1  0  0  0  0
 65 67  1  0  0  0  0
 65 75  1  0  0  0  0
 66 76  1  0  0  0  0
 68 69  1  0  0  0  0
M  CHG  1  76   1
M  ISO  4  36 100  61 100  63 101  83 101
M  END
> <Batch ID>
0132

> <Smiles>
CCc1cc(CC)c(OCC[101CH2:1][101O:1]c2ccc3c(c2)CN(C(=O)C(NC(=O)C(C)NC)C(C)(C)C)C(C(=O)NC2CCCc4ccccc42)C3)cc1C[100CH2:0][100C:0](=O)N1CCCC(n2nc(-c3ccc(Oc4ccc(F)cc4F)cc3)c(C(N)=O)c2N)C1

> <Shape>
0.227

> <Color>
0.080

> <Negative vol penalty>
0.000

$$$$

  -OEChem-04052302283D

 86 94  0     1  0  0  0  0  0999 V2000
  -15.6992  -17.7908   32.5158 C   0  0  0  0  0  0  0  0  0  0  0  0
  -17.0349  -18.1620   32.4001 C   0  0  0  0  0  0  0  0  0  0  0  0
  -23.0751   -9.8670   19.9430 C   0  0  0  0  0  0  0  0  0  0  0  0
  -23.8282   -9.8818   22.2385 C   0  0  0  0  0  0  0  0  0  0  0  0
  -14.8379  -17.9435   31.4301 C   0  0  0  0  0  0  0  0  0  0  0  0
  -17.5104  -18.6852   31.1982 C   0  0  0  0  0  0  0  0  0  0  0  0
  -21.8066  -22.9938   30.5023 C   0  0  0  0  0  0  0  0  0  0  0  0
  -22.3299   -8.7152   20.1948 C   0  0  0  0  0  0  0  0  0  0  0  0
  -23.0830   -8.7299   22.4904 C   0  0  0  0  0  0  0  0  0  0  0  0
  -23.1686  -22.9223   30.2129 C   0  0  0  0  0  0  0  0  0  0  0  0
  -19.3769   -7.9253   21.6403 C   0  0  0  0  0  0  0  0  0  0  0  0
  -18.0715   -7.8780   21.1513 C   0  0  0  0  0  0  0  0  0  0  0  0
  -22.6852  -23.2845   27.8774 C   0  0  0  0  0  0  0  0  0  0  0  0
  -31.5976  -19.3920   22.7829 C   0  0  0  0  0  0  0  0  0  0  0  0
  -31.4983  -17.6284   21.1346 C   0  0  0  0  0  0  0  0  0  0  0  0
  -18.6340   -5.9299   19.8377 C   0  0  0  0  0  0  0  0  0  0  0  0
  -23.8243  -10.4503   20.9648 C   0  0  0  0  0  0  0  0  0  0  0  0
  -24.1679  -12.9748   20.8367 C   0  0  0  0  0  0  0  0  0  0  0  0
  -15.3008  -18.4779   30.2174 C   0  0  0  0  0  0  0  0  0  0  0  0
  -20.8713  -23.2007   29.4782 C   0  0  0  0  0  0  0  0  0  0  0  0
  -16.6548  -18.8440   30.0949 C   0  0  0  0  0  0  0  0  0  0  0  0
  -21.3122  -23.3608   28.1568 C   0  0  0  0  0  0  0  0  0  0  0  0
  -30.6816  -18.7018   23.5767 C   0  0  0  0  0  0  0  0  0  0  0  0
  -30.1740  -17.4748   23.1495 C   0  0  0  0  0  0  0  0  0  0  0  0
  -30.5823  -16.9381   21.9284 C   0  0  0  0  0  0  0  0  0  0  0  0
  -22.3338   -8.1466   21.4686 C   0  0  0  0  0  0  0  0  0  0  0  0
  -23.6078  -23.0647   28.8999 C   0  0  0  0  0  0  0  0  0  0  0  0
  -20.3110   -6.9750   21.2279 C   0  0  0  0  0  0  0  0  0  0  0  0
  -17.7000   -6.8804   20.2501 C   0  0  0  0  0  0  0  0  0  0  0  0
  -32.0059  -18.8553   21.5618 C   0  0  0  0  0  0  0  0  0  0  0  0
  -19.9395   -5.9773   20.3266 C   0  0  0  0  0  0  0  0  0  0  0  0
  -24.5948  -11.6399   20.7051 C   0  0  0  0  0  0  0  0  0  0  0  0
  -25.2615  -13.7224   20.4740 C   0  0  0  0  0  0  0  0  0  0  0  0
  -22.8964  -13.4928   21.2501 C   0  0  0  0  0  0  0  0  0  0  0  0
  -18.4343  -21.5369   28.2964 C   0  0  0  0  0  0  0  0  0  0  0  0
  -17.9517  -24.2268   26.5489 C   0  0  0  0  0  0  0  0  0  0  0  0
  -19.2573  -27.0722   25.1902 C   0  0  0  0  0  0  0  0  0  0  0  0
  -30.7277  -14.7658   20.6611 C   0  0  0  0  0  0  0  0  0  0  0  0
  -14.3432  -18.5801   29.0566 C   0  0  0  0  0  0  0  0  0  0  0  0
  -19.4078  -23.3020   29.8105 C   0  0  0  0  0  0  0  0  0  0  0  0
  -20.3502  -23.6049   27.0239 C   0  0  0  0  0  0  0  0  0  0  0  0
  -14.8389  -19.4911   27.9365 C   0  0  0  0  0  0  0  0  0  0  0  0
  -29.6190  -12.3441   18.2982 C   0  0  0  0  0  0  0  0  0  0  0  0
  -16.2959  -19.1851   27.6048 C   0  0  0  0  0  0  0  0  0  0  0  0
  -28.1779  -12.0548   18.7246 C   0  0  0  0  0  0  0  0  0  0  0  0
  -30.5307  -12.5767   19.5017 C   0  0  0  0  0  0  0  0  0  0  0  0
  -28.6200  -13.3071   20.8747 C   0  0  0  0  0  0  0  0  0  0  0  0
  -17.2024  -19.4384   28.8154 C   0  0  1  0  0  0  0  0  0  0  0  0
  -18.5026  -23.0027   28.6195 C   0  0  1  0  0  0  0  0  0  0  0  0
  -27.6506  -13.1301   19.6947 C   0  0  2  0  0  0  0  0  0  0  0  0
  -29.1913  -16.7374   24.0045 C   0  0  0  0  0  0  0  0  0  0  0  0
  -18.6271  -29.0520   23.7829 C   0  0  0  0  0  0  0  0  0  0  0  0
  -17.9891  -22.4651   24.0580 C   0  0  0  0  0  0  0  0  0  0  0  0
  -18.3127  -24.5335   22.6850 C   0  0  0  0  0  0  0  0  0  0  0  0
  -16.2404  -24.2530   24.0451 C   0  0  0  0  0  0  0  0  0  0  0  0
  -19.9325  -28.9730   27.3559 C   0  0  0  0  0  0  0  0  0  0  0  0
  -30.2587  -19.3035   24.8925 C   0  0  0  0  0  0  0  0  0  0  0  0
  -28.8672  -19.9363   24.8037 C   0  0  0  0  0  0  0  0  0  0  0  0
  -26.6544  -21.8035   27.4005 C   0  0  0  0  0  0  0  0  0  0  0  0
  -27.0855  -21.2298   26.0464 C   0  0  0  0  0  0  0  0  0  0  0  0
  -25.2991  -22.4966   27.3274 C   0  0  0  0  0  0  0  0  0  1  0  0
  -18.4323  -24.7327   25.2102 C   0  0  1  0  0  0  0  0  0  0  0  0
  -18.7663  -28.5086   25.1965 C   0  0  2  0  0  0  0  0  0  0  0  0
  -28.4380  -20.5259   26.1459 C   0  0  2  0  0  0  0  0  0  0  0  0
  -17.7618  -23.9895   24.0204 C   0  0  0  0  0  0  0  0  0  0  0  0
  -25.8608  -11.5419   20.2908 N   0  0  0  0  0  0  0  0  0  0  0  0
  -26.2388  -12.8248   20.1590 N   0  0  0  0  0  0  0  0  0  0  0  0
  -18.9290  -23.6897   27.3987 N   0  0  0  0  0  0  0  0  0  0  0  0
  -29.9697  -13.6110   20.3737 N   0  0  0  0  0  0  0  0  0  0  0  0
  -25.4728  -15.0535   20.3968 N   0  0  0  0  0  0  0  0  0  0  0  0
  -21.8830  -12.5854   21.5876 N   0  0  0  0  0  0  0  0  0  0  0  0
  -30.0784  -15.6941   21.4743 N   0  0  0  0  0  0  0  0  0  0  0  0
  -17.4438  -20.8560   28.9782 N   0  0  0  0  0  0  0  0  0  0  0  0
  -18.2108  -26.1747   25.2153 N   0  0  0  0  0  0  0  0  0  0  0  0
  -19.7189  -29.3784   25.9427 N   0  3  0  0  0  0  0  0  0  0  0  0
  -22.6607  -14.7238   21.3023 O   0  0  0  0  0  0  0  0  0  0  0  0
  -19.2210  -21.0593   27.4872 O   0  0  0  0  0  0  0  0  0  0  0  0
  -16.7543  -24.3119   26.8331 O   0  0  0  0  0  0  0  0  0  0  0  0
  -20.4497  -26.7760   25.1619 O   0  0  0  0  0  0  0  0  0  0  0  0
  -31.8583  -14.9322   20.1962 O   0  0  0  0  0  0  0  0  0  0  0  0
  -21.6065   -7.0228   21.7148 O   0  0  0  0  0  0  0  0  0  0  0  0
  -24.9366  -22.9947   28.6146 O   0  0  0  0  0  0  0  0  0  1  0  0
  -16.4459   -6.8341   19.7818 F   0  0  0  0  0  0  0  0  0  0  0  0
  -32.8839  -19.5191   20.7984 F   0  0  0  0  0  0  0  0  0  0  0  0
  -20.8322   -5.0608   19.9277 F   0  0  0  0  0  0  0  0  0  0  0  0
  -29.3707  -21.4438   26.5278 F   0  0  0  0  0  0  0  0  0  0  0  0
  1  2  1  0  0  0  0
  1  5  2  0  0  0  0
  2  6  2  0  0  0  0
  3  8  2  0  0  0  0
  3 17  1  0  0  0  0
  4  9  1  0  0  0  0
  4 17  2  0  0  0  0
  5 19  1  0  0  0  0
  6 21  1  0  0  0  0
  7 10  2  0  0  0  0
  7 20  1  0  0  0  0
  8 26  1  0  0  0  0
  9 26  2  0  0  0  0
 10 27  1  0  0  0  0
 11 12  2  0  0  0  0
 11 28  1  0  0  0  0
 12 29  1  0  0  0  0
 13 22  1  0  0  0  0
 13 27  2  0  0  0  0
 14 23  1  0  0  0  0
 14 30  2  0  0  0  0
 15 25  2  0  0  0  0
 15 30  1  0  0  0  0
 16 29  2  0  0  0  0
 16 31  1  0  0  0  0
 17 32  1  0  0  0  0
 18 32  1  0  0  0  0
 18 33  2  0  0  0  0
 18 34  1  0  0  0  0
 19 21  2  0  0  0  0
 19 39  1  0  0  0  0
 20 22  2  0  0  0  0
 20 40  1  0  0  0  0
 21 48  1  0  0  0  0
 22 41  1  0  0  0  0
 23 24  2  0  0  0  0
 23 57  1  0  0  0  0
 24 25  1  0  0  0  0
 24 51  1  0  0  0  0
 25 72  1  0  0  0  0
 26 81  1  0  0  0  0
 27 82  1  0  0  0  0
 28 31  2  0  0  0  0
 28 81  1  0  0  0  0
 29 83  1  0  0  0  0
 30 84  1  0  0  0  0
 31 85  1  0  0  0  0
 32 66  2  0  0  0  0
 33 67  1  0  0  0  0
 33 70  1  0  0  0  0
 34 71  1  0  0  0  0
 34 76  2  0  0  0  0
 35 49  1  0  0  0  0
 35 73  1  0  0  0  0
 35 77  2  0  0  0  0
 36 62  1  0  0  0  0
 36 68  1  0  0  0  0
 36 78  2  0  0  0  0
 37 63  1  0  0  0  0
 37 74  1  0  0  0  0
 37 79  2  0  0  0  0
 38 69  1  0  0  0  0
 38 72  1  0  0  0  0
 38 80  2  0  0  0  0
 39 42  1  0  0  0  0
 40 49  1  0  0  0  0
 41 68  1  0  0  0  0
 42 44  1  0  0  0  0
 43 45  1  0  0  0  0
 43 46  1  0  0  0  0
 44 48  1  0  0  0  0
 45 50  1  0  0  0  0
 46 69  1  0  0  0  0
 47 50  1  0  0  0  0
 47 69  1  0  0  0  0
 48 73  1  0  0  0  0
 49 68  1  0  0  0  0
 50 67  1  0  0  0  0
 52 63  1  0  0  0  0
 53 65  1  0  0  0  0
 54 65  1  0  0  0  0
 55 65  1  0  0  0  0
 56 75  1  0  0  0  0
 57 58  1  0  0  0  0
 58 64  1  0  0  0  0
 59 60  1  0  0  0  0
 59 61  1  0  0  0  0
 60 64  1  0  0  0  0
 61 82  1  0  0  0  0
 62 65  1  0  0  0  0
 62 74  1  0  0  0  0
 63 75  1  0  0  0  0
 64 86  1  0  0  0  0
 66 67  1  0  0  0  0
M  CHG  1  75   1
M  ISO  4  38 100  61 101  72 100  82 101
M  END
> <Batch ID>
0132

> <Smiles>
CNC(C)C(=O)NC(C(=O)N1Cc2cc([101O:1][101CH2:1]CCC(F)CCc3cc(F)cc([100NH:0][100C:0](=O)N4CCCC(n5nc(-c6ccc(Oc7ccc(F)cc7F)cc6)c(C(N)=O)c5N)C4)c3C)ccc2CC1C(=O)NC1CCCc2ccccc21)C(C)(C)C

> <Shape>
0.162

> <Color>
0.200

> <Negative vol penalty>
0.000

$$$$

  -OEChem-04052302283D

 86 95  0     1  0  0  0  0  0999 V2000
  -18.7978  -32.8187   19.7548 C   0  0  0  0  0  0  0  0  0  0  0  0
  -20.0480  -32.3315   19.3874 C   0  0  0  0  0  0  0  0  0  0  0  0
  -24.3352  -13.5394   21.2348 C   0  0  0  0  0  0  0  0  0  0  0  0
  -26.1828  -13.3379   19.6911 C   0  0  0  0  0  0  0  0  0  0  0  0
  -18.3628  -32.6951   21.0736 C   0  0  0  0  0  0  0  0  0  0  0  0
  -20.8645  -31.7214   20.3390 C   0  0  0  0  0  0  0  0  0  0  0  0
  -24.7083  -27.0402   19.4346 C   0  0  0  0  0  0  0  0  0  0  0  0
  -34.4104  -23.6957   18.0215 C   0  0  0  0  0  0  0  0  0  0  0  0
  -33.8664  -24.9734   18.1530 C   0  0  0  0  0  0  0  0  0  0  0  0
  -24.4141  -12.1738   21.5076 C   0  0  0  0  0  0  0  0  0  0  0  0
  -26.2618  -11.9723   19.9640 C   0  0  0  0  0  0  0  0  0  0  0  0
  -26.0853  -26.9845   19.2241 C   0  0  0  0  0  0  0  0  0  0  0  0
  -23.4582   -9.2820   20.0420 C   0  0  0  0  0  0  0  0  0  0  0  0
  -22.2661   -8.5587   20.0758 C   0  0  0  0  0  0  0  0  0  0  0  0
  -31.6469  -24.0214   18.2203 C   0  0  0  0  0  0  0  0  0  0  0  0
  -26.4220  -26.5695   21.5765 C   0  0  0  0  0  0  0  0  0  0  0  0
  -22.7016   -7.9482   22.3725 C   0  0  0  0  0  0  0  0  0  0  0  0
  -25.2195  -14.1215   20.3265 C   0  0  0  0  0  0  0  0  0  0  0  0
  -32.1909  -22.7438   18.0887 C   0  0  0  0  0  0  0  0  0  0  0  0
  -24.0372  -16.2303   19.5122 C   0  0  0  0  0  0  0  0  0  0  0  0
  -19.1703  -32.0746   22.0398 C   0  0  0  0  0  0  0  0  0  0  0  0
  -24.1776  -26.8716   20.7216 C   0  0  0  0  0  0  0  0  0  0  0  0
  -20.4404  -31.5906   21.6724 C   0  0  0  0  0  0  0  0  0  0  0  0
  -25.0377  -26.6210   21.8002 C   0  0  0  0  0  0  0  0  0  0  0  0
  -33.5726  -22.5809   17.9892 C   0  0  0  0  0  0  0  0  0  0  0  0
  -32.4847  -25.1362   18.2524 C   0  0  0  0  0  0  0  0  0  0  0  0
  -25.3774  -11.3902   20.8723 C   0  0  0  0  0  0  0  0  0  0  0  0
  -26.9427  -26.7520   20.2956 C   0  0  0  0  0  0  0  0  0  0  0  0
  -24.2721   -9.3385   21.1734 C   0  0  0  0  0  0  0  0  0  0  0  0
  -21.8878   -7.8918   21.2411 C   0  0  0  0  0  0  0  0  0  0  0  0
  -23.8938   -8.6716   22.3387 C   0  0  0  0  0  0  0  0  0  0  0  0
  -25.1380  -15.5320   20.0437 C   0  0  0  0  0  0  0  0  0  0  0  0
  -24.4622  -17.5341   19.4358 C   0  0  0  0  0  0  0  0  0  0  0  0
  -30.2236  -27.8615   19.3383 C   0  0  0  0  0  0  0  0  0  0  0  0
  -31.2899  -21.5989   18.0589 C   0  0  0  0  0  0  0  0  0  0  0  0
  -28.9055  -27.8027   19.5786 C   0  0  0  0  0  0  0  0  0  1  0  0
  -30.8600  -20.9156   19.1391 C   0  0  0  0  0  0  0  0  0  0  0  0
  -22.7460  -15.7438   19.1226 C   0  0  0  0  0  0  0  0  0  0  0  0
  -29.9367  -19.7795   18.9453 C   0  0  0  0  0  0  0  0  0  0  0  0
  -22.4784  -28.6858   22.7028 C   0  0  0  0  0  0  0  0  0  0  0  0
  -22.3915  -25.9773   24.4856 C   0  0  0  0  0  0  0  0  0  0  0  0
  -23.8192  -22.9787   25.2711 C   0  0  0  0  0  0  0  0  0  0  0  0
  -18.6767  -32.0064   23.4633 C   0  0  0  0  0  0  0  0  0  0  0  0
  -22.6880  -26.9079   20.9277 C   0  0  0  0  0  0  0  0  0  0  0  0
  -24.5170  -26.4131   23.1981 C   0  0  0  0  0  0  0  0  0  0  0  0
  -30.8827  -29.0881   18.7719 C   0  0  0  0  0  0  0  0  0  0  0  0
  -31.1458  -26.6966   19.5923 C   0  0  0  0  0  0  0  0  0  0  0  0
  -19.4469  -31.0118   24.3281 C   0  0  0  0  0  0  0  0  0  0  0  0
  -31.6548  -28.7120   17.5120 C   0  0  0  0  0  0  0  0  0  0  0  0
  -27.4447  -20.6377   21.4918 C   0  0  0  0  0  0  0  0  0  0  0  0
  -20.9494  -31.1798   24.1255 C   0  0  0  0  0  0  0  0  0  0  0  0
  -26.4928  -19.4495   21.3834 C   0  0  0  0  0  0  0  0  0  0  0  0
  -32.6291  -27.5585   17.7608 C   0  0  0  0  0  0  0  0  0  0  0  0
  -28.8951  -20.2341   21.2310 C   0  0  0  0  0  0  0  0  0  0  0  0
  -28.1405  -18.3392   19.8238 C   0  0  0  0  0  0  0  0  0  0  0  0
  -21.3446  -30.9004   22.6704 C   0  0  1  0  0  0  0  0  0  0  0  0
  -22.2913  -27.2339   22.3642 C   0  0  1  0  0  0  0  0  0  0  0  0
  -26.6700  -18.7313   20.0362 C   0  0  1  0  0  0  0  0  0  0  0  0
  -34.1908  -21.2272   17.8471 C   0  0  0  0  0  0  0  0  0  0  0  0
  -24.0652  -20.7307   26.3589 C   0  0  0  0  0  0  0  0  0  0  0  0
  -23.4665  -27.6265   26.8168 C   0  0  0  0  0  0  0  0  0  0  0  0
  -24.0571  -25.4839   27.9694 C   0  0  0  0  0  0  0  0  0  0  0  0
  -21.6750  -25.9938   27.4326 C   0  0  0  0  0  0  0  0  0  0  0  0
  -22.3293  -21.6341   23.0959 C   0  0  0  0  0  0  0  0  0  0  0  0
  -23.2624  -25.3785   25.5635 C   0  0  1  0  0  0  0  0  0  0  0  0
  -23.2253  -21.5904   25.4270 C   0  0  2  0  0  0  0  0  0  0  0  0
  -23.1255  -26.1265   26.9197 C   0  0  0  0  0  0  0  0  0  0  0  0
  -26.1837  -16.3264   20.2875 N   0  0  0  0  0  0  0  0  0  0  0  0
  -25.7419  -17.5374   19.9074 N   0  0  0  0  0  0  0  0  0  0  0  0
  -31.9387  -26.4202   18.3832 N   0  0  1  0  0  0  0  0  0  0  0  0
  -29.0295  -19.4977   19.9651 N   0  0  0  0  0  0  0  0  0  0  0  0
  -23.0534  -26.4641   23.3496 N   0  0  0  0  0  0  0  0  0  0  0  0
  -23.8623  -18.6667   19.0117 N   0  0  0  0  0  0  0  0  0  0  0  0
  -22.4756  -14.3763   19.2676 N   0  0  0  0  0  0  0  0  0  0  0  0
  -21.3798  -29.4752   22.4211 N   0  0  0  0  0  0  0  0  0  0  0  0
  -22.9195  -23.9618   25.6252 N   0  0  0  0  0  0  0  0  0  0  0  0
  -23.1455  -20.9095   24.1038 N   0  3  0  0  0  0  0  0  0  0  0  0
  -21.8641  -16.4967   18.6442 O   0  0  0  0  0  0  0  0  0  0  0  0
  -30.0286  -19.1454   17.8926 O   0  0  0  0  0  0  0  0  0  0  0  0
  -23.5402  -29.0618   23.1853 O   0  0  0  0  0  0  0  0  0  0  0  0
  -21.1683  -26.0054   24.6426 O   0  0  0  0  0  0  0  0  0  0  0  0
  -24.9676  -23.1716   24.8782 O   0  0  0  0  0  0  0  0  0  0  0  0
  -25.4550  -10.0577   21.1385 O   0  0  0  0  0  0  0  0  0  0  0  0
  -28.2872  -26.6978   20.0930 O   0  0  0  0  0  0  0  0  0  1  0  0
  -20.7422   -7.1984   21.2739 F   0  0  0  0  0  0  0  0  0  0  0  0
  -24.6710   -8.7231   23.4291 F   0  0  0  0  0  0  0  0  0  0  0  0
  1  2  1  0  0  0  0
  1  5  2  0  0  0  0
  2  6  2  0  0  0  0
  3 10  2  0  0  0  0
  3 18  1  0  0  0  0
  4 11  1  0  0  0  0
  4 18  2  0  0  0  0
  5 21  1  0  0  0  0
  6 23  1  0  0  0  0
  7 12  2  0  0  0  0
  7 22  1  0  0  0  0
  8  9  2  0  0  0  0
  8 25  1  0  0  0  0
  9 26  1  0  0  0  0
 10 27  1  0  0  0  0
 11 27  2  0  0  0  0
 12 28  1  0  0  0  0
 13 14  2  0  0  0  0
 13 29  1  0  0  0  0
 14 30  1  0  0  0  0
 15 19  1  0  0  0  0
 15 26  2  0  0  0  0
 16 24  1  0  0  0  0
 16 28  2  0  0  0  0
 17 30  2  0  0  0  0
 17 31  1  0  0  0  0
 18 32  1  0  0  0  0
 19 25  2  0  0  0  0
 19 35  1  0  0  0  0
 20 32  1  0  0  0  0
 20 33  2  0  0  0  0
 20 38  1  0  0  0  0
 21 23  2  0  0  0  0
 21 43  1  0  0  0  0
 22 24  2  0  0  0  0
 22 44  1  0  0  0  0
 23 56  1  0  0  0  0
 24 45  1  0  0  0  0
 25 59  1  0  0  0  0
 26 70  1  0  0  0  0
 27 83  1  0  0  0  0
 28 84  1  0  0  0  0
 29 31  2  0  0  0  0
 29 83  1  0  0  0  0
 30 85  1  0  0  0  0
 31 86  1  0  0  0  0
 32 68  2  0  0  0  0
 33 69  1  0  0  0  0
 33 73  1  0  0  0  0
 34 36  2  0  0  0  0
 34 46  1  0  0  0  0
 34 47  1  0  0  0  0
 35 37  2  0  0  0  0
 36 84  1  0  0  0  0
 37 39  1  0  0  0  0
 38 74  1  0  0  0  0
 38 78  2  0  0  0  0
 39 71  1  0  0  0  0
 39 79  2  0  0  0  0
 40 57  1  0  0  0  0
 40 75  1  0  0  0  0
 40 80  2  0  0  0  0
 41 65  1  0  0  0  0
 41 72  1  0  0  0  0
 41 81  2  0  0  0  0
 42 66  1  0  0  0  0
 42 76  1  0  0  0  0
 42 82  2  0  0  0  0
 43 48  1  0  0  0  0
 44 57  1  0  0  0  0
 45 72  1  0  0  0  0
 46 49  1  0  0  0  0
 47 70  1  0  0  0  0
 48 51  1  0  0  0  0
 49 53  1  0  0  0  0
 50 52  1  0  0  0  0
 50 54  1  0  0  0  0
 51 56  1  0  0  0  0
 52 58  1  0  0  0  0
 53 70  1  0  0  0  0
 54 71  1  0  0  0  0
 55 58  1  0  0  0  0
 55 71  1  0  0  0  0
 56 75  1  0  0  0  0
 57 72  1  0  0  0  0
 58 69  1  0  0  0  0
 60 66  1  0  0  0  0
 61 67  1  0  0  0  0
 62 67  1  0  0  0  0
 63 67  1  0  0  0  0
 64 77  1  0  0  0  0
 65 67  1  0  0  0  0
 65 76  1  0  0  0  0
 66 77  1  0  0  0  0
 68 69  1  0  0  0  0
M  CHG  1  77   1
M  ISO  4  36 101  37 100  39 100  84 101
M  END
> <Batch ID>
0132

> <Smiles>
CNC(C)C(=O)NC(C(=O)N1Cc2cc([101O:1][101CH:1]=C3CCCN(c4ccc(C)c(C=[100CH:0][100C:0](=O)N5CCCC(n6nc(-c7ccc(Oc8ccc(F)cc8F)cc7)c(C(N)=O)c6N)C5)c4)C3)ccc2CC1C(=O)NC1CCCc2ccccc21)C(C)(C)C

> <Shape>
0.197

> <Color>
0.098

> <Negative vol penalty>
0.000

$$$$

  -OEChem-04052302283D

 82 90  0     1  0  0  0  0  0999 V2000
  -18.8645  -33.2158   20.6381 C   0  0  0  0  0  0  0  0  0  0  0  0
  -20.1662  -32.8964   20.2652 C   0  0  0  0  0  0  0  0  0  0  0  0
  -23.9406   -9.6619   22.2487 C   0  0  0  0  0  0  0  0  0  0  0  0
  -24.4834   -8.8586   20.0357 C   0  0  0  0  0  0  0  0  0  0  0  0
  -28.0848  -21.4989   20.2553 C   0  0  0  0  0  0  0  0  0  0  0  0
  -30.0861  -20.7769   19.1105 C   0  0  0  0  0  0  0  0  0  0  0  0
  -18.3260  -32.6851   21.8096 C   0  0  0  0  0  0  0  0  0  0  0  0
  -20.9306  -32.0470   21.0643 C   0  0  0  0  0  0  0  0  0  0  0  0
  -25.0869  -27.9655   19.1742 C   0  0  0  0  0  0  0  0  0  0  0  0
  -28.2731  -22.7925   19.7687 C   0  0  0  0  0  0  0  0  0  0  0  0
  -30.2743  -22.0705   18.6238 C   0  0  0  0  0  0  0  0  0  0  0  0
  -22.9196   -8.7162   22.3416 C   0  0  0  0  0  0  0  0  0  0  0  0
  -23.4624   -7.9128   20.1286 C   0  0  0  0  0  0  0  0  0  0  0  0
  -26.4779  -28.0125   19.0923 C   0  0  0  0  0  0  0  0  0  0  0  0
  -20.4048   -6.2746   23.3057 C   0  0  0  0  0  0  0  0  0  0  0  0
  -20.2947   -5.5539   24.4948 C   0  0  0  0  0  0  0  0  0  0  0  0
  -26.6350  -26.9098   21.2320 C   0  0  0  0  0  0  0  0  0  0  0  0
  -22.5275   -4.6876   24.1767 C   0  0  0  0  0  0  0  0  0  0  0  0
  -24.7225   -9.7332   21.0957 C   0  0  0  0  0  0  0  0  0  0  0  0
  -28.9914  -20.4911   19.9263 C   0  0  0  0  0  0  0  0  0  0  0  0
  -27.1212  -10.5516   21.3860 C   0  0  0  0  0  0  0  0  0  0  0  0
  -19.0809  -31.8211   22.6184 C   0  0  0  0  0  0  0  0  0  0  0  0
  -24.4584  -27.3992   20.2925 C   0  0  0  0  0  0  0  0  0  0  0  0
  -20.4022  -31.5053   22.2485 C   0  0  0  0  0  0  0  0  0  0  0  0
  -25.2359  -26.8545   21.3245 C   0  0  0  0  0  0  0  0  0  0  0  0
  -29.3678  -23.0783   18.9529 C   0  0  0  0  0  0  0  0  0  0  0  0
  -22.6805   -7.8416   21.2816 C   0  0  0  0  0  0  0  0  0  0  0  0
  -27.2522  -27.4872   20.1226 C   0  0  0  0  0  0  0  0  0  0  0  0
  -21.5763   -6.2017   22.5520 C   0  0  0  0  0  0  0  0  0  0  0  0
  -21.3560   -4.7605   24.9304 C   0  0  0  0  0  0  0  0  0  0  0  0
  -22.6376   -5.4083   22.9875 C   0  0  0  0  0  0  0  0  0  0  0  0
  -25.7770  -10.7103   20.9989 C   0  0  0  0  0  0  0  0  0  0  0  0
  -27.7081  -11.7579   21.0911 C   0  0  0  0  0  0  0  0  0  0  0  0
  -28.7954  -19.1422   20.4338 C   0  0  0  0  0  0  0  0  0  0  0  0
  -27.6294  -18.6398   20.8927 C   0  0  0  0  0  0  0  0  0  0  0  0
  -27.7803   -9.4154   21.9606 C   0  0  0  0  0  0  0  0  0  0  0  0
  -27.5886  -17.2420   21.3673 C   0  0  0  0  0  0  0  0  0  0  0  0
  -22.5003  -28.4789   22.5516 C   0  0  0  0  0  0  0  0  0  0  0  0
  -22.4095  -25.3548   23.4198 C   0  0  0  0  0  0  0  0  0  0  0  0
  -23.9265  -22.2978   23.4027 C   0  0  0  0  0  0  0  0  0  0  0  0
  -18.4723  -31.3098   23.9002 C   0  0  0  0  0  0  0  0  0  0  0  0
  -22.9570  -27.3322   20.3533 C   0  0  0  0  0  0  0  0  0  0  0  0
  -24.6101  -26.2173   22.5372 C   0  0  0  0  0  0  0  0  0  0  0  0
  -19.2190  -30.1196   24.4967 C   0  0  0  0  0  0  0  0  0  0  0  0
  -26.0129  -15.6987   18.4403 C   0  0  0  0  0  0  0  0  0  0  0  0
  -20.7219  -30.3804   24.5019 C   0  0  0  0  0  0  0  0  0  0  0  0
  -25.8810  -14.2514   18.9067 C   0  0  0  0  0  0  0  0  0  0  0  0
  -25.8404  -16.6884   19.5915 C   0  0  0  0  0  0  0  0  0  0  0  0
  -26.6210  -14.9811   21.2089 C   0  0  0  0  0  0  0  0  0  0  0  0
  -21.2543  -30.5678   23.0761 C   0  0  1  0  0  0  0  0  0  0  0  0
  -22.4222  -27.1947   21.7754 C   0  0  1  0  0  0  0  0  0  0  0  0
  -26.8379  -13.9667   20.0752 C   0  0  1  0  0  0  0  0  0  0  0  0
  -23.6283  -19.9461   24.2262 C   0  0  0  0  0  0  0  0  0  0  0  0
  -23.1905  -26.2432   26.2324 C   0  0  0  0  0  0  0  0  0  0  0  0
  -23.7967  -23.8675   26.7393 C   0  0  0  0  0  0  0  0  0  0  0  0
  -21.4447  -24.4544   26.1505 C   0  0  0  0  0  0  0  0  0  0  0  0
  -23.9140  -21.2119   20.6496 C   0  0  0  0  0  0  0  0  0  0  0  0
  -29.5693  -24.4764   18.4252 C   0  0  0  0  0  0  0  0  0  0  0  0
  -30.4158  -25.3677   19.3408 C   0  0  0  0  0  0  0  0  0  0  0  0
  -30.5446  -26.8025   18.8272 C   0  0  0  0  0  0  0  0  0  0  0  0
  -29.1884  -27.4895   18.7417 C   0  0  0  0  0  0  0  0  0  1  0  0
  -23.2168  -24.4791   24.3474 C   0  0  1  0  0  0  0  0  0  0  0  0
  -23.3980  -20.9129   23.0751 C   0  0  2  0  0  0  0  0  0  0  0  0
  -22.9243  -24.7747   25.8456 C   0  0  0  0  0  0  0  0  0  0  0  0
  -25.5247  -11.9220   20.4966 N   0  0  0  0  0  0  0  0  0  0  0  0
  -26.7183  -12.5356   20.5661 N   0  0  0  0  0  0  0  0  0  0  0  0
  -26.7243  -16.3606   20.7202 N   0  0  0  0  0  0  0  0  0  0  0  0
  -23.1383  -26.1816   22.5532 N   0  0  0  0  0  0  0  0  0  0  0  0
  -28.9691  -12.2186   21.2324 N   0  0  0  0  0  0  0  0  0  0  0  0
  -27.0289   -8.2564   22.1978 N   0  0  0  0  0  0  0  0  0  0  0  0
  -21.3883  -29.2877   22.4144 N   0  0  0  0  0  0  0  0  0  0  0  0
  -22.9477  -23.1025   23.9464 N   0  0  0  0  0  0  0  0  0  0  0  0
  -24.0778  -20.3722   21.8641 N   0  3  0  0  0  0  0  0  0  0  0  0
  -28.9958   -9.4331   22.2701 O   0  0  0  0  0  0  0  0  0  0  0  0
  -28.3198  -16.9408   22.3125 O   0  0  0  0  0  0  0  0  0  0  0  0
  -23.4950  -28.7177   23.2262 O   0  0  0  0  0  0  0  0  0  0  0  0
  -21.1777  -25.3018   23.4577 O   0  0  0  0  0  0  0  0  0  0  0  0
  -25.0920  -22.6311   23.2002 O   0  0  0  0  0  0  0  0  0  0  0  0
  -21.6844   -6.9184   21.3720 O   0  0  0  0  0  0  0  0  0  0  0  0
  -28.6101  -27.5324   20.0455 O   0  0  0  0  0  0  0  0  0  1  0  0
  -21.2506   -4.0697   26.0731 F   0  0  0  0  0  0  0  0  0  0  0  0
  -23.7660   -5.3353   22.2683 F   0  0  0  0  0  0  0  0  0  0  0  0
  1  2  1  0  0  0  0
  1  7  2  0  0  0  0
  2  8  2  0  0  0  0
  3 12  2  0  0  0  0
  3 19  1  0  0  0  0
  4 13  1  0  0  0  0
  4 19  2  0  0  0  0
  5 10  2  0  0  0  0
  5 20  1  0  0  0  0
  6 11  1  0  0  0  0
  6 20  2  0  0  0  0
  7 22  1  0  0  0  0
  8 24  1  0  0  0  0
  9 14  2  0  0  0  0
  9 23  1  0  0  0  0
 10 26  1  0  0  0  0
 11 26  2  0  0  0  0
 12 27  1  0  0  0  0
 13 27  2  0  0  0  0
 14 28  1  0  0  0  0
 15 16  2  0  0  0  0
 15 29  1  0  0  0  0
 16 30  1  0  0  0  0
 17 25  1  0  0  0  0
 17 28  2  0  0  0  0
 18 30  2  0  0  0  0
 18 31  1  0  0  0  0
 19 32  1  0  0  0  0
 20 34  1  0  0  0  0
 21 32  1  0  0  0  0
 21 33  2  0  0  0  0
 21 36  1  0  0  0  0
 22 24  2  0  0  0  0
 22 41  1  0  0  0  0
 23 25  2  0  0  0  0
 23 42  1  0  0  0  0
 24 50  1  0  0  0  0
 25 43  1  0  0  0  0
 26 58  1  0  0  0  0
 27 79  1  0  0  0  0
 28 80  1  0  0  0  0
 29 31  2  0  0  0  0
 29 79  1  0  0  0  0
 30 81  1  0  0  0  0
 31 82  1  0  0  0  0
 32 65  2  0  0  0  0
 33 66  1  0  0  0  0
 33 69  1  0  0  0  0
 34 35  2  0  0  0  0
 35 37  1  0  0  0  0
 36 70  1  0  0  0  0
 36 74  2  0  0  0  0
 37 67  1  0  0  0  0
 37 75  2  0  0  0  0
 38 51  1  0  0  0  0
 38 71  1  0  0  0  0
 38 76  2  0  0  0  0
 39 62  1  0  0  0  0
 39 68  1  0  0  0  0
 39 77  2  0  0  0  0
 40 63  1  0  0  0  0
 40 72  1  0  0  0  0
 40 78  2  0  0  0  0
 41 44  1  0  0  0  0
 42 51  1  0  0  0  0
 43 68  1  0  0  0  0
 44 46  1  0  0  0  0
 45 47  1  0  0  0  0
 45 48  1  0  0  0  0
 46 50  1  0  0  0  0
 47 52  1  0  0  0  0
 48 67  1  0  0  0  0
 49 52  1  0  0  0  0
 49 67  1  0  0  0  0
 50 71  1  0  0  0  0
 51 68  1  0  0  0  0
 52 66  1  0  0  0  0
 53 63  1  0  0  0  0
 54 64  1  0  0  0  0
 55 64  1  0  0  0  0
 56 64  1  0  0  0  0
 57 73  1  0  0  0  0
 58 59  1  0  0  0  0
 59 60  1  0  0  0  0
 60 61  1  0  0  0  0
 61 80  1  0  0  0  0
 62 64  1  0  0  0  0
 62 72  1  0  0  0  0
 63 73  1  0  0  0  0
 65 66  1  0  0  0  0
M  CHG  1  73   1
M  ISO  4  35 100  37 100  61 101  80 101
M  END
> <Batch ID>
0132

> <Smiles>
CNC(C)C(=O)NC(C(=O)N1Cc2cc([101O:1][101CH2:1]CCCc3ccc(C=[100CH:0][100C:0](=O)N4CCCC(n5nc(-c6ccc(Oc7ccc(F)cc7F)cc6)c(C(N)=O)c5N)C4)cc3)ccc2CC1C(=O)NC1CCCc2ccccc21)C(C)(C)C

> <Shape>
0.245

> <Color>
0.136

> <Negative vol penalty>
0.000

$$$$

  -OEChem-04052302283D

 85 93  0     1  0  0  0  0  0999 V2000
  -23.0799  -24.0529   20.0980 C   0  0  0  0  0  0  0  0  0  0  0  0
  -24.2337  -23.2989   20.2862 C   0  0  0  0  0  0  0  0  0  0  0  0
  -24.4326  -28.9791   22.0695 C   0  0  0  0  0  0  0  0  0  0  0  0
  -25.4985  -30.8437   20.9632 C   0  0  0  0  0  0  0  0  0  0  0  0
  -21.8506  -23.5666   20.5411 C   0  0  0  0  0  0  0  0  0  0  0  0
  -24.1592  -22.0585   20.9188 C   0  0  0  0  0  0  0  0  0  0  0  0
  -26.8626  -18.4985   18.5391 C   0  0  0  0  0  0  0  0  0  0  0  0
  -23.7730  -29.8628   22.9236 C   0  0  0  0  0  0  0  0  0  0  0  0
  -24.8388  -31.7275   21.8172 C   0  0  0  0  0  0  0  0  0  0  0  0
  -28.2426  -18.5084   18.7370 C   0  0  0  0  0  0  0  0  0  0  0  0
  -23.7139  -34.4557   23.9390 C   0  0  0  0  0  0  0  0  0  0  0  0
  -24.4581  -35.4948   24.4974 C   0  0  0  0  0  0  0  0  0  0  0  0
  -33.9953  -21.2014   19.3589 C   0  0  0  0  0  0  0  0  0  0  0  0
  -32.9495  -19.6383   17.8425 C   0  0  0  0  0  0  0  0  0  0  0  0
  -28.0174  -16.7324   20.3539 C   0  0  0  0  0  0  0  0  0  0  0  0
  -35.2475  -19.3155   18.5149 C   0  0  0  0  0  0  0  0  0  0  0  0
  -25.9183  -33.8834   25.5501 C   0  0  0  0  0  0  0  0  0  0  0  0
  -25.2954  -29.4695   21.0894 C   0  0  0  0  0  0  0  0  0  0  0  0
  -32.8807  -20.7880   18.6293 C   0  0  0  0  0  0  0  0  0  0  0  0
  -25.5243  -28.0784   18.9633 C   0  0  0  0  0  0  0  0  0  0  0  0
  -21.7596  -22.3152   21.1708 C   0  0  0  0  0  0  0  0  0  0  0  0
  -26.0470  -17.6114   19.2563 C   0  0  0  0  0  0  0  0  0  0  0  0
  -22.9278  -21.5555   21.3720 C   0  0  0  0  0  0  0  0  0  0  0  0
  -26.6276  -16.7115   20.1614 C   0  0  0  0  0  0  0  0  0  0  0  0
  -35.1787  -20.4652   19.3017 C   0  0  0  0  0  0  0  0  0  0  0  0
  -34.1329  -18.9020   17.7852 C   0  0  0  0  0  0  0  0  0  0  0  0
  -23.9760  -31.2371   22.7974 C   0  0  0  0  0  0  0  0  0  0  0  0
  -28.8199  -17.6273   19.6467 C   0  0  0  0  0  0  0  0  0  0  0  0
  -24.0717  -33.1303   24.1862 C   0  0  0  0  0  0  0  0  0  0  0  0
  -25.5603  -35.2087   25.3029 C   0  0  0  0  0  0  0  0  0  0  0  0
  -25.1740  -32.8442   24.9918 C   0  0  0  0  0  0  0  0  0  0  0  0
  -25.9776  -28.5571   20.2072 C   0  0  0  0  0  0  0  0  0  0  0  0
  -26.5281  -27.2478   18.5286 C   0  0  0  0  0  0  0  0  0  0  0  0
  -31.6470  -21.5562   18.6891 C   0  0  0  0  0  0  0  0  0  0  0  0
  -31.3158  -22.4314   19.6622 C   0  0  0  0  0  0  0  0  0  0  0  0
  -24.3050  -28.3595   18.2634 C   0  0  0  0  0  0  0  0  0  0  0  0
  -30.0256  -23.1447   19.5759 C   0  0  0  0  0  0  0  0  0  0  0  0
  -23.6739  -17.9367   21.3459 C   0  0  0  0  0  0  0  0  0  0  0  0
  -32.3765  -16.4902   18.2429 C   0  0  0  0  0  0  0  0  0  0  0  0
  -23.4904  -14.7118   21.0489 C   0  0  0  0  0  0  0  0  0  0  0  0
  -25.0509  -11.7817   20.2575 C   0  0  0  0  0  0  0  0  0  0  0  0
  -20.4156  -21.8524   21.6751 C   0  0  0  0  0  0  0  0  0  0  0  0
  -24.5630  -17.5949   19.0116 C   0  0  0  0  0  0  0  0  0  0  0  0
  -25.7983  -15.7254   20.9414 C   0  0  0  0  0  0  0  0  0  0  0  0
  -20.3676  -20.3618   22.0007 C   0  0  0  0  0  0  0  0  0  0  0  0
  -31.2154  -26.5448   20.2505 C   0  0  0  0  0  0  0  0  0  0  0  0
  -21.5894  -19.9542   22.8179 C   0  0  0  0  0  0  0  0  0  0  0  0
  -29.9021  -27.3225   20.2426 C   0  0  0  0  0  0  0  0  0  0  0  0
  -31.0413  -25.1342   20.8113 C   0  0  0  0  0  0  0  0  0  0  0  0
  -28.6626  -25.1252   20.1169 C   0  0  0  0  0  0  0  0  0  0  0  0
  -22.8840  -20.1943   22.0317 C   0  0  1  0  0  0  0  0  0  0  0  0
  -23.7724  -17.0018   20.1738 C   0  0  1  0  0  0  0  0  0  0  0  0
  -28.8052  -26.5310   19.5129 C   0  0  1  0  0  0  0  0  0  0  0  0
  -36.3707  -20.9072   20.0815 C   0  0  0  0  0  0  0  0  0  0  0  0
  -24.6550   -9.3061   20.1477 C   0  0  0  0  0  0  0  0  0  0  0  0
  -23.7063  -14.5450   24.0879 C   0  0  0  0  0  0  0  0  0  0  0  0
  -24.2586  -12.1151   23.8456 C   0  0  0  0  0  0  0  0  0  0  0  0
  -22.0476  -12.9730   23.0720 C   0  0  0  0  0  0  0  0  0  0  0  0
  -25.5827  -11.7085   17.3470 C   0  0  0  0  0  0  0  0  0  0  0  0
  -34.2072  -17.6601   16.9352 C   0  0  0  0  0  0  0  0  0  0  0  0
  -33.8027  -16.4132   17.7195 C   0  0  0  0  0  0  0  0  0  0  0  0
  -32.2265  -16.3634   19.7530 C   0  0  0  0  0  0  0  0  0  0  0  0
  -30.7764  -16.3997   20.2133 C   0  0  0  0  0  0  0  0  0  1  0  0
  -24.1273  -13.5357   21.7491 C   0  0  1  0  0  0  0  0  0  0  0  0
  -24.6248  -10.6185   19.3800 C   0  0  2  0  0  0  0  0  0  0  0  0
  -23.5506  -13.3120   23.1755 C   0  0  0  0  0  0  0  0  0  0  0  0
  -27.1759  -28.0709   20.5412 N   0  0  0  0  0  0  0  0  0  0  0  0
  -27.4841  -27.2780   19.5008 N   0  0  0  0  0  0  0  0  0  0  0  0
  -29.9480  -24.4181   20.1370 N   0  0  0  0  0  0  0  0  0  0  0  0
  -24.3512  -15.7523   20.6718 N   0  0  0  0  0  0  0  0  0  0  0  0
  -26.6773  -26.5017   17.4134 N   0  0  0  0  0  0  0  0  0  0  0  0
  -23.3829  -29.2352   18.8527 N   0  0  0  0  0  0  0  0  0  0  0  0
  -23.0804  -19.1491   21.0502 N   0  0  0  0  0  0  0  0  0  0  0  0
  -23.9694  -12.3939   20.8548 N   0  0  0  0  0  0  0  0  0  0  0  0
  -25.5329  -10.4965   18.2047 N   0  3  0  0  0  0  0  0  0  0  0  0
  -24.0336  -27.8364   17.1560 O   0  0  0  0  0  0  0  0  0  0  0  0
  -29.0926  -22.5665   19.0156 O   0  0  0  0  0  0  0  0  0  0  0  0
  -24.1032  -17.5838   22.4380 O   0  0  0  0  0  0  0  0  0  0  0  0
  -31.4115  -16.6441   17.4961 O   0  0  0  0  0  0  0  0  0  0  0  0
  -22.2751  -14.7042   20.8378 O   0  0  0  0  0  0  0  0  0  0  0  0
  -26.2260  -12.1118   20.4017 O   0  0  0  0  0  0  0  0  0  0  0  0
  -23.3323  -32.0997   23.6305 O   0  0  0  0  0  0  0  0  0  0  0  0
  -30.1666  -17.6354   19.8423 O   0  0  0  0  0  0  0  0  0  1  0  0
  -26.2759  -36.2067   25.8378 F   0  0  0  0  0  0  0  0  0  0  0  0
  -25.5233  -31.5729   25.2319 F   0  0  0  0  0  0  0  0  0  0  0  0
  1  2  1  0  0  0  0
  1  5  2  0  0  0  0
  2  6  2  0  0  0  0
  3  8  2  0  0  0  0
  3 18  1  0  0  0  0
  4  9  1  0  0  0  0
  4 18  2  0  0  0  0
  5 21  1  0  0  0  0
  6 23  1  0  0  0  0
  7 10  2  0  0  0  0
  7 22  1  0  0  0  0
  8 27  1  0  0  0  0
  9 27  2  0  0  0  0
 10 28  1  0  0  0  0
 11 12  2  0  0  0  0
 11 29  1  0  0  0  0
 12 30  1  0  0  0  0
 13 19  2  0  0  0  0
 13 25  1  0  0  0  0
 14 19  1  0  0  0  0
 14 26  2  0  0  0  0
 15 24  1  0  0  0  0
 15 28  2  0  0  0  0
 16 25  2  0  0  0  0
 16 26  1  0  0  0  0
 17 30  2  0  0  0  0
 17 31  1  0  0  0  0
 18 32  1  0  0  0  0
 19 34  1  0  0  0  0
 20 32  1  0  0  0  0
 20 33  2  0  0  0  0
 20 36  1  0  0  0  0
 21 23  2  0  0  0  0
 21 42  1  0  0  0  0
 22 24  2  0  0  0  0
 22 43  1  0  0  0  0
 23 51  1  0  0  0  0
 24 44  1  0  0  0  0
 25 54  1  0  0  0  0
 26 60  1  0  0  0  0
 27 82  1  0  0  0  0
 28 83  1  0  0  0  0
 29 31  2  0  0  0  0
 29 82  1  0  0  0  0
 30 84  1  0  0  0  0
 31 85  1  0  0  0  0
 32 67  2  0  0  0  0
 33 68  1  0  0  0  0
 33 71  1  0  0  0  0
 34 35  2  0  0  0  0
 35 37  1  0  0  0  0
 36 72  1  0  0  0  0
 36 76  2  0  0  0  0
 37 69  1  0  0  0  0
 37 77  2  0  0  0  0
 38 52  1  0  0  0  0
 38 73  1  0  0  0  0
 38 78  2  0  0  0  0
 39 61  1  0  0  0  0
 39 62  1  0  0  0  0
 39 79  2  0  0  0  0
 40 64  1  0  0  0  0
 40 70  1  0  0  0  0
 40 80  2  0  0  0  0
 41 65  1  0  0  0  0
 41 74  1  0  0  0  0
 41 81  2  0  0  0  0
 42 45  1  0  0  0  0
 43 52  1  0  0  0  0
 44 70  1  0  0  0  0
 45 47  1  0  0  0  0
 46 48  1  0  0  0  0
 46 49  1  0  0  0  0
 47 51  1  0  0  0  0
 48 53  1  0  0  0  0
 49 69  1  0  0  0  0
 50 53  1  0  0  0  0
 50 69  1  0  0  0  0
 51 73  1  0  0  0  0
 52 70  1  0  0  0  0
 53 68  1  0  0  0  0
 55 65  1  0  0  0  0
 56 66  1  0  0  0  0
 57 66  1  0  0  0  0
 58 66  1  0  0  0  0
 59 75  1  0  0  0  0
 60 61  1  0  0  0  0
 62 63  1  0  0  0  0
 63 83  1  0  0  0  0
 64 66  1  0  0  0  0
 64 74  1  0  0  0  0
 65 75  1  0  0  0  0
 67 68  1  0  0  0  0
M  CHG  1  75   1
M  ISO  4  35 100  37 100  63 101  83 101
M  END
> <Batch ID>
0132

> <Smiles>
CNC(C)C(=O)NC(C(=O)N1Cc2cc([101O:1][101CH2:1]CC(=O)CCc3cc(C)cc(C=[100CH:0][100C:0](=O)N4CCCC(n5nc(-c6ccc(Oc7ccc(F)cc7F)cc6)c(C(N)=O)c5N)C4)c3)ccc2CC1C(=O)NC1CCCc2ccccc21)C(C)(C)C

> <Shape>
0.224

> <Color>
0.108

> <Negative vol penalty>
0.000

$$$$

  -OEChem-04052302283D

 83 91  0     1  0  0  0  0  0999 V2000
  -22.5800  -22.3386   17.0643 C   0  0  0  0  0  0  0  0  0  0  0  0
  -23.6568  -22.3725   16.5328 C   0  0  0  0  0  0  0  0  0  0  0  0
  -18.9913  -21.5851   17.6541 C   0  0  0  0  0  0  0  0  0  0  0  0
  -18.7768  -22.2000   18.8875 C   0  0  0  0  0  0  0  0  0  0  0  0
  -30.4604  -35.1161   21.0004 C   0  0  0  0  0  0  0  0  0  0  0  0
  -30.3962  -34.1954   19.9595 C   0  0  0  0  0  0  0  0  0  0  0  0
  -20.2520  -21.6361   17.0592 C   0  0  0  0  0  0  0  0  0  0  0  0
  -31.0135  -18.1092   20.6686 C   0  0  0  0  0  0  0  0  0  0  0  0
  -29.3349  -17.5711   19.0164 C   0  0  0  0  0  0  0  0  0  0  0  0
  -19.8229  -22.8660   19.5261 C   0  0  0  0  0  0  0  0  0  0  0  0
  -29.9693  -34.7773   22.2606 C   0  0  0  0  0  0  0  0  0  0  0  0
  -29.8418  -32.9347   20.1785 C   0  0  0  0  0  0  0  0  0  0  0  0
  -26.0841  -27.8317   16.8386 C   0  0  0  0  0  0  0  0  0  0  0  0
  -31.5016  -16.8045   20.5977 C   0  0  0  0  0  0  0  0  0  0  0  0
  -29.8230  -16.2663   18.9455 C   0  0  0  0  0  0  0  0  0  0  0  0
  -26.1246  -26.4636   16.5732 C   0  0  0  0  0  0  0  0  0  0  0  0
  -30.3971  -12.6947   18.5930 C   0  0  0  0  0  0  0  0  0  0  0  0
  -29.4684  -11.6540   18.5965 C   0  0  0  0  0  0  0  0  0  0  0  0
  -25.2356  -26.0171   18.7708 C   0  0  0  0  0  0  0  0  0  0  0  0
  -28.6662  -12.3772   20.7577 C   0  0  0  0  0  0  0  0  0  0  0  0
  -21.2981  -22.3020   17.6977 C   0  0  0  0  0  0  0  0  0  0  0  0
  -29.9301  -18.4925   19.8779 C   0  0  0  0  0  0  0  0  0  0  0  0
  -21.0836  -22.9170   18.9312 C   0  0  0  0  0  0  0  0  0  0  0  0
  -29.8323  -20.9436   19.1777 C   0  0  0  0  0  0  0  0  0  0  0  0
  -29.3998  -33.5154   22.4926 C   0  0  0  0  0  0  0  0  0  0  0  0
  -25.6285  -28.3031   18.0782 C   0  0  0  0  0  0  0  0  0  0  0  0
  -29.3438  -32.5783   21.4433 C   0  0  0  0  0  0  0  0  0  0  0  0
  -25.1879  -27.3918   19.0485 C   0  0  0  0  0  0  0  0  0  0  0  0
  -30.9063  -15.8830   19.7362 C   0  0  0  0  0  0  0  0  0  0  0  0
  -25.7030  -25.5560   17.5405 C   0  0  0  0  0  0  0  0  0  0  0  0
  -30.4604  -13.5767   19.6719 C   0  0  0  0  0  0  0  0  0  0  0  0
  -28.6029  -11.4953   19.6788 C   0  0  0  0  0  0  0  0  0  0  0  0
  -29.5950  -13.4179   20.7542 C   0  0  0  0  0  0  0  0  0  0  0  0
  -29.4251  -19.8400   19.9511 C   0  0  0  0  0  0  0  0  0  0  0  0
  -29.0553  -21.9832   19.6272 C   0  0  0  0  0  0  0  0  0  0  0  0
  -22.1498  -23.6232   19.6326 C   0  0  0  0  0  0  0  0  0  0  0  0
  -30.8240  -21.0219   18.1453 C   0  0  0  0  0  0  0  0  0  0  0  0
  -26.9206  -29.9690   20.4571 C   0  0  0  0  0  0  0  0  0  0  0  0
  -23.6579  -22.9441   21.5485 C   0  0  0  0  0  0  0  0  0  0  0  0
  -23.8957  -29.9040   21.6268 C   0  0  0  0  0  0  0  0  0  0  0  0
  -20.7420  -28.2857   22.2993 C   0  0  0  0  0  0  0  0  0  0  0  0
  -28.9252  -33.1778   23.8838 C   0  0  0  0  0  0  0  0  0  0  0  0
  -25.5659  -29.7831   18.3390 C   0  0  0  0  0  0  0  0  0  0  0  0
  -24.6710  -27.8475   20.3878 C   0  0  0  0  0  0  0  0  0  0  0  0
  -28.0126  -31.9553   23.9362 C   0  0  0  0  0  0  0  0  0  0  0  0
  -26.4906  -22.9027   23.7426 C   0  0  0  0  0  0  0  0  0  0  0  0
  -28.6004  -30.8146   23.1114 C   0  0  0  0  0  0  0  0  0  0  0  0
  -27.5665  -22.1878   22.9263 C   0  0  0  0  0  0  0  0  0  0  0  0
  -25.1040  -22.3334   23.4590 C   0  0  0  0  0  0  0  0  0  0  0  0
  -25.8038  -21.6247   21.1941 C   0  0  0  0  0  0  0  0  0  0  0  0
  -28.7272  -31.2097   21.6351 C   0  0  1  0  0  0  0  0  0  0  0  0
  -25.5668  -30.1286   19.8250 C   0  0  1  0  0  0  0  0  0  0  0  0
  -27.2160  -22.1898   21.4278 C   0  0  2  0  0  0  0  0  0  0  0  0
  -18.6420  -29.1757   23.3460 C   0  0  0  0  0  0  0  0  0  0  0  0
  -25.0547  -28.7799   24.2158 C   0  0  0  0  0  0  0  0  0  0  0  0
  -22.7404  -28.0808   24.8665 C   0  0  0  0  0  0  0  0  0  0  0  0
  -23.2642  -30.4968   24.5334 C   0  0  0  0  0  0  0  0  0  0  0  0
  -19.1026  -27.4837   19.9694 C   0  0  0  0  0  0  0  0  0  0  0  0
  -24.9752  -22.4144   15.8826 C   0  0  0  0  0  0  0  0  0  0  0  0
  -23.4338  -22.9050   20.0577 C   0  0  0  0  0  0  0  0  0  0  0  0
  -25.5733  -23.8138   15.9267 C   0  0  0  0  0  0  0  0  0  1  0  0
  -23.1155  -28.9721   22.5221 C   0  0  1  0  0  0  0  0  0  0  0  0
  -19.3570  -28.8523   22.0433 C   0  0  2  0  0  0  0  0  0  0  0  0
  -23.5552  -29.0734   24.0100 C   0  0  0  0  0  0  0  0  0  0  0  0
  -28.4643  -20.1496   20.8257 N   0  0  0  0  0  0  0  0  0  0  0  0
  -22.0516  -24.8999   19.9168 N   0  0  0  0  0  0  0  0  0  0  0  0
  -28.2613  -21.4596   20.6047 N   0  0  0  0  0  0  0  0  0  0  0  0
  -24.6351  -29.3043   20.5975 N   0  0  0  0  0  0  0  0  0  0  0  0
  -24.8180  -22.3318   22.0232 N   0  0  0  0  0  0  0  0  0  0  0  0
  -28.9809  -23.2850   19.2778 N   0  0  0  0  0  0  0  0  0  0  0  0
  -31.5302  -19.8594   17.8075 N   0  0  0  0  0  0  0  0  0  0  0  0
  -27.4385  -31.1384   20.9803 N   0  0  0  0  0  0  0  0  0  0  0  0
  -21.7060  -29.2715   22.2939 N   0  0  0  0  0  0  0  0  0  0  0  0
  -18.5293  -27.8734   21.2833 N   0  3  0  0  0  0  0  0  0  0  0  0
  -31.0880  -22.0949   17.5515 O   0  0  0  0  0  0  0  0  0  0  0  0
  -27.4550  -28.8663   20.4704 O   0  0  0  0  0  0  0  0  0  0  0  0
  -22.8270  -23.5052   22.2676 O   0  0  0  0  0  0  0  0  0  0  0  0
  -23.8452  -31.1199   21.8287 O   0  0  0  0  0  0  0  0  0  0  0  0
  -20.9475  -27.0889   22.4890 O   0  0  0  0  0  0  0  0  0  0  0  0
  -31.3825  -14.6098   19.6666 O   0  0  0  0  0  0  0  0  0  0  0  0
  -25.7421  -24.2200   17.2843 O   0  0  0  0  0  0  0  0  0  1  0  0
  -27.7101  -10.4968   19.6813 F   0  0  0  0  0  0  0  0  0  0  0  0
  -29.6503  -14.2627   21.7930 F   0  0  0  0  0  0  0  0  0  0  0  0
  1  2  3  0  0  0  0
  1 21  1  0  0  0  0
  2 59  1  0  0  0  0
  3  4  1  0  0  0  0
  3  7  2  0  0  0  0
  4 10  2  0  0  0  0
  5  6  1  0  0  0  0
  5 11  2  0  0  0  0
  6 12  2  0  0  0  0
  7 21  1  0  0  0  0
  8 14  2  0  0  0  0
  8 22  1  0  0  0  0
  9 15  1  0  0  0  0
  9 22  2  0  0  0  0
 10 23  1  0  0  0  0
 11 25  1  0  0  0  0
 12 27  1  0  0  0  0
 13 16  2  0  0  0  0
 13 26  1  0  0  0  0
 14 29  1  0  0  0  0
 15 29  2  0  0  0  0
 16 30  1  0  0  0  0
 17 18  2  0  0  0  0
 17 31  1  0  0  0  0
 18 32  1  0  0  0  0
 19 28  1  0  0  0  0
 19 30  2  0  0  0  0
 20 32  2  0  0  0  0
 20 33  1  0  0  0  0
 21 23  2  0  0  0  0
 22 34  1  0  0  0  0
 23 36  1  0  0  0  0
 24 34  1  0  0  0  0
 24 35  2  0  0  0  0
 24 37  1  0  0  0  0
 25 27  2  0  0  0  0
 25 42  1  0  0  0  0
 26 28  2  0  0  0  0
 26 43  1  0  0  0  0
 27 51  1  0  0  0  0
 28 44  1  0  0  0  0
 29 80  1  0  0  0  0
 30 81  1  0  0  0  0
 31 33  2  0  0  0  0
 31 80  1  0  0  0  0
 32 82  1  0  0  0  0
 33 83  1  0  0  0  0
 34 65  2  0  0  0  0
 35 67  1  0  0  0  0
 35 70  1  0  0  0  0
 36 60  1  0  0  0  0
 36 66  2  0  0  0  0
 37 71  1  0  0  0  0
 37 75  2  0  0  0  0
 38 52  1  0  0  0  0
 38 72  1  0  0  0  0
 38 76  2  0  0  0  0
 39 60  1  0  0  0  0
 39 69  1  0  0  0  0
 39 77  2  0  0  0  0
 40 62  1  0  0  0  0
 40 68  1  0  0  0  0
 40 78  2  0  0  0  0
 41 63  1  0  0  0  0
 41 73  1  0  0  0  0
 41 79  2  0  0  0  0
 42 45  1  0  0  0  0
 43 52  1  0  0  0  0
 44 68  1  0  0  0  0
 45 47  1  0  0  0  0
 46 48  1  0  0  0  0
 46 49  1  0  0  0  0
 47 51  1  0  0  0  0
 48 53  1  0  0  0  0
 49 69  1  0  0  0  0
 50 53  1  0  0  0  0
 50 69  1  0  0  0  0
 51 72  1  0  0  0  0
 52 68  1  0  0  0  0
 53 67  1  0  0  0  0
 54 63  1  0  0  0  0
 55 64  1  0  0  0  0
 56 64  1  0  0  0  0
 57 64  1  0  0  0  0
 58 74  1  0  0  0  0
 59 61  1  0  0  0  0
 61 81  1  0  0  0  0
 62 64  1  0  0  0  0
 62 73  1  0  0  0  0
 63 74  1  0  0  0  0
 65 67  1  0  0  0  0
M  CHG  1  74   1
M  ISO  4  39 100  60 100  61 101  81 101
M  END
> <Batch ID>
0132

> <Smiles>
CNC(C)C(=O)NC(C(=O)N1Cc2cc([101O:1][101CH2:1]CC#Cc3ccccc3C(=N)[100CH2:0][100C:0](=O)N3CCCC(n4nc(-c5ccc(Oc6ccc(F)cc6F)cc5)c(C(N)=O)c4N)C3)ccc2CC1C(=O)NC1CCCc2ccccc21)C(C)(C)C

> <Shape>
0.225

> <Color>
0.069

> <Negative vol penalty>
0.000

$$$$

  -OEChem-04052302283D

 86 95  0     1  0  0  0  0  0999 V2000
  -28.6400  -36.9085   25.2161 C   0  0  0  0  0  0  0  0  0  0  0  0
  -28.7212  -35.6826   24.5633 C   0  0  0  0  0  0  0  0  0  0  0  0
  -22.7222  -10.7392   21.2844 C   0  0  0  0  0  0  0  0  0  0  0  0
  -24.3651   -9.0970   20.6200 C   0  0  0  0  0  0  0  0  0  0  0  0
  -27.4991  -37.2323   25.9492 C   0  0  0  0  0  0  0  0  0  0  0  0
  -27.6619  -34.7794   24.6442 C   0  0  0  0  0  0  0  0  0  0  0  0
  -27.0952  -20.5963   19.2214 C   0  0  0  0  0  0  0  0  0  0  0  0
  -25.7662  -30.9280   20.2763 C   0  0  0  0  0  0  0  0  0  0  0  0
  -27.2010  -19.2088   19.1262 C   0  0  0  0  0  0  0  0  0  0  0  0
  -22.0108   -9.7519   21.9659 C   0  0  0  0  0  0  0  0  0  0  0  0
  -23.6537   -8.1096   21.3017 C   0  0  0  0  0  0  0  0  0  0  0  0
  -26.0014  -29.5717   20.0550 C   0  0  0  0  0  0  0  0  0  0  0  0
  -20.8982   -6.2196   20.7860 C   0  0  0  0  0  0  0  0  0  0  0  0
  -20.7000   -5.0000   20.1387 C   0  0  0  0  0  0  0  0  0  0  0  0
  -23.9310  -29.0366   21.1713 C   0  0  0  0  0  0  0  0  0  0  0  0
  -29.3171  -19.2903   20.2894 C   0  0  0  0  0  0  0  0  0  0  0  0
  -21.8800   -3.8652   21.9154 C   0  0  0  0  0  0  0  0  0  0  0  0
  -23.8993  -10.4118   20.6113 C   0  0  0  0  0  0  0  0  0  0  0  0
  -24.1746  -12.2272   18.8404 C   0  0  0  0  0  0  0  0  0  0  0  0
  -26.4213  -36.3366   26.0311 C   0  0  0  0  0  0  0  0  0  0  0  0
  -24.6151  -31.3488   20.9576 C   0  0  0  0  0  0  0  0  0  0  0  0
  -26.5061  -35.0910   25.3802 C   0  0  0  0  0  0  0  0  0  0  0  0
  -28.1003  -21.3309   19.8506 C   0  0  0  0  0  0  0  0  0  0  0  0
  -23.6823  -30.3990   21.3978 C   0  0  0  0  0  0  0  0  0  0  0  0
  -29.2112  -20.6779   20.3845 C   0  0  0  0  0  0  0  0  0  0  0  0
  -28.3119  -18.5558   19.6602 C   0  0  0  0  0  0  0  0  0  0  0  0
  -22.4765   -8.4371   21.9746 C   0  0  0  0  0  0  0  0  0  0  0  0
  -25.0852  -28.6256   20.5050 C   0  0  0  0  0  0  0  0  0  0  0  0
  -21.5874   -6.2620   21.9980 C   0  0  0  0  0  0  0  0  0  0  0  0
  -21.1909   -3.8228   20.7034 C   0  0  0  0  0  0  0  0  0  0  0  0
  -22.0783   -5.0848   22.5627 C   0  0  0  0  0  0  0  0  0  0  0  0
  -24.6344  -11.4312   19.9066 C   0  0  0  0  0  0  0  0  0  0  0  0
  -25.2426  -13.0322   18.5274 C   0  0  0  0  0  0  0  0  0  0  0  0
  -22.8964  -12.2380   18.1909 C   0  0  0  0  0  0  0  0  0  0  0  0
  -24.0587  -32.9177   23.6655 C   0  0  0  0  0  0  0  0  0  0  0  0
  -20.9823  -32.8047   22.6431 C   0  0  0  0  0  0  0  0  0  0  0  0
  -18.6219  -31.2576   20.7244 C   0  0  0  0  0  0  0  0  0  0  0  0
  -29.4548  -16.3435   20.0423 C   0  0  0  0  0  0  0  0  0  0  0  0
  -25.2284  -36.7114   26.8745 C   0  0  0  0  0  0  0  0  0  0  0  0
  -24.3628  -32.8171   21.1648 C   0  0  0  0  0  0  0  0  0  0  0  0
  -22.4209  -30.8001   22.1164 C   0  0  0  0  0  0  0  0  0  0  0  0
  -23.9956  -35.8535   26.6012 C   0  0  0  0  0  0  0  0  0  0  0  0
  -30.0693  -12.8364   20.0392 C   0  0  0  0  0  0  0  0  0  0  0  0
  -26.7319  -23.2544   20.7643 C   0  0  0  0  0  0  0  0  0  0  0  0
  -27.9404  -23.4968   18.5507 C   0  0  0  0  0  0  0  0  0  0  0  0
  -24.3726  -34.3762   26.5562 C   0  0  0  0  0  0  0  0  0  0  0  0
  -26.6097  -24.7749   20.8605 C   0  0  0  0  0  0  0  0  0  0  0  0
  -27.8152  -25.0167   18.6524 C   0  0  0  0  0  0  0  0  0  0  0  0
  -28.6723  -12.2237   19.9168 C   0  0  0  0  0  0  0  0  0  0  0  0
  -30.0629  -14.0943   20.9062 C   0  0  0  0  0  0  0  0  0  0  0  0
  -27.6900  -14.5043   20.3864 C   0  0  0  0  0  0  0  0  0  0  0  0
  -27.9631  -22.8399   19.9411 C   0  0  0  0  0  0  0  0  0  0  0  0
  -25.3676  -34.0949   25.4238 C   0  0  1  0  0  0  0  0  0  0  0  0
  -23.4109  -33.1023   22.3224 C   0  0  1  0  0  0  0  0  0  0  0  0
  -26.5872  -25.4309   19.4737 C   0  0  0  0  0  0  0  0  0  0  0  0
  -27.6345  -13.2717   19.4693 C   0  0  2  0  0  0  0  0  0  0  0  0
  -31.2210  -22.1439   20.0712 C   0  0  0  0  0  0  0  0  0  0  0  0
  -16.1880  -31.3704   20.1238 C   0  0  0  0  0  0  0  0  0  0  0  0
  -20.2619  -31.5774   25.3421 C   0  0  0  0  0  0  0  0  0  0  0  0
  -18.0801  -30.8519   24.3514 C   0  0  0  0  0  0  0  0  0  0  0  0
  -18.6336  -33.2795   24.5022 C   0  0  0  0  0  0  0  0  0  0  0  0
  -19.2296  -31.7140   17.8641 C   0  0  0  0  0  0  0  0  0  0  0  0
  -30.2986  -21.4435   21.0643 C   0  0  0  0  0  0  0  0  0  0  0  0
  -26.5104  -26.9515   19.5984 C   0  0  0  0  0  0  0  0  0  1  0  0
  -19.8355  -31.8371   22.8090 C   0  0  1  0  0  0  0  0  0  0  0  0
  -17.5957  -31.8086   19.7509 C   0  0  2  0  0  0  0  0  0  0  0  0
  -19.2274  -31.8785   24.2394 C   0  0  0  0  0  0  0  0  0  0  0  0
  -25.8962  -11.7055   20.2481 N   0  0  0  0  0  0  0  0  0  0  0  0
  -26.2384  -12.6828   19.3914 N   0  0  0  0  0  0  0  0  0  0  0  0
  -22.2223  -32.2473   22.3005 N   0  0  0  0  0  0  0  0  0  0  0  0
  -29.0587  -15.0431   20.4202 N   0  0  0  0  0  0  0  0  0  0  0  0
  -25.4176  -13.9976   17.6002 N   0  0  0  0  0  0  0  0  0  0  0  0
  -22.7016  -11.3989   17.0853 N   0  0  0  0  0  0  0  0  0  0  0  0
  -28.4189  -17.1460   19.5654 N   0  0  0  0  0  0  0  0  0  0  0  0
  -24.6836  -34.0513   24.1492 N   0  0  0  0  0  0  0  0  0  0  0  0
  -18.8845  -32.1452   21.7464 N   0  0  0  0  0  0  0  0  0  0  0  0
  -17.8853  -31.3329   18.3686 N   0  3  0  0  0  0  0  0  0  0  0  0
  -21.9601  -12.9821   18.5694 O   0  0  0  0  0  0  0  0  0  0  0  0
  -23.9951  -31.8280   24.2224 O   0  0  0  0  0  0  0  0  0  0  0  0
  -20.7836  -34.0114   22.8044 O   0  0  0  0  0  0  0  0  0  0  0  0
  -19.1361  -30.1490   20.5935 O   0  0  0  0  0  0  0  0  0  0  0  0
  -30.6313  -16.7087   20.1094 O   0  0  0  0  0  0  0  0  0  0  0  0
  -21.7827   -7.4734   22.6398 O   0  0  0  0  0  0  0  0  0  0  0  0
  -25.3127  -27.3011   20.2909 O   0  0  0  0  0  0  0  0  0  1  0  0
  -20.9991   -2.6516   20.0824 F   0  0  0  0  0  0  0  0  0  0  0  0
  -22.7402   -5.1190   23.7274 F   0  0  0  0  0  0  0  0  0  0  0  0
  1  2  1  0  0  0  0
  1  5  2  0  0  0  0
  2  6  2  0  0  0  0
  3 10  2  0  0  0  0
  3 18  1  0  0  0  0
  4 11  1  0  0  0  0
  4 18  2  0  0  0  0
  5 20  1  0  0  0  0
  6 22  1  0  0  0  0
  7  9  2  0  0  0  0
  7 23  1  0  0  0  0
  8 12  2  0  0  0  0
  8 21  1  0  0  0  0
  9 26  1  0  0  0  0
 10 27  1  0  0  0  0
 11 27  2  0  0  0  0
 12 28  1  0  0  0  0
 13 14  2  0  0  0  0
 13 29  1  0  0  0  0
 14 30  1  0  0  0  0
 15 24  1  0  0  0  0
 15 28  2  0  0  0  0
 16 25  1  0  0  0  0
 16 26  2  0  0  0  0
 17 30  2  0  0  0  0
 17 31  1  0  0  0  0
 18 32  1  0  0  0  0
 19 32  1  0  0  0  0
 19 33  2  0  0  0  0
 19 34  1  0  0  0  0
 20 22  2  0  0  0  0
 20 39  1  0  0  0  0
 21 24  2  0  0  0  0
 21 40  1  0  0  0  0
 22 53  1  0  0  0  0
 23 25  2  0  0  0  0
 23 52  1  0  0  0  0
 24 41  1  0  0  0  0
 25 63  1  0  0  0  0
 26 74  1  0  0  0  0
 27 83  1  0  0  0  0
 28 84  1  0  0  0  0
 29 31  2  0  0  0  0
 29 83  1  0  0  0  0
 30 85  1  0  0  0  0
 31 86  1  0  0  0  0
 32 68  2  0  0  0  0
 33 69  1  0  0  0  0
 33 72  1  0  0  0  0
 34 73  1  0  0  0  0
 34 78  2  0  0  0  0
 35 54  1  0  0  0  0
 35 75  1  0  0  0  0
 35 79  2  0  0  0  0
 36 65  1  0  0  0  0
 36 70  1  0  0  0  0
 36 80  2  0  0  0  0
 37 66  1  0  0  0  0
 37 76  1  0  0  0  0
 37 81  2  0  0  0  0
 38 71  1  0  0  0  0
 38 74  1  0  0  0  0
 38 82  2  0  0  0  0
 39 42  1  0  0  0  0
 40 54  1  0  0  0  0
 41 70  1  0  0  0  0
 42 46  1  0  0  0  0
 43 49  1  0  0  0  0
 43 50  1  0  0  0  0
 44 47  1  0  0  0  0
 44 52  1  0  0  0  0
 45 48  1  0  0  0  0
 45 52  1  0  0  0  0
 46 53  1  0  0  0  0
 47 55  1  0  0  0  0
 48 55  1  0  0  0  0
 49 56  1  0  0  0  0
 50 71  1  0  0  0  0
 51 56  1  0  0  0  0
 51 71  1  0  0  0  0
 53 75  1  0  0  0  0
 54 70  1  0  0  0  0
 55 64  1  0  0  0  0
 56 69  1  0  0  0  0
 57 63  1  0  0  0  0
 58 66  1  0  0  0  0
 59 67  1  0  0  0  0
 60 67  1  0  0  0  0
 61 67  1  0  0  0  0
 62 77  1  0  0  0  0
 64 84  1  0  0  0  0
 65 67  1  0  0  0  0
 65 76  1  0  0  0  0
 66 77  1  0  0  0  0
 68 69  1  0  0  0  0
M  CHG  1  77   1
M  ISO  4  38 100  64 101  74 100  84 101
M  END
> <Batch ID>
0132

> <Smiles>
CCc1cc([100NH:0][100C:0](=O)N2CCCC(n3nc(-c4ccc(Oc5ccc(F)cc5F)cc4)c(C(N)=O)c3N)C2)ccc1C1CCC([101CH2:1][101O:1]c2ccc3c(c2)CN(C(=O)C(NC(=O)C(C)NC)C(C)(C)C)C(C(=O)NC2CCCc4ccccc42)C3)CC1

> <Shape>
0.284

> <Color>
0.094

> <Negative vol penalty>
0.000

$$$$

  -OEChem-04052302283D

 84 92  0     1  0  0  0  0  0999 V2000
  -17.5229  -30.0191   23.9585 C   0  0  0  0  0  0  0  0  0  0  0  0
  -18.9014  -30.1693   24.0703 C   0  0  0  0  0  0  0  0  0  0  0  0
  -25.5608  -13.4073   21.7327 C   0  0  0  0  0  0  0  0  0  0  0  0
  -26.0200  -13.5962   19.3683 C   0  0  0  0  0  0  0  0  0  0  0  0
  -28.6596  -25.0649   24.1060 C   0  0  0  0  0  0  0  0  0  0  0  0
  -16.9947  -28.9030   23.3109 C   0  0  0  0  0  0  0  0  0  0  0  0
  -19.7526  -29.2029   23.5354 C   0  0  0  0  0  0  0  0  0  0  0  0
  -23.6247  -31.2271   20.9752 C   0  0  0  0  0  0  0  0  0  0  0  0
  -28.8245  -26.4352   24.3076 C   0  0  0  0  0  0  0  0  0  0  0  0
  -24.5164  -12.5241   21.4593 C   0  0  0  0  0  0  0  0  0  0  0  0
  -24.9757  -12.7129   19.0949 C   0  0  0  0  0  0  0  0  0  0  0  0
  -24.6852  -31.7370   21.7228 C   0  0  0  0  0  0  0  0  0  0  0  0
  -24.1603   -9.2553   20.6712 C   0  0  0  0  0  0  0  0  0  0  0  0
  -24.0648   -8.1030   21.4515 C   0  0  0  0  0  0  0  0  0  0  0  0
  -25.9426  -29.7217   21.3025 C   0  0  0  0  0  0  0  0  0  0  0  0
  -27.1596  -26.3781   26.0574 C   0  0  0  0  0  0  0  0  0  0  0  0
  -21.8665   -8.7835   22.1872 C   0  0  0  0  0  0  0  0  0  0  0  0
  -26.3126  -13.9434   20.6872 C   0  0  0  0  0  0  0  0  0  0  0  0
  -27.7446  -24.3512   24.8800 C   0  0  0  0  0  0  0  0  0  0  0  0
  -28.7405  -14.5311   21.2047 C   0  0  0  0  0  0  0  0  0  0  0  0
  -17.8400  -27.9273   22.7594 C   0  0  0  0  0  0  0  0  0  0  0  0
  -23.7110  -29.9539   20.3937 C   0  0  0  0  0  0  0  0  0  0  0  0
  -19.2352  -28.0721   22.8810 C   0  0  0  0  0  0  0  0  0  0  0  0
  -24.8828  -29.1990   20.5458 C   0  0  0  0  0  0  0  0  0  0  0  0
  -28.0746  -27.0918   25.2834 C   0  0  0  0  0  0  0  0  0  0  0  0
  -26.9946  -25.0078   25.8557 C   0  0  0  0  0  0  0  0  0  0  0  0
  -24.2239  -12.1768   20.1405 C   0  0  0  0  0  0  0  0  0  0  0  0
  -25.8433  -30.9831   21.8890 C   0  0  0  0  0  0  0  0  0  0  0  0
  -23.1089  -10.1717   20.6491 C   0  0  0  0  0  0  0  0  0  0  0  0
  -22.9179   -7.8671   22.2094 C   0  0  0  0  0  0  0  0  0  0  0  0
  -21.9620   -9.9358   21.4070 C   0  0  0  0  0  0  0  0  0  0  0  0
  -27.3912  -14.8563   20.9689 C   0  0  0  0  0  0  0  0  0  0  0  0
  -29.3529  -15.7415   21.4195 C   0  0  0  0  0  0  0  0  0  0  0  0
  -27.5952  -22.9211   24.6450 C   0  0  0  0  0  0  0  0  0  0  0  0
  -27.2351  -22.3555   23.4748 C   0  0  0  0  0  0  0  0  0  0  0  0
  -29.3827  -13.2494   21.2275 C   0  0  0  0  0  0  0  0  0  0  0  0
  -27.1365  -20.8844   23.3922 C   0  0  0  0  0  0  0  0  0  0  0  0
  -22.1034  -27.2300   20.7092 C   0  0  0  0  0  0  0  0  0  0  0  0
  -23.9764  -26.2909   18.2328 C   0  0  0  0  0  0  0  0  0  0  0  0
  -26.8756  -26.6931   16.4780 C   0  0  0  0  0  0  0  0  0  0  0  0
  -17.2219  -26.7145   22.1100 C   0  0  0  0  0  0  0  0  0  0  0  0
  -22.5687  -29.4293   19.5678 C   0  0  0  0  0  0  0  0  0  0  0  0
  -25.0335  -27.8350   19.9250 C   0  0  0  0  0  0  0  0  0  0  0  0
  -18.1980  -25.9243   21.2422 C   0  0  0  0  0  0  0  0  0  0  0  0
  -29.0271  -20.3660   20.2956 C   0  0  0  0  0  0  0  0  0  0  0  0
  -19.5183  -25.7165   21.9773 C   0  0  0  0  0  0  0  0  0  0  0  0
  -28.8976  -18.8551   20.1220 C   0  0  0  0  0  0  0  0  0  0  0  0
  -27.7757  -20.9788   20.9226 C   0  0  0  0  0  0  0  0  0  0  0  0
  -27.2518  -18.8288   22.0379 C   0  0  0  0  0  0  0  0  0  0  0  0
  -20.1915  -27.0578   22.2921 C   0  0  1  0  0  0  0  0  0  0  0  0
  -22.5653  -27.9082   19.4505 C   0  0  1  0  0  0  0  0  0  0  0  0
  -28.5180  -18.1849   21.4519 C   0  0  1  0  0  0  0  0  0  0  0  0
  -26.0048  -24.2752   26.7034 C   0  0  0  0  0  0  0  0  0  0  0  0
  -28.1439  -25.7535   14.5271 C   0  0  0  0  0  0  0  0  0  0  0  0
  -26.8653  -33.2811   24.2027 C   0  0  0  0  0  0  0  0  0  0  0  0
  -24.7886  -23.8840   19.9231 C   0  0  0  0  0  0  0  0  0  0  0  0
  -26.7126  -23.5248   18.3619 C   0  0  0  0  0  0  0  0  0  0  0  0
  -24.3727  -23.3720   17.5108 C   0  0  0  0  0  0  0  0  0  0  0  0
  -26.7988  -29.2760   15.0353 C   0  0  0  0  0  0  0  0  0  0  0  0
  -28.2537  -28.5729   25.5029 C   0  0  0  0  0  0  0  0  0  0  0  0
  -27.3239  -29.4421   24.6481 C   0  0  0  0  0  0  0  0  0  0  0  0
  -27.5290  -30.9455   24.8797 C   0  0  0  0  0  0  0  0  0  0  0  0
  -25.3302  -25.6353   18.1049 C   0  0  1  0  0  0  0  0  0  0  0  0
  -27.1442  -26.8028   14.9879 C   0  0  2  0  0  0  0  0  0  0  0  0
  -26.6190  -31.7940   23.9858 C   0  0  2  0  0  0  0  0  0  1  0  0
  -25.2977  -24.1289   18.4886 C   0  0  0  0  0  0  0  0  0  0  0  0
  -27.1595  -16.1703   21.0284 N   0  0  0  0  0  0  0  0  0  0  0  0
  -28.3715  -16.6815   21.3041 N   0  0  0  0  0  0  0  0  0  0  0  0
  -27.3992  -20.2833   22.1625 N   0  0  0  0  0  0  0  0  0  0  0  0
  -23.8865  -27.3630   19.1318 N   0  0  0  0  0  0  0  0  0  0  0  0
  -30.6298  -16.0829   21.6941 N   0  0  0  0  0  0  0  0  0  0  0  0
  -28.6056  -12.1083   20.9862 N   0  0  0  0  0  0  0  0  0  0  0  0
  -20.8313  -27.5922   21.1090 N   0  0  0  0  0  0  0  0  0  0  0  0
  -25.7826  -25.8952   16.7425 N   0  0  0  0  0  0  0  0  0  0  0  0
  -27.6905  -28.1494   14.6578 N   0  3  0  0  0  0  0  0  0  0  0  0
  -30.6062  -13.1187   21.4714 O   0  0  0  0  0  0  0  0  0  0  0  0
  -26.8224  -20.2771   24.4175 O   0  0  0  0  0  0  0  0  0  0  0  0
  -22.8457  -26.4358   21.2749 O   0  0  0  0  0  0  0  0  0  0  0  0
  -23.0351  -25.8719   17.5545 O   0  0  0  0  0  0  0  0  0  0  0  0
  -27.5685  -27.2556   17.3229 O   0  0  0  0  0  0  0  0  0  0  0  0
  -23.2050  -11.3148   19.8733 O   0  0  0  0  0  0  0  0  0  0  0  0
  -26.8797  -31.4782   22.6188 O   0  0  0  0  0  0  0  0  0  1  0  0
  -22.8257   -6.7597   22.9574 F   0  0  0  0  0  0  0  0  0  0  0  0
  -20.9482  -10.8119   21.3888 F   0  0  0  0  0  0  0  0  0  0  0  0
  1  2  1  0  0  0  0
  1  6  2  0  0  0  0
  2  7  2  0  0  0  0
  3 10  2  0  0  0  0
  3 18  1  0  0  0  0
  4 11  1  0  0  0  0
  4 18  2  0  0  0  0
  5  9  2  0  0  0  0
  5 19  1  0  0  0  0
  6 21  1  0  0  0  0
  7 23  1  0  0  0  0
  8 12  2  0  0  0  0
  8 22  1  0  0  0  0
  9 25  1  0  0  0  0
 10 27  1  0  0  0  0
 11 27  2  0  0  0  0
 12 28  1  0  0  0  0
 13 14  2  0  0  0  0
 13 29  1  0  0  0  0
 14 30  1  0  0  0  0
 15 24  1  0  0  0  0
 15 28  2  0  0  0  0
 16 25  2  0  0  0  0
 16 26  1  0  0  0  0
 17 30  2  0  0  0  0
 17 31  1  0  0  0  0
 18 32  1  0  0  0  0
 19 26  2  0  0  0  0
 19 34  1  0  0  0  0
 20 32  1  0  0  0  0
 20 33  2  0  0  0  0
 20 36  1  0  0  0  0
 21 23  2  0  0  0  0
 21 41  1  0  0  0  0
 22 24  2  0  0  0  0
 22 42  1  0  0  0  0
 23 50  1  0  0  0  0
 24 43  1  0  0  0  0
 25 60  1  0  0  0  0
 26 53  1  0  0  0  0
 27 81  1  0  0  0  0
 28 82  1  0  0  0  0
 29 31  2  0  0  0  0
 29 81  1  0  0  0  0
 30 83  1  0  0  0  0
 31 84  1  0  0  0  0
 32 67  2  0  0  0  0
 33 68  1  0  0  0  0
 33 71  1  0  0  0  0
 34 35  2  0  0  0  0
 35 37  1  0  0  0  0
 36 72  1  0  0  0  0
 36 76  2  0  0  0  0
 37 69  1  0  0  0  0
 37 77  2  0  0  0  0
 38 51  1  0  0  0  0
 38 73  1  0  0  0  0
 38 78  2  0  0  0  0
 39 63  1  0  0  0  0
 39 70  1  0  0  0  0
 39 79  2  0  0  0  0
 40 64  1  0  0  0  0
 40 74  1  0  0  0  0
 40 80  2  0  0  0  0
 41 44  1  0  0  0  0
 42 51  1  0  0  0  0
 43 70  1  0  0  0  0
 44 46  1  0  0  0  0
 45 47  1  0  0  0  0
 45 48  1  0  0  0  0
 46 50  1  0  0  0  0
 47 52  1  0  0  0  0
 48 69  1  0  0  0  0
 49 52  1  0  0  0  0
 49 69  1  0  0  0  0
 50 73  1  0  0  0  0
 51 70  1  0  0  0  0
 52 68  1  0  0  0  0
 54 64  1  0  0  0  0
 55 65  1  0  0  0  0
 56 66  1  0  0  0  0
 57 66  1  0  0  0  0
 58 66  1  0  0  0  0
 59 75  1  0  0  0  0
 60 61  1  0  0  0  0
 61 62  1  0  0  0  0
 62 65  1  0  0  0  0
 63 66  1  0  0  0  0
 63 74  1  0  0  0  0
 64 75  1  0  0  0  0
 65 82  1  0  0  0  0
 67 68  1  0  0  0  0
M  CHG  1  75   1
M  ISO  4  35 100  37 100  65 101  82 101
M  END
> <Batch ID>
0132

> <Smiles>
CNC(C)C(=O)NC(C(=O)N1Cc2cc([101O:1][101CH:1](C)CCCc3ccc(C=[100CH:0][100C:0](=O)N4CCCC(n5nc(-c6ccc(Oc7ccc(F)cc7F)cc6)c(C(N)=O)c5N)C4)c(C)c3)ccc2CC1C(=O)NC1CCCc2ccccc21)C(C)(C)C

> <Shape>
0.296

> <Color>
0.073

> <Negative vol penalty>
0.000

$$$$

  -OEChem-04052302283D

 86 94  0     1  0  0  0  0  0999 V2000
  -26.3401  -20.8628   15.3369 C   0  0  0  0  0  0  0  0  0  0  0  0
  -27.2528  -19.8944   15.7426 C   0  0  0  0  0  0  0  0  0  0  0  0
  -26.4906  -28.2385   21.4115 C   0  0  0  0  0  0  0  0  0  0  0  0
  -27.1078  -29.1580   19.2643 C   0  0  0  0  0  0  0  0  0  0  0  0
  -25.2530  -21.1790   16.1506 C   0  0  0  0  0  0  0  0  0  0  0  0
  -27.0795  -19.2423   16.9629 C   0  0  0  0  0  0  0  0  0  0  0  0
  -28.4516  -13.4143   18.2503 C   0  0  0  0  0  0  0  0  0  0  0  0
  -34.1500  -16.8722   17.7255 C   0  0  0  0  0  0  0  0  0  0  0  0
  -26.3174  -29.5281   21.9140 C   0  0  0  0  0  0  0  0  0  0  0  0
  -26.9346  -30.4477   19.7667 C   0  0  0  0  0  0  0  0  0  0  0  0
  -29.5493  -12.8254   18.8765 C   0  0  0  0  0  0  0  0  0  0  0  0
  -34.4063  -15.9643   18.7529 C   0  0  0  0  0  0  0  0  0  0  0  0
  -23.9728  -31.9606   21.7776 C   0  0  0  0  0  0  0  0  0  0  0  0
  -22.8308  -32.2121   22.5379 C   0  0  0  0  0  0  0  0  0  0  0  0
  -32.6228  -16.9389   20.0592 C   0  0  0  0  0  0  0  0  0  0  0  0
  -28.3429  -12.8125   20.9655 C   0  0  0  0  0  0  0  0  0  0  0  0
  -24.2180  -32.8238   24.4191 C   0  0  0  0  0  0  0  0  0  0  0  0
  -26.8859  -28.0535   20.0867 C   0  0  0  0  0  0  0  0  0  0  0  0
  -32.3665  -17.8469   19.0319 C   0  0  0  0  0  0  0  0  0  0  0  0
  -26.0956  -25.9147   18.9427 C   0  0  0  0  0  0  0  0  0  0  0  0
  -25.0609  -20.5236   17.3771 C   0  0  0  0  0  0  0  0  0  0  0  0
  -27.2935  -13.7172   18.9806 C   0  0  0  0  0  0  0  0  0  0  0  0
  -25.9895  -19.5510   17.7945 C   0  0  0  0  0  0  0  0  0  0  0  0
  -27.2310  -13.4029   20.3456 C   0  0  0  0  0  0  0  0  0  0  0  0
  -33.1301  -17.8136   17.8650 C   0  0  0  0  0  0  0  0  0  0  0  0
  -26.5394  -30.6327   21.0916 C   0  0  0  0  0  0  0  0  0  0  0  0
  -33.6427  -15.9976   19.9197 C   0  0  0  0  0  0  0  0  0  0  0  0
  -29.4961  -12.5271   20.2349 C   0  0  0  0  0  0  0  0  0  0  0  0
  -25.2374  -32.1406   22.3380 C   0  0  0  0  0  0  0  0  0  0  0  0
  -22.9534  -32.6437   23.8587 C   0  0  0  0  0  0  0  0  0  0  0  0
  -25.3600  -32.5722   23.6587 C   0  0  0  0  0  0  0  0  0  0  0  0
  -27.0655  -26.7215   19.5672 C   0  0  0  0  0  0  0  0  0  0  0  0
  -26.7612  -24.7531   18.6357 C   0  0  0  0  0  0  0  0  0  0  0  0
  -31.2942  -18.8176   19.2073 C   0  0  0  0  0  0  0  0  0  0  0  0
  -31.2416  -19.7566   20.1739 C   0  0  0  0  0  0  0  0  0  0  0  0
  -32.8616  -12.1218   21.4242 C   0  0  0  0  0  0  0  0  0  0  0  0
  -24.7163  -26.1905   18.6648 C   0  0  0  0  0  0  0  0  0  0  0  0
  -34.0160  -12.8018   21.5716 C   0  0  0  0  0  0  0  0  0  0  0  0
  -30.0881  -20.6779   20.2134 C   0  0  0  0  0  0  0  0  0  0  0  0
  -25.7204  -16.3879   19.6854 C   0  0  0  0  0  0  0  0  0  0  0  0
  -23.5700  -14.3222   20.9625 C   0  0  0  0  0  0  0  0  0  0  0  0
  -22.9500  -11.2424   22.2956 C   0  0  0  0  0  0  0  0  0  0  0  0
  -23.8969  -20.9328   18.2444 C   0  0  0  0  0  0  0  0  0  0  0  0
  -26.1081  -14.3279   18.2845 C   0  0  0  0  0  0  0  0  0  0  0  0
  -26.0035  -13.6894   21.1700 C   0  0  0  0  0  0  0  0  0  0  0  0
  -23.5788  -19.9295   19.3500 C   0  0  0  0  0  0  0  0  0  0  0  0
  -31.6771  -23.6336   18.7402 C   0  0  0  0  0  0  0  0  0  0  0  0
  -24.8559  -19.5008   20.0656 C   0  0  0  0  0  0  0  0  0  0  0  0
  -30.5404  -24.6491   18.8208 C   0  0  0  0  0  0  0  0  0  0  0  0
  -31.6636  -22.6652   19.9219 C   0  0  0  0  0  0  0  0  0  0  0  0
  -29.2206  -22.9843   20.1871 C   0  0  0  0  0  0  0  0  0  0  0  0
  -25.8220  -18.8040   19.0999 C   0  0  1  0  0  0  0  0  0  0  0  0
  -25.1701  -15.0638   19.2364 C   0  0  1  0  0  0  0  0  0  0  0  0
  -29.1870  -23.9392   18.9836 C   0  0  1  0  0  0  0  0  0  0  0  0
  -32.8836  -18.7712   16.7437 C   0  0  0  0  0  0  0  0  0  0  0  0
  -36.0203  -11.5334   22.4148 C   0  0  0  0  0  0  0  0  0  0  0  0
  -21.1041   -9.8588   23.2836 C   0  0  0  0  0  0  0  0  0  0  0  0
  -23.7649  -15.9183   23.5556 C   0  0  0  0  0  0  0  0  0  0  0  0
  -22.6859  -13.9941   24.7394 C   0  0  0  0  0  0  0  0  0  0  0  0
  -21.4482  -15.2031   22.9424 C   0  0  0  0  0  0  0  0  0  0  0  0
  -23.1990   -9.1890   20.1789 C   0  0  0  0  0  0  0  0  0  0  0  0
  -31.8575  -12.2587   20.3237 C   0  0  0  0  0  0  0  0  0  1  0  0
  -34.9782  -12.5996   22.7209 C   0  0  0  0  0  0  0  0  0  0  0  0
  -34.4154  -13.8385   20.5501 C   0  0  0  0  0  0  0  0  0  0  0  0
  -23.3725  -13.6869   22.3176 C   0  0  1  0  0  0  0  0  0  0  0  0
  -21.8593  -10.2244   22.0152 C   0  0  2  0  0  0  0  0  0  0  0  0
  -22.8419  -14.6968   23.3739 C   0  0  0  0  0  0  0  0  0  0  0  0
  -28.2566  -26.1232   19.6528 N   0  0  0  0  0  0  0  0  0  0  0  0
  -28.0394  -24.9279   19.0780 N   0  0  0  0  0  0  0  0  0  0  0  0
  -30.3420  -22.0430   20.0927 N   0  0  0  0  0  0  0  0  0  0  0  0
  -24.8730  -14.2929   20.4454 N   0  0  0  0  0  0  0  0  0  0  0  0
  -26.3719  -23.6095   18.0332 N   0  0  0  0  0  0  0  0  0  0  0  0
  -24.1932  -27.4332   19.0475 N   0  0  0  0  0  0  0  0  0  0  0  0
  -25.3965  -17.4429   18.8537 N   0  0  0  0  0  0  0  0  0  0  0  0
  -22.5048  -12.5334   22.1051 N   0  0  0  0  0  0  0  0  0  0  0  0
  -22.4468   -8.9801   21.4429 N   0  3  0  0  0  0  0  0  0  0  0  0
  -23.9656  -25.3533   18.1089 O   0  0  0  0  0  0  0  0  0  0  0  0
  -28.9690  -20.1821   20.3559 O   0  0  0  0  0  0  0  0  0  0  0  0
  -26.3881  -16.4482   20.7111 O   0  0  0  0  0  0  0  0  0  0  0  0
  -22.6026  -14.8196   20.3809 O   0  0  0  0  0  0  0  0  0  0  0  0
  -24.0824  -10.9243   22.6520 O   0  0  0  0  0  0  0  0  0  0  0  0
  -26.3702  -31.8913   21.5815 O   0  0  0  0  0  0  0  0  0  0  0  0
  -30.5663  -11.9529   20.8488 O   0  0  0  0  0  0  0  0  0  1  0  0
  -33.8964  -15.1064   20.9295 O   0  0  0  0  0  0  0  0  0  0  0  0
  -21.8566  -32.8867   24.5882 F   0  0  0  0  0  0  0  0  0  0  0  0
  -26.5722  -32.7481   24.2021 F   0  0  0  0  0  0  0  0  0  0  0  0
  1  2  1  0  0  0  0
  1  5  2  0  0  0  0
  2  6  2  0  0  0  0
  3  9  2  0  0  0  0
  3 18  1  0  0  0  0
  4 10  1  0  0  0  0
  4 18  2  0  0  0  0
  5 21  1  0  0  0  0
  6 23  1  0  0  0  0
  7 11  2  0  0  0  0
  7 22  1  0  0  0  0
  8 12  2  0  0  0  0
  8 25  1  0  0  0  0
  9 26  1  0  0  0  0
 10 26  2  0  0  0  0
 11 28  1  0  0  0  0
 12 27  1  0  0  0  0
 13 14  2  0  0  0  0
 13 29  1  0  0  0  0
 14 30  1  0  0  0  0
 15 19  1  0  0  0  0
 15 27  2  0  0  0  0
 16 24  1  0  0  0  0
 16 28  2  0  0  0  0
 17 30  2  0  0  0  0
 17 31  1  0  0  0  0
 18 32  1  0  0  0  0
 19 25  2  0  0  0  0
 19 34  1  0  0  0  0
 20 32  1  0  0  0  0
 20 33  2  0  0  0  0
 20 37  1  0  0  0  0
 21 23  2  0  0  0  0
 21 43  1  0  0  0  0
 22 24  2  0  0  0  0
 22 44  1  0  0  0  0
 23 52  1  0  0  0  0
 24 45  1  0  0  0  0
 25 55  1  0  0  0  0
 26 82  1  0  0  0  0
 27 84  1  0  0  0  0
 28 83  1  0  0  0  0
 29 31  2  0  0  0  0
 29 82  1  0  0  0  0
 30 85  1  0  0  0  0
 31 86  1  0  0  0  0
 32 68  2  0  0  0  0
 33 69  1  0  0  0  0
 33 72  1  0  0  0  0
 34 35  2  0  0  0  0
 35 39  1  0  0  0  0
 36 38  2  0  0  0  0
 36 62  1  0  0  0  0
 37 73  1  0  0  0  0
 37 77  2  0  0  0  0
 38 63  1  0  0  0  0
 38 64  1  0  0  0  0
 39 70  1  0  0  0  0
 39 78  2  0  0  0  0
 40 53  1  0  0  0  0
 40 74  1  0  0  0  0
 40 79  2  0  0  0  0
 41 65  1  0  0  0  0
 41 71  1  0  0  0  0
 41 80  2  0  0  0  0
 42 66  1  0  0  0  0
 42 75  1  0  0  0  0
 42 81  2  0  0  0  0
 43 46  1  0  0  0  0
 44 53  1  0  0  0  0
 45 71  1  0  0  0  0
 46 48  1  0  0  0  0
 47 49  1  0  0  0  0
 47 50  1  0  0  0  0
 48 52  1  0  0  0  0
 49 54  1  0  0  0  0
 50 70  1  0  0  0  0
 51 54  1  0  0  0  0
 51 70  1  0  0  0  0
 52 74  1  0  0  0  0
 53 71  1  0  0  0  0
 54 69  1  0  0  0  0
 56 63  1  0  0  0  0
 57 66  1  0  0  0  0
 58 67  1  0  0  0  0
 59 67  1  0  0  0  0
 60 67  1  0  0  0  0
 61 76  1  0  0  0  0
 62 83  1  0  0  0  0
 64 84  1  0  0  0  0
 65 67  1  0  0  0  0
 65 75  1  0  0  0  0
 66 76  1  0  0  0  0
 68 69  1  0  0  0  0
M  CHG  1  76   1
M  ISO  4  35 100  39 100  62 101  83 101
M  END
> <Batch ID>
0132

> <Smiles>
CCC(=C[101CH2:1][101O:1]c1ccc2c(c1)CN(C(=O)C(NC(=O)C(C)NC)C(C)(C)C)C(C(=O)NC1CCCc3ccccc31)C2)COc1ccc(C)c(C=[100CH:0][100C:0](=O)N2CCCC(n3nc(-c4ccc(Oc5ccc(F)cc5F)cc4)c(C(N)=O)c3N)C2)c1

> <Shape>
0.236

> <Color>
0.072

> <Negative vol penalty>
0.000

$$$$

  -OEChem-04052302283D

 86 94  0     1  0  0  0  0  0999 V2000
  -19.1837  -25.5101   23.5869 C   0  0  0  0  0  0  0  0  0  0  0  0
  -20.5522  -25.7436   23.4973 C   0  0  0  0  0  0  0  0  0  0  0  0
  -23.8460   -9.6257   22.1938 C   0  0  0  0  0  0  0  0  0  0  0  0
  -23.3075   -9.4057   19.8489 C   0  0  0  0  0  0  0  0  0  0  0  0
  -29.5798  -21.6255   21.3139 C   0  0  0  0  0  0  0  0  0  0  0  0
  -18.2919  -26.3223   22.8877 C   0  0  0  0  0  0  0  0  0  0  0  0
  -21.0298  -26.7889   22.7075 C   0  0  0  0  0  0  0  0  0  0  0  0
  -24.6349  -29.4853   25.0264 C   0  0  0  0  0  0  0  0  0  0  0  0
  -29.6576  -23.0124   21.1866 C   0  0  0  0  0  0  0  0  0  0  0  0
  -22.9095   -8.6388   22.5014 C   0  0  0  0  0  0  0  0  0  0  0  0
  -22.3711   -8.4188   20.1565 C   0  0  0  0  0  0  0  0  0  0  0  0
  -25.9162  -28.9369   25.0627 C   0  0  0  0  0  0  0  0  0  0  0  0
  -22.7222   -5.2642   22.3994 C   0  0  0  0  0  0  0  0  0  0  0  0
  -23.0997   -4.2719   23.3040 C   0  0  0  0  0  0  0  0  0  0  0  0
  -27.2112  -21.7154   20.8459 C   0  0  0  0  0  0  0  0  0  0  0  0
  -26.5658  -30.3477   23.2169 C   0  0  0  0  0  0  0  0  0  0  0  0
  -21.2975   -4.9265   24.7740 C   0  0  0  0  0  0  0  0  0  0  0  0
  -24.0449  -10.0092   20.8675 C   0  0  0  0  0  0  0  0  0  0  0  0
  -28.3566  -20.9770   21.1435 C   0  0  0  0  0  0  0  0  0  0  0  0
  -26.3756  -10.8448   20.2530 C   0  0  0  0  0  0  0  0  0  0  0  0
  -18.7582  -27.3841   22.0967 C   0  0  0  0  0  0  0  0  0  0  0  0
  -24.3057  -30.4629   24.0765 C   0  0  0  0  0  0  0  0  0  0  0  0
  -20.1435  -27.6152   21.9961 C   0  0  0  0  0  0  0  0  0  0  0  0
  -25.2803  -30.9088   23.1724 C   0  0  0  0  0  0  0  0  0  0  0  0
  -28.5122  -23.7507   20.8890 C   0  0  0  0  0  0  0  0  0  0  0  0
  -27.2890  -23.1022   20.7187 C   0  0  0  0  0  0  0  0  0  0  0  0
  -22.1721   -8.0353   21.4828 C   0  0  0  0  0  0  0  0  0  0  0  0
  -26.8810  -29.3659   24.1560 C   0  0  0  0  0  0  0  0  0  0  0  0
  -21.6324   -6.0878   22.6821 C   0  0  0  0  0  0  0  0  0  0  0  0
  -22.3873   -4.1030   24.4913 C   0  0  0  0  0  0  0  0  0  0  0  0
  -20.9201   -5.9189   23.8694 C   0  0  0  0  0  0  0  0  0  0  0  0
  -25.0117  -11.0291   20.5491 C   0  0  0  0  0  0  0  0  0  0  0  0
  -26.8516  -12.1126   20.0239 C   0  0  0  0  0  0  0  0  0  0  0  0
  -28.2757  -19.5307   21.2758 C   0  0  0  0  0  0  0  0  0  0  0  0
  -27.1480  -18.8280   21.5145 C   0  0  0  0  0  0  0  0  0  0  0  0
  -27.1435   -9.6356   20.1906 C   0  0  0  0  0  0  0  0  0  0  0  0
  -27.2276  -17.3567   21.6127 C   0  0  0  0  0  0  0  0  0  0  0  0
  -22.2240  -30.6526   21.6818 C   0  0  0  0  0  0  0  0  0  0  0  0
  -28.0861  -25.9600   21.9780 C   0  0  0  0  0  0  0  0  0  0  0  0
  -23.2722  -33.7186   21.5289 C   0  0  0  0  0  0  0  0  0  0  0  0
  -25.7526  -35.9686   22.1861 C   0  0  0  0  0  0  0  0  0  0  0  0
  -17.7586  -28.2056   21.3217 C   0  0  0  0  0  0  0  0  0  0  0  0
  -22.9269  -31.0637   24.0678 C   0  0  0  0  0  0  0  0  0  0  0  0
  -24.9834  -31.9704   22.1460 C   0  0  0  0  0  0  0  0  0  0  0  0
  -18.3251  -29.5254   20.8045 C   0  0  0  0  0  0  0  0  0  0  0  0
  -24.4287  -16.4925   19.4102 C   0  0  0  0  0  0  0  0  0  0  0  0
  -19.6877  -29.3037   20.1556 C   0  0  0  0  0  0  0  0  0  0  0  0
  -24.4198  -14.9709   19.5299 C   0  0  0  0  0  0  0  0  0  0  0  0
  -24.8449  -17.1664   20.7169 C   0  0  0  0  0  0  0  0  0  0  0  0
  -26.1420  -15.1579   21.3682 C   0  0  0  0  0  0  0  0  0  0  0  0
  -20.6988  -28.7547   21.1694 C   0  0  1  0  0  0  0  0  0  0  0  0
  -22.5534  -31.6831   22.7246 C   0  0  1  0  0  0  0  0  0  0  0  0
  -25.7715  -14.4580   20.0513 C   0  0  1  0  0  0  0  0  0  0  0  0
  -24.9501  -23.6535   21.4344 C   0  0  0  0  0  0  0  0  0  0  0  0
  -26.3359  -38.3938   21.9108 C   0  0  0  0  0  0  0  0  0  0  0  0
  -23.8521  -33.2410   18.5717 C   0  0  0  0  0  0  0  0  0  0  0  0
  -25.2726  -35.3025   18.5889 C   0  0  0  0  0  0  0  0  0  0  0  0
  -22.8342  -35.4660   19.0891 C   0  0  0  0  0  0  0  0  0  0  0  0
  -25.9639  -36.3693   25.1107 C   0  0  0  0  0  0  0  0  0  0  0  0
  -28.6212  -25.2467   20.7563 C   0  0  0  0  0  0  0  0  0  0  0  0
  -26.0496  -23.8718   20.3993 C   0  0  0  0  0  0  0  0  0  0  0  0
  -29.0115  -26.2368   23.1433 C   0  0  0  0  0  0  0  0  0  0  0  0
  -29.7642  -27.5533   22.9816 C   0  0  0  0  0  0  0  0  0  0  0  0
  -28.8432  -28.7667   22.9532 C   0  0  0  0  0  0  0  0  0  1  0  0
  -24.3838  -34.4333   20.7992 C   0  0  1  0  0  0  0  0  0  0  0  0
  -25.7203  -37.3455   22.8246 C   0  0  2  0  0  0  0  0  0  0  0  0
  -24.0910  -34.5893   19.2802 C   0  0  0  0  0  0  0  0  0  0  0  0
  -24.6450  -12.3129   20.5124 N   0  0  0  0  0  0  0  0  0  0  0  0
  -26.8479  -26.3302   22.0503 N   0  0  0  0  0  0  0  0  0  0  0  0
  -25.7855  -12.9468   20.1906 N   0  0  0  0  0  0  0  0  0  0  0  0
  -26.1109  -16.6179   21.2259 N   0  0  0  0  0  0  0  0  0  0  0  0
  -23.6190  -32.5227   22.1735 N   0  0  0  0  0  0  0  0  0  0  0  0
  -28.0739  -12.5842   19.6983 N   0  0  0  0  0  0  0  0  0  0  0  0
  -26.4979   -8.4198   20.4536 N   0  0  0  0  0  0  0  0  0  0  0  0
  -21.1804  -29.8156   22.0279 N   0  0  0  0  0  0  0  0  0  0  0  0
  -24.5873  -35.6958   21.5012 N   0  0  0  0  0  0  0  0  0  0  0  0
  -26.4766  -37.3388   24.1086 N   0  3  0  0  0  0  0  0  0  0  0  0
  -28.3697   -9.6350   19.9259 O   0  0  0  0  0  0  0  0  0  0  0  0
  -28.2780  -16.8711   22.0366 O   0  0  0  0  0  0  0  0  0  0  0  0
  -22.8680  -30.6202   20.6398 O   0  0  0  0  0  0  0  0  0  0  0  0
  -22.1395  -34.2071   21.5332 O   0  0  0  0  0  0  0  0  0  0  0  0
  -26.7166  -35.2124   22.2819 O   0  0  0  0  0  0  0  0  0  0  0  0
  -21.2584   -7.0720   21.7826 O   0  0  0  0  0  0  0  0  0  0  0  0
  -28.1322  -28.8318   24.1887 O   0  0  0  0  0  0  0  0  0  1  0  0
  -22.7490   -3.1490   25.3592 F   0  0  0  0  0  0  0  0  0  0  0  0
  -19.8715   -6.7062   24.1459 F   0  0  0  0  0  0  0  0  0  0  0  0
  1  2  1  0  0  0  0
  1  6  2  0  0  0  0
  2  7  2  0  0  0  0
  3 10  2  0  0  0  0
  3 18  1  0  0  0  0
  4 11  1  0  0  0  0
  4 18  2  0  0  0  0
  5  9  2  0  0  0  0
  5 19  1  0  0  0  0
  6 21  1  0  0  0  0
  7 23  1  0  0  0  0
  8 12  2  0  0  0  0
  8 22  1  0  0  0  0
  9 25  1  0  0  0  0
 10 27  1  0  0  0  0
 11 27  2  0  0  0  0
 12 28  1  0  0  0  0
 13 14  2  0  0  0  0
 13 29  1  0  0  0  0
 14 30  1  0  0  0  0
 15 19  2  0  0  0  0
 15 26  1  0  0  0  0
 16 24  1  0  0  0  0
 16 28  2  0  0  0  0
 17 30  2  0  0  0  0
 17 31  1  0  0  0  0
 18 32  1  0  0  0  0
 19 34  1  0  0  0  0
 20 32  1  0  0  0  0
 20 33  2  0  0  0  0
 20 36  1  0  0  0  0
 21 23  2  0  0  0  0
 21 42  1  0  0  0  0
 22 24  2  0  0  0  0
 22 43  1  0  0  0  0
 23 51  1  0  0  0  0
 24 44  1  0  0  0  0
 25 26  2  0  0  0  0
 25 60  1  0  0  0  0
 26 61  1  0  0  0  0
 27 83  1  0  0  0  0
 28 84  1  0  0  0  0
 29 31  2  0  0  0  0
 29 83  1  0  0  0  0
 30 85  1  0  0  0  0
 31 86  1  0  0  0  0
 32 68  2  0  0  0  0
 33 70  1  0  0  0  0
 33 73  1  0  0  0  0
 34 35  2  0  0  0  0
 35 37  1  0  0  0  0
 36 74  1  0  0  0  0
 36 78  2  0  0  0  0
 37 71  1  0  0  0  0
 37 79  2  0  0  0  0
 38 52  1  0  0  0  0
 38 75  1  0  0  0  0
 38 80  2  0  0  0  0
 39 60  1  0  0  0  0
 39 62  1  0  0  0  0
 39 69  2  0  0  0  0
 40 65  1  0  0  0  0
 40 72  1  0  0  0  0
 40 81  2  0  0  0  0
 41 66  1  0  0  0  0
 41 76  1  0  0  0  0
 41 82  2  0  0  0  0
 42 45  1  0  0  0  0
 43 52  1  0  0  0  0
 44 72  1  0  0  0  0
 45 47  1  0  0  0  0
 46 48  1  0  0  0  0
 46 49  1  0  0  0  0
 47 51  1  0  0  0  0
 48 53  1  0  0  0  0
 49 71  1  0  0  0  0
 50 53  1  0  0  0  0
 50 71  1  0  0  0  0
 51 75  1  0  0  0  0
 52 72  1  0  0  0  0
 53 70  1  0  0  0  0
 54 61  1  0  0  0  0
 55 66  1  0  0  0  0
 56 67  1  0  0  0  0
 57 67  1  0  0  0  0
 58 67  1  0  0  0  0
 59 77  1  0  0  0  0
 62 63  1  0  0  0  0
 63 64  1  0  0  0  0
 64 84  1  0  0  0  0
 65 67  1  0  0  0  0
 65 76  1  0  0  0  0
 66 77  1  0  0  0  0
 68 70  1  0  0  0  0
M  CHG  1  77   1
M  ISO  4  35 100  37 100  64 101  84 101
M  END
> <Batch ID>
0132

> <Smiles>
CCc1cc(C=[100CH:0][100C:0](=O)N2CCCC(n3nc(-c4ccc(Oc5ccc(F)cc5F)cc4)c(C(N)=O)c3N)C2)ccc1CC(=N)CC[101CH2:1][101O:1]c1ccc2c(c1)CN(C(=O)C(NC(=O)C(C)NC)C(C)(C)C)C(C(=O)NC1CCCc3ccccc31)C2

> <Shape>
0.298

> <Color>
0.140

> <Negative vol penalty>
0.000

$$$$

  -OEChem-04052302283D

 85 93  0     1  0  0  0  0  0999 V2000
  -34.8322  -36.2955   21.4305 C   0  0  0  0  0  0  0  0  0  0  0  0
  -35.0301  -35.1688   22.2221 C   0  0  0  0  0  0  0  0  0  0  0  0
  -23.0788   -9.9529   19.8924 C   0  0  0  0  0  0  0  0  0  0  0  0
  -23.8695   -9.8645   22.1736 C   0  0  0  0  0  0  0  0  0  0  0  0
  -33.6760  -36.4102   20.6597 C   0  0  0  0  0  0  0  0  0  0  0  0
  -34.0714  -34.1565   22.2444 C   0  0  0  0  0  0  0  0  0  0  0  0
  -35.0805  -28.1419   22.8028 C   0  0  0  0  0  0  0  0  0  0  0  0
  -32.7467  -17.3795   23.5611 C   0  0  0  0  0  0  0  0  0  0  0  0
  -32.1255  -16.5416   22.6349 C   0  0  0  0  0  0  0  0  0  0  0  0
  -22.3343   -8.7928   20.1054 C   0  0  0  0  0  0  0  0  0  0  0  0
  -23.1250   -8.7044   22.3867 C   0  0  0  0  0  0  0  0  0  0  0  0
  -35.0189  -27.2779   23.8952 C   0  0  0  0  0  0  0  0  0  0  0  0
  -19.9024   -7.8924   23.0003 C   0  0  0  0  0  0  0  0  0  0  0  0
  -19.1612   -7.8073   24.1788 C   0  0  0  0  0  0  0  0  0  0  0  0
  -32.7725  -26.6587   23.2711 C   0  0  0  0  0  0  0  0  0  0  0  0
  -30.5895  -18.2313   24.2375 C   0  0  0  0  0  0  0  0  0  0  0  0
  -20.4056   -5.8378   24.8190 C   0  0  0  0  0  0  0  0  0  0  0  0
  -23.8465  -10.4888   20.9264 C   0  0  0  0  0  0  0  0  0  0  0  0
  -24.1956  -13.0157   20.9043 C   0  0  0  0  0  0  0  0  0  0  0  0
  -32.7072  -35.3944   20.6651 C   0  0  0  0  0  0  0  0  0  0  0  0
  -33.9827  -28.2791   21.9411 C   0  0  0  0  0  0  0  0  0  0  0  0
  -32.9005  -34.2583   21.4740 C   0  0  0  0  0  0  0  0  0  0  0  0
  -32.8237  -27.5231   22.1670 C   0  0  0  0  0  0  0  0  0  0  0  0
  -31.9787  -18.2243   24.3624 C   0  0  0  0  0  0  0  0  0  0  0  0
  -29.9682  -17.3935   23.3114 C   0  0  0  0  0  0  0  0  0  0  0  0
  -30.7363  -16.5486   22.5101 C   0  0  0  0  0  0  0  0  0  0  0  0
  -22.3573   -8.1686   21.3526 C   0  0  0  0  0  0  0  0  0  0  0  0
  -33.8637  -26.5383   24.1312 C   0  0  0  0  0  0  0  0  0  0  0  0
  -20.8952   -6.9503   22.7311 C   0  0  0  0  0  0  0  0  0  0  0  0
  -19.4128   -6.7800   25.0882 C   0  0  0  0  0  0  0  0  0  0  0  0
  -21.1468   -5.9230   23.6405 C   0  0  0  0  0  0  0  0  0  0  0  0
  -24.6162  -11.6868   20.7068 C   0  0  0  0  0  0  0  0  0  0  0  0
  -25.2854  -13.7760   20.5569 C   0  0  0  0  0  0  0  0  0  0  0  0
  -22.9327  -13.5179   21.3611 C   0  0  0  0  0  0  0  0  0  0  0  0
  -32.0671  -30.6767   21.1130 C   0  0  0  0  0  0  0  0  0  0  0  0
  -30.8966  -28.5008   19.0112 C   0  0  0  0  0  0  0  0  0  0  0  0
  -30.4383  -25.2197   18.1918 C   0  0  0  0  0  0  0  0  0  0  0  0
  -30.7571  -14.7973   20.6994 C   0  0  0  0  0  0  0  0  0  0  0  0
  -31.4514  -35.5846   19.8518 C   0  0  0  0  0  0  0  0  0  0  0  0
  -34.0748  -29.1953   20.7517 C   0  0  0  0  0  0  0  0  0  0  0  0
  -31.6250  -27.6190   21.2600 C   0  0  0  0  0  0  0  0  0  0  0  0
  -30.6598  -34.2962   19.6430 C   0  0  0  0  0  0  0  0  0  0  0  0
  -29.6023  -12.4849   18.2506 C   0  0  0  0  0  0  0  0  0  0  0  0
  -30.5222  -33.5353   20.9579 C   0  0  0  0  0  0  0  0  0  0  0  0
  -28.1676  -12.1805   18.6875 C   0  0  0  0  0  0  0  0  0  0  0  0
  -30.5344  -12.6620   19.4479 C   0  0  0  0  0  0  0  0  0  0  0  0
  -28.6488  -13.3355   20.8833 C   0  0  0  0  0  0  0  0  0  0  0  0
  -31.8952  -33.1276   21.5057 C   0  0  1  0  0  0  0  0  0  0  0  0
  -32.7109  -29.6417   20.2343 C   0  0  1  0  0  0  0  0  0  0  0  0
  -27.6596  -13.2131   19.7128 C   0  0  2  0  0  0  0  0  0  0  0  0
  -28.0092  -18.2002   21.9705 C   0  0  0  0  0  0  0  0  0  0  0  0
  -29.4135  -23.7534   16.4319 C   0  0  0  0  0  0  0  0  0  0  0  0
  -28.1234  -29.0875   20.1406 C   0  0  0  0  0  0  0  0  0  0  0  0
  -27.3135  -26.9795   19.0595 C   0  0  0  0  0  0  0  0  0  0  0  0
  -28.2054  -28.8371   17.6536 C   0  0  0  0  0  0  0  0  0  0  0  0
  -33.0508  -24.0023   17.5200 C   0  0  0  0  0  0  0  0  0  0  0  0
  -32.6506  -19.1318   25.3619 C   0  0  0  0  0  0  0  0  0  0  0  0
  -28.4785  -17.4241   23.1969 C   0  0  0  0  0  0  0  0  0  0  0  0
  -33.0193  -20.5089   24.7983 C   0  0  0  0  0  0  0  0  0  0  0  0
  -33.7130  -21.4109   25.8253 C   0  0  0  0  0  0  0  0  0  0  0  0
  -34.0883  -22.7614   25.2097 C   0  0  0  0  0  0  0  0  0  0  0  0
  -34.7225  -23.7272   26.2111 C   0  0  0  0  0  0  0  0  0  0  0  0
  -35.0246  -25.1018   25.6295 C   0  0  0  0  0  0  0  0  0  1  0  0
  -29.8035  -27.4602   19.0473 C   0  0  1  0  0  0  0  0  0  0  0  0
  -30.6758  -24.4619   16.8981 C   0  0  2  0  0  0  0  0  0  0  0  0
  -28.3832  -28.0905   18.9936 C   0  0  0  0  0  0  0  0  0  0  0  0
  -25.8750  -11.6042   20.2677 N   0  0  0  0  0  0  0  0  0  0  0  0
  -26.2547  -12.8908   20.1865 N   0  0  0  0  0  0  0  0  0  0  0  0
  -31.7615  -28.5333   20.1142 N   0  0  0  0  0  0  0  0  0  0  0  0
  -29.9909  -13.6580   20.3739 N   0  0  0  0  0  0  0  0  0  0  0  0
  -25.4995  -15.1087   20.5351 N   0  0  0  0  0  0  0  0  0  0  0  0
  -21.9222  -12.5988   21.6749 N   0  0  0  0  0  0  0  0  0  0  0  0
  -30.1242  -15.6902   21.5634 N   0  0  0  0  0  0  0  0  0  0  0  0
  -32.4038  -31.9773   20.7898 N   0  0  0  0  0  0  0  0  0  0  0  0
  -30.0870  -26.5324   17.9577 N   0  0  0  0  0  0  0  0  0  0  0  0
  -31.7459  -23.4415   17.0844 N   0  3  0  0  0  0  0  0  0  0  0  0
  -22.7016  -14.7458   21.4715 O   0  0  0  0  0  0  0  0  0  0  0  0
  -31.3190  -30.3216   22.0163 O   0  0  0  0  0  0  0  0  0  0  0  0
  -30.9842  -29.2522   18.0369 O   0  0  0  0  0  0  0  0  0  0  0  0
  -30.5493  -24.6983   19.2992 O   0  0  0  0  0  0  0  0  0  0  0  0
  -31.8804  -14.9814   20.2237 O   0  0  0  0  0  0  0  0  0  0  0  0
  -21.6308   -7.0366   21.5610 O   0  0  0  0  0  0  0  0  0  0  0  0
  -33.8007  -25.6948   25.1972 O   0  0  0  0  0  0  0  0  0  1  0  0
  -18.7020   -6.6992   26.2206 F   0  0  0  0  0  0  0  0  0  0  0  0
  -22.1000   -5.0156   23.3879 F   0  0  0  0  0  0  0  0  0  0  0  0
  1  2  1  0  0  0  0
  1  5  2  0  0  0  0
  2  6  2  0  0  0  0
  3 10  2  0  0  0  0
  3 18  1  0  0  0  0
  4 11  1  0  0  0  0
  4 18  2  0  0  0  0
  5 20  1  0  0  0  0
  6 22  1  0  0  0  0
  7 12  2  0  0  0  0
  7 21  1  0  0  0  0
  8  9  2  0  0  0  0
  8 24  1  0  0  0  0
  9 26  1  0  0  0  0
 10 27  1  0  0  0  0
 11 27  2  0  0  0  0
 12 28  1  0  0  0  0
 13 14  2  0  0  0  0
 13 29  1  0  0  0  0
 14 30  1  0  0  0  0
 15 23  1  0  0  0  0
 15 28  2  0  0  0  0
 16 24  2  0  0  0  0
 16 25  1  0  0  0  0
 17 30  2  0  0  0  0
 17 31  1  0  0  0  0
 18 32  1  0  0  0  0
 19 32  1  0  0  0  0
 19 33  2  0  0  0  0
 19 34  1  0  0  0  0
 20 22  2  0  0  0  0
 20 39  1  0  0  0  0
 21 23  2  0  0  0  0
 21 40  1  0  0  0  0
 22 48  1  0  0  0  0
 23 41  1  0  0  0  0
 24 57  1  0  0  0  0
 25 26  2  0  0  0  0
 25 58  1  0  0  0  0
 26 73  1  0  0  0  0
 27 82  1  0  0  0  0
 28 83  1  0  0  0  0
 29 31  2  0  0  0  0
 29 82  1  0  0  0  0
 30 84  1  0  0  0  0
 31 85  1  0  0  0  0
 32 67  2  0  0  0  0
 33 68  1  0  0  0  0
 33 71  1  0  0  0  0
 34 72  1  0  0  0  0
 34 77  2  0  0  0  0
 35 49  1  0  0  0  0
 35 74  1  0  0  0  0
 35 78  2  0  0  0  0
 36 64  1  0  0  0  0
 36 69  1  0  0  0  0
 36 79  2  0  0  0  0
 37 65  1  0  0  0  0
 37 75  1  0  0  0  0
 37 80  2  0  0  0  0
 38 70  1  0  0  0  0
 38 73  1  0  0  0  0
 38 81  2  0  0  0  0
 39 42  1  0  0  0  0
 40 49  1  0  0  0  0
 41 69  1  0  0  0  0
 42 44  1  0  0  0  0
 43 45  1  0  0  0  0
 43 46  1  0  0  0  0
 44 48  1  0  0  0  0
 45 50  1  0  0  0  0
 46 70  1  0  0  0  0
 47 50  1  0  0  0  0
 47 70  1  0  0  0  0
 48 74  1  0  0  0  0
 49 69  1  0  0  0  0
 50 68  1  0  0  0  0
 51 58  1  0  0  0  0
 52 65  1  0  0  0  0
 53 66  1  0  0  0  0
 54 66  1  0  0  0  0
 55 66  1  0  0  0  0
 56 76  1  0  0  0  0
 57 59  1  0  0  0  0
 59 60  1  0  0  0  0
 60 61  1  0  0  0  0
 61 62  1  0  0  0  0
 62 63  1  0  0  0  0
 63 83  1  0  0  0  0
 64 66  1  0  0  0  0
 64 75  1  0  0  0  0
 65 76  1  0  0  0  0
 67 68  1  0  0  0  0
M  CHG  1  76   1
M  ISO  4  38 100  63 101  73 100  83 101
M  END
> <Batch ID>
0132

> <Smiles>
CCc1cc(CCCCC[101CH2:1][101O:1]c2ccc3c(c2)CN(C(=O)C(NC(=O)C(C)NC)C(C)(C)C)C(C(=O)NC2CCCc4ccccc42)C3)ccc1[100NH:0][100C:0](=O)N1CCCC(n2nc(-c3ccc(Oc4ccc(F)cc4F)cc3)c(C(N)=O)c2N)C1

> <Shape>
0.225

> <Color>
0.206

> <Negative vol penalty>
0.000

$$$$

  -OEChem-04052302283D

 86 94  0     1  0  0  0  0  0999 V2000
  -18.8655  -24.2526   23.6294 C   0  0  0  0  0  0  0  0  0  0  0  0
  -20.2089  -24.2954   23.2704 C   0  0  0  0  0  0  0  0  0  0  0  0
  -23.8155   -8.7173   19.7252 C   0  0  0  0  0  0  0  0  0  0  0  0
  -23.2667  -10.3557   21.4137 C   0  0  0  0  0  0  0  0  0  0  0  0
  -18.0773  -25.3969   23.5134 C   0  0  0  0  0  0  0  0  0  0  0  0
  -20.7646  -25.4823   22.7941 C   0  0  0  0  0  0  0  0  0  0  0  0
  -25.2738  -26.4858   24.8689 C   0  0  0  0  0  0  0  0  0  0  0  0
  -30.7024  -19.3798   20.7085 C   0  0  0  0  0  0  0  0  0  0  0  0
  -30.5903  -18.0036   20.5111 C   0  0  0  0  0  0  0  0  0  0  0  0
  -22.9698   -7.7965   20.3438 C   0  0  0  0  0  0  0  0  0  0  0  0
  -22.4210   -9.4349   22.0323 C   0  0  0  0  0  0  0  0  0  0  0  0
  -26.3721  -25.7823   24.3763 C   0  0  0  0  0  0  0  0  0  0  0  0
  -23.0667   -5.7315   23.0179 C   0  0  0  0  0  0  0  0  0  0  0  0
  -23.5389   -4.4298   23.1855 C   0  0  0  0  0  0  0  0  0  0  0  0
  -26.9814  -27.6886   23.0294 C   0  0  0  0  0  0  0  0  0  0  0  0
  -21.7064   -3.5933   21.8515 C   0  0  0  0  0  0  0  0  0  0  0  0
  -23.9639   -9.9969   20.2602 C   0  0  0  0  0  0  0  0  0  0  0  0
  -24.4984  -11.8722   18.6155 C   0  0  0  0  0  0  0  0  0  0  0  0
  -18.6261  -26.6009   23.0446 C   0  0  0  0  0  0  0  0  0  0  0  0
  -25.0145  -27.7943   24.4364 C   0  0  0  0  0  0  0  0  0  0  0  0
  -19.9827  -26.6434   22.6705 C   0  0  0  0  0  0  0  0  0  0  0  0
  -25.8806  -28.4074   23.5199 C   0  0  0  0  0  0  0  0  0  0  0  0
  -29.7087  -20.2358   20.2336 C   0  0  0  0  0  0  0  0  0  0  0  0
  -28.4907  -18.3392   19.3638 C   0  0  0  0  0  0  0  0  0  0  0  0
  -29.4845  -17.4833   19.8388 C   0  0  0  0  0  0  0  0  0  0  0  0
  -22.2726   -8.1553   21.4973 C   0  0  0  0  0  0  0  0  0  0  0  0
  -27.2245  -26.3826   23.4543 C   0  0  0  0  0  0  0  0  0  0  0  0
  -21.9143   -5.9641   22.2672 C   0  0  0  0  0  0  0  0  0  0  0  0
  -28.6029  -19.7155   19.5612 C   0  0  0  0  0  0  0  0  0  0  0  0
  -22.8588   -3.3607   22.6023 C   0  0  0  0  0  0  0  0  0  0  0  0
  -21.2342   -4.8950   21.6840 C   0  0  0  0  0  0  0  0  0  0  0  0
  -24.8378  -10.9483   19.6220 C   0  0  0  0  0  0  0  0  0  0  0  0
  -25.6703  -12.5381   18.3514 C   0  0  0  0  0  0  0  0  0  0  0  0
  -23.2367  -12.1075   17.9764 C   0  0  0  0  0  0  0  0  0  0  0  0
  -22.6279  -29.2140   22.8897 C   0  0  0  0  0  0  0  0  0  0  0  0
  -24.3256  -31.9017   23.5350 C   0  0  0  0  0  0  0  0  0  0  0  0
  -27.3465  -33.3178   24.2531 C   0  0  0  0  0  0  0  0  0  0  0  0
  -30.3025  -15.1110   20.0618 C   0  0  0  0  0  0  0  0  0  0  0  0
  -17.7232  -27.7993   22.8919 C   0  0  0  0  0  0  0  0  0  0  0  0
  -23.8407  -28.5492   24.9976 C   0  0  0  0  0  0  0  0  0  0  0  0
  -25.6577  -29.8173   23.0392 C   0  0  0  0  0  0  0  0  0  0  0  0
  -18.4797  -29.1156   22.7326 C   0  0  0  0  0  0  0  0  0  0  0  0
  -30.4162  -11.5609   19.8156 C   0  0  0  0  0  0  0  0  0  0  0  0
  -19.6050  -28.9646   21.7140 C   0  0  0  0  0  0  0  0  0  0  0  0
  -28.9471  -11.1610   19.6604 C   0  0  0  0  0  0  0  0  0  0  0  0
  -30.5844  -12.7448   20.7663 C   0  0  0  0  0  0  0  0  0  0  0  0
  -28.2947  -13.5199   20.2909 C   0  0  0  0  0  0  0  0  0  0  0  0
  -20.6281  -27.9186   22.1730 C   0  0  1  0  0  0  0  0  0  0  0  0
  -23.3808  -29.6928   24.0986 C   0  0  1  0  0  0  0  0  0  0  0  0
  -28.0690  -12.3730   19.2921 C   0  0  2  0  0  0  0  0  0  0  0  0
  -27.6282  -17.3987   17.2056 C   0  0  0  0  0  0  0  0  0  0  0  0
  -27.1325  -22.4221   17.6884 C   0  0  0  0  0  0  0  0  0  0  0  0
  -28.4262  -35.5408   24.6890 C   0  0  0  0  0  0  0  0  0  0  0  0
  -24.2133  -32.5381   20.5530 C   0  0  0  0  0  0  0  0  0  0  0  0
  -26.0596  -34.1915   20.9074 C   0  0  0  0  0  0  0  0  0  0  0  0
  -23.8670  -34.5083   22.0539 C   0  0  0  0  0  0  0  0  0  0  0  0
  -28.1888  -32.5062   26.9717 C   0  0  0  0  0  0  0  0  0  0  0  0
  -29.8475  -21.7204   20.4586 C   0  0  0  0  0  0  0  0  0  0  0  0
  -27.3006  -17.7890   18.6425 C   0  0  0  0  0  0  0  0  0  0  0  0
  -28.9504  -22.2637   21.5764 C   0  0  0  0  0  0  0  0  0  0  0  0
  -29.0480  -23.7813   21.7379 C   0  0  0  0  0  0  0  0  0  0  0  0
  -27.7902  -21.0615   17.7770 C   0  0  0  0  0  0  0  0  0  0  0  0
  -28.1747  -24.2790   22.8817 C   0  0  0  0  0  0  0  0  0  1  0  0
  -25.4186  -32.6703   22.8324 C   0  0  1  0  0  0  0  0  0  0  0  0
  -27.7613  -34.3232   25.3121 C   0  0  2  0  0  0  0  0  0  0  0  0
  -24.8930  -33.4498   21.5941 C   0  0  0  0  0  0  0  0  0  0  0  0
  -26.1245  -11.0180   19.9733 N   0  0  0  0  0  0  0  0  0  0  0  0
  -26.6040  -11.9936   19.1831 N   0  0  0  0  0  0  0  0  0  0  0  0
  -24.4930  -30.5118   23.6123 N   0  0  0  0  0  0  0  0  0  0  0  0
  -29.7257  -13.8567   20.3526 N   0  0  0  0  0  0  0  0  0  0  0  0
  -25.9829  -13.5304   17.4911 N   0  0  0  0  0  0  0  0  0  0  0  0
  -22.1351  -11.3343   18.3676 N   0  0  0  0  0  0  0  0  0  0  0  0
  -29.3918  -16.0823   19.6474 N   0  0  0  0  0  0  0  0  0  0  0  0
  -21.4990  -28.4743   23.1865 N   0  0  0  0  0  0  0  0  0  0  0  0
  -26.0430  -33.5119   23.8474 N   0  0  0  0  0  0  0  0  0  0  0  0
  -28.7205  -33.7020   26.2687 N   0  3  0  0  0  0  0  0  0  0  0  0
  -23.0942  -12.9664   17.0734 O   0  0  0  0  0  0  0  0  0  0  0  0
  -23.0397  -29.4961   21.7706 O   0  0  0  0  0  0  0  0  0  0  0  0
  -23.3623  -32.5129   24.0044 O   0  0  0  0  0  0  0  0  0  0  0  0
  -28.1041  -32.4496   23.8257 O   0  0  0  0  0  0  0  0  0  0  0  0
  -31.5185  -15.3013   20.1461 O   0  0  0  0  0  0  0  0  0  0  0  0
  -21.4471   -7.2571   22.1011 O   0  0  0  0  0  0  0  0  0  0  0  0
  -28.2968  -25.6980   22.9714 O   0  0  0  0  0  0  0  0  0  1  0  0
  -27.6311  -20.5542   19.0995 O   0  0  0  0  0  0  0  0  0  0  0  0
  -23.3133   -2.1108   22.7620 F   0  0  0  0  0  0  0  0  0  0  0  0
  -20.1272   -5.1124   20.9607 F   0  0  0  0  0  0  0  0  0  0  0  0
  1  2  1  0  0  0  0
  1  5  2  0  0  0  0
  2  6  2  0  0  0  0
  3 10  2  0  0  0  0
  3 17  1  0  0  0  0
  4 11  1  0  0  0  0
  4 17  2  0  0  0  0
  5 19  1  0  0  0  0
  6 21  1  0  0  0  0
  7 12  2  0  0  0  0
  7 20  1  0  0  0  0
  8  9  1  0  0  0  0
  8 23  2  0  0  0  0
  9 25  2  0  0  0  0
 10 26  1  0  0  0  0
 11 26  2  0  0  0  0
 12 27  1  0  0  0  0
 13 14  2  0  0  0  0
 13 28  1  0  0  0  0
 14 30  1  0  0  0  0
 15 22  1  0  0  0  0
 15 27  2  0  0  0  0
 16 30  2  0  0  0  0
 16 31  1  0  0  0  0
 17 32  1  0  0  0  0
 18 32  1  0  0  0  0
 18 33  2  0  0  0  0
 18 34  1  0  0  0  0
 19 21  2  0  0  0  0
 19 39  1  0  0  0  0
 20 22  2  0  0  0  0
 20 40  1  0  0  0  0
 21 48  1  0  0  0  0
 22 41  1  0  0  0  0
 23 29  1  0  0  0  0
 23 58  1  0  0  0  0
 24 25  1  0  0  0  0
 24 29  2  0  0  0  0
 24 59  1  0  0  0  0
 25 73  1  0  0  0  0
 26 82  1  0  0  0  0
 27 83  1  0  0  0  0
 28 31  2  0  0  0  0
 28 82  1  0  0  0  0
 29 84  1  0  0  0  0
 30 85  1  0  0  0  0
 31 86  1  0  0  0  0
 32 67  2  0  0  0  0
 33 68  1  0  0  0  0
 33 71  1  0  0  0  0
 34 72  1  0  0  0  0
 34 77  2  0  0  0  0
 35 49  1  0  0  0  0
 35 74  1  0  0  0  0
 35 78  2  0  0  0  0
 36 64  1  0  0  0  0
 36 69  1  0  0  0  0
 36 79  2  0  0  0  0
 37 65  1  0  0  0  0
 37 75  1  0  0  0  0
 37 80  2  0  0  0  0
 38 70  1  0  0  0  0
 38 73  1  0  0  0  0
 38 81  2  0  0  0  0
 39 42  1  0  0  0  0
 40 49  1  0  0  0  0
 41 69  1  0  0  0  0
 42 44  1  0  0  0  0
 43 45  1  0  0  0  0
 43 46  1  0  0  0  0
 44 48  1  0  0  0  0
 45 50  1  0  0  0  0
 46 70  1  0  0  0  0
 47 50  1  0  0  0  0
 47 70  1  0  0  0  0
 48 74  1  0  0  0  0
 49 69  1  0  0  0  0
 50 68  1  0  0  0  0
 51 59  1  0  0  0  0
 52 62  1  0  0  0  0
 53 65  1  0  0  0  0
 54 66  1  0  0  0  0
 55 66  1  0  0  0  0
 56 66  1  0  0  0  0
 57 76  1  0  0  0  0
 58 60  1  0  0  0  0
 60 61  1  0  0  0  0
 61 63  1  0  0  0  0
 62 84  1  0  0  0  0
 63 83  1  0  0  0  0
 64 66  1  0  0  0  0
 64 75  1  0  0  0  0
 65 76  1  0  0  0  0
 67 68  1  0  0  0  0
M  CHG  1  76   1
M  ISO  4  38 100  63 101  73 100  83 101
M  END
> <Batch ID>
0132

> <Smiles>
CCOc1c(CCC[101CH2:1][101O:1]c2ccc3c(c2)CN(C(=O)C(NC(=O)C(C)NC)C(C)(C)C)C(C(=O)NC2CCCc4ccccc42)C3)ccc([100NH:0][100C:0](=O)N2CCCC(n3nc(-c4ccc(Oc5ccc(F)cc5F)cc4)c(C(N)=O)c3N)C2)c1CC

> <Shape>
0.299

> <Color>
0.120

> <Negative vol penalty>
0.000

$$$$

  -OEChem-04052302283D

 83 91  0     1  0  0  0  0  0999 V2000
  -18.5821  -25.0417   21.3144 C   0  0  0  0  0  0  0  0  0  0  0  0
  -19.9082  -25.1563   20.9100 C   0  0  0  0  0  0  0  0  0  0  0  0
  -22.7088  -16.0694   21.6523 C   0  0  0  0  0  0  0  0  0  0  0  0
  -23.5747  -17.9439   20.3979 C   0  0  0  0  0  0  0  0  0  0  0  0
  -17.8472  -26.1857   21.6231 C   0  0  0  0  0  0  0  0  0  0  0  0
  -20.5001  -26.4152   20.8131 C   0  0  0  0  0  0  0  0  0  0  0  0
  -25.1430  -26.5397   22.8312 C   0  0  0  0  0  0  0  0  0  0  0  0
  -31.8999  -20.5267   19.7536 C   0  0  0  0  0  0  0  0  0  0  0  0
  -30.4973  -20.3087   17.7985 C   0  0  0  0  0  0  0  0  0  0  0  0
  -32.1476  -19.1542   19.7289 C   0  0  0  0  0  0  0  0  0  0  0  0
  -30.7450  -18.9362   17.7738 C   0  0  0  0  0  0  0  0  0  0  0  0
  -21.9139  -16.9375   22.4007 C   0  0  0  0  0  0  0  0  0  0  0  0
  -22.7798  -18.8120   21.1463 C   0  0  0  0  0  0  0  0  0  0  0  0
  -26.1815  -26.0010   22.0729 C   0  0  0  0  0  0  0  0  0  0  0  0
  -22.8572  -20.2476   24.2063 C   0  0  0  0  0  0  0  0  0  0  0  0
  -23.4472  -21.4182   24.6831 C   0  0  0  0  0  0  0  0  0  0  0  0
  -26.8230  -28.2222   21.3846 C   0  0  0  0  0  0  0  0  0  0  0  0
  -21.8403  -22.7318   23.4464 C   0  0  0  0  0  0  0  0  0  0  0  0
  -23.5393  -16.5726   20.6509 C   0  0  0  0  0  0  0  0  0  0  0  0
  -24.0163  -15.0311   18.6750 C   0  0  0  0  0  0  0  0  0  0  0  0
  -18.4333  -27.4585   21.5391 C   0  0  0  0  0  0  0  0  0  0  0  0
  -24.9296  -27.9253   22.8633 C   0  0  0  0  0  0  0  0  0  0  0  0
  -19.7720  -27.5774   21.1196 C   0  0  0  0  0  0  0  0  0  0  0  0
  -25.7827  -28.7762   22.1461 C   0  0  0  0  0  0  0  0  0  0  0  0
  -31.0747  -21.1039   18.7884 C   0  0  0  0  0  0  0  0  0  0  0  0
  -31.5702  -18.3590   18.7391 C   0  0  0  0  0  0  0  0  0  0  0  0
  -21.9494  -18.3087   22.1478 C   0  0  0  0  0  0  0  0  0  0  0  0
  -27.0199  -26.8421   21.3472 C   0  0  0  0  0  0  0  0  0  0  0  0
  -21.7588  -20.3191   23.3495 C   0  0  0  0  0  0  0  0  0  0  0  0
  -22.9387  -22.6603   24.3031 C   0  0  0  0  0  0  0  0  0  0  0  0
  -21.2503  -21.5612   22.9696 C   0  0  0  0  0  0  0  0  0  0  0  0
  -24.3610  -15.6765   19.8777 C   0  0  0  0  0  0  0  0  0  0  0  0
  -25.1306  -14.2980   18.3471 C   0  0  0  0  0  0  0  0  0  0  0  0
  -22.7979  -15.0892   17.9215 C   0  0  0  0  0  0  0  0  0  0  0  0
  -22.5487  -29.8486   22.0052 C   0  0  0  0  0  0  0  0  0  0  0  0
  -29.3342  -24.4716   19.7299 C   0  0  0  0  0  0  0  0  0  0  0  0
  -24.4053  -32.1216   23.3869 C   0  0  0  0  0  0  0  0  0  0  0  0
  -27.5222  -33.1271   24.3463 C   0  0  0  0  0  0  0  0  0  0  0  0
  -30.9202  -14.9971   19.8206 C   0  0  0  0  0  0  0  0  0  0  0  0
  -17.5850  -28.6694   21.8374 C   0  0  0  0  0  0  0  0  0  0  0  0
  -23.8214  -28.4926   23.7074 C   0  0  0  0  0  0  0  0  0  0  0  0
  -25.6085  -30.2721   22.1633 C   0  0  0  0  0  0  0  0  0  0  0  0
  -18.3979  -29.9403   22.0699 C   0  0  0  0  0  0  0  0  0  0  0  0
  -28.8720  -12.0704   20.3093 C   0  0  0  0  0  0  0  0  0  0  0  0
  -19.4671  -30.0946   20.9929 C   0  0  0  0  0  0  0  0  0  0  0  0
  -27.4502  -12.6166   20.1836 C   0  0  0  0  0  0  0  0  0  0  0  0
  -29.8075  -13.0895   20.9520 C   0  0  0  0  0  0  0  0  0  0  0  0
  -28.4080  -14.9624   20.1210 C   0  0  0  0  0  0  0  0  0  0  0  0
  -20.4567  -28.9237   21.0261 C   0  0  1  0  0  0  0  0  0  0  0  0
  -23.3785  -29.8814   23.2574 C   0  0  1  0  0  0  0  0  0  0  0  0
  -27.4415  -13.9703   19.4515 C   0  0  2  0  0  0  0  0  0  0  0  0
  -28.7296  -35.0495   25.4159 C   0  0  0  0  0  0  0  0  0  0  0  0
  -24.1897  -33.7012   20.7854 C   0  0  0  0  0  0  0  0  0  0  0  0
  -26.1300  -35.0877   21.5478 C   0  0  0  0  0  0  0  0  0  0  0  0
  -24.0100  -35.0825   22.8625 C   0  0  0  0  0  0  0  0  0  0  0  0
  -28.4456  -31.4446   26.5992 C   0  0  0  0  0  0  0  0  0  0  0  0
  -30.8061  -22.5896   18.8144 C   0  0  0  0  0  0  0  0  0  0  0  0
  -31.8370  -16.8919   18.7124 C   0  0  0  0  0  0  0  0  0  0  0  0
  -29.5824  -22.9722   19.6491 C   0  0  0  0  0  0  0  0  0  0  0  0
  -28.1814  -24.8995   20.6168 C   0  0  0  0  0  0  0  0  0  1  0  0
  -25.5021  -33.0420   22.9088 C   0  0  1  0  0  0  0  0  0  0  0  0
  -28.0341  -33.7172   25.6480 C   0  0  2  0  0  0  0  0  0  0  0  0
  -24.9603  -34.2001   22.0240 C   0  0  0  0  0  0  0  0  0  0  0  0
  -25.5975  -15.3793   20.2863 N   0  0  0  0  0  0  0  0  0  0  0  0
  -26.0394  -14.5392   19.3351 N   0  0  0  0  0  0  0  0  0  0  0  0
  -24.5068  -30.7782   22.9986 N   0  0  0  0  0  0  0  0  0  0  0  0
  -29.7466  -14.3749   20.2574 N   0  0  0  0  0  0  0  0  0  0  0  0
  -25.4118  -13.4771   17.3131 N   0  0  0  0  0  0  0  0  0  0  0  0
  -21.7535  -15.8915   18.4009 N   0  0  0  0  0  0  0  0  0  0  0  0
  -21.3992  -29.0892   22.1118 N   0  0  0  0  0  0  0  0  0  0  0  0
  -26.2129  -33.4850   24.1033 N   0  0  0  0  0  0  0  0  0  0  0  0
  -29.0036  -32.7869   26.2926 N   0  3  0  0  0  0  0  0  0  0  0  0
  -22.6341  -14.4358   16.8634 O   0  0  0  0  0  0  0  0  0  0  0  0
  -22.9229  -30.4677   21.0161 O   0  0  0  0  0  0  0  0  0  0  0  0
  -30.0395  -25.2926   19.1460 O   0  0  0  0  0  0  0  0  0  0  0  0
  -23.4959  -32.5763   24.0854 O   0  0  0  0  0  0  0  0  0  0  0  0
  -28.2157  -32.4225   23.6162 O   0  0  0  0  0  0  0  0  0  0  0  0
  -32.0490  -14.5352   19.9776 O   0  0  0  0  0  0  0  0  0  0  0  0
  -21.1737  -19.1561   22.8777 O   0  0  0  0  0  0  0  0  0  0  0  0
  -28.0340  -26.3188   20.6057 O   0  0  0  0  0  0  0  0  0  1  0  0
  -30.6835  -16.1902   19.1908 O   0  0  0  0  0  0  0  0  0  0  0  0
  -23.5045  -23.7843   24.7622 F   0  0  0  0  0  0  0  0  0  0  0  0
  -20.1945  -21.6362   22.1477 F   0  0  0  0  0  0  0  0  0  0  0  0
  1  2  1  0  0  0  0
  1  5  2  0  0  0  0
  2  6  2  0  0  0  0
  3 12  2  0  0  0  0
  3 19  1  0  0  0  0
  4 13  1  0  0  0  0
  4 19  2  0  0  0  0
  5 21  1  0  0  0  0
  6 23  1  0  0  0  0
  7 14  2  0  0  0  0
  7 22  1  0  0  0  0
  8 10  2  0  0  0  0
  8 25  1  0  0  0  0
  9 11  1  0  0  0  0
  9 25  2  0  0  0  0
 10 26  1  0  0  0  0
 11 26  2  0  0  0  0
 12 27  1  0  0  0  0
 13 27  2  0  0  0  0
 14 28  1  0  0  0  0
 15 16  2  0  0  0  0
 15 29  1  0  0  0  0
 16 30  1  0  0  0  0
 17 24  1  0  0  0  0
 17 28  2  0  0  0  0
 18 30  2  0  0  0  0
 18 31  1  0  0  0  0
 19 32  1  0  0  0  0
 20 32  1  0  0  0  0
 20 33  2  0  0  0  0
 20 34  1  0  0  0  0
 21 23  2  0  0  0  0
 21 40  1  0  0  0  0
 22 24  2  0  0  0  0
 22 41  1  0  0  0  0
 23 49  1  0  0  0  0
 24 42  1  0  0  0  0
 25 57  1  0  0  0  0
 26 58  1  0  0  0  0
 27 79  1  0  0  0  0
 28 80  1  0  0  0  0
 29 31  2  0  0  0  0
 29 79  1  0  0  0  0
 30 82  1  0  0  0  0
 31 83  1  0  0  0  0
 32 64  2  0  0  0  0
 33 65  1  0  0  0  0
 33 68  1  0  0  0  0
 34 69  1  0  0  0  0
 34 73  2  0  0  0  0
 35 50  1  0  0  0  0
 35 70  1  0  0  0  0
 35 74  2  0  0  0  0
 36 59  1  0  0  0  0
 36 60  1  0  0  0  0
 36 75  2  0  0  0  0
 37 61  1  0  0  0  0
 37 66  1  0  0  0  0
 37 76  2  0  0  0  0
 38 62  1  0  0  0  0
 38 71  1  0  0  0  0
 38 77  2  0  0  0  0
 39 67  1  0  0  0  0
 39 78  2  0  0  0  0
 39 81  1  0  0  0  0
 40 43  1  0  0  0  0
 41 50  1  0  0  0  0
 42 66  1  0  0  0  0
 43 45  1  0  0  0  0
 44 46  1  0  0  0  0
 44 47  1  0  0  0  0
 45 49  1  0  0  0  0
 46 51  1  0  0  0  0
 47 67  1  0  0  0  0
 48 51  1  0  0  0  0
 48 67  1  0  0  0  0
 49 70  1  0  0  0  0
 50 66  1  0  0  0  0
 51 65  1  0  0  0  0
 52 62  1  0  0  0  0
 53 63  1  0  0  0  0
 54 63  1  0  0  0  0
 55 63  1  0  0  0  0
 56 72  1  0  0  0  0
 57 59  1  0  0  0  0
 58 81  1  0  0  0  0
 60 80  1  0  0  0  0
 61 63  1  0  0  0  0
 61 71  1  0  0  0  0
 62 72  1  0  0  0  0
 64 65  1  0  0  0  0
M  CHG  1  72   1
M  ISO  4  39 100  60 101  80 101  81 100
M  END
> <Batch ID>
0132

> <Smiles>
CNC(C)C(=O)NC(C(=O)N1Cc2cc([101O:1][101CH2:1]C(=O)CCc3ccc(C[100O:0][100C:0](=O)N4CCCC(n5nc(-c6ccc(Oc7ccc(F)cc7F)cc6)c(C(N)=O)c5N)C4)cc3)ccc2CC1C(=O)NC1CCCc2ccccc21)C(C)(C)C

> <Shape>
0.227

> <Color>
0.113

> <Negative vol penalty>
0.000

$$$$

  -OEChem-04052302283D

 84 92  0     1  0  0  0  0  0999 V2000
  -27.9680  -24.8095   16.5065 C   0  0  0  0  0  0  0  0  0  0  0  0
  -26.7730  -25.0311   17.1835 C   0  0  0  0  0  0  0  0  0  0  0  0
  -24.3806  -14.2203   21.1737 C   0  0  0  0  0  0  0  0  0  0  0  0
  -25.7725  -14.1418   19.2004 C   0  0  0  0  0  0  0  0  0  0  0  0
  -29.1723  -25.2407   17.0610 C   0  0  0  0  0  0  0  0  0  0  0  0
  -26.7819  -25.6831   18.4161 C   0  0  0  0  0  0  0  0  0  0  0  0
  -23.1580  -29.2018   18.7787 C   0  0  0  0  0  0  0  0  0  0  0  0
  -22.2604  -25.0326   24.5720 C   0  0  0  0  0  0  0  0  0  0  0  0
  -24.5889  -12.8558   21.3748 C   0  0  0  0  0  0  0  0  0  0  0  0
  -25.9808  -12.7774   19.4016 C   0  0  0  0  0  0  0  0  0  0  0  0
  -21.8613  -28.7566   19.0317 C   0  0  0  0  0  0  0  0  0  0  0  0
  -21.1959  -25.1242   23.6752 C   0  0  0  0  0  0  0  0  0  0  0  0
  -23.4170   -9.9456   20.1171 C   0  0  0  0  0  0  0  0  0  0  0  0
  -22.3081   -9.1615   20.4349 C   0  0  0  0  0  0  0  0  0  0  0  0
  -22.1282  -29.3216   21.3616 C   0  0  0  0  0  0  0  0  0  0  0  0
  -22.7095  -24.7161   21.8368 C   0  0  0  0  0  0  0  0  0  0  0  0
  -23.3507   -8.5329   22.5218 C   0  0  0  0  0  0  0  0  0  0  0  0
  -24.9724  -14.8633   20.0864 C   0  0  0  0  0  0  0  0  0  0  0  0
  -23.5260  -16.9229   19.6697 C   0  0  0  0  0  0  0  0  0  0  0  0
  -29.1950  -25.9069   18.2964 C   0  0  0  0  0  0  0  0  0  0  0  0
  -23.9548  -29.7010   19.8191 C   0  0  0  0  0  0  0  0  0  0  0  0
  -27.9878  -26.1224   18.9883 C   0  0  0  0  0  0  0  0  0  0  0  0
  -23.4339  -29.7749   21.1188 C   0  0  0  0  0  0  0  0  0  0  0  0
  -23.5494  -24.7828   24.1011 C   0  0  0  0  0  0  0  0  0  0  0  0
  -23.7740  -24.6245   22.7336 C   0  0  0  0  0  0  0  0  0  0  0  0
  -25.3890  -12.1344   20.4888 C   0  0  0  0  0  0  0  0  0  0  0  0
  -21.3472  -28.8138   20.3238 C   0  0  0  0  0  0  0  0  0  0  0  0
  -21.4205  -24.9659   22.3077 C   0  0  0  0  0  0  0  0  0  0  0  0
  -24.4928  -10.0234   21.0016 C   0  0  0  0  0  0  0  0  0  0  0  0
  -22.2749   -8.4551   21.6373 C   0  0  0  0  0  0  0  0  0  0  0  0
  -24.4597   -9.3170   22.2039 C   0  0  0  0  0  0  0  0  0  0  0  0
  -24.7571  -16.2726   19.8777 C   0  0  0  0  0  0  0  0  0  0  0  0
  -23.8575  -18.2480   19.5264 C   0  0  0  0  0  0  0  0  0  0  0  0
  -22.2011  -16.3779   19.6114 C   0  0  0  0  0  0  0  0  0  0  0  0
  -26.7130  -28.8395   21.1435 C   0  0  0  0  0  0  0  0  0  0  0  0
  -26.7660  -22.7042   21.2506 C   0  0  0  0  0  0  0  0  0  0  0  0
  -26.3453  -31.6145   22.7825 C   0  0  0  0  0  0  0  0  0  0  0  0
  -24.2354  -34.0173   23.9749 C   0  0  0  0  0  0  0  0  0  0  0  0
  -30.5261  -26.3124   18.8782 C   0  0  0  0  0  0  0  0  0  0  0  0
  -25.3422  -30.2021   19.5249 C   0  0  0  0  0  0  0  0  0  0  0  0
  -24.2413  -30.3211   22.2669 C   0  0  0  0  0  0  0  0  0  0  0  0
  -30.4113  -27.3283   20.0118 C   0  0  0  0  0  0  0  0  0  0  0  0
  -28.3478  -20.4813   18.9275 C   0  0  0  0  0  0  0  0  0  0  0  0
  -29.3261  -26.9076   20.9978 C   0  0  0  0  0  0  0  0  0  0  0  0
  -27.4708  -19.2307   18.9734 C   0  0  0  0  0  0  0  0  0  0  0  0
  -28.4364  -21.1515   20.2950 C   0  0  0  0  0  0  0  0  0  0  0  0
  -26.2305  -20.2366   20.9418 C   0  0  0  0  0  0  0  0  0  0  0  0
  -27.9540  -26.8481   20.3158 C   0  0  1  0  0  0  0  0  0  0  0  0
  -26.2464  -30.2135   20.7535 C   0  0  1  0  0  0  0  0  0  0  0  0
  -26.0893  -19.5460   19.5738 C   0  0  2  0  0  0  0  0  0  0  0  0
  -24.6730  -24.6890   25.0804 C   0  0  0  0  0  0  0  0  0  0  0  0
  -23.5311  -36.1628   25.0695 C   0  0  0  0  0  0  0  0  0  0  0  0
  -18.0572  -25.3159   19.6737 C   0  0  0  0  0  0  0  0  0  0  0  0
  -26.7069  -30.0019   25.3474 C   0  0  0  0  0  0  0  0  0  0  0  0
  -25.7572  -31.9395   26.6170 C   0  0  0  0  0  0  0  0  0  0  0  0
  -27.8772  -32.2120   25.3309 C   0  0  0  0  0  0  0  0  0  0  0  0
  -24.3972  -35.5076   21.4231 C   0  0  0  0  0  0  0  0  0  0  0  0
  -25.1455  -24.3575   22.2064 C   0  0  0  0  0  0  0  0  0  0  0  0
  -25.3746  -22.8974   21.7987 C   0  0  0  0  0  0  0  0  0  0  0  0
  -19.5791  -27.3327   19.7440 C   0  0  0  0  0  0  0  0  0  1  0  0
  -19.2981  -25.9084   21.7947 C   0  0  0  0  0  0  0  0  0  0  0  0
  -25.6878  -32.0090   24.0829 C   0  0  1  0  0  0  0  0  0  0  0  0
  -24.3004  -35.5329   23.9188 C   0  0  2  0  0  0  0  0  0  0  0  0
  -18.6100  -26.4541   20.5402 C   0  0  2  0  0  0  0  0  0  0  0  0
  -26.4925  -31.5285   25.3235 C   0  0  0  0  0  0  0  0  0  0  0  0
  -25.7934  -17.1152   19.8679 N   0  0  0  0  0  0  0  0  0  0  0  0
  -25.2143  -18.3085   19.6520 N   0  0  0  0  0  0  0  0  0  0  0  0
  -25.5945  -30.7929   21.9297 N   0  0  0  0  0  0  0  0  0  0  0  0
  -27.1038  -21.4141   20.8412 N   0  0  0  0  0  0  0  0  0  0  0  0
  -23.1180  -19.3558   19.3063 N   0  0  0  0  0  0  0  0  0  0  0  0
  -21.7037  -15.9623   18.3688 N   0  0  0  0  0  0  0  0  0  0  0  0
  -27.4132  -28.1803   20.1512 N   0  0  0  0  0  0  0  0  0  0  0  0
  -25.4929  -33.4535   24.0200 N   0  0  0  0  0  0  0  0  0  0  0  0
  -23.7210  -36.0292   22.6386 N   0  3  0  0  0  0  0  0  0  0  0  0
  -21.4737  -16.2780   20.6285 O   0  0  0  0  0  0  0  0  0  0  0  0
  -26.4579  -28.4098   22.2624 O   0  0  0  0  0  0  0  0  0  0  0  0
  -27.5276  -23.6728   21.1861 O   0  0  0  0  0  0  0  0  0  0  0  0
  -27.4802  -32.0262   22.5294 O   0  0  0  0  0  0  0  0  0  0  0  0
  -23.1751  -33.3959   23.9820 O   0  0  0  0  0  0  0  0  0  0  0  0
  -25.5927  -10.8030   20.6850 O   0  0  0  0  0  0  0  0  0  0  0  0
  -20.0820  -28.3792   20.5736 O   0  0  0  0  0  0  0  0  0  1  0  0
  -20.3748  -25.0564   21.4265 O   0  0  0  0  0  0  0  0  0  0  0  0
  -21.2093   -7.7033   21.9430 F   0  0  0  0  0  0  0  0  0  0  0  0
  -25.4897   -9.3888   23.0582 F   0  0  0  0  0  0  0  0  0  0  0  0
  1  2  1  0  0  0  0
  1  5  2  0  0  0  0
  2  6  2  0  0  0  0
  3  9  2  0  0  0  0
  3 18  1  0  0  0  0
  4 10  1  0  0  0  0
  4 18  2  0  0  0  0
  5 20  1  0  0  0  0
  6 22  1  0  0  0  0
  7 11  2  0  0  0  0
  7 21  1  0  0  0  0
  8 12  2  0  0  0  0
  8 24  1  0  0  0  0
  9 26  1  0  0  0  0
 10 26  2  0  0  0  0
 11 27  1  0  0  0  0
 12 28  1  0  0  0  0
 13 14  2  0  0  0  0
 13 29  1  0  0  0  0
 14 30  1  0  0  0  0
 15 23  1  0  0  0  0
 15 27  2  0  0  0  0
 16 25  1  0  0  0  0
 16 28  2  0  0  0  0
 17 30  2  0  0  0  0
 17 31  1  0  0  0  0
 18 32  1  0  0  0  0
 19 32  1  0  0  0  0
 19 33  2  0  0  0  0
 19 34  1  0  0  0  0
 20 22  2  0  0  0  0
 20 39  1  0  0  0  0
 21 23  2  0  0  0  0
 21 40  1  0  0  0  0
 22 48  1  0  0  0  0
 23 41  1  0  0  0  0
 24 25  2  0  0  0  0
 24 51  1  0  0  0  0
 25 58  1  0  0  0  0
 26 80  1  0  0  0  0
 27 81  1  0  0  0  0
 28 82  1  0  0  0  0
 29 31  2  0  0  0  0
 29 80  1  0  0  0  0
 30 83  1  0  0  0  0
 31 84  1  0  0  0  0
 32 66  2  0  0  0  0
 33 67  1  0  0  0  0
 33 70  1  0  0  0  0
 34 71  1  0  0  0  0
 34 75  2  0  0  0  0
 35 49  1  0  0  0  0
 35 72  1  0  0  0  0
 35 76  2  0  0  0  0
 36 59  1  0  0  0  0
 36 69  1  0  0  0  0
 36 77  2  0  0  0  0
 37 62  1  0  0  0  0
 37 68  1  0  0  0  0
 37 78  2  0  0  0  0
 38 63  1  0  0  0  0
 38 73  1  0  0  0  0
 38 79  2  0  0  0  0
 39 42  1  0  0  0  0
 40 49  1  0  0  0  0
 41 68  1  0  0  0  0
 42 44  1  0  0  0  0
 43 45  1  0  0  0  0
 43 46  1  0  0  0  0
 44 48  1  0  0  0  0
 45 50  1  0  0  0  0
 46 69  1  0  0  0  0
 47 50  1  0  0  0  0
 47 69  1  0  0  0  0
 48 72  1  0  0  0  0
 49 68  1  0  0  0  0
 50 67  1  0  0  0  0
 52 63  1  0  0  0  0
 53 64  1  0  0  0  0
 54 65  1  0  0  0  0
 55 65  1  0  0  0  0
 56 65  1  0  0  0  0
 57 74  1  0  0  0  0
 58 59  1  0  0  0  0
 60 64  1  0  0  0  0
 60 81  1  0  0  0  0
 61 64  1  0  0  0  0
 61 82  1  0  0  0  0
 62 65  1  0  0  0  0
 62 73  1  0  0  0  0
 63 74  1  0  0  0  0
 66 67  1  0  0  0  0
M  CHG  1  74   1
M  ISO  4  36 100  59 100  60 101  81 101
M  END
> <Batch ID>
0132

> <Smiles>
CNC(C)C(=O)NC(C(=O)N1Cc2cc([101O:1][101CH2:1]C(C)COc3ccc(C)c(C[100CH2:0][100C:0](=O)N4CCCC(n5nc(-c6ccc(Oc7ccc(F)cc7F)cc6)c(C(N)=O)c5N)C4)c3)ccc2CC1C(=O)NC1CCCc2ccccc21)C(C)(C)C

> <Shape>
0.310

> <Color>
0.093

> <Negative vol penalty>
0.000

$$$$

  -OEChem-04052302283D

 84 92  0     1  0  0  0  0  0999 V2000
  -27.5339   -9.1451   19.3889 C   0  0  0  0  0  0  0  0  0  0  0  0
  -28.1310  -10.3676   19.0986 C   0  0  0  0  0  0  0  0  0  0  0  0
  -19.9449  -27.0806   23.2883 C   0  0  0  0  0  0  0  0  0  0  0  0
  -20.1372  -29.0321   21.8771 C   0  0  0  0  0  0  0  0  0  0  0  0
  -29.8765  -28.1134   22.2668 C   0  0  0  0  0  0  0  0  0  0  0  0
  -26.2463   -9.1087   19.9225 C   0  0  0  0  0  0  0  0  0  0  0  0
  -27.4404  -11.5545   19.3408 C   0  0  0  0  0  0  0  0  0  0  0  0
  -29.8223  -16.8929   21.1668 C   0  0  0  0  0  0  0  0  0  0  0  0
  -30.3198  -26.8842   21.7789 C   0  0  0  0  0  0  0  0  0  0  0  0
  -18.5659  -27.2746   23.3687 C   0  0  0  0  0  0  0  0  0  0  0  0
  -18.7582  -29.2261   21.9574 C   0  0  0  0  0  0  0  0  0  0  0  0
  -30.1772  -18.0483   20.4719 C   0  0  0  0  0  0  0  0  0  0  0  0
  -15.8526  -26.6984   21.4352 C   0  0  0  0  0  0  0  0  0  0  0  0
  -15.0306  -25.5832   21.2735 C   0  0  0  0  0  0  0  0  0  0  0  0
  -28.0390  -19.0244   21.0148 C   0  0  0  0  0  0  0  0  0  0  0  0
  -29.0929  -27.2546   19.7308 C   0  0  0  0  0  0  0  0  0  0  0  0
  -14.1250  -25.9299   23.4864 C   0  0  0  0  0  0  0  0  0  0  0  0
  -20.7305  -27.9594   22.5426 C   0  0  0  0  0  0  0  0  0  0  0  0
  -29.0412  -28.9132   21.4868 C   0  0  0  0  0  0  0  0  0  0  0  0
  -22.8527  -26.9991   21.5023 C   0  0  0  0  0  0  0  0  0  0  0  0
  -25.5433  -10.2961   20.1803 C   0  0  0  0  0  0  0  0  0  0  0  0
  -28.5667  -16.7902   21.7827 C   0  0  0  0  0  0  0  0  0  0  0  0
  -26.1417  -11.5340   19.8771 C   0  0  0  0  0  0  0  0  0  0  0  0
  -27.6716  -17.8676   21.7191 C   0  0  0  0  0  0  0  0  0  0  0  0
  -29.9281  -26.4548   20.5109 C   0  0  0  0  0  0  0  0  0  0  0  0
  -28.6495  -28.4838   20.2188 C   0  0  0  0  0  0  0  0  0  0  0  0
  -17.9726  -28.3473   22.7032 C   0  0  0  0  0  0  0  0  0  0  0  0
  -29.2844  -19.1131   20.3934 C   0  0  0  0  0  0  0  0  0  0  0  0
  -15.8109  -27.4294   22.6225 C   0  0  0  0  0  0  0  0  0  0  0  0
  -14.1668  -25.1989   22.2991 C   0  0  0  0  0  0  0  0  0  0  0  0
  -14.9471  -27.0451   23.6481 C   0  0  0  0  0  0  0  0  0  0  0  0
  -22.1551  -27.7599   22.4596 C   0  0  0  0  0  0  0  0  0  0  0  0
  -24.1732  -27.1271   21.8579 C   0  0  0  0  0  0  0  0  0  0  0  0
  -28.5929  -30.1922   22.0207 C   0  0  0  0  0  0  0  0  0  0  0  0
  -22.3518  -26.2443   20.3910 C   0  0  0  0  0  0  0  0  0  0  0  0
  -28.4129  -30.3976   23.4763 C   0  0  0  0  0  0  0  0  0  0  0  0
  -26.0479  -14.8823   21.4369 C   0  0  0  0  0  0  0  0  0  0  0  0
  -24.9672  -16.4836   24.0427 C   0  0  0  0  0  0  0  0  0  0  0  0
  -25.0712  -19.3066   25.9576 C   0  0  0  0  0  0  0  0  0  0  0  0
  -24.1355  -10.2050   20.7137 C   0  0  0  0  0  0  0  0  0  0  0  0
  -28.2094  -15.5475   22.5511 C   0  0  0  0  0  0  0  0  0  0  0  0
  -26.3193  -17.8153   22.3803 C   0  0  0  0  0  0  0  0  0  0  0  0
  -23.6163  -11.5196   21.2903 C   0  0  0  0  0  0  0  0  0  0  0  0
  -26.3037  -29.0190   26.0272 C   0  0  0  0  0  0  0  0  0  0  0  0
  -23.9225  -12.6757   20.3435 C   0  0  0  0  0  0  0  0  0  0  0  0
  -25.0767  -28.5417   25.2509 C   0  0  0  0  0  0  0  0  0  0  0  0
  -26.8953  -30.2837   25.4135 C   0  0  0  0  0  0  0  0  0  0  0  0
  -26.0077  -29.6702   23.1809 C   0  0  0  0  0  0  0  0  0  0  0  0
  -25.4342  -12.8439   20.1489 C   0  0  1  0  0  0  0  0  0  0  0  0
  -26.7042  -15.3517   22.7044 C   0  0  1  0  0  0  0  0  0  0  0  0
  -25.3988  -28.3789   23.7548 C   0  0  2  0  0  0  0  0  0  0  0  0
  -28.5230  -30.0377   18.2551 C   0  0  0  0  0  0  0  0  0  0  0  0
  -24.0465  -20.3384   28.0028 C   0  0  0  0  0  0  0  0  0  0  0  0
  -22.4286  -17.0899   22.4620 C   0  0  0  0  0  0  0  0  0  0  0  0
  -21.8888  -18.8644   24.1437 C   0  0  0  0  0  0  0  0  0  0  0  0
  -22.0456  -16.4791   24.8567 C   0  0  0  0  0  0  0  0  0  0  0  0
  -27.6881  -19.4645   27.3309 C   0  0  0  0  0  0  0  0  0  0  0  0
  -30.4083  -25.1264   19.9830 C   0  0  0  0  0  0  0  0  0  0  0  0
  -27.7564  -29.3207   19.3621 C   0  0  0  0  0  0  0  0  0  0  0  0
  -29.4829  -23.9533   20.3246 C   0  0  0  0  0  0  0  0  0  0  0  0
  -30.0247  -22.6049   19.8480 C   0  0  0  0  0  0  0  0  0  0  0  0
  -29.0614  -21.4702   20.1692 C   0  0  0  0  0  0  0  0  0  1  0  0
  -24.1574  -17.7378   24.2669 C   0  0  1  0  0  0  0  0  0  0  0  0
  -25.1939  -19.5020   27.4580 C   0  0  2  0  0  0  0  0  0  0  0  0
  -22.6548  -17.5433   23.9181 C   0  0  0  0  0  0  0  0  0  0  0  0
  -22.9654  -28.3290   23.3561 N   0  0  0  0  0  0  0  0  0  0  0  0
  -28.3260  -31.2254   21.2705 N   0  0  0  0  0  0  0  0  0  0  0  0
  -24.1858  -27.9254   22.9636 N   0  0  0  0  0  0  0  0  0  0  0  0
  -27.1553  -30.1070   23.9861 N   0  0  0  0  0  0  0  0  0  0  0  0
  -26.0139  -16.5763   23.1144 N   0  0  0  0  0  0  0  0  0  0  0  0
  -25.3131  -26.6335   21.3294 N   0  0  0  0  0  0  0  0  0  0  0  0
  -20.9681  -26.2195   20.1695 N   0  0  0  0  0  0  0  0  0  0  0  0
  -26.0203  -13.5082   21.2932 N   0  0  0  0  0  0  0  0  0  0  0  0
  -24.4031  -18.1410   25.6473 N   0  0  0  0  0  0  0  0  0  0  0  0
  -26.4744  -20.1892   27.7879 N   0  3  0  0  0  0  0  0  0  0  0  0
  -23.1075  -25.5971   19.6271 O   0  0  0  0  0  0  0  0  0  0  0  0
  -29.3986  -30.8046   24.0773 O   0  0  0  0  0  0  0  0  0  0  0  0
  -25.5985  -15.7056   20.6484 O   0  0  0  0  0  0  0  0  0  0  0  0
  -24.6860  -15.4614   24.6733 O   0  0  0  0  0  0  0  0  0  0  0  0
  -25.5196  -20.1096   25.1424 O   0  0  0  0  0  0  0  0  0  0  0  0
  -16.6270  -28.5368   22.7812 O   0  0  0  0  0  0  0  0  0  0  0  0
  -29.6281  -20.2418   19.7152 O   0  0  0  0  0  0  0  0  0  1  0  0
  -13.3763  -24.1289   22.1431 F   0  0  0  0  0  0  0  0  0  0  0  0
  -14.9017  -27.7440   24.7906 F   0  0  0  0  0  0  0  0  0  0  0  0
  1  2  1  0  0  0  0
  1  6  2  0  0  0  0
  2  7  2  0  0  0  0
  3 10  2  0  0  0  0
  3 18  1  0  0  0  0
  4 11  1  0  0  0  0
  4 18  2  0  0  0  0
  5  9  2  0  0  0  0
  5 19  1  0  0  0  0
  6 21  1  0  0  0  0
  7 23  1  0  0  0  0
  8 12  2  0  0  0  0
  8 22  1  0  0  0  0
  9 25  1  0  0  0  0
 10 27  1  0  0  0  0
 11 27  2  0  0  0  0
 12 28  1  0  0  0  0
 13 14  2  0  0  0  0
 13 29  1  0  0  0  0
 14 30  1  0  0  0  0
 15 24  1  0  0  0  0
 15 28  2  0  0  0  0
 16 25  2  0  0  0  0
 16 26  1  0  0  0  0
 17 30  2  0  0  0  0
 17 31  1  0  0  0  0
 18 32  1  0  0  0  0
 19 26  2  0  0  0  0
 19 34  1  0  0  0  0
 20 32  1  0  0  0  0
 20 33  2  0  0  0  0
 20 35  1  0  0  0  0
 21 23  2  0  0  0  0
 21 40  1  0  0  0  0
 22 24  2  0  0  0  0
 22 41  1  0  0  0  0
 23 49  1  0  0  0  0
 24 42  1  0  0  0  0
 25 58  1  0  0  0  0
 26 59  1  0  0  0  0
 27 81  1  0  0  0  0
 28 82  1  0  0  0  0
 29 31  2  0  0  0  0
 29 81  1  0  0  0  0
 30 83  1  0  0  0  0
 31 84  1  0  0  0  0
 32 66  2  0  0  0  0
 33 68  1  0  0  0  0
 33 71  1  0  0  0  0
 34 36  1  0  0  0  0
 34 67  2  0  0  0  0
 35 72  1  0  0  0  0
 35 76  2  0  0  0  0
 36 69  1  0  0  0  0
 36 77  2  0  0  0  0
 37 50  1  0  0  0  0
 37 73  1  0  0  0  0
 37 78  2  0  0  0  0
 38 63  1  0  0  0  0
 38 70  1  0  0  0  0
 38 79  2  0  0  0  0
 39 64  1  0  0  0  0
 39 74  1  0  0  0  0
 39 80  2  0  0  0  0
 40 43  1  0  0  0  0
 41 50  1  0  0  0  0
 42 70  1  0  0  0  0
 43 45  1  0  0  0  0
 44 46  1  0  0  0  0
 44 47  1  0  0  0  0
 45 49  1  0  0  0  0
 46 51  1  0  0  0  0
 47 69  1  0  0  0  0
 48 51  1  0  0  0  0
 48 69  1  0  0  0  0
 49 73  1  0  0  0  0
 50 70  1  0  0  0  0
 51 68  1  0  0  0  0
 52 59  1  0  0  0  0
 53 64  1  0  0  0  0
 54 65  1  0  0  0  0
 55 65  1  0  0  0  0
 56 65  1  0  0  0  0
 57 75  1  0  0  0  0
 58 60  1  0  0  0  0
 60 61  1  0  0  0  0
 61 62  1  0  0  0  0
 62 82  1  0  0  0  0
 63 65  1  0  0  0  0
 63 74  1  0  0  0  0
 64 75  1  0  0  0  0
 66 68  1  0  0  0  0
M  CHG  1  75   1
M  ISO  4  34 100  36 100  62 101  82 101
M  END
> <Batch ID>
0132

> <Smiles>
CCc1cc(CCC[101CH2:1][101O:1]c2ccc3c(c2)CN(C(=O)C(NC(=O)C(C)NC)C(C)(C)C)C(C(=O)NC2CCCc4ccccc42)C3)ccc1[100C:0](=N)[100C:0](=O)N1CCCC(n2nc(-c3ccc(Oc4ccc(F)cc4F)cc3)c(C(N)=O)c2N)C1

> <Shape>
0.224

> <Color>
0.060

> <Negative vol penalty>
0.000

$$$$

  -OEChem-04052302283D

 85 93  0     1  0  0  0  0  0999 V2000
  -16.9177  -30.7853   23.2541 C   0  0  0  0  0  0  0  0  0  0  0  0
  -18.1277  -31.3019   23.7063 C   0  0  0  0  0  0  0  0  0  0  0  0
  -25.7191  -14.6803   21.2386 C   0  0  0  0  0  0  0  0  0  0  0  0
  -23.3914  -14.3965   21.8202 C   0  0  0  0  0  0  0  0  0  0  0  0
  -26.3023  -26.1080   25.7332 C   0  0  0  0  0  0  0  0  0  0  0  0
  -16.8510  -29.4715   22.7923 C   0  0  0  0  0  0  0  0  0  0  0  0
  -19.2716  -30.5045   23.6978 C   0  0  0  0  0  0  0  0  0  0  0  0
  -25.0215  -32.3262   22.6364 C   0  0  0  0  0  0  0  0  0  0  0  0
  -26.3892  -27.3157   26.4257 C   0  0  0  0  0  0  0  0  0  0  0  0
  -25.9474  -13.3279   21.4924 C   0  0  0  0  0  0  0  0  0  0  0  0
  -23.6197  -13.0440   22.0740 C   0  0  0  0  0  0  0  0  0  0  0  0
  -26.0802  -32.6346   23.4894 C   0  0  0  0  0  0  0  0  0  0  0  0
  -23.9811  -10.2016   20.2822 C   0  0  0  0  0  0  0  0  0  0  0  0
  -23.0601   -9.2844   19.7762 C   0  0  0  0  0  0  0  0  0  0  0  0
  -26.9350  -30.3939   23.2290 C   0  0  0  0  0  0  0  0  0  0  0  0
  -28.6941  -26.8376   26.9701 C   0  0  0  0  0  0  0  0  0  0  0  0
  -22.5886   -8.5205   22.0192 C   0  0  0  0  0  0  0  0  0  0  0  0
  -24.4411  -15.2146   21.4026 C   0  0  0  0  0  0  0  0  0  0  0  0
  -27.4113  -25.2651   25.6592 C   0  0  0  0  0  0  0  0  0  0  0  0
  -23.8275  -17.1956   19.9170 C   0  0  0  0  0  0  0  0  0  0  0  0
  -17.9967  -28.6607   22.7692 C   0  0  0  0  0  0  0  0  0  0  0  0
  -24.9053  -31.0438   22.0810 C   0  0  0  0  0  0  0  0  0  0  0  0
  -19.2199  -29.1781   23.2365 C   0  0  0  0  0  0  0  0  0  0  0  0
  -25.8752  -30.0725   22.3672 C   0  0  0  0  0  0  0  0  0  0  0  0
  -27.5851  -27.6805   27.0442 C   0  0  0  0  0  0  0  0  0  0  0  0
  -28.6071  -25.6299   26.2776 C   0  0  0  0  0  0  0  0  0  0  0  0
  -24.8977  -12.5097   21.9101 C   0  0  0  0  0  0  0  0  0  0  0  0
  -27.0356  -31.6676   23.7881 C   0  0  0  0  0  0  0  0  0  0  0  0
  -24.2060  -10.2782   21.6567 C   0  0  0  0  0  0  0  0  0  0  0  0
  -22.3638   -8.4439   20.6447 C   0  0  0  0  0  0  0  0  0  0  0  0
  -23.5097   -9.4377   22.5252 C   0  0  0  0  0  0  0  0  0  0  0  0
  -24.2047  -16.6117   21.1412 C   0  0  0  0  0  0  0  0  0  0  0  0
  -23.7316  -18.5379   20.1918 C   0  0  0  0  0  0  0  0  0  0  0  0
  -27.2885  -24.0105   24.9287 C   0  0  0  0  0  0  0  0  0  0  0  0
  -26.4054  -23.0293   25.2050 C   0  0  0  0  0  0  0  0  0  0  0  0
  -23.5853  -16.5796   18.6451 C   0  0  0  0  0  0  0  0  0  0  0  0
  -26.3978  -21.8164   24.3627 C   0  0  0  0  0  0  0  0  0  0  0  0
  -22.7499  -28.7136   22.2485 C   0  0  0  0  0  0  0  0  0  0  0  0
  -24.6382  -27.3350   19.9999 C   0  0  0  0  0  0  0  0  0  0  0  0
  -27.7249  -27.0847   18.5659 C   0  0  0  0  0  0  0  0  0  0  0  0
  -17.8654  -27.2316   22.3053 C   0  0  0  0  0  0  0  0  0  0  0  0
  -23.7720  -30.7350   21.1415 C   0  0  0  0  0  0  0  0  0  0  0  0
  -25.8072  -28.6869   21.7806 C   0  0  0  0  0  0  0  0  0  0  0  0
  -19.2028  -26.5719   21.9788 C   0  0  0  0  0  0  0  0  0  0  0  0
  -22.7936  -21.5864   23.7389 C   0  0  0  0  0  0  0  0  0  0  0  0
  -20.2183  -26.8489   23.0828 C   0  0  0  0  0  0  0  0  0  0  0  0
  -22.7184  -20.2987   22.9228 C   0  0  0  0  0  0  0  0  0  0  0  0
  -23.8979  -21.5312   24.7935 C   0  0  0  0  0  0  0  0  0  0  0  0
  -25.1635  -19.9037   23.4187 C   0  0  0  0  0  0  0  0  0  0  0  0
  -20.4879  -28.3523   23.2198 C   0  0  1  0  0  0  0  0  0  0  0  0
  -23.4694  -29.2431   21.0404 C   0  0  1  0  0  0  0  0  0  0  0  0
  -24.0900  -19.9553   22.3204 C   0  0  1  0  0  0  0  0  0  0  0  0
  -29.8154  -24.7514   26.2194 C   0  0  0  0  0  0  0  0  0  0  0  0
  -28.9699  -25.8451   16.7740 C   0  0  0  0  0  0  0  0  0  0  0  0
  -28.8310  -33.9189   27.7318 C   0  0  0  0  0  0  0  0  0  0  0  0
  -24.7596  -24.8695   21.7932 C   0  0  0  0  0  0  0  0  0  0  0  0
  -26.7211  -24.0777   20.4539 C   0  0  0  0  0  0  0  0  0  0  0  0
  -24.5012  -24.3745   19.3555 C   0  0  0  0  0  0  0  0  0  0  0  0
  -28.3294  -29.5817   17.0967 C   0  0  0  0  0  0  0  0  0  0  0  0
  -27.6801  -28.9868   27.7916 C   0  0  0  0  0  0  0  0  0  0  0  0
  -28.1299  -30.1661   26.9198 C   0  0  0  0  0  0  0  0  0  0  0  0
  -28.2072  -31.4866   27.6967 C   0  0  0  0  0  0  0  0  0  0  0  0
  -27.8277  -32.9423   25.6330 C   0  0  0  0  0  0  0  0  0  1  0  0
  -25.8348  -26.4150   20.0265 C   0  0  1  0  0  0  0  0  0  0  0  0
  -28.1639  -27.0895   17.1127 C   0  0  2  0  0  0  0  0  0  0  0  0
  -28.7201  -32.6680   26.8503 C   0  0  1  0  0  0  0  0  0  0  0  0
  -25.4547  -24.9596   20.4200 C   0  0  0  0  0  0  0  0  0  0  0  0
  -24.3395  -17.5096   22.1208 N   0  0  0  0  0  0  0  0  0  0  0  0
  -24.0455  -18.6713   21.5124 N   0  0  0  0  0  0  0  0  0  0  0  0
  -25.1876  -21.1438   24.2025 N   0  0  0  0  0  0  0  0  0  0  0  0
  -24.6767  -28.4316   20.8726 N   0  0  0  0  0  0  0  0  0  0  0  0
  -23.4105  -19.6053   19.4303 N   0  0  0  0  0  0  0  0  0  0  0  0
  -23.7287  -15.1896   18.5378 N   0  0  0  0  0  0  0  0  0  0  0  0
  -21.3734  -28.8048   22.1684 N   0  0  0  0  0  0  0  0  0  0  0  0
  -26.4701  -26.5338   18.7186 N   0  0  0  0  0  0  0  0  0  0  0  0
  -29.0058  -28.2862   16.8299 N   0  3  0  0  0  0  0  0  0  0  0  0
  -23.2675  -17.2442   17.6298 O   0  0  0  0  0  0  0  0  0  0  0  0
  -27.4660  -21.4696   23.8554 O   0  0  0  0  0  0  0  0  0  0  0  0
  -23.3957  -28.2548   23.1834 O   0  0  0  0  0  0  0  0  0  0  0  0
  -23.7068  -27.0937   19.2278 O   0  0  0  0  0  0  0  0  0  0  0  0
  -28.4266  -27.5223   19.4752 O   0  0  0  0  0  0  0  0  0  0  0  0
  -25.1201  -11.1899   22.1575 O   0  0  0  0  0  0  0  0  0  0  0  0
  -28.0697  -31.9659   24.6209 O   0  0  0  0  0  0  0  0  0  1  0  0
  -21.4783   -7.5642   20.1588 F   0  0  0  0  0  0  0  0  0  0  0  0
  -23.7206   -9.5075   23.8467 F   0  0  0  0  0  0  0  0  0  0  0  0
  1  2  1  0  0  0  0
  1  6  2  0  0  0  0
  2  7  2  0  0  0  0
  3 10  2  0  0  0  0
  3 18  1  0  0  0  0
  4 11  1  0  0  0  0
  4 18  2  0  0  0  0
  5  9  2  0  0  0  0
  5 19  1  0  0  0  0
  6 21  1  0  0  0  0
  7 23  1  0  0  0  0
  8 12  2  0  0  0  0
  8 22  1  0  0  0  0
  9 25  1  0  0  0  0
 10 27  1  0  0  0  0
 11 27  2  0  0  0  0
 12 28  1  0  0  0  0
 13 14  2  0  0  0  0
 13 29  1  0  0  0  0
 14 30  1  0  0  0  0
 15 24  1  0  0  0  0
 15 28  2  0  0  0  0
 16 25  2  0  0  0  0
 16 26  1  0  0  0  0
 17 30  2  0  0  0  0
 17 31  1  0  0  0  0
 18 32  1  0  0  0  0
 19 26  2  0  0  0  0
 19 34  1  0  0  0  0
 20 32  1  0  0  0  0
 20 33  2  0  0  0  0
 20 36  1  0  0  0  0
 21 23  2  0  0  0  0
 21 41  1  0  0  0  0
 22 24  2  0  0  0  0
 22 42  1  0  0  0  0
 23 50  1  0  0  0  0
 24 43  1  0  0  0  0
 25 60  1  0  0  0  0
 26 53  1  0  0  0  0
 27 82  1  0  0  0  0
 28 83  1  0  0  0  0
 29 31  2  0  0  0  0
 29 82  1  0  0  0  0
 30 84  1  0  0  0  0
 31 85  1  0  0  0  0
 32 68  2  0  0  0  0
 33 69  1  0  0  0  0
 33 72  1  0  0  0  0
 34 35  2  0  0  0  0
 35 37  1  0  0  0  0
 36 73  1  0  0  0  0
 36 77  2  0  0  0  0
 37 70  1  0  0  0  0
 37 78  2  0  0  0  0
 38 51  1  0  0  0  0
 38 74  1  0  0  0  0
 38 79  2  0  0  0  0
 39 64  1  0  0  0  0
 39 71  1  0  0  0  0
 39 80  2  0  0  0  0
 40 65  1  0  0  0  0
 40 75  1  0  0  0  0
 40 81  2  0  0  0  0
 41 44  1  0  0  0  0
 42 51  1  0  0  0  0
 43 71  1  0  0  0  0
 44 46  1  0  0  0  0
 45 47  1  0  0  0  0
 45 48  1  0  0  0  0
 46 50  1  0  0  0  0
 47 52  1  0  0  0  0
 48 70  1  0  0  0  0
 49 52  1  0  0  0  0
 49 70  1  0  0  0  0
 50 74  1  0  0  0  0
 51 71  1  0  0  0  0
 52 69  1  0  0  0  0
 54 65  1  0  0  0  0
 55 66  1  0  0  0  0
 56 67  1  0  0  0  0
 57 67  1  0  0  0  0
 58 67  1  0  0  0  0
 59 76  1  0  0  0  0
 60 61  1  0  0  0  0
 61 62  1  0  0  0  0
 62 66  1  0  0  0  0
 63 66  1  0  0  0  0
 63 83  1  0  0  0  0
 64 67  1  0  0  0  0
 64 75  1  0  0  0  0
 65 76  1  0  0  0  0
 68 69  1  0  0  0  0
M  CHG  1  76   1
M  ISO  4  35 100  37 100  63 101  83 101
M  END
> <Batch ID>
0132

> <Smiles>
CNC(C)C(=O)NC(C(=O)N1Cc2cc([101O:1][101CH2:1]C(C)CCCc3ccc(C=[100CH:0][100C:0](=O)N4CCCC(n5nc(-c6ccc(Oc7ccc(F)cc7F)cc6)c(C(N)=O)c5N)C4)c(C)c3)ccc2CC1C(=O)NC1CCCc2ccccc21)C(C)(C)C

> <Shape>
0.238

> <Color>
0.102

> <Negative vol penalty>
0.000

$$$$

  -OEChem-04052302283D

 84 92  0     1  0  0  0  0  0999 V2000
  -16.5194  -29.5839   23.2547 C   0  0  0  0  0  0  0  0  0  0  0  0
  -17.4517  -29.6701   22.2257 C   0  0  0  0  0  0  0  0  0  0  0  0
  -24.2099   -9.4718   22.2659 C   0  0  0  0  0  0  0  0  0  0  0  0
  -24.4542   -8.7931   19.9601 C   0  0  0  0  0  0  0  0  0  0  0  0
  -29.2973  -20.9787   20.8506 C   0  0  0  0  0  0  0  0  0  0  0  0
  -31.6193  -20.3744   20.5669 C   0  0  0  0  0  0  0  0  0  0  0  0
  -16.9448  -29.3469   24.5612 C   0  0  0  0  0  0  0  0  0  0  0  0
  -18.8101  -29.5205   22.5028 C   0  0  0  0  0  0  0  0  0  0  0  0
  -24.8586  -27.0167   19.5938 C   0  0  0  0  0  0  0  0  0  0  0  0
  -29.5998  -22.2985   20.5157 C   0  0  0  0  0  0  0  0  0  0  0  0
  -31.9218  -21.6942   20.2319 C   0  0  0  0  0  0  0  0  0  0  0  0
  -23.0999   -8.6369   22.3941 C   0  0  0  0  0  0  0  0  0  0  0  0
  -23.3442   -7.9581   20.0882 C   0  0  0  0  0  0  0  0  0  0  0  0
  -26.1677  -27.4124   19.3229 C   0  0  0  0  0  0  0  0  0  0  0  0
  -22.5017   -5.3379   22.8322 C   0  0  0  0  0  0  0  0  0  0  0  0
  -22.4201   -4.5385   23.9723 C   0  0  0  0  0  0  0  0  0  0  0  0
  -26.7802  -26.9274   21.6052 C   0  0  0  0  0  0  0  0  0  0  0  0
  -20.3390   -5.6084   24.5735 C   0  0  0  0  0  0  0  0  0  0  0  0
  -24.8870   -9.5500   21.0489 C   0  0  0  0  0  0  0  0  0  0  0  0
  -30.3071  -20.0167   20.8763 C   0  0  0  0  0  0  0  0  0  0  0  0
  -27.3800  -10.0802   21.1560 C   0  0  0  0  0  0  0  0  0  0  0  0
  -18.3083  -29.1847   24.8529 C   0  0  0  0  0  0  0  0  0  0  0  0
  -24.4973  -26.5830   20.8774 C   0  0  0  0  0  0  0  0  0  0  0  0
  -19.2542  -29.2825   23.8146 C   0  0  0  0  0  0  0  0  0  0  0  0
  -25.4664  -26.5243   21.8891 C   0  0  0  0  0  0  0  0  0  0  0  0
  -30.9120  -22.6563   20.2063 C   0  0  0  0  0  0  0  0  0  0  0  0
  -22.6671   -7.8800   21.3053 C   0  0  0  0  0  0  0  0  0  0  0  0
  -27.1281  -27.3705   20.3294 C   0  0  0  0  0  0  0  0  0  0  0  0
  -21.5020   -6.2726   22.5627 C   0  0  0  0  0  0  0  0  0  0  0  0
  -21.3387   -4.6737   24.8429 C   0  0  0  0  0  0  0  0  0  0  0  0
  -20.4207   -6.4078   23.4334 C   0  0  0  0  0  0  0  0  0  0  0  0
  -26.0333  -10.4127   20.9157 C   0  0  0  0  0  0  0  0  0  0  0  0
  -28.0721  -11.2360   20.8883 C   0  0  0  0  0  0  0  0  0  0  0  0
  -29.9918  -18.6404   21.2257 C   0  0  0  0  0  0  0  0  0  0  0  0
  -28.7646  -18.0803   21.1729 C   0  0  0  0  0  0  0  0  0  0  0  0
  -27.9540   -8.8377   21.5830 C   0  0  0  0  0  0  0  0  0  0  0  0
  -28.6071  -16.6617   21.5518 C   0  0  0  0  0  0  0  0  0  0  0  0
  -22.4662  -27.6015   23.1003 C   0  0  0  0  0  0  0  0  0  0  0  0
  -30.7170  -27.0313   20.0051 C   0  0  0  0  0  0  0  0  0  0  0  0
  -23.3418  -24.8620   24.6004 C   0  0  0  0  0  0  0  0  0  0  0  0
  -25.6739  -22.4056   25.0181 C   0  0  0  0  0  0  0  0  0  0  0  0
  -18.7239  -28.9773   26.2878 C   0  0  0  0  0  0  0  0  0  0  0  0
  -23.0871  -26.1342   21.1465 C   0  0  0  0  0  0  0  0  0  0  0  0
  -25.1343  -26.0473   23.2786 C   0  0  0  0  0  0  0  0  0  0  0  0
  -20.1512  -28.4575   26.4394 C   0  0  0  0  0  0  0  0  0  0  0  0
  -26.6062  -15.5342   18.6958 C   0  0  0  0  0  0  0  0  0  0  0  0
  -21.1053  -29.2505   25.5519 C   0  0  0  0  0  0  0  0  0  0  0  0
  -26.3522  -14.0770   19.0722 C   0  0  0  0  0  0  0  0  0  0  0  0
  -26.6532  -16.4421   19.9238 C   0  0  0  0  0  0  0  0  0  0  0  0
  -27.3766  -14.5377   21.3347 C   0  0  0  0  0  0  0  0  0  0  0  0
  -20.7345  -29.1011   24.0715 C   0  0  1  0  0  0  0  0  0  0  0  0
  -22.7114  -26.1978   22.6237 C   0  0  1  0  0  0  0  0  0  0  0  0
  -27.3722  -13.5992   20.1179 C   0  0  1  0  0  0  0  0  0  0  0  0
  -26.6750  -20.2643   25.8608 C   0  0  0  0  0  0  0  0  0  0  0  0
  -24.0187  -26.5627   27.0416 C   0  0  0  0  0  0  0  0  0  0  0  0
  -25.3190  -24.6235   27.9454 C   0  0  0  0  0  0  0  0  0  0  0  0
  -22.8639  -24.4059   27.5605 C   0  0  0  0  0  0  0  0  0  0  0  0
  -24.5207  -20.8502   22.7799 C   0  0  0  0  0  0  0  0  0  0  0  0
  -31.2378  -24.0821   19.8421 C   0  0  0  0  0  0  0  0  0  0  0  0
  -31.8929  -26.3632   20.6983 C   0  0  0  0  0  0  0  0  0  0  0  0
  -29.4423  -27.1264   20.8202 C   0  0  0  0  0  0  0  0  0  1  0  0
  -31.6052  -24.9114   21.0740 C   0  0  0  0  0  0  0  0  0  0  0  0
  -24.4282  -24.4773   25.5755 C   0  0  1  0  0  0  0  0  0  0  0  0
  -25.5482  -20.8932   25.0561 C   0  0  2  0  0  0  0  0  0  0  0  0
  -24.1636  -25.0282   27.0052 C   0  0  0  0  0  0  0  0  0  0  0  0
  -25.8770  -11.6805   20.5255 N   0  0  0  0  0  0  0  0  0  0  0  0
  -27.1344  -12.1548   20.5186 N   0  0  0  0  0  0  0  0  0  0  0  0
  -27.5925  -15.9326   20.9343 N   0  0  0  0  0  0  0  0  0  0  0  0
  -23.7405  -25.6251   23.4938 N   0  0  0  0  0  0  0  0  0  0  0  0
  -29.3852  -11.5458   20.9355 N   0  0  0  0  0  0  0  0  0  0  0  0
  -27.0994   -7.7509   21.8131 N   0  0  0  0  0  0  0  0  0  0  0  0
  -21.1836  -27.8221   23.5646 N   0  0  0  0  0  0  0  0  0  0  0  0
  -24.5428  -23.0245   25.5067 N   0  0  0  0  0  0  0  0  0  0  0  0
  -25.5888  -20.3353   23.6748 N   0  3  0  0  0  0  0  0  0  0  0  0
  -29.1866   -8.7000   21.7712 O   0  0  0  0  0  0  0  0  0  0  0  0
  -29.3817  -16.2096   22.3970 O   0  0  0  0  0  0  0  0  0  0  0  0
  -23.3740  -28.4233   23.0517 O   0  0  0  0  0  0  0  0  0  0  0  0
  -30.7860  -27.4673   18.8570 O   0  0  0  0  0  0  0  0  0  0  0  0
  -22.1835  -24.4928   24.8091 O   0  0  0  0  0  0  0  0  0  0  0  0
  -26.6768  -22.9804   24.6005 O   0  0  0  0  0  0  0  0  0  0  0  0
  -21.5841   -7.0650   21.4300 O   0  0  0  0  0  0  0  0  0  0  0  0
  -28.4065  -27.7568   20.0679 O   0  0  0  0  0  0  0  0  0  1  0  0
  -21.2597   -3.9049   25.9369 F   0  0  0  0  0  0  0  0  0  0  0  0
  -19.4566   -7.3032   23.1792 F   0  0  0  0  0  0  0  0  0  0  0  0
  1  2  1  0  0  0  0
  1  7  2  0  0  0  0
  2  8  2  0  0  0  0
  3 12  2  0  0  0  0
  3 19  1  0  0  0  0
  4 13  1  0  0  0  0
  4 19  2  0  0  0  0
  5 10  2  0  0  0  0
  5 20  1  0  0  0  0
  6 11  1  0  0  0  0
  6 20  2  0  0  0  0
  7 22  1  0  0  0  0
  8 24  1  0  0  0  0
  9 14  2  0  0  0  0
  9 23  1  0  0  0  0
 10 26  1  0  0  0  0
 11 26  2  0  0  0  0
 12 27  1  0  0  0  0
 13 27  2  0  0  0  0
 14 28  1  0  0  0  0
 15 16  2  0  0  0  0
 15 29  1  0  0  0  0
 16 30  1  0  0  0  0
 17 25  1  0  0  0  0
 17 28  2  0  0  0  0
 18 30  2  0  0  0  0
 18 31  1  0  0  0  0
 19 32  1  0  0  0  0
 20 34  1  0  0  0  0
 21 32  1  0  0  0  0
 21 33  2  0  0  0  0
 21 36  1  0  0  0  0
 22 24  2  0  0  0  0
 22 42  1  0  0  0  0
 23 25  2  0  0  0  0
 23 43  1  0  0  0  0
 24 51  1  0  0  0  0
 25 44  1  0  0  0  0
 26 59  1  0  0  0  0
 27 81  1  0  0  0  0
 28 82  1  0  0  0  0
 29 31  2  0  0  0  0
 29 81  1  0  0  0  0
 30 83  1  0  0  0  0
 31 84  1  0  0  0  0
 32 66  2  0  0  0  0
 33 67  1  0  0  0  0
 33 70  1  0  0  0  0
 34 35  2  0  0  0  0
 35 37  1  0  0  0  0
 36 71  1  0  0  0  0
 36 75  2  0  0  0  0
 37 68  1  0  0  0  0
 37 76  2  0  0  0  0
 38 52  1  0  0  0  0
 38 72  1  0  0  0  0
 38 77  2  0  0  0  0
 39 60  1  0  0  0  0
 39 61  1  0  0  0  0
 39 78  2  0  0  0  0
 40 63  1  0  0  0  0
 40 69  1  0  0  0  0
 40 79  2  0  0  0  0
 41 64  1  0  0  0  0
 41 73  1  0  0  0  0
 41 80  2  0  0  0  0
 42 45  1  0  0  0  0
 43 52  1  0  0  0  0
 44 69  1  0  0  0  0
 45 47  1  0  0  0  0
 46 48  1  0  0  0  0
 46 49  1  0  0  0  0
 47 51  1  0  0  0  0
 48 53  1  0  0  0  0
 49 68  1  0  0  0  0
 50 53  1  0  0  0  0
 50 68  1  0  0  0  0
 51 72  1  0  0  0  0
 52 69  1  0  0  0  0
 53 67  1  0  0  0  0
 54 64  1  0  0  0  0
 55 65  1  0  0  0  0
 56 65  1  0  0  0  0
 57 65  1  0  0  0  0
 58 74  1  0  0  0  0
 59 62  1  0  0  0  0
 60 62  1  0  0  0  0
 61 82  1  0  0  0  0
 63 65  1  0  0  0  0
 63 73  1  0  0  0  0
 64 74  1  0  0  0  0
 66 67  1  0  0  0  0
M  CHG  1  74   1
M  ISO  4  35 100  37 100  61 101  82 101
M  END
> <Batch ID>
0132

> <Smiles>
CNC(C)C(=O)NC(C(=O)N1Cc2cc([101O:1][101CH2:1]C(=O)CCCc3ccc(C=[100CH:0][100C:0](=O)N4CCCC(n5nc(-c6ccc(Oc7ccc(F)cc7F)cc6)c(C(N)=O)c5N)C4)cc3)ccc2CC1C(=O)NC1CCCc2ccccc21)C(C)(C)C

> <Shape>
0.239

> <Color>
0.118

> <Negative vol penalty>
0.000

$$$$

  -OEChem-04052302283D

 88 97  0     1  0  0  0  0  0999 V2000
  -20.8587  -10.4985   17.2581 C   0  0  0  0  0  0  0  0  0  0  0  0
  -20.9993  -11.8789   17.1576 C   0  0  0  0  0  0  0  0  0  0  0  0
  -20.5312  -27.2573   21.6025 C   0  0  0  0  0  0  0  0  0  0  0  0
  -20.5149  -27.8438   23.9462 C   0  0  0  0  0  0  0  0  0  0  0  0
  -21.5976   -9.7908   18.2052 C   0  0  0  0  0  0  0  0  0  0  0  0
  -21.8783  -12.5526   18.0050 C   0  0  0  0  0  0  0  0  0  0  0  0
  -29.3819  -26.0052   20.0102 C   0  0  0  0  0  0  0  0  0  0  0  0
  -26.2677  -18.2122   18.1396 C   0  0  0  0  0  0  0  0  0  0  0  0
  -29.3582  -27.3075   19.5114 C   0  0  0  0  0  0  0  0  0  0  0  0
  -19.1369  -27.2190   21.6024 C   0  0  0  0  0  0  0  0  0  0  0  0
  -19.1206  -27.8055   23.9460 C   0  0  0  0  0  0  0  0  0  0  0  0
  -26.5337  -19.3511   18.8985 C   0  0  0  0  0  0  0  0  0  0  0  0
  -16.5757  -29.8029   22.9690 C   0  0  0  0  0  0  0  0  0  0  0  0
  -15.9002  -30.8453   23.6036 C   0  0  0  0  0  0  0  0  0  0  0  0
  -27.8172  -18.0148   20.4431 C   0  0  0  0  0  0  0  0  0  0  0  0
  -31.6851  -27.5766   20.1033 C   0  0  0  0  0  0  0  0  0  0  0  0
  -14.8715  -29.2613   25.1103 C   0  0  0  0  0  0  0  0  0  0  0  0
  -21.2202  -27.5697   22.7745 C   0  0  0  0  0  0  0  0  0  0  0  0
  -23.5399  -26.5534   22.4679 C   0  0  0  0  0  0  0  0  0  0  0  0
  -22.4932  -10.4549   19.0581 C   0  0  0  0  0  0  0  0  0  0  0  0
  -26.7663  -16.9621   18.5334 C   0  0  0  0  0  0  0  0  0  0  0  0
  -22.6289  -11.8533   18.9653 C   0  0  0  0  0  0  0  0  0  0  0  0
  -30.5572  -25.4885   20.5557 C   0  0  0  0  0  0  0  0  0  0  0  0
  -27.5583  -16.8620   19.6861 C   0  0  0  0  0  0  0  0  0  0  0  0
  -30.5098  -28.0932   19.5579 C   0  0  0  0  0  0  0  0  0  0  0  0
  -31.7088  -26.2742   20.6021 C   0  0  0  0  0  0  0  0  0  0  0  0
  -18.4316  -27.4931   22.7741 C   0  0  0  0  0  0  0  0  0  0  0  0
  -27.3061  -19.2521   20.0520 C   0  0  0  0  0  0  0  0  0  0  0  0
  -16.3990  -28.4897   23.4049 C   0  0  0  0  0  0  0  0  0  0  0  0
  -15.0481  -30.5745   24.6743 C   0  0  0  0  0  0  0  0  0  0  0  0
  -15.5470  -28.2189   24.4755 C   0  0  0  0  0  0  0  0  0  0  0  0
  -22.6606  -27.6089   22.7754 C   0  0  0  0  0  0  0  0  0  0  0  0
  -24.7929  -27.0968   22.6139 C   0  0  0  0  0  0  0  0  0  0  0  0
  -28.5538  -22.5528   20.8285 C   0  0  0  0  0  0  0  0  0  0  0  0
  -29.6674  -23.1089   20.2959 C   0  0  0  0  0  0  0  0  0  0  0  0
  -23.2500  -25.2026   22.0844 C   0  0  0  0  0  0  0  0  0  0  0  0
  -25.4588  -14.1921   19.3828 C   0  0  0  0  0  0  0  0  0  0  0  0
  -28.3545  -31.3142   21.7098 C   0  0  0  0  0  0  0  0  0  0  0  0
  -28.5404  -13.1791   19.3696 C   0  0  0  0  0  0  0  0  0  0  0  0
  -31.8511  -13.9698   19.6156 C   0  0  0  0  0  0  0  0  0  0  0  0
  -23.2352   -9.6532   20.0980 C   0  0  0  0  0  0  0  0  0  0  0  0
  -26.4927  -15.7475   17.6894 C   0  0  0  0  0  0  0  0  0  0  0  0
  -28.1340  -15.5466   20.1410 C   0  0  0  0  0  0  0  0  0  0  0  0
  -28.1076  -22.8350   22.2489 C   0  0  0  0  0  0  0  0  0  0  0  0
  -24.4230  -10.3948   20.7056 C   0  0  0  0  0  0  0  0  0  0  0  0
  -28.7906  -24.0233   22.9181 C   0  0  0  0  0  0  0  0  0  0  0  0
  -26.2729  -31.4886   24.6212 C   0  0  0  0  0  0  0  0  0  0  0  0
  -30.2789  -24.0419   22.6097 C   0  0  0  0  0  0  0  0  0  0  0  0
  -24.0266  -11.8182   21.0845 C   0  0  0  0  0  0  0  0  0  0  0  0
  -25.2027  -30.4292   24.3613 C   0  0  0  0  0  0  0  0  0  0  0  0
  -26.6994  -32.1800   23.3301 C   0  0  0  0  0  0  0  0  0  0  0  0
  -26.0954  -30.1818   22.0019 C   0  0  0  0  0  0  0  0  0  0  0  0
  -30.5588  -24.0609   21.0948 C   0  0  2  0  0  0  0  0  0  0  0  0
  -23.5905  -12.6166   19.8500 C   0  0  1  0  0  0  0  0  0  0  0  0
  -26.6219  -14.4398   18.4644 C   0  0  1  0  0  0  0  0  0  0  0  0
  -25.6584  -29.4377   23.2761 C   0  0  2  0  0  0  0  0  0  0  0  0
  -32.9785  -25.7427   21.1818 C   0  0  0  0  0  0  0  0  0  0  0  0
  -30.1729  -22.8207   18.9017 C   0  0  0  0  0  0  0  0  0  0  0  0
  -34.1323  -12.9241   19.6046 C   0  0  0  0  0  0  0  0  0  0  0  0
  -28.0915  -12.1757   22.2160 C   0  0  0  0  0  0  0  0  0  0  0  0
  -30.5765  -12.0251   22.4804 C   0  0  0  0  0  0  0  0  0  0  0  0
  -29.4201  -10.6332   20.7635 C   0  0  0  0  0  0  0  0  0  0  0  0
  -32.6723  -15.5088   17.2248 C   0  0  0  0  0  0  0  0  0  0  0  0
  -30.4842  -29.4858   19.0248 C   0  0  0  0  0  0  0  0  0  0  0  0
  -27.6321  -21.6073   20.1010 C   0  0  0  0  0  0  0  0  0  1  0  0
  -28.7012  -30.2692   20.6794 C   0  0  0  0  0  0  0  0  0  0  0  0
  -30.0915  -30.5130   20.1008 C   0  0  0  0  0  0  0  0  0  0  0  0
  -29.6516  -13.1229   20.3899 C   0  0  1  0  0  0  0  0  0  0  0  0
  -33.0461  -13.5784   18.7651 C   0  0  2  0  0  0  0  0  0  0  0  0
  -29.4226  -12.0138   21.4552 C   0  0  0  0  0  0  0  0  0  0  0  0
  -23.3007  -28.7373   23.0930 N   0  0  0  0  0  0  0  0  0  0  0  0
  -24.5956  -28.3940   22.9859 N   0  0  0  0  0  0  0  0  0  0  0  0
  -27.8332  -14.3868   19.2855 N   0  0  0  0  0  0  0  0  0  0  0  0
  -27.1036  -31.2033   22.3172 N   0  0  0  0  0  0  0  0  0  0  0  0
  -26.0331  -26.5866   22.4592 N   0  0  0  0  0  0  0  0  0  0  0  0
  -23.1234  -24.2350   23.0905 N   0  0  0  0  0  0  0  0  0  0  0  0
  -24.7460  -13.0448   19.0910 N   0  0  0  0  0  0  0  0  0  0  0  0
  -30.8919  -12.9795   19.6351 N   0  0  0  0  0  0  0  0  0  0  0  0
  -33.6253  -14.7804   18.1012 N   0  3  0  0  0  0  0  0  0  0  0  0
  -23.1238  -24.8605   20.8842 O   0  0  0  0  0  0  0  0  0  0  0  0
  -25.2262  -14.9824   20.2900 O   0  0  0  0  0  0  0  0  0  0  0  0
  -29.1735  -32.2001   21.9679 O   0  0  0  0  0  0  0  0  0  0  0  0
  -28.3130  -12.1903   18.6681 O   0  0  0  0  0  0  0  0  0  0  0  0
  -31.7777  -15.0448   20.2067 O   0  0  0  0  0  0  0  0  0  0  0  0
  -17.0710  -27.4561   22.7742 O   0  0  0  0  0  0  0  0  0  0  0  0
  -27.5667  -20.3621   20.7949 O   0  0  0  0  0  0  0  0  0  1  0  0
  -14.4007  -31.5757   25.2847 F   0  0  0  0  0  0  0  0  0  0  0  0
  -15.3742  -26.9595   24.8995 F   0  0  0  0  0  0  0  0  0  0  0  0
  1  2  1  0  0  0  0
  1  5  2  0  0  0  0
  2  6  2  0  0  0  0
  3 10  2  0  0  0  0
  3 18  1  0  0  0  0
  4 11  1  0  0  0  0
  4 18  2  0  0  0  0
  5 20  1  0  0  0  0
  6 22  1  0  0  0  0
  7  9  2  0  0  0  0
  7 23  1  0  0  0  0
  8 12  2  0  0  0  0
  8 21  1  0  0  0  0
  9 25  1  0  0  0  0
 10 27  1  0  0  0  0
 11 27  2  0  0  0  0
 12 28  1  0  0  0  0
 13 14  2  0  0  0  0
 13 29  1  0  0  0  0
 14 30  1  0  0  0  0
 15 24  1  0  0  0  0
 15 28  2  0  0  0  0
 16 25  2  0  0  0  0
 16 26  1  0  0  0  0
 17 30  2  0  0  0  0
 17 31  1  0  0  0  0
 18 32  1  0  0  0  0
 19 32  1  0  0  0  0
 19 33  2  0  0  0  0
 19 36  1  0  0  0  0
 20 22  2  0  0  0  0
 20 41  1  0  0  0  0
 21 24  2  0  0  0  0
 21 42  1  0  0  0  0
 22 54  1  0  0  0  0
 23 26  2  0  0  0  0
 23 53  1  0  0  0  0
 24 43  1  0  0  0  0
 25 64  1  0  0  0  0
 26 57  1  0  0  0  0
 27 85  1  0  0  0  0
 28 86  1  0  0  0  0
 29 31  2  0  0  0  0
 29 85  1  0  0  0  0
 30 87  1  0  0  0  0
 31 88  1  0  0  0  0
 32 71  2  0  0  0  0
 33 72  1  0  0  0  0
 33 75  1  0  0  0  0
 34 35  2  0  0  0  0
 34 44  1  0  0  0  0
 34 65  1  0  0  0  0
 35 53  1  0  0  0  0
 35 58  1  0  0  0  0
 36 76  1  0  0  0  0
 36 80  2  0  0  0  0
 37 55  1  0  0  0  0
 37 77  1  0  0  0  0
 37 81  2  0  0  0  0
 38 66  1  0  0  0  0
 38 74  1  0  0  0  0
 38 82  2  0  0  0  0
 39 68  1  0  0  0  0
 39 73  1  0  0  0  0
 39 83  2  0  0  0  0
 40 69  1  0  0  0  0
 40 78  1  0  0  0  0
 40 84  2  0  0  0  0
 41 45  1  0  0  0  0
 42 55  1  0  0  0  0
 43 73  1  0  0  0  0
 44 46  1  0  0  0  0
 45 49  1  0  0  0  0
 46 48  1  0  0  0  0
 47 50  1  0  0  0  0
 47 51  1  0  0  0  0
 48 53  1  0  0  0  0
 49 54  1  0  0  0  0
 50 56  1  0  0  0  0
 51 74  1  0  0  0  0
 52 56  1  0  0  0  0
 52 74  1  0  0  0  0
 54 77  1  0  0  0  0
 55 73  1  0  0  0  0
 56 72  1  0  0  0  0
 59 69  1  0  0  0  0
 60 70  1  0  0  0  0
 61 70  1  0  0  0  0
 62 70  1  0  0  0  0
 63 79  1  0  0  0  0
 64 67  1  0  0  0  0
 65 86  1  0  0  0  0
 66 67  1  0  0  0  0
 68 70  1  0  0  0  0
 68 78  1  0  0  0  0
 69 79  1  0  0  0  0
 71 72  1  0  0  0  0
M  CHG  1  79   1
M  ISO  4  38 100  65 101  66 100  86 101
M  END
> <Batch ID>
0132

> <Smiles>
CNC(C)C(=O)NC(C(=O)N1Cc2cc([101O:1][101CH2:1]C3=C(C)C(c4ccc(CC[100CH2:0][100C:0](=O)N5CCCC(n6nc(-c7ccc(Oc8ccc(F)cc8F)cc7)c(C(N)=O)c6N)C5)cc4C)CCC3)ccc2CC1C(=O)NC1CCCc2ccccc21)C(C)(C)C

> <Shape>
0.278

> <Color>
0.069

> <Negative vol penalty>
0.000

$$$$

  -OEChem-04052302283D

 84 92  0     1  0  0  0  0  0999 V2000
  -30.5556  -33.6949   23.6063 C   0  0  0  0  0  0  0  0  0  0  0  0
  -29.8361  -32.5679   23.2222 C   0  0  0  0  0  0  0  0  0  0  0  0
  -24.5085   -8.8333   20.7055 C   0  0  0  0  0  0  0  0  0  0  0  0
  -22.9830  -10.6933   20.9292 C   0  0  0  0  0  0  0  0  0  0  0  0
  -29.9945  -34.6085   24.4976 C   0  0  0  0  0  0  0  0  0  0  0  0
  -28.5552  -32.3533   23.7300 C   0  0  0  0  0  0  0  0  0  0  0  0
  -25.2641  -30.9202   20.1579 C   0  0  0  0  0  0  0  0  0  0  0  0
  -29.0045  -20.7402   21.0122 C   0  0  0  0  0  0  0  0  0  0  0  0
  -29.0724  -19.3931   21.3675 C   0  0  0  0  0  0  0  0  0  0  0  0
  -23.4806   -7.9504   21.0366 C   0  0  0  0  0  0  0  0  0  0  0  0
  -21.9550   -9.8105   21.2603 C   0  0  0  0  0  0  0  0  0  0  0  0
  -25.3144  -29.5903   19.7425 C   0  0  0  0  0  0  0  0  0  0  0  0
  -21.9043   -6.9010   23.8363 C   0  0  0  0  0  0  0  0  0  0  0  0
  -22.1895   -5.8906   24.7546 C   0  0  0  0  0  0  0  0  0  0  0  0
  -23.4299  -29.0825   21.1602 C   0  0  0  0  0  0  0  0  0  0  0  0
  -28.0966  -20.1265   18.8590 C   0  0  0  0  0  0  0  0  0  0  0  0
  -21.6314   -4.2252   23.0957 C   0  0  0  0  0  0  0  0  0  0  0  0
  -24.2597  -10.2048   20.6519 C   0  0  0  0  0  0  0  0  0  0  0  0
  -25.6771  -11.5642   19.0239 C   0  0  0  0  0  0  0  0  0  0  0  0
  -28.7024  -34.4100   25.0091 C   0  0  0  0  0  0  0  0  0  0  0  0
  -24.3016  -31.3396   21.0875 C   0  0  0  0  0  0  0  0  0  0  0  0
  -27.9768  -33.2644   24.6300 C   0  0  0  0  0  0  0  0  0  0  0  0
  -23.3679  -30.4188   21.5839 C   0  0  0  0  0  0  0  0  0  0  0  0
  -28.5166  -21.1069   19.7579 C   0  0  0  0  0  0  0  0  0  0  0  0
  -28.1646  -18.7794   19.2142 C   0  0  0  0  0  0  0  0  0  0  0  0
  -28.6525  -18.4127   20.4685 C   0  0  0  0  0  0  0  0  0  0  0  0
  -22.2039   -8.4390   21.3139 C   0  0  0  0  0  0  0  0  0  0  0  0
  -24.3990  -28.6706   20.2458 C   0  0  0  0  0  0  0  0  0  0  0  0
  -21.4826   -6.5735   22.5476 C   0  0  0  0  0  0  0  0  0  0  0  0
  -22.0531   -4.5527   24.3843 C   0  0  0  0  0  0  0  0  0  0  0  0
  -21.3462   -5.2356   22.1773 C   0  0  0  0  0  0  0  0  0  0  0  0
  -25.3212  -11.1173   20.3105 C   0  0  0  0  0  0  0  0  0  0  0  0
  -26.7383  -12.4101   19.2356 C   0  0  0  0  0  0  0  0  0  0  0  0
  -25.1001  -11.2434   17.7512 C   0  0  0  0  0  0  0  0  0  0  0  0
  -24.3988  -32.5784   24.0132 C   0  0  0  0  0  0  0  0  0  0  0  0
  -21.1953  -32.8505   23.5826 C   0  0  0  0  0  0  0  0  0  0  0  0
  -18.3851  -31.7656   21.9786 C   0  0  0  0  0  0  0  0  0  0  0  0
  -29.1914  -16.5349   22.0590 C   0  0  0  0  0  0  0  0  0  0  0  0
  -28.1563  -35.4007   26.0066 C   0  0  0  0  0  0  0  0  0  0  0  0
  -24.2437  -32.7834   21.5052 C   0  0  0  0  0  0  0  0  0  0  0  0
  -22.3020  -30.8228   22.5684 C   0  0  0  0  0  0  0  0  0  0  0  0
  -26.6470  -35.2932   26.2080 C   0  0  0  0  0  0  0  0  0  0  0  0
  -29.5051  -13.2477   23.3907 C   0  0  0  0  0  0  0  0  0  0  0  0
  -26.2346  -33.8355   26.3863 C   0  0  0  0  0  0  0  0  0  0  0  0
  -28.4739  -12.4372   22.6022 C   0  0  0  0  0  0  0  0  0  0  0  0
  -29.0104  -14.6631   23.6835 C   0  0  0  0  0  0  0  0  0  0  0  0
  -27.5235  -14.6064   21.7201 C   0  0  0  0  0  0  0  0  0  0  0  0
  -26.5750  -33.0096   25.1399 C   0  0  1  0  0  0  0  0  0  0  0  0
  -23.5464  -32.9900   22.8463 C   0  0  1  0  0  0  0  0  0  0  0  0
  -28.0033  -13.1947   21.3451 C   0  0  2  0  0  0  0  0  0  0  0  0
  -28.8802  -17.0515   17.5443 C   0  0  0  0  0  0  0  0  0  0  0  0
  -15.9084  -32.1533   21.8643 C   0  0  0  0  0  0  0  0  0  0  0  0
  -20.8401  -31.3411   26.2105 C   0  0  0  0  0  0  0  0  0  0  0  0
  -18.4541  -30.9314   25.5721 C   0  0  0  0  0  0  0  0  0  0  0  0
  -19.2745  -33.2653   25.8928 C   0  0  0  0  0  0  0  0  0  0  0  0
  -18.5214  -32.5437   19.1265 C   0  0  0  0  0  0  0  0  0  0  0  0
  -28.4455  -22.5633   19.3730 C   0  0  0  0  0  0  0  0  0  0  0  0
  -27.7106  -17.7503   18.2301 C   0  0  0  0  0  0  0  0  0  0  0  0
  -27.1181  -23.2368   19.7393 C   0  0  0  0  0  0  0  0  0  0  0  0
  -27.0942  -24.7328   19.4104 C   0  0  0  0  0  0  0  0  0  0  0  0
  -25.7443  -25.3553   19.7631 C   0  0  0  0  0  0  0  0  0  0  0  0
  -25.7241  -26.8506   19.4792 C   0  0  0  0  0  0  0  0  0  1  0  0
  -20.0017  -31.9656   23.8497 C   0  0  1  0  0  0  0  0  0  0  0  0
  -17.2657  -32.5213   21.2855 C   0  0  2  0  0  0  0  0  0  0  0  0
  -19.6638  -31.8675   25.3642 C   0  0  0  0  0  0  0  0  0  0  0  0
  -26.0937  -11.6362   21.2686 N   0  0  0  0  0  0  0  0  0  0  0  0
  -26.9456  -12.4179   20.5836 N   0  0  0  0  0  0  0  0  0  0  0  0
  -22.2905  -32.2444   22.9510 N   0  0  0  0  0  0  0  0  0  0  0  0
  -28.5855  -15.3207   22.4458 N   0  0  0  0  0  0  0  0  0  0  0  0
  -27.5050  -13.1406   18.3983 N   0  0  0  0  0  0  0  0  0  0  0  0
  -24.0150  -10.3571   17.7138 N   0  0  0  0  0  0  0  0  0  0  0  0
  -28.7294  -17.0497   20.8482 N   0  0  0  0  0  0  0  0  0  0  0  0
  -25.6040  -33.2496   24.0939 N   0  0  0  0  0  0  0  0  0  0  0  0
  -18.9150  -32.4868   23.0276 N   0  0  0  0  0  0  0  0  0  0  0  0
  -17.2553  -32.2097   19.8282 N   0  3  0  0  0  0  0  0  0  0  0  0
  -25.5442  -11.7157   16.6773 O   0  0  0  0  0  0  0  0  0  0  0  0
  -23.9926  -31.7169   24.7841 O   0  0  0  0  0  0  0  0  0  0  0  0
  -21.1545  -34.0376   23.9155 O   0  0  0  0  0  0  0  0  0  0  0  0
  -18.7502  -30.6459   21.6272 O   0  0  0  0  0  0  0  0  0  0  0  0
  -30.0756  -17.0639   22.7374 O   0  0  0  0  0  0  0  0  0  0  0  0
  -21.2006   -7.5778   21.6368 O   0  0  0  0  0  0  0  0  0  0  0  0
  -24.4463  -27.3717   19.8425 O   0  0  0  0  0  0  0  0  0  1  0  0
  -22.3285   -3.5825   25.2658 F   0  0  0  0  0  0  0  0  0  0  0  0
  -20.9426   -4.9149   20.9404 F   0  0  0  0  0  0  0  0  0  0  0  0
  1  2  1  0  0  0  0
  1  5  2  0  0  0  0
  2  6  2  0  0  0  0
  3 10  2  0  0  0  0
  3 18  1  0  0  0  0
  4 11  1  0  0  0  0
  4 18  2  0  0  0  0
  5 20  1  0  0  0  0
  6 22  1  0  0  0  0
  7 12  2  0  0  0  0
  7 21  1  0  0  0  0
  8  9  2  0  0  0  0
  8 24  1  0  0  0  0
  9 26  1  0  0  0  0
 10 27  1  0  0  0  0
 11 27  2  0  0  0  0
 12 28  1  0  0  0  0
 13 14  2  0  0  0  0
 13 29  1  0  0  0  0
 14 30  1  0  0  0  0
 15 23  1  0  0  0  0
 15 28  2  0  0  0  0
 16 24  2  0  0  0  0
 16 25  1  0  0  0  0
 17 30  2  0  0  0  0
 17 31  1  0  0  0  0
 18 32  1  0  0  0  0
 19 32  1  0  0  0  0
 19 33  2  0  0  0  0
 19 34  1  0  0  0  0
 20 22  2  0  0  0  0
 20 39  1  0  0  0  0
 21 23  2  0  0  0  0
 21 40  1  0  0  0  0
 22 48  1  0  0  0  0
 23 41  1  0  0  0  0
 24 57  1  0  0  0  0
 25 26  2  0  0  0  0
 25 58  1  0  0  0  0
 26 72  1  0  0  0  0
 27 81  1  0  0  0  0
 28 82  1  0  0  0  0
 29 31  2  0  0  0  0
 29 81  1  0  0  0  0
 30 83  1  0  0  0  0
 31 84  1  0  0  0  0
 32 66  2  0  0  0  0
 33 67  1  0  0  0  0
 33 70  1  0  0  0  0
 34 71  1  0  0  0  0
 34 76  2  0  0  0  0
 35 49  1  0  0  0  0
 35 73  1  0  0  0  0
 35 77  2  0  0  0  0
 36 63  1  0  0  0  0
 36 68  1  0  0  0  0
 36 78  2  0  0  0  0
 37 64  1  0  0  0  0
 37 74  1  0  0  0  0
 37 79  2  0  0  0  0
 38 69  1  0  0  0  0
 38 72  1  0  0  0  0
 38 80  2  0  0  0  0
 39 42  1  0  0  0  0
 40 49  1  0  0  0  0
 41 68  1  0  0  0  0
 42 44  1  0  0  0  0
 43 45  1  0  0  0  0
 43 46  1  0  0  0  0
 44 48  1  0  0  0  0
 45 50  1  0  0  0  0
 46 69  1  0  0  0  0
 47 50  1  0  0  0  0
 47 69  1  0  0  0  0
 48 73  1  0  0  0  0
 49 68  1  0  0  0  0
 50 67  1  0  0  0  0
 51 58  1  0  0  0  0
 52 64  1  0  0  0  0
 53 65  1  0  0  0  0
 54 65  1  0  0  0  0
 55 65  1  0  0  0  0
 56 75  1  0  0  0  0
 57 59  1  0  0  0  0
 59 60  1  0  0  0  0
 60 61  1  0  0  0  0
 61 62  1  0  0  0  0
 62 82  1  0  0  0  0
 63 65  1  0  0  0  0
 63 74  1  0  0  0  0
 64 75  1  0  0  0  0
 66 67  1  0  0  0  0
M  CHG  1  75   1
M  ISO  4  38 100  62 101  72 100  82 101
M  END
> <Batch ID>
0132

> <Smiles>
CCc1cc(CCCC[101CH2:1][101O:1]c2ccc3c(c2)CN(C(=O)C(NC(=O)C(C)NC)C(C)(C)C)C(C(=O)NC2CCCc4ccccc42)C3)ccc1[100NH:0][100C:0](=O)N1CCCC(n2nc(-c3ccc(Oc4ccc(F)cc4F)cc3)c(C(N)=O)c2N)C1

> <Shape>
0.283

> <Color>
0.092

> <Negative vol penalty>
0.000

$$$$

  -OEChem-04052302283D

 84 92  0     1  0  0  0  0  0999 V2000
  -27.8898  -33.1880   25.7013 C   0  0  0  0  0  0  0  0  0  0  0  0
  -27.8569  -31.8130   25.9099 C   0  0  0  0  0  0  0  0  0  0  0  0
  -23.1213   -9.8720   21.4537 C   0  0  0  0  0  0  0  0  0  0  0  0
  -23.8752  -10.7756   23.5638 C   0  0  0  0  0  0  0  0  0  0  0  0
  -26.8759  -33.8056   24.9702 C   0  0  0  0  0  0  0  0  0  0  0  0
  -26.8093  -31.0547   25.3883 C   0  0  0  0  0  0  0  0  0  0  0  0
  -28.4106  -26.7870   23.1822 C   0  0  0  0  0  0  0  0  0  0  0  0
  -27.9698  -20.8409   21.0975 C   0  0  0  0  0  0  0  0  0  0  0  0
  -27.4093  -20.0668   20.0814 C   0  0  0  0  0  0  0  0  0  0  0  0
  -22.4213   -8.8738   22.1313 C   0  0  0  0  0  0  0  0  0  0  0  0
  -23.1751   -9.7774   24.2414 C   0  0  0  0  0  0  0  0  0  0  0  0
  -28.7516  -25.7262   24.0202 C   0  0  0  0  0  0  0  0  0  0  0  0
  -23.1188   -5.9365   23.6513 C   0  0  0  0  0  0  0  0  0  0  0  0
  -23.2270   -4.6310   23.1722 C   0  0  0  0  0  0  0  0  0  0  0  0
  -29.7123  -19.1934   21.3915 C   0  0  0  0  0  0  0  0  0  0  0  0
  -26.6080  -24.7063   23.5915 C   0  0  0  0  0  0  0  0  0  0  0  0
  -20.8387   -4.5649   22.8133 C   0  0  0  0  0  0  0  0  0  0  0  0
  -23.8483  -10.8229   22.1700 C   0  0  0  0  0  0  0  0  0  0  0  0
  -29.1518  -18.4193   20.3755 C   0  0  0  0  0  0  0  0  0  0  0  0
  -24.0941  -13.1245   21.0975 C   0  0  0  0  0  0  0  0  0  0  0  0
  -25.8204  -33.0532   24.4313 C   0  0  0  0  0  0  0  0  0  0  0  0
  -27.1594  -26.8209   22.5501 C   0  0  0  0  0  0  0  0  0  0  0  0
  -25.7795  -31.6630   24.6505 C   0  0  0  0  0  0  0  0  0  0  0  0
  -26.2545  -25.7674   22.7439 C   0  0  0  0  0  0  0  0  0  0  0  0
  -29.1213  -20.4042   21.7525 C   0  0  0  0  0  0  0  0  0  0  0  0
  -28.0003  -18.8560   19.7204 C   0  0  0  0  0  0  0  0  0  0  0  0
  -22.4482   -8.8265   23.5251 C   0  0  0  0  0  0  0  0  0  0  0  0
  -27.8492  -24.6871   24.2272 C   0  0  0  0  0  0  0  0  0  0  0  0
  -21.8706   -6.5562   23.7115 C   0  0  0  0  0  0  0  0  0  0  0  0
  -22.0869   -3.9452   22.7532 C   0  0  0  0  0  0  0  0  0  0  0  0
  -20.7305   -5.8704   23.2925 C   0  0  0  0  0  0  0  0  0  0  0  0
  -24.5721  -11.8540   21.4706 C   0  0  0  0  0  0  0  0  0  0  0  0
  -25.1577  -13.7190   20.4639 C   0  0  0  0  0  0  0  0  0  0  0  0
  -29.7921  -17.1591   20.0214 C   0  0  0  0  0  0  0  0  0  0  0  0
  -29.9627  -16.1100   20.8513 C   0  0  0  0  0  0  0  0  0  0  0  0
  -22.8039  -13.7144   21.3053 C   0  0  0  0  0  0  0  0  0  0  0  0
  -30.6261  -14.8899   20.3372 C   0  0  0  0  0  0  0  0  0  0  0  0
  -24.6556  -28.7773   22.6349 C   0  0  0  0  0  0  0  0  0  0  0  0
  -23.5750  -26.8672   20.2462 C   0  0  0  0  0  0  0  0  0  0  0  0
  -23.6647  -23.8235   18.7051 C   0  0  0  0  0  0  0  0  0  0  0  0
  -24.7222  -33.7717   23.6881 C   0  0  0  0  0  0  0  0  0  0  0  0
  -26.8172  -27.9589   21.6280 C   0  0  0  0  0  0  0  0  0  0  0  0
  -24.9064  -25.7462   22.0727 C   0  0  0  0  0  0  0  0  0  0  0  0
  -23.8454  -32.8441   22.8509 C   0  0  0  0  0  0  0  0  0  0  0  0
  -29.5491  -11.7992   18.8728 C   0  0  0  0  0  0  0  0  0  0  0  0
  -23.4421  -31.6159   23.6606 C   0  0  0  0  0  0  0  0  0  0  0  0
  -28.1328  -11.6240   19.4197 C   0  0  0  0  0  0  0  0  0  0  0  0
  -30.4621  -12.4724   19.8924 C   0  0  0  0  0  0  0  0  0  0  0  0
  -28.5260  -13.6140   20.9398 C   0  0  0  0  0  0  0  0  0  0  0  0
  -24.6729  -30.8029   24.0797 C   0  0  1  0  0  0  0  0  0  0  0  0
  -25.3146  -28.1457   21.4414 C   0  0  1  0  0  0  0  0  0  0  0  0
  -27.5676  -12.9623   19.9277 C   0  0  2  0  0  0  0  0  0  0  0  0
  -27.3713  -18.0515   18.6285 C   0  0  0  0  0  0  0  0  0  0  0  0
  -22.6422  -22.5489   16.8006 C   0  0  0  0  0  0  0  0  0  0  0  0
  -29.0530  -21.4113   26.7064 C   0  0  0  0  0  0  0  0  0  0  0  0
  -21.0227  -26.4866   21.8743 C   0  0  0  0  0  0  0  0  0  0  0  0
  -20.4765  -24.5176   20.4277 C   0  0  0  0  0  0  0  0  0  0  0  0
  -20.6580  -26.7919   19.4191 C   0  0  0  0  0  0  0  0  0  0  0  0
  -26.2875  -23.4718   17.3800 C   0  0  0  0  0  0  0  0  0  0  0  0
  -29.7263  -21.2421   22.8510 C   0  0  0  0  0  0  0  0  0  0  0  0
  -29.1852  -20.9205   24.2510 C   0  0  0  0  0  0  0  0  0  0  0  0
  -29.5616  -23.3082   25.1338 C   0  0  0  0  0  0  0  0  0  1  0  0
  -22.7555  -25.6012   20.1774 C   0  0  1  0  0  0  0  0  0  0  0  0
  -23.7938  -23.4385   17.2424 C   0  0  2  0  0  0  0  0  0  0  0  0
  -29.7367  -21.8053   25.3908 C   0  0  1  0  0  0  0  0  0  0  0  0
  -21.2527  -25.8504   20.4890 C   0  0  0  0  0  0  0  0  0  0  0  0
  -25.8407  -11.6524   21.1043 N   0  0  0  0  0  0  0  0  0  0  0  0
  -26.1687  -12.8041   20.4944 N   0  0  0  0  0  0  0  0  0  0  0  0
  -29.8794  -13.7208   20.3805 N   0  0  0  0  0  0  0  0  0  0  0  0
  -24.6158  -26.8846   21.1854 N   0  0  0  0  0  0  0  0  0  0  0  0
  -25.3175  -14.9300   19.8890 N   0  0  0  0  0  0  0  0  0  0  0  0
  -21.8266  -12.9652   21.9745 N   0  0  0  0  0  0  0  0  0  0  0  0
  -25.1637  -30.0188   22.9667 N   0  0  0  0  0  0  0  0  0  0  0  0
  -23.0051  -25.0244   18.8609 N   0  0  0  0  0  0  0  0  0  0  0  0
  -25.0701  -22.7048   17.0106 N   0  3  0  0  0  0  0  0  0  0  0  0
  -22.5209  -14.8655   20.8948 O   0  0  0  0  0  0  0  0  0  0  0  0
  -31.7691  -15.0441   19.9271 O   0  0  0  0  0  0  0  0  0  0  0  0
  -23.7520  -28.1830   23.2111 O   0  0  0  0  0  0  0  0  0  0  0  0
  -23.3062  -27.8034   19.4893 O   0  0  0  0  0  0  0  0  0  0  0  0
  -24.1016  -23.1267   19.6184 O   0  0  0  0  0  0  0  0  0  0  0  0
  -21.7650   -7.8527   24.1866 O   0  0  0  0  0  0  0  0  0  0  0  0
  -28.1792  -23.6509   25.0452 O   0  0  0  0  0  0  0  0  0  1  0  0
  -22.1911   -2.6920   22.2918 F   0  0  0  0  0  0  0  0  0  0  0  0
  -19.5288   -6.4610   23.3468 F   0  0  0  0  0  0  0  0  0  0  0  0
  1  2  1  0  0  0  0
  1  5  2  0  0  0  0
  2  6  2  0  0  0  0
  3 10  2  0  0  0  0
  3 18  1  0  0  0  0
  4 11  1  0  0  0  0
  4 18  2  0  0  0  0
  5 21  1  0  0  0  0
  6 23  1  0  0  0  0
  7 12  2  0  0  0  0
  7 22  1  0  0  0  0
  8  9  2  0  0  0  0
  8 25  1  0  0  0  0
  9 26  1  0  0  0  0
 10 27  1  0  0  0  0
 11 27  2  0  0  0  0
 12 28  1  0  0  0  0
 13 14  2  0  0  0  0
 13 29  1  0  0  0  0
 14 30  1  0  0  0  0
 15 19  1  0  0  0  0
 15 25  2  0  0  0  0
 16 24  1  0  0  0  0
 16 28  2  0  0  0  0
 17 30  2  0  0  0  0
 17 31  1  0  0  0  0
 18 32  1  0  0  0  0
 19 26  2  0  0  0  0
 19 34  1  0  0  0  0
 20 32  1  0  0  0  0
 20 33  2  0  0  0  0
 20 36  1  0  0  0  0
 21 23  2  0  0  0  0
 21 41  1  0  0  0  0
 22 24  2  0  0  0  0
 22 42  1  0  0  0  0
 23 50  1  0  0  0  0
 24 43  1  0  0  0  0
 25 60  1  0  0  0  0
 26 53  1  0  0  0  0
 27 81  1  0  0  0  0
 28 82  1  0  0  0  0
 29 31  2  0  0  0  0
 29 81  1  0  0  0  0
 30 83  1  0  0  0  0
 31 84  1  0  0  0  0
 32 67  2  0  0  0  0
 33 68  1  0  0  0  0
 33 71  1  0  0  0  0
 34 35  2  0  0  0  0
 35 37  1  0  0  0  0
 36 72  1  0  0  0  0
 36 76  2  0  0  0  0
 37 69  1  0  0  0  0
 37 77  2  0  0  0  0
 38 51  1  0  0  0  0
 38 73  1  0  0  0  0
 38 78  2  0  0  0  0
 39 63  1  0  0  0  0
 39 70  1  0  0  0  0
 39 79  2  0  0  0  0
 40 64  1  0  0  0  0
 40 74  1  0  0  0  0
 40 80  2  0  0  0  0
 41 44  1  0  0  0  0
 42 51  1  0  0  0  0
 43 70  1  0  0  0  0
 44 46  1  0  0  0  0
 45 47  1  0  0  0  0
 45 48  1  0  0  0  0
 46 50  1  0  0  0  0
 47 52  1  0  0  0  0
 48 69  1  0  0  0  0
 49 52  1  0  0  0  0
 49 69  1  0  0  0  0
 50 73  1  0  0  0  0
 51 70  1  0  0  0  0
 52 68  1  0  0  0  0
 54 64  1  0  0  0  0
 55 65  1  0  0  0  0
 56 66  1  0  0  0  0
 57 66  1  0  0  0  0
 58 66  1  0  0  0  0
 59 75  1  0  0  0  0
 60 61  1  0  0  0  0
 61 65  1  0  0  0  0
 62 65  1  0  0  0  0
 62 82  1  0  0  0  0
 63 66  1  0  0  0  0
 63 74  1  0  0  0  0
 64 75  1  0  0  0  0
 67 68  1  0  0  0  0
M  CHG  1  75   1
M  ISO  4  35 100  37 100  62 101  82 101
M  END
> <Batch ID>
0132

> <Smiles>
CNC(C)C(=O)NC(C(=O)N1Cc2cc([101O:1][101CH2:1]C(C)CCc3ccc(C)c(C=[100CH:0][100C:0](=O)N4CCCC(n5nc(-c6ccc(Oc7ccc(F)cc7F)cc6)c(C(N)=O)c5N)C4)c3)ccc2CC1C(=O)NC1CCCc2ccccc21)C(C)(C)C

> <Shape>
0.286

> <Color>
0.175

> <Negative vol penalty>
0.000

$$$$

  -OEChem-04052302283D

 86 95  0     1  0  0  0  0  0999 V2000
  -29.2769  -17.7493   18.3824 C   0  0  0  0  0  0  0  0  0  0  0  0
  -28.5845  -18.8006   17.7921 C   0  0  0  0  0  0  0  0  0  0  0  0
  -25.8259  -15.1777   22.8220 C   0  0  0  0  0  0  0  0  0  0  0  0
  -24.0647  -15.5123   21.2024 C   0  0  0  0  0  0  0  0  0  0  0  0
  -29.7379  -17.8712   19.6915 C   0  0  0  0  0  0  0  0  0  0  0  0
  -28.3633  -19.9785   18.5066 C   0  0  0  0  0  0  0  0  0  0  0  0
  -19.0201  -25.2683   24.6149 C   0  0  0  0  0  0  0  0  0  0  0  0
  -24.9740  -26.2965   18.4373 C   0  0  0  0  0  0  0  0  0  0  0  0
  -18.9331  -24.1467   25.4395 C   0  0  0  0  0  0  0  0  0  0  0  0
  -26.3269  -14.1228   22.0593 C   0  0  0  0  0  0  0  0  0  0  0  0
  -24.5657  -14.4574   20.4397 C   0  0  0  0  0  0  0  0  0  0  0  0
  -24.0536  -27.1003   19.1086 C   0  0  0  0  0  0  0  0  0  0  0  0
  -28.2820  -11.5750   20.3560 C   0  0  0  0  0  0  0  0  0  0  0  0
  -29.6605  -11.5211   20.1501 C   0  0  0  0  0  0  0  0  0  0  0  0
  -25.7504  -27.6879   20.7194 C   0  0  0  0  0  0  0  0  0  0  0  0
  -17.2745  -23.1914   23.9651 C   0  0  0  0  0  0  0  0  0  0  0  0
  -29.5831  -13.6796   19.0675 C   0  0  0  0  0  0  0  0  0  0  0  0
  -24.6947  -15.8724   22.3936 C   0  0  0  0  0  0  0  0  0  0  0  0
  -24.5244  -18.3225   23.0836 C   0  0  0  0  0  0  0  0  0  0  0  0
  -29.5109  -19.0468   20.4259 C   0  0  0  0  0  0  0  0  0  0  0  0
  -26.2889  -26.1737   18.9092 C   0  0  0  0  0  0  0  0  0  0  0  0
  -28.8415  -20.1299   19.8208 C   0  0  0  0  0  0  0  0  0  0  0  0
  -18.2343  -25.3515   23.4654 C   0  0  0  0  0  0  0  0  0  0  0  0
  -26.6863  -26.8840   20.0509 C   0  0  0  0  0  0  0  0  0  0  0  0
  -18.0603  -23.1082   25.1146 C   0  0  0  0  0  0  0  0  0  0  0  0
  -17.3615  -24.3130   23.1405 C   0  0  0  0  0  0  0  0  0  0  0  0
  -25.6969  -13.7626   20.8681 C   0  0  0  0  0  0  0  0  0  0  0  0
  -24.4408  -27.7938   20.2514 C   0  0  0  0  0  0  0  0  0  0  0  0
  -27.5540  -12.6811   19.9176 C   0  0  0  0  0  0  0  0  0  0  0  0
  -30.3111  -12.5734   19.5059 C   0  0  0  0  0  0  0  0  0  0  0  0
  -28.2046  -13.7334   19.2734 C   0  0  0  0  0  0  0  0  0  0  0  0
  -24.1763  -16.9619   23.1813 C   0  0  0  0  0  0  0  0  0  0  0  0
  -23.7599  -18.9421   24.0417 C   0  0  0  0  0  0  0  0  0  0  0  0
  -25.4554  -18.9684   22.2052 C   0  0  0  0  0  0  0  0  0  0  0  0
  -28.0734  -23.7697   19.9769 C   0  0  0  0  0  0  0  0  0  0  0  0
  -18.8157  -19.6227   26.5680 C   0  0  0  0  0  0  0  0  0  0  0  0
  -30.4111  -26.0186   19.9773 C   0  0  0  0  0  0  0  0  0  0  0  0
  -31.2517  -29.3238   20.1041 C   0  0  0  0  0  0  0  0  0  0  0  0
  -30.0387  -19.1280   21.8367 C   0  0  0  0  0  0  0  0  0  0  0  0
  -27.2770  -25.3237   18.1585 C   0  0  0  0  0  0  0  0  0  0  0  0
  -28.0915  -26.8019   20.5867 C   0  0  0  0  0  0  0  0  0  0  0  0
  -29.3751  -20.2292   22.6572 C   0  0  0  0  0  0  0  0  0  0  0  0
  -20.9614  -17.0224   27.7823 C   0  0  0  0  0  0  0  0  0  0  0  0
  -17.9967  -27.8540   23.3646 C   0  0  0  0  0  0  0  0  0  0  0  0
  -29.3849  -21.5357   21.8777 C   0  0  0  0  0  0  0  0  0  0  0  0
  -19.2824  -28.6742   23.4002 C   0  0  0  0  0  0  0  0  0  0  0  0
  -21.9996  -16.8659   26.6720 C   0  0  0  0  0  0  0  0  0  0  0  0
  -19.7851  -26.7520   22.0887 C   0  0  0  0  0  0  0  0  0  0  0  0
  -19.5865  -17.3646   27.2169 C   0  0  0  0  0  0  0  0  0  0  0  0
  -20.6120  -18.4193   25.2276 C   0  0  0  0  0  0  0  0  0  0  0  0
  -18.3446  -26.5603   22.5987 C   0  0  1  0  0  0  0  0  0  0  0  0
  -28.5625  -21.4090   20.5891 C   0  0  1  0  0  0  0  0  0  0  0  0
  -28.4491  -24.8668   19.0215 C   0  0  1  0  0  0  0  0  0  0  0  0
  -20.0040  -28.2633   22.1214 C   0  0  2  0  0  0  0  0  0  0  0  0
  -22.0218  -18.1036   25.7576 C   0  0  2  0  0  0  0  0  0  0  0  0
  -16.5100  -24.3801   21.9152 C   0  0  0  0  0  0  0  0  0  0  0  0
  -33.2431  -30.8505   20.1241 C   0  0  0  0  0  0  0  0  0  0  0  0
  -30.9327  -25.2960   22.8955 C   0  0  0  0  0  0  0  0  0  0  0  0
  -32.2156  -27.4340   23.1229 C   0  0  0  0  0  0  0  0  0  0  0  0
  -32.9934  -25.6781   21.5309 C   0  0  0  0  0  0  0  0  0  0  0  0
  -30.4076  -30.6476   17.5954 C   0  0  0  0  0  0  0  0  0  0  0  0
  -17.9671  -21.9092   25.9965 C   0  0  0  0  0  0  0  0  0  0  0  0
  -18.9457  -20.7891   25.6211 C   0  0  0  0  0  0  0  0  0  0  0  0
  -21.4704  -28.6560   22.1116 C   0  0  0  0  0  0  0  0  0  0  0  0
  -22.1724  -28.1908   20.8450 C   0  0  0  0  0  0  0  0  0  1  0  0
  -30.9264  -27.0248   20.9778 C   0  0  1  0  0  0  0  0  0  0  0  0
  -32.2023  -30.1544   19.2611 C   0  0  2  0  0  0  0  0  0  0  0  0
  -31.7400  -26.3584   22.1231 C   0  0  0  0  0  0  0  0  0  0  0  0
  -23.2620  -16.7302   24.1270 N   0  0  0  0  0  0  0  0  0  0  0  0
  -23.0291  -17.9535   24.6323 N   0  0  0  0  0  0  0  0  0  0  0  0
  -29.0193  -25.9528   19.8213 N   0  0  0  0  0  0  0  0  0  0  0  0
  -19.6539  -18.5320   26.3361 N   0  0  0  0  0  0  0  0  0  0  0  0
  -23.6482  -20.2307   24.4283 N   0  0  0  0  0  0  0  0  0  0  0  0
  -26.1573  -18.1828   21.2808 N   0  0  0  0  0  0  0  0  0  0  0  0
  -28.7668  -22.5907   19.7805 N   0  0  0  0  0  0  0  0  0  0  0  0
  -31.6745  -28.0158   20.2118 N   0  0  0  0  0  0  0  0  0  0  0  0
  -31.4493  -31.1934   18.5030 N   0  3  0  0  0  0  0  0  0  0  0  0
  -25.6710  -20.2033   22.2502 O   0  0  0  0  0  0  0  0  0  0  0  0
  -27.2188  -23.9779   20.8301 O   0  0  0  0  0  0  0  0  0  0  0  0
  -17.9953  -19.6823   27.4875 O   0  0  0  0  0  0  0  0  0  0  0  0
  -31.2142  -25.3218   19.3519 O   0  0  0  0  0  0  0  0  0  0  0  0
  -30.2375  -29.7896   20.6190 O   0  0  0  0  0  0  0  0  0  0  0  0
  -26.1856  -12.7335   20.1235 O   0  0  0  0  0  0  0  0  0  0  0  0
  -23.5442  -28.5785   20.9088 O   0  0  0  0  0  0  0  0  0  1  0  0
  -31.6351  -12.5222   19.3096 F   0  0  0  0  0  0  0  0  0  0  0  0
  -27.5108  -14.7992   18.8510 F   0  0  0  0  0  0  0  0  0  0  0  0
  1  2  1  0  0  0  0
  1  5  2  0  0  0  0
  2  6  2  0  0  0  0
  3 10  2  0  0  0  0
  3 18  1  0  0  0  0
  4 11  1  0  0  0  0
  4 18  2  0  0  0  0
  5 20  1  0  0  0  0
  6 22  1  0  0  0  0
  7  9  2  0  0  0  0
  7 23  1  0  0  0  0
  8 12  2  0  0  0  0
  8 21  1  0  0  0  0
  9 25  1  0  0  0  0
 10 27  1  0  0  0  0
 11 27  2  0  0  0  0
 12 28  1  0  0  0  0
 13 14  2  0  0  0  0
 13 29  1  0  0  0  0
 14 30  1  0  0  0  0
 15 24  1  0  0  0  0
 15 28  2  0  0  0  0
 16 25  2  0  0  0  0
 16 26  1  0  0  0  0
 17 30  2  0  0  0  0
 17 31  1  0  0  0  0
 18 32  1  0  0  0  0
 19 32  1  0  0  0  0
 19 33  2  0  0  0  0
 19 34  1  0  0  0  0
 20 22  2  0  0  0  0
 20 39  1  0  0  0  0
 21 24  2  0  0  0  0
 21 40  1  0  0  0  0
 22 52  1  0  0  0  0
 23 26  2  0  0  0  0
 23 51  1  0  0  0  0
 24 41  1  0  0  0  0
 25 62  1  0  0  0  0
 26 56  1  0  0  0  0
 27 83  1  0  0  0  0
 28 84  1  0  0  0  0
 29 31  2  0  0  0  0
 29 83  1  0  0  0  0
 30 85  1  0  0  0  0
 31 86  1  0  0  0  0
 32 69  2  0  0  0  0
 33 70  1  0  0  0  0
 33 73  1  0  0  0  0
 34 74  1  0  0  0  0
 34 78  2  0  0  0  0
 35 53  1  0  0  0  0
 35 75  1  0  0  0  0
 35 79  2  0  0  0  0
 36 63  1  0  0  0  0
 36 72  1  0  0  0  0
 36 80  2  0  0  0  0
 37 66  1  0  0  0  0
 37 71  1  0  0  0  0
 37 81  2  0  0  0  0
 38 67  1  0  0  0  0
 38 76  1  0  0  0  0
 38 82  2  0  0  0  0
 39 42  1  0  0  0  0
 40 53  1  0  0  0  0
 41 71  1  0  0  0  0
 42 45  1  0  0  0  0
 43 47  1  0  0  0  0
 43 49  1  0  0  0  0
 44 46  1  0  0  0  0
 44 51  1  0  0  0  0
 45 52  1  0  0  0  0
 46 54  1  0  0  0  0
 47 55  1  0  0  0  0
 48 51  1  0  0  0  0
 48 54  1  0  0  0  0
 49 72  1  0  0  0  0
 50 55  1  0  0  0  0
 50 72  1  0  0  0  0
 52 75  1  0  0  0  0
 53 71  1  0  0  0  0
 54 64  1  0  0  0  0
 55 70  1  0  0  0  0
 57 67  1  0  0  0  0
 58 68  1  0  0  0  0
 59 68  1  0  0  0  0
 60 68  1  0  0  0  0
 61 77  1  0  0  0  0
 62 63  1  0  0  0  0
 64 65  1  0  0  0  0
 65 84  1  0  0  0  0
 66 68  1  0  0  0  0
 66 76  1  0  0  0  0
 67 77  1  0  0  0  0
 69 70  1  0  0  0  0
M  CHG  1  77   1
M  ISO  4  36 100  63 100  65 101  84 101
M  END
> <Batch ID>
0132

> <Smiles>
CNC(C)C(=O)NC(C(=O)N1Cc2cc([101O:1][101CH2:1]CC3CCC(c4ccc(C[100CH2:0][100C:0](=O)N5CCCC(n6nc(-c7ccc(Oc8ccc(F)cc8F)cc7)c(C(N)=O)c6N)C5)cc4C)C3)ccc2CC1C(=O)NC1CCCc2ccccc21)C(C)(C)C

> <Shape>
0.234

> <Color>
0.060

> <Negative vol penalty>
0.000

$$$$

  -OEChem-04052302283D

 86 94  0     1  0  0  0  0  0999 V2000
  -26.1933  -23.8150   13.7773 C   0  0  0  0  0  0  0  0  0  0  0  0
  -25.8830  -23.4347   15.0790 C   0  0  0  0  0  0  0  0  0  0  0  0
  -22.9206  -10.0470   20.1029 C   0  0  0  0  0  0  0  0  0  0  0  0
  -23.6541  -10.1950   22.4001 C   0  0  0  0  0  0  0  0  0  0  0  0
  -27.1741  -24.7793   13.5491 C   0  0  0  0  0  0  0  0  0  0  0  0
  -26.5541  -24.0176   16.1533 C   0  0  0  0  0  0  0  0  0  0  0  0
  -24.2438  -25.3035   21.6773 C   0  0  0  0  0  0  0  0  0  0  0  0
  -30.8323  -17.8523   23.9909 C   0  0  0  0  0  0  0  0  0  0  0  0
  -30.3372  -18.9059   24.7593 C   0  0  0  0  0  0  0  0  0  0  0  0
  -22.1220   -8.9507   20.4285 C   0  0  0  0  0  0  0  0  0  0  0  0
  -22.8555   -9.0987   22.7257 C   0  0  0  0  0  0  0  0  0  0  0  0
  -24.3013  -24.6317   22.8976 C   0  0  0  0  0  0  0  0  0  0  0  0
  -23.0006   -5.7342   22.4259 C   0  0  0  0  0  0  0  0  0  0  0  0
  -23.5605   -4.7402   23.2284 C   0  0  0  0  0  0  0  0  0  0  0  0
  -26.1695  -26.0068   23.5597 C   0  0  0  0  0  0  0  0  0  0  0  0
  -30.1014  -18.9750   21.9803 C   0  0  0  0  0  0  0  0  0  0  0  0
  -21.8496   -5.1194   24.8917 C   0  0  0  0  0  0  0  0  0  0  0  0
  -23.6867  -10.6691   21.0887 C   0  0  0  0  0  0  0  0  0  0  0  0
  -24.1448  -13.1599   20.7828 C   0  0  0  0  0  0  0  0  0  0  0  0
  -27.8508  -25.3814   14.6215 C   0  0  0  0  0  0  0  0  0  0  0  0
  -25.1572  -26.3263   21.3842 C   0  0  0  0  0  0  0  0  0  0  0  0
  -27.5459  -24.9899   15.9392 C   0  0  0  0  0  0  0  0  0  0  0  0
  -26.1198  -26.6917   22.3360 C   0  0  0  0  0  0  0  0  0  0  0  0
  -30.7145  -17.8869   22.6014 C   0  0  0  0  0  0  0  0  0  0  0  0
  -29.7241  -19.9940   24.1381 C   0  0  0  0  0  0  0  0  0  0  0  0
  -29.6062  -20.0286   22.7487 C   0  0  0  0  0  0  0  0  0  0  0  0
  -22.0895   -8.4766   21.7399 C   0  0  0  0  0  0  0  0  0  0  0  0
  -25.2661  -24.9813   23.8379 C   0  0  0  0  0  0  0  0  0  0  0  0
  -21.8653   -6.4209   22.8563 C   0  0  0  0  0  0  0  0  0  0  0  0
  -22.9850   -4.4328   24.4613 C   0  0  0  0  0  0  0  0  0  0  0  0
  -21.2898   -6.1135   24.0891 C   0  0  0  0  0  0  0  0  0  0  0  0
  -24.5122  -11.8013   20.7528 C   0  0  0  0  0  0  0  0  0  0  0  0
  -25.2741  -13.8299   20.3799 C   0  0  0  0  0  0  0  0  0  0  0  0
  -22.8946  -13.7625   21.1427 C   0  0  0  0  0  0  0  0  0  0  0  0
  -27.4025  -26.7640   19.1772 C   0  0  0  0  0  0  0  0  0  0  0  0
  -27.1226  -22.1825   25.9903 C   0  0  0  0  0  0  0  0  0  0  0  0
  -30.8129  -14.5546   20.6733 C   0  0  0  0  0  0  0  0  0  0  0  0
  -27.5886  -29.7150   20.5110 C   0  0  0  0  0  0  0  0  0  0  0  0
  -27.0738  -31.6988   23.2399 C   0  0  0  0  0  0  0  0  0  0  0  0
  -28.9366  -26.3848   14.3233 C   0  0  0  0  0  0  0  0  0  0  0  0
  -25.0649  -27.0593   20.0740 C   0  0  0  0  0  0  0  0  0  0  0  0
  -27.1105  -27.7964   22.0781 C   0  0  0  0  0  0  0  0  0  0  0  0
  -29.3379  -27.2256   15.5326 C   0  0  0  0  0  0  0  0  0  0  0  0
  -29.5726  -12.1288   18.3458 C   0  0  0  0  0  0  0  0  0  0  0  0
  -29.5350  -26.3386   16.7578 C   0  0  0  0  0  0  0  0  0  0  0  0
  -28.1246  -11.9167   18.7858 C   0  0  0  0  0  0  0  0  0  0  0  0
  -30.4878  -12.3811   19.5398 C   0  0  0  0  0  0  0  0  0  0  0  0
  -28.6044  -13.3049   20.8517 C   0  0  0  0  0  0  0  0  0  0  0  0
  -28.2344  -25.6173   17.1318 C   0  0  1  0  0  0  0  0  0  0  0  0
  -26.3720  -27.7374   19.6753 C   0  0  1  0  0  0  0  0  0  0  0  0
  -27.6410  -13.0772   19.6734 C   0  0  2  0  0  0  0  0  0  0  0  0
  -29.9690  -22.1277   21.4263 C   0  0  0  0  0  0  0  0  0  0  0  0
  -27.3583  -34.0599   24.0407 C   0  0  0  0  0  0  0  0  0  0  0  0
  -30.5841  -29.2389   20.8434 C   0  0  0  0  0  0  0  0  0  0  0  0
  -30.6380  -31.1508   22.4589 C   0  0  0  0  0  0  0  0  0  0  0  0
  -29.9716  -31.5427   20.0872 C   0  0  0  0  0  0  0  0  0  0  0  0
  -24.1655  -32.0216   23.6833 C   0  0  0  0  0  0  0  0  0  0  0  0
  -31.2435  -16.7600   21.7803 C   0  0  0  0  0  0  0  0  0  0  0  0
  -29.1959  -21.1197   24.9892 C   0  0  0  0  0  0  0  0  0  0  0  0
  -28.9534  -21.1830   22.0617 C   0  0  0  0  0  0  0  0  0  0  0  0
  -27.6776  -21.0488   25.1415 C   0  0  0  0  0  0  0  0  0  0  0  0
  -25.6084  -22.1982   26.1511 C   0  0  0  0  0  0  0  0  0  0  0  0
  -30.2204  -15.6449   21.5301 C   0  0  0  0  0  0  0  0  0  0  0  0
  -24.8991  -22.9648   25.0441 C   0  0  0  0  0  0  0  0  0  1  0  0
  -28.3833  -30.3312   21.6370 C   0  0  1  0  0  0  0  0  0  0  0  0
  -26.4178  -33.0599   23.3864 C   0  0  2  0  0  0  0  0  0  0  0  0
  -29.8770  -30.5437   21.2610 C   0  0  0  0  0  0  0  0  0  0  0  0
  -25.7760  -11.6174   20.3617 N   0  0  0  0  0  0  0  0  0  0  0  0
  -26.2126  -12.8693   20.1421 N   0  0  0  0  0  0  0  0  0  0  0  0
  -26.9838  -28.4790   20.7798 N   0  0  0  0  0  0  0  0  0  0  0  0
  -29.9821  -13.4757   20.3701 N   0  0  0  0  0  0  0  0  0  0  0  0
  -25.5460  -15.1412   20.2094 N   0  0  0  0  0  0  0  0  0  0  0  0
  -21.8385  -12.9279   21.5329 N   0  0  0  0  0  0  0  0  0  0  0  0
  -27.3356  -26.5198   17.8188 N   0  0  0  0  0  0  0  0  0  0  0  0
  -27.6813  -31.5543   22.0105 N   0  0  0  0  0  0  0  0  0  0  0  0
  -25.1882  -32.9550   24.2219 N   0  3  0  0  0  0  0  0  0  0  0  0
  -22.7142  -15.0032   21.1032 O   0  0  0  0  0  0  0  0  0  0  0  0
  -28.2003  -26.2721   19.9667 O   0  0  0  0  0  0  0  0  0  0  0  0
  -27.8487  -23.0281   26.5103 O   0  0  0  0  0  0  0  0  0  0  0  0
  -31.9786  -14.6617   20.2836 O   0  0  0  0  0  0  0  0  0  0  0  0
  -27.5016  -30.3120   19.4350 O   0  0  0  0  0  0  0  0  0  0  0  0
  -27.0529  -30.8501   24.1286 O   0  0  0  0  0  0  0  0  0  0  0  0
  -21.3102   -7.4070   22.0580 O   0  0  0  0  0  0  0  0  0  0  0  0
  -25.3248  -24.3268   25.0295 O   0  0  0  0  0  0  0  0  0  1  0  0
  -23.5218   -3.4771   25.2312 F   0  0  0  0  0  0  0  0  0  0  0  0
  -20.1983   -6.7690   24.5074 F   0  0  0  0  0  0  0  0  0  0  0  0
  1  2  1  0  0  0  0
  1  5  2  0  0  0  0
  2  6  2  0  0  0  0
  3 10  2  0  0  0  0
  3 18  1  0  0  0  0
  4 11  1  0  0  0  0
  4 18  2  0  0  0  0
  5 20  1  0  0  0  0
  6 22  1  0  0  0  0
  7 12  2  0  0  0  0
  7 21  1  0  0  0  0
  8  9  2  0  0  0  0
  8 24  1  0  0  0  0
  9 25  1  0  0  0  0
 10 27  1  0  0  0  0
 11 27  2  0  0  0  0
 12 28  1  0  0  0  0
 13 14  2  0  0  0  0
 13 29  1  0  0  0  0
 14 30  1  0  0  0  0
 15 23  1  0  0  0  0
 15 28  2  0  0  0  0
 16 24  2  0  0  0  0
 16 26  1  0  0  0  0
 17 30  2  0  0  0  0
 17 31  1  0  0  0  0
 18 32  1  0  0  0  0
 19 32  1  0  0  0  0
 19 33  2  0  0  0  0
 19 34  1  0  0  0  0
 20 22  2  0  0  0  0
 20 40  1  0  0  0  0
 21 23  2  0  0  0  0
 21 41  1  0  0  0  0
 22 49  1  0  0  0  0
 23 42  1  0  0  0  0
 24 58  1  0  0  0  0
 25 26  2  0  0  0  0
 25 59  1  0  0  0  0
 26 60  1  0  0  0  0
 27 83  1  0  0  0  0
 28 84  1  0  0  0  0
 29 31  2  0  0  0  0
 29 83  1  0  0  0  0
 30 85  1  0  0  0  0
 31 86  1  0  0  0  0
 32 68  2  0  0  0  0
 33 69  1  0  0  0  0
 33 72  1  0  0  0  0
 34 73  1  0  0  0  0
 34 77  2  0  0  0  0
 35 50  1  0  0  0  0
 35 74  1  0  0  0  0
 35 78  2  0  0  0  0
 36 61  1  0  0  0  0
 36 62  1  0  0  0  0
 36 79  2  0  0  0  0
 37 63  1  0  0  0  0
 37 71  1  0  0  0  0
 37 80  2  0  0  0  0
 38 65  1  0  0  0  0
 38 70  1  0  0  0  0
 38 81  2  0  0  0  0
 39 66  1  0  0  0  0
 39 75  1  0  0  0  0
 39 82  2  0  0  0  0
 40 43  1  0  0  0  0
 41 50  1  0  0  0  0
 42 70  1  0  0  0  0
 43 45  1  0  0  0  0
 44 46  1  0  0  0  0
 44 47  1  0  0  0  0
 45 49  1  0  0  0  0
 46 51  1  0  0  0  0
 47 71  1  0  0  0  0
 48 51  1  0  0  0  0
 48 71  1  0  0  0  0
 49 74  1  0  0  0  0
 50 70  1  0  0  0  0
 51 69  1  0  0  0  0
 52 60  1  0  0  0  0
 53 66  1  0  0  0  0
 54 67  1  0  0  0  0
 55 67  1  0  0  0  0
 56 67  1  0  0  0  0
 57 76  1  0  0  0  0
 58 63  1  0  0  0  0
 59 61  1  0  0  0  0
 62 64  1  0  0  0  0
 64 84  1  0  0  0  0
 65 67  1  0  0  0  0
 65 75  1  0  0  0  0
 66 76  1  0  0  0  0
 68 69  1  0  0  0  0
M  CHG  1  76   1
M  ISO  4  37 100  63 100  64 101  84 101
M  END
> <Batch ID>
0132

> <Smiles>
CCc1cc(C[100CH2:0][100C:0](=O)N2CCCC(n3nc(-c4ccc(Oc5ccc(F)cc5F)cc4)c(C(N)=O)c3N)C2)ccc1CCC(=O)C[101CH2:1][101O:1]c1ccc2c(c1)CN(C(=O)C(NC(=O)C(C)NC)C(C)(C)C)C(C(=O)NC1CCCc3ccccc31)C2

> <Shape>
0.277

> <Color>
0.226

> <Negative vol penalty>
0.000

$$$$

  -OEChem-04052302283D

 84 92  0     1  0  0  0  0  0999 V2000
  -18.3300  -31.3851   27.1285 C   0  0  0  0  0  0  0  0  0  0  0  0
  -19.3600  -30.5002   27.4308 C   0  0  0  0  0  0  0  0  0  0  0  0
  -23.1945   -9.7141   19.9557 C   0  0  0  0  0  0  0  0  0  0  0  0
  -23.8608   -9.8759   22.2723 C   0  0  0  0  0  0  0  0  0  0  0  0
  -18.1691  -31.8457   25.8224 C   0  0  0  0  0  0  0  0  0  0  0  0
  -20.2292  -30.0746   26.4269 C   0  0  0  0  0  0  0  0  0  0  0  0
  -26.1993  -28.8384   27.0061 C   0  0  0  0  0  0  0  0  0  0  0  0
  -29.4512  -19.2324   22.1960 C   0  0  0  0  0  0  0  0  0  0  0  0
  -22.4969   -8.5397   20.2383 C   0  0  0  0  0  0  0  0  0  0  0  0
  -23.1631   -8.7015   22.5550 C   0  0  0  0  0  0  0  0  0  0  0  0
  -26.8985  -27.6426   27.1642 C   0  0  0  0  0  0  0  0  0  0  0  0
  -28.8406  -20.2158   22.9744 C   0  0  0  0  0  0  0  0  0  0  0  0
  -19.9551   -7.7765   23.0775 C   0  0  0  0  0  0  0  0  0  0  0  0
  -19.1546   -7.7589   24.2196 C   0  0  0  0  0  0  0  0  0  0  0  0
  -27.3000  -27.5701   24.7866 C   0  0  0  0  0  0  0  0  0  0  0  0
  -30.2428  -18.1382   24.1993 C   0  0  0  0  0  0  0  0  0  0  0  0
  -20.4563   -5.9256   25.1037 C   0  0  0  0  0  0  0  0  0  0  0  0
  -23.8765  -10.3821   20.9727 C   0  0  0  0  0  0  0  0  0  0  0  0
  -24.1024  -12.9117   20.7319 C   0  0  0  0  0  0  0  0  0  0  0  0
  -19.0426  -31.4331   24.8039 C   0  0  0  0  0  0  0  0  0  0  0  0
  -26.0355  -29.4043   25.7336 C   0  0  0  0  0  0  0  0  0  0  0  0
  -20.0790  -30.5291   25.1057 C   0  0  0  0  0  0  0  0  0  0  0  0
  -26.6004  -28.7744   24.6154 C   0  0  0  0  0  0  0  0  0  0  0  0
  -30.1522  -18.1936   22.8085 C   0  0  0  0  0  0  0  0  0  0  0  0
  -29.6322  -19.1216   24.9777 C   0  0  0  0  0  0  0  0  0  0  0  0
  -22.4812   -8.0335   21.5379 C   0  0  0  0  0  0  0  0  0  0  0  0
  -27.4465  -27.0068   26.0540 C   0  0  0  0  0  0  0  0  0  0  0  0
  -28.9312  -20.1604   24.3652 C   0  0  0  0  0  0  0  0  0  0  0  0
  -21.0061   -6.8685   22.9483 C   0  0  0  0  0  0  0  0  0  0  0  0
  -19.4052   -6.8335   25.2327 C   0  0  0  0  0  0  0  0  0  0  0  0
  -21.2567   -5.9431   23.9615 C   0  0  0  0  0  0  0  0  0  0  0  0
  -24.5978  -11.5949   20.6812 C   0  0  0  0  0  0  0  0  0  0  0  0
  -25.1713  -13.6948   20.3707 C   0  0  0  0  0  0  0  0  0  0  0  0
  -22.7930  -13.3846   21.0750 C   0  0  0  0  0  0  0  0  0  0  0  0
  -23.5401  -30.0912   23.8884 C   0  0  0  0  0  0  0  0  0  0  0  0
  -28.2206  -23.4950   25.6077 C   0  0  0  0  0  0  0  0  0  0  0  0
  -30.6085  -14.9325   20.8113 C   0  0  0  0  0  0  0  0  0  0  0  0
  -25.8026  -31.4530   22.0044 C   0  0  0  0  0  0  0  0  0  0  0  0
  -29.0761  -31.5954   21.0502 C   0  0  0  0  0  0  0  0  0  0  0  0
  -18.8001  -31.9212   23.3977 C   0  0  0  0  0  0  0  0  0  0  0  0
  -25.3014  -30.7085   25.5833 C   0  0  0  0  0  0  0  0  0  0  0  0
  -26.4702  -29.3513   23.2302 C   0  0  0  0  0  0  0  0  0  0  0  0
  -19.9923  -31.7143   22.4670 C   0  0  0  0  0  0  0  0  0  0  0  0
  -29.6549  -12.4567   18.4028 C   0  0  0  0  0  0  0  0  0  0  0  0
  -20.5515  -30.3036   22.6214 C   0  0  0  0  0  0  0  0  0  0  0  0
  -28.2245  -12.0982   18.8036 C   0  0  0  0  0  0  0  0  0  0  0  0
  -30.5160  -12.7658   19.6235 C   0  0  0  0  0  0  0  0  0  0  0  0
  -28.5254  -13.4758   20.9100 C   0  0  0  0  0  0  0  0  0  0  0  0
  -21.0573  -30.0638   24.0490 C   0  0  1  0  0  0  0  0  0  0  0  0
  -24.7547  -30.9277   24.1760 C   0  0  1  0  0  0  0  0  0  0  0  0
  -27.6137  -13.1863   19.7044 C   0  0  2  0  0  0  0  0  0  0  0  0
  -29.7381  -19.0462   26.4652 C   0  0  0  0  0  0  0  0  0  0  0  0
  -30.6151  -32.7810   19.4618 C   0  0  0  0  0  0  0  0  0  0  0  0
  -24.7225  -29.7662   19.7027 C   0  0  0  0  0  0  0  0  0  0  0  0
  -26.8316  -30.2563   18.4458 C   0  0  0  0  0  0  0  0  0  0  0  0
  -25.3029  -32.1199   19.0883 C   0  0  0  0  0  0  0  0  0  0  0  0
  -30.6961  -32.7043   23.2649 C   0  0  0  0  0  0  0  0  0  0  0  0
  -30.8036  -17.1418   21.9759 C   0  0  0  0  0  0  0  0  0  0  0  0
  -28.0964  -24.9215   25.1131 C   0  0  0  0  0  0  0  0  0  1  0  0
  -28.2174  -22.4224   24.5379 C   0  0  0  0  0  0  0  0  0  0  0  0
  -29.8966  -15.9412   21.6773 C   0  0  0  0  0  0  0  0  0  0  0  0
  -26.6805  -30.9756   20.8729 C   0  0  1  0  0  0  0  0  0  0  0  0
  -30.0201  -32.7692   20.8612 C   0  0  2  0  0  0  0  0  0  0  0  0
  -25.8853  -30.7674   19.5532 C   0  0  0  0  0  0  0  0  0  0  0  0
  -25.8815  -11.5407   20.3163 N   0  0  0  0  0  0  0  0  0  0  0  0
  -26.2017  -12.8331   20.1344 N   0  0  0  0  0  0  0  0  0  0  0  0
  -25.7381  -30.6250   23.1341 N   0  0  0  0  0  0  0  0  0  0  0  0
  -29.8908  -13.7875   20.4651 N   0  0  0  0  0  0  0  0  0  0  0  0
  -25.3209  -15.0296   20.2352 N   0  0  0  0  0  0  0  0  0  0  0  0
  -21.8128  -12.4448   21.4218 N   0  0  0  0  0  0  0  0  0  0  0  0
  -22.3468  -30.6923   24.2406 N   0  0  0  0  0  0  0  0  0  0  0  0
  -27.7709  -31.9391   20.7679 N   0  0  0  0  0  0  0  0  0  0  0  0
  -31.1364  -32.6998   21.8461 N   0  3  0  0  0  0  0  0  0  0  0  0
  -22.4964  -14.6033   21.0582 O   0  0  0  0  0  0  0  0  0  0  0  0
  -23.6755  -28.9831   23.3829 O   0  0  0  0  0  0  0  0  0  0  0  0
  -28.3173  -23.2245   26.8038 O   0  0  0  0  0  0  0  0  0  0  0  0
  -31.7669  -15.1587   20.4519 O   0  0  0  0  0  0  0  0  0  0  0  0
  -25.2019  -32.5246   21.8931 O   0  0  0  0  0  0  0  0  0  0  0  0
  -29.4588  -30.4838   21.4085 O   0  0  0  0  0  0  0  0  0  0  0  0
  -21.8004   -6.8877   21.8141 O   0  0  0  0  0  0  0  0  0  0  0  0
  -28.1290  -25.8392   26.2054 O   0  0  0  0  0  0  0  0  0  1  0  0
  -28.3247  -21.1389   25.1167 O   0  0  0  0  0  0  0  0  0  0  0  0
  -18.6374   -6.8178   26.3302 F   0  0  0  0  0  0  0  0  0  0  0  0
  -22.2657   -5.0691   23.8436 F   0  0  0  0  0  0  0  0  0  0  0  0
  1  2  1  0  0  0  0
  1  5  2  0  0  0  0
  2  6  2  0  0  0  0
  3  9  2  0  0  0  0
  3 18  1  0  0  0  0
  4 10  1  0  0  0  0
  4 18  2  0  0  0  0
  5 20  1  0  0  0  0
  6 22  1  0  0  0  0
  7 11  2  0  0  0  0
  7 21  1  0  0  0  0
  8 12  2  0  0  0  0
  8 24  1  0  0  0  0
  9 26  1  0  0  0  0
 10 26  2  0  0  0  0
 11 27  1  0  0  0  0
 12 28  1  0  0  0  0
 13 14  2  0  0  0  0
 13 29  1  0  0  0  0
 14 30  1  0  0  0  0
 15 23  1  0  0  0  0
 15 27  2  0  0  0  0
 16 24  2  0  0  0  0
 16 25  1  0  0  0  0
 17 30  2  0  0  0  0
 17 31  1  0  0  0  0
 18 32  1  0  0  0  0
 19 32  1  0  0  0  0
 19 33  2  0  0  0  0
 19 34  1  0  0  0  0
 20 22  2  0  0  0  0
 20 40  1  0  0  0  0
 21 23  2  0  0  0  0
 21 41  1  0  0  0  0
 22 49  1  0  0  0  0
 23 42  1  0  0  0  0
 24 58  1  0  0  0  0
 25 28  2  0  0  0  0
 25 52  1  0  0  0  0
 26 80  1  0  0  0  0
 27 81  1  0  0  0  0
 28 82  1  0  0  0  0
 29 31  2  0  0  0  0
 29 80  1  0  0  0  0
 30 83  1  0  0  0  0
 31 84  1  0  0  0  0
 32 65  2  0  0  0  0
 33 66  1  0  0  0  0
 33 69  1  0  0  0  0
 34 70  1  0  0  0  0
 34 74  2  0  0  0  0
 35 50  1  0  0  0  0
 35 71  1  0  0  0  0
 35 75  2  0  0  0  0
 36 59  1  0  0  0  0
 36 60  1  0  0  0  0
 36 76  2  0  0  0  0
 37 61  1  0  0  0  0
 37 68  1  0  0  0  0
 37 77  2  0  0  0  0
 38 62  1  0  0  0  0
 38 67  1  0  0  0  0
 38 78  2  0  0  0  0
 39 63  1  0  0  0  0
 39 72  1  0  0  0  0
 39 79  2  0  0  0  0
 40 43  1  0  0  0  0
 41 50  1  0  0  0  0
 42 67  1  0  0  0  0
 43 45  1  0  0  0  0
 44 46  1  0  0  0  0
 44 47  1  0  0  0  0
 45 49  1  0  0  0  0
 46 51  1  0  0  0  0
 47 68  1  0  0  0  0
 48 51  1  0  0  0  0
 48 68  1  0  0  0  0
 49 71  1  0  0  0  0
 50 67  1  0  0  0  0
 51 66  1  0  0  0  0
 53 63  1  0  0  0  0
 54 64  1  0  0  0  0
 55 64  1  0  0  0  0
 56 64  1  0  0  0  0
 57 73  1  0  0  0  0
 58 61  1  0  0  0  0
 59 81  1  0  0  0  0
 60 82  1  0  0  0  0
 62 64  1  0  0  0  0
 62 72  1  0  0  0  0
 63 73  1  0  0  0  0
 65 66  1  0  0  0  0
M  CHG  1  73   1
M  ISO  4  37 100  59 101  61 100  81 101
M  END
> <Batch ID>
0132

> <Smiles>
CNC(C)C(=O)NC(C(=O)N1Cc2cc([101O:1][101CH2:1]C(=O)COc3ccc(C[100CH2:0][100C:0](=O)N4CCCC(n5nc(-c6ccc(Oc7ccc(F)cc7F)cc6)c(C(N)=O)c5N)C4)cc3C)ccc2CC1C(=O)NC1CCCc2ccccc21)C(C)(C)C

> <Shape>
0.263

> <Color>
0.210

> <Negative vol penalty>
0.000

$$$$

  -OEChem-04052302283D

 86 94  0     1  0  0  0  0  0999 V2000
  -28.2910  -12.4633   17.9182 C   0  0  0  0  0  0  0  0  0  0  0  0
  -27.5720  -13.5635   17.4622 C   0  0  0  0  0  0  0  0  0  0  0  0
  -27.6186  -24.4080   18.6861 C   0  0  0  0  0  0  0  0  0  0  0  0
  -25.9655  -23.4086   20.1371 C   0  0  0  0  0  0  0  0  0  0  0  0
  -27.8816  -11.7931   19.0701 C   0  0  0  0  0  0  0  0  0  0  0  0
  -26.4423  -13.9935   18.1574 C   0  0  0  0  0  0  0  0  0  0  0  0
  -24.5211  -19.7673   18.8488 C   0  0  0  0  0  0  0  0  0  0  0  0
  -19.1316  -26.5314   22.9700 C   0  0  0  0  0  0  0  0  0  0  0  0
  -19.0810  -28.1499   21.1770 C   0  0  0  0  0  0  0  0  0  0  0  0
  -19.6621  -27.4963   23.8261 C   0  0  0  0  0  0  0  0  0  0  0  0
  -19.6114  -29.1149   22.0331 C   0  0  0  0  0  0  0  0  0  0  0  0
  -28.4506  -23.3043   18.8738 C   0  0  0  0  0  0  0  0  0  0  0  0
  -26.7974  -22.3049   20.3248 C   0  0  0  0  0  0  0  0  0  0  0  0
  -23.5515  -20.5189   18.1863 C   0  0  0  0  0  0  0  0  0  0  0  0
  -29.5298  -21.5278   22.1581 C   0  0  0  0  0  0  0  0  0  0  0  0
  -29.6865  -21.0480   23.4584 C   0  0  0  0  0  0  0  0  0  0  0  0
  -21.9578  -19.9739   19.9133 C   0  0  0  0  0  0  0  0  0  0  0  0
  -28.7953  -18.9084   22.7764 C   0  0  0  0  0  0  0  0  0  0  0  0
  -26.3761  -24.4602   19.3178 C   0  0  0  0  0  0  0  0  0  0  0  0
  -24.5383  -25.7682   18.1263 C   0  0  0  0  0  0  0  0  0  0  0  0
  -26.7519  -12.2210   19.7852 C   0  0  0  0  0  0  0  0  0  0  0  0
  -24.2127  -19.1033   20.0448 C   0  0  0  0  0  0  0  0  0  0  0  0
  -26.0165  -13.3275   19.3193 C   0  0  0  0  0  0  0  0  0  0  0  0
  -22.9260  -19.2167   20.5903 C   0  0  0  0  0  0  0  0  0  0  0  0
  -18.8411  -26.8581   21.6454 C   0  0  0  0  0  0  0  0  0  0  0  0
  -19.9020  -28.7881   23.3577 C   0  0  0  0  0  0  0  0  0  0  0  0
  -28.0400  -22.2527   19.6931 C   0  0  0  0  0  0  0  0  0  0  0  0
  -22.2688  -20.6199   18.7171 C   0  0  0  0  0  0  0  0  0  0  0  0
  -29.0057  -20.6979   21.1669 C   0  0  0  0  0  0  0  0  0  0  0  0
  -29.3193  -19.7383   23.7676 C   0  0  0  0  0  0  0  0  0  0  0  0
  -28.6385  -19.3882   21.4761 C   0  0  0  0  0  0  0  0  0  0  0  0
  -25.5164  -25.6003   19.1248 C   0  0  0  0  0  0  0  0  0  0  0  0
  -24.0043  -27.0091   18.3740 C   0  0  0  0  0  0  0  0  0  0  0  0
  -24.1474  -24.8816   17.0695 C   0  0  0  0  0  0  0  0  0  0  0  0
  -24.1684  -16.0646   20.9764 C   0  0  0  0  0  0  0  0  0  0  0  0
  -19.8390  -23.2613   18.2477 C   0  0  0  0  0  0  0  0  0  0  0  0
  -23.5509  -17.3702   23.8809 C   0  0  0  0  0  0  0  0  0  0  0  0
  -22.3465  -20.0135   25.6723 C   0  0  0  0  0  0  0  0  0  0  0  0
  -23.6092  -30.3657   23.3165 C   0  0  0  0  0  0  0  0  0  0  0  0
  -26.3205  -11.4358   20.9985 C   0  0  0  0  0  0  0  0  0  0  0  0
  -25.2773  -18.3184   20.7610 C   0  0  0  0  0  0  0  0  0  0  0  0
  -22.5498  -18.5397   21.8821 C   0  0  0  0  0  0  0  0  0  0  0  0
  -25.3296  -12.1834   21.8871 C   0  0  0  0  0  0  0  0  0  0  0  0
  -25.1373  -31.2706   20.2306 C   0  0  0  0  0  0  0  0  0  0  0  0
  -24.2255  -12.8127   21.0435 C   0  0  0  0  0  0  0  0  0  0  0  0
  -25.3195  -29.9351   19.5072 C   0  0  0  0  0  0  0  0  0  0  0  0
  -25.3558  -31.1316   21.7356 C   0  0  0  0  0  0  0  0  0  0  0  0
  -24.7263  -28.7500   21.6618 C   0  0  0  0  0  0  0  0  0  0  0  0
  -24.8001  -13.8393   20.0599 C   0  0  1  0  0  0  0  0  0  0  0  0
  -24.7086  -17.2628   21.7043 C   0  0  1  0  0  0  0  0  0  0  0  0
  -24.4611  -28.8283   20.1486 C   0  0  2  0  0  0  0  0  0  0  0  0
  -19.5185  -30.1277   25.4511 C   0  0  0  0  0  0  0  0  0  0  0  0
  -21.8097  -21.4095   27.6873 C   0  0  0  0  0  0  0  0  0  0  0  0
  -21.1063  -15.5511   24.0397 C   0  0  0  0  0  0  0  0  0  0  0  0
  -20.2421  -16.9910   25.8966 C   0  0  0  0  0  0  0  0  0  0  0  0
  -22.3929  -15.7583   26.1742 C   0  0  0  0  0  0  0  0  0  0  0  0
  -24.9907  -21.3409   25.6011 C   0  0  0  0  0  0  0  0  0  0  0  0
  -18.2678  -25.8160   20.7196 C   0  0  0  0  0  0  0  0  0  0  0  0
  -18.7737  -24.0175   19.0239 C   0  0  0  0  0  0  0  0  0  0  0  0
  -20.3157  -21.9673   18.8777 C   0  0  0  0  0  0  0  0  0  1  0  0
  -19.3665  -25.0417   19.9891 C   0  0  0  0  0  0  0  0  0  0  0  0
  -21.8657  -29.4520   24.8279 C   0  0  0  0  0  0  0  0  0  0  0  0
  -20.4676  -29.8198   24.2743 C   0  0  1  0  0  0  0  0  0  0  0  0
  -22.3021  -17.7610   24.6338 C   0  0  1  0  0  0  0  0  0  0  0  0
  -22.9134  -20.7653   26.8630 C   0  0  2  0  0  0  0  0  0  0  0  0
  -21.5171  -16.5266   25.1607 C   0  0  0  0  0  0  0  0  0  0  0  0
  -25.6010  -26.6507   19.9455 N   0  0  0  0  0  0  0  0  0  0  0  0
  -24.6693  -27.4905   19.4631 N   0  0  0  0  0  0  0  0  0  0  0  0
  -23.6237  -17.7787   22.5417 N   0  0  0  0  0  0  0  0  0  0  0  0
  -24.5114  -30.0667   22.2822 N   0  0  0  0  0  0  0  0  0  0  0  0
  -23.0355  -27.7246   17.7641 N   0  0  0  0  0  0  0  0  0  0  0  0
  -24.7988  -23.6455   16.9591 N   0  0  0  0  0  0  0  0  0  0  0  0
  -25.1069  -15.0775   20.7434 N   0  0  0  0  0  0  0  0  0  0  0  0
  -22.7275  -18.6883   25.6766 N   0  0  0  0  0  0  0  0  0  0  0  0
  -22.8424  -29.3005   23.7725 N   0  0  0  0  0  0  0  0  0  0  0  0
  -23.8434  -21.8359   26.4046 N   0  3  0  0  0  0  0  0  0  0  0  0
  -23.2585  -25.1836   16.2376 O   0  0  0  0  0  0  0  0  0  0  0  0
  -22.9871  -16.0369   20.6515 O   0  0  0  0  0  0  0  0  0  0  0  0
  -20.2920  -23.6666   17.1783 O   0  0  0  0  0  0  0  0  0  0  0  0
  -24.4325  -16.7323   24.4619 O   0  0  0  0  0  0  0  0  0  0  0  0
  -21.6337  -20.5474   24.8254 O   0  0  0  0  0  0  0  0  0  0  0  0
  -23.4918  -31.4992   23.7943 O   0  0  0  0  0  0  0  0  0  0  0  0
  -28.8515  -21.1755   19.8763 O   0  0  0  0  0  0  0  0  0  0  0  0
  -21.3204  -21.3524   18.0722 O   0  0  0  0  0  0  0  0  0  1  0  0
  -29.4713  -19.2772   25.0160 F   0  0  0  0  0  0  0  0  0  0  0  0
  -28.1356  -18.5859   20.5278 F   0  0  0  0  0  0  0  0  0  0  0  0
  1  2  1  0  0  0  0
  1  5  2  0  0  0  0
  2  6  2  0  0  0  0
  3 12  2  0  0  0  0
  3 19  1  0  0  0  0
  4 13  1  0  0  0  0
  4 19  2  0  0  0  0
  5 21  1  0  0  0  0
  6 23  1  0  0  0  0
  7 14  2  0  0  0  0
  7 22  1  0  0  0  0
  8 10  2  0  0  0  0
  8 25  1  0  0  0  0
  9 11  1  0  0  0  0
  9 25  2  0  0  0  0
 10 26  1  0  0  0  0
 11 26  2  0  0  0  0
 12 27  1  0  0  0  0
 13 27  2  0  0  0  0
 14 28  1  0  0  0  0
 15 16  2  0  0  0  0
 15 29  1  0  0  0  0
 16 30  1  0  0  0  0
 17 24  1  0  0  0  0
 17 28  2  0  0  0  0
 18 30  2  0  0  0  0
 18 31  1  0  0  0  0
 19 32  1  0  0  0  0
 20 32  1  0  0  0  0
 20 33  2  0  0  0  0
 20 34  1  0  0  0  0
 21 23  2  0  0  0  0
 21 40  1  0  0  0  0
 22 24  2  0  0  0  0
 22 41  1  0  0  0  0
 23 49  1  0  0  0  0
 24 42  1  0  0  0  0
 25 58  1  0  0  0  0
 26 63  1  0  0  0  0
 27 83  1  0  0  0  0
 28 84  1  0  0  0  0
 29 31  2  0  0  0  0
 29 83  1  0  0  0  0
 30 85  1  0  0  0  0
 31 86  1  0  0  0  0
 32 67  2  0  0  0  0
 33 68  1  0  0  0  0
 33 71  1  0  0  0  0
 34 72  1  0  0  0  0
 34 77  2  0  0  0  0
 35 50  1  0  0  0  0
 35 73  1  0  0  0  0
 35 78  2  0  0  0  0
 36 59  1  0  0  0  0
 36 60  1  0  0  0  0
 36 79  2  0  0  0  0
 37 64  1  0  0  0  0
 37 69  1  0  0  0  0
 37 80  2  0  0  0  0
 38 65  1  0  0  0  0
 38 74  1  0  0  0  0
 38 81  2  0  0  0  0
 39 70  1  0  0  0  0
 39 75  1  0  0  0  0
 39 82  2  0  0  0  0
 40 43  1  0  0  0  0
 41 50  1  0  0  0  0
 42 69  1  0  0  0  0
 43 45  1  0  0  0  0
 44 46  1  0  0  0  0
 44 47  1  0  0  0  0
 45 49  1  0  0  0  0
 46 51  1  0  0  0  0
 47 70  1  0  0  0  0
 48 51  1  0  0  0  0
 48 70  1  0  0  0  0
 49 73  1  0  0  0  0
 50 69  1  0  0  0  0
 51 68  1  0  0  0  0
 52 63  1  0  0  0  0
 53 65  1  0  0  0  0
 54 66  1  0  0  0  0
 55 66  1  0  0  0  0
 56 66  1  0  0  0  0
 57 76  1  0  0  0  0
 58 61  1  0  0  0  0
 59 61  1  0  0  0  0
 60 84  1  0  0  0  0
 62 63  1  0  0  0  0
 62 75  1  0  0  0  0
 64 66  1  0  0  0  0
 64 74  1  0  0  0  0
 65 76  1  0  0  0  0
 67 68  1  0  0  0  0
M  CHG  1  76   1
M  ISO  4  39 100  60 101  75 100  84 101
M  END
> <Batch ID>
0132

> <Smiles>
CNC(C)C(=O)NC(C(=O)N1Cc2cc([101O:1][101CH2:1]C(=O)CCCc3ccc(C(C)C[100NH:0][100C:0](=O)N4CCCC(n5nc(-c6ccc(Oc7ccc(F)cc7F)cc6)c(C(N)=O)c5N)C4)cc3)ccc2CC1C(=O)NC1CCCc2ccccc21)C(C)(C)C

> <Shape>
0.191

> <Color>
0.095

> <Negative vol penalty>
0.000

$$$$

  -OEChem-04052302283D

 85 93  0     1  0  0  0  0  0999 V2000
  -30.3806  -23.2604   18.1233 C   0  0  0  0  0  0  0  0  0  0  0  0
  -29.2314  -22.9799   18.8537 C   0  0  0  0  0  0  0  0  0  0  0  0
  -24.3156  -12.4205   20.2643 C   0  0  0  0  0  0  0  0  0  0  0  0
  -24.6983  -13.2212   22.5114 C   0  0  0  0  0  0  0  0  0  0  0  0
  -30.8553  -24.5685   18.0532 C   0  0  0  0  0  0  0  0  0  0  0  0
  -28.5498  -24.0089   19.5044 C   0  0  0  0  0  0  0  0  0  0  0  0
  -24.2377  -22.8702   21.5811 C   0  0  0  0  0  0  0  0  0  0  0  0
  -24.3831  -11.1046   20.7217 C   0  0  0  0  0  0  0  0  0  0  0  0
  -24.7657  -11.9052   22.9689 C   0  0  0  0  0  0  0  0  0  0  0  0
  -24.1388  -22.1001   22.7391 C   0  0  0  0  0  0  0  0  0  0  0  0
  -24.0950   -7.5370   21.3578 C   0  0  0  0  0  0  0  0  0  0  0  0
  -23.1278   -6.6415   20.9016 C   0  0  0  0  0  0  0  0  0  0  0  0
  -23.6978  -24.0954   24.0211 C   0  0  0  0  0  0  0  0  0  0  0  0
  -30.4357  -19.9475   26.1306 C   0  0  0  0  0  0  0  0  0  0  0  0
  -28.5468  -21.1038   24.4343 C   0  0  0  0  0  0  0  0  0  0  0  0
  -21.3952   -8.0207   21.8676 C   0  0  0  0  0  0  0  0  0  0  0  0
  -24.4733  -13.4789   21.1592 C   0  0  0  0  0  0  0  0  0  0  0  0
  -23.2569  -15.6489   20.5941 C   0  0  0  0  0  0  0  0  0  0  0  0
  -30.1856  -25.6115   18.7140 C   0  0  0  0  0  0  0  0  0  0  0  0
  -24.0779  -24.2623   21.6363 C   0  0  0  0  0  0  0  0  0  0  0  0
  -28.9996  -25.3394   19.4259 C   0  0  0  0  0  0  0  0  0  0  0  0
  -23.7926  -24.8806   22.8620 C   0  0  0  0  0  0  0  0  0  0  0  0
  -30.6142  -19.8938   24.7483 C   0  0  0  0  0  0  0  0  0  0  0  0
  -29.3127  -20.5793   26.6648 C   0  0  0  0  0  0  0  0  0  0  0  0
  -29.6698  -20.4719   23.9001 C   0  0  0  0  0  0  0  0  0  0  0  0
  -28.3682  -21.1575   25.8166 C   0  0  0  0  0  0  0  0  0  0  0  0
  -24.6081  -10.8469   22.0739 C   0  0  0  0  0  0  0  0  0  0  0  0
  -23.8717  -22.7130   23.9598 C   0  0  0  0  0  0  0  0  0  0  0  0
  -23.7123   -8.6743   22.0690 C   0  0  0  0  0  0  0  0  0  0  0  0
  -21.7779   -6.8833   21.1564 C   0  0  0  0  0  0  0  0  0  0  0  0
  -22.3625   -8.9162   22.3239 C   0  0  0  0  0  0  0  0  0  0  0  0
  -24.4042  -14.8385   20.6872 C   0  0  0  0  0  0  0  0  0  0  0  0
  -23.7183  -16.8410   20.0917 C   0  0  0  0  0  0  0  0  0  0  0  0
  -21.8957  -15.3507   20.9317 C   0  0  0  0  0  0  0  0  0  0  0  0
  -25.9332  -26.7606   20.9880 C   0  0  0  0  0  0  0  0  0  0  0  0
  -29.1427  -19.4232   20.2311 C   0  0  0  0  0  0  0  0  0  0  0  0
  -23.2173  -28.4352   21.5726 C   0  0  0  0  0  0  0  0  0  0  0  0
  -20.1690  -28.5699   23.1013 C   0  0  0  0  0  0  0  0  0  0  0  0
  -30.7388  -27.0100   18.5983 C   0  0  0  0  0  0  0  0  0  0  0  0
  -24.1611  -25.0758   20.3739 C   0  0  0  0  0  0  0  0  0  0  0  0
  -23.5925  -26.3694   22.9716 C   0  0  0  0  0  0  0  0  0  0  0  0
  -30.2082  -27.9503   19.6756 C   0  0  0  0  0  0  0  0  0  0  0  0
  -27.1674  -18.6686   17.3382 C   0  0  0  0  0  0  0  0  0  0  0  0
  -28.6921  -27.8496   19.7526 C   0  0  0  0  0  0  0  0  0  0  0  0
  -26.1487  -17.6531   17.8541 C   0  0  0  0  0  0  0  0  0  0  0  0
  -28.5199  -18.5001   18.0233 C   0  0  0  0  0  0  0  0  0  0  0  0
  -27.4387  -17.5447   20.0333 C   0  0  0  0  0  0  0  0  0  0  0  0
  -28.2589  -26.4377   20.1670 C   0  0  1  0  0  0  0  0  0  0  0  0
  -24.4904  -26.5434   20.6293 C   0  0  1  0  0  0  0  0  0  0  0  0
  -26.0498  -17.7003   19.3892 C   0  0  2  0  0  0  0  0  0  0  0  0
  -31.8247  -19.2126   24.1994 C   0  0  0  0  0  0  0  0  0  0  0  0
  -29.1423  -20.6236   28.1479 C   0  0  0  0  0  0  0  0  0  0  0  0
  -18.1939  -30.0832   23.4272 C   0  0  0  0  0  0  0  0  0  0  0  0
  -23.6889  -20.4773   27.6059 C   0  0  0  0  0  0  0  0  0  0  0  0
  -24.8156  -30.0846   23.5813 C   0  0  0  0  0  0  0  0  0  0  0  0
  -22.6476  -30.8981   24.5331 C   0  0  0  0  0  0  0  0  0  0  0  0
  -23.2378  -31.4098   22.1641 C   0  0  0  0  0  0  0  0  0  0  0  0
  -18.3338  -26.6463   21.8009 C   0  0  0  0  0  0  0  0  0  0  0  0
  -29.8401  -20.4274   22.4171 C   0  0  0  0  0  0  0  0  0  0  0  0
  -27.1457  -21.8453   26.3709 C   0  0  0  0  0  0  0  0  0  0  0  0
  -28.9413  -19.3959   21.7253 C   0  0  0  0  0  0  0  0  0  0  0  0
  -26.0239  -20.8839   26.7873 C   0  0  0  0  0  0  0  0  0  0  0  0
  -24.1537  -22.5879   26.3179 C   0  0  0  0  0  0  0  0  0  1  0  0
  -22.5836  -29.0510   22.7967 C   0  0  1  0  0  0  0  0  0  0  0  0
  -18.7997  -28.9720   22.5840 C   0  0  2  0  0  0  0  0  0  0  0  0
  -24.7322  -21.5593   27.2989 C   0  0  1  0  0  0  0  0  0  0  0  0
  -23.3268  -30.3330   23.2674 C   0  0  0  0  0  0  0  0  0  0  0  0
  -25.5113  -15.4630   20.2767 N   0  0  0  0  0  0  0  0  0  0  0  0
  -25.0616  -16.6784   19.9207 N   0  0  0  0  0  0  0  0  0  0  0  0
  -23.6899  -27.1224   21.7102 N   0  0  0  0  0  0  0  0  0  0  0  0
  -28.3804  -18.5280   19.4804 N   0  0  0  0  0  0  0  0  0  0  0  0
  -23.1019  -18.0019   19.7838 N   0  0  0  0  0  0  0  0  0  0  0  0
  -21.5957  -14.0777   21.4356 N   0  0  0  0  0  0  0  0  0  0  0  0
  -26.8240  -26.3238   20.0261 N   0  0  0  0  0  0  0  0  0  0  0  0
  -21.1784  -29.2622   22.4663 N   0  0  0  0  0  0  0  0  0  0  0  0
  -17.8733  -27.8049   22.6089 N   0  3  0  0  0  0  0  0  0  0  0  0
  -20.9701  -16.1828   20.7753 O   0  0  0  0  0  0  0  0  0  0  0  0
  -26.2173  -27.2869   22.0576 O   0  0  0  0  0  0  0  0  0  0  0  0
  -29.9518  -20.2191   19.7472 O   0  0  0  0  0  0  0  0  0  0  0  0
  -23.2840  -29.0922   20.5308 O   0  0  0  0  0  0  0  0  0  0  0  0
  -20.3273  -27.7286   23.9832 O   0  0  0  0  0  0  0  0  0  0  0  0
  -24.6737   -9.5628   22.5207 O   0  0  0  0  0  0  0  0  0  0  0  0
  -23.7753  -21.9638   25.0917 O   0  0  0  0  0  0  0  0  0  1  0  0
  -20.8491   -6.0241   20.7169 F   0  0  0  0  0  0  0  0  0  0  0  0
  -21.9886  -10.0077   23.0055 F   0  0  0  0  0  0  0  0  0  0  0  0
  1  2  1  0  0  0  0
  1  5  2  0  0  0  0
  2  6  2  0  0  0  0
  3  8  2  0  0  0  0
  3 17  1  0  0  0  0
  4  9  1  0  0  0  0
  4 17  2  0  0  0  0
  5 19  1  0  0  0  0
  6 21  1  0  0  0  0
  7 10  2  0  0  0  0
  7 20  1  0  0  0  0
  8 27  1  0  0  0  0
  9 27  2  0  0  0  0
 10 28  1  0  0  0  0
 11 12  2  0  0  0  0
 11 29  1  0  0  0  0
 12 30  1  0  0  0  0
 13 22  1  0  0  0  0
 13 28  2  0  0  0  0
 14 23  2  0  0  0  0
 14 24  1  0  0  0  0
 15 25  2  0  0  0  0
 15 26  1  0  0  0  0
 16 30  2  0  0  0  0
 16 31  1  0  0  0  0
 17 32  1  0  0  0  0
 18 32  1  0  0  0  0
 18 33  2  0  0  0  0
 18 34  1  0  0  0  0
 19 21  2  0  0  0  0
 19 39  1  0  0  0  0
 20 22  2  0  0  0  0
 20 40  1  0  0  0  0
 21 48  1  0  0  0  0
 22 41  1  0  0  0  0
 23 25  1  0  0  0  0
 23 51  1  0  0  0  0
 24 26  2  0  0  0  0
 24 52  1  0  0  0  0
 25 59  1  0  0  0  0
 26 60  1  0  0  0  0
 27 82  1  0  0  0  0
 28 83  1  0  0  0  0
 29 31  2  0  0  0  0
 29 82  1  0  0  0  0
 30 84  1  0  0  0  0
 31 85  1  0  0  0  0
 32 68  2  0  0  0  0
 33 69  1  0  0  0  0
 33 72  1  0  0  0  0
 34 73  1  0  0  0  0
 34 77  2  0  0  0  0
 35 49  1  0  0  0  0
 35 74  1  0  0  0  0
 35 78  2  0  0  0  0
 36 61  1  0  0  0  0
 36 71  1  0  0  0  0
 36 79  2  0  0  0  0
 37 64  1  0  0  0  0
 37 70  1  0  0  0  0
 37 80  2  0  0  0  0
 38 65  1  0  0  0  0
 38 75  1  0  0  0  0
 38 81  2  0  0  0  0
 39 42  1  0  0  0  0
 40 49  1  0  0  0  0
 41 70  1  0  0  0  0
 42 44  1  0  0  0  0
 43 45  1  0  0  0  0
 43 46  1  0  0  0  0
 44 48  1  0  0  0  0
 45 50  1  0  0  0  0
 46 71  1  0  0  0  0
 47 50  1  0  0  0  0
 47 71  1  0  0  0  0
 48 74  1  0  0  0  0
 49 70  1  0  0  0  0
 50 69  1  0  0  0  0
 53 65  1  0  0  0  0
 54 66  1  0  0  0  0
 55 67  1  0  0  0  0
 56 67  1  0  0  0  0
 57 67  1  0  0  0  0
 58 76  1  0  0  0  0
 59 61  1  0  0  0  0
 60 62  1  0  0  0  0
 62 66  1  0  0  0  0
 63 66  1  0  0  0  0
 63 83  1  0  0  0  0
 64 67  1  0  0  0  0
 64 75  1  0  0  0  0
 65 76  1  0  0  0  0
 68 69  1  0  0  0  0
M  CHG  1  76   1
M  ISO  4  36 100  61 100  63 101  83 101
M  END
> <Batch ID>
0132

> <Smiles>
CNC(C)C(=O)NC(C(=O)N1Cc2cc([101O:1][101CH2:1]C(C)CCc3cc(C[100CH2:0][100C:0](=O)N4CCCC(n5nc(-c6ccc(Oc7ccc(F)cc7F)cc6)c(C(N)=O)c5N)C4)c(C)cc3C)ccc2CC1C(=O)NC1CCCc2ccccc21)C(C)(C)C

> <Shape>
0.244

> <Color>
0.056

> <Negative vol penalty>
0.000

$$$$

  -OEChem-04052302283D

 83 91  0     1  0  0  0  0  0999 V2000
  -28.3862  -25.2532   16.1237 C   0  0  0  0  0  0  0  0  0  0  0  0
  -27.2145  -25.3059   16.8718 C   0  0  0  0  0  0  0  0  0  0  0  0
  -27.5803  -12.7099   18.8206 C   0  0  0  0  0  0  0  0  0  0  0  0
  -28.3766  -13.3357   21.0141 C   0  0  0  0  0  0  0  0  0  0  0  0
  -29.5586  -25.8165   16.6260 C   0  0  0  0  0  0  0  0  0  0  0  0
  -27.2148  -25.9208   18.1233 C   0  0  0  0  0  0  0  0  0  0  0  0
  -23.2126  -28.9488   18.8008 C   0  0  0  0  0  0  0  0  0  0  0  0
  -16.1569  -22.3058   19.1241 C   0  0  0  0  0  0  0  0  0  0  0  0
  -15.7757  -21.1772   18.3986 C   0  0  0  0  0  0  0  0  0  0  0  0
  -28.8683  -12.3072   18.4679 C   0  0  0  0  0  0  0  0  0  0  0  0
  -29.6646  -12.9329   20.6614 C   0  0  0  0  0  0  0  0  0  0  0  0
  -21.9975  -28.3387   19.1089 C   0  0  0  0  0  0  0  0  0  0  0  0
  -31.3752  -10.0323   20.3770 C   0  0  0  0  0  0  0  0  0  0  0  0
  -32.0880   -9.2656   21.2988 C   0  0  0  0  0  0  0  0  0  0  0  0
  -18.1164  -21.1350   19.9159 C   0  0  0  0  0  0  0  0  0  0  0  0
  -22.3280  -28.8705   21.4385 C   0  0  0  0  0  0  0  0  0  0  0  0
  -33.8035  -10.9646   21.3852 C   0  0  0  0  0  0  0  0  0  0  0  0
  -27.3344  -13.2243   20.0937 C   0  0  0  0  0  0  0  0  0  0  0  0
  -17.7351  -20.0063   19.1904 C   0  0  0  0  0  0  0  0  0  0  0  0
  -24.9982  -12.8528   21.0487 C   0  0  0  0  0  0  0  0  0  0  0  0
  -29.5709  -26.4471   17.8801 C   0  0  0  0  0  0  0  0  0  0  0  0
  -24.0011  -29.5157   19.8124 C   0  0  0  0  0  0  0  0  0  0  0  0
  -28.3887  -26.4918   18.6435 C   0  0  0  0  0  0  0  0  0  0  0  0
  -23.5515  -29.4895   21.1403 C   0  0  0  0  0  0  0  0  0  0  0  0
  -17.3273  -22.2847   19.8828 C   0  0  0  0  0  0  0  0  0  0  0  0
  -16.5647  -20.0274   18.4317 C   0  0  0  0  0  0  0  0  0  0  0  0
  -29.9104  -12.4186   19.3883 C   0  0  0  0  0  0  0  0  0  0  0  0
  -21.5563  -28.2969   20.4282 C   0  0  0  0  0  0  0  0  0  0  0  0
  -31.8766  -11.2651   19.9592 C   0  0  0  0  0  0  0  0  0  0  0  0
  -33.3021   -9.7318   21.8029 C   0  0  0  0  0  0  0  0  0  0  0  0
  -33.0907  -11.7312   20.4634 C   0  0  0  0  0  0  0  0  0  0  0  0
  -26.0042  -13.6411   20.4584 C   0  0  0  0  0  0  0  0  0  0  0  0
  -23.9326  -13.7073   21.1927 C   0  0  0  0  0  0  0  0  0  0  0  0
  -18.5801  -18.8204   19.2454 C   0  0  0  0  0  0  0  0  0  0  0  0
  -19.8775  -18.7688   18.8813 C   0  0  0  0  0  0  0  0  0  0  0  0
  -25.0247  -11.4716   21.4326 C   0  0  0  0  0  0  0  0  0  0  0  0
  -20.6043  -17.4893   19.0054 C   0  0  0  0  0  0  0  0  0  0  0  0
  -26.9166  -28.9703   20.9550 C   0  0  0  0  0  0  0  0  0  0  0  0
  -26.3061  -31.6332   22.7040 C   0  0  0  0  0  0  0  0  0  0  0  0
  -23.9895  -33.7213   24.0895 C   0  0  0  0  0  0  0  0  0  0  0  0
  -30.8735  -27.0000   18.4018 C   0  0  0  0  0  0  0  0  0  0  0  0
  -25.2967  -30.1938   19.4601 C   0  0  0  0  0  0  0  0  0  0  0  0
  -24.3510  -30.1015   22.2605 C   0  0  0  0  0  0  0  0  0  0  0  0
  -30.7007  -27.9631   19.5735 C   0  0  0  0  0  0  0  0  0  0  0  0
  -23.6198  -18.7153   20.6893 C   0  0  0  0  0  0  0  0  0  0  0  0
  -29.7348  -27.3842   20.6025 C   0  0  0  0  0  0  0  0  0  0  0  0
  -24.4457  -17.4350   20.7815 C   0  0  0  0  0  0  0  0  0  0  0  0
  -22.7787  -18.7624   19.4146 C   0  0  0  0  0  0  0  0  0  0  0  0
  -22.7313  -16.2865   19.3248 C   0  0  0  0  0  0  0  0  0  0  0  0
  -28.3431  -27.1721   19.9945 C   0  0  1  0  0  0  0  0  0  0  0  0
  -26.2626  -30.2852   20.6374 C   0  0  1  0  0  0  0  0  0  0  0  0
  -23.5495  -16.1965   20.6224 C   0  0  1  0  0  0  0  0  0  0  0  0
  -16.1244  -18.8358   17.6435 C   0  0  0  0  0  0  0  0  0  0  0  0
  -23.7937  -35.7916   25.4941 C   0  0  0  0  0  0  0  0  0  0  0  0
  -27.0122  -30.0106   25.1897 C   0  0  0  0  0  0  0  0  0  0  0  0
  -25.9066  -31.7801   26.5735 C   0  0  0  0  0  0  0  0  0  0  0  0
  -27.8985  -32.3492   25.1839 C   0  0  0  0  0  0  0  0  0  0  0  0
  -22.5794  -35.1867   21.9394 C   0  0  0  0  0  0  0  0  0  0  0  0
  -17.7383  -23.5055   20.6667 C   0  0  0  0  0  0  0  0  0  0  0  0
  -18.6324  -24.4727   19.8828 C   0  0  0  0  0  0  0  0  0  0  0  0
  -19.1015  -25.6648   20.7181 C   0  0  0  0  0  0  0  0  0  0  0  0
  -19.9533  -26.6227   19.8961 C   0  0  0  0  0  0  0  0  0  1  0  0
  -25.6819  -31.9078   24.0508 C   0  0  1  0  0  0  0  0  0  0  0  0
  -23.8641  -35.2341   24.0809 C   0  0  2  0  0  0  0  0  0  0  0  0
  -26.6104  -31.4986   25.2288 C   0  0  0  0  0  0  0  0  0  0  0  0
  -25.6127  -14.8996   20.2421 N   0  0  0  0  0  0  0  0  0  0  0  0
  -24.3488  -14.9086   20.6988 N   0  0  0  0  0  0  0  0  0  0  0  0
  -21.9745  -17.5415   19.2549 N   0  0  0  0  0  0  0  0  0  0  0  0
  -25.6139  -30.7473   21.8662 N   0  0  0  0  0  0  0  0  0  0  0  0
  -22.6896  -13.5408   21.6922 N   0  0  0  0  0  0  0  0  0  0  0  0
  -26.1998  -10.7398   21.2140 N   0  0  0  0  0  0  0  0  0  0  0  0
  -27.6338  -28.4303   19.9045 N   0  0  0  0  0  0  0  0  0  0  0  0
  -25.3073  -33.3178   24.0472 N   0  0  0  0  0  0  0  0  0  0  0  0
  -22.6325  -35.6476   23.3507 N   0  3  0  0  0  0  0  0  0  0  0  0
  -24.0301  -10.8991   21.9390 O   0  0  0  0  0  0  0  0  0  0  0  0
  -19.9536  -16.4508   18.8756 O   0  0  0  0  0  0  0  0  0  0  0  0
  -26.7820  -28.4825   22.0711 O   0  0  0  0  0  0  0  0  0  0  0  0
  -27.3651  -32.1898   22.4034 O   0  0  0  0  0  0  0  0  0  0  0  0
  -23.0159  -32.9724   24.1335 O   0  0  0  0  0  0  0  0  0  0  0  0
  -31.1673  -12.0254   19.0446 O   0  0  0  0  0  0  0  0  0  0  0  0
  -20.3709  -27.7014   20.7318 O   0  0  0  0  0  0  0  0  0  1  0  0
  -33.9858   -8.9962   22.6893 F   0  0  0  0  0  0  0  0  0  0  0  0
  -33.5769  -12.9153   20.0667 F   0  0  0  0  0  0  0  0  0  0  0  0
  1  2  1  0  0  0  0
  1  5  2  0  0  0  0
  2  6  2  0  0  0  0
  3 10  2  0  0  0  0
  3 18  1  0  0  0  0
  4 11  1  0  0  0  0
  4 18  2  0  0  0  0
  5 21  1  0  0  0  0
  6 23  1  0  0  0  0
  7 12  2  0  0  0  0
  7 22  1  0  0  0  0
  8  9  2  0  0  0  0
  8 25  1  0  0  0  0
  9 26  1  0  0  0  0
 10 27  1  0  0  0  0
 11 27  2  0  0  0  0
 12 28  1  0  0  0  0
 13 14  2  0  0  0  0
 13 29  1  0  0  0  0
 14 30  1  0  0  0  0
 15 19  1  0  0  0  0
 15 25  2  0  0  0  0
 16 24  1  0  0  0  0
 16 28  2  0  0  0  0
 17 30  2  0  0  0  0
 17 31  1  0  0  0  0
 18 32  1  0  0  0  0
 19 26  2  0  0  0  0
 19 34  1  0  0  0  0
 20 32  1  0  0  0  0
 20 33  2  0  0  0  0
 20 36  1  0  0  0  0
 21 23  2  0  0  0  0
 21 41  1  0  0  0  0
 22 24  2  0  0  0  0
 22 42  1  0  0  0  0
 23 50  1  0  0  0  0
 24 43  1  0  0  0  0
 25 59  1  0  0  0  0
 26 53  1  0  0  0  0
 27 80  1  0  0  0  0
 28 81  1  0  0  0  0
 29 31  2  0  0  0  0
 29 80  1  0  0  0  0
 30 82  1  0  0  0  0
 31 83  1  0  0  0  0
 32 66  2  0  0  0  0
 33 67  1  0  0  0  0
 33 70  1  0  0  0  0
 34 35  2  0  0  0  0
 35 37  1  0  0  0  0
 36 71  1  0  0  0  0
 36 75  2  0  0  0  0
 37 68  1  0  0  0  0
 37 76  2  0  0  0  0
 38 51  1  0  0  0  0
 38 72  1  0  0  0  0
 38 77  2  0  0  0  0
 39 63  1  0  0  0  0
 39 69  1  0  0  0  0
 39 78  2  0  0  0  0
 40 64  1  0  0  0  0
 40 73  1  0  0  0  0
 40 79  2  0  0  0  0
 41 44  1  0  0  0  0
 42 51  1  0  0  0  0
 43 69  1  0  0  0  0
 44 46  1  0  0  0  0
 45 47  1  0  0  0  0
 45 48  1  0  0  0  0
 46 50  1  0  0  0  0
 47 52  1  0  0  0  0
 48 68  1  0  0  0  0
 49 52  1  0  0  0  0
 49 68  1  0  0  0  0
 50 72  1  0  0  0  0
 51 69  1  0  0  0  0
 52 67  1  0  0  0  0
 54 64  1  0  0  0  0
 55 65  1  0  0  0  0
 56 65  1  0  0  0  0
 57 65  1  0  0  0  0
 58 74  1  0  0  0  0
 59 60  1  0  0  0  0
 60 61  1  0  0  0  0
 61 62  1  0  0  0  0
 62 81  1  0  0  0  0
 63 65  1  0  0  0  0
 63 73  1  0  0  0  0
 64 74  1  0  0  0  0
 66 67  1  0  0  0  0
M  CHG  1  74   1
M  ISO  4  35 100  37 100  62 101  81 101
M  END
> <Batch ID>
0132

> <Smiles>
CNC(C)C(=O)NC(C(=O)N1Cc2cc([101O:1][101CH2:1]CCCc3ccc(C)c(C=[100CH:0][100C:0](=O)N4CCCC(n5nc(-c6ccc(Oc7ccc(F)cc7F)cc6)c(C(N)=O)c5N)C4)c3)ccc2CC1C(=O)NC1CCCc2ccccc21)C(C)(C)C

> <Shape>
0.276

> <Color>
0.108

> <Negative vol penalty>
0.000

$$$$

  -OEChem-04052302283D

 83 91  0     1  0  0  0  0  0999 V2000
  -34.8806  -30.6273   25.1155 C   0  0  0  0  0  0  0  0  0  0  0  0
  -33.8472  -29.8276   24.6380 C   0  0  0  0  0  0  0  0  0  0  0  0
  -23.1495   -9.8515   21.2903 C   0  0  0  0  0  0  0  0  0  0  0  0
  -23.9205  -10.6424   23.4390 C   0  0  0  0  0  0  0  0  0  0  0  0
  -34.5951  -31.8698   25.6801 C   0  0  0  0  0  0  0  0  0  0  0  0
  -32.5275  -30.2695   24.7260 C   0  0  0  0  0  0  0  0  0  0  0  0
  -29.9271  -29.4845   20.4520 C   0  0  0  0  0  0  0  0  0  0  0  0
  -22.4418   -8.8282   21.9209 C   0  0  0  0  0  0  0  0  0  0  0  0
  -23.2128   -9.6191   24.0696 C   0  0  0  0  0  0  0  0  0  0  0  0
  -29.4699  -28.1891   20.2137 C   0  0  0  0  0  0  0  0  0  0  0  0
  -20.7225   -5.7908   22.9417 C   0  0  0  0  0  0  0  0  0  0  0  0
  -20.8118   -4.5088   22.3995 C   0  0  0  0  0  0  0  0  0  0  0  0
  -27.2779  -28.8257   20.9940 C   0  0  0  0  0  0  0  0  0  0  0  0
  -30.6785  -19.1929   22.5488 C   0  0  0  0  0  0  0  0  0  0  0  0
  -23.2024   -4.5277   22.7487 C   0  0  0  0  0  0  0  0  0  0  0  0
  -23.8889  -10.7586   22.0494 C   0  0  0  0  0  0  0  0  0  0  0  0
  -24.1544  -13.1075   21.0905 C   0  0  0  0  0  0  0  0  0  0  0  0
  -33.2722  -32.3312   25.7662 C   0  0  0  0  0  0  0  0  0  0  0  0
  -29.0645  -30.4589   20.9743 C   0  0  0  0  0  0  0  0  0  0  0  0
  -32.2240  -31.5187   25.2935 C   0  0  0  0  0  0  0  0  0  0  0  0
  -27.7259  -30.1334   21.2356 C   0  0  0  0  0  0  0  0  0  0  0  0
  -29.9277  -20.3949   22.6960 C   0  0  0  0  0  0  0  0  0  0  0  0
  -22.4734   -8.7120   23.3105 C   0  0  0  0  0  0  0  0  0  0  0  0
  -28.1459  -27.8588   20.4874 C   0  0  0  0  0  0  0  0  0  0  0  0
  -21.8731   -6.4414   23.3874 C   0  0  0  0  0  0  0  0  0  0  0  0
  -22.0517   -3.8772   22.3030 C   0  0  0  0  0  0  0  0  0  0  0  0
  -23.1130   -5.8097   23.2909 C   0  0  0  0  0  0  0  0  0  0  0  0
  -24.6207  -11.8155   21.3985 C   0  0  0  0  0  0  0  0  0  0  0  0
  -30.4189  -18.5641   21.3511 C   0  0  0  0  0  0  0  0  0  0  0  0
  -29.1229  -20.6390   21.6049 C   0  0  0  0  0  0  0  0  0  0  0  0
  -25.2217  -13.7218   20.4823 C   0  0  0  0  0  0  0  0  0  0  0  0
  -22.8712  -13.6996   21.3325 C   0  0  0  0  0  0  0  0  0  0  0  0
  -28.9948  -32.2008   23.6322 C   0  0  0  0  0  0  0  0  0  0  0  0
  -30.6967  -14.8608   20.3527 C   0  0  0  0  0  0  0  0  0  0  0  0
  -26.4748  -33.6252   22.1684 C   0  0  0  0  0  0  0  0  0  0  0  0
  -23.9645  -33.4157   19.8658 C   0  0  0  0  0  0  0  0  0  0  0  0
  -33.0087  -33.6608   26.4277 C   0  0  0  0  0  0  0  0  0  0  0  0
  -29.5661  -31.8587   21.2006 C   0  0  0  0  0  0  0  0  0  0  0  0
  -26.7542  -31.1484   21.7779 C   0  0  0  0  0  0  0  0  0  0  0  0
  -31.6162  -34.2176   26.1428 C   0  0  0  0  0  0  0  0  0  0  0  0
  -29.5884  -11.8351   18.7852 C   0  0  0  0  0  0  0  0  0  0  0  0
  -30.5596  -33.1330   26.3275 C   0  0  0  0  0  0  0  0  0  0  0  0
  -28.1703  -11.6505   19.3236 C   0  0  0  0  0  0  0  0  0  0  0  0
  -30.5086  -12.4502   19.8350 C   0  0  0  0  0  0  0  0  0  0  0  0
  -28.5913  -13.5586   20.9383 C   0  0  0  0  0  0  0  0  0  0  0  0
  -30.7818  -31.9738   25.3486 C   0  0  1  0  0  0  0  0  0  0  0  0
  -28.7343  -32.6345   22.2174 C   0  0  1  0  0  0  0  0  0  0  0  0
  -27.6217  -12.9681   19.8993 C   0  0  2  0  0  0  0  0  0  0  0  0
  -29.2385  -20.7132   25.0856 C   0  0  0  0  0  0  0  0  0  0  0  0
  -22.0432  -34.7251   18.9216 C   0  0  0  0  0  0  0  0  0  0  0  0
  -24.8464  -33.0442   24.6825 C   0  0  0  0  0  0  0  0  0  0  0  0
  -22.7700  -33.4884   23.3560 C   0  0  0  0  0  0  0  0  0  0  0  0
  -24.4513  -35.3021   23.6823 C   0  0  0  0  0  0  0  0  0  0  0  0
  -25.1291  -33.3841   17.1452 C   0  0  0  0  0  0  0  0  0  0  0  0
  -30.0114  -21.2711   23.8889 C   0  0  0  0  0  0  0  0  0  0  0  0
  -30.9926  -17.3040   20.8305 C   0  0  0  0  0  0  0  0  0  0  0  0
  -28.1798  -21.7906   21.3628 C   0  0  0  0  0  0  0  0  0  0  0  0
  -30.0440  -16.0956   20.9213 C   0  0  0  0  0  0  0  0  0  0  0  0
  -28.8831  -23.0950   20.9716 C   0  0  0  0  0  0  0  0  0  0  0  0
  -27.9175  -24.2693   20.8058 C   0  0  0  0  0  0  0  0  0  0  0  0
  -28.6462  -25.5363   20.3789 C   0  0  0  0  0  0  0  0  0  1  0  0
  -24.9855  -33.3821   22.1266 C   0  0  1  0  0  0  0  0  0  0  0  0
  -23.5152  -34.3718   18.7757 C   0  0  2  0  0  0  0  0  0  0  0  0
  -24.2819  -33.7843   23.4535 C   0  0  0  0  0  0  0  0  0  0  0  0
  -25.8857  -11.6193   21.0173 N   0  0  0  0  0  0  0  0  0  0  0  0
  -26.2233  -12.7963   20.4634 N   0  0  0  0  0  0  0  0  0  0  0  0
  -27.2941  -32.5018   21.9884 N   0  0  0  0  0  0  0  0  0  0  0  0
  -29.9417  -13.6880   20.3733 N   0  0  0  0  0  0  0  0  0  0  0  0
  -25.3918  -14.9580   19.9671 N   0  0  0  0  0  0  0  0  0  0  0  0
  -21.8887  -12.9282   21.9682 N   0  0  0  0  0  0  0  0  0  0  0  0
  -30.3126  -32.3313   24.0270 N   0  0  0  0  0  0  0  0  0  0  0  0
  -24.4896  -34.0872   20.9497 N   0  0  0  0  0  0  0  0  0  0  0  0
  -23.7207  -33.7596   17.4327 N   0  3  0  0  0  0  0  0  0  0  0  0
  -22.5985  -14.8722   20.9804 O   0  0  0  0  0  0  0  0  0  0  0  0
  -28.0685  -31.7805   24.3156 O   0  0  0  0  0  0  0  0  0  0  0  0
  -31.8424  -14.9389   19.9016 O   0  0  0  0  0  0  0  0  0  0  0  0
  -26.8957  -34.7709   22.3467 O   0  0  0  0  0  0  0  0  0  0  0  0
  -23.8569  -32.1954   19.7674 O   0  0  0  0  0  0  0  0  0  0  0  0
  -21.7827   -7.7138   23.9262 O   0  0  0  0  0  0  0  0  0  0  0  0
  -27.6972  -26.5950   20.2563 O   0  0  0  0  0  0  0  0  0  1  0  0
  -22.1371   -2.6455   21.7837 F   0  0  0  0  0  0  0  0  0  0  0  0
  -24.2218   -6.4292   23.7185 F   0  0  0  0  0  0  0  0  0  0  0  0
  -29.2741  -19.4219   20.4099 S   0  0  0  0  0  0  0  0  0  0  0  0
  1  2  1  0  0  0  0
  1  5  2  0  0  0  0
  2  6  2  0  0  0  0
  3  8  2  0  0  0  0
  3 16  1  0  0  0  0
  4  9  1  0  0  0  0
  4 16  2  0  0  0  0
  5 18  1  0  0  0  0
  6 20  1  0  0  0  0
  7 10  2  0  0  0  0
  7 19  1  0  0  0  0
  8 23  1  0  0  0  0
  9 23  2  0  0  0  0
 10 24  1  0  0  0  0
 11 12  2  0  0  0  0
 11 25  1  0  0  0  0
 12 26  1  0  0  0  0
 13 21  1  0  0  0  0
 13 24  2  0  0  0  0
 14 22  1  0  0  0  0
 14 29  2  0  0  0  0
 15 26  2  0  0  0  0
 15 27  1  0  0  0  0
 16 28  1  0  0  0  0
 17 28  1  0  0  0  0
 17 31  2  0  0  0  0
 17 32  1  0  0  0  0
 18 20  2  0  0  0  0
 18 37  1  0  0  0  0
 19 21  2  0  0  0  0
 19 38  1  0  0  0  0
 20 46  1  0  0  0  0
 21 39  1  0  0  0  0
 22 30  2  0  0  0  0
 22 55  1  0  0  0  0
 23 79  1  0  0  0  0
 24 80  1  0  0  0  0
 25 27  2  0  0  0  0
 25 79  1  0  0  0  0
 26 81  1  0  0  0  0
 27 82  1  0  0  0  0
 28 65  2  0  0  0  0
 29 56  1  0  0  0  0
 29 83  1  0  0  0  0
 30 57  1  0  0  0  0
 30 83  1  0  0  0  0
 31 66  1  0  0  0  0
 31 69  1  0  0  0  0
 32 70  1  0  0  0  0
 32 74  2  0  0  0  0
 33 47  1  0  0  0  0
 33 71  1  0  0  0  0
 33 75  2  0  0  0  0
 34 58  1  0  0  0  0
 34 68  1  0  0  0  0
 34 76  2  0  0  0  0
 35 62  1  0  0  0  0
 35 67  1  0  0  0  0
 35 77  2  0  0  0  0
 36 63  1  0  0  0  0
 36 72  1  0  0  0  0
 36 78  2  0  0  0  0
 37 40  1  0  0  0  0
 38 47  1  0  0  0  0
 39 67  1  0  0  0  0
 40 42  1  0  0  0  0
 41 43  1  0  0  0  0
 41 44  1  0  0  0  0
 42 46  1  0  0  0  0
 43 48  1  0  0  0  0
 44 68  1  0  0  0  0
 45 48  1  0  0  0  0
 45 68  1  0  0  0  0
 46 71  1  0  0  0  0
 47 67  1  0  0  0  0
 48 66  1  0  0  0  0
 49 55  1  0  0  0  0
 50 63  1  0  0  0  0
 51 64  1  0  0  0  0
 52 64  1  0  0  0  0
 53 64  1  0  0  0  0
 54 73  1  0  0  0  0
 56 58  1  0  0  0  0
 57 59  1  0  0  0  0
 59 60  1  0  0  0  0
 60 61  1  0  0  0  0
 61 80  1  0  0  0  0
 62 64  1  0  0  0  0
 62 72  1  0  0  0  0
 63 73  1  0  0  0  0
 65 66  1  0  0  0  0
M  CHG  1  73   1
M  ISO  4  34 100  58 100  61 101  80 101
M  END
> <Batch ID>
0132

> <Smiles>
CCc1cc(C[100CH2:0][100C:0](=O)N2CCCC(n3nc(-c4ccc(Oc5ccc(F)cc5F)cc4)c(C(N)=O)c3N)C2)sc1CCC[101CH2:1][101O:1]c1ccc2c(c1)CN(C(=O)C(NC(=O)C(C)NC)C(C)(C)C)C(C(=O)NC1CCCc3ccccc31)C2

> <Shape>
0.267

> <Color>
0.198

> <Negative vol penalty>
0.000

$$$$

  -OEChem-04052302283D

 84 92  0     1  0  0  0  0  0999 V2000
  -26.1503  -38.2784   21.5879 C   0  0  0  0  0  0  0  0  0  0  0  0
  -26.8349  -37.2874   20.8918 C   0  0  0  0  0  0  0  0  0  0  0  0
  -24.2118   -9.7175   22.1235 C   0  0  0  0  0  0  0  0  0  0  0  0
  -22.5366  -10.3926   20.5188 C   0  0  0  0  0  0  0  0  0  0  0  0
  -30.7017  -20.5870   21.9798 C   0  0  0  0  0  0  0  0  0  0  0  0
  -25.4456  -37.9547   22.7465 C   0  0  0  0  0  0  0  0  0  0  0  0
  -26.8161  -35.9721   21.3546 C   0  0  0  0  0  0  0  0  0  0  0  0
  -26.9114  -29.2153   18.9769 C   0  0  0  0  0  0  0  0  0  0  0  0
  -31.1516  -21.9022   22.0950 C   0  0  0  0  0  0  0  0  0  0  0  0
  -23.2928   -8.8541   22.7197 C   0  0  0  0  0  0  0  0  0  0  0  0
  -21.6176   -9.5291   21.1149 C   0  0  0  0  0  0  0  0  0  0  0  0
  -27.6045  -28.0193   19.1585 C   0  0  0  0  0  0  0  0  0  0  0  0
  -21.9949   -5.7916   22.1116 C   0  0  0  0  0  0  0  0  0  0  0  0
  -22.4275   -4.5046   22.4312 C   0  0  0  0  0  0  0  0  0  0  0  0
  -31.7435  -20.4210   19.8063 C   0  0  0  0  0  0  0  0  0  0  0  0
  -26.2881  -27.5625   21.1277 C   0  0  0  0  0  0  0  0  0  0  0  0
  -21.9271   -4.9145   24.7590 C   0  0  0  0  0  0  0  0  0  0  0  0
  -23.8337  -10.4868   21.0231 C   0  0  0  0  0  0  0  0  0  0  0  0
  -30.9977  -19.8463   20.8355 C   0  0  0  0  0  0  0  0  0  0  0  0
  -25.6700  -11.0825   19.3555 C   0  0  0  0  0  0  0  0  0  0  0  0
  -25.4101  -36.6330   23.2184 C   0  0  0  0  0  0  0  0  0  0  0  0
  -25.9072  -29.5998   19.8771 C   0  0  0  0  0  0  0  0  0  0  0  0
  -26.1113  -35.6306   22.5213 C   0  0  0  0  0  0  0  0  0  0  0  0
  -25.5820  -28.7627   20.9539 C   0  0  0  0  0  0  0  0  0  0  0  0
  -31.8974  -22.4769   21.0658 C   0  0  0  0  0  0  0  0  0  0  0  0
  -32.1934  -21.7363   19.9215 C   0  0  0  0  0  0  0  0  0  0  0  0
  -21.9957   -8.7598   22.2154 C   0  0  0  0  0  0  0  0  0  0  0  0
  -27.2948  -27.1941   20.2356 C   0  0  0  0  0  0  0  0  0  0  0  0
  -21.5285   -6.6401   23.1157 C   0  0  0  0  0  0  0  0  0  0  0  0
  -22.3936   -4.0660   23.7549 C   0  0  0  0  0  0  0  0  0  0  0  0
  -21.4946   -6.2015   24.4394 C   0  0  0  0  0  0  0  0  0  0  0  0
  -24.7825  -11.3793   20.4071 C   0  0  0  0  0  0  0  0  0  0  0  0
  -26.3498  -12.2561   19.1383 C   0  0  0  0  0  0  0  0  0  0  0  0
  -30.5290  -18.4745   20.7157 C   0  0  0  0  0  0  0  0  0  0  0  0
  -29.5142  -17.9294   21.4197 C   0  0  0  0  0  0  0  0  0  0  0  0
  -25.8627   -9.8557   18.6389 C   0  0  0  0  0  0  0  0  0  0  0  0
  -29.1492  -16.5194   21.1762 C   0  0  0  0  0  0  0  0  0  0  0  0
  -25.4900  -32.0488   21.8601 C   0  0  0  0  0  0  0  0  0  0  0  0
  -22.5670  -30.7065   22.2804 C   0  0  0  0  0  0  0  0  0  0  0  0
  -20.6162  -27.9098   22.1418 C   0  0  0  0  0  0  0  0  0  0  0  0
  -24.6739  -36.3399   24.5017 C   0  0  0  0  0  0  0  0  0  0  0  0
  -25.1506  -30.8802   19.6521 C   0  0  0  0  0  0  0  0  0  0  0  0
  -24.4986  -29.1201   21.9371 C   0  0  0  0  0  0  0  0  0  0  0  0
  -24.3944  -34.8548   24.7179 C   0  0  0  0  0  0  0  0  0  0  0  0
  -25.5205  -16.9235   20.8581 C   0  0  0  0  0  0  0  0  0  0  0  0
  -25.6458  -34.0295   24.4359 C   0  0  0  0  0  0  0  0  0  0  0  0
  -25.0787  -15.4743   20.6728 C   0  0  0  0  0  0  0  0  0  0  0  0
  -26.7263  -17.0391   21.7893 C   0  0  0  0  0  0  0  0  0  0  0  0
  -27.4408  -14.7434   21.1894 C   0  0  0  0  0  0  0  0  0  0  0  0
  -26.0942  -34.1880   22.9780 C   0  0  1  0  0  0  0  0  0  0  0  0
  -24.4992  -31.4203   20.9215 C   0  0  1  0  0  0  0  0  0  0  0  0
  -26.2581  -14.5996   20.2189 C   0  0  1  0  0  0  0  0  0  0  0  0
  -34.4352  -21.8397   18.8034 C   0  0  0  0  0  0  0  0  0  0  0  0
  -18.2765  -27.1162   22.5816 C   0  0  0  0  0  0  0  0  0  0  0  0
  -23.1241  -30.7341   25.2802 C   0  0  0  0  0  0  0  0  0  0  0  0
  -21.2410  -29.1106   25.5742 C   0  0  0  0  0  0  0  0  0  0  0  0
  -20.7934  -31.3823   24.6460 C   0  0  0  0  0  0  0  0  0  0  0  0
  -20.2274  -27.1240   19.3151 C   0  0  0  0  0  0  0  0  0  0  0  0
  -32.3728  -23.9003   21.2135 C   0  0  0  0  0  0  0  0  0  0  0  0
  -32.9904  -22.3303   18.8070 C   0  0  0  0  0  0  0  0  0  0  0  0
  -31.5651  -24.9112   20.3919 C   0  0  0  0  0  0  0  0  0  0  0  0
  -30.0997  -24.9968   20.8210 C   0  0  0  0  0  0  0  0  0  0  0  0
  -29.3210  -25.9803   19.9579 C   0  0  0  0  0  0  0  0  0  1  0  0
  -21.9898  -29.6734   23.2176 C   0  0  1  0  0  0  0  0  0  0  0  0
  -19.2416  -27.6690   21.5444 C   0  0  2  0  0  0  0  0  0  0  0  0
  -21.8089  -30.2190   24.6623 C   0  0  0  0  0  0  0  0  0  0  0  0
  -24.8867  -12.6424   20.8289 N   0  0  0  0  0  0  0  0  0  0  0  0
  -25.8479  -13.1496   20.0383 N   0  0  0  0  0  0  0  0  0  0  0  0
  -27.8191  -16.1497   21.3678 N   0  0  0  0  0  0  0  0  0  0  0  0
  -23.7917  -30.3853   21.6780 N   0  0  0  0  0  0  0  0  0  0  0  0
  -27.3219  -12.6005   18.2673 N   0  0  0  0  0  0  0  0  0  0  0  0
  -25.0806   -8.7469   18.9900 N   0  0  0  0  0  0  0  0  0  0  0  0
  -25.2619  -33.3897   22.1036 N   0  0  0  0  0  0  0  0  0  0  0  0
  -20.7557  -29.2037   22.5973 N   0  0  0  0  0  0  0  0  0  0  0  0
  -19.3292  -26.6966   20.4185 N   0  3  0  0  0  0  0  0  0  0  0  0
  -26.7150   -9.7413   17.7257 O   0  0  0  0  0  0  0  0  0  0  0  0
  -30.0467  -15.7527   20.8220 O   0  0  0  0  0  0  0  0  0  0  0  0
  -26.3937  -31.3673   22.3297 O   0  0  0  0  0  0  0  0  0  0  0  0
  -21.9505  -31.7568   22.0843 O   0  0  0  0  0  0  0  0  0  0  0  0
  -21.4786  -27.0362   22.2021 O   0  0  0  0  0  0  0  0  0  0  0  0
  -21.0987   -7.9172   22.7968 O   0  0  0  0  0  0  0  0  0  0  0  0
  -27.9702  -26.0265   20.4156 O   0  0  0  0  0  0  0  0  0  1  0  0
  -22.8076   -2.8296   24.0614 F   0  0  0  0  0  0  0  0  0  0  0  0
  -21.0465   -7.0117   25.4082 F   0  0  0  0  0  0  0  0  0  0  0  0
  1  2  1  0  0  0  0
  1  6  2  0  0  0  0
  2  7  2  0  0  0  0
  3 10  2  0  0  0  0
  3 18  1  0  0  0  0
  4 11  1  0  0  0  0
  4 18  2  0  0  0  0
  5  9  2  0  0  0  0
  5 19  1  0  0  0  0
  6 21  1  0  0  0  0
  7 23  1  0  0  0  0
  8 12  2  0  0  0  0
  8 22  1  0  0  0  0
  9 25  1  0  0  0  0
 10 27  1  0  0  0  0
 11 27  2  0  0  0  0
 12 28  1  0  0  0  0
 13 14  2  0  0  0  0
 13 29  1  0  0  0  0
 14 30  1  0  0  0  0
 15 19  2  0  0  0  0
 15 26  1  0  0  0  0
 16 24  1  0  0  0  0
 16 28  2  0  0  0  0
 17 30  2  0  0  0  0
 17 31  1  0  0  0  0
 18 32  1  0  0  0  0
 19 34  1  0  0  0  0
 20 32  1  0  0  0  0
 20 33  2  0  0  0  0
 20 36  1  0  0  0  0
 21 23  2  0  0  0  0
 21 41  1  0  0  0  0
 22 24  2  0  0  0  0
 22 42  1  0  0  0  0
 23 50  1  0  0  0  0
 24 43  1  0  0  0  0
 25 26  2  0  0  0  0
 25 59  1  0  0  0  0
 26 60  1  0  0  0  0
 27 81  1  0  0  0  0
 28 82  1  0  0  0  0
 29 31  2  0  0  0  0
 29 81  1  0  0  0  0
 30 83  1  0  0  0  0
 31 84  1  0  0  0  0
 32 67  2  0  0  0  0
 33 68  1  0  0  0  0
 33 71  1  0  0  0  0
 34 35  2  0  0  0  0
 35 37  1  0  0  0  0
 36 72  1  0  0  0  0
 36 76  2  0  0  0  0
 37 69  1  0  0  0  0
 37 77  2  0  0  0  0
 38 51  1  0  0  0  0
 38 73  1  0  0  0  0
 38 78  2  0  0  0  0
 39 64  1  0  0  0  0
 39 70  1  0  0  0  0
 39 79  2  0  0  0  0
 40 65  1  0  0  0  0
 40 74  1  0  0  0  0
 40 80  2  0  0  0  0
 41 44  1  0  0  0  0
 42 51  1  0  0  0  0
 43 70  1  0  0  0  0
 44 46  1  0  0  0  0
 45 47  1  0  0  0  0
 45 48  1  0  0  0  0
 46 50  1  0  0  0  0
 47 52  1  0  0  0  0
 48 69  1  0  0  0  0
 49 52  1  0  0  0  0
 49 69  1  0  0  0  0
 50 73  1  0  0  0  0
 51 70  1  0  0  0  0
 52 68  1  0  0  0  0
 53 60  1  0  0  0  0
 54 65  1  0  0  0  0
 55 66  1  0  0  0  0
 56 66  1  0  0  0  0
 57 66  1  0  0  0  0
 58 75  1  0  0  0  0
 59 61  1  0  0  0  0
 61 62  1  0  0  0  0
 62 63  1  0  0  0  0
 63 82  1  0  0  0  0
 64 66  1  0  0  0  0
 64 74  1  0  0  0  0
 65 75  1  0  0  0  0
 67 68  1  0  0  0  0
M  CHG  1  75   1
M  ISO  4  35 100  37 100  63 101  82 101
M  END
> <Batch ID>
0132

> <Smiles>
CCc1cc(C=[100CH:0][100C:0](=O)N2CCCC(n3nc(-c4ccc(Oc5ccc(F)cc5F)cc4)c(C(N)=O)c3N)C2)ccc1CCC[101CH2:1][101O:1]c1ccc2c(c1)CN(C(=O)C(NC(=O)C(C)NC)C(C)(C)C)C(C(=O)NC1CCCc3ccccc31)C2

> <Shape>
0.335

> <Color>
0.098

> <Negative vol penalty>
0.000

$$$$

  -OEChem-04052302283D

 82 90  0     1  0  0  0  0  0999 V2000
  -25.3151  -35.5793   21.7398 C   0  0  0  0  0  0  0  0  0  0  0  0
  -25.9905  -34.3634   21.7099 C   0  0  0  0  0  0  0  0  0  0  0  0
  -25.7927  -11.8866   20.0416 C   0  0  0  0  0  0  0  0  0  0  0  0
  -23.7991  -12.6217   21.1914 C   0  0  0  0  0  0  0  0  0  0  0  0
  -24.0456  -35.6564   22.3112 C   0  0  0  0  0  0  0  0  0  0  0  0
  -25.3972  -33.2240   22.2523 C   0  0  0  0  0  0  0  0  0  0  0  0
  -25.8896  -29.1665   19.2625 C   0  0  0  0  0  0  0  0  0  0  0  0
  -25.6848  -10.6375   20.6530 C   0  0  0  0  0  0  0  0  0  0  0  0
  -23.6911  -11.3726   21.8027 C   0  0  0  0  0  0  0  0  0  0  0  0
  -27.1236  -28.5177   19.2678 C   0  0  0  0  0  0  0  0  0  0  0  0
  -22.6118   -8.2798   20.9723 C   0  0  0  0  0  0  0  0  0  0  0  0
  -21.3518   -7.6824   21.0044 C   0  0  0  0  0  0  0  0  0  0  0  0
  -32.8293  -22.3357   19.6136 C   0  0  0  0  0  0  0  0  0  0  0  0
  -33.1949  -23.5403   20.2603 C   0  0  0  0  0  0  0  0  0  0  0  0
  -26.2323  -26.8478   20.7632 C   0  0  0  0  0  0  0  0  0  0  0  0
  -21.4232   -7.6615   23.4192 C   0  0  0  0  0  0  0  0  0  0  0  0
  -24.8499  -12.8787   20.3108 C   0  0  0  0  0  0  0  0  0  0  0  0
  -24.3992  -14.5666   18.4519 C   0  0  0  0  0  0  0  0  0  0  0  0
  -23.4325  -34.5154   22.8523 C   0  0  0  0  0  0  0  0  0  0  0  0
  -24.8190  -28.6661   20.0174 C   0  0  0  0  0  0  0  0  0  0  0  0
  -24.1189  -33.2862   22.8327 C   0  0  0  0  0  0  0  0  0  0  0  0
  -24.9850  -27.4907   20.7637 C   0  0  0  0  0  0  0  0  0  0  0  0
  -24.6340  -10.3805   21.5335 C   0  0  0  0  0  0  0  0  0  0  0  0
  -27.2959  -27.3598   20.0205 C   0  0  0  0  0  0  0  0  0  0  0  0
  -23.2776   -8.5680   22.1637 C   0  0  0  0  0  0  0  0  0  0  0  0
  -20.7575   -7.3733   22.2278 C   0  0  0  0  0  0  0  0  0  0  0  0
  -22.6833   -8.2589   23.3871 C   0  0  0  0  0  0  0  0  0  0  0  0
  -24.9612  -14.1694   19.6800 C   0  0  0  0  0  0  0  0  0  0  0  0
  -31.8272  -21.7819   20.3758 C   0  0  0  0  0  0  0  0  0  0  0  0
  -32.3900  -23.6369   21.3715 C   0  0  0  0  0  0  0  0  0  0  0  0
  -24.7931  -15.8738   18.3009 C   0  0  0  0  0  0  0  0  0  0  0  0
  -31.1368  -20.5715   20.1357 C   0  0  0  0  0  0  0  0  0  0  0  0
  -30.1219  -20.0378   20.8928 C   0  0  0  0  0  0  0  0  0  0  0  0
  -23.5932  -13.8208   17.5301 C   0  0  0  0  0  0  0  0  0  0  0  0
  -29.4906  -18.7610   20.5033 C   0  0  0  0  0  0  0  0  0  0  0  0
  -23.0706  -29.7656   22.4336 C   0  0  0  0  0  0  0  0  0  0  0  0
  -30.3552  -25.9774   21.3947 C   0  0  0  0  0  0  0  0  0  0  0  0
  -21.3673  -27.0522   21.9249 C   0  0  0  0  0  0  0  0  0  0  0  0
  -21.2911  -23.8644   20.7088 C   0  0  0  0  0  0  0  0  0  0  0  0
  -22.0787  -34.6577   23.5017 C   0  0  0  0  0  0  0  0  0  0  0  0
  -23.4865  -29.3628   19.9798 C   0  0  0  0  0  0  0  0  0  0  0  0
  -23.8613  -26.9013   21.5751 C   0  0  0  0  0  0  0  0  0  0  0  0
  -21.3642  -33.3263   23.7186 C   0  0  0  0  0  0  0  0  0  0  0  0
  -25.9760  -19.7527   20.8129 C   0  0  0  0  0  0  0  0  0  0  0  0
  -22.3171  -32.3018   24.3262 C   0  0  0  0  0  0  0  0  0  0  0  0
  -25.2704  -18.4392   20.4863 C   0  0  0  0  0  0  0  0  0  0  0  0
  -27.2931  -19.5255   21.5533 C   0  0  0  0  0  0  0  0  0  0  0  0
  -27.5171  -17.2852   20.5182 C   0  0  0  0  0  0  0  0  0  0  0  0
  -23.4982  -32.0230   23.3887 C   0  0  1  0  0  0  0  0  0  0  0  0
  -22.6150  -29.0513   21.1926 C   0  0  1  0  0  0  0  0  0  0  0  0
  -26.2127  -17.4881   19.7316 C   0  0  1  0  0  0  0  0  0  0  0  0
  -19.7699  -21.8829   20.4704 C   0  0  0  0  0  0  0  0  0  0  0  0
  -21.7444  -26.4099   24.8838 C   0  0  0  0  0  0  0  0  0  0  0  0
  -21.0658  -24.0518   24.3868 C   0  0  0  0  0  0  0  0  0  0  0  0
  -19.4597  -25.9193   23.9927 C   0  0  0  0  0  0  0  0  0  0  0  0
  -21.4690  -23.9367   17.7555 C   0  0  0  0  0  0  0  0  0  0  0  0
  -32.2676  -24.6630   22.4724 C   0  0  0  0  0  0  0  0  0  0  0  0
  -30.8542  -25.2292   22.6223 C   0  0  0  0  0  0  0  0  0  0  0  0
  -28.8503  -26.0117   21.2132 C   0  0  0  0  0  0  0  0  0  1  0  0
  -21.4350  -25.6350   22.4405 C   0  0  1  0  0  0  0  0  0  0  0  0
  -20.2932  -23.1511   19.8144 C   0  0  2  0  0  0  0  0  0  0  0  0
  -20.9481  -25.5159   23.9123 C   0  0  0  0  0  0  0  0  0  0  0  0
  -25.6591  -15.1451   20.2673 N   0  0  0  0  0  0  0  0  0  0  0  0
  -25.5383  -16.1684   19.4046 N   0  0  0  0  0  0  0  0  0  0  0  0
  -28.1524  -18.5676   20.8415 N   0  0  0  0  0  0  0  0  0  0  0  0
  -22.5794  -27.6225   21.5111 N   0  0  0  0  0  0  0  0  0  0  0  0
  -24.5713  -16.7883   17.3331 N   0  0  0  0  0  0  0  0  0  0  0  0
  -23.2819  -12.4899   17.8399 N   0  0  0  0  0  0  0  0  0  0  0  0
  -23.0935  -31.1421   22.3141 N   0  0  0  0  0  0  0  0  0  0  0  0
  -20.6813  -24.8199   21.4940 N   0  0  0  0  0  0  0  0  0  0  0  0
  -20.9305  -22.7816   18.5189 N   0  3  0  0  0  0  0  0  0  0  0  0
  -23.1753  -14.3149   16.4555 O   0  0  0  0  0  0  0  0  0  0  0  0
  -30.1891  -17.9403   19.9055 O   0  0  0  0  0  0  0  0  0  0  0  0
  -23.3772  -29.1160   23.4264 O   0  0  0  0  0  0  0  0  0  0  0  0
  -31.1133  -26.5507   20.6142 O   0  0  0  0  0  0  0  0  0  0  0  0
  -20.2779  -27.6295   21.8840 O   0  0  0  0  0  0  0  0  0  0  0  0
  -22.4908  -23.5980   20.7133 O   0  0  0  0  0  0  0  0  0  0  0  0
  -31.5534  -22.5690   21.4492 O   0  0  0  0  0  0  0  0  0  0  0  0
  -24.5282   -9.1618   22.1301 O   0  0  0  0  0  0  0  0  0  0  0  0
  -28.4995  -26.7248   20.0280 O   0  0  0  0  0  0  0  0  0  1  0  0
  -19.5468   -6.8010   22.2585 F   0  0  0  0  0  0  0  0  0  0  0  0
  -23.3175   -8.5344   24.5350 F   0  0  0  0  0  0  0  0  0  0  0  0
  1  2  1  0  0  0  0
  1  5  2  0  0  0  0
  2  6  2  0  0  0  0
  3  8  2  0  0  0  0
  3 17  1  0  0  0  0
  4  9  1  0  0  0  0
  4 17  2  0  0  0  0
  5 19  1  0  0  0  0
  6 21  1  0  0  0  0
  7 10  2  0  0  0  0
  7 20  1  0  0  0  0
  8 23  1  0  0  0  0
  9 23  2  0  0  0  0
 10 24  1  0  0  0  0
 11 12  2  0  0  0  0
 11 25  1  0  0  0  0
 12 26  1  0  0  0  0
 13 14  1  0  0  0  0
 13 29  2  0  0  0  0
 14 30  2  0  0  0  0
 15 22  1  0  0  0  0
 15 24  2  0  0  0  0
 16 26  2  0  0  0  0
 16 27  1  0  0  0  0
 17 28  1  0  0  0  0
 18 28  1  0  0  0  0
 18 31  2  0  0  0  0
 18 34  1  0  0  0  0
 19 21  2  0  0  0  0
 19 40  1  0  0  0  0
 20 22  2  0  0  0  0
 20 41  1  0  0  0  0
 21 49  1  0  0  0  0
 22 42  1  0  0  0  0
 23 79  1  0  0  0  0
 24 80  1  0  0  0  0
 25 27  2  0  0  0  0
 25 79  1  0  0  0  0
 26 81  1  0  0  0  0
 27 82  1  0  0  0  0
 28 63  2  0  0  0  0
 29 32  1  0  0  0  0
 29 78  1  0  0  0  0
 30 57  1  0  0  0  0
 30 78  1  0  0  0  0
 31 64  1  0  0  0  0
 31 67  1  0  0  0  0
 32 33  2  0  0  0  0
 33 35  1  0  0  0  0
 34 68  1  0  0  0  0
 34 72  2  0  0  0  0
 35 65  1  0  0  0  0
 35 73  2  0  0  0  0
 36 50  1  0  0  0  0
 36 69  1  0  0  0  0
 36 74  2  0  0  0  0
 37 58  1  0  0  0  0
 37 59  1  0  0  0  0
 37 75  2  0  0  0  0
 38 60  1  0  0  0  0
 38 66  1  0  0  0  0
 38 76  2  0  0  0  0
 39 61  1  0  0  0  0
 39 70  1  0  0  0  0
 39 77  2  0  0  0  0
 40 43  1  0  0  0  0
 41 50  1  0  0  0  0
 42 66  1  0  0  0  0
 43 45  1  0  0  0  0
 44 46  1  0  0  0  0
 44 47  1  0  0  0  0
 45 49  1  0  0  0  0
 46 51  1  0  0  0  0
 47 65  1  0  0  0  0
 48 51  1  0  0  0  0
 48 65  1  0  0  0  0
 49 69  1  0  0  0  0
 50 66  1  0  0  0  0
 51 64  1  0  0  0  0
 52 61  1  0  0  0  0
 53 62  1  0  0  0  0
 54 62  1  0  0  0  0
 55 62  1  0  0  0  0
 56 71  1  0  0  0  0
 57 58  1  0  0  0  0
 59 80  1  0  0  0  0
 60 62  1  0  0  0  0
 60 70  1  0  0  0  0
 61 71  1  0  0  0  0
 63 64  1  0  0  0  0
M  CHG  1  71   1
M  ISO  4  33 100  35 100  59 101  80 101
M  END
> <Batch ID>
0132

> <Smiles>
CNC(C)C(=O)NC(C(=O)N1Cc2cc([101O:1][101CH2:1]C(=O)CCc3ccc(C=[100CH:0][100C:0](=O)N4CCCC(n5nc(-c6ccc(Oc7ccc(F)cc7F)cc6)c(C(N)=O)c5N)C4)o3)ccc2CC1C(=O)NC1CCCc2ccccc21)C(C)(C)C

> <Shape>
0.226

> <Color>
0.100

> <Negative vol penalty>
0.000

$$$$

  -OEChem-04052302283D

 85 93  0     1  0  0  0  0  0999 V2000
  -29.5108  -23.6596   19.1840 C   0  0  0  0  0  0  0  0  0  0  0  0
  -28.3551  -24.3703   18.8802 C   0  0  0  0  0  0  0  0  0  0  0  0
  -25.2046  -11.9023   20.7495 C   0  0  0  0  0  0  0  0  0  0  0  0
  -25.3467  -13.0639   22.8631 C   0  0  0  0  0  0  0  0  0  0  0  0
  -21.8876  -23.7490   22.7170 C   0  0  0  0  0  0  0  0  0  0  0  0
  -30.0895  -23.7838   20.4453 C   0  0  0  0  0  0  0  0  0  0  0  0
  -27.7846  -25.2145   19.8335 C   0  0  0  0  0  0  0  0  0  0  0  0
  -22.6380  -28.4722   19.6662 C   0  0  0  0  0  0  0  0  0  0  0  0
  -23.0844  -23.4077   22.0871 C   0  0  0  0  0  0  0  0  0  0  0  0
  -25.6218  -10.7242   21.3688 C   0  0  0  0  0  0  0  0  0  0  0  0
  -25.7638  -11.8857   23.4825 C   0  0  0  0  0  0  0  0  0  0  0  0
  -21.3011  -28.3033   20.0239 C   0  0  0  0  0  0  0  0  0  0  0  0
  -24.2577   -8.3076   23.3007 C   0  0  0  0  0  0  0  0  0  0  0  0
  -23.5672   -7.1348   22.9951 C   0  0  0  0  0  0  0  0  0  0  0  0
  -21.7270  -29.4202   22.1193 C   0  0  0  0  0  0  0  0  0  0  0  0
  -21.8859  -23.0043   20.0285 C   0  0  0  0  0  0  0  0  0  0  0  0
  -25.6090   -6.1504   22.1591 C   0  0  0  0  0  0  0  0  0  0  0  0
  -25.0671  -13.0721   21.4966 C   0  0  0  0  0  0  0  0  0  0  0  0
  -20.6899  -23.7178   22.0027 C   0  0  0  0  0  0  0  0  0  0  0  0
  -23.3139  -14.7438   20.6968 C   0  0  0  0  0  0  0  0  0  0  0  0
  -29.5181  -24.6205   21.4181 C   0  0  0  0  0  0  0  0  0  0  0  0
  -23.5334  -29.1077   20.5384 C   0  0  0  0  0  0  0  0  0  0  0  0
  -28.3672  -25.3717   21.1041 C   0  0  0  0  0  0  0  0  0  0  0  0
  -23.0742  -29.5981   21.7692 C   0  0  0  0  0  0  0  0  0  0  0  0
  -23.0836  -23.0354   20.7429 C   0  0  0  0  0  0  0  0  0  0  0  0
  -20.6890  -23.3455   20.6584 C   0  0  0  0  0  0  0  0  0  0  0  0
  -25.9014  -10.7159   22.7354 C   0  0  0  0  0  0  0  0  0  0  0  0
  -20.8461  -28.7747   21.2518 C   0  0  0  0  0  0  0  0  0  0  0  0
  -25.6239   -8.4017   23.0354 C   0  0  0  0  0  0  0  0  0  0  0  0
  -24.2428   -6.0562   22.4243 C   0  0  0  0  0  0  0  0  0  0  0  0
  -26.2995   -7.3231   22.4646 C   0  0  0  0  0  0  0  0  0  0  0  0
  -24.6367  -14.2896   20.8573 C   0  0  0  0  0  0  0  0  0  0  0  0
  -23.4396  -15.9392   20.0323 C   0  0  0  0  0  0  0  0  0  0  0  0
  -19.4260  -24.0872   22.7008 C   0  0  0  0  0  0  0  0  0  0  0  0
  -22.0817  -14.1392   21.1114 C   0  0  0  0  0  0  0  0  0  0  0  0
  -26.1873  -28.2362   22.0554 C   0  0  0  0  0  0  0  0  0  0  0  0
  -25.9955  -20.8792   19.4374 C   0  0  0  0  0  0  0  0  0  0  0  0
  -26.2728  -31.3691   22.8921 C   0  0  0  0  0  0  0  0  0  0  0  0
  -24.5664  -34.2821   23.3913 C   0  0  0  0  0  0  0  0  0  0  0  0
  -30.1904  -24.7235   22.7644 C   0  0  0  0  0  0  0  0  0  0  0  0
  -24.9664  -29.3058   20.1263 C   0  0  0  0  0  0  0  0  0  0  0  0
  -23.9905  -30.3055   22.7327 C   0  0  0  0  0  0  0  0  0  0  0  0
  -29.2744  -25.2897   23.8445 C   0  0  0  0  0  0  0  0  0  0  0  0
  -27.4274  -18.0522   17.7648 C   0  0  0  0  0  0  0  0  0  0  0  0
  -28.6079  -26.5631   23.3458 C   0  0  0  0  0  0  0  0  0  0  0  0
  -26.7426  -16.8579   18.4281 C   0  0  0  0  0  0  0  0  0  0  0  0
  -27.6633  -19.1840   18.7600 C   0  0  0  0  0  0  0  0  0  0  0  0
  -25.7415  -18.4452   20.1320 C   0  0  0  0  0  0  0  0  0  0  0  0
  -27.7117  -26.2724   22.1353 C   0  0  1  0  0  0  0  0  0  0  0  0
  -25.9058  -29.5106   21.3108 C   0  0  1  0  0  0  0  0  0  0  0  0
  -25.4568  -17.2912   19.1544 C   0  0  2  0  0  0  0  0  0  0  0  0
  -19.4210  -23.3043   19.8696 C   0  0  0  0  0  0  0  0  0  0  0  0
  -24.9013  -36.6629   24.1104 C   0  0  0  0  0  0  0  0  0  0  0  0
  -26.4932  -30.4585   25.7959 C   0  0  0  0  0  0  0  0  0  0  0  0
  -25.8717  -32.7798   26.4982 C   0  0  0  0  0  0  0  0  0  0  0  0
  -27.9624  -32.3908   25.1942 C   0  0  0  0  0  0  0  0  0  0  0  0
  -23.6206  -35.3235   20.7874 C   0  0  0  0  0  0  0  0  0  0  0  0
  -24.3635  -22.6715   20.0690 C   0  0  0  0  0  0  0  0  0  0  0  0
  -19.2612  -25.4692   23.3133 C   0  0  0  0  0  0  0  0  0  0  0  0
  -24.7069  -21.1794   20.1609 C   0  0  0  0  0  0  0  0  0  0  0  0
  -18.1372  -26.2371   22.6195 C   0  0  0  0  0  0  0  0  0  0  0  0
  -17.9944  -27.6495   23.1924 C   0  0  0  0  0  0  0  0  0  0  0  0
  -19.2561  -28.4811   22.9959 C   0  0  0  0  0  0  0  0  0  1  0  0
  -25.7237  -32.1851   24.0374 C   0  0  1  0  0  0  0  0  0  0  0  0
  -24.8426  -35.7026   22.9326 C   0  0  2  0  0  0  0  0  0  0  0  0
  -26.4957  -31.9386   25.3643 C   0  0  0  0  0  0  0  0  0  0  0  0
  -25.5365  -15.1281   20.3365 N   0  0  0  0  0  0  0  0  0  0  0  0
  -18.4581  -23.2303   22.7949 N   0  0  0  0  0  0  0  0  0  0  0  0
  -24.7779  -16.1212   19.8423 N   0  0  0  0  0  0  0  0  0  0  0  0
  -25.3841  -30.4692   22.2870 N   0  0  0  0  0  0  0  0  0  0  0  0
  -26.4228  -19.5513   19.4451 N   0  0  0  0  0  0  0  0  0  0  0  0
  -22.5348  -16.8420   19.5978 N   0  0  0  0  0  0  0  0  0  0  0  0
  -22.1333  -12.9099   21.7826 N   0  0  0  0  0  0  0  0  0  0  0  0
  -27.2663  -27.5252   21.5660 N   0  0  0  0  0  0  0  0  0  0  0  0
  -25.7325  -33.5738   23.5902 N   0  0  0  0  0  0  0  0  0  0  0  0
  -23.7731  -36.1640   22.0029 N   0  3  0  0  0  0  0  0  0  0  0  0
  -20.9670  -14.6652   20.8785 O   0  0  0  0  0  0  0  0  0  0  0  0
  -25.4788  -27.9221   23.0047 O   0  0  0  0  0  0  0  0  0  0  0  0
  -26.6012  -21.7983   18.8801 O   0  0  0  0  0  0  0  0  0  0  0  0
  -27.4448  -31.5295   22.5426 O   0  0  0  0  0  0  0  0  0  0  0  0
  -23.4299  -33.8458   23.5601 O   0  0  0  0  0  0  0  0  0  0  0  0
  -26.3083   -9.5664   23.3401 O   0  0  0  0  0  0  0  0  0  0  0  0
  -19.5418  -28.6106   21.6038 O   0  0  0  0  0  0  0  0  0  1  0  0
  -23.5798   -4.9296   22.1324 F   0  0  0  0  0  0  0  0  0  0  0  0
  -27.6122   -7.4073   22.2085 F   0  0  0  0  0  0  0  0  0  0  0  0
  1  2  1  0  0  0  0
  1  6  2  0  0  0  0
  2  7  2  0  0  0  0
  3 10  2  0  0  0  0
  3 18  1  0  0  0  0
  4 11  1  0  0  0  0
  4 18  2  0  0  0  0
  5  9  2  0  0  0  0
  5 19  1  0  0  0  0
  6 21  1  0  0  0  0
  7 23  1  0  0  0  0
  8 12  2  0  0  0  0
  8 22  1  0  0  0  0
  9 25  1  0  0  0  0
 10 27  1  0  0  0  0
 11 27  2  0  0  0  0
 12 28  1  0  0  0  0
 13 14  2  0  0  0  0
 13 29  1  0  0  0  0
 14 30  1  0  0  0  0
 15 24  1  0  0  0  0
 15 28  2  0  0  0  0
 16 25  2  0  0  0  0
 16 26  1  0  0  0  0
 17 30  2  0  0  0  0
 17 31  1  0  0  0  0
 18 32  1  0  0  0  0
 19 26  2  0  0  0  0
 19 34  1  0  0  0  0
 20 32  1  0  0  0  0
 20 33  2  0  0  0  0
 20 35  1  0  0  0  0
 21 23  2  0  0  0  0
 21 40  1  0  0  0  0
 22 24  2  0  0  0  0
 22 41  1  0  0  0  0
 23 49  1  0  0  0  0
 24 42  1  0  0  0  0
 25 58  1  0  0  0  0
 26 52  1  0  0  0  0
 27 82  1  0  0  0  0
 28 83  1  0  0  0  0
 29 31  2  0  0  0  0
 29 82  1  0  0  0  0
 30 84  1  0  0  0  0
 31 85  1  0  0  0  0
 32 67  2  0  0  0  0
 33 69  1  0  0  0  0
 33 72  1  0  0  0  0
 34 59  1  0  0  0  0
 34 68  2  0  0  0  0
 35 73  1  0  0  0  0
 35 77  2  0  0  0  0
 36 50  1  0  0  0  0
 36 74  1  0  0  0  0
 36 78  2  0  0  0  0
 37 60  1  0  0  0  0
 37 71  1  0  0  0  0
 37 79  2  0  0  0  0
 38 64  1  0  0  0  0
 38 70  1  0  0  0  0
 38 80  2  0  0  0  0
 39 65  1  0  0  0  0
 39 75  1  0  0  0  0
 39 81  2  0  0  0  0
 40 43  1  0  0  0  0
 41 50  1  0  0  0  0
 42 70  1  0  0  0  0
 43 45  1  0  0  0  0
 44 46  1  0  0  0  0
 44 47  1  0  0  0  0
 45 49  1  0  0  0  0
 46 51  1  0  0  0  0
 47 71  1  0  0  0  0
 48 51  1  0  0  0  0
 48 71  1  0  0  0  0
 49 74  1  0  0  0  0
 50 70  1  0  0  0  0
 51 69  1  0  0  0  0
 53 65  1  0  0  0  0
 54 66  1  0  0  0  0
 55 66  1  0  0  0  0
 56 66  1  0  0  0  0
 57 76  1  0  0  0  0
 58 60  1  0  0  0  0
 59 61  1  0  0  0  0
 61 62  1  0  0  0  0
 62 63  1  0  0  0  0
 63 83  1  0  0  0  0
 64 66  1  0  0  0  0
 64 75  1  0  0  0  0
 65 76  1  0  0  0  0
 67 69  1  0  0  0  0
M  CHG  1  76   1
M  ISO  4  37 100  60 100  63 101  83 101
M  END
> <Batch ID>
0132

> <Smiles>
CNC(C)C(=O)NC(C(=O)N1Cc2cc([101O:1][101CH2:1]CCCC(=N)c3ccc(C[100CH2:0][100C:0](=O)N4CCCC(n5nc(-c6ccc(Oc7ccc(F)cc7F)cc6)c(C(N)=O)c5N)C4)cc3C)ccc2CC1C(=O)NC1CCCc2ccccc21)C(C)(C)C

> <Shape>
0.254

> <Color>
0.081

> <Negative vol penalty>
0.000

$$$$

  -OEChem-04052302283D

 85 93  0     1  0  0  0  0  0999 V2000
  -32.4956  -32.7817   20.8132 C   0  0  0  0  0  0  0  0  0  0  0  0
  -32.0667  -31.6925   20.0615 C   0  0  0  0  0  0  0  0  0  0  0  0
  -23.1275   -9.7819   20.8442 C   0  0  0  0  0  0  0  0  0  0  0  0
  -23.8162  -10.4587   23.0589 C   0  0  0  0  0  0  0  0  0  0  0  0
  -29.6903  -17.1434   18.9775 C   0  0  0  0  0  0  0  0  0  0  0  0
  -31.9909  -32.9832   22.0972 C   0  0  0  0  0  0  0  0  0  0  0  0
  -31.1337  -30.8034   20.5938 C   0  0  0  0  0  0  0  0  0  0  0  0
  -26.7317  -27.8264   17.5499 C   0  0  0  0  0  0  0  0  0  0  0  0
  -22.3967   -8.7283   21.3934 C   0  0  0  0  0  0  0  0  0  0  0  0
  -23.0854   -9.4051   23.6081 C   0  0  0  0  0  0  0  0  0  0  0  0
  -28.9955  -18.0535   18.1809 C   0  0  0  0  0  0  0  0  0  0  0  0
  -26.6531  -26.5291   17.0451 C   0  0  0  0  0  0  0  0  0  0  0  0
  -19.8548   -8.7285   24.3333 C   0  0  0  0  0  0  0  0  0  0  0  0
  -19.0629   -9.0030   25.4483 C   0  0  0  0  0  0  0  0  0  0  0  0
  -25.4941  -25.8289   19.0415 C   0  0  0  0  0  0  0  0  0  0  0  0
  -27.5061  -18.5286   20.0229 C   0  0  0  0  0  0  0  0  0  0  0  0
  -20.3150   -7.3865   26.7353 C   0  0  0  0  0  0  0  0  0  0  0  0
  -23.8373  -10.6470   21.6770 C   0  0  0  0  0  0  0  0  0  0  0  0
  -29.2929  -16.9258   20.2968 C   0  0  0  0  0  0  0  0  0  0  0  0
  -24.1381  -13.0423   20.8524 C   0  0  0  0  0  0  0  0  0  0  0  0
  -31.0440  -32.1015   22.6419 C   0  0  0  0  0  0  0  0  0  0  0  0
  -26.2009  -28.1327   18.8112 C   0  0  0  0  0  0  0  0  0  0  0  0
  -30.6169  -30.9925   21.8869 C   0  0  0  0  0  0  0  0  0  0  0  0
  -25.5650  -27.1314   19.5589 C   0  0  0  0  0  0  0  0  0  0  0  0
  -28.2008  -17.6185   20.8195 C   0  0  0  0  0  0  0  0  0  0  0  0
  -22.3756   -8.5400   22.7753 C   0  0  0  0  0  0  0  0  0  0  0  0
  -26.0368  -25.5295   17.7922 C   0  0  0  0  0  0  0  0  0  0  0  0
  -27.9034  -18.7461   18.7036 C   0  0  0  0  0  0  0  0  0  0  0  0
  -20.8767   -7.7830   24.4192 C   0  0  0  0  0  0  0  0  0  0  0  0
  -19.2931   -8.3320   26.6493 C   0  0  0  0  0  0  0  0  0  0  0  0
  -21.1068   -7.1120   25.6203 C   0  0  0  0  0  0  0  0  0  0  0  0
  -24.5928  -11.7352   21.1102 C   0  0  0  0  0  0  0  0  0  0  0  0
  -25.2276  -13.6857   20.3180 C   0  0  0  0  0  0  0  0  0  0  0  0
  -30.0359  -15.9692   21.1058 C   0  0  0  0  0  0  0  0  0  0  0  0
  -22.8464  -13.6230   21.0762 C   0  0  0  0  0  0  0  0  0  0  0  0
  -30.7065  -14.7998   20.4924 C   0  0  0  0  0  0  0  0  0  0  0  0
  -27.4055  -29.1956   21.5539 C   0  0  0  0  0  0  0  0  0  0  0  0
  -26.5721  -21.9480   17.6615 C   0  0  0  0  0  0  0  0  0  0  0  0
  -24.2845  -29.3087   22.4309 C   0  0  0  0  0  0  0  0  0  0  0  0
  -21.1027  -28.1632   21.9716 C   0  0  0  0  0  0  0  0  0  0  0  0
  -30.5626  -32.3339   24.0522 C   0  0  0  0  0  0  0  0  0  0  0  0
  -26.2701  -29.5428   19.3299 C   0  0  0  0  0  0  0  0  0  0  0  0
  -24.9613  -27.4130   20.9097 C   0  0  0  0  0  0  0  0  0  0  0  0
  -29.2963  -31.5554   24.3996 C   0  0  0  0  0  0  0  0  0  0  0  0
  -29.6549  -11.8864   18.6862 C   0  0  0  0  0  0  0  0  0  0  0  0
  -29.4185  -30.1055   23.9418 C   0  0  0  0  0  0  0  0  0  0  0  0
  -28.2194  -11.6730   19.1654 C   0  0  0  0  0  0  0  0  0  0  0  0
  -30.5380  -12.4421   19.7987 C   0  0  0  0  0  0  0  0  0  0  0  0
  -28.5767  -13.4940   20.8922 C   0  0  0  0  0  0  0  0  0  0  0  0
  -29.5875  -30.0198   22.4201 C   0  0  1  0  0  0  0  0  0  0  0  0
  -26.1510  -29.6273   20.8485 C   0  0  1  0  0  0  0  0  0  0  0  0
  -27.6481  -12.9594   19.7879 C   0  0  2  0  0  0  0  0  0  0  0  0
  -28.1886  -18.5410   23.1509 C   0  0  0  0  0  0  0  0  0  0  0  0
  -18.7707  -28.4142   22.8638 C   0  0  0  0  0  0  0  0  0  0  0  0
  -25.0361  -27.6250   24.8620 C   0  0  0  0  0  0  0  0  0  0  0  0
  -22.6044  -27.1183   25.1757 C   0  0  0  0  0  0  0  0  0  0  0  0
  -23.4166  -29.4717   25.3323 C   0  0  0  0  0  0  0  0  0  0  0  0
  -20.0830  -29.1191   19.3629 C   0  0  0  0  0  0  0  0  0  0  0  0
  -27.7550  -17.4052   22.2294 C   0  0  0  0  0  0  0  0  0  0  0  0
  -25.9523  -23.1978   18.2523 C   0  0  0  0  0  0  0  0  0  1  0  0
  -26.6078  -20.7359   18.5694 C   0  0  0  0  0  0  0  0  0  0  0  0
  -23.3186  -28.3421   23.0726 C   0  0  1  0  0  0  0  0  0  0  0  0
  -19.7794  -28.8939   21.8318 C   0  0  2  0  0  0  0  0  0  0  0  0
  -23.6069  -28.1332   24.5861 C   0  0  0  0  0  0  0  0  0  0  0  0
  -25.8715  -11.5571   20.7676 N   0  0  0  0  0  0  0  0  0  0  0  0
  -30.1621  -16.0738   22.3999 N   0  0  0  0  0  0  0  0  0  0  0  0
  -26.2295  -12.7607   20.2889 N   0  0  0  0  0  0  0  0  0  0  0  0
  -29.9493  -13.6412   20.3918 N   0  0  0  0  0  0  0  0  0  0  0  0
  -25.0599  -28.8058   21.3765 N   0  0  0  0  0  0  0  0  0  0  0  0
  -25.4166  -14.9467   19.8746 N   0  0  0  0  0  0  0  0  0  0  0  0
  -21.8408  -12.8212   21.6331 N   0  0  0  0  0  0  0  0  0  0  0  0
  -28.3153  -30.2153   21.7585 N   0  0  0  0  0  0  0  0  0  0  0  0
  -21.9814  -28.8488   22.7834 N   0  0  0  0  0  0  0  0  0  0  0  0
  -19.2055  -28.6711   20.4747 N   0  3  0  0  0  0  0  0  0  0  0  0
  -22.5869  -14.8128   20.7755 O   0  0  0  0  0  0  0  0  0  0  0  0
  -31.8641  -14.9816   20.1382 O   0  0  0  0  0  0  0  0  0  0  0  0
  -27.5374  -28.0243   21.8893 O   0  0  0  0  0  0  0  0  0  0  0  0
  -27.0190  -21.9196   16.5158 O   0  0  0  0  0  0  0  0  0  0  0  0
  -24.3435  -30.4691   22.8450 O   0  0  0  0  0  0  0  0  0  0  0  0
  -21.3324  -27.0897   21.4191 O   0  0  0  0  0  0  0  0  0  0  0  0
  -21.6624   -7.5122   23.3116 O   0  0  0  0  0  0  0  0  0  0  0  0
  -25.9593  -24.2624   17.3021 O   0  0  0  0  0  0  0  0  0  1  0  0
  -27.2166  -19.6411   17.9178 O   0  0  0  0  0  0  0  0  0  0  0  0
  -18.5336   -8.5968   27.7204 F   0  0  0  0  0  0  0  0  0  0  0  0
  -22.0879   -6.2035   25.7093 F   0  0  0  0  0  0  0  0  0  0  0  0
  1  2  1  0  0  0  0
  1  6  2  0  0  0  0
  2  7  2  0  0  0  0
  3  9  2  0  0  0  0
  3 18  1  0  0  0  0
  4 10  1  0  0  0  0
  4 18  2  0  0  0  0
  5 11  2  0  0  0  0
  5 19  1  0  0  0  0
  6 21  1  0  0  0  0
  7 23  1  0  0  0  0
  8 12  2  0  0  0  0
  8 22  1  0  0  0  0
  9 26  1  0  0  0  0
 10 26  2  0  0  0  0
 11 28  1  0  0  0  0
 12 27  1  0  0  0  0
 13 14  2  0  0  0  0
 13 29  1  0  0  0  0
 14 30  1  0  0  0  0
 15 24  1  0  0  0  0
 15 27  2  0  0  0  0
 16 25  1  0  0  0  0
 16 28  2  0  0  0  0
 17 30  2  0  0  0  0
 17 31  1  0  0  0  0
 18 32  1  0  0  0  0
 19 25  2  0  0  0  0
 19 34  1  0  0  0  0
 20 32  1  0  0  0  0
 20 33  2  0  0  0  0
 20 35  1  0  0  0  0
 21 23  2  0  0  0  0
 21 41  1  0  0  0  0
 22 24  2  0  0  0  0
 22 42  1  0  0  0  0
 23 50  1  0  0  0  0
 24 43  1  0  0  0  0
 25 59  1  0  0  0  0
 26 81  1  0  0  0  0
 27 82  1  0  0  0  0
 28 83  1  0  0  0  0
 29 31  2  0  0  0  0
 29 81  1  0  0  0  0
 30 84  1  0  0  0  0
 31 85  1  0  0  0  0
 32 65  2  0  0  0  0
 33 67  1  0  0  0  0
 33 70  1  0  0  0  0
 34 36  1  0  0  0  0
 34 66  2  0  0  0  0
 35 71  1  0  0  0  0
 35 75  2  0  0  0  0
 36 68  1  0  0  0  0
 36 76  2  0  0  0  0
 37 51  1  0  0  0  0
 37 72  1  0  0  0  0
 37 77  2  0  0  0  0
 38 60  1  0  0  0  0
 38 61  1  0  0  0  0
 38 78  2  0  0  0  0
 39 62  1  0  0  0  0
 39 69  1  0  0  0  0
 39 79  2  0  0  0  0
 40 63  1  0  0  0  0
 40 73  1  0  0  0  0
 40 80  2  0  0  0  0
 41 44  1  0  0  0  0
 42 51  1  0  0  0  0
 43 69  1  0  0  0  0
 44 46  1  0  0  0  0
 45 47  1  0  0  0  0
 45 48  1  0  0  0  0
 46 50  1  0  0  0  0
 47 52  1  0  0  0  0
 48 68  1  0  0  0  0
 49 52  1  0  0  0  0
 49 68  1  0  0  0  0
 50 72  1  0  0  0  0
 51 69  1  0  0  0  0
 52 67  1  0  0  0  0
 53 59  1  0  0  0  0
 54 63  1  0  0  0  0
 55 64  1  0  0  0  0
 56 64  1  0  0  0  0
 57 64  1  0  0  0  0
 58 74  1  0  0  0  0
 60 82  1  0  0  0  0
 61 83  1  0  0  0  0
 62 64  1  0  0  0  0
 62 73  1  0  0  0  0
 63 74  1  0  0  0  0
 65 67  1  0  0  0  0
M  CHG  1  74   1
M  ISO  4  34 100  36 100  60 101  82 101
M  END
> <Batch ID>
0132

> <Smiles>
CCc1cc(OCC(=O)[101CH2:1][101O:1]c2ccc3c(c2)CN(C(=O)C(NC(=O)C(C)NC)C(C)(C)C)C(C(=O)NC2CCCc4ccccc42)C3)ccc1[100C:0](=N)[100C:0](=O)N1CCCC(n2nc(-c3ccc(Oc4ccc(F)cc4F)cc3)c(C(N)=O)c2N)C1

> <Shape>
0.277

> <Color>
0.175

> <Negative vol penalty>
0.000

$$$$

  -OEChem-04052302283D

 86 94  0     1  0  0  0  0  0999 V2000
  -16.7086  -27.6005   21.9398 C   0  0  0  0  0  0  0  0  0  0  0  0
  -17.6492  -26.8036   22.5845 C   0  0  0  0  0  0  0  0  0  0  0  0
  -23.4435   -9.8697   19.8015 C   0  0  0  0  0  0  0  0  0  0  0  0
  -24.2583   -9.7518   22.0729 C   0  0  0  0  0  0  0  0  0  0  0  0
  -17.1283  -28.6311   21.0997 C   0  0  0  0  0  0  0  0  0  0  0  0
  -19.0101  -27.0361   22.3886 C   0  0  0  0  0  0  0  0  0  0  0  0
  -23.4926  -26.3470   26.5042 C   0  0  0  0  0  0  0  0  0  0  0  0
  -28.7525  -19.6190   23.2035 C   0  0  0  0  0  0  0  0  0  0  0  0
  -29.8079  -18.3309   24.9539 C   0  0  0  0  0  0  0  0  0  0  0  0
  -28.0976  -20.3888   24.1648 C   0  0  0  0  0  0  0  0  0  0  0  0
  -29.1531  -19.1007   25.9153 C   0  0  0  0  0  0  0  0  0  0  0  0
  -22.9039   -8.5898   19.9286 C   0  0  0  0  0  0  0  0  0  0  0  0
  -23.7186   -8.4718   22.2000 C   0  0  0  0  0  0  0  0  0  0  0  0
  -24.4053  -25.3183   26.7337 C   0  0  0  0  0  0  0  0  0  0  0  0
  -20.6812   -7.0938   22.7439 C   0  0  0  0  0  0  0  0  0  0  0  0
  -19.9749   -6.8029   23.9110 C   0  0  0  0  0  0  0  0  0  0  0  0
  -26.0478  -26.4886   25.4102 C   0  0  0  0  0  0  0  0  0  0  0  0
  -21.5347   -5.0272   24.4122 C   0  0  0  0  0  0  0  0  0  0  0  0
  -24.1208  -10.4507   20.8737 C   0  0  0  0  0  0  0  0  0  0  0  0
  -24.0453  -12.9956   21.0338 C   0  0  0  0  0  0  0  0  0  0  0  0
  -18.4950  -28.8825   20.9009 C   0  0  0  0  0  0  0  0  0  0  0  0
  -23.8477  -27.4508   25.7156 C   0  0  0  0  0  0  0  0  0  0  0  0
  -19.4484  -28.0701   21.5440 C   0  0  0  0  0  0  0  0  0  0  0  0
  -25.1386  -27.5312   25.1743 C   0  0  0  0  0  0  0  0  0  0  0  0
  -29.6076  -18.5900   23.5980 C   0  0  0  0  0  0  0  0  0  0  0  0
  -28.2979  -20.1297   25.5207 C   0  0  0  0  0  0  0  0  0  0  0  0
  -23.0414   -7.8909   21.1278 C   0  0  0  0  0  0  0  0  0  0  0  0
  -25.6821  -25.3877   26.1842 C   0  0  0  0  0  0  0  0  0  0  0  0
  -21.8142   -6.3514   22.4109 C   0  0  0  0  0  0  0  0  0  0  0  0
  -20.4017   -5.7696   24.7452 C   0  0  0  0  0  0  0  0  0  0  0  0
  -22.2409   -5.3181   23.2451 C   0  0  0  0  0  0  0  0  0  0  0  0
  -24.6789  -11.7726   20.7428 C   0  0  0  0  0  0  0  0  0  0  0  0
  -24.9905  -13.9493   20.7452 C   0  0  0  0  0  0  0  0  0  0  0  0
  -22.7206  -13.2470   21.5215 C   0  0  0  0  0  0  0  0  0  0  0  0
  -22.7957  -28.6862   22.9823 C   0  0  0  0  0  0  0  0  0  0  0  0
  -30.2739  -15.7564   21.0764 C   0  0  0  0  0  0  0  0  0  0  0  0
  -24.9030  -31.0484   23.6904 C   0  0  0  0  0  0  0  0  0  0  0  0
  -27.7273  -32.0108   25.3470 C   0  0  0  0  0  0  0  0  0  0  0  0
  -18.9004  -29.9776   19.9465 C   0  0  0  0  0  0  0  0  0  0  0  0
  -22.8604  -28.5649   25.4996 C   0  0  0  0  0  0  0  0  0  0  0  0
  -25.5760  -28.7045   24.3373 C   0  0  0  0  0  0  0  0  0  0  0  0
  -20.3615  -30.3972   20.0859 C   0  0  0  0  0  0  0  0  0  0  0  0
  -29.4251  -13.5847   18.3556 C   0  0  0  0  0  0  0  0  0  0  0  0
  -21.2652  -29.1701   20.1529 C   0  0  0  0  0  0  0  0  0  0  0  0
  -28.0773  -12.9973   18.7722 C   0  0  0  0  0  0  0  0  0  0  0  0
  -30.3349  -13.8040   19.5602 C   0  0  0  0  0  0  0  0  0  0  0  0
  -28.3790  -14.0594   21.0538 C   0  0  0  0  0  0  0  0  0  0  0  0
  -20.9336  -28.3069   21.3762 C   0  0  1  0  0  0  0  0  0  0  0  0
  -23.1598  -29.3958   24.2557 C   0  0  1  0  0  0  0  0  0  0  0  0
  -27.4179  -13.8507   19.8701 C   0  0  2  0  0  0  0  0  0  0  0  0
  -28.4798  -25.3125   29.3255 C   0  0  0  0  0  0  0  0  0  0  0  0
  -28.8099  -21.6251   30.0074 C   0  0  0  0  0  0  0  0  0  0  0  0
  -29.2236  -33.9938   25.7022 C   0  0  0  0  0  0  0  0  0  0  0  0
  -26.1114  -30.6297   20.9201 C   0  0  0  0  0  0  0  0  0  0  0  0
  -28.1226  -31.9128   21.6799 C   0  0  0  0  0  0  0  0  0  0  0  0
  -25.8898  -33.0231   21.6108 C   0  0  0  0  0  0  0  0  0  0  0  0
  -27.1961  -32.0364   28.2584 C   0  0  0  0  0  0  0  0  0  0  0  0
  -30.3081  -17.7665   22.5709 C   0  0  0  0  0  0  0  0  0  0  0  0
  -27.5901  -20.9646   26.5607 C   0  0  0  0  0  0  0  0  0  0  0  0
  -29.5207  -16.5250   22.1328 C   0  0  0  0  0  0  0  0  0  0  0  0
  -28.8581  -24.2542   28.2958 C   0  0  0  0  0  0  0  0  0  0  0  0
  -27.5845  -22.2956   29.3985 C   0  0  0  0  0  0  0  0  0  0  0  0
  -28.4267  -22.1893   26.9557 C   0  0  0  0  0  0  0  0  0  0  0  0
  -26.4595  -23.6734   27.6379 C   0  0  0  0  0  0  0  0  0  1  0  0
  -26.3628  -31.3011   23.4004 C   0  0  1  0  0  0  0  0  0  0  0  0
  -28.0217  -33.2183   26.2187 C   0  0  2  0  0  0  0  0  0  0  0  0
  -26.6131  -31.6935   21.9169 C   0  0  0  0  0  0  0  0  0  0  0  0
  -27.8296  -23.0947   28.0846 C   0  0  0  0  0  0  0  0  0  0  0  0
  -25.9299  -11.9320   20.3029 N   0  0  0  0  0  0  0  0  0  0  0  0
  -26.0900  -13.2663   20.3152 N   0  0  0  0  0  0  0  0  0  0  0  0
  -24.5727  -29.7655   24.1495 N   0  0  0  0  0  0  0  0  0  0  0  0
  -29.6643  -14.5999   20.5899 N   0  0  0  0  0  0  0  0  0  0  0  0
  -24.9802  -15.2972   20.8196 N   0  0  0  0  0  0  0  0  0  0  0  0
  -21.8796  -12.1527   21.7656 N   0  0  0  0  0  0  0  0  0  0  0  0
  -21.4916  -28.8942   22.5754 N   0  0  0  0  0  0  0  0  0  0  0  0
  -26.8034  -32.3023   24.3658 N   0  0  0  0  0  0  0  0  0  0  0  0
  -28.3044  -32.7904   27.6180 N   0  3  0  0  0  0  0  0  0  0  0  0
  -22.2898  -14.4084   21.7190 O   0  0  0  0  0  0  0  0  0  0  0  0
  -23.6362  -28.0019   22.4104 O   0  0  0  0  0  0  0  0  0  0  0  0
  -31.3700  -16.1746   20.6943 O   0  0  0  0  0  0  0  0  0  0  0  0
  -24.0869  -31.9580   23.5228 O   0  0  0  0  0  0  0  0  0  0  0  0
  -28.2659  -30.9193   25.5170 O   0  0  0  0  0  0  0  0  0  0  0  0
  -22.5148   -6.6420   21.2522 O   0  0  0  0  0  0  0  0  0  0  0  0
  -26.5747  -24.3847   26.4061 O   0  0  0  0  0  0  0  0  0  1  0  0
  -19.7242   -5.4914   25.8667 F   0  0  0  0  0  0  0  0  0  0  0  0
  -23.3293   -4.6022   22.9310 F   0  0  0  0  0  0  0  0  0  0  0  0
  1  2  1  0  0  0  0
  1  5  2  0  0  0  0
  2  6  2  0  0  0  0
  3 12  2  0  0  0  0
  3 19  1  0  0  0  0
  4 13  1  0  0  0  0
  4 19  2  0  0  0  0
  5 21  1  0  0  0  0
  6 23  1  0  0  0  0
  7 14  2  0  0  0  0
  7 22  1  0  0  0  0
  8 10  2  0  0  0  0
  8 25  1  0  0  0  0
  9 11  1  0  0  0  0
  9 25  2  0  0  0  0
 10 26  1  0  0  0  0
 11 26  2  0  0  0  0
 12 27  1  0  0  0  0
 13 27  2  0  0  0  0
 14 28  1  0  0  0  0
 15 16  2  0  0  0  0
 15 29  1  0  0  0  0
 16 30  1  0  0  0  0
 17 24  1  0  0  0  0
 17 28  2  0  0  0  0
 18 30  2  0  0  0  0
 18 31  1  0  0  0  0
 19 32  1  0  0  0  0
 20 32  1  0  0  0  0
 20 33  2  0  0  0  0
 20 34  1  0  0  0  0
 21 23  2  0  0  0  0
 21 39  1  0  0  0  0
 22 24  2  0  0  0  0
 22 40  1  0  0  0  0
 23 48  1  0  0  0  0
 24 41  1  0  0  0  0
 25 58  1  0  0  0  0
 26 59  1  0  0  0  0
 27 83  1  0  0  0  0
 28 84  1  0  0  0  0
 29 31  2  0  0  0  0
 29 83  1  0  0  0  0
 30 85  1  0  0  0  0
 31 86  1  0  0  0  0
 32 69  2  0  0  0  0
 33 70  1  0  0  0  0
 33 73  1  0  0  0  0
 34 74  1  0  0  0  0
 34 78  2  0  0  0  0
 35 49  1  0  0  0  0
 35 75  1  0  0  0  0
 35 79  2  0  0  0  0
 36 60  1  0  0  0  0
 36 72  1  0  0  0  0
 36 80  2  0  0  0  0
 37 65  1  0  0  0  0
 37 71  1  0  0  0  0
 37 81  2  0  0  0  0
 38 66  1  0  0  0  0
 38 76  1  0  0  0  0
 38 82  2  0  0  0  0
 39 42  1  0  0  0  0
 40 49  1  0  0  0  0
 41 71  1  0  0  0  0
 42 44  1  0  0  0  0
 43 45  1  0  0  0  0
 43 46  1  0  0  0  0
 44 48  1  0  0  0  0
 45 50  1  0  0  0  0
 46 72  1  0  0  0  0
 47 50  1  0  0  0  0
 47 72  1  0  0  0  0
 48 75  1  0  0  0  0
 49 71  1  0  0  0  0
 50 70  1  0  0  0  0
 51 61  1  0  0  0  0
 52 62  1  0  0  0  0
 53 66  1  0  0  0  0
 54 67  1  0  0  0  0
 55 67  1  0  0  0  0
 56 67  1  0  0  0  0
 57 77  1  0  0  0  0
 58 60  1  0  0  0  0
 59 63  1  0  0  0  0
 61 68  1  0  0  0  0
 62 68  1  0  0  0  0
 63 68  1  0  0  0  0
 64 68  1  0  0  0  0
 64 84  1  0  0  0  0
 65 67  1  0  0  0  0
 65 76  1  0  0  0  0
 66 77  1  0  0  0  0
 69 70  1  0  0  0  0
M  CHG  1  77   1
M  ISO  4  36 100  60 100  64 101  84 101
M  END
> <Batch ID>
0132

> <Smiles>
CCC(CC)(CCc1ccc(C[100CH2:0][100C:0](=O)N2CCCC(n3nc(-c4ccc(Oc5ccc(F)cc5F)cc4)c(C(N)=O)c3N)C2)cc1)[101CH2:1][101O:1]c1ccc2c(c1)CN(C(=O)C(NC(=O)C(C)NC)C(C)(C)C)C(C(=O)NC1CCCc3ccccc31)C2

> <Shape>
0.294

> <Color>
0.152

> <Negative vol penalty>
0.000

$$$$

  -OEChem-04052302283D

 84 92  0     1  0  0  0  0  0999 V2000
  -30.2105  -25.3898   15.6978 C   0  0  0  0  0  0  0  0  0  0  0  0
  -28.8291  -25.4102   15.8611 C   0  0  0  0  0  0  0  0  0  0  0  0
  -17.4248  -22.2176   19.2895 C   0  0  0  0  0  0  0  0  0  0  0  0
  -23.6211   -9.9750   22.3779 C   0  0  0  0  0  0  0  0  0  0  0  0
  -24.1693   -9.6774   20.0438 C   0  0  0  0  0  0  0  0  0  0  0  0
  -18.3096  -21.1973   19.6386 C   0  0  0  0  0  0  0  0  0  0  0  0
  -31.0435  -25.6632   16.7819 C   0  0  0  0  0  0  0  0  0  0  0  0
  -28.2798  -25.7029   17.1089 C   0  0  0  0  0  0  0  0  0  0  0  0
  -23.0862  -28.7513   18.2218 C   0  0  0  0  0  0  0  0  0  0  0  0
  -17.1430  -23.2376   20.1983 C   0  0  0  0  0  0  0  0  0  0  0  0
  -23.6130   -8.5911   22.5525 C   0  0  0  0  0  0  0  0  0  0  0  0
  -24.1612   -8.2935   20.2184 C   0  0  0  0  0  0  0  0  0  0  0  0
  -21.7932  -28.3238   18.5207 C   0  0  0  0  0  0  0  0  0  0  0  0
  -21.5171   -6.0143   21.9265 C   0  0  0  0  0  0  0  0  0  0  0  0
  -20.4637   -5.4597   22.6534 C   0  0  0  0  0  0  0  0  0  0  0  0
  -22.2498  -28.6070   20.8724 C   0  0  0  0  0  0  0  0  0  0  0  0
  -22.0376   -4.5727   24.2575 C   0  0  0  0  0  0  0  0  0  0  0  0
  -23.8992  -10.5181   21.1236 C   0  0  0  0  0  0  0  0  0  0  0  0
  -18.9124  -21.1970   20.8965 C   0  0  0  0  0  0  0  0  0  0  0  0
  -25.0047  -12.8169   21.0892 C   0  0  0  0  0  0  0  0  0  0  0  0
  -30.5041  -25.9688   18.0414 C   0  0  0  0  0  0  0  0  0  0  0  0
  -23.9757  -29.1001   19.2482 C   0  0  0  0  0  0  0  0  0  0  0  0
  -29.1064  -25.9793   18.2112 C   0  0  0  0  0  0  0  0  0  0  0  0
  -23.5526  -29.0411   20.5838 C   0  0  0  0  0  0  0  0  0  0  0  0
  -17.7458  -23.2373   21.4561 C   0  0  0  0  0  0  0  0  0  0  0  0
  -18.6306  -22.2170   21.8052 C   0  0  0  0  0  0  0  0  0  0  0  0
  -23.8831   -7.7504   21.4727 C   0  0  0  0  0  0  0  0  0  0  0  0
  -21.3758  -28.2488   19.8463 C   0  0  0  0  0  0  0  0  0  0  0  0
  -22.8308   -5.8481   22.3651 C   0  0  0  0  0  0  0  0  0  0  0  0
  -20.7240   -4.7390   23.8189 C   0  0  0  0  0  0  0  0  0  0  0  0
  -23.0911   -5.1273   23.5306 C   0  0  0  0  0  0  0  0  0  0  0  0
  -23.9072  -11.9475   20.9425 C   0  0  0  0  0  0  0  0  0  0  0  0
  -24.4962  -14.0619   20.8102 C   0  0  0  0  0  0  0  0  0  0  0  0
  -19.8314  -20.1158   21.2281 C   0  0  0  0  0  0  0  0  0  0  0  0
  -19.5220  -18.8033   21.2362 C   0  0  0  0  0  0  0  0  0  0  0  0
  -26.3624  -12.5251   21.4457 C   0  0  0  0  0  0  0  0  0  0  0  0
  -20.5705  -17.8240   21.5857 C   0  0  0  0  0  0  0  0  0  0  0  0
  -26.7828  -27.9992   20.2541 C   0  0  0  0  0  0  0  0  0  0  0  0
  -26.6504  -30.5774   22.2182 C   0  0  0  0  0  0  0  0  0  0  0  0
  -24.7343  -32.8962   23.8302 C   0  0  0  0  0  0  0  0  0  0  0  0
  -31.4452  -26.2111   19.1948 C   0  0  0  0  0  0  0  0  0  0  0  0
  -25.3583  -29.5848   18.9079 C   0  0  0  0  0  0  0  0  0  0  0  0
  -24.4624  -29.4237   21.7214 C   0  0  0  0  0  0  0  0  0  0  0  0
  -30.7789  -26.8800   20.3944 C   0  0  0  0  0  0  0  0  0  0  0  0
  -20.0734  -15.4588   18.8306 C   0  0  0  0  0  0  0  0  0  0  0  0
  -29.4526  -26.1991   20.7167 C   0  0  0  0  0  0  0  0  0  0  0  0
  -21.0936  -14.3794   19.1826 C   0  0  0  0  0  0  0  0  0  0  0  0
  -19.4572  -16.0914   20.0775 C   0  0  0  0  0  0  0  0  0  0  0  0
  -21.4879  -15.5453   21.3883 C   0  0  0  0  0  0  0  0  0  0  0  0
  -28.4725  -26.3168   19.5432 C   0  0  1  0  0  0  0  0  0  0  0  0
  -26.3478  -29.4239   20.0578 C   0  0  1  0  0  0  0  0  0  0  0  0
  -22.1551  -14.9280   20.1493 C   0  0  1  0  0  0  0  0  0  0  0  0
  -18.6243  -21.2260   24.1084 C   0  0  0  0  0  0  0  0  0  0  0  0
  -24.9073  -34.8518   25.3931 C   0  0  0  0  0  0  0  0  0  0  0  0
  -27.1264  -28.6683   24.5504 C   0  0  0  0  0  0  0  0  0  0  0  0
  -26.3524  -30.4774   26.0984 C   0  0  0  0  0  0  0  0  0  0  0  0
  -28.3845  -30.8249   24.6941 C   0  0  0  0  0  0  0  0  0  0  0  0
  -23.5443  -34.7382   21.8427 C   0  0  0  0  0  0  0  0  0  0  0  0
  -17.4229  -24.3520   22.4190 C   0  0  0  0  0  0  0  0  0  0  0  0
  -19.2715  -22.2271   23.1586 C   0  0  0  0  0  0  0  0  0  0  0  0
  -18.5308  -25.4039   22.5424 C   0  0  0  0  0  0  0  0  0  0  0  0
  -18.7951  -26.1513   21.2346 C   0  0  0  0  0  0  0  0  0  0  0  0
  -19.9271  -27.1585   21.3853 C   0  0  0  0  0  0  0  0  0  1  0  0
  -26.1049  -30.8411   23.6009 C   0  0  1  0  0  0  0  0  0  0  0  0
  -24.8589  -34.4051   23.9403 C   0  0  2  0  0  0  0  0  0  0  0  0
  -26.9753  -30.1938   24.7148 C   0  0  0  0  0  0  0  0  0  0  0  0
  -22.7861  -12.5862   20.5973 N   0  0  0  0  0  0  0  0  0  0  0  0
  -23.1764  -13.8701   20.5248 N   0  0  0  0  0  0  0  0  0  0  0  0
  -20.4924  -16.5557   21.0131 N   0  0  0  0  0  0  0  0  0  0  0  0
  -25.8067  -29.8854   21.3378 N   0  0  0  0  0  0  0  0  0  0  0  0
  -25.0537  -15.2911   20.7837 N   0  0  0  0  0  0  0  0  0  0  0  0
  -26.7151  -11.1926   21.6992 N   0  0  0  0  0  0  0  0  0  0  0  0
  -27.8867  -27.6396   19.5048 N   0  0  0  0  0  0  0  0  0  0  0  0
  -25.9670  -32.2889   23.7160 N   0  0  0  0  0  0  0  0  0  0  0  0
  -23.6986  -35.0700   23.2825 N   0  3  0  0  0  0  0  0  0  0  0  0
  -27.2333  -13.4216   21.5529 O   0  0  0  0  0  0  0  0  0  0  0  0
  -21.4503  -18.1878   22.3683 O   0  0  0  0  0  0  0  0  0  0  0  0
  -26.1636  -27.2798   21.0293 O   0  0  0  0  0  0  0  0  0  0  0  0
  -27.7807  -30.9770   21.9277 O   0  0  0  0  0  0  0  0  0  0  0  0
  -23.6520  -32.3141   23.8477 O   0  0  0  0  0  0  0  0  0  0  0  0
  -23.8755   -6.4000   21.6427 O   0  0  0  0  0  0  0  0  0  0  0  0
  -20.1145  -27.8312   20.1408 O   0  0  0  0  0  0  0  0  0  1  0  0
  -19.7122   -4.2077   24.5177 F   0  0  0  0  0  0  0  0  0  0  0  0
  -24.3509   -4.9653   23.9575 F   0  0  0  0  0  0  0  0  0  0  0  0
  1  2  1  0  0  0  0
  1  7  2  0  0  0  0
  2  8  2  0  0  0  0
  3  6  1  0  0  0  0
  3 10  2  0  0  0  0
  4 11  2  0  0  0  0
  4 18  1  0  0  0  0
  5 12  1  0  0  0  0
  5 18  2  0  0  0  0
  6 19  2  0  0  0  0
  7 21  1  0  0  0  0
  8 23  1  0  0  0  0
  9 13  2  0  0  0  0
  9 22  1  0  0  0  0
 10 25  1  0  0  0  0
 11 27  1  0  0  0  0
 12 27  2  0  0  0  0
 13 28  1  0  0  0  0
 14 15  2  0  0  0  0
 14 29  1  0  0  0  0
 15 30  1  0  0  0  0
 16 24  1  0  0  0  0
 16 28  2  0  0  0  0
 17 30  2  0  0  0  0
 17 31  1  0  0  0  0
 18 32  1  0  0  0  0
 19 26  1  0  0  0  0
 19 34  1  0  0  0  0
 20 32  1  0  0  0  0
 20 33  2  0  0  0  0
 20 36  1  0  0  0  0
 21 23  2  0  0  0  0
 21 41  1  0  0  0  0
 22 24  2  0  0  0  0
 22 42  1  0  0  0  0
 23 50  1  0  0  0  0
 24 43  1  0  0  0  0
 25 26  2  0  0  0  0
 25 59  1  0  0  0  0
 26 60  1  0  0  0  0
 27 81  1  0  0  0  0
 28 82  1  0  0  0  0
 29 31  2  0  0  0  0
 29 81  1  0  0  0  0
 30 83  1  0  0  0  0
 31 84  1  0  0  0  0
 32 67  2  0  0  0  0
 33 68  1  0  0  0  0
 33 71  1  0  0  0  0
 34 35  2  0  0  0  0
 35 37  1  0  0  0  0
 36 72  1  0  0  0  0
 36 76  2  0  0  0  0
 37 69  1  0  0  0  0
 37 77  2  0  0  0  0
 38 51  1  0  0  0  0
 38 73  1  0  0  0  0
 38 78  2  0  0  0  0
 39 64  1  0  0  0  0
 39 70  1  0  0  0  0
 39 79  2  0  0  0  0
 40 65  1  0  0  0  0
 40 74  1  0  0  0  0
 40 80  2  0  0  0  0
 41 44  1  0  0  0  0
 42 51  1  0  0  0  0
 43 70  1  0  0  0  0
 44 46  1  0  0  0  0
 45 47  1  0  0  0  0
 45 48  1  0  0  0  0
 46 50  1  0  0  0  0
 47 52  1  0  0  0  0
 48 69  1  0  0  0  0
 49 52  1  0  0  0  0
 49 69  1  0  0  0  0
 50 73  1  0  0  0  0
 51 70  1  0  0  0  0
 52 68  1  0  0  0  0
 53 60  1  0  0  0  0
 54 65  1  0  0  0  0
 55 66  1  0  0  0  0
 56 66  1  0  0  0  0
 57 66  1  0  0  0  0
 58 75  1  0  0  0  0
 59 61  1  0  0  0  0
 61 62  1  0  0  0  0
 62 63  1  0  0  0  0
 63 82  1  0  0  0  0
 64 66  1  0  0  0  0
 64 74  1  0  0  0  0
 65 75  1  0  0  0  0
 67 68  1  0  0  0  0
M  CHG  1  75   1
M  ISO  4  35 100  37 100  63 101  82 101
M  END
> <Batch ID>
0132

> <Smiles>
CCc1c(C=[100CH:0][100C:0](=O)N2CCCC(n3nc(-c4ccc(Oc5ccc(F)cc5F)cc4)c(C(N)=O)c3N)C2)cccc1CCC[101CH2:1][101O:1]c1ccc2c(c1)CN(C(=O)C(NC(=O)C(C)NC)C(C)(C)C)C(C(=O)NC1CCCc3ccccc31)C2

> <Shape>
0.281

> <Color>
0.091

> <Negative vol penalty>
0.000

$$$$

  -OEChem-04052302283D

 86 94  0     1  0  0  0  0  0999 V2000
  -28.5762  -23.6611   18.4643 C   0  0  0  0  0  0  0  0  0  0  0  0
  -27.2577  -24.1022   18.4157 C   0  0  0  0  0  0  0  0  0  0  0  0
  -27.9449  -13.8118   18.9487 C   0  0  0  0  0  0  0  0  0  0  0  0
  -28.2093  -13.9411   21.3468 C   0  0  0  0  0  0  0  0  0  0  0  0
  -29.3860  -24.0058   19.5456 C   0  0  0  0  0  0  0  0  0  0  0  0
  -26.7478  -24.8874   19.4491 C   0  0  0  0  0  0  0  0  0  0  0  0
  -22.6546  -29.4160   18.9560 C   0  0  0  0  0  0  0  0  0  0  0  0
  -19.6340  -22.6551   23.7999 C   0  0  0  0  0  0  0  0  0  0  0  0
  -18.8568  -23.8131   23.7814 C   0  0  0  0  0  0  0  0  0  0  0  0
  -29.3124  -13.5744   18.8107 C   0  0  0  0  0  0  0  0  0  0  0  0
  -29.5769  -13.7036   21.2088 C   0  0  0  0  0  0  0  0  0  0  0  0
  -21.2774  -29.4628   19.1680 C   0  0  0  0  0  0  0  0  0  0  0  0
  -31.4368  -10.9683   19.1684 C   0  0  0  0  0  0  0  0  0  0  0  0
  -31.8337   -9.9505   18.3011 C   0  0  0  0  0  0  0  0  0  0  0  0
  -21.6555  -30.2927   21.4013 C   0  0  0  0  0  0  0  0  0  0  0  0
  -21.6185  -23.9810   23.4247 C   0  0  0  0  0  0  0  0  0  0  0  0
  -33.0717  -11.5546   16.9853 C   0  0  0  0  0  0  0  0  0  0  0  0
  -27.3933  -13.9952   20.2168 C   0  0  0  0  0  0  0  0  0  0  0  0
  -24.9634  -13.2821   20.5240 C   0  0  0  0  0  0  0  0  0  0  0  0
  -28.8887  -24.8037   20.5881 C   0  0  0  0  0  0  0  0  0  0  0  0
  -23.5443  -29.7975   19.9706 C   0  0  0  0  0  0  0  0  0  0  0  0
  -27.5513  -25.2420   20.5460 C   0  0  0  0  0  0  0  0  0  0  0  0
  -23.0435  -30.2522   21.1988 C   0  0  0  0  0  0  0  0  0  0  0  0
  -21.0149  -22.7390   23.6216 C   0  0  0  0  0  0  0  0  0  0  0  0
  -19.4604  -25.0551   23.5845 C   0  0  0  0  0  0  0  0  0  0  0  0
  -20.8413  -25.1391   23.4062 C   0  0  0  0  0  0  0  0  0  0  0  0
  -30.1284  -13.5203   19.9407 C   0  0  0  0  0  0  0  0  0  0  0  0
  -20.7777  -29.8984   20.3918 C   0  0  0  0  0  0  0  0  0  0  0  0
  -31.8572  -12.2792   18.9441 C   0  0  0  0  0  0  0  0  0  0  0  0
  -32.6512  -10.2436   17.2096 C   0  0  0  0  0  0  0  0  0  0  0  0
  -32.6747  -12.5724   17.8526 C   0  0  0  0  0  0  0  0  0  0  0  0
  -25.9808  -14.2411   20.3599 C   0  0  0  0  0  0  0  0  0  0  0  0
  -23.8078  -14.0192   20.6125 C   0  0  0  0  0  0  0  0  0  0  0  0
  -16.1741  -28.9218   20.1951 C   0  0  0  0  0  0  0  0  0  0  0  0
  -25.0546  -11.8528   20.5905 C   0  0  0  0  0  0  0  0  0  0  0  0
  -17.3964  -28.6846   20.6979 C   0  0  0  0  0  0  0  0  0  0  0  0
  -25.8243  -28.3252   21.6251 C   0  0  0  0  0  0  0  0  0  0  0  0
  -22.8887  -19.6233   22.3517 C   0  0  0  0  0  0  0  0  0  0  0  0
  -26.3557  -31.3030   22.7968 C   0  0  0  0  0  0  0  0  0  0  0  0
  -25.1325  -34.4224   23.4445 C   0  0  0  0  0  0  0  0  0  0  0  0
  -29.7878  -25.1111   21.7593 C   0  0  0  0  0  0  0  0  0  0  0  0
  -25.0266  -29.7667   19.7168 C   0  0  0  0  0  0  0  0  0  0  0  0
  -23.9560  -30.6921   22.3134 C   0  0  0  0  0  0  0  0  0  0  0  0
  -29.2827  -26.2585   22.6303 C   0  0  0  0  0  0  0  0  0  0  0  0
  -21.8720  -18.1476   19.1869 C   0  0  0  0  0  0  0  0  0  0  0  0
  -27.7960  -26.0891   22.9269 C   0  0  0  0  0  0  0  0  0  0  0  0
  -22.7487  -16.8970   19.1371 C   0  0  0  0  0  0  0  0  0  0  0  0
  -22.5994  -19.3173   19.8448 C   0  0  0  0  0  0  0  0  0  0  0  0
  -24.0000  -17.7597   21.1627 C   0  0  0  0  0  0  0  0  0  0  0  0
  -26.9693  -26.1162   21.6356 C   0  0  1  0  0  0  0  0  0  0  0  0
  -25.8507  -29.6905   20.9983 C   0  0  1  0  0  0  0  0  0  0  0  0
  -23.2921  -16.5480   20.5338 C   0  0  2  0  0  0  0  0  0  0  0  0
  -22.2176  -26.9568   24.4493 C   0  0  0  0  0  0  0  0  0  0  0  0
  -25.7914  -36.6287   24.4424 C   0  0  0  0  0  0  0  0  0  0  0  0
  -26.0940  -30.1132   25.5943 C   0  0  0  0  0  0  0  0  0  0  0  0
  -25.8083  -32.4373   26.4803 C   0  0  0  0  0  0  0  0  0  0  0  0
  -27.9316  -31.7907   25.3418 C   0  0  0  0  0  0  0  0  0  0  0  0
  -24.6737  -35.8460   20.8907 C   0  0  0  0  0  0  0  0  0  0  0  0
  -21.8456  -21.5006   23.6410 C   0  0  0  0  0  0  0  0  0  0  0  0
  -18.5993  -26.2929   23.5673 C   0  0  0  0  0  0  0  0  0  0  0  0
  -21.5094  -26.4578   23.1934 C   0  0  0  0  0  0  0  0  0  0  0  0
  -17.5706  -28.1068   22.0853 C   0  0  0  0  0  0  0  0  0  0  0  0
  -18.6341  -28.9934   19.9001 C   0  0  0  0  0  0  0  0  0  1  0  0
  -22.0182  -20.8513   22.2619 C   0  0  0  0  0  0  0  0  0  0  0  0
  -18.3692  -26.7983   22.1395 C   0  0  0  0  0  0  0  0  0  0  0  0
  -25.8326  -32.1005   23.9670 C   0  0  1  0  0  0  0  0  0  0  0  0
  -25.6984  -35.8037   23.1682 C   0  0  2  0  0  0  0  0  0  0  0  0
  -26.3992  -31.6003   25.3257 C   0  0  0  0  0  0  0  0  0  0  0  0
  -25.5128  -15.4920   20.3446 N   0  0  0  0  0  0  0  0  0  0  0  0
  -24.1885  -15.3240   20.5001 N   0  0  0  0  0  0  0  0  0  0  0  0
  -25.3975  -30.6377   22.0189 N   0  0  0  0  0  0  0  0  0  0  0  0
  -23.1256  -18.9360   21.1609 N   0  0  0  0  0  0  0  0  0  0  0  0
  -22.5134  -13.6720   20.7747 N   0  0  0  0  0  0  0  0  0  0  0  0
  -26.3192  -11.2583   20.4824 N   0  0  0  0  0  0  0  0  0  0  0  0
  -26.8120  -27.4755   21.1646 N   0  0  0  0  0  0  0  0  0  0  0  0
  -26.1299  -33.4984   23.6738 N   0  0  0  0  0  0  0  0  0  0  0  0
  -24.8337  -36.5331   22.1981 N   0  3  0  0  0  0  0  0  0  0  0  0
  -24.0429  -11.1235   20.7249 O   0  0  0  0  0  0  0  0  0  0  0  0
  -24.9720  -28.0626   22.4655 O   0  0  0  0  0  0  0  0  0  0  0  0
  -23.3413  -19.2850   23.4484 O   0  0  0  0  0  0  0  0  0  0  0  0
  -27.5692  -31.2772   22.5767 O   0  0  0  0  0  0  0  0  0  0  0  0
  -23.9262  -34.1876   23.4595 O   0  0  0  0  0  0  0  0  0  0  0  0
  -31.4629  -13.2884   19.8064 O   0  0  0  0  0  0  0  0  0  0  0  0
  -19.4340  -29.9444   20.6016 O   0  0  0  0  0  0  0  0  0  1  0  0
  -33.0336   -9.2659   16.3777 F   0  0  0  0  0  0  0  0  0  0  0  0
  -33.0828  -13.8297   17.6326 F   0  0  0  0  0  0  0  0  0  0  0  0
  1  2  1  0  0  0  0
  1  5  2  0  0  0  0
  2  6  2  0  0  0  0
  3 10  2  0  0  0  0
  3 18  1  0  0  0  0
  4 11  1  0  0  0  0
  4 18  2  0  0  0  0
  5 20  1  0  0  0  0
  6 22  1  0  0  0  0
  7 12  2  0  0  0  0
  7 21  1  0  0  0  0
  8  9  2  0  0  0  0
  8 24  1  0  0  0  0
  9 25  1  0  0  0  0
 10 27  1  0  0  0  0
 11 27  2  0  0  0  0
 12 28  1  0  0  0  0
 13 14  2  0  0  0  0
 13 29  1  0  0  0  0
 14 30  1  0  0  0  0
 15 23  1  0  0  0  0
 15 28  2  0  0  0  0
 16 24  2  0  0  0  0
 16 26  1  0  0  0  0
 17 30  2  0  0  0  0
 17 31  1  0  0  0  0
 18 32  1  0  0  0  0
 19 32  1  0  0  0  0
 19 33  2  0  0  0  0
 19 35  1  0  0  0  0
 20 22  2  0  0  0  0
 20 41  1  0  0  0  0
 21 23  2  0  0  0  0
 21 42  1  0  0  0  0
 22 50  1  0  0  0  0
 23 43  1  0  0  0  0
 24 59  1  0  0  0  0
 25 26  2  0  0  0  0
 25 60  1  0  0  0  0
 26 61  1  0  0  0  0
 27 83  1  0  0  0  0
 28 84  1  0  0  0  0
 29 31  2  0  0  0  0
 29 83  1  0  0  0  0
 30 85  1  0  0  0  0
 31 86  1  0  0  0  0
 32 69  2  0  0  0  0
 33 70  1  0  0  0  0
 33 73  1  0  0  0  0
 34 36  2  0  0  0  0
 35 74  1  0  0  0  0
 35 78  2  0  0  0  0
 36 62  1  0  0  0  0
 36 63  1  0  0  0  0
 37 51  1  0  0  0  0
 37 75  1  0  0  0  0
 37 79  2  0  0  0  0
 38 64  1  0  0  0  0
 38 72  1  0  0  0  0
 38 80  2  0  0  0  0
 39 66  1  0  0  0  0
 39 71  1  0  0  0  0
 39 81  2  0  0  0  0
 40 67  1  0  0  0  0
 40 76  1  0  0  0  0
 40 82  2  0  0  0  0
 41 44  1  0  0  0  0
 42 51  1  0  0  0  0
 43 71  1  0  0  0  0
 44 46  1  0  0  0  0
 45 47  1  0  0  0  0
 45 48  1  0  0  0  0
 46 50  1  0  0  0  0
 47 52  1  0  0  0  0
 48 72  1  0  0  0  0
 49 52  1  0  0  0  0
 49 72  1  0  0  0  0
 50 75  1  0  0  0  0
 51 71  1  0  0  0  0
 52 70  1  0  0  0  0
 53 61  1  0  0  0  0
 54 67  1  0  0  0  0
 55 68  1  0  0  0  0
 56 68  1  0  0  0  0
 57 68  1  0  0  0  0
 58 77  1  0  0  0  0
 59 64  1  0  0  0  0
 60 65  1  0  0  0  0
 62 65  1  0  0  0  0
 63 84  1  0  0  0  0
 66 68  1  0  0  0  0
 66 76  1  0  0  0  0
 67 77  1  0  0  0  0
 69 70  1  0  0  0  0
M  CHG  1  77   1
M  ISO  4  38 100  63 101  64 100  84 101
M  END
> <Batch ID>
0132

> <Smiles>
C=C(CCCc1ccc(C[100CH2:0][100C:0](=O)N2CCCC(n3nc(-c4ccc(Oc5ccc(F)cc5F)cc4)c(C(N)=O)c3N)C2)cc1CC)[101CH2:1][101O:1]c1ccc2c(c1)CN(C(=O)C(NC(=O)C(C)NC)C(C)(C)C)C(C(=O)NC1CCCc3ccccc31)C2

> <Shape>
0.285

> <Color>
0.081

> <Negative vol penalty>
0.000

$$$$

  -OEChem-04052302283D

 84 92  0     1  0  0  0  0  0999 V2000
  -30.8383  -25.2593   19.0145 C   0  0  0  0  0  0  0  0  0  0  0  0
  -29.5097  -25.0595   19.3758 C   0  0  0  0  0  0  0  0  0  0  0  0
  -24.1513   -9.5910   21.8487 C   0  0  0  0  0  0  0  0  0  0  0  0
  -22.3177  -10.3877   20.4922 C   0  0  0  0  0  0  0  0  0  0  0  0
  -31.5500  -26.3340   19.5460 C   0  0  0  0  0  0  0  0  0  0  0  0
  -28.8924  -25.9338   20.2697 C   0  0  0  0  0  0  0  0  0  0  0  0
  -23.0308  -27.7076   20.2298 C   0  0  0  0  0  0  0  0  0  0  0  0
  -23.5618   -8.3280   21.9038 C   0  0  0  0  0  0  0  0  0  0  0  0
  -21.7282   -9.1247   20.5472 C   0  0  0  0  0  0  0  0  0  0  0  0
  -21.9165  -27.2798   20.9502 C   0  0  0  0  0  0  0  0  0  0  0  0
  -21.0600   -6.8195   23.6039 C   0  0  0  0  0  0  0  0  0  0  0  0
  -21.0158   -6.1792   24.8423 C   0  0  0  0  0  0  0  0  0  0  0  0
  -22.2583  -29.0703   22.5303 C   0  0  0  0  0  0  0  0  0  0  0  0
  -24.4152  -23.1780   23.5559 C   0  0  0  0  0  0  0  0  0  0  0  0
  -22.3139   -4.3506   23.9432 C   0  0  0  0  0  0  0  0  0  0  0  0
  -23.5292  -10.6208   21.1429 C   0  0  0  0  0  0  0  0  0  0  0  0
  -25.0524  -12.3962   20.1252 C   0  0  0  0  0  0  0  0  0  0  0  0
  -30.9382  -27.2274   20.4394 C   0  0  0  0  0  0  0  0  0  0  0  0
  -23.7750  -28.8152   20.6609 C   0  0  0  0  0  0  0  0  0  0  0  0
  -29.5970  -27.0207   20.8146 C   0  0  0  0  0  0  0  0  0  0  0  0
  -23.3802  -29.5116   21.8121 C   0  0  0  0  0  0  0  0  0  0  0  0
  -23.8989  -24.2598   24.3261 C   0  0  0  0  0  0  0  0  0  0  0  0
  -22.3502   -8.0949   21.2531 C   0  0  0  0  0  0  0  0  0  0  0  0
  -21.5318  -27.9595   22.1022 C   0  0  0  0  0  0  0  0  0  0  0  0
  -21.7311   -6.2253   22.5351 C   0  0  0  0  0  0  0  0  0  0  0  0
  -21.6427   -4.9448   25.0120 C   0  0  0  0  0  0  0  0  0  0  0  0
  -22.3580   -4.9909   22.7048 C   0  0  0  0  0  0  0  0  0  0  0  0
  -24.1374  -11.9258   21.0861 C   0  0  0  0  0  0  0  0  0  0  0  0
  -22.5273  -24.2045   24.4415 C   0  0  0  0  0  0  0  0  0  0  0  0
  -23.4185  -22.3368   23.1122 C   0  0  0  0  0  0  0  0  0  0  0  0
  -25.3249  -13.6854   20.5127 C   0  0  0  0  0  0  0  0  0  0  0  0
  -25.6065  -11.7275   18.9844 C   0  0  0  0  0  0  0  0  0  0  0  0
  -21.6013  -25.1326   25.1553 C   0  0  0  0  0  0  0  0  0  0  0  0
  -26.7754  -29.2715   21.6057 C   0  0  0  0  0  0  0  0  0  0  0  0
  -23.5149  -18.6086   22.1753 C   0  0  0  0  0  0  0  0  0  0  0  0
  -25.8886  -32.3917   21.6089 C   0  0  0  0  0  0  0  0  0  0  0  0
  -23.3724  -34.6883   21.8119 C   0  0  0  0  0  0  0  0  0  0  0  0
  -31.7620  -28.3472   21.0243 C   0  0  0  0  0  0  0  0  0  0  0  0
  -24.9587  -29.2801   19.8578 C   0  0  0  0  0  0  0  0  0  0  0  0
  -24.1333  -30.7189   22.3059 C   0  0  0  0  0  0  0  0  0  0  0  0
  -30.9236  -29.4444   21.6752 C   0  0  0  0  0  0  0  0  0  0  0  0
  -24.2102  -16.1591   24.7722 C   0  0  0  0  0  0  0  0  0  0  0  0
  -29.8508  -28.8351   22.5723 C   0  0  0  0  0  0  0  0  0  0  0  0
  -24.2983  -14.8683   23.9591 C   0  0  0  0  0  0  0  0  0  0  0  0
  -23.1642  -17.1125   24.2003 C   0  0  0  0  0  0  0  0  0  0  0  0
  -23.4577  -16.1462   21.9409 C   0  0  0  0  0  0  0  0  0  0  0  0
  -28.8851  -27.9616   21.7622 C   0  0  1  0  0  0  0  0  0  0  0  0
  -25.9461  -30.1088   20.6737 C   0  0  1  0  0  0  0  0  0  0  0  0
  -24.5232  -15.1701   22.4672 C   0  0  2  0  0  0  0  0  0  0  0  0
  -24.7038  -26.6273   24.1427 C   0  0  0  0  0  0  0  0  0  0  0  0
  -22.9610  -37.1638   21.8225 C   0  0  0  0  0  0  0  0  0  0  0  0
  -26.8866  -32.5428   24.4884 C   0  0  0  0  0  0  0  0  0  0  0  0
  -25.6117  -34.6823   24.7444 C   0  0  0  0  0  0  0  0  0  0  0  0
  -27.4625  -34.5270   23.0792 C   0  0  0  0  0  0  0  0  0  0  0  0
  -21.7090  -34.5394   19.3686 C   0  0  0  0  0  0  0  0  0  0  0  0
  -24.7508  -25.3146   24.9267 C   0  0  0  0  0  0  0  0  0  0  0  0
  -23.5442  -21.1127   22.2920 C   0  0  0  0  0  0  0  0  0  0  0  0
  -20.1866  -25.3051   24.6232 C   0  0  0  0  0  0  0  0  0  0  0  0
  -23.3940  -19.8035   23.0871 C   0  0  0  0  0  0  0  0  0  0  0  0
  -19.6309  -26.7003   24.9013 C   0  0  0  0  0  0  0  0  0  0  0  0
  -20.4545  -27.7804   24.2149 C   0  0  0  0  0  0  0  0  0  1  0  0
  -25.2826  -33.3298   22.6246 C   0  0  1  0  0  0  0  0  0  0  0  0
  -23.0523  -35.9090   20.9681 C   0  0  2  0  0  0  0  0  0  0  0  0
  -26.2976  -33.7466   23.7262 C   0  0  0  0  0  0  0  0  0  0  0  0
  -23.8480  -12.8417   22.0143 N   0  0  0  0  0  0  0  0  0  0  0  0
  -24.5856  -13.9004   21.6384 N   0  0  0  0  0  0  0  0  0  0  0  0
  -25.2873  -31.1307   21.4897 N   0  0  0  0  0  0  0  0  0  0  0  0
  -23.3971  -17.3526   22.7711 N   0  0  0  0  0  0  0  0  0  0  0  0
  -26.1224  -14.6447   19.9969 N   0  0  0  0  0  0  0  0  0  0  0  0
  -25.2192  -10.4043   18.7321 N   0  0  0  0  0  0  0  0  0  0  0  0
  -27.9402  -28.7874   21.0414 N   0  0  0  0  0  0  0  0  0  0  0  0
  -24.7290  -34.4479   21.8683 N   0  0  0  0  0  0  0  0  0  0  0  0
  -21.7524  -35.7248   20.2630 N   0  3  0  0  0  0  0  0  0  0  0  0
  -26.4335  -12.2813   18.2209 O   0  0  0  0  0  0  0  0  0  0  0  0
  -22.0018  -25.7315   26.1508 O   0  0  0  0  0  0  0  0  0  0  0  0
  -26.3881  -29.0800   22.7525 O   0  0  0  0  0  0  0  0  0  0  0  0
  -23.7109  -18.7880   20.9705 O   0  0  0  0  0  0  0  0  0  0  0  0
  -26.8554  -32.7665   20.9407 O   0  0  0  0  0  0  0  0  0  0  0  0
  -22.5060  -34.0175   22.3686 O   0  0  0  0  0  0  0  0  0  0  0  0
  -21.7748   -6.8626   21.3064 O   0  0  0  0  0  0  0  0  0  0  0  0
  -20.4449  -27.5437   22.8077 O   0  0  0  0  0  0  0  0  0  1  0  0
  -21.6015   -4.3308   26.2017 F   0  0  0  0  0  0  0  0  0  0  0  0
  -23.0053   -4.4157   21.6820 F   0  0  0  0  0  0  0  0  0  0  0  0
  -21.8677  -22.8524   23.6236 S   0  0  0  0  0  0  0  0  0  0  0  0
  1  2  1  0  0  0  0
  1  5  2  0  0  0  0
  2  6  2  0  0  0  0
  3  8  2  0  0  0  0
  3 16  1  0  0  0  0
  4  9  1  0  0  0  0
  4 16  2  0  0  0  0
  5 18  1  0  0  0  0
  6 20  1  0  0  0  0
  7 10  2  0  0  0  0
  7 19  1  0  0  0  0
  8 23  1  0  0  0  0
  9 23  2  0  0  0  0
 10 24  1  0  0  0  0
 11 12  2  0  0  0  0
 11 25  1  0  0  0  0
 12 26  1  0  0  0  0
 13 21  1  0  0  0  0
 13 24  2  0  0  0  0
 14 22  1  0  0  0  0
 14 30  2  0  0  0  0
 15 26  2  0  0  0  0
 15 27  1  0  0  0  0
 16 28  1  0  0  0  0
 17 28  1  0  0  0  0
 17 31  2  0  0  0  0
 17 32  1  0  0  0  0
 18 20  2  0  0  0  0
 18 38  1  0  0  0  0
 19 21  2  0  0  0  0
 19 39  1  0  0  0  0
 20 47  1  0  0  0  0
 21 40  1  0  0  0  0
 22 29  2  0  0  0  0
 22 56  1  0  0  0  0
 23 80  1  0  0  0  0
 24 81  1  0  0  0  0
 25 27  2  0  0  0  0
 25 80  1  0  0  0  0
 26 82  1  0  0  0  0
 27 83  1  0  0  0  0
 28 65  2  0  0  0  0
 29 33  1  0  0  0  0
 29 84  1  0  0  0  0
 30 57  1  0  0  0  0
 30 84  1  0  0  0  0
 31 66  1  0  0  0  0
 31 69  1  0  0  0  0
 32 70  1  0  0  0  0
 32 74  2  0  0  0  0
 33 58  1  0  0  0  0
 33 75  2  0  0  0  0
 34 48  1  0  0  0  0
 34 71  1  0  0  0  0
 34 76  2  0  0  0  0
 35 59  1  0  0  0  0
 35 68  1  0  0  0  0
 35 77  2  0  0  0  0
 36 62  1  0  0  0  0
 36 67  1  0  0  0  0
 36 78  2  0  0  0  0
 37 63  1  0  0  0  0
 37 72  1  0  0  0  0
 37 79  2  0  0  0  0
 38 41  1  0  0  0  0
 39 48  1  0  0  0  0
 40 67  1  0  0  0  0
 41 43  1  0  0  0  0
 42 44  1  0  0  0  0
 42 45  1  0  0  0  0
 43 47  1  0  0  0  0
 44 49  1  0  0  0  0
 45 68  1  0  0  0  0
 46 49  1  0  0  0  0
 46 68  1  0  0  0  0
 47 71  1  0  0  0  0
 48 67  1  0  0  0  0
 49 66  1  0  0  0  0
 50 56  1  0  0  0  0
 51 63  1  0  0  0  0
 52 64  1  0  0  0  0
 53 64  1  0  0  0  0
 54 64  1  0  0  0  0
 55 73  1  0  0  0  0
 57 59  1  0  0  0  0
 58 60  1  0  0  0  0
 60 61  1  0  0  0  0
 61 81  1  0  0  0  0
 62 64  1  0  0  0  0
 62 72  1  0  0  0  0
 63 73  1  0  0  0  0
 65 66  1  0  0  0  0
M  CHG  1  73   1
M  ISO  4  35 100  59 100  61 101  81 101
M  END
> <Batch ID>
0132

> <Smiles>
CCc1cc(C[100CH2:0][100C:0](=O)N2CCCC(n3nc(-c4ccc(Oc5ccc(F)cc5F)cc4)c(C(N)=O)c3N)C2)sc1C(=O)CC[101CH2:1][101O:1]c1ccc2c(c1)CN(C(=O)C(NC(=O)C(C)NC)C(C)(C)C)C(C(=O)NC1CCCc3ccccc31)C2

> <Shape>
0.280

> <Color>
0.098

> <Negative vol penalty>
0.000

$$$$

  -OEChem-04052302283D

 85 93  0     1  0  0  0  0  0999 V2000
  -25.0966  -31.5091   18.8044 C   0  0  0  0  0  0  0  0  0  0  0  0
  -24.9693  -30.3314   19.5340 C   0  0  0  0  0  0  0  0  0  0  0  0
  -23.0902   -9.8374   19.8762 C   0  0  0  0  0  0  0  0  0  0  0  0
  -23.9549   -9.6812   22.1268 C   0  0  0  0  0  0  0  0  0  0  0  0
  -24.3770  -32.6423   19.1811 C   0  0  0  0  0  0  0  0  0  0  0  0
  -24.1231  -30.2866   20.6414 C   0  0  0  0  0  0  0  0  0  0  0  0
  -21.2665  -26.1062   20.7356 C   0  0  0  0  0  0  0  0  0  0  0  0
  -28.9185  -17.9821   25.2209 C   0  0  0  0  0  0  0  0  0  0  0  0
  -22.3884   -8.6466   20.0632 C   0  0  0  0  0  0  0  0  0  0  0  0
  -23.2530   -8.4904   22.3138 C   0  0  0  0  0  0  0  0  0  0  0  0
  -21.8765  -24.9277   21.1631 C   0  0  0  0  0  0  0  0  0  0  0  0
  -28.2822  -19.1423   24.7800 C   0  0  0  0  0  0  0  0  0  0  0  0
  -20.0776   -7.5524   22.9902 C   0  0  0  0  0  0  0  0  0  0  0  0
  -19.3769   -7.3959   24.1860 C   0  0  0  0  0  0  0  0  0  0  0  0
  -20.8815  -25.2103   23.3424 C   0  0  0  0  0  0  0  0  0  0  0  0
  -29.2402  -18.8331   22.5837 C   0  0  0  0  0  0  0  0  0  0  0  0
  -20.7001   -5.4424   24.7056 C   0  0  0  0  0  0  0  0  0  0  0  0
  -23.8735  -10.3547   20.9080 C   0  0  0  0  0  0  0  0  0  0  0  0
  -24.1448  -12.8902   20.9807 C   0  0  0  0  0  0  0  0  0  0  0  0
  -23.5142  -32.6086   20.2879 C   0  0  0  0  0  0  0  0  0  0  0  0
  -20.4669  -26.8526   21.6130 C   0  0  0  0  0  0  0  0  0  0  0  0
  -23.3923  -31.4208   21.0340 C   0  0  0  0  0  0  0  0  0  0  0  0
  -20.2604  -26.3966   22.9228 C   0  0  0  0  0  0  0  0  0  0  0  0
  -29.7158  -17.2474   24.3433 C   0  0  0  0  0  0  0  0  0  0  0  0
  -29.8767  -17.6729   23.0247 C   0  0  0  0  0  0  0  0  0  0  0  0
  -22.4698   -7.9731   21.2819 C   0  0  0  0  0  0  0  0  0  0  0  0
  -21.6864  -24.4811   22.4675 C   0  0  0  0  0  0  0  0  0  0  0  0
  -28.4430  -19.5678   23.4614 C   0  0  0  0  0  0  0  0  0  0  0  0
  -21.0896   -6.6539   22.6520 C   0  0  0  0  0  0  0  0  0  0  0  0
  -19.6881   -6.3409   25.0437 C   0  0  0  0  0  0  0  0  0  0  0  0
  -21.4008   -5.5989   23.5097 C   0  0  0  0  0  0  0  0  0  0  0  0
  -24.5992  -11.5845   20.7153 C   0  0  0  0  0  0  0  0  0  0  0  0
  -25.1995  -13.6982   20.6325 C   0  0  0  0  0  0  0  0  0  0  0  0
  -22.8823  -13.3331   21.4960 C   0  0  0  0  0  0  0  0  0  0  0  0
  -20.6032  -29.7880   22.8250 C   0  0  0  0  0  0  0  0  0  0  0  0
  -17.6918  -29.0078   24.0238 C   0  0  0  0  0  0  0  0  0  0  0  0
  -15.5161  -26.5614   24.9872 C   0  0  0  0  0  0  0  0  0  0  0  0
  -30.6582  -14.8586   20.6625 C   0  0  0  0  0  0  0  0  0  0  0  0
  -22.7931  -33.8724   20.6850 C   0  0  0  0  0  0  0  0  0  0  0  0
  -19.7942  -28.1077   21.1285 C   0  0  0  0  0  0  0  0  0  0  0  0
  -19.3949  -27.1507   23.8979 C   0  0  0  0  0  0  0  0  0  0  0  0
  -21.6320  -33.6345   21.6470 C   0  0  0  0  0  0  0  0  0  0  0  0
  -29.4728  -12.6426   18.1404 C   0  0  0  0  0  0  0  0  0  0  0  0
  -22.0559  -32.6982   22.7742 C   0  0  0  0  0  0  0  0  0  0  0  0
  -28.0649  -12.2729   18.6106 C   0  0  0  0  0  0  0  0  0  0  0  0
  -30.4386  -12.7923   19.3139 C   0  0  0  0  0  0  0  0  0  0  0  0
  -28.5849  -13.3530   20.8381 C   0  0  0  0  0  0  0  0  0  0  0  0
  -22.4656  -31.3256   22.2266 C   0  0  1  0  0  0  0  0  0  0  0  0
  -19.4172  -29.0586   22.2603 C   0  0  1  0  0  0  0  0  0  0  0  0
  -27.5621  -13.2458   19.6941 C   0  0  2  0  0  0  0  0  0  0  0  0
  -31.6142  -16.3167   25.6911 C   0  0  0  0  0  0  0  0  0  0  0  0
  -13.2270  -26.2329   25.9618 C   0  0  0  0  0  0  0  0  0  0  0  0
  -18.7529  -29.7931   26.7747 C   0  0  0  0  0  0  0  0  0  0  0  0
  -16.8169  -28.5746   27.7923 C   0  0  0  0  0  0  0  0  0  0  0  0
  -16.4116  -30.5381   26.3080 C   0  0  0  0  0  0  0  0  0  0  0  0
  -14.5854  -25.0805   22.5998 C   0  0  0  0  0  0  0  0  0  0  0  0
  -30.3870  -16.0086   24.8385 C   0  0  0  0  0  0  0  0  0  0  0  0
  -30.7262  -16.9031   22.0676 C   0  0  0  0  0  0  0  0  0  0  0  0
  -24.3716  -22.1816   23.2596 C   0  0  0  0  0  0  0  0  0  0  0  0
  -25.7217  -21.8058   22.6589 C   0  0  0  0  0  0  0  0  0  0  0  0
  -23.5252  -22.9845   22.2807 C   0  0  0  0  0  0  0  0  0  1  0  0
  -26.5852  -21.0403   23.6515 C   0  0  0  0  0  0  0  0  0  0  0  0
  -17.1975  -28.3594   25.2943 C   0  0  1  0  0  0  0  0  0  0  0  0
  -14.0443  -26.3458   24.6842 C   0  0  2  0  0  0  0  0  0  0  0  0
  -17.3127  -29.3029   26.5248 C   0  0  0  0  0  0  0  0  0  0  0  0
  -25.8454  -11.5598   20.2353 N   0  0  0  0  0  0  0  0  0  0  0  0
  -26.1830  -12.8600   20.1963 N   0  0  0  0  0  0  0  0  0  0  0  0
  -18.7639  -28.3753   23.3786 N   0  0  0  0  0  0  0  0  0  0  0  0
  -29.9034  -13.7293   20.3046 N   0  0  0  0  0  0  0  0  0  0  0  0
  -25.3722  -15.0368   20.6598 N   0  0  0  0  0  0  0  0  0  0  0  0
  -21.9106  -12.3705   21.8017 N   0  0  0  0  0  0  0  0  0  0  0  0
  -21.2938  -30.5430   21.8964 N   0  0  0  0  0  0  0  0  0  0  0  0
  -15.8404  -27.9012   25.0176 N   0  0  0  0  0  0  0  0  0  0  0  0
  -30.0751  -15.6984   21.6034 N   0  0  0  0  0  0  0  0  0  0  0  0
  -13.8557  -25.0966   23.8937 N   0  3  0  0  0  0  0  0  0  0  0  0
  -22.6175  -14.5477   21.6645 O   0  0  0  0  0  0  0  0  0  0  0  0
  -20.8711  -29.6753   24.0155 O   0  0  0  0  0  0  0  0  0  0  0  0
  -17.1420  -30.0336   23.6149 O   0  0  0  0  0  0  0  0  0  0  0  0
  -16.2989  -25.6341   25.1815 O   0  0  0  0  0  0  0  0  0  0  0  0
  -31.7672  -15.1033   20.1752 O   0  0  0  0  0  0  0  0  0  0  0  0
  -21.7849   -6.8112   21.4648 O   0  0  0  0  0  0  0  0  0  0  0  0
  -22.2812  -23.3314   22.8875 O   0  0  0  0  0  0  0  0  0  1  0  0
  -27.8180  -20.7083   23.0280 O   0  0  0  0  0  0  0  0  0  0  0  0
  -19.0161   -6.1915   26.1928 F   0  0  0  0  0  0  0  0  0  0  0  0
  -22.3728   -4.7332   23.1908 F   0  0  0  0  0  0  0  0  0  0  0  0
  1  2  1  0  0  0  0
  1  5  2  0  0  0  0
  2  6  2  0  0  0  0
  3  9  2  0  0  0  0
  3 18  1  0  0  0  0
  4 10  1  0  0  0  0
  4 18  2  0  0  0  0
  5 20  1  0  0  0  0
  6 22  1  0  0  0  0
  7 11  2  0  0  0  0
  7 21  1  0  0  0  0
  8 12  2  0  0  0  0
  8 24  1  0  0  0  0
  9 26  1  0  0  0  0
 10 26  2  0  0  0  0
 11 27  1  0  0  0  0
 12 28  1  0  0  0  0
 13 14  2  0  0  0  0
 13 29  1  0  0  0  0
 14 30  1  0  0  0  0
 15 23  1  0  0  0  0
 15 27  2  0  0  0  0
 16 25  1  0  0  0  0
 16 28  2  0  0  0  0
 17 30  2  0  0  0  0
 17 31  1  0  0  0  0
 18 32  1  0  0  0  0
 19 32  1  0  0  0  0
 19 33  2  0  0  0  0
 19 34  1  0  0  0  0
 20 22  2  0  0  0  0
 20 39  1  0  0  0  0
 21 23  2  0  0  0  0
 21 40  1  0  0  0  0
 22 48  1  0  0  0  0
 23 41  1  0  0  0  0
 24 25  2  0  0  0  0
 24 57  1  0  0  0  0
 25 58  1  0  0  0  0
 26 81  1  0  0  0  0
 27 82  1  0  0  0  0
 28 83  1  0  0  0  0
 29 31  2  0  0  0  0
 29 81  1  0  0  0  0
 30 84  1  0  0  0  0
 31 85  1  0  0  0  0
 32 66  2  0  0  0  0
 33 67  1  0  0  0  0
 33 70  1  0  0  0  0
 34 71  1  0  0  0  0
 34 76  2  0  0  0  0
 35 49  1  0  0  0  0
 35 72  1  0  0  0  0
 35 77  2  0  0  0  0
 36 63  1  0  0  0  0
 36 68  1  0  0  0  0
 36 78  2  0  0  0  0
 37 64  1  0  0  0  0
 37 73  1  0  0  0  0
 37 79  2  0  0  0  0
 38 69  1  0  0  0  0
 38 74  1  0  0  0  0
 38 80  2  0  0  0  0
 39 42  1  0  0  0  0
 40 49  1  0  0  0  0
 41 68  1  0  0  0  0
 42 44  1  0  0  0  0
 43 45  1  0  0  0  0
 43 46  1  0  0  0  0
 44 48  1  0  0  0  0
 45 50  1  0  0  0  0
 46 69  1  0  0  0  0
 47 50  1  0  0  0  0
 47 69  1  0  0  0  0
 48 72  1  0  0  0  0
 49 68  1  0  0  0  0
 50 67  1  0  0  0  0
 51 57  1  0  0  0  0
 52 64  1  0  0  0  0
 53 65  1  0  0  0  0
 54 65  1  0  0  0  0
 55 65  1  0  0  0  0
 56 75  1  0  0  0  0
 58 74  1  0  0  0  0
 59 60  1  0  0  0  0
 59 61  1  0  0  0  0
 60 62  1  0  0  0  0
 61 82  1  0  0  0  0
 62 83  1  0  0  0  0
 63 65  1  0  0  0  0
 63 73  1  0  0  0  0
 64 75  1  0  0  0  0
 66 67  1  0  0  0  0
M  CHG  1  75   1
M  ISO  4  38 100  61 101  74 100  82 101
M  END
> <Batch ID>
0132

> <Smiles>
CCc1ccc(OCCC[101CH2:1][101O:1]c2ccc3c(c2)CN(C(=O)C(NC(=O)C(C)NC)C(C)(C)C)C(C(=O)NC2CCCc4ccccc42)C3)cc1C[100NH:0][100C:0](=O)N1CCCC(n2nc(-c3ccc(Oc4ccc(F)cc4F)cc3)c(C(N)=O)c2N)C1

> <Shape>
0.277

> <Color>
0.209

> <Negative vol penalty>
0.000

$$$$

  -OEChem-04052302283D

 86 94  0     1  0  0  0  0  0999 V2000
  -18.2603  -33.2756   23.4626 C   0  0  0  0  0  0  0  0  0  0  0  0
  -19.4522  -33.3584   22.7500 C   0  0  0  0  0  0  0  0  0  0  0  0
  -23.6455   -9.8321   22.2479 C   0  0  0  0  0  0  0  0  0  0  0  0
  -24.2922  -11.3960   23.9722 C   0  0  0  0  0  0  0  0  0  0  0  0
  -31.6622  -19.3473   19.5345 C   0  0  0  0  0  0  0  0  0  0  0  0
  -18.0519  -32.2207   24.3502 C   0  0  0  0  0  0  0  0  0  0  0  0
  -20.4370  -32.3869   22.9253 C   0  0  0  0  0  0  0  0  0  0  0  0
  -25.5859  -28.9436   19.3268 C   0  0  0  0  0  0  0  0  0  0  0  0
  -31.2694  -18.0133   19.4257 C   0  0  0  0  0  0  0  0  0  0  0  0
  -23.0925   -8.9936   23.2157 C   0  0  0  0  0  0  0  0  0  0  0  0
  -23.7392  -10.5575   24.9400 C   0  0  0  0  0  0  0  0  0  0  0  0
  -26.9449  -28.6445   19.4134 C   0  0  0  0  0  0  0  0  0  0  0  0
  -20.2559   -8.8371   25.0493 C   0  0  0  0  0  0  0  0  0  0  0  0
  -18.9973   -8.2932   24.7932 C   0  0  0  0  0  0  0  0  0  0  0  0
  -26.4425  -26.8243   20.9145 C   0  0  0  0  0  0  0  0  0  0  0  0
  -28.9513  -18.6893   19.5068 C   0  0  0  0  0  0  0  0  0  0  0  0
  -19.9285   -6.0688   24.9415 C   0  0  0  0  0  0  0  0  0  0  0  0
  -24.2454  -11.0333   22.6261 C   0  0  0  0  0  0  0  0  0  0  0  0
  -30.6995  -20.3523   19.6295 C   0  0  0  0  0  0  0  0  0  0  0  0
  -24.1695  -12.9368   20.9294 C   0  0  0  0  0  0  0  0  0  0  0  0
  -19.0307  -31.2305   24.5293 C   0  0  0  0  0  0  0  0  0  0  0  0
  -24.6444  -28.1908   20.0433 C   0  0  0  0  0  0  0  0  0  0  0  0
  -20.2421  -31.3185   23.8171 C   0  0  0  0  0  0  0  0  0  0  0  0
  -25.0719  -27.1142   20.8333 C   0  0  0  0  0  0  0  0  0  0  0  0
  -29.9139  -17.6843   19.4118 C   0  0  0  0  0  0  0  0  0  0  0  0
  -23.1393   -9.3563   24.5618 C   0  0  0  0  0  0  0  0  0  0  0  0
  -27.3736  -27.5865   20.2096 C   0  0  0  0  0  0  0  0  0  0  0  0
  -21.3509   -7.9969   25.2515 C   0  0  0  0  0  0  0  0  0  0  0  0
  -29.3441  -20.0233   19.6156 C   0  0  0  0  0  0  0  0  0  0  0  0
  -18.8336   -6.9090   24.7393 C   0  0  0  0  0  0  0  0  0  0  0  0
  -21.1871   -6.6128   25.1976 C   0  0  0  0  0  0  0  0  0  0  0  0
  -24.8174  -11.8996   21.6268 C   0  0  0  0  0  0  0  0  0  0  0  0
  -25.1374  -13.4507   20.1015 C   0  0  0  0  0  0  0  0  0  0  0  0
  -31.1400  -21.7522   19.7448 C   0  0  0  0  0  0  0  0  0  0  0  0
  -30.8535  -22.7264   18.8671 C   0  0  0  0  0  0  0  0  0  0  0  0
  -22.8140  -13.3948   21.0218 C   0  0  0  0  0  0  0  0  0  0  0  0
  -22.5360  -28.8299   22.3345 C   0  0  0  0  0  0  0  0  0  0  0  0
  -21.6382  -25.7543   21.8276 C   0  0  0  0  0  0  0  0  0  0  0  0
  -22.4719  -22.6396   20.7097 C   0  0  0  0  0  0  0  0  0  0  0  0
  -30.3421  -15.2110   19.1984 C   0  0  0  0  0  0  0  0  0  0  0  0
  -18.7795  -30.1350   25.5351 C   0  0  0  0  0  0  0  0  0  0  0  0
  -23.1797  -28.5095   19.9181 C   0  0  0  0  0  0  0  0  0  0  0  0
  -24.0995  -26.2626   21.6063 C   0  0  0  0  0  0  0  0  0  0  0  0
  -19.7200  -28.9421   25.3840 C   0  0  0  0  0  0  0  0  0  0  0  0
  -29.7478  -11.7095   18.9462 C   0  0  0  0  0  0  0  0  0  0  0  0
  -21.1612  -29.4155   25.2240 C   0  0  0  0  0  0  0  0  0  0  0  0
  -28.3588  -11.5321   19.5637 C   0  0  0  0  0  0  0  0  0  0  0  0
  -30.5587  -12.7813   19.6724 C   0  0  0  0  0  0  0  0  0  0  0  0
  -28.4993  -13.9032   20.4270 C   0  0  0  0  0  0  0  0  0  0  0  0
  -21.3242  -30.2705   23.9616 C   0  0  1  0  0  0  0  0  0  0  0  0
  -22.3546  -27.9994   21.0956 C   0  0  1  0  0  0  0  0  0  0  0  0
  -27.6213  -12.8797   19.6885 C   0  0  2  0  0  0  0  0  0  0  0  0
  -26.9974  -22.5248   18.5066 C   0  0  0  0  0  0  0  0  0  0  0  0
  -21.5418  -20.3224   20.4586 C   0  0  0  0  0  0  0  0  0  0  0  0
  -22.0050  -25.2855   24.8202 C   0  0  0  0  0  0  0  0  0  0  0  0
  -22.0000  -22.8237   24.3644 C   0  0  0  0  0  0  0  0  0  0  0  0
  -19.9836  -24.1928   23.8332 C   0  0  0  0  0  0  0  0  0  0  0  0
  -22.7894  -22.7056   17.7679 C   0  0  0  0  0  0  0  0  0  0  0  0
  -31.3313  -24.1430   19.0195 C   0  0  0  0  0  0  0  0  0  0  0  0
  -30.1860  -25.1604   19.0269 C   0  0  0  0  0  0  0  0  0  0  0  0
  -30.6715  -26.6083   19.1121 C   0  0  0  0  0  0  0  0  0  0  0  0
  -27.4645  -21.0895   18.6225 C   0  0  0  0  0  0  0  0  0  0  0  0
  -29.5059  -27.5870   19.1564 C   0  0  0  0  0  0  0  0  0  1  0  0
  -22.0476  -24.4146   22.3901 C   0  0  1  0  0  0  0  0  0  0  0  0
  -21.7486  -21.6725   19.7899 C   0  0  2  0  0  0  0  0  0  0  0  0
  -21.5278  -24.1962   23.8391 C   0  0  0  0  0  0  0  0  0  0  0  0
  -26.0978  -11.7613   21.2727 N   0  0  0  0  0  0  0  0  0  0  0  0
  -26.2623  -12.7184   20.3436 N   0  0  0  0  0  0  0  0  0  0  0  0
  -22.6786  -26.6178   21.4565 N   0  0  0  0  0  0  0  0  0  0  0  0
  -29.7988  -14.0309   19.7489 N   0  0  0  0  0  0  0  0  0  0  0  0
  -25.1276  -14.4529   19.1972 N   0  0  0  0  0  0  0  0  0  0  0  0
  -21.9527  -12.7553   21.9238 N   0  0  0  0  0  0  0  0  0  0  0  0
  -29.5152  -16.3291   19.3014 N   0  0  0  0  0  0  0  0  0  0  0  0
  -21.3753  -29.4296   22.7848 N   0  0  0  0  0  0  0  0  0  0  0  0
  -21.5892  -23.4130   21.4335 N   0  0  0  0  0  0  0  0  0  0  0  0
  -22.5321  -21.4625   18.5396 N   0  3  0  0  0  0  0  0  0  0  0  0
  -22.3750  -14.3322   20.3133 O   0  0  0  0  0  0  0  0  0  0  0  0
  -23.6464  -28.9189   22.8451 O   0  0  0  0  0  0  0  0  0  0  0  0
  -20.4393  -26.0220   21.7149 O   0  0  0  0  0  0  0  0  0  0  0  0
  -23.6973  -22.7001   20.7818 O   0  0  0  0  0  0  0  0  0  0  0  0
  -31.4472  -15.2223   18.6500 O   0  0  0  0  0  0  0  0  0  0  0  0
  -22.5996   -8.5385   25.5065 O   0  0  0  0  0  0  0  0  0  0  0  0
  -28.6995  -27.2929   20.2964 O   0  0  0  0  0  0  0  0  0  1  0  0
  -28.3830  -20.9864   19.7079 O   0  0  0  0  0  0  0  0  0  0  0  0
  -17.6246   -6.3868   24.4949 F   0  0  0  0  0  0  0  0  0  0  0  0
  -22.2351   -5.8005   25.3922 F   0  0  0  0  0  0  0  0  0  0  0  0
  1  2  1  0  0  0  0
  1  6  2  0  0  0  0
  2  7  2  0  0  0  0
  3 10  2  0  0  0  0
  3 18  1  0  0  0  0
  4 11  1  0  0  0  0
  4 18  2  0  0  0  0
  5  9  2  0  0  0  0
  5 19  1  0  0  0  0
  6 21  1  0  0  0  0
  7 23  1  0  0  0  0
  8 12  2  0  0  0  0
  8 22  1  0  0  0  0
  9 25  1  0  0  0  0
 10 26  1  0  0  0  0
 11 26  2  0  0  0  0
 12 27  1  0  0  0  0
 13 14  2  0  0  0  0
 13 28  1  0  0  0  0
 14 30  1  0  0  0  0
 15 24  1  0  0  0  0
 15 27  2  0  0  0  0
 16 25  2  0  0  0  0
 16 29  1  0  0  0  0
 17 30  2  0  0  0  0
 17 31  1  0  0  0  0
 18 32  1  0  0  0  0
 19 29  2  0  0  0  0
 19 34  1  0  0  0  0
 20 32  1  0  0  0  0
 20 33  2  0  0  0  0
 20 36  1  0  0  0  0
 21 23  2  0  0  0  0
 21 41  1  0  0  0  0
 22 24  2  0  0  0  0
 22 42  1  0  0  0  0
 23 50  1  0  0  0  0
 24 43  1  0  0  0  0
 25 73  1  0  0  0  0
 26 82  1  0  0  0  0
 27 83  1  0  0  0  0
 28 31  2  0  0  0  0
 28 82  1  0  0  0  0
 29 84  1  0  0  0  0
 30 85  1  0  0  0  0
 31 86  1  0  0  0  0
 32 67  2  0  0  0  0
 33 68  1  0  0  0  0
 33 71  1  0  0  0  0
 34 35  2  0  0  0  0
 35 59  1  0  0  0  0
 36 72  1  0  0  0  0
 36 77  2  0  0  0  0
 37 51  1  0  0  0  0
 37 74  1  0  0  0  0
 37 78  2  0  0  0  0
 38 64  1  0  0  0  0
 38 69  1  0  0  0  0
 38 79  2  0  0  0  0
 39 65  1  0  0  0  0
 39 75  1  0  0  0  0
 39 80  2  0  0  0  0
 40 70  1  0  0  0  0
 40 73  1  0  0  0  0
 40 81  2  0  0  0  0
 41 44  1  0  0  0  0
 42 51  1  0  0  0  0
 43 69  1  0  0  0  0
 44 46  1  0  0  0  0
 45 47  1  0  0  0  0
 45 48  1  0  0  0  0
 46 50  1  0  0  0  0
 47 52  1  0  0  0  0
 48 70  1  0  0  0  0
 49 52  1  0  0  0  0
 49 70  1  0  0  0  0
 50 74  1  0  0  0  0
 51 69  1  0  0  0  0
 52 68  1  0  0  0  0
 53 62  1  0  0  0  0
 54 65  1  0  0  0  0
 55 66  1  0  0  0  0
 56 66  1  0  0  0  0
 57 66  1  0  0  0  0
 58 76  1  0  0  0  0
 59 60  1  0  0  0  0
 60 61  1  0  0  0  0
 61 63  1  0  0  0  0
 62 84  1  0  0  0  0
 63 83  1  0  0  0  0
 64 66  1  0  0  0  0
 64 75  1  0  0  0  0
 65 76  1  0  0  0  0
 67 68  1  0  0  0  0
M  CHG  1  76   1
M  ISO  4  40 100  63 101  73 100  83 101
M  END
> <Batch ID>
0132

> <Smiles>
CCOc1cc([100NH:0][100C:0](=O)N2CCCC(n3nc(-c4ccc(Oc5ccc(F)cc5F)cc4)c(C(N)=O)c3N)C2)ccc1C=CCCC[101CH2:1][101O:1]c1ccc2c(c1)CN(C(=O)C(NC(=O)C(C)NC)C(C)(C)C)C(C(=O)NC1CCCc3ccccc31)C2

> <Shape>
0.260

> <Color>
0.169

> <Negative vol penalty>
0.000

$$$$

  -OEChem-04052302283D

 86 94  0     1  0  0  0  0  0999 V2000
  -25.0963  -31.5090   18.8035 C   0  0  0  0  0  0  0  0  0  0  0  0
  -24.9691  -30.3314   19.5331 C   0  0  0  0  0  0  0  0  0  0  0  0
  -23.0905   -9.8374   19.8765 C   0  0  0  0  0  0  0  0  0  0  0  0
  -23.9551   -9.6813   22.1271 C   0  0  0  0  0  0  0  0  0  0  0  0
  -24.3767  -32.6423   19.1801 C   0  0  0  0  0  0  0  0  0  0  0  0
  -24.1228  -30.2866   20.6405 C   0  0  0  0  0  0  0  0  0  0  0  0
  -21.2663  -26.1061   20.7348 C   0  0  0  0  0  0  0  0  0  0  0  0
  -28.9184  -17.9825   25.2210 C   0  0  0  0  0  0  0  0  0  0  0  0
  -22.3887   -8.6465   20.0635 C   0  0  0  0  0  0  0  0  0  0  0  0
  -23.2532   -8.4905   22.3141 C   0  0  0  0  0  0  0  0  0  0  0  0
  -21.8763  -24.9276   21.1624 C   0  0  0  0  0  0  0  0  0  0  0  0
  -28.2820  -19.1427   24.7799 C   0  0  0  0  0  0  0  0  0  0  0  0
  -20.0778   -7.5525   22.9905 C   0  0  0  0  0  0  0  0  0  0  0  0
  -19.3770   -7.3960   24.1863 C   0  0  0  0  0  0  0  0  0  0  0  0
  -20.8813  -25.2104   23.3417 C   0  0  0  0  0  0  0  0  0  0  0  0
  -29.2402  -18.8334   22.5837 C   0  0  0  0  0  0  0  0  0  0  0  0
  -20.7003   -5.4425   24.7061 C   0  0  0  0  0  0  0  0  0  0  0  0
  -23.8737  -10.3548   20.9083 C   0  0  0  0  0  0  0  0  0  0  0  0
  -24.1449  -12.8903   20.9809 C   0  0  0  0  0  0  0  0  0  0  0  0
  -23.5138  -32.6086   20.2869 C   0  0  0  0  0  0  0  0  0  0  0  0
  -20.4666  -26.8526   21.6122 C   0  0  0  0  0  0  0  0  0  0  0  0
  -23.3920  -31.4208   21.0330 C   0  0  0  0  0  0  0  0  0  0  0  0
  -20.2602  -26.3967   22.9220 C   0  0  0  0  0  0  0  0  0  0  0  0
  -29.7158  -17.2478   24.3434 C   0  0  0  0  0  0  0  0  0  0  0  0
  -29.8766  -17.6732   23.0248 C   0  0  0  0  0  0  0  0  0  0  0  0
  -22.4700   -7.9731   21.2823 C   0  0  0  0  0  0  0  0  0  0  0  0
  -21.6862  -24.4811   22.4669 C   0  0  0  0  0  0  0  0  0  0  0  0
  -28.4429  -19.5681   23.4613 C   0  0  0  0  0  0  0  0  0  0  0  0
  -21.0898   -6.6540   22.6524 C   0  0  0  0  0  0  0  0  0  0  0  0
  -19.6883   -6.3410   25.0441 C   0  0  0  0  0  0  0  0  0  0  0  0
  -21.4011   -5.5990   23.5102 C   0  0  0  0  0  0  0  0  0  0  0  0
  -24.5994  -11.5845   20.7155 C   0  0  0  0  0  0  0  0  0  0  0  0
  -25.1996  -13.6983   20.6326 C   0  0  0  0  0  0  0  0  0  0  0  0
  -22.8824  -13.3332   21.4961 C   0  0  0  0  0  0  0  0  0  0  0  0
  -20.6029  -29.7880   22.8240 C   0  0  0  0  0  0  0  0  0  0  0  0
  -17.6914  -29.0078   24.0228 C   0  0  0  0  0  0  0  0  0  0  0  0
  -15.5157  -26.5614   24.9862 C   0  0  0  0  0  0  0  0  0  0  0  0
  -30.6583  -14.8588   20.6627 C   0  0  0  0  0  0  0  0  0  0  0  0
  -22.7927  -33.8723   20.6838 C   0  0  0  0  0  0  0  0  0  0  0  0
  -19.7940  -28.1076   21.1276 C   0  0  0  0  0  0  0  0  0  0  0  0
  -19.3946  -27.1507   23.8970 C   0  0  0  0  0  0  0  0  0  0  0  0
  -21.6316  -33.6345   21.6459 C   0  0  0  0  0  0  0  0  0  0  0  0
  -29.4731  -12.6426   18.1408 C   0  0  0  0  0  0  0  0  0  0  0  0
  -22.0555  -32.6982   22.7731 C   0  0  0  0  0  0  0  0  0  0  0  0
  -28.0652  -12.2729   18.6109 C   0  0  0  0  0  0  0  0  0  0  0  0
  -30.4388  -12.7924   19.3142 C   0  0  0  0  0  0  0  0  0  0  0  0
  -28.5850  -13.3532   20.8384 C   0  0  0  0  0  0  0  0  0  0  0  0
  -22.4652  -31.3257   22.2256 C   0  0  1  0  0  0  0  0  0  0  0  0
  -19.4168  -29.0586   22.2593 C   0  0  1  0  0  0  0  0  0  0  0  0
  -27.5623  -13.2458   19.6943 C   0  0  2  0  0  0  0  0  0  0  0  0
  -32.2818  -15.0647   26.2289 C   0  0  0  0  0  0  0  0  0  0  0  0
  -13.2266  -26.2330   25.9607 C   0  0  0  0  0  0  0  0  0  0  0  0
  -18.7524  -29.7933   26.7736 C   0  0  0  0  0  0  0  0  0  0  0  0
  -16.8164  -28.5748   27.7913 C   0  0  0  0  0  0  0  0  0  0  0  0
  -16.4111  -30.5382   26.3068 C   0  0  0  0  0  0  0  0  0  0  0  0
  -14.5852  -25.0803   22.5989 C   0  0  0  0  0  0  0  0  0  0  0  0
  -30.3869  -16.0090   24.8387 C   0  0  0  0  0  0  0  0  0  0  0  0
  -30.7262  -16.9034   22.0677 C   0  0  0  0  0  0  0  0  0  0  0  0
  -31.6195  -16.3261   25.6978 C   0  0  0  0  0  0  0  0  0  0  0  0
  -24.3714  -22.1818   23.2592 C   0  0  0  0  0  0  0  0  0  0  0  0
  -25.7215  -21.8059   22.6586 C   0  0  0  0  0  0  0  0  0  0  0  0
  -23.5251  -22.9846   22.2802 C   0  0  0  0  0  0  0  0  0  1  0  0
  -26.5850  -21.0405   23.6513 C   0  0  0  0  0  0  0  0  0  0  0  0
  -17.1971  -28.3595   25.2933 C   0  0  1  0  0  0  0  0  0  0  0  0
  -14.0439  -26.3458   24.6832 C   0  0  2  0  0  0  0  0  0  0  0  0
  -17.3122  -29.3030   26.5237 C   0  0  0  0  0  0  0  0  0  0  0  0
  -25.8456  -11.5599   20.2356 N   0  0  0  0  0  0  0  0  0  0  0  0
  -26.1832  -12.8601   20.1966 N   0  0  0  0  0  0  0  0  0  0  0  0
  -18.7636  -28.3754   23.3776 N   0  0  0  0  0  0  0  0  0  0  0  0
  -29.9036  -13.7295   20.3049 N   0  0  0  0  0  0  0  0  0  0  0  0
  -25.3723  -15.0369   20.6599 N   0  0  0  0  0  0  0  0  0  0  0  0
  -21.9107  -12.3705   21.8018 N   0  0  0  0  0  0  0  0  0  0  0  0
  -21.2935  -30.5430   21.8954 N   0  0  0  0  0  0  0  0  0  0  0  0
  -15.8400  -27.9013   25.0165 N   0  0  0  0  0  0  0  0  0  0  0  0
  -30.0752  -15.6986   21.6036 N   0  0  0  0  0  0  0  0  0  0  0  0
  -13.8554  -25.0965   23.8928 N   0  3  0  0  0  0  0  0  0  0  0  0
  -22.6176  -14.5477   21.6645 O   0  0  0  0  0  0  0  0  0  0  0  0
  -20.8707  -29.6754   24.0145 O   0  0  0  0  0  0  0  0  0  0  0  0
  -17.1416  -30.0336   23.6138 O   0  0  0  0  0  0  0  0  0  0  0  0
  -16.2986  -25.6341   25.1806 O   0  0  0  0  0  0  0  0  0  0  0  0
  -31.7673  -15.1035   20.1756 O   0  0  0  0  0  0  0  0  0  0  0  0
  -21.7852   -6.8112   21.4652 O   0  0  0  0  0  0  0  0  0  0  0  0
  -22.2810  -23.3315   22.8870 O   0  0  0  0  0  0  0  0  0  1  0  0
  -27.8179  -20.7085   23.0278 O   0  0  0  0  0  0  0  0  0  0  0  0
  -19.0162   -6.1917   26.1931 F   0  0  0  0  0  0  0  0  0  0  0  0
  -22.3730   -4.7333   23.1914 F   0  0  0  0  0  0  0  0  0  0  0  0
  1  2  1  0  0  0  0
  1  5  2  0  0  0  0
  2  6  2  0  0  0  0
  3  9  2  0  0  0  0
  3 18  1  0  0  0  0
  4 10  1  0  0  0  0
  4 18  2  0  0  0  0
  5 20  1  0  0  0  0
  6 22  1  0  0  0  0
  7 11  2  0  0  0  0
  7 21  1  0  0  0  0
  8 12  2  0  0  0  0
  8 24  1  0  0  0  0
  9 26  1  0  0  0  0
 10 26  2  0  0  0  0
 11 27  1  0  0  0  0
 12 28  1  0  0  0  0
 13 14  2  0  0  0  0
 13 29  1  0  0  0  0
 14 30  1  0  0  0  0
 15 23  1  0  0  0  0
 15 27  2  0  0  0  0
 16 25  1  0  0  0  0
 16 28  2  0  0  0  0
 17 30  2  0  0  0  0
 17 31  1  0  0  0  0
 18 32  1  0  0  0  0
 19 32  1  0  0  0  0
 19 33  2  0  0  0  0
 19 34  1  0  0  0  0
 20 22  2  0  0  0  0
 20 39  1  0  0  0  0
 21 23  2  0  0  0  0
 21 40  1  0  0  0  0
 22 48  1  0  0  0  0
 23 41  1  0  0  0  0
 24 25  2  0  0  0  0
 24 57  1  0  0  0  0
 25 58  1  0  0  0  0
 26 82  1  0  0  0  0
 27 83  1  0  0  0  0
 28 84  1  0  0  0  0
 29 31  2  0  0  0  0
 29 82  1  0  0  0  0
 30 85  1  0  0  0  0
 31 86  1  0  0  0  0
 32 67  2  0  0  0  0
 33 68  1  0  0  0  0
 33 71  1  0  0  0  0
 34 72  1  0  0  0  0
 34 77  2  0  0  0  0
 35 49  1  0  0  0  0
 35 73  1  0  0  0  0
 35 78  2  0  0  0  0
 36 64  1  0  0  0  0
 36 69  1  0  0  0  0
 36 79  2  0  0  0  0
 37 65  1  0  0  0  0
 37 74  1  0  0  0  0
 37 80  2  0  0  0  0
 38 70  1  0  0  0  0
 38 75  1  0  0  0  0
 38 81  2  0  0  0  0
 39 42  1  0  0  0  0
 40 49  1  0  0  0  0
 41 69  1  0  0  0  0
 42 44  1  0  0  0  0
 43 45  1  0  0  0  0
 43 46  1  0  0  0  0
 44 48  1  0  0  0  0
 45 50  1  0  0  0  0
 46 70  1  0  0  0  0
 47 50  1  0  0  0  0
 47 70  1  0  0  0  0
 48 73  1  0  0  0  0
 49 69  1  0  0  0  0
 50 68  1  0  0  0  0
 51 59  1  0  0  0  0
 52 65  1  0  0  0  0
 53 66  1  0  0  0  0
 54 66  1  0  0  0  0
 55 66  1  0  0  0  0
 56 76  1  0  0  0  0
 57 59  1  0  0  0  0
 58 75  1  0  0  0  0
 60 61  1  0  0  0  0
 60 62  1  0  0  0  0
 61 63  1  0  0  0  0
 62 83  1  0  0  0  0
 63 84  1  0  0  0  0
 64 66  1  0  0  0  0
 64 74  1  0  0  0  0
 65 76  1  0  0  0  0
 67 68  1  0  0  0  0
M  CHG  1  76   1
M  ISO  4  38 100  62 101  75 100  83 101
M  END
> <Batch ID>
0132

> <Smiles>
CCCc1ccc(OCCC[101CH2:1][101O:1]c2ccc3c(c2)CN(C(=O)C(NC(=O)C(C)NC)C(C)(C)C)C(C(=O)NC2CCCc4ccccc42)C3)cc1C[100NH:0][100C:0](=O)N1CCCC(n2nc(-c3ccc(Oc4ccc(F)cc4F)cc3)c(C(N)=O)c2N)C1

> <Shape>
0.276

> <Color>
0.209

> <Negative vol penalty>
0.000

$$$$

  -OEChem-04052302283D

 84 92  0     1  0  0  0  0  0999 V2000
  -19.5685  -25.0201   25.1434 C   0  0  0  0  0  0  0  0  0  0  0  0
  -20.8404  -24.8934   24.5941 C   0  0  0  0  0  0  0  0  0  0  0  0
  -22.4532  -15.4305   22.9681 C   0  0  0  0  0  0  0  0  0  0  0  0
  -23.1476  -17.6791   22.4218 C   0  0  0  0  0  0  0  0  0  0  0  0
  -18.6456  -25.8924   24.5679 C   0  0  0  0  0  0  0  0  0  0  0  0
  -21.1897  -25.6381   23.4682 C   0  0  0  0  0  0  0  0  0  0  0  0
  -26.6954  -27.9847   22.1692 C   0  0  0  0  0  0  0  0  0  0  0  0
  -30.0588  -20.9333   17.5866 C   0  0  0  0  0  0  0  0  0  0  0  0
  -30.5306  -19.6367   17.7909 C   0  0  0  0  0  0  0  0  0  0  0  0
  -21.7339  -15.9177   24.0594 C   0  0  0  0  0  0  0  0  0  0  0  0
  -22.4283  -18.1664   23.5130 C   0  0  0  0  0  0  0  0  0  0  0  0
  -27.7330  -27.5441   21.3488 C   0  0  0  0  0  0  0  0  0  0  0  0
  -19.2071  -18.8638   24.2601 C   0  0  0  0  0  0  0  0  0  0  0  0
  -18.4187  -19.9971   24.0608 C   0  0  0  0  0  0  0  0  0  0  0  0
  -26.9147  -28.9510   19.5683 C   0  0  0  0  0  0  0  0  0  0  0  0
  -29.9935  -21.2861   19.9758 C   0  0  0  0  0  0  0  0  0  0  0  0
  -19.6906  -21.1774   25.7419 C   0  0  0  0  0  0  0  0  0  0  0  0
  -23.1601  -16.3112   22.1493 C   0  0  0  0  0  0  0  0  0  0  0  0
  -23.4370  -15.6329   19.7058 C   0  0  0  0  0  0  0  0  0  0  0  0
  -18.9870  -26.6554   23.4401 C   0  0  0  0  0  0  0  0  0  0  0  0
  -25.7517  -28.9051   21.6909 C   0  0  0  0  0  0  0  0  0  0  0  0
  -20.2701  -26.5204   22.8762 C   0  0  0  0  0  0  0  0  0  0  0  0
  -25.8676  -29.4037   20.3855 C   0  0  0  0  0  0  0  0  0  0  0  0
  -29.7902  -21.7580   18.6790 C   0  0  0  0  0  0  0  0  0  0  0  0
  -30.7339  -19.1648   19.0877 C   0  0  0  0  0  0  0  0  0  0  0  0
  -30.4653  -19.9895   20.1802 C   0  0  0  0  0  0  0  0  0  0  0  0
  -21.7214  -17.2857   24.3318 C   0  0  0  0  0  0  0  0  0  0  0  0
  -27.8411  -28.0250   20.0473 C   0  0  0  0  0  0  0  0  0  0  0  0
  -20.2372  -18.8872   25.2003 C   0  0  0  0  0  0  0  0  0  0  0  0
  -18.6605  -21.1539   24.8017 C   0  0  0  0  0  0  0  0  0  0  0  0
  -20.4790  -20.0440   25.9412 C   0  0  0  0  0  0  0  0  0  0  0  0
  -23.9038  -15.8084   21.0223 C   0  0  0  0  0  0  0  0  0  0  0  0
  -24.5183  -15.1337   19.0218 C   0  0  0  0  0  0  0  0  0  0  0  0
  -22.1417  -15.8975   19.1508 C   0  0  0  0  0  0  0  0  0  0  0  0
  -22.6079  -28.8568   21.2242 C   0  0  0  0  0  0  0  0  0  0  0  0
  -23.0559  -31.9927   20.5260 C   0  0  0  0  0  0  0  0  0  0  0  0
  -25.1790  -34.4556   19.4898 C   0  0  0  0  0  0  0  0  0  0  0  0
  -30.4287  -15.5105   19.9031 C   0  0  0  0  0  0  0  0  0  0  0  0
  -17.9401  -27.5498   22.8247 C   0  0  0  0  0  0  0  0  0  0  0  0
  -24.6539  -29.3908   22.5971 C   0  0  0  0  0  0  0  0  0  0  0  0
  -24.8921  -30.4083   19.8308 C   0  0  0  0  0  0  0  0  0  0  0  0
  -18.5132  -28.5817   21.8568 C   0  0  0  0  0  0  0  0  0  0  0  0
  -28.4845  -12.5370   19.6683 C   0  0  0  0  0  0  0  0  0  0  0  0
  -19.5075  -27.9256   20.9040 C   0  0  0  0  0  0  0  0  0  0  0  0
  -27.0479  -13.0224   19.8699 C   0  0  0  0  0  0  0  0  0  0  0  0
  -29.4704  -13.3158   20.5364 C   0  0  0  0  0  0  0  0  0  0  0  0
  -27.9658  -15.2670   20.5897 C   0  0  0  0  0  0  0  0  0  0  0  0
  -20.6947  -27.3297   21.6700 C   0  0  1  0  0  0  0  0  0  0  0  0
  -23.4505  -29.9396   21.8369 C   0  0  1  0  0  0  0  0  0  0  0  0
  -26.9420  -14.5492   19.6937 C   0  0  2  0  0  0  0  0  0  0  0  0
  -30.6750  -19.5058   21.5776 C   0  0  0  0  0  0  0  0  0  0  0  0
  -25.2474  -36.9116   18.9794 C   0  0  0  0  0  0  0  0  0  0  0  0
  -31.0489  -26.5310   17.6357 C   0  0  0  0  0  0  0  0  0  0  0  0
  -21.6161  -31.4815   17.8849 C   0  0  0  0  0  0  0  0  0  0  0  0
  -22.5371  -33.6519   17.0428 C   0  0  0  0  0  0  0  0  0  0  0  0
  -21.0021  -33.6294   19.0090 C   0  0  0  0  0  0  0  0  0  0  0  0
  -27.2030  -34.9540   21.5907 C   0  0  0  0  0  0  0  0  0  0  0  0
  -29.2795  -23.1598   18.4577 C   0  0  0  0  0  0  0  0  0  0  0  0
  -31.2387  -17.7726   19.2817 C   0  0  0  0  0  0  0  0  0  0  0  0
  -30.3873  -24.2150   18.3324 C   0  0  0  0  0  0  0  0  0  0  0  0
  -29.3436  -26.2750   19.4677 C   0  0  0  0  0  0  0  0  0  1  0  0
  -23.3669  -32.7752   19.2730 C   0  0  1  0  0  0  0  0  0  0  0  0
  -25.4580  -35.8425   20.0402 C   0  0  2  0  0  0  0  0  0  0  0  0
  -29.8966  -25.6707   18.1699 C   0  0  1  0  0  0  0  0  0  0  0  0
  -22.1480  -32.8641   18.3119 C   0  0  0  0  0  0  0  0  0  0  0  0
  -25.1820  -15.4497   21.1682 N   0  0  0  0  0  0  0  0  0  0  0  0
  -25.5277  -15.0437   19.9346 N   0  0  0  0  0  0  0  0  0  0  0  0
  -23.8325  -30.8477   20.7536 N   0  0  0  0  0  0  0  0  0  0  0  0
  -29.3194  -14.7568   20.3208 N   0  0  0  0  0  0  0  0  0  0  0  0
  -24.6948  -14.7672   17.7345 N   0  0  0  0  0  0  0  0  0  0  0  0
  -21.1456  -16.4091   19.9936 N   0  0  0  0  0  0  0  0  0  0  0  0
  -21.6195  -28.3725   22.0597 N   0  0  0  0  0  0  0  0  0  0  0  0
  -23.8747  -34.0693   19.7153 N   0  0  0  0  0  0  0  0  0  0  0  0
  -30.1977  -16.8679   19.7160 N   0  0  0  0  0  0  0  0  0  0  0  0
  -26.8636  -35.9337   20.5268 N   0  3  0  0  0  0  0  0  0  0  0  0
  -21.8709  -15.6712   17.9471 O   0  0  0  0  0  0  0  0  0  0  0  0
  -22.8365  -28.4891   20.0779 O   0  0  0  0  0  0  0  0  0  0  0  0
  -22.1619  -32.3870   21.2789 O   0  0  0  0  0  0  0  0  0  0  0  0
  -26.0318  -33.7836   18.9138 O   0  0  0  0  0  0  0  0  0  0  0  0
  -31.5411  -15.0099   19.7060 O   0  0  0  0  0  0  0  0  0  0  0  0
  -21.0195  -17.7615   25.3964 O   0  0  0  0  0  0  0  0  0  0  0  0
  -28.8526  -27.5961   19.2442 O   0  0  0  0  0  0  0  0  0  1  0  0
  -17.9044  -22.2426   24.6092 F   0  0  0  0  0  0  0  0  0  0  0  0
  -21.4679  -20.0730   26.8451 F   0  0  0  0  0  0  0  0  0  0  0  0
  1  2  1  0  0  0  0
  1  5  2  0  0  0  0
  2  6  2  0  0  0  0
  3 10  2  0  0  0  0
  3 18  1  0  0  0  0
  4 11  1  0  0  0  0
  4 18  2  0  0  0  0
  5 20  1  0  0  0  0
  6 22  1  0  0  0  0
  7 12  2  0  0  0  0
  7 21  1  0  0  0  0
  8  9  2  0  0  0  0
  8 24  1  0  0  0  0
  9 25  1  0  0  0  0
 10 27  1  0  0  0  0
 11 27  2  0  0  0  0
 12 28  1  0  0  0  0
 13 14  2  0  0  0  0
 13 29  1  0  0  0  0
 14 30  1  0  0  0  0
 15 23  1  0  0  0  0
 15 28  2  0  0  0  0
 16 24  2  0  0  0  0
 16 26  1  0  0  0  0
 17 30  2  0  0  0  0
 17 31  1  0  0  0  0
 18 32  1  0  0  0  0
 19 32  1  0  0  0  0
 19 33  2  0  0  0  0
 19 34  1  0  0  0  0
 20 22  2  0  0  0  0
 20 39  1  0  0  0  0
 21 23  2  0  0  0  0
 21 40  1  0  0  0  0
 22 48  1  0  0  0  0
 23 41  1  0  0  0  0
 24 58  1  0  0  0  0
 25 26  2  0  0  0  0
 25 59  1  0  0  0  0
 26 51  1  0  0  0  0
 27 81  1  0  0  0  0
 28 82  1  0  0  0  0
 29 31  2  0  0  0  0
 29 81  1  0  0  0  0
 30 83  1  0  0  0  0
 31 84  1  0  0  0  0
 32 66  2  0  0  0  0
 33 67  1  0  0  0  0
 33 70  1  0  0  0  0
 34 71  1  0  0  0  0
 34 76  2  0  0  0  0
 35 49  1  0  0  0  0
 35 72  1  0  0  0  0
 35 77  2  0  0  0  0
 36 62  1  0  0  0  0
 36 68  1  0  0  0  0
 36 78  2  0  0  0  0
 37 63  1  0  0  0  0
 37 73  1  0  0  0  0
 37 79  2  0  0  0  0
 38 69  1  0  0  0  0
 38 74  1  0  0  0  0
 38 80  2  0  0  0  0
 39 42  1  0  0  0  0
 40 49  1  0  0  0  0
 41 68  1  0  0  0  0
 42 44  1  0  0  0  0
 43 45  1  0  0  0  0
 43 46  1  0  0  0  0
 44 48  1  0  0  0  0
 45 50  1  0  0  0  0
 46 69  1  0  0  0  0
 47 50  1  0  0  0  0
 47 69  1  0  0  0  0
 48 72  1  0  0  0  0
 49 68  1  0  0  0  0
 50 67  1  0  0  0  0
 52 63  1  0  0  0  0
 53 64  1  0  0  0  0
 54 65  1  0  0  0  0
 55 65  1  0  0  0  0
 56 65  1  0  0  0  0
 57 75  1  0  0  0  0
 58 60  1  0  0  0  0
 59 74  1  0  0  0  0
 60 64  1  0  0  0  0
 61 64  1  0  0  0  0
 61 82  1  0  0  0  0
 62 65  1  0  0  0  0
 62 73  1  0  0  0  0
 63 75  1  0  0  0  0
 66 67  1  0  0  0  0
M  CHG  1  75   1
M  ISO  4  38 100  61 101  74 100  82 101
M  END
> <Batch ID>
0132

> <Smiles>
CNC(C)C(=O)NC(C(=O)N1Cc2cc([101O:1][101CH2:1]C(C)CCc3ccc(C[100NH:0][100C:0](=O)N4CCCC(n5nc(-c6ccc(Oc7ccc(F)cc7F)cc6)c(C(N)=O)c5N)C4)c(C)c3)ccc2CC1C(=O)NC1CCCc2ccccc21)C(C)(C)C

> <Shape>
0.214

> <Color>
0.078

> <Negative vol penalty>
0.000

$$$$

  -OEChem-04052302283D

 84 92  0     1  0  0  0  0  0999 V2000
  -22.3985  -34.5391   20.4995 C   0  0  0  0  0  0  0  0  0  0  0  0
  -23.4738  -33.6700   20.6534 C   0  0  0  0  0  0  0  0  0  0  0  0
  -24.2183   -9.4832   22.0372 C   0  0  0  0  0  0  0  0  0  0  0  0
  -23.4506   -9.3624   19.7496 C   0  0  0  0  0  0  0  0  0  0  0  0
  -31.0946  -20.6485   19.8701 C   0  0  0  0  0  0  0  0  0  0  0  0
  -31.3342  -22.0163   19.7395 C   0  0  0  0  0  0  0  0  0  0  0  0
  -21.1810  -34.2562   21.1171 C   0  0  0  0  0  0  0  0  0  0  0  0
  -23.3325  -32.5178   21.4260 C   0  0  0  0  0  0  0  0  0  0  0  0
  -25.3270  -28.4295   19.2005 C   0  0  0  0  0  0  0  0  0  0  0  0
  -23.1971   -8.6163   22.4258 C   0  0  0  0  0  0  0  0  0  0  0  0
  -22.4293   -8.4953   20.1382 C   0  0  0  0  0  0  0  0  0  0  0  0
  -26.7128  -28.2873   19.2549 C   0  0  0  0  0  0  0  0  0  0  0  0
  -22.5818   -5.2927   22.3347 C   0  0  0  0  0  0  0  0  0  0  0  0
  -22.9113   -4.2495   23.2000 C   0  0  0  0  0  0  0  0  0  0  0  0
  -29.1430  -21.1187   21.2144 C   0  0  0  0  0  0  0  0  0  0  0  0
  -26.4748  -26.7234   21.0761 C   0  0  0  0  0  0  0  0  0  0  0  0
  -21.3426   -5.1035   24.8269 C   0  0  0  0  0  0  0  0  0  0  0  0
  -24.3450   -9.8564   20.6991 C   0  0  0  0  0  0  0  0  0  0  0  0
  -29.9989  -20.1996   20.6076 C   0  0  0  0  0  0  0  0  0  0  0  0
  -30.4783  -22.9354   20.3464 C   0  0  0  0  0  0  0  0  0  0  0  0
  -26.6979  -10.4041   19.8796 C   0  0  0  0  0  0  0  0  0  0  0  0
  -21.0218  -33.0951   21.8898 C   0  0  0  0  0  0  0  0  0  0  0  0
  -24.5038  -27.7269   20.0922 C   0  0  0  0  0  0  0  0  0  0  0  0
  -22.1121  -32.2197   22.0557 C   0  0  0  0  0  0  0  0  0  0  0  0
  -25.0787  -26.8565   21.0293 C   0  0  0  0  0  0  0  0  0  0  0  0
  -29.3826  -22.4866   21.0838 C   0  0  0  0  0  0  0  0  0  0  0  0
  -22.3026   -8.1223   21.4763 C   0  0  0  0  0  0  0  0  0  0  0  0
  -27.2871  -27.4364   20.1947 C   0  0  0  0  0  0  0  0  0  0  0  0
  -21.6327   -6.2414   22.7155 C   0  0  0  0  0  0  0  0  0  0  0  0
  -22.2917   -4.1548   24.4461 C   0  0  0  0  0  0  0  0  0  0  0  0
  -21.0131   -6.1467   23.9616 C   0  0  0  0  0  0  0  0  0  0  0  0
  -25.3994  -10.7524   20.2972 C   0  0  0  0  0  0  0  0  0  0  0  0
  -27.3061  -11.6060   19.6111 C   0  0  0  0  0  0  0  0  0  0  0  0
  -29.7503  -18.7731   20.7439 C   0  0  0  0  0  0  0  0  0  0  0  0
  -30.7579  -24.3725   20.1897 C   0  0  0  0  0  0  0  0  0  0  0  0
  -28.5693  -18.2126   21.0815 C   0  0  0  0  0  0  0  0  0  0  0  0
  -30.3022  -25.1442   19.1905 C   0  0  0  0  0  0  0  0  0  0  0  0
  -27.3004   -9.1099   19.7463 C   0  0  0  0  0  0  0  0  0  0  0  0
  -28.4732  -16.7416   21.1695 C   0  0  0  0  0  0  0  0  0  0  0  0
  -22.4371  -28.5518   22.3620 C   0  0  0  0  0  0  0  0  0  0  0  0
  -21.8579  -25.3614   22.4505 C   0  0  0  0  0  0  0  0  0  0  0  0
  -22.9770  -22.1956   21.8400 C   0  0  0  0  0  0  0  0  0  0  0  0
  -19.7007  -32.8558   22.5769 C   0  0  0  0  0  0  0  0  0  0  0  0
  -23.0093  -27.8708   20.0030 C   0  0  0  0  0  0  0  0  0  0  0  0
  -24.2380  -26.0641   21.9956 C   0  0  0  0  0  0  0  0  0  0  0  0
  -19.5222  -31.4227   23.0716 C   0  0  0  0  0  0  0  0  0  0  0  0
  -25.4039  -16.2603   19.2253 C   0  0  0  0  0  0  0  0  0  0  0  0
  -20.7756  -30.9498   23.8012 C   0  0  0  0  0  0  0  0  0  0  0  0
  -25.2158  -14.7501   19.3425 C   0  0  0  0  0  0  0  0  0  0  0  0
  -26.0153  -16.8602   20.4906 C   0  0  0  0  0  0  0  0  0  0  0  0
  -27.1042  -14.6980   21.0192 C   0  0  0  0  0  0  0  0  0  0  0  0
  -21.9906  -30.9472   22.8657 C   0  0  1  0  0  0  0  0  0  0  0  0
  -22.2948  -27.4996   21.2988 C   0  0  1  0  0  0  0  0  0  0  0  0
  -26.5339  -14.0667   19.7396 C   0  0  1  0  0  0  0  0  0  0  0  0
  -29.0301  -24.0284   23.0294 C   0  0  0  0  0  0  0  0  0  0  0  0
  -22.2942  -19.7901   22.0508 C   0  0  0  0  0  0  0  0  0  0  0  0
  -22.3994  -25.4731   25.4512 C   0  0  0  0  0  0  0  0  0  0  0  0
  -22.6425  -22.9814   25.4295 C   0  0  0  0  0  0  0  0  0  0  0  0
  -20.4688  -24.0263   24.7927 C   0  0  0  0  0  0  0  0  0  0  0  0
  -23.1610  -21.7668   18.9175 C   0  0  0  0  0  0  0  0  0  0  0  0
  -28.4449  -23.4427   21.7486 C   0  0  0  0  0  0  0  0  0  0  0  0
  -30.6233  -26.6082   19.0618 C   0  0  0  0  0  0  0  0  0  0  0  0
  -29.3604  -27.4609   19.0299 C   0  0  0  0  0  0  0  0  0  1  0  0
  -22.4338  -24.1910   23.2104 C   0  0  1  0  0  0  0  0  0  0  0  0
  -22.3248  -21.0128   21.1471 C   0  0  2  0  0  0  0  0  0  0  0  0
  -22.0024  -24.1842   24.7042 C   0  0  0  0  0  0  0  0  0  0  0  0
  -25.1939  -12.0722   20.2959 N   0  0  0  0  0  0  0  0  0  0  0  0
  -26.3715  -12.5637   19.8743 N   0  0  0  0  0  0  0  0  0  0  0  0
  -27.2431  -16.1522   20.8830 N   0  0  0  0  0  0  0  0  0  0  0  0
  -22.7819  -26.2438   21.8731 N   0  0  0  0  0  0  0  0  0  0  0  0
  -28.5439  -11.9263   19.1780 N   0  0  0  0  0  0  0  0  0  0  0  0
  -26.5340   -7.9803   20.0639 N   0  0  0  0  0  0  0  0  0  0  0  0
  -21.9543  -29.7930   21.9933 N   0  0  0  0  0  0  0  0  0  0  0  0
  -22.0469  -22.9942   22.4713 N   0  0  0  0  0  0  0  0  0  0  0  0
  -23.0730  -20.6621   19.9069 N   0  3  0  0  0  0  0  0  0  0  0  0
  -28.4885   -8.9606   19.3727 O   0  0  0  0  0  0  0  0  0  0  0  0
  -29.4882  -16.1240   21.4965 O   0  0  0  0  0  0  0  0  0  0  0  0
  -22.9457  -28.2589   23.4377 O   0  0  0  0  0  0  0  0  0  0  0  0
  -20.6334  -25.4841   22.3661 O   0  0  0  0  0  0  0  0  0  0  0  0
  -24.1905  -22.3896   21.8261 O   0  0  0  0  0  0  0  0  0  0  0  0
  -21.3061   -7.2760   21.8550 O   0  0  0  0  0  0  0  0  0  0  0  0
  -28.6396  -27.2962   20.2504 O   0  0  0  0  0  0  0  0  0  1  0  0
  -22.6071   -3.1521   25.2763 F   0  0  0  0  0  0  0  0  0  0  0  0
  -20.0997   -7.0544   24.3326 F   0  0  0  0  0  0  0  0  0  0  0  0
  1  2  1  0  0  0  0
  1  7  2  0  0  0  0
  2  8  2  0  0  0  0
  3 10  2  0  0  0  0
  3 18  1  0  0  0  0
  4 11  1  0  0  0  0
  4 18  2  0  0  0  0
  5  6  2  0  0  0  0
  5 19  1  0  0  0  0
  6 20  1  0  0  0  0
  7 22  1  0  0  0  0
  8 24  1  0  0  0  0
  9 12  2  0  0  0  0
  9 23  1  0  0  0  0
 10 27  1  0  0  0  0
 11 27  2  0  0  0  0
 12 28  1  0  0  0  0
 13 14  2  0  0  0  0
 13 29  1  0  0  0  0
 14 30  1  0  0  0  0
 15 19  2  0  0  0  0
 15 26  1  0  0  0  0
 16 25  1  0  0  0  0
 16 28  2  0  0  0  0
 17 30  2  0  0  0  0
 17 31  1  0  0  0  0
 18 32  1  0  0  0  0
 19 34  1  0  0  0  0
 20 26  2  0  0  0  0
 20 35  1  0  0  0  0
 21 32  1  0  0  0  0
 21 33  2  0  0  0  0
 21 38  1  0  0  0  0
 22 24  2  0  0  0  0
 22 43  1  0  0  0  0
 23 25  2  0  0  0  0
 23 44  1  0  0  0  0
 24 52  1  0  0  0  0
 25 45  1  0  0  0  0
 26 61  1  0  0  0  0
 27 81  1  0  0  0  0
 28 82  1  0  0  0  0
 29 31  2  0  0  0  0
 29 81  1  0  0  0  0
 30 83  1  0  0  0  0
 31 84  1  0  0  0  0
 32 67  2  0  0  0  0
 33 68  1  0  0  0  0
 33 71  1  0  0  0  0
 34 36  2  0  0  0  0
 35 37  2  0  0  0  0
 36 39  1  0  0  0  0
 37 62  1  0  0  0  0
 38 72  1  0  0  0  0
 38 76  2  0  0  0  0
 39 69  1  0  0  0  0
 39 77  2  0  0  0  0
 40 53  1  0  0  0  0
 40 73  1  0  0  0  0
 40 78  2  0  0  0  0
 41 64  1  0  0  0  0
 41 70  1  0  0  0  0
 41 79  2  0  0  0  0
 42 65  1  0  0  0  0
 42 74  1  0  0  0  0
 42 80  2  0  0  0  0
 43 46  1  0  0  0  0
 44 53  1  0  0  0  0
 45 70  1  0  0  0  0
 46 48  1  0  0  0  0
 47 49  1  0  0  0  0
 47 50  1  0  0  0  0
 48 52  1  0  0  0  0
 49 54  1  0  0  0  0
 50 69  1  0  0  0  0
 51 54  1  0  0  0  0
 51 69  1  0  0  0  0
 52 73  1  0  0  0  0
 53 70  1  0  0  0  0
 54 68  1  0  0  0  0
 55 61  1  0  0  0  0
 56 65  1  0  0  0  0
 57 66  1  0  0  0  0
 58 66  1  0  0  0  0
 59 66  1  0  0  0  0
 60 75  1  0  0  0  0
 62 63  1  0  0  0  0
 63 82  1  0  0  0  0
 64 66  1  0  0  0  0
 64 74  1  0  0  0  0
 65 75  1  0  0  0  0
 67 68  1  0  0  0  0
M  CHG  1  75   1
M  ISO  4  36 100  39 100  63 101  82 101
M  END
> <Batch ID>
0132

> <Smiles>
CCc1cc(C=[100CH:0][100C:0](=O)N2CCCC(n3nc(-c4ccc(Oc5ccc(F)cc5F)cc4)c(C(N)=O)c3N)C2)ccc1C=CC[101CH2:1][101O:1]c1ccc2c(c1)CN(C(=O)C(NC(=O)C(C)NC)C(C)(C)C)C(C(=O)NC1CCCc3ccccc31)C2

> <Shape>
0.256

> <Color>
0.110

> <Negative vol penalty>
0.000

$$$$

  -OEChem-04052302283D

 87 95  0     1  0  0  0  0  0999 V2000
  -27.4860  -22.8905   24.2262 C   0  0  0  0  0  0  0  0  0  0  0  0
  -28.4688  -22.6693   23.2667 C   0  0  0  0  0  0  0  0  0  0  0  0
  -23.0723   -9.8719   19.9400 C   0  0  0  0  0  0  0  0  0  0  0  0
  -23.8377   -9.8726   22.2315 C   0  0  0  0  0  0  0  0  0  0  0  0
  -26.2761  -23.4790   23.8603 C   0  0  0  0  0  0  0  0  0  0  0  0
  -28.2418  -23.0355   21.9405 C   0  0  0  0  0  0  0  0  0  0  0  0
  -32.2087  -25.4105   19.8746 C   0  0  0  0  0  0  0  0  0  0  0  0
  -22.3290   -8.7181   20.1886 C   0  0  0  0  0  0  0  0  0  0  0  0
  -23.0944   -8.7188   22.4802 C   0  0  0  0  0  0  0  0  0  0  0  0
  -33.2816  -24.6200   19.4651 C   0  0  0  0  0  0  0  0  0  0  0  0
  -21.1125   -5.9782   23.8142 C   0  0  0  0  0  0  0  0  0  0  0  0
  -20.3591   -5.9315   24.9870 C   0  0  0  0  0  0  0  0  0  0  0  0
  -32.4939  -24.7409   17.1883 C   0  0  0  0  0  0  0  0  0  0  0  0
  -29.1810  -19.7102   19.9641 C   0  0  0  0  0  0  0  0  0  0  0  0
  -31.6191  -18.3577   20.0610 C   0  0  0  0  0  0  0  0  0  0  0  0
  -19.1128   -7.8708   24.2637 C   0  0  0  0  0  0  0  0  0  0  0  0
  -23.8268  -10.4491   20.9614 C   0  0  0  0  0  0  0  0  0  0  0  0
  -24.1684  -12.9746   20.8474 C   0  0  0  0  0  0  0  0  0  0  0  0
  -26.0379  -23.8614   22.5308 C   0  0  0  0  0  0  0  0  0  0  0  0
  -31.2627  -25.8639   18.9441 C   0  0  0  0  0  0  0  0  0  0  0  0
  -27.0271  -23.6284   21.5562 C   0  0  0  0  0  0  0  0  0  0  0  0
  -31.4113  -25.5392   17.5881 C   0  0  0  0  0  0  0  0  0  0  0  0
  -30.2120  -20.0679   19.0953 C   0  0  0  0  0  0  0  0  0  0  0  0
  -29.3691  -18.6764   20.8815 C   0  0  0  0  0  0  0  0  0  0  0  0
  -31.4310  -19.3916   19.1438 C   0  0  0  0  0  0  0  0  0  0  0  0
  -30.5881  -18.0001   20.9299 C   0  0  0  0  0  0  0  0  0  0  0  0
  -22.3400   -8.1416   21.4587 C   0  0  0  0  0  0  0  0  0  0  0  0
  -33.4227  -24.2826   18.1222 C   0  0  0  0  0  0  0  0  0  0  0  0
  -20.8662   -6.9713   22.8660 C   0  0  0  0  0  0  0  0  0  0  0  0
  -19.3592   -6.8777   25.2118 C   0  0  0  0  0  0  0  0  0  0  0  0
  -19.8664   -7.9175   23.0908 C   0  0  0  0  0  0  0  0  0  0  0  0
  -24.5953  -11.6407   20.7051 C   0  0  0  0  0  0  0  0  0  0  0  0
  -25.2597  -13.7250   20.4835 C   0  0  0  0  0  0  0  0  0  0  0  0
  -35.5041  -21.3851   17.9096 C   0  0  0  0  0  0  0  0  0  0  0  0
  -22.8989  -13.4893   21.2707 C   0  0  0  0  0  0  0  0  0  0  0  0
  -35.0871  -20.1039   17.9701 C   0  0  0  0  0  0  0  0  0  0  0  0
  -28.1376  -25.4482   18.5383 C   0  0  0  0  0  0  0  0  0  0  0  0
  -28.5442  -27.6507   16.1918 C   0  0  0  0  0  0  0  0  0  0  0  0
  -30.6495  -29.1670   13.9747 C   0  0  0  0  0  0  0  0  0  0  0  0
  -30.7439  -14.7434   20.6615 C   0  0  0  0  0  0  0  0  0  0  0  0
  -24.6963  -24.4508   22.1742 C   0  0  0  0  0  0  0  0  0  0  0  0
  -30.1259  -26.7381   19.3978 C   0  0  0  0  0  0  0  0  0  0  0  0
  -30.4343  -26.0175   16.5464 C   0  0  0  0  0  0  0  0  0  0  0  0
  -24.6800  -25.1521   20.8184 C   0  0  0  0  0  0  0  0  0  0  0  0
  -29.6005  -12.3653   18.2710 C   0  0  0  0  0  0  0  0  0  0  0  0
  -25.3564  -24.2854   19.7610 C   0  0  0  0  0  0  0  0  0  0  0  0
  -28.1641  -12.0705   18.7066 C   0  0  0  0  0  0  0  0  0  0  0  0
  -30.5205  -12.5829   19.4703 C   0  0  0  0  0  0  0  0  0  0  0  0
  -28.6221  -13.3103   20.8634 C   0  0  0  0  0  0  0  0  0  0  0  0
  -26.8279  -24.0345   20.1121 C   0  0  1  0  0  0  0  0  0  0  0  0
  -28.9372  -26.7166   18.4418 C   0  0  1  0  0  0  0  0  0  0  0  0
  -27.6452  -13.1389   19.6877 C   0  0  2  0  0  0  0  0  0  0  0  0
  -29.9873  -21.1775   18.1213 C   0  0  0  0  0  0  0  0  0  0  0  0
  -28.2512  -18.3116   21.8022 C   0  0  0  0  0  0  0  0  0  0  0  0
  -35.1397  -18.8969   15.7480 C   0  0  0  0  0  0  0  0  0  0  0  0
  -30.6844  -30.9026   12.1626 C   0  0  0  0  0  0  0  0  0  0  0  0
  -27.2029  -25.6826   14.2845 C   0  0  0  0  0  0  0  0  0  0  0  0
  -28.1066  -27.0255   12.3744 C   0  0  0  0  0  0  0  0  0  0  0  0
  -26.5084  -28.0661   13.9824 C   0  0  0  0  0  0  0  0  0  0  0  0
  -32.5926  -30.8393   15.4536 C   0  0  0  0  0  0  0  0  0  0  0  0
  -32.5600  -19.7602   18.2140 C   0  0  0  0  0  0  0  0  0  0  0  0
  -30.8128  -16.8906   21.9040 C   0  0  0  0  0  0  0  0  0  0  0  0
  -34.9790  -22.5668   18.6608 C   0  0  0  0  0  0  0  0  0  1  0  0
  -35.7801  -19.0555   17.1204 C   0  0  0  0  0  0  0  0  0  0  0  0
  -33.9517  -19.6116   18.8468 C   0  0  0  0  0  0  0  0  0  0  0  0
  -28.8803  -27.5962   14.7210 C   0  0  1  0  0  0  0  0  0  0  0  0
  -30.8817  -30.6306   13.6457 C   0  0  2  0  0  0  0  0  0  0  0  0
  -27.6921  -27.0818   13.8602 C   0  0  0  0  0  0  0  0  0  0  0  0
  -25.8591  -11.5459   20.2835 N   0  0  0  0  0  0  0  0  0  0  0  0
  -26.2358  -12.8298   20.1577 N   0  0  0  0  0  0  0  0  0  0  0  0
  -29.3361  -26.8644   17.0406 N   0  0  0  0  0  0  0  0  0  0  0  0
  -29.9721  -13.6090   20.3604 N   0  0  0  0  0  0  0  0  0  0  0  0
  -25.4700  -15.0567   20.4136 N   0  0  0  0  0  0  0  0  0  0  0  0
  -21.8878  -12.5793   21.6080 N   0  0  0  0  0  0  0  0  0  0  0  0
  -27.6280  -25.1989   19.7983 N   0  0  0  0  0  0  0  0  0  0  0  0
  -29.3467  -28.9304   14.3592 N   0  0  0  0  0  0  0  0  0  0  0  0
  -30.1468  -15.6699   21.5075 N   0  0  0  0  0  0  0  0  0  0  0  0
  -32.2684  -31.0312   14.0165 N   0  3  0  0  0  0  0  0  0  0  0  0
  -22.6629  -14.7198   21.3320 O   0  0  0  0  0  0  0  0  0  0  0  0
  -27.9924  -24.7483   17.5429 O   0  0  0  0  0  0  0  0  0  0  0  0
  -27.6180  -28.3700   16.5742 O   0  0  0  0  0  0  0  0  0  0  0  0
  -31.5344  -28.3178   13.8947 O   0  0  0  0  0  0  0  0  0  0  0  0
  -31.8788  -14.9200   20.2056 O   0  0  0  0  0  0  0  0  0  0  0  0
  -21.6146   -7.0158   21.7017 O   0  0  0  0  0  0  0  0  0  0  0  0
  -34.4687  -23.5105   17.7199 O   0  0  0  0  0  0  0  0  0  1  0  0
  -18.6347   -6.8318   26.3375 F   0  0  0  0  0  0  0  0  0  0  0  0
  -19.6243   -8.8732   22.1831 F   0  0  0  0  0  0  0  0  0  0  0  0
  1  2  1  0  0  0  0
  1  5  2  0  0  0  0
  2  6  2  0  0  0  0
  3  8  2  0  0  0  0
  3 17  1  0  0  0  0
  4  9  1  0  0  0  0
  4 17  2  0  0  0  0
  5 19  1  0  0  0  0
  6 21  1  0  0  0  0
  7 10  2  0  0  0  0
  7 20  1  0  0  0  0
  8 27  1  0  0  0  0
  9 27  2  0  0  0  0
 10 28  1  0  0  0  0
 11 12  2  0  0  0  0
 11 29  1  0  0  0  0
 12 30  1  0  0  0  0
 13 22  1  0  0  0  0
 13 28  2  0  0  0  0
 14 23  1  0  0  0  0
 14 24  2  0  0  0  0
 15 25  1  0  0  0  0
 15 26  2  0  0  0  0
 16 30  2  0  0  0  0
 16 31  1  0  0  0  0
 17 32  1  0  0  0  0
 18 32  1  0  0  0  0
 18 33  2  0  0  0  0
 18 35  1  0  0  0  0
 19 21  2  0  0  0  0
 19 41  1  0  0  0  0
 20 22  2  0  0  0  0
 20 42  1  0  0  0  0
 21 50  1  0  0  0  0
 22 43  1  0  0  0  0
 23 25  2  0  0  0  0
 23 53  1  0  0  0  0
 24 26  1  0  0  0  0
 24 54  1  0  0  0  0
 25 61  1  0  0  0  0
 26 62  1  0  0  0  0
 27 84  1  0  0  0  0
 28 85  1  0  0  0  0
 29 31  2  0  0  0  0
 29 84  1  0  0  0  0
 30 86  1  0  0  0  0
 31 87  1  0  0  0  0
 32 69  2  0  0  0  0
 33 70  1  0  0  0  0
 33 73  1  0  0  0  0
 34 36  2  0  0  0  0
 34 63  1  0  0  0  0
 35 74  1  0  0  0  0
 35 79  2  0  0  0  0
 36 64  1  0  0  0  0
 36 65  1  0  0  0  0
 37 51  1  0  0  0  0
 37 75  1  0  0  0  0
 37 80  2  0  0  0  0
 38 66  1  0  0  0  0
 38 71  1  0  0  0  0
 38 81  2  0  0  0  0
 39 67  1  0  0  0  0
 39 76  1  0  0  0  0
 39 82  2  0  0  0  0
 40 72  1  0  0  0  0
 40 77  1  0  0  0  0
 40 83  2  0  0  0  0
 41 44  1  0  0  0  0
 42 51  1  0  0  0  0
 43 71  1  0  0  0  0
 44 46  1  0  0  0  0
 45 47  1  0  0  0  0
 45 48  1  0  0  0  0
 46 50  1  0  0  0  0
 47 52  1  0  0  0  0
 48 72  1  0  0  0  0
 49 52  1  0  0  0  0
 49 72  1  0  0  0  0
 50 75  1  0  0  0  0
 51 71  1  0  0  0  0
 52 70  1  0  0  0  0
 55 64  1  0  0  0  0
 56 67  1  0  0  0  0
 57 68  1  0  0  0  0
 58 68  1  0  0  0  0
 59 68  1  0  0  0  0
 60 78  1  0  0  0  0
 61 65  1  0  0  0  0
 62 77  1  0  0  0  0
 63 85  1  0  0  0  0
 66 68  1  0  0  0  0
 66 76  1  0  0  0  0
 67 78  1  0  0  0  0
 69 70  1  0  0  0  0
M  CHG  1  78   1
M  ISO  4  40 100  63 101  77 100  85 101
M  END
> <Batch ID>
0132

> <Smiles>
CCC(=C[101CH2:1][101O:1]c1ccc2c(c1)CN(C(=O)C(NC(=O)C(C)NC)C(C)(C)C)C(C(=O)NC1CCCc3ccccc31)C2)CCc1cc(C[100NH:0][100C:0](=O)N2CCCC(n3nc(-c4ccc(Oc5ccc(F)cc5F)cc4)c(C(N)=O)c3N)C2)c(C)cc1C

> <Shape>
0.226

> <Color>
0.192

> <Negative vol penalty>
0.000

$$$$

  -OEChem-04052302283D

 86 94  0     1  0  0  0  0  0999 V2000
  -35.3906  -26.5437   14.3956 C   0  0  0  0  0  0  0  0  0  0  0  0
  -35.0161  -26.0995   15.6596 C   0  0  0  0  0  0  0  0  0  0  0  0
  -23.0724   -9.8730   19.9378 C   0  0  0  0  0  0  0  0  0  0  0  0
  -23.8379   -9.8688   22.2294 C   0  0  0  0  0  0  0  0  0  0  0  0
  -34.6553  -27.5458   13.7639 C   0  0  0  0  0  0  0  0  0  0  0  0
  -33.9066  -26.6580   16.2933 C   0  0  0  0  0  0  0  0  0  0  0  0
  -30.9191  -23.1639   18.4172 C   0  0  0  0  0  0  0  0  0  0  0  0
  -32.6828  -17.4516   23.4431 C   0  0  0  0  0  0  0  0  0  0  0  0
  -32.0738  -16.5793   22.5410 C   0  0  0  0  0  0  0  0  0  0  0  0
  -22.3280   -8.7194   20.1844 C   0  0  0  0  0  0  0  0  0  0  0  0
  -23.0935   -8.7153   22.4759 C   0  0  0  0  0  0  0  0  0  0  0  0
  -31.3344  -22.6260   19.6345 C   0  0  0  0  0  0  0  0  0  0  0  0
  -21.1092   -5.9740   23.8049 C   0  0  0  0  0  0  0  0  0  0  0  0
  -20.3557   -5.9258   24.9777 C   0  0  0  0  0  0  0  0  0  0  0  0
  -29.8154  -24.0967   20.7958 C   0  0  0  0  0  0  0  0  0  0  0  0
  -30.5163  -18.3217   24.0645 C   0  0  0  0  0  0  0  0  0  0  0  0
  -19.1112   -7.8675   24.2580 C   0  0  0  0  0  0  0  0  0  0  0  0
  -23.8274  -10.4477   20.9603 C   0  0  0  0  0  0  0  0  0  0  0  0
  -24.1713  -12.9730   20.8509 C   0  0  0  0  0  0  0  0  0  0  0  0
  -33.5305  -28.1101   14.3860 C   0  0  0  0  0  0  0  0  0  0  0  0
  -29.9551  -24.1817   18.3807 C   0  0  0  0  0  0  0  0  0  0  0  0
  -33.1563  -27.6696   15.6699 C   0  0  0  0  0  0  0  0  0  0  0  0
  -29.3877  -24.6441   19.5766 C   0  0  0  0  0  0  0  0  0  0  0  0
  -31.9041  -18.3228   24.2049 C   0  0  0  0  0  0  0  0  0  0  0  0
  -29.9073  -17.4495   23.1623 C   0  0  0  0  0  0  0  0  0  0  0  0
  -30.6860  -16.5783   22.4005 C   0  0  0  0  0  0  0  0  0  0  0  0
  -22.3385   -8.1406   21.4534 C   0  0  0  0  0  0  0  0  0  0  0  0
  -30.7847  -23.0943   20.8242 C   0  0  0  0  0  0  0  0  0  0  0  0
  -20.8638   -6.9690   22.8586 C   0  0  0  0  0  0  0  0  0  0  0  0
  -19.3567   -6.8725   25.2043 C   0  0  0  0  0  0  0  0  0  0  0  0
  -19.8648   -7.9157   23.0852 C   0  0  0  0  0  0  0  0  0  0  0  0
  -24.5969  -11.6390   20.7061 C   0  0  0  0  0  0  0  0  0  0  0  0
  -25.2632  -13.7231   20.4884 C   0  0  0  0  0  0  0  0  0  0  0  0
  -32.0550  -21.6347   24.6364 C   0  0  0  0  0  0  0  0  0  0  0  0
  -22.9023  -13.4881   21.2753 C   0  0  0  0  0  0  0  0  0  0  0  0
  -32.9298  -20.6104   24.5714 C   0  0  0  0  0  0  0  0  0  0  0  0
  -29.9148  -27.1983   17.3797 C   0  0  0  0  0  0  0  0  0  0  0  0
  -26.7547  -26.9788   18.0782 C   0  0  0  0  0  0  0  0  0  0  0  0
  -24.2814  -25.4456   19.8611 C   0  0  0  0  0  0  0  0  0  0  0  0
  -30.7308  -14.7628   20.6546 C   0  0  0  0  0  0  0  0  0  0  0  0
  -32.7949  -29.2239   13.6838 C   0  0  0  0  0  0  0  0  0  0  0  0
  -29.4983  -24.7328   17.0578 C   0  0  0  0  0  0  0  0  0  0  0  0
  -28.3348  -25.7210   19.5904 C   0  0  0  0  0  0  0  0  0  0  0  0
  -31.4107  -29.5008   14.2648 C   0  0  0  0  0  0  0  0  0  0  0  0
  -29.6084  -12.3608   18.2781 C   0  0  0  0  0  0  0  0  0  0  0  0
  -31.4744  -29.5677   15.7874 C   0  0  0  0  0  0  0  0  0  0  0  0
  -28.1695  -12.0687   18.7098 C   0  0  0  0  0  0  0  0  0  0  0  0
  -30.5266  -12.5833   19.4785 C   0  0  0  0  0  0  0  0  0  0  0  0
  -28.6237  -13.3033   20.8677 C   0  0  0  0  0  0  0  0  0  0  0  0
  -31.9442  -28.2333   16.3791 C   0  0  1  0  0  0  0  0  0  0  0  0
  -28.8845  -26.1249   17.1703 C   0  0  1  0  0  0  0  0  0  0  0  0
  -27.6479  -13.1363   19.6915 C   0  0  2  0  0  0  0  0  0  0  0  0
  -27.9615  -18.2023   21.7716 C   0  0  0  0  0  0  0  0  0  0  0  0
  -35.3694  -21.1406   24.9075 C   0  0  0  0  0  0  0  0  0  0  0  0
  -21.8027  -25.5094   20.2481 C   0  0  0  0  0  0  0  0  0  0  0  0
  -27.0907  -29.4730   19.8034 C   0  0  0  0  0  0  0  0  0  0  0  0
  -24.8960  -28.9374   20.8824 C   0  0  0  0  0  0  0  0  0  0  0  0
  -24.9962  -29.4235   18.4378 C   0  0  0  0  0  0  0  0  0  0  0  0
  -23.9400  -22.6738   18.8816 C   0  0  0  0  0  0  0  0  0  0  0  0
  -32.5640  -19.2690   25.1801 C   0  0  0  0  0  0  0  0  0  0  0  0
  -28.4188  -17.4722   23.0304 C   0  0  0  0  0  0  0  0  0  0  0  0
  -32.2432  -23.0398   24.1330 C   0  0  0  0  0  0  0  0  0  0  0  0
  -34.2936  -20.7060   23.9226 C   0  0  0  0  0  0  0  0  0  0  0  0
  -31.1475  -23.4339   23.1500 C   0  0  0  0  0  0  0  0  0  1  0  0
  -25.9107  -27.2315   19.3041 C   0  0  1  0  0  0  0  0  0  0  0  0
  -22.9327  -24.8900   19.4405 C   0  0  2  0  0  0  0  0  0  0  0  0
  -25.7446  -28.7474   19.6071 C   0  0  0  0  0  0  0  0  0  0  0  0
  -25.8607  -11.5439   20.2843 N   0  0  0  0  0  0  0  0  0  0  0  0
  -26.2385  -12.8277   20.1609 N   0  0  0  0  0  0  0  0  0  0  0  0
  -27.9258  -26.2325   18.2719 N   0  0  0  0  0  0  0  0  0  0  0  0
  -29.9708  -13.6107   20.3619 N   0  0  0  0  0  0  0  0  0  0  0  0
  -25.4747  -15.0547   20.4209 N   0  0  0  0  0  0  0  0  0  0  0  0
  -21.8903  -12.5784   21.6109 N   0  0  0  0  0  0  0  0  0  0  0  0
  -30.0863  -15.6847   21.4787 N   0  0  0  0  0  0  0  0  0  0  0  0
  -30.8631  -27.2712   16.3773 N   0  0  0  0  0  0  0  0  0  0  0  0
  -24.6533  -26.5243   19.0869 N   0  0  0  0  0  0  0  0  0  0  0  0
  -22.8966  -23.4133   19.6375 N   0  3  0  0  0  0  0  0  0  0  0  0
  -22.6673  -14.7187   21.3388 O   0  0  0  0  0  0  0  0  0  0  0  0
  -29.8531  -27.9089   18.3762 O   0  0  0  0  0  0  0  0  0  0  0  0
  -26.3848  -27.4210   16.9877 O   0  0  0  0  0  0  0  0  0  0  0  0
  -24.9374  -24.9725   20.7865 O   0  0  0  0  0  0  0  0  0  0  0  0
  -31.8589  -14.9326   20.1850 O   0  0  0  0  0  0  0  0  0  0  0  0
  -21.6121   -7.0150   21.6944 O   0  0  0  0  0  0  0  0  0  0  0  0
  -31.1888  -22.5714   22.0138 O   0  0  0  0  0  0  0  0  0  1  0  0
  -18.6322   -6.8252   26.3299 F   0  0  0  0  0  0  0  0  0  0  0  0
  -19.6235   -8.8733   22.1792 F   0  0  0  0  0  0  0  0  0  0  0  0
  1  2  1  0  0  0  0
  1  5  2  0  0  0  0
  2  6  2  0  0  0  0
  3 10  2  0  0  0  0
  3 18  1  0  0  0  0
  4 11  1  0  0  0  0
  4 18  2  0  0  0  0
  5 20  1  0  0  0  0
  6 22  1  0  0  0  0
  7 12  2  0  0  0  0
  7 21  1  0  0  0  0
  8  9  2  0  0  0  0
  8 24  1  0  0  0  0
  9 26  1  0  0  0  0
 10 27  1  0  0  0  0
 11 27  2  0  0  0  0
 12 28  1  0  0  0  0
 13 14  2  0  0  0  0
 13 29  1  0  0  0  0
 14 30  1  0  0  0  0
 15 23  1  0  0  0  0
 15 28  2  0  0  0  0
 16 24  2  0  0  0  0
 16 25  1  0  0  0  0
 17 30  2  0  0  0  0
 17 31  1  0  0  0  0
 18 32  1  0  0  0  0
 19 32  1  0  0  0  0
 19 33  2  0  0  0  0
 19 35  1  0  0  0  0
 20 22  2  0  0  0  0
 20 41  1  0  0  0  0
 21 23  2  0  0  0  0
 21 42  1  0  0  0  0
 22 50  1  0  0  0  0
 23 43  1  0  0  0  0
 24 60  1  0  0  0  0
 25 26  2  0  0  0  0
 25 61  1  0  0  0  0
 26 74  1  0  0  0  0
 27 83  1  0  0  0  0
 28 84  1  0  0  0  0
 29 31  2  0  0  0  0
 29 83  1  0  0  0  0
 30 85  1  0  0  0  0
 31 86  1  0  0  0  0
 32 68  2  0  0  0  0
 33 69  1  0  0  0  0
 33 72  1  0  0  0  0
 34 36  2  0  0  0  0
 34 62  1  0  0  0  0
 35 73  1  0  0  0  0
 35 78  2  0  0  0  0
 36 60  1  0  0  0  0
 36 63  1  0  0  0  0
 37 51  1  0  0  0  0
 37 75  1  0  0  0  0
 37 79  2  0  0  0  0
 38 65  1  0  0  0  0
 38 70  1  0  0  0  0
 38 80  2  0  0  0  0
 39 66  1  0  0  0  0
 39 76  1  0  0  0  0
 39 81  2  0  0  0  0
 40 71  1  0  0  0  0
 40 74  1  0  0  0  0
 40 82  2  0  0  0  0
 41 44  1  0  0  0  0
 42 51  1  0  0  0  0
 43 70  1  0  0  0  0
 44 46  1  0  0  0  0
 45 47  1  0  0  0  0
 45 48  1  0  0  0  0
 46 50  1  0  0  0  0
 47 52  1  0  0  0  0
 48 71  1  0  0  0  0
 49 52  1  0  0  0  0
 49 71  1  0  0  0  0
 50 75  1  0  0  0  0
 51 70  1  0  0  0  0
 52 69  1  0  0  0  0
 53 61  1  0  0  0  0
 54 63  1  0  0  0  0
 55 66  1  0  0  0  0
 56 67  1  0  0  0  0
 57 67  1  0  0  0  0
 58 67  1  0  0  0  0
 59 77  1  0  0  0  0
 62 64  1  0  0  0  0
 64 84  1  0  0  0  0
 65 67  1  0  0  0  0
 65 76  1  0  0  0  0
 66 77  1  0  0  0  0
 68 69  1  0  0  0  0
M  CHG  1  77   1
M  ISO  4  40 100  64 101  74 100  84 101
M  END
> <Batch ID>
0132

> <Smiles>
CCC(=CC[101CH2:1][101O:1]c1ccc2c(c1)CN(C(=O)C(NC(=O)C(C)NC)C(C)(C)C)C(C(=O)NC1CCCc3ccccc31)C2)Cc1ccc([100NH:0][100C:0](=O)N2CCCC(n3nc(-c4ccc(Oc5ccc(F)cc5F)cc4)c(C(N)=O)c3N)C2)c(CC)c1

> <Shape>
0.251

> <Color>
0.192

> <Negative vol penalty>
0.000

$$$$

  -OEChem-04052302283D

 85 93  0     1  0  0  0  0  0999 V2000
  -19.8200  -24.1450   21.3512 C   0  0  0  0  0  0  0  0  0  0  0  0
  -20.7545  -24.7908   20.5480 C   0  0  0  0  0  0  0  0  0  0  0  0
  -29.9740  -30.8132   21.7608 C   0  0  0  0  0  0  0  0  0  0  0  0
  -28.3369  -16.3745   23.9967 C   0  0  0  0  0  0  0  0  0  0  0  0
  -30.3417  -16.4530   22.6507 C   0  0  0  0  0  0  0  0  0  0  0  0
  -30.3424  -31.1666   20.4628 C   0  0  0  0  0  0  0  0  0  0  0  0
  -19.0370  -24.8823   22.2384 C   0  0  0  0  0  0  0  0  0  0  0  0
  -20.9057  -26.1746   20.6309 C   0  0  0  0  0  0  0  0  0  0  0  0
  -25.7652  -27.5937   20.7580 C   0  0  0  0  0  0  0  0  0  0  0  0
  -30.3224  -29.5615   22.2684 C   0  0  0  0  0  0  0  0  0  0  0  0
  -28.0977  -15.0701   23.5645 C   0  0  0  0  0  0  0  0  0  0  0  0
  -30.1025  -15.1485   22.2185 C   0  0  0  0  0  0  0  0  0  0  0  0
  -26.4593  -27.5976   19.5488 C   0  0  0  0  0  0  0  0  0  0  0  0
  -28.1139  -13.5946   19.9686 C   0  0  0  0  0  0  0  0  0  0  0  0
  -28.2620  -13.3253   18.6081 C   0  0  0  0  0  0  0  0  0  0  0  0
  -31.4075  -29.0166   20.1797 C   0  0  0  0  0  0  0  0  0  0  0  0
  -26.1504  -29.9845   19.3860 C   0  0  0  0  0  0  0  0  0  0  0  0
  -29.9749  -11.6990   19.1165 C   0  0  0  0  0  0  0  0  0  0  0  0
  -29.4589  -17.0660   23.5398 C   0  0  0  0  0  0  0  0  0  0  0  0
  -31.0591  -30.2684   19.6722 C   0  0  0  0  0  0  0  0  0  0  0  0
  -30.4479  -18.8135   25.1132 C   0  0  0  0  0  0  0  0  0  0  0  0
  -19.1854  -26.2746   22.3391 C   0  0  0  0  0  0  0  0  0  0  0  0
  -25.2482  -28.7857   21.2857 C   0  0  0  0  0  0  0  0  0  0  0  0
  -20.1230  -26.9313   21.5193 C   0  0  0  0  0  0  0  0  0  0  0  0
  -25.4524  -29.9935   20.6033 C   0  0  0  0  0  0  0  0  0  0  0  0
  -31.0391  -28.6632   21.4778 C   0  0  0  0  0  0  0  0  0  0  0  0
  -28.9805  -14.4571   22.6754 C   0  0  0  0  0  0  0  0  0  0  0  0
  -26.6494  -28.7926   18.8612 C   0  0  0  0  0  0  0  0  0  0  0  0
  -28.8964  -12.9162   20.9031 C   0  0  0  0  0  0  0  0  0  0  0  0
  -29.1925  -12.3775   18.1820 C   0  0  0  0  0  0  0  0  0  0  0  0
  -29.8268  -11.9684   20.4770 C   0  0  0  0  0  0  0  0  0  0  0  0
  -29.7062  -18.4137   23.9855 C   0  0  0  0  0  0  0  0  0  0  0  0
  -30.3845  -20.1854   25.0972 C   0  0  0  0  0  0  0  0  0  0  0  0
  -31.4533  -30.6468   18.2849 C   0  0  0  0  0  0  0  0  0  0  0  0
  -31.1331  -18.0161   26.0880 C   0  0  0  0  0  0  0  0  0  0  0  0
  -22.3364  -29.8537   21.9814 C   0  0  0  0  0  0  0  0  0  0  0  0
  -30.8138  -24.9092   22.3080 C   0  0  0  0  0  0  0  0  0  0  0  0
  -23.9763  -32.3658   23.2152 C   0  0  0  0  0  0  0  0  0  0  0  0
  -26.8326  -34.2334   23.2331 C   0  0  0  0  0  0  0  0  0  0  0  0
  -18.2833  -27.0347   23.2788 C   0  0  0  0  0  0  0  0  0  0  0  0
  -24.5251  -28.7686   22.6044 C   0  0  0  0  0  0  0  0  0  0  0  0
  -24.9350  -31.3033   21.1373 C   0  0  0  0  0  0  0  0  0  0  0  0
  -18.7675  -28.4517   23.5750 C   0  0  0  0  0  0  0  0  0  0  0  0
  -27.5390  -23.3280   22.3524 C   0  0  0  0  0  0  0  0  0  0  0  0
  -19.1732  -29.1578   22.2851 C   0  0  0  0  0  0  0  0  0  0  0  0
  -27.8839  -21.9246   22.8490 C   0  0  0  0  0  0  0  0  0  0  0  0
  -28.6417  -23.8952   21.4623 C   0  0  0  0  0  0  0  0  0  0  0  0
  -30.3378  -22.4992   22.6019 C   0  0  0  0  0  0  0  0  0  0  0  0
  -20.3336  -28.4278   21.5981 C   0  0  1  0  0  0  0  0  0  0  0  0
  -23.5965  -29.9645   22.7922 C   0  0  1  0  0  0  0  0  0  0  0  0
  -29.2645  -21.9033   23.5281 C   0  0  2  0  0  0  0  0  0  0  0  0
  -28.4599  -35.9924   23.9783 C   0  0  0  0  0  0  0  0  0  0  0  0
  -28.8017  -28.9972   15.1613 C   0  0  0  0  0  0  0  0  0  0  0  0
  -22.2441  -34.1859   21.4841 C   0  0  0  0  0  0  0  0  0  0  0  0
  -23.9046  -36.0190   21.8723 C   0  0  0  0  0  0  0  0  0  0  0  0
  -22.6617  -35.0359   23.7988 C   0  0  0  0  0  0  0  0  0  0  0  0
  -28.0818  -32.4092   25.2005 C   0  0  0  0  0  0  0  0  0  0  0  0
  -31.4116  -27.3247   22.0204 C   0  0  0  0  0  0  0  0  0  0  0  0
  -30.5934  -31.6048   17.4740 C   0  0  0  0  0  0  0  0  0  0  0  0
  -30.3611  -26.2383   21.7580 C   0  0  0  0  0  0  0  0  0  0  0  0
  -30.0930  -30.9279   16.1964 C   0  0  0  0  0  0  0  0  0  0  0  0
  -28.0512  -29.9838   17.3539 C   0  0  0  0  0  0  0  0  0  1  0  0
  -24.4787  -33.6832   22.6758 C   0  0  1  0  0  0  0  0  0  0  0  0
  -27.7011  -34.7348   24.3727 C   0  0  2  0  0  0  0  0  0  0  0  0
  -29.2606  -29.6583   16.4646 C   0  0  1  0  0  0  0  0  0  0  0  0
  -23.3305  -34.7062   22.4465 C   0  0  0  0  0  0  0  0  0  0  0  0
  -29.2080  -19.4480   23.3028 N   0  0  0  0  0  0  0  0  0  0  0  0
  -32.5308  -30.1573   17.7562 N   0  0  0  0  0  0  0  0  0  0  0  0
  -29.6374  -20.5113   24.0036 N   0  0  0  0  0  0  0  0  0  0  0  0
  -24.2288  -31.2338   22.4273 N   0  0  0  0  0  0  0  0  0  0  0  0
  -29.9450  -23.8317   22.1345 N   0  0  0  0  0  0  0  0  0  0  0  0
  -30.8953  -21.1328   25.9120 N   0  0  0  0  0  0  0  0  0  0  0  0
  -31.0974  -16.6213   25.9549 N   0  0  0  0  0  0  0  0  0  0  0  0
  -21.5839  -28.7291   22.2618 N   0  0  0  0  0  0  0  0  0  0  0  0
  -25.5080  -34.1385   23.6040 N   0  0  0  0  0  0  0  0  0  0  0  0
  -28.6911  -33.6928   24.7668 N   0  3  0  0  0  0  0  0  0  0  0  0
  -31.7447  -18.5247   27.0579 O   0  0  0  0  0  0  0  0  0  0  0  0
  -22.0659  -30.7248   21.1630 O   0  0  0  0  0  0  0  0  0  0  0  0
  -31.9060  -24.8337   22.8768 O   0  0  0  0  0  0  0  0  0  0  0  0
  -23.3881  -32.3409   24.2991 O   0  0  0  0  0  0  0  0  0  0  0  0
  -27.2836  -33.9573   22.1236 O   0  0  0  0  0  0  0  0  0  0  0  0
  -28.7476  -13.1841   22.2536 O   0  0  0  0  0  0  0  0  0  0  0  0
  -27.3259  -28.7990   17.6804 O   0  0  0  0  0  0  0  0  0  1  0  0
  -29.3335  -12.1179   16.8755 F   0  0  0  0  0  0  0  0  0  0  0  0
  -30.5805  -11.3125   21.3702 F   0  0  0  0  0  0  0  0  0  0  0  0
  1  2  1  0  0  0  0
  1  7  2  0  0  0  0
  2  8  2  0  0  0  0
  3  6  2  0  0  0  0
  3 10  1  0  0  0  0
  4 11  2  0  0  0  0
  4 19  1  0  0  0  0
  5 12  1  0  0  0  0
  5 19  2  0  0  0  0
  6 20  1  0  0  0  0
  7 22  1  0  0  0  0
  8 24  1  0  0  0  0
  9 13  2  0  0  0  0
  9 23  1  0  0  0  0
 10 26  2  0  0  0  0
 11 27  1  0  0  0  0
 12 27  2  0  0  0  0
 13 28  1  0  0  0  0
 14 15  2  0  0  0  0
 14 29  1  0  0  0  0
 15 30  1  0  0  0  0
 16 20  2  0  0  0  0
 16 26  1  0  0  0  0
 17 25  1  0  0  0  0
 17 28  2  0  0  0  0
 18 30  2  0  0  0  0
 18 31  1  0  0  0  0
 19 32  1  0  0  0  0
 20 34  1  0  0  0  0
 21 32  1  0  0  0  0
 21 33  2  0  0  0  0
 21 35  1  0  0  0  0
 22 24  2  0  0  0  0
 22 40  1  0  0  0  0
 23 25  2  0  0  0  0
 23 41  1  0  0  0  0
 24 49  1  0  0  0  0
 25 42  1  0  0  0  0
 26 58  1  0  0  0  0
 27 82  1  0  0  0  0
 28 83  1  0  0  0  0
 29 31  2  0  0  0  0
 29 82  1  0  0  0  0
 30 84  1  0  0  0  0
 31 85  1  0  0  0  0
 32 67  2  0  0  0  0
 33 69  1  0  0  0  0
 33 72  1  0  0  0  0
 34 59  1  0  0  0  0
 34 68  2  0  0  0  0
 35 73  1  0  0  0  0
 35 77  2  0  0  0  0
 36 50  1  0  0  0  0
 36 74  1  0  0  0  0
 36 78  2  0  0  0  0
 37 60  1  0  0  0  0
 37 71  1  0  0  0  0
 37 79  2  0  0  0  0
 38 63  1  0  0  0  0
 38 70  1  0  0  0  0
 38 80  2  0  0  0  0
 39 64  1  0  0  0  0
 39 75  1  0  0  0  0
 39 81  2  0  0  0  0
 40 43  1  0  0  0  0
 41 50  1  0  0  0  0
 42 70  1  0  0  0  0
 43 45  1  0  0  0  0
 44 46  1  0  0  0  0
 44 47  1  0  0  0  0
 45 49  1  0  0  0  0
 46 51  1  0  0  0  0
 47 71  1  0  0  0  0
 48 51  1  0  0  0  0
 48 71  1  0  0  0  0
 49 74  1  0  0  0  0
 50 70  1  0  0  0  0
 51 69  1  0  0  0  0
 52 64  1  0  0  0  0
 53 65  1  0  0  0  0
 54 66  1  0  0  0  0
 55 66  1  0  0  0  0
 56 66  1  0  0  0  0
 57 76  1  0  0  0  0
 58 60  1  0  0  0  0
 59 61  1  0  0  0  0
 61 65  1  0  0  0  0
 62 65  1  0  0  0  0
 62 83  1  0  0  0  0
 63 66  1  0  0  0  0
 63 75  1  0  0  0  0
 64 76  1  0  0  0  0
 67 69  1  0  0  0  0
M  CHG  1  76   1
M  ISO  4  37 100  60 100  62 101  83 101
M  END
> <Batch ID>
0132

> <Smiles>
CNC(C)C(=O)NC(C(=O)N1Cc2cc([101O:1][101CH2:1]C(C)CCC(=N)c3cccc(C[100CH2:0][100C:0](=O)N4CCCC(n5nc(-c6ccc(Oc7ccc(F)cc7F)cc6)c(C(N)=O)c5N)C4)c3)ccc2CC1C(=O)NC1CCCc2ccccc21)C(C)(C)C

> <Shape>
0.227

> <Color>
0.108

> <Negative vol penalty>
0.000

$$$$

  -OEChem-04052302283D

 93102  0     1  0  0  0  0  0999 V2000
  -29.6566  -36.7074   22.9081 C   0  0  0  0  0  0  0  0  0  0  0  0
  -29.8647  -35.4635   22.3209 C   0  0  0  0  0  0  0  0  0  0  0  0
  -26.0375  -10.9398   23.9556 C   0  0  0  0  0  0  0  0  0  0  0  0
  -27.8766  -10.2977   22.5264 C   0  0  0  0  0  0  0  0  0  0  0  0
  -28.7085  -36.8492   23.9204 C   0  0  0  0  0  0  0  0  0  0  0  0
  -29.1254  -34.3604   22.7464 C   0  0  0  0  0  0  0  0  0  0  0  0
  -27.1604  -29.6944   19.3007 C   0  0  0  0  0  0  0  0  0  0  0  0
  -26.2983  -23.0544   18.4998 C   0  0  0  0  0  0  0  0  0  0  0  0
  -25.1536  -22.2767   18.3253 C   0  0  0  0  0  0  0  0  0  0  0  0
  -26.8574  -10.7971   25.0749 C   0  0  0  0  0  0  0  0  0  0  0  0
  -28.6966  -10.1550   23.6458 C   0  0  0  0  0  0  0  0  0  0  0  0
  -27.6591  -28.4099   19.0885 C   0  0  0  0  0  0  0  0  0  0  0  0
  -28.0478   -8.2752   26.9848 C   0  0  0  0  0  0  0  0  0  0  0  0
  -27.5245   -7.6028   28.0891 C   0  0  0  0  0  0  0  0  0  0  0  0
  -27.4120  -21.1811   19.5427 C   0  0  0  0  0  0  0  0  0  0  0  0
  -26.1618  -27.5563   20.7764 C   0  0  0  0  0  0  0  0  0  0  0  0
  -27.8430   -9.5783   29.4429 C   0  0  0  0  0  0  0  0  0  0  0  0
  -26.5470  -10.6900   22.6813 C   0  0  0  0  0  0  0  0  0  0  0  0
  -24.5079  -10.1407   21.2504 C   0  0  0  0  0  0  0  0  0  0  0  0
  -27.9503  -35.7493   24.3519 C   0  0  0  0  0  0  0  0  0  0  0  0
  -26.1646  -29.9217   20.2615 C   0  0  0  0  0  0  0  0  0  0  0  0
  -28.1672  -34.4874   23.7663 C   0  0  0  0  0  0  0  0  0  0  0  0
  -26.2672  -20.4034   19.3682 C   0  0  0  0  0  0  0  0  0  0  0  0
  -25.6503  -28.8443   20.9969 C   0  0  0  0  0  0  0  0  0  0  0  0
  -27.4275  -22.5066   19.1085 C   0  0  0  0  0  0  0  0  0  0  0  0
  -25.1380  -20.9513   18.7595 C   0  0  0  0  0  0  0  0  0  0  0  0
  -28.1870  -10.4047   24.9200 C   0  0  0  0  0  0  0  0  0  0  0  0
  -27.1619  -27.3411   19.8285 C   0  0  0  0  0  0  0  0  0  0  0  0
  -28.4689   -9.5991   27.1095 C   0  0  0  0  0  0  0  0  0  0  0  0
  -27.4221   -8.2543   29.3182 C   0  0  0  0  0  0  0  0  0  0  0  0
  -28.3664  -10.2507   28.3386 C   0  0  0  0  0  0  0  0  0  0  0  0
  -25.7003  -10.8367   21.5247 C   0  0  0  0  0  0  0  0  0  0  0  0
  -24.0900  -10.6390   20.0406 C   0  0  0  0  0  0  0  0  0  0  0  0
  -28.2394  -17.9710   21.0699 C   0  0  0  0  0  0  0  0  0  0  0  0
  -27.1184  -18.7276   21.1045 C   0  0  0  0  0  0  0  0  0  0  0  0
  -23.8378   -9.1337   22.0203 C   0  0  0  0  0  0  0  0  0  0  0  0
  -25.9750  -31.6317   22.9343 C   0  0  0  0  0  0  0  0  0  0  0  0
  -25.6951  -16.0364   17.4645 C   0  0  0  0  0  0  0  0  0  0  0  0
  -22.8669  -30.7078   22.8432 C   0  0  0  0  0  0  0  0  0  0  0  0
  -20.5451  -28.4532   21.7601 C   0  0  0  0  0  0  0  0  0  0  0  0
  -26.9703  -35.9416   25.4820 C   0  0  0  0  0  0  0  0  0  0  0  0
  -25.6182  -31.3090   20.4595 C   0  0  0  0  0  0  0  0  0  0  0  0
  -24.5667  -29.0320   22.0261 C   0  0  0  0  0  0  0  0  0  0  0  0
  -28.7188  -17.3061   19.7954 C   0  0  0  0  0  0  0  0  0  0  0  0
  -25.9640  -34.8017   25.6162 C   0  0  0  0  0  0  0  0  0  0  0  0
  -26.1929  -12.6206   16.1457 C   0  0  0  0  0  0  0  0  0  0  0  0
  -26.6719  -33.4527   25.5382 C   0  0  0  0  0  0  0  0  0  0  0  0
  -25.7055  -11.6776   17.2467 C   0  0  0  0  0  0  0  0  0  0  0  0
  -25.4646  -13.9573   16.1534 C   0  0  0  0  0  0  0  0  0  0  0  0
  -25.6490  -13.8022   18.6468 C   0  0  0  0  0  0  0  0  0  0  0  0
  -28.0585  -17.7889   18.5112 C   0  0  0  0  0  0  0  0  0  0  0  0
  -26.2737  -18.9554   19.8519 C   0  0  2  0  0  0  0  0  0  0  0  0
  -27.3674  -33.2723   24.1835 C   0  0  1  0  0  0  0  0  0  0  0  0
  -24.9686  -31.5060   21.8257 C   0  0  1  0  0  0  0  0  0  0  0  0
  -25.0318  -12.4139   18.4182 C   0  0  2  0  0  0  0  0  0  0  0  0
  -26.5577  -19.3636   22.3533 C   0  0  0  0  0  0  0  0  0  0  0  0
  -22.8156  -20.4813   19.5793 C   0  0  0  0  0  0  0  0  0  0  0  0
  -28.6649  -16.4438   22.9666 C   0  0  0  0  0  0  0  0  0  0  0  0
  -18.0910  -27.9423   21.8772 C   0  0  0  0  0  0  0  0  0  0  0  0
  -23.2203  -29.6755   25.6926 C   0  0  0  0  0  0  0  0  0  0  0  0
  -21.1065  -28.3649   25.4057 C   0  0  0  0  0  0  0  0  0  0  0  0
  -21.0558  -30.8553   25.2714 C   0  0  0  0  0  0  0  0  0  0  0  0
  -28.7544  -23.2205   21.8516 C   0  0  0  0  0  0  0  0  0  0  0  0
  -30.1396  -24.8835   20.6173 C   0  0  0  0  0  0  0  0  0  0  0  0
  -20.2364  -28.6955   18.8266 C   0  0  0  0  0  0  0  0  0  0  0  0
  -28.6672  -23.3493   19.2979 C   0  0  0  0  0  0  0  0  0  0  0  0
  -23.9005  -20.1385   18.5628 C   0  0  0  0  0  0  0  0  0  0  0  0
  -29.1281  -17.6923   22.2543 C   0  0  0  0  0  0  0  0  0  0  0  0
  -25.8296  -16.6738   18.8259 C   0  0  0  0  0  0  0  0  0  0  0  0
  -27.6424  -25.1979   20.7405 C   0  0  0  0  0  0  0  0  0  1  0  0
  -22.0847  -29.5327   23.3783 C   0  0  1  0  0  0  0  0  0  0  0  0
  -19.1932  -28.6400   21.0954 C   0  0  2  0  0  0  0  0  0  0  0  0
  -21.8886  -29.6035   24.9191 C   0  0  0  0  0  0  0  0  0  0  0  0
  -28.7768  -24.1545   20.6262 C   0  0  0  0  0  0  0  0  0  0  0  0
  -26.0195  -11.7106   20.5663 N   0  0  0  0  0  0  0  0  0  0  0  0
  -25.0215  -11.5669   19.6779 N   0  0  0  0  0  0  0  0  0  0  0  0
  -24.0695  -30.4083   22.1876 N   0  0  0  0  0  0  0  0  0  0  0  0
  -25.6033  -14.6427   17.4408 N   0  0  0  0  0  0  0  0  0  0  0  0
  -23.0203  -10.3696   19.2624 N   0  0  0  0  0  0  0  0  0  0  0  0
  -24.1696   -7.7905   21.7966 N   0  0  0  0  0  0  0  0  0  0  0  0
  -26.4024  -32.9258   23.1621 N   0  0  0  0  0  0  0  0  0  0  0  0
  -20.8398  -29.4910   22.6188 N   0  0  0  0  0  0  0  0  0  0  0  0
  -26.5811  -17.9768   18.7081 N   0  3  2  0  0  0  0  0  0  0  0  0
  -19.2140  -28.0828   19.7134 N   0  3  0  0  0  0  0  0  0  0  0  0
  -22.9586   -9.4157   22.8694 O   0  0  0  0  0  0  0  0  0  0  0  0
  -26.3359  -30.6289   23.5392 O   0  0  0  0  0  0  0  0  0  0  0  0
  -25.6674  -16.7496   16.4587 O   0  0  0  0  0  0  0  0  0  0  0  0
  -22.4235  -31.8488   22.9948 O   0  0  0  0  0  0  0  0  0  0  0  0
  -21.2659  -27.4818   21.5423 O   0  0  0  0  0  0  0  0  0  0  0  0
  -28.9875  -10.2656   26.0120 O   0  0  0  0  0  0  0  0  0  0  0  0
  -27.6474  -26.0864   19.6239 O   0  0  0  0  0  0  0  0  0  1  0  0
  -26.9180   -7.6089   30.3782 F   0  0  0  0  0  0  0  0  0  0  0  0
  -28.7682  -11.5229   28.4643 F   0  0  0  0  0  0  0  0  0  0  0  0
  1  2  1  0  0  0  0
  1  5  2  0  0  0  0
  2  6  2  0  0  0  0
  3 10  2  0  0  0  0
  3 18  1  0  0  0  0
  4 11  1  0  0  0  0
  4 18  2  0  0  0  0
  5 20  1  0  0  0  0
  6 22  1  0  0  0  0
  7 12  2  0  0  0  0
  7 21  1  0  0  0  0
  8  9  2  0  0  0  0
  8 25  1  0  0  0  0
  9 26  1  0  0  0  0
 10 27  1  0  0  0  0
 11 27  2  0  0  0  0
 12 28  1  0  0  0  0
 13 14  2  0  0  0  0
 13 29  1  0  0  0  0
 14 30  1  0  0  0  0
 15 23  1  0  0  0  0
 15 25  2  0  0  0  0
 16 24  1  0  0  0  0
 16 28  2  0  0  0  0
 17 30  2  0  0  0  0
 17 31  1  0  0  0  0
 18 32  1  0  0  0  0
 19 32  1  0  0  0  0
 19 33  2  0  0  0  0
 19 36  1  0  0  0  0
 20 22  2  0  0  0  0
 20 41  1  0  0  0  0
 21 24  2  0  0  0  0
 21 42  1  0  0  0  0
 22 53  1  0  0  0  0
 23 26  2  0  0  0  0
 23 52  1  0  0  0  0
 24 43  1  0  0  0  0
 25 66  1  0  0  0  0
 26 67  1  0  0  0  0
 27 90  1  0  0  0  0
 28 91  1  0  0  0  0
 29 31  2  0  0  0  0
 29 90  1  0  0  0  0
 30 92  1  0  0  0  0
 31 93  1  0  0  0  0
 32 75  2  0  0  0  0
 33 76  1  0  0  0  0
 33 79  1  0  0  0  0
 34 35  2  0  0  0  0
 34 44  1  0  0  0  0
 34 68  1  0  0  0  0
 35 52  1  0  0  0  0
 35 56  1  0  0  0  0
 36 80  1  0  0  0  0
 36 85  2  0  0  0  0
 37 54  1  0  0  0  0
 37 81  1  0  0  0  0
 37 86  2  0  0  0  0
 38 69  1  0  0  0  0
 38 78  1  0  0  0  0
 38 87  2  0  0  0  0
 39 71  1  0  0  0  0
 39 77  1  0  0  0  0
 39 88  2  0  0  0  0
 40 72  1  0  0  0  0
 40 82  1  0  0  0  0
 40 89  2  0  0  0  0
 41 45  1  0  0  0  0
 42 54  1  0  0  0  0
 43 77  1  0  0  0  0
 44 51  1  0  0  0  0
 45 47  1  0  0  0  0
 46 48  1  0  0  0  0
 46 49  1  0  0  0  0
 47 53  1  0  0  0  0
 48 55  1  0  0  0  0
 49 78  1  0  0  0  0
 50 55  1  0  0  0  0
 50 78  1  0  0  0  0
 51 83  1  0  0  0  0
 52 83  1  0  0  0  0
 53 81  1  0  0  0  0
 54 77  1  0  0  0  0
 55 76  1  0  0  0  0
 57 67  1  0  0  0  0
 58 68  1  0  0  0  0
 59 72  1  0  0  0  0
 60 73  1  0  0  0  0
 61 73  1  0  0  0  0
 62 73  1  0  0  0  0
 63 74  1  0  0  0  0
 64 74  1  0  0  0  0
 65 84  1  0  0  0  0
 66 74  1  0  0  0  0
 69 83  1  0  0  0  0
 70 74  1  0  0  0  0
 70 91  1  0  0  0  0
 71 73  1  0  0  0  0
 71 82  1  0  0  0  0
 72 84  1  0  0  0  0
 75 76  1  0  0  0  0
M  CHG  2  83   1  84   1
M  ISO  4  38 100  69 100  70 101  91 101
M  END
> <Batch ID>
0132

> <Smiles>
CCC1=C(C)C(c2cc(CC(C)(C)[101CH2:1][101O:1]c3ccc4c(c3)CN(C(=O)C(NC(=O)C(C)NC)C(C)(C)C)C(C(=O)NC3CCCc5ccccc53)C4)ccc2CC)N([100CH2:0][100C:0](=O)N2CCCC(n3nc(-c4ccc(Oc5ccc(F)cc5F)cc4)c(C(N)=O)c3N)C2)CC1

> <Shape>
0.221

> <Color>
0.065

> <Negative vol penalty>
0.000

$$$$

  -OEChem-04052302283D

 86 94  0     1  0  0  0  0  0999 V2000
  -29.6116  -31.6749   22.2310 C   0  0  0  0  0  0  0  0  0  0  0  0
  -29.2219  -30.3427   22.3252 C   0  0  0  0  0  0  0  0  0  0  0  0
  -24.3607  -13.9806   19.8856 C   0  0  0  0  0  0  0  0  0  0  0  0
  -26.3152  -14.1679   21.2933 C   0  0  0  0  0  0  0  0  0  0  0  0
  -28.6952  -32.6892   22.5055 C   0  0  0  0  0  0  0  0  0  0  0  0
  -27.9157  -30.0240   22.6950 C   0  0  0  0  0  0  0  0  0  0  0  0
  -25.9096  -26.3860   19.7994 C   0  0  0  0  0  0  0  0  0  0  0  0
  -24.4478  -12.5899   19.9496 C   0  0  0  0  0  0  0  0  0  0  0  0
  -26.4023  -12.7772   21.3574 C   0  0  0  0  0  0  0  0  0  0  0  0
  -26.2975  -25.0736   20.0659 C   0  0  0  0  0  0  0  0  0  0  0  0
  -23.9425   -8.9911   20.0381 C   0  0  0  0  0  0  0  0  0  0  0  0
  -22.7659   -8.2774   20.2660 C   0  0  0  0  0  0  0  0  0  0  0  0
  -24.2463  -24.7212   21.2854 C   0  0  0  0  0  0  0  0  0  0  0  0
  -30.6668  -24.3981   21.5289 C   0  0  0  0  0  0  0  0  0  0  0  0
  -31.0829  -23.4571   19.3430 C   0  0  0  0  0  0  0  0  0  0  0  0
  -30.7478  -22.0007   21.2413 C   0  0  0  0  0  0  0  0  0  0  0  0
  -22.4760   -9.4276   22.3708 C   0  0  0  0  0  0  0  0  0  0  0  0
  -25.2944  -14.7696   20.5574 C   0  0  0  0  0  0  0  0  0  0  0  0
  -24.4966  -17.0550   21.3624 C   0  0  0  0  0  0  0  0  0  0  0  0
  -27.3744  -32.3829   22.8695 C   0  0  0  0  0  0  0  0  0  0  0  0
  -24.6899  -26.8800   20.2840 C   0  0  0  0  0  0  0  0  0  0  0  0
  -26.9811  -31.0351   22.9760 C   0  0  0  0  0  0  0  0  0  0  0  0
  -23.8440  -26.0394   21.0216 C   0  0  0  0  0  0  0  0  0  0  0  0
  -30.9172  -24.5699   20.1675 C   0  0  0  0  0  0  0  0  0  0  0  0
  -30.5822  -23.1135   22.0658 C   0  0  0  0  0  0  0  0  0  0  0  0
  -30.9982  -22.1725   19.8798 C   0  0  0  0  0  0  0  0  0  0  0  0
  -25.4686  -11.9882   20.6855 C   0  0  0  0  0  0  0  0  0  0  0  0
  -25.4672  -24.2419   20.8115 C   0  0  0  0  0  0  0  0  0  0  0  0
  -24.3859   -9.9230   20.9765 C   0  0  0  0  0  0  0  0  0  0  0  0
  -22.0327   -8.4957   21.4324 C   0  0  0  0  0  0  0  0  0  0  0  0
  -23.6526  -10.1413   22.1429 C   0  0  0  0  0  0  0  0  0  0  0  0
  -25.2053  -16.2062   20.4912 C   0  0  0  0  0  0  0  0  0  0  0  0
  -24.7279  -18.3180   20.8748 C   0  0  0  0  0  0  0  0  0  0  0  0
  -27.4514  -21.5862   22.1468 C   0  0  0  0  0  0  0  0  0  0  0  0
  -23.7006  -16.7308   22.5100 C   0  0  0  0  0  0  0  0  0  0  0  0
  -28.1245  -21.6105   23.3153 C   0  0  0  0  0  0  0  0  0  0  0  0
  -23.8453  -29.2118   22.2722 C   0  0  0  0  0  0  0  0  0  0  0  0
  -20.8490  -28.3976   21.3336 C   0  0  0  0  0  0  0  0  0  0  0  0
  -18.7576  -26.0210   20.0589 C   0  0  0  0  0  0  0  0  0  0  0  0
  -29.1490  -20.6774   17.5979 C   0  0  0  0  0  0  0  0  0  0  0  0
  -26.4326  -33.5128   23.2026 C   0  0  0  0  0  0  0  0  0  0  0  0
  -24.2737  -28.2898   19.9652 C   0  0  0  0  0  0  0  0  0  0  0  0
  -22.5152  -26.5152   21.5474 C   0  0  0  0  0  0  0  0  0  0  0  0
  -24.9643  -33.0957   23.2237 C   0  0  0  0  0  0  0  0  0  0  0  0
  -25.6785  -20.6439   16.8033 C   0  0  0  0  0  0  0  0  0  0  0  0
  -24.7893  -31.7976   24.0056 C   0  0  0  0  0  0  0  0  0  0  0  0
  -25.0998  -19.5794   17.7369 C   0  0  0  0  0  0  0  0  0  0  0  0
  -27.0733  -20.2645   16.3106 C   0  0  0  0  0  0  0  0  0  0  0  0
  -27.4614  -18.8772   18.3102 C   0  0  0  0  0  0  0  0  0  0  0  0
  -25.5663  -30.6497   23.3500 C   0  0  1  0  0  0  0  0  0  0  0  0
  -23.2444  -28.8449   20.9448 C   0  0  1  0  0  0  0  0  0  0  0  0
  -26.0787  -19.2417   18.8775 C   0  0  2  0  0  0  0  0  0  0  0  0
  -31.0073  -25.9438   19.5940 C   0  0  0  0  0  0  0  0  0  0  0  0
  -27.0746  -20.2069   25.1387 C   0  0  0  0  0  0  0  0  0  0  0  0
  -16.3559  -25.6371   19.4410 C   0  0  0  0  0  0  0  0  0  0  0  0
  -20.1390  -28.1031   24.2864 C   0  0  0  0  0  0  0  0  0  0  0  0
  -18.0948  -26.8329   23.5965 C   0  0  0  0  0  0  0  0  0  0  0  0
  -18.3796  -29.2100   22.8958 C   0  0  0  0  0  0  0  0  0  0  0  0
  -19.4451  -25.5287   17.2227 C   0  0  0  0  0  0  0  0  0  0  0  0
  -30.3110  -22.9270   23.5379 C   0  0  0  0  0  0  0  0  0  0  0  0
  -31.1754  -20.9828   18.9978 C   0  0  0  0  0  0  0  0  0  0  0  0
  -27.2437  -22.7029   21.1739 C   0  0  0  0  0  0  0  0  0  1  0  0
  -28.2200  -20.3439   24.1447 C   0  0  0  0  0  0  0  0  0  0  0  0
  -28.8168  -22.8354   23.8815 C   0  0  0  0  0  0  0  0  0  0  0  0
  -19.8050  -27.4210   21.8188 C   0  0  1  0  0  0  0  0  0  0  0  0
  -17.7248  -26.0793   18.9478 C   0  0  2  0  0  0  0  0  0  0  0  0
  -19.1304  -27.8831   23.1413 C   0  0  0  0  0  0  0  0  0  0  0  0
  -25.8391  -16.8736   19.5233 N   0  0  0  0  0  0  0  0  0  0  0  0
  -25.5295  -18.1552   19.7834 N   0  0  0  0  0  0  0  0  0  0  0  0
  -22.1557  -27.9036   21.2146 N   0  0  0  0  0  0  0  0  0  0  0  0
  -27.9529  -19.9579   17.4411 N   0  0  0  0  0  0  0  0  0  0  0  0
  -24.3216  -19.5408   21.2773 N   0  0  0  0  0  0  0  0  0  0  0  0
  -23.5680  -15.3833   22.8721 N   0  0  0  0  0  0  0  0  0  0  0  0
  -24.8537  -30.1533   22.1923 N   0  0  0  0  0  0  0  0  0  0  0  0
  -18.8769  -27.2309   20.7093 N   0  0  0  0  0  0  0  0  0  0  0  0
  -29.9211  -20.3283   18.6991 N   0  0  0  0  0  0  0  0  0  0  0  0
  -18.1270  -25.1924   17.8197 N   0  3  0  0  0  0  0  0  0  0  0  0
  -23.1106  -17.6086   23.1844 O   0  0  0  0  0  0  0  0  0  0  0  0
  -23.4243  -28.6812   23.2934 O   0  0  0  0  0  0  0  0  0  0  0  0
  -20.5159  -29.5541   21.0631 O   0  0  0  0  0  0  0  0  0  0  0  0
  -19.3923  -25.0028   20.3256 O   0  0  0  0  0  0  0  0  0  0  0  0
  -29.5000  -21.5689   16.8175 O   0  0  0  0  0  0  0  0  0  0  0  0
  -25.5538  -10.6313   20.7484 O   0  0  0  0  0  0  0  0  0  0  0  0
  -25.8438  -22.9608   21.0736 O   0  0  0  0  0  0  0  0  0  1  0  0
  -20.9020   -7.8114   21.6504 F   0  0  0  0  0  0  0  0  0  0  0  0
  -24.0729  -11.0361   23.0475 F   0  0  0  0  0  0  0  0  0  0  0  0
  1  2  1  0  0  0  0
  1  5  2  0  0  0  0
  2  6  2  0  0  0  0
  3  8  2  0  0  0  0
  3 18  1  0  0  0  0
  4  9  1  0  0  0  0
  4 18  2  0  0  0  0
  5 20  1  0  0  0  0
  6 22  1  0  0  0  0
  7 10  2  0  0  0  0
  7 21  1  0  0  0  0
  8 27  1  0  0  0  0
  9 27  2  0  0  0  0
 10 28  1  0  0  0  0
 11 12  2  0  0  0  0
 11 29  1  0  0  0  0
 12 30  1  0  0  0  0
 13 23  1  0  0  0  0
 13 28  2  0  0  0  0
 14 24  2  0  0  0  0
 14 25  1  0  0  0  0
 15 24  1  0  0  0  0
 15 26  2  0  0  0  0
 16 25  2  0  0  0  0
 16 26  1  0  0  0  0
 17 30  2  0  0  0  0
 17 31  1  0  0  0  0
 18 32  1  0  0  0  0
 19 32  1  0  0  0  0
 19 33  2  0  0  0  0
 19 35  1  0  0  0  0
 20 22  2  0  0  0  0
 20 41  1  0  0  0  0
 21 23  2  0  0  0  0
 21 42  1  0  0  0  0
 22 50  1  0  0  0  0
 23 43  1  0  0  0  0
 24 53  1  0  0  0  0
 25 60  1  0  0  0  0
 26 61  1  0  0  0  0
 27 83  1  0  0  0  0
 28 84  1  0  0  0  0
 29 31  2  0  0  0  0
 29 83  1  0  0  0  0
 30 85  1  0  0  0  0
 31 86  1  0  0  0  0
 32 68  2  0  0  0  0
 33 69  1  0  0  0  0
 33 72  1  0  0  0  0
 34 36  2  0  0  0  0
 34 62  1  0  0  0  0
 35 73  1  0  0  0  0
 35 78  2  0  0  0  0
 36 63  1  0  0  0  0
 36 64  1  0  0  0  0
 37 51  1  0  0  0  0
 37 74  1  0  0  0  0
 37 79  2  0  0  0  0
 38 65  1  0  0  0  0
 38 70  1  0  0  0  0
 38 80  2  0  0  0  0
 39 66  1  0  0  0  0
 39 75  1  0  0  0  0
 39 81  2  0  0  0  0
 40 71  1  0  0  0  0
 40 76  1  0  0  0  0
 40 82  2  0  0  0  0
 41 44  1  0  0  0  0
 42 51  1  0  0  0  0
 43 70  1  0  0  0  0
 44 46  1  0  0  0  0
 45 47  1  0  0  0  0
 45 48  1  0  0  0  0
 46 50  1  0  0  0  0
 47 52  1  0  0  0  0
 48 71  1  0  0  0  0
 49 52  1  0  0  0  0
 49 71  1  0  0  0  0
 50 74  1  0  0  0  0
 51 70  1  0  0  0  0
 52 69  1  0  0  0  0
 54 63  1  0  0  0  0
 55 66  1  0  0  0  0
 56 67  1  0  0  0  0
 57 67  1  0  0  0  0
 58 67  1  0  0  0  0
 59 77  1  0  0  0  0
 60 64  1  0  0  0  0
 61 76  1  0  0  0  0
 62 84  1  0  0  0  0
 65 67  1  0  0  0  0
 65 75  1  0  0  0  0
 66 77  1  0  0  0  0
 68 69  1  0  0  0  0
M  CHG  1  77   1
M  ISO  4  40 100  62 101  76 100  84 101
M  END
> <Batch ID>
0132

> <Smiles>
CCC(=C[101CH2:1][101O:1]c1ccc2c(c1)CN(C(=O)C(NC(=O)C(C)NC)C(C)(C)C)C(C(=O)NC1CCCc3ccccc31)C2)CCc1cc(C)cc(C[100NH:0][100C:0](=O)N2CCCC(n3nc(-c4ccc(Oc5ccc(F)cc5F)cc4)c(C(N)=O)c3N)C2)c1

> <Shape>
0.226

> <Color>
0.054

> <Negative vol penalty>
0.000

$$$$

  -OEChem-04052302283D

 84 92  0     1  0  0  0  0  0999 V2000
  -23.8087  -29.1824   22.3876 C   0  0  0  0  0  0  0  0  0  0  0  0
  -24.2403  -29.7898   21.4458 C   0  0  0  0  0  0  0  0  0  0  0  0
  -30.2197  -11.9983   19.9881 C   0  0  0  0  0  0  0  0  0  0  0  0
  -30.0902  -13.0869   20.8446 C   0  0  0  0  0  0  0  0  0  0  0  0
  -28.4987  -23.5609   21.1765 C   0  0  0  0  0  0  0  0  0  0  0  0
  -29.9952  -23.9129   19.3127 C   0  0  0  0  0  0  0  0  0  0  0  0
  -29.3313  -11.8395   18.9253 C   0  0  0  0  0  0  0  0  0  0  0  0
  -29.0729  -14.0180   20.6381 C   0  0  0  0  0  0  0  0  0  0  0  0
  -25.9632  -17.0856   24.9306 C   0  0  0  0  0  0  0  0  0  0  0  0
  -22.3329  -27.0179   25.6971 C   0  0  0  0  0  0  0  0  0  0  0  0
  -21.5922  -28.0821   25.1829 C   0  0  0  0  0  0  0  0  0  0  0  0
  -28.4189  -22.2057   20.8565 C   0  0  0  0  0  0  0  0  0  0  0  0
  -29.9154  -22.5576   18.9927 C   0  0  0  0  0  0  0  0  0  0  0  0
  -26.0970  -18.3747   25.4445 C   0  0  0  0  0  0  0  0  0  0  0  0
  -28.1064  -18.5855   20.7466 C   0  0  0  0  0  0  0  0  0  0  0  0
  -28.2106  -17.6656   21.7899 C   0  0  0  0  0  0  0  0  0  0  0  0
  -24.0347  -27.3939   24.0240 C   0  0  0  0  0  0  0  0  0  0  0  0
  -24.3999  -19.1533   23.9171 C   0  0  0  0  0  0  0  0  0  0  0  0
  -30.4119  -18.5112   22.3157 C   0  0  0  0  0  0  0  0  0  0  0  0
  -23.2940  -28.4581   23.5097 C   0  0  0  0  0  0  0  0  0  0  0  0
  -29.2869  -24.4146   20.4046 C   0  0  0  0  0  0  0  0  0  0  0  0
  -30.2964  -26.4323   21.5951 C   0  0  0  0  0  0  0  0  0  0  0  0
  -28.2966  -12.7638   18.7115 C   0  0  0  0  0  0  0  0  0  0  0  0
  -25.0530  -16.8224   23.8969 C   0  0  0  0  0  0  0  0  0  0  0  0
  -28.1706  -13.8720   19.5707 C   0  0  0  0  0  0  0  0  0  0  0  0
  -24.2547  -17.8595   23.3936 C   0  0  0  0  0  0  0  0  0  0  0  0
  -23.5542  -26.6738   25.1177 C   0  0  0  0  0  0  0  0  0  0  0  0
  -22.0727  -28.8022   24.0892 C   0  0  0  0  0  0  0  0  0  0  0  0
  -29.1272  -21.7040   19.7646 C   0  0  0  0  0  0  0  0  0  0  0  0
  -25.3174  -19.4093   24.9358 C   0  0  0  0  0  0  0  0  0  0  0  0
  -29.1550  -19.4682   20.4878 C   0  0  0  0  0  0  0  0  0  0  0  0
  -29.3633  -17.6284   22.5745 C   0  0  0  0  0  0  0  0  0  0  0  0
  -30.3077  -19.4311   21.2724 C   0  0  0  0  0  0  0  0  0  0  0  0
  -29.3693  -25.8148   20.7343 C   0  0  0  0  0  0  0  0  0  0  0  0
  -29.9546  -27.7623   21.5707 C   0  0  0  0  0  0  0  0  0  0  0  0
  -24.7601  -30.5212   20.3118 C   0  0  0  0  0  0  0  0  0  0  0  0
  -31.3707  -25.8552   22.3493 C   0  0  0  0  0  0  0  0  0  0  0  0
  -25.2970  -15.7721   20.9067 C   0  0  0  0  0  0  0  0  0  0  0  0
  -24.8595  -23.0168   25.5414 C   0  0  0  0  0  0  0  0  0  0  0  0
  -22.0564  -15.7840   21.0509 C   0  0  0  0  0  0  0  0  0  0  0  0
  -19.2250  -17.0296   22.4926 C   0  0  0  0  0  0  0  0  0  0  0  0
  -27.3896  -12.5757   17.5212 C   0  0  0  0  0  0  0  0  0  0  0  0
  -24.9016  -15.4211   23.3718 C   0  0  0  0  0  0  0  0  0  0  0  0
  -23.2483  -17.6252   22.2978 C   0  0  0  0  0  0  0  0  0  0  0  0
  -26.1095  -13.4040   17.5940 C   0  0  0  0  0  0  0  0  0  0  0  0
  -27.9618  -31.0769   18.7688 C   0  0  0  0  0  0  0  0  0  0  0  0
  -26.4251  -14.8397   18.0015 C   0  0  0  0  0  0  0  0  0  0  0  0
  -28.7559  -29.8268   19.1461 C   0  0  0  0  0  0  0  0  0  0  0  0
  -26.4863  -30.7572   18.5518 C   0  0  0  0  0  0  0  0  0  0  0  0
  -26.6318  -28.8243   20.0987 C   0  0  0  0  0  0  0  0  0  0  0  0
  -27.0648  -14.8899   19.3943 C   0  0  1  0  0  0  0  0  0  0  0  0
  -24.3103  -15.3703   21.9663 C   0  0  1  0  0  0  0  0  0  0  0  0
  -28.1215  -29.1133   20.3532 C   0  0  1  0  0  0  0  0  0  0  0  0
  -21.2518  -29.9366   23.5646 C   0  0  0  0  0  0  0  0  0  0  0  0
  -16.7230  -16.8769   22.3739 C   0  0  0  0  0  0  0  0  0  0  0  0
  -22.0748  -17.4877   18.5196 C   0  0  0  0  0  0  0  0  0  0  0  0
  -19.6887  -18.0842   18.9874 C   0  0  0  0  0  0  0  0  0  0  0  0
  -20.3188  -15.7076   18.5662 C   0  0  0  0  0  0  0  0  0  0  0  0
  -19.0360  -16.0590   25.2820 C   0  0  0  0  0  0  0  0  0  0  0  0
  -24.3559  -25.5219   25.6747 C   0  0  0  0  0  0  0  0  0  0  0  0
  -24.0181  -24.1768   25.0289 C   0  0  0  0  0  0  0  0  0  0  0  0
  -24.6161  -21.6808   24.8673 C   0  0  0  0  0  0  0  0  0  1  0  0
  -20.9766  -16.7957   20.7515 C   0  0  1  0  0  0  0  0  0  0  0  0
  -17.9845  -16.3426   23.0343 C   0  0  2  0  0  0  0  0  0  0  0  0
  -20.7850  -17.0239   19.2255 C   0  0  0  0  0  0  0  0  0  0  0  0
  -28.5034  -26.6813   20.2021 N   0  0  0  0  0  0  0  0  0  0  0  0
  -28.8849  -27.8569   20.7299 N   0  0  0  0  0  0  0  0  0  0  0  0
  -25.9241  -30.0491   19.7018 N   0  0  0  0  0  0  0  0  0  0  0  0
  -23.1416  -16.2391   21.8130 N   0  0  0  0  0  0  0  0  0  0  0  0
  -30.4676  -28.8485   22.1868 N   0  0  0  0  0  0  0  0  0  0  0  0
  -31.5828  -24.4727   22.2595 N   0  0  0  0  0  0  0  0  0  0  0  0
  -26.0568  -14.7257   20.4196 N   0  0  0  0  0  0  0  0  0  0  0  0
  -19.7784  -16.3300   21.4411 N   0  0  0  0  0  0  0  0  0  0  0  0
  -17.8729  -16.5587   24.5046 N   0  3  0  0  0  0  0  0  0  0  0  0
  -24.1338  -31.5170   19.9622 O   0  0  0  0  0  0  0  0  0  0  0  0
  -32.1099  -26.5427   23.0938 O   0  0  0  0  0  0  0  0  0  0  0  0
  -25.3629  -16.9443   20.5559 O   0  0  0  0  0  0  0  0  0  0  0  0
  -25.7094  -23.1519   26.4200 O   0  0  0  0  0  0  0  0  0  0  0  0
  -21.9377  -14.6305   20.6302 O   0  0  0  0  0  0  0  0  0  0  0  0
  -19.6576  -18.0836   22.9535 O   0  0  0  0  0  0  0  0  0  0  0  0
  -29.0498  -20.3815   19.4522 O   0  0  0  0  0  0  0  0  0  0  0  0
  -25.4465  -20.6686   25.4352 O   0  0  0  0  0  0  0  0  0  1  0  0
  -29.4625  -16.7460   23.5773 F   0  0  0  0  0  0  0  0  0  0  0  0
  -31.3179  -20.2774   21.0293 F   0  0  0  0  0  0  0  0  0  0  0  0
  1  2  3  0  0  0  0
  1 20  1  0  0  0  0
  2 36  1  0  0  0  0
  3  4  1  0  0  0  0
  3  7  2  0  0  0  0
  4  8  2  0  0  0  0
  5 12  2  0  0  0  0
  5 21  1  0  0  0  0
  6 13  1  0  0  0  0
  6 21  2  0  0  0  0
  7 23  1  0  0  0  0
  8 25  1  0  0  0  0
  9 14  2  0  0  0  0
  9 24  1  0  0  0  0
 10 11  2  0  0  0  0
 10 27  1  0  0  0  0
 11 28  1  0  0  0  0
 12 29  1  0  0  0  0
 13 29  2  0  0  0  0
 14 30  1  0  0  0  0
 15 16  2  0  0  0  0
 15 31  1  0  0  0  0
 16 32  1  0  0  0  0
 17 20  1  0  0  0  0
 17 27  2  0  0  0  0
 18 26  1  0  0  0  0
 18 30  2  0  0  0  0
 19 32  2  0  0  0  0
 19 33  1  0  0  0  0
 20 28  2  0  0  0  0
 21 34  1  0  0  0  0
 22 34  1  0  0  0  0
 22 35  2  0  0  0  0
 22 37  1  0  0  0  0
 23 25  2  0  0  0  0
 23 42  1  0  0  0  0
 24 26  2  0  0  0  0
 24 43  1  0  0  0  0
 25 51  1  0  0  0  0
 26 44  1  0  0  0  0
 27 60  1  0  0  0  0
 28 54  1  0  0  0  0
 29 81  1  0  0  0  0
 30 82  1  0  0  0  0
 31 33  2  0  0  0  0
 31 81  1  0  0  0  0
 32 83  1  0  0  0  0
 33 84  1  0  0  0  0
 34 66  2  0  0  0  0
 35 67  1  0  0  0  0
 35 70  1  0  0  0  0
 36 68  1  0  0  0  0
 36 75  2  0  0  0  0
 37 71  1  0  0  0  0
 37 76  2  0  0  0  0
 38 52  1  0  0  0  0
 38 72  1  0  0  0  0
 38 77  2  0  0  0  0
 39 61  1  0  0  0  0
 39 62  1  0  0  0  0
 39 78  2  0  0  0  0
 40 63  1  0  0  0  0
 40 69  1  0  0  0  0
 40 79  2  0  0  0  0
 41 64  1  0  0  0  0
 41 73  1  0  0  0  0
 41 80  2  0  0  0  0
 42 45  1  0  0  0  0
 43 52  1  0  0  0  0
 44 69  1  0  0  0  0
 45 47  1  0  0  0  0
 46 48  1  0  0  0  0
 46 49  1  0  0  0  0
 47 51  1  0  0  0  0
 48 53  1  0  0  0  0
 49 68  1  0  0  0  0
 50 53  1  0  0  0  0
 50 68  1  0  0  0  0
 51 72  1  0  0  0  0
 52 69  1  0  0  0  0
 53 67  1  0  0  0  0
 55 64  1  0  0  0  0
 56 65  1  0  0  0  0
 57 65  1  0  0  0  0
 58 65  1  0  0  0  0
 59 74  1  0  0  0  0
 60 61  1  0  0  0  0
 62 82  1  0  0  0  0
 63 65  1  0  0  0  0
 63 73  1  0  0  0  0
 64 74  1  0  0  0  0
 66 67  1  0  0  0  0
M  CHG  1  74   1
M  ISO  4   2 100  36 100  62 101  82 101
M  END
> <Batch ID>
0132

> <Smiles>
CNC(C)C(=O)NC(C(=O)N1Cc2cc([101O:1][101CH2:1]C(=O)CCc3ccc(C)c(C#[100C:0][100C:0](=O)N4CCCC(n5nc(-c6ccc(Oc7ccc(F)cc7F)cc6)c(C(N)=O)c5N)C4)c3)ccc2CC1C(=O)NC1CCCc2ccccc21)C(C)(C)C

> <Shape>
0.200

> <Color>
0.079

> <Negative vol penalty>
0.000

$$$$

  -OEChem-04052302283D

 87 95  0     1  0  0  0  0  0999 V2000
  -19.1263  -32.9173   23.2837 C   0  0  0  0  0  0  0  0  0  0  0  0
  -20.2906  -32.1623   23.1842 C   0  0  0  0  0  0  0  0  0  0  0  0
  -24.3232  -12.3718   22.2632 C   0  0  0  0  0  0  0  0  0  0  0  0
  -22.8226  -12.6691   20.3932 C   0  0  0  0  0  0  0  0  0  0  0  0
  -33.0071  -21.8566   18.7621 C   0  0  0  0  0  0  0  0  0  0  0  0
  -33.5104  -23.1460   18.5896 C   0  0  0  0  0  0  0  0  0  0  0  0
  -17.8942  -32.2808   23.4271 C   0  0  0  0  0  0  0  0  0  0  0  0
  -20.2234  -30.7702   23.2290 C   0  0  0  0  0  0  0  0  0  0  0  0
  -23.0944  -28.5716   19.6838 C   0  0  0  0  0  0  0  0  0  0  0  0
  -23.3165  -11.7097   22.9658 C   0  0  0  0  0  0  0  0  0  0  0  0
  -21.8159  -12.0069   21.0958 C   0  0  0  0  0  0  0  0  0  0  0  0
  -24.4659  -28.5060   19.9256 C   0  0  0  0  0  0  0  0  0  0  0  0
  -21.2531   -9.6235   25.1119 C   0  0  0  0  0  0  0  0  0  0  0  0
  -21.5945   -8.4480   25.7806 C   0  0  0  0  0  0  0  0  0  0  0  0
  -30.8587  -22.7770   19.3741 C   0  0  0  0  0  0  0  0  0  0  0  0
  -24.2261  -26.2109   20.6285 C   0  0  0  0  0  0  0  0  0  0  0  0
  -22.2677   -7.4514   23.6853 C   0  0  0  0  0  0  0  0  0  0  0  0
  -24.0763  -12.8516   20.9769 C   0  0  0  0  0  0  0  0  0  0  0  0
  -31.6812  -21.6721   19.1543 C   0  0  0  0  0  0  0  0  0  0  0  0
  -32.6879  -24.2509   18.8094 C   0  0  0  0  0  0  0  0  0  0  0  0
  -26.0720  -12.9624   19.3919 C   0  0  0  0  0  0  0  0  0  0  0  0
  -17.8109  -30.8800   23.4640 C   0  0  0  0  0  0  0  0  0  0  0  0
  -22.2755  -27.4588   19.9233 C   0  0  0  0  0  0  0  0  0  0  0  0
  -18.9891  -30.1144   23.3743 C   0  0  0  0  0  0  0  0  0  0  0  0
  -22.8450  -26.2641   20.3865 C   0  0  0  0  0  0  0  0  0  0  0  0
  -22.0628  -11.5272   22.3821 C   0  0  0  0  0  0  0  0  0  0  0  0
  -25.0316  -27.3265   20.4008 C   0  0  0  0  0  0  0  0  0  0  0  0
  -21.4190   -9.7129   23.7297 C   0  0  0  0  0  0  0  0  0  0  0  0
  -31.3621  -24.0665   19.2016 C   0  0  0  0  0  0  0  0  0  0  0  0
  -22.1018   -7.3620   25.0674 C   0  0  0  0  0  0  0  0  0  0  0  0
  -21.9263   -8.6269   23.0165 C   0  0  0  0  0  0  0  0  0  0  0  0
  -25.1156  -13.5362   20.2508 C   0  0  0  0  0  0  0  0  0  0  0  0
  -26.8242  -14.0258   18.9562 C   0  0  0  0  0  0  0  0  0  0  0  0
  -31.1574  -20.3272   19.3333 C   0  0  0  0  0  0  0  0  0  0  0  0
  -30.0620  -20.0025   20.0526 C   0  0  0  0  0  0  0  0  0  0  0  0
  -33.2333  -25.5883   18.6245 C   0  0  0  0  0  0  0  0  0  0  0  0
  -26.2633  -11.5907   19.0209 C   0  0  0  0  0  0  0  0  0  0  0  0
  -29.6498  -18.5866   20.1313 C   0  0  0  0  0  0  0  0  0  0  0  0
  -19.8225  -26.8524   21.8518 C   0  0  0  0  0  0  0  0  0  0  0  0
  -28.4361  -26.1506   20.0376 C   0  0  0  0  0  0  0  0  0  0  0  0
  -19.7272  -24.0557   20.2112 C   0  0  0  0  0  0  0  0  0  0  0  0
  -21.3848  -21.7472   18.3218 C   0  0  0  0  0  0  0  0  0  0  0  0
  -16.4614  -30.2381   23.6678 C   0  0  0  0  0  0  0  0  0  0  0  0
  -20.8019  -27.5375   19.6320 C   0  0  0  0  0  0  0  0  0  0  0  0
  -22.0124  -25.0350   20.6404 C   0  0  0  0  0  0  0  0  0  0  0  0
  -16.4377  -28.7496   23.3300 C   0  0  0  0  0  0  0  0  0  0  0  0
  -26.0844  -18.9954   19.3879 C   0  0  0  0  0  0  0  0  0  0  0  0
  -17.6391  -28.0425   23.9491 C   0  0  0  0  0  0  0  0  0  0  0  0
  -25.5891  -17.5582   19.5253 C   0  0  0  0  0  0  0  0  0  0  0  0
  -27.2127  -19.3077   20.3697 C   0  0  0  0  0  0  0  0  0  0  0  0
  -27.8612  -16.9167   20.4232 C   0  0  0  0  0  0  0  0  0  0  0  0
  -18.9547  -28.6016   23.3939 C   0  0  1  0  0  0  0  0  0  0  0  0
  -19.9850  -26.5026   20.3996 C   0  0  1  0  0  0  0  0  0  0  0  0
  -26.7579  -16.5666   19.4126 C   0  0  1  0  0  0  0  0  0  0  0  0
  -35.0537  -27.2227   19.3521 C   0  0  0  0  0  0  0  0  0  0  0  0
  -21.0527  -19.5485   17.1587 C   0  0  0  0  0  0  0  0  0  0  0  0
  -19.8389  -22.6189   22.9007 C   0  0  0  0  0  0  0  0  0  0  0  0
  -20.4577  -20.5241   21.6771 C   0  0  0  0  0  0  0  0  0  0  0  0
  -18.2556  -21.6140   21.2460 C   0  0  0  0  0  0  0  0  0  0  0  0
  -22.0213  -22.9172   15.6789 C   0  0  0  0  0  0  0  0  0  0  0  0
  -34.7288  -25.8124   18.8851 C   0  0  0  0  0  0  0  0  0  0  0  0
  -26.9956  -25.9876   20.4775 C   0  0  0  0  0  0  0  0  0  1  0  0
  -29.2077  -24.8663   19.8137 C   0  0  0  0  0  0  0  0  0  0  0  0
  -20.3669  -22.6981   20.3746 C   0  0  1  0  0  0  0  0  0  0  0  0
  -21.0182  -21.0623   17.0176 C   0  0  2  0  0  0  0  0  0  0  0  0
  -19.7454  -21.8873   21.5468 C   0  0  0  0  0  0  0  0  0  0  0  0
  -25.2462  -14.8613   20.3560 N   0  0  0  0  0  0  0  0  0  0  0  0
  -26.2935  -15.1289   19.5576 N   0  0  0  0  0  0  0  0  0  0  0  0
  -28.2919  -18.3123   20.2838 N   0  0  0  0  0  0  0  0  0  0  0  0
  -20.5756  -25.1637   20.3464 N   0  0  0  0  0  0  0  0  0  0  0  0
  -27.8813  -14.1155   18.1214 N   0  0  0  0  0  0  0  0  0  0  0  0
  -25.4013  -10.6262   19.5602 N   0  0  0  0  0  0  0  0  0  0  0  0
  -19.2109  -28.0719   22.0717 N   0  0  0  0  0  0  0  0  0  0  0  0
  -20.2684  -22.0414   19.0756 N   0  0  0  0  0  0  0  0  0  0  0  0
  -21.9701  -21.4557   15.9405 N   0  3  0  0  0  0  0  0  0  0  0  0
  -32.5411  -26.5549   18.2661 O   0  0  0  0  0  0  0  0  0  0  0  0
  -27.1821  -11.2290   18.2472 O   0  0  0  0  0  0  0  0  0  0  0  0
  -30.5350  -17.7320   20.0619 O   0  0  0  0  0  0  0  0  0  0  0  0
  -20.2211  -26.0730   22.7093 O   0  0  0  0  0  0  0  0  0  0  0  0
  -28.9475  -27.2572   19.8731 O   0  0  0  0  0  0  0  0  0  0  0  0
  -18.5207  -24.1301   19.9655 O   0  0  0  0  0  0  0  0  0  0  0  0
  -22.5458  -21.9930   18.6417 O   0  0  0  0  0  0  0  0  0  0  0  0
  -21.0803  -10.8809   23.0673 O   0  0  0  0  0  0  0  0  0  0  0  0
  -26.3699  -27.2600   20.6383 O   0  0  0  0  0  0  0  0  0  1  0  0
  -30.5355  -25.1429   19.4211 O   0  0  0  0  0  0  0  0  0  0  0  0
  -22.4311   -6.2338   25.7100 F   0  0  0  0  0  0  0  0  0  0  0  0
  -22.0890   -8.7072   21.6887 F   0  0  0  0  0  0  0  0  0  0  0  0
  1  2  1  0  0  0  0
  1  7  2  0  0  0  0
  2  8  2  0  0  0  0
  3 10  2  0  0  0  0
  3 18  1  0  0  0  0
  4 11  1  0  0  0  0
  4 18  2  0  0  0  0
  5  6  2  0  0  0  0
  5 19  1  0  0  0  0
  6 20  1  0  0  0  0
  7 22  1  0  0  0  0
  8 24  1  0  0  0  0
  9 12  2  0  0  0  0
  9 23  1  0  0  0  0
 10 26  1  0  0  0  0
 11 26  2  0  0  0  0
 12 27  1  0  0  0  0
 13 14  2  0  0  0  0
 13 28  1  0  0  0  0
 14 30  1  0  0  0  0
 15 19  2  0  0  0  0
 15 29  1  0  0  0  0
 16 25  1  0  0  0  0
 16 27  2  0  0  0  0
 17 30  2  0  0  0  0
 17 31  1  0  0  0  0
 18 32  1  0  0  0  0
 19 34  1  0  0  0  0
 20 29  2  0  0  0  0
 20 36  1  0  0  0  0
 21 32  1  0  0  0  0
 21 33  2  0  0  0  0
 21 37  1  0  0  0  0
 22 24  2  0  0  0  0
 22 43  1  0  0  0  0
 23 25  2  0  0  0  0
 23 44  1  0  0  0  0
 24 52  1  0  0  0  0
 25 45  1  0  0  0  0
 26 83  1  0  0  0  0
 27 84  1  0  0  0  0
 28 31  2  0  0  0  0
 28 83  1  0  0  0  0
 29 85  1  0  0  0  0
 30 86  1  0  0  0  0
 31 87  1  0  0  0  0
 32 67  2  0  0  0  0
 33 68  1  0  0  0  0
 33 71  1  0  0  0  0
 34 35  2  0  0  0  0
 35 38  1  0  0  0  0
 36 61  1  0  0  0  0
 36 76  2  0  0  0  0
 37 72  1  0  0  0  0
 37 77  2  0  0  0  0
 38 69  1  0  0  0  0
 38 78  2  0  0  0  0
 39 53  1  0  0  0  0
 39 73  1  0  0  0  0
 39 79  2  0  0  0  0
 40 62  1  0  0  0  0
 40 63  1  0  0  0  0
 40 80  2  0  0  0  0
 41 64  1  0  0  0  0
 41 70  1  0  0  0  0
 41 81  2  0  0  0  0
 42 65  1  0  0  0  0
 42 74  1  0  0  0  0
 42 82  2  0  0  0  0
 43 46  1  0  0  0  0
 44 53  1  0  0  0  0
 45 70  1  0  0  0  0
 46 48  1  0  0  0  0
 47 49  1  0  0  0  0
 47 50  1  0  0  0  0
 48 52  1  0  0  0  0
 49 54  1  0  0  0  0
 50 69  1  0  0  0  0
 51 54  1  0  0  0  0
 51 69  1  0  0  0  0
 52 73  1  0  0  0  0
 53 70  1  0  0  0  0
 54 68  1  0  0  0  0
 55 61  1  0  0  0  0
 56 65  1  0  0  0  0
 57 66  1  0  0  0  0
 58 66  1  0  0  0  0
 59 66  1  0  0  0  0
 60 75  1  0  0  0  0
 62 84  1  0  0  0  0
 63 85  1  0  0  0  0
 64 66  1  0  0  0  0
 64 74  1  0  0  0  0
 65 75  1  0  0  0  0
 67 68  1  0  0  0  0
M  CHG  1  75   1
M  ISO  4  35 100  38 100  62 101  84 101
M  END
> <Batch ID>
0132

> <Smiles>
CCC(=O)c1ccc(C=[100CH:0][100C:0](=O)N2CCCC(n3nc(-c4ccc(Oc5ccc(F)cc5F)cc4)c(C(N)=O)c3N)C2)cc1OCC(=O)[101CH2:1][101O:1]c1ccc2c(c1)CN(C(=O)C(NC(=O)C(C)NC)C(C)(C)C)C(C(=O)NC1CCCc3ccccc31)C2

> <Shape>
0.228

> <Color>
0.082

> <Negative vol penalty>
0.000

$$$$

  -OEChem-04052302283D

 84 92  0     1  0  0  0  0  0999 V2000
  -17.8366  -25.8792   22.6889 C   0  0  0  0  0  0  0  0  0  0  0  0
  -19.1631  -25.4985   22.5128 C   0  0  0  0  0  0  0  0  0  0  0  0
  -22.1834  -13.0779   22.6015 C   0  0  0  0  0  0  0  0  0  0  0  0
  -21.8217  -13.9695   20.3853 C   0  0  0  0  0  0  0  0  0  0  0  0
  -17.4482  -27.1918   22.4240 C   0  0  0  0  0  0  0  0  0  0  0  0
  -20.1018  -26.4301   22.0707 C   0  0  0  0  0  0  0  0  0  0  0  0
  -26.0021  -26.7584   23.6783 C   0  0  0  0  0  0  0  0  0  0  0  0
  -28.3070  -20.5031   15.9019 C   0  0  0  0  0  0  0  0  0  0  0  0
  -27.5337  -19.3714   15.6435 C   0  0  0  0  0  0  0  0  0  0  0  0
  -20.8532  -13.3443   22.9258 C   0  0  0  0  0  0  0  0  0  0  0  0
  -20.4915  -14.2359   20.7096 C   0  0  0  0  0  0  0  0  0  0  0  0
  -27.1694  -26.3159   23.0576 C   0  0  0  0  0  0  0  0  0  0  0  0
  -17.8254  -11.9460   22.3689 C   0  0  0  0  0  0  0  0  0  0  0  0
  -17.1094  -10.9524   23.0364 C   0  0  0  0  0  0  0  0  0  0  0  0
  -27.4925  -28.5120   22.1132 C   0  0  0  0  0  0  0  0  0  0  0  0
  -29.1234  -19.4814   17.9333 C   0  0  0  0  0  0  0  0  0  0  0  0
  -16.7397  -12.4616   24.8864 C   0  0  0  0  0  0  0  0  0  0  0  0
  -22.6677  -13.3906   21.3313 C   0  0  0  0  0  0  0  0  0  0  0  0
  -24.5602  -11.9334   20.4353 C   0  0  0  0  0  0  0  0  0  0  0  0
  -18.3845  -28.1423   21.9877 C   0  0  0  0  0  0  0  0  0  0  0  0
  -25.5646  -28.0803   23.5120 C   0  0  0  0  0  0  0  0  0  0  0  0
  -19.7253  -27.7563   21.7985 C   0  0  0  0  0  0  0  0  0  0  0  0
  -26.3207  -28.9695   22.7350 C   0  0  0  0  0  0  0  0  0  0  0  0
  -29.1020  -20.5581   17.0468 C   0  0  0  0  0  0  0  0  0  0  0  0
  -27.5552  -18.2947   16.5299 C   0  0  0  0  0  0  0  0  0  0  0  0
  -28.3501  -18.3497   17.6749 C   0  0  0  0  0  0  0  0  0  0  0  0
  -20.0072  -13.9233   21.9798 C   0  0  0  0  0  0  0  0  0  0  0  0
  -27.9133  -27.1919   22.2726 C   0  0  0  0  0  0  0  0  0  0  0  0
  -17.9986  -13.1975   22.9602 C   0  0  0  0  0  0  0  0  0  0  0  0
  -16.5665  -11.2102   24.2951 C   0  0  0  0  0  0  0  0  0  0  0  0
  -17.4557  -13.4553   24.2189 C   0  0  0  0  0  0  0  0  0  0  0  0
  -24.0418  -13.1161   20.9959 C   0  0  0  0  0  0  0  0  0  0  0  0
  -25.9068  -12.1737   20.3112 C   0  0  0  0  0  0  0  0  0  0  0  0
  -23.8848  -10.7256   20.0601 C   0  0  0  0  0  0  0  0  0  0  0  0
  -22.9760  -29.4474   22.2736 C   0  0  0  0  0  0  0  0  0  0  0  0
  -24.3272  -32.1572   23.4372 C   0  0  0  0  0  0  0  0  0  0  0  0
  -27.1565  -33.7915   24.4226 C   0  0  0  0  0  0  0  0  0  0  0  0
  -29.1274  -17.1771   19.7646 C   0  0  0  0  0  0  0  0  0  0  0  0
  -17.9081  -29.5373   21.6689 C   0  0  0  0  0  0  0  0  0  0  0  0
  -24.3176  -28.5494   24.2100 C   0  0  0  0  0  0  0  0  0  0  0  0
  -25.9051  -30.4042   22.5413 C   0  0  0  0  0  0  0  0  0  0  0  0
  -19.0385  -30.5577   21.5627 C   0  0  0  0  0  0  0  0  0  0  0  0
  -29.4590  -14.6973   22.2980 C   0  0  0  0  0  0  0  0  0  0  0  0
  -20.1777  -30.0057   20.7116 C   0  0  0  0  0  0  0  0  0  0  0  0
  -28.1573  -13.8990   22.1965 C   0  0  0  0  0  0  0  0  0  0  0  0
  -29.2328  -16.1861   22.0410 C   0  0  0  0  0  0  0  0  0  0  0  0
  -27.2325  -15.7024   20.6867 C   0  0  0  0  0  0  0  0  0  0  0  0
  -20.7778  -28.7442   21.3441 C   0  0  1  0  0  0  0  0  0  0  0  0
  -23.6909  -29.7758   23.5538 C   0  0  1  0  0  0  0  0  0  0  0  0
  -27.4206  -14.1881   20.8739 C   0  0  2  0  0  0  0  0  0  0  0  0
  -26.7159  -17.0957   16.2282 C   0  0  0  0  0  0  0  0  0  0  0  0
  -27.9500  -36.0090   25.2887 C   0  0  0  0  0  0  0  0  0  0  0  0
  -24.0581  -33.3437   20.6390 C   0  0  0  0  0  0  0  0  0  0  0  0
  -25.6832  -35.1247   21.3136 C   0  0  0  0  0  0  0  0  0  0  0  0
  -23.4977  -34.9193   22.4985 C   0  0  0  0  0  0  0  0  0  0  0  0
  -28.1652  -32.5825   26.9286 C   0  0  0  0  0  0  0  0  0  0  0  0
  -29.9378  -21.7819   17.3253 C   0  0  0  0  0  0  0  0  0  0  0  0
  -29.2149  -22.8507   18.1529 C   0  0  0  0  0  0  0  0  0  0  0  0
  -30.0761  -24.0916   18.4134 C   0  0  0  0  0  0  0  0  0  0  0  0
  -29.3033  -25.1414   19.2162 C   0  0  0  0  0  0  0  0  0  0  0  0
  -30.1398  -26.3733   19.5637 C   0  0  0  0  0  0  0  0  0  0  0  0
  -29.4062  -27.3869   20.4316 C   0  0  0  0  0  0  0  0  0  1  0  0
  -25.2934  -33.1856   22.9007 C   0  0  1  0  0  0  0  0  0  0  0  0
  -27.4643  -34.6163   25.6593 C   0  0  2  0  0  0  0  0  0  0  0  0
  -24.6402  -34.1158   21.8398 C   0  0  0  0  0  0  0  0  0  0  0  0
  -24.9825  -14.0391   21.2131 N   0  0  0  0  0  0  0  0  0  0  0  0
  -26.1055  -13.4364   20.7869 N   0  0  0  0  0  0  0  0  0  0  0  0
  -24.6750  -30.8134   23.2392 N   0  0  0  0  0  0  0  0  0  0  0  0
  -28.5341  -16.3834   20.7691 N   0  0  0  0  0  0  0  0  0  0  0  0
  -26.9285  -11.4259   19.8429 N   0  0  0  0  0  0  0  0  0  0  0  0
  -22.4991  -10.6467   20.2552 N   0  0  0  0  0  0  0  0  0  0  0  0
  -28.3859  -17.2659   18.5870 N   0  0  0  0  0  0  0  0  0  0  0  0
  -21.6504  -29.0962   22.4436 N   0  0  0  0  0  0  0  0  0  0  0  0
  -25.8290  -33.8874   24.0621 N   0  0  0  0  0  0  0  0  0  0  0  0
  -28.5197  -33.9522   26.4754 N   0  3  0  0  0  0  0  0  0  0  0  0
  -24.4945   -9.7393   19.5816 O   0  0  0  0  0  0  0  0  0  0  0  0
  -23.5818  -29.5096   21.2102 O   0  0  0  0  0  0  0  0  0  0  0  0
  -23.3051  -32.5323   24.0171 O   0  0  0  0  0  0  0  0  0  0  0  0
  -28.0091  -33.1313   23.8330 O   0  0  0  0  0  0  0  0  0  0  0  0
  -30.2260  -17.7145   19.9266 O   0  0  0  0  0  0  0  0  0  0  0  0
  -18.7091  -14.1832   22.2958 O   0  0  0  0  0  0  0  0  0  0  0  0
  -29.0527  -26.7624   21.6650 O   0  0  0  0  0  0  0  0  0  1  0  0
  -15.8776  -10.2564   24.9354 F   0  0  0  0  0  0  0  0  0  0  0  0
  -17.6178  -14.6560   24.7915 F   0  0  0  0  0  0  0  0  0  0  0  0
  1  2  1  0  0  0  0
  1  5  2  0  0  0  0
  2  6  2  0  0  0  0
  3 10  2  0  0  0  0
  3 18  1  0  0  0  0
  4 11  1  0  0  0  0
  4 18  2  0  0  0  0
  5 20  1  0  0  0  0
  6 22  1  0  0  0  0
  7 12  2  0  0  0  0
  7 21  1  0  0  0  0
  8  9  2  0  0  0  0
  8 24  1  0  0  0  0
  9 25  1  0  0  0  0
 10 27  1  0  0  0  0
 11 27  2  0  0  0  0
 12 28  1  0  0  0  0
 13 14  2  0  0  0  0
 13 29  1  0  0  0  0
 14 30  1  0  0  0  0
 15 23  1  0  0  0  0
 15 28  2  0  0  0  0
 16 24  2  0  0  0  0
 16 26  1  0  0  0  0
 17 30  2  0  0  0  0
 17 31  1  0  0  0  0
 18 32  1  0  0  0  0
 19 32  1  0  0  0  0
 19 33  2  0  0  0  0
 19 34  1  0  0  0  0
 20 22  2  0  0  0  0
 20 39  1  0  0  0  0
 21 23  2  0  0  0  0
 21 40  1  0  0  0  0
 22 48  1  0  0  0  0
 23 41  1  0  0  0  0
 24 57  1  0  0  0  0
 25 26  2  0  0  0  0
 25 51  1  0  0  0  0
 26 72  1  0  0  0  0
 27 81  1  0  0  0  0
 28 82  1  0  0  0  0
 29 31  2  0  0  0  0
 29 81  1  0  0  0  0
 30 83  1  0  0  0  0
 31 84  1  0  0  0  0
 32 66  2  0  0  0  0
 33 67  1  0  0  0  0
 33 70  1  0  0  0  0
 34 71  1  0  0  0  0
 34 76  2  0  0  0  0
 35 49  1  0  0  0  0
 35 73  1  0  0  0  0
 35 77  2  0  0  0  0
 36 63  1  0  0  0  0
 36 68  1  0  0  0  0
 36 78  2  0  0  0  0
 37 64  1  0  0  0  0
 37 74  1  0  0  0  0
 37 79  2  0  0  0  0
 38 69  1  0  0  0  0
 38 72  1  0  0  0  0
 38 80  2  0  0  0  0
 39 42  1  0  0  0  0
 40 49  1  0  0  0  0
 41 68  1  0  0  0  0
 42 44  1  0  0  0  0
 43 45  1  0  0  0  0
 43 46  1  0  0  0  0
 44 48  1  0  0  0  0
 45 50  1  0  0  0  0
 46 69  1  0  0  0  0
 47 50  1  0  0  0  0
 47 69  1  0  0  0  0
 48 73  1  0  0  0  0
 49 68  1  0  0  0  0
 50 67  1  0  0  0  0
 52 64  1  0  0  0  0
 53 65  1  0  0  0  0
 54 65  1  0  0  0  0
 55 65  1  0  0  0  0
 56 75  1  0  0  0  0
 57 58  1  0  0  0  0
 58 59  1  0  0  0  0
 59 60  1  0  0  0  0
 60 61  1  0  0  0  0
 61 62  1  0  0  0  0
 62 82  1  0  0  0  0
 63 65  1  0  0  0  0
 63 74  1  0  0  0  0
 64 75  1  0  0  0  0
 66 67  1  0  0  0  0
M  CHG  1  75   1
M  ISO  4  38 100  62 101  72 100  82 101
M  END
> <Batch ID>
0132

> <Smiles>
CNC(C)C(=O)NC(C(=O)N1Cc2cc([101O:1][101CH2:1]CCCCCc3ccc(C)c([100NH:0][100C:0](=O)N4CCCC(n5nc(-c6ccc(Oc7ccc(F)cc7F)cc6)c(C(N)=O)c5N)C4)c3)ccc2CC1C(=O)NC1CCCc2ccccc21)C(C)(C)C

> <Shape>
0.281

> <Color>
0.104

> <Negative vol penalty>
0.000

$$$$

  -OEChem-04052302283D

 84 92  0     1  0  0  0  0  0999 V2000
  -26.7530  -11.3850   17.6557 C   0  0  0  0  0  0  0  0  0  0  0  0
  -26.1143  -12.4956   17.1133 C   0  0  0  0  0  0  0  0  0  0  0  0
  -29.8816  -26.5163   18.3852 C   0  0  0  0  0  0  0  0  0  0  0  0
  -30.2104  -26.4776   20.7784 C   0  0  0  0  0  0  0  0  0  0  0  0
  -26.7095  -11.1599   19.0309 C   0  0  0  0  0  0  0  0  0  0  0  0
  -25.4308  -13.3811   17.9459 C   0  0  0  0  0  0  0  0  0  0  0  0
  -23.8045  -20.3295   18.5708 C   0  0  0  0  0  0  0  0  0  0  0  0
  -16.6453  -29.7883   23.0160 C   0  0  0  0  0  0  0  0  0  0  0  0
  -17.2469  -28.5459   23.2161 C   0  0  0  0  0  0  0  0  0  0  0  0
  -31.1479  -27.0774   18.2202 C   0  0  0  0  0  0  0  0  0  0  0  0
  -31.4768  -27.0387   20.6135 C   0  0  0  0  0  0  0  0  0  0  0  0
  -22.7040  -21.1660   18.7524 C   0  0  0  0  0  0  0  0  0  0  0  0
  -34.6511  -28.7930   20.8494 C   0  0  0  0  0  0  0  0  0  0  0  0
  -35.0130  -29.8379   21.6996 C   0  0  0  0  0  0  0  0  0  0  0  0
  -22.7629  -20.7190   21.1222 C   0  0  0  0  0  0  0  0  0  0  0  0
  -18.8051  -30.8596   23.1739 C   0  0  0  0  0  0  0  0  0  0  0  0
  -33.1522  -31.1456   20.8845 C   0  0  0  0  0  0  0  0  0  0  0  0
  -29.4128  -26.2165   19.6643 C   0  0  0  0  0  0  0  0  0  0  0  0
  -27.7772  -24.2684   19.8583 C   0  0  0  0  0  0  0  0  0  0  0  0
  -26.0333  -12.0483   19.8819 C   0  0  0  0  0  0  0  0  0  0  0  0
  -24.3867  -19.6718   19.6640 C   0  0  0  0  0  0  0  0  0  0  0  0
  -25.3771  -13.1669   19.3337 C   0  0  0  0  0  0  0  0  0  0  0  0
  -23.8723  -19.8767   20.9522 C   0  0  0  0  0  0  0  0  0  0  0  0
  -17.4244  -30.9452   22.9948 C   0  0  0  0  0  0  0  0  0  0  0  0
  -18.6276  -28.4603   23.3952 C   0  0  0  0  0  0  0  0  0  0  0  0
  -19.4067  -29.6171   23.3740 C   0  0  0  0  0  0  0  0  0  0  0  0
  -31.9455  -27.3386   19.3344 C   0  0  0  0  0  0  0  0  0  0  0  0
  -22.1812  -21.3586   20.0279 C   0  0  0  0  0  0  0  0  0  0  0  0
  -33.5398  -28.9244   20.0167 C   0  0  0  0  0  0  0  0  0  0  0  0
  -34.2636  -31.0141   21.7172 C   0  0  0  0  0  0  0  0  0  0  0  0
  -32.7903  -30.1007   20.0343 C   0  0  0  0  0  0  0  0  0  0  0  0
  -28.1045  -25.6374   19.8353 C   0  0  0  0  0  0  0  0  0  0  0  0
  -26.4168  -24.2437   20.0457 C   0  0  0  0  0  0  0  0  0  0  0  0
  -28.6270  -23.1216   19.7226 C   0  0  0  0  0  0  0  0  0  0  0  0
  -24.8080  -16.6307   20.4873 C   0  0  0  0  0  0  0  0  0  0  0  0
  -26.5114  -17.9317   22.9221 C   0  0  0  0  0  0  0  0  0  0  0  0
  -27.1053  -20.6309   24.9241 C   0  0  0  0  0  0  0  0  0  0  0  0
  -22.7921  -28.4032   22.4569 C   0  0  0  0  0  0  0  0  0  0  0  0
  -25.9738  -11.7376   21.3565 C   0  0  0  0  0  0  0  0  0  0  0  0
  -25.5899  -18.7938   19.4550 C   0  0  0  0  0  0  0  0  0  0  0  0
  -24.4734  -19.2098   22.1615 C   0  0  0  0  0  0  0  0  0  0  0  0
  -25.5452  -12.9265   22.2127 C   0  0  0  0  0  0  0  0  0  0  0  0
  -23.4182  -27.6771   18.7340 C   0  0  0  0  0  0  0  0  0  0  0  0
  -24.3274  -13.6127   21.6019 C   0  0  0  0  0  0  0  0  0  0  0  0
  -23.8529  -26.2374   18.9910 C   0  0  0  0  0  0  0  0  0  0  0  0
  -22.6522  -28.2377   19.9283 C   0  0  0  0  0  0  0  0  0  0  0  0
  -24.6385  -27.3672   21.1611 C   0  0  0  0  0  0  0  0  0  0  0  0
  -24.6465  -14.1637   20.2069 C   0  0  1  0  0  0  0  0  0  0  0  0
  -25.7837  -17.7704   20.5697 C   0  0  1  0  0  0  0  0  0  0  0  0
  -24.6170  -26.0765   20.3233 C   0  0  2  0  0  0  0  0  0  0  0  0
  -16.7809  -32.2734   22.7814 C   0  0  0  0  0  0  0  0  0  0  0  0
  -28.5312  -21.3807   26.8482 C   0  0  0  0  0  0  0  0  0  0  0  0
  -24.7772  -16.3080   24.8368 C   0  0  0  0  0  0  0  0  0  0  0  0
  -25.5761  -17.7798   26.6979 C   0  0  0  0  0  0  0  0  0  0  0  0
  -27.2052  -16.3774   25.4323 C   0  0  0  0  0  0  0  0  0  0  0  0
  -28.3390  -22.7900   23.3193 C   0  0  0  0  0  0  0  0  0  0  0  0
  -19.2551  -27.1061   23.6110 C   0  0  0  0  0  0  0  0  0  0  0  0
  -20.8866  -29.5500   23.5638 C   0  0  0  0  0  0  0  0  0  0  0  0
  -19.4326  -26.2933   22.3235 C   0  0  0  0  0  0  0  0  0  0  0  0
  -20.1409  -24.9544   22.5527 C   0  0  0  0  0  0  0  0  0  0  0  0
  -20.2687  -24.1660   21.2504 C   0  0  0  0  0  0  0  0  0  0  0  0
  -21.0086  -22.8523   21.4595 C   0  0  0  0  0  0  0  0  0  1  0  0
  -26.1888  -18.4067   24.3183 C   0  0  1  0  0  0  0  0  0  0  0  0
  -28.3963  -21.3158   25.3348 C   0  0  2  0  0  0  0  0  0  0  0  0
  -25.9241  -17.2292   25.2985 C   0  0  0  0  0  0  0  0  0  0  0  0
  -27.0379  -26.4253   19.9951 N   0  0  0  0  0  0  0  0  0  0  0  0
  -26.0271  -25.5486   20.1203 N   0  0  0  0  0  0  0  0  0  0  0  0
  -25.6448  -18.3557   21.9047 N   0  0  0  0  0  0  0  0  0  0  0  0
  -23.3188  -27.9988   21.2148 N   0  0  0  0  0  0  0  0  0  0  0  0
  -25.5279  -23.2333   20.1522 N   0  0  0  0  0  0  0  0  0  0  0  0
  -30.0009  -23.3263   19.5363 N   0  0  0  0  0  0  0  0  0  0  0  0
  -25.4002  -15.3948   20.3101 N   0  0  0  0  0  0  0  0  0  0  0  0
  -27.2875  -19.2801   24.7164 N   0  0  0  0  0  0  0  0  0  0  0  0
  -21.5682  -29.0639   22.3858 N   0  0  0  0  0  0  0  0  0  0  0  0
  -28.4384  -22.7059   24.7992 N   0  3  0  0  0  0  0  0  0  0  0  0
  -28.1789  -21.9502   19.7487 O   0  0  0  0  0  0  0  0  0  0  0  0
  -23.6069  -16.8557   20.5792 O   0  0  0  0  0  0  0  0  0  0  0  0
  -27.5000  -17.2169   22.7398 O   0  0  0  0  0  0  0  0  0  0  0  0
  -26.0408  -21.2334   24.8036 O   0  0  0  0  0  0  0  0  0  0  0  0
  -23.3631  -28.1960   23.5318 O   0  0  0  0  0  0  0  0  0  0  0  0
  -33.1813  -27.8858   19.1738 O   0  0  0  0  0  0  0  0  0  0  0  0
  -21.1067  -22.1741   20.2078 O   0  0  0  0  0  0  0  0  0  1  0  0
  -34.6103  -32.0169   22.5348 F   0  0  0  0  0  0  0  0  0  0  0  0
  -31.7209  -30.2323   19.2375 F   0  0  0  0  0  0  0  0  0  0  0  0
  1  2  1  0  0  0  0
  1  5  2  0  0  0  0
  2  6  2  0  0  0  0
  3 10  2  0  0  0  0
  3 18  1  0  0  0  0
  4 11  1  0  0  0  0
  4 18  2  0  0  0  0
  5 20  1  0  0  0  0
  6 22  1  0  0  0  0
  7 12  2  0  0  0  0
  7 21  1  0  0  0  0
  8  9  2  0  0  0  0
  8 24  1  0  0  0  0
  9 25  1  0  0  0  0
 10 27  1  0  0  0  0
 11 27  2  0  0  0  0
 12 28  1  0  0  0  0
 13 14  2  0  0  0  0
 13 29  1  0  0  0  0
 14 30  1  0  0  0  0
 15 23  1  0  0  0  0
 15 28  2  0  0  0  0
 16 24  2  0  0  0  0
 16 26  1  0  0  0  0
 17 30  2  0  0  0  0
 17 31  1  0  0  0  0
 18 32  1  0  0  0  0
 19 32  1  0  0  0  0
 19 33  2  0  0  0  0
 19 34  1  0  0  0  0
 20 22  2  0  0  0  0
 20 39  1  0  0  0  0
 21 23  2  0  0  0  0
 21 40  1  0  0  0  0
 22 48  1  0  0  0  0
 23 41  1  0  0  0  0
 24 51  1  0  0  0  0
 25 26  2  0  0  0  0
 25 57  1  0  0  0  0
 26 58  1  0  0  0  0
 27 81  1  0  0  0  0
 28 82  1  0  0  0  0
 29 31  2  0  0  0  0
 29 81  1  0  0  0  0
 30 83  1  0  0  0  0
 31 84  1  0  0  0  0
 32 66  2  0  0  0  0
 33 67  1  0  0  0  0
 33 70  1  0  0  0  0
 34 71  1  0  0  0  0
 34 76  2  0  0  0  0
 35 49  1  0  0  0  0
 35 72  1  0  0  0  0
 35 77  2  0  0  0  0
 36 63  1  0  0  0  0
 36 68  1  0  0  0  0
 36 78  2  0  0  0  0
 37 64  1  0  0  0  0
 37 73  1  0  0  0  0
 37 79  2  0  0  0  0
 38 69  1  0  0  0  0
 38 74  1  0  0  0  0
 38 80  2  0  0  0  0
 39 42  1  0  0  0  0
 40 49  1  0  0  0  0
 41 68  1  0  0  0  0
 42 44  1  0  0  0  0
 43 45  1  0  0  0  0
 43 46  1  0  0  0  0
 44 48  1  0  0  0  0
 45 50  1  0  0  0  0
 46 69  1  0  0  0  0
 47 50  1  0  0  0  0
 47 69  1  0  0  0  0
 48 72  1  0  0  0  0
 49 68  1  0  0  0  0
 50 67  1  0  0  0  0
 52 64  1  0  0  0  0
 53 65  1  0  0  0  0
 54 65  1  0  0  0  0
 55 65  1  0  0  0  0
 56 75  1  0  0  0  0
 57 59  1  0  0  0  0
 58 74  1  0  0  0  0
 59 60  1  0  0  0  0
 60 61  1  0  0  0  0
 61 62  1  0  0  0  0
 62 82  1  0  0  0  0
 63 65  1  0  0  0  0
 63 73  1  0  0  0  0
 64 75  1  0  0  0  0
 66 67  1  0  0  0  0
M  CHG  1  75   1
M  ISO  4  38 100  62 101  74 100  82 101
M  END
> <Batch ID>
0132

> <Smiles>
CNC(C)C(=O)NC(C(=O)N1Cc2cc([101O:1][101CH2:1]CCCCc3ccc(C)cc3C[100NH:0][100C:0](=O)N3CCCC(n4nc(-c5ccc(Oc6ccc(F)cc6F)cc5)c(C(N)=O)c4N)C3)ccc2CC1C(=O)NC1CCCc2ccccc21)C(C)(C)C

> <Shape>
0.173

> <Color>
0.088

> <Negative vol penalty>
0.000

$$$$

  -OEChem-04052302283D

 83 91  0     1  0  0  0  0  0999 V2000
  -17.5378  -30.1427   23.0125 C   0  0  0  0  0  0  0  0  0  0  0  0
  -18.8897  -30.4686   22.9716 C   0  0  0  0  0  0  0  0  0  0  0  0
  -26.5183  -13.5805   22.2467 C   0  0  0  0  0  0  0  0  0  0  0  0
  -26.1613  -12.8703   19.9652 C   0  0  0  0  0  0  0  0  0  0  0  0
  -30.7527  -24.5175   18.9077 C   0  0  0  0  0  0  0  0  0  0  0  0
  -32.8228  -24.1910   20.1100 C   0  0  0  0  0  0  0  0  0  0  0  0
  -17.1424  -28.8064   22.9686 C   0  0  0  0  0  0  0  0  0  0  0  0
  -19.8471  -29.4582   22.8878 C   0  0  0  0  0  0  0  0  0  0  0  0
  -25.1892  -29.6867   19.9020 C   0  0  0  0  0  0  0  0  0  0  0  0
  -31.1985  -25.7679   18.4796 C   0  0  0  0  0  0  0  0  0  0  0  0
  -33.2686  -25.4414   19.6818 C   0  0  0  0  0  0  0  0  0  0  0  0
  -25.3321  -12.9534   22.6276 C   0  0  0  0  0  0  0  0  0  0  0  0
  -24.9750  -12.2430   20.3461 C   0  0  0  0  0  0  0  0  0  0  0  0
  -26.4924  -29.9380   20.3290 C   0  0  0  0  0  0  0  0  0  0  0  0
  -24.0559   -9.3639   21.8582 C   0  0  0  0  0  0  0  0  0  0  0  0
  -23.8186   -8.0788   21.3706 C   0  0  0  0  0  0  0  0  0  0  0  0
  -26.8912  -27.5643   20.4893 C   0  0  0  0  0  0  0  0  0  0  0  0
  -21.8006   -8.8594   20.2956 C   0  0  0  0  0  0  0  0  0  0  0  0
  -26.9329  -13.5390   20.9155 C   0  0  0  0  0  0  0  0  0  0  0  0
  -31.5648  -23.7290   19.7229 C   0  0  0  0  0  0  0  0  0  0  0  0
  -29.4476  -13.6234   20.4948 C   0  0  0  0  0  0  0  0  0  0  0  0
  -18.0950  -27.7796   22.8745 C   0  0  0  0  0  0  0  0  0  0  0  0
  -24.7230  -28.3702   19.7757 C   0  0  0  0  0  0  0  0  0  0  0  0
  -19.4641  -28.1069   22.8440 C   0  0  0  0  0  0  0  0  0  0  0  0
  -25.5825  -27.2989   20.0580 C   0  0  0  0  0  0  0  0  0  0  0  0
  -32.4565  -26.2299   18.8667 C   0  0  0  0  0  0  0  0  0  0  0  0
  -24.5604  -12.2846   21.6773 C   0  0  0  0  0  0  0  0  0  0  0  0
  -27.3427  -28.8768   20.6255 C   0  0  0  0  0  0  0  0  0  0  0  0
  -23.1655  -10.3968   21.5645 C   0  0  0  0  0  0  0  0  0  0  0  0
  -22.6910   -7.8265   20.5893 C   0  0  0  0  0  0  0  0  0  0  0  0
  -22.0379  -10.1445   20.7832 C   0  0  0  0  0  0  0  0  0  0  0  0
  -28.1579  -14.1872   20.5213 C   0  0  0  0  0  0  0  0  0  0  0  0
  -30.2576  -14.6398   20.0507 C   0  0  0  0  0  0  0  0  0  0  0  0
  -31.1001  -22.4251   20.1695 C   0  0  0  0  0  0  0  0  0  0  0  0
  -29.9076  -21.8714   19.8628 C   0  0  0  0  0  0  0  0  0  0  0  0
  -29.8751  -12.2992   20.8406 C   0  0  0  0  0  0  0  0  0  0  0  0
  -29.5844  -20.5293   20.3873 C   0  0  0  0  0  0  0  0  0  0  0  0
  -22.4108  -26.6688   21.1405 C   0  0  0  0  0  0  0  0  0  0  0  0
  -23.2928  -24.4413   18.9536 C   0  0  0  0  0  0  0  0  0  0  0  0
  -25.7163  -23.2042   16.8936 C   0  0  0  0  0  0  0  0  0  0  0  0
  -17.6215  -26.3477   22.8776 C   0  0  0  0  0  0  0  0  0  0  0  0
  -23.3230  -28.1156   19.2883 C   0  0  0  0  0  0  0  0  0  0  0  0
  -25.1369  -25.8669   19.9191 C   0  0  0  0  0  0  0  0  0  0  0  0
  -18.6826  -25.3543   22.4111 C   0  0  0  0  0  0  0  0  0  0  0  0
  -30.2089  -18.5728   17.3518 C   0  0  0  0  0  0  0  0  0  0  0  0
  -20.0180  -25.6414   23.0901 C   0  0  0  0  0  0  0  0  0  0  0  0
  -29.8204  -17.1729   17.8197 C   0  0  0  0  0  0  0  0  0  0  0  0
  -29.3455  -19.6530   18.0016 C   0  0  0  0  0  0  0  0  0  0  0  0
  -28.9435  -18.1885   19.9597 C   0  0  0  0  0  0  0  0  0  0  0  0
  -20.5314  -27.0403   22.7282 C   0  0  1  0  0  0  0  0  0  0  0  0
  -22.7913  -26.7429   19.6888 C   0  0  1  0  0  0  0  0  0  0  0  0
  -29.8305  -17.0894   19.3543 C   0  0  1  0  0  0  0  0  0  0  0  0
  -26.7546  -21.7536   15.1287 C   0  0  0  0  0  0  0  0  0  0  0  0
  -23.6032  -22.4752   21.2662 C   0  0  0  0  0  0  0  0  0  0  0  0
  -24.9195  -20.9925   19.7374 C   0  0  0  0  0  0  0  0  0  0  0  0
  -22.5366  -21.5161   19.2175 C   0  0  0  0  0  0  0  0  0  0  0  0
  -24.9029  -25.0534   14.7308 C   0  0  0  0  0  0  0  0  0  0  0  0
  -32.9388  -27.5809   18.4015 C   0  0  0  0  0  0  0  0  0  0  0  0
  -32.5714  -28.7294   19.3479 C   0  0  0  0  0  0  0  0  0  0  0  0
  -31.0592  -28.9357   19.4815 C   0  0  0  0  0  0  0  0  0  0  0  0
  -30.7392  -30.0679   20.4558 C   0  0  0  0  0  0  0  0  0  0  0  0
  -29.2402  -30.3091   20.5638 C   0  0  0  0  0  0  0  0  0  1  0  0
  -24.2928  -23.3108   18.9226 C   0  0  1  0  0  0  0  0  0  0  0  0
  -25.6815  -22.7868   15.4345 C   0  0  2  0  0  0  0  0  0  0  0  0
  -23.8461  -22.1006   19.7905 C   0  0  0  0  0  0  0  0  0  0  0  0
  -28.1446  -15.4628   20.1257 N   0  0  0  0  0  0  0  0  0  0  0  0
  -29.4359  -15.7091   19.8465 N   0  0  0  0  0  0  0  0  0  0  0  0
  -29.3242  -19.5166   19.4658 N   0  0  0  0  0  0  0  0  0  0  0  0
  -23.7571  -25.6696   19.4452 N   0  0  0  0  0  0  0  0  0  0  0  0
  -31.5854  -14.7144   19.8190 N   0  0  0  0  0  0  0  0  0  0  0  0
  -28.9126  -11.3793   21.2784 N   0  0  0  0  0  0  0  0  0  0  0  0
  -21.1052  -27.0400   21.3996 N   0  0  0  0  0  0  0  0  0  0  0  0
  -24.5039  -22.9910   17.5149 N   0  0  0  0  0  0  0  0  0  0  0  0
  -25.9012  -23.9678   14.5525 N   0  3  0  0  0  0  0  0  0  0  0  0
  -31.0776  -11.9473   20.7793 O   0  0  0  0  0  0  0  0  0  0  0  0
  -29.5597  -20.3879   21.6112 O   0  0  0  0  0  0  0  0  0  0  0  0
  -23.2399  -26.3006   21.9643 O   0  0  0  0  0  0  0  0  0  0  0  0
  -22.1442  -24.2439   18.5495 O   0  0  0  0  0  0  0  0  0  0  0  0
  -26.7198  -23.6692   17.4297 O   0  0  0  0  0  0  0  0  0  0  0  0
  -23.4030  -11.6723   22.0487 O   0  0  0  0  0  0  0  0  0  0  0  0
  -28.6150  -29.1193   21.0431 O   0  0  0  0  0  0  0  0  0  1  0  0
  -22.4640   -6.5927   20.1199 F   0  0  0  0  0  0  0  0  0  0  0  0
  -21.1796  -11.1330   20.4967 F   0  0  0  0  0  0  0  0  0  0  0  0
  1  2  1  0  0  0  0
  1  7  2  0  0  0  0
  2  8  2  0  0  0  0
  3 12  2  0  0  0  0
  3 19  1  0  0  0  0
  4 13  1  0  0  0  0
  4 19  2  0  0  0  0
  5 10  2  0  0  0  0
  5 20  1  0  0  0  0
  6 11  1  0  0  0  0
  6 20  2  0  0  0  0
  7 22  1  0  0  0  0
  8 24  1  0  0  0  0
  9 14  2  0  0  0  0
  9 23  1  0  0  0  0
 10 26  1  0  0  0  0
 11 26  2  0  0  0  0
 12 27  1  0  0  0  0
 13 27  2  0  0  0  0
 14 28  1  0  0  0  0
 15 16  2  0  0  0  0
 15 29  1  0  0  0  0
 16 30  1  0  0  0  0
 17 25  1  0  0  0  0
 17 28  2  0  0  0  0
 18 30  2  0  0  0  0
 18 31  1  0  0  0  0
 19 32  1  0  0  0  0
 20 34  1  0  0  0  0
 21 32  1  0  0  0  0
 21 33  2  0  0  0  0
 21 36  1  0  0  0  0
 22 24  2  0  0  0  0
 22 41  1  0  0  0  0
 23 25  2  0  0  0  0
 23 42  1  0  0  0  0
 24 50  1  0  0  0  0
 25 43  1  0  0  0  0
 26 58  1  0  0  0  0
 27 80  1  0  0  0  0
 28 81  1  0  0  0  0
 29 31  2  0  0  0  0
 29 80  1  0  0  0  0
 30 82  1  0  0  0  0
 31 83  1  0  0  0  0
 32 66  2  0  0  0  0
 33 67  1  0  0  0  0
 33 70  1  0  0  0  0
 34 35  2  0  0  0  0
 35 37  1  0  0  0  0
 36 71  1  0  0  0  0
 36 75  2  0  0  0  0
 37 68  1  0  0  0  0
 37 76  2  0  0  0  0
 38 51  1  0  0  0  0
 38 72  1  0  0  0  0
 38 77  2  0  0  0  0
 39 63  1  0  0  0  0
 39 69  1  0  0  0  0
 39 78  2  0  0  0  0
 40 64  1  0  0  0  0
 40 73  1  0  0  0  0
 40 79  2  0  0  0  0
 41 44  1  0  0  0  0
 42 51  1  0  0  0  0
 43 69  1  0  0  0  0
 44 46  1  0  0  0  0
 45 47  1  0  0  0  0
 45 48  1  0  0  0  0
 46 50  1  0  0  0  0
 47 52  1  0  0  0  0
 48 68  1  0  0  0  0
 49 52  1  0  0  0  0
 49 68  1  0  0  0  0
 50 72  1  0  0  0  0
 51 69  1  0  0  0  0
 52 67  1  0  0  0  0
 53 64  1  0  0  0  0
 54 65  1  0  0  0  0
 55 65  1  0  0  0  0
 56 65  1  0  0  0  0
 57 74  1  0  0  0  0
 58 59  1  0  0  0  0
 59 60  1  0  0  0  0
 60 61  1  0  0  0  0
 61 62  1  0  0  0  0
 62 81  1  0  0  0  0
 63 65  1  0  0  0  0
 63 73  1  0  0  0  0
 64 74  1  0  0  0  0
 66 67  1  0  0  0  0
M  CHG  1  74   1
M  ISO  4  35 100  37 100  62 101  81 101
M  END
> <Batch ID>
0132

> <Smiles>
CNC(C)C(=O)NC(C(=O)N1Cc2cc([101O:1][101CH2:1]CCCCc3ccc(C=[100CH:0][100C:0](=O)N4CCCC(n5nc(-c6ccc(Oc7ccc(F)cc7F)cc6)c(C(N)=O)c5N)C4)cc3)ccc2CC1C(=O)NC1CCCc2ccccc21)C(C)(C)C

> <Shape>
0.280

> <Color>
0.083

> <Negative vol penalty>
0.000

$$$$

  -OEChem-04052302283D

 84 92  0     1  0  0  0  0  0999 V2000
  -28.0892  -35.0728   16.0300 C   0  0  0  0  0  0  0  0  0  0  0  0
  -28.3862  -33.8322   16.5850 C   0  0  0  0  0  0  0  0  0  0  0  0
  -33.7645  -20.0953   19.0821 C   0  0  0  0  0  0  0  0  0  0  0  0
  -24.6542   -8.9584   21.7207 C   0  0  0  0  0  0  0  0  0  0  0  0
  -23.6179   -8.9555   19.5383 C   0  0  0  0  0  0  0  0  0  0  0  0
  -33.3163  -18.7884   19.2738 C   0  0  0  0  0  0  0  0  0  0  0  0
  -27.5474  -36.0802   16.8272 C   0  0  0  0  0  0  0  0  0  0  0  0
  -28.1425  -33.5986   17.9380 C   0  0  0  0  0  0  0  0  0  0  0  0
  -25.9248  -29.1222   18.7679 C   0  0  0  0  0  0  0  0  0  0  0  0
  -32.8460  -21.1411   18.9896 C   0  0  0  0  0  0  0  0  0  0  0  0
  -23.5536   -8.2800   22.2442 C   0  0  0  0  0  0  0  0  0  0  0  0
  -22.5173   -8.2771   20.0617 C   0  0  0  0  0  0  0  0  0  0  0  0
  -26.7388  -27.9910   18.7266 C   0  0  0  0  0  0  0  0  0  0  0  0
  -22.3819   -5.1089   22.3086 C   0  0  0  0  0  0  0  0  0  0  0  0
  -22.6291   -4.0302   23.1577 C   0  0  0  0  0  0  0  0  0  0  0  0
  -31.0312  -19.5730   19.2803 C   0  0  0  0  0  0  0  0  0  0  0  0
  -26.8299  -27.9759   21.1371 C   0  0  0  0  0  0  0  0  0  0  0  0
  -21.4250   -5.1485   24.9288 C   0  0  0  0  0  0  0  0  0  0  0  0
  -24.6864   -9.2962   20.3677 C   0  0  0  0  0  0  0  0  0  0  0  0
  -31.9497  -18.5273   19.3729 C   0  0  0  0  0  0  0  0  0  0  0  0
  -26.9871   -9.4310   19.2742 C   0  0  0  0  0  0  0  0  0  0  0  0
  -27.2880  -35.8557   18.1884 C   0  0  0  0  0  0  0  0  0  0  0  0
  -25.5657  -29.6961   19.9959 C   0  0  0  0  0  0  0  0  0  0  0  0
  -27.5980  -34.6043   18.7545 C   0  0  0  0  0  0  0  0  0  0  0  0
  -26.0092  -29.1129   21.1914 C   0  0  0  0  0  0  0  0  0  0  0  0
  -22.4852   -7.9393   21.4147 C   0  0  0  0  0  0  0  0  0  0  0  0
  -31.4794  -20.8799   19.0886 C   0  0  0  0  0  0  0  0  0  0  0  0
  -27.1938  -27.4194   19.9112 C   0  0  0  0  0  0  0  0  0  0  0  0
  -21.6564   -6.2074   22.7696 C   0  0  0  0  0  0  0  0  0  0  0  0
  -22.1506   -4.0500   24.4678 C   0  0  0  0  0  0  0  0  0  0  0  0
  -21.1778   -6.2272   24.0797 C   0  0  0  0  0  0  0  0  0  0  0  0
  -25.8228   -9.9975   19.8265 C   0  0  0  0  0  0  0  0  0  0  0  0
  -27.7536  -10.5103   18.9079 C   0  0  0  0  0  0  0  0  0  0  0  0
  -31.4823  -17.1648   19.5730 C   0  0  0  0  0  0  0  0  0  0  0  0
  -30.2709  -16.8151   20.0560 C   0  0  0  0  0  0  0  0  0  0  0  0
  -27.3440   -8.0524   19.1070 C   0  0  0  0  0  0  0  0  0  0  0  0
  -29.9396  -15.3824   20.1921 C   0  0  0  0  0  0  0  0  0  0  0  0
  -26.0456  -32.5175   21.3791 C   0  0  0  0  0  0  0  0  0  0  0  0
  -29.8196  -23.9907   19.9545 C   0  0  0  0  0  0  0  0  0  0  0  0
  -24.0586  -31.3094   23.6406 C   0  0  0  0  0  0  0  0  0  0  0  0
  -22.7272  -28.5566   25.1559 C   0  0  0  0  0  0  0  0  0  0  0  0
  -26.7455  -36.9904   19.0208 C   0  0  0  0  0  0  0  0  0  0  0  0
  -24.6651  -30.9006   20.0242 C   0  0  0  0  0  0  0  0  0  0  0  0
  -25.6354  -29.6787   22.5362 C   0  0  0  0  0  0  0  0  0  0  0  0
  -26.1688  -36.5412   20.3610 C   0  0  0  0  0  0  0  0  0  0  0  0
  -26.6293  -15.4178   18.6197 C   0  0  0  0  0  0  0  0  0  0  0  0
  -27.1203  -35.5705   21.0532 C   0  0  0  0  0  0  0  0  0  0  0  0
  -26.2049  -13.9622   18.7961 C   0  0  0  0  0  0  0  0  0  0  0  0
  -27.4749  -15.9128   19.7920 C   0  0  0  0  0  0  0  0  0  0  0  0
  -28.2385  -13.6003   20.2499 C   0  0  0  0  0  0  0  0  0  0  0  0
  -27.3249  -34.3045   20.2124 C   0  0  1  0  0  0  0  0  0  0  0  0
  -24.7834  -31.7049   21.3151 C   0  0  1  0  0  0  0  0  0  0  0  0
  -27.4262  -13.0672   19.0594 C   0  0  1  0  0  0  0  0  0  0  0  0
  -21.1608  -27.8861   26.9982 C   0  0  0  0  0  0  0  0  0  0  0  0
  -26.2022  -31.9828   25.7049 C   0  0  0  0  0  0  0  0  0  0  0  0
  -25.0275  -30.4686   27.3161 C   0  0  0  0  0  0  0  0  0  0  0  0
  -23.8621  -32.4877   26.4283 C   0  0  0  0  0  0  0  0  0  0  0  0
  -20.9109  -27.1798   23.2680 C   0  0  0  0  0  0  0  0  0  0  0  0
  -30.1507  -25.3893   20.4540 C   0  0  0  0  0  0  0  0  0  0  0  0
  -30.9964  -23.1810   19.4459 C   0  0  0  0  0  0  0  0  0  0  0  0
  -28.9271  -26.1546   20.9368 C   0  0  0  0  0  0  0  0  0  1  0  0
  -24.2414  -30.5056   24.9053 C   0  0  1  0  0  0  0  0  0  0  0  0
  -21.2968  -28.1978   25.5160 C   0  0  2  0  0  0  0  0  0  0  0  0
  -24.8421  -31.3514   26.0634 C   0  0  0  0  0  0  0  0  0  0  0  0
  -25.8434  -11.3329   19.8145 N   0  0  0  0  0  0  0  0  0  0  0  0
  -27.0301  -11.6146   19.2502 N   0  0  0  0  0  0  0  0  0  0  0  0
  -28.6032  -15.0089   20.0614 N   0  0  0  0  0  0  0  0  0  0  0  0
  -24.7581  -30.8607   22.5114 N   0  0  0  0  0  0  0  0  0  0  0  0
  -28.9692  -10.6129   18.3298 N   0  0  0  0  0  0  0  0  0  0  0  0
  -26.4405   -7.0714   19.5381 N   0  0  0  0  0  0  0  0  0  0  0  0
  -26.1858  -33.4214   20.3433 N   0  0  0  0  0  0  0  0  0  0  0  0
  -22.9407  -29.9178   25.2070 N   0  0  0  0  0  0  0  0  0  0  0  0
  -20.8516  -27.0046   24.7420 N   0  3  0  0  0  0  0  0  0  0  0  0
  -28.4388   -7.7010   18.6057 O   0  0  0  0  0  0  0  0  0  0  0  0
  -30.8672  -14.6033   20.4182 O   0  0  0  0  0  0  0  0  0  0  0  0
  -26.8332  -32.3389   22.3007 O   0  0  0  0  0  0  0  0  0  0  0  0
  -28.6765  -23.5370   19.9613 O   0  0  0  0  0  0  0  0  0  0  0  0
  -23.3167  -32.2949   23.6523 O   0  0  0  0  0  0  0  0  0  0  0  0
  -23.5718  -27.7133   24.8625 O   0  0  0  0  0  0  0  0  0  0  0  0
  -21.4111   -7.2772   21.9251 O   0  0  0  0  0  0  0  0  0  0  0  0
  -30.5741  -21.9105   18.9974 O   0  0  0  0  0  0  0  0  0  0  0  0
  -27.9889  -26.3156   19.8737 O   0  0  0  0  0  0  0  0  0  1  0  0
  -22.3867   -3.0134   25.2826 F   0  0  0  0  0  0  0  0  0  0  0  0
  -20.4791   -7.2792   24.5278 F   0  0  0  0  0  0  0  0  0  0  0  0
  1  2  1  0  0  0  0
  1  7  2  0  0  0  0
  2  8  2  0  0  0  0
  3  6  1  0  0  0  0
  3 10  2  0  0  0  0
  4 11  2  0  0  0  0
  4 19  1  0  0  0  0
  5 12  1  0  0  0  0
  5 19  2  0  0  0  0
  6 20  2  0  0  0  0
  7 22  1  0  0  0  0
  8 24  1  0  0  0  0
  9 13  2  0  0  0  0
  9 23  1  0  0  0  0
 10 27  1  0  0  0  0
 11 26  1  0  0  0  0
 12 26  2  0  0  0  0
 13 28  1  0  0  0  0
 14 15  2  0  0  0  0
 14 29  1  0  0  0  0
 15 30  1  0  0  0  0
 16 20  1  0  0  0  0
 16 27  2  0  0  0  0
 17 25  1  0  0  0  0
 17 28  2  0  0  0  0
 18 30  2  0  0  0  0
 18 31  1  0  0  0  0
 19 32  1  0  0  0  0
 20 34  1  0  0  0  0
 21 32  1  0  0  0  0
 21 33  2  0  0  0  0
 21 36  1  0  0  0  0
 22 24  2  0  0  0  0
 22 42  1  0  0  0  0
 23 25  2  0  0  0  0
 23 43  1  0  0  0  0
 24 51  1  0  0  0  0
 25 44  1  0  0  0  0
 26 80  1  0  0  0  0
 27 81  1  0  0  0  0
 28 82  1  0  0  0  0
 29 31  2  0  0  0  0
 29 80  1  0  0  0  0
 30 83  1  0  0  0  0
 31 84  1  0  0  0  0
 32 65  2  0  0  0  0
 33 66  1  0  0  0  0
 33 69  1  0  0  0  0
 34 35  2  0  0  0  0
 35 37  1  0  0  0  0
 36 70  1  0  0  0  0
 36 74  2  0  0  0  0
 37 67  1  0  0  0  0
 37 75  2  0  0  0  0
 38 52  1  0  0  0  0
 38 71  1  0  0  0  0
 38 76  2  0  0  0  0
 39 59  1  0  0  0  0
 39 60  1  0  0  0  0
 39 77  2  0  0  0  0
 40 62  1  0  0  0  0
 40 68  1  0  0  0  0
 40 78  2  0  0  0  0
 41 63  1  0  0  0  0
 41 72  1  0  0  0  0
 41 79  2  0  0  0  0
 42 45  1  0  0  0  0
 43 52  1  0  0  0  0
 44 68  1  0  0  0  0
 45 47  1  0  0  0  0
 46 48  1  0  0  0  0
 46 49  1  0  0  0  0
 47 51  1  0  0  0  0
 48 53  1  0  0  0  0
 49 67  1  0  0  0  0
 50 53  1  0  0  0  0
 50 67  1  0  0  0  0
 51 71  1  0  0  0  0
 52 68  1  0  0  0  0
 53 66  1  0  0  0  0
 54 63  1  0  0  0  0
 55 64  1  0  0  0  0
 56 64  1  0  0  0  0
 57 64  1  0  0  0  0
 58 73  1  0  0  0  0
 59 61  1  0  0  0  0
 60 81  1  0  0  0  0
 61 82  1  0  0  0  0
 62 64  1  0  0  0  0
 62 72  1  0  0  0  0
 63 73  1  0  0  0  0
 65 66  1  0  0  0  0
M  CHG  1  73   1
M  ISO  4  35 100  37 100  61 101  82 101
M  END
> <Batch ID>
0132

> <Smiles>
CNC(C)C(=O)NC(C(=O)N1Cc2cc([101O:1][101CH2:1]CC(=O)COc3cccc(C=[100CH:0][100C:0](=O)N4CCCC(n5nc(-c6ccc(Oc7ccc(F)cc7F)cc6)c(C(N)=O)c5N)C4)c3)ccc2CC1C(=O)NC1CCCc2ccccc21)C(C)(C)C

> <Shape>
0.258

> <Color>
0.131

> <Negative vol penalty>
0.000

$$$$

  -OEChem-04052302283D

 88 96  0     1  0  0  0  0  0999 V2000
  -15.1866  -26.4465   19.4960 C   0  0  0  0  0  0  0  0  0  0  0  0
  -15.7932  -27.6926   19.6179 C   0  0  0  0  0  0  0  0  0  0  0  0
  -26.3266  -13.6938   21.9106 C   0  0  0  0  0  0  0  0  0  0  0  0
  -26.1758  -12.7189   19.7051 C   0  0  0  0  0  0  0  0  0  0  0  0
  -31.6063  -24.7898   19.5880 C   0  0  0  0  0  0  0  0  0  0  0  0
  -15.5643  -25.4030   20.3400 C   0  0  0  0  0  0  0  0  0  0  0  0
  -16.7771  -27.8962   20.5848 C   0  0  0  0  0  0  0  0  0  0  0  0
  -24.1236  -30.4303   19.7885 C   0  0  0  0  0  0  0  0  0  0  0  0
  -25.1491  -13.0430   22.2788 C   0  0  0  0  0  0  0  0  0  0  0  0
  -24.9983  -12.0680   20.0734 C   0  0  0  0  0  0  0  0  0  0  0  0
  -31.9678  -26.0465   19.1027 C   0  0  0  0  0  0  0  0  0  0  0  0
  -25.4884  -30.7174   19.7557 C   0  0  0  0  0  0  0  0  0  0  0  0
  -22.1466   -9.8629   20.5458 C   0  0  0  0  0  0  0  0  0  0  0  0
  -22.0084   -8.5209   20.1913 C   0  0  0  0  0  0  0  0  0  0  0  0
  -29.8458  -24.6592   17.9385 C   0  0  0  0  0  0  0  0  0  0  0  0
  -25.8177  -29.4351   21.7793 C   0  0  0  0  0  0  0  0  0  0  0  0
  -23.9782   -7.9775   21.4803 C   0  0  0  0  0  0  0  0  0  0  0  0
  -26.8399  -13.5318   20.6237 C   0  0  0  0  0  0  0  0  0  0  0  0
  -30.5453  -24.0961   19.0058 C   0  0  0  0  0  0  0  0  0  0  0  0
  -29.3711  -13.7182   20.3673 C   0  0  0  0  0  0  0  0  0  0  0  0
  -16.5602  -25.5912   21.3113 C   0  0  0  0  0  0  0  0  0  0  0  0
  -23.6026  -29.6307   20.8096 C   0  0  0  0  0  0  0  0  0  0  0  0
  -17.1675  -26.8546   21.4435 C   0  0  0  0  0  0  0  0  0  0  0  0
  -24.4535  -29.1338   21.8105 C   0  0  0  0  0  0  0  0  0  0  0  0
  -30.2073  -25.9160   17.4532 C   0  0  0  0  0  0  0  0  0  0  0  0
  -24.4850  -12.2301   21.3602 C   0  0  0  0  0  0  0  0  0  0  0  0
  -26.3333  -30.2212   20.7488 C   0  0  0  0  0  0  0  0  0  0  0  0
  -31.2683  -26.6097   18.0353 C   0  0  0  0  0  0  0  0  0  0  0  0
  -23.2007  -10.2621   21.3675 C   0  0  0  0  0  0  0  0  0  0  0  0
  -22.9241   -7.5782   20.6585 C   0  0  0  0  0  0  0  0  0  0  0  0
  -24.1164   -9.3194   21.8348 C   0  0  0  0  0  0  0  0  0  0  0  0
  -28.0559  -14.2043   20.2426 C   0  0  0  0  0  0  0  0  0  0  0  0
  -30.1586  -14.7261   19.8670 C   0  0  0  0  0  0  0  0  0  0  0  0
  -30.1707  -22.7853   19.5128 C   0  0  0  0  0  0  0  0  0  0  0  0
  -29.4537  -21.8606   18.8392 C   0  0  0  0  0  0  0  0  0  0  0  0
  -29.8392  -12.4673   20.8888 C   0  0  0  0  0  0  0  0  0  0  0  0
  -29.1618  -20.5670   19.4890 C   0  0  0  0  0  0  0  0  0  0  0  0
  -20.5782  -27.9871   22.3022 C   0  0  0  0  0  0  0  0  0  0  0  0
  -22.8877  -25.9814   22.5335 C   0  0  0  0  0  0  0  0  0  0  0  0
  -25.5802  -23.9108   22.2164 C   0  0  0  0  0  0  0  0  0  0  0  0
  -16.9015  -24.4467   22.2323 C   0  0  0  0  0  0  0  0  0  0  0  0
  -22.1291  -29.3466   20.9190 C   0  0  0  0  0  0  0  0  0  0  0  0
  -23.8433  -28.3066   22.9088 C   0  0  0  0  0  0  0  0  0  0  0  0
  -18.2174  -24.6396   22.9818 C   0  0  0  0  0  0  0  0  0  0  0  0
  -30.1081  -18.3312   16.7435 C   0  0  0  0  0  0  0  0  0  0  0  0
  -18.2963  -26.0453   23.5688 C   0  0  0  0  0  0  0  0  0  0  0  0
  -29.7582  -16.9702   17.3393 C   0  0  0  0  0  0  0  0  0  0  0  0
  -29.1449  -19.4230   17.2071 C   0  0  0  0  0  0  0  0  0  0  0  0
  -28.6749  -18.1598   19.2865 C   0  0  0  0  0  0  0  0  0  0  0  0
  -18.2563  -27.1076   22.4636 C   0  0  1  0  0  0  0  0  0  0  0  0
  -21.8246  -27.9413   21.4681 C   0  0  1  0  0  0  0  0  0  0  0  0
  -29.6593  -17.0555   18.8707 C   0  0  1  0  0  0  0  0  0  0  0  0
  -29.0493  -26.4476   13.8088 C   0  0  0  0  0  0  0  0  0  0  0  0
  -26.3435  -21.5781   22.7388 C   0  0  0  0  0  0  0  0  0  0  0  0
  -32.5111  -30.4917   16.7290 C   0  0  0  0  0  0  0  0  0  0  0  0
  -23.2390  -26.7562   25.4627 C   0  0  0  0  0  0  0  0  0  0  0  0
  -24.8232  -24.8331   25.7078 C   0  0  0  0  0  0  0  0  0  0  0  0
  -22.4426  -24.4148   25.0908 C   0  0  0  0  0  0  0  0  0  0  0  0
  -26.0062  -23.2852   19.3553 C   0  0  0  0  0  0  0  0  0  0  0  0
  -29.4485  -26.5038   16.3096 C   0  0  0  0  0  0  0  0  0  0  0  0
  -29.8470  -25.8717   14.9680 C   0  0  0  0  0  0  0  0  0  0  0  0
  -29.7234  -30.3061   19.4541 C   0  0  0  0  0  0  0  0  0  0  0  0
  -30.4034  -30.5049   18.0940 C   0  0  0  0  0  0  0  0  0  0  0  0
  -28.2488  -30.6932   19.4200 C   0  0  0  0  0  0  0  0  0  1  0  0
  -32.2020  -28.7425   18.5202 C   0  0  0  0  0  0  0  0  0  0  0  0
  -24.0054  -25.4317   23.3832 C   0  0  1  0  0  0  0  0  0  0  0  0
  -25.7017  -22.4876   21.7026 C   0  0  2  0  0  0  0  0  0  0  0  0
  -31.9119  -30.1915   18.1091 C   0  0  1  0  0  0  0  0  0  0  0  0
  -23.6322  -25.3792   24.8917 C   0  0  0  0  0  0  0  0  0  0  0  0
  -28.0065  -15.4261   19.7053 N   0  0  0  0  0  0  0  0  0  0  0  0
  -29.3006  -15.7163   19.4880 N   0  0  0  0  0  0  0  0  0  0  0  0
  -29.0226  -19.4462   18.6724 N   0  0  0  0  0  0  0  0  0  0  0  0
  -22.8605  -27.3684   22.3442 N   0  0  0  0  0  0  0  0  0  0  0  0
  -31.4944  -14.8533   19.7187 N   0  0  0  0  0  0  0  0  0  0  0  0
  -28.8953  -11.5454   21.3616 N   0  0  0  0  0  0  0  0  0  0  0  0
  -19.5454  -27.2098   21.8139 N   0  0  0  0  0  0  0  0  0  0  0  0
  -24.3559  -24.1371   22.8090 N   0  0  0  0  0  0  0  0  0  0  0  0
  -26.5337  -22.4523   20.4666 N   0  3  0  0  0  0  0  0  0  0  0  0
  -31.0593  -12.1824   20.9492 O   0  0  0  0  0  0  0  0  0  0  0  0
  -29.0542  -20.5589   20.7166 O   0  0  0  0  0  0  0  0  0  0  0  0
  -20.5545  -28.6757   23.3157 O   0  0  0  0  0  0  0  0  0  0  0  0
  -22.0567  -25.2050   22.0540 O   0  0  0  0  0  0  0  0  0  0  0  0
  -26.4826  -24.7380   22.1067 O   0  0  0  0  0  0  0  0  0  0  0  0
  -23.3361  -11.5946   21.7193 O   0  0  0  0  0  0  0  0  0  0  0  0
  -27.6653  -30.5016   20.7081 O   0  0  0  0  0  0  0  0  0  1  0  0
  -31.6358  -27.8454   17.5721 O   0  0  0  0  0  0  0  0  0  0  0  0
  -22.7903   -6.2894   20.3192 F   0  0  0  0  0  0  0  0  0  0  0  0
  -25.1304   -9.6968   22.6255 F   0  0  0  0  0  0  0  0  0  0  0  0
  1  2  1  0  0  0  0
  1  6  2  0  0  0  0
  2  7  2  0  0  0  0
  3  9  2  0  0  0  0
  3 18  1  0  0  0  0
  4 10  1  0  0  0  0
  4 18  2  0  0  0  0
  5 11  2  0  0  0  0
  5 19  1  0  0  0  0
  6 21  1  0  0  0  0
  7 23  1  0  0  0  0
  8 12  2  0  0  0  0
  8 22  1  0  0  0  0
  9 26  1  0  0  0  0
 10 26  2  0  0  0  0
 11 28  1  0  0  0  0
 12 27  1  0  0  0  0
 13 14  2  0  0  0  0
 13 29  1  0  0  0  0
 14 30  1  0  0  0  0
 15 19  2  0  0  0  0
 15 25  1  0  0  0  0
 16 24  1  0  0  0  0
 16 27  2  0  0  0  0
 17 30  2  0  0  0  0
 17 31  1  0  0  0  0
 18 32  1  0  0  0  0
 19 34  1  0  0  0  0
 20 32  1  0  0  0  0
 20 33  2  0  0  0  0
 20 36  1  0  0  0  0
 21 23  2  0  0  0  0
 21 41  1  0  0  0  0
 22 24  2  0  0  0  0
 22 42  1  0  0  0  0
 23 50  1  0  0  0  0
 24 43  1  0  0  0  0
 25 28  2  0  0  0  0
 25 60  1  0  0  0  0
 26 84  1  0  0  0  0
 27 85  1  0  0  0  0
 28 86  1  0  0  0  0
 29 31  2  0  0  0  0
 29 84  1  0  0  0  0
 30 87  1  0  0  0  0
 31 88  1  0  0  0  0
 32 70  2  0  0  0  0
 33 71  1  0  0  0  0
 33 74  1  0  0  0  0
 34 35  2  0  0  0  0
 35 37  1  0  0  0  0
 36 75  1  0  0  0  0
 36 79  2  0  0  0  0
 37 72  1  0  0  0  0
 37 80  2  0  0  0  0
 38 51  1  0  0  0  0
 38 76  1  0  0  0  0
 38 81  2  0  0  0  0
 39 66  1  0  0  0  0
 39 73  1  0  0  0  0
 39 82  2  0  0  0  0
 40 67  1  0  0  0  0
 40 77  1  0  0  0  0
 40 83  2  0  0  0  0
 41 44  1  0  0  0  0
 42 51  1  0  0  0  0
 43 73  1  0  0  0  0
 44 46  1  0  0  0  0
 45 47  1  0  0  0  0
 45 48  1  0  0  0  0
 46 50  1  0  0  0  0
 47 52  1  0  0  0  0
 48 72  1  0  0  0  0
 49 52  1  0  0  0  0
 49 72  1  0  0  0  0
 50 76  1  0  0  0  0
 51 73  1  0  0  0  0
 52 71  1  0  0  0  0
 53 61  1  0  0  0  0
 54 67  1  0  0  0  0
 55 68  1  0  0  0  0
 56 69  1  0  0  0  0
 57 69  1  0  0  0  0
 58 69  1  0  0  0  0
 59 78  1  0  0  0  0
 60 61  1  0  0  0  0
 62 63  1  0  0  0  0
 62 64  1  0  0  0  0
 63 68  1  0  0  0  0
 64 85  1  0  0  0  0
 65 68  1  0  0  0  0
 65 86  1  0  0  0  0
 66 69  1  0  0  0  0
 66 77  1  0  0  0  0
 67 78  1  0  0  0  0
 70 71  1  0  0  0  0
M  CHG  1  78   1
M  ISO  4  35 100  37 100  64 101  85 101
M  END
> <Batch ID>
0132

> <Smiles>
CCCc1cc(C=[100CH:0][100C:0](=O)N2CCCC(n3nc(-c4ccc(Oc5ccc(F)cc5F)cc4)c(C(N)=O)c3N)C2)ccc1OCC(C)CC[101CH2:1][101O:1]c1ccc2c(c1)CN(C(=O)C(NC(=O)C(C)NC)C(C)(C)C)C(C(=O)NC1CCCc3ccccc31)C2

> <Shape>
0.275

> <Color>
0.072

> <Negative vol penalty>
0.000

$$$$

  -OEChem-04052302283D

 85 93  0     1  0  0  0  0  0999 V2000
  -16.2752  -29.4144   23.6213 C   0  0  0  0  0  0  0  0  0  0  0  0
  -16.9010  -28.8972   22.4916 C   0  0  0  0  0  0  0  0  0  0  0  0
  -26.1997  -13.9182   19.5682 C   0  0  0  0  0  0  0  0  0  0  0  0
  -24.1743  -14.1539   20.8641 C   0  0  0  0  0  0  0  0  0  0  0  0
  -17.0395  -29.8395   24.7071 C   0  0  0  0  0  0  0  0  0  0  0  0
  -18.2917  -28.8057   22.4466 C   0  0  0  0  0  0  0  0  0  0  0  0
  -23.5345  -24.7235   19.7699 C   0  0  0  0  0  0  0  0  0  0  0  0
  -31.7669  -26.8728   22.2622 C   0  0  0  0  0  0  0  0  0  0  0  0
  -26.3016  -12.5863   19.9696 C   0  0  0  0  0  0  0  0  0  0  0  0
  -24.2761  -12.8219   21.2655 C   0  0  0  0  0  0  0  0  0  0  0  0
  -24.6990  -24.8271   19.0102 C   0  0  0  0  0  0  0  0  0  0  0  0
  -31.6003  -26.6350   20.8980 C   0  0  0  0  0  0  0  0  0  0  0  0
  -23.6203   -9.7729   19.9640 C   0  0  0  0  0  0  0  0  0  0  0  0
  -22.4629   -8.9955   19.9245 C   0  0  0  0  0  0  0  0  0  0  0  0
  -30.9114  -24.6669   22.7512 C   0  0  0  0  0  0  0  0  0  0  0  0
  -25.9131  -25.5185   20.9767 C   0  0  0  0  0  0  0  0  0  0  0  0
  -22.6452   -8.6035   22.3015 C   0  0  0  0  0  0  0  0  0  0  0  0
  -25.1361  -14.7021   20.0155 C   0  0  0  0  0  0  0  0  0  0  0  0
  -30.7447  -24.4291   21.3869 C   0  0  0  0  0  0  0  0  0  0  0  0
  -24.3623  -16.5759   18.4670 C   0  0  0  0  0  0  0  0  0  0  0  0
  -18.4398  -29.7442   24.6793 C   0  0  0  0  0  0  0  0  0  0  0  0
  -23.5482  -25.0277   21.1387 C   0  0  0  0  0  0  0  0  0  0  0  0
  -19.0756  -29.2311   23.5326 C   0  0  0  0  0  0  0  0  0  0  0  0
  -24.7480  -25.4155   21.7520 C   0  0  0  0  0  0  0  0  0  0  0  0
  -31.4225  -25.8887   23.1889 C   0  0  0  0  0  0  0  0  0  0  0  0
  -25.3398  -12.0381   20.8182 C   0  0  0  0  0  0  0  0  0  0  0  0
  -25.8879  -25.2274   19.6130 C   0  0  0  0  0  0  0  0  0  0  0  0
  -31.0892  -25.4132   20.4603 C   0  0  0  0  0  0  0  0  0  0  0  0
  -24.2902   -9.9656   21.1722 C   0  0  0  0  0  0  0  0  0  0  0  0
  -21.9753   -8.4108   21.0933 C   0  0  0  0  0  0  0  0  0  0  0  0
  -23.8027   -9.3809   22.3410 C   0  0  0  0  0  0  0  0  0  0  0  0
  -25.0306  -16.0782   19.6017 C   0  0  0  0  0  0  0  0  0  0  0  0
  -24.5554  -17.9346   18.5232 C   0  0  0  0  0  0  0  0  0  0  0  0
  -29.6512  -25.8527   15.9931 C   0  0  0  0  0  0  0  0  0  0  0  0
  -30.2113  -23.1444   20.9542 C   0  0  0  0  0  0  0  0  0  0  0  0
  -29.3355  -22.3888   21.6480 C   0  0  0  0  0  0  0  0  0  0  0  0
  -23.6322  -15.8729   17.4529 C   0  0  0  0  0  0  0  0  0  0  0  0
  -29.4573  -25.3968   17.2413 C   0  0  0  0  0  0  0  0  0  0  0  0
  -28.8790  -21.1095   21.0685 C   0  0  0  0  0  0  0  0  0  0  0  0
  -22.0986  -27.1816   22.9726 C   0  0  0  0  0  0  0  0  0  0  0  0
  -23.5156  -25.5201   25.3712 C   0  0  0  0  0  0  0  0  0  0  0  0
  -26.0364  -23.4437   26.3618 C   0  0  0  0  0  0  0  0  0  0  0  0
  -19.2261  -30.2603   25.8584 C   0  0  0  0  0  0  0  0  0  0  0  0
  -22.2895  -24.8852   21.9497 C   0  0  0  0  0  0  0  0  0  0  0  0
  -24.8203  -25.7338   23.2224 C   0  0  0  0  0  0  0  0  0  0  0  0
  -20.6756  -29.7820   25.8803 C   0  0  0  0  0  0  0  0  0  0  0  0
  -25.2753  -21.5000   21.6094 C   0  0  0  0  0  0  0  0  0  0  0  0
  -21.3114  -29.9421   24.5030 C   0  0  0  0  0  0  0  0  0  0  0  0
  -24.7536  -20.1638   21.0877 C   0  0  0  0  0  0  0  0  0  0  0  0
  -26.6434  -21.3590   22.2751 C   0  0  0  0  0  0  0  0  0  0  0  0
  -27.1430  -19.3704   20.8836 C   0  0  0  0  0  0  0  0  0  0  0  0
  -20.5806  -29.0928   23.4559 C   0  0  1  0  0  0  0  0  0  0  0  0
  -22.3059  -25.7157   23.2293 C   0  0  1  0  0  0  0  0  0  0  0  0
  -25.7889  -19.4968   20.1682 C   0  0  1  0  0  0  0  0  0  0  0  0
  -31.6034  -26.1440   24.6470 C   0  0  0  0  0  0  0  0  0  0  0  0
  -27.3637  -21.9540   27.8838 C   0  0  0  0  0  0  0  0  0  0  0  0
  -24.6856  -28.1650   26.3435 C   0  0  0  0  0  0  0  0  0  0  0  0
  -26.3034  -26.8572   27.7366 C   0  0  0  0  0  0  0  0  0  0  0  0
  -23.8529  -26.6619   28.1606 C   0  0  0  0  0  0  0  0  0  0  0  0
  -24.4502  -21.0624   25.6050 C   0  0  0  0  0  0  0  0  0  0  0  0
  -28.6285  -24.1560   17.5000 C   0  0  0  0  0  0  0  0  0  0  0  0
  -30.0690  -26.0978   18.4240 C   0  0  0  0  0  0  0  0  0  0  0  0
  -27.1538  -24.4549   17.7538 C   0  0  0  0  0  0  0  0  0  1  0  0
  -24.8409  -25.6003   26.0897 C   0  0  1  0  0  0  0  0  0  0  0  0
  -26.0271  -22.1729   27.1922 C   0  0  2  0  0  0  0  0  0  0  0  0
  -24.9193  -26.8170   27.0545 C   0  0  0  0  0  0  0  0  0  0  0  0
  -25.6055  -17.0423   20.3257 N   0  0  0  0  0  0  0  0  0  0  0  0
  -25.2989  -18.1594   19.6443 N   0  0  0  0  0  0  0  0  0  0  0  0
  -27.5996  -20.6661   21.3986 N   0  0  0  0  0  0  0  0  0  0  0  0
  -23.5615  -25.5856   23.9714 N   0  0  0  0  0  0  0  0  0  0  0  0
  -24.1600  -18.9470   17.7226 N   0  0  0  0  0  0  0  0  0  0  0  0
  -23.5314  -14.4782   17.5477 N   0  0  0  0  0  0  0  0  0  0  0  0
  -20.9682  -27.7033   23.5721 N   0  0  0  0  0  0  0  0  0  0  0  0
  -25.0314  -24.3085   26.7403 N   0  0  0  0  0  0  0  0  0  0  0  0
  -25.7460  -20.9916   26.3282 N   0  3  0  0  0  0  0  0  0  0  0  0
  -23.0992  -16.4624   16.4824 O   0  0  0  0  0  0  0  0  0  0  0  0
  -29.6615  -20.5083   20.3302 O   0  0  0  0  0  0  0  0  0  0  0  0
  -22.9052  -27.7942   22.2828 O   0  0  0  0  0  0  0  0  0  0  0  0
  -22.4785  -25.3963   26.0275 O   0  0  0  0  0  0  0  0  0  0  0  0
  -26.8557  -23.6501   25.4692 O   0  0  0  0  0  0  0  0  0  0  0  0
  -25.4387  -10.7384   21.2098 O   0  0  0  0  0  0  0  0  0  0  0  0
  -30.9345  -25.2064   19.1142 O   0  0  0  0  0  0  0  0  0  0  0  0
  -27.0258  -25.3300   18.8737 O   0  0  0  0  0  0  0  0  0  1  0  0
  -20.8630   -7.6655   21.0555 F   0  0  0  0  0  0  0  0  0  0  0  0
  -24.4413   -9.5634   23.5049 F   0  0  0  0  0  0  0  0  0  0  0  0
  1  2  1  0  0  0  0
  1  5  2  0  0  0  0
  2  6  2  0  0  0  0
  3  9  2  0  0  0  0
  3 18  1  0  0  0  0
  4 10  1  0  0  0  0
  4 18  2  0  0  0  0
  5 21  1  0  0  0  0
  6 23  1  0  0  0  0
  7 11  2  0  0  0  0
  7 22  1  0  0  0  0
  8 12  2  0  0  0  0
  8 25  1  0  0  0  0
  9 26  1  0  0  0  0
 10 26  2  0  0  0  0
 11 27  1  0  0  0  0
 12 28  1  0  0  0  0
 13 14  2  0  0  0  0
 13 29  1  0  0  0  0
 14 30  1  0  0  0  0
 15 19  1  0  0  0  0
 15 25  2  0  0  0  0
 16 24  1  0  0  0  0
 16 27  2  0  0  0  0
 17 30  2  0  0  0  0
 17 31  1  0  0  0  0
 18 32  1  0  0  0  0
 19 28  2  0  0  0  0
 19 35  1  0  0  0  0
 20 32  1  0  0  0  0
 20 33  2  0  0  0  0
 20 37  1  0  0  0  0
 21 23  2  0  0  0  0
 21 43  1  0  0  0  0
 22 24  2  0  0  0  0
 22 44  1  0  0  0  0
 23 52  1  0  0  0  0
 24 45  1  0  0  0  0
 25 55  1  0  0  0  0
 26 81  1  0  0  0  0
 27 83  1  0  0  0  0
 28 82  1  0  0  0  0
 29 31  2  0  0  0  0
 29 81  1  0  0  0  0
 30 84  1  0  0  0  0
 31 85  1  0  0  0  0
 32 67  2  0  0  0  0
 33 68  1  0  0  0  0
 33 71  1  0  0  0  0
 34 38  2  0  0  0  0
 35 36  2  0  0  0  0
 36 39  1  0  0  0  0
 37 72  1  0  0  0  0
 37 76  2  0  0  0  0
 38 61  1  0  0  0  0
 38 62  1  0  0  0  0
 39 69  1  0  0  0  0
 39 77  2  0  0  0  0
 40 53  1  0  0  0  0
 40 73  1  0  0  0  0
 40 78  2  0  0  0  0
 41 64  1  0  0  0  0
 41 70  1  0  0  0  0
 41 79  2  0  0  0  0
 42 65  1  0  0  0  0
 42 74  1  0  0  0  0
 42 80  2  0  0  0  0
 43 46  1  0  0  0  0
 44 53  1  0  0  0  0
 45 70  1  0  0  0  0
 46 48  1  0  0  0  0
 47 49  1  0  0  0  0
 47 50  1  0  0  0  0
 48 52  1  0  0  0  0
 49 54  1  0  0  0  0
 50 69  1  0  0  0  0
 51 54  1  0  0  0  0
 51 69  1  0  0  0  0
 52 73  1  0  0  0  0
 53 70  1  0  0  0  0
 54 68  1  0  0  0  0
 56 65  1  0  0  0  0
 57 66  1  0  0  0  0
 58 66  1  0  0  0  0
 59 66  1  0  0  0  0
 60 75  1  0  0  0  0
 61 63  1  0  0  0  0
 62 82  1  0  0  0  0
 63 83  1  0  0  0  0
 64 66  1  0  0  0  0
 64 74  1  0  0  0  0
 65 75  1  0  0  0  0
 67 68  1  0  0  0  0
M  CHG  1  75   1
M  ISO  4  36 100  39 100  63 101  83 101
M  END
> <Batch ID>
0132

> <Smiles>
C=C(COc1ccc(C)cc1C=[100CH:0][100C:0](=O)N1CCCC(n2nc(-c3ccc(Oc4ccc(F)cc4F)cc3)c(C(N)=O)c2N)C1)C[101CH2:1][101O:1]c1ccc2c(c1)CN(C(=O)C(NC(=O)C(C)NC)C(C)(C)C)C(C(=O)NC1CCCc3ccccc31)C2

> <Shape>
0.190

> <Color>
0.089

> <Negative vol penalty>
0.000

$$$$

  -OEChem-04052302283D

 89 97  0     1  0  0  0  0  0999 V2000
  -15.3383  -26.6237   24.5006 C   0  0  0  0  0  0  0  0  0  0  0  0
  -15.7913  -26.2042   23.2539 C   0  0  0  0  0  0  0  0  0  0  0  0
  -26.7539  -14.9098   21.5364 C   0  0  0  0  0  0  0  0  0  0  0  0
  -26.5555  -14.9322   19.1286 C   0  0  0  0  0  0  0  0  0  0  0  0
  -15.8227  -27.8078   25.0548 C   0  0  0  0  0  0  0  0  0  0  0  0
  -16.7284  -26.9692   22.5603 C   0  0  0  0  0  0  0  0  0  0  0  0
  -21.2096  -24.9022   18.9336 C   0  0  0  0  0  0  0  0  0  0  0  0
  -26.4595  -13.5465   21.5480 C   0  0  0  0  0  0  0  0  0  0  0  0
  -26.2611  -13.5688   19.1403 C   0  0  0  0  0  0  0  0  0  0  0  0
  -21.3118  -24.7738   17.5491 C   0  0  0  0  0  0  0  0  0  0  0  0
  -23.7142  -11.5894   21.3080 C   0  0  0  0  0  0  0  0  0  0  0  0
  -22.7976  -11.1332   22.2552 C   0  0  0  0  0  0  0  0  0  0  0  0
  -22.4523  -26.8968   17.4426 C   0  0  0  0  0  0  0  0  0  0  0  0
  -30.2394  -25.1227   14.8599 C   0  0  0  0  0  0  0  0  0  0  0  0
  -29.0735  -25.0274   16.9738 C   0  0  0  0  0  0  0  0  0  0  0  0
  -24.4866   -9.6801   23.1896 C   0  0  0  0  0  0  0  0  0  0  0  0
  -26.8018  -15.6027   20.3267 C   0  0  0  0  0  0  0  0  0  0  0  0
  -28.3775  -17.6058   20.2145 C   0  0  0  0  0  0  0  0  0  0  0  0
  -16.7734  -28.5827   24.3719 C   0  0  0  0  0  0  0  0  0  0  0  0
  -21.7191  -26.0358   19.5829 C   0  0  0  0  0  0  0  0  0  0  0  0
  -17.2250  -28.1654   23.1053 C   0  0  0  0  0  0  0  0  0  0  0  0
  -22.3576  -27.0359   18.8357 C   0  0  0  0  0  0  0  0  0  0  0  0
  -30.2632  -25.1406   16.2544 C   0  0  0  0  0  0  0  0  0  0  0  0
  -29.0259  -24.9915   14.1847 C   0  0  0  0  0  0  0  0  0  0  0  0
  -27.8600  -24.8962   16.2986 C   0  0  0  0  0  0  0  0  0  0  0  0
  -27.8362  -24.8783   14.9040 C   0  0  0  0  0  0  0  0  0  0  0  0
  -26.2131  -12.8759   20.3500 C   0  0  0  0  0  0  0  0  0  0  0  0
  -21.9306  -25.7725   16.8031 C   0  0  0  0  0  0  0  0  0  0  0  0
  -25.0170  -11.0910   21.3015 C   0  0  0  0  0  0  0  0  0  0  0  0
  -23.1838  -10.1785   23.1961 C   0  0  0  0  0  0  0  0  0  0  0  0
  -25.4031  -10.1363   22.2423 C   0  0  0  0  0  0  0  0  0  0  0  0
  -27.1054  -17.0112   20.3141 C   0  0  0  0  0  0  0  0  0  0  0  0
  -28.1288  -18.9562   20.2467 C   0  0  0  0  0  0  0  0  0  0  0  0
  -29.6686  -16.9923   20.1029 C   0  0  0  0  0  0  0  0  0  0  0  0
  -20.4636  -28.3696   21.3382 C   0  0  0  0  0  0  0  0  0  0  0  0
  -25.1227  -23.3475   18.5234 C   0  0  0  0  0  0  0  0  0  0  0  0
  -23.5706  -29.2116   21.7380 C   0  0  0  0  0  0  0  0  0  0  0  0
  -26.7729  -29.1150   20.5620 C   0  0  0  0  0  0  0  0  0  0  0  0
  -17.2324  -29.8795   24.9902 C   0  0  0  0  0  0  0  0  0  0  0  0
  -21.6247  -26.1467   21.0800 C   0  0  0  0  0  0  0  0  0  0  0  0
  -22.9391  -28.2632   19.4870 C   0  0  0  0  0  0  0  0  0  0  0  0
  -18.5038  -30.4394   24.3576 C   0  0  0  0  0  0  0  0  0  0  0  0
  -23.9151  -21.5112   21.3536 C   0  0  0  0  0  0  0  0  0  0  0  0
  -18.4066  -30.3963   22.8359 C   0  0  0  0  0  0  0  0  0  0  0  0
  -24.7203  -20.2132   21.3095 C   0  0  0  0  0  0  0  0  0  0  0  0
  -23.6003  -22.0210   19.9507 C   0  0  0  0  0  0  0  0  0  0  0  0
  -25.6120  -20.9051   19.0399 C   0  0  0  0  0  0  0  0  0  0  0  0
  -18.2595  -28.9551   22.3331 C   0  0  1  0  0  0  0  0  0  0  0  0
  -21.7219  -27.5847   21.5800 C   0  0  1  0  0  0  0  0  0  0  0  0
  -25.9777  -20.3721   20.4365 C   0  0  2  0  0  0  0  0  0  0  0  0
  -31.9222  -26.7407   17.2412 C   0  0  0  0  0  0  0  0  0  0  0  0
  -29.8935  -23.8514   12.1270 C   0  0  0  0  0  0  0  0  0  0  0  0
  -23.1764  -27.4137   11.3040 C   0  0  0  0  0  0  0  0  0  0  0  0
  -29.0891  -29.9264   21.0858 C   0  0  0  0  0  0  0  0  0  0  0  0
  -22.8077  -32.0043   20.7743 C   0  0  0  0  0  0  0  0  0  0  0  0
  -25.2412  -32.4684   20.4125 C   0  0  0  0  0  0  0  0  0  0  0  0
  -24.3967  -31.9649   22.7051 C   0  0  0  0  0  0  0  0  0  0  0  0
  -27.8157  -26.3540   20.7816 C   0  0  0  0  0  0  0  0  0  0  0  0
  -31.5605  -25.2815   16.9763 C   0  0  0  0  0  0  0  0  0  0  0  0
  -29.0279  -24.9740   12.6909 C   0  0  0  0  0  0  0  0  0  0  0  0
  -26.5999  -24.7765   17.0922 C   0  0  0  0  0  0  0  0  0  0  0  0
  -26.5237  -24.7359   14.1733 C   0  0  0  0  0  0  0  0  0  0  0  0
  -26.3949  -23.3909   17.7150 C   0  0  0  0  0  0  0  0  0  0  0  0
  -24.3995  -27.4125   12.2120 C   0  0  0  0  0  0  0  0  0  0  0  0
  -26.0457  -26.0818   13.6161 C   0  0  0  0  0  0  0  0  0  0  0  0
  -23.5382  -25.4494   13.5955 C   0  0  0  0  0  0  0  0  0  0  0  0
  -23.1559  -26.2660   14.8254 C   0  0  0  0  0  0  0  0  0  1  0  0
  -24.5400  -30.1033   21.0004 C   0  0  1  0  0  0  0  0  0  0  0  0
  -28.0884  -28.7927   21.2476 C   0  0  2  0  0  0  0  0  0  0  0  0
  -24.7305  -26.0242   12.8038 C   0  0  1  0  0  0  0  0  0  0  0  0
  -24.2338  -31.6131   21.2103 C   0  0  0  0  0  0  0  0  0  0  0  0
  -26.1215  -17.9102   20.4030 N   0  0  0  0  0  0  0  0  0  0  0  0
  -26.7755  -19.0834   20.3595 N   0  0  0  0  0  0  0  0  0  0  0  0
  -22.8162  -28.3285   20.9527 N   0  0  0  0  0  0  0  0  0  0  0  0
  -24.8178  -22.1369   19.1460 N   0  0  0  0  0  0  0  0  0  0  0  0
  -28.9378  -20.0354   20.1893 N   0  0  0  0  0  0  0  0  0  0  0  0
  -29.7440  -15.5930   20.0844 N   0  0  0  0  0  0  0  0  0  0  0  0
  -19.5380  -28.2775   22.3600 N   0  0  0  0  0  0  0  0  0  0  0  0
  -25.8744  -29.6989   21.4298 N   0  0  0  0  0  0  0  0  0  0  0  0
  -28.6836  -27.5545   20.6701 N   0  3  0  0  0  0  0  0  0  0  0  0
  -30.7254  -17.6650   20.0384 O   0  0  0  0  0  0  0  0  0  0  0  0
  -20.3422  -29.0124   20.3020 O   0  0  0  0  0  0  0  0  0  0  0  0
  -24.4236  -24.3612   18.6005 O   0  0  0  0  0  0  0  0  0  0  0  0
  -23.4910  -29.2905   22.9665 O   0  0  0  0  0  0  0  0  0  0  0  0
  -26.5646  -28.8764   19.3745 O   0  0  0  0  0  0  0  0  0  0  0  0
  -25.9260  -11.5455   20.3609 O   0  0  0  0  0  0  0  0  0  0  0  0
  -22.0312  -25.6501   15.4515 O   0  0  0  0  0  0  0  0  0  1  0  0
  -22.3039   -9.7416   24.1066 F   0  0  0  0  0  0  0  0  0  0  0  0
  -26.6537   -9.6546   22.2418 F   0  0  0  0  0  0  0  0  0  0  0  0
  1  2  1  0  0  0  0
  1  5  2  0  0  0  0
  2  6  2  0  0  0  0
  3  8  2  0  0  0  0
  3 17  1  0  0  0  0
  4  9  1  0  0  0  0
  4 17  2  0  0  0  0
  5 19  1  0  0  0  0
  6 21  1  0  0  0  0
  7 10  2  0  0  0  0
  7 20  1  0  0  0  0
  8 27  1  0  0  0  0
  9 27  2  0  0  0  0
 10 28  1  0  0  0  0
 11 12  2  0  0  0  0
 11 29  1  0  0  0  0
 12 30  1  0  0  0  0
 13 22  1  0  0  0  0
 13 28  2  0  0  0  0
 14 23  1  0  0  0  0
 14 24  2  0  0  0  0
 15 23  2  0  0  0  0
 15 25  1  0  0  0  0
 16 30  2  0  0  0  0
 16 31  1  0  0  0  0
 17 32  1  0  0  0  0
 18 32  1  0  0  0  0
 18 33  2  0  0  0  0
 18 34  1  0  0  0  0
 19 21  2  0  0  0  0
 19 39  1  0  0  0  0
 20 22  2  0  0  0  0
 20 40  1  0  0  0  0
 21 48  1  0  0  0  0
 22 41  1  0  0  0  0
 23 59  1  0  0  0  0
 24 26  1  0  0  0  0
 24 60  1  0  0  0  0
 25 26  2  0  0  0  0
 25 61  1  0  0  0  0
 26 62  1  0  0  0  0
 27 86  1  0  0  0  0
 28 87  1  0  0  0  0
 29 31  2  0  0  0  0
 29 86  1  0  0  0  0
 30 88  1  0  0  0  0
 31 89  1  0  0  0  0
 32 72  2  0  0  0  0
 33 73  1  0  0  0  0
 33 76  1  0  0  0  0
 34 77  1  0  0  0  0
 34 81  2  0  0  0  0
 35 49  1  0  0  0  0
 35 78  1  0  0  0  0
 35 82  2  0  0  0  0
 36 63  1  0  0  0  0
 36 75  1  0  0  0  0
 36 83  2  0  0  0  0
 37 68  1  0  0  0  0
 37 74  1  0  0  0  0
 37 84  2  0  0  0  0
 38 69  1  0  0  0  0
 38 79  1  0  0  0  0
 38 85  2  0  0  0  0
 39 42  1  0  0  0  0
 40 49  1  0  0  0  0
 41 74  1  0  0  0  0
 42 44  1  0  0  0  0
 43 45  1  0  0  0  0
 43 46  1  0  0  0  0
 44 48  1  0  0  0  0
 45 50  1  0  0  0  0
 46 75  1  0  0  0  0
 47 50  1  0  0  0  0
 47 75  1  0  0  0  0
 48 78  1  0  0  0  0
 49 74  1  0  0  0  0
 50 73  1  0  0  0  0
 51 59  1  0  0  0  0
 52 60  1  0  0  0  0
 53 64  1  0  0  0  0
 54 69  1  0  0  0  0
 55 71  1  0  0  0  0
 56 71  1  0  0  0  0
 57 71  1  0  0  0  0
 58 80  1  0  0  0  0
 61 63  1  0  0  0  0
 62 65  1  0  0  0  0
 64 70  1  0  0  0  0
 65 70  1  0  0  0  0
 66 67  1  0  0  0  0
 66 70  1  0  0  0  0
 67 87  1  0  0  0  0
 68 71  1  0  0  0  0
 68 79  1  0  0  0  0
 69 80  1  0  0  0  0
 72 73  1  0  0  0  0
M  CHG  1  80   1
M  ISO  4  36 100  63 100  67 101  87 101
M  END
> <Batch ID>
0132

> <Smiles>
CCc1cc(CC)c(CCC(CC)C[101CH2:1][101O:1]c2ccc3c(c2)CN(C(=O)C(NC(=O)C(C)NC)C(C)(C)C)C(C(=O)NC2CCCc4ccccc42)C3)c(C[100CH2:0][100C:0](=O)N2CCCC(n3nc(-c4ccc(Oc5ccc(F)cc5F)cc4)c(C(N)=O)c3N)C2)c1

> <Shape>
0.216

> <Color>
0.074

> <Negative vol penalty>
0.000

$$$$

  -OEChem-04052302283D

 83 91  0     1  0  0  0  0  0999 V2000
  -34.7256  -31.8595   18.2274 C   0  0  0  0  0  0  0  0  0  0  0  0
  -34.1443  -31.0222   19.1743 C   0  0  0  0  0  0  0  0  0  0  0  0
  -23.0423   -9.9727   21.0898 C   0  0  0  0  0  0  0  0  0  0  0  0
  -23.8722  -10.5968   23.2713 C   0  0  0  0  0  0  0  0  0  0  0  0
  -34.4923  -33.2332   18.2764 C   0  0  0  0  0  0  0  0  0  0  0  0
  -33.3302  -31.5583   20.1714 C   0  0  0  0  0  0  0  0  0  0  0  0
  -29.0836  -28.8862   20.8578 C   0  0  0  0  0  0  0  0  0  0  0  0
  -29.9346  -19.3102   20.7936 C   0  0  0  0  0  0  0  0  0  0  0  0
  -30.8014  -18.6330   22.9447 C   0  0  0  0  0  0  0  0  0  0  0  0
  -29.4323  -20.4796   21.3641 C   0  0  0  0  0  0  0  0  0  0  0  0
  -30.2991  -19.8025   23.5153 C   0  0  0  0  0  0  0  0  0  0  0  0
  -22.3040   -8.9392   21.6663 C   0  0  0  0  0  0  0  0  0  0  0  0
  -23.1338   -9.5633   23.8478 C   0  0  0  0  0  0  0  0  0  0  0  0
  -29.1868  -27.7032   21.5882 C   0  0  0  0  0  0  0  0  0  0  0  0
  -20.4823   -5.9106   22.5224 C   0  0  0  0  0  0  0  0  0  0  0  0
  -20.5146   -4.6629   21.8997 C   0  0  0  0  0  0  0  0  0  0  0  0
  -28.3461  -28.8427   23.5411 C   0  0  0  0  0  0  0  0  0  0  0  0
  -22.9086   -4.5693   22.2115 C   0  0  0  0  0  0  0  0  0  0  0  0
  -23.8264  -10.8015   21.8923 C   0  0  0  0  0  0  0  0  0  0  0  0
  -24.1697  -13.1945   21.0780 C   0  0  0  0  0  0  0  0  0  0  0  0
  -33.6671  -33.7853   19.2688 C   0  0  0  0  0  0  0  0  0  0  0  0
  -28.6204  -30.0610   21.4674 C   0  0  0  0  0  0  0  0  0  0  0  0
  -33.0867  -32.9409   20.2345 C   0  0  0  0  0  0  0  0  0  0  0  0
  -28.2355  -30.0387   22.8156 C   0  0  0  0  0  0  0  0  0  0  0  0
  -30.6192  -18.3868   21.5839 C   0  0  0  0  0  0  0  0  0  0  0  0
  -29.6145  -20.7258   22.7250 C   0  0  0  0  0  0  0  0  0  0  0  0
  -22.3497   -8.7345   23.0453 C   0  0  0  0  0  0  0  0  0  0  0  0
  -28.8208  -27.6820   22.9309 C   0  0  0  0  0  0  0  0  0  0  0  0
  -21.6631   -6.4878   22.9895 C   0  0  0  0  0  0  0  0  0  0  0  0
  -21.7277   -3.9922   21.7443 C   0  0  0  0  0  0  0  0  0  0  0  0
  -22.8762   -5.8171   22.8342 C   0  0  0  0  0  0  0  0  0  0  0  0
  -24.5897  -11.8689   21.2973 C   0  0  0  0  0  0  0  0  0  0  0  0
  -25.2518  -13.8052   20.4926 C   0  0  0  0  0  0  0  0  0  0  0  0
  -29.9115  -22.9122   23.2938 C   0  0  0  0  0  0  0  0  0  0  0  0
  -22.9138  -13.8182   21.3769 C   0  0  0  0  0  0  0  0  0  0  0  0
  -29.4420  -24.1987   23.8913 C   0  0  0  0  0  0  0  0  0  0  0  0
  -29.8586  -32.9336   22.0322 C   0  0  0  0  0  0  0  0  0  0  0  0
  -30.7645  -14.7422   20.3477 C   0  0  0  0  0  0  0  0  0  0  0  0
  -26.8542  -33.5969   23.0599 C   0  0  0  0  0  0  0  0  0  0  0  0
  -23.8909  -32.4354   24.2913 C   0  0  0  0  0  0  0  0  0  0  0  0
  -33.4823  -35.2816   19.3096 C   0  0  0  0  0  0  0  0  0  0  0  0
  -28.4897  -31.3225   20.6587 C   0  0  0  0  0  0  0  0  0  0  0  0
  -27.7129  -31.2679   23.5115 C   0  0  0  0  0  0  0  0  0  0  0  0
  -32.3054  -35.7267   20.1739 C   0  0  0  0  0  0  0  0  0  0  0  0
  -29.5190  -11.8655   18.6119 C   0  0  0  0  0  0  0  0  0  0  0  0
  -32.3200  -34.9960   21.5128 C   0  0  0  0  0  0  0  0  0  0  0  0
  -28.1021  -11.7011   19.1601 C   0  0  0  0  0  0  0  0  0  0  0  0
  -30.4763  -12.3779   19.6834 C   0  0  0  0  0  0  0  0  0  0  0  0
  -28.6183  -13.4862   20.8840 C   0  0  0  0  0  0  0  0  0  0  0  0
  -32.1777  -33.4819   21.3166 C   0  0  1  0  0  0  0  0  0  0  0  0
  -28.4914  -32.5846   21.5158 C   0  0  1  0  0  0  0  0  0  0  0  0
  -27.6127  -12.9996   19.8256 C   0  0  2  0  0  0  0  0  0  0  0  0
  -21.6380  -33.2203   25.0695 C   0  0  0  0  0  0  0  0  0  0  0  0
  -28.0961  -34.5609   25.6749 C   0  0  0  0  0  0  0  0  0  0  0  0
  -25.8258  -34.4259   26.7218 C   0  0  0  0  0  0  0  0  0  0  0  0
  -26.2289  -35.9873   24.8186 C   0  0  0  0  0  0  0  0  0  0  0  0
  -22.4964  -30.8845   22.1915 C   0  0  0  0  0  0  0  0  0  0  0  0
  -31.1556  -17.1358   20.9744 C   0  0  0  0  0  0  0  0  0  0  0  0
  -29.4093  -25.3779   22.9581 C   0  0  0  0  0  0  0  0  0  1  0  0
  -30.1678  -15.9625   21.0026 C   0  0  0  0  0  0  0  0  0  0  0  0
  -26.1302  -33.4992   24.3810 C   0  0  1  0  0  0  0  0  0  0  0  0
  -22.4540  -32.7157   23.8897 C   0  0  2  0  0  0  0  0  0  0  0  0
  -26.5819  -34.5955   25.3867 C   0  0  0  0  0  0  0  0  0  0  0  0
  -25.8410  -11.6495   20.8846 N   0  0  0  0  0  0  0  0  0  0  0  0
  -29.1097  -21.9046   23.2991 N   0  0  0  0  0  0  0  0  0  0  0  0
  -26.2164  -12.8455   20.4000 N   0  0  0  0  0  0  0  0  0  0  0  0
  -27.6095  -32.4784   22.6799 N   0  0  0  0  0  0  0  0  0  0  0  0
  -29.9650  -13.5998   20.3069 N   0  0  0  0  0  0  0  0  0  0  0  0
  -25.4626  -15.0640   20.0530 N   0  0  0  0  0  0  0  0  0  0  0  0
  -21.9108  -13.0460   21.9786 N   0  0  0  0  0  0  0  0  0  0  0  0
  -30.7999  -33.1353   21.0409 N   0  0  0  0  0  0  0  0  0  0  0  0
  -24.7054  -33.5254   24.0685 N   0  0  0  0  0  0  0  0  0  0  0  0
  -21.8106  -31.4764   23.3689 N   0  3  0  0  0  0  0  0  0  0  0  0
  -22.6820  -15.0202   21.1031 O   0  0  0  0  0  0  0  0  0  0  0  0
  -29.1107  -24.2032   25.0663 O   0  0  0  0  0  0  0  0  0  0  0  0
  -30.0452  -33.0154   23.2406 O   0  0  0  0  0  0  0  0  0  0  0  0
  -31.9062  -14.8053   19.8842 O   0  0  0  0  0  0  0  0  0  0  0  0
  -26.7475  -34.6248   22.3864 O   0  0  0  0  0  0  0  0  0  0  0  0
  -24.2536  -31.3585   24.7596 O   0  0  0  0  0  0  0  0  0  0  0  0
  -21.6293   -7.7262   23.6082 O   0  0  0  0  0  0  0  0  0  0  0  0
  -28.9211  -26.5287   23.6463 O   0  0  0  0  0  0  0  0  0  1  0  0
  -21.7584   -2.7933   21.1477 F   0  0  0  0  0  0  0  0  0  0  0  0
  -24.0138   -6.3659   23.2820 F   0  0  0  0  0  0  0  0  0  0  0  0
  1  2  1  0  0  0  0
  1  5  2  0  0  0  0
  2  6  2  0  0  0  0
  3 12  2  0  0  0  0
  3 19  1  0  0  0  0
  4 13  1  0  0  0  0
  4 19  2  0  0  0  0
  5 21  1  0  0  0  0
  6 23  1  0  0  0  0
  7 14  2  0  0  0  0
  7 22  1  0  0  0  0
  8 10  2  0  0  0  0
  8 25  1  0  0  0  0
  9 11  1  0  0  0  0
  9 25  2  0  0  0  0
 10 26  1  0  0  0  0
 11 26  2  0  0  0  0
 12 27  1  0  0  0  0
 13 27  2  0  0  0  0
 14 28  1  0  0  0  0
 15 16  2  0  0  0  0
 15 29  1  0  0  0  0
 16 30  1  0  0  0  0
 17 24  1  0  0  0  0
 17 28  2  0  0  0  0
 18 30  2  0  0  0  0
 18 31  1  0  0  0  0
 19 32  1  0  0  0  0
 20 32  1  0  0  0  0
 20 33  2  0  0  0  0
 20 35  1  0  0  0  0
 21 23  2  0  0  0  0
 21 41  1  0  0  0  0
 22 24  2  0  0  0  0
 22 42  1  0  0  0  0
 23 50  1  0  0  0  0
 24 43  1  0  0  0  0
 25 58  1  0  0  0  0
 26 65  1  0  0  0  0
 27 80  1  0  0  0  0
 28 81  1  0  0  0  0
 29 31  2  0  0  0  0
 29 80  1  0  0  0  0
 30 82  1  0  0  0  0
 31 83  1  0  0  0  0
 32 64  2  0  0  0  0
 33 66  1  0  0  0  0
 33 69  1  0  0  0  0
 34 36  1  0  0  0  0
 34 65  2  0  0  0  0
 35 70  1  0  0  0  0
 35 74  2  0  0  0  0
 36 59  1  0  0  0  0
 36 75  2  0  0  0  0
 37 51  1  0  0  0  0
 37 71  1  0  0  0  0
 37 76  2  0  0  0  0
 38 60  1  0  0  0  0
 38 68  1  0  0  0  0
 38 77  2  0  0  0  0
 39 61  1  0  0  0  0
 39 67  1  0  0  0  0
 39 78  2  0  0  0  0
 40 62  1  0  0  0  0
 40 72  1  0  0  0  0
 40 79  2  0  0  0  0
 41 44  1  0  0  0  0
 42 51  1  0  0  0  0
 43 67  1  0  0  0  0
 44 46  1  0  0  0  0
 45 47  1  0  0  0  0
 45 48  1  0  0  0  0
 46 50  1  0  0  0  0
 47 52  1  0  0  0  0
 48 68  1  0  0  0  0
 49 52  1  0  0  0  0
 49 68  1  0  0  0  0
 50 71  1  0  0  0  0
 51 67  1  0  0  0  0
 52 66  1  0  0  0  0
 53 62  1  0  0  0  0
 54 63  1  0  0  0  0
 55 63  1  0  0  0  0
 56 63  1  0  0  0  0
 57 73  1  0  0  0  0
 58 60  1  0  0  0  0
 59 81  1  0  0  0  0
 61 63  1  0  0  0  0
 61 72  1  0  0  0  0
 62 73  1  0  0  0  0
 64 66  1  0  0  0  0
M  CHG  1  73   1
M  ISO  4  38 100  59 101  60 100  81 101
M  END
> <Batch ID>
0132

> <Smiles>
CNC(C)C(=O)NC(C(=O)N1Cc2cc([101O:1][101CH2:1]C(=O)CNc3ccc(C=[100CH:0][100C:0](=O)N4CCCC(n5nc(-c6ccc(Oc7ccc(F)cc7F)cc6)c(C(N)=O)c5N)C4)cc3)ccc2CC1C(=O)NC1CCCc2ccccc21)C(C)(C)C

> <Shape>
0.255

> <Color>
0.191

> <Negative vol penalty>
0.000

$$$$

  -OEChem-04052302283D

 85 93  0     1  0  0  0  0  0999 V2000
  -28.9239  -31.5612   12.0641 C   0  0  0  0  0  0  0  0  0  0  0  0
  -28.7583  -31.2226   13.4033 C   0  0  0  0  0  0  0  0  0  0  0  0
  -23.0639   -9.8768   19.9513 C   0  0  0  0  0  0  0  0  0  0  0  0
  -23.8553   -9.8794   22.2340 C   0  0  0  0  0  0  0  0  0  0  0  0
  -28.2080  -30.8802   11.0804 C   0  0  0  0  0  0  0  0  0  0  0  0
  -27.8757  -30.2035   13.7596 C   0  0  0  0  0  0  0  0  0  0  0  0
  -28.5141  -26.2263   18.3727 C   0  0  0  0  0  0  0  0  0  0  0  0
  -28.0571  -19.7713   21.5272 C   0  0  0  0  0  0  0  0  0  0  0  0
  -29.1949  -19.6957   23.6571 C   0  0  0  0  0  0  0  0  0  0  0  0
  -28.8725  -18.7428   21.0551 C   0  0  0  0  0  0  0  0  0  0  0  0
  -30.0103  -18.6672   23.1851 C   0  0  0  0  0  0  0  0  0  0  0  0
  -22.3248   -8.7222   20.2087 C   0  0  0  0  0  0  0  0  0  0  0  0
  -23.1162   -8.7248   22.4915 C   0  0  0  0  0  0  0  0  0  0  0  0
  -27.9870  -26.1940   19.6630 C   0  0  0  0  0  0  0  0  0  0  0  0
  -19.3978   -7.9188   21.6986 C   0  0  0  0  0  0  0  0  0  0  0  0
  -18.0844   -7.8722   21.2313 C   0  0  0  0  0  0  0  0  0  0  0  0
  -26.2183  -24.7432   18.8975 C   0  0  0  0  0  0  0  0  0  0  0  0
  -18.6281   -5.9328   19.8969 C   0  0  0  0  0  0  0  0  0  0  0  0
  -23.8291  -10.4554   20.9639 C   0  0  0  0  0  0  0  0  0  0  0  0
  -24.1664  -12.9812   20.8451 C   0  0  0  0  0  0  0  0  0  0  0  0
  -27.3235  -29.8457   11.4241 C   0  0  0  0  0  0  0  0  0  0  0  0
  -27.8901  -25.5250   17.3311 C   0  0  0  0  0  0  0  0  0  0  0  0
  -27.1463  -29.5089   12.7797 C   0  0  0  0  0  0  0  0  0  0  0  0
  -26.7409  -24.7662   17.5954 C   0  0  0  0  0  0  0  0  0  0  0  0
  -28.2183  -20.2478   22.8282 C   0  0  0  0  0  0  0  0  0  0  0  0
  -29.8491  -18.1907   21.8840 C   0  0  0  0  0  0  0  0  0  0  0  0
  -22.3510   -8.1462   21.4788 C   0  0  0  0  0  0  0  0  0  0  0  0
  -26.8372  -25.4547   19.9250 C   0  0  0  0  0  0  0  0  0  0  0  0
  -20.3264   -6.9725   21.2650 C   0  0  0  0  0  0  0  0  0  0  0  0
  -17.6995   -6.8792   20.3305 C   0  0  0  0  0  0  0  0  0  0  0  0
  -19.9415   -5.9795   20.3642 C   0  0  0  0  0  0  0  0  0  0  0  0
  -24.5932  -11.6478   20.6984 C   0  0  0  0  0  0  0  0  0  0  0  0
  -25.2526  -13.7328   20.4685 C   0  0  0  0  0  0  0  0  0  0  0  0
  -24.6484  -24.0045   23.8354 C   0  0  0  0  0  0  0  0  0  0  0  0
  -22.9012  -13.4946   21.2826 C   0  0  0  0  0  0  0  0  0  0  0  0
  -25.7405  -24.0403   23.0550 C   0  0  0  0  0  0  0  0  0  0  0  0
  -26.5254  -26.3419   14.5790 C   0  0  0  0  0  0  0  0  0  0  0  0
  -30.7595  -14.6912   20.6803 C   0  0  0  0  0  0  0  0  0  0  0  0
  -26.3510  -23.1299   14.1605 C   0  0  0  0  0  0  0  0  0  0  0  0
  -26.2668  -20.0245   15.5733 C   0  0  0  0  0  0  0  0  0  0  0  0
  -26.5362  -29.1701   10.3294 C   0  0  0  0  0  0  0  0  0  0  0  0
  -28.4864  -25.5485   15.9504 C   0  0  0  0  0  0  0  0  0  0  0  0
  -26.0447  -23.9793   16.5163 C   0  0  0  0  0  0  0  0  0  0  0  0
  -25.9017  -27.8504   10.7610 C   0  0  0  0  0  0  0  0  0  0  0  0
  -29.5631  -12.3991   18.1995 C   0  0  0  0  0  0  0  0  0  0  0  0
  -25.2115  -28.0066   12.1123 C   0  0  0  0  0  0  0  0  0  0  0  0
  -28.1393  -12.0856   18.6572 C   0  0  0  0  0  0  0  0  0  0  0  0
  -30.4998  -12.6000   19.3866 C   0  0  0  0  0  0  0  0  0  0  0  0
  -28.6151  -13.3293   20.8141 C   0  0  0  0  0  0  0  0  0  0  0  0
  -26.2169  -28.3925   13.2040 C   0  0  1  0  0  0  0  0  0  0  0  0
  -27.4765  -25.2125   14.8575 C   0  0  1  0  0  0  0  0  0  0  0  0
  -27.6297  -13.1493   19.6458 C   0  0  2  0  0  0  0  0  0  0  0  0
  -30.4187  -15.2145   23.0605 C   0  0  0  0  0  0  0  0  0  0  0  0
  -26.0826  -17.5937   14.9777 C   0  0  0  0  0  0  0  0  0  0  0  0
  -23.3647  -23.4851   13.6451 C   0  0  0  0  0  0  0  0  0  0  0  0
  -23.0812  -21.0233   14.0024 C   0  0  0  0  0  0  0  0  0  0  0  0
  -24.4989  -21.8544   12.1256 C   0  0  0  0  0  0  0  0  0  0  0  0
  -28.9089  -19.4143   16.7591 C   0  0  0  0  0  0  0  0  0  0  0  0
  -27.3372  -21.3596   23.3394 C   0  0  0  0  0  0  0  0  0  0  0  0
  -30.7194  -17.0899   21.3790 C   0  0  0  0  0  0  0  0  0  0  0  0
  -27.1259  -23.8909   23.6444 C   0  0  0  0  0  0  0  0  0  0  0  0
  -25.6223  -24.2382   21.5681 C   0  0  0  0  0  0  0  0  0  1  0  0
  -27.9499  -22.7360   23.0613 C   0  0  0  0  0  0  0  0  0  0  0  0
  -30.1434  -15.6824   21.6353 C   0  0  1  0  0  0  0  0  0  0  0  0
  -25.3410  -22.0608   14.5005 C   0  0  1  0  0  0  0  0  0  0  0  0
  -27.0294  -18.7514   15.2536 C   0  0  2  0  0  0  0  0  0  0  0  0
  -24.0832  -22.1222   13.5885 C   0  0  0  0  0  0  0  0  0  0  0  0
  -25.8523  -11.5544   20.2625 N   0  0  0  0  0  0  0  0  0  0  0  0
  -26.2260  -12.8387   20.1320 N   0  0  0  0  0  0  0  0  0  0  0  0
  -26.6626  -24.0390   15.1814 N   0  0  0  0  0  0  0  0  0  0  0  0
  -29.9696  -13.6016   20.3134 N   0  0  0  0  0  0  0  0  0  0  0  0
  -25.4604  -15.0647   20.3958 N   0  0  0  0  0  0  0  0  0  0  0  0
  -21.8951  -12.5834   21.6317 N   0  0  0  0  0  0  0  0  0  0  0  0
  -26.9756  -27.2341   13.6246 N   0  0  0  0  0  0  0  0  0  0  0  0
  -26.0569  -20.7908   14.4463 N   0  0  0  0  0  0  0  0  0  0  0  0
  -27.9114  -18.3755   16.3945 N   0  3  0  0  0  0  0  0  0  0  0  0
  -22.6644  -14.7248   21.3461 O   0  0  0  0  0  0  0  0  0  0  0  0
  -25.4612  -26.3988   15.1839 O   0  0  0  0  0  0  0  0  0  0  0  0
  -31.9076  -14.8830   20.2714 O   0  0  0  0  0  0  0  0  0  0  0  0
  -26.8507  -23.1531   13.0329 O   0  0  0  0  0  0  0  0  0  0  0  0
  -25.8914  -20.3088   16.7085 O   0  0  0  0  0  0  0  0  0  0  0  0
  -21.6297   -7.0197   21.7305 O   0  0  0  0  0  0  0  0  0  0  0  0
  -26.3202  -25.4219   21.1833 O   0  0  0  0  0  0  0  0  0  1  0  0
  -16.4378   -6.8336   19.8830 F   0  0  0  0  0  0  0  0  0  0  0  0
  -20.8288   -5.0670   19.9450 F   0  0  0  0  0  0  0  0  0  0  0  0
  1  2  1  0  0  0  0
  1  5  2  0  0  0  0
  2  6  2  0  0  0  0
  3 12  2  0  0  0  0
  3 19  1  0  0  0  0
  4 13  1  0  0  0  0
  4 19  2  0  0  0  0
  5 21  1  0  0  0  0
  6 23  1  0  0  0  0
  7 14  2  0  0  0  0
  7 22  1  0  0  0  0
  8 10  2  0  0  0  0
  8 25  1  0  0  0  0
  9 11  1  0  0  0  0
  9 25  2  0  0  0  0
 10 26  1  0  0  0  0
 11 26  2  0  0  0  0
 12 27  1  0  0  0  0
 13 27  2  0  0  0  0
 14 28  1  0  0  0  0
 15 16  2  0  0  0  0
 15 29  1  0  0  0  0
 16 30  1  0  0  0  0
 17 24  1  0  0  0  0
 17 28  2  0  0  0  0
 18 30  2  0  0  0  0
 18 31  1  0  0  0  0
 19 32  1  0  0  0  0
 20 32  1  0  0  0  0
 20 33  2  0  0  0  0
 20 35  1  0  0  0  0
 21 23  2  0  0  0  0
 21 41  1  0  0  0  0
 22 24  2  0  0  0  0
 22 42  1  0  0  0  0
 23 50  1  0  0  0  0
 24 43  1  0  0  0  0
 25 59  1  0  0  0  0
 26 60  1  0  0  0  0
 27 82  1  0  0  0  0
 28 83  1  0  0  0  0
 29 31  2  0  0  0  0
 29 82  1  0  0  0  0
 30 84  1  0  0  0  0
 31 85  1  0  0  0  0
 32 68  2  0  0  0  0
 33 69  1  0  0  0  0
 33 72  1  0  0  0  0
 34 36  2  0  0  0  0
 35 73  1  0  0  0  0
 35 77  2  0  0  0  0
 36 61  1  0  0  0  0
 36 62  1  0  0  0  0
 37 51  1  0  0  0  0
 37 74  1  0  0  0  0
 37 78  2  0  0  0  0
 38 64  1  0  0  0  0
 38 71  1  0  0  0  0
 38 79  2  0  0  0  0
 39 65  1  0  0  0  0
 39 70  1  0  0  0  0
 39 80  2  0  0  0  0
 40 66  1  0  0  0  0
 40 75  1  0  0  0  0
 40 81  2  0  0  0  0
 41 44  1  0  0  0  0
 42 51  1  0  0  0  0
 43 70  1  0  0  0  0
 44 46  1  0  0  0  0
 45 47  1  0  0  0  0
 45 48  1  0  0  0  0
 46 50  1  0  0  0  0
 47 52  1  0  0  0  0
 48 71  1  0  0  0  0
 49 52  1  0  0  0  0
 49 71  1  0  0  0  0
 50 74  1  0  0  0  0
 51 70  1  0  0  0  0
 52 69  1  0  0  0  0
 53 64  1  0  0  0  0
 54 66  1  0  0  0  0
 55 67  1  0  0  0  0
 56 67  1  0  0  0  0
 57 67  1  0  0  0  0
 58 76  1  0  0  0  0
 59 63  1  0  0  0  0
 60 64  1  0  0  0  0
 61 63  1  0  0  0  0
 62 83  1  0  0  0  0
 65 67  1  0  0  0  0
 65 75  1  0  0  0  0
 66 76  1  0  0  0  0
 68 69  1  0  0  0  0
M  CHG  1  76   1
M  ISO  4  38 100  62 101  64 100  83 101
M  END
> <Batch ID>
0132

> <Smiles>
C=C(CCCc1ccc(C[100CH:0](C)[100C:0](=O)N2CCCC(n3nc(-c4ccc(Oc5ccc(F)cc5F)cc4)c(C(N)=O)c3N)C2)cc1)[101CH2:1][101O:1]c1ccc2c(c1)CN(C(=O)C(NC(=O)C(C)NC)C(C)(C)C)C(C(=O)NC1CCCc3ccccc31)C2

> <Shape>
0.178

> <Color>
0.190

> <Negative vol penalty>
0.000

$$$$
