
  -OEChem-04052302303D

 84 93  0     1  0  0  0  0  0999 V2000
  -22.3418  -30.6014   28.7482 C   0  0  0  0  0  0  0  0  0  0  0  0
  -23.0496  -29.7154   27.9423 C   0  0  0  0  0  0  0  0  0  0  0  0
  -23.6495   -9.5592   20.4822 C   0  0  0  0  0  0  0  0  0  0  0  0
  -24.1877  -10.1465   22.7631 C   0  0  0  0  0  0  0  0  0  0  0  0
  -21.8737  -31.8028   28.2176 C   0  0  0  0  0  0  0  0  0  0  0  0
  -23.2888  -30.0298   26.6050 C   0  0  0  0  0  0  0  0  0  0  0  0
  -28.2226  -20.3458   21.3330 C   0  0  0  0  0  0  0  0  0  0  0  0
  -28.2619  -28.6150   23.3229 C   0  0  0  0  0  0  0  0  0  0  0  0
  -28.3180  -18.9734   21.5761 C   0  0  0  0  0  0  0  0  0  0  0  0
  -23.1025   -8.3537   20.9216 C   0  0  0  0  0  0  0  0  0  0  0  0
  -23.6406   -8.9410   23.2026 C   0  0  0  0  0  0  0  0  0  0  0  0
  -28.5255  -27.5919   22.4131 C   0  0  0  0  0  0  0  0  0  0  0  0
  -20.5642   -7.6688   23.7839 C   0  0  0  0  0  0  0  0  0  0  0  0
  -19.7245   -7.7076   24.8970 C   0  0  0  0  0  0  0  0  0  0  0  0
  -30.1254  -18.7665   19.9631 C   0  0  0  0  0  0  0  0  0  0  0  0
  -27.9696  -29.0749   20.5935 C   0  0  0  0  0  0  0  0  0  0  0  0
  -21.2187   -6.2192   26.0758 C   0  0  0  0  0  0  0  0  0  0  0  0
  -24.1922  -10.4556   21.4029 C   0  0  0  0  0  0  0  0  0  0  0  0
  -24.0904  -12.9300   20.7908 C   0  0  0  0  0  0  0  0  0  0  0  0
  -22.1156  -32.1365   26.8757 C   0  0  0  0  0  0  0  0  0  0  0  0
  -27.8389  -29.8746   22.8746 C   0  0  0  0  0  0  0  0  0  0  0  0
  -29.0726  -20.9121   20.3958 C   0  0  0  0  0  0  0  0  0  0  0  0
  -22.8223  -31.2362   26.0556 C   0  0  0  0  0  0  0  0  0  0  0  0
  -30.0153  -20.1256   19.7190 C   0  0  0  0  0  0  0  0  0  0  0  0
  -27.7037  -30.1130   21.4995 C   0  0  0  0  0  0  0  0  0  0  0  0
  -29.2623  -18.1894   20.8961 C   0  0  0  0  0  0  0  0  0  0  0  0
  -23.0980   -8.0446   22.2818 C   0  0  0  0  0  0  0  0  0  0  0  0
  -28.3766  -27.8209   21.0484 C   0  0  0  0  0  0  0  0  0  0  0  0
  -21.7311   -6.9053   23.8166 C   0  0  0  0  0  0  0  0  0  0  0  0
  -20.0518   -6.9828   26.0430 C   0  0  0  0  0  0  0  0  0  0  0  0
  -22.0583   -6.1805   24.9626 C   0  0  0  0  0  0  0  0  0  0  0  0
  -24.7579  -11.7008   20.9496 C   0  0  0  0  0  0  0  0  0  0  0  0
  -25.0605  -13.7919   20.3409 C   0  0  0  0  0  0  0  0  0  0  0  0
  -22.7163  -13.2629   21.0289 C   0  0  0  0  0  0  0  0  0  0  0  0
  -25.2243  -31.6369   23.2767 C   0  0  0  0  0  0  0  0  0  0  0  0
  -26.9443  -33.8584   21.6553 C   0  0  0  0  0  0  0  0  0  0  0  0
  -29.4756  -34.5324   19.4678 C   0  0  0  0  0  0  0  0  0  0  0  0
  -30.2168  -15.8787   20.5870 C   0  0  0  0  0  0  0  0  0  0  0  0
  -21.5489  -33.4252   26.3346 C   0  0  0  0  0  0  0  0  0  0  0  0
  -27.5844  -30.9756   23.8673 C   0  0  0  0  0  0  0  0  0  0  0  0
  -30.8474  -20.9594   18.7962 C   0  0  0  0  0  0  0  0  0  0  0  0
  -27.2719  -31.4536   20.9658 C   0  0  0  0  0  0  0  0  0  0  0  0
  -22.1683  -33.8528   25.0066 C   0  0  0  0  0  0  0  0  0  0  0  0
  -29.9655  -22.2080   18.6539 C   0  0  0  0  0  0  0  0  0  0  0  0
  -29.7645  -12.8916   18.7029 C   0  0  0  0  0  0  0  0  0  0  0  0
  -22.2372  -32.6711   24.0445 C   0  0  0  0  0  0  0  0  0  0  0  0
  -28.3667  -12.4166   19.1064 C   0  0  0  0  0  0  0  0  0  0  0  0
  -30.5132  -13.5151   19.8795 C   0  0  0  0  0  0  0  0  0  0  0  0
  -28.3922  -14.1096   20.9826 C   0  0  0  0  0  0  0  0  0  0  0  0
  -29.1990  -22.3535   19.9855 C   0  0  1  0  0  0  0  0  0  0  0  0
  -23.1232  -31.5529   24.6067 C   0  0  1  0  0  0  0  0  0  0  0  0
  -26.6635  -32.0656   23.3276 C   0  0  1  0  0  0  0  0  0  0  0  0
  -27.5749  -13.5330   19.8150 C   0  0  2  0  0  0  0  0  0  0  0  0
  -30.6191  -36.4399   18.3054 C   0  0  0  0  0  0  0  0  0  0  0  0
  -26.7799  -25.0641   18.7220 C   0  0  0  0  0  0  0  0  0  0  0  0
  -24.5917  -34.0900   19.7262 C   0  0  0  0  0  0  0  0  0  0  0  0
  -26.1186  -35.2441   18.1123 C   0  0  0  0  0  0  0  0  0  0  0  0
  -25.6563  -36.2683   20.3394 C   0  0  0  0  0  0  0  0  0  0  0  0
  -32.0703  -33.9092   20.7478 C   0  0  0  0  0  0  0  0  0  0  0  0
  -27.8825  -23.0954   19.8130 C   0  0  0  0  0  0  0  0  0  0  0  0
  -28.4043  -25.4858   20.5984 C   0  0  0  0  0  0  0  0  0  1  0  0
  -27.1265  -34.2162   20.2000 C   0  0  1  0  0  0  0  0  0  0  0  0
  -30.6171  -35.5315   19.5250 C   0  0  2  0  0  0  0  0  0  0  0  0
  -28.0567  -24.5737   19.4144 C   0  0  2  0  0  0  0  0  0  0  0  0
  -25.8796  -34.9287   19.6043 C   0  0  0  0  0  0  0  0  0  0  0  0
  -26.0521  -11.7713   20.6266 N   0  0  0  0  0  0  0  0  0  0  0  0
  -26.2054  -13.0552   20.2603 N   0  0  0  0  0  0  0  0  0  0  0  0
  -27.0288  -32.4962   21.9765 N   0  0  0  0  0  0  0  0  0  0  0  0
  -29.7041  -14.5671   20.4986 N   0  0  0  0  0  0  0  0  0  0  0  0
  -25.0372  -15.1006   20.0102 N   0  0  0  0  0  0  0  0  0  0  0  0
  -21.8554  -12.2576   21.4900 N   0  0  0  0  0  0  0  0  0  0  0  0
  -29.3451  -16.8008   21.1653 N   0  0  0  0  0  0  0  0  0  0  0  0
  -24.5220  -31.8847   24.4407 N   0  0  0  0  0  0  0  0  0  0  0  0
  -28.3555  -34.9986   20.1228 N   0  0  0  0  0  0  0  0  0  0  0  0
  -31.9255  -34.8203   19.5834 N   0  3  0  0  0  0  0  0  0  0  0  0
  -22.2615  -14.4136   20.8226 O   0  0  0  0  0  0  0  0  0  0  0  0
  -24.7833  -31.1210   22.2564 O   0  0  0  0  0  0  0  0  0  0  0  0
  -26.7419  -34.7551   22.4777 O   0  0  0  0  0  0  0  0  0  0  0  0
  -29.5672  -33.4484   18.8958 O   0  0  0  0  0  0  0  0  0  0  0  0
  -31.3354  -16.1686   20.1549 O   0  0  0  0  0  0  0  0  0  0  0  0
  -22.5640   -6.8685   22.7109 O   0  0  0  0  0  0  0  0  0  0  0  0
  -28.6326  -26.8239   20.1583 O   0  0  0  0  0  0  0  0  0  1  0  0
  -19.2462   -7.0213   27.1124 F   0  0  0  0  0  0  0  0  0  0  0  0
  -23.1786   -5.4460   25.0004 F   0  0  0  0  0  0  0  0  0  0  0  0
  1  2  1  0  0  0  0
  1  5  2  0  0  0  0
  2  6  2  0  0  0  0
  3 10  2  0  0  0  0
  3 18  1  0  0  0  0
  4 11  1  0  0  0  0
  4 18  2  0  0  0  0
  5 20  1  0  0  0  0
  6 23  1  0  0  0  0
  7  9  2  0  0  0  0
  7 22  1  0  0  0  0
  8 12  2  0  0  0  0
  8 21  1  0  0  0  0
  9 26  1  0  0  0  0
 10 27  1  0  0  0  0
 11 27  2  0  0  0  0
 12 28  1  0  0  0  0
 13 14  2  0  0  0  0
 13 29  1  0  0  0  0
 14 30  1  0  0  0  0
 15 24  1  0  0  0  0
 15 26  2  0  0  0  0
 16 25  1  0  0  0  0
 16 28  2  0  0  0  0
 17 30  2  0  0  0  0
 17 31  1  0  0  0  0
 18 32  1  0  0  0  0
 19 32  1  0  0  0  0
 19 33  2  0  0  0  0
 19 34  1  0  0  0  0
 20 23  2  0  0  0  0
 20 39  1  0  0  0  0
 21 25  2  0  0  0  0
 21 40  1  0  0  0  0
 22 24  2  0  0  0  0
 22 50  1  0  0  0  0
 23 51  1  0  0  0  0
 24 41  1  0  0  0  0
 25 42  1  0  0  0  0
 26 72  1  0  0  0  0
 27 81  1  0  0  0  0
 28 82  1  0  0  0  0
 29 31  2  0  0  0  0
 29 81  1  0  0  0  0
 30 83  1  0  0  0  0
 31 84  1  0  0  0  0
 32 66  2  0  0  0  0
 33 67  1  0  0  0  0
 33 70  1  0  0  0  0
 34 71  1  0  0  0  0
 34 76  2  0  0  0  0
 35 52  1  0  0  0  0
 35 73  1  0  0  0  0
 35 77  2  0  0  0  0
 36 62  1  0  0  0  0
 36 68  1  0  0  0  0
 36 78  2  0  0  0  0
 37 63  1  0  0  0  0
 37 74  1  0  0  0  0
 37 79  2  0  0  0  0
 38 69  1  0  0  0  0
 38 72  1  0  0  0  0
 38 80  2  0  0  0  0
 39 43  1  0  0  0  0
 40 52  1  0  0  0  0
 41 44  1  0  0  0  0
 42 68  1  0  0  0  0
 43 46  1  0  0  0  0
 44 50  1  0  0  0  0
 45 47  1  0  0  0  0
 45 48  1  0  0  0  0
 46 51  1  0  0  0  0
 47 53  1  0  0  0  0
 48 69  1  0  0  0  0
 49 53  1  0  0  0  0
 49 69  1  0  0  0  0
 50 60  1  0  0  0  0
 51 73  1  0  0  0  0
 52 68  1  0  0  0  0
 53 67  1  0  0  0  0
 54 63  1  0  0  0  0
 55 64  1  0  0  0  0
 56 65  1  0  0  0  0
 57 65  1  0  0  0  0
 58 65  1  0  0  0  0
 59 75  1  0  0  0  0
 60 64  1  0  0  0  0
 61 64  1  0  0  0  0
 61 82  1  0  0  0  0
 62 65  1  0  0  0  0
 62 74  1  0  0  0  0
 63 75  1  0  0  0  0
 66 67  1  0  0  0  0
M  CHG  1  75   1
M  ISO  4  38 100  61 101  72 100  82 101
M  END
> <Batch ID>
0133

> <Smiles>
CNC(C)C(=O)NC(C(=O)N1Cc2cc([101O:1][101CH2:1]C(C)CC3CCc4cc([100NH:0][100C:0](=O)N5CCCC(n6nc(-c7ccc(Oc8ccc(F)cc8F)cc7)c(C(N)=O)c6N)C5)ccc43)ccc2CC1C(=O)NC1CCCc2ccccc21)C(C)(C)C

> <Shape>
0.292

> <Color>
0.169

> <Negative vol penalty>
0.000

$$$$

  -OEChem-04052302303D

 86 95  0     1  0  0  0  0  0999 V2000
  -24.2160  -11.3294   20.1450 C   0  0  0  0  0  0  0  0  0  0  0  0
  -23.7489  -12.6399   20.1411 C   0  0  0  0  0  0  0  0  0  0  0  0
  -29.5530  -29.2452   19.9277 C   0  0  0  0  0  0  0  0  0  0  0  0
  -29.2087  -27.6750   21.7313 C   0  0  0  0  0  0  0  0  0  0  0  0
  -25.4856  -11.0446   20.6459 C   0  0  0  0  0  0  0  0  0  0  0  0
  -24.5508  -13.6661   20.6392 C   0  0  0  0  0  0  0  0  0  0  0  0
  -24.5645  -17.7490   17.6434 C   0  0  0  0  0  0  0  0  0  0  0  0
  -30.9090  -29.3144   20.2468 C   0  0  0  0  0  0  0  0  0  0  0  0
  -30.5648  -27.7441   22.0503 C   0  0  0  0  0  0  0  0  0  0  0  0
  -23.4561  -18.5920   17.7109 C   0  0  0  0  0  0  0  0  0  0  0  0
  -34.5290  -29.6281   20.3587 C   0  0  0  0  0  0  0  0  0  0  0  0
  -35.4460  -29.5672   19.3094 C   0  0  0  0  0  0  0  0  0  0  0  0
  -24.6921  -20.0927   19.1390 C   0  0  0  0  0  0  0  0  0  0  0  0
  -18.4798  -23.1442   21.2254 C   0  0  0  0  0  0  0  0  0  0  0  0
  -19.0499  -24.8142   22.8755 C   0  0  0  0  0  0  0  0  0  0  0  0
  -18.5929  -25.4742   20.5968 C   0  0  0  0  0  0  0  0  0  0  0  0
  -34.6022  -27.3873   18.6986 C   0  0  0  0  0  0  0  0  0  0  0  0
  -28.7027  -28.4255   20.6700 C   0  0  0  0  0  0  0  0  0  0  0  0
  -26.6831  -27.4610   19.4459 C   0  0  0  0  0  0  0  0  0  0  0  0
  -26.3073  -12.0692   21.1415 C   0  0  0  0  0  0  0  0  0  0  0  0
  -25.7434  -18.0666   18.3331 C   0  0  0  0  0  0  0  0  0  0  0  0
  -25.8321  -13.3946   21.1484 C   0  0  0  0  0  0  0  0  0  0  0  0
  -25.8149  -19.2534   19.0765 C   0  0  0  0  0  0  0  0  0  0  0  0
  -18.8222  -23.4808   22.5350 C   0  0  0  0  0  0  0  0  0  0  0  0
  -18.3652  -24.1409   20.2563 C   0  0  0  0  0  0  0  0  0  0  0  0
  -18.9352  -25.8109   21.9064 C   0  0  0  0  0  0  0  0  0  0  0  0
  -31.4150  -28.5639   21.3081 C   0  0  0  0  0  0  0  0  0  0  0  0
  -23.5188  -19.7626   18.4612 C   0  0  0  0  0  0  0  0  0  0  0  0
  -33.6486  -28.5686   20.5779 C   0  0  0  0  0  0  0  0  0  0  0  0
  -35.4826  -28.4468   18.4793 C   0  0  0  0  0  0  0  0  0  0  0  0
  -33.6852  -27.4482   19.7479 C   0  0  0  0  0  0  0  0  0  0  0  0
  -27.3017  -28.3540   20.3412 C   0  0  0  0  0  0  0  0  0  0  0  0
  -25.3526  -27.7995   19.4877 C   0  0  0  0  0  0  0  0  0  0  0  0
  -27.2596  -26.4187   18.6478 C   0  0  0  0  0  0  0  0  0  0  0  0
  -27.4203  -16.6947   20.6589 C   0  0  0  0  0  0  0  0  0  0  0  0
  -20.8074  -29.1300   22.4643 C   0  0  0  0  0  0  0  0  0  0  0  0
  -29.5149  -19.0908   20.0314 C   0  0  0  0  0  0  0  0  0  0  0  0
  -30.0453  -22.2224   18.7831 C   0  0  0  0  0  0  0  0  0  0  0  0
  -27.6536  -11.7062   21.7162 C   0  0  0  0  0  0  0  0  0  0  0  0
  -26.9391  -17.1601   18.2283 C   0  0  0  0  0  0  0  0  0  0  0  0
  -27.0639  -19.6500   19.8189 C   0  0  0  0  0  0  0  0  0  0  0  0
  -28.5881  -12.9019   21.8807 C   0  0  0  0  0  0  0  0  0  0  0  0
  -23.0236  -31.7872   21.5327 C   0  0  0  0  0  0  0  0  0  0  0  0
  -27.8521  -14.0693   22.5306 C   0  0  0  0  0  0  0  0  0  0  0  0
  -18.8783  -23.0927   16.5521 C   0  0  0  0  0  0  0  0  0  0  0  0
  -19.9737  -22.1172   16.1101 C   0  0  0  0  0  0  0  0  0  0  0  0
  -24.2935  -31.0586   21.0950 C   0  0  0  0  0  0  0  0  0  0  0  0
  -20.0458  -22.3135   18.5060 C   0  0  0  0  0  0  0  0  0  0  0  0
  -22.3333  -31.0632   22.6844 C   0  0  0  0  0  0  0  0  0  0  0  0
  -23.2907  -28.8987   21.9634 C   0  0  0  0  0  0  0  0  0  0  0  0
  -26.6821  -14.5385   21.6573 C   0  0  1  0  0  0  0  0  0  0  0  0
  -27.9166  -17.3241   19.3880 C   0  0  1  0  0  0  0  0  0  0  0  0
  -19.2203  -23.4895   17.9911 C   0  0  2  0  0  0  0  0  0  0  0  0
  -20.9234  -21.9786   17.3032 C   0  0  1  0  0  0  0  0  0  0  0  0
  -24.0025  -29.5803   20.7814 C   0  0  2  0  0  0  0  0  0  0  0  0
  -18.9443  -22.4147   23.5708 C   0  0  0  0  0  0  0  0  0  0  0  0
  -31.8555  -23.9267   18.4423 C   0  0  0  0  0  0  0  0  0  0  0  0
  -29.4153  -19.7868   23.0005 C   0  0  0  0  0  0  0  0  0  0  0  0
  -30.4430  -22.0011   22.4446 C   0  0  0  0  0  0  0  0  0  0  0  0
  -31.6958  -19.8946   21.9797 C   0  0  0  0  0  0  0  0  0  0  0  0
  -29.6923  -22.1801   15.8450 C   0  0  0  0  0  0  0  0  0  0  0  0
  -17.9949  -23.7778   18.8414 C   0  0  0  0  0  0  0  0  0  0  0  0
  -19.1788  -27.2365   22.2710 C   0  0  0  0  0  0  0  0  0  0  0  0
  -20.6393  -27.6751   22.1053 C   0  0  0  0  0  0  0  0  0  0  0  0
  -21.5684  -20.6125   17.3983 C   0  0  0  0  0  0  0  0  0  1  0  0
  -29.7100  -20.4999   20.5366 C   0  0  1  0  0  0  0  0  0  0  0  0
  -31.0949  -22.7617   17.8282 C   0  0  2  0  0  0  0  0  0  0  0  0
  -30.2917  -20.5374   21.9781 C   0  0  0  0  0  0  0  0  0  0  0  0
  -26.4354  -29.1966   20.9101 N   0  0  0  0  0  0  0  0  0  0  0  0
  -25.2589  -28.8345   20.3709 N   0  0  0  0  0  0  0  0  0  0  0  0
  -28.2042  -18.7277   19.6906 N   0  0  0  0  0  0  0  0  0  0  0  0
  -22.0946  -29.6567   22.3560 N   0  0  0  0  0  0  0  0  0  0  0  0
  -24.2654  -27.3097   18.8548 N   0  0  0  0  0  0  0  0  0  0  0  0
  -28.6426  -26.2054   18.7251 N   0  0  0  0  0  0  0  0  0  0  0  0
  -27.1650  -15.3407   20.5538 N   0  0  0  0  0  0  0  0  0  0  0  0
  -30.5330  -21.1798   19.5423 N   0  0  0  0  0  0  0  0  0  0  0  0
  -30.4552  -23.2309   16.5666 N   0  3  0  0  0  0  0  0  0  0  0  0
  -26.5711  -25.7086   17.8763 O   0  0  0  0  0  0  0  0  0  0  0  0
  -27.2808  -17.3860   21.6611 O   0  0  0  0  0  0  0  0  0  0  0  0
  -19.8223  -29.7782   22.8271 O   0  0  0  0  0  0  0  0  0  0  0  0
  -30.4907  -18.3422   19.9356 O   0  0  0  0  0  0  0  0  0  0  0  0
  -28.9078  -22.6827   18.8516 O   0  0  0  0  0  0  0  0  0  0  0  0
  -32.7383  -28.6310   21.6196 O   0  0  0  0  0  0  0  0  0  0  0  0
  -22.4382  -20.5869   18.5294 O   0  0  0  0  0  0  0  0  0  1  0  0
  -36.3623  -28.3891   17.4708 F   0  0  0  0  0  0  0  0  0  0  0  0
  -32.8412  -26.4278   19.9528 F   0  0  0  0  0  0  0  0  0  0  0  0
  1  2  1  0  0  0  0
  1  5  2  0  0  0  0
  2  6  2  0  0  0  0
  3  8  2  0  0  0  0
  3 18  1  0  0  0  0
  4  9  1  0  0  0  0
  4 18  2  0  0  0  0
  5 20  1  0  0  0  0
  6 22  1  0  0  0  0
  7 10  2  0  0  0  0
  7 21  1  0  0  0  0
  8 27  1  0  0  0  0
  9 27  2  0  0  0  0
 10 28  1  0  0  0  0
 11 12  2  0  0  0  0
 11 29  1  0  0  0  0
 12 30  1  0  0  0  0
 13 23  1  0  0  0  0
 13 28  2  0  0  0  0
 14 24  2  0  0  0  0
 14 25  1  0  0  0  0
 15 24  1  0  0  0  0
 15 26  2  0  0  0  0
 16 25  2  0  0  0  0
 16 26  1  0  0  0  0
 17 30  2  0  0  0  0
 17 31  1  0  0  0  0
 18 32  1  0  0  0  0
 19 32  1  0  0  0  0
 19 33  2  0  0  0  0
 19 34  1  0  0  0  0
 20 22  2  0  0  0  0
 20 39  1  0  0  0  0
 21 23  2  0  0  0  0
 21 40  1  0  0  0  0
 22 51  1  0  0  0  0
 23 41  1  0  0  0  0
 24 56  1  0  0  0  0
 25 62  1  0  0  0  0
 26 63  1  0  0  0  0
 27 83  1  0  0  0  0
 28 84  1  0  0  0  0
 29 31  2  0  0  0  0
 29 83  1  0  0  0  0
 30 85  1  0  0  0  0
 31 86  1  0  0  0  0
 32 69  2  0  0  0  0
 33 70  1  0  0  0  0
 33 73  1  0  0  0  0
 34 74  1  0  0  0  0
 34 78  2  0  0  0  0
 35 52  1  0  0  0  0
 35 75  1  0  0  0  0
 35 79  2  0  0  0  0
 36 64  1  0  0  0  0
 36 72  1  0  0  0  0
 36 80  2  0  0  0  0
 37 66  1  0  0  0  0
 37 71  1  0  0  0  0
 37 81  2  0  0  0  0
 38 67  1  0  0  0  0
 38 76  1  0  0  0  0
 38 82  2  0  0  0  0
 39 42  1  0  0  0  0
 40 52  1  0  0  0  0
 41 71  1  0  0  0  0
 42 44  1  0  0  0  0
 43 47  1  0  0  0  0
 43 49  1  0  0  0  0
 44 51  1  0  0  0  0
 45 46  1  0  0  0  0
 45 53  1  0  0  0  0
 46 54  1  0  0  0  0
 47 55  1  0  0  0  0
 48 53  1  0  0  0  0
 48 54  1  0  0  0  0
 49 72  1  0  0  0  0
 50 55  1  0  0  0  0
 50 72  1  0  0  0  0
 51 75  1  0  0  0  0
 52 71  1  0  0  0  0
 53 62  1  0  0  0  0
 54 65  1  0  0  0  0
 55 70  1  0  0  0  0
 57 67  1  0  0  0  0
 58 68  1  0  0  0  0
 59 68  1  0  0  0  0
 60 68  1  0  0  0  0
 61 77  1  0  0  0  0
 63 64  1  0  0  0  0
 65 84  1  0  0  0  0
 66 68  1  0  0  0  0
 66 76  1  0  0  0  0
 67 77  1  0  0  0  0
 69 70  1  0  0  0  0
M  CHG  1  77   1
M  ISO  4  36 100  64 100  65 101  84 101
M  END
> <Batch ID>
0133

> <Smiles>
CNC(C)C(=O)NC(C(=O)N1Cc2cc([101O:1][101CH2:1]C3CCC(Cc4cc(C)cc(C[100CH2:0][100C:0](=O)N5CCCC(n6nc(-c7ccc(Oc8ccc(F)cc8F)cc7)c(C(N)=O)c6N)C5)c4)C3)ccc2CC1C(=O)NC1CCCc2ccccc21)C(C)(C)C

> <Shape>
0.232

> <Color>
0.069

> <Negative vol penalty>
0.000

$$$$

  -OEChem-04052302303D

 83 92  0     1  0  0  0  0  0999 V2000
  -16.5729  -28.8972   23.8900 C   0  0  0  0  0  0  0  0  0  0  0  0
  -17.1743  -28.2860   22.7945 C   0  0  0  0  0  0  0  0  0  0  0  0
  -24.2359  -11.7167   20.3703 C   0  0  0  0  0  0  0  0  0  0  0  0
  -24.9764  -12.4794   22.5399 C   0  0  0  0  0  0  0  0  0  0  0  0
  -17.1721  -30.0076   24.4833 C   0  0  0  0  0  0  0  0  0  0  0  0
  -18.3749  -28.7855   22.2910 C   0  0  0  0  0  0  0  0  0  0  0  0
  -21.7308  -25.1290   21.2848 C   0  0  0  0  0  0  0  0  0  0  0  0
  -25.3313  -20.3387   17.4646 C   0  0  0  0  0  0  0  0  0  0  0  0
  -26.4734  -20.1369   18.2424 C   0  0  0  0  0  0  0  0  0  0  0  0
  -24.1657  -10.4102   20.8535 C   0  0  0  0  0  0  0  0  0  0  0  0
  -24.9062  -11.1728   23.0231 C   0  0  0  0  0  0  0  0  0  0  0  0
  -21.5479  -24.4030   20.1087 C   0  0  0  0  0  0  0  0  0  0  0  0
  -22.0465   -8.5576   22.7269 C   0  0  0  0  0  0  0  0  0  0  0  0
  -20.9152   -7.8076   22.4059 C   0  0  0  0  0  0  0  0  0  0  0  0
  -24.3762  -21.6818   19.2170 C   0  0  0  0  0  0  0  0  0  0  0  0
  -23.2380  -25.7416   19.0267 C   0  0  0  0  0  0  0  0  0  0  0  0
  -22.3106   -6.1783   21.2944 C   0  0  0  0  0  0  0  0  0  0  0  0
  -24.6412  -12.7514   21.2135 C   0  0  0  0  0  0  0  0  0  0  0  0
  -23.6910  -15.0677   20.7245 C   0  0  0  0  0  0  0  0  0  0  0  0
  -18.3855  -30.5151   23.9928 C   0  0  0  0  0  0  0  0  0  0  0  0
  -22.6625  -26.1756   21.3376 C   0  0  0  0  0  0  0  0  0  0  0  0
  -18.9902  -29.9046   22.8774 C   0  0  0  0  0  0  0  0  0  0  0  0
  -25.5155  -21.4800   20.0141 C   0  0  0  0  0  0  0  0  0  0  0  0
  -23.4327  -26.4777   20.2054 C   0  0  0  0  0  0  0  0  0  0  0  0
  -24.2803  -21.1049   17.9536 C   0  0  0  0  0  0  0  0  0  0  0  0
  -26.5754  -20.6822   19.5329 C   0  0  0  0  0  0  0  0  0  0  0  0
  -24.5009  -10.1382   22.1799 C   0  0  0  0  0  0  0  0  0  0  0  0
  -22.2995  -24.7111   18.9785 C   0  0  0  0  0  0  0  0  0  0  0  0
  -23.3100   -8.1180   22.3317 C   0  0  0  0  0  0  0  0  0  0  0  0
  -21.0472   -6.6179   21.6897 C   0  0  0  0  0  0  0  0  0  0  0  0
  -23.4420   -6.9284   21.6154 C   0  0  0  0  0  0  0  0  0  0  0  0
  -24.7144  -14.1012   20.7147 C   0  0  0  0  0  0  0  0  0  0  0  0
  -24.2586  -16.1748   20.1425 C   0  0  0  0  0  0  0  0  0  0  0  0
  -22.3473  -14.9733   21.2158 C   0  0  0  0  0  0  0  0  0  0  0  0
  -22.4921  -29.3061   21.8617 C   0  0  0  0  0  0  0  0  0  0  0  0
  -25.7284  -29.1022   21.7769 C   0  0  0  0  0  0  0  0  0  0  0  0
  -28.4982  -27.4152   20.7145 C   0  0  0  0  0  0  0  0  0  0  0  0
  -28.7911  -19.6025   20.0228 C   0  0  0  0  0  0  0  0  0  0  0  0
  -18.9711  -31.7462   24.6378 C   0  0  0  0  0  0  0  0  0  0  0  0
  -22.8669  -26.9317   22.6217 C   0  0  0  0  0  0  0  0  0  0  0  0
  -25.5847  -22.1828   21.3467 C   0  0  0  0  0  0  0  0  0  0  0  0
  -24.4604  -27.5786   20.2161 C   0  0  0  0  0  0  0  0  0  0  0  0
  -20.4350  -31.9852   24.2768 C   0  0  0  0  0  0  0  0  0  0  0  0
  -26.6800  -21.6243   22.2425 C   0  0  0  0  0  0  0  0  0  0  0  0
  -28.6026  -16.7665   17.6470 C   0  0  0  0  0  0  0  0  0  0  0  0
  -20.6474  -31.8252   22.7748 C   0  0  0  0  0  0  0  0  0  0  0  0
  -27.5515  -15.8609   18.2855 C   0  0  0  0  0  0  0  0  0  0  0  0
  -27.9561  -21.4239   21.4439 C   0  0  0  0  0  0  0  0  0  0  0  0
  -29.3453  -17.5946   18.6909 C   0  0  0  0  0  0  0  0  0  0  0  0
  -27.3826  -17.4980   20.2028 C   0  0  0  0  0  0  0  0  0  0  0  0
  -20.3053  -30.4020   22.3178 C   0  0  1  0  0  0  0  0  0  0  0  0
  -23.4776  -28.3136   22.4107 C   0  0  1  0  0  0  0  0  0  0  0  0
  -26.5955  -16.6796   19.1682 C   0  0  2  0  0  0  0  0  0  0  0  0
  -30.9300  -26.8367   20.4937 C   0  0  0  0  0  0  0  0  0  0  0  0
  -25.6866  -31.3016   19.6624 C   0  0  0  0  0  0  0  0  0  0  0  0
  -28.0455  -30.6940   19.0840 C   0  0  0  0  0  0  0  0  0  0  0  0
  -27.4996  -31.5303   21.3699 C   0  0  0  0  0  0  0  0  0  0  0  0
  -28.4175  -25.6644   23.0992 C   0  0  0  0  0  0  0  0  0  0  0  0
  -23.0630  -21.3232   17.1212 C   0  0  0  0  0  0  0  0  0  0  0  0
  -23.1363  -22.5540   16.2033 C   0  0  0  0  0  0  0  0  0  0  0  0
  -23.2526  -23.8662   16.9701 C   0  0  0  0  0  0  0  0  0  1  0  0
  -26.7780  -29.2026   20.6965 C   0  0  1  0  0  0  0  0  0  0  0  0
  -29.7536  -26.9773   21.4470 C   0  0  2  0  0  0  0  0  0  0  0  0
  -26.9817  -30.6626   20.2021 C   0  0  0  0  0  0  0  0  0  0  0  0
  -25.8465  -14.5544   20.1696 N   0  0  0  0  0  0  0  0  0  0  0  0
  -25.5377  -15.8178   19.8313 N   0  0  0  0  0  0  0  0  0  0  0  0
  -27.7436  -20.4793   20.3469 N   0  0  0  0  0  0  0  0  0  0  0  0
  -24.6189  -28.2932   21.4935 N   0  0  0  0  0  0  0  0  0  0  0  0
  -28.4240  -18.3210   19.5659 N   0  0  0  0  0  0  0  0  0  0  0  0
  -23.7835  -17.4090   19.8716 N   0  0  0  0  0  0  0  0  0  0  0  0
  -21.9271  -13.7629   21.7838 N   0  0  0  0  0  0  0  0  0  0  0  0
  -21.3773  -29.4908   22.6570 N   0  0  0  0  0  0  0  0  0  0  0  0
  -27.9819  -28.5816   21.2381 N   0  0  0  0  0  0  0  0  0  0  0  0
  -29.5315  -25.6645   22.1163 N   0  3  0  0  0  0  0  0  0  0  0  0
  -21.5381  -15.9286   21.1380 O   0  0  0  0  0  0  0  0  0  0  0  0
  -22.7265  -29.8642   20.7962 O   0  0  0  0  0  0  0  0  0  0  0  0
  -25.8905  -29.7133   22.8362 O   0  0  0  0  0  0  0  0  0  0  0  0
  -28.0251  -26.7875   19.7696 O   0  0  0  0  0  0  0  0  0  0  0  0
  -29.9727  -19.9245   20.1979 O   0  0  0  0  0  0  0  0  0  0  0  0
  -24.4323   -8.8634   22.6518 O   0  0  0  0  0  0  0  0  0  0  0  0
  -22.1213  -23.9995   17.8210 O   0  0  0  0  0  0  0  0  0  1  0  0
  -19.9608   -5.8970   21.3828 F   0  0  0  0  0  0  0  0  0  0  0  0
  -24.6533   -6.5004   21.2340 F   0  0  0  0  0  0  0  0  0  0  0  0
  1  2  1  0  0  0  0
  1  5  2  0  0  0  0
  2  6  2  0  0  0  0
  3 10  2  0  0  0  0
  3 18  1  0  0  0  0
  4 11  1  0  0  0  0
  4 18  2  0  0  0  0
  5 20  1  0  0  0  0
  6 22  1  0  0  0  0
  7 12  2  0  0  0  0
  7 21  1  0  0  0  0
  8  9  2  0  0  0  0
  8 25  1  0  0  0  0
  9 26  1  0  0  0  0
 10 27  1  0  0  0  0
 11 27  2  0  0  0  0
 12 28  1  0  0  0  0
 13 14  2  0  0  0  0
 13 29  1  0  0  0  0
 14 30  1  0  0  0  0
 15 23  1  0  0  0  0
 15 25  2  0  0  0  0
 16 24  1  0  0  0  0
 16 28  2  0  0  0  0
 17 30  2  0  0  0  0
 17 31  1  0  0  0  0
 18 32  1  0  0  0  0
 19 32  1  0  0  0  0
 19 33  2  0  0  0  0
 19 34  1  0  0  0  0
 20 22  2  0  0  0  0
 20 39  1  0  0  0  0
 21 24  2  0  0  0  0
 21 40  1  0  0  0  0
 22 51  1  0  0  0  0
 23 26  2  0  0  0  0
 23 41  1  0  0  0  0
 24 42  1  0  0  0  0
 25 59  1  0  0  0  0
 26 67  1  0  0  0  0
 27 80  1  0  0  0  0
 28 81  1  0  0  0  0
 29 31  2  0  0  0  0
 29 80  1  0  0  0  0
 30 82  1  0  0  0  0
 31 83  1  0  0  0  0
 32 65  2  0  0  0  0
 33 66  1  0  0  0  0
 33 70  1  0  0  0  0
 34 71  1  0  0  0  0
 34 75  2  0  0  0  0
 35 52  1  0  0  0  0
 35 72  1  0  0  0  0
 35 76  2  0  0  0  0
 36 62  1  0  0  0  0
 36 68  1  0  0  0  0
 36 77  2  0  0  0  0
 37 63  1  0  0  0  0
 37 73  1  0  0  0  0
 37 78  2  0  0  0  0
 38 67  1  0  0  0  0
 38 69  1  0  0  0  0
 38 79  2  0  0  0  0
 39 43  1  0  0  0  0
 40 52  1  0  0  0  0
 41 44  1  0  0  0  0
 42 68  1  0  0  0  0
 43 46  1  0  0  0  0
 44 48  1  0  0  0  0
 45 47  1  0  0  0  0
 45 49  1  0  0  0  0
 46 51  1  0  0  0  0
 47 53  1  0  0  0  0
 48 67  1  0  0  0  0
 49 69  1  0  0  0  0
 50 53  1  0  0  0  0
 50 69  1  0  0  0  0
 51 72  1  0  0  0  0
 52 68  1  0  0  0  0
 53 66  1  0  0  0  0
 54 63  1  0  0  0  0
 55 64  1  0  0  0  0
 56 64  1  0  0  0  0
 57 64  1  0  0  0  0
 58 74  1  0  0  0  0
 59 60  1  0  0  0  0
 60 61  1  0  0  0  0
 61 81  1  0  0  0  0
 62 64  1  0  0  0  0
 62 73  1  0  0  0  0
 63 74  1  0  0  0  0
 65 66  1  0  0  0  0
M  CHG  1  74   1
M  ISO  4  38 100  61 101  67 100  81 101
M  END
> <Batch ID>
0133

> <Smiles>
CNC(C)C(=O)NC(C(=O)N1Cc2cc([101O:1][101CH2:1]CCc3ccc4c(c3)CCC[100N:0]4[100C:0](=O)N3CCCC(n4nc(-c5ccc(Oc6ccc(F)cc6F)cc5)c(C(N)=O)c4N)C3)ccc2CC1C(=O)NC1CCCc2ccccc21)C(C)(C)C

> <Shape>
0.263

> <Color>
0.085

> <Negative vol penalty>
0.000

$$$$

  -OEChem-04052302303D

 86 94  0     1  0  0  0  0  0999 V2000
  -29.5871  -34.7232   25.2166 C   0  0  0  0  0  0  0  0  0  0  0  0
  -29.5643  -33.4603   24.6336 C   0  0  0  0  0  0  0  0  0  0  0  0
  -24.5559   -8.3392   21.3968 C   0  0  0  0  0  0  0  0  0  0  0  0
  -23.3918  -10.2401   22.3287 C   0  0  0  0  0  0  0  0  0  0  0  0
  -28.4246  -35.2531   25.7749 C   0  0  0  0  0  0  0  0  0  0  0  0
  -28.3791  -32.7261   24.6094 C   0  0  0  0  0  0  0  0  0  0  0  0
  -27.5143  -30.5808   20.1044 C   0  0  0  0  0  0  0  0  0  0  0  0
  -23.9843   -7.5143   22.3654 C   0  0  0  0  0  0  0  0  0  0  0  0
  -22.8201   -9.4152   23.2973 C   0  0  0  0  0  0  0  0  0  0  0  0
  -28.2295  -29.4227   19.8029 C   0  0  0  0  0  0  0  0  0  0  0  0
  -22.5495   -4.8436   24.3713 C   0  0  0  0  0  0  0  0  0  0  0  0
  -22.0295   -3.6181   23.9547 C   0  0  0  0  0  0  0  0  0  0  0  0
  -26.3075  -28.0895   20.3925 C   0  0  0  0  0  0  0  0  0  0  0  0
  -31.8825  -18.7784   17.1334 C   0  0  0  0  0  0  0  0  0  0  0  0
  -33.2591  -20.5266   18.0747 C   0  0  0  0  0  0  0  0  0  0  0  0
  -31.1490  -19.9627   19.1074 C   0  0  0  0  0  0  0  0  0  0  0  0
  -20.4917   -4.7689   22.4890 C   0  0  0  0  0  0  0  0  0  0  0  0
  -24.2597   -9.7022   21.3784 C   0  0  0  0  0  0  0  0  0  0  0  0
  -24.3299  -10.8601   19.1064 C   0  0  0  0  0  0  0  0  0  0  0  0
  -27.2222  -34.5290   25.7489 C   0  0  0  0  0  0  0  0  0  0  0  0
  -26.1917  -30.5014   20.5634 C   0  0  0  0  0  0  0  0  0  0  0  0
  -27.1997  -33.2462   25.1690 C   0  0  0  0  0  0  0  0  0  0  0  0
  -25.5768  -29.2483   20.6967 C   0  0  0  0  0  0  0  0  0  0  0  0
  -33.0447  -19.5491   17.1029 C   0  0  0  0  0  0  0  0  0  0  0  0
  -30.9346  -18.9852   18.1357 C   0  0  0  0  0  0  0  0  0  0  0  0
  -32.3112  -20.7334   19.0769 C   0  0  0  0  0  0  0  0  0  0  0  0
  -23.1164   -8.0522   23.3157 C   0  0  0  0  0  0  0  0  0  0  0  0
  -27.6271  -28.1766   19.9497 C   0  0  0  0  0  0  0  0  0  0  0  0
  -22.0405   -6.0317   23.8468 C   0  0  0  0  0  0  0  0  0  0  0  0
  -21.0007   -3.5808   23.0135 C   0  0  0  0  0  0  0  0  0  0  0  0
  -21.0117   -5.9943   22.9057 C   0  0  0  0  0  0  0  0  0  0  0  0
  -24.8503  -10.5550   20.3784 C   0  0  0  0  0  0  0  0  0  0  0  0
  -25.2592  -11.7038   18.5486 C   0  0  0  0  0  0  0  0  0  0  0  0
  -23.1151  -10.4204   18.4847 C   0  0  0  0  0  0  0  0  0  0  0  0
  -24.6897  -31.3462   23.2344 C   0  0  0  0  0  0  0  0  0  0  0  0
  -30.2716  -25.7088   20.1947 C   0  0  0  0  0  0  0  0  0  0  0  0
  -28.5292  -16.1057   19.0045 C   0  0  0  0  0  0  0  0  0  0  0  0
  -22.0523  -30.4471   21.5736 C   0  0  0  0  0  0  0  0  0  0  0  0
  -20.7149  -28.5791   19.0499 C   0  0  0  0  0  0  0  0  0  0  0  0
  -26.0024  -35.1236   26.4071 C   0  0  0  0  0  0  0  0  0  0  0  0
  -25.4250  -31.7613   20.8589 C   0  0  0  0  0  0  0  0  0  0  0  0
  -24.1526  -29.1097   21.1666 C   0  0  0  0  0  0  0  0  0  0  0  0
  -24.6989  -34.4371   26.0071 C   0  0  0  0  0  0  0  0  0  0  0  0
  -29.9335  -12.9119   20.0312 C   0  0  0  0  0  0  0  0  0  0  0  0
  -24.8509  -32.9209   26.0763 C   0  0  0  0  0  0  0  0  0  0  0  0
  -28.6787  -12.0460   20.1365 C   0  0  0  0  0  0  0  0  0  0  0  0
  -29.6590  -14.3519   20.4568 C   0  0  0  0  0  0  0  0  0  0  0  0
  -27.2785  -14.1318   19.8172 C   0  0  0  0  0  0  0  0  0  0  0  0
  -25.9276  -32.4294   25.1013 C   0  0  1  0  0  0  0  0  0  0  0  0
  -24.2529  -31.5385   21.8096 C   0  0  1  0  0  0  0  0  0  0  0  0
  -27.5055  -12.6787   19.3678 C   0  0  2  0  0  0  0  0  0  0  0  0
  -34.0580  -19.3273   16.0313 C   0  0  0  0  0  0  0  0  0  0  0  0
  -18.5248  -28.0224   17.9588 C   0  0  0  0  0  0  0  0  0  0  0  0
  -21.3491  -28.6269   23.9194 C   0  0  0  0  0  0  0  0  0  0  0  0
  -19.7423  -27.4296   22.4184 C   0  0  0  0  0  0  0  0  0  0  0  0
  -19.4052  -29.8483   22.9274 C   0  0  0  0  0  0  0  0  0  0  0  0
  -21.6027  -29.6697   16.4458 C   0  0  0  0  0  0  0  0  0  0  0  0
  -29.6919  -18.1612   18.1690 C   0  0  0  0  0  0  0  0  0  0  0  0
  -32.5433  -21.7902   20.1272 C   0  0  0  0  0  0  0  0  0  0  0  0
  -31.7757  -25.6206   20.4026 C   0  0  0  0  0  0  0  0  0  0  0  0
  -29.7370  -27.0841   19.8461 C   0  0  0  0  0  0  0  0  0  1  0  0
  -29.8270  -16.8736   18.9916 C   0  0  0  0  0  0  0  0  0  0  0  0
  -31.9913  -23.1708   19.7528 C   0  0  0  0  0  0  0  0  0  0  0  0
  -32.2626  -24.2346   20.8244 C   0  0  0  0  0  0  0  0  0  0  0  0
  -21.2915  -29.1558   21.3929 C   0  0  1  0  0  0  0  0  0  0  0  0
  -19.7415  -28.9345   17.9406 C   0  0  2  0  0  0  0  0  0  0  0  0
  -20.4745  -28.7673   22.6575 C   0  0  0  0  0  0  0  0  0  0  0  0
  -26.0196  -11.1558   20.6149 N   0  0  0  0  0  0  0  0  0  0  0  0
  -26.2416  -11.8468   19.4838 N   0  0  0  0  0  0  0  0  0  0  0  0
  -23.4467  -30.3705   21.4489 N   0  0  0  0  0  0  0  0  0  0  0  0
  -28.5175  -14.9091   19.7214 N   0  0  0  0  0  0  0  0  0  0  0  0
  -25.3237  -12.3297   17.3543 N   0  0  0  0  0  0  0  0  0  0  0  0
  -22.2747   -9.5550   19.1982 N   0  0  0  0  0  0  0  0  0  0  0  0
  -25.4122  -32.4057   23.7492 N   0  0  0  0  0  0  0  0  0  0  0  0
  -20.4852  -29.3222   20.1885 N   0  0  0  0  0  0  0  0  0  0  0  0
  -20.4031  -28.8091   16.6111 N   0  3  0  0  0  0  0  0  0  0  0  0
  -22.7927  -10.7710   17.3243 O   0  0  0  0  0  0  0  0  0  0  0  0
  -24.3919  -30.3138   23.8236 O   0  0  0  0  0  0  0  0  0  0  0  0
  -29.5264  -24.7392   20.3253 O   0  0  0  0  0  0  0  0  0  0  0  0
  -27.5571  -16.5562   18.3928 O   0  0  0  0  0  0  0  0  0  0  0  0
  -21.4317  -31.4867   21.8095 O   0  0  0  0  0  0  0  0  0  0  0  0
  -21.5891  -27.7249   18.9207 O   0  0  0  0  0  0  0  0  0  0  0  0
  -22.5583   -7.2475   24.2609 O   0  0  0  0  0  0  0  0  0  0  0  0
  -28.3231  -27.0446   19.6567 O   0  0  0  0  0  0  0  0  0  1  0  0
  -20.5026   -2.4039   22.6124 F   0  0  0  0  0  0  0  0  0  0  0  0
  -20.5194   -7.1324   22.3974 F   0  0  0  0  0  0  0  0  0  0  0  0
  1  2  1  0  0  0  0
  1  5  2  0  0  0  0
  2  6  2  0  0  0  0
  3  8  2  0  0  0  0
  3 18  1  0  0  0  0
  4  9  1  0  0  0  0
  4 18  2  0  0  0  0
  5 20  1  0  0  0  0
  6 22  1  0  0  0  0
  7 10  2  0  0  0  0
  7 21  1  0  0  0  0
  8 27  1  0  0  0  0
  9 27  2  0  0  0  0
 10 28  1  0  0  0  0
 11 12  2  0  0  0  0
 11 29  1  0  0  0  0
 12 30  1  0  0  0  0
 13 23  1  0  0  0  0
 13 28  2  0  0  0  0
 14 24  1  0  0  0  0
 14 25  2  0  0  0  0
 15 24  2  0  0  0  0
 15 26  1  0  0  0  0
 16 25  1  0  0  0  0
 16 26  2  0  0  0  0
 17 30  2  0  0  0  0
 17 31  1  0  0  0  0
 18 32  1  0  0  0  0
 19 32  1  0  0  0  0
 19 33  2  0  0  0  0
 19 34  1  0  0  0  0
 20 22  2  0  0  0  0
 20 40  1  0  0  0  0
 21 23  2  0  0  0  0
 21 41  1  0  0  0  0
 22 49  1  0  0  0  0
 23 42  1  0  0  0  0
 24 52  1  0  0  0  0
 25 58  1  0  0  0  0
 26 59  1  0  0  0  0
 27 83  1  0  0  0  0
 28 84  1  0  0  0  0
 29 31  2  0  0  0  0
 29 83  1  0  0  0  0
 30 85  1  0  0  0  0
 31 86  1  0  0  0  0
 32 68  2  0  0  0  0
 33 69  1  0  0  0  0
 33 72  1  0  0  0  0
 34 73  1  0  0  0  0
 34 77  2  0  0  0  0
 35 50  1  0  0  0  0
 35 74  1  0  0  0  0
 35 78  2  0  0  0  0
 36 60  1  0  0  0  0
 36 61  1  0  0  0  0
 36 79  2  0  0  0  0
 37 62  1  0  0  0  0
 37 71  1  0  0  0  0
 37 80  2  0  0  0  0
 38 65  1  0  0  0  0
 38 70  1  0  0  0  0
 38 81  2  0  0  0  0
 39 66  1  0  0  0  0
 39 75  1  0  0  0  0
 39 82  2  0  0  0  0
 40 43  1  0  0  0  0
 41 50  1  0  0  0  0
 42 70  1  0  0  0  0
 43 45  1  0  0  0  0
 44 46  1  0  0  0  0
 44 47  1  0  0  0  0
 45 49  1  0  0  0  0
 46 51  1  0  0  0  0
 47 71  1  0  0  0  0
 48 51  1  0  0  0  0
 48 71  1  0  0  0  0
 49 74  1  0  0  0  0
 50 70  1  0  0  0  0
 51 69  1  0  0  0  0
 53 66  1  0  0  0  0
 54 67  1  0  0  0  0
 55 67  1  0  0  0  0
 56 67  1  0  0  0  0
 57 76  1  0  0  0  0
 58 62  1  0  0  0  0
 59 63  1  0  0  0  0
 60 64  1  0  0  0  0
 61 84  1  0  0  0  0
 63 64  1  0  0  0  0
 65 67  1  0  0  0  0
 65 75  1  0  0  0  0
 66 76  1  0  0  0  0
 68 69  1  0  0  0  0
M  CHG  1  76   1
M  ISO  4  37 100  61 101  62 100  84 101
M  END
> <Batch ID>
0133

> <Smiles>
CNC(C)C(=O)NC(C(=O)N1Cc2cc([101O:1][101CH2:1]C(=O)CCCCc3cc(C)cc(C[100CH2:0][100C:0](=O)N4CCCC(n5nc(-c6ccc(Oc7ccc(F)cc7F)cc6)c(C(N)=O)c5N)C4)c3)ccc2CC1C(=O)NC1CCCc2ccccc21)C(C)(C)C

> <Shape>
0.302

> <Color>
0.084

> <Negative vol penalty>
0.000

$$$$

  -OEChem-04052302303D

 84 92  0     1  0  0  0  0  0999 V2000
  -17.4679  -32.0516   23.1613 C   0  0  0  0  0  0  0  0  0  0  0  0
  -18.6320  -32.2655   22.4300 C   0  0  0  0  0  0  0  0  0  0  0  0
  -23.9237   -9.8530   22.1791 C   0  0  0  0  0  0  0  0  0  0  0  0
  -24.4018   -8.9882   19.9744 C   0  0  0  0  0  0  0  0  0  0  0  0
  -28.2814  -21.8265   20.6842 C   0  0  0  0  0  0  0  0  0  0  0  0
  -17.4318  -31.0556   24.1363 C   0  0  0  0  0  0  0  0  0  0  0  0
  -19.7609  -31.4843   22.6742 C   0  0  0  0  0  0  0  0  0  0  0  0
  -25.4063  -28.6277   19.3148 C   0  0  0  0  0  0  0  0  0  0  0  0
  -28.4535  -23.1432   20.2571 C   0  0  0  0  0  0  0  0  0  0  0  0
  -22.8953   -8.9216   22.3214 C   0  0  0  0  0  0  0  0  0  0  0  0
  -23.3734   -8.0567   20.1167 C   0  0  0  0  0  0  0  0  0  0  0  0
  -26.7956  -28.5606   19.4098 C   0  0  0  0  0  0  0  0  0  0  0  0
  -20.3795   -6.5338   23.4097 C   0  0  0  0  0  0  0  0  0  0  0  0
  -20.2916   -5.8445   24.6191 C   0  0  0  0  0  0  0  0  0  0  0  0
  -26.5922  -26.8163   21.0636 C   0  0  0  0  0  0  0  0  0  0  0  0
  -30.1318  -22.4123   18.6802 C   0  0  0  0  0  0  0  0  0  0  0  0
  -22.5063   -4.9451   24.2675 C   0  0  0  0  0  0  0  0  0  0  0  0
  -24.6770   -9.8864   21.0055 C   0  0  0  0  0  0  0  0  0  0  0  0
  -29.0346  -20.8027   20.1094 C   0  0  0  0  0  0  0  0  0  0  0  0
  -27.0909  -10.6845   21.2149 C   0  0  0  0  0  0  0  0  0  0  0  0
  -18.5578  -30.2553   24.3858 C   0  0  0  0  0  0  0  0  0  0  0  0
  -24.5979  -27.7957   20.1028 C   0  0  0  0  0  0  0  0  0  0  0  0
  -19.7402  -30.4776   23.6544 C   0  0  0  0  0  0  0  0  0  0  0  0
  -25.1929  -26.8729   20.9749 C   0  0  0  0  0  0  0  0  0  0  0  0
  -29.3787  -23.4361   19.2551 C   0  0  0  0  0  0  0  0  0  0  0  0
  -29.9597  -21.0956   19.1074 C   0  0  0  0  0  0  0  0  0  0  0  0
  -22.6201   -8.0234   21.2903 C   0  0  0  0  0  0  0  0  0  0  0  0
  -27.3887  -27.6568   20.2864 C   0  0  0  0  0  0  0  0  0  0  0  0
  -21.5307   -6.4287   22.6291 C   0  0  0  0  0  0  0  0  0  0  0  0
  -21.3550   -5.0502   25.0481 C   0  0  0  0  0  0  0  0  0  0  0  0
  -22.5941   -5.6344   23.0580 C   0  0  0  0  0  0  0  0  0  0  0  0
  -25.7391  -10.8487   20.8576 C   0  0  0  0  0  0  0  0  0  0  0  0
  -27.6831  -11.8762   20.8750 C   0  0  0  0  0  0  0  0  0  0  0  0
  -28.8318  -19.4380   20.5774 C   0  0  0  0  0  0  0  0  0  0  0  0
  -27.6734  -18.7513   20.5038 C   0  0  0  0  0  0  0  0  0  0  0  0
  -27.7521   -9.5556   21.8016 C   0  0  0  0  0  0  0  0  0  0  0  0
  -27.6295  -17.3665   21.0147 C   0  0  0  0  0  0  0  0  0  0  0  0
  -22.4098  -28.2766   22.3576 C   0  0  0  0  0  0  0  0  0  0  0  0
  -22.0233  -25.0646   22.1202 C   0  0  0  0  0  0  0  0  0  0  0  0
  -23.3529  -22.0425   21.2565 C   0  0  0  0  0  0  0  0  0  0  0  0
  -18.4858  -29.2225   25.4825 C   0  0  0  0  0  0  0  0  0  0  0  0
  -23.1012  -27.8617   19.9690 C   0  0  0  0  0  0  0  0  0  0  0  0
  -24.3701  -25.9436   21.8279 C   0  0  0  0  0  0  0  0  0  0  0  0
  -19.6074  -28.1889   25.4204 C   0  0  0  0  0  0  0  0  0  0  0  0
  -25.9641  -15.7682   18.1680 C   0  0  0  0  0  0  0  0  0  0  0  0
  -20.9531  -28.8738   25.2043 C   0  0  0  0  0  0  0  0  0  0  0  0
  -25.8284  -14.3347   18.6742 C   0  0  0  0  0  0  0  0  0  0  0  0
  -25.8312  -16.7884   19.2977 C   0  0  0  0  0  0  0  0  0  0  0  0
  -26.6340  -15.1135   20.9380 C   0  0  0  0  0  0  0  0  0  0  0  0
  -20.9776  -29.6343   23.8730 C   0  0  1  0  0  0  0  0  0  0  0  0
  -22.3676  -27.3261   21.1946 C   0  0  1  0  0  0  0  0  0  0  0  0
  -26.8114  -14.0685   19.8253 C   0  0  1  0  0  0  0  0  0  0  0  0
  -30.7842  -20.0242   18.4692 C   0  0  0  0  0  0  0  0  0  0  0  0
  -22.8112  -19.5927   21.2110 C   0  0  0  0  0  0  0  0  0  0  0  0
  -31.8535  -27.7678   20.0742 C   0  0  0  0  0  0  0  0  0  0  0  0
  -22.4560  -24.9155   25.1369 C   0  0  0  0  0  0  0  0  0  0  0  0
  -22.8510  -22.4557   24.8884 C   0  0  0  0  0  0  0  0  0  0  0  0
  -20.6402  -23.4310   24.2688 C   0  0  0  0  0  0  0  0  0  0  0  0
  -23.6607  -21.9106   18.3160 C   0  0  0  0  0  0  0  0  0  0  0  0
  -29.5640  -24.8594   18.7918 C   0  0  0  0  0  0  0  0  0  0  0  0
  -30.6353  -25.6347   19.5710 C   0  0  0  0  0  0  0  0  0  0  0  0
  -29.4946  -27.9132   19.2115 C   0  0  0  0  0  0  0  0  0  1  0  0
  -22.6435  -23.8610   22.7877 C   0  0  1  0  0  0  0  0  0  0  0  0
  -22.7976  -20.8971   20.4294 C   0  0  2  0  0  0  0  0  0  0  0  0
  -30.8048  -27.1154   19.1644 C   0  0  1  0  0  0  0  0  0  0  0  0
  -22.1634  -23.6845   24.2559 C   0  0  0  0  0  0  0  0  0  0  0  0
  -25.4872  -12.0501   20.3312 N   0  0  0  0  0  0  0  0  0  0  0  0
  -26.6887  -12.6517   20.3553 N   0  0  0  0  0  0  0  0  0  0  0  0
  -26.7398  -16.4791   20.4119 N   0  0  0  0  0  0  0  0  0  0  0  0
  -22.9107  -26.0505   21.6658 N   0  0  0  0  0  0  0  0  0  0  0  0
  -28.9521  -12.3260   20.9730 N   0  0  0  0  0  0  0  0  0  0  0  0
  -26.9944   -8.4115   22.0869 N   0  0  0  0  0  0  0  0  0  0  0  0
  -21.1665  -28.7165   22.7700 N   0  0  0  0  0  0  0  0  0  0  0  0
  -22.3552  -22.7213   21.9237 N   0  0  0  0  0  0  0  0  0  0  0  0
  -23.6070  -20.7119   19.1918 N   0  3  0  0  0  0  0  0  0  0  0  0
  -28.9751   -9.5673   22.0802 O   0  0  0  0  0  0  0  0  0  0  0  0
  -28.3811  -17.0809   21.9486 O   0  0  0  0  0  0  0  0  0  0  0  0
  -23.4902  -28.5866   22.8457 O   0  0  0  0  0  0  0  0  0  0  0  0
  -20.7971  -25.1245   21.9998 O   0  0  0  0  0  0  0  0  0  0  0  0
  -24.5522  -22.3063   21.3087 O   0  0  0  0  0  0  0  0  0  0  0  0
  -21.6168   -7.1142   21.4289 O   0  0  0  0  0  0  0  0  0  0  0  0
  -28.7446  -27.5898   20.3816 O   0  0  0  0  0  0  0  0  0  1  0  0
  -21.2711   -4.3896   26.2103 F   0  0  0  0  0  0  0  0  0  0  0  0
  -23.7031   -5.5305   22.3129 F   0  0  0  0  0  0  0  0  0  0  0  0
  1  2  1  0  0  0  0
  1  6  2  0  0  0  0
  2  7  2  0  0  0  0
  3 10  2  0  0  0  0
  3 18  1  0  0  0  0
  4 11  1  0  0  0  0
  4 18  2  0  0  0  0
  5  9  2  0  0  0  0
  5 19  1  0  0  0  0
  6 21  1  0  0  0  0
  7 23  1  0  0  0  0
  8 12  2  0  0  0  0
  8 22  1  0  0  0  0
  9 25  1  0  0  0  0
 10 27  1  0  0  0  0
 11 27  2  0  0  0  0
 12 28  1  0  0  0  0
 13 14  2  0  0  0  0
 13 29  1  0  0  0  0
 14 30  1  0  0  0  0
 15 24  1  0  0  0  0
 15 28  2  0  0  0  0
 16 25  2  0  0  0  0
 16 26  1  0  0  0  0
 17 30  2  0  0  0  0
 17 31  1  0  0  0  0
 18 32  1  0  0  0  0
 19 26  2  0  0  0  0
 19 34  1  0  0  0  0
 20 32  1  0  0  0  0
 20 33  2  0  0  0  0
 20 36  1  0  0  0  0
 21 23  2  0  0  0  0
 21 41  1  0  0  0  0
 22 24  2  0  0  0  0
 22 42  1  0  0  0  0
 23 50  1  0  0  0  0
 24 43  1  0  0  0  0
 25 60  1  0  0  0  0
 26 53  1  0  0  0  0
 27 81  1  0  0  0  0
 28 82  1  0  0  0  0
 29 31  2  0  0  0  0
 29 81  1  0  0  0  0
 30 83  1  0  0  0  0
 31 84  1  0  0  0  0
 32 67  2  0  0  0  0
 33 68  1  0  0  0  0
 33 71  1  0  0  0  0
 34 35  2  0  0  0  0
 35 37  1  0  0  0  0
 36 72  1  0  0  0  0
 36 76  2  0  0  0  0
 37 69  1  0  0  0  0
 37 77  2  0  0  0  0
 38 51  1  0  0  0  0
 38 73  1  0  0  0  0
 38 78  2  0  0  0  0
 39 63  1  0  0  0  0
 39 70  1  0  0  0  0
 39 79  2  0  0  0  0
 40 64  1  0  0  0  0
 40 74  1  0  0  0  0
 40 80  2  0  0  0  0
 41 44  1  0  0  0  0
 42 51  1  0  0  0  0
 43 70  1  0  0  0  0
 44 46  1  0  0  0  0
 45 47  1  0  0  0  0
 45 48  1  0  0  0  0
 46 50  1  0  0  0  0
 47 52  1  0  0  0  0
 48 69  1  0  0  0  0
 49 52  1  0  0  0  0
 49 69  1  0  0  0  0
 50 73  1  0  0  0  0
 51 70  1  0  0  0  0
 52 68  1  0  0  0  0
 54 64  1  0  0  0  0
 55 65  1  0  0  0  0
 56 66  1  0  0  0  0
 57 66  1  0  0  0  0
 58 66  1  0  0  0  0
 59 75  1  0  0  0  0
 60 61  1  0  0  0  0
 61 65  1  0  0  0  0
 62 65  1  0  0  0  0
 62 82  1  0  0  0  0
 63 66  1  0  0  0  0
 63 74  1  0  0  0  0
 64 75  1  0  0  0  0
 67 68  1  0  0  0  0
M  CHG  1  75   1
M  ISO  4  35 100  37 100  62 101  82 101
M  END
> <Batch ID>
0133

> <Smiles>
CNC(C)C(=O)NC(C(=O)N1Cc2cc([101O:1][101CH2:1]C(C)CCc3ccc(C=[100CH:0][100C:0](=O)N4CCCC(n5nc(-c6ccc(Oc7ccc(F)cc7F)cc6)c(C(N)=O)c5N)C4)c(C)c3)ccc2CC1C(=O)NC1CCCc2ccccc21)C(C)(C)C

> <Shape>
0.272

> <Color>
0.115

> <Negative vol penalty>
0.000

$$$$

  -OEChem-04052302303D

 85 93  0     1  0  0  0  0  0999 V2000
  -23.0681   -7.2811   20.9365 C   0  0  0  0  0  0  0  0  0  0  0  0
  -22.2412   -8.1094   20.1844 C   0  0  0  0  0  0  0  0  0  0  0  0
  -29.3864  -28.7898   19.7202 C   0  0  0  0  0  0  0  0  0  0  0  0
  -27.6916  -27.2201   19.0125 C   0  0  0  0  0  0  0  0  0  0  0  0
  -23.8815   -7.8257   21.9293 C   0  0  0  0  0  0  0  0  0  0  0  0
  -22.2264   -9.4828   20.4256 C   0  0  0  0  0  0  0  0  0  0  0  0
  -21.3985  -15.7380   17.0340 C   0  0  0  0  0  0  0  0  0  0  0  0
  -30.3236  -27.7577   19.7653 C   0  0  0  0  0  0  0  0  0  0  0  0
  -28.6288  -26.1879   19.0575 C   0  0  0  0  0  0  0  0  0  0  0  0
  -20.6532  -16.9138   17.1097 C   0  0  0  0  0  0  0  0  0  0  0  0
  -31.1468  -25.0260   17.1261 C   0  0  0  0  0  0  0  0  0  0  0  0
  -31.1766  -24.1326   16.0555 C   0  0  0  0  0  0  0  0  0  0  0  0
  -22.1595  -17.7528   18.7969 C   0  0  0  0  0  0  0  0  0  0  0  0
  -18.3068  -26.9628   23.1081 C   0  0  0  0  0  0  0  0  0  0  0  0
  -19.6446  -28.8781   23.7236 C   0  0  0  0  0  0  0  0  0  0  0  0
  -30.6906  -22.3089   17.5639 C   0  0  0  0  0  0  0  0  0  0  0  0
  -28.0704  -28.5210   19.3438 C   0  0  0  0  0  0  0  0  0  0  0  0
  -26.7968  -30.4112   18.1981 C   0  0  0  0  0  0  0  0  0  0  0  0
  -23.8838   -9.2076   22.1763 C   0  0  0  0  0  0  0  0  0  0  0  0
  -22.5255  -15.5560   17.8484 C   0  0  0  0  0  0  0  0  0  0  0  0
  -23.0396  -10.0461   21.4236 C   0  0  0  0  0  0  0  0  0  0  0  0
  -22.9188  -16.5749   18.7278 C   0  0  0  0  0  0  0  0  0  0  0  0
  -18.9732  -26.8904   21.8849 C   0  0  0  0  0  0  0  0  0  0  0  0
  -19.9754  -27.8118   21.5811 C   0  0  0  0  0  0  0  0  0  0  0  0
  -20.3111  -28.8057   22.5004 C   0  0  0  0  0  0  0  0  0  0  0  0
  -29.9448  -26.4568   19.4339 C   0  0  0  0  0  0  0  0  0  0  0  0
  -21.0320  -17.9203   17.9932 C   0  0  0  0  0  0  0  0  0  0  0  0
  -30.8891  -24.5610   18.4157 C   0  0  0  0  0  0  0  0  0  0  0  0
  -30.9484  -22.7740   16.2743 C   0  0  0  0  0  0  0  0  0  0  0  0
  -18.6424  -27.9567   24.0274 C   0  0  0  0  0  0  0  0  0  0  0  0
  -30.6609  -23.2024   18.6346 C   0  0  0  0  0  0  0  0  0  0  0  0
  -27.1017  -29.5866   19.2976 C   0  0  0  0  0  0  0  0  0  0  0  0
  -25.8189  -31.2561   18.6633 C   0  0  0  0  0  0  0  0  0  0  0  0
  -27.3482  -30.4133   16.8747 C   0  0  0  0  0  0  0  0  0  0  0  0
  -23.3371  -13.4932   20.1266 C   0  0  0  0  0  0  0  0  0  0  0  0
  -26.1928  -15.0218   19.9516 C   0  0  0  0  0  0  0  0  0  0  0  0
  -27.9218  -17.8447   19.1218 C   0  0  0  0  0  0  0  0  0  0  0  0
  -21.7635  -30.7954   23.0276 C   0  0  0  0  0  0  0  0  0  0  0  0
  -24.7452   -9.7442   23.2920 C   0  0  0  0  0  0  0  0  0  0  0  0
  -23.3343  -14.2928   17.7356 C   0  0  0  0  0  0  0  0  0  0  0  0
  -24.1324  -16.4370   19.6092 C   0  0  0  0  0  0  0  0  0  0  0  0
  -24.9482  -11.2559   23.2316 C   0  0  0  0  0  0  0  0  0  0  0  0
  -24.2563  -33.3158   22.6945 C   0  0  0  0  0  0  0  0  0  0  0  0
  -23.6197  -11.9634   22.9835 C   0  0  0  0  0  0  0  0  0  0  0  0
  -25.2379  -32.7231   21.6809 C   0  0  0  0  0  0  0  0  0  0  0  0
  -23.6895  -32.2467   23.6270 C   0  0  0  0  0  0  0  0  0  0  0  0
  -24.0741  -30.4946   21.9385 C   0  0  0  0  0  0  0  0  0  0  0  0
  -23.0139  -11.5439   21.6387 C   0  0  1  0  0  0  0  0  0  0  0  0
  -24.1658  -14.0025   18.9813 C   0  0  1  0  0  0  0  0  0  0  0  0
  -24.6221  -31.5228   20.9354 C   0  0  2  0  0  0  0  0  0  0  0  0
  -20.6881  -27.7303   20.2674 C   0  0  0  0  0  0  0  0  0  0  0  0
  -30.2387  -18.8089   19.1276 C   0  0  0  0  0  0  0  0  0  0  0  0
  -25.9971  -15.4676   22.9638 C   0  0  0  0  0  0  0  0  0  0  0  0
  -27.7887  -17.2036   22.7529 C   0  0  0  0  0  0  0  0  0  0  0  0
  -28.2747  -14.8326   22.1489 C   0  0  0  0  0  0  0  0  0  0  0  0
  -27.9204  -18.1667   16.1799 C   0  0  0  0  0  0  0  0  0  0  0  0
  -18.5919  -25.8049   20.9101 C   0  0  0  0  0  0  0  0  0  0  0  0
  -19.5627  -24.6186   20.8931 C   0  0  0  0  0  0  0  0  0  0  0  0
  -19.1652  -23.5330   19.8867 C   0  0  0  0  0  0  0  0  0  0  0  0
  -20.1782  -22.3851   19.8839 C   0  0  0  0  0  0  0  0  0  0  0  0
  -19.7929  -21.2407   18.9459 C   0  0  0  0  0  0  0  0  0  0  0  0
  -20.7509  -20.0581   18.9966 C   0  0  0  0  0  0  0  0  0  1  0  0
  -26.8062  -16.2224   20.6310 C   0  0  1  0  0  0  0  0  0  0  0  0
  -29.1970  -18.0467   18.3234 C   0  0  2  0  0  0  0  0  0  0  0  0
  -27.1926  -15.9337   22.1091 C   0  0  0  0  0  0  0  0  0  0  0  0
  -26.3764  -29.8811   20.3798 N   0  0  0  0  0  0  0  0  0  0  0  0
  -25.6060  -30.9002   19.9627 N   0  0  0  0  0  0  0  0  0  0  0  0
  -24.8868  -15.1808   19.4669 N   0  0  0  0  0  0  0  0  0  0  0  0
  -23.1194  -31.1435   22.8507 N   0  0  0  0  0  0  0  0  0  0  0  0
  -25.1290  -32.2612   18.0836 N   0  0  0  0  0  0  0  0  0  0  0  0
  -28.3450  -29.4780   16.5647 N   0  0  0  0  0  0  0  0  0  0  0  0
  -21.3248  -29.7528   22.2120 N   0  0  0  0  0  0  0  0  0  0  0  0
  -23.6817  -12.2236   20.5495 N   0  0  0  0  0  0  0  0  0  0  0  0
  -27.9241  -16.6395   19.7916 N   0  0  0  0  0  0  0  0  0  0  0  0
  -28.9121  -18.8131   17.0774 N   0  3  0  0  0  0  0  0  0  0  0  0
  -26.9799  -31.2313   15.9979 O   0  0  0  0  0  0  0  0  0  0  0  0
  -22.4516  -14.2003   20.5930 O   0  0  0  0  0  0  0  0  0  0  0  0
  -26.8508  -13.9836   19.8483 O   0  0  0  0  0  0  0  0  0  0  0  0
  -27.0160  -18.6749   19.1516 O   0  0  0  0  0  0  0  0  0  0  0  0
  -21.0375  -31.3972   23.8230 O   0  0  0  0  0  0  0  0  0  0  0  0
  -30.8591  -25.4494   19.4775 O   0  0  0  0  0  0  0  0  0  0  0  0
  -20.3059  -19.0687   18.0695 O   0  0  0  0  0  0  0  0  0  1  0  0
  -30.9755  -21.9163   15.2458 F   0  0  0  0  0  0  0  0  0  0  0  0
  -18.0010  -28.0278   25.2012 F   0  0  0  0  0  0  0  0  0  0  0  0
  -30.4116  -22.7499   19.8710 F   0  0  0  0  0  0  0  0  0  0  0  0
  1  2  1  0  0  0  0
  1  5  2  0  0  0  0
  2  6  2  0  0  0  0
  3  8  2  0  0  0  0
  3 17  1  0  0  0  0
  4  9  1  0  0  0  0
  4 17  2  0  0  0  0
  5 19  1  0  0  0  0
  6 21  1  0  0  0  0
  7 10  2  0  0  0  0
  7 20  1  0  0  0  0
  8 26  1  0  0  0  0
  9 26  2  0  0  0  0
 10 27  1  0  0  0  0
 11 12  2  0  0  0  0
 11 28  1  0  0  0  0
 12 29  1  0  0  0  0
 13 22  1  0  0  0  0
 13 27  2  0  0  0  0
 14 23  1  0  0  0  0
 14 30  2  0  0  0  0
 15 25  2  0  0  0  0
 15 30  1  0  0  0  0
 16 29  2  0  0  0  0
 16 31  1  0  0  0  0
 17 32  1  0  0  0  0
 18 32  1  0  0  0  0
 18 33  2  0  0  0  0
 18 34  1  0  0  0  0
 19 21  2  0  0  0  0
 19 39  1  0  0  0  0
 20 22  2  0  0  0  0
 20 40  1  0  0  0  0
 21 48  1  0  0  0  0
 22 41  1  0  0  0  0
 23 24  2  0  0  0  0
 23 57  1  0  0  0  0
 24 25  1  0  0  0  0
 24 51  1  0  0  0  0
 25 72  1  0  0  0  0
 26 81  1  0  0  0  0
 27 82  1  0  0  0  0
 28 31  2  0  0  0  0
 28 81  1  0  0  0  0
 29 83  1  0  0  0  0
 30 84  1  0  0  0  0
 31 85  1  0  0  0  0
 32 66  2  0  0  0  0
 33 67  1  0  0  0  0
 33 70  1  0  0  0  0
 34 71  1  0  0  0  0
 34 76  2  0  0  0  0
 35 49  1  0  0  0  0
 35 73  1  0  0  0  0
 35 77  2  0  0  0  0
 36 63  1  0  0  0  0
 36 68  1  0  0  0  0
 36 78  2  0  0  0  0
 37 64  1  0  0  0  0
 37 74  1  0  0  0  0
 37 79  2  0  0  0  0
 38 69  1  0  0  0  0
 38 72  1  0  0  0  0
 38 80  2  0  0  0  0
 39 42  1  0  0  0  0
 40 49  1  0  0  0  0
 41 68  1  0  0  0  0
 42 44  1  0  0  0  0
 43 45  1  0  0  0  0
 43 46  1  0  0  0  0
 44 48  1  0  0  0  0
 45 50  1  0  0  0  0
 46 69  1  0  0  0  0
 47 50  1  0  0  0  0
 47 69  1  0  0  0  0
 48 73  1  0  0  0  0
 49 68  1  0  0  0  0
 50 67  1  0  0  0  0
 52 64  1  0  0  0  0
 53 65  1  0  0  0  0
 54 65  1  0  0  0  0
 55 65  1  0  0  0  0
 56 75  1  0  0  0  0
 57 58  1  0  0  0  0
 58 59  1  0  0  0  0
 59 60  1  0  0  0  0
 60 61  1  0  0  0  0
 61 62  1  0  0  0  0
 62 82  1  0  0  0  0
 63 65  1  0  0  0  0
 63 74  1  0  0  0  0
 64 75  1  0  0  0  0
 66 67  1  0  0  0  0
M  CHG  1  75   1
M  ISO  4  38 100  62 101  72 100  82 101
M  END
> <Batch ID>
0133

> <Smiles>
CNC(C)C(=O)NC(C(=O)N1Cc2cc([101O:1][101CH2:1]CCCCCc3cc(F)cc([100NH:0][100C:0](=O)N4CCCC(n5nc(-c6ccc(Oc7ccc(F)cc7F)cc6)c(C(N)=O)c5N)C4)c3C)ccc2CC1C(=O)NC1CCCc2ccccc21)C(C)(C)C

> <Shape>
0.257

> <Color>
0.086

> <Negative vol penalty>
0.000

$$$$

  -OEChem-04052302303D

 86 94  0     1  0  0  0  0  0999 V2000
  -18.0922  -28.8301   22.9873 C   0  0  0  0  0  0  0  0  0  0  0  0
  -19.4632  -29.0096   22.8334 C   0  0  0  0  0  0  0  0  0  0  0  0
  -27.2566  -18.1322   20.8587 C   0  0  0  0  0  0  0  0  0  0  0  0
  -29.5215  -17.4318   21.3241 C   0  0  0  0  0  0  0  0  0  0  0  0
  -17.5419  -27.5530   22.8872 C   0  0  0  0  0  0  0  0  0  0  0  0
  -20.2848  -27.9117   22.5804 C   0  0  0  0  0  0  0  0  0  0  0  0
  -25.3183  -27.8067   19.0935 C   0  0  0  0  0  0  0  0  0  0  0  0
  -26.8561  -16.7975   20.7990 C   0  0  0  0  0  0  0  0  0  0  0  0
  -29.1210  -16.0970   21.2644 C   0  0  0  0  0  0  0  0  0  0  0  0
  -26.6757  -27.8786   19.4033 C   0  0  0  0  0  0  0  0  0  0  0  0
  -28.4273  -13.8085   18.8743 C   0  0  0  0  0  0  0  0  0  0  0  0
  -29.2309  -12.9222   18.1572 C   0  0  0  0  0  0  0  0  0  0  0  0
  -26.8092  -25.4706   19.3504 C   0  0  0  0  0  0  0  0  0  0  0  0
  -35.7519  -25.0042   23.8936 C   0  0  0  0  0  0  0  0  0  0  0  0
  -34.2346  -26.8583   24.2048 C   0  0  0  0  0  0  0  0  0  0  0  0
  -29.5723  -11.6124   20.1585 C   0  0  0  0  0  0  0  0  0  0  0  0
  -28.5894  -18.4494   21.1212 C   0  0  0  0  0  0  0  0  0  0  0  0
  -29.0276  -20.6589   22.3185 C   0  0  0  0  0  0  0  0  0  0  0  0
  -18.3560  -26.4402   22.6232 C   0  0  0  0  0  0  0  0  0  0  0  0
  -24.6927  -26.5637   18.9202 C   0  0  0  0  0  0  0  0  0  0  0  0
  -19.7451  -26.6183   22.4780 C   0  0  0  0  0  0  0  0  0  0  0  0
  -25.4444  -25.3857   19.0359 C   0  0  0  0  0  0  0  0  0  0  0  0
  -35.1131  -25.9141   24.7361 C   0  0  0  0  0  0  0  0  0  0  0  0
  -35.5124  -25.0387   22.5199 C   0  0  0  0  0  0  0  0  0  0  0  0
  -34.6339  -25.9830   21.9886 C   0  0  0  0  0  0  0  0  0  0  0  0
  -27.7882  -15.7798   21.0019 C   0  0  0  0  0  0  0  0  0  0  0  0
  -27.4208  -26.7104   19.5347 C   0  0  0  0  0  0  0  0  0  0  0  0
  -28.1963  -13.5969   20.2336 C   0  0  0  0  0  0  0  0  0  0  0  0
  -33.9950  -26.8928   22.8311 C   0  0  0  0  0  0  0  0  0  0  0  0
  -29.8034  -11.8241   18.7993 C   0  0  0  0  0  0  0  0  0  0  0  0
  -28.7687  -12.4988   20.8757 C   0  0  0  0  0  0  0  0  0  0  0  0
  -29.0039  -19.8280   21.1824 C   0  0  0  0  0  0  0  0  0  0  0  0
  -29.4965  -21.8632   21.8534 C   0  0  0  0  0  0  0  0  0  0  0  0
  -28.6589  -20.3681   23.6732 C   0  0  0  0  0  0  0  0  0  0  0  0
  -22.3347  -25.0157   20.3855 C   0  0  0  0  0  0  0  0  0  0  0  0
  -22.7461  -22.8954   17.9652 C   0  0  0  0  0  0  0  0  0  0  0  0
  -24.8086  -21.5783   15.5866 C   0  0  0  0  0  0  0  0  0  0  0  0
  -33.0806  -24.8268   18.7685 C   0  0  0  0  0  0  0  0  0  0  0  0
  -17.7218  -25.0729   22.5707 C   0  0  0  0  0  0  0  0  0  0  0  0
  -23.2336  -26.5040   18.5599 C   0  0  0  0  0  0  0  0  0  0  0  0
  -24.8246  -24.0271   18.8397 C   0  0  0  0  0  0  0  0  0  0  0  0
  -18.6126  -24.0125   21.9286 C   0  0  0  0  0  0  0  0  0  0  0  0
  -30.2069  -23.5155   17.1256 C   0  0  0  0  0  0  0  0  0  0  0  0
  -20.0293  -24.0954   22.4880 C   0  0  0  0  0  0  0  0  0  0  0  0
  -29.6438  -22.5039   18.1254 C   0  0  0  0  0  0  0  0  0  0  0  0
  -31.7338  -23.5336   17.1405 C   0  0  0  0  0  0  0  0  0  0  0  0
  -31.7747  -22.7293   19.4697 C   0  0  0  0  0  0  0  0  0  0  0  0
  -20.6661  -25.4556   22.1779 C   0  0  1  0  0  0  0  0  0  0  0  0
  -22.5854  -25.1686   18.9119 C   0  0  1  0  0  0  0  0  0  0  0  0
  -30.2377  -22.7146   19.5311 C   0  0  2  0  0  0  0  0  0  0  0  0
  -36.2100  -24.0545   21.6391 C   0  0  0  0  0  0  0  0  0  0  0  0
  -34.3989  -24.9597   26.9419 C   0  0  0  0  0  0  0  0  0  0  0  0
  -24.8758  -19.8324   13.7853 C   0  0  0  0  0  0  0  0  0  0  0  0
  -23.0385  -20.7216   20.0864 C   0  0  0  0  0  0  0  0  0  0  0  0
  -24.0267  -19.2372   18.3291 C   0  0  0  0  0  0  0  0  0  0  0  0
  -21.6829  -20.0578   18.0923 C   0  0  0  0  0  0  0  0  0  0  0  0
  -25.2974  -23.6016   13.4827 C   0  0  0  0  0  0  0  0  0  0  0  0
  -35.3705  -25.8778   26.2046 C   0  0  0  0  0  0  0  0  0  0  0  0
  -34.3728  -26.0238   20.5167 C   0  0  0  0  0  0  0  0  0  0  0  0
  -30.3948  -27.4958   21.4489 C   0  0  0  0  0  0  0  0  0  0  0  0
  -30.8783  -28.6490   22.3213 C   0  0  0  0  0  0  0  0  0  0  0  0
  -29.1767  -27.8884   20.6234 C   0  0  0  0  0  0  0  0  0  1  0  0
  -32.0693  -28.2444   23.1785 C   0  0  0  0  0  0  0  0  0  0  0  0
  -23.6008  -21.6695   17.7516 C   0  0  1  0  0  0  0  0  0  0  0  0
  -24.5908  -21.2901   14.1121 C   0  0  2  0  0  0  0  0  0  0  0  0
  -23.0988  -20.4469   18.5705 C   0  0  0  0  0  0  0  0  0  0  0  0
  -29.4241  -20.4517   20.0785 N   0  0  0  0  0  0  0  0  0  0  0  0
  -29.7163  -21.6873   20.5188 N   0  0  0  0  0  0  0  0  0  0  0  0
  -23.3933  -24.0208   18.4948 N   0  0  0  0  0  0  0  0  0  0  0  0
  -32.2330  -23.7388   18.5023 N   0  0  0  0  0  0  0  0  0  0  0  0
  -29.7381  -23.0448   22.4598 N   0  0  0  0  0  0  0  0  0  0  0  0
  -28.1971  -19.0805   23.9782 N   0  0  0  0  0  0  0  0  0  0  0  0
  -21.1106  -25.5035   20.8015 N   0  0  0  0  0  0  0  0  0  0  0  0
  -23.6424  -21.4470   16.3104 N   0  0  0  0  0  0  0  0  0  0  0  0
  -33.5030  -24.9519   20.0863 N   0  0  0  0  0  0  0  0  0  0  0  0
  -25.4866  -22.1422   13.2799 N   0  3  0  0  0  0  0  0  0  0  0  0
  -28.7209  -21.2296   24.5829 O   0  0  0  0  0  0  0  0  0  0  0  0
  -23.1880  -24.4924   21.0924 O   0  0  0  0  0  0  0  0  0  0  0  0
  -21.5499  -22.8582   17.6664 O   0  0  0  0  0  0  0  0  0  0  0  0
  -25.9046  -21.8854   16.0505 O   0  0  0  0  0  0  0  0  0  0  0  0
  -33.4305  -25.6303   17.8974 O   0  0  0  0  0  0  0  0  0  0  0  0
  -27.3976  -14.4773   20.9440 O   0  0  0  0  0  0  0  0  0  0  0  0
  -28.7457  -26.7778   19.8378 O   0  0  0  0  0  0  0  0  0  1  0  0
  -33.1278  -27.8272   22.3272 O   0  0  0  0  0  0  0  0  0  0  0  0
  -30.5738  -10.9722   18.1101 F   0  0  0  0  0  0  0  0  0  0  0  0
  -28.5494  -12.2896   22.1810 F   0  0  0  0  0  0  0  0  0  0  0  0
  1  2  1  0  0  0  0
  1  5  2  0  0  0  0
  2  6  2  0  0  0  0
  3  8  2  0  0  0  0
  3 17  1  0  0  0  0
  4  9  1  0  0  0  0
  4 17  2  0  0  0  0
  5 19  1  0  0  0  0
  6 21  1  0  0  0  0
  7 10  2  0  0  0  0
  7 20  1  0  0  0  0
  8 26  1  0  0  0  0
  9 26  2  0  0  0  0
 10 27  1  0  0  0  0
 11 12  2  0  0  0  0
 11 28  1  0  0  0  0
 12 30  1  0  0  0  0
 13 22  1  0  0  0  0
 13 27  2  0  0  0  0
 14 23  1  0  0  0  0
 14 24  2  0  0  0  0
 15 23  2  0  0  0  0
 15 29  1  0  0  0  0
 16 30  2  0  0  0  0
 16 31  1  0  0  0  0
 17 32  1  0  0  0  0
 18 32  1  0  0  0  0
 18 33  2  0  0  0  0
 18 34  1  0  0  0  0
 19 21  2  0  0  0  0
 19 39  1  0  0  0  0
 20 22  2  0  0  0  0
 20 40  1  0  0  0  0
 21 48  1  0  0  0  0
 22 41  1  0  0  0  0
 23 58  1  0  0  0  0
 24 25  1  0  0  0  0
 24 51  1  0  0  0  0
 25 29  2  0  0  0  0
 25 59  1  0  0  0  0
 26 82  1  0  0  0  0
 27 83  1  0  0  0  0
 28 31  2  0  0  0  0
 28 82  1  0  0  0  0
 29 84  1  0  0  0  0
 30 85  1  0  0  0  0
 31 86  1  0  0  0  0
 32 67  2  0  0  0  0
 33 68  1  0  0  0  0
 33 71  1  0  0  0  0
 34 72  1  0  0  0  0
 34 77  2  0  0  0  0
 35 49  1  0  0  0  0
 35 73  1  0  0  0  0
 35 78  2  0  0  0  0
 36 64  1  0  0  0  0
 36 69  1  0  0  0  0
 36 79  2  0  0  0  0
 37 65  1  0  0  0  0
 37 74  1  0  0  0  0
 37 80  2  0  0  0  0
 38 70  1  0  0  0  0
 38 75  1  0  0  0  0
 38 81  2  0  0  0  0
 39 42  1  0  0  0  0
 40 49  1  0  0  0  0
 41 69  1  0  0  0  0
 42 44  1  0  0  0  0
 43 45  1  0  0  0  0
 43 46  1  0  0  0  0
 44 48  1  0  0  0  0
 45 50  1  0  0  0  0
 46 70  1  0  0  0  0
 47 50  1  0  0  0  0
 47 70  1  0  0  0  0
 48 73  1  0  0  0  0
 49 69  1  0  0  0  0
 50 68  1  0  0  0  0
 52 58  1  0  0  0  0
 53 65  1  0  0  0  0
 54 66  1  0  0  0  0
 55 66  1  0  0  0  0
 56 66  1  0  0  0  0
 57 76  1  0  0  0  0
 59 75  1  0  0  0  0
 60 61  1  0  0  0  0
 60 62  1  0  0  0  0
 61 63  1  0  0  0  0
 62 83  1  0  0  0  0
 63 84  1  0  0  0  0
 64 66  1  0  0  0  0
 64 74  1  0  0  0  0
 65 76  1  0  0  0  0
 67 68  1  0  0  0  0
M  CHG  1  76   1
M  ISO  4  38 100  62 101  75 100  83 101
M  END
> <Batch ID>
0133

> <Smiles>
CCc1cc(C)c(C[100NH:0][100C:0](=O)N2CCCC(n3nc(-c4ccc(Oc5ccc(F)cc5F)cc4)c(C(N)=O)c3N)C2)c(OCCC[101CH2:1][101O:1]c2ccc3c(c2)CN(C(=O)C(NC(=O)C(C)NC)C(C)(C)C)C(C(=O)NC2CCCc4ccccc42)C3)c1

> <Shape>
0.199

> <Color>
0.070

> <Negative vol penalty>
0.000

$$$$

  -OEChem-04052302303D

 84 92  0     1  0  0  0  0  0999 V2000
  -22.4173  -30.2011   22.5006 C   0  0  0  0  0  0  0  0  0  0  0  0
  -23.0629  -29.1968   23.2146 C   0  0  0  0  0  0  0  0  0  0  0  0
  -25.5121  -12.5356   19.0247 C   0  0  0  0  0  0  0  0  0  0  0  0
  -25.7801  -13.9780   20.9442 C   0  0  0  0  0  0  0  0  0  0  0  0
  -21.1328  -29.9857   22.0029 C   0  0  0  0  0  0  0  0  0  0  0  0
  -22.4239  -27.9767   23.4325 C   0  0  0  0  0  0  0  0  0  0  0  0
  -24.5267  -26.0660   19.3787 C   0  0  0  0  0  0  0  0  0  0  0  0
  -31.6441  -23.3280   17.9726 C   0  0  0  0  0  0  0  0  0  0  0  0
  -29.7420  -22.9660   19.4176 C   0  0  0  0  0  0  0  0  0  0  0  0
  -32.1387  -22.0677   18.3080 C   0  0  0  0  0  0  0  0  0  0  0  0
  -30.2366  -21.7056   19.7530 C   0  0  0  0  0  0  0  0  0  0  0  0
  -25.2469  -11.4589   19.8708 C   0  0  0  0  0  0  0  0  0  0  0  0
  -25.5149  -12.9013   21.7903 C   0  0  0  0  0  0  0  0  0  0  0  0
  -25.7308  -26.7678   19.3414 C   0  0  0  0  0  0  0  0  0  0  0  0
  -24.1439   -8.4101   21.5149 C   0  0  0  0  0  0  0  0  0  0  0  0
  -23.0729   -7.5779   21.1893 C   0  0  0  0  0  0  0  0  0  0  0  0
  -26.5245  -25.4947   21.2304 C   0  0  0  0  0  0  0  0  0  0  0  0
  -21.5638   -9.4581   21.3479 C   0  0  0  0  0  0  0  0  0  0  0  0
  -25.7788  -13.7952   19.5614 C   0  0  0  0  0  0  0  0  0  0  0  0
  -25.1208  -15.8094   18.1409 C   0  0  0  0  0  0  0  0  0  0  0  0
  -20.4815  -28.7589   22.2065 C   0  0  0  0  0  0  0  0  0  0  0  0
  -24.3080  -25.0791   20.3507 C   0  0  0  0  0  0  0  0  0  0  0  0
  -21.1289  -27.7451   22.9382 C   0  0  0  0  0  0  0  0  0  0  0  0
  -25.3178  -24.7800   21.2763 C   0  0  0  0  0  0  0  0  0  0  0  0
  -30.4458  -23.7772   18.5275 C   0  0  0  0  0  0  0  0  0  0  0  0
  -31.4350  -21.2565   19.1981 C   0  0  0  0  0  0  0  0  0  0  0  0
  -25.2483  -11.6417   21.2536 C   0  0  0  0  0  0  0  0  0  0  0  0
  -26.7288  -26.4843   20.2691 C   0  0  0  0  0  0  0  0  0  0  0  0
  -23.9249   -9.7663   21.7571 C   0  0  0  0  0  0  0  0  0  0  0  0
  -21.7828   -8.1019   21.1058 C   0  0  0  0  0  0  0  0  0  0  0  0
  -22.6349  -10.2902   21.6736 C   0  0  0  0  0  0  0  0  0  0  0  0
  -26.0534  -14.9077   18.6879 C   0  0  0  0  0  0  0  0  0  0  0  0
  -25.8787  -16.6723   17.3876 C   0  0  0  0  0  0  0  0  0  0  0  0
  -23.6969  -15.8621   18.2995 C   0  0  0  0  0  0  0  0  0  0  0  0
  -22.2333  -24.6927   22.7277 C   0  0  0  0  0  0  0  0  0  0  0  0
  -23.6501  -21.7849   22.9724 C   0  0  0  0  0  0  0  0  0  0  0  0
  -26.3981  -19.8438   22.4007 C   0  0  0  0  0  0  0  0  0  0  0  0
  -31.6200  -18.3513   17.6530 C   0  0  0  0  0  0  0  0  0  0  0  0
  -19.0746  -28.5894   21.6901 C   0  0  0  0  0  0  0  0  0  0  0  0
  -23.0139  -24.3125   20.3608 C   0  0  0  0  0  0  0  0  0  0  0  0
  -25.1404  -23.7157   22.3272 C   0  0  0  0  0  0  0  0  0  0  0  0
  -18.6144  -27.1347   21.6423 C   0  0  0  0  0  0  0  0  0  0  0  0
  -29.9489  -16.8689   14.8805 C   0  0  0  0  0  0  0  0  0  0  0  0
  -18.9623  -26.4217   22.9452 C   0  0  0  0  0  0  0  0  0  0  0  0
  -28.6769  -16.2796   15.4925 C   0  0  0  0  0  0  0  0  0  0  0  0
  -31.1403  -16.7464   15.8280 C   0  0  0  0  0  0  0  0  0  0  0  0
  -29.6470  -16.7126   17.7882 C   0  0  0  0  0  0  0  0  0  0  0  0
  -20.4784  -26.3992   23.1739 C   0  0  1  0  0  0  0  0  0  0  0  0
  -22.7016  -23.6853   21.7160 C   0  0  1  0  0  0  0  0  0  0  0  0
  -28.4057  -16.8632   16.8922 C   0  0  2  0  0  0  0  0  0  0  0  0
  -27.2728  -17.5172   22.7459 C   0  0  0  0  0  0  0  0  0  0  0  0
  -24.1263  -22.4042   25.9219 C   0  0  0  0  0  0  0  0  0  0  0  0
  -25.7908  -20.5347   25.9739 C   0  0  0  0  0  0  0  0  0  0  0  0
  -23.3983  -20.0581   25.4528 C   0  0  0  0  0  0  0  0  0  0  0  0
  -30.3199  -28.1671   17.4901 C   0  0  0  0  0  0  0  0  0  0  0  0
  -30.4115  -28.6328   19.9522 C   0  0  0  0  0  0  0  0  0  0  0  0
  -26.6971  -19.3996   19.4900 C   0  0  0  0  0  0  0  0  0  0  0  0
  -29.9097  -25.1413   18.1651 C   0  0  0  0  0  0  0  0  0  0  0  0
  -31.9637  -19.9083   19.5548 C   0  0  0  0  0  0  0  0  0  0  0  0
  -30.4323  -26.2201   19.1240 C   0  0  0  0  0  0  0  0  0  0  0  0
  -28.3466  -27.6378   18.9622 C   0  0  0  0  0  0  0  0  0  1  0  0
  -24.8314  -21.2318   23.7323 C   0  0  1  0  0  0  0  0  0  0  0  0
  -26.5449  -18.4580   21.7985 C   0  0  2  0  0  0  0  0  0  0  0  0
  -24.5396  -21.0786   25.2518 C   0  0  0  0  0  0  0  0  0  0  0  0
  -29.8929  -27.6585   18.8797 C   0  0  0  0  0  0  0  0  0  0  0  0
  -27.3078  -15.1732   18.3139 N   0  0  0  0  0  0  0  0  0  0  0  0
  -27.1689  -16.2513   17.5237 N   0  0  0  0  0  0  0  0  0  0  0  0
  -23.8552  -22.9981   22.3001 N   0  0  0  0  0  0  0  0  0  0  0  0
  -30.8181  -17.3199   17.1369 N   0  0  0  0  0  0  0  0  0  0  0  0
  -25.5608  -17.7425   16.6287 N   0  0  0  0  0  0  0  0  0  0  0  0
  -23.0785  -14.8991   19.1085 N   0  0  0  0  0  0  0  0  0  0  0  0
  -21.0991  -25.3851   22.3488 N   0  0  0  0  0  0  0  0  0  0  0  0
  -25.1989  -19.9871   23.0659 N   0  0  0  0  0  0  0  0  0  0  0  0
  -31.2414  -18.8427   18.8964 N   0  0  0  0  0  0  0  0  0  0  0  0
  -27.3120  -18.5264   20.5226 N   0  3  0  0  0  0  0  0  0  0  0  0
  -22.9918  -16.7275   17.7271 O   0  0  0  0  0  0  0  0  0  0  0  0
  -22.8542  -24.8305   23.7752 O   0  0  0  0  0  0  0  0  0  0  0  0
  -22.5866  -21.1599   22.9693 O   0  0  0  0  0  0  0  0  0  0  0  0
  -27.2626  -20.7110   22.2950 O   0  0  0  0  0  0  0  0  0  0  0  0
  -32.5975  -18.8045   17.0480 O   0  0  0  0  0  0  0  0  0  0  0  0
  -24.9893  -10.5913   22.0795 O   0  0  0  0  0  0  0  0  0  0  0  0
  -27.9048  -27.1683   20.2352 O   0  0  0  0  0  0  0  0  0  1  0  0
  -20.7547   -7.3030   20.7916 F   0  0  0  0  0  0  0  0  0  0  0  0
  -22.4184  -11.5925   21.9040 F   0  0  0  0  0  0  0  0  0  0  0  0
  1  2  1  0  0  0  0
  1  5  2  0  0  0  0
  2  6  2  0  0  0  0
  3 12  2  0  0  0  0
  3 19  1  0  0  0  0
  4 13  1  0  0  0  0
  4 19  2  0  0  0  0
  5 21  1  0  0  0  0
  6 23  1  0  0  0  0
  7 14  2  0  0  0  0
  7 22  1  0  0  0  0
  8 10  2  0  0  0  0
  8 25  1  0  0  0  0
  9 11  1  0  0  0  0
  9 25  2  0  0  0  0
 10 26  1  0  0  0  0
 11 26  2  0  0  0  0
 12 27  1  0  0  0  0
 13 27  2  0  0  0  0
 14 28  1  0  0  0  0
 15 16  2  0  0  0  0
 15 29  1  0  0  0  0
 16 30  1  0  0  0  0
 17 24  1  0  0  0  0
 17 28  2  0  0  0  0
 18 30  2  0  0  0  0
 18 31  1  0  0  0  0
 19 32  1  0  0  0  0
 20 32  1  0  0  0  0
 20 33  2  0  0  0  0
 20 34  1  0  0  0  0
 21 23  2  0  0  0  0
 21 39  1  0  0  0  0
 22 24  2  0  0  0  0
 22 40  1  0  0  0  0
 23 48  1  0  0  0  0
 24 41  1  0  0  0  0
 25 58  1  0  0  0  0
 26 59  1  0  0  0  0
 27 81  1  0  0  0  0
 28 82  1  0  0  0  0
 29 31  2  0  0  0  0
 29 81  1  0  0  0  0
 30 83  1  0  0  0  0
 31 84  1  0  0  0  0
 32 66  2  0  0  0  0
 33 67  1  0  0  0  0
 33 70  1  0  0  0  0
 34 71  1  0  0  0  0
 34 76  2  0  0  0  0
 35 49  1  0  0  0  0
 35 72  1  0  0  0  0
 35 77  2  0  0  0  0
 36 62  1  0  0  0  0
 36 68  1  0  0  0  0
 36 78  2  0  0  0  0
 37 63  1  0  0  0  0
 37 73  1  0  0  0  0
 37 79  2  0  0  0  0
 38 69  1  0  0  0  0
 38 74  1  0  0  0  0
 38 80  2  0  0  0  0
 39 42  1  0  0  0  0
 40 49  1  0  0  0  0
 41 68  1  0  0  0  0
 42 44  1  0  0  0  0
 43 45  1  0  0  0  0
 43 46  1  0  0  0  0
 44 48  1  0  0  0  0
 45 50  1  0  0  0  0
 46 69  1  0  0  0  0
 47 50  1  0  0  0  0
 47 69  1  0  0  0  0
 48 72  1  0  0  0  0
 49 68  1  0  0  0  0
 50 67  1  0  0  0  0
 51 63  1  0  0  0  0
 52 64  1  0  0  0  0
 53 64  1  0  0  0  0
 54 64  1  0  0  0  0
 55 65  1  0  0  0  0
 56 65  1  0  0  0  0
 57 75  1  0  0  0  0
 58 60  1  0  0  0  0
 59 74  1  0  0  0  0
 60 65  1  0  0  0  0
 61 65  1  0  0  0  0
 61 82  1  0  0  0  0
 62 64  1  0  0  0  0
 62 73  1  0  0  0  0
 63 75  1  0  0  0  0
 66 67  1  0  0  0  0
M  CHG  1  75   1
M  ISO  4  38 100  61 101  74 100  82 101
M  END
> <Batch ID>
0133

> <Smiles>
CNC(C)C(=O)NC(C(=O)N1Cc2cc([101O:1][101CH2:1]C(C)(C)CCc3ccc(C[100NH:0][100C:0](=O)N4CCCC(n5nc(-c6ccc(Oc7ccc(F)cc7F)cc6)c(C(N)=O)c5N)C4)cc3)ccc2CC1C(=O)NC1CCCc2ccccc21)C(C)(C)C

> <Shape>
0.203

> <Color>
0.060

> <Negative vol penalty>
0.000

$$$$

  -OEChem-04052302303D

 85 93  0     1  0  0  0  0  0999 V2000
  -25.5569  -35.1624   17.2542 C   0  0  0  0  0  0  0  0  0  0  0  0
  -26.4454  -34.0973   17.1467 C   0  0  0  0  0  0  0  0  0  0  0  0
  -23.9899   -9.6712   20.0528 C   0  0  0  0  0  0  0  0  0  0  0  0
  -24.6958  -10.0175   22.3373 C   0  0  0  0  0  0  0  0  0  0  0  0
  -24.9362  -35.4306   18.4735 C   0  0  0  0  0  0  0  0  0  0  0  0
  -26.7145  -33.3004   18.2589 C   0  0  0  0  0  0  0  0  0  0  0  0
  -27.8544  -27.2833   18.2876 C   0  0  0  0  0  0  0  0  0  0  0  0
  -27.9438  -21.6039   21.0896 C   0  0  0  0  0  0  0  0  0  0  0  0
  -27.2665  -20.8049   22.0107 C   0  0  0  0  0  0  0  0  0  0  0  0
  -23.6506   -8.3530   20.3574 C   0  0  0  0  0  0  0  0  0  0  0  0
  -24.3564   -8.6993   22.6419 C   0  0  0  0  0  0  0  0  0  0  0  0
  -29.0414  -26.5537   18.3389 C   0  0  0  0  0  0  0  0  0  0  0  0
  -21.5470   -6.9418   23.3049 C   0  0  0  0  0  0  0  0  0  0  0  0
  -20.8359   -6.7130   24.4828 C   0  0  0  0  0  0  0  0  0  0  0  0
  -28.7960  -26.3343   20.7287 C   0  0  0  0  0  0  0  0  0  0  0  0
  -29.1582  -19.6687   20.3039 C   0  0  0  0  0  0  0  0  0  0  0  0
  -22.6256   -5.3047   25.2896 C   0  0  0  0  0  0  0  0  0  0  0  0
  -24.5126  -10.5035   21.0427 C   0  0  0  0  0  0  0  0  0  0  0  0
  -24.0333  -12.9985   20.8136 C   0  0  0  0  0  0  0  0  0  0  0  0
  -25.1905  -34.6308   19.5987 C   0  0  0  0  0  0  0  0  0  0  0  0
  -27.1338  -27.5536   19.4598 C   0  0  0  0  0  0  0  0  0  0  0  0
  -26.0977  -33.5590   19.4948 C   0  0  0  0  0  0  0  0  0  0  0  0
  -27.5989  -27.0653   20.6892 C   0  0  0  0  0  0  0  0  0  0  0  0
  -28.8896  -21.0358   20.2362 C   0  0  0  0  0  0  0  0  0  0  0  0
  -27.5351  -19.4378   22.0785 C   0  0  0  0  0  0  0  0  0  0  0  0
  -28.4810  -18.8697   21.2250 C   0  0  0  0  0  0  0  0  0  0  0  0
  -23.8338   -7.8670   21.6519 C   0  0  0  0  0  0  0  0  0  0  0  0
  -29.5139  -26.0816   19.5600 C   0  0  0  0  0  0  0  0  0  0  0  0
  -22.7974   -6.3521   23.1193 C   0  0  0  0  0  0  0  0  0  0  0  0
  -21.3752   -5.8944   25.4752 C   0  0  0  0  0  0  0  0  0  0  0  0
  -23.3367   -5.5335   24.1117 C   0  0  0  0  0  0  0  0  0  0  0  0
  -24.8639  -11.8651   20.7286 C   0  0  0  0  0  0  0  0  0  0  0  0
  -24.8319  -14.0405   20.4098 C   0  0  0  0  0  0  0  0  0  0  0  0
  -22.6625  -13.1005   21.2212 C   0  0  0  0  0  0  0  0  0  0  0  0
  -26.2820  -30.1943   21.0106 C   0  0  0  0  0  0  0  0  0  0  0  0
  -24.6285  -28.1062   22.8621 C   0  0  0  0  0  0  0  0  0  0  0  0
  -24.2765  -24.9183   24.0283 C   0  0  0  0  0  0  0  0  0  0  0  0
  -29.6797  -16.7781   20.4939 C   0  0  0  0  0  0  0  0  0  0  0  0
  -24.5318  -34.9885   20.9075 C   0  0  0  0  0  0  0  0  0  0  0  0
  -25.8413  -28.3192   19.3840 C   0  0  0  0  0  0  0  0  0  0  0  0
  -26.8520  -27.3110   21.9738 C   0  0  0  0  0  0  0  0  0  0  0  0
  -24.5850  -33.8677   21.9425 C   0  0  0  0  0  0  0  0  0  0  0  0
  -29.4046  -14.0365   18.2389 C   0  0  0  0  0  0  0  0  0  0  0  0
  -25.9884  -33.2743   22.0152 C   0  0  0  0  0  0  0  0  0  0  0  0
  -28.1304  -13.3204   18.6926 C   0  0  0  0  0  0  0  0  0  0  0  0
  -30.1927  -14.5957   19.4221 C   0  0  0  0  0  0  0  0  0  0  0  0
  -28.1470  -14.7336   20.7877 C   0  0  0  0  0  0  0  0  0  0  0  0
  -26.3965  -32.6567   20.6723 C   0  0  1  0  0  0  0  0  0  0  0  0
  -25.4573  -28.9757   20.7065 C   0  0  1  0  0  0  0  0  0  0  0  0
  -27.2863  -14.2097   19.6266 C   0  0  2  0  0  0  0  0  0  0  0  0
  -26.7951  -18.6063   23.0755 C   0  0  0  0  0  0  0  0  0  0  0  0
  -33.0267  -21.2718   17.8106 C   0  0  0  0  0  0  0  0  0  0  0  0
  -22.8551  -23.5258   25.5573 C   0  0  0  0  0  0  0  0  0  0  0  0
  -26.0329  -29.3305   25.2785 C   0  0  0  0  0  0  0  0  0  0  0  0
  -25.3284  -27.3324   26.6126 C   0  0  0  0  0  0  0  0  0  0  0  0
  -23.6049  -28.8389   25.6214 C   0  0  0  0  0  0  0  0  0  0  0  0
  -33.0931  -23.7436   19.5873 C   0  0  0  0  0  0  0  0  0  0  0  0
  -23.4193  -23.1526   21.8132 C   0  0  0  0  0  0  0  0  0  0  0  0
  -29.6220  -21.9013   19.2395 C   0  0  0  0  0  0  0  0  0  0  0  0
  -32.1982  -22.5311   17.5856 C   0  0  0  0  0  0  0  0  0  0  0  0
  -30.9159  -22.4704   19.8386 C   0  0  0  0  0  0  0  0  0  0  0  0
  -31.0087  -24.5899   18.4662 C   0  0  0  0  0  0  0  0  0  1  0  0
  -24.9323  -27.3095   24.1079 C   0  0  1  0  0  0  0  0  0  0  0  0
  -23.0633  -24.0117   24.1314 C   0  0  2  0  0  0  0  0  0  0  0  0
  -24.9900  -28.1997   25.3813 C   0  0  0  0  0  0  0  0  0  0  0  0
  -31.7944  -23.3134   18.8671 C   0  0  1  0  0  0  0  0  0  0  0  0
  -26.0956  -12.1591   20.3040 N   0  0  0  0  0  0  0  0  0  0  0  0
  -26.0449  -13.4892   20.1185 N   0  0  0  0  0  0  0  0  0  0  0  0
  -25.5967  -28.0699   21.8486 N   0  0  0  0  0  0  0  0  0  0  0  0
  -29.3300  -15.4313   20.2600 N   0  0  0  0  0  0  0  0  0  0  0  0
  -24.6079  -15.3653   20.2790 N   0  0  0  0  0  0  0  0  0  0  0  0
  -21.9909  -11.9317   21.6050 N   0  0  0  0  0  0  0  0  0  0  0  0
  -28.7672  -17.4829   21.2781 N   0  0  0  0  0  0  0  0  0  0  0  0
  -25.7635  -31.3673   20.4959 N   0  0  0  0  0  0  0  0  0  0  0  0
  -23.9344  -26.2469   24.1663 N   0  0  0  0  0  0  0  0  0  0  0  0
  -23.2290  -22.8222   23.2490 N   0  3  0  0  0  0  0  0  0  0  0  0
  -22.0464  -14.1931   21.2287 O   0  0  0  0  0  0  0  0  0  0  0  0
  -27.3116  -30.0792   21.6650 O   0  0  0  0  0  0  0  0  0  0  0  0
  -23.5680  -28.7318   22.7880 O   0  0  0  0  0  0  0  0  0  0  0  0
  -25.4143  -24.4904   23.8473 O   0  0  0  0  0  0  0  0  0  0  0  0
  -30.6989  -17.2773   20.0100 O   0  0  0  0  0  0  0  0  0  0  0  0
  -23.5025   -6.5809   21.9496 O   0  0  0  0  0  0  0  0  0  0  0  0
  -30.6725  -25.3698   19.6130 O   0  0  0  0  0  0  0  0  0  1  0  0
  -20.6929   -5.6760   26.6070 F   0  0  0  0  0  0  0  0  0  0  0  0
  -24.5380   -4.9652   23.9395 F   0  0  0  0  0  0  0  0  0  0  0  0
  1  2  1  0  0  0  0
  1  5  2  0  0  0  0
  2  6  2  0  0  0  0
  3 10  2  0  0  0  0
  3 18  1  0  0  0  0
  4 11  1  0  0  0  0
  4 18  2  0  0  0  0
  5 20  1  0  0  0  0
  6 22  1  0  0  0  0
  7 12  2  0  0  0  0
  7 21  1  0  0  0  0
  8  9  2  0  0  0  0
  8 24  1  0  0  0  0
  9 25  1  0  0  0  0
 10 27  1  0  0  0  0
 11 27  2  0  0  0  0
 12 28  1  0  0  0  0
 13 14  2  0  0  0  0
 13 29  1  0  0  0  0
 14 30  1  0  0  0  0
 15 23  1  0  0  0  0
 15 28  2  0  0  0  0
 16 24  2  0  0  0  0
 16 26  1  0  0  0  0
 17 30  2  0  0  0  0
 17 31  1  0  0  0  0
 18 32  1  0  0  0  0
 19 32  1  0  0  0  0
 19 33  2  0  0  0  0
 19 34  1  0  0  0  0
 20 22  2  0  0  0  0
 20 39  1  0  0  0  0
 21 23  2  0  0  0  0
 21 40  1  0  0  0  0
 22 48  1  0  0  0  0
 23 41  1  0  0  0  0
 24 59  1  0  0  0  0
 25 26  2  0  0  0  0
 25 51  1  0  0  0  0
 26 73  1  0  0  0  0
 27 82  1  0  0  0  0
 28 83  1  0  0  0  0
 29 31  2  0  0  0  0
 29 82  1  0  0  0  0
 30 84  1  0  0  0  0
 31 85  1  0  0  0  0
 32 67  2  0  0  0  0
 33 68  1  0  0  0  0
 33 71  1  0  0  0  0
 34 72  1  0  0  0  0
 34 77  2  0  0  0  0
 35 49  1  0  0  0  0
 35 74  1  0  0  0  0
 35 78  2  0  0  0  0
 36 63  1  0  0  0  0
 36 69  1  0  0  0  0
 36 79  2  0  0  0  0
 37 64  1  0  0  0  0
 37 75  1  0  0  0  0
 37 80  2  0  0  0  0
 38 70  1  0  0  0  0
 38 73  1  0  0  0  0
 38 81  2  0  0  0  0
 39 42  1  0  0  0  0
 40 49  1  0  0  0  0
 41 69  1  0  0  0  0
 42 44  1  0  0  0  0
 43 45  1  0  0  0  0
 43 46  1  0  0  0  0
 44 48  1  0  0  0  0
 45 50  1  0  0  0  0
 46 70  1  0  0  0  0
 47 50  1  0  0  0  0
 47 70  1  0  0  0  0
 48 74  1  0  0  0  0
 49 69  1  0  0  0  0
 50 68  1  0  0  0  0
 52 60  1  0  0  0  0
 53 64  1  0  0  0  0
 54 65  1  0  0  0  0
 55 65  1  0  0  0  0
 56 65  1  0  0  0  0
 57 66  1  0  0  0  0
 58 76  1  0  0  0  0
 59 61  1  0  0  0  0
 60 66  1  0  0  0  0
 61 66  1  0  0  0  0
 62 66  1  0  0  0  0
 62 83  1  0  0  0  0
 63 65  1  0  0  0  0
 63 75  1  0  0  0  0
 64 76  1  0  0  0  0
 67 68  1  0  0  0  0
M  CHG  1  76   1
M  ISO  4  38 100  62 101  73 100  83 101
M  END
> <Batch ID>
0133

> <Smiles>
CCC(C)(CCc1ccc(C)c([100NH:0][100C:0](=O)N2CCCC(n3nc(-c4ccc(Oc5ccc(F)cc5F)cc4)c(C(N)=O)c3N)C2)c1)[101CH2:1][101O:1]c1ccc2c(c1)CN(C(=O)C(NC(=O)C(C)NC)C(C)(C)C)C(C(=O)NC1CCCc3ccccc31)C2

> <Shape>
0.276

> <Color>
0.146

> <Negative vol penalty>
0.000

$$$$

  -OEChem-04052302303D

 82 90  0     1  0  0  0  0  0999 V2000
  -17.7526  -31.9865   21.0616 C   0  0  0  0  0  0  0  0  0  0  0  0
  -19.0737  -32.0474   20.6300 C   0  0  0  0  0  0  0  0  0  0  0  0
  -29.2690  -17.7302   21.2443 C   0  0  0  0  0  0  0  0  0  0  0  0
  -31.5666  -18.0681   20.5780 C   0  0  0  0  0  0  0  0  0  0  0  0
  -17.4280  -31.2650   22.2096 C   0  0  0  0  0  0  0  0  0  0  0  0
  -20.0713  -31.3876   21.3468 C   0  0  0  0  0  0  0  0  0  0  0  0
  -25.0654  -28.6767   19.0630 C   0  0  0  0  0  0  0  0  0  0  0  0
  -29.4550  -16.3491   21.1854 C   0  0  0  0  0  0  0  0  0  0  0  0
  -31.7527  -16.6870   20.5192 C   0  0  0  0  0  0  0  0  0  0  0  0
  -26.3893  -29.0971   18.9438 C   0  0  0  0  0  0  0  0  0  0  0  0
  -29.5868  -13.9532   18.8049 C   0  0  0  0  0  0  0  0  0  0  0  0
  -28.5990  -13.1930   18.1787 C   0  0  0  0  0  0  0  0  0  0  0  0
  -26.9307  -27.9545   20.9982 C   0  0  0  0  0  0  0  0  0  0  0  0
  -33.5148  -28.3054   16.7738 C   0  0  0  0  0  0  0  0  0  0  0  0
  -28.2348  -11.9742   20.2327 C   0  0  0  0  0  0  0  0  0  0  0  0
  -30.3248  -18.5898   20.9405 C   0  0  0  0  0  0  0  0  0  0  0  0
  -30.3327  -20.8550   22.1137 C   0  0  0  0  0  0  0  0  0  0  0  0
  -18.4207  -30.5880   22.9354 C   0  0  0  0  0  0  0  0  0  0  0  0
  -24.6611  -27.8999   20.1582 C   0  0  0  0  0  0  0  0  0  0  0  0
  -19.7599  -30.6574   22.5064 C   0  0  0  0  0  0  0  0  0  0  0  0
  -25.6016  -27.5234   21.1276 C   0  0  0  0  0  0  0  0  0  0  0  0
  -33.2199  -27.5102   15.6407 C   0  0  0  0  0  0  0  0  0  0  0  0
  -30.6969  -15.8275   20.8229 C   0  0  0  0  0  0  0  0  0  0  0  0
  -27.3216  -28.7384   19.9130 C   0  0  0  0  0  0  0  0  0  0  0  0
  -29.8986  -13.7238   20.1450 C   0  0  0  0  0  0  0  0  0  0  0  0
  -27.9230  -12.2036   18.8925 C   0  0  0  0  0  0  0  0  0  0  0  0
  -29.2225  -12.7343   20.8589 C   0  0  0  0  0  0  0  0  0  0  0  0
  -30.1330  -20.0165   21.0006 C   0  0  0  0  0  0  0  0  0  0  0  0
  -33.2482  -27.5204   17.8713 C   0  0  0  0  0  0  0  0  0  0  0  0
  -32.7943  -26.2958   16.1267 C   0  0  0  0  0  0  0  0  0  0  0  0
  -30.0166  -22.1116   21.6581 C   0  0  0  0  0  0  0  0  0  0  0  0
  -30.7652  -20.5273   23.4408 C   0  0  0  0  0  0  0  0  0  0  0  0
  -22.5940  -28.2868   22.5417 C   0  0  0  0  0  0  0  0  0  0  0  0
  -23.3712  -25.2067   23.1980 C   0  0  0  0  0  0  0  0  0  0  0  0
  -25.6387  -22.6703   22.9289 C   0  0  0  0  0  0  0  0  0  0  0  0
  -30.0169  -24.5926   16.2087 C   0  0  0  0  0  0  0  0  0  0  0  0
  -18.0285  -29.8600   24.1967 C   0  0  0  0  0  0  0  0  0  0  0  0
  -23.2351  -27.4320   20.2582 C   0  0  0  0  0  0  0  0  0  0  0  0
  -25.2229  -26.6735   22.3120 C   0  0  0  0  0  0  0  0  0  0  0  0
  -19.0897  -28.8792   24.6889 C   0  0  0  0  0  0  0  0  0  0  0  0
  -27.2608  -24.3478   18.4494 C   0  0  0  0  0  0  0  0  0  0  0  0
  -20.4690  -29.5302   24.6679 C   0  0  0  0  0  0  0  0  0  0  0  0
  -27.7024  -23.2857   19.4577 C   0  0  0  0  0  0  0  0  0  0  0  0
  -27.7529  -24.0270   17.0398 C   0  0  0  0  0  0  0  0  0  0  0  0
  -29.6463  -22.7298   17.9375 C   0  0  0  0  0  0  0  0  0  0  0  0
  -20.8666  -29.9345   23.2431 C   0  0  1  0  0  0  0  0  0  0  0  0
  -22.8218  -27.0752   21.6827 C   0  0  1  0  0  0  0  0  0  0  0  0
  -29.2212  -23.0389   19.3833 C   0  0  2  0  0  0  0  0  0  0  0  0
  -33.3441  -27.9085   14.2269 C   0  0  0  0  0  0  0  0  0  0  0  0
  -26.5714  -20.3495   23.1323 C   0  0  0  0  0  0  0  0  0  0  0  0
  -24.0192  -26.1071   26.0404 C   0  0  0  0  0  0  0  0  0  0  0  0
  -25.2536  -23.9535   26.3667 C   0  0  0  0  0  0  0  0  0  0  0  0
  -22.8056  -23.9257   25.8883 C   0  0  0  0  0  0  0  0  0  0  0  0
  -24.5123  -21.8634   20.3137 C   0  0  0  0  0  0  0  0  0  0  0  0
  -33.3479  -27.7559   19.3574 C   0  0  0  0  0  0  0  0  0  0  0  0
  -32.3455  -25.0520   15.4836 C   0  0  0  0  0  0  0  0  0  0  0  0
  -32.0210  -27.5762   20.1032 C   0  0  0  0  0  0  0  0  0  0  0  0
  -30.9060  -28.4748   19.5662 C   0  0  0  0  0  0  0  0  0  0  0  0
  -29.6163  -28.2978   20.3560 C   0  0  0  0  0  0  0  0  0  1  0  0
  -24.4230  -24.5256   24.0400 C   0  0  1  0  0  0  0  0  0  0  0  0
  -25.4799  -21.2160   22.5235 C   0  0  2  0  0  0  0  0  0  0  0  0
  -24.1324  -24.6456   25.5627 C   0  0  0  0  0  0  0  0  0  0  0  0
  -29.7218  -20.6842   19.9193 N   0  0  0  0  0  0  0  0  0  0  0  0
  -29.6604  -21.9554   20.3508 N   0  0  0  0  0  0  0  0  0  0  0  0
  -23.8151  -26.2463   22.3686 N   0  0  0  0  0  0  0  0  0  0  0  0
  -29.2009  -23.8055   17.0380 N   0  0  0  0  0  0  0  0  0  0  0  0
  -30.0113  -23.3238   22.2522 N   0  0  0  0  0  0  0  0  0  0  0  0
  -31.0482  -19.1875   23.7395 N   0  0  0  0  0  0  0  0  0  0  0  0
  -21.3029  -28.7768   22.4923 N   0  0  0  0  0  0  0  0  0  0  0  0
  -24.5084  -23.1525   23.5544 N   0  0  0  0  0  0  0  0  0  0  0  0
  -31.3783  -24.3220   16.2725 N   0  0  0  0  0  0  0  0  0  0  0  0
  -25.5452  -21.0815   21.0408 N   0  3  0  0  0  0  0  0  0  0  0  0
  -30.8812  -21.3944   24.3397 O   0  0  0  0  0  0  0  0  0  0  0  0
  -23.5206  -28.7425   23.2016 O   0  0  0  0  0  0  0  0  0  0  0  0
  -22.2001  -24.8254   23.2682 O   0  0  0  0  0  0  0  0  0  0  0  0
  -26.6642  -23.3131   22.7155 O   0  0  0  0  0  0  0  0  0  0  0  0
  -29.5661  -25.4750   15.4704 O   0  0  0  0  0  0  0  0  0  0  0  0
  -32.8088  -26.2938   17.4855 O   0  0  0  0  0  0  0  0  0  0  0  0
  -30.8789  -14.4798   20.7656 O   0  0  0  0  0  0  0  0  0  0  0  0
  -28.6144  -29.1480   19.7995 O   0  0  0  0  0  0  0  0  0  1  0  0
  -26.9735  -11.4747   18.2914 F   0  0  0  0  0  0  0  0  0  0  0  0
  -29.5169  -12.5102   22.1469 F   0  0  0  0  0  0  0  0  0  0  0  0
  1  2  1  0  0  0  0
  1  5  2  0  0  0  0
  2  6  2  0  0  0  0
  3  8  2  0  0  0  0
  3 16  1  0  0  0  0
  4  9  1  0  0  0  0
  4 16  2  0  0  0  0
  5 18  1  0  0  0  0
  6 20  1  0  0  0  0
  7 10  2  0  0  0  0
  7 19  1  0  0  0  0
  8 23  1  0  0  0  0
  9 23  2  0  0  0  0
 10 24  1  0  0  0  0
 11 12  2  0  0  0  0
 11 25  1  0  0  0  0
 12 26  1  0  0  0  0
 13 21  1  0  0  0  0
 13 24  2  0  0  0  0
 14 22  1  0  0  0  0
 14 29  2  0  0  0  0
 15 26  2  0  0  0  0
 15 27  1  0  0  0  0
 16 28  1  0  0  0  0
 17 28  1  0  0  0  0
 17 31  2  0  0  0  0
 17 32  1  0  0  0  0
 18 20  2  0  0  0  0
 18 37  1  0  0  0  0
 19 21  2  0  0  0  0
 19 38  1  0  0  0  0
 20 46  1  0  0  0  0
 21 39  1  0  0  0  0
 22 30  2  0  0  0  0
 22 49  1  0  0  0  0
 23 79  1  0  0  0  0
 24 80  1  0  0  0  0
 25 27  2  0  0  0  0
 25 79  1  0  0  0  0
 26 81  1  0  0  0  0
 27 82  1  0  0  0  0
 28 63  2  0  0  0  0
 29 55  1  0  0  0  0
 29 78  1  0  0  0  0
 30 56  1  0  0  0  0
 30 78  1  0  0  0  0
 31 64  1  0  0  0  0
 31 67  1  0  0  0  0
 32 68  1  0  0  0  0
 32 73  2  0  0  0  0
 33 47  1  0  0  0  0
 33 69  1  0  0  0  0
 33 74  2  0  0  0  0
 34 60  1  0  0  0  0
 34 65  1  0  0  0  0
 34 75  2  0  0  0  0
 35 61  1  0  0  0  0
 35 70  1  0  0  0  0
 35 76  2  0  0  0  0
 36 66  1  0  0  0  0
 36 71  1  0  0  0  0
 36 77  2  0  0  0  0
 37 40  1  0  0  0  0
 38 47  1  0  0  0  0
 39 65  1  0  0  0  0
 40 42  1  0  0  0  0
 41 43  1  0  0  0  0
 41 44  1  0  0  0  0
 42 46  1  0  0  0  0
 43 48  1  0  0  0  0
 44 66  1  0  0  0  0
 45 48  1  0  0  0  0
 45 66  1  0  0  0  0
 46 69  1  0  0  0  0
 47 65  1  0  0  0  0
 48 64  1  0  0  0  0
 50 61  1  0  0  0  0
 51 62  1  0  0  0  0
 52 62  1  0  0  0  0
 53 62  1  0  0  0  0
 54 72  1  0  0  0  0
 55 57  1  0  0  0  0
 56 71  1  0  0  0  0
 57 58  1  0  0  0  0
 58 59  1  0  0  0  0
 59 80  1  0  0  0  0
 60 62  1  0  0  0  0
 60 70  1  0  0  0  0
 61 72  1  0  0  0  0
 63 64  1  0  0  0  0
M  CHG  1  72   1
M  ISO  4  36 100  59 101  71 100  80 101
M  END
> <Batch ID>
0133

> <Smiles>
CNC(C)C(=O)NC(C(=O)N1Cc2cc([101O:1][101CH2:1]CCCc3cc(C)c(C[100NH:0][100C:0](=O)N4CCCC(n5nc(-c6ccc(Oc7ccc(F)cc7F)cc6)c(C(N)=O)c5N)C4)o3)ccc2CC1C(=O)NC1CCCc2ccccc21)C(C)(C)C

> <Shape>
0.205

> <Color>
0.094

> <Negative vol penalty>
0.000

$$$$

  -OEChem-04052302303D

 87 95  0     1  0  0  0  0  0999 V2000
  -31.7256  -24.0176   28.5177 C   0  0  0  0  0  0  0  0  0  0  0  0
  -31.5005  -24.2653   27.1674 C   0  0  0  0  0  0  0  0  0  0  0  0
  -26.4603  -12.5781   21.6841 C   0  0  0  0  0  0  0  0  0  0  0  0
  -25.8654  -13.7290   19.6448 C   0  0  0  0  0  0  0  0  0  0  0  0
  -30.9138  -23.1158   29.2046 C   0  0  0  0  0  0  0  0  0  0  0  0
  -30.4643  -23.6105   26.5028 C   0  0  0  0  0  0  0  0  0  0  0  0
  -27.7700  -26.7267   23.5574 C   0  0  0  0  0  0  0  0  0  0  0  0
  -31.1027  -26.2068   18.1296 C   0  0  0  0  0  0  0  0  0  0  0  0
  -31.5106  -25.8943   19.4263 C   0  0  0  0  0  0  0  0  0  0  0  0
  -25.2192  -11.9415   21.6869 C   0  0  0  0  0  0  0  0  0  0  0  0
  -24.6243  -13.0923   19.6476 C   0  0  0  0  0  0  0  0  0  0  0  0
  -28.3254  -27.0798   22.3283 C   0  0  0  0  0  0  0  0  0  0  0  0
  -23.7541   -9.3330   20.1114 C   0  0  0  0  0  0  0  0  0  0  0  0
  -23.7282   -7.9644   20.3795 C   0  0  0  0  0  0  0  0  0  0  0  0
  -26.9329  -25.4413   21.2350 C   0  0  0  0  0  0  0  0  0  0  0  0
  -30.2220  -23.9724   17.8680 C   0  0  0  0  0  0  0  0  0  0  0  0
  -22.3221   -8.3677   22.3024 C   0  0  0  0  0  0  0  0  0  0  0  0
  -26.7834  -13.4719   20.6630 C   0  0  0  0  0  0  0  0  0  0  0  0
  -29.2528  -13.6755   20.0564 C   0  0  0  0  0  0  0  0  0  0  0  0
  -29.8610  -22.4568   28.5504 C   0  0  0  0  0  0  0  0  0  0  0  0
  -26.7981  -25.7188   23.6360 C   0  0  0  0  0  0  0  0  0  0  0  0
  -29.6385  -22.6980   27.1812 C   0  0  0  0  0  0  0  0  0  0  0  0
  -26.3649  -25.0789   22.4660 C   0  0  0  0  0  0  0  0  0  0  0  0
  -30.4584  -25.2459   17.3504 C   0  0  0  0  0  0  0  0  0  0  0  0
  -31.2742  -24.6208   19.9439 C   0  0  0  0  0  0  0  0  0  0  0  0
  -24.3012  -12.1986   20.6687 C   0  0  0  0  0  0  0  0  0  0  0  0
  -27.9089  -26.4351   21.1673 C   0  0  0  0  0  0  0  0  0  0  0  0
  -23.0641  -10.2190   20.9389 C   0  0  0  0  0  0  0  0  0  0  0  0
  -30.6299  -23.6598   19.1648 C   0  0  0  0  0  0  0  0  0  0  0  0
  -23.0122   -7.4817   21.4749 C   0  0  0  0  0  0  0  0  0  0  0  0
  -22.3481   -9.7363   22.0344 C   0  0  0  0  0  0  0  0  0  0  0  0
  -28.0650  -14.1302   20.6598 C   0  0  0  0  0  0  0  0  0  0  0  0
  -30.1765  -14.6524   20.3373 C   0  0  0  0  0  0  0  0  0  0  0  0
  -28.0041  -27.6749   17.8166 C   0  0  0  0  0  0  0  0  0  0  0  0
  -29.4992  -12.4771   19.3088 C   0  0  0  0  0  0  0  0  0  0  0  0
  -28.4287  -27.5034   16.5480 C   0  0  0  0  0  0  0  0  0  0  0  0
  -26.6156  -22.8852   25.0646 C   0  0  0  0  0  0  0  0  0  0  0  0
  -29.5760  -20.4919   21.6226 C   0  0  0  0  0  0  0  0  0  0  0  0
  -23.5569  -22.9751   23.9883 C   0  0  0  0  0  0  0  0  0  0  0  0
  -21.3158  -24.2070   21.7285 C   0  0  0  0  0  0  0  0  0  0  0  0
  -29.0400  -21.4550   29.3231 C   0  0  0  0  0  0  0  0  0  0  0  0
  -26.1895  -25.3681   24.9660 C   0  0  0  0  0  0  0  0  0  0  0  0
  -25.3098  -24.0045   22.4939 C   0  0  0  0  0  0  0  0  0  0  0  0
  -27.7276  -21.0845   28.6371 C   0  0  0  0  0  0  0  0  0  0  0  0
  -31.2355  -17.9933   23.5831 C   0  0  0  0  0  0  0  0  0  0  0  0
  -27.9622  -20.7914   27.1586 C   0  0  0  0  0  0  0  0  0  0  0  0
  -30.6969  -16.6788   23.0198 C   0  0  0  0  0  0  0  0  0  0  0  0
  -30.1705  -19.0854   23.5676 C   0  0  0  0  0  0  0  0  0  0  0  0
  -29.0233  -18.0090   21.6579 C   0  0  0  0  0  0  0  0  0  0  0  0
  -28.5088  -22.0259   26.4314 C   0  0  1  0  0  0  0  0  0  0  0  0
  -25.5788  -23.9704   24.9937 C   0  0  1  0  0  0  0  0  0  0  0  0
  -30.0765  -16.8873   21.6270 C   0  0  2  0  0  0  0  0  0  0  0  0
  -31.7191  -24.3037   21.3333 C   0  0  0  0  0  0  0  0  0  0  0  0
  -27.5856  -29.2580   14.9331 C   0  0  0  0  0  0  0  0  0  0  0  0
  -18.8962  -24.0682   21.0775 C   0  0  0  0  0  0  0  0  0  0  0  0
  -24.0611  -20.2538   22.7036 C   0  0  0  0  0  0  0  0  0  0  0  0
  -22.0076  -20.6064   21.3155 C   0  0  0  0  0  0  0  0  0  0  0  0
  -21.8264  -20.4915   23.8008 C   0  0  0  0  0  0  0  0  0  0  0  0
  -20.8931  -27.0915   22.2387 C   0  0  0  0  0  0  0  0  0  0  0  0
  -30.0168  -25.5846   15.9485 C   0  0  0  0  0  0  0  0  0  0  0  0
  -27.6207  -26.6291   18.8146 C   0  0  0  0  0  0  0  0  0  1  0  0
  -28.7788  -28.7189   15.7104 C   0  0  0  0  0  0  0  0  0  0  0  0
  -28.5928  -26.1553   15.8729 C   0  0  0  0  0  0  0  0  0  0  0  0
  -28.9649  -20.5684   20.2462 C   0  0  0  0  0  0  0  0  0  0  0  0
  -29.0284  -21.9942   19.7275 C   0  0  0  0  0  0  0  0  0  0  0  0
  -22.8543  -22.5362   22.7263 C   0  0  1  0  0  0  0  0  0  0  0  0
  -19.9337  -24.8094   21.9063 C   0  0  2  0  0  0  0  0  0  0  0  0
  -22.7086  -20.9908   22.6360 C   0  0  0  0  0  0  0  0  0  0  0  0
  -28.2174  -15.3046   21.2776 N   0  0  0  0  0  0  0  0  0  0  0  0
  -29.5118  -15.5960   21.0639 N   0  0  0  0  0  0  0  0  0  0  0  0
  -24.7496  -23.6926   23.8192 N   0  0  0  0  0  0  0  0  0  0  0  0
  -29.5899  -19.2372   22.2322 N   0  0  0  0  0  0  0  0  0  0  0  0
  -31.4843  -14.7877   20.0312 N   0  0  0  0  0  0  0  0  0  0  0  0
  -28.4389  -11.5816   19.1136 N   0  0  0  0  0  0  0  0  0  0  0  0
  -27.4439  -22.9697   26.1674 N   0  0  0  0  0  0  0  0  0  0  0  0
  -21.5874  -23.2588   22.6920 N   0  0  0  0  0  0  0  0  0  0  0  0
  -19.9345  -26.2399   21.4884 N   0  3  0  0  0  0  0  0  0  0  0  0
  -30.6302  -12.2006   18.8421 O   0  0  0  0  0  0  0  0  0  0  0  0
  -26.6598  -22.0334   24.1848 O   0  0  0  0  0  0  0  0  0  0  0  0
  -30.0296  -21.5171   22.1378 O   0  0  0  0  0  0  0  0  0  0  0  0
  -23.0619  -22.6980   25.0836 O   0  0  0  0  0  0  0  0  0  0  0  0
  -22.0767  -24.5414   20.8231 O   0  0  0  0  0  0  0  0  0  0  0  0
  -23.0901  -11.5774   20.6710 O   0  0  0  0  0  0  0  0  0  0  0  0
  -28.4499  -26.7775   19.9664 O   0  0  0  0  0  0  0  0  0  1  0  0
  -30.3902  -22.4116   19.6554 O   0  0  0  0  0  0  0  0  0  0  0  0
  -22.9861   -6.1673   21.7313 F   0  0  0  0  0  0  0  0  0  0  0  0
  -21.6823  -10.5825   22.8322 F   0  0  0  0  0  0  0  0  0  0  0  0
  1  2  1  0  0  0  0
  1  5  2  0  0  0  0
  2  6  2  0  0  0  0
  3 10  2  0  0  0  0
  3 18  1  0  0  0  0
  4 11  1  0  0  0  0
  4 18  2  0  0  0  0
  5 20  1  0  0  0  0
  6 22  1  0  0  0  0
  7 12  2  0  0  0  0
  7 21  1  0  0  0  0
  8  9  2  0  0  0  0
  8 24  1  0  0  0  0
  9 25  1  0  0  0  0
 10 26  1  0  0  0  0
 11 26  2  0  0  0  0
 12 27  1  0  0  0  0
 13 14  2  0  0  0  0
 13 28  1  0  0  0  0
 14 30  1  0  0  0  0
 15 23  1  0  0  0  0
 15 27  2  0  0  0  0
 16 24  2  0  0  0  0
 16 29  1  0  0  0  0
 17 30  2  0  0  0  0
 17 31  1  0  0  0  0
 18 32  1  0  0  0  0
 19 32  1  0  0  0  0
 19 33  2  0  0  0  0
 19 35  1  0  0  0  0
 20 22  2  0  0  0  0
 20 41  1  0  0  0  0
 21 23  2  0  0  0  0
 21 42  1  0  0  0  0
 22 50  1  0  0  0  0
 23 43  1  0  0  0  0
 24 60  1  0  0  0  0
 25 29  2  0  0  0  0
 25 53  1  0  0  0  0
 26 83  1  0  0  0  0
 27 84  1  0  0  0  0
 28 31  2  0  0  0  0
 28 83  1  0  0  0  0
 29 85  1  0  0  0  0
 30 86  1  0  0  0  0
 31 87  1  0  0  0  0
 32 69  2  0  0  0  0
 33 70  1  0  0  0  0
 33 73  1  0  0  0  0
 34 36  2  0  0  0  0
 34 61  1  0  0  0  0
 35 74  1  0  0  0  0
 35 78  2  0  0  0  0
 36 62  1  0  0  0  0
 36 63  1  0  0  0  0
 37 51  1  0  0  0  0
 37 75  1  0  0  0  0
 37 79  2  0  0  0  0
 38 64  1  0  0  0  0
 38 72  1  0  0  0  0
 38 80  2  0  0  0  0
 39 66  1  0  0  0  0
 39 71  1  0  0  0  0
 39 81  2  0  0  0  0
 40 67  1  0  0  0  0
 40 76  1  0  0  0  0
 40 82  2  0  0  0  0
 41 44  1  0  0  0  0
 42 51  1  0  0  0  0
 43 71  1  0  0  0  0
 44 46  1  0  0  0  0
 45 47  1  0  0  0  0
 45 48  1  0  0  0  0
 46 50  1  0  0  0  0
 47 52  1  0  0  0  0
 48 72  1  0  0  0  0
 49 52  1  0  0  0  0
 49 72  1  0  0  0  0
 50 75  1  0  0  0  0
 51 71  1  0  0  0  0
 52 70  1  0  0  0  0
 54 62  1  0  0  0  0
 55 67  1  0  0  0  0
 56 68  1  0  0  0  0
 57 68  1  0  0  0  0
 58 68  1  0  0  0  0
 59 77  1  0  0  0  0
 60 63  1  0  0  0  0
 61 84  1  0  0  0  0
 64 65  1  0  0  0  0
 65 85  1  0  0  0  0
 66 68  1  0  0  0  0
 66 76  1  0  0  0  0
 67 77  1  0  0  0  0
 69 70  1  0  0  0  0
M  CHG  1  77   1
M  ISO  4  38 100  61 101  64 100  84 101
M  END
> <Batch ID>
0133

> <Smiles>
CCC(=C[101CH2:1][101O:1]c1ccc2c(c1)CN(C(=O)C(NC(=O)C(C)NC)C(C)(C)C)C(C(=O)NC1CCCc3ccccc31)C2)CCc1ccc(C)c(OC[100CH2:0][100C:0](=O)N2CCCC(n3nc(-c4ccc(Oc5ccc(F)cc5F)cc4)c(C(N)=O)c3N)C2)c1

> <Shape>
0.214

> <Color>
0.071

> <Negative vol penalty>
0.000

$$$$

  -OEChem-04052302303D

 86 94  0     1  0  0  0  0  0999 V2000
  -30.9483  -23.0546   17.9409 C   0  0  0  0  0  0  0  0  0  0  0  0
  -29.6782  -23.5017   17.5910 C   0  0  0  0  0  0  0  0  0  0  0  0
  -20.3686  -22.1062   15.6821 C   0  0  0  0  0  0  0  0  0  0  0  0
  -26.4799  -13.0949   21.1935 C   0  0  0  0  0  0  0  0  0  0  0  0
  -24.4210  -13.2337   19.9370 C   0  0  0  0  0  0  0  0  0  0  0  0
  -31.3497  -23.0743   19.2760 C   0  0  0  0  0  0  0  0  0  0  0  0
  -28.8083  -23.9676   18.5761 C   0  0  0  0  0  0  0  0  0  0  0  0
  -24.7071  -28.4829   18.0300 C   0  0  0  0  0  0  0  0  0  0  0  0
  -19.2976  -22.8076   16.2356 C   0  0  0  0  0  0  0  0  0  0  0  0
  -21.6315  -22.1844   16.2692 C   0  0  0  0  0  0  0  0  0  0  0  0
  -25.9834  -11.9902   21.8852 C   0  0  0  0  0  0  0  0  0  0  0  0
  -23.9245  -12.1288   20.6287 C   0  0  0  0  0  0  0  0  0  0  0  0
  -23.3335  -28.4786   17.7916 C   0  0  0  0  0  0  0  0  0  0  0  0
  -22.2540   -9.1235   21.8101 C   0  0  0  0  0  0  0  0  0  0  0  0
  -21.6127   -8.1294   21.0711 C   0  0  0  0  0  0  0  0  0  0  0  0
  -22.9272  -28.6422   20.1638 C   0  0  0  0  0  0  0  0  0  0  0  0
  -20.7522  -23.6654   17.9634 C   0  0  0  0  0  0  0  0  0  0  0  0
  -23.6340   -7.7726   19.7968 C   0  0  0  0  0  0  0  0  0  0  0  0
  -25.6987  -13.7167   20.2194 C   0  0  0  0  0  0  0  0  0  0  0  0
  -26.9437  -14.8503   18.3029 C   0  0  0  0  0  0  0  0  0  0  0  0
  -30.4878  -23.5497   20.2768 C   0  0  0  0  0  0  0  0  0  0  0  0
  -25.2019  -28.5560   19.3401 C   0  0  0  0  0  0  0  0  0  0  0  0
  -29.1981  -23.9924   19.9260 C   0  0  0  0  0  0  0  0  0  0  0  0
  -24.3076  -28.6499   20.4160 C   0  0  0  0  0  0  0  0  0  0  0  0
  -19.4893  -23.5872   17.3762 C   0  0  0  0  0  0  0  0  0  0  0  0
  -24.7057  -11.5071   21.6028 C   0  0  0  0  0  0  0  0  0  0  0  0
  -22.4433  -28.5554   18.8587 C   0  0  0  0  0  0  0  0  0  0  0  0
  -21.8233  -22.9640   17.4098 C   0  0  0  0  0  0  0  0  0  0  0  0
  -23.5853   -9.4423   21.5424 C   0  0  0  0  0  0  0  0  0  0  0  0
  -22.3026   -7.4540   20.0645 C   0  0  0  0  0  0  0  0  0  0  0  0
  -24.2753   -8.7668   20.5357 C   0  0  0  0  0  0  0  0  0  0  0  0
  -26.2109  -14.8584   19.5049 C   0  0  0  0  0  0  0  0  0  0  0  0
  -27.1909  -16.1760   18.0426 C   0  0  0  0  0  0  0  0  0  0  0  0
  -27.3633  -13.7434   17.4940 C   0  0  0  0  0  0  0  0  0  0  0  0
  -26.9691  -26.6594   21.1796 C   0  0  0  0  0  0  0  0  0  0  0  0
  -19.2533  -27.2830   17.7104 C   0  0  0  0  0  0  0  0  0  0  0  0
  -24.2624  -21.0768   19.6802 C   0  0  0  0  0  0  0  0  0  0  0  0
  -26.8581  -29.1819   23.2161 C   0  0  0  0  0  0  0  0  0  0  0  0
  -25.2372  -32.0015   24.2501 C   0  0  0  0  0  0  0  0  0  0  0  0
  -30.9489  -23.5075   21.7122 C   0  0  0  0  0  0  0  0  0  0  0  0
  -26.6866  -28.5866   19.5788 C   0  0  0  0  0  0  0  0  0  0  0  0
  -24.7879  -28.7506   21.8400 C   0  0  0  0  0  0  0  0  0  0  0  0
  -30.1037  -24.3666   22.6490 C   0  0  0  0  0  0  0  0  0  0  0  0
  -27.7897  -20.3813   20.2293 C   0  0  0  0  0  0  0  0  0  0  0  0
  -28.6182  -24.1320   22.3938 C   0  0  0  0  0  0  0  0  0  0  0  0
  -27.8389  -18.8683   20.0206 C   0  0  0  0  0  0  0  0  0  0  0  0
  -26.4831  -20.8146   20.8890 C   0  0  0  0  0  0  0  0  0  0  0  0
  -25.3076  -18.8504   19.9485 C   0  0  0  0  0  0  0  0  0  0  0  0
  -28.2349  -24.5283   20.9629 C   0  0  1  0  0  0  0  0  0  0  0  0
  -27.0746  -28.1459   20.9869 C   0  0  1  0  0  0  0  0  0  0  0  0
  -26.5969  -18.3757   19.2576 C   0  0  2  0  0  0  0  0  0  0  0  0
  -17.2458  -23.3819   18.4824 C   0  0  0  0  0  0  0  0  0  0  0  0
  -25.3657  -33.8318   25.9621 C   0  0  0  0  0  0  0  0  0  0  0  0
  -25.8400  -27.2537   25.3504 C   0  0  0  0  0  0  0  0  0  0  0  0
  -25.0991  -29.2358   26.6885 C   0  0  0  0  0  0  0  0  0  0  0  0
  -27.5175  -28.9201   26.1648 C   0  0  0  0  0  0  0  0  0  0  0  0
  -25.4779  -34.0908   22.1678 C   0  0  0  0  0  0  0  0  0  0  0  0
  -18.6602  -26.4873   16.5591 C   0  0  0  0  0  0  0  0  0  0  0  0
  -20.6428  -27.8423   17.4783 C   0  0  0  0  0  0  0  0  0  1  0  0
  -24.3274  -22.5562   19.9651 C   0  0  0  0  0  0  0  0  0  0  0  0
  -17.7020  -25.3788   17.0043 C   0  0  0  0  0  0  0  0  0  0  0  0
  -23.1038  -23.2501   19.3933 C   0  0  0  0  0  0  0  0  0  0  0  0
  -18.3229  -24.3513   17.9786 C   0  0  2  0  0  0  0  0  0  0  0  0
  -25.9321  -29.6212   24.3244 C   0  0  1  0  0  0  0  0  0  0  0  0
  -25.7431  -33.4002   24.5535 C   0  0  2  0  0  0  0  0  0  0  0  0
  -26.0878  -28.7539   25.6054 C   0  0  0  0  0  0  0  0  0  0  0  0
  -26.0061  -16.0914   19.9757 N   0  0  0  0  0  0  0  0  0  0  0  0
  -26.6139  -16.8705   19.0649 N   0  0  0  0  0  0  0  0  0  0  0  0
  -26.2487  -28.7703   22.0223 N   0  0  0  0  0  0  0  0  0  0  0  0
  -25.3245  -20.3025   20.1476 N   0  0  0  0  0  0  0  0  0  0  0  0
  -27.8434  -16.8038   17.0414 N   0  0  0  0  0  0  0  0  0  0  0  0
  -27.0247  -12.4477   17.9072 N   0  0  0  0  0  0  0  0  0  0  0  0
  -28.1185  -25.9665   20.8508 N   0  0  0  0  0  0  0  0  0  0  0  0
  -26.1876  -31.0427   24.5305 N   0  0  0  0  0  0  0  0  0  0  0  0
  -25.1651  -34.3803   23.5910 N   0  3  0  0  0  0  0  0  0  0  0  0
  -28.0332  -13.8978   16.4448 O   0  0  0  0  0  0  0  0  0  0  0  0
  -25.9228  -26.1771   21.5971 O   0  0  0  0  0  0  0  0  0  0  0  0
  -18.6345  -27.4970   18.7518 O   0  0  0  0  0  0  0  0  0  0  0  0
  -23.2972  -20.6253   19.0584 O   0  0  0  0  0  0  0  0  0  0  0  0
  -28.0775  -29.2099   23.4001 O   0  0  0  0  0  0  0  0  0  0  0  0
  -24.1103  -31.7812   23.8119 O   0  0  0  0  0  0  0  0  0  0  0  0
  -24.2209  -10.4289   22.2774 O   0  0  0  0  0  0  0  0  0  0  0  0
  -21.1020  -28.5507   18.6287 O   0  0  0  0  0  0  0  0  0  1  0  0
  -23.0556  -23.0398   17.9830 O   0  0  0  0  0  0  0  0  0  0  0  0
  -21.6871   -6.4983   19.3560 F   0  0  0  0  0  0  0  0  0  0  0  0
  -25.5548   -9.0678   20.2747 F   0  0  0  0  0  0  0  0  0  0  0  0
  1  2  1  0  0  0  0
  1  6  2  0  0  0  0
  2  7  2  0  0  0  0
  3  9  2  0  0  0  0
  3 10  1  0  0  0  0
  4 11  2  0  0  0  0
  4 19  1  0  0  0  0
  5 12  1  0  0  0  0
  5 19  2  0  0  0  0
  6 21  1  0  0  0  0
  7 23  1  0  0  0  0
  8 13  2  0  0  0  0
  8 22  1  0  0  0  0
  9 25  1  0  0  0  0
 10 28  2  0  0  0  0
 11 26  1  0  0  0  0
 12 26  2  0  0  0  0
 13 27  1  0  0  0  0
 14 15  2  0  0  0  0
 14 29  1  0  0  0  0
 15 30  1  0  0  0  0
 16 24  1  0  0  0  0
 16 27  2  0  0  0  0
 17 25  2  0  0  0  0
 17 28  1  0  0  0  0
 18 30  2  0  0  0  0
 18 31  1  0  0  0  0
 19 32  1  0  0  0  0
 20 32  1  0  0  0  0
 20 33  2  0  0  0  0
 20 34  1  0  0  0  0
 21 23  2  0  0  0  0
 21 40  1  0  0  0  0
 22 24  2  0  0  0  0
 22 41  1  0  0  0  0
 23 49  1  0  0  0  0
 24 42  1  0  0  0  0
 25 63  1  0  0  0  0
 26 82  1  0  0  0  0
 27 83  1  0  0  0  0
 28 84  1  0  0  0  0
 29 31  2  0  0  0  0
 29 82  1  0  0  0  0
 30 85  1  0  0  0  0
 31 86  1  0  0  0  0
 32 67  2  0  0  0  0
 33 68  1  0  0  0  0
 33 71  1  0  0  0  0
 34 72  1  0  0  0  0
 34 76  2  0  0  0  0
 35 50  1  0  0  0  0
 35 73  1  0  0  0  0
 35 77  2  0  0  0  0
 36 58  1  0  0  0  0
 36 59  1  0  0  0  0
 36 78  2  0  0  0  0
 37 60  1  0  0  0  0
 37 70  1  0  0  0  0
 37 79  2  0  0  0  0
 38 64  1  0  0  0  0
 38 69  1  0  0  0  0
 38 80  2  0  0  0  0
 39 65  1  0  0  0  0
 39 74  1  0  0  0  0
 39 81  2  0  0  0  0
 40 43  1  0  0  0  0
 41 50  1  0  0  0  0
 42 69  1  0  0  0  0
 43 45  1  0  0  0  0
 44 46  1  0  0  0  0
 44 47  1  0  0  0  0
 45 49  1  0  0  0  0
 46 51  1  0  0  0  0
 47 70  1  0  0  0  0
 48 51  1  0  0  0  0
 48 70  1  0  0  0  0
 49 73  1  0  0  0  0
 50 69  1  0  0  0  0
 51 68  1  0  0  0  0
 52 63  1  0  0  0  0
 53 65  1  0  0  0  0
 54 66  1  0  0  0  0
 55 66  1  0  0  0  0
 56 66  1  0  0  0  0
 57 75  1  0  0  0  0
 58 61  1  0  0  0  0
 59 83  1  0  0  0  0
 60 62  1  0  0  0  0
 61 63  1  0  0  0  0
 62 84  1  0  0  0  0
 64 66  1  0  0  0  0
 64 74  1  0  0  0  0
 65 75  1  0  0  0  0
 67 68  1  0  0  0  0
M  CHG  1  75   1
M  ISO  4  37 100  59 101  60 100  83 101
M  END
> <Batch ID>
0133

> <Smiles>
CNC(C)C(=O)NC(C(=O)N1Cc2cc([101O:1][101CH2:1]C(=O)CCC(C)c3cccc(OC[100CH2:0][100C:0](=O)N4CCCC(n5nc(-c6ccc(Oc7ccc(F)cc7F)cc6)c(C(N)=O)c5N)C4)c3)ccc2CC1C(=O)NC1CCCc2ccccc21)C(C)(C)C

> <Shape>
0.215

> <Color>
0.063

> <Negative vol penalty>
0.000

$$$$

  -OEChem-04052302303D

 84 92  0     1  0  0  0  0  0999 V2000
  -16.7527  -30.5517   23.3323 C   0  0  0  0  0  0  0  0  0  0  0  0
  -17.9160  -31.0962   23.8668 C   0  0  0  0  0  0  0  0  0  0  0  0
  -25.7652  -14.5989   19.3734 C   0  0  0  0  0  0  0  0  0  0  0  0
  -24.5425  -14.5695   21.4569 C   0  0  0  0  0  0  0  0  0  0  0  0
  -32.5055  -24.5520   21.3892 C   0  0  0  0  0  0  0  0  0  0  0  0
  -16.7776  -29.2794   22.7627 C   0  0  0  0  0  0  0  0  0  0  0  0
  -19.1048  -30.3680   23.8329 C   0  0  0  0  0  0  0  0  0  0  0  0
  -26.1876  -31.2671   23.2480 C   0  0  0  0  0  0  0  0  0  0  0  0
  -33.2473  -25.6792   21.7422 C   0  0  0  0  0  0  0  0  0  0  0  0
  -25.9477  -13.2189   19.4610 C   0  0  0  0  0  0  0  0  0  0  0  0
  -24.7250  -13.1893   21.5445 C   0  0  0  0  0  0  0  0  0  0  0  0
  -27.3744  -30.9170   23.8903 C   0  0  0  0  0  0  0  0  0  0  0  0
  -23.3650  -10.4078   20.1902 C   0  0  0  0  0  0  0  0  0  0  0  0
  -22.2620   -9.6310   20.5445 C   0  0  0  0  0  0  0  0  0  0  0  0
  -27.3159  -28.7609   22.8100 C   0  0  0  0  0  0  0  0  0  0  0  0
  -31.6093  -27.0935   20.6680 C   0  0  0  0  0  0  0  0  0  0  0  0
  -23.4516   -8.8285   22.4882 C   0  0  0  0  0  0  0  0  0  0  0  0
  -25.0626  -15.2743   20.3714 C   0  0  0  0  0  0  0  0  0  0  0  0
  -31.3157  -24.6955   20.6755 C   0  0  0  0  0  0  0  0  0  0  0  0
  -23.8066  -17.3793   19.6651 C   0  0  0  0  0  0  0  0  0  0  0  0
  -17.9694  -28.5392   22.7132 C   0  0  0  0  0  0  0  0  0  0  0  0
  -25.5492  -30.3612   22.3889 C   0  0  0  0  0  0  0  0  0  0  0  0
  -19.1454  -29.0841   23.2633 C   0  0  0  0  0  0  0  0  0  0  0  0
  -26.1224  -29.1030   22.1560 C   0  0  0  0  0  0  0  0  0  0  0  0
  -32.7992  -26.9500   21.3817 C   0  0  0  0  0  0  0  0  0  0  0  0
  -30.8676  -25.9663   20.3149 C   0  0  0  0  0  0  0  0  0  0  0  0
  -25.4276  -12.5141   20.5465 C   0  0  0  0  0  0  0  0  0  0  0  0
  -27.9372  -29.6626   23.6736 C   0  0  0  0  0  0  0  0  0  0  0  0
  -24.5113  -10.3949   20.9848 C   0  0  0  0  0  0  0  0  0  0  0  0
  -22.3053   -8.8414   21.6935 C   0  0  0  0  0  0  0  0  0  0  0  0
  -24.5546   -9.6053   22.1338 C   0  0  0  0  0  0  0  0  0  0  0  0
  -24.8743  -16.6999   20.2818 C   0  0  0  0  0  0  0  0  0  0  0  0
  -24.0921  -18.7096   19.8525 C   0  0  0  0  0  0  0  0  0  0  0  0
  -30.5639  -23.4987   20.3214 C   0  0  0  0  0  0  0  0  0  0  0  0
  -30.0388  -22.6187   21.1982 C   0  0  0  0  0  0  0  0  0  0  0  0
  -22.6593  -16.8547   18.9838 C   0  0  0  0  0  0  0  0  0  0  0  0
  -29.2912  -21.4546   20.6816 C   0  0  0  0  0  0  0  0  0  0  0  0
  -22.7246  -28.9035   22.3637 C   0  0  0  0  0  0  0  0  0  0  0  0
  -23.7130  -27.8854   19.4467 C   0  0  0  0  0  0  0  0  0  0  0  0
  -26.2017  -26.6503   17.1449 C   0  0  0  0  0  0  0  0  0  0  0  0
  -17.9367  -27.1488   22.1298 C   0  0  0  0  0  0  0  0  0  0  0  0
  -24.2836  -30.7641   21.6828 C   0  0  0  0  0  0  0  0  0  0  0  0
  -25.4872  -28.1017   21.2273 C   0  0  0  0  0  0  0  0  0  0  0  0
  -19.3198  -26.5952   21.7971 C   0  0  0  0  0  0  0  0  0  0  0  0
  -26.3327  -21.6853   22.8324 C   0  0  0  0  0  0  0  0  0  0  0  0
  -20.2838  -26.8358   22.9546 C   0  0  0  0  0  0  0  0  0  0  0  0
  -25.5487  -20.4540   22.3864 C   0  0  0  0  0  0  0  0  0  0  0  0
  -27.8418  -21.4511   22.7829 C   0  0  0  0  0  0  0  0  0  0  0  0
  -27.5440  -19.7477   21.0080 C   0  0  0  0  0  0  0  0  0  0  0  0
  -20.4598  -28.3353   23.2232 C   0  0  1  0  0  0  0  0  0  0  0  0
  -23.4473  -29.5718   21.2285 C   0  0  1  0  0  0  0  0  0  0  0  0
  -26.0245  -19.9766   21.0052 C   0  0  1  0  0  0  0  0  0  0  0  0
  -29.5975  -26.1579   19.5498 C   0  0  0  0  0  0  0  0  0  0  0  0
  -26.0442  -26.1342   14.6942 C   0  0  0  0  0  0  0  0  0  0  0  0
  -23.1253  -25.0402   20.3792 C   0  0  0  0  0  0  0  0  0  0  0  0
  -24.4980  -24.2022   18.4604 C   0  0  0  0  0  0  0  0  0  0  0  0
  -22.4319  -25.5313   18.0271 C   0  0  0  0  0  0  0  0  0  0  0  0
  -28.4674  -28.4431   16.5033 C   0  0  0  0  0  0  0  0  0  0  0  0
  -33.6000  -28.1692   21.7646 C   0  0  0  0  0  0  0  0  0  0  0  0
  -33.2171  -28.7591   23.1267 C   0  0  0  0  0  0  0  0  0  0  0  0
  -31.7742  -29.2715   23.1737 C   0  0  0  0  0  0  0  0  0  0  0  0
  -31.4272  -29.8216   24.5561 C   0  0  0  0  0  0  0  0  0  0  0  0
  -30.0088  -30.3719   24.6017 C   0  0  0  0  0  0  0  0  0  1  0  0
  -24.4853  -26.6932   18.9356 C   0  0  1  0  0  0  0  0  0  0  0  0
  -26.4688  -27.1550   15.7384 C   0  0  2  0  0  0  0  0  0  0  0  0
  -23.6463  -25.3847   18.9696 C   0  0  0  0  0  0  0  0  0  0  0  0
  -25.7712  -17.5302   20.8205 N   0  0  0  0  0  0  0  0  0  0  0  0
  -25.2678  -18.7449   20.5428 N   0  0  0  0  0  0  0  0  0  0  0  0
  -28.2643  -20.9393   21.4705 N   0  0  0  0  0  0  0  0  0  0  0  0
  -24.2474  -28.5402   20.5653 N   0  0  0  0  0  0  0  0  0  0  0  0
  -23.4497  -19.8410   19.4923 N   0  0  0  0  0  0  0  0  0  0  0  0
  -22.5208  -15.4637   18.8820 N   0  0  0  0  0  0  0  0  0  0  0  0
  -21.3481  -28.9233   22.2436 N   0  0  0  0  0  0  0  0  0  0  0  0
  -24.9690  -27.0586   17.6086 N   0  0  0  0  0  0  0  0  0  0  0  0
  -27.9207  -27.4375   15.5563 N   0  3  0  0  0  0  0  0  0  0  0  0
  -21.7913  -17.5976   18.4660 O   0  0  0  0  0  0  0  0  0  0  0  0
  -29.6254  -21.0059   19.5836 O   0  0  0  0  0  0  0  0  0  0  0  0
  -23.3681  -28.4054   23.2798 O   0  0  0  0  0  0  0  0  0  0  0  0
  -22.6775  -28.2275   18.8701 O   0  0  0  0  0  0  0  0  0  0  0  0
  -27.0047  -25.9596   17.7684 O   0  0  0  0  0  0  0  0  0  0  0  0
  -25.6053  -11.1673   20.6321 O   0  0  0  0  0  0  0  0  0  0  0  0
  -29.0953  -29.3181   24.2998 O   0  0  0  0  0  0  0  0  0  1  0  0
  -21.2455   -8.0966   22.0345 F   0  0  0  0  0  0  0  0  0  0  0  0
  -25.6527   -9.5897   22.9018 F   0  0  0  0  0  0  0  0  0  0  0  0
  1  2  1  0  0  0  0
  1  6  2  0  0  0  0
  2  7  2  0  0  0  0
  3 10  2  0  0  0  0
  3 18  1  0  0  0  0
  4 11  1  0  0  0  0
  4 18  2  0  0  0  0
  5  9  2  0  0  0  0
  5 19  1  0  0  0  0
  6 21  1  0  0  0  0
  7 23  1  0  0  0  0
  8 12  2  0  0  0  0
  8 22  1  0  0  0  0
  9 25  1  0  0  0  0
 10 27  1  0  0  0  0
 11 27  2  0  0  0  0
 12 28  1  0  0  0  0
 13 14  2  0  0  0  0
 13 29  1  0  0  0  0
 14 30  1  0  0  0  0
 15 24  1  0  0  0  0
 15 28  2  0  0  0  0
 16 25  2  0  0  0  0
 16 26  1  0  0  0  0
 17 30  2  0  0  0  0
 17 31  1  0  0  0  0
 18 32  1  0  0  0  0
 19 26  2  0  0  0  0
 19 34  1  0  0  0  0
 20 32  1  0  0  0  0
 20 33  2  0  0  0  0
 20 36  1  0  0  0  0
 21 23  2  0  0  0  0
 21 41  1  0  0  0  0
 22 24  2  0  0  0  0
 22 42  1  0  0  0  0
 23 50  1  0  0  0  0
 24 43  1  0  0  0  0
 25 59  1  0  0  0  0
 26 53  1  0  0  0  0
 27 81  1  0  0  0  0
 28 82  1  0  0  0  0
 29 31  2  0  0  0  0
 29 81  1  0  0  0  0
 30 83  1  0  0  0  0
 31 84  1  0  0  0  0
 32 67  2  0  0  0  0
 33 68  1  0  0  0  0
 33 71  1  0  0  0  0
 34 35  2  0  0  0  0
 35 37  1  0  0  0  0
 36 72  1  0  0  0  0
 36 76  2  0  0  0  0
 37 69  1  0  0  0  0
 37 77  2  0  0  0  0
 38 51  1  0  0  0  0
 38 73  1  0  0  0  0
 38 78  2  0  0  0  0
 39 64  1  0  0  0  0
 39 70  1  0  0  0  0
 39 79  2  0  0  0  0
 40 65  1  0  0  0  0
 40 74  1  0  0  0  0
 40 80  2  0  0  0  0
 41 44  1  0  0  0  0
 42 51  1  0  0  0  0
 43 70  1  0  0  0  0
 44 46  1  0  0  0  0
 45 47  1  0  0  0  0
 45 48  1  0  0  0  0
 46 50  1  0  0  0  0
 47 52  1  0  0  0  0
 48 69  1  0  0  0  0
 49 52  1  0  0  0  0
 49 69  1  0  0  0  0
 50 73  1  0  0  0  0
 51 70  1  0  0  0  0
 52 68  1  0  0  0  0
 54 65  1  0  0  0  0
 55 66  1  0  0  0  0
 56 66  1  0  0  0  0
 57 66  1  0  0  0  0
 58 75  1  0  0  0  0
 59 60  1  0  0  0  0
 60 61  1  0  0  0  0
 61 62  1  0  0  0  0
 62 63  1  0  0  0  0
 63 82  1  0  0  0  0
 64 66  1  0  0  0  0
 64 74  1  0  0  0  0
 65 75  1  0  0  0  0
 67 68  1  0  0  0  0
M  CHG  1  75   1
M  ISO  4  35 100  37 100  63 101  82 101
M  END
> <Batch ID>
0133

> <Smiles>
CNC(C)C(=O)NC(C(=O)N1Cc2cc([101O:1][101CH2:1]CCCCc3ccc(C=[100CH:0][100C:0](=O)N4CCCC(n5nc(-c6ccc(Oc7ccc(F)cc7F)cc6)c(C(N)=O)c5N)C4)c(C)c3)ccc2CC1C(=O)NC1CCCc2ccccc21)C(C)(C)C

> <Shape>
0.274

> <Color>
0.129

> <Negative vol penalty>
0.000

$$$$

  -OEChem-04052302303D

 86 95  0     1  0  0  0  0  0999 V2000
  -16.9311  -31.5303   22.3939 C   0  0  0  0  0  0  0  0  0  0  0  0
  -17.1362  -30.1813   22.1228 C   0  0  0  0  0  0  0  0  0  0  0  0
  -29.5589  -17.8218   21.8308 C   0  0  0  0  0  0  0  0  0  0  0  0
  -24.3714  -16.4934   22.9893 C   0  0  0  0  0  0  0  0  0  0  0  0
  -25.5375  -14.8915   24.3719 C   0  0  0  0  0  0  0  0  0  0  0  0
  -18.0098  -32.4137   22.3861 C   0  0  0  0  0  0  0  0  0  0  0  0
  -18.4202  -29.7151   21.8427 C   0  0  0  0  0  0  0  0  0  0  0  0
  -30.3798  -17.1766   20.9059 C   0  0  0  0  0  0  0  0  0  0  0  0
  -22.5696  -23.9372   22.6885 C   0  0  0  0  0  0  0  0  0  0  0  0
  -28.3975  -18.4651   21.4030 C   0  0  0  0  0  0  0  0  0  0  0  0
  -24.1277  -17.2847   24.1118 C   0  0  0  0  0  0  0  0  0  0  0  0
  -25.2937  -15.6829   25.4944 C   0  0  0  0  0  0  0  0  0  0  0  0
  -23.3744  -23.0715   21.9491 C   0  0  0  0  0  0  0  0  0  0  0  0
  -25.8328  -19.4959   26.0186 C   0  0  0  0  0  0  0  0  0  0  0  0
  -26.0496  -20.8690   25.9031 C   0  0  0  0  0  0  0  0  0  0  0  0
  -28.8779  -17.8180   19.1254 C   0  0  0  0  0  0  0  0  0  0  0  0
  -25.1740  -24.6753   22.0415 C   0  0  0  0  0  0  0  0  0  0  0  0
  -23.7302  -21.2803   26.4403 C   0  0  0  0  0  0  0  0  0  0  0  0
  -25.0763  -15.2967   23.1194 C   0  0  0  0  0  0  0  0  0  0  0  0
  -24.3716  -13.8931   21.1092 C   0  0  0  0  0  0  0  0  0  0  0  0
  -30.0394  -17.1747   19.5532 C   0  0  0  0  0  0  0  0  0  0  0  0
  -19.3090  -31.9563   22.1153 C   0  0  0  0  0  0  0  0  0  0  0  0
  -23.0581  -25.1851   23.1014 C   0  0  0  0  0  0  0  0  0  0  0  0
  -19.5171  -30.5933   21.8300 C   0  0  0  0  0  0  0  0  0  0  0  0
  -24.3742  -25.5539   22.7883 C   0  0  0  0  0  0  0  0  0  0  0  0
  -28.0570  -18.4632   20.0503 C   0  0  0  0  0  0  0  0  0  0  0  0
  -24.5888  -16.8795   25.3643 C   0  0  0  0  0  0  0  0  0  0  0  0
  -24.6758  -23.4417   21.6230 C   0  0  0  0  0  0  0  0  0  0  0  0
  -24.5648  -19.0150   26.3448 C   0  0  0  0  0  0  0  0  0  0  0  0
  -24.9983  -21.7611   26.1140 C   0  0  0  0  0  0  0  0  0  0  0  0
  -23.5135  -19.9072   26.5557 C   0  0  0  0  0  0  0  0  0  0  0  0
  -25.3279  -14.4785   21.9604 C   0  0  0  0  0  0  0  0  0  0  0  0
  -25.1141  -13.2220   20.1686 C   0  0  0  0  0  0  0  0  0  0  0  0
  -22.9400  -13.9508   21.1639 C   0  0  0  0  0  0  0  0  0  0  0  0
  -30.7328  -14.0050   18.1863 C   0  0  0  0  0  0  0  0  0  0  0  0
  -22.2466  -28.2076   22.5448 C   0  0  0  0  0  0  0  0  0  0  0  0
  -24.5244  -28.8209   24.7714 C   0  0  0  0  0  0  0  0  0  0  0  0
  -27.8210  -27.5934   25.5733 C   0  0  0  0  0  0  0  0  0  0  0  0
  -20.4365  -32.9570   22.0716 C   0  0  0  0  0  0  0  0  0  0  0  0
  -22.1863  -26.0962   23.9212 C   0  0  0  0  0  0  0  0  0  0  0  0
  -24.9531  -26.8740   23.2250 C   0  0  0  0  0  0  0  0  0  0  0  0
  -21.8213  -32.3176   22.1341 C   0  0  0  0  0  0  0  0  0  0  0  0
  -31.7843  -16.5127   16.3062 C   0  0  0  0  0  0  0  0  0  0  0  0
  -29.3122  -11.0220   19.5732 C   0  0  0  0  0  0  0  0  0  0  0  0
  -31.5077  -17.4232   17.4906 C   0  0  0  0  0  0  0  0  0  0  0  0
  -21.9081  -31.1372   21.1719 C   0  0  0  0  0  0  0  0  0  0  0  0
  -30.5643  -15.6033   16.2786 C   0  0  0  0  0  0  0  0  0  0  0  0
  -28.0579  -11.5210   20.2893 C   0  0  0  0  0  0  0  0  0  0  0  0
  -30.4458  -12.0392   19.6585 C   0  0  0  0  0  0  0  0  0  0  0  0
  -28.8279  -13.8992   19.8690 C   0  0  0  0  0  0  0  0  0  0  0  0
  -30.9296  -16.4732   18.5509 C   0  0  2  0  0  0  0  0  0  0  0  0
  -20.8987  -30.0451   21.5460 C   0  0  1  0  0  0  0  0  0  0  0  0
  -30.2210  -15.3549   17.7507 C   0  0  2  0  0  0  0  0  0  0  0  0
  -22.6154  -27.5584   23.8488 C   0  0  1  0  0  0  0  0  0  0  0  0
  -27.6484  -12.9146   19.7805 C   0  0  2  0  0  0  0  0  0  0  0  0
  -29.0540  -27.5366   27.7583 C   0  0  0  0  0  0  0  0  0  0  0  0
  -26.1269  -22.6765   18.0562 C   0  0  0  0  0  0  0  0  0  0  0  0
  -25.7100  -31.4735   23.8398 C   0  0  0  0  0  0  0  0  0  0  0  0
  -27.8942  -30.7688   24.8401 C   0  0  0  0  0  0  0  0  0  0  0  0
  -25.8912  -31.0562   26.2989 C   0  0  0  0  0  0  0  0  0  0  0  0
  -28.2684  -24.6744   25.3778 C   0  0  0  0  0  0  0  0  0  0  0  0
  -26.8015  -19.1593   19.5878 C   0  0  0  0  0  0  0  0  0  0  0  0
  -27.0075  -20.6335   19.2128 C   0  0  0  0  0  0  0  0  0  0  0  0
  -24.8086  -21.7291   19.9782 C   0  0  0  0  0  0  0  0  0  1  0  0
  -26.0127  -29.0717   24.7372 C   0  0  1  0  0  0  0  0  0  0  0  0
  -28.2086  -26.7461   26.7718 C   0  0  2  0  0  0  0  0  0  0  0  0
  -25.7286  -21.3934   18.7967 C   0  0  1  0  0  0  0  0  0  0  0  0
  -26.3642  -30.5764   24.9094 C   0  0  0  0  0  0  0  0  0  0  0  0
  -26.5823  -14.2033   21.5931 N   0  0  0  0  0  0  0  0  0  0  0  0
  -26.4193  -13.4375   20.5008 N   0  0  0  0  0  0  0  0  0  0  0  0
  -30.0105  -13.3551   19.1873 N   0  0  0  0  0  0  0  0  0  0  0  0
  -24.0592  -27.7329   24.0192 N   0  0  0  0  0  0  0  0  0  0  0  0
  -24.7715  -12.4743   19.0981 N   0  0  0  0  0  0  0  0  0  0  0  0
  -22.2593  -12.9699   21.8978 N   0  0  0  0  0  0  0  0  0  0  0  0
  -21.3804  -29.2765   22.6737 N   0  0  0  0  0  0  0  0  0  0  0  0
  -26.5966  -28.2017   25.7524 N   0  0  0  0  0  0  0  0  0  0  0  0
  -28.9890  -25.5547   26.3332 N   0  3  0  0  0  0  0  0  0  0  0  0
  -22.2830  -14.8362   20.5656 O   0  0  0  0  0  0  0  0  0  0  0  0
  -31.7428  -13.5423   17.6497 O   0  0  0  0  0  0  0  0  0  0  0  0
  -22.7144  -27.7719   21.4994 O   0  0  0  0  0  0  0  0  0  0  0  0
  -23.8022  -29.5587   25.4464 O   0  0  0  0  0  0  0  0  0  0  0  0
  -28.5349  -27.7074   24.5794 O   0  0  0  0  0  0  0  0  0  0  0  0
  -24.3513  -17.6516   26.4598 O   0  0  0  0  0  0  0  0  0  0  0  0
  -25.4632  -22.5990   20.9008 O   0  0  0  0  0  0  0  0  0  1  0  0
  -25.2070  -23.0797   26.0047 F   0  0  0  0  0  0  0  0  0  0  0  0
  -22.2933  -19.4512   26.8705 F   0  0  0  0  0  0  0  0  0  0  0  0
  1  2  1  0  0  0  0
  1  6  2  0  0  0  0
  2  7  2  0  0  0  0
  3  8  1  0  0  0  0
  3 10  2  0  0  0  0
  4 11  2  0  0  0  0
  4 19  1  0  0  0  0
  5 12  1  0  0  0  0
  5 19  2  0  0  0  0
  6 22  1  0  0  0  0
  7 24  1  0  0  0  0
  8 21  2  0  0  0  0
  9 13  2  0  0  0  0
  9 23  1  0  0  0  0
 10 26  1  0  0  0  0
 11 27  1  0  0  0  0
 12 27  2  0  0  0  0
 13 28  1  0  0  0  0
 14 15  2  0  0  0  0
 14 29  1  0  0  0  0
 15 30  1  0  0  0  0
 16 21  1  0  0  0  0
 16 26  2  0  0  0  0
 17 25  1  0  0  0  0
 17 28  2  0  0  0  0
 18 30  2  0  0  0  0
 18 31  1  0  0  0  0
 19 32  1  0  0  0  0
 20 32  1  0  0  0  0
 20 33  2  0  0  0  0
 20 34  1  0  0  0  0
 21 51  1  0  0  0  0
 22 24  2  0  0  0  0
 22 39  1  0  0  0  0
 23 25  2  0  0  0  0
 23 40  1  0  0  0  0
 24 52  1  0  0  0  0
 25 41  1  0  0  0  0
 26 62  1  0  0  0  0
 27 83  1  0  0  0  0
 28 84  1  0  0  0  0
 29 31  2  0  0  0  0
 29 83  1  0  0  0  0
 30 85  1  0  0  0  0
 31 86  1  0  0  0  0
 32 69  2  0  0  0  0
 33 70  1  0  0  0  0
 33 73  1  0  0  0  0
 34 74  1  0  0  0  0
 34 78  2  0  0  0  0
 35 53  1  0  0  0  0
 35 71  1  0  0  0  0
 35 79  2  0  0  0  0
 36 54  1  0  0  0  0
 36 75  1  0  0  0  0
 36 80  2  0  0  0  0
 37 65  1  0  0  0  0
 37 72  1  0  0  0  0
 37 81  2  0  0  0  0
 38 66  1  0  0  0  0
 38 76  1  0  0  0  0
 38 82  2  0  0  0  0
 39 42  1  0  0  0  0
 40 54  1  0  0  0  0
 41 72  1  0  0  0  0
 42 46  1  0  0  0  0
 43 45  1  0  0  0  0
 43 47  1  0  0  0  0
 44 48  1  0  0  0  0
 44 49  1  0  0  0  0
 45 51  1  0  0  0  0
 46 52  1  0  0  0  0
 47 53  1  0  0  0  0
 48 55  1  0  0  0  0
 49 71  1  0  0  0  0
 50 55  1  0  0  0  0
 50 71  1  0  0  0  0
 51 53  1  0  0  0  0
 52 75  1  0  0  0  0
 54 72  1  0  0  0  0
 55 70  1  0  0  0  0
 56 66  1  0  0  0  0
 57 67  1  0  0  0  0
 58 68  1  0  0  0  0
 59 68  1  0  0  0  0
 60 68  1  0  0  0  0
 61 77  1  0  0  0  0
 62 63  1  0  0  0  0
 63 67  1  0  0  0  0
 64 67  1  0  0  0  0
 64 84  1  0  0  0  0
 65 68  1  0  0  0  0
 65 76  1  0  0  0  0
 66 77  1  0  0  0  0
 69 70  1  0  0  0  0
M  CHG  1  77   1
M  ISO  4  35 100  53 100  64 101  84 101
M  END
> <Batch ID>
0133

> <Smiles>
CNC(C)C(=O)NC(C(=O)N1Cc2cc([101O:1][101CH2:1]C(C)CCc3cccc(C4CCC[100CH:0]4[100C:0](=O)N4CCCC(n5nc(-c6ccc(Oc7ccc(F)cc7F)cc6)c(C(N)=O)c5N)C4)c3)ccc2CC1C(=O)NC1CCCc2ccccc21)C(C)(C)C

> <Shape>
0.182

> <Color>
0.090

> <Negative vol penalty>
0.000

$$$$

  -OEChem-04052302303D

 83 91  0     1  0  0  0  0  0999 V2000
  -16.6595  -30.0962   23.2517 C   0  0  0  0  0  0  0  0  0  0  0  0
  -17.7827  -30.6665   22.6615 C   0  0  0  0  0  0  0  0  0  0  0  0
  -25.5396  -13.5210   19.2220 C   0  0  0  0  0  0  0  0  0  0  0  0
  -24.3297  -15.1737   20.5033 C   0  0  0  0  0  0  0  0  0  0  0  0
  -16.7905  -28.9487   24.0327 C   0  0  0  0  0  0  0  0  0  0  0  0
  -19.0380  -30.0902   22.8528 C   0  0  0  0  0  0  0  0  0  0  0  0
  -25.2837  -29.0720   19.4956 C   0  0  0  0  0  0  0  0  0  0  0  0
  -32.6319  -23.8900   21.0766 C   0  0  0  0  0  0  0  0  0  0  0  0
  -30.4897  -23.9583   19.9615 C   0  0  0  0  0  0  0  0  0  0  0  0
  -32.0794  -23.1070   22.0900 C   0  0  0  0  0  0  0  0  0  0  0  0
  -29.9372  -23.1752   20.9749 C   0  0  0  0  0  0  0  0  0  0  0  0
  -24.5380  -12.5859   19.4824 C   0  0  0  0  0  0  0  0  0  0  0  0
  -23.3281  -14.2386   20.7637 C   0  0  0  0  0  0  0  0  0  0  0  0
  -26.6519  -29.2620   19.6850 C   0  0  0  0  0  0  0  0  0  0  0  0
  -23.6090  -10.5777   22.0375 C   0  0  0  0  0  0  0  0  0  0  0  0
  -24.0039   -9.2953   22.4185 C   0  0  0  0  0  0  0  0  0  0  0  0
  -26.7467  -27.2347   20.9891 C   0  0  0  0  0  0  0  0  0  0  0  0
  -22.8708   -8.3746   20.4935 C   0  0  0  0  0  0  0  0  0  0  0  0
  -25.4355  -14.8149   19.7325 C   0  0  0  0  0  0  0  0  0  0  0  0
  -26.5388  -16.6739   18.3780 C   0  0  0  0  0  0  0  0  0  0  0  0
  -18.0467  -28.3524   24.2257 C   0  0  0  0  0  0  0  0  0  0  0  0
  -24.6337  -27.9658   20.0616 C   0  0  0  0  0  0  0  0  0  0  0  0
  -19.1862  -28.9344   23.6381 C   0  0  0  0  0  0  0  0  0  0  0  0
  -25.3708  -27.0316   20.8032 C   0  0  0  0  0  0  0  0  0  0  0  0
  -31.8371  -24.3158   20.0123 C   0  0  0  0  0  0  0  0  0  0  0  0
  -30.7321  -22.7495   22.0392 C   0  0  0  0  0  0  0  0  0  0  0  0
  -23.4322  -12.9446   20.2532 C   0  0  0  0  0  0  0  0  0  0  0  0
  -27.3830  -28.3449   20.4343 C   0  0  0  0  0  0  0  0  0  0  0  0
  -22.8450  -10.7586   20.8846 C   0  0  0  0  0  0  0  0  0  0  0  0
  -23.6348   -8.1938   21.6465 C   0  0  0  0  0  0  0  0  0  0  0  0
  -22.4760   -9.6570   20.1126 C   0  0  0  0  0  0  0  0  0  0  0  0
  -26.4702  -15.7812   19.4644 C   0  0  0  0  0  0  0  0  0  0  0  0
  -27.7044  -17.3718   18.5801 C   0  0  0  0  0  0  0  0  0  0  0  0
  -25.6301  -16.8562   17.2841 C   0  0  0  0  0  0  0  0  0  0  0  0
  -22.3037  -27.5800   22.1891 C   0  0  0  0  0  0  0  0  0  0  0  0
  -22.5999  -24.4561   21.3668 C   0  0  0  0  0  0  0  0  0  0  0  0
  -24.5204  -21.5251   20.5078 C   0  0  0  0  0  0  0  0  0  0  0  0
  -30.9137  -19.5655   22.8700 C   0  0  0  0  0  0  0  0  0  0  0  0
  -18.1454  -27.1397   25.1169 C   0  0  0  0  0  0  0  0  0  0  0  0
  -23.1624  -27.7609   19.8256 C   0  0  0  0  0  0  0  0  0  0  0  0
  -24.7240  -25.8167   21.4150 C   0  0  0  0  0  0  0  0  0  0  0  0
  -19.4581  -26.3759   24.9630 C   0  0  0  0  0  0  0  0  0  0  0  0
  -31.8375  -16.5747   21.1733 C   0  0  0  0  0  0  0  0  0  0  0  0
  -20.6407  -27.3393   24.9745 C   0  0  0  0  0  0  0  0  0  0  0  0
  -30.5540  -16.1482   20.4587 C   0  0  0  0  0  0  0  0  0  0  0  0
  -31.5445  -17.1930   22.5386 C   0  0  0  0  0  0  0  0  0  0  0  0
  -29.2944  -17.8803   21.8048 C   0  0  0  0  0  0  0  0  0  0  0  0
  -20.5614  -28.3243   23.8019 C   0  0  1  0  0  0  0  0  0  0  0  0
  -22.5063  -26.8732   20.8787 C   0  0  1  0  0  0  0  0  0  0  0  0
  -29.5351  -17.3021   20.3998 C   0  0  2  0  0  0  0  0  0  0  0  0
  -23.7749  -19.2168   19.8645 C   0  0  0  0  0  0  0  0  0  0  0  0
  -22.9313  -23.8355   24.3358 C   0  0  0  0  0  0  0  0  0  0  0  0
  -23.8362  -21.5910   23.6943 C   0  0  0  0  0  0  0  0  0  0  0  0
  -21.4986  -22.2121   23.0843 C   0  0  0  0  0  0  0  0  0  0  0  0
  -26.0642  -21.6041   17.9840 C   0  0  0  0  0  0  0  0  0  0  0  0
  -32.4336  -25.1624   18.9161 C   0  0  0  0  0  0  0  0  0  0  0  0
  -30.1425  -21.9108   23.1224 C   0  0  0  0  0  0  0  0  0  0  0  0
  -32.3441  -26.6699   19.1794 C   0  0  0  0  0  0  0  0  0  0  0  0
  -30.9018  -27.1803   19.2565 C   0  0  0  0  0  0  0  0  0  0  0  0
  -30.8602  -28.6789   19.5501 C   0  0  0  0  0  0  0  0  0  0  0  0
  -29.4322  -29.2046   19.5871 C   0  0  0  0  0  0  0  0  0  1  0  0
  -23.4281  -23.2945   21.8606 C   0  0  1  0  0  0  0  0  0  0  0  0
  -24.2544  -20.5687   19.3593 C   0  0  2  0  0  0  0  0  0  0  0  0
  -22.9357  -22.7571   23.2340 C   0  0  0  0  0  0  0  0  0  0  0  0
  -27.5096  -15.8989   20.2949 N   0  0  0  0  0  0  0  0  0  0  0  0
  -28.2424  -16.8738   19.7303 N   0  0  0  0  0  0  0  0  0  0  0  0
  -23.2819  -25.6638   21.1613 N   0  0  0  0  0  0  0  0  0  0  0  0
  -30.5727  -18.2818   22.4127 N   0  0  0  0  0  0  0  0  0  0  0  0
  -28.3115  -18.3566   17.8844 N   0  0  0  0  0  0  0  0  0  0  0  0
  -24.4808  -16.0558   17.2298 N   0  0  0  0  0  0  0  0  0  0  0  0
  -20.9806  -27.6831   22.5740 N   0  0  0  0  0  0  0  0  0  0  0  0
  -23.4170  -22.3017   20.7917 N   0  0  0  0  0  0  0  0  0  0  0  0
  -29.9377  -20.5410   22.7071 N   0  0  0  0  0  0  0  0  0  0  0  0
  -25.4957  -20.3591   18.5617 N   0  3  0  0  0  0  0  0  0  0  0  0
  -25.8396  -17.6922   16.3727 O   0  0  0  0  0  0  0  0  0  0  0  0
  -23.2759  -27.9993   22.8060 O   0  0  0  0  0  0  0  0  0  0  0  0
  -21.3938  -24.2959   21.1639 O   0  0  0  0  0  0  0  0  0  0  0  0
  -25.5979  -21.5753   21.0968 O   0  0  0  0  0  0  0  0  0  0  0  0
  -32.0089  -19.8242   23.3803 O   0  0  0  0  0  0  0  0  0  0  0  0
  -22.4545  -12.0325   20.5073 O   0  0  0  0  0  0  0  0  0  0  0  0
  -28.7184  -28.5283   20.6213 O   0  0  0  0  0  0  0  0  0  1  0  0
  -24.0154   -6.9625   22.0116 F   0  0  0  0  0  0  0  0  0  0  0  0
  -21.7431   -9.8246   19.0033 F   0  0  0  0  0  0  0  0  0  0  0  0
  1  2  1  0  0  0  0
  1  5  2  0  0  0  0
  2  6  2  0  0  0  0
  3 12  2  0  0  0  0
  3 19  1  0  0  0  0
  4 13  1  0  0  0  0
  4 19  2  0  0  0  0
  5 21  1  0  0  0  0
  6 23  1  0  0  0  0
  7 14  2  0  0  0  0
  7 22  1  0  0  0  0
  8 10  2  0  0  0  0
  8 25  1  0  0  0  0
  9 11  1  0  0  0  0
  9 25  2  0  0  0  0
 10 26  1  0  0  0  0
 11 26  2  0  0  0  0
 12 27  1  0  0  0  0
 13 27  2  0  0  0  0
 14 28  1  0  0  0  0
 15 16  2  0  0  0  0
 15 29  1  0  0  0  0
 16 30  1  0  0  0  0
 17 24  1  0  0  0  0
 17 28  2  0  0  0  0
 18 30  2  0  0  0  0
 18 31  1  0  0  0  0
 19 32  1  0  0  0  0
 20 32  1  0  0  0  0
 20 33  2  0  0  0  0
 20 34  1  0  0  0  0
 21 23  2  0  0  0  0
 21 39  1  0  0  0  0
 22 24  2  0  0  0  0
 22 40  1  0  0  0  0
 23 48  1  0  0  0  0
 24 41  1  0  0  0  0
 25 56  1  0  0  0  0
 26 57  1  0  0  0  0
 27 80  1  0  0  0  0
 28 81  1  0  0  0  0
 29 31  2  0  0  0  0
 29 80  1  0  0  0  0
 30 82  1  0  0  0  0
 31 83  1  0  0  0  0
 32 65  2  0  0  0  0
 33 66  1  0  0  0  0
 33 69  1  0  0  0  0
 34 70  1  0  0  0  0
 34 75  2  0  0  0  0
 35 49  1  0  0  0  0
 35 71  1  0  0  0  0
 35 76  2  0  0  0  0
 36 62  1  0  0  0  0
 36 67  1  0  0  0  0
 36 77  2  0  0  0  0
 37 63  1  0  0  0  0
 37 72  1  0  0  0  0
 37 78  2  0  0  0  0
 38 68  1  0  0  0  0
 38 73  1  0  0  0  0
 38 79  2  0  0  0  0
 39 42  1  0  0  0  0
 40 49  1  0  0  0  0
 41 67  1  0  0  0  0
 42 44  1  0  0  0  0
 43 45  1  0  0  0  0
 43 46  1  0  0  0  0
 44 48  1  0  0  0  0
 45 50  1  0  0  0  0
 46 68  1  0  0  0  0
 47 50  1  0  0  0  0
 47 68  1  0  0  0  0
 48 71  1  0  0  0  0
 49 67  1  0  0  0  0
 50 66  1  0  0  0  0
 51 63  1  0  0  0  0
 52 64  1  0  0  0  0
 53 64  1  0  0  0  0
 54 64  1  0  0  0  0
 55 74  1  0  0  0  0
 56 58  1  0  0  0  0
 57 73  1  0  0  0  0
 58 59  1  0  0  0  0
 59 60  1  0  0  0  0
 60 61  1  0  0  0  0
 61 81  1  0  0  0  0
 62 64  1  0  0  0  0
 62 72  1  0  0  0  0
 63 74  1  0  0  0  0
 65 66  1  0  0  0  0
M  CHG  1  74   1
M  ISO  4  38 100  61 101  73 100  81 101
M  END
> <Batch ID>
0133

> <Smiles>
CNC(C)C(=O)NC(C(=O)N1Cc2cc([101O:1][101CH2:1]CCCCc3ccc(C[100NH:0][100C:0](=O)N4CCCC(n5nc(-c6ccc(Oc7ccc(F)cc7F)cc6)c(C(N)=O)c5N)C4)cc3)ccc2CC1C(=O)NC1CCCc2ccccc21)C(C)(C)C

> <Shape>
0.227

> <Color>
0.067

> <Negative vol penalty>
0.000

$$$$

  -OEChem-04052302303D

 83 92  0     1  0  0  0  0  0999 V2000
  -29.9894  -31.2919   25.6718 C   0  0  0  0  0  0  0  0  0  0  0  0
  -29.5650  -30.1993   24.9225 C   0  0  0  0  0  0  0  0  0  0  0  0
  -23.0368  -10.3845   19.8687 C   0  0  0  0  0  0  0  0  0  0  0  0
  -23.8915   -9.5742   21.9782 C   0  0  0  0  0  0  0  0  0  0  0  0
  -29.0513  -32.1513   26.2422 C   0  0  0  0  0  0  0  0  0  0  0  0
  -28.2021  -29.9648   24.7440 C   0  0  0  0  0  0  0  0  0  0  0  0
  -28.7659  -19.1205   21.2548 C   0  0  0  0  0  0  0  0  0  0  0  0
  -27.0425  -28.7982   19.9545 C   0  0  0  0  0  0  0  0  0  0  0  0
  -28.8472  -20.5089   21.1278 C   0  0  0  0  0  0  0  0  0  0  0  0
  -22.2094   -9.2656   19.7741 C   0  0  0  0  0  0  0  0  0  0  0  0
  -23.0641   -8.4552   21.8836 C   0  0  0  0  0  0  0  0  0  0  0  0
  -27.3142  -27.4976   19.5323 C   0  0  0  0  0  0  0  0  0  0  0  0
  -19.8086   -7.7153   22.4079 C   0  0  0  0  0  0  0  0  0  0  0  0
  -19.1015   -7.3357   23.5487 C   0  0  0  0  0  0  0  0  0  0  0  0
  -29.2199  -20.3154   18.7302 C   0  0  0  0  0  0  0  0  0  0  0  0
  -24.9937  -26.9175   19.8459 C   0  0  0  0  0  0  0  0  0  0  0  0
  -20.2048   -5.1866   23.5175 C   0  0  0  0  0  0  0  0  0  0  0  0
  -23.8779  -10.5388   20.9708 C   0  0  0  0  0  0  0  0  0  0  0  0
  -24.4267  -12.9305   21.6682 C   0  0  0  0  0  0  0  0  0  0  0  0
  -27.6763  -31.9328   26.0625 C   0  0  0  0  0  0  0  0  0  0  0  0
  -25.7443  -29.1660   20.3366 C   0  0  0  0  0  0  0  0  0  0  0  0
  -28.9162  -18.3507   20.1149 C   0  0  0  0  0  0  0  0  0  0  0  0
  -27.2447  -30.8213   25.3136 C   0  0  0  0  0  0  0  0  0  0  0  0
  -29.1402  -18.9410   18.8673 C   0  0  0  0  0  0  0  0  0  0  0  0
  -24.7077  -28.2241   20.2701 C   0  0  0  0  0  0  0  0  0  0  0  0
  -29.0718  -21.1020   19.8747 C   0  0  0  0  0  0  0  0  0  0  0  0
  -22.2230   -8.3010   20.7815 C   0  0  0  0  0  0  0  0  0  0  0  0
  -26.2903  -26.5562   19.4807 C   0  0  0  0  0  0  0  0  0  0  0  0
  -20.7137   -6.8305   21.8218 C   0  0  0  0  0  0  0  0  0  0  0  0
  -19.2996   -6.0714   24.1036 C   0  0  0  0  0  0  0  0  0  0  0  0
  -20.9119   -5.5662   22.3766 C   0  0  0  0  0  0  0  0  0  0  0  0
  -24.7333  -11.6941   21.0688 C   0  0  0  0  0  0  0  0  0  0  0  0
  -25.5619  -13.6850   21.4991 C   0  0  0  0  0  0  0  0  0  0  0  0
  -23.2234  -13.3586   22.3197 C   0  0  0  0  0  0  0  0  0  0  0  0
  -24.4087  -30.2118   23.0248 C   0  0  0  0  0  0  0  0  0  0  0  0
  -27.8130  -23.2623   19.5024 C   0  0  0  0  0  0  0  0  0  0  0  0
  -21.7918  -30.5425   21.1368 C   0  0  0  0  0  0  0  0  0  0  0  0
  -20.1098  -29.5913   18.3238 C   0  0  0  0  0  0  0  0  0  0  0  0
  -29.5978  -15.4316   17.9831 C   0  0  0  0  0  0  0  0  0  0  0  0
  -26.6992  -32.8622   26.7378 C   0  0  0  0  0  0  0  0  0  0  0  0
  -25.4623  -30.5802   20.7642 C   0  0  0  0  0  0  0  0  0  0  0  0
  -28.8492  -16.8639   19.9817 C   0  0  0  0  0  0  0  0  0  0  0  0
  -29.2706  -17.8927   17.8144 C   0  0  0  0  0  0  0  0  0  0  0  0
  -23.2929  -28.5739   20.6502 C   0  0  0  0  0  0  0  0  0  0  0  0
  -25.2789  -32.7566   26.1884 C   0  0  0  0  0  0  0  0  0  0  0  0
  -30.1959  -12.3849   19.9382 C   0  0  0  0  0  0  0  0  0  0  0  0
  -24.8641  -31.2945   26.0583 C   0  0  0  0  0  0  0  0  0  0  0  0
  -28.7905  -12.0152   20.4175 C   0  0  0  0  0  0  0  0  0  0  0  0
  -30.1714  -13.1085   18.5934 C   0  0  0  0  0  0  0  0  0  0  0  0
  -27.8768  -13.8984   19.0144 C   0  0  0  0  0  0  0  0  0  0  0  0
  -25.7753  -30.5477   25.0767 C   0  0  1  0  0  0  0  0  0  0  0  0
  -24.2060  -30.7063   21.6205 C   0  0  1  0  0  0  0  0  0  0  0  0
  -27.8545  -13.2391   20.3997 C   0  0  1  0  0  0  0  0  0  0  0  0
  -17.9786  -30.0098   17.0667 C   0  0  0  0  0  0  0  0  0  0  0  0
  -20.2616  -28.8697   23.1789 C   0  0  0  0  0  0  0  0  0  0  0  0
  -18.4775  -28.5255   21.4565 C   0  0  0  0  0  0  0  0  0  0  0  0
  -18.9938  -30.8256   22.2725 C   0  0  0  0  0  0  0  0  0  0  0  0
  -21.5708  -30.5510   15.9356 C   0  0  0  0  0  0  0  0  0  0  0  0
  -29.1534  -22.5882   19.7660 C   0  0  0  0  0  0  0  0  0  0  0  0
  -27.8491  -24.7672   19.3202 C   0  0  0  0  0  0  0  0  0  1  0  0
  -20.6351  -29.6539   20.7476 C   0  0  1  0  0  0  0  0  0  0  0  0
  -19.4391  -30.4012   17.2289 C   0  0  2  0  0  0  0  0  0  0  0  0
  -19.6189  -29.4612   21.9085 C   0  0  0  0  0  0  0  0  0  0  0  0
  -25.9666  -11.6610   20.5570 N   0  0  0  0  0  0  0  0  0  0  0  0
  -26.4449  -12.8859   20.8343 N   0  0  0  0  0  0  0  0  0  0  0  0
  -23.0688  -29.9678   21.0677 N   0  0  0  0  0  0  0  0  0  0  0  0
  -29.1509  -16.6255   18.5545 N   0  0  0  0  0  0  0  0  0  0  0  0
  -29.2489  -14.2421   18.6304 N   0  0  0  0  0  0  0  0  0  0  0  0
  -25.8808  -14.9473   21.8556 N   0  0  0  0  0  0  0  0  0  0  0  0
  -22.1535  -12.4574   22.4061 N   0  0  0  0  0  0  0  0  0  0  0  0
  -25.4146  -30.8645   23.7114 N   0  0  0  0  0  0  0  0  0  0  0  0
  -20.0599  -30.2378   19.5407 N   0  0  0  0  0  0  0  0  0  0  0  0
  -20.1311  -30.1847   15.9268 N   0  3  0  0  0  0  0  0  0  0  0  0
  -23.0947  -14.5118   22.7962 O   0  0  0  0  0  0  0  0  0  0  0  0
  -23.7036  -29.3061   23.4541 O   0  0  0  0  0  0  0  0  0  0  0  0
  -26.7595  -22.6297   19.4405 O   0  0  0  0  0  0  0  0  0  0  0  0
  -21.5710  -31.7059   21.4823 O   0  0  0  0  0  0  0  0  0  0  0  0
  -20.6230  -28.4932   18.1207 O   0  0  0  0  0  0  0  0  0  0  0  0
  -30.3190  -15.4293   16.9773 O   0  0  0  0  0  0  0  0  0  0  0  0
  -21.4156   -7.2091   20.6896 O   0  0  0  0  0  0  0  0  0  0  0  0
  -26.5556  -25.2726   19.0654 O   0  0  0  0  0  0  0  0  0  1  0  0
  -18.6217   -5.7076   25.2000 F   0  0  0  0  0  0  0  0  0  0  0  0
  -21.7810   -4.7122   21.8187 F   0  0  0  0  0  0  0  0  0  0  0  0
  1  2  1  0  0  0  0
  1  5  2  0  0  0  0
  2  6  2  0  0  0  0
  3 10  2  0  0  0  0
  3 18  1  0  0  0  0
  4 11  1  0  0  0  0
  4 18  2  0  0  0  0
  5 20  1  0  0  0  0
  6 23  1  0  0  0  0
  7  9  2  0  0  0  0
  7 22  1  0  0  0  0
  8 12  2  0  0  0  0
  8 21  1  0  0  0  0
  9 26  1  0  0  0  0
 10 27  1  0  0  0  0
 11 27  2  0  0  0  0
 12 28  1  0  0  0  0
 13 14  2  0  0  0  0
 13 29  1  0  0  0  0
 14 30  1  0  0  0  0
 15 24  1  0  0  0  0
 15 26  2  0  0  0  0
 16 25  1  0  0  0  0
 16 28  2  0  0  0  0
 17 30  2  0  0  0  0
 17 31  1  0  0  0  0
 18 32  1  0  0  0  0
 19 32  1  0  0  0  0
 19 33  2  0  0  0  0
 19 34  1  0  0  0  0
 20 23  2  0  0  0  0
 20 40  1  0  0  0  0
 21 25  2  0  0  0  0
 21 41  1  0  0  0  0
 22 24  2  0  0  0  0
 22 42  1  0  0  0  0
 23 51  1  0  0  0  0
 24 43  1  0  0  0  0
 25 44  1  0  0  0  0
 26 59  1  0  0  0  0
 27 80  1  0  0  0  0
 28 81  1  0  0  0  0
 29 31  2  0  0  0  0
 29 80  1  0  0  0  0
 30 82  1  0  0  0  0
 31 83  1  0  0  0  0
 32 64  2  0  0  0  0
 33 65  1  0  0  0  0
 33 69  1  0  0  0  0
 34 70  1  0  0  0  0
 34 74  2  0  0  0  0
 35 52  1  0  0  0  0
 35 71  1  0  0  0  0
 35 75  2  0  0  0  0
 36 59  1  0  0  0  0
 36 60  1  0  0  0  0
 36 76  2  0  0  0  0
 37 61  1  0  0  0  0
 37 66  1  0  0  0  0
 37 77  2  0  0  0  0
 38 62  1  0  0  0  0
 38 72  1  0  0  0  0
 38 78  2  0  0  0  0
 39 67  1  0  0  0  0
 39 68  1  0  0  0  0
 39 79  2  0  0  0  0
 40 45  1  0  0  0  0
 41 52  1  0  0  0  0
 42 67  1  0  0  0  0
 43 67  1  0  0  0  0
 44 66  1  0  0  0  0
 45 47  1  0  0  0  0
 46 48  1  0  0  0  0
 46 49  1  0  0  0  0
 47 51  1  0  0  0  0
 48 53  1  0  0  0  0
 49 68  1  0  0  0  0
 50 53  1  0  0  0  0
 50 68  1  0  0  0  0
 51 71  1  0  0  0  0
 52 66  1  0  0  0  0
 53 65  1  0  0  0  0
 54 62  1  0  0  0  0
 55 63  1  0  0  0  0
 56 63  1  0  0  0  0
 57 63  1  0  0  0  0
 58 73  1  0  0  0  0
 60 81  1  0  0  0  0
 61 63  1  0  0  0  0
 61 72  1  0  0  0  0
 62 73  1  0  0  0  0
 64 65  1  0  0  0  0
M  CHG  1  73   1
M  ISO  4  39 100  60 101  67 100  81 101
M  END
> <Batch ID>
0133

> <Smiles>
CNC(C)C(=O)NC(C(=O)N1Cc2cc([101O:1][101CH2:1]C(=O)Cc3ccc4c(c3)C[100N:0]([100C:0](=O)N3CCCC(n5nc(-c6ccc(Oc7ccc(F)cc7F)cc6)c(C(N)=O)c5N)C3)C4)ccc2CC1C(=O)NC1CCCc2ccccc21)C(C)(C)C

> <Shape>
0.356

> <Color>
0.148

> <Negative vol penalty>
0.000

$$$$

  -OEChem-04052302303D

 84 92  0     1  0  0  0  0  0999 V2000
  -32.1957  -28.8892   17.5116 C   0  0  0  0  0  0  0  0  0  0  0  0
  -30.9553  -29.2115   16.9704 C   0  0  0  0  0  0  0  0  0  0  0  0
  -22.3246  -10.3734   21.9303 C   0  0  0  0  0  0  0  0  0  0  0  0
  -23.1261   -9.7617   19.7347 C   0  0  0  0  0  0  0  0  0  0  0  0
  -20.4660  -22.3781   18.5045 C   0  0  0  0  0  0  0  0  0  0  0  0
  -22.1038  -23.5366   19.8508 C   0  0  0  0  0  0  0  0  0  0  0  0
  -32.2692  -28.1908   18.7161 C   0  0  0  0  0  0  0  0  0  0  0  0
  -29.7876  -28.8345   17.6328 C   0  0  0  0  0  0  0  0  0  0  0  0
  -23.0681  -31.0313   18.7899 C   0  0  0  0  0  0  0  0  0  0  0  0
  -20.0021  -23.6000   18.0174 C   0  0  0  0  0  0  0  0  0  0  0  0
  -21.6398  -24.7586   19.3637 C   0  0  0  0  0  0  0  0  0  0  0  0
  -21.8722   -9.0690   22.1286 C   0  0  0  0  0  0  0  0  0  0  0  0
  -22.6736   -8.4572   19.9330 C   0  0  0  0  0  0  0  0  0  0  0  0
  -21.7543  -30.5744   18.6958 C   0  0  0  0  0  0  0  0  0  0  0  0
  -23.1990   -6.0708   22.9552 C   0  0  0  0  0  0  0  0  0  0  0  0
  -23.4746   -5.4687   24.1829 C   0  0  0  0  0  0  0  0  0  0  0  0
  -22.0037  -29.4401   20.8102 C   0  0  0  0  0  0  0  0  0  0  0  0
  -21.1068   -5.2060   24.5854 C   0  0  0  0  0  0  0  0  0  0  0  0
  -22.9516  -10.7198   20.7333 C   0  0  0  0  0  0  0  0  0  0  0  0
  -21.5168  -22.3464   19.4213 C   0  0  0  0  0  0  0  0  0  0  0  0
  -24.6884  -12.5848   20.8467 C   0  0  0  0  0  0  0  0  0  0  0  0
  -31.1019  -27.8135   19.3985 C   0  0  0  0  0  0  0  0  0  0  0  0
  -23.8645  -30.6865   19.8915 C   0  0  0  0  0  0  0  0  0  0  0  0
  -29.8456  -28.1292   18.8468 C   0  0  0  0  0  0  0  0  0  0  0  0
  -23.3265  -29.8961   20.9171 C   0  0  0  0  0  0  0  0  0  0  0  0
  -20.5890  -24.7902   18.4469 C   0  0  0  0  0  0  0  0  0  0  0  0
  -22.0467   -8.1109   21.1300 C   0  0  0  0  0  0  0  0  0  0  0  0
  -21.2228  -29.7763   19.7046 C   0  0  0  0  0  0  0  0  0  0  0  0
  -21.8774   -6.2406   22.5427 C   0  0  0  0  0  0  0  0  0  0  0  0
  -22.4285   -5.0363   24.9980 C   0  0  0  0  0  0  0  0  0  0  0  0
  -20.8313   -5.8082   23.3578 C   0  0  0  0  0  0  0  0  0  0  0  0
  -23.4187  -12.0672   20.5277 C   0  0  0  0  0  0  0  0  0  0  0  0
  -24.6303  -13.9009   20.4579 C   0  0  0  0  0  0  0  0  0  0  0  0
  -22.0007  -21.0724   19.9295 C   0  0  0  0  0  0  0  0  0  0  0  0
  -21.3142  -19.9100   19.9106 C   0  0  0  0  0  0  0  0  0  0  0  0
  -25.8192  -11.9342   21.4412 C   0  0  0  0  0  0  0  0  0  0  0  0
  -21.9486  -18.6940   20.4581 C   0  0  0  0  0  0  0  0  0  0  0  0
  -26.5737  -29.0707   20.2826 C   0  0  0  0  0  0  0  0  0  0  0  0
  -26.2690  -30.0673   23.3545 C   0  0  0  0  0  0  0  0  0  0  0  0
  -24.2182  -31.1410   25.8621 C   0  0  0  0  0  0  0  0  0  0  0  0
  -31.2313  -27.0184   20.6735 C   0  0  0  0  0  0  0  0  0  0  0  0
  -25.2712  -31.2095   19.9910 C   0  0  0  0  0  0  0  0  0  0  0  0
  -24.1333  -29.5144   22.1303 C   0  0  0  0  0  0  0  0  0  0  0  0
  -29.9497  -26.9834   21.5022 C   0  0  0  0  0  0  0  0  0  0  0  0
  -21.2127  -16.3873   17.7068 C   0  0  0  0  0  0  0  0  0  0  0  0
  -28.7483  -26.6743   20.6146 C   0  0  0  0  0  0  0  0  0  0  0  0
  -21.7899  -15.0844   18.2536 C   0  0  0  0  0  0  0  0  0  0  0  0
  -20.6233  -17.2605   18.8135 C   0  0  0  0  0  0  0  0  0  0  0  0
  -22.1564  -16.2385   20.4704 C   0  0  0  0  0  0  0  0  0  0  0  0
  -28.5566  -27.7594   19.5481 C   0  0  1  0  0  0  0  0  0  0  0  0
  -26.1567  -30.3717   20.9082 C   0  0  1  0  0  0  0  0  0  0  0  0
  -22.7971  -15.3656   19.3799 C   0  0  1  0  0  0  0  0  0  0  0  0
  -24.2530  -31.8416   28.2715 C   0  0  0  0  0  0  0  0  0  0  0  0
  -26.5408  -27.1474   24.1971 C   0  0  0  0  0  0  0  0  0  0  0  0
  -25.6336  -27.7833   26.4422 C   0  0  0  0  0  0  0  0  0  0  0  0
  -27.7803  -28.7696   25.6415 C   0  0  0  0  0  0  0  0  0  0  0  0
  -17.1810  -28.4367   19.2417 C   0  0  0  0  0  0  0  0  0  0  0  0
  -17.7898  -27.8732   16.8754 C   0  0  0  0  0  0  0  0  0  0  0  0
  -23.2051  -33.8444   25.2110 C   0  0  0  0  0  0  0  0  0  0  0  0
  -20.0879  -26.1123   17.9174 C   0  0  0  0  0  0  0  0  0  0  0  0
  -18.9651  -26.6778   18.7984 C   0  0  0  0  0  0  0  0  0  0  0  0
  -19.4178  -29.1145   18.3046 C   0  0  0  0  0  0  0  0  0  1  0  0
  -25.6048  -29.5204   24.5949 C   0  0  1  0  0  0  0  0  0  0  0  0
  -24.3318  -32.3080   26.8262 C   0  0  2  0  0  0  0  0  0  0  0  0
  -26.3750  -28.3106   25.1953 C   0  0  0  0  0  0  0  0  0  0  0  0
  -18.3309  -28.0115   18.3095 C   0  0  0  0  0  0  0  0  0  0  0  0
  -22.6128  -12.9800   19.9786 N   0  0  0  0  0  0  0  0  0  0  0  0
  -23.3780  -14.0845   19.9497 N   0  0  0  0  0  0  0  0  0  0  0  0
  -21.5854  -17.4667   19.9064 N   0  0  0  0  0  0  0  0  0  0  0  0
  -25.5057  -30.0452   22.1786 N   0  0  0  0  0  0  0  0  0  0  0  0
  -25.5287  -14.9074   20.5046 N   0  0  0  0  0  0  0  0  0  0  0  0
  -25.7085  -10.5785   21.7794 N   0  0  0  0  0  0  0  0  0  0  0  0
  -27.9399  -28.9337   20.1271 N   0  0  0  0  0  0  0  0  0  0  0  0
  -25.4565  -30.6476   25.5092 N   0  0  0  0  0  0  0  0  0  0  0  0
  -23.2330  -33.2860   26.5874 N   0  3  0  0  0  0  0  0  0  0  0  0
  -26.8904  -12.5412   21.6811 O   0  0  0  0  0  0  0  0  0  0  0  0
  -22.7590  -18.8390   21.3751 O   0  0  0  0  0  0  0  0  0  0  0  0
  -25.7194  -28.2513   19.9659 O   0  0  0  0  0  0  0  0  0  0  0  0
  -27.4201  -30.5047   23.4277 O   0  0  0  0  0  0  0  0  0  0  0  0
  -23.1388  -30.7077   25.4649 O   0  0  0  0  0  0  0  0  0  0  0  0
  -21.6055   -6.8379   21.3232 O   0  0  0  0  0  0  0  0  0  0  0  0
  -19.9409  -29.3284   19.6149 O   0  0  0  0  0  0  0  0  0  1  0  0
  -22.6933   -4.4567   26.1762 F   0  0  0  0  0  0  0  0  0  0  0  0
  -19.5596   -5.9675   22.9663 F   0  0  0  0  0  0  0  0  0  0  0  0
  1  2  1  0  0  0  0
  1  7  2  0  0  0  0
  2  8  2  0  0  0  0
  3 12  2  0  0  0  0
  3 19  1  0  0  0  0
  4 13  1  0  0  0  0
  4 19  2  0  0  0  0
  5 10  2  0  0  0  0
  5 20  1  0  0  0  0
  6 11  1  0  0  0  0
  6 20  2  0  0  0  0
  7 22  1  0  0  0  0
  8 24  1  0  0  0  0
  9 14  2  0  0  0  0
  9 23  1  0  0  0  0
 10 26  1  0  0  0  0
 11 26  2  0  0  0  0
 12 27  1  0  0  0  0
 13 27  2  0  0  0  0
 14 28  1  0  0  0  0
 15 16  2  0  0  0  0
 15 29  1  0  0  0  0
 16 30  1  0  0  0  0
 17 25  1  0  0  0  0
 17 28  2  0  0  0  0
 18 30  2  0  0  0  0
 18 31  1  0  0  0  0
 19 32  1  0  0  0  0
 20 34  1  0  0  0  0
 21 32  1  0  0  0  0
 21 33  2  0  0  0  0
 21 36  1  0  0  0  0
 22 24  2  0  0  0  0
 22 41  1  0  0  0  0
 23 25  2  0  0  0  0
 23 42  1  0  0  0  0
 24 50  1  0  0  0  0
 25 43  1  0  0  0  0
 26 60  1  0  0  0  0
 27 81  1  0  0  0  0
 28 82  1  0  0  0  0
 29 31  2  0  0  0  0
 29 81  1  0  0  0  0
 30 83  1  0  0  0  0
 31 84  1  0  0  0  0
 32 67  2  0  0  0  0
 33 68  1  0  0  0  0
 33 71  1  0  0  0  0
 34 35  2  0  0  0  0
 35 37  1  0  0  0  0
 36 72  1  0  0  0  0
 36 76  2  0  0  0  0
 37 69  1  0  0  0  0
 37 77  2  0  0  0  0
 38 51  1  0  0  0  0
 38 73  1  0  0  0  0
 38 78  2  0  0  0  0
 39 63  1  0  0  0  0
 39 70  1  0  0  0  0
 39 79  2  0  0  0  0
 40 64  1  0  0  0  0
 40 74  1  0  0  0  0
 40 80  2  0  0  0  0
 41 44  1  0  0  0  0
 42 51  1  0  0  0  0
 43 70  1  0  0  0  0
 44 46  1  0  0  0  0
 45 47  1  0  0  0  0
 45 48  1  0  0  0  0
 46 50  1  0  0  0  0
 47 52  1  0  0  0  0
 48 69  1  0  0  0  0
 49 52  1  0  0  0  0
 49 69  1  0  0  0  0
 50 73  1  0  0  0  0
 51 70  1  0  0  0  0
 52 68  1  0  0  0  0
 53 64  1  0  0  0  0
 54 65  1  0  0  0  0
 55 65  1  0  0  0  0
 56 65  1  0  0  0  0
 57 66  1  0  0  0  0
 58 66  1  0  0  0  0
 59 75  1  0  0  0  0
 60 61  1  0  0  0  0
 61 66  1  0  0  0  0
 62 66  1  0  0  0  0
 62 82  1  0  0  0  0
 63 65  1  0  0  0  0
 63 74  1  0  0  0  0
 64 75  1  0  0  0  0
 67 68  1  0  0  0  0
M  CHG  1  75   1
M  ISO  4  35 100  37 100  62 101  82 101
M  END
> <Batch ID>
0133

> <Smiles>
CNC(C)C(=O)NC(C(=O)N1Cc2cc([101O:1][101CH2:1]C(C)(C)CCc3ccc(C=[100CH:0][100C:0](=O)N4CCCC(n5nc(-c6ccc(Oc7ccc(F)cc7F)cc6)c(C(N)=O)c5N)C4)cc3)ccc2CC1C(=O)NC1CCCc2ccccc21)C(C)(C)C

> <Shape>
0.221

> <Color>
0.105

> <Negative vol penalty>
0.000

$$$$

  -OEChem-04052302303D

 88 96  0     1  0  0  0  0  0999 V2000
  -22.8074  -36.0917   22.4326 C   0  0  0  0  0  0  0  0  0  0  0  0
  -23.7973  -35.6492   21.5610 C   0  0  0  0  0  0  0  0  0  0  0  0
  -24.6173   -9.4712   20.1433 C   0  0  0  0  0  0  0  0  0  0  0  0
  -24.5276  -10.0461   22.4882 C   0  0  0  0  0  0  0  0  0  0  0  0
  -22.6716  -35.5020   23.6886 C   0  0  0  0  0  0  0  0  0  0  0  0
  -24.6527  -34.6172   21.9454 C   0  0  0  0  0  0  0  0  0  0  0  0
  -28.2842  -29.0719   19.2292 C   0  0  0  0  0  0  0  0  0  0  0  0
  -24.3493   -8.1394   20.4595 C   0  0  0  0  0  0  0  0  0  0  0  0
  -24.2596   -8.7142   22.8044 C   0  0  0  0  0  0  0  0  0  0  0  0
  -29.5709  -28.5357   19.2036 C   0  0  0  0  0  0  0  0  0  0  0  0
  -21.5993   -6.6307   22.7542 C   0  0  0  0  0  0  0  0  0  0  0  0
  -20.5850   -6.3769   23.6774 C   0  0  0  0  0  0  0  0  0  0  0  0
  -29.1919  -27.5381   21.3670 C   0  0  0  0  0  0  0  0  0  0  0  0
  -26.0066  -20.9439   19.4034 C   0  0  0  0  0  0  0  0  0  0  0  0
  -28.6016  -20.8343   20.4214 C   0  0  0  0  0  0  0  0  0  0  0  0
  -22.1771   -5.2777   25.1245 C   0  0  0  0  0  0  0  0  0  0  0  0
  -24.7065  -10.4246   21.1576 C   0  0  0  0  0  0  0  0  0  0  0  0
  -24.0472  -12.8123   20.5480 C   0  0  0  0  0  0  0  0  0  0  0  0
  -23.5195  -34.4557   24.0849 C   0  0  0  0  0  0  0  0  0  0  0  0
  -27.4441  -28.8539   20.3306 C   0  0  0  0  0  0  0  0  0  0  0  0
  -24.5289  -34.0137   23.2085 C   0  0  0  0  0  0  0  0  0  0  0  0
  -27.8940  -28.0705   21.4030 C   0  0  0  0  0  0  0  0  0  0  0  0
  -26.2737  -20.2014   20.5536 C   0  0  0  0  0  0  0  0  0  0  0  0
  -27.0370  -21.6315   18.7621 C   0  0  0  0  0  0  0  0  0  0  0  0
  -27.5712  -20.1466   21.0626 C   0  0  0  0  0  0  0  0  0  0  0  0
  -24.1704   -7.7609   21.7900 C   0  0  0  0  0  0  0  0  0  0  0  0
  -30.0260  -27.7711   20.2738 C   0  0  0  0  0  0  0  0  0  0  0  0
  -22.9026   -6.2080   23.0161 C   0  0  0  0  0  0  0  0  0  0  0  0
  -28.3345  -21.5767   19.2711 C   0  0  0  0  0  0  0  0  0  0  0  0
  -20.8739   -5.7004   24.8626 C   0  0  0  0  0  0  0  0  0  0  0  0
  -23.1914   -5.5315   24.2013 C   0  0  0  0  0  0  0  0  0  0  0  0
  -24.9839  -11.8004   20.8317 C   0  0  0  0  0  0  0  0  0  0  0  0
  -24.8103  -13.9281   20.3046 C   0  0  0  0  0  0  0  0  0  0  0  0
  -22.6154  -12.7494   20.5083 C   0  0  0  0  0  0  0  0  0  0  0  0
  -26.0442  -30.7216   22.4883 C   0  0  0  0  0  0  0  0  0  0  0  0
  -24.6386  -27.9462   23.4068 C   0  0  0  0  0  0  0  0  0  0  0  0
  -24.7492  -24.5366   23.5054 C   0  0  0  0  0  0  0  0  0  0  0  0
  -29.0699  -17.2901   21.6076 C   0  0  0  0  0  0  0  0  0  0  0  0
  -23.3648  -33.8812   25.4708 C   0  0  0  0  0  0  0  0  0  0  0  0
  -26.0493  -29.4169   20.3311 C   0  0  0  0  0  0  0  0  0  0  0  0
  -27.0240  -27.7901   22.6001 C   0  0  0  0  0  0  0  0  0  0  0  0
  -24.0701  -32.5402   25.6565 C   0  0  0  0  0  0  0  0  0  0  0  0
  -29.7989  -14.4216   19.6286 C   0  0  0  0  0  0  0  0  0  0  0  0
  -25.4838  -32.5971   25.0865 C   0  0  0  0  0  0  0  0  0  0  0  0
  -28.5369  -13.5652   19.7470 C   0  0  0  0  0  0  0  0  0  0  0  0
  -30.1136  -15.1465   20.9353 C   0  0  0  0  0  0  0  0  0  0  0  0
  -27.7410  -15.0923   21.5999 C   0  0  0  0  0  0  0  0  0  0  0  0
  -25.4601  -32.8800   23.5796 C   0  0  1  0  0  0  0  0  0  0  0  0
  -25.4633  -29.5603   21.7323 C   0  0  1  0  0  0  0  0  0  0  0  0
  -27.3515  -14.3855   20.2903 C   0  0  2  0  0  0  0  0  0  0  0  0
  -25.1552  -19.4720   21.2225 C   0  0  0  0  0  0  0  0  0  0  0  0
  -26.3912  -24.7354   16.5589 C   0  0  0  0  0  0  0  0  0  0  0  0
  -23.9640  -22.1931   23.9395 C   0  0  0  0  0  0  0  0  0  0  0  0
  -25.6332  -28.5234   26.2330 C   0  0  0  0  0  0  0  0  0  0  0  0
  -25.1829  -26.1282   26.8058 C   0  0  0  0  0  0  0  0  0  0  0  0
  -23.3057  -27.6168   26.1111 C   0  0  0  0  0  0  0  0  0  0  0  0
  -23.4424  -24.3600   20.8559 C   0  0  0  0  0  0  0  0  0  0  0  0
  -26.7328  -22.4221   17.5325 C   0  0  0  0  0  0  0  0  0  0  0  0
  -27.8818  -19.3585   22.2926 C   0  0  0  0  0  0  0  0  0  0  0  0
  -26.6675  -23.9295   17.8183 C   0  0  0  0  0  0  0  0  0  0  0  0
  -32.1645  -24.5051   19.7189 C   0  0  0  0  0  0  0  0  0  0  0  0
  -32.8026  -25.7664   19.1367 C   0  0  0  0  0  0  0  0  0  0  0  0
  -31.0031  -23.9722   18.8816 C   0  0  0  0  0  0  0  0  0  0  0  0
  -31.8289  -26.9257   18.9735 C   0  0  0  0  0  0  0  0  0  1  0  0
  -30.4209  -22.6987   19.4804 C   0  0  0  0  0  0  0  0  0  0  0  0
  -24.9813  -26.8458   24.3819 C   0  0  1  0  0  0  0  0  0  0  0  0
  -23.7036  -23.4851   23.1808 C   0  0  2  0  0  0  0  0  0  0  0  0
  -24.7931  -27.2853   25.8614 C   0  0  0  0  0  0  0  0  0  0  0  0
  -26.2456  -12.2348   20.7740 N   0  0  0  0  0  0  0  0  0  0  0  0
  -26.1072  -13.5320   20.4511 N   0  0  0  0  0  0  0  0  0  0  0  0
  -25.6705  -28.3677   22.5564 N   0  0  0  0  0  0  0  0  0  0  0  0
  -28.9491  -15.9069   21.3955 N   0  0  0  0  0  0  0  0  0  0  0  0
  -24.4918  -15.1995   19.9815 N   0  0  0  0  0  0  0  0  0  0  0  0
  -21.9925  -11.5245   20.7839 N   0  0  0  0  0  0  0  0  0  0  0  0
  -25.1162  -31.6811   22.8455 N   0  0  0  0  0  0  0  0  0  0  0  0
  -24.1770  -25.6920   23.9944 N   0  0  0  0  0  0  0  0  0  0  0  0
  -27.9170  -17.9357   22.0374 N   0  0  0  0  0  0  0  0  0  0  0  0
  -23.7090  -23.1825   21.7216 N   0  3  0  0  0  0  0  0  0  0  0  0
  -21.9099  -13.7458   20.2202 O   0  0  0  0  0  0  0  0  0  0  0  0
  -27.2452  -30.7447   22.7309 O   0  0  0  0  0  0  0  0  0  0  0  0
  -23.4954  -28.4095   23.3951 O   0  0  0  0  0  0  0  0  0  0  0  0
  -25.9534  -24.3504   23.3451 O   0  0  0  0  0  0  0  0  0  0  0  0
  -30.1255  -17.9052   21.4222 O   0  0  0  0  0  0  0  0  0  0  0  0
  -23.9086   -6.4614   22.0989 O   0  0  0  0  0  0  0  0  0  0  0  0
  -31.2817  -27.2472   20.2516 O   0  0  0  0  0  0  0  0  0  1  0  0
  -29.3589  -22.2453   18.6525 O   0  0  0  0  0  0  0  0  0  0  0  0
  -19.9000   -5.4581   25.7497 F   0  0  0  0  0  0  0  0  0  0  0  0
  -24.4418   -5.1240   24.4589 F   0  0  0  0  0  0  0  0  0  0  0  0
  1  2  1  0  0  0  0
  1  5  2  0  0  0  0
  2  6  2  0  0  0  0
  3  8  2  0  0  0  0
  3 17  1  0  0  0  0
  4  9  1  0  0  0  0
  4 17  2  0  0  0  0
  5 19  1  0  0  0  0
  6 21  1  0  0  0  0
  7 10  2  0  0  0  0
  7 20  1  0  0  0  0
  8 26  1  0  0  0  0
  9 26  2  0  0  0  0
 10 27  1  0  0  0  0
 11 12  2  0  0  0  0
 11 28  1  0  0  0  0
 12 30  1  0  0  0  0
 13 22  1  0  0  0  0
 13 27  2  0  0  0  0
 14 23  2  0  0  0  0
 14 24  1  0  0  0  0
 15 25  2  0  0  0  0
 15 29  1  0  0  0  0
 16 30  2  0  0  0  0
 16 31  1  0  0  0  0
 17 32  1  0  0  0  0
 18 32  1  0  0  0  0
 18 33  2  0  0  0  0
 18 34  1  0  0  0  0
 19 21  2  0  0  0  0
 19 39  1  0  0  0  0
 20 22  2  0  0  0  0
 20 40  1  0  0  0  0
 21 48  1  0  0  0  0
 22 41  1  0  0  0  0
 23 25  1  0  0  0  0
 23 51  1  0  0  0  0
 24 29  2  0  0  0  0
 24 58  1  0  0  0  0
 25 59  1  0  0  0  0
 26 84  1  0  0  0  0
 27 85  1  0  0  0  0
 28 31  2  0  0  0  0
 28 84  1  0  0  0  0
 29 86  1  0  0  0  0
 30 87  1  0  0  0  0
 31 88  1  0  0  0  0
 32 69  2  0  0  0  0
 33 70  1  0  0  0  0
 33 73  1  0  0  0  0
 34 74  1  0  0  0  0
 34 79  2  0  0  0  0
 35 49  1  0  0  0  0
 35 75  1  0  0  0  0
 35 80  2  0  0  0  0
 36 66  1  0  0  0  0
 36 71  1  0  0  0  0
 36 81  2  0  0  0  0
 37 67  1  0  0  0  0
 37 76  1  0  0  0  0
 37 82  2  0  0  0  0
 38 72  1  0  0  0  0
 38 77  1  0  0  0  0
 38 83  2  0  0  0  0
 39 42  1  0  0  0  0
 40 49  1  0  0  0  0
 41 71  1  0  0  0  0
 42 44  1  0  0  0  0
 43 45  1  0  0  0  0
 43 46  1  0  0  0  0
 44 48  1  0  0  0  0
 45 50  1  0  0  0  0
 46 72  1  0  0  0  0
 47 50  1  0  0  0  0
 47 72  1  0  0  0  0
 48 75  1  0  0  0  0
 49 71  1  0  0  0  0
 50 70  1  0  0  0  0
 52 60  1  0  0  0  0
 53 67  1  0  0  0  0
 54 68  1  0  0  0  0
 55 68  1  0  0  0  0
 56 68  1  0  0  0  0
 57 78  1  0  0  0  0
 58 60  1  0  0  0  0
 59 77  1  0  0  0  0
 61 62  1  0  0  0  0
 61 63  1  0  0  0  0
 62 64  1  0  0  0  0
 63 65  1  0  0  0  0
 64 85  1  0  0  0  0
 65 86  1  0  0  0  0
 66 68  1  0  0  0  0
 66 76  1  0  0  0  0
 67 78  1  0  0  0  0
 69 70  1  0  0  0  0
M  CHG  1  78   1
M  ISO  4  38 100  64 101  77 100  85 101
M  END
> <Batch ID>
0133

> <Smiles>
CCCc1cc(C)c(C[100NH:0][100C:0](=O)N2CCCC(n3nc(-c4ccc(Oc5ccc(F)cc5F)cc4)c(C(N)=O)c3N)C2)cc1OCCCC[101CH2:1][101O:1]c1ccc2c(c1)CN(C(=O)C(NC(=O)C(C)NC)C(C)(C)C)C(C(=O)NC1CCCc3ccccc31)C2

> <Shape>
0.284

> <Color>
0.096

> <Negative vol penalty>
0.000

$$$$

  -OEChem-04052302303D

 85 93  0     1  0  0  0  0  0999 V2000
  -26.0105  -32.8137   22.3619 C   0  0  0  0  0  0  0  0  0  0  0  0
  -26.0912  -31.8657   23.3769 C   0  0  0  0  0  0  0  0  0  0  0  0
  -22.8736  -10.2704   19.9477 C   0  0  0  0  0  0  0  0  0  0  0  0
  -23.9647   -9.6243   22.0041 C   0  0  0  0  0  0  0  0  0  0  0  0
  -25.5122  -32.4530   21.1107 C   0  0  0  0  0  0  0  0  0  0  0  0
  -25.6725  -30.5566   23.1415 C   0  0  0  0  0  0  0  0  0  0  0  0
  -28.0940  -25.4403   25.4794 C   0  0  0  0  0  0  0  0  0  0  0  0
  -29.5234  -18.7063   24.5031 C   0  0  0  0  0  0  0  0  0  0  0  0
  -30.1434  -18.0939   23.4140 C   0  0  0  0  0  0  0  0  0  0  0  0
  -22.0832   -9.1226   20.0063 C   0  0  0  0  0  0  0  0  0  0  0  0
  -23.1743   -8.4765   22.0628 C   0  0  0  0  0  0  0  0  0  0  0  0
  -27.7238  -24.6336   26.5545 C   0  0  0  0  0  0  0  0  0  0  0  0
  -23.1055   -5.4223   20.6144 C   0  0  0  0  0  0  0  0  0  0  0  0
  -23.7349   -4.2173   20.9264 C   0  0  0  0  0  0  0  0  0  0  0  0
  -26.5466  -23.1686   25.0423 C   0  0  0  0  0  0  0  0  0  0  0  0
  -30.0323  -16.7831   25.8741 C   0  0  0  0  0  0  0  0  0  0  0  0
  -22.3268   -3.9867   22.8761 C   0  0  0  0  0  0  0  0  0  0  0  0
  -23.8144  -10.5213   20.9465 C   0  0  0  0  0  0  0  0  0  0  0  0
  -24.3404  -12.9687   21.4374 C   0  0  0  0  0  0  0  0  0  0  0  0
  -25.0961  -31.1365   20.8570 C   0  0  0  0  0  0  0  0  0  0  0  0
  -27.6834  -25.1226   24.1767 C   0  0  0  0  0  0  0  0  0  0  0  0
  -25.1668  -30.1783   21.8861 C   0  0  0  0  0  0  0  0  0  0  0  0
  -26.9150  -23.9714   23.9520 C   0  0  0  0  0  0  0  0  0  0  0  0
  -29.4679  -18.0509   25.7332 C   0  0  0  0  0  0  0  0  0  0  0  0
  -30.7077  -16.8261   23.5548 C   0  0  0  0  0  0  0  0  0  0  0  0
  -30.6521  -16.1706   24.7849 C   0  0  0  0  0  0  0  0  0  0  0  0
  -22.2335   -8.2257   21.0639 C   0  0  0  0  0  0  0  0  0  0  0  0
  -26.9476  -23.4992   26.3365 C   0  0  0  0  0  0  0  0  0  0  0  0
  -22.0868   -5.9096   21.4332 C   0  0  0  0  0  0  0  0  0  0  0  0
  -23.3456   -3.4995   22.0573 C   0  0  0  0  0  0  0  0  0  0  0  0
  -21.6974   -5.1918   22.5641 C   0  0  0  0  0  0  0  0  0  0  0  0
  -24.6315  -11.7065   20.8862 C   0  0  0  0  0  0  0  0  0  0  0  0
  -25.4240  -13.7456   21.1076 C   0  0  0  0  0  0  0  0  0  0  0  0
  -23.1932  -13.4003   22.1812 C   0  0  0  0  0  0  0  0  0  0  0  0
  -25.8916  -26.5562   21.9772 C   0  0  0  0  0  0  0  0  0  0  0  0
  -26.8628  -24.0737   20.1290 C   0  0  0  0  0  0  0  0  0  0  0  0
  -28.0311  -20.8716   19.9591 C   0  0  0  0  0  0  0  0  0  0  0  0
  -30.9395  -14.4608   20.6457 C   0  0  0  0  0  0  0  0  0  0  0  0
  -24.5203  -30.8054   19.5029 C   0  0  0  0  0  0  0  0  0  0  0  0
  -28.1135  -25.9883   23.0243 C   0  0  0  0  0  0  0  0  0  0  0  0
  -26.4655  -23.5754   22.5701 C   0  0  0  0  0  0  0  0  0  0  0  0
  -24.4473  -29.3067   19.2220 C   0  0  0  0  0  0  0  0  0  0  0  0
  -29.2672  -12.8608   17.9400 C   0  0  0  0  0  0  0  0  0  0  0  0
  -23.8624  -28.5667   20.4209 C   0  0  0  0  0  0  0  0  0  0  0  0
  -27.8912  -12.5167   18.5127 C   0  0  0  0  0  0  0  0  0  0  0  0
  -30.3681  -12.7111   18.9878 C   0  0  0  0  0  0  0  0  0  0  0  0
  -28.7606  -13.1113   20.8125 C   0  0  0  0  0  0  0  0  0  0  0  0
  -24.7456  -28.7421   21.6621 C   0  0  1  0  0  0  0  0  0  0  0  0
  -27.2078  -25.8524   21.8043 C   0  0  1  0  0  0  0  0  0  0  0  0
  -27.6108  -13.3014   19.8084 C   0  0  2  0  0  0  0  0  0  0  0  0
  -31.2491  -14.8127   24.9592 C   0  0  0  0  0  0  0  0  0  0  0  0
  -28.9391  -18.7764   18.9183 C   0  0  0  0  0  0  0  0  0  0  0  0
  -25.1271  -18.5672   28.2864 C   0  0  0  0  0  0  0  0  0  0  0  0
  -23.9200  -23.5245   19.5388 C   0  0  0  0  0  0  0  0  0  0  0  0
  -24.5817  -21.2575   18.7076 C   0  0  0  0  0  0  0  0  0  0  0  0
  -25.4390  -23.3023   17.5646 C   0  0  0  0  0  0  0  0  0  0  0  0
  -30.8242  -21.8157   20.2164 C   0  0  0  0  0  0  0  0  0  0  0  0
  -28.7970  -18.7132   26.9108 C   0  0  0  0  0  0  0  0  0  0  0  0
  -31.3651  -16.1900   22.3742 C   0  0  0  0  0  0  0  0  0  0  0  0
  -27.2984  -18.4036   27.0320 C   0  0  0  0  0  0  0  0  0  0  0  0
  -26.7172  -20.5373   28.3860 C   0  0  0  0  0  0  0  0  0  0  0  0
  -26.3991  -21.3209   27.1175 C   0  0  0  0  0  0  0  0  0  1  0  0
  -26.3426  -22.6855   19.8439 C   0  0  1  0  0  0  0  0  0  0  0  0
  -29.1750  -20.2571   19.1726 C   0  0  2  0  0  0  0  0  0  0  0  0
  -26.5961  -19.0063   28.2674 C   0  0  1  0  0  0  0  0  0  0  0  0
  -25.0775  -22.7007   18.9401 C   0  0  0  0  0  0  0  0  0  0  0  0
  -25.8077  -11.6788   20.2539 N   0  0  0  0  0  0  0  0  0  0  0  0
  -26.2653  -12.9332   20.4058 N   0  0  0  0  0  0  0  0  0  0  0  0
  -26.9062  -24.4574   21.4768 N   0  0  0  0  0  0  0  0  0  0  0  0
  -30.0419  -13.4808   20.1908 N   0  0  0  0  0  0  0  0  0  0  0  0
  -25.7297  -15.0375   21.3522 N   0  0  0  0  0  0  0  0  0  0  0  0
  -22.1717  -12.4738   22.4312 N   0  0  0  0  0  0  0  0  0  0  0  0
  -25.9057  -27.8805   21.5828 N   0  0  0  0  0  0  0  0  0  0  0  0
  -27.4642  -21.9352   19.2892 N   0  0  0  0  0  0  0  0  0  0  0  0
  -30.5507  -15.1484   21.7888 N   0  0  0  0  0  0  0  0  0  0  0  0
  -30.4562  -20.4075   19.9187 N   0  3  0  0  0  0  0  0  0  0  0  0
  -23.0699  -14.5772   22.5973 O   0  0  0  0  0  0  0  0  0  0  0  0
  -24.9338  -25.9428   22.4332 O   0  0  0  0  0  0  0  0  0  0  0  0
  -27.2243  -24.7885   19.1909 O   0  0  0  0  0  0  0  0  0  0  0  0
  -27.6738  -20.4480   21.0560 O   0  0  0  0  0  0  0  0  0  0  0  0
  -32.0057  -14.7086   20.0723 O   0  0  0  0  0  0  0  0  0  0  0  0
  -21.4623   -7.1057   21.1217 O   0  0  0  0  0  0  0  0  0  0  0  0
  -26.5843  -22.7104   27.3842 O   0  0  0  0  0  0  0  0  0  1  0  0
  -23.9490   -2.3416   22.3560 F   0  0  0  0  0  0  0  0  0  0  0  0
  -20.7186   -5.6542   23.3539 F   0  0  0  0  0  0  0  0  0  0  0  0
  1  2  1  0  0  0  0
  1  5  2  0  0  0  0
  2  6  2  0  0  0  0
  3 10  2  0  0  0  0
  3 18  1  0  0  0  0
  4 11  1  0  0  0  0
  4 18  2  0  0  0  0
  5 20  1  0  0  0  0
  6 22  1  0  0  0  0
  7 12  2  0  0  0  0
  7 21  1  0  0  0  0
  8  9  2  0  0  0  0
  8 24  1  0  0  0  0
  9 25  1  0  0  0  0
 10 27  1  0  0  0  0
 11 27  2  0  0  0  0
 12 28  1  0  0  0  0
 13 14  2  0  0  0  0
 13 29  1  0  0  0  0
 14 30  1  0  0  0  0
 15 23  1  0  0  0  0
 15 28  2  0  0  0  0
 16 24  2  0  0  0  0
 16 26  1  0  0  0  0
 17 30  2  0  0  0  0
 17 31  1  0  0  0  0
 18 32  1  0  0  0  0
 19 32  1  0  0  0  0
 19 33  2  0  0  0  0
 19 34  1  0  0  0  0
 20 22  2  0  0  0  0
 20 39  1  0  0  0  0
 21 23  2  0  0  0  0
 21 40  1  0  0  0  0
 22 48  1  0  0  0  0
 23 41  1  0  0  0  0
 24 58  1  0  0  0  0
 25 26  2  0  0  0  0
 25 59  1  0  0  0  0
 26 51  1  0  0  0  0
 27 82  1  0  0  0  0
 28 83  1  0  0  0  0
 29 31  2  0  0  0  0
 29 82  1  0  0  0  0
 30 84  1  0  0  0  0
 31 85  1  0  0  0  0
 32 67  2  0  0  0  0
 33 68  1  0  0  0  0
 33 71  1  0  0  0  0
 34 72  1  0  0  0  0
 34 77  2  0  0  0  0
 35 49  1  0  0  0  0
 35 73  1  0  0  0  0
 35 78  2  0  0  0  0
 36 63  1  0  0  0  0
 36 69  1  0  0  0  0
 36 79  2  0  0  0  0
 37 64  1  0  0  0  0
 37 74  1  0  0  0  0
 37 80  2  0  0  0  0
 38 70  1  0  0  0  0
 38 75  1  0  0  0  0
 38 81  2  0  0  0  0
 39 42  1  0  0  0  0
 40 49  1  0  0  0  0
 41 69  1  0  0  0  0
 42 44  1  0  0  0  0
 43 45  1  0  0  0  0
 43 46  1  0  0  0  0
 44 48  1  0  0  0  0
 45 50  1  0  0  0  0
 46 70  1  0  0  0  0
 47 50  1  0  0  0  0
 47 70  1  0  0  0  0
 48 73  1  0  0  0  0
 49 69  1  0  0  0  0
 50 68  1  0  0  0  0
 52 64  1  0  0  0  0
 53 65  1  0  0  0  0
 54 66  1  0  0  0  0
 55 66  1  0  0  0  0
 56 66  1  0  0  0  0
 57 76  1  0  0  0  0
 58 60  1  0  0  0  0
 59 75  1  0  0  0  0
 60 65  1  0  0  0  0
 61 62  1  0  0  0  0
 61 65  1  0  0  0  0
 62 83  1  0  0  0  0
 63 66  1  0  0  0  0
 63 74  1  0  0  0  0
 64 76  1  0  0  0  0
 67 68  1  0  0  0  0
M  CHG  1  76   1
M  ISO  4  38 100  62 101  75 100  83 101
M  END
> <Batch ID>
0133

> <Smiles>
CNC(C)C(=O)NC(C(=O)N1Cc2cc([101O:1][101CH2:1]CC(C)CCc3ccc(C[100NH:0][100C:0](=O)N4CCCC(n5nc(-c6ccc(Oc7ccc(F)cc7F)cc6)c(C(N)=O)c5N)C4)c(C)c3)ccc2CC1C(=O)NC1CCCc2ccccc21)C(C)(C)C

> <Shape>
0.260

> <Color>
0.161

> <Negative vol penalty>
0.000

$$$$

  -OEChem-04052302303D

 85 94  0     1  0  0  0  0  0999 V2000
  -19.8110  -34.4325   22.1384 C   0  0  0  0  0  0  0  0  0  0  0  0
  -21.1097  -34.0472   21.8214 C   0  0  0  0  0  0  0  0  0  0  0  0
  -34.8550  -28.0578   20.4030 C   0  0  0  0  0  0  0  0  0  0  0  0
  -26.3918  -18.6720   20.1358 C   0  0  0  0  0  0  0  0  0  0  0  0
  -28.1987  -17.4948   21.2250 C   0  0  0  0  0  0  0  0  0  0  0  0
  -19.0071  -33.5978   22.9136 C   0  0  0  0  0  0  0  0  0  0  0  0
  -21.6056  -32.8275   22.2804 C   0  0  0  0  0  0  0  0  0  0  0  0
  -33.9791  -28.4017   21.4326 C   0  0  0  0  0  0  0  0  0  0  0  0
  -25.5044  -29.1084   19.3695 C   0  0  0  0  0  0  0  0  0  0  0  0
  -35.2948  -26.7405   20.2723 C   0  0  0  0  0  0  0  0  0  0  0  0
  -25.6551  -17.4889   20.0791 C   0  0  0  0  0  0  0  0  0  0  0  0
  -27.4620  -16.3117   21.1684 C   0  0  0  0  0  0  0  0  0  0  0  0
  -26.8820  -28.9237   19.4773 C   0  0  0  0  0  0  0  0  0  0  0  0
  -26.7134  -13.9508   18.8669 C   0  0  0  0  0  0  0  0  0  0  0  0
  -27.3752  -12.7945   18.4540 C   0  0  0  0  0  0  0  0  0  0  0  0
  -33.9829  -26.1111   22.2010 C   0  0  0  0  0  0  0  0  0  0  0  0
  -26.5101  -27.0663   20.9710 C   0  0  0  0  0  0  0  0  0  0  0  0
  -26.8678  -11.7478   20.5716 C   0  0  0  0  0  0  0  0  0  0  0  0
  -27.6636  -18.6749   20.7087 C   0  0  0  0  0  0  0  0  0  0  0  0
  -28.4234  -20.8510   21.8019 C   0  0  0  0  0  0  0  0  0  0  0  0
  -33.5431  -27.4284   22.3316 C   0  0  0  0  0  0  0  0  0  0  0  0
  -19.4902  -32.3628   23.3743 C   0  0  0  0  0  0  0  0  0  0  0  0
  -24.6180  -28.2789   20.0714 C   0  0  0  0  0  0  0  0  0  0  0  0
  -20.8079  -31.9761   23.0637 C   0  0  0  0  0  0  0  0  0  0  0  0
  -25.1216  -27.2410   20.8684 C   0  0  0  0  0  0  0  0  0  0  0  0
  -34.8588  -25.7672   21.1713 C   0  0  0  0  0  0  0  0  0  0  0  0
  -26.1902  -16.3087   20.5954 C   0  0  0  0  0  0  0  0  0  0  0  0
  -27.3852  -27.9044   20.2804 C   0  0  0  0  0  0  0  0  0  0  0  0
  -26.1289  -14.0057   20.1323 C   0  0  0  0  0  0  0  0  0  0  0  0
  -27.4524  -11.6930   19.3062 C   0  0  0  0  0  0  0  0  0  0  0  0
  -26.2061  -12.9042   20.9846 C   0  0  0  0  0  0  0  0  0  0  0  0
  -28.4253  -19.8966   20.7670 C   0  0  0  0  0  0  0  0  0  0  0  0
  -29.3064  -21.8153   21.3813 C   0  0  0  0  0  0  0  0  0  0  0  0
  -27.6893  -20.8645   23.0334 C   0  0  0  0  0  0  0  0  0  0  0  0
  -22.4283  -28.7376   22.3294 C   0  0  0  0  0  0  0  0  0  0  0  0
  -21.7983  -25.5983   21.8097 C   0  0  0  0  0  0  0  0  0  0  0  0
  -22.9064  -22.5650   20.7059 C   0  0  0  0  0  0  0  0  0  0  0  0
  -34.1856  -23.2876   19.1074 C   0  0  0  0  0  0  0  0  0  0  0  0
  -18.6001  -31.5158   24.2488 C   0  0  0  0  0  0  0  0  0  0  0  0
  -23.1339  -28.4743   19.9235 C   0  0  0  0  0  0  0  0  0  0  0  0
  -24.2118  -26.3104   21.6265 C   0  0  0  0  0  0  0  0  0  0  0  0
  -19.0739  -30.0708   24.3818 C   0  0  0  0  0  0  0  0  0  0  0  0
  -32.3666  -28.9103   25.3827 C   0  0  0  0  0  0  0  0  0  0  0  0
  -31.5113  -22.5241   16.8844 C   0  0  0  0  0  0  0  0  0  0  0  0
  -20.5711  -30.0242   24.6699 C   0  0  0  0  0  0  0  0  0  0  0  0
  -30.4733  -21.8459   17.7802 C   0  0  0  0  0  0  0  0  0  0  0  0
  -33.0297  -27.5813   24.9809 C   0  0  0  0  0  0  0  0  0  0  0  0
  -32.4605  -29.3389   23.9079 C   0  0  0  0  0  0  0  0  0  0  0  0
  -32.9360  -22.1556   17.2926 C   0  0  0  0  0  0  0  0  0  0  0  0
  -32.2166  -21.7164   19.6085 C   0  0  0  0  0  0  0  0  0  0  0  0
  -21.3733  -30.6494   23.5222 C   0  0  1  0  0  0  0  0  0  0  0  0
  -22.3361  -27.8960   21.0881 C   0  0  1  0  0  0  0  0  0  0  0  0
  -30.7662  -22.1019   19.2708 C   0  0  2  0  0  0  0  0  0  0  0  0
  -32.5353  -27.8236   23.5131 C   0  0  0  0  0  0  0  0  0  0  0  0
  -22.1770  -20.1785   20.4412 C   0  0  0  0  0  0  0  0  0  0  0  0
  -22.1565  -25.1588   24.8078 C   0  0  0  0  0  0  0  0  0  0  0  0
  -22.3642  -22.7056   24.3528 C   0  0  0  0  0  0  0  0  0  0  0  0
  -20.2489  -23.9021   23.7898 C   0  0  0  0  0  0  0  0  0  0  0  0
  -23.2629  -22.6602   17.7694 C   0  0  0  0  0  0  0  0  0  0  0  0
  -35.3298  -24.3592   21.0313 C   0  0  0  0  0  0  0  0  0  0  0  0
  -31.1615  -27.2021   23.2238 C   0  0  0  0  0  0  0  0  0  0  0  0
  -30.6019  -27.7445   21.9124 C   0  0  0  0  0  0  0  0  0  0  0  0
  -29.2161  -27.1870   21.6179 C   0  0  0  0  0  0  0  0  0  1  0  0
  -22.3094  -24.2968   22.3789 C   0  0  1  0  0  0  0  0  0  0  0  0
  -22.2808  -21.5418   19.7753 C   0  0  2  0  0  0  0  0  0  0  0  0
  -21.7872  -24.0344   23.8197 C   0  0  0  0  0  0  0  0  0  0  0  0
  -29.2443  -20.2249   19.7643 N   0  0  0  0  0  0  0  0  0  0  0  0
  -29.7653  -21.3964   20.1672 N   0  0  0  0  0  0  0  0  0  0  0  0
  -22.7687  -26.5459   21.4545 N   0  0  0  0  0  0  0  0  0  0  0  0
  -33.1490  -22.4239   18.7169 N   0  0  0  0  0  0  0  0  0  0  0  0
  -29.7272  -22.9723   21.9352 N   0  0  0  0  0  0  0  0  0  0  0  0
  -26.8259  -19.7953   23.3084 N   0  0  0  0  0  0  0  0  0  0  0  0
  -21.4676  -29.7276   22.4106 N   0  0  0  0  0  0  0  0  0  0  0  0
  -21.9511  -23.2613   21.4156 N   0  0  0  0  0  0  0  0  0  0  0  0
  -34.3146  -23.4924   20.4756 N   0  0  0  0  0  0  0  0  0  0  0  0
  -23.0983  -21.3992   18.5374 N   0  3  0  0  0  0  0  0  0  0  0  0
  -27.7833  -21.8053   23.8578 O   0  0  0  0  0  0  0  0  0  0  0  0
  -23.3051  -28.5050   23.1533 O   0  0  0  0  0  0  0  0  0  0  0  0
  -20.5832  -25.7650   21.6782 O   0  0  0  0  0  0  0  0  0  0  0  0
  -24.1212  -22.7276   20.7970 O   0  0  0  0  0  0  0  0  0  0  0  0
  -34.9369  -23.8397   18.2964 O   0  0  0  0  0  0  0  0  0  0  0  0
  -25.4716  -15.1541   20.5405 O   0  0  0  0  0  0  0  0  0  0  0  0
  -28.7295  -27.7223   20.3879 O   0  0  0  0  0  0  0  0  0  1  0  0
  -28.0866  -10.5821   18.9089 F   0  0  0  0  0  0  0  0  0  0  0  0
  -25.6455  -12.9506   22.2009 F   0  0  0  0  0  0  0  0  0  0  0  0
  1  2  1  0  0  0  0
  1  6  2  0  0  0  0
  2  7  2  0  0  0  0
  3  8  2  0  0  0  0
  3 10  1  0  0  0  0
  4 11  2  0  0  0  0
  4 19  1  0  0  0  0
  5 12  1  0  0  0  0
  5 19  2  0  0  0  0
  6 22  1  0  0  0  0
  7 24  1  0  0  0  0
  8 21  1  0  0  0  0
  9 13  2  0  0  0  0
  9 23  1  0  0  0  0
 10 26  2  0  0  0  0
 11 27  1  0  0  0  0
 12 27  2  0  0  0  0
 13 28  1  0  0  0  0
 14 15  2  0  0  0  0
 14 29  1  0  0  0  0
 15 30  1  0  0  0  0
 16 21  2  0  0  0  0
 16 26  1  0  0  0  0
 17 25  1  0  0  0  0
 17 28  2  0  0  0  0
 18 30  2  0  0  0  0
 18 31  1  0  0  0  0
 19 32  1  0  0  0  0
 20 32  1  0  0  0  0
 20 33  2  0  0  0  0
 20 34  1  0  0  0  0
 21 54  1  0  0  0  0
 22 24  2  0  0  0  0
 22 39  1  0  0  0  0
 23 25  2  0  0  0  0
 23 40  1  0  0  0  0
 24 51  1  0  0  0  0
 25 41  1  0  0  0  0
 26 60  1  0  0  0  0
 27 82  1  0  0  0  0
 28 83  1  0  0  0  0
 29 31  2  0  0  0  0
 29 82  1  0  0  0  0
 30 84  1  0  0  0  0
 31 85  1  0  0  0  0
 32 67  2  0  0  0  0
 33 68  1  0  0  0  0
 33 71  1  0  0  0  0
 34 72  1  0  0  0  0
 34 77  2  0  0  0  0
 35 52  1  0  0  0  0
 35 73  1  0  0  0  0
 35 78  2  0  0  0  0
 36 64  1  0  0  0  0
 36 69  1  0  0  0  0
 36 79  2  0  0  0  0
 37 65  1  0  0  0  0
 37 74  1  0  0  0  0
 37 80  2  0  0  0  0
 38 70  1  0  0  0  0
 38 75  1  0  0  0  0
 38 81  2  0  0  0  0
 39 42  1  0  0  0  0
 40 52  1  0  0  0  0
 41 69  1  0  0  0  0
 42 45  1  0  0  0  0
 43 47  1  0  0  0  0
 43 48  1  0  0  0  0
 44 46  1  0  0  0  0
 44 49  1  0  0  0  0
 45 51  1  0  0  0  0
 46 53  1  0  0  0  0
 47 54  1  0  0  0  0
 48 54  1  0  0  0  0
 49 70  1  0  0  0  0
 50 53  1  0  0  0  0
 50 70  1  0  0  0  0
 51 73  1  0  0  0  0
 52 69  1  0  0  0  0
 53 68  1  0  0  0  0
 54 61  1  0  0  0  0
 55 65  1  0  0  0  0
 56 66  1  0  0  0  0
 57 66  1  0  0  0  0
 58 66  1  0  0  0  0
 59 76  1  0  0  0  0
 60 75  1  0  0  0  0
 61 62  1  0  0  0  0
 62 63  1  0  0  0  0
 63 83  1  0  0  0  0
 64 66  1  0  0  0  0
 64 74  1  0  0  0  0
 65 76  1  0  0  0  0
 67 68  1  0  0  0  0
M  CHG  1  76   1
M  ISO  4  38 100  63 101  75 100  83 101
M  END
> <Batch ID>
0133

> <Smiles>
CNC(C)C(=O)NC(C(=O)N1Cc2cc([101O:1][101CH2:1]CCC3(c4cccc(C[100NH:0][100C:0](=O)N5CCCC(n6nc(-c7ccc(Oc8ccc(F)cc8F)cc7)c(C(N)=O)c6N)C5)c4)CCC3)ccc2CC1C(=O)NC1CCCc2ccccc21)C(C)(C)C

> <Shape>
0.175

> <Color>
0.099

> <Negative vol penalty>
0.000

$$$$

  -OEChem-04052302303D

 88 96  0     1  0  0  0  0  0999 V2000
  -28.0472  -26.9082   20.5268 C   0  0  0  0  0  0  0  0  0  0  0  0
  -26.9805  -26.0241   20.4014 C   0  0  0  0  0  0  0  0  0  0  0  0
  -25.2030  -30.9479   24.9814 C   0  0  0  0  0  0  0  0  0  0  0  0
  -25.9268  -28.6429   24.9642 C   0  0  0  0  0  0  0  0  0  0  0  0
  -29.3033  -26.5578   20.0334 C   0  0  0  0  0  0  0  0  0  0  0  0
  -27.1689  -24.7893   19.7815 C   0  0  0  0  0  0  0  0  0  0  0  0
  -25.0013  -20.9862   22.3275 C   0  0  0  0  0  0  0  0  0  0  0  0
  -26.0255  -31.1980   26.0798 C   0  0  0  0  0  0  0  0  0  0  0  0
  -26.7494  -28.8931   26.0626 C   0  0  0  0  0  0  0  0  0  0  0  0
  -23.6219  -20.8348   22.1934 C   0  0  0  0  0  0  0  0  0  0  0  0
  -29.3103  -31.7557   26.6562 C   0  0  0  0  0  0  0  0  0  0  0  0
  -30.0874  -32.9137   26.6337 C   0  0  0  0  0  0  0  0  0  0  0  0
  -23.9777  -19.0680   20.5900 C   0  0  0  0  0  0  0  0  0  0  0  0
  -21.0434  -23.1429   16.8822 C   0  0  0  0  0  0  0  0  0  0  0  0
  -19.0090  -23.4837   18.7604 C   0  0  0  0  0  0  0  0  0  0  0  0
  -28.9881  -33.6905   28.6400 C   0  0  0  0  0  0  0  0  0  0  0  0
  -25.1535  -29.6703   24.4236 C   0  0  0  0  0  0  0  0  0  0  0  0
  -24.6434  -29.5278   21.9282 C   0  0  0  0  0  0  0  0  0  0  0  0
  -29.5095  -25.3142   19.4157 C   0  0  0  0  0  0  0  0  0  0  0  0
  -25.8808  -20.1856   21.5844 C   0  0  0  0  0  0  0  0  0  0  0  0
  -28.4286  -24.4225   19.2781 C   0  0  0  0  0  0  0  0  0  0  0  0
  -25.3679  -19.2094   20.7184 C   0  0  0  0  0  0  0  0  0  0  0  0
  -20.0046  -22.2154   16.9612 C   0  0  0  0  0  0  0  0  0  0  0  0
  -21.0650  -24.2408   17.7424 C   0  0  0  0  0  0  0  0  0  0  0  0
  -18.9874  -22.3858   17.9002 C   0  0  0  0  0  0  0  0  0  0  0  0
  -20.0478  -24.4112   18.6815 C   0  0  0  0  0  0  0  0  0  0  0  0
  -26.7987  -30.1707   26.6204 C   0  0  0  0  0  0  0  0  0  0  0  0
  -23.1098  -19.8776   21.3224 C   0  0  0  0  0  0  0  0  0  0  0  0
  -28.3719  -31.5650   27.6706 C   0  0  0  0  0  0  0  0  0  0  0  0
  -29.9264  -33.8811   27.6255 C   0  0  0  0  0  0  0  0  0  0  0  0
  -28.2109  -32.5325   28.6625 C   0  0  0  0  0  0  0  0  0  0  0  0
  -24.3036  -29.4111   23.2894 C   0  0  0  0  0  0  0  0  0  0  0  0
  -23.4990  -29.1725   21.2570 C   0  0  0  0  0  0  0  0  0  0  0  0
  -25.8828  -29.9219   21.3246 C   0  0  0  0  0  0  0  0  0  0  0  0
  -28.1054  -20.7432   19.3836 C   0  0  0  0  0  0  0  0  0  0  0  0
  -28.6715  -17.5661   19.7117 C   0  0  0  0  0  0  0  0  0  0  0  0
  -27.4950  -14.4912   20.6106 C   0  0  0  0  0  0  0  0  0  0  0  0
  -19.1100  -25.8205   20.5472 C   0  0  0  0  0  0  0  0  0  0  0  0
  -30.8740  -24.9992   18.8557 C   0  0  0  0  0  0  0  0  0  0  0  0
  -27.3662  -20.3431   21.7605 C   0  0  0  0  0  0  0  0  0  0  0  0
  -26.2695  -18.3110   19.9132 C   0  0  0  0  0  0  0  0  0  0  0  0
  -31.0786  -23.5184   18.5467 C   0  0  0  0  0  0  0  0  0  0  0  0
  -18.7851  -28.4317   22.9458 C   0  0  0  0  0  0  0  0  0  0  0  0
  -29.8766  -22.9594   17.7920 C   0  0  0  0  0  0  0  0  0  0  0  0
  -20.2198  -28.9289   23.1370 C   0  0  0  0  0  0  0  0  0  0  0  0
  -18.7315  -26.9183   22.7441 C   0  0  0  0  0  0  0  0  0  0  0  0
  -21.0343  -26.9002   21.8689 C   0  0  0  0  0  0  0  0  0  0  0  0
  -28.5993  -23.0638   18.6340 C   0  0  1  0  0  0  0  0  0  0  0  0
  -28.1673  -19.8239   20.5705 C   0  0  1  0  0  0  0  0  0  0  0  0
  -21.1450  -28.4270   22.0110 C   0  0  2  0  0  0  0  0  0  0  0  0
  -20.0028  -21.0476   16.0301 C   0  0  0  0  0  0  0  0  0  0  0  0
  -22.1899  -25.2186   17.6355 C   0  0  0  0  0  0  0  0  0  0  0  0
  -18.8095  -16.8269   23.0452 C   0  0  0  0  0  0  0  0  0  0  0  0
  -28.1774  -12.0794   20.7326 C   0  0  0  0  0  0  0  0  0  0  0  0
  -28.3413  -17.3222   16.6882 C   0  0  0  0  0  0  0  0  0  0  0  0
  -28.0834  -14.8497   16.9858 C   0  0  0  0  0  0  0  0  0  0  0  0
  -30.2133  -15.9682   17.6458 C   0  0  0  0  0  0  0  0  0  0  0  0
  -18.6449  -19.9131   23.2586 C   0  0  0  0  0  0  0  0  0  0  0  0
  -27.1052  -14.4090   23.5432 C   0  0  0  0  0  0  0  0  0  0  0  0
  -17.8544  -21.3961   18.0043 C   0  0  0  0  0  0  0  0  0  0  0  0
  -19.9858  -17.7858   22.8970 C   0  0  0  0  0  0  0  0  0  0  0  0
  -18.2220  -20.1119   18.7564 C   0  0  0  0  0  0  0  0  0  0  0  0
  -18.7389  -20.3758   20.1765 C   0  0  0  0  0  0  0  0  0  0  0  0
  -19.0610  -19.0588   20.8974 C   0  0  0  0  0  0  0  0  0  0  0  0
  -20.9598  -20.0330   22.3270 C   0  0  0  0  0  0  0  0  0  1  0  0
  -28.1436  -16.3128   19.0563 C   0  0  1  0  0  0  0  0  0  0  0  0
  -28.0907  -13.4000   21.4818 C   0  0  2  0  0  0  0  0  0  0  0  0
  -28.6782  -16.1313   17.6076 C   0  0  0  0  0  0  0  0  0  0  0  0
  -19.6513  -19.2022   22.3320 C   0  0  1  0  0  0  0  0  0  0  0  0
  -23.0420  -29.0131   23.4736 N   0  0  0  0  0  0  0  0  0  0  0  0
  -22.5790  -28.8766   22.2194 N   0  0  0  0  0  0  0  0  0  0  0  0
  -27.7145  -18.5078   20.1153 N   0  0  0  0  0  0  0  0  0  0  0  0
  -19.6294  -26.5166   21.6591 N   0  0  0  0  0  0  0  0  0  0  0  0
  -23.2000  -29.0876   19.9433 N   0  0  0  0  0  0  0  0  0  0  0  0
  -26.9574  -30.2539   22.1608 N   0  0  0  0  0  0  0  0  0  0  0  0
  -20.0520  -25.5199   19.5638 N   0  0  0  0  0  0  0  0  0  0  0  0
  -28.5681  -22.0204   19.6365 N   0  0  0  0  0  0  0  0  0  0  0  0
  -28.4714  -15.2124   19.9564 N   0  0  0  0  0  0  0  0  0  0  0  0
  -27.2558  -13.1957   22.6993 N   0  3  0  0  0  0  0  0  0  0  0  0
  -26.0278  -29.9938   20.0807 O   0  0  0  0  0  0  0  0  0  0  0  0
  -27.6714  -20.3243   18.3169 O   0  0  0  0  0  0  0  0  0  0  0  0
  -29.8879  -17.7012   19.8665 O   0  0  0  0  0  0  0  0  0  0  0  0
  -26.2846  -14.6822   20.5167 O   0  0  0  0  0  0  0  0  0  0  0  0
  -17.9124  -25.5376   20.4603 O   0  0  0  0  0  0  0  0  0  0  0  0
  -27.6016  -30.4145   27.6920 O   0  0  0  0  0  0  0  0  0  0  0  0
  -21.7543  -19.7272   21.1882 O   0  0  0  0  0  0  0  0  0  1  0  0
  -30.6739  -34.9924   27.6047 F   0  0  0  0  0  0  0  0  0  0  0  0
  -27.3119  -32.3544   29.6402 F   0  0  0  0  0  0  0  0  0  0  0  0
  1  2  1  0  0  0  0
  1  5  2  0  0  0  0
  2  6  2  0  0  0  0
  3  8  2  0  0  0  0
  3 17  1  0  0  0  0
  4  9  1  0  0  0  0
  4 17  2  0  0  0  0
  5 19  1  0  0  0  0
  6 21  1  0  0  0  0
  7 10  2  0  0  0  0
  7 20  1  0  0  0  0
  8 27  1  0  0  0  0
  9 27  2  0  0  0  0
 10 28  1  0  0  0  0
 11 12  2  0  0  0  0
 11 29  1  0  0  0  0
 12 30  1  0  0  0  0
 13 22  1  0  0  0  0
 13 28  2  0  0  0  0
 14 23  1  0  0  0  0
 14 24  2  0  0  0  0
 15 25  1  0  0  0  0
 15 26  2  0  0  0  0
 16 30  2  0  0  0  0
 16 31  1  0  0  0  0
 17 32  1  0  0  0  0
 18 32  1  0  0  0  0
 18 33  2  0  0  0  0
 18 34  1  0  0  0  0
 19 21  2  0  0  0  0
 19 39  1  0  0  0  0
 20 22  2  0  0  0  0
 20 40  1  0  0  0  0
 21 48  1  0  0  0  0
 22 41  1  0  0  0  0
 23 25  2  0  0  0  0
 23 51  1  0  0  0  0
 24 26  1  0  0  0  0
 24 52  1  0  0  0  0
 25 60  1  0  0  0  0
 26 76  1  0  0  0  0
 27 85  1  0  0  0  0
 28 86  1  0  0  0  0
 29 31  2  0  0  0  0
 29 85  1  0  0  0  0
 30 87  1  0  0  0  0
 31 88  1  0  0  0  0
 32 70  2  0  0  0  0
 33 71  1  0  0  0  0
 33 74  1  0  0  0  0
 34 75  1  0  0  0  0
 34 80  2  0  0  0  0
 35 49  1  0  0  0  0
 35 77  1  0  0  0  0
 35 81  2  0  0  0  0
 36 66  1  0  0  0  0
 36 72  1  0  0  0  0
 36 82  2  0  0  0  0
 37 67  1  0  0  0  0
 37 78  1  0  0  0  0
 37 83  2  0  0  0  0
 38 73  1  0  0  0  0
 38 76  1  0  0  0  0
 38 84  2  0  0  0  0
 39 42  1  0  0  0  0
 40 49  1  0  0  0  0
 41 72  1  0  0  0  0
 42 44  1  0  0  0  0
 43 45  1  0  0  0  0
 43 46  1  0  0  0  0
 44 48  1  0  0  0  0
 45 50  1  0  0  0  0
 46 73  1  0  0  0  0
 47 50  1  0  0  0  0
 47 73  1  0  0  0  0
 48 77  1  0  0  0  0
 49 72  1  0  0  0  0
 50 71  1  0  0  0  0
 53 61  1  0  0  0  0
 54 67  1  0  0  0  0
 55 68  1  0  0  0  0
 56 68  1  0  0  0  0
 57 68  1  0  0  0  0
 58 69  1  0  0  0  0
 59 79  1  0  0  0  0
 60 62  1  0  0  0  0
 61 69  1  0  0  0  0
 62 63  1  0  0  0  0
 63 64  1  0  0  0  0
 64 69  1  0  0  0  0
 65 69  1  0  0  0  0
 65 86  1  0  0  0  0
 66 68  1  0  0  0  0
 66 78  1  0  0  0  0
 67 79  1  0  0  0  0
 70 71  1  0  0  0  0
M  CHG  1  79   1
M  ISO  4  38 100  65 101  76 100  86 101
M  END
> <Batch ID>
0133

> <Smiles>
CCC(C)(CCCCc1cc([100NH:0][100C:0](=O)N2CCCC(n3nc(-c4ccc(Oc5ccc(F)cc5F)cc4)c(C(N)=O)c3N)C2)c(C)cc1C)[101CH2:1][101O:1]c1ccc2c(c1)CN(C(=O)C(NC(=O)C(C)NC)C(C)(C)C)C(C(=O)NC1CCCc3ccccc31)C2

> <Shape>
0.231

> <Color>
0.048

> <Negative vol penalty>
0.000

$$$$

  -OEChem-04052302303D

 83 91  0     1  0  0  0  0  0999 V2000
  -18.9886   -8.3973   20.9127 C   0  0  0  0  0  0  0  0  0  0  0  0
  -18.7710   -9.6263   20.2982 C   0  0  0  0  0  0  0  0  0  0  0  0
  -18.3709  -26.7205   24.0505 C   0  0  0  0  0  0  0  0  0  0  0  0
  -28.6870  -25.0793   20.3229 C   0  0  0  0  0  0  0  0  0  0  0  0
  -26.5305  -23.9935   20.2378 C   0  0  0  0  0  0  0  0  0  0  0  0
  -19.9315   -8.2871   21.9339 C   0  0  0  0  0  0  0  0  0  0  0  0
  -19.4954  -10.7461   20.7054 C   0  0  0  0  0  0  0  0  0  0  0  0
  -22.3160  -16.8084   18.1345 C   0  0  0  0  0  0  0  0  0  0  0  0
  -18.4894  -25.6859   23.1225 C   0  0  0  0  0  0  0  0  0  0  0  0
  -18.9160  -27.9737   23.7713 C   0  0  0  0  0  0  0  0  0  0  0  0
  -29.2609  -23.9021   20.8030 C   0  0  0  0  0  0  0  0  0  0  0  0
  -27.1043  -22.8162   20.7178 C   0  0  0  0  0  0  0  0  0  0  0  0
  -22.3260  -18.1807   18.3803 C   0  0  0  0  0  0  0  0  0  0  0  0
  -28.1151  -21.5706   23.6940 C   0  0  0  0  0  0  0  0  0  0  0  0
  -27.4419  -20.8876   24.7069 C   0  0  0  0  0  0  0  0  0  0  0  0
  -23.9854  -17.8543   20.1005 C   0  0  0  0  0  0  0  0  0  0  0  0
  -19.6984  -27.1578   21.6361 C   0  0  0  0  0  0  0  0  0  0  0  0
  -27.2590  -18.9483   23.2777 C   0  0  0  0  0  0  0  0  0  0  0  0
  -27.3218  -25.1251   20.0404 C   0  0  0  0  0  0  0  0  0  0  0  0
  -26.5851  -26.7304   18.1999 C   0  0  0  0  0  0  0  0  0  0  0  0
  -20.6746   -9.4040   22.3472 C   0  0  0  0  0  0  0  0  0  0  0  0
  -23.1339  -15.9460   18.8786 C   0  0  0  0  0  0  0  0  0  0  0  0
  -20.4480  -10.6510   21.7340 C   0  0  0  0  0  0  0  0  0  0  0  0
  -23.9857  -16.4717   19.8605 C   0  0  0  0  0  0  0  0  0  0  0  0
  -19.1532  -25.9046   21.9153 C   0  0  0  0  0  0  0  0  0  0  0  0
  -19.5798  -28.1924   22.5641 C   0  0  0  0  0  0  0  0  0  0  0  0
  -28.4696  -22.7706   21.0004 C   0  0  0  0  0  0  0  0  0  0  0  0
  -23.1586  -18.7035   19.3654 C   0  0  0  0  0  0  0  0  0  0  0  0
  -28.3601  -20.9424   22.4729 C   0  0  0  0  0  0  0  0  0  0  0  0
  -27.0139  -19.5764   24.4988 C   0  0  0  0  0  0  0  0  0  0  0  0
  -27.9321  -19.6313   22.2647 C   0  0  0  0  0  0  0  0  0  0  0  0
  -26.7283  -26.3410   19.5451 C   0  0  0  0  0  0  0  0  0  0  0  0
  -25.9654  -27.9546   18.2609 C   0  0  0  0  0  0  0  0  0  0  0  0
  -26.9772  -26.0467   17.0022 C   0  0  0  0  0  0  0  0  0  0  0  0
  -22.6145  -13.5128   20.8568 C   0  0  0  0  0  0  0  0  0  0  0  0
  -25.8468  -13.2549   20.7644 C   0  0  0  0  0  0  0  0  0  0  0  0
  -28.8592  -14.7641   20.2219 C   0  0  0  0  0  0  0  0  0  0  0  0
  -22.4314  -30.5364   22.3471 C   0  0  0  0  0  0  0  0  0  0  0  0
  -21.6490   -9.2461   23.4875 C   0  0  0  0  0  0  0  0  0  0  0  0
  -23.1311  -14.4712   18.5829 C   0  0  0  0  0  0  0  0  0  0  0  0
  -24.8980  -15.5909   20.6732 C   0  0  0  0  0  0  0  0  0  0  0  0
  -22.6419  -10.3997   23.6044 C   0  0  0  0  0  0  0  0  0  0  0  0
  -25.5178  -31.7881   21.0885 C   0  0  0  0  0  0  0  0  0  0  0  0
  -21.9200  -11.7388   23.4936 C   0  0  0  0  0  0  0  0  0  0  0  0
  -26.1651  -30.5691   20.4288 C   0  0  0  0  0  0  0  0  0  0  0  0
  -24.7512  -31.4052   22.3525 C   0  0  0  0  0  0  0  0  0  0  0  0
  -24.4009  -29.1152   21.5116 C   0  0  0  0  0  0  0  0  0  0  0  0
  -21.2317  -11.8833   22.1309 C   0  0  1  0  0  0  0  0  0  0  0  0
  -23.6270  -13.6264   19.7524 C   0  0  1  0  0  0  0  0  0  0  0  0
  -25.1386  -29.4430   20.2022 C   0  0  2  0  0  0  0  0  0  0  0  0
  -31.3265  -14.3074   20.2598 C   0  0  0  0  0  0  0  0  0  0  0  0
  -25.8174  -13.3632   23.8136 C   0  0  0  0  0  0  0  0  0  0  0  0
  -28.2706  -13.8595   23.7502 C   0  0  0  0  0  0  0  0  0  0  0  0
  -27.4130  -11.6993   22.8441 C   0  0  0  0  0  0  0  0  0  0  0  0
  -29.1374  -15.3921   17.3431 C   0  0  0  0  0  0  0  0  0  0  0  0
  -19.2796  -24.7859   20.9118 C   0  0  0  0  0  0  0  0  0  0  0  0
  -20.1632  -29.5323   22.2660 C   0  0  0  0  0  0  0  0  0  0  0  0
  -20.5402  -23.9324   21.0912 C   0  0  0  0  0  0  0  0  0  0  0  0
  -20.6118  -22.7561   20.1124 C   0  0  0  0  0  0  0  0  0  0  0  0
  -21.8965  -21.9525   20.3063 C   0  0  0  0  0  0  0  0  0  0  0  0
  -21.9580  -20.7564   19.3669 C   0  0  0  0  0  0  0  0  0  1  0  0
  -26.9889  -13.8367   21.5620 C   0  0  1  0  0  0  0  0  0  0  0  0
  -30.0673  -14.3376   19.4076 C   0  0  2  0  0  0  0  0  0  0  0  0
  -27.1040  -13.2063   22.9787 C   0  0  0  0  0  0  0  0  0  0  0  0
  -26.2391  -27.2446   20.3984 N   0  0  0  0  0  0  0  0  0  0  0  0
  -25.7825  -28.2141   19.5873 N   0  0  0  0  0  0  0  0  0  0  0  0
  -24.8544  -14.1550   20.3511 N   0  0  0  0  0  0  0  0  0  0  0  0
  -23.7932  -30.3338   22.0690 N   0  0  0  0  0  0  0  0  0  0  0  0
  -25.5645  -28.8237   17.3089 N   0  0  0  0  0  0  0  0  0  0  0  0
  -27.6022  -24.7978   17.1199 N   0  0  0  0  0  0  0  0  0  0  0  0
  -22.1997  -12.2190   21.1088 N   0  0  0  0  0  0  0  0  0  0  0  0
  -28.1833  -13.6793   20.7392 N   0  0  0  0  0  0  0  0  0  0  0  0
  -21.5906  -29.4729   22.0425 N   0  0  0  0  0  0  0  0  0  0  0  0
  -30.2885  -15.2815   18.2757 N   0  3  0  0  0  0  0  0  0  0  0  0
  -26.7939  -26.5364   15.8619 O   0  0  0  0  0  0  0  0  0  0  0  0
  -22.2387  -14.5239   21.4383 O   0  0  0  0  0  0  0  0  0  0  0  0
  -25.8392  -12.0477   20.5112 O   0  0  0  0  0  0  0  0  0  0  0  0
  -28.5486  -15.9418   20.3859 O   0  0  0  0  0  0  0  0  0  0  0  0
  -21.9963  -31.5891   22.8260 O   0  0  0  0  0  0  0  0  0  0  0  0
  -29.0292  -21.6216   21.4685 O   0  0  0  0  0  0  0  0  0  0  0  0
  -23.1699  -20.0425   19.6078 O   0  0  0  0  0  0  0  0  0  1  0  0
  -26.3688  -18.9202   25.4721 F   0  0  0  0  0  0  0  0  0  0  0  0
  -28.1657  -19.0222   21.0942 F   0  0  0  0  0  0  0  0  0  0  0  0
  1  2  1  0  0  0  0
  1  6  2  0  0  0  0
  2  7  2  0  0  0  0
  3  9  2  0  0  0  0
  3 10  1  0  0  0  0
  4 11  2  0  0  0  0
  4 19  1  0  0  0  0
  5 12  1  0  0  0  0
  5 19  2  0  0  0  0
  6 21  1  0  0  0  0
  7 23  1  0  0  0  0
  8 13  2  0  0  0  0
  8 22  1  0  0  0  0
  9 25  1  0  0  0  0
 10 26  2  0  0  0  0
 11 27  1  0  0  0  0
 12 27  2  0  0  0  0
 13 28  1  0  0  0  0
 14 15  2  0  0  0  0
 14 29  1  0  0  0  0
 15 30  1  0  0  0  0
 16 24  1  0  0  0  0
 16 28  2  0  0  0  0
 17 25  2  0  0  0  0
 17 26  1  0  0  0  0
 18 30  2  0  0  0  0
 18 31  1  0  0  0  0
 19 32  1  0  0  0  0
 20 32  1  0  0  0  0
 20 33  2  0  0  0  0
 20 34  1  0  0  0  0
 21 23  2  0  0  0  0
 21 39  1  0  0  0  0
 22 24  2  0  0  0  0
 22 40  1  0  0  0  0
 23 48  1  0  0  0  0
 24 41  1  0  0  0  0
 25 56  1  0  0  0  0
 26 57  1  0  0  0  0
 27 80  1  0  0  0  0
 28 81  1  0  0  0  0
 29 31  2  0  0  0  0
 29 80  1  0  0  0  0
 30 82  1  0  0  0  0
 31 83  1  0  0  0  0
 32 65  2  0  0  0  0
 33 66  1  0  0  0  0
 33 69  1  0  0  0  0
 34 70  1  0  0  0  0
 34 75  2  0  0  0  0
 35 49  1  0  0  0  0
 35 71  1  0  0  0  0
 35 76  2  0  0  0  0
 36 62  1  0  0  0  0
 36 67  1  0  0  0  0
 36 77  2  0  0  0  0
 37 63  1  0  0  0  0
 37 72  1  0  0  0  0
 37 78  2  0  0  0  0
 38 68  1  0  0  0  0
 38 73  1  0  0  0  0
 38 79  2  0  0  0  0
 39 42  1  0  0  0  0
 40 49  1  0  0  0  0
 41 67  1  0  0  0  0
 42 44  1  0  0  0  0
 43 45  1  0  0  0  0
 43 46  1  0  0  0  0
 44 48  1  0  0  0  0
 45 50  1  0  0  0  0
 46 68  1  0  0  0  0
 47 50  1  0  0  0  0
 47 68  1  0  0  0  0
 48 71  1  0  0  0  0
 49 67  1  0  0  0  0
 50 66  1  0  0  0  0
 51 63  1  0  0  0  0
 52 64  1  0  0  0  0
 53 64  1  0  0  0  0
 54 64  1  0  0  0  0
 55 74  1  0  0  0  0
 56 58  1  0  0  0  0
 57 73  1  0  0  0  0
 58 59  1  0  0  0  0
 59 60  1  0  0  0  0
 60 61  1  0  0  0  0
 61 81  1  0  0  0  0
 62 64  1  0  0  0  0
 62 72  1  0  0  0  0
 63 74  1  0  0  0  0
 65 66  1  0  0  0  0
M  CHG  1  74   1
M  ISO  4  38 100  61 101  73 100  81 101
M  END
> <Batch ID>
0133

> <Smiles>
CNC(C)C(=O)NC(C(=O)N1Cc2cc([101O:1][101CH2:1]CCCCc3cccc(C[100NH:0][100C:0](=O)N4CCCC(n5nc(-c6ccc(Oc7ccc(F)cc7F)cc6)c(C(N)=O)c5N)C4)c3)ccc2CC1C(=O)NC1CCCc2ccccc21)C(C)(C)C

> <Shape>
0.219

> <Color>
0.081

> <Negative vol penalty>
0.000

$$$$

  -OEChem-04052302303D

 85 93  0     1  0  0  0  0  0999 V2000
  -32.2562  -15.0064   20.5114 C   0  0  0  0  0  0  0  0  0  0  0  0
  -31.3374  -15.9134   21.0271 C   0  0  0  0  0  0  0  0  0  0  0  0
  -28.2518  -22.1779   18.2997 C   0  0  0  0  0  0  0  0  0  0  0  0
  -26.8695  -21.7262   20.2290 C   0  0  0  0  0  0  0  0  0  0  0  0
  -31.8075  -13.8487   19.8793 C   0  0  0  0  0  0  0  0  0  0  0  0
  -29.9699  -15.6574   20.9214 C   0  0  0  0  0  0  0  0  0  0  0  0
  -25.1690  -19.0570   22.5095 C   0  0  0  0  0  0  0  0  0  0  0  0
  -19.2310  -26.2859   23.3748 C   0  0  0  0  0  0  0  0  0  0  0  0
  -19.1826  -27.5881   23.8722 C   0  0  0  0  0  0  0  0  0  0  0  0
  -29.0231  -21.0523   18.5887 C   0  0  0  0  0  0  0  0  0  0  0  0
  -27.6408  -20.6005   20.5180 C   0  0  0  0  0  0  0  0  0  0  0  0
  -24.3352  -20.0022   21.9137 C   0  0  0  0  0  0  0  0  0  0  0  0
  -31.1353  -18.0937   18.6125 C   0  0  0  0  0  0  0  0  0  0  0  0
  -31.4659  -17.2454   17.5558 C   0  0  0  0  0  0  0  0  0  0  0  0
  -22.7237  -18.2715   21.4373 C   0  0  0  0  0  0  0  0  0  0  0  0
  -19.8077  -27.1417   21.1903 C   0  0  0  0  0  0  0  0  0  0  0  0
  -29.1191  -16.8532   17.1364 C   0  0  0  0  0  0  0  0  0  0  0  0
  -27.1750  -22.5149   19.1198 C   0  0  0  0  0  0  0  0  0  0  0  0
  -25.2283  -23.7359   18.0121 C   0  0  0  0  0  0  0  0  0  0  0  0
  -30.4333  -13.5852   19.7552 C   0  0  0  0  0  0  0  0  0  0  0  0
  -24.7907  -17.7078   22.5641 C   0  0  0  0  0  0  0  0  0  0  0  0
  -29.4975  -14.4829   20.3082 C   0  0  0  0  0  0  0  0  0  0  0  0
  -23.5534  -17.3116   22.0367 C   0  0  0  0  0  0  0  0  0  0  0  0
  -19.5436  -26.0626   22.0339 C   0  0  0  0  0  0  0  0  0  0  0  0
  -19.4467  -28.6671   23.0287 C   0  0  0  0  0  0  0  0  0  0  0  0
  -19.7593  -28.4439   21.6877 C   0  0  0  0  0  0  0  0  0  0  0  0
  -28.7177  -20.2636   19.6978 C   0  0  0  0  0  0  0  0  0  0  0  0
  -23.1136  -19.6091   21.3749 C   0  0  0  0  0  0  0  0  0  0  0  0
  -29.7966  -18.3218   18.9312 C   0  0  0  0  0  0  0  0  0  0  0  0
  -30.4578  -16.6251   16.8177 C   0  0  0  0  0  0  0  0  0  0  0  0
  -28.7885  -17.7016   18.1931 C   0  0  0  0  0  0  0  0  0  0  0  0
  -26.3782  -23.6779   18.8221 C   0  0  0  0  0  0  0  0  0  0  0  0
  -24.8480  -25.0552   18.0496 C   0  0  0  0  0  0  0  0  0  0  0  0
  -24.5633  -22.6907   17.2903 C   0  0  0  0  0  0  0  0  0  0  0  0
  -25.9758  -14.9971   21.4018 C   0  0  0  0  0  0  0  0  0  0  0  0
  -21.0305  -22.5679   21.1212 C   0  0  0  0  0  0  0  0  0  0  0  0
  -23.9193  -29.7235   20.9881 C   0  0  0  0  0  0  0  0  0  0  0  0
  -23.6083  -13.6591   23.1701 C   0  0  0  0  0  0  0  0  0  0  0  0
  -20.5678  -14.0103   24.6797 C   0  0  0  0  0  0  0  0  0  0  0  0
  -30.0030  -12.3130   19.0685 C   0  0  0  0  0  0  0  0  0  0  0  0
  -25.6895  -16.7050   23.2341 C   0  0  0  0  0  0  0  0  0  0  0  0
  -23.0917  -15.8788   22.0879 C   0  0  0  0  0  0  0  0  0  0  0  0
  -28.5474  -12.3458   18.6142 C   0  0  0  0  0  0  0  0  0  0  0  0
  -27.2512  -29.1345   19.8082 C   0  0  0  0  0  0  0  0  0  0  0  0
  -27.6562  -12.8068   19.7578 C   0  0  0  0  0  0  0  0  0  0  0  0
  -27.2349  -27.6597   19.4085 C   0  0  0  0  0  0  0  0  0  0  0  0
  -26.3695  -29.3926   21.0261 C   0  0  0  0  0  0  0  0  0  0  0  0
  -24.9399  -27.4529   20.4645 C   0  0  0  0  0  0  0  0  0  0  0  0
  -28.0047  -14.2403   20.1779 C   0  0  1  0  0  0  0  0  0  0  0  0
  -25.4331  -15.2727   22.7756 C   0  0  1  0  0  0  0  0  0  0  0  0
  -25.7938  -27.1540   19.2195 C   0  0  2  0  0  0  0  0  0  0  0  0
  -19.3878  -30.0525   23.5837 C   0  0  0  0  0  0  0  0  0  0  0  0
  -18.8728  -12.7310   26.0169 C   0  0  0  0  0  0  0  0  0  0  0  0
  -22.7041  -12.2156   20.6385 C   0  0  0  0  0  0  0  0  0  0  0  0
  -20.5241  -11.7378   21.7732 C   0  0  0  0  0  0  0  0  0  0  0  0
  -22.6448  -10.8199   22.7129 C   0  0  0  0  0  0  0  0  0  0  0  0
  -20.8226  -15.8524   26.9820 C   0  0  0  0  0  0  0  0  0  0  0  0
  -19.5954  -24.6529   21.4955 C   0  0  0  0  0  0  0  0  0  0  0  0
  -20.0454  -29.5836   20.7658 C   0  0  0  0  0  0  0  0  0  0  0  0
  -20.9786  -24.0088   21.6082 C   0  0  0  0  0  0  0  0  0  0  0  0
  -22.3623  -21.8641   21.2936 C   0  0  0  0  0  0  0  0  0  1  0  0
  -22.5570  -29.1224   20.7498 C   0  0  0  0  0  0  0  0  0  0  0  0
  -21.4575  -30.1560   20.9735 C   0  0  0  0  0  0  0  0  0  0  0  0
  -22.1648  -13.2934   22.9219 C   0  0  1  0  0  0  0  0  0  0  0  0
  -20.0866  -13.6457   26.0725 C   0  0  2  0  0  0  0  0  0  0  0  0
  -22.0187  -12.0434   22.0088 C   0  0  0  0  0  0  0  0  0  0  0  0
  -26.7070  -24.8659   19.3365 N   0  0  0  0  0  0  0  0  0  0  0  0
  -25.7580  -25.6828   18.8485 N   0  0  0  0  0  0  0  0  0  0  0  0
  -24.0086  -14.9346   22.7476 N   0  0  0  0  0  0  0  0  0  0  0  0
  -25.0153  -28.8778   20.8156 N   0  0  0  0  0  0  0  0  0  0  0  0
  -23.8274  -25.7280   17.4769 N   0  0  0  0  0  0  0  0  0  0  0  0
  -25.0869  -21.3926   17.3606 N   0  0  0  0  0  0  0  0  0  0  0  0
  -27.2880  -14.5639   21.3918 N   0  0  0  0  0  0  0  0  0  0  0  0
  -21.5485  -13.1485   24.2363 N   0  0  0  0  0  0  0  0  0  0  0  0
  -19.7151  -14.8740   26.8303 N   0  3  0  0  0  0  0  0  0  0  0  0
  -23.5447  -22.9048   16.5902 O   0  0  0  0  0  0  0  0  0  0  0  0
  -25.2569  -15.1635   20.4235 O   0  0  0  0  0  0  0  0  0  0  0  0
  -20.0514  -21.9918   20.6501 O   0  0  0  0  0  0  0  0  0  0  0  0
  -24.0050  -30.9101   21.3147 O   0  0  0  0  0  0  0  0  0  0  0  0
  -24.3513  -12.8457   23.7250 O   0  0  0  0  0  0  0  0  0  0  0  0
  -20.1160  -14.9620   24.0467 O   0  0  0  0  0  0  0  0  0  0  0  0
  -29.4700  -19.1649   19.9800 O   0  0  0  0  0  0  0  0  0  0  0  0
  -22.2981  -20.5296   20.7922 O   0  0  0  0  0  0  0  0  0  1  0  0
  -30.7755  -15.8117   15.8020 F   0  0  0  0  0  0  0  0  0  0  0  0
  -27.5006  -17.9178   18.4938 F   0  0  0  0  0  0  0  0  0  0  0  0
  1  2  1  0  0  0  0
  1  5  2  0  0  0  0
  2  6  2  0  0  0  0
  3 10  2  0  0  0  0
  3 18  1  0  0  0  0
  4 11  1  0  0  0  0
  4 18  2  0  0  0  0
  5 20  1  0  0  0  0
  6 22  1  0  0  0  0
  7 12  2  0  0  0  0
  7 21  1  0  0  0  0
  8  9  2  0  0  0  0
  8 24  1  0  0  0  0
  9 25  1  0  0  0  0
 10 27  1  0  0  0  0
 11 27  2  0  0  0  0
 12 28  1  0  0  0  0
 13 14  2  0  0  0  0
 13 29  1  0  0  0  0
 14 30  1  0  0  0  0
 15 23  1  0  0  0  0
 15 28  2  0  0  0  0
 16 24  2  0  0  0  0
 16 26  1  0  0  0  0
 17 30  2  0  0  0  0
 17 31  1  0  0  0  0
 18 32  1  0  0  0  0
 19 32  1  0  0  0  0
 19 33  2  0  0  0  0
 19 34  1  0  0  0  0
 20 22  2  0  0  0  0
 20 40  1  0  0  0  0
 21 23  2  0  0  0  0
 21 41  1  0  0  0  0
 22 49  1  0  0  0  0
 23 42  1  0  0  0  0
 24 58  1  0  0  0  0
 25 26  2  0  0  0  0
 25 52  1  0  0  0  0
 26 59  1  0  0  0  0
 27 82  1  0  0  0  0
 28 83  1  0  0  0  0
 29 31  2  0  0  0  0
 29 82  1  0  0  0  0
 30 84  1  0  0  0  0
 31 85  1  0  0  0  0
 32 67  2  0  0  0  0
 33 68  1  0  0  0  0
 33 71  1  0  0  0  0
 34 72  1  0  0  0  0
 34 76  2  0  0  0  0
 35 50  1  0  0  0  0
 35 73  1  0  0  0  0
 35 77  2  0  0  0  0
 36 60  1  0  0  0  0
 36 61  1  0  0  0  0
 36 78  2  0  0  0  0
 37 62  1  0  0  0  0
 37 70  1  0  0  0  0
 37 79  2  0  0  0  0
 38 64  1  0  0  0  0
 38 69  1  0  0  0  0
 38 80  2  0  0  0  0
 39 65  1  0  0  0  0
 39 74  1  0  0  0  0
 39 81  2  0  0  0  0
 40 43  1  0  0  0  0
 41 50  1  0  0  0  0
 42 69  1  0  0  0  0
 43 45  1  0  0  0  0
 44 46  1  0  0  0  0
 44 47  1  0  0  0  0
 45 49  1  0  0  0  0
 46 51  1  0  0  0  0
 47 70  1  0  0  0  0
 48 51  1  0  0  0  0
 48 70  1  0  0  0  0
 49 73  1  0  0  0  0
 50 69  1  0  0  0  0
 51 68  1  0  0  0  0
 53 65  1  0  0  0  0
 54 66  1  0  0  0  0
 55 66  1  0  0  0  0
 56 66  1  0  0  0  0
 57 75  1  0  0  0  0
 58 60  1  0  0  0  0
 59 63  1  0  0  0  0
 61 83  1  0  0  0  0
 62 63  1  0  0  0  0
 64 66  1  0  0  0  0
 64 74  1  0  0  0  0
 65 75  1  0  0  0  0
 67 68  1  0  0  0  0
M  CHG  1  75   1
M  ISO  4  37 100  61 101  62 100  83 101
M  END
> <Batch ID>
0133

> <Smiles>
CNC(C)C(=O)NC(C(=O)N1Cc2cc([101O:1][101CH2:1]C(=O)CCc3ccc(C)c(CC[100CH2:0][100C:0](=O)N4CCCC(n5nc(-c6ccc(Oc7ccc(F)cc7F)cc6)c(C(N)=O)c5N)C4)c3)ccc2CC1C(=O)NC1CCCc2ccccc21)C(C)(C)C

> <Shape>
0.233

> <Color>
0.078

> <Negative vol penalty>
0.000

$$$$

  -OEChem-04052302303D

 87 95  0     1  0  0  0  0  0999 V2000
  -22.2512  -33.7428   30.7980 C   0  0  0  0  0  0  0  0  0  0  0  0
  -22.4607  -32.5930   30.0433 C   0  0  0  0  0  0  0  0  0  0  0  0
  -24.3389   -9.3275   22.1802 C   0  0  0  0  0  0  0  0  0  0  0  0
  -24.5332   -8.5645   19.8961 C   0  0  0  0  0  0  0  0  0  0  0  0
  -28.0186  -20.6483   19.4031 C   0  0  0  0  0  0  0  0  0  0  0  0
  -22.1388  -34.9799   30.1648 C   0  0  0  0  0  0  0  0  0  0  0  0
  -22.5568  -32.6795   28.6549 C   0  0  0  0  0  0  0  0  0  0  0  0
  -26.3888  -29.9384   26.7982 C   0  0  0  0  0  0  0  0  0  0  0  0
  -28.3146  -21.9718   19.0771 C   0  0  0  0  0  0  0  0  0  0  0  0
  -23.1920   -8.5504   22.3423 C   0  0  0  0  0  0  0  0  0  0  0  0
  -23.3863   -7.7874   20.0582 C   0  0  0  0  0  0  0  0  0  0  0  0
  -26.1940  -28.5619   26.6918 C   0  0  0  0  0  0  0  0  0  0  0  0
  -20.4185   -6.4877   23.4683 C   0  0  0  0  0  0  0  0  0  0  0  0
  -20.3063   -5.7327   24.6358 C   0  0  0  0  0  0  0  0  0  0  0  0
  -28.0499  -21.2195   21.7504 C   0  0  0  0  0  0  0  0  0  0  0  0
  -25.7234  -28.8165   24.3396 C   0  0  0  0  0  0  0  0  0  0  0  0
  -22.3298   -4.5440   24.0615 C   0  0  0  0  0  0  0  0  0  0  0  0
  -25.0095   -9.3347   20.9571 C   0  0  0  0  0  0  0  0  0  0  0  0
  -27.8862  -20.2722   20.7398 C   0  0  0  0  0  0  0  0  0  0  0  0
  -27.5254   -9.7499   21.0315 C   0  0  0  0  0  0  0  0  0  0  0  0
  -22.2432  -35.0829   28.7687 C   0  0  0  0  0  0  0  0  0  0  0  0
  -26.2413  -30.7669   25.6766 C   0  0  0  0  0  0  0  0  0  0  0  0
  -22.4443  -33.9189   28.0024 C   0  0  0  0  0  0  0  0  0  0  0  0
  -25.9193  -30.2028   24.4339 C   0  0  0  0  0  0  0  0  0  0  0  0
  -28.4783  -22.9192   20.0877 C   0  0  0  0  0  0  0  0  0  0  0  0
  -22.7157   -7.7803   21.2813 C   0  0  0  0  0  0  0  0  0  0  0  0
  -25.8585  -28.0012   25.4630 C   0  0  0  0  0  0  0  0  0  0  0  0
  -21.4863   -6.2708   22.5974 C   0  0  0  0  0  0  0  0  0  0  0  0
  -28.3460  -22.5431   21.4244 C   0  0  0  0  0  0  0  0  0  0  0  0
  -21.2620   -4.7609   24.9324 C   0  0  0  0  0  0  0  0  0  0  0  0
  -22.4419   -5.2990   22.8940 C   0  0  0  0  0  0  0  0  0  0  0  0
  -26.1940  -10.1376   20.7889 C   0  0  0  0  0  0  0  0  0  0  0  0
  -28.2689  -10.8626   20.7222 C   0  0  0  0  0  0  0  0  0  0  0  0
  -27.5783  -18.8921   21.0799 C   0  0  0  0  0  0  0  0  0  0  0  0
  -27.0319  -17.9827   20.2448 C   0  0  0  0  0  0  0  0  0  0  0  0
  -28.0438   -8.4960   21.4949 C   0  0  0  0  0  0  0  0  0  0  0  0
  -26.7877  -16.6123   20.7378 C   0  0  0  0  0  0  0  0  0  0  0  0
  -24.3160  -33.1754   24.9045 C   0  0  0  0  0  0  0  0  0  0  0  0
  -27.4571  -24.5716   24.3013 C   0  0  0  0  0  0  0  0  0  0  0  0
  -26.2310  -33.3565   22.2925 C   0  0  0  0  0  0  0  0  0  0  0  0
  -28.3933  -31.7850   20.1709 C   0  0  0  0  0  0  0  0  0  0  0  0
  -22.0679  -36.4357   28.1254 C   0  0  0  0  0  0  0  0  0  0  0  0
  -26.4810  -32.2465   25.8023 C   0  0  0  0  0  0  0  0  0  0  0  0
  -25.7690  -31.0463   23.1952 C   0  0  0  0  0  0  0  0  0  0  0  0
  -22.5555  -36.4906   26.6799 C   0  0  0  0  0  0  0  0  0  0  0  0
  -28.2455  -14.7405   17.9444 C   0  0  0  0  0  0  0  0  0  0  0  0
  -22.0466  -35.2834   25.8986 C   0  0  0  0  0  0  0  0  0  0  0  0
  -27.9564  -13.3038   18.3709 C   0  0  0  0  0  0  0  0  0  0  0  0
  -27.1388  -15.6998   18.3797 C   0  0  0  0  0  0  0  0  0  0  0  0
  -26.5514  -14.2050   20.2667 C   0  0  0  0  0  0  0  0  0  0  0  0
  -22.5788  -33.9752   26.4961 C   0  0  1  0  0  0  0  0  0  0  0  0
  -25.8004  -33.0575   24.7039 C   0  0  1  0  0  0  0  0  0  0  0  0
  -27.6747  -13.2302   19.8800 C   0  0  1  0  0  0  0  0  0  0  0  0
  -27.9001  -26.6904   19.4971 C   0  0  0  0  0  0  0  0  0  0  0  0
  -29.7656  -32.1810   18.1075 C   0  0  0  0  0  0  0  0  0  0  0  0
  -23.7071  -33.1933   20.5856 C   0  0  0  0  0  0  0  0  0  0  0  0
  -25.1559  -32.6389   18.6205 C   0  0  0  0  0  0  0  0  0  0  0  0
  -25.4102  -34.8355   19.7751 C   0  0  0  0  0  0  0  0  0  0  0  0
  -30.9195  -31.2031   21.5986 C   0  0  0  0  0  0  0  0  0  0  0  0
  -28.7951  -24.3313   19.7204 C   0  0  0  0  0  0  0  0  0  0  0  0
  -26.6767  -24.4699   25.6036 C   0  0  0  0  0  0  0  0  0  0  0  0
  -27.7681  -23.2536   23.6191 C   0  0  0  0  0  0  0  0  0  0  0  0
  -27.5677  -25.2466   19.8388 C   0  0  0  0  0  0  0  0  0  0  0  0
  -26.4094  -25.8238   26.2450 C   0  0  0  0  0  0  0  0  0  1  0  0
  -26.2258  -32.7328   20.9178 C   0  0  1  0  0  0  0  0  0  0  0  0
  -29.7499  -32.1969   19.6281 C   0  0  2  0  0  0  0  0  0  0  0  0
  -25.1256  -33.3342   19.9983 C   0  0  0  0  0  0  0  0  0  0  0  0
  -26.0943  -11.3982   20.3588 N   0  0  0  0  0  0  0  0  0  0  0  0
  -27.3725  -11.8123   20.3288 N   0  0  0  0  0  0  0  0  0  0  0  0
  -26.8472  -15.5693   19.8152 N   0  0  0  0  0  0  0  0  0  0  0  0
  -26.0073  -32.4885   23.3706 N   0  0  0  0  0  0  0  0  0  0  0  0
  -29.5954  -11.1115   20.7511 N   0  0  0  0  0  0  0  0  0  0  0  0
  -27.1409   -7.4587   21.7654 N   0  0  0  0  0  0  0  0  0  0  0  0
  -23.9550  -33.7627   26.1021 N   0  0  0  0  0  0  0  0  0  0  0  0
  -27.5819  -32.8762   20.3993 N   0  0  0  0  0  0  0  0  0  0  0  0
  -30.8076  -31.2688   20.1187 N   0  3  0  0  0  0  0  0  0  0  0  0
  -29.2699   -8.3065   21.6798 O   0  0  0  0  0  0  0  0  0  0  0  0
  -26.5409  -16.4750   21.9373 O   0  0  0  0  0  0  0  0  0  0  0  0
  -23.5546  -32.7654   24.0363 O   0  0  0  0  0  0  0  0  0  0  0  0
  -27.8144  -25.6474   23.8241 O   0  0  0  0  0  0  0  0  0  0  0  0
  -26.4334  -34.5680   22.4062 O   0  0  0  0  0  0  0  0  0  0  0  0
  -28.0831  -30.6123   20.3686 O   0  0  0  0  0  0  0  0  0  0  0  0
  -21.5967   -7.0217   21.4391 O   0  0  0  0  0  0  0  0  0  0  0  0
  -28.5032  -23.4648   22.4323 O   0  0  0  0  0  0  0  0  0  0  0  0
  -25.6672  -26.6581   25.3564 O   0  0  0  0  0  0  0  0  0  1  0  0
  -21.1549   -4.0371   26.0544 F   0  0  0  0  0  0  0  0  0  0  0  0
  -23.4706   -5.0869   22.0618 F   0  0  0  0  0  0  0  0  0  0  0  0
  1  2  1  0  0  0  0
  1  6  2  0  0  0  0
  2  7  2  0  0  0  0
  3 10  2  0  0  0  0
  3 18  1  0  0  0  0
  4 11  1  0  0  0  0
  4 18  2  0  0  0  0
  5  9  2  0  0  0  0
  5 19  1  0  0  0  0
  6 21  1  0  0  0  0
  7 23  1  0  0  0  0
  8 12  2  0  0  0  0
  8 22  1  0  0  0  0
  9 25  1  0  0  0  0
 10 26  1  0  0  0  0
 11 26  2  0  0  0  0
 12 27  1  0  0  0  0
 13 14  2  0  0  0  0
 13 28  1  0  0  0  0
 14 30  1  0  0  0  0
 15 19  2  0  0  0  0
 15 29  1  0  0  0  0
 16 24  1  0  0  0  0
 16 27  2  0  0  0  0
 17 30  2  0  0  0  0
 17 31  1  0  0  0  0
 18 32  1  0  0  0  0
 19 34  1  0  0  0  0
 20 32  1  0  0  0  0
 20 33  2  0  0  0  0
 20 36  1  0  0  0  0
 21 23  2  0  0  0  0
 21 42  1  0  0  0  0
 22 24  2  0  0  0  0
 22 43  1  0  0  0  0
 23 51  1  0  0  0  0
 24 44  1  0  0  0  0
 25 29  2  0  0  0  0
 25 60  1  0  0  0  0
 26 83  1  0  0  0  0
 27 85  1  0  0  0  0
 28 31  2  0  0  0  0
 28 83  1  0  0  0  0
 29 84  1  0  0  0  0
 30 86  1  0  0  0  0
 31 87  1  0  0  0  0
 32 68  2  0  0  0  0
 33 69  1  0  0  0  0
 33 72  1  0  0  0  0
 34 35  2  0  0  0  0
 35 37  1  0  0  0  0
 36 73  1  0  0  0  0
 36 77  2  0  0  0  0
 37 70  1  0  0  0  0
 37 78  2  0  0  0  0
 38 52  1  0  0  0  0
 38 74  1  0  0  0  0
 38 79  2  0  0  0  0
 39 61  1  0  0  0  0
 39 62  1  0  0  0  0
 39 80  2  0  0  0  0
 40 65  1  0  0  0  0
 40 71  1  0  0  0  0
 40 81  2  0  0  0  0
 41 66  1  0  0  0  0
 41 75  1  0  0  0  0
 41 82  2  0  0  0  0
 42 45  1  0  0  0  0
 43 52  1  0  0  0  0
 44 71  1  0  0  0  0
 45 47  1  0  0  0  0
 46 48  1  0  0  0  0
 46 49  1  0  0  0  0
 47 51  1  0  0  0  0
 48 53  1  0  0  0  0
 49 70  1  0  0  0  0
 50 53  1  0  0  0  0
 50 70  1  0  0  0  0
 51 74  1  0  0  0  0
 52 71  1  0  0  0  0
 53 69  1  0  0  0  0
 54 63  1  0  0  0  0
 55 66  1  0  0  0  0
 56 67  1  0  0  0  0
 57 67  1  0  0  0  0
 58 67  1  0  0  0  0
 59 76  1  0  0  0  0
 60 63  1  0  0  0  0
 61 64  1  0  0  0  0
 62 84  1  0  0  0  0
 64 85  1  0  0  0  0
 65 67  1  0  0  0  0
 65 75  1  0  0  0  0
 66 76  1  0  0  0  0
 68 69  1  0  0  0  0
M  CHG  1  76   1
M  ISO  4  35 100  37 100  64 101  85 101
M  END
> <Batch ID>
0133

> <Smiles>
CCCc1ccc(C=[100CH:0][100C:0](=O)N2CCCC(n3nc(-c4ccc(Oc5ccc(F)cc5F)cc4)c(C(N)=O)c3N)C2)cc1OCC(=O)C[101CH2:1][101O:1]c1ccc2c(c1)CN(C(=O)C(NC(=O)C(C)NC)C(C)(C)C)C(C(=O)NC1CCCc3ccccc31)C2

> <Shape>
0.216

> <Color>
0.089

> <Negative vol penalty>
0.000

$$$$

  -OEChem-04052302303D

 84 92  0     1  0  0  0  0  0999 V2000
  -33.9244  -26.1712   22.8219 C   0  0  0  0  0  0  0  0  0  0  0  0
  -32.5591  -26.3450   22.6194 C   0  0  0  0  0  0  0  0  0  0  0  0
  -15.5776  -24.4013   15.5565 C   0  0  0  0  0  0  0  0  0  0  0  0
  -26.8677  -30.7593   22.0270 C   0  0  0  0  0  0  0  0  0  0  0  0
  -26.2415  -29.0243   23.5874 C   0  0  0  0  0  0  0  0  0  0  0  0
  -34.6333  -25.2592   22.0411 C   0  0  0  0  0  0  0  0  0  0  0  0
  -31.9019  -25.6075   21.6352 C   0  0  0  0  0  0  0  0  0  0  0  0
  -26.1654  -23.4738   21.8483 C   0  0  0  0  0  0  0  0  0  0  0  0
  -14.9957  -25.2773   16.4727 C   0  0  0  0  0  0  0  0  0  0  0  0
  -16.8620  -23.9066   15.7834 C   0  0  0  0  0  0  0  0  0  0  0  0
  -27.2924  -31.5597   23.0875 C   0  0  0  0  0  0  0  0  0  0  0  0
  -26.6662  -29.8247   24.6478 C   0  0  0  0  0  0  0  0  0  0  0  0
  -24.9672  -23.9502   21.3181 C   0  0  0  0  0  0  0  0  0  0  0  0
  -28.2084  -34.2030   25.4108 C   0  0  0  0  0  0  0  0  0  0  0  0
  -27.8336  -35.5464   25.4018 C   0  0  0  0  0  0  0  0  0  0  0  0
  -25.2422  -22.5003   19.4098 C   0  0  0  0  0  0  0  0  0  0  0  0
  -25.5065  -34.8972   25.4178 C   0  0  0  0  0  0  0  0  0  0  0  0
  -26.3422  -29.4916   22.2770 C   0  0  0  0  0  0  0  0  0  0  0  0
  -26.6721  -27.7346   20.4571 C   0  0  0  0  0  0  0  0  0  0  0  0
  -33.9826  -24.5032   21.0533 C   0  0  0  0  0  0  0  0  0  0  0  0
  -26.9178  -22.5135   21.1568 C   0  0  0  0  0  0  0  0  0  0  0  0
  -32.6030  -24.6855   20.8395 C   0  0  0  0  0  0  0  0  0  0  0  0
  -26.4483  -22.0116   19.9346 C   0  0  0  0  0  0  0  0  0  0  0  0
  -15.6982  -25.6588   17.6158 C   0  0  0  0  0  0  0  0  0  0  0  0
  -16.9826  -25.1642   17.8427 C   0  0  0  0  0  0  0  0  0  0  0  0
  -27.1916  -31.0925   24.3979 C   0  0  0  0  0  0  0  0  0  0  0  0
  -24.5068  -23.4656   20.0973 C   0  0  0  0  0  0  0  0  0  0  0  0
  -17.5644  -24.2881   16.9264 C   0  0  0  0  0  0  0  0  0  0  0  0
  -27.2323  -33.2065   25.4232 C   0  0  0  0  0  0  0  0  0  0  0  0
  -26.4826  -35.8936   25.4054 C   0  0  0  0  0  0  0  0  0  0  0  0
  -25.8814  -33.5537   25.4267 C   0  0  0  0  0  0  0  0  0  0  0  0
  -25.9029  -28.6644   21.1820 C   0  0  0  0  0  0  0  0  0  0  0  0
  -25.8004  -27.2154   19.5313 C   0  0  0  0  0  0  0  0  0  0  0  0
  -28.0513  -27.3725   20.6072 C   0  0  0  0  0  0  0  0  0  0  0  0
  -29.8318  -22.4335   19.8897 C   0  0  0  0  0  0  0  0  0  0  0  0
  -29.1026  -19.3135   19.3836 C   0  0  0  0  0  0  0  0  0  0  0  0
  -26.6940  -16.9306   18.9747 C   0  0  0  0  0  0  0  0  0  0  0  0
  -19.9239  -26.6489   19.5466 C   0  0  0  0  0  0  0  0  0  0  0  0
  -34.7999  -23.5638   20.2022 C   0  0  0  0  0  0  0  0  0  0  0  0
  -28.1948  -21.9903   21.7550 C   0  0  0  0  0  0  0  0  0  0  0  0
  -27.2084  -20.9654   19.1625 C   0  0  0  0  0  0  0  0  0  0  0  0
  -33.9574  -22.5493   19.4334 C   0  0  0  0  0  0  0  0  0  0  0  0
  -21.8840  -28.3519   17.0258 C   0  0  0  0  0  0  0  0  0  0  0  0
  -32.7745  -23.2384   18.7605 C   0  0  0  0  0  0  0  0  0  0  0  0
  -23.2189  -28.5343   17.7503 C   0  0  0  0  0  0  0  0  0  0  0  0
  -20.7077  -28.5275   17.9816 C   0  0  0  0  0  0  0  0  0  0  0  0
  -22.0799  -27.8183   19.9020 C   0  0  0  0  0  0  0  0  0  0  0  0
  -31.8499  -23.8860   19.7984 C   0  0  1  0  0  0  0  0  0  0  0  0
  -29.1382  -21.3891   20.7178 C   0  0  1  0  0  0  0  0  0  0  0  0
  -23.3092  -27.6308   18.9944 C   0  0  2  0  0  0  0  0  0  0  0  0
  -15.0526  -26.5980   18.5812 C   0  0  0  0  0  0  0  0  0  0  0  0
  -26.4050  -14.4760   18.5403 C   0  0  0  0  0  0  0  0  0  0  0  0
  -29.8243  -19.7500   16.4513 C   0  0  0  0  0  0  0  0  0  0  0  0
  -28.6368  -17.6126   15.9131 C   0  0  0  0  0  0  0  0  0  0  0  0
  -30.6299  -17.5866   17.4130 C   0  0  0  0  0  0  0  0  0  0  0  0
  -25.2687  -16.5267   21.5369 C   0  0  0  0  0  0  0  0  0  0  0  0
  -17.7412  -25.5711   19.0655 C   0  0  0  0  0  0  0  0  0  0  0  0
  -21.6181  -24.0361   17.8857 C   0  0  0  0  0  0  0  0  0  0  0  0
  -21.1285  -23.4729   16.5561 C   0  0  0  0  0  0  0  0  0  0  0  0
  -22.9258  -23.3891   18.3224 C   0  0  0  0  0  0  0  0  0  1  0  0
  -19.7999  -24.0881   16.1400 C   0  0  0  0  0  0  0  0  0  0  0  0
  -28.4480  -18.5360   18.2673 C   0  0  1  0  0  0  0  0  0  0  0  0
  -26.5169  -15.5594   19.6016 C   0  0  2  0  0  0  0  0  0  0  0  0
  -29.3712  -18.3924   17.0245 C   0  0  0  0  0  0  0  0  0  0  0  0
  -24.6398  -28.7342   20.7535 N   0  0  0  0  0  0  0  0  0  0  0  0
  -24.6086  -27.8417   19.7492 N   0  0  0  0  0  0  0  0  0  0  0  0
  -28.4546  -20.4900   19.7859 N   0  0  0  0  0  0  0  0  0  0  0  0
  -20.8450  -27.6261   19.1344 N   0  0  0  0  0  0  0  0  0  0  0  0
  -25.9449  -26.2889   18.5601 N   0  0  0  0  0  0  0  0  0  0  0  0
  -28.8024  -28.0030   21.6085 N   0  0  0  0  0  0  0  0  0  0  0  0
  -31.0205  -22.8834   20.4319 N   0  0  0  0  0  0  0  0  0  0  0  0
  -28.0254  -17.2660   18.8477 N   0  0  0  0  0  0  0  0  0  0  0  0
  -18.7773  -26.5355   18.7699 N   0  0  0  0  0  0  0  0  0  0  0  0
  -25.2836  -15.5275   20.4376 N   0  3  0  0  0  0  0  0  0  0  0  0
  -28.6055  -26.5272   19.8644 O   0  0  0  0  0  0  0  0  0  0  0  0
  -29.3267  -22.8027   18.8360 O   0  0  0  0  0  0  0  0  0  0  0  0
  -30.1465  -18.8888   19.8851 O   0  0  0  0  0  0  0  0  0  0  0  0
  -25.7461  -17.6323   18.6287 O   0  0  0  0  0  0  0  0  0  0  0  0
  -20.1117  -25.9265   20.5315 O   0  0  0  0  0  0  0  0  0  0  0  0
  -27.6061  -31.8732   25.4329 O   0  0  0  0  0  0  0  0  0  0  0  0
  -23.3379  -23.9293   19.5773 O   0  0  0  0  0  0  0  0  0  1  0  0
  -18.8259  -23.7926   17.1315 O   0  0  0  0  0  0  0  0  0  0  0  0
  -26.1227  -37.1838   25.3983 F   0  0  0  0  0  0  0  0  0  0  0  0
  -24.9391  -32.6009   25.4398 F   0  0  0  0  0  0  0  0  0  0  0  0
  1  2  1  0  0  0  0
  1  6  2  0  0  0  0
  2  7  2  0  0  0  0
  3  9  1  0  0  0  0
  3 10  2  0  0  0  0
  4 11  2  0  0  0  0
  4 18  1  0  0  0  0
  5 12  1  0  0  0  0
  5 18  2  0  0  0  0
  6 20  1  0  0  0  0
  7 22  1  0  0  0  0
  8 13  2  0  0  0  0
  8 21  1  0  0  0  0
  9 24  2  0  0  0  0
 10 28  1  0  0  0  0
 11 26  1  0  0  0  0
 12 26  2  0  0  0  0
 13 27  1  0  0  0  0
 14 15  2  0  0  0  0
 14 29  1  0  0  0  0
 15 30  1  0  0  0  0
 16 23  1  0  0  0  0
 16 27  2  0  0  0  0
 17 30  2  0  0  0  0
 17 31  1  0  0  0  0
 18 32  1  0  0  0  0
 19 32  1  0  0  0  0
 19 33  2  0  0  0  0
 19 34  1  0  0  0  0
 20 22  2  0  0  0  0
 20 39  1  0  0  0  0
 21 23  2  0  0  0  0
 21 40  1  0  0  0  0
 22 48  1  0  0  0  0
 23 41  1  0  0  0  0
 24 25  1  0  0  0  0
 24 51  1  0  0  0  0
 25 28  2  0  0  0  0
 25 57  1  0  0  0  0
 26 80  1  0  0  0  0
 27 81  1  0  0  0  0
 28 82  1  0  0  0  0
 29 31  2  0  0  0  0
 29 80  1  0  0  0  0
 30 83  1  0  0  0  0
 31 84  1  0  0  0  0
 32 65  2  0  0  0  0
 33 66  1  0  0  0  0
 33 69  1  0  0  0  0
 34 70  1  0  0  0  0
 34 75  2  0  0  0  0
 35 49  1  0  0  0  0
 35 71  1  0  0  0  0
 35 76  2  0  0  0  0
 36 62  1  0  0  0  0
 36 67  1  0  0  0  0
 36 77  2  0  0  0  0
 37 63  1  0  0  0  0
 37 72  1  0  0  0  0
 37 78  2  0  0  0  0
 38 68  1  0  0  0  0
 38 73  1  0  0  0  0
 38 79  2  0  0  0  0
 39 42  1  0  0  0  0
 40 49  1  0  0  0  0
 41 67  1  0  0  0  0
 42 44  1  0  0  0  0
 43 45  1  0  0  0  0
 43 46  1  0  0  0  0
 44 48  1  0  0  0  0
 45 50  1  0  0  0  0
 46 68  1  0  0  0  0
 47 50  1  0  0  0  0
 47 68  1  0  0  0  0
 48 71  1  0  0  0  0
 49 67  1  0  0  0  0
 50 66  1  0  0  0  0
 52 63  1  0  0  0  0
 53 64  1  0  0  0  0
 54 64  1  0  0  0  0
 55 64  1  0  0  0  0
 56 74  1  0  0  0  0
 57 73  1  0  0  0  0
 58 59  1  0  0  0  0
 58 60  1  0  0  0  0
 59 61  1  0  0  0  0
 60 81  1  0  0  0  0
 61 82  1  0  0  0  0
 62 64  1  0  0  0  0
 62 72  1  0  0  0  0
 63 74  1  0  0  0  0
 65 66  1  0  0  0  0
M  CHG  1  74   1
M  ISO  4  38 100  60 101  73 100  81 101
M  END
> <Batch ID>
0133

> <Smiles>
CNC(C)C(=O)NC(C(=O)N1Cc2cc([101O:1][101CH2:1]CCCOc3cccc(C)c3C[100NH:0][100C:0](=O)N3CCCC(n4nc(-c5ccc(Oc6ccc(F)cc6F)cc5)c(C(N)=O)c4N)C3)ccc2CC1C(=O)NC1CCCc2ccccc21)C(C)(C)C

> <Shape>
0.205

> <Color>
0.070

> <Negative vol penalty>
0.000

$$$$

  -OEChem-04052302303D

 89 99  0     1  0  0  0  0  0999 V2000
  -17.7238  -28.2349   23.7215 C   0  0  0  0  0  0  0  0  0  0  0  0
  -19.0328  -27.8110   23.9271 C   0  0  0  0  0  0  0  0  0  0  0  0
  -30.9061  -19.8486   27.2383 C   0  0  0  0  0  0  0  0  0  0  0  0
  -22.6585  -10.1148   20.1795 C   0  0  0  0  0  0  0  0  0  0  0  0
  -24.4047   -9.2677   21.6184 C   0  0  0  0  0  0  0  0  0  0  0  0
  -17.4399  -29.1514   22.7098 C   0  0  0  0  0  0  0  0  0  0  0  0
  -20.0585  -28.3025   23.1204 C   0  0  0  0  0  0  0  0  0  0  0  0
  -24.1596  -29.6231   25.7815 C   0  0  0  0  0  0  0  0  0  0  0  0
  -31.3700  -19.0741   26.1748 C   0  0  0  0  0  0  0  0  0  0  0  0
  -21.9573   -8.9180   20.3260 C   0  0  0  0  0  0  0  0  0  0  0  0
  -23.7034   -8.0709   21.7649 C   0  0  0  0  0  0  0  0  0  0  0  0
  -24.9988  -28.5954   26.2100 C   0  0  0  0  0  0  0  0  0  0  0  0
  -21.0668   -6.9329   23.5463 C   0  0  0  0  0  0  0  0  0  0  0  0
  -20.9581   -6.4002   24.8309 C   0  0  0  0  0  0  0  0  0  0  0  0
  -29.6626  -21.7925   28.0626 C   0  0  0  0  0  0  0  0  0  0  0  0
  -29.0790  -22.5323   25.4439 C   0  0  0  0  0  0  0  0  0  0  0  0
  -30.3160  -20.5853   24.6165 C   0  0  0  0  0  0  0  0  0  0  0  0
  -26.4946  -29.0601   24.3753 C   0  0  0  0  0  0  0  0  0  0  0  0
  -22.0916   -4.3971   24.0961 C   0  0  0  0  0  0  0  0  0  0  0  0
  -30.1399  -21.0025   27.0046 C   0  0  0  0  0  0  0  0  0  0  0  0
  -29.8421  -21.3766   25.6760 C   0  0  0  0  0  0  0  0  0  0  0  0
  -23.8823  -10.2896   20.8257 C   0  0  0  0  0  0  0  0  0  0  0  0
  -24.1693  -12.8166   21.0245 C   0  0  0  0  0  0  0  0  0  0  0  0
  -18.4640  -29.6617   21.8966 C   0  0  0  0  0  0  0  0  0  0  0  0
  -24.4767  -30.3711   24.6386 C   0  0  0  0  0  0  0  0  0  0  0  0
  -19.7878  -29.2256   22.0961 C   0  0  0  0  0  0  0  0  0  0  0  0
  -28.8914  -22.9415   27.8258 C   0  0  0  0  0  0  0  0  0  0  0  0
  -28.6130  -23.3249   26.5048 C   0  0  0  0  0  0  0  0  0  0  0  0
  -25.6591  -30.0984   23.9359 C   0  0  0  0  0  0  0  0  0  0  0  0
  -31.0751  -19.4417   24.8657 C   0  0  0  0  0  0  0  0  0  0  0  0
  -22.4797   -7.8960   21.1187 C   0  0  0  0  0  0  0  0  0  0  0  0
  -26.1650  -28.3119   25.5052 C   0  0  0  0  0  0  0  0  0  0  0  0
  -21.6877   -6.1976   22.5366 C   0  0  0  0  0  0  0  0  0  0  0  0
  -21.4706   -5.1323   25.1058 C   0  0  0  0  0  0  0  0  0  0  0  0
  -22.2002   -4.9298   22.8115 C   0  0  0  0  0  0  0  0  0  0  0  0
  -24.6075  -11.5255   20.6743 C   0  0  0  0  0  0  0  0  0  0  0  0
  -25.2158  -13.6385   20.6842 C   0  0  0  0  0  0  0  0  0  0  0  0
  -22.9273  -13.2356   21.6056 C   0  0  0  0  0  0  0  0  0  0  0  0
  -23.0958  -30.8478   21.8155 C   0  0  0  0  0  0  0  0  0  0  0  0
  -30.7081  -14.6985   20.6747 C   0  0  0  0  0  0  0  0  0  0  0  0
  -25.5022  -32.9899   21.4373 C   0  0  0  0  0  0  0  0  0  0  0  0
  -28.6431  -34.0023   22.3071 C   0  0  0  0  0  0  0  0  0  0  0  0
  -18.1017  -30.6145   20.7851 C   0  0  0  0  0  0  0  0  0  0  0  0
  -23.5746  -31.4939   24.2049 C   0  0  0  0  0  0  0  0  0  0  0  0
  -28.4339  -23.7688   29.0002 C   0  0  0  0  0  0  0  0  0  0  0  0
  -27.7703  -24.5381   26.1947 C   0  0  0  0  0  0  0  0  0  0  0  0
  -26.0551  -30.8854   22.7143 C   0  0  0  0  0  0  0  0  0  0  0  0
  -19.2993  -31.3721   20.2176 C   0  0  0  0  0  0  0  0  0  0  0  0
  -27.3138  -24.7479   28.6518 C   0  0  0  0  0  0  0  0  0  0  0  0
  -29.3891  -12.7254   17.9901 C   0  0  0  0  0  0  0  0  0  0  0  0
  -20.4604  -30.4175   19.9577 C   0  0  0  0  0  0  0  0  0  0  0  0
  -28.0038  -12.3185   18.4907 C   0  0  0  0  0  0  0  0  0  0  0  0
  -30.3984  -12.7910   19.1320 C   0  0  0  0  0  0  0  0  0  0  0  0
  -28.5999  -13.2774   20.7601 C   0  0  0  0  0  0  0  0  0  0  0  0
  -20.9313  -29.7547   21.2578 C   0  0  1  0  0  0  0  0  0  0  0  0
  -23.7345  -31.8535   22.7310 C   0  0  1  0  0  0  0  0  0  0  0  0
  -27.6525  -25.5173   27.3721 C   0  0  2  0  0  0  0  0  0  0  0  0
  -27.5429  -13.2289   19.6426 C   0  0  2  0  0  0  0  0  0  0  0  0
  -30.3550  -35.7660   21.8012 C   0  0  0  0  0  0  0  0  0  0  0  0
  -26.1797  -31.5777   18.8187 C   0  0  0  0  0  0  0  0  0  0  0  0
  -28.4005  -32.7332   18.8511 C   0  0  0  0  0  0  0  0  0  0  0  0
  -26.3009  -34.0737   18.7196 C   0  0  0  0  0  0  0  0  0  0  0  0
  -28.6176  -34.9916   25.0963 C   0  0  0  0  0  0  0  0  0  0  0  0
  -31.5704  -18.6134   23.7286 C   0  0  0  0  0  0  0  0  0  0  0  0
  -30.1399  -15.5388   21.7905 C   0  0  0  0  0  0  0  0  0  0  0  0
  -26.6000  -26.5850   27.0814 C   0  0  0  0  0  0  0  0  0  1  0  0
  -30.5743  -17.5116   23.3344 C   0  0  0  0  0  0  0  0  0  0  0  0
  -31.1105  -16.6456   22.1901 C   0  0  0  0  0  0  0  0  0  0  0  0
  -26.9088  -32.9324   20.8922 C   0  0  1  0  0  0  0  0  0  0  0  0
  -29.1915  -35.3639   22.6941 C   0  0  2  0  0  0  0  0  0  0  0  0
  -26.9393  -32.8130   19.3423 C   0  0  0  0  0  0  0  0  0  0  0  0
  -25.8365  -11.5222   20.1514 N   0  0  0  0  0  0  0  0  0  0  0  0
  -26.1795  -12.8215   20.1704 N   0  0  0  0  0  0  0  0  0  0  0  0
  -25.1371  -31.9690   22.3263 N   0  0  0  0  0  0  0  0  0  0  0  0
  -29.9138  -13.6475   20.2159 N   0  0  0  0  0  0  0  0  0  0  0  0
  -25.3964  -14.9731   20.7771 N   0  0  0  0  0  0  0  0  0  0  0  0
  -22.8273  -13.2878   23.0026 N   0  0  0  0  0  0  0  0  0  0  0  0
  -21.7417  -30.6732   22.0286 N   0  0  0  0  0  0  0  0  0  0  0  0
  -27.5974  -34.1077   21.4146 N   0  0  0  0  0  0  0  0  0  0  0  0
  -29.6664  -35.3487   24.1066 N   0  3  0  0  0  0  0  0  0  0  0  0
  -21.9305  -13.5385   20.9070 O   0  0  0  0  0  0  0  0  0  0  0  0
  -23.7805  -30.2737   20.9768 O   0  0  0  0  0  0  0  0  0  0  0  0
  -31.8235  -14.9715   20.2235 O   0  0  0  0  0  0  0  0  0  0  0  0
  -24.7572  -33.9107   21.0927 O   0  0  0  0  0  0  0  0  0  0  0  0
  -29.0994  -32.9503   22.7493 O   0  0  0  0  0  0  0  0  0  0  0  0
  -21.7955   -6.7282   21.2620 O   0  0  0  0  0  0  0  0  0  0  0  0
  -26.9930  -27.2998   25.9246 O   0  0  0  0  0  0  0  0  0  1  0  0
  -21.3676   -4.6216   26.3397 F   0  0  0  0  0  0  0  0  0  0  0  0
  -22.7989   -4.2192   21.8459 F   0  0  0  0  0  0  0  0  0  0  0  0
  1  2  1  0  0  0  0
  1  6  2  0  0  0  0
  2  7  2  0  0  0  0
  3  9  2  0  0  0  0
  3 20  1  0  0  0  0
  4 10  2  0  0  0  0
  4 22  1  0  0  0  0
  5 11  1  0  0  0  0
  5 22  2  0  0  0  0
  6 24  1  0  0  0  0
  7 26  1  0  0  0  0
  8 12  2  0  0  0  0
  8 25  1  0  0  0  0
  9 30  1  0  0  0  0
 10 31  1  0  0  0  0
 11 31  2  0  0  0  0
 12 32  1  0  0  0  0
 13 14  2  0  0  0  0
 13 33  1  0  0  0  0
 14 34  1  0  0  0  0
 15 20  2  0  0  0  0
 15 27  1  0  0  0  0
 16 21  2  0  0  0  0
 16 28  1  0  0  0  0
 17 21  1  0  0  0  0
 17 30  2  0  0  0  0
 18 29  1  0  0  0  0
 18 32  2  0  0  0  0
 19 34  2  0  0  0  0
 19 35  1  0  0  0  0
 20 21  1  0  0  0  0
 22 36  1  0  0  0  0
 23 36  1  0  0  0  0
 23 37  2  0  0  0  0
 23 38  1  0  0  0  0
 24 26  2  0  0  0  0
 24 43  1  0  0  0  0
 25 29  2  0  0  0  0
 25 44  1  0  0  0  0
 26 55  1  0  0  0  0
 27 28  2  0  0  0  0
 27 45  1  0  0  0  0
 28 46  1  0  0  0  0
 29 47  1  0  0  0  0
 30 64  1  0  0  0  0
 31 86  1  0  0  0  0
 32 87  1  0  0  0  0
 33 35  2  0  0  0  0
 33 86  1  0  0  0  0
 34 88  1  0  0  0  0
 35 89  1  0  0  0  0
 36 72  2  0  0  0  0
 37 73  1  0  0  0  0
 37 76  1  0  0  0  0
 38 77  1  0  0  0  0
 38 81  2  0  0  0  0
 39 56  1  0  0  0  0
 39 78  1  0  0  0  0
 39 82  2  0  0  0  0
 40 65  1  0  0  0  0
 40 75  1  0  0  0  0
 40 83  2  0  0  0  0
 41 69  1  0  0  0  0
 41 74  1  0  0  0  0
 41 84  2  0  0  0  0
 42 70  1  0  0  0  0
 42 79  1  0  0  0  0
 42 85  2  0  0  0  0
 43 48  1  0  0  0  0
 44 56  1  0  0  0  0
 45 49  1  0  0  0  0
 46 57  1  0  0  0  0
 47 74  1  0  0  0  0
 48 51  1  0  0  0  0
 49 57  1  0  0  0  0
 50 52  1  0  0  0  0
 50 53  1  0  0  0  0
 51 55  1  0  0  0  0
 52 58  1  0  0  0  0
 53 75  1  0  0  0  0
 54 58  1  0  0  0  0
 54 75  1  0  0  0  0
 55 78  1  0  0  0  0
 56 74  1  0  0  0  0
 57 66  1  0  0  0  0
 58 73  1  0  0  0  0
 59 70  1  0  0  0  0
 60 71  1  0  0  0  0
 61 71  1  0  0  0  0
 62 71  1  0  0  0  0
 63 80  1  0  0  0  0
 64 67  1  0  0  0  0
 65 68  1  0  0  0  0
 66 87  1  0  0  0  0
 67 68  1  0  0  0  0
 69 71  1  0  0  0  0
 69 79  1  0  0  0  0
 70 80  1  0  0  0  0
 72 73  1  0  0  0  0
M  CHG  1  80   1
M  ISO  4  40 100  65 100  66 101  87 101
M  END
> <Batch ID>
0133

> <Smiles>
CNC(C)C(=O)NC(C(=O)N1Cc2cc([101O:1][101CH2:1]C3CCc4cc5ccc(CCC[100CH2:0][100C:0](=O)N6CCCC(n7nc(-c8ccc(Oc9ccc(F)cc9F)cc8)c(C(N)=O)c7N)C6)cc5cc4C3)ccc2CC1C(=O)NC1CCCc2ccccc21)C(C)(C)C

> <Shape>
0.291

> <Color>
0.186

> <Negative vol penalty>
0.000

$$$$

  -OEChem-04052302303D

 85 93  0     1  0  0  0  0  0999 V2000
  -23.8196  -19.6044   14.4070 C   0  0  0  0  0  0  0  0  0  0  0  0
  -24.8839  -18.7094   14.4447 C   0  0  0  0  0  0  0  0  0  0  0  0
  -25.9665  -27.7821   19.0933 C   0  0  0  0  0  0  0  0  0  0  0  0
  -25.9809  -26.8925   21.3395 C   0  0  0  0  0  0  0  0  0  0  0  0
  -23.2049  -20.0051   15.5926 C   0  0  0  0  0  0  0  0  0  0  0  0
  -25.3351  -18.2154   15.6682 C   0  0  0  0  0  0  0  0  0  0  0  0
  -28.1999  -12.3422   18.6033 C   0  0  0  0  0  0  0  0  0  0  0  0
  -24.8079  -28.5016   19.3857 C   0  0  0  0  0  0  0  0  0  0  0  0
  -24.8223  -27.6121   21.6319 C   0  0  0  0  0  0  0  0  0  0  0  0
  -29.2823  -11.9493   19.3893 C   0  0  0  0  0  0  0  0  0  0  0  0
  -24.0004  -30.7944   22.4182 C   0  0  0  0  0  0  0  0  0  0  0  0
  -23.9556  -31.4828   23.6304 C   0  0  0  0  0  0  0  0  0  0  0  0
  -28.0927  -12.6505   21.3673 C   0  0  0  0  0  0  0  0  0  0  0  0
  -32.9387  -18.3255   22.6897 C   0  0  0  0  0  0  0  0  0  0  0  0
  -30.8006  -19.4409   22.8349 C   0  0  0  0  0  0  0  0  0  0  0  0
  -31.0926  -17.5814   21.3203 C   0  0  0  0  0  0  0  0  0  0  0  0
  -22.0282  -30.1866   24.2953 C   0  0  0  0  0  0  0  0  0  0  0  0
  -26.5530  -26.9774   20.0702 C   0  0  0  0  0  0  0  0  0  0  0  0
  -29.0806  -26.6623   19.9302 C   0  0  0  0  0  0  0  0  0  0  0  0
  -23.6425  -19.5083   16.8305 C   0  0  0  0  0  0  0  0  0  0  0  0
  -27.0582  -12.9032   19.1934 C   0  0  0  0  0  0  0  0  0  0  0  0
  -24.7266  -18.6109   16.8715 C   0  0  0  0  0  0  0  0  0  0  0  0
  -26.9962  -13.0474   20.5867 C   0  0  0  0  0  0  0  0  0  0  0  0
  -32.1286  -19.3172   23.2429 C   0  0  0  0  0  0  0  0  0  0  0  0
  -32.4207  -17.4577   21.7283 C   0  0  0  0  0  0  0  0  0  0  0  0
  -30.2825  -18.5731   21.8735 C   0  0  0  0  0  0  0  0  0  0  0  0
  -24.2358  -28.4167   20.6550 C   0  0  0  0  0  0  0  0  0  0  0  0
  -29.2300  -12.1061   20.7712 C   0  0  0  0  0  0  0  0  0  0  0  0
  -23.0591  -29.8020   22.1444 C   0  0  0  0  0  0  0  0  0  0  0  0
  -22.9695  -31.1790   24.5690 C   0  0  0  0  0  0  0  0  0  0  0  0
  -22.0730  -29.4982   23.0830 C   0  0  0  0  0  0  0  0  0  0  0  0
  -27.7495  -26.2334   19.7686 C   0  0  0  0  0  0  0  0  0  0  0  0
  -29.8380  -25.5984   19.5049 C   0  0  0  0  0  0  0  0  0  0  0  0
  -29.5870  -27.9106   20.4209 C   0  0  0  0  0  0  0  0  0  0  0  0
  -25.5804  -15.7105   18.9956 C   0  0  0  0  0  0  0  0  0  0  0  0
  -23.3727  -14.2402   20.8629 C   0  0  0  0  0  0  0  0  0  0  0  0
  -22.6612  -11.7765   23.1147 C   0  0  0  0  0  0  0  0  0  0  0  0
  -28.7802  -19.7145   19.1713 C   0  0  0  0  0  0  0  0  0  0  0  0
  -22.9775  -20.0070   18.0890 C   0  0  0  0  0  0  0  0  0  0  0  0
  -25.8884  -13.2973   18.3340 C   0  0  0  0  0  0  0  0  0  0  0  0
  -25.7854  -13.6256   21.2710 C   0  0  0  0  0  0  0  0  0  0  0  0
  -23.2731  -19.1479   19.3156 C   0  0  0  0  0  0  0  0  0  0  0  0
  -29.7137  -21.8765   16.5010 C   0  0  0  0  0  0  0  0  0  0  0  0
  -24.7632  -18.8330   19.4004 C   0  0  0  0  0  0  0  0  0  0  0  0
  -29.4363  -23.2770   17.0502 C   0  0  0  0  0  0  0  0  0  0  0  0
  -28.6741  -20.8660   16.9806 C   0  0  0  0  0  0  0  0  0  0  0  0
  -28.2136  -22.2131   18.9924 C   0  0  0  0  0  0  0  0  0  0  0  0
  -25.2286  -18.0337   18.1773 C   0  0  1  0  0  0  0  0  0  0  0  0
  -24.9829  -14.3318   18.9952 C   0  0  1  0  0  0  0  0  0  0  0  0
  -29.2675  -23.2556   18.5813 C   0  0  2  0  0  0  0  0  0  0  0  0
  -32.6830  -20.2446   24.2711 C   0  0  0  0  0  0  0  0  0  0  0  0
  -20.7783  -10.8482   24.4896 C   0  0  0  0  0  0  0  0  0  0  0  0
  -30.3843  -11.4785   23.9257 C   0  0  0  0  0  0  0  0  0  0  0  0
  -23.6410  -16.5785   22.8047 C   0  0  0  0  0  0  0  0  0  0  0  0
  -22.5080  -15.1756   24.5415 C   0  0  0  0  0  0  0  0  0  0  0  0
  -21.2971  -15.7832   22.4469 C   0  0  0  0  0  0  0  0  0  0  0  0
  -22.8251   -9.1438   21.7727 C   0  0  0  0  0  0  0  0  0  0  0  0
  -33.2959  -16.3851   21.1302 C   0  0  0  0  0  0  0  0  0  0  0  0
  -28.8624  -18.7058   21.4374 C   0  0  0  0  0  0  0  0  0  0  0  0
  -33.2614  -15.0584   21.8974 C   0  0  0  0  0  0  0  0  0  0  0  0
  -31.8758  -14.4042   21.9017 C   0  0  0  0  0  0  0  0  0  0  0  0
  -31.8813  -13.1022   22.7112 C   0  0  0  0  0  0  0  0  0  0  0  0
  -23.1648  -14.0820   22.3498 C   0  0  1  0  0  0  0  0  0  0  0  0
  -21.5351  -10.7601   23.1735 C   0  0  2  0  0  0  0  0  0  0  0  0
  -30.4990  -12.4443   22.7539 C   0  0  1  0  0  0  0  0  0  1  0  0
  -22.6765  -15.3957   23.0230 C   0  0  0  0  0  0  0  0  0  0  0  0
  -27.6629  -24.9938   19.2788 N   0  0  0  0  0  0  0  0  0  0  0  0
  -28.9492  -24.6347   19.1288 N   0  0  0  0  0  0  0  0  0  0  0  0
  -24.6698  -14.0017   20.3870 N   0  0  0  0  0  0  0  0  0  0  0  0
  -28.5638  -20.8947   18.4411 N   0  0  0  0  0  0  0  0  0  0  0  0
  -31.1710  -25.4027   19.4196 N   0  0  0  0  0  0  0  0  0  0  0  0
  -28.6704  -28.8947   20.8156 N   0  0  0  0  0  0  0  0  0  0  0  0
  -24.8371  -16.6460   18.3015 N   0  0  0  0  0  0  0  0  0  0  0  0
  -22.2577  -12.9518   22.5172 N   0  0  0  0  0  0  0  0  0  0  0  0
  -28.6624  -19.8306   20.5510 N   0  0  0  0  0  0  0  0  0  0  0  0
  -22.0765   -9.3786   23.0342 N   0  3  0  0  0  0  0  0  0  0  0  0
  -30.8158  -28.1526   20.4913 O   0  0  0  0  0  0  0  0  0  0  0  0
  -26.6368  -15.9109   19.5834 O   0  0  0  0  0  0  0  0  0  0  0  0
  -22.4178  -14.5565   20.1491 O   0  0  0  0  0  0  0  0  0  0  0  0
  -23.7852  -11.5517   23.5581 O   0  0  0  0  0  0  0  0  0  0  0  0
  -29.0629  -18.6382   18.6340 O   0  0  0  0  0  0  0  0  0  0  0  0
  -23.1054  -29.1189   20.9407 O   0  0  0  0  0  0  0  0  0  0  0  0
  -30.2853  -11.7240   21.5407 O   0  0  0  0  0  0  0  0  0  1  0  0
  -22.9275  -31.8391   25.7337 F   0  0  0  0  0  0  0  0  0  0  0  0
  -21.1667  -28.5451   22.8261 F   0  0  0  0  0  0  0  0  0  0  0  0
  1  2  1  0  0  0  0
  1  5  2  0  0  0  0
  2  6  2  0  0  0  0
  3  8  2  0  0  0  0
  3 18  1  0  0  0  0
  4  9  1  0  0  0  0
  4 18  2  0  0  0  0
  5 20  1  0  0  0  0
  6 22  1  0  0  0  0
  7 10  2  0  0  0  0
  7 21  1  0  0  0  0
  8 27  1  0  0  0  0
  9 27  2  0  0  0  0
 10 28  1  0  0  0  0
 11 12  2  0  0  0  0
 11 29  1  0  0  0  0
 12 30  1  0  0  0  0
 13 23  1  0  0  0  0
 13 28  2  0  0  0  0
 14 24  2  0  0  0  0
 14 25  1  0  0  0  0
 15 24  1  0  0  0  0
 15 26  2  0  0  0  0
 16 25  2  0  0  0  0
 16 26  1  0  0  0  0
 17 30  2  0  0  0  0
 17 31  1  0  0  0  0
 18 32  1  0  0  0  0
 19 32  1  0  0  0  0
 19 33  2  0  0  0  0
 19 34  1  0  0  0  0
 20 22  2  0  0  0  0
 20 39  1  0  0  0  0
 21 23  2  0  0  0  0
 21 40  1  0  0  0  0
 22 48  1  0  0  0  0
 23 41  1  0  0  0  0
 24 51  1  0  0  0  0
 25 58  1  0  0  0  0
 26 59  1  0  0  0  0
 27 82  1  0  0  0  0
 28 83  1  0  0  0  0
 29 31  2  0  0  0  0
 29 82  1  0  0  0  0
 30 84  1  0  0  0  0
 31 85  1  0  0  0  0
 32 67  2  0  0  0  0
 33 68  1  0  0  0  0
 33 71  1  0  0  0  0
 34 72  1  0  0  0  0
 34 77  2  0  0  0  0
 35 49  1  0  0  0  0
 35 73  1  0  0  0  0
 35 78  2  0  0  0  0
 36 63  1  0  0  0  0
 36 69  1  0  0  0  0
 36 79  2  0  0  0  0
 37 64  1  0  0  0  0
 37 74  1  0  0  0  0
 37 80  2  0  0  0  0
 38 70  1  0  0  0  0
 38 75  1  0  0  0  0
 38 81  2  0  0  0  0
 39 42  1  0  0  0  0
 40 49  1  0  0  0  0
 41 69  1  0  0  0  0
 42 44  1  0  0  0  0
 43 45  1  0  0  0  0
 43 46  1  0  0  0  0
 44 48  1  0  0  0  0
 45 50  1  0  0  0  0
 46 70  1  0  0  0  0
 47 50  1  0  0  0  0
 47 70  1  0  0  0  0
 48 73  1  0  0  0  0
 49 69  1  0  0  0  0
 50 68  1  0  0  0  0
 52 64  1  0  0  0  0
 53 65  1  0  0  0  0
 54 66  1  0  0  0  0
 55 66  1  0  0  0  0
 56 66  1  0  0  0  0
 57 76  1  0  0  0  0
 58 60  1  0  0  0  0
 59 75  1  0  0  0  0
 60 61  1  0  0  0  0
 61 62  1  0  0  0  0
 62 65  1  0  0  0  0
 63 66  1  0  0  0  0
 63 74  1  0  0  0  0
 64 76  1  0  0  0  0
 65 83  1  0  0  0  0
 67 68  1  0  0  0  0
M  CHG  1  76   1
M  ISO  4  38 100  65 101  75 100  83 101
M  END
> <Batch ID>
0133

> <Smiles>
CNC(C)C(=O)NC(C(=O)N1Cc2cc([101O:1][101CH:1](C)CCCCc3cc(C)cc(C[100NH:0][100C:0](=O)N4CCCC(n5nc(-c6ccc(Oc7ccc(F)cc7F)cc6)c(C(N)=O)c5N)C4)c3)ccc2CC1C(=O)NC1CCCc2ccccc21)C(C)(C)C

> <Shape>
0.257

> <Color>
0.066

> <Negative vol penalty>
0.000

$$$$

  -OEChem-04052302303D

 84 93  0     1  0  0  0  0  0999 V2000
  -28.5272  -38.0679   23.4338 C   0  0  0  0  0  0  0  0  0  0  0  0
  -28.9830  -36.8682   22.8966 C   0  0  0  0  0  0  0  0  0  0  0  0
  -24.1430   -8.6180   19.7475 C   0  0  0  0  0  0  0  0  0  0  0  0
  -22.9519  -10.0892   21.2488 C   0  0  0  0  0  0  0  0  0  0  0  0
  -27.4896  -38.0638   24.3649 C   0  0  0  0  0  0  0  0  0  0  0  0
  -28.4020  -35.6636   23.2912 C   0  0  0  0  0  0  0  0  0  0  0  0
  -27.5131  -30.6949   19.8231 C   0  0  0  0  0  0  0  0  0  0  0  0
  -23.4408   -7.5270   20.2594 C   0  0  0  0  0  0  0  0  0  0  0  0
  -22.2496   -8.9982   21.7607 C   0  0  0  0  0  0  0  0  0  0  0  0
  -28.2308  -29.5078   19.6836 C   0  0  0  0  0  0  0  0  0  0  0  0
  -20.4007   -6.5542   23.7149 C   0  0  0  0  0  0  0  0  0  0  0  0
  -20.2617   -6.4647   25.0999 C   0  0  0  0  0  0  0  0  0  0  0  0
  -28.9593  -19.2217   20.1301 C   0  0  0  0  0  0  0  0  0  0  0  0
  -26.7612  -28.4397   21.2706 C   0  0  0  0  0  0  0  0  0  0  0  0
  -26.6784  -19.0311   19.2892 C   0  0  0  0  0  0  0  0  0  0  0  0
  -22.6650   -6.3928   25.3365 C   0  0  0  0  0  0  0  0  0  0  0  0
  -23.8987   -9.8992   20.2422 C   0  0  0  0  0  0  0  0  0  0  0  0
  -24.2564  -11.8399   18.6257 C   0  0  0  0  0  0  0  0  0  0  0  0
  -26.8890  -36.8593   24.7639 C   0  0  0  0  0  0  0  0  0  0  0  0
  -26.4189  -30.7665   20.6971 C   0  0  0  0  0  0  0  0  0  0  0  0
  -27.3562  -35.6433   24.2296 C   0  0  0  0  0  0  0  0  0  0  0  0
  -28.9220  -20.5438   19.7546 C   0  0  0  0  0  0  0  0  0  0  0  0
  -26.0297  -29.6282   21.4175 C   0  0  0  0  0  0  0  0  0  0  0  0
  -27.8126  -21.1051   19.1683 C   0  0  0  0  0  0  0  0  0  0  0  0
  -27.8147  -18.4567   19.8910 C   0  0  0  0  0  0  0  0  0  0  0  0
  -22.4940   -7.7171   21.2660 C   0  0  0  0  0  0  0  0  0  0  0  0
  -27.8567  -28.3808   20.4095 C   0  0  0  0  0  0  0  0  0  0  0  0
  -21.6719   -6.5630   23.1407 C   0  0  0  0  0  0  0  0  0  0  0  0
  -26.6719  -20.3780   18.9183 C   0  0  0  0  0  0  0  0  0  0  0  0
  -21.3938   -6.3840   25.9107 C   0  0  0  0  0  0  0  0  0  0  0  0
  -22.8040   -6.4823   23.9515 C   0  0  0  0  0  0  0  0  0  0  0  0
  -24.6242  -11.0265   19.7143 C   0  0  0  0  0  0  0  0  0  0  0  0
  -25.2700  -12.7616   18.5280 C   0  0  0  0  0  0  0  0  0  0  0  0
  -23.1018  -11.7687   17.7787 C   0  0  0  0  0  0  0  0  0  0  0  0
  -25.7356  -32.4547   23.3023 C   0  0  0  0  0  0  0  0  0  0  0  0
  -22.8383  -31.0293   22.9924 C   0  0  0  0  0  0  0  0  0  0  0  0
  -21.0123  -28.4091   21.7893 C   0  0  0  0  0  0  0  0  0  0  0  0
  -28.8225  -16.3604   20.8586 C   0  0  0  0  0  0  0  0  0  0  0  0
  -25.8022  -36.9012   25.8088 C   0  0  0  0  0  0  0  0  0  0  0  0
  -25.6387  -32.0469   20.8163 C   0  0  0  0  0  0  0  0  0  0  0  0
  -29.7103  -21.8207   19.7195 C   0  0  0  0  0  0  0  0  0  0  0  0
  -24.8500  -29.6472   22.3537 C   0  0  0  0  0  0  0  0  0  0  0  0
  -24.9884  -35.6124   25.8931 C   0  0  0  0  0  0  0  0  0  0  0  0
  -29.7938  -12.9356   20.7922 C   0  0  0  0  0  0  0  0  0  0  0  0
  -25.9113  -34.3980   25.9051 C   0  0  0  0  0  0  0  0  0  0  0  0
  -28.5052  -12.2005   20.4163 C   0  0  0  0  0  0  0  0  0  0  0  0
  -29.5199  -14.1302   21.7041 C   0  0  0  0  0  0  0  0  0  0  0  0
  -27.2280  -14.3425   20.8259 C   0  0  0  0  0  0  0  0  0  0  0  0
  -28.4477  -22.4648   19.0378 C   0  0  2  0  0  0  0  0  0  0  0  0
  -26.7347  -34.3181   24.6140 C   0  0  1  0  0  0  0  0  0  0  0  0
  -24.8567  -32.1509   22.1220 C   0  0  1  0  0  0  0  0  0  0  0  0
  -27.4464  -13.1701   19.8556 C   0  0  2  0  0  0  0  0  0  0  0  0
  -18.6735  -27.5016   21.7275 C   0  0  0  0  0  0  0  0  0  0  0  0
  -23.1230  -30.1050   25.8862 C   0  0  0  0  0  0  0  0  0  0  0  0
  -21.2825  -28.4599   25.4687 C   0  0  0  0  0  0  0  0  0  0  0  0
  -20.8362  -30.9060   25.2672 C   0  0  0  0  0  0  0  0  0  0  0  0
  -20.9076  -28.5608   18.8355 C   0  0  0  0  0  0  0  0  0  0  0  0
  -24.4492  -20.1074   18.1171 C   0  0  0  0  0  0  0  0  0  0  0  0
  -27.7463  -23.5647   19.8247 C   0  0  0  0  0  0  0  0  0  0  0  0
  -28.4813  -24.8900   19.6501 C   0  0  0  0  0  0  0  0  0  0  0  0
  -27.8361  -26.0033   20.4639 C   0  0  0  0  0  0  0  0  0  1  0  0
  -22.2180  -29.7480   23.4947 C   0  0  1  0  0  0  0  0  0  0  0  0
  -19.7066  -28.3619   21.0165 C   0  0  2  0  0  0  0  0  0  0  0  0
  -21.8884  -29.8046   25.0131 C   0  0  0  0  0  0  0  0  0  0  0  0
  -25.7812  -11.3987   20.2683 N   0  0  0  0  0  0  0  0  0  0  0  0
  -26.1492  -12.4560   19.5249 N   0  0  0  0  0  0  0  0  0  0  0  0
  -24.1230  -30.9244   22.4406 N   0  0  0  0  0  0  0  0  0  0  0  0
  -28.5105  -15.0069   21.1063 N   0  0  0  0  0  0  0  0  0  0  0  0
  -25.4861  -13.7956   17.6874 N   0  0  0  0  0  0  0  0  0  0  0  0
  -22.1588  -10.7598   18.0180 N   0  0  0  0  0  0  0  0  0  0  0  0
  -27.7959  -17.0881   20.2577 N   0  0  0  0  0  0  0  0  0  0  0  0
  -25.9257  -33.8044   23.5295 N   0  0  0  0  0  0  0  0  0  0  0  0
  -21.0626  -29.4919   22.6416 N   0  0  0  0  0  0  0  0  0  0  0  0
  -19.9305  -27.7987   19.6550 N   0  3  0  0  0  0  0  0  0  0  0  0
  -22.9201  -12.5657   16.8272 O   0  0  0  0  0  0  0  0  0  0  0  0
  -26.2053  -31.5329   23.9590 O   0  0  0  0  0  0  0  0  0  0  0  0
  -22.2034  -32.0833   23.0796 O   0  0  0  0  0  0  0  0  0  0  0  0
  -21.8976  -27.5674   21.6534 O   0  0  0  0  0  0  0  0  0  0  0  0
  -29.9292  -16.8319   21.1325 O   0  0  0  0  0  0  0  0  0  0  0  0
  -21.8083   -6.6527   21.7655 O   0  0  0  0  0  0  0  0  0  0  0  0
  -25.5882  -20.9438   18.3363 O   0  0  0  0  0  0  0  0  0  0  0  0
  -28.5559  -27.2210   20.2757 O   0  0  0  0  0  0  0  0  0  1  0  0
  -21.2601   -6.2996   27.2408 F   0  0  0  0  0  0  0  0  0  0  0  0
  -24.0279   -6.4914   23.4057 F   0  0  0  0  0  0  0  0  0  0  0  0
  1  2  1  0  0  0  0
  1  5  2  0  0  0  0
  2  6  2  0  0  0  0
  3  8  2  0  0  0  0
  3 17  1  0  0  0  0
  4  9  1  0  0  0  0
  4 17  2  0  0  0  0
  5 19  1  0  0  0  0
  6 21  1  0  0  0  0
  7 10  2  0  0  0  0
  7 20  1  0  0  0  0
  8 26  1  0  0  0  0
  9 26  2  0  0  0  0
 10 27  1  0  0  0  0
 11 12  2  0  0  0  0
 11 28  1  0  0  0  0
 12 30  1  0  0  0  0
 13 22  1  0  0  0  0
 13 25  2  0  0  0  0
 14 23  1  0  0  0  0
 14 27  2  0  0  0  0
 15 25  1  0  0  0  0
 15 29  2  0  0  0  0
 16 30  2  0  0  0  0
 16 31  1  0  0  0  0
 17 32  1  0  0  0  0
 18 32  1  0  0  0  0
 18 33  2  0  0  0  0
 18 34  1  0  0  0  0
 19 21  2  0  0  0  0
 19 39  1  0  0  0  0
 20 23  2  0  0  0  0
 20 40  1  0  0  0  0
 21 50  1  0  0  0  0
 22 24  2  0  0  0  0
 22 41  1  0  0  0  0
 23 42  1  0  0  0  0
 24 29  1  0  0  0  0
 24 49  1  0  0  0  0
 25 71  1  0  0  0  0
 26 80  1  0  0  0  0
 27 82  1  0  0  0  0
 28 31  2  0  0  0  0
 28 80  1  0  0  0  0
 29 81  1  0  0  0  0
 30 83  1  0  0  0  0
 31 84  1  0  0  0  0
 32 65  2  0  0  0  0
 33 66  1  0  0  0  0
 33 69  1  0  0  0  0
 34 70  1  0  0  0  0
 34 75  2  0  0  0  0
 35 51  1  0  0  0  0
 35 72  1  0  0  0  0
 35 76  2  0  0  0  0
 36 62  1  0  0  0  0
 36 67  1  0  0  0  0
 36 77  2  0  0  0  0
 37 63  1  0  0  0  0
 37 73  1  0  0  0  0
 37 78  2  0  0  0  0
 38 68  1  0  0  0  0
 38 71  1  0  0  0  0
 38 79  2  0  0  0  0
 39 43  1  0  0  0  0
 40 51  1  0  0  0  0
 41 49  1  0  0  0  0
 42 67  1  0  0  0  0
 43 45  1  0  0  0  0
 44 46  1  0  0  0  0
 44 47  1  0  0  0  0
 45 50  1  0  0  0  0
 46 52  1  0  0  0  0
 47 68  1  0  0  0  0
 48 52  1  0  0  0  0
 48 68  1  0  0  0  0
 49 59  1  0  0  0  0
 50 72  1  0  0  0  0
 51 67  1  0  0  0  0
 52 66  1  0  0  0  0
 53 63  1  0  0  0  0
 54 64  1  0  0  0  0
 55 64  1  0  0  0  0
 56 64  1  0  0  0  0
 57 74  1  0  0  0  0
 58 81  1  0  0  0  0
 59 60  1  0  0  0  0
 60 61  1  0  0  0  0
 61 82  1  0  0  0  0
 62 64  1  0  0  0  0
 62 73  1  0  0  0  0
 63 74  1  0  0  0  0
 65 66  1  0  0  0  0
M  CHG  1  74   1
M  ISO  4  38 100  61 101  71 100  82 101
M  END
> <Batch ID>
0133

> <Smiles>
CNC(C)C(=O)NC(C(=O)N1Cc2cc([101O:1][101CH2:1]CCC3Cc4cc([100NH:0][100C:0](=O)N5CCCC(n6nc(-c7ccc(Oc8ccc(F)cc8F)cc7)c(C(N)=O)c6N)C5)cc(OC)c43)ccc2CC1C(=O)NC1CCCc2ccccc21)C(C)(C)C

> <Shape>
0.327

> <Color>
0.102

> <Negative vol penalty>
0.000

$$$$

  -OEChem-04052302303D

 89 98  0     1  0  0  0  0  0999 V2000
  -24.5682  -35.3119   20.4240 C   0  0  0  0  0  0  0  0  0  0  0  0
  -25.3542  -34.1756   20.5861 C   0  0  0  0  0  0  0  0  0  0  0  0
  -22.9583   -9.7290   19.8897 C   0  0  0  0  0  0  0  0  0  0  0  0
  -24.4398   -9.3074   21.7510 C   0  0  0  0  0  0  0  0  0  0  0  0
  -23.3081  -35.3769   21.0172 C   0  0  0  0  0  0  0  0  0  0  0  0
  -24.8810  -33.1040   21.3426 C   0  0  0  0  0  0  0  0  0  0  0  0
  -29.8586  -22.1238   20.4629 C   0  0  0  0  0  0  0  0  0  0  0  0
  -25.6964  -28.6355   19.1035 C   0  0  0  0  0  0  0  0  0  0  0  0
  -29.1018  -21.0074   20.1073 C   0  0  0  0  0  0  0  0  0  0  0  0
  -21.9480   -9.0128   20.5316 C   0  0  0  0  0  0  0  0  0  0  0  0
  -23.4295   -8.5912   22.3930 C   0  0  0  0  0  0  0  0  0  0  0  0
  -26.9859  -28.1109   19.1801 C   0  0  0  0  0  0  0  0  0  0  0  0
  -22.0575   -5.5068   22.2060 C   0  0  0  0  0  0  0  0  0  0  0  0
  -22.3986   -4.2871   22.7902 C   0  0  0  0  0  0  0  0  0  0  0  0
  -26.2839  -26.6642   20.9783 C   0  0  0  0  0  0  0  0  0  0  0  0
  -27.9421  -21.1193   22.2238 C   0  0  0  0  0  0  0  0  0  0  0  0
  -21.6983   -5.1237   24.9459 C   0  0  0  0  0  0  0  0  0  0  0  0
  -24.2043   -9.8762   20.4994 C   0  0  0  0  0  0  0  0  0  0  0  0
  -25.8269  -10.3327   18.5847 C   0  0  0  0  0  0  0  0  0  0  0  0
  -22.8153  -34.3017   21.7733 C   0  0  0  0  0  0  0  0  0  0  0  0
  -24.6921  -28.1855   19.9726 C   0  0  0  0  0  0  0  0  0  0  0  0
  -23.6137  -33.1552   21.9476 C   0  0  0  0  0  0  0  0  0  0  0  0
  -29.6572  -22.7379   21.6991 C   0  0  0  0  0  0  0  0  0  0  0  0
  -24.9819  -27.1829   20.9090 C   0  0  0  0  0  0  0  0  0  0  0  0
  -28.1435  -20.5051   20.9877 C   0  0  0  0  0  0  0  0  0  0  0  0
  -28.6989  -22.2357   22.5795 C   0  0  0  0  0  0  0  0  0  0  0  0
  -22.1836   -8.4439   21.7832 C   0  0  0  0  0  0  0  0  0  0  0  0
  -27.2805  -27.1271   20.1195 C   0  0  0  0  0  0  0  0  0  0  0  0
  -21.5368   -6.5351   22.9917 C   0  0  0  0  0  0  0  0  0  0  0  0
  -22.2190   -4.0955   24.1602 C   0  0  0  0  0  0  0  0  0  0  0  0
  -21.3572   -6.3435   24.3616 C   0  0  0  0  0  0  0  0  0  0  0  0
  -25.2485  -10.6154   19.8366 C   0  0  0  0  0  0  0  0  0  0  0  0
  -26.7630  -11.3221   18.4077 C   0  0  0  0  0  0  0  0  0  0  0  0
  -25.5433   -9.2709   17.6640 C   0  0  0  0  0  0  0  0  0  0  0  0
  -22.8939  -29.5410   22.2160 C   0  0  0  0  0  0  0  0  0  0  0  0
  -27.0861  -16.8189   20.6340 C   0  0  0  0  0  0  0  0  0  0  0  0
  -21.4440  -26.6395   22.2568 C   0  0  0  0  0  0  0  0  0  0  0  0
  -22.4671  -23.1823   22.1204 C   0  0  0  0  0  0  0  0  0  0  0  0
  -21.4666  -34.4371   22.4346 C   0  0  0  0  0  0  0  0  0  0  0  0
  -23.2995  -28.7425   19.8593 C   0  0  0  0  0  0  0  0  0  0  0  0
  -23.9342  -26.6511   21.8513 C   0  0  0  0  0  0  0  0  0  0  0  0
  -20.8847  -33.1080   22.9092 C   0  0  0  0  0  0  0  0  0  0  0  0
  -33.4720  -25.5985   22.0684 C   0  0  0  0  0  0  0  0  0  0  0  0
  -32.8458  -24.5188   22.9419 C   0  0  0  0  0  0  0  0  0  0  0  0
  -32.5943  -26.1582   20.9560 C   0  0  0  0  0  0  0  0  0  0  0  0
  -29.6441  -14.2431   20.8555 C   0  0  0  0  0  0  0  0  0  0  0  0
  -31.9745  -23.5183   22.1874 C   0  0  0  0  0  0  0  0  0  0  0  0
  -21.9410  -32.2986   23.6546 C   0  0  0  0  0  0  0  0  0  0  0  0
  -31.1367  -26.3810   21.3475 C   0  0  0  0  0  0  0  0  0  0  0  0
  -28.8402  -12.9852   20.5291 C   0  0  0  0  0  0  0  0  0  0  0  0
  -28.8131  -15.2512   21.6448 C   0  0  0  0  0  0  0  0  0  0  0  0
  -26.7244  -14.3714   20.6509 C   0  0  0  0  0  0  0  0  0  0  0  0
  -30.4984  -23.9602   22.0664 C   0  0  1  0  0  0  0  0  0  0  0  0
  -23.1252  -31.9622   22.7402 C   0  0  1  0  0  0  0  0  0  0  0  0
  -22.4842  -28.5776   21.1381 C   0  0  1  0  0  0  0  0  0  0  0  0
  -30.2391  -25.1511   21.0974 C   0  0  1  0  0  0  0  0  0  0  0  0
  -27.5174  -13.3418   19.8286 C   0  0  2  0  0  0  0  0  0  0  0  0
  -29.3399  -23.1929   26.2643 C   0  0  0  0  0  0  0  0  0  0  0  0
  -21.2433  -21.1497   21.3030 C   0  0  0  0  0  0  0  0  0  0  0  0
  -20.6301  -26.3108   25.1790 C   0  0  0  0  0  0  0  0  0  0  0  0
  -20.9026  -23.8372   24.9042 C   0  0  0  0  0  0  0  0  0  0  0  0
  -19.2012  -25.0607   23.5511 C   0  0  0  0  0  0  0  0  0  0  0  0
  -24.6452  -22.4833   20.2426 C   0  0  0  0  0  0  0  0  0  0  0  0
  -27.3346  -19.3114   20.6075 C   0  0  0  0  0  0  0  0  0  0  0  0
  -28.4660  -22.8762   23.9085 C   0  0  0  0  0  0  0  0  0  0  0  0
  -27.9680  -17.9780   21.0248 C   0  0  0  0  0  0  0  0  0  0  0  0
  -28.7702  -25.6085   21.1827 C   0  0  0  0  0  0  0  0  0  1  0  0
  -29.5605  -22.5131   24.9223 C   0  0  0  0  0  0  0  0  0  0  0  0
  -21.6544  -25.3498   23.0127 C   0  0  1  0  0  0  0  0  0  0  0  0
  -22.2680  -22.2207   20.9628 C   0  0  2  0  0  0  0  0  0  0  0  0
  -20.6187  -25.1573   24.1561 C   0  0  0  0  0  0  0  0  0  0  0  0
  -25.7733  -11.6993   20.4142 N   0  0  0  0  0  0  0  0  0  0  0  0
  -26.6914  -12.1065   19.5212 N   0  0  0  0  0  0  0  0  0  0  0  0
  -22.5892  -27.2319   21.7058 N   0  0  0  0  0  0  0  0  0  0  0  0
  -27.5492  -15.5434   20.9580 N   0  0  0  0  0  0  0  0  0  0  0  0
  -27.6323  -11.5889   17.4099 N   0  0  0  0  0  0  0  0  0  0  0  0
  -26.2591   -8.0721   17.7857 N   0  0  0  0  0  0  0  0  0  0  0  0
  -22.7849  -30.8700   21.8538 N   0  0  0  0  0  0  0  0  0  0  0  0
  -21.6471  -24.2858   22.0145 N   0  0  0  0  0  0  0  0  0  0  0  0
  -23.5536  -21.5491   20.6203 N   0  3  0  0  0  0  0  0  0  0  0  0
  -24.6923   -9.3877   16.7499 O   0  0  0  0  0  0  0  0  0  0  0  0
  -23.2789  -29.1104   23.2967 O   0  0  0  0  0  0  0  0  0  0  0  0
  -26.0195  -17.0423   20.0557 O   0  0  0  0  0  0  0  0  0  0  0  0
  -20.3046  -27.1005   22.1528 O   0  0  0  0  0  0  0  0  0  0  0  0
  -23.2672  -22.9736   23.0297 O   0  0  0  0  0  0  0  0  0  0  0  0
  -21.1979   -7.7453   22.4100 O   0  0  0  0  0  0  0  0  0  0  0  0
  -28.5384  -26.6138   20.1968 O   0  0  0  0  0  0  0  0  0  1  0  0
  -22.5452   -2.9235   24.7208 F   0  0  0  0  0  0  0  0  0  0  0  0
  -20.8563   -7.3273   25.1213 F   0  0  0  0  0  0  0  0  0  0  0  0
  1  2  1  0  0  0  0
  1  5  2  0  0  0  0
  2  6  2  0  0  0  0
  3 10  2  0  0  0  0
  3 18  1  0  0  0  0
  4 11  1  0  0  0  0
  4 18  2  0  0  0  0
  5 20  1  0  0  0  0
  6 22  1  0  0  0  0
  7  9  2  0  0  0  0
  7 23  1  0  0  0  0
  8 12  2  0  0  0  0
  8 21  1  0  0  0  0
  9 25  1  0  0  0  0
 10 27  1  0  0  0  0
 11 27  2  0  0  0  0
 12 28  1  0  0  0  0
 13 14  2  0  0  0  0
 13 29  1  0  0  0  0
 14 30  1  0  0  0  0
 15 24  1  0  0  0  0
 15 28  2  0  0  0  0
 16 25  2  0  0  0  0
 16 26  1  0  0  0  0
 17 30  2  0  0  0  0
 17 31  1  0  0  0  0
 18 32  1  0  0  0  0
 19 32  1  0  0  0  0
 19 33  2  0  0  0  0
 19 34  1  0  0  0  0
 20 22  2  0  0  0  0
 20 39  1  0  0  0  0
 21 24  2  0  0  0  0
 21 40  1  0  0  0  0
 22 54  1  0  0  0  0
 23 26  2  0  0  0  0
 23 53  1  0  0  0  0
 24 41  1  0  0  0  0
 25 64  1  0  0  0  0
 26 65  1  0  0  0  0
 27 86  1  0  0  0  0
 28 87  1  0  0  0  0
 29 31  2  0  0  0  0
 29 86  1  0  0  0  0
 30 88  1  0  0  0  0
 31 89  1  0  0  0  0
 32 72  2  0  0  0  0
 33 73  1  0  0  0  0
 33 76  1  0  0  0  0
 34 77  1  0  0  0  0
 34 81  2  0  0  0  0
 35 55  1  0  0  0  0
 35 78  1  0  0  0  0
 35 82  2  0  0  0  0
 36 66  1  0  0  0  0
 36 75  1  0  0  0  0
 36 83  2  0  0  0  0
 37 69  1  0  0  0  0
 37 74  1  0  0  0  0
 37 84  2  0  0  0  0
 38 70  1  0  0  0  0
 38 79  1  0  0  0  0
 38 85  2  0  0  0  0
 39 42  1  0  0  0  0
 40 55  1  0  0  0  0
 41 74  1  0  0  0  0
 42 48  1  0  0  0  0
 43 44  1  0  0  0  0
 43 45  1  0  0  0  0
 44 47  1  0  0  0  0
 45 49  1  0  0  0  0
 46 50  1  0  0  0  0
 46 51  1  0  0  0  0
 47 53  1  0  0  0  0
 48 54  1  0  0  0  0
 49 56  1  0  0  0  0
 50 57  1  0  0  0  0
 51 75  1  0  0  0  0
 52 57  1  0  0  0  0
 52 75  1  0  0  0  0
 53 56  1  0  0  0  0
 54 78  1  0  0  0  0
 55 74  1  0  0  0  0
 56 67  1  0  0  0  0
 57 73  1  0  0  0  0
 58 68  1  0  0  0  0
 59 70  1  0  0  0  0
 60 71  1  0  0  0  0
 61 71  1  0  0  0  0
 62 71  1  0  0  0  0
 63 80  1  0  0  0  0
 64 66  1  0  0  0  0
 65 68  1  0  0  0  0
 67 87  1  0  0  0  0
 69 71  1  0  0  0  0
 69 79  1  0  0  0  0
 70 80  1  0  0  0  0
 72 73  1  0  0  0  0
M  CHG  1  80   1
M  ISO  4  36 100  66 100  67 101  87 101
M  END
> <Batch ID>
0133

> <Smiles>
CCCc1cc(C[100CH2:0][100C:0](=O)N2CCCC(n3nc(-c4ccc(Oc5ccc(F)cc5F)cc4)c(C(N)=O)c3N)C2)ccc1C1CCCCCC1[101CH2:1][101O:1]c1ccc2c(c1)CN(C(=O)C(NC(=O)C(C)NC)C(C)(C)C)C(C(=O)NC1CCCc3ccccc31)C2

> <Shape>
0.259

> <Color>
0.114

> <Negative vol penalty>
0.000

$$$$

  -OEChem-04052302303D

 88 96  0     1  0  0  0  0  0999 V2000
  -27.9243  -19.2320   19.7929 C   0  0  0  0  0  0  0  0  0  0  0  0
  -28.7886  -18.5279   19.3468 C   0  0  0  0  0  0  0  0  0  0  0  0
  -18.8238  -24.8786   21.3960 C   0  0  0  0  0  0  0  0  0  0  0  0
  -20.1310  -25.0740   20.9619 C   0  0  0  0  0  0  0  0  0  0  0  0
  -25.2318  -13.7251   25.7970 C   0  0  0  0  0  0  0  0  0  0  0  0
  -22.9561  -13.3747   25.0652 C   0  0  0  0  0  0  0  0  0  0  0  0
  -18.0337  -25.9746   21.7402 C   0  0  0  0  0  0  0  0  0  0  0  0
  -20.6485  -26.3656   20.8706 C   0  0  0  0  0  0  0  0  0  0  0  0
  -25.3256  -26.7238   22.7788 C   0  0  0  0  0  0  0  0  0  0  0  0
  -24.9342  -13.1142   27.0151 C   0  0  0  0  0  0  0  0  0  0  0  0
  -22.6585  -12.7637   26.2833 C   0  0  0  0  0  0  0  0  0  0  0  0
  -26.3737  -26.2557   21.9875 C   0  0  0  0  0  0  0  0  0  0  0  0
  -21.3936  -10.7885   29.0612 C   0  0  0  0  0  0  0  0  0  0  0  0
  -20.6582   -9.6037   29.0307 C   0  0  0  0  0  0  0  0  0  0  0  0
  -26.8720  -28.5194   21.3192 C   0  0  0  0  0  0  0  0  0  0  0  0
  -31.1071  -20.8460   15.8175 C   0  0  0  0  0  0  0  0  0  0  0  0
  -31.0904  -20.8852   18.6069 C   0  0  0  0  0  0  0  0  0  0  0  0
  -22.3909   -8.5623   27.7076 C   0  0  0  0  0  0  0  0  0  0  0  0
  -24.2428  -13.8555   24.8220 C   0  0  0  0  0  0  0  0  0  0  0  0
  -25.0216  -13.8643   22.3928 C   0  0  0  0  0  0  0  0  0  0  0  0
  -18.5449  -27.2797   21.6623 C   0  0  0  0  0  0  0  0  0  0  0  0
  -25.0355  -28.0944   22.8378 C   0  0  0  0  0  0  0  0  0  0  0  0
  -19.8641  -27.4801   21.2128 C   0  0  0  0  0  0  0  0  0  0  0  0
  -25.8213  -29.0025   22.1140 C   0  0  0  0  0  0  0  0  0  0  0  0
  -31.1553  -19.6491   16.5321 C   0  0  0  0  0  0  0  0  0  0  0  0
  -31.0506  -22.0626   16.4976 C   0  0  0  0  0  0  0  0  0  0  0  0
  -31.1469  -19.6687   17.9268 C   0  0  0  0  0  0  0  0  0  0  0  0
  -23.6476  -12.6335   27.2582 C   0  0  0  0  0  0  0  0  0  0  0  0
  -27.1453  -27.1533   21.2553 C   0  0  0  0  0  0  0  0  0  0  0  0
  -22.6277  -10.8603   28.4148 C   0  0  0  0  0  0  0  0  0  0  0  0
  -31.0423  -22.0822   17.8923 C   0  0  0  0  0  0  0  0  0  0  0  0
  -21.1568   -8.4906   28.3540 C   0  0  0  0  0  0  0  0  0  0  0  0
  -23.1263   -9.7472   27.7381 C   0  0  0  0  0  0  0  0  0  0  0  0
  -24.5494  -14.4870   23.5638 C   0  0  0  0  0  0  0  0  0  0  0  0
  -25.1538  -14.8893   21.4882 C   0  0  0  0  0  0  0  0  0  0  0  0
  -26.8866  -20.0826   20.3323 C   0  0  0  0  0  0  0  0  0  0  0  0
  -25.3145  -12.4828   22.1450 C   0  0  0  0  0  0  0  0  0  0  0  0
  -22.5297  -29.8920   22.0675 C   0  0  0  0  0  0  0  0  0  0  0  0
  -29.5557  -24.9441   19.5558 C   0  0  0  0  0  0  0  0  0  0  0  0
  -24.2891  -32.2463   23.4401 C   0  0  0  0  0  0  0  0  0  0  0  0
  -27.3673  -33.4128   24.3404 C   0  0  0  0  0  0  0  0  0  0  0  0
  -17.6375  -28.4361   21.9999 C   0  0  0  0  0  0  0  0  0  0  0  0
  -23.9184  -28.5858   23.7171 C   0  0  0  0  0  0  0  0  0  0  0  0
  -25.5637  -30.4858   22.1590 C   0  0  0  0  0  0  0  0  0  0  0  0
  -18.3832  -29.7476   22.2329 C   0  0  0  0  0  0  0  0  0  0  0  0
  -23.5718  -19.6814   21.6708 C   0  0  0  0  0  0  0  0  0  0  0  0
  -19.4149  -29.9777   21.1332 C   0  0  0  0  0  0  0  0  0  0  0  0
  -23.5846  -18.2556   22.2206 C   0  0  0  0  0  0  0  0  0  0  0  0
  -24.9320  -20.3534   21.8286 C   0  0  0  0  0  0  0  0  0  0  0  0
  -26.0757  -18.1539   21.7644 C   0  0  0  0  0  0  0  0  0  0  0  0
  -20.4693  -28.8643   21.1242 C   0  0  1  0  0  0  0  0  0  0  0  0
  -23.3871  -29.9536   23.2998 C   0  0  1  0  0  0  0  0  0  0  0  0
  -24.7264  -17.4335   21.5969 C   0  0  1  0  0  0  0  0  0  0  0  0
  -31.2170  -18.3586   15.7828 C   0  0  0  0  0  0  0  0  0  0  0  0
  -29.5957  -23.9330   15.6784 C   0  0  0  0  0  0  0  0  0  0  0  0
  -28.4908  -35.3849   25.4109 C   0  0  0  0  0  0  0  0  0  0  0  0
  -23.9205  -33.8485   20.8697 C   0  0  0  0  0  0  0  0  0  0  0  0
  -25.7980  -35.3315   21.6073 C   0  0  0  0  0  0  0  0  0  0  0  0
  -23.7150  -35.1873   22.9720 C   0  0  0  0  0  0  0  0  0  0  0  0
  -28.4394  -31.7531   26.5437 C   0  0  0  0  0  0  0  0  0  0  0  0
  -29.8495  -17.6663   18.8036 C   0  0  0  0  0  0  0  0  0  0  0  0
  -30.9986  -23.3341   15.7166 C   0  0  0  0  0  0  0  0  0  0  0  0
  -31.1978  -18.4004   18.7137 C   0  0  0  0  0  0  0  0  0  0  0  0
  -28.3957  -25.2903   20.4667 C   0  0  0  0  0  0  0  0  0  1  0  0
  -29.8871  -23.4705   19.4395 C   0  0  0  0  0  0  0  0  0  0  0  0
  -25.3202  -33.2342   22.9504 C   0  0  1  0  0  0  0  0  0  0  0  0
  -27.8773  -34.0121   25.6385 C   0  0  2  0  0  0  0  0  0  0  0  0
  -24.6923  -34.3723   22.0973 C   0  0  0  0  0  0  0  0  0  0  0  0
  -24.3924  -15.8055   23.4192 N   0  0  0  0  0  0  0  0  0  0  0  0
  -24.7681  -16.0197   22.1467 N   0  0  0  0  0  0  0  0  0  0  0  0
  -25.9976  -19.5304   21.2569 N   0  0  0  0  0  0  0  0  0  0  0  0
  -24.4564  -30.9165   23.0283 N   0  0  0  0  0  0  0  0  0  0  0  0
  -25.5613  -14.9250   20.2017 N   0  0  0  0  0  0  0  0  0  0  0  0
  -25.1228  -11.5623   23.1844 N   0  0  0  0  0  0  0  0  0  0  0  0
  -21.4277  -29.0673   22.1895 N   0  0  0  0  0  0  0  0  0  0  0  0
  -26.0344  -33.6995   24.1345 N   0  0  0  0  0  0  0  0  0  0  0  0
  -28.9132  -33.1290   26.2450 N   0  3  0  0  0  0  0  0  0  0  0  0
  -26.8607  -21.2430   19.9341 O   0  0  0  0  0  0  0  0  0  0  0  0
  -25.7494  -12.0791   21.0398 O   0  0  0  0  0  0  0  0  0  0  0  0
  -22.8438  -30.5455   21.0796 O   0  0  0  0  0  0  0  0  0  0  0  0
  -30.1893  -25.8062   18.9489 O   0  0  0  0  0  0  0  0  0  0  0  0
  -23.3731  -32.6387   24.1672 O   0  0  0  0  0  0  0  0  0  0  0  0
  -28.0810  -32.7592   23.5828 O   0  0  0  0  0  0  0  0  0  0  0  0
  -23.3569  -12.0371   28.4466 O   0  0  0  0  0  0  0  0  0  0  0  0
  -28.1685  -26.6990   20.4815 O   0  0  0  0  0  0  0  0  0  1  0  0
  -30.9883  -23.2724   18.5782 O   0  0  0  0  0  0  0  0  0  0  0  0
  -20.4512   -7.3523   28.3261 F   0  0  0  0  0  0  0  0  0  0  0  0
  -24.3117   -9.8097   27.1163 F   0  0  0  0  0  0  0  0  0  0  0  0
  1  2  3  0  0  0  0
  1 36  1  0  0  0  0
  2 61  1  0  0  0  0
  3  4  1  0  0  0  0
  3  7  2  0  0  0  0
  4  8  2  0  0  0  0
  5 10  2  0  0  0  0
  5 19  1  0  0  0  0
  6 11  1  0  0  0  0
  6 19  2  0  0  0  0
  7 21  1  0  0  0  0
  8 23  1  0  0  0  0
  9 12  2  0  0  0  0
  9 22  1  0  0  0  0
 10 28  1  0  0  0  0
 11 28  2  0  0  0  0
 12 29  1  0  0  0  0
 13 14  2  0  0  0  0
 13 30  1  0  0  0  0
 14 32  1  0  0  0  0
 15 24  1  0  0  0  0
 15 29  2  0  0  0  0
 16 25  2  0  0  0  0
 16 26  1  0  0  0  0
 17 27  2  0  0  0  0
 17 31  1  0  0  0  0
 18 32  2  0  0  0  0
 18 33  1  0  0  0  0
 19 34  1  0  0  0  0
 20 34  1  0  0  0  0
 20 35  2  0  0  0  0
 20 37  1  0  0  0  0
 21 23  2  0  0  0  0
 21 42  1  0  0  0  0
 22 24  2  0  0  0  0
 22 43  1  0  0  0  0
 23 51  1  0  0  0  0
 24 44  1  0  0  0  0
 25 27  1  0  0  0  0
 25 54  1  0  0  0  0
 26 31  2  0  0  0  0
 26 62  1  0  0  0  0
 27 63  1  0  0  0  0
 28 84  1  0  0  0  0
 29 85  1  0  0  0  0
 30 33  2  0  0  0  0
 30 84  1  0  0  0  0
 31 86  1  0  0  0  0
 32 87  1  0  0  0  0
 33 88  1  0  0  0  0
 34 69  2  0  0  0  0
 35 70  1  0  0  0  0
 35 73  1  0  0  0  0
 36 71  1  0  0  0  0
 36 78  2  0  0  0  0
 37 74  1  0  0  0  0
 37 79  2  0  0  0  0
 38 52  1  0  0  0  0
 38 75  1  0  0  0  0
 38 80  2  0  0  0  0
 39 64  1  0  0  0  0
 39 65  1  0  0  0  0
 39 81  2  0  0  0  0
 40 66  1  0  0  0  0
 40 72  1  0  0  0  0
 40 82  2  0  0  0  0
 41 67  1  0  0  0  0
 41 76  1  0  0  0  0
 41 83  2  0  0  0  0
 42 45  1  0  0  0  0
 43 52  1  0  0  0  0
 44 72  1  0  0  0  0
 45 47  1  0  0  0  0
 46 48  1  0  0  0  0
 46 49  1  0  0  0  0
 47 51  1  0  0  0  0
 48 53  1  0  0  0  0
 49 71  1  0  0  0  0
 50 53  1  0  0  0  0
 50 71  1  0  0  0  0
 51 75  1  0  0  0  0
 52 72  1  0  0  0  0
 53 70  1  0  0  0  0
 55 62  1  0  0  0  0
 56 67  1  0  0  0  0
 57 68  1  0  0  0  0
 58 68  1  0  0  0  0
 59 68  1  0  0  0  0
 60 77  1  0  0  0  0
 61 63  1  0  0  0  0
 64 85  1  0  0  0  0
 65 86  1  0  0  0  0
 66 68  1  0  0  0  0
 66 76  1  0  0  0  0
 67 77  1  0  0  0  0
 69 70  1  0  0  0  0
M  CHG  1  77   1
M  ISO  4   1 100  36 100  64 101  85 101
M  END
> <Batch ID>
0133

> <Smiles>
CCc1cc(C)c(CCC#[100C:0][100C:0](=O)N2CCCC(n3nc(-c4ccc(Oc5ccc(F)cc5F)cc4)c(C(N)=O)c3N)C2)cc1OCC(=O)[101CH2:1][101O:1]c1ccc2c(c1)CN(C(=O)C(NC(=O)C(C)NC)C(C)(C)C)C(C(=O)NC1CCCc3ccccc31)C2

> <Shape>
0.218

> <Color>
0.123

> <Negative vol penalty>
0.000

$$$$

  -OEChem-04052302303D

 87 95  0     1  0  0  0  0  0999 V2000
  -23.8454  -23.0652   25.9142 C   0  0  0  0  0  0  0  0  0  0  0  0
  -24.7609  -23.8809   25.2570 C   0  0  0  0  0  0  0  0  0  0  0  0
  -24.2200   -9.8113   21.2696 C   0  0  0  0  0  0  0  0  0  0  0  0
  -24.6754  -10.8212   23.4166 C   0  0  0  0  0  0  0  0  0  0  0  0
  -23.2226  -22.0239   25.2274 C   0  0  0  0  0  0  0  0  0  0  0  0
  -25.0550  -23.6550   23.9128 C   0  0  0  0  0  0  0  0  0  0  0  0
  -25.1483  -27.9300   21.1997 C   0  0  0  0  0  0  0  0  0  0  0  0
  -30.1068  -23.5620   22.3825 C   0  0  0  0  0  0  0  0  0  0  0  0
  -29.5843  -22.2700   22.4392 C   0  0  0  0  0  0  0  0  0  0  0  0
  -23.8332   -8.6321   21.9063 C   0  0  0  0  0  0  0  0  0  0  0  0
  -24.2885   -9.6420   24.0534 C   0  0  0  0  0  0  0  0  0  0  0  0
  -26.2867  -28.7276   21.3072 C   0  0  0  0  0  0  0  0  0  0  0  0
  -23.0778   -7.0188   26.2604 C   0  0  0  0  0  0  0  0  0  0  0  0
  -22.2409   -7.1251   27.3712 C   0  0  0  0  0  0  0  0  0  0  0  0
  -27.1080  -27.8254   19.2262 C   0  0  0  0  0  0  0  0  0  0  0  0
  -29.6222  -23.6542   20.0174 C   0  0  0  0  0  0  0  0  0  0  0  0
  -20.5643   -8.2017   26.0048 C   0  0  0  0  0  0  0  0  0  0  0  0
  -24.6411  -10.9059   22.0248 C   0  0  0  0  0  0  0  0  0  0  0  0
  -24.2204  -13.2162   21.0282 C   0  0  0  0  0  0  0  0  0  0  0  0
  -23.5019  -21.7912   23.8715 C   0  0  0  0  0  0  0  0  0  0  0  0
  -24.9860  -27.0646   20.1083 C   0  0  0  0  0  0  0  0  0  0  0  0
  -24.4363  -22.6088   23.2075 C   0  0  0  0  0  0  0  0  0  0  0  0
  -25.9654  -27.0197   19.1058 C   0  0  0  0  0  0  0  0  0  0  0  0
  -30.1257  -24.2541   21.1716 C   0  0  0  0  0  0  0  0  0  0  0  0
  -29.0808  -21.6700   21.2850 C   0  0  0  0  0  0  0  0  0  0  0  0
  -29.0997  -22.3621   20.0741 C   0  0  0  0  0  0  0  0  0  0  0  0
  -23.8674   -8.5474   23.2982 C   0  0  0  0  0  0  0  0  0  0  0  0
  -27.2681  -28.6733   20.3218 C   0  0  0  0  0  0  0  0  0  0  0  0
  -22.6581   -7.5040   25.0218 C   0  0  0  0  0  0  0  0  0  0  0  0
  -20.9841   -7.7165   27.2434 C   0  0  0  0  0  0  0  0  0  0  0  0
  -21.4013   -8.0954   24.8940 C   0  0  0  0  0  0  0  0  0  0  0  0
  -25.0414  -12.1241   21.3676 C   0  0  0  0  0  0  0  0  0  0  0  0
  -25.0712  -14.1116   20.4275 C   0  0  0  0  0  0  0  0  0  0  0  0
  -22.8145  -13.4044   21.2374 C   0  0  0  0  0  0  0  0  0  0  0  0
  -24.7138  -23.9165   19.7629 C   0  0  0  0  0  0  0  0  0  0  0  0
  -29.9654  -16.8196   20.3716 C   0  0  0  0  0  0  0  0  0  0  0  0
  -24.1577  -24.6967   16.6638 C   0  0  0  0  0  0  0  0  0  0  0  0
  -24.5502  -26.9455   14.1269 C   0  0  0  0  0  0  0  0  0  0  0  0
  -22.8392  -20.6240   23.1838 C   0  0  0  0  0  0  0  0  0  0  0  0
  -23.7397  -26.2304   19.9934 C   0  0  0  0  0  0  0  0  0  0  0  0
  -25.8294  -26.1224   17.9039 C   0  0  0  0  0  0  0  0  0  0  0  0
  -22.9254  -20.6853   21.6609 C   0  0  0  0  0  0  0  0  0  0  0  0
  -29.8366  -13.5825   18.8403 C   0  0  0  0  0  0  0  0  0  0  0  0
  -24.3440  -21.0317   21.2201 C   0  0  0  0  0  0  0  0  0  0  0  0
  -28.5252  -12.9927   19.3574 C   0  0  0  0  0  0  0  0  0  0  0  0
  -30.5104  -14.4553   19.8945 C   0  0  0  0  0  0  0  0  0  0  0  0
  -28.3274  -14.9594   20.9443 C   0  0  0  0  0  0  0  0  0  0  0  0
  -24.7630  -22.4110   21.7432 C   0  0  1  0  0  0  0  0  0  0  0  0
  -23.9200  -25.0067   19.1003 C   0  0  1  0  0  0  0  0  0  0  0  0
  -27.5988  -14.0956   19.8996 C   0  0  2  0  0  0  0  0  0  0  0  0
  -28.5665  -21.7398   18.8254 C   0  0  0  0  0  0  0  0  0  0  0  0
  -24.0189  -27.2881   11.6984 C   0  0  0  0  0  0  0  0  0  0  0  0
  -30.7860  -31.1675   20.9004 C   0  0  0  0  0  0  0  0  0  0  0  0
  -28.7696  -31.6425   22.2956 C   0  0  0  0  0  0  0  0  0  0  0  0
  -26.3817  -22.7503   15.9052 C   0  0  0  0  0  0  0  0  0  0  0  0
  -26.4516  -23.8207   13.6430 C   0  0  0  0  0  0  0  0  0  0  0  0
  -24.3750  -22.6738   14.4145 C   0  0  0  0  0  0  0  0  0  0  0  0
  -22.9408  -29.3620   14.7005 C   0  0  0  0  0  0  0  0  0  0  0  0
  -30.6911  -25.6507   21.1104 C   0  0  0  0  0  0  0  0  0  0  0  0
  -28.5275  -20.2853   21.3701 C   0  0  0  0  0  0  0  0  0  0  0  0
  -28.9643  -17.8125   20.9063 C   0  0  0  0  0  0  0  0  0  0  0  0
  -29.6528  -26.7502   21.3658 C   0  0  0  0  0  0  0  0  0  0  0  0
  -29.5042  -19.2362   20.8135 C   0  0  0  0  0  0  0  0  0  0  0  0
  -30.2475  -28.1642   21.2868 C   0  0  0  0  0  0  0  0  0  0  0  0
  -25.0190  -24.8933   15.4397 C   0  0  1  0  0  0  0  0  0  0  0  0
  -23.5613  -27.5218   13.1297 C   0  0  2  0  0  0  0  0  0  0  0  0
  -29.8498  -30.6033   21.9735 C   0  0  0  0  0  0  0  0  0  0  0  0
  -29.2045  -29.2562   21.5735 C   0  0  1  0  0  0  0  0  0  1  0  0
  -25.5606  -23.5501   14.8741 C   0  0  0  0  0  0  0  0  0  0  0  0
  -26.3157  -12.3068   21.0118 N   0  0  0  0  0  0  0  0  0  0  0  0
  -26.3020  -13.5242   20.4426 N   0  0  0  0  0  0  0  0  0  0  0  0
  -24.5958  -25.3214   17.8400 N   0  0  0  0  0  0  0  0  0  0  0  0
  -29.5910  -15.4761   20.4004 N   0  0  0  0  0  0  0  0  0  0  0  0
  -24.8790  -15.3363   19.8930 N   0  0  0  0  0  0  0  0  0  0  0  0
  -22.0907  -12.3845   21.8699 N   0  0  0  0  0  0  0  0  0  0  0  0
  -24.1631  -23.4581   20.9444 N   0  0  0  0  0  0  0  0  0  0  0  0
  -24.2149  -25.6592   14.4935 N   0  0  0  0  0  0  0  0  0  0  0  0
  -23.4086  -28.9891   13.3407 N   0  3  0  0  0  0  0  0  0  0  0  0
  -22.2148  -14.4393   20.8594 O   0  0  0  0  0  0  0  0  0  0  0  0
  -25.7486  -23.5195   19.2400 O   0  0  0  0  0  0  0  0  0  0  0  0
  -31.0462  -17.2281   19.9389 O   0  0  0  0  0  0  0  0  0  0  0  0
  -23.1300  -24.0197   16.5777 O   0  0  0  0  0  0  0  0  0  0  0  0
  -25.5248  -27.5722   14.5367 O   0  0  0  0  0  0  0  0  0  0  0  0
  -23.4898   -7.3970   23.9199 O   0  0  0  0  0  0  0  0  0  0  0  0
  -28.3806  -29.4503   20.4247 O   0  0  0  0  0  0  0  0  0  1  0  0
  -20.1799   -7.8172   28.3098 F   0  0  0  0  0  0  0  0  0  0  0  0
  -20.9920   -8.5623   23.7065 F   0  0  0  0  0  0  0  0  0  0  0  0
  1  2  1  0  0  0  0
  1  5  2  0  0  0  0
  2  6  2  0  0  0  0
  3 10  2  0  0  0  0
  3 18  1  0  0  0  0
  4 11  1  0  0  0  0
  4 18  2  0  0  0  0
  5 20  1  0  0  0  0
  6 22  1  0  0  0  0
  7 12  2  0  0  0  0
  7 21  1  0  0  0  0
  8  9  2  0  0  0  0
  8 24  1  0  0  0  0
  9 25  1  0  0  0  0
 10 27  1  0  0  0  0
 11 27  2  0  0  0  0
 12 28  1  0  0  0  0
 13 14  2  0  0  0  0
 13 29  1  0  0  0  0
 14 30  1  0  0  0  0
 15 23  1  0  0  0  0
 15 28  2  0  0  0  0
 16 24  2  0  0  0  0
 16 26  1  0  0  0  0
 17 30  2  0  0  0  0
 17 31  1  0  0  0  0
 18 32  1  0  0  0  0
 19 32  1  0  0  0  0
 19 33  2  0  0  0  0
 19 34  1  0  0  0  0
 20 22  2  0  0  0  0
 20 39  1  0  0  0  0
 21 23  2  0  0  0  0
 21 40  1  0  0  0  0
 22 48  1  0  0  0  0
 23 41  1  0  0  0  0
 24 59  1  0  0  0  0
 25 26  2  0  0  0  0
 25 60  1  0  0  0  0
 26 51  1  0  0  0  0
 27 84  1  0  0  0  0
 28 85  1  0  0  0  0
 29 31  2  0  0  0  0
 29 84  1  0  0  0  0
 30 86  1  0  0  0  0
 31 87  1  0  0  0  0
 32 70  2  0  0  0  0
 33 71  1  0  0  0  0
 33 74  1  0  0  0  0
 34 75  1  0  0  0  0
 34 79  2  0  0  0  0
 35 49  1  0  0  0  0
 35 76  1  0  0  0  0
 35 80  2  0  0  0  0
 36 61  1  0  0  0  0
 36 73  1  0  0  0  0
 36 81  2  0  0  0  0
 37 65  1  0  0  0  0
 37 72  1  0  0  0  0
 37 82  2  0  0  0  0
 38 66  1  0  0  0  0
 38 77  1  0  0  0  0
 38 83  2  0  0  0  0
 39 42  1  0  0  0  0
 40 49  1  0  0  0  0
 41 72  1  0  0  0  0
 42 44  1  0  0  0  0
 43 45  1  0  0  0  0
 43 46  1  0  0  0  0
 44 48  1  0  0  0  0
 45 50  1  0  0  0  0
 46 73  1  0  0  0  0
 47 50  1  0  0  0  0
 47 73  1  0  0  0  0
 48 76  1  0  0  0  0
 49 72  1  0  0  0  0
 50 71  1  0  0  0  0
 52 66  1  0  0  0  0
 53 67  1  0  0  0  0
 54 67  1  0  0  0  0
 55 69  1  0  0  0  0
 56 69  1  0  0  0  0
 57 69  1  0  0  0  0
 58 78  1  0  0  0  0
 59 62  1  0  0  0  0
 60 63  1  0  0  0  0
 61 63  1  0  0  0  0
 62 64  1  0  0  0  0
 64 68  1  0  0  0  0
 65 69  1  0  0  0  0
 65 77  1  0  0  0  0
 66 78  1  0  0  0  0
 67 68  1  0  0  0  0
 68 85  1  0  0  0  0
 70 71  1  0  0  0  0
M  CHG  1  78   1
M  ISO  4  36 100  61 100  68 101  85 101
M  END
> <Batch ID>
0133

> <Smiles>
CNC(C)C(=O)NC(C(=O)N1Cc2cc([101O:1][101CH:1](CCCc3ccc(CC[100CH2:0][100C:0](=O)N4CCCC(n5nc(-c6ccc(Oc7ccc(F)cc7F)cc6)c(C(N)=O)c5N)C4)c(C)c3)C(C)C)ccc2CC1C(=O)NC1CCCc2ccccc21)C(C)(C)C

> <Shape>
0.206

> <Color>
0.116

> <Negative vol penalty>
0.000

$$$$

  -OEChem-04052302303D

 85 93  0     1  0  0  0  0  0999 V2000
  -19.0123  -24.3264   23.9494 C   0  0  0  0  0  0  0  0  0  0  0  0
  -20.2845  -24.2448   23.3925 C   0  0  0  0  0  0  0  0  0  0  0  0
  -26.9006  -12.6256   20.7654 C   0  0  0  0  0  0  0  0  0  0  0  0
  -25.9646  -13.8711   18.9188 C   0  0  0  0  0  0  0  0  0  0  0  0
  -18.2977  -25.5217   23.8803 C   0  0  0  0  0  0  0  0  0  0  0  0
  -20.8426  -25.3582   22.7652 C   0  0  0  0  0  0  0  0  0  0  0  0
  -26.7497  -26.9730   22.7026 C   0  0  0  0  0  0  0  0  0  0  0  0
  -24.3325  -23.1194   16.7747 C   0  0  0  0  0  0  0  0  0  0  0  0
  -25.7141  -23.0108   16.9325 C   0  0  0  0  0  0  0  0  0  0  0  0
  -25.9657  -11.6119   20.5556 C   0  0  0  0  0  0  0  0  0  0  0  0
  -25.0297  -12.8573   18.7090 C   0  0  0  0  0  0  0  0  0  0  0  0
  -27.7607  -26.7952   21.7592 C   0  0  0  0  0  0  0  0  0  0  0  0
  -22.7049  -11.0498   21.2451 C   0  0  0  0  0  0  0  0  0  0  0  0
  -22.0557  -10.5264   22.3632 C   0  0  0  0  0  0  0  0  0  0  0  0
  -27.3348  -29.0067   20.8948 C   0  0  0  0  0  0  0  0  0  0  0  0
  -24.0393  -22.8545   19.1582 C   0  0  0  0  0  0  0  0  0  0  0  0
  -22.9440   -8.3380   21.8544 C   0  0  0  0  0  0  0  0  0  0  0  0
  -26.9001  -13.7552   19.9470 C   0  0  0  0  0  0  0  0  0  0  0  0
  -29.1452  -14.9118   19.5880 C   0  0  0  0  0  0  0  0  0  0  0  0
  -18.8512  -26.6530   23.2604 C   0  0  0  0  0  0  0  0  0  0  0  0
  -26.0150  -28.1668   22.7421 C   0  0  0  0  0  0  0  0  0  0  0  0
  -20.1342  -26.5693   22.6866 C   0  0  0  0  0  0  0  0  0  0  0  0
  -26.3167  -29.1981   21.8412 C   0  0  0  0  0  0  0  0  0  0  0  0
  -23.4951  -23.0414   17.8876 C   0  0  0  0  0  0  0  0  0  0  0  0
  -26.2583  -22.8240   18.2032 C   0  0  0  0  0  0  0  0  0  0  0  0
  -25.4210  -22.7459   19.3160 C   0  0  0  0  0  0  0  0  0  0  0  0
  -25.0303  -11.7278   19.5274 C   0  0  0  0  0  0  0  0  0  0  0  0
  -28.0515  -27.8110   20.8532 C   0  0  0  0  0  0  0  0  0  0  0  0
  -23.4735  -10.2174   20.4315 C   0  0  0  0  0  0  0  0  0  0  0  0
  -22.1753   -9.1705   22.6679 C   0  0  0  0  0  0  0  0  0  0  0  0
  -23.5931   -8.8614   20.7362 C   0  0  0  0  0  0  0  0  0  0  0  0
  -27.8652  -14.8029   20.1636 C   0  0  0  0  0  0  0  0  0  0  0  0
  -29.6588  -16.0737   20.1102 C   0  0  0  0  0  0  0  0  0  0  0  0
  -29.8105  -14.0407   18.6638 C   0  0  0  0  0  0  0  0  0  0  0  0
  -22.9551  -28.9317   22.3480 C   0  0  0  0  0  0  0  0  0  0  0  0
  -27.0104  -20.9814   22.3492 C   0  0  0  0  0  0  0  0  0  0  0  0
  -23.9772  -31.8740   23.2537 C   0  0  0  0  0  0  0  0  0  0  0  0
  -26.5593  -34.0899   23.5173 C   0  0  0  0  0  0  0  0  0  0  0  0
  -18.0216  -27.9093   23.1687 C   0  0  0  0  0  0  0  0  0  0  0  0
  -24.9455  -28.3533   23.7831 C   0  0  0  0  0  0  0  0  0  0  0  0
  -25.5710  -30.5067   21.8553 C   0  0  0  0  0  0  0  0  0  0  0  0
  -18.8351  -29.1520   22.8163 C   0  0  0  0  0  0  0  0  0  0  0  0
  -29.4204  -18.8809   23.9678 C   0  0  0  0  0  0  0  0  0  0  0  0
  -19.7780  -28.8607   21.6531 C   0  0  0  0  0  0  0  0  0  0  0  0
  -29.3904  -17.5964   23.1405 C   0  0  0  0  0  0  0  0  0  0  0  0
  -28.0379  -19.5193   24.0583 C   0  0  0  0  0  0  0  0  0  0  0  0
  -27.3730  -18.5034   21.9024 C   0  0  0  0  0  0  0  0  0  0  0  0
  -20.7835  -27.7625   22.0196 C   0  0  1  0  0  0  0  0  0  0  0  0
  -23.9158  -29.4114   23.3990 C   0  0  1  0  0  0  0  0  0  0  0  0
  -28.7556  -17.8427   21.7603 C   0  0  2  0  0  0  0  0  0  0  0  0
  -22.0179  -23.1570   17.7185 C   0  0  0  0  0  0  0  0  0  0  0  0
  -27.0792  -36.4293   24.2619 C   0  0  0  0  0  0  0  0  0  0  0  0
  -29.4202  -28.8704   17.9069 C   0  0  0  0  0  0  0  0  0  0  0  0
  -22.6873  -32.9665   20.7135 C   0  0  0  0  0  0  0  0  0  0  0  0
  -24.0236  -35.0615   21.0193 C   0  0  0  0  0  0  0  0  0  0  0  0
  -22.3547  -34.3856   22.7458 C   0  0  0  0  0  0  0  0  0  0  0  0
  -28.4641  -33.1367   25.5721 C   0  0  0  0  0  0  0  0  0  0  0  0
  -27.7549  -22.7082   18.3486 C   0  0  0  0  0  0  0  0  0  0  0  0
  -25.9811  -22.5458   20.6861 C   0  0  0  0  0  0  0  0  0  0  0  0
  -26.4309  -21.1066   20.9626 C   0  0  0  0  0  0  0  0  0  0  0  0
  -28.5269  -23.9030   17.7773 C   0  0  0  0  0  0  0  0  0  0  0  0
  -28.2153  -25.2184   18.4988 C   0  0  0  0  0  0  0  0  0  0  0  0
  -28.9799  -26.3890   17.8697 C   0  0  0  0  0  0  0  0  0  0  0  0
  -24.5140  -33.0877   22.5340 C   0  0  1  0  0  0  0  0  0  0  0  0
  -27.0221  -34.9650   24.6682 C   0  0  2  0  0  0  0  0  0  0  0  0
  -28.6622  -27.7204   18.5565 C   0  0  1  0  0  0  0  0  0  1  0  0
  -23.4078  -33.8500   21.7514 C   0  0  0  0  0  0  0  0  0  0  0  0
  -27.5830  -15.8148   20.9885 N   0  0  0  0  0  0  0  0  0  0  0  0
  -28.6929  -16.5706   20.9350 N   0  0  0  0  0  0  0  0  0  0  0  0
  -24.5300  -30.6385   22.8879 N   0  0  0  0  0  0  0  0  0  0  0  0
  -27.4596  -19.7161   22.7278 N   0  0  0  0  0  0  0  0  0  0  0  0
  -30.8380  -16.7086   19.9398 N   0  0  0  0  0  0  0  0  0  0  0  0
  -29.1392  -12.8898   18.2288 N   0  0  0  0  0  0  0  0  0  0  0  0
  -21.8360  -28.2994   22.8553 N   0  0  0  0  0  0  0  0  0  0  0  0
  -25.1949  -33.8923   23.5427 N   0  0  0  0  0  0  0  0  0  0  0  0
  -28.3798  -34.5497   25.1211 N   0  3  0  0  0  0  0  0  0  0  0  0
  -30.9725  -14.2673   18.2490 O   0  0  0  0  0  0  0  0  0  0  0  0
  -23.2095  -29.1225   21.1646 O   0  0  0  0  0  0  0  0  0  0  0  0
  -27.0642  -21.9801   23.0716 O   0  0  0  0  0  0  0  0  0  0  0  0
  -23.1048  -32.0177   24.1139 O   0  0  0  0  0  0  0  0  0  0  0  0
  -27.3304  -33.6309   22.6776 O   0  0  0  0  0  0  0  0  0  0  0  0
  -24.1180  -10.7387   19.3223 O   0  0  0  0  0  0  0  0  0  0  0  0
  -29.0374  -27.6398   19.9310 O   0  0  0  0  0  0  0  0  0  1  0  0
  -21.5531   -8.6683   23.7425 F   0  0  0  0  0  0  0  0  0  0  0  0
  -24.3311   -8.0570   19.9591 F   0  0  0  0  0  0  0  0  0  0  0  0
  1  2  1  0  0  0  0
  1  5  2  0  0  0  0
  2  6  2  0  0  0  0
  3 10  2  0  0  0  0
  3 18  1  0  0  0  0
  4 11  1  0  0  0  0
  4 18  2  0  0  0  0
  5 20  1  0  0  0  0
  6 22  1  0  0  0  0
  7 12  2  0  0  0  0
  7 21  1  0  0  0  0
  8  9  2  0  0  0  0
  8 24  1  0  0  0  0
  9 25  1  0  0  0  0
 10 27  1  0  0  0  0
 11 27  2  0  0  0  0
 12 28  1  0  0  0  0
 13 14  2  0  0  0  0
 13 29  1  0  0  0  0
 14 30  1  0  0  0  0
 15 23  1  0  0  0  0
 15 28  2  0  0  0  0
 16 24  2  0  0  0  0
 16 26  1  0  0  0  0
 17 30  2  0  0  0  0
 17 31  1  0  0  0  0
 18 32  1  0  0  0  0
 19 32  1  0  0  0  0
 19 33  2  0  0  0  0
 19 34  1  0  0  0  0
 20 22  2  0  0  0  0
 20 39  1  0  0  0  0
 21 23  2  0  0  0  0
 21 40  1  0  0  0  0
 22 48  1  0  0  0  0
 23 41  1  0  0  0  0
 24 51  1  0  0  0  0
 25 26  2  0  0  0  0
 25 58  1  0  0  0  0
 26 59  1  0  0  0  0
 27 82  1  0  0  0  0
 28 83  1  0  0  0  0
 29 31  2  0  0  0  0
 29 82  1  0  0  0  0
 30 84  1  0  0  0  0
 31 85  1  0  0  0  0
 32 68  2  0  0  0  0
 33 69  1  0  0  0  0
 33 72  1  0  0  0  0
 34 73  1  0  0  0  0
 34 77  2  0  0  0  0
 35 49  1  0  0  0  0
 35 74  1  0  0  0  0
 35 78  2  0  0  0  0
 36 60  1  0  0  0  0
 36 71  1  0  0  0  0
 36 79  2  0  0  0  0
 37 64  1  0  0  0  0
 37 70  1  0  0  0  0
 37 80  2  0  0  0  0
 38 65  1  0  0  0  0
 38 75  1  0  0  0  0
 38 81  2  0  0  0  0
 39 42  1  0  0  0  0
 40 49  1  0  0  0  0
 41 70  1  0  0  0  0
 42 44  1  0  0  0  0
 43 45  1  0  0  0  0
 43 46  1  0  0  0  0
 44 48  1  0  0  0  0
 45 50  1  0  0  0  0
 46 71  1  0  0  0  0
 47 50  1  0  0  0  0
 47 71  1  0  0  0  0
 48 74  1  0  0  0  0
 49 70  1  0  0  0  0
 50 69  1  0  0  0  0
 52 65  1  0  0  0  0
 53 66  1  0  0  0  0
 54 67  1  0  0  0  0
 55 67  1  0  0  0  0
 56 67  1  0  0  0  0
 57 76  1  0  0  0  0
 58 61  1  0  0  0  0
 59 60  1  0  0  0  0
 61 62  1  0  0  0  0
 62 63  1  0  0  0  0
 63 66  1  0  0  0  0
 64 67  1  0  0  0  0
 64 75  1  0  0  0  0
 65 76  1  0  0  0  0
 66 83  1  0  0  0  0
 68 69  1  0  0  0  0
M  CHG  1  76   1
M  ISO  4  36 100  60 100  66 101  83 101
M  END
> <Batch ID>
0133

> <Smiles>
CNC(C)C(=O)NC(C(=O)N1Cc2cc([101O:1][101CH:1](C)CCCCc3ccc(C)cc3C[100CH2:0][100C:0](=O)N3CCCC(n4nc(-c5ccc(Oc6ccc(F)cc6F)cc5)c(C(N)=O)c4N)C3)ccc2CC1C(=O)NC1CCCc2ccccc21)C(C)(C)C

> <Shape>
0.260

> <Color>
0.083

> <Negative vol penalty>
0.000

$$$$

  -OEChem-04052302303D

 87 95  0     1  0  0  0  0  0999 V2000
  -29.4723  -34.1576   27.3674 C   0  0  0  0  0  0  0  0  0  0  0  0
  -29.8303  -33.2982   26.3336 C   0  0  0  0  0  0  0  0  0  0  0  0
  -30.1131  -20.5705   19.3476 C   0  0  0  0  0  0  0  0  0  0  0  0
  -24.9226   -8.3880   22.3919 C   0  0  0  0  0  0  0  0  0  0  0  0
  -25.4322   -7.2670   20.3133 C   0  0  0  0  0  0  0  0  0  0  0  0
  -29.7282  -19.3340   19.8658 C   0  0  0  0  0  0  0  0  0  0  0  0
  -28.1922  -34.0911   27.9160 C   0  0  0  0  0  0  0  0  0  0  0  0
  -28.9087  -32.3710   25.8485 C   0  0  0  0  0  0  0  0  0  0  0  0
  -26.9837  -29.0540   19.7980 C   0  0  0  0  0  0  0  0  0  0  0  0
  -29.4969  -21.0679   18.1992 C   0  0  0  0  0  0  0  0  0  0  0  0
  -23.6638   -7.7873   22.4073 C   0  0  0  0  0  0  0  0  0  0  0  0
  -24.1735   -6.6662   20.3287 C   0  0  0  0  0  0  0  0  0  0  0  0
  -26.7511  -27.7731   19.2990 C   0  0  0  0  0  0  0  0  0  0  0  0
  -22.3528   -4.7709   23.1919 C   0  0  0  0  0  0  0  0  0  0  0  0
  -21.9126   -4.2190   24.3949 C   0  0  0  0  0  0  0  0  0  0  0  0
  -24.5430  -27.8024   20.2699 C   0  0  0  0  0  0  0  0  0  0  0  0
  -20.0132   -5.7120   24.3848 C   0  0  0  0  0  0  0  0  0  0  0  0
  -25.8068   -8.1280   21.3449 C   0  0  0  0  0  0  0  0  0  0  0  0
  -28.7272  -18.5948   19.2356 C   0  0  0  0  0  0  0  0  0  0  0  0
  -28.2960   -8.2466   21.8902 C   0  0  0  0  0  0  0  0  0  0  0  0
  -27.2513  -33.1692   27.4308 C   0  0  0  0  0  0  0  0  0  0  0  0
  -26.0001  -29.7155   20.5472 C   0  0  0  0  0  0  0  0  0  0  0  0
  -27.6152  -32.2912   26.3920 C   0  0  0  0  0  0  0  0  0  0  0  0
  -24.7647  -29.0927   20.7751 C   0  0  0  0  0  0  0  0  0  0  0  0
  -28.4959  -20.3287   17.5691 C   0  0  0  0  0  0  0  0  0  0  0  0
  -28.1110  -19.0921   18.0872 C   0  0  0  0  0  0  0  0  0  0  0  0
  -23.2893   -6.9263   21.3758 C   0  0  0  0  0  0  0  0  0  0  0  0
  -25.5317  -27.1460   19.5374 C   0  0  0  0  0  0  0  0  0  0  0  0
  -21.6233   -5.7934   22.5853 C   0  0  0  0  0  0  0  0  0  0  0  0
  -20.7428   -4.6896   24.9914 C   0  0  0  0  0  0  0  0  0  0  0  0
  -20.4534   -6.2639   23.1818 C   0  0  0  0  0  0  0  0  0  0  0  0
  -27.1069   -8.7487   21.3281 C   0  0  0  0  0  0  0  0  0  0  0  0
  -29.2406   -9.2022   21.6054 C   0  0  0  0  0  0  0  0  0  0  0  0
  -28.3499  -17.3071   19.8038 C   0  0  0  0  0  0  0  0  0  0  0  0
  -29.1815  -16.2617   19.9883 C   0  0  0  0  0  0  0  0  0  0  0  0
  -28.5261   -7.0256   22.6056 C   0  0  0  0  0  0  0  0  0  0  0  0
  -28.6487  -15.0218   20.5879 C   0  0  0  0  0  0  0  0  0  0  0  0
  -25.8117  -30.8226   23.5209 C   0  0  0  0  0  0  0  0  0  0  0  0
  -22.9766  -32.0099   22.4842 C   0  0  0  0  0  0  0  0  0  0  0  0
  -20.3842  -31.8053   20.2742 C   0  0  0  0  0  0  0  0  0  0  0  0
  -25.8952  -33.1024   28.0874 C   0  0  0  0  0  0  0  0  0  0  0  0
  -26.2566  -31.1076   21.0558 C   0  0  0  0  0  0  0  0  0  0  0  0
  -23.6682  -29.7681   21.5562 C   0  0  0  0  0  0  0  0  0  0  0  0
  -24.8562  -32.3459   27.2637 C   0  0  0  0  0  0  0  0  0  0  0  0
  -30.3177  -12.5844   18.4187 C   0  0  0  0  0  0  0  0  0  0  0  0
  -25.4378  -31.0344   26.7454 C   0  0  0  0  0  0  0  0  0  0  0  0
  -29.7441  -11.2747   18.9528 C   0  0  0  0  0  0  0  0  0  0  0  0
  -29.3025  -13.7241   18.4891 C   0  0  0  0  0  0  0  0  0  0  0  0
  -28.1534  -12.6163   20.3846 C   0  0  0  0  0  0  0  0  0  0  0  0
  -26.6354  -31.2887   25.8220 C   0  0  1  0  0  0  0  0  0  0  0  0
  -25.3751  -31.4819   22.2432 C   0  0  1  0  0  0  0  0  0  0  0  0
  -29.1732  -11.4670   20.3667 C   0  0  1  0  0  0  0  0  0  0  0  0
  -26.5145  -16.3334   15.9088 C   0  0  0  0  0  0  0  0  0  0  0  0
  -18.1949  -32.8892   19.6999 C   0  0  0  0  0  0  0  0  0  0  0  0
  -25.7020  -21.8587   15.3682 C   0  0  0  0  0  0  0  0  0  0  0  0
  -21.6670  -30.6198   24.8638 C   0  0  0  0  0  0  0  0  0  0  0  0
  -19.4535  -30.9232   23.7338 C   0  0  0  0  0  0  0  0  0  0  0  0
  -20.8000  -32.9175   24.3913 C   0  0  0  0  0  0  0  0  0  0  0  0
  -21.3341  -32.5617   17.5752 C   0  0  0  0  0  0  0  0  0  0  0  0
  -27.8458  -20.8910   16.3269 C   0  0  0  0  0  0  0  0  0  0  0  0
  -27.0353  -18.3074   17.4019 C   0  0  0  0  0  0  0  0  0  0  0  0
  -27.6100  -17.1486   16.5774 C   0  0  0  0  0  0  0  0  0  0  0  0
  -25.9096  -23.8935   17.8745 C   0  0  0  0  0  0  0  0  0  0  0  0
  -26.9914  -23.1889   17.0539 C   0  0  0  0  0  0  0  0  0  0  0  0
  -26.3550  -25.2848   18.3069 C   0  0  0  0  0  0  0  0  0  1  0  0
  -21.5564  -31.5001   22.4392 C   0  0  1  0  0  0  0  0  0  0  0  0
  -19.6919  -32.8624   19.4330 C   0  0  2  0  0  0  0  0  0  0  0  0
  -26.6019  -21.7624   16.6084 C   0  0  1  0  0  0  0  0  0  0  0  0
  -20.8904  -31.4764   23.8439 C   0  0  0  0  0  0  0  0  0  0  0  0
  -27.2779   -9.9315   20.7315 N   0  0  0  0  0  0  0  0  0  0  0  0
  -28.5854  -10.1806   20.9172 N   0  0  0  0  0  0  0  0  0  0  0  0
  -28.7276  -13.8504   19.8368 N   0  0  0  0  0  0  0  0  0  0  0  0
  -23.9695  -31.1263   22.0380 N   0  0  0  0  0  0  0  0  0  0  0  0
  -30.5594   -9.2926   21.8792 N   0  0  0  0  0  0  0  0  0  0  0  0
  -27.4452   -6.1571   22.8099 N   0  0  0  0  0  0  0  0  0  0  0  0
  -26.1839  -31.7095   24.5130 N   0  0  0  0  0  0  0  0  0  0  0  0
  -20.8572  -32.3255   21.4603 N   0  0  0  0  0  0  0  0  0  0  0  0
  -19.9059  -32.5927   17.9830 N   0  3  0  0  0  0  0  0  0  0  0  0
  -29.6531   -6.7217   23.0648 O   0  0  0  0  0  0  0  0  0  0  0  0
  -28.1610  -15.1000   21.7170 O   0  0  0  0  0  0  0  0  0  0  0  0
  -25.8097  -29.5998   23.6011 O   0  0  0  0  0  0  0  0  0  0  0  0
  -23.1962  -33.1527   22.8933 O   0  0  0  0  0  0  0  0  0  0  0  0
  -20.4911  -30.6343   19.9166 O   0  0  0  0  0  0  0  0  0  0  0  0
  -22.0612   -6.3397   21.3906 O   0  0  0  0  0  0  0  0  0  0  0  0
  -25.3023  -25.8955   19.0521 O   0  0  0  0  0  0  0  0  0  1  0  0
  -20.3194   -4.1584   26.1458 F   0  0  0  0  0  0  0  0  0  0  0  0
  -19.7476   -7.2452   22.6031 F   0  0  0  0  0  0  0  0  0  0  0  0
  1  2  1  0  0  0  0
  1  7  2  0  0  0  0
  2  8  2  0  0  0  0
  3  6  1  0  0  0  0
  3 10  2  0  0  0  0
  4 11  2  0  0  0  0
  4 18  1  0  0  0  0
  5 12  1  0  0  0  0
  5 18  2  0  0  0  0
  6 19  2  0  0  0  0
  7 21  1  0  0  0  0
  8 23  1  0  0  0  0
  9 13  2  0  0  0  0
  9 22  1  0  0  0  0
 10 25  1  0  0  0  0
 11 27  1  0  0  0  0
 12 27  2  0  0  0  0
 13 28  1  0  0  0  0
 14 15  2  0  0  0  0
 14 29  1  0  0  0  0
 15 30  1  0  0  0  0
 16 24  1  0  0  0  0
 16 28  2  0  0  0  0
 17 30  2  0  0  0  0
 17 31  1  0  0  0  0
 18 32  1  0  0  0  0
 19 26  1  0  0  0  0
 19 34  1  0  0  0  0
 20 32  1  0  0  0  0
 20 33  2  0  0  0  0
 20 36  1  0  0  0  0
 21 23  2  0  0  0  0
 21 41  1  0  0  0  0
 22 24  2  0  0  0  0
 22 42  1  0  0  0  0
 23 50  1  0  0  0  0
 24 43  1  0  0  0  0
 25 26  2  0  0  0  0
 25 60  1  0  0  0  0
 26 61  1  0  0  0  0
 27 84  1  0  0  0  0
 28 85  1  0  0  0  0
 29 31  2  0  0  0  0
 29 84  1  0  0  0  0
 30 86  1  0  0  0  0
 31 87  1  0  0  0  0
 32 70  2  0  0  0  0
 33 71  1  0  0  0  0
 33 74  1  0  0  0  0
 34 35  2  0  0  0  0
 35 37  1  0  0  0  0
 36 75  1  0  0  0  0
 36 79  2  0  0  0  0
 37 72  1  0  0  0  0
 37 80  2  0  0  0  0
 38 51  1  0  0  0  0
 38 76  1  0  0  0  0
 38 81  2  0  0  0  0
 39 66  1  0  0  0  0
 39 73  1  0  0  0  0
 39 82  2  0  0  0  0
 40 67  1  0  0  0  0
 40 77  1  0  0  0  0
 40 83  2  0  0  0  0
 41 44  1  0  0  0  0
 42 51  1  0  0  0  0
 43 73  1  0  0  0  0
 44 46  1  0  0  0  0
 45 47  1  0  0  0  0
 45 48  1  0  0  0  0
 46 50  1  0  0  0  0
 47 52  1  0  0  0  0
 48 72  1  0  0  0  0
 49 52  1  0  0  0  0
 49 72  1  0  0  0  0
 50 76  1  0  0  0  0
 51 73  1  0  0  0  0
 52 71  1  0  0  0  0
 53 62  1  0  0  0  0
 54 67  1  0  0  0  0
 55 68  1  0  0  0  0
 56 69  1  0  0  0  0
 57 69  1  0  0  0  0
 58 69  1  0  0  0  0
 59 78  1  0  0  0  0
 60 68  1  0  0  0  0
 61 62  1  0  0  0  0
 63 64  1  0  0  0  0
 63 65  1  0  0  0  0
 64 68  1  0  0  0  0
 65 85  1  0  0  0  0
 66 69  1  0  0  0  0
 66 77  1  0  0  0  0
 67 78  1  0  0  0  0
 70 71  1  0  0  0  0
M  CHG  1  78   1
M  ISO  4  35 100  37 100  65 101  85 101
M  END
> <Batch ID>
0133

> <Smiles>
CCCc1c(C=[100CH:0][100C:0](=O)N2CCCC(n3nc(-c4ccc(Oc5ccc(F)cc5F)cc4)c(C(N)=O)c3N)C2)cccc1CC(C)CC[101CH2:1][101O:1]c1ccc2c(c1)CN(C(=O)C(NC(=O)C(C)NC)C(C)(C)C)C(C(=O)NC1CCCc3ccccc31)C2

> <Shape>
0.248

> <Color>
0.080

> <Negative vol penalty>
0.000

$$$$

  -OEChem-04052302303D

 84 92  0     1  0  0  0  0  0999 V2000
  -17.5229  -30.0191   23.9585 C   0  0  0  0  0  0  0  0  0  0  0  0
  -18.9014  -30.1693   24.0703 C   0  0  0  0  0  0  0  0  0  0  0  0
  -25.5608  -13.4073   21.7327 C   0  0  0  0  0  0  0  0  0  0  0  0
  -26.0200  -13.5962   19.3683 C   0  0  0  0  0  0  0  0  0  0  0  0
  -28.6596  -25.0649   24.1060 C   0  0  0  0  0  0  0  0  0  0  0  0
  -16.9947  -28.9030   23.3109 C   0  0  0  0  0  0  0  0  0  0  0  0
  -19.7526  -29.2029   23.5354 C   0  0  0  0  0  0  0  0  0  0  0  0
  -23.6247  -31.2271   20.9752 C   0  0  0  0  0  0  0  0  0  0  0  0
  -28.8245  -26.4352   24.3076 C   0  0  0  0  0  0  0  0  0  0  0  0
  -24.5164  -12.5241   21.4593 C   0  0  0  0  0  0  0  0  0  0  0  0
  -24.9757  -12.7129   19.0949 C   0  0  0  0  0  0  0  0  0  0  0  0
  -24.6852  -31.7370   21.7228 C   0  0  0  0  0  0  0  0  0  0  0  0
  -24.1603   -9.2553   20.6712 C   0  0  0  0  0  0  0  0  0  0  0  0
  -24.0648   -8.1030   21.4515 C   0  0  0  0  0  0  0  0  0  0  0  0
  -25.9426  -29.7217   21.3025 C   0  0  0  0  0  0  0  0  0  0  0  0
  -27.1596  -26.3781   26.0574 C   0  0  0  0  0  0  0  0  0  0  0  0
  -21.8665   -8.7835   22.1872 C   0  0  0  0  0  0  0  0  0  0  0  0
  -26.3126  -13.9434   20.6872 C   0  0  0  0  0  0  0  0  0  0  0  0
  -27.7446  -24.3512   24.8800 C   0  0  0  0  0  0  0  0  0  0  0  0
  -28.7405  -14.5311   21.2047 C   0  0  0  0  0  0  0  0  0  0  0  0
  -17.8400  -27.9273   22.7594 C   0  0  0  0  0  0  0  0  0  0  0  0
  -23.7110  -29.9539   20.3937 C   0  0  0  0  0  0  0  0  0  0  0  0
  -19.2352  -28.0721   22.8810 C   0  0  0  0  0  0  0  0  0  0  0  0
  -24.8828  -29.1990   20.5458 C   0  0  0  0  0  0  0  0  0  0  0  0
  -28.0746  -27.0918   25.2834 C   0  0  0  0  0  0  0  0  0  0  0  0
  -26.9946  -25.0078   25.8557 C   0  0  0  0  0  0  0  0  0  0  0  0
  -24.2239  -12.1768   20.1405 C   0  0  0  0  0  0  0  0  0  0  0  0
  -25.8433  -30.9831   21.8890 C   0  0  0  0  0  0  0  0  0  0  0  0
  -23.1089  -10.1717   20.6491 C   0  0  0  0  0  0  0  0  0  0  0  0
  -22.9179   -7.8671   22.2094 C   0  0  0  0  0  0  0  0  0  0  0  0
  -21.9620   -9.9358   21.4070 C   0  0  0  0  0  0  0  0  0  0  0  0
  -27.3912  -14.8563   20.9689 C   0  0  0  0  0  0  0  0  0  0  0  0
  -29.3529  -15.7415   21.4195 C   0  0  0  0  0  0  0  0  0  0  0  0
  -27.5952  -22.9211   24.6450 C   0  0  0  0  0  0  0  0  0  0  0  0
  -27.2351  -22.3555   23.4748 C   0  0  0  0  0  0  0  0  0  0  0  0
  -29.3827  -13.2494   21.2275 C   0  0  0  0  0  0  0  0  0  0  0  0
  -27.1365  -20.8844   23.3922 C   0  0  0  0  0  0  0  0  0  0  0  0
  -22.1034  -27.2300   20.7092 C   0  0  0  0  0  0  0  0  0  0  0  0
  -23.9764  -26.2909   18.2328 C   0  0  0  0  0  0  0  0  0  0  0  0
  -26.8756  -26.6931   16.4780 C   0  0  0  0  0  0  0  0  0  0  0  0
  -17.2219  -26.7145   22.1100 C   0  0  0  0  0  0  0  0  0  0  0  0
  -22.5687  -29.4293   19.5678 C   0  0  0  0  0  0  0  0  0  0  0  0
  -25.0335  -27.8350   19.9250 C   0  0  0  0  0  0  0  0  0  0  0  0
  -18.1980  -25.9243   21.2422 C   0  0  0  0  0  0  0  0  0  0  0  0
  -29.0271  -20.3660   20.2956 C   0  0  0  0  0  0  0  0  0  0  0  0
  -19.5183  -25.7165   21.9773 C   0  0  0  0  0  0  0  0  0  0  0  0
  -28.8976  -18.8551   20.1220 C   0  0  0  0  0  0  0  0  0  0  0  0
  -27.7757  -20.9788   20.9226 C   0  0  0  0  0  0  0  0  0  0  0  0
  -27.2518  -18.8288   22.0379 C   0  0  0  0  0  0  0  0  0  0  0  0
  -20.1915  -27.0578   22.2921 C   0  0  1  0  0  0  0  0  0  0  0  0
  -22.5653  -27.9082   19.4505 C   0  0  1  0  0  0  0  0  0  0  0  0
  -28.5180  -18.1849   21.4519 C   0  0  1  0  0  0  0  0  0  0  0  0
  -26.0048  -24.2752   26.7034 C   0  0  0  0  0  0  0  0  0  0  0  0
  -28.1439  -25.7535   14.5271 C   0  0  0  0  0  0  0  0  0  0  0  0
  -26.8653  -33.2811   24.2027 C   0  0  0  0  0  0  0  0  0  0  0  0
  -24.7886  -23.8840   19.9231 C   0  0  0  0  0  0  0  0  0  0  0  0
  -26.7126  -23.5248   18.3619 C   0  0  0  0  0  0  0  0  0  0  0  0
  -24.3727  -23.3720   17.5108 C   0  0  0  0  0  0  0  0  0  0  0  0
  -26.7988  -29.2760   15.0353 C   0  0  0  0  0  0  0  0  0  0  0  0
  -28.2537  -28.5729   25.5029 C   0  0  0  0  0  0  0  0  0  0  0  0
  -27.3239  -29.4421   24.6481 C   0  0  0  0  0  0  0  0  0  0  0  0
  -27.5290  -30.9455   24.8797 C   0  0  0  0  0  0  0  0  0  0  0  0
  -25.3302  -25.6353   18.1049 C   0  0  1  0  0  0  0  0  0  0  0  0
  -27.1442  -26.8028   14.9879 C   0  0  2  0  0  0  0  0  0  0  0  0
  -26.6190  -31.7940   23.9858 C   0  0  2  0  0  0  0  0  0  1  0  0
  -25.2977  -24.1289   18.4886 C   0  0  0  0  0  0  0  0  0  0  0  0
  -27.1595  -16.1703   21.0284 N   0  0  0  0  0  0  0  0  0  0  0  0
  -28.3715  -16.6815   21.3041 N   0  0  0  0  0  0  0  0  0  0  0  0
  -27.3992  -20.2833   22.1625 N   0  0  0  0  0  0  0  0  0  0  0  0
  -23.8865  -27.3630   19.1318 N   0  0  0  0  0  0  0  0  0  0  0  0
  -30.6298  -16.0829   21.6941 N   0  0  0  0  0  0  0  0  0  0  0  0
  -28.6056  -12.1083   20.9862 N   0  0  0  0  0  0  0  0  0  0  0  0
  -20.8313  -27.5922   21.1090 N   0  0  0  0  0  0  0  0  0  0  0  0
  -25.7826  -25.8952   16.7425 N   0  0  0  0  0  0  0  0  0  0  0  0
  -27.6905  -28.1494   14.6578 N   0  3  0  0  0  0  0  0  0  0  0  0
  -30.6062  -13.1187   21.4714 O   0  0  0  0  0  0  0  0  0  0  0  0
  -26.8224  -20.2771   24.4175 O   0  0  0  0  0  0  0  0  0  0  0  0
  -22.8457  -26.4358   21.2749 O   0  0  0  0  0  0  0  0  0  0  0  0
  -23.0351  -25.8719   17.5545 O   0  0  0  0  0  0  0  0  0  0  0  0
  -27.5685  -27.2556   17.3229 O   0  0  0  0  0  0  0  0  0  0  0  0
  -23.2050  -11.3148   19.8733 O   0  0  0  0  0  0  0  0  0  0  0  0
  -26.8797  -31.4782   22.6188 O   0  0  0  0  0  0  0  0  0  1  0  0
  -22.8257   -6.7597   22.9574 F   0  0  0  0  0  0  0  0  0  0  0  0
  -20.9482  -10.8119   21.3888 F   0  0  0  0  0  0  0  0  0  0  0  0
  1  2  1  0  0  0  0
  1  6  2  0  0  0  0
  2  7  2  0  0  0  0
  3 10  2  0  0  0  0
  3 18  1  0  0  0  0
  4 11  1  0  0  0  0
  4 18  2  0  0  0  0
  5  9  2  0  0  0  0
  5 19  1  0  0  0  0
  6 21  1  0  0  0  0
  7 23  1  0  0  0  0
  8 12  2  0  0  0  0
  8 22  1  0  0  0  0
  9 25  1  0  0  0  0
 10 27  1  0  0  0  0
 11 27  2  0  0  0  0
 12 28  1  0  0  0  0
 13 14  2  0  0  0  0
 13 29  1  0  0  0  0
 14 30  1  0  0  0  0
 15 24  1  0  0  0  0
 15 28  2  0  0  0  0
 16 25  2  0  0  0  0
 16 26  1  0  0  0  0
 17 30  2  0  0  0  0
 17 31  1  0  0  0  0
 18 32  1  0  0  0  0
 19 26  2  0  0  0  0
 19 34  1  0  0  0  0
 20 32  1  0  0  0  0
 20 33  2  0  0  0  0
 20 36  1  0  0  0  0
 21 23  2  0  0  0  0
 21 41  1  0  0  0  0
 22 24  2  0  0  0  0
 22 42  1  0  0  0  0
 23 50  1  0  0  0  0
 24 43  1  0  0  0  0
 25 60  1  0  0  0  0
 26 53  1  0  0  0  0
 27 81  1  0  0  0  0
 28 82  1  0  0  0  0
 29 31  2  0  0  0  0
 29 81  1  0  0  0  0
 30 83  1  0  0  0  0
 31 84  1  0  0  0  0
 32 67  2  0  0  0  0
 33 68  1  0  0  0  0
 33 71  1  0  0  0  0
 34 35  2  0  0  0  0
 35 37  1  0  0  0  0
 36 72  1  0  0  0  0
 36 76  2  0  0  0  0
 37 69  1  0  0  0  0
 37 77  2  0  0  0  0
 38 51  1  0  0  0  0
 38 73  1  0  0  0  0
 38 78  2  0  0  0  0
 39 63  1  0  0  0  0
 39 70  1  0  0  0  0
 39 79  2  0  0  0  0
 40 64  1  0  0  0  0
 40 74  1  0  0  0  0
 40 80  2  0  0  0  0
 41 44  1  0  0  0  0
 42 51  1  0  0  0  0
 43 70  1  0  0  0  0
 44 46  1  0  0  0  0
 45 47  1  0  0  0  0
 45 48  1  0  0  0  0
 46 50  1  0  0  0  0
 47 52  1  0  0  0  0
 48 69  1  0  0  0  0
 49 52  1  0  0  0  0
 49 69  1  0  0  0  0
 50 73  1  0  0  0  0
 51 70  1  0  0  0  0
 52 68  1  0  0  0  0
 54 64  1  0  0  0  0
 55 65  1  0  0  0  0
 56 66  1  0  0  0  0
 57 66  1  0  0  0  0
 58 66  1  0  0  0  0
 59 75  1  0  0  0  0
 60 61  1  0  0  0  0
 61 62  1  0  0  0  0
 62 65  1  0  0  0  0
 63 66  1  0  0  0  0
 63 74  1  0  0  0  0
 64 75  1  0  0  0  0
 65 82  1  0  0  0  0
 67 68  1  0  0  0  0
M  CHG  1  75   1
M  ISO  4  35 100  37 100  65 101  82 101
M  END
> <Batch ID>
0133

> <Smiles>
CNC(C)C(=O)NC(C(=O)N1Cc2cc([101O:1][101CH:1](C)CCCc3ccc(C=[100CH:0][100C:0](=O)N4CCCC(n5nc(-c6ccc(Oc7ccc(F)cc7F)cc6)c(C(N)=O)c5N)C4)c(C)c3)ccc2CC1C(=O)NC1CCCc2ccccc21)C(C)(C)C

> <Shape>
0.296

> <Color>
0.073

> <Negative vol penalty>
0.000

$$$$

  -OEChem-04052302303D

 89 97  0     1  0  0  0  0  0999 V2000
  -29.2585  -12.3472   19.1301 C   0  0  0  0  0  0  0  0  0  0  0  0
  -28.7401  -13.4226   18.4158 C   0  0  0  0  0  0  0  0  0  0  0  0
  -29.0655  -26.2292   19.3450 C   0  0  0  0  0  0  0  0  0  0  0  0
  -27.0298  -25.4545   18.2996 C   0  0  0  0  0  0  0  0  0  0  0  0
  -28.4786  -11.7124   20.0959 C   0  0  0  0  0  0  0  0  0  0  0  0
  -27.4410  -13.8631   18.6662 C   0  0  0  0  0  0  0  0  0  0  0  0
  -23.4901  -19.8381   18.7461 C   0  0  0  0  0  0  0  0  0  0  0  0
  -29.7610  -25.1578   18.7848 C   0  0  0  0  0  0  0  0  0  0  0  0
  -27.7254  -24.3831   17.7393 C   0  0  0  0  0  0  0  0  0  0  0  0
  -22.2987  -20.3485   18.2325 C   0  0  0  0  0  0  0  0  0  0  0  0
  -28.8890  -21.2429   16.3269 C   0  0  0  0  0  0  0  0  0  0  0  0
  -28.2978  -19.9812   16.3917 C   0  0  0  0  0  0  0  0  0  0  0  0
  -21.0716  -19.2257   19.9796 C   0  0  0  0  0  0  0  0  0  0  0  0
  -17.5700  -27.9922   22.2721 C   0  0  0  0  0  0  0  0  0  0  0  0
  -19.6766  -26.9244   21.7632 C   0  0  0  0  0  0  0  0  0  0  0  0
  -19.4585  -28.2798   23.7512 C   0  0  0  0  0  0  0  0  0  0  0  0
  -28.2947  -20.1066   18.8045 C   0  0  0  0  0  0  0  0  0  0  0  0
  -27.6999  -26.3776   19.1025 C   0  0  0  0  0  0  0  0  0  0  0  0
  -26.7848  -28.7588   19.1176 C   0  0  0  0  0  0  0  0  0  0  0  0
  -27.1727  -12.1515   20.3650 C   0  0  0  0  0  0  0  0  0  0  0  0
  -23.4802  -19.0074   19.8758 C   0  0  0  0  0  0  0  0  0  0  0  0
  -26.6424  -13.2328   19.6355 C   0  0  0  0  0  0  0  0  0  0  0  0
  -22.2645  -18.7082   20.5071 C   0  0  0  0  0  0  0  0  0  0  0  0
  -18.3449  -27.1845   21.4398 C   0  0  0  0  0  0  0  0  0  0  0  0
  -18.1269  -28.5399   23.4278 C   0  0  0  0  0  0  0  0  0  0  0  0
  -20.2335  -27.4721   22.9189 C   0  0  0  0  0  0  0  0  0  0  0  0
  -29.0910  -24.2347   17.9819 C   0  0  0  0  0  0  0  0  0  0  0  0
  -21.0889  -20.0400   18.8475 C   0  0  0  0  0  0  0  0  0  0  0  0
  -29.1832  -21.9364   17.5009 C   0  0  0  0  0  0  0  0  0  0  0  0
  -28.0007  -19.4130   17.6304 C   0  0  0  0  0  0  0  0  0  0  0  0
  -28.8860  -21.3683   18.7396 C   0  0  0  0  0  0  0  0  0  0  0  0
  -26.9807  -27.4838   19.6814 C   0  0  0  0  0  0  0  0  0  0  0  0
  -26.0444  -29.4382   20.0539 C   0  0  0  0  0  0  0  0  0  0  0  0
  -27.2321  -29.2821   17.8599 C   0  0  0  0  0  0  0  0  0  0  0  0
  -24.3409  -16.0037   20.4590 C   0  0  0  0  0  0  0  0  0  0  0  0
  -23.6550  -16.8131   23.5244 C   0  0  0  0  0  0  0  0  0  0  0  0
  -21.9461  -18.8412   25.6723 C   0  0  0  0  0  0  0  0  0  0  0  0
  -22.2925  -27.6727   24.3564 C   0  0  0  0  0  0  0  0  0  0  0  0
  -26.3510  -11.4037   21.3849 C   0  0  0  0  0  0  0  0  0  0  0  0
  -24.7765  -18.4867   20.4333 C   0  0  0  0  0  0  0  0  0  0  0  0
  -22.2016  -17.8374   21.7345 C   0  0  0  0  0  0  0  0  0  0  0  0
  -25.1164  -12.1699   21.8528 C   0  0  0  0  0  0  0  0  0  0  0  0
  -25.2380  -29.6297   24.7706 C   0  0  0  0  0  0  0  0  0  0  0  0
  -24.3686  -12.7570   20.6599 C   0  0  0  0  0  0  0  0  0  0  0  0
  -25.9985  -29.4223   23.4588 C   0  0  0  0  0  0  0  0  0  0  0  0
  -24.5208  -28.3571   25.2176 C   0  0  0  0  0  0  0  0  0  0  0  0
  -24.4053  -27.5432   22.8952 C   0  0  0  0  0  0  0  0  0  0  0  0
  -25.2463  -13.7556   19.8957 C   0  0  1  0  0  0  0  0  0  0  0  0
  -24.6002  -17.2325   21.2838 C   0  0  1  0  0  0  0  0  0  0  0  0
  -25.0907  -28.8157   22.3709 C   0  0  2  0  0  0  0  0  0  0  0  0
  -17.8452  -30.8398   24.4202 C   0  0  0  0  0  0  0  0  0  0  0  0
  -17.1305  -28.8065   25.7279 C   0  0  0  0  0  0  0  0  0  0  0  0
  -21.5579  -19.2368   28.1198 C   0  0  0  0  0  0  0  0  0  0  0  0
  -21.8164  -14.3801   23.6236 C   0  0  0  0  0  0  0  0  0  0  0  0
  -20.7644  -15.3459   25.6799 C   0  0  0  0  0  0  0  0  0  0  0  0
  -23.1840  -14.7390   25.6864 C   0  0  0  0  0  0  0  0  0  0  0  0
  -15.2019  -22.8697   17.8973 C   0  0  0  0  0  0  0  0  0  0  0  0
  -14.6228  -23.2842   20.2827 C   0  0  0  0  0  0  0  0  0  0  0  0
  -23.0527  -21.5820   25.5233 C   0  0  0  0  0  0  0  0  0  0  0  0
  -17.7427  -26.5924   20.1899 C   0  0  0  0  0  0  0  0  0  0  0  0
  -17.0977  -25.2164   20.4071 C   0  0  0  0  0  0  0  0  0  0  0  0
  -17.9686  -21.8995   18.7732 C   0  0  0  0  0  0  0  0  0  0  0  0
  -16.4168  -24.6744   19.1410 C   0  0  0  0  0  0  0  0  0  0  0  0
  -16.8073  -22.1798   19.7393 C   0  0  0  0  0  0  0  0  0  0  0  0
  -18.8664  -20.7717   19.2731 C   0  0  0  0  0  0  0  0  0  1  0  0
  -17.2982  -29.4034   24.3177 C   0  0  0  0  0  0  0  0  0  0  0  0
  -22.4192  -16.7706   24.3904 C   0  0  1  0  0  0  0  0  0  0  0  0
  -22.3927  -19.6080   26.9040 C   0  0  2  0  0  0  0  0  0  0  0  0
  -22.0467  -15.3237   24.8208 C   0  0  0  0  0  0  0  0  0  0  0  0
  -15.7888  -23.2581   19.2715 C   0  0  0  0  0  0  0  0  0  0  0  0
  -26.4109  -27.3583   20.8829 N   0  0  0  0  0  0  0  0  0  0  0  0
  -25.8497  -28.5631   21.0817 N   0  0  0  0  0  0  0  0  0  0  0  0
  -23.4953  -17.3473   22.2379 N   0  0  0  0  0  0  0  0  0  0  0  0
  -23.6761  -27.8420   24.1377 N   0  0  0  0  0  0  0  0  0  0  0  0
  -25.5475  -30.6929   20.0900 N   0  0  0  0  0  0  0  0  0  0  0  0
  -27.9821  -28.4493   17.0184 N   0  0  0  0  0  0  0  0  0  0  0  0
  -21.5862  -27.2078   23.2475 N   0  0  0  0  0  0  0  0  0  0  0  0
  -25.3016  -15.0201   20.5974 N   0  0  0  0  0  0  0  0  0  0  0  0
  -22.6695  -17.6795   25.5038 N   0  0  0  0  0  0  0  0  0  0  0  0
  -22.2640  -21.0751   26.6757 N   0  3  0  0  0  0  0  0  0  0  0  0
  -26.9882  -30.4589   17.5004 O   0  0  0  0  0  0  0  0  0  0  0  0
  -23.3424  -15.9511   19.7506 O   0  0  0  0  0  0  0  0  0  0  0  0
  -24.7241  -16.3946   23.9753 O   0  0  0  0  0  0  0  0  0  0  0  0
  -21.0432  -19.2317   24.9356 O   0  0  0  0  0  0  0  0  0  0  0  0
  -21.7682  -27.9477   25.4387 O   0  0  0  0  0  0  0  0  0  0  0  0
  -29.7694  -23.1893   17.4349 O   0  0  0  0  0  0  0  0  0  0  0  0
  -19.9157  -20.5400   18.3441 O   0  0  0  0  0  0  0  0  0  1  0  0
  -27.4315  -18.2021   17.6925 F   0  0  0  0  0  0  0  0  0  0  0  0
  -29.1651  -22.0302   19.8709 F   0  0  0  0  0  0  0  0  0  0  0  0
  1  2  1  0  0  0  0
  1  5  2  0  0  0  0
  2  6  2  0  0  0  0
  3  8  2  0  0  0  0
  3 18  1  0  0  0  0
  4  9  1  0  0  0  0
  4 18  2  0  0  0  0
  5 20  1  0  0  0  0
  6 22  1  0  0  0  0
  7 10  2  0  0  0  0
  7 21  1  0  0  0  0
  8 27  1  0  0  0  0
  9 27  2  0  0  0  0
 10 28  1  0  0  0  0
 11 12  2  0  0  0  0
 11 29  1  0  0  0  0
 12 30  1  0  0  0  0
 13 23  1  0  0  0  0
 13 28  2  0  0  0  0
 14 24  2  0  0  0  0
 14 25  1  0  0  0  0
 15 24  1  0  0  0  0
 15 26  2  0  0  0  0
 16 25  2  0  0  0  0
 16 26  1  0  0  0  0
 17 30  2  0  0  0  0
 17 31  1  0  0  0  0
 18 32  1  0  0  0  0
 19 32  1  0  0  0  0
 19 33  2  0  0  0  0
 19 34  1  0  0  0  0
 20 22  2  0  0  0  0
 20 39  1  0  0  0  0
 21 23  2  0  0  0  0
 21 40  1  0  0  0  0
 22 48  1  0  0  0  0
 23 41  1  0  0  0  0
 24 60  1  0  0  0  0
 25 66  1  0  0  0  0
 26 77  1  0  0  0  0
 27 86  1  0  0  0  0
 28 87  1  0  0  0  0
 29 31  2  0  0  0  0
 29 86  1  0  0  0  0
 30 88  1  0  0  0  0
 31 89  1  0  0  0  0
 32 71  2  0  0  0  0
 33 72  1  0  0  0  0
 33 75  1  0  0  0  0
 34 76  1  0  0  0  0
 34 81  2  0  0  0  0
 35 49  1  0  0  0  0
 35 78  1  0  0  0  0
 35 82  2  0  0  0  0
 36 67  1  0  0  0  0
 36 73  1  0  0  0  0
 36 83  2  0  0  0  0
 37 68  1  0  0  0  0
 37 79  1  0  0  0  0
 37 84  2  0  0  0  0
 38 74  1  0  0  0  0
 38 77  1  0  0  0  0
 38 85  2  0  0  0  0
 39 42  1  0  0  0  0
 40 49  1  0  0  0  0
 41 73  1  0  0  0  0
 42 44  1  0  0  0  0
 43 45  1  0  0  0  0
 43 46  1  0  0  0  0
 44 48  1  0  0  0  0
 45 50  1  0  0  0  0
 46 74  1  0  0  0  0
 47 50  1  0  0  0  0
 47 74  1  0  0  0  0
 48 78  1  0  0  0  0
 49 73  1  0  0  0  0
 50 72  1  0  0  0  0
 51 66  1  0  0  0  0
 52 66  1  0  0  0  0
 53 68  1  0  0  0  0
 54 69  1  0  0  0  0
 55 69  1  0  0  0  0
 56 69  1  0  0  0  0
 57 70  1  0  0  0  0
 58 70  1  0  0  0  0
 59 80  1  0  0  0  0
 60 61  1  0  0  0  0
 61 63  1  0  0  0  0
 62 64  1  0  0  0  0
 62 65  1  0  0  0  0
 63 70  1  0  0  0  0
 64 70  1  0  0  0  0
 65 87  1  0  0  0  0
 67 69  1  0  0  0  0
 67 79  1  0  0  0  0
 68 80  1  0  0  0  0
 71 72  1  0  0  0  0
M  CHG  1  80   1
M  ISO  4  38 100  65 101  77 100  87 101
M  END
> <Batch ID>
0133

> <Smiles>
CNC(C)C(=O)NC(C(=O)N1Cc2cc([101O:1][101CH2:1]CCC(C)(C)CCCc3cc([100NH:0][100C:0](=O)N4CCCC(n5nc(-c6ccc(Oc7ccc(F)cc7F)cc6)c(C(N)=O)c5N)C4)cc(C(C)C)c3)ccc2CC1C(=O)NC1CCCc2ccccc21)C(C)(C)C

> <Shape>
0.206

> <Color>
0.069

> <Negative vol penalty>
0.000

$$$$

  -OEChem-04052302303D

 89 98  0     1  0  0  0  0  0999 V2000
  -28.1477  -23.3450   18.4769 C   0  0  0  0  0  0  0  0  0  0  0  0
  -26.9117  -23.7682   18.9551 C   0  0  0  0  0  0  0  0  0  0  0  0
  -30.9753  -17.5872   21.7630 C   0  0  0  0  0  0  0  0  0  0  0  0
  -28.9207  -16.5250   21.0649 C   0  0  0  0  0  0  0  0  0  0  0  0
  -29.3203  -23.8220   19.0610 C   0  0  0  0  0  0  0  0  0  0  0  0
  -26.8476  -24.6678   20.0186 C   0  0  0  0  0  0  0  0  0  0  0  0
  -23.4773  -28.3653   19.2351 C   0  0  0  0  0  0  0  0  0  0  0  0
  -20.0771  -25.3997   26.0673 C   0  0  0  0  0  0  0  0  0  0  0  0
  -20.2283  -25.6236   24.6989 C   0  0  0  0  0  0  0  0  0  0  0  0
  -31.7073  -16.5438   21.1965 C   0  0  0  0  0  0  0  0  0  0  0  0
  -29.6527  -15.4815   20.4983 C   0  0  0  0  0  0  0  0  0  0  0  0
  -22.1324  -28.0524   19.4282 C   0  0  0  0  0  0  0  0  0  0  0  0
  -31.2562  -12.7003   21.5587 C   0  0  0  0  0  0  0  0  0  0  0  0
  -30.8218  -11.3973   21.8016 C   0  0  0  0  0  0  0  0  0  0  0  0
  -22.2101  -29.0891   21.6050 C   0  0  0  0  0  0  0  0  0  0  0  0
  -19.6246  -23.0660   25.6356 C   0  0  0  0  0  0  0  0  0  0  0  0
  -30.5307  -11.0519   19.4282 C   0  0  0  0  0  0  0  0  0  0  0  0
  -29.5820  -17.5778   21.6973 C   0  0  0  0  0  0  0  0  0  0  0  0
  -28.8922  -20.0209   21.9485 C   0  0  0  0  0  0  0  0  0  0  0  0
  -29.2707  -24.7354   20.1259 C   0  0  0  0  0  0  0  0  0  0  0  0
  -24.2027  -29.0339   20.2316 C   0  0  0  0  0  0  0  0  0  0  0  0
  -28.0207  -25.1564   20.6184 C   0  0  0  0  0  0  0  0  0  0  0  0
  -23.5633  -29.4116   21.4210 C   0  0  0  0  0  0  0  0  0  0  0  0
  -19.7753  -24.1209   26.5357 C   0  0  0  0  0  0  0  0  0  0  0  0
  -20.0775  -24.5687   23.7988 C   0  0  0  0  0  0  0  0  0  0  0  0
  -19.7757  -23.2899   24.2671 C   0  0  0  0  0  0  0  0  0  0  0  0
  -31.0461  -15.4910   20.5641 C   0  0  0  0  0  0  0  0  0  0  0  0
  -21.4994  -28.4118   20.6145 C   0  0  0  0  0  0  0  0  0  0  0  0
  -31.3278  -13.1792   20.2505 C   0  0  0  0  0  0  0  0  0  0  0  0
  -30.4590  -10.5731   20.7364 C   0  0  0  0  0  0  0  0  0  0  0  0
  -30.9651  -12.3549   19.1853 C   0  0  0  0  0  0  0  0  0  0  0  0
  -28.8252  -18.6551   22.2829 C   0  0  0  0  0  0  0  0  0  0  0  0
  -27.9842  -20.6240   22.7842 C   0  0  0  0  0  0  0  0  0  0  0  0
  -29.7026  -20.6851   20.9698 C   0  0  0  0  0  0  0  0  0  0  0  0
  -26.7455  -28.3346   22.0062 C   0  0  0  0  0  0  0  0  0  0  0  0
  -23.1141  -18.5193   25.6063 C   0  0  0  0  0  0  0  0  0  0  0  0
  -26.4255  -31.4117   22.9818 C   0  0  0  0  0  0  0  0  0  0  0  0
  -24.3930  -34.1202   23.4057 C   0  0  0  0  0  0  0  0  0  0  0  0
  -30.5646  -25.1867   20.7561 C   0  0  0  0  0  0  0  0  0  0  0  0
  -25.6457  -29.3878   19.9969 C   0  0  0  0  0  0  0  0  0  0  0  0
  -24.2922  -30.1486   22.5137 C   0  0  0  0  0  0  0  0  0  0  0  0
  -30.4146  -26.4265   21.6339 C   0  0  0  0  0  0  0  0  0  0  0  0
  -25.9453  -20.1498   27.0779 C   0  0  0  0  0  0  0  0  0  0  0  0
  -29.2094  -26.2836   22.5581 C   0  0  0  0  0  0  0  0  0  0  0  0
  -20.8994  -20.5636   21.7884 C   0  0  0  0  0  0  0  0  0  0  0  0
  -21.8175  -19.3681   22.0615 C   0  0  0  0  0  0  0  0  0  0  0  0
  -27.0195  -20.0502   25.9956 C   0  0  0  0  0  0  0  0  0  0  0  0
  -21.2850  -20.4181   24.1586 C   0  0  0  0  0  0  0  0  0  0  0  0
  -25.0508  -18.9142   27.0921 C   0  0  0  0  0  0  0  0  0  0  0  0
  -25.4875  -18.5092   24.6906 C   0  0  0  0  0  0  0  0  0  0  0  0
  -27.9104  -26.1505   21.7541 C   0  0  1  0  0  0  0  0  0  0  0  0
  -26.4230  -29.6154   21.2898 C   0  0  1  0  0  0  0  0  0  0  0  0
  -20.9232  -21.4151   23.0610 C   0  0  2  0  0  0  0  0  0  0  0  0
  -22.3522  -19.5614   23.4832 C   0  0  1  0  0  0  0  0  0  0  0  0
  -26.3940  -19.7510   24.6218 C   0  0  2  0  0  0  0  0  0  0  0  0
  -19.6133  -23.8819   27.9988 C   0  0  0  0  0  0  0  0  0  0  0  0
  -24.4076  -36.4794   24.2608 C   0  0  0  0  0  0  0  0  0  0  0  0
  -17.4171  -27.3798   21.3867 C   0  0  0  0  0  0  0  0  0  0  0  0
  -26.4122  -30.3696   25.8495 C   0  0  0  0  0  0  0  0  0  0  0  0
  -25.4888  -32.5809   26.5748 C   0  0  0  0  0  0  0  0  0  0  0  0
  -27.7394  -32.4612   25.5058 C   0  0  0  0  0  0  0  0  0  0  0  0
  -23.6430  -35.2077   20.7574 C   0  0  0  0  0  0  0  0  0  0  0  0
  -19.6094  -22.1453   23.3221 C   0  0  0  0  0  0  0  0  0  0  0  0
  -20.2445  -24.8355   22.3237 C   0  0  0  0  0  0  0  0  0  0  0  0
  -22.6154  -18.2527   24.2083 C   0  0  0  0  0  0  0  0  0  0  0  0
  -19.0114  -25.4639   21.6598 C   0  0  0  0  0  0  0  0  0  0  0  0
  -19.7630  -27.8759   22.1486 C   0  0  0  0  0  0  0  0  0  1  0  0
  -25.6745  -32.1092   24.0901 C   0  0  1  0  0  0  0  0  0  0  0  0
  -24.5757  -35.5831   23.0438 C   0  0  2  0  0  0  0  0  0  0  0  0
  -18.6146  -26.8589   22.1917 C   0  0  1  0  0  0  0  0  0  0  0  0
  -26.3152  -31.8646   25.4854 C   0  0  0  0  0  0  0  0  0  0  0  0
  -27.9445  -18.4049   23.2554 N   0  0  0  0  0  0  0  0  0  0  0  0
  -27.4497  -19.6218   23.5392 N   0  0  0  0  0  0  0  0  0  0  0  0
  -25.7034  -30.4664   22.2396 N   0  0  0  0  0  0  0  0  0  0  0  0
  -24.4939  -18.6508   25.7640 N   0  0  0  0  0  0  0  0  0  0  0  0
  -27.5990  -21.9084   22.9396 N   0  0  0  0  0  0  0  0  0  0  0  0
  -30.9642  -21.1576   21.3564 N   0  0  0  0  0  0  0  0  0  0  0  0
  -27.4890  -27.4427   21.2571 N   0  0  0  0  0  0  0  0  0  0  0  0
  -25.5946  -33.5147   23.7073 N   0  0  0  0  0  0  0  0  0  0  0  0
  -23.5754  -35.9916   22.0175 N   0  3  0  0  0  0  0  0  0  0  0  0
  -29.3126  -20.8691   19.7919 O   0  0  0  0  0  0  0  0  0  0  0  0
  -26.3503  -28.1685   23.1542 O   0  0  0  0  0  0  0  0  0  0  0  0
  -22.2999  -18.6106   26.5287 O   0  0  0  0  0  0  0  0  0  0  0  0
  -27.6073  -31.7001   22.7773 O   0  0  0  0  0  0  0  0  0  0  0  0
  -23.2939  -33.5705   23.4229 O   0  0  0  0  0  0  0  0  0  0  0  0
  -31.7600  -14.4728   20.0109 O   0  0  0  0  0  0  0  0  0  0  0  0
  -20.1870  -28.1070   20.8058 O   0  0  0  0  0  0  0  0  0  1  0  0
  -30.0434   -9.3213   20.9697 F   0  0  0  0  0  0  0  0  0  0  0  0
  -31.0329  -12.8090   17.9263 F   0  0  0  0  0  0  0  0  0  0  0  0
  1  2  1  0  0  0  0
  1  5  2  0  0  0  0
  2  6  2  0  0  0  0
  3 10  2  0  0  0  0
  3 18  1  0  0  0  0
  4 11  1  0  0  0  0
  4 18  2  0  0  0  0
  5 20  1  0  0  0  0
  6 22  1  0  0  0  0
  7 12  2  0  0  0  0
  7 21  1  0  0  0  0
  8  9  2  0  0  0  0
  8 24  1  0  0  0  0
  9 25  1  0  0  0  0
 10 27  1  0  0  0  0
 11 27  2  0  0  0  0
 12 28  1  0  0  0  0
 13 14  2  0  0  0  0
 13 29  1  0  0  0  0
 14 30  1  0  0  0  0
 15 23  1  0  0  0  0
 15 28  2  0  0  0  0
 16 24  2  0  0  0  0
 16 26  1  0  0  0  0
 17 30  2  0  0  0  0
 17 31  1  0  0  0  0
 18 32  1  0  0  0  0
 19 32  1  0  0  0  0
 19 33  2  0  0  0  0
 19 34  1  0  0  0  0
 20 22  2  0  0  0  0
 20 39  1  0  0  0  0
 21 23  2  0  0  0  0
 21 40  1  0  0  0  0
 22 51  1  0  0  0  0
 23 41  1  0  0  0  0
 24 56  1  0  0  0  0
 25 26  2  0  0  0  0
 25 64  1  0  0  0  0
 26 63  1  0  0  0  0
 27 86  1  0  0  0  0
 28 87  1  0  0  0  0
 29 31  2  0  0  0  0
 29 86  1  0  0  0  0
 30 88  1  0  0  0  0
 31 89  1  0  0  0  0
 32 72  2  0  0  0  0
 33 73  1  0  0  0  0
 33 76  1  0  0  0  0
 34 77  1  0  0  0  0
 34 81  2  0  0  0  0
 35 52  1  0  0  0  0
 35 78  1  0  0  0  0
 35 82  2  0  0  0  0
 36 65  1  0  0  0  0
 36 75  1  0  0  0  0
 36 83  2  0  0  0  0
 37 68  1  0  0  0  0
 37 74  1  0  0  0  0
 37 84  2  0  0  0  0
 38 69  1  0  0  0  0
 38 79  1  0  0  0  0
 38 85  2  0  0  0  0
 39 42  1  0  0  0  0
 40 52  1  0  0  0  0
 41 74  1  0  0  0  0
 42 44  1  0  0  0  0
 43 47  1  0  0  0  0
 43 49  1  0  0  0  0
 44 51  1  0  0  0  0
 45 46  1  0  0  0  0
 45 53  1  0  0  0  0
 46 54  1  0  0  0  0
 47 55  1  0  0  0  0
 48 53  1  0  0  0  0
 48 54  1  0  0  0  0
 49 75  1  0  0  0  0
 50 55  1  0  0  0  0
 50 75  1  0  0  0  0
 51 78  1  0  0  0  0
 52 74  1  0  0  0  0
 53 63  1  0  0  0  0
 54 65  1  0  0  0  0
 55 73  1  0  0  0  0
 57 69  1  0  0  0  0
 58 70  1  0  0  0  0
 59 71  1  0  0  0  0
 60 71  1  0  0  0  0
 61 71  1  0  0  0  0
 62 80  1  0  0  0  0
 64 66  1  0  0  0  0
 66 70  1  0  0  0  0
 67 70  1  0  0  0  0
 67 87  1  0  0  0  0
 68 71  1  0  0  0  0
 68 79  1  0  0  0  0
 69 80  1  0  0  0  0
 72 73  1  0  0  0  0
M  CHG  1  80   1
M  ISO  4  36 100  65 100  67 101  87 101
M  END
> <Batch ID>
0133

> <Smiles>
CNC(C)C(=O)NC(C(=O)N1Cc2cc([101O:1][101CH2:1]C(C)CCc3ccc(C)cc3CC3CCC([100CH2:0][100C:0](=O)N4CCCC(n5nc(-c6ccc(Oc7ccc(F)cc7F)cc6)c(C(N)=O)c5N)C4)C3)ccc2CC1C(=O)NC1CCCc2ccccc21)C(C)(C)C

> <Shape>
0.259

> <Color>
0.077

> <Negative vol penalty>
0.000

$$$$

  -OEChem-04052302303D

 84 92  0     1  0  0  0  0  0999 V2000
  -23.1891  -31.4726   22.6188 C   0  0  0  0  0  0  0  0  0  0  0  0
  -23.3062  -30.1924   23.1507 C   0  0  0  0  0  0  0  0  0  0  0  0
  -23.0526   -9.8890   19.9608 C   0  0  0  0  0  0  0  0  0  0  0  0
  -23.8423   -9.8960   22.2441 C   0  0  0  0  0  0  0  0  0  0  0  0
  -22.9206  -31.6403   21.2610 C   0  0  0  0  0  0  0  0  0  0  0  0
  -23.1537  -29.0791   22.3251 C   0  0  0  0  0  0  0  0  0  0  0  0
  -26.7010  -25.5575   23.1376 C   0  0  0  0  0  0  0  0  0  0  0  0
  -29.1706  -19.7429   23.1840 C   0  0  0  0  0  0  0  0  0  0  0  0
  -29.6998  -18.7617   22.3457 C   0  0  0  0  0  0  0  0  0  0  0  0
  -22.3054   -8.7407   20.2227 C   0  0  0  0  0  0  0  0  0  0  0  0
  -23.0949   -8.7477   22.5061 C   0  0  0  0  0  0  0  0  0  0  0  0
  -26.5428  -24.7407   24.2563 C   0  0  0  0  0  0  0  0  0  0  0  0
  -19.3716   -7.9643   21.7137 C   0  0  0  0  0  0  0  0  0  0  0  0
  -18.0583   -7.9247   21.2455 C   0  0  0  0  0  0  0  0  0  0  0  0
  -25.6572  -22.9938   22.8480 C   0  0  0  0  0  0  0  0  0  0  0  0
  -30.4510  -18.8556   25.0307 C   0  0  0  0  0  0  0  0  0  0  0  0
  -18.5894   -5.9758   19.9201 C   0  0  0  0  0  0  0  0  0  0  0  0
  -23.8211  -10.4666   20.9715 C   0  0  0  0  0  0  0  0  0  0  0  0
  -24.1761  -12.9895   20.8419 C   0  0  0  0  0  0  0  0  0  0  0  0
  -22.7744  -30.5285   20.4165 C   0  0  0  0  0  0  0  0  0  0  0  0
  -26.3278  -25.1019   21.8651 C   0  0  0  0  0  0  0  0  0  0  0  0
  -22.8817  -29.2320   20.9549 C   0  0  0  0  0  0  0  0  0  0  0  0
  -25.8141  -23.8059   21.7144 C   0  0  0  0  0  0  0  0  0  0  0  0
  -29.5463  -19.7900   24.5265 C   0  0  0  0  0  0  0  0  0  0  0  0
  -30.6045  -17.8274   22.8498 C   0  0  0  0  0  0  0  0  0  0  0  0
  -30.9801  -17.8744   24.1924 C   0  0  0  0  0  0  0  0  0  0  0  0
  -22.3265   -8.1701   21.4953 C   0  0  0  0  0  0  0  0  0  0  0  0
  -26.0181  -23.4596   24.1120 C   0  0  0  0  0  0  0  0  0  0  0  0
  -20.2939   -7.0096   21.2850 C   0  0  0  0  0  0  0  0  0  0  0  0
  -17.6672   -6.9305   20.3488 C   0  0  0  0  0  0  0  0  0  0  0  0
  -19.9028   -6.0154   20.3883 C   0  0  0  0  0  0  0  0  0  0  0  0
  -24.5937  -11.6525   20.7014 C   0  0  0  0  0  0  0  0  0  0  0  0
  -25.2678  -13.7319   20.4630 C   0  0  0  0  0  0  0  0  0  0  0  0
  -22.9142  -13.5136   21.2762 C   0  0  0  0  0  0  0  0  0  0  0  0
  -24.2072  -26.0254   19.6846 C   0  0  0  0  0  0  0  0  0  0  0  0
  -30.7811  -14.6528   20.6750 C   0  0  0  0  0  0  0  0  0  0  0  0
  -25.6257  -23.7214   17.8953 C   0  0  0  0  0  0  0  0  0  0  0  0
  -27.4399  -20.8323   17.8013 C   0  0  0  0  0  0  0  0  0  0  0  0
  -22.4379  -30.7592   18.9645 C   0  0  0  0  0  0  0  0  0  0  0  0
  -26.5297  -25.9855   20.6647 C   0  0  0  0  0  0  0  0  0  0  0  0
  -25.4170  -23.2619   20.3672 C   0  0  0  0  0  0  0  0  0  0  0  0
  -22.6617  -29.5317   18.0850 C   0  0  0  0  0  0  0  0  0  0  0  0
  -29.5707  -12.3582   18.2032 C   0  0  0  0  0  0  0  0  0  0  0  0
  -22.0695  -28.2890   18.7420 C   0  0  0  0  0  0  0  0  0  0  0  0
  -28.1443  -12.0566   18.6612 C   0  0  0  0  0  0  0  0  0  0  0  0
  -30.5078  -12.5578   19.3902 C   0  0  0  0  0  0  0  0  0  0  0  0
  -28.6271  -13.3064   20.8130 C   0  0  0  0  0  0  0  0  0  0  0  0
  -22.7474  -27.9998   20.0867 C   0  0  1  0  0  0  0  0  0  0  0  0
  -25.6368  -25.6070   19.4871 C   0  0  1  0  0  0  0  0  0  0  0  0
  -27.6414  -13.1282   19.6447 C   0  0  2  0  0  0  0  0  0  0  0  0
  -31.9469  -16.8843   24.7545 C   0  0  0  0  0  0  0  0  0  0  0  0
  -28.4126  -19.1685   16.1941 C   0  0  0  0  0  0  0  0  0  0  0  0
  -25.7073  -20.9851   27.5915 C   0  0  0  0  0  0  0  0  0  0  0  0
  -22.8494  -22.5396   17.4421 C   0  0  0  0  0  0  0  0  0  0  0  0
  -23.9507  -20.4271   16.6722 C   0  0  0  0  0  0  0  0  0  0  0  0
  -24.3206  -22.5525   15.4197 C   0  0  0  0  0  0  0  0  0  0  0  0
  -30.1976  -21.3751   18.7281 C   0  0  0  0  0  0  0  0  0  0  0  0
  -28.9736  -20.8507   25.4329 C   0  0  0  0  0  0  0  0  0  0  0  0
  -31.1568  -16.7854   21.9334 C   0  0  0  0  0  0  0  0  0  0  0  0
  -30.1712  -15.6523   21.6252 C   0  0  0  0  0  0  0  0  0  0  0  0
  -27.6730  -20.4360   26.1348 C   0  0  0  0  0  0  0  0  0  0  0  0
  -26.7796  -22.8449   26.2795 C   0  0  0  0  0  0  0  0  0  1  0  0
  -25.4029  -22.2434   17.6836 C   0  0  1  0  0  0  0  0  0  0  0  0
  -28.6635  -20.4371   16.9945 C   0  0  2  0  0  0  0  0  0  0  0  0
  -27.0253  -21.5236   27.0204 C   0  0  1  0  0  0  0  0  0  0  0  0
  -24.1365  -21.9513   16.8302 C   0  0  0  0  0  0  0  0  0  0  0  0
  -25.8525  -11.5484   20.2669 N   0  0  0  0  0  0  0  0  0  0  0  0
  -26.2352  -12.8295   20.1311 N   0  0  0  0  0  0  0  0  0  0  0  0
  -25.6277  -24.1664   19.2249 N   0  0  0  0  0  0  0  0  0  0  0  0
  -29.9839  -13.5671   20.3122 N   0  0  0  0  0  0  0  0  0  0  0  0
  -25.4850  -15.0619   20.3846 N   0  0  0  0  0  0  0  0  0  0  0  0
  -21.9014  -12.6110   21.6284 N   0  0  0  0  0  0  0  0  0  0  0  0
  -24.0402  -27.3833   19.8788 N   0  0  0  0  0  0  0  0  0  0  0  0
  -26.6405  -21.7214   17.1143 N   0  0  0  0  0  0  0  0  0  0  0  0
  -29.8253  -20.2010   17.8976 N   0  3  0  0  0  0  0  0  0  0  0  0
  -22.6859  -14.7457   21.3341 O   0  0  0  0  0  0  0  0  0  0  0  0
  -23.3212  -25.1791   19.6611 O   0  0  0  0  0  0  0  0  0  0  0  0
  -31.9309  -14.8348   20.2662 O   0  0  0  0  0  0  0  0  0  0  0  0
  -25.7990  -24.4530   16.9173 O   0  0  0  0  0  0  0  0  0  0  0  0
  -27.2137  -20.3932   18.9267 O   0  0  0  0  0  0  0  0  0  0  0  0
  -21.5972   -7.0497   21.7514 O   0  0  0  0  0  0  0  0  0  0  0  0
  -25.8620  -22.6605   25.2023 O   0  0  0  0  0  0  0  0  0  1  0  0
  -16.4056   -6.8918   19.9005 F   0  0  0  0  0  0  0  0  0  0  0  0
  -20.7841   -5.0949   19.9738 F   0  0  0  0  0  0  0  0  0  0  0  0
  1  2  1  0  0  0  0
  1  5  2  0  0  0  0
  2  6  2  0  0  0  0
  3 10  2  0  0  0  0
  3 18  1  0  0  0  0
  4 11  1  0  0  0  0
  4 18  2  0  0  0  0
  5 20  1  0  0  0  0
  6 22  1  0  0  0  0
  7 12  2  0  0  0  0
  7 21  1  0  0  0  0
  8  9  2  0  0  0  0
  8 24  1  0  0  0  0
  9 25  1  0  0  0  0
 10 27  1  0  0  0  0
 11 27  2  0  0  0  0
 12 28  1  0  0  0  0
 13 14  2  0  0  0  0
 13 29  1  0  0  0  0
 14 30  1  0  0  0  0
 15 23  1  0  0  0  0
 15 28  2  0  0  0  0
 16 24  2  0  0  0  0
 16 26  1  0  0  0  0
 17 30  2  0  0  0  0
 17 31  1  0  0  0  0
 18 32  1  0  0  0  0
 19 32  1  0  0  0  0
 19 33  2  0  0  0  0
 19 34  1  0  0  0  0
 20 22  2  0  0  0  0
 20 39  1  0  0  0  0
 21 23  2  0  0  0  0
 21 40  1  0  0  0  0
 22 48  1  0  0  0  0
 23 41  1  0  0  0  0
 24 58  1  0  0  0  0
 25 26  2  0  0  0  0
 25 59  1  0  0  0  0
 26 51  1  0  0  0  0
 27 81  1  0  0  0  0
 28 82  1  0  0  0  0
 29 31  2  0  0  0  0
 29 81  1  0  0  0  0
 30 83  1  0  0  0  0
 31 84  1  0  0  0  0
 32 67  2  0  0  0  0
 33 68  1  0  0  0  0
 33 71  1  0  0  0  0
 34 72  1  0  0  0  0
 34 76  2  0  0  0  0
 35 49  1  0  0  0  0
 35 73  1  0  0  0  0
 35 77  2  0  0  0  0
 36 60  1  0  0  0  0
 36 70  1  0  0  0  0
 36 78  2  0  0  0  0
 37 63  1  0  0  0  0
 37 69  1  0  0  0  0
 37 79  2  0  0  0  0
 38 64  1  0  0  0  0
 38 74  1  0  0  0  0
 38 80  2  0  0  0  0
 39 42  1  0  0  0  0
 40 49  1  0  0  0  0
 41 69  1  0  0  0  0
 42 44  1  0  0  0  0
 43 45  1  0  0  0  0
 43 46  1  0  0  0  0
 44 48  1  0  0  0  0
 45 50  1  0  0  0  0
 46 70  1  0  0  0  0
 47 50  1  0  0  0  0
 47 70  1  0  0  0  0
 48 73  1  0  0  0  0
 49 69  1  0  0  0  0
 50 68  1  0  0  0  0
 52 64  1  0  0  0  0
 53 65  1  0  0  0  0
 54 66  1  0  0  0  0
 55 66  1  0  0  0  0
 56 66  1  0  0  0  0
 57 75  1  0  0  0  0
 58 61  1  0  0  0  0
 59 60  1  0  0  0  0
 61 65  1  0  0  0  0
 62 65  1  0  0  0  0
 62 82  1  0  0  0  0
 63 66  1  0  0  0  0
 63 74  1  0  0  0  0
 64 75  1  0  0  0  0
 67 68  1  0  0  0  0
M  CHG  1  75   1
M  ISO  4  36 100  60 100  62 101  82 101
M  END
> <Batch ID>
0133

> <Smiles>
CNC(C)C(=O)NC(C(=O)N1Cc2cc([101O:1][101CH2:1]C(C)CCc3ccc(C[100CH2:0][100C:0](=O)N4CCCC(n5nc(-c6ccc(Oc7ccc(F)cc7F)cc6)c(C(N)=O)c5N)C4)c(C)c3)ccc2CC1C(=O)NC1CCCc2ccccc21)C(C)(C)C

> <Shape>
0.215

> <Color>
0.199

> <Negative vol penalty>
0.000

$$$$

  -OEChem-04052302303D

 86 94  0     1  0  0  0  0  0999 V2000
  -19.7678  -28.8908   22.9814 C   0  0  0  0  0  0  0  0  0  0  0  0
  -20.5551  -27.8267   23.4097 C   0  0  0  0  0  0  0  0  0  0  0  0
  -29.6932  -23.7059   18.9564 C   0  0  0  0  0  0  0  0  0  0  0  0
  -28.6017  -23.6735   21.1116 C   0  0  0  0  0  0  0  0  0  0  0  0
  -18.7711  -28.6801   22.0295 C   0  0  0  0  0  0  0  0  0  0  0  0
  -20.3454  -26.5511   22.8870 C   0  0  0  0  0  0  0  0  0  0  0  0
  -24.5936  -22.2794   21.7865 C   0  0  0  0  0  0  0  0  0  0  0  0
  -21.1050  -14.4616   22.9868 C   0  0  0  0  0  0  0  0  0  0  0  0
  -21.2095  -14.0597   21.6552 C   0  0  0  0  0  0  0  0  0  0  0  0
  -29.4543  -25.0764   18.8560 C   0  0  0  0  0  0  0  0  0  0  0  0
  -28.3628  -25.0441   21.0111 C   0  0  0  0  0  0  0  0  0  0  0  0
  -25.0110  -21.1633   22.5103 C   0  0  0  0  0  0  0  0  0  0  0  0
  -26.1756  -27.0826   19.4327 C   0  0  0  0  0  0  0  0  0  0  0  0
  -24.9048  -27.5456   19.7737 C   0  0  0  0  0  0  0  0  0  0  0  0
  -23.5350  -19.7721   21.2044 C   0  0  0  0  0  0  0  0  0  0  0  0
  -23.5111  -14.3951   23.1957 C   0  0  0  0  0  0  0  0  0  0  0  0
  -25.8727  -28.9296   21.5013 C   0  0  0  0  0  0  0  0  0  0  0  0
  -29.2668  -23.0044   20.0842 C   0  0  0  0  0  0  0  0  0  0  0  0
  -30.6406  -20.9607   20.7503 C   0  0  0  0  0  0  0  0  0  0  0  0
  -18.5555  -27.4031   21.4877 C   0  0  0  0  0  0  0  0  0  0  0  0
  -23.6341  -22.1518   20.7719 C   0  0  0  0  0  0  0  0  0  0  0  0
  -19.3440  -26.3229   21.9279 C   0  0  0  0  0  0  0  0  0  0  0  0
  -23.1091  -20.8878   20.4675 C   0  0  0  0  0  0  0  0  0  0  0  0
  -22.2558  -14.6293   23.7571 C   0  0  0  0  0  0  0  0  0  0  0  0
  -22.4648  -13.8255   21.0939 C   0  0  0  0  0  0  0  0  0  0  0  0
  -23.6156  -13.9932   21.8641 C   0  0  0  0  0  0  0  0  0  0  0  0
  -28.7891  -25.7456   19.8833 C   0  0  0  0  0  0  0  0  0  0  0  0
  -24.4796  -19.9098   22.2212 C   0  0  0  0  0  0  0  0  0  0  0  0
  -27.2950  -27.5430   20.1260 C   0  0  0  0  0  0  0  0  0  0  0  0
  -24.7534  -28.4692   20.8080 C   0  0  0  0  0  0  0  0  0  0  0  0
  -27.1435  -28.4666   21.1603 C   0  0  0  0  0  0  0  0  0  0  0  0
  -29.5129  -21.5885   20.1883 C   0  0  0  0  0  0  0  0  0  0  0  0
  -30.3934  -19.6174   20.6059 C   0  0  0  0  0  0  0  0  0  0  0  0
  -31.8073  -21.5400   21.3494 C   0  0  0  0  0  0  0  0  0  0  0  0
  -20.7125  -23.3070   20.2893 C   0  0  0  0  0  0  0  0  0  0  0  0
  -21.0421  -21.8662   17.4018 C   0  0  0  0  0  0  0  0  0  0  0  0
  -22.5575  -19.4524   15.5245 C   0  0  0  0  0  0  0  0  0  0  0  0
  -26.0517  -15.9455   20.8876 C   0  0  0  0  0  0  0  0  0  0  0  0
  -17.4350  -27.2151   20.4959 C   0  0  0  0  0  0  0  0  0  0  0  0
  -23.2142  -23.3613   19.9825 C   0  0  0  0  0  0  0  0  0  0  0  0
  -22.0914  -20.6941   19.3742 C   0  0  0  0  0  0  0  0  0  0  0  0
  -17.5254  -25.9062   19.7157 C   0  0  0  0  0  0  0  0  0  0  0  0
  -27.4558  -16.9074   17.6937 C   0  0  0  0  0  0  0  0  0  0  0  0
  -17.8165  -24.7422   20.6576 C   0  0  0  0  0  0  0  0  0  0  0  0
  -28.2451  -18.1615   18.0738 C   0  0  0  0  0  0  0  0  0  0  0  0
  -26.1482  -16.8193   18.4751 C   0  0  0  0  0  0  0  0  0  0  0  0
  -27.0990  -18.1233   20.3376 C   0  0  0  0  0  0  0  0  0  0  0  0
  -19.1635  -24.9293   21.3661 C   0  0  1  0  0  0  0  0  0  0  0  0
  -21.8518  -23.1964   19.3161 C   0  0  1  0  0  0  0  0  0  0  0  0
  -28.4425  -18.2588   19.5982 C   0  0  2  0  0  0  0  0  0  0  0  0
  -22.5516  -13.3948   19.6664 C   0  0  0  0  0  0  0  0  0  0  0  0
  -22.5938  -18.4935   13.2058 C   0  0  0  0  0  0  0  0  0  0  0  0
  -22.5618  -18.2934   25.4940 C   0  0  0  0  0  0  0  0  0  0  0  0
  -25.4208  -17.9883   26.5719 C   0  0  0  0  0  0  0  0  0  0  0  0
  -18.4050  -20.4345   17.9552 C   0  0  0  0  0  0  0  0  0  0  0  0
  -18.9683  -18.8334   16.1147 C   0  0  0  0  0  0  0  0  0  0  0  0
  -18.6725  -21.2582   15.6091 C   0  0  0  0  0  0  0  0  0  0  0  0
  -25.4122  -20.1422   15.1589 C   0  0  0  0  0  0  0  0  0  0  0  0
  -22.1425  -15.0634   25.1971 C   0  0  0  0  0  0  0  0  0  0  0  0
  -24.9701  -13.7479   21.2847 C   0  0  0  0  0  0  0  0  0  0  0  0
  -23.3425  -15.8816   25.6994 C   0  0  0  0  0  0  0  0  0  0  0  0
  -25.2882  -19.0326   24.2785 C   0  0  0  0  0  0  0  0  0  1  0  0
  -20.7380  -20.4940   16.8508 C   0  0  1  0  0  0  0  0  0  0  0  0
  -23.2148  -19.5044   14.1572 C   0  0  2  0  0  0  0  0  0  0  0  0
  -23.5573  -17.2392   24.9892 C   0  0  2  0  0  0  0  0  0  0  0  0
  -25.0187  -17.7671   25.1055 C   0  0  2  0  0  0  0  0  0  0  0  0
  -19.2137  -20.2587   16.6544 C   0  0  0  0  0  0  0  0  0  0  0  0
  -28.6160  -20.7158   19.7216 N   0  0  0  0  0  0  0  0  0  0  0  0
  -29.1800  -19.5258   19.9899 N   0  0  0  0  0  0  0  0  0  0  0  0
  -21.7080  -21.9081   18.6349 N   0  0  0  0  0  0  0  0  0  0  0  0
  -26.4077  -16.8992   19.9196 N   0  0  0  0  0  0  0  0  0  0  0  0
  -31.0977  -18.5174   20.9469 N   0  0  0  0  0  0  0  0  0  0  0  0
  -31.9003  -22.9368   21.4166 N   0  0  0  0  0  0  0  0  0  0  0  0
  -20.2540  -24.5974   20.4745 N   0  0  0  0  0  0  0  0  0  0  0  0
  -21.5253  -20.3607   15.6299 N   0  0  0  0  0  0  0  0  0  0  0  0
  -25.3940  -14.8185   20.4100 N   0  0  0  0  0  0  0  0  0  0  0  0
  -24.6712  -19.2096   14.2710 N   0  3  0  0  0  0  0  0  0  0  0  0
  -32.7472  -20.8399   21.7966 O   0  0  0  0  0  0  0  0  0  0  0  0
  -20.2803  -22.2963   20.8310 O   0  0  0  0  0  0  0  0  0  0  0  0
  -20.7076  -22.8640   16.7583 O   0  0  0  0  0  0  0  0  0  0  0  0
  -22.9206  -18.6806   16.4093 O   0  0  0  0  0  0  0  0  0  0  0  0
  -26.3061  -16.0853   22.0888 O   0  0  0  0  0  0  0  0  0  0  0  0
  -28.5560  -27.0830   19.7857 O   0  0  0  0  0  0  0  0  0  0  0  0
  -24.8847  -18.8189   22.9266 O   0  0  0  0  0  0  0  0  0  1  0  0
  -23.5331  -28.9149   21.1344 F   0  0  0  0  0  0  0  0  0  0  0  0
  -28.2153  -28.9134   21.8292 F   0  0  0  0  0  0  0  0  0  0  0  0
  1  2  1  0  0  0  0
  1  5  2  0  0  0  0
  2  6  2  0  0  0  0
  3 10  2  0  0  0  0
  3 18  1  0  0  0  0
  4 11  1  0  0  0  0
  4 18  2  0  0  0  0
  5 20  1  0  0  0  0
  6 22  1  0  0  0  0
  7 12  2  0  0  0  0
  7 21  1  0  0  0  0
  8  9  2  0  0  0  0
  8 24  1  0  0  0  0
  9 25  1  0  0  0  0
 10 27  1  0  0  0  0
 11 27  2  0  0  0  0
 12 28  1  0  0  0  0
 13 14  2  0  0  0  0
 13 29  1  0  0  0  0
 14 30  1  0  0  0  0
 15 23  1  0  0  0  0
 15 28  2  0  0  0  0
 16 24  2  0  0  0  0
 16 26  1  0  0  0  0
 17 30  2  0  0  0  0
 17 31  1  0  0  0  0
 18 32  1  0  0  0  0
 19 32  1  0  0  0  0
 19 33  2  0  0  0  0
 19 34  1  0  0  0  0
 20 22  2  0  0  0  0
 20 39  1  0  0  0  0
 21 23  2  0  0  0  0
 21 40  1  0  0  0  0
 22 48  1  0  0  0  0
 23 41  1  0  0  0  0
 24 59  1  0  0  0  0
 25 26  2  0  0  0  0
 25 51  1  0  0  0  0
 26 60  1  0  0  0  0
 27 83  1  0  0  0  0
 28 84  1  0  0  0  0
 29 31  2  0  0  0  0
 29 83  1  0  0  0  0
 30 85  1  0  0  0  0
 31 86  1  0  0  0  0
 32 68  2  0  0  0  0
 33 69  1  0  0  0  0
 33 72  1  0  0  0  0
 34 73  1  0  0  0  0
 34 78  2  0  0  0  0
 35 49  1  0  0  0  0
 35 74  1  0  0  0  0
 35 79  2  0  0  0  0
 36 63  1  0  0  0  0
 36 70  1  0  0  0  0
 36 80  2  0  0  0  0
 37 64  1  0  0  0  0
 37 75  1  0  0  0  0
 37 81  2  0  0  0  0
 38 71  1  0  0  0  0
 38 76  1  0  0  0  0
 38 82  2  0  0  0  0
 39 42  1  0  0  0  0
 40 49  1  0  0  0  0
 41 70  1  0  0  0  0
 42 44  1  0  0  0  0
 43 45  1  0  0  0  0
 43 46  1  0  0  0  0
 44 48  1  0  0  0  0
 45 50  1  0  0  0  0
 46 71  1  0  0  0  0
 47 50  1  0  0  0  0
 47 71  1  0  0  0  0
 48 74  1  0  0  0  0
 49 70  1  0  0  0  0
 50 69  1  0  0  0  0
 52 64  1  0  0  0  0
 53 65  1  0  0  0  0
 54 66  1  0  0  0  0
 55 67  1  0  0  0  0
 56 67  1  0  0  0  0
 57 67  1  0  0  0  0
 58 77  1  0  0  0  0
 59 61  1  0  0  0  0
 60 76  1  0  0  0  0
 61 65  1  0  0  0  0
 62 66  1  0  0  0  0
 62 84  1  0  0  0  0
 63 67  1  0  0  0  0
 63 75  1  0  0  0  0
 64 77  1  0  0  0  0
 65 66  1  0  0  0  0
 68 69  1  0  0  0  0
M  CHG  1  77   1
M  ISO  4  38 100  62 101  76 100  84 101
M  END
> <Batch ID>
0133

> <Smiles>
CNC(C)C(=O)NC(C(=O)N1Cc2cc([101O:1][101CH2:1]C(C)C(C)CCc3ccc(C)c(C[100NH:0][100C:0](=O)N4CCCC(n5nc(-c6ccc(Oc7ccc(F)cc7F)cc6)c(C(N)=O)c5N)C4)c3)ccc2CC1C(=O)NC1CCCc2ccccc21)C(C)(C)C

> <Shape>
0.187

> <Color>
0.078

> <Negative vol penalty>
0.000

$$$$

  -OEChem-04052302303D

 87 95  0     1  0  0  0  0  0999 V2000
  -31.9596  -29.5017   24.6379 C   0  0  0  0  0  0  0  0  0  0  0  0
  -31.0289  -28.7727   23.9046 C   0  0  0  0  0  0  0  0  0  0  0  0
  -24.1831   -9.1519   22.3178 C   0  0  0  0  0  0  0  0  0  0  0  0
  -24.2759   -8.6976   19.9467 C   0  0  0  0  0  0  0  0  0  0  0  0
  -31.0903  -20.4452   21.1296 C   0  0  0  0  0  0  0  0  0  0  0  0
  -31.5272  -30.4422   25.5720 C   0  0  0  0  0  0  0  0  0  0  0  0
  -29.6652  -28.9830   24.1058 C   0  0  0  0  0  0  0  0  0  0  0  0
  -27.0865  -29.3012   19.7590 C   0  0  0  0  0  0  0  0  0  0  0  0
  -31.3242  -21.8010   20.9005 C   0  0  0  0  0  0  0  0  0  0  0  0
  -23.1132   -8.2661   22.4457 C   0  0  0  0  0  0  0  0  0  0  0  0
  -23.2061   -7.8118   20.0746 C   0  0  0  0  0  0  0  0  0  0  0  0
  -26.7979  -28.1064   19.1010 C   0  0  0  0  0  0  0  0  0  0  0  0
  -22.6559   -4.9201   22.6123 C   0  0  0  0  0  0  0  0  0  0  0  0
  -22.6855   -4.0169   23.6748 C   0  0  0  0  0  0  0  0  0  0  0  0
  -28.7779  -20.9295   21.6352 C   0  0  0  0  0  0  0  0  0  0  0  0
  -24.5609  -28.1573   20.0025 C   0  0  0  0  0  0  0  0  0  0  0  0
  -20.6218   -4.9452   24.5214 C   0  0  0  0  0  0  0  0  0  0  0  0
  -24.7644   -9.3677   21.0683 C   0  0  0  0  0  0  0  0  0  0  0  0
  -29.8171  -20.0094   21.4969 C   0  0  0  0  0  0  0  0  0  0  0  0
  -27.2401   -9.9826   21.0465 C   0  0  0  0  0  0  0  0  0  0  0  0
  -30.1576  -30.6709   25.7779 C   0  0  0  0  0  0  0  0  0  0  0  0
  -26.1163  -29.9284   20.5539 C   0  0  0  0  0  0  0  0  0  0  0  0
  -29.2140  -29.9264   25.0445 C   0  0  0  0  0  0  0  0  0  0  0  0
  -24.8390  -29.3613   20.6675 C   0  0  0  0  0  0  0  0  0  0  0  0
  -30.2850  -22.7212   21.0388 C   0  0  0  0  0  0  0  0  0  0  0  0
  -22.6247   -7.5960   21.3241 C   0  0  0  0  0  0  0  0  0  0  0  0
  -25.5359  -27.5328   19.2250 C   0  0  0  0  0  0  0  0  0  0  0  0
  -21.6093   -5.8359   22.5044 C   0  0  0  0  0  0  0  0  0  0  0  0
  -29.0118  -22.2854   21.4062 C   0  0  0  0  0  0  0  0  0  0  0  0
  -21.6685   -4.0294   24.6294 C   0  0  0  0  0  0  0  0  0  0  0  0
  -20.5923   -5.8484   23.4589 C   0  0  0  0  0  0  0  0  0  0  0  0
  -25.8693  -10.2830   20.9355 C   0  0  0  0  0  0  0  0  0  0  0  0
  -27.8727  -11.1842   20.8402 C   0  0  0  0  0  0  0  0  0  0  0  0
  -29.5734  -18.5958   21.7365 C   0  0  0  0  0  0  0  0  0  0  0  0
  -28.3642  -17.9953   21.7189 C   0  0  0  0  0  0  0  0  0  0  0  0
  -27.8841   -8.7295   21.3123 C   0  0  0  0  0  0  0  0  0  0  0  0
  -28.2812  -16.5429   21.9727 C   0  0  0  0  0  0  0  0  0  0  0  0
  -25.8835  -30.6807   23.6334 C   0  0  0  0  0  0  0  0  0  0  0  0
  -23.1629  -32.1588   22.6658 C   0  0  0  0  0  0  0  0  0  0  0  0
  -20.6463  -32.3832   20.3717 C   0  0  0  0  0  0  0  0  0  0  0  0
  -29.7379  -31.6641   26.8324 C   0  0  0  0  0  0  0  0  0  0  0  0
  -26.4350  -31.2307   21.2356 C   0  0  0  0  0  0  0  0  0  0  0  0
  -23.7559  -30.0055   21.4924 C   0  0  0  0  0  0  0  0  0  0  0  0
  -28.2777  -32.0941   26.7174 C   0  0  0  0  0  0  0  0  0  0  0  0
  -26.1096  -15.6050   19.1734 C   0  0  0  0  0  0  0  0  0  0  0  0
  -27.3777  -30.8792   26.5161 C   0  0  0  0  0  0  0  0  0  0  0  0
  -25.9314  -14.1106   19.4279 C   0  0  0  0  0  0  0  0  0  0  0  0
  -26.2191  -16.3976   20.4751 C   0  0  0  0  0  0  0  0  0  0  0  0
  -27.1068  -14.4014   21.6447 C   0  0  0  0  0  0  0  0  0  0  0  0
  -27.7263  -30.1436   25.2165 C   0  0  1  0  0  0  0  0  0  0  0  0
  -25.5336  -31.5144   22.4333 C   0  0  1  0  0  0  0  0  0  0  0  0
  -27.0416  -13.5790   20.3482 C   0  0  1  0  0  0  0  0  0  0  0  0
  -30.2652  -26.1086   19.1868 C   0  0  0  0  0  0  0  0  0  0  0  0
  -18.5470  -33.6631   19.8694 C   0  0  0  0  0  0  0  0  0  0  0  0
  -23.1150  -25.3255   18.2526 C   0  0  0  0  0  0  0  0  0  0  0  0
  -21.6872  -30.5782   24.8185 C   0  0  0  0  0  0  0  0  0  0  0  0
  -19.5385  -31.1528   23.6690 C   0  0  0  0  0  0  0  0  0  0  0  0
  -20.9743  -32.9657   24.6042 C   0  0  0  0  0  0  0  0  0  0  0  0
  -21.7378  -33.3967   17.8143 C   0  0  0  0  0  0  0  0  0  0  0  0
  -30.5534  -24.1686   20.7898 C   0  0  0  0  0  0  0  0  0  0  0  0
  -30.0210  -24.6268   19.4242 C   0  0  0  0  0  0  0  0  0  0  0  0
  -26.1727  -24.3212   20.4341 C   0  0  0  0  0  0  0  0  0  0  0  0
  -24.9591  -24.1614   19.5161 C   0  0  0  0  0  0  0  0  0  0  0  0
  -26.8487  -22.9832   20.7066 C   0  0  0  0  0  0  0  0  0  0  0  0
  -21.7179  -31.7480   22.5170 C   0  0  1  0  0  0  0  0  0  0  0  0
  -20.0486  -33.5748   19.6455 C   0  0  2  0  0  0  0  0  0  0  0  0
  -24.2948  -25.5043   19.1987 C   0  0  1  0  0  0  0  0  0  1  0  0
  -21.0003  -31.5978   23.8881 C   0  0  0  0  0  0  0  0  0  0  0  0
  -25.6435  -11.5742   20.6788 N   0  0  0  0  0  0  0  0  0  0  0  0
  -26.8809  -12.0958   20.6269 N   0  0  0  0  0  0  0  0  0  0  0  0
  -27.2472  -15.8345   21.3632 N   0  0  0  0  0  0  0  0  0  0  0  0
  -24.1182  -31.2746   22.1448 N   0  0  0  0  0  0  0  0  0  0  0  0
  -29.1750  -11.5393   20.8225 N   0  0  0  0  0  0  0  0  0  0  0  0
  -27.0845   -7.5938   21.4993 N   0  0  0  0  0  0  0  0  0  0  0  0
  -27.1819  -30.8480   24.0755 N   0  0  0  0  0  0  0  0  0  0  0  0
  -21.1049  -32.7269   21.6258 N   0  0  0  0  0  0  0  0  0  0  0  0
  -20.2998  -33.4679   18.1805 N   0  3  0  0  0  0  0  0  0  0  0  0
  -29.1311   -8.6233   21.3981 O   0  0  0  0  0  0  0  0  0  0  0  0
  -29.1310  -16.0457   22.7139 O   0  0  0  0  0  0  0  0  0  0  0  0
  -25.0375  -29.9415   24.1230 O   0  0  0  0  0  0  0  0  0  0  0  0
  -23.4338  -33.2283   23.2175 O   0  0  0  0  0  0  0  0  0  0  0  0
  -20.6976  -31.2591   19.8774 O   0  0  0  0  0  0  0  0  0  0  0  0
  -21.5809   -6.7314   21.4485 O   0  0  0  0  0  0  0  0  0  0  0  0
  -27.9798  -23.1764   21.5452 O   0  0  0  0  0  0  0  0  0  0  0  0
  -25.2517  -26.3663   18.5843 O   0  0  0  0  0  0  0  0  0  1  0  0
  -21.6962   -3.1610   25.6488 F   0  0  0  0  0  0  0  0  0  0  0  0
  -19.5836   -6.7251   23.3599 F   0  0  0  0  0  0  0  0  0  0  0  0
  1  2  1  0  0  0  0
  1  6  2  0  0  0  0
  2  7  2  0  0  0  0
  3 10  2  0  0  0  0
  3 18  1  0  0  0  0
  4 11  1  0  0  0  0
  4 18  2  0  0  0  0
  5  9  2  0  0  0  0
  5 19  1  0  0  0  0
  6 21  1  0  0  0  0
  7 23  1  0  0  0  0
  8 12  2  0  0  0  0
  8 22  1  0  0  0  0
  9 25  1  0  0  0  0
 10 26  1  0  0  0  0
 11 26  2  0  0  0  0
 12 27  1  0  0  0  0
 13 14  2  0  0  0  0
 13 28  1  0  0  0  0
 14 30  1  0  0  0  0
 15 19  2  0  0  0  0
 15 29  1  0  0  0  0
 16 24  1  0  0  0  0
 16 27  2  0  0  0  0
 17 30  2  0  0  0  0
 17 31  1  0  0  0  0
 18 32  1  0  0  0  0
 19 34  1  0  0  0  0
 20 32  1  0  0  0  0
 20 33  2  0  0  0  0
 20 36  1  0  0  0  0
 21 23  2  0  0  0  0
 21 41  1  0  0  0  0
 22 24  2  0  0  0  0
 22 42  1  0  0  0  0
 23 50  1  0  0  0  0
 24 43  1  0  0  0  0
 25 29  2  0  0  0  0
 25 60  1  0  0  0  0
 26 83  1  0  0  0  0
 27 85  1  0  0  0  0
 28 31  2  0  0  0  0
 28 83  1  0  0  0  0
 29 84  1  0  0  0  0
 30 86  1  0  0  0  0
 31 87  1  0  0  0  0
 32 69  2  0  0  0  0
 33 70  1  0  0  0  0
 33 73  1  0  0  0  0
 34 35  2  0  0  0  0
 35 37  1  0  0  0  0
 36 74  1  0  0  0  0
 36 78  2  0  0  0  0
 37 71  1  0  0  0  0
 37 79  2  0  0  0  0
 38 51  1  0  0  0  0
 38 75  1  0  0  0  0
 38 80  2  0  0  0  0
 39 65  1  0  0  0  0
 39 72  1  0  0  0  0
 39 81  2  0  0  0  0
 40 66  1  0  0  0  0
 40 76  1  0  0  0  0
 40 82  2  0  0  0  0
 41 44  1  0  0  0  0
 42 51  1  0  0  0  0
 43 72  1  0  0  0  0
 44 46  1  0  0  0  0
 45 47  1  0  0  0  0
 45 48  1  0  0  0  0
 46 50  1  0  0  0  0
 47 52  1  0  0  0  0
 48 71  1  0  0  0  0
 49 52  1  0  0  0  0
 49 71  1  0  0  0  0
 50 75  1  0  0  0  0
 51 72  1  0  0  0  0
 52 70  1  0  0  0  0
 53 61  1  0  0  0  0
 54 66  1  0  0  0  0
 55 67  1  0  0  0  0
 56 68  1  0  0  0  0
 57 68  1  0  0  0  0
 58 68  1  0  0  0  0
 59 77  1  0  0  0  0
 60 61  1  0  0  0  0
 62 63  1  0  0  0  0
 62 64  1  0  0  0  0
 63 67  1  0  0  0  0
 64 84  1  0  0  0  0
 65 68  1  0  0  0  0
 65 76  1  0  0  0  0
 66 77  1  0  0  0  0
 67 85  1  0  0  0  0
 69 70  1  0  0  0  0
M  CHG  1  77   1
M  ISO  4  35 100  37 100  67 101  85 101
M  END
> <Batch ID>
0133

> <Smiles>
CCCc1ccc(C=[100CH:0][100C:0](=O)N2CCCC(n3nc(-c4ccc(Oc5ccc(F)cc5F)cc4)c(C(N)=O)c3N)C2)cc1OCCC[101CH:1](C)[101O:1]c1ccc2c(c1)CN(C(=O)C(NC(=O)C(C)NC)C(C)(C)C)C(C(=O)NC1CCCc3ccccc31)C2

> <Shape>
0.270

> <Color>
0.095

> <Negative vol penalty>
0.000

$$$$

  -OEChem-04052302303D

 88 96  0     1  0  0  0  0  0999 V2000
  -24.5223  -36.3980   28.4034 C   0  0  0  0  0  0  0  0  0  0  0  0
  -24.6149  -35.0099   28.4152 C   0  0  0  0  0  0  0  0  0  0  0  0
  -24.3887   -8.8858   20.6555 C   0  0  0  0  0  0  0  0  0  0  0  0
  -22.7083  -10.5953   20.9572 C   0  0  0  0  0  0  0  0  0  0  0  0
  -24.2525  -37.0674   27.2105 C   0  0  0  0  0  0  0  0  0  0  0  0
  -24.4365  -34.2904   27.2341 C   0  0  0  0  0  0  0  0  0  0  0  0
  -27.2901  -29.1222   25.6053 C   0  0  0  0  0  0  0  0  0  0  0  0
  -23.4615   -7.9099   21.0208 C   0  0  0  0  0  0  0  0  0  0  0  0
  -21.7811   -9.6193   21.3225 C   0  0  0  0  0  0  0  0  0  0  0  0
  -26.9114  -27.7819   25.6680 C   0  0  0  0  0  0  0  0  0  0  0  0
  -21.6345   -5.0043   22.2221 C   0  0  0  0  0  0  0  0  0  0  0  0
  -22.0476   -4.0179   23.1176 C   0  0  0  0  0  0  0  0  0  0  0  0
  -26.1803  -27.8873   23.3716 C   0  0  0  0  0  0  0  0  0  0  0  0
  -26.8402  -20.4711   18.7578 C   0  0  0  0  0  0  0  0  0  0  0  0
  -27.9799  -19.8205   21.2196 C   0  0  0  0  0  0  0  0  0  0  0  0
  -22.5195   -5.7160   24.7702 C   0  0  0  0  0  0  0  0  0  0  0  0
  -24.0121  -10.2285   20.6237 C   0  0  0  0  0  0  0  0  0  0  0  0
  -25.2290  -11.7212   18.9507 C   0  0  0  0  0  0  0  0  0  0  0  0
  -24.0803  -36.3563   26.0124 C   0  0  0  0  0  0  0  0  0  0  0  0
  -27.1063  -29.8594   24.4266 C   0  0  0  0  0  0  0  0  0  0  0  0
  -24.1628  -34.9508   26.0243 C   0  0  0  0  0  0  0  0  0  0  0  0
  -26.5598  -29.2361   23.2957 C   0  0  0  0  0  0  0  0  0  0  0  0
  -27.0458  -19.1345   19.0997 C   0  0  0  0  0  0  0  0  0  0  0  0
  -27.2045  -21.4824   19.6467 C   0  0  0  0  0  0  0  0  0  0  0  0
  -27.6156  -18.8092   20.3305 C   0  0  0  0  0  0  0  0  0  0  0  0
  -22.1577   -8.2766   21.3543 C   0  0  0  0  0  0  0  0  0  0  0  0
  -26.3538  -27.1650   24.5519 C   0  0  0  0  0  0  0  0  0  0  0  0
  -21.6639   -6.3465   22.6005 C   0  0  0  0  0  0  0  0  0  0  0  0
  -27.7743  -21.1571   20.8776 C   0  0  0  0  0  0  0  0  0  0  0  0
  -22.4901   -4.3737   24.3916 C   0  0  0  0  0  0  0  0  0  0  0  0
  -22.1063   -6.7023   23.8746 C   0  0  0  0  0  0  0  0  0  0  0  0
  -24.9696  -11.2372   20.2469 C   0  0  0  0  0  0  0  0  0  0  0  0
  -26.2152  -12.6609   19.1260 C   0  0  0  0  0  0  0  0  0  0  0  0
  -24.6317  -11.3542   17.7000 C   0  0  0  0  0  0  0  0  0  0  0  0
  -25.4173  -32.4316   23.6300 C   0  0  0  0  0  0  0  0  0  0  0  0
  -26.9908  -32.1121   20.8114 C   0  0  0  0  0  0  0  0  0  0  0  0
  -28.6492  -30.0735   18.6341 C   0  0  0  0  0  0  0  0  0  0  0  0
  -28.3915  -16.9821   21.8817 C   0  0  0  0  0  0  0  0  0  0  0  0
  -23.7435  -37.1206   24.7566 C   0  0  0  0  0  0  0  0  0  0  0  0
  -27.5447  -31.2970   24.3670 C   0  0  0  0  0  0  0  0  0  0  0  0
  -26.3602  -29.9779   22.0002 C   0  0  0  0  0  0  0  0  0  0  0  0
  -23.9388  -36.3088   23.4787 C   0  0  0  0  0  0  0  0  0  0  0  0
  -29.0629  -13.7320   23.1714 C   0  0  0  0  0  0  0  0  0  0  0  0
  -23.3234  -34.9211   23.6284 C   0  0  0  0  0  0  0  0  0  0  0  0
  -28.0791  -12.8330   22.4189 C   0  0  0  0  0  0  0  0  0  0  0  0
  -28.4520  -15.0940   23.4962 C   0  0  0  0  0  0  0  0  0  0  0  0
  -26.8965  -14.9089   21.5948 C   0  0  0  0  0  0  0  0  0  0  0  0
  -24.0000  -34.1367   24.7591 C   0  0  1  0  0  0  0  0  0  0  0  0
  -26.8372  -32.0925   23.2742 C   0  0  1  0  0  0  0  0  0  0  0  0
  -27.4887  -13.5495   21.1886 C   0  0  2  0  0  0  0  0  0  0  0  0
  -26.6457  -18.0720   18.1281 C   0  0  0  0  0  0  0  0  0  0  0  0
  -29.7858  -30.0900   16.3968 C   0  0  0  0  0  0  0  0  0  0  0  0
  -23.7262  -25.0844   19.2247 C   0  0  0  0  0  0  0  0  0  0  0  0
  -26.0386  -25.7560   19.9042 C   0  0  0  0  0  0  0  0  0  0  0  0
  -24.2694  -32.1465   19.4319 C   0  0  0  0  0  0  0  0  0  0  0  0
  -25.3741  -31.2237   17.3833 C   0  0  0  0  0  0  0  0  0  0  0  0
  -26.0485  -33.4587   18.2625 C   0  0  0  0  0  0  0  0  0  0  0  0
  -31.2433  -29.2789   19.8164 C   0  0  0  0  0  0  0  0  0  0  0  0
  -26.9776  -22.9080   19.2652 C   0  0  0  0  0  0  0  0  0  0  0  0
  -25.4989  -23.3129   19.4053 C   0  0  0  0  0  0  0  0  0  0  0  0
  -26.7572  -23.5934   24.9370 C   0  0  0  0  0  0  0  0  0  0  0  0
  -27.4365  -23.5401   23.5730 C   0  0  0  0  0  0  0  0  0  0  0  0
  -26.7211  -25.0114   25.4915 C   0  0  0  0  0  0  0  0  0  1  0  0
  -27.5113  -22.1173   23.0374 C   0  0  0  0  0  0  0  0  0  0  0  0
  -26.7316  -31.3744   19.5200 C   0  0  1  0  0  0  0  0  0  0  0  0
  -29.9664  -30.2440   17.8990 C   0  0  2  0  0  0  0  0  0  0  0  0
  -25.2177  -24.7857   19.0537 C   0  0  0  0  0  0  0  0  0  0  0  0
  -25.6077  -32.0371   18.6743 C   0  0  0  0  0  0  0  0  0  0  0  0
  -25.7299  -11.8210   21.1770 N   0  0  0  0  0  0  0  0  0  0  0  0
  -26.4767  -12.6815   20.4644 N   0  0  0  0  0  0  0  0  0  0  0  0
  -26.7988  -31.3833   21.9937 N   0  0  0  0  0  0  0  0  0  0  0  0
  -27.9171  -15.7152   22.2826 N   0  0  0  0  0  0  0  0  0  0  0  0
  -26.8757  -13.4632   18.2643 N   0  0  0  0  0  0  0  0  0  0  0  0
  -23.6327  -10.3712   17.6995 N   0  0  0  0  0  0  0  0  0  0  0  0
  -27.8340  -17.4575   20.6952 N   0  0  0  0  0  0  0  0  0  0  0  0
  -25.2790  -33.6203   24.3209 N   0  0  0  0  0  0  0  0  0  0  0  0
  -28.0176  -31.2823   18.8374 N   0  0  0  0  0  0  0  0  0  0  0  0
  -30.9526  -29.2265   18.3605 N   0  3  0  0  0  0  0  0  0  0  0  0
  -24.9853  -11.8706   16.6129 O   0  0  0  0  0  0  0  0  0  0  0  0
  -24.5140  -31.6719   23.3007 O   0  0  0  0  0  0  0  0  0  0  0  0
  -27.3571  -33.2893   20.7724 O   0  0  0  0  0  0  0  0  0  0  0  0
  -28.2214  -28.9774   18.9889 O   0  0  0  0  0  0  0  0  0  0  0  0
  -29.2505  -17.5876   22.5278 O   0  0  0  0  0  0  0  0  0  0  0  0
  -21.2526   -7.3245   21.7106 O   0  0  0  0  0  0  0  0  0  0  0  0
  -25.9827  -25.8571   24.6106 O   0  0  0  0  0  0  0  0  0  1  0  0
  -28.1388  -22.1383   21.7627 O   0  0  0  0  0  0  0  0  0  0  0  0
  -22.8853   -3.4263   25.2521 F   0  0  0  0  0  0  0  0  0  0  0  0
  -22.1357   -7.9901   24.2444 F   0  0  0  0  0  0  0  0  0  0  0  0
  1  2  1  0  0  0  0
  1  5  2  0  0  0  0
  2  6  2  0  0  0  0
  3  8  2  0  0  0  0
  3 17  1  0  0  0  0
  4  9  1  0  0  0  0
  4 17  2  0  0  0  0
  5 19  1  0  0  0  0
  6 21  1  0  0  0  0
  7 10  2  0  0  0  0
  7 20  1  0  0  0  0
  8 26  1  0  0  0  0
  9 26  2  0  0  0  0
 10 27  1  0  0  0  0
 11 12  2  0  0  0  0
 11 28  1  0  0  0  0
 12 30  1  0  0  0  0
 13 22  1  0  0  0  0
 13 27  2  0  0  0  0
 14 23  2  0  0  0  0
 14 24  1  0  0  0  0
 15 25  2  0  0  0  0
 15 29  1  0  0  0  0
 16 30  2  0  0  0  0
 16 31  1  0  0  0  0
 17 32  1  0  0  0  0
 18 32  1  0  0  0  0
 18 33  2  0  0  0  0
 18 34  1  0  0  0  0
 19 21  2  0  0  0  0
 19 39  1  0  0  0  0
 20 22  2  0  0  0  0
 20 40  1  0  0  0  0
 21 48  1  0  0  0  0
 22 41  1  0  0  0  0
 23 25  1  0  0  0  0
 23 51  1  0  0  0  0
 24 29  2  0  0  0  0
 24 59  1  0  0  0  0
 25 75  1  0  0  0  0
 26 84  1  0  0  0  0
 27 85  1  0  0  0  0
 28 31  2  0  0  0  0
 28 84  1  0  0  0  0
 29 86  1  0  0  0  0
 30 87  1  0  0  0  0
 31 88  1  0  0  0  0
 32 69  2  0  0  0  0
 33 70  1  0  0  0  0
 33 73  1  0  0  0  0
 34 74  1  0  0  0  0
 34 79  2  0  0  0  0
 35 49  1  0  0  0  0
 35 76  1  0  0  0  0
 35 80  2  0  0  0  0
 36 65  1  0  0  0  0
 36 71  1  0  0  0  0
 36 81  2  0  0  0  0
 37 66  1  0  0  0  0
 37 77  1  0  0  0  0
 37 82  2  0  0  0  0
 38 72  1  0  0  0  0
 38 75  1  0  0  0  0
 38 83  2  0  0  0  0
 39 42  1  0  0  0  0
 40 49  1  0  0  0  0
 41 71  1  0  0  0  0
 42 44  1  0  0  0  0
 43 45  1  0  0  0  0
 43 46  1  0  0  0  0
 44 48  1  0  0  0  0
 45 50  1  0  0  0  0
 46 72  1  0  0  0  0
 47 50  1  0  0  0  0
 47 72  1  0  0  0  0
 48 76  1  0  0  0  0
 49 71  1  0  0  0  0
 50 70  1  0  0  0  0
 52 66  1  0  0  0  0
 53 67  1  0  0  0  0
 54 67  1  0  0  0  0
 55 68  1  0  0  0  0
 56 68  1  0  0  0  0
 57 68  1  0  0  0  0
 58 78  1  0  0  0  0
 59 60  1  0  0  0  0
 60 67  1  0  0  0  0
 61 62  1  0  0  0  0
 61 63  1  0  0  0  0
 62 64  1  0  0  0  0
 63 85  1  0  0  0  0
 64 86  1  0  0  0  0
 65 68  1  0  0  0  0
 65 77  1  0  0  0  0
 66 78  1  0  0  0  0
 69 70  1  0  0  0  0
M  CHG  1  78   1
M  ISO  4  38 100  63 101  75 100  85 101
M  END
> <Batch ID>
0133

> <Smiles>
CNC(C)C(=O)NC(C(=O)N1Cc2cc([101O:1][101CH2:1]CCCOc3cc([100NH:0][100C:0](=O)N4CCCC(n5nc(-c6ccc(Oc7ccc(F)cc7F)cc6)c(C(N)=O)c5N)C4)c(C)cc3CCC(C)C)ccc2CC1C(=O)NC1CCCc2ccccc21)C(C)(C)C

> <Shape>
0.231

> <Color>
0.088

> <Negative vol penalty>
0.000

$$$$

  -OEChem-04052302303D

 87 96  0     1  0  0  0  0  0999 V2000
  -24.5433  -37.9632   23.2287 C   0  0  0  0  0  0  0  0  0  0  0  0
  -24.9807  -36.6443   23.2983 C   0  0  0  0  0  0  0  0  0  0  0  0
  -22.8787  -11.8230   22.7341 C   0  0  0  0  0  0  0  0  0  0  0  0
  -23.4365   -9.8553   21.4479 C   0  0  0  0  0  0  0  0  0  0  0  0
  -23.1910  -38.2577   23.3969 C   0  0  0  0  0  0  0  0  0  0  0  0
  -24.0660  -35.6193   23.5373 C   0  0  0  0  0  0  0  0  0  0  0  0
  -29.8040  -22.7086   18.3709 C   0  0  0  0  0  0  0  0  0  0  0  0
  -30.3159  -22.8667   20.7267 C   0  0  0  0  0  0  0  0  0  0  0  0
  -24.7762  -31.6335   20.4953 C   0  0  0  0  0  0  0  0  0  0  0  0
  -30.3736  -21.4359   18.3325 C   0  0  0  0  0  0  0  0  0  0  0  0
  -30.8855  -21.5940   20.6884 C   0  0  0  0  0  0  0  0  0  0  0  0
  -22.0142  -11.0630   23.5219 C   0  0  0  0  0  0  0  0  0  0  0  0
  -22.5720   -9.0953   22.2357 C   0  0  0  0  0  0  0  0  0  0  0  0
  -25.8203  -30.7666   20.8150 C   0  0  0  0  0  0  0  0  0  0  0  0
  -22.6078   -7.6546   25.2925 C   0  0  0  0  0  0  0  0  0  0  0  0
  -23.0647   -6.4166   25.7442 C   0  0  0  0  0  0  0  0  0  0  0  0
  -24.2416  -29.2471   21.8240 C   0  0  0  0  0  0  0  0  0  0  0  0
  -21.2448   -5.3240   24.5904 C   0  0  0  0  0  0  0  0  0  0  0  0
  -23.5898  -11.2192   21.6971 C   0  0  0  0  0  0  0  0  0  0  0  0
  -24.1508  -13.1174   20.0879 C   0  0  0  0  0  0  0  0  0  0  0  0
  -29.7752  -23.4240   19.5680 C   0  0  0  0  0  0  0  0  0  0  0  0
  -22.2579  -37.2348   23.6285 C   0  0  0  0  0  0  0  0  0  0  0  0
  -23.4561  -31.3183   20.8478 C   0  0  0  0  0  0  0  0  0  0  0  0
  -22.7001  -35.9006   23.7101 C   0  0  0  0  0  0  0  0  0  0  0  0
  -23.1823  -30.1105   21.5054 C   0  0  0  0  0  0  0  0  0  0  0  0
  -30.9143  -20.8786   19.4913 C   0  0  0  0  0  0  0  0  0  0  0  0
  -21.8608   -9.6991   23.2727 C   0  0  0  0  0  0  0  0  0  0  0  0
  -25.5534  -29.5745   21.4820 C   0  0  0  0  0  0  0  0  0  0  0  0
  -21.4694   -7.7274   24.4897 C   0  0  0  0  0  0  0  0  0  0  0  0
  -22.3832   -5.2512   25.3932 C   0  0  0  0  0  0  0  0  0  0  0  0
  -20.7879   -6.5620   24.1387 C   0  0  0  0  0  0  0  0  0  0  0  0
  -24.4826  -12.0038   20.8826 C   0  0  0  0  0  0  0  0  0  0  0  0
  -25.3412  -13.5007   19.5199 C   0  0  0  0  0  0  0  0  0  0  0  0
  -22.8803  -13.7490   19.8817 C   0  0  0  0  0  0  0  0  0  0  0  0
  -21.2534  -32.6501   22.7128 C   0  0  0  0  0  0  0  0  0  0  0  0
  -30.8088  -14.5628   20.0360 C   0  0  0  0  0  0  0  0  0  0  0  0
  -19.3632  -30.3176   21.4844 C   0  0  0  0  0  0  0  0  0  0  0  0
  -19.6812  -26.8100   20.7017 C   0  0  0  0  0  0  0  0  0  0  0  0
  -20.8133  -37.6067   23.8512 C   0  0  0  0  0  0  0  0  0  0  0  0
  -22.3379  -32.2515   20.4721 C   0  0  0  0  0  0  0  0  0  0  0  0
  -21.7800  -29.7160   21.8880 C   0  0  0  0  0  0  0  0  0  0  0  0
  -19.8542  -36.4255   23.7280 C   0  0  0  0  0  0  0  0  0  0  0  0
  -29.8255  -11.1820   19.3704 C   0  0  0  0  0  0  0  0  0  0  0  0
  -30.1861  -25.8858   19.9895 C   0  0  0  0  0  0  0  0  0  0  0  0
  -27.9366  -24.8619   20.5468 C   0  0  0  0  0  0  0  0  0  0  0  0
  -20.3852  -35.2237   24.5030 C   0  0  0  0  0  0  0  0  0  0  0  0
  -29.5557  -27.2779   20.0171 C   0  0  0  0  0  0  0  0  0  0  0  0
  -27.3118  -26.2566   20.5730 C   0  0  0  0  0  0  0  0  0  0  0  0
  -28.3267  -11.1787   19.6684 C   0  0  0  0  0  0  0  0  0  0  0  0
  -30.5798  -12.1161   20.3113 C   0  0  0  0  0  0  0  0  0  0  0  0
  -28.5637  -13.5173   20.6171 C   0  0  0  0  0  0  0  0  0  0  0  0
  -29.1556  -24.8090   19.6106 C   0  0  0  0  0  0  0  0  0  0  0  0
  -21.7348  -34.7586   23.9430 C   0  0  1  0  0  0  0  0  0  0  0  0
  -21.0933  -32.0710   21.3357 C   0  0  1  0  0  0  0  0  0  0  0  0
  -28.3395  -27.3314   20.9509 C   0  0  0  0  0  0  0  0  0  0  0  0
  -27.7602  -12.6096   19.6689 C   0  0  2  0  0  0  0  0  0  0  0  0
  -18.4796  -25.4007   19.0084 C   0  0  0  0  0  0  0  0  0  0  0  0
  -17.4827  -29.6586   23.7951 C   0  0  0  0  0  0  0  0  0  0  0  0
  -17.3576  -27.3117   22.9323 C   0  0  0  0  0  0  0  0  0  0  0  0
  -16.5433  -29.2019   21.5228 C   0  0  0  0  0  0  0  0  0  0  0  0
  -22.2205  -25.9175   19.4712 C   0  0  0  0  0  0  0  0  0  0  0  0
  -31.5216  -19.5171   19.4499 C   0  0  0  0  0  0  0  0  0  0  0  0
  -30.1366  -15.9127   20.0379 C   0  0  0  0  0  0  0  0  0  0  0  0
  -27.7016  -28.7192   20.9256 C   0  0  0  0  0  0  0  0  0  1  0  0
  -30.4947  -18.4128   19.7458 C   0  0  0  0  0  0  0  0  0  0  0  0
  -31.1383  -17.0227   19.7360 C   0  0  0  0  0  0  0  0  0  0  0  0
  -19.0287  -28.8976   21.8724 C   0  0  1  0  0  0  0  0  0  0  0  0
  -19.7424  -26.1896   19.3176 C   0  0  2  0  0  0  0  0  0  0  0  0
  -17.6282  -28.7791   22.5372 C   0  0  0  0  0  0  0  0  0  0  0  0
  -25.7819  -11.6993   20.8269 N   0  0  0  0  0  0  0  0  0  0  0  0
  -26.2770  -12.6272   19.9903 N   0  0  0  0  0  0  0  0  0  0  0  0
  -20.7215  -30.6647   21.5044 N   0  0  0  0  0  0  0  0  0  0  0  0
  -29.9974  -13.4592   20.3001 N   0  0  0  0  0  0  0  0  0  0  0  0
  -25.6681  -14.4963   18.6688 N   0  0  0  0  0  0  0  0  0  0  0  0
  -22.0723  -13.2967   18.8296 N   0  0  0  0  0  0  0  0  0  0  0  0
  -21.5426  -34.0013   22.7248 N   0  0  0  0  0  0  0  0  0  0  0  0
  -19.1860  -28.0963   20.6635 N   0  0  0  0  0  0  0  0  0  0  0  0
  -20.9093  -25.2684   19.2140 N   0  3  0  0  0  0  0  0  0  0  0  0
  -22.4807  -14.6975   20.5986 O   0  0  0  0  0  0  0  0  0  0  0  0
  -21.1227  -31.9251   23.6921 O   0  0  0  0  0  0  0  0  0  0  0  0
  -32.0185  -14.4930   19.8035 O   0  0  0  0  0  0  0  0  0  0  0  0
  -18.4535  -31.0884   21.1682 O   0  0  0  0  0  0  0  0  0  0  0  0
  -20.0338  -26.2119   21.7159 O   0  0  0  0  0  0  0  0  0  0  0  0
  -21.0175   -8.9572   24.0414 O   0  0  0  0  0  0  0  0  0  0  0  0
  -26.5707  -28.7269   21.7958 O   0  0  0  0  0  0  0  0  0  1  0  0
  -22.8230   -4.0623   25.8258 F   0  0  0  0  0  0  0  0  0  0  0  0
  -19.6943   -6.6255   23.3668 F   0  0  0  0  0  0  0  0  0  0  0  0
  1  2  1  0  0  0  0
  1  5  2  0  0  0  0
  2  6  2  0  0  0  0
  3 12  2  0  0  0  0
  3 19  1  0  0  0  0
  4 13  1  0  0  0  0
  4 19  2  0  0  0  0
  5 22  1  0  0  0  0
  6 24  1  0  0  0  0
  7 10  2  0  0  0  0
  7 21  1  0  0  0  0
  8 11  1  0  0  0  0
  8 21  2  0  0  0  0
  9 14  2  0  0  0  0
  9 23  1  0  0  0  0
 10 26  1  0  0  0  0
 11 26  2  0  0  0  0
 12 27  1  0  0  0  0
 13 27  2  0  0  0  0
 14 28  1  0  0  0  0
 15 16  2  0  0  0  0
 15 29  1  0  0  0  0
 16 30  1  0  0  0  0
 17 25  1  0  0  0  0
 17 28  2  0  0  0  0
 18 30  2  0  0  0  0
 18 31  1  0  0  0  0
 19 32  1  0  0  0  0
 20 32  1  0  0  0  0
 20 33  2  0  0  0  0
 20 34  1  0  0  0  0
 21 52  1  0  0  0  0
 22 24  2  0  0  0  0
 22 39  1  0  0  0  0
 23 25  2  0  0  0  0
 23 40  1  0  0  0  0
 24 53  1  0  0  0  0
 25 41  1  0  0  0  0
 26 62  1  0  0  0  0
 27 84  1  0  0  0  0
 28 85  1  0  0  0  0
 29 31  2  0  0  0  0
 29 84  1  0  0  0  0
 30 86  1  0  0  0  0
 31 87  1  0  0  0  0
 32 70  2  0  0  0  0
 33 71  1  0  0  0  0
 33 74  1  0  0  0  0
 34 75  1  0  0  0  0
 34 79  2  0  0  0  0
 35 54  1  0  0  0  0
 35 76  1  0  0  0  0
 35 80  2  0  0  0  0
 36 63  1  0  0  0  0
 36 73  1  0  0  0  0
 36 81  2  0  0  0  0
 37 67  1  0  0  0  0
 37 72  1  0  0  0  0
 37 82  2  0  0  0  0
 38 68  1  0  0  0  0
 38 77  1  0  0  0  0
 38 83  2  0  0  0  0
 39 42  1  0  0  0  0
 40 54  1  0  0  0  0
 41 72  1  0  0  0  0
 42 46  1  0  0  0  0
 43 49  1  0  0  0  0
 43 50  1  0  0  0  0
 44 47  1  0  0  0  0
 44 52  1  0  0  0  0
 45 48  1  0  0  0  0
 45 52  1  0  0  0  0
 46 53  1  0  0  0  0
 47 55  1  0  0  0  0
 48 55  1  0  0  0  0
 49 56  1  0  0  0  0
 50 73  1  0  0  0  0
 51 56  1  0  0  0  0
 51 73  1  0  0  0  0
 53 76  1  0  0  0  0
 54 72  1  0  0  0  0
 55 64  1  0  0  0  0
 56 71  1  0  0  0  0
 57 68  1  0  0  0  0
 58 69  1  0  0  0  0
 59 69  1  0  0  0  0
 60 69  1  0  0  0  0
 61 78  1  0  0  0  0
 62 65  1  0  0  0  0
 63 66  1  0  0  0  0
 64 85  1  0  0  0  0
 65 66  1  0  0  0  0
 67 69  1  0  0  0  0
 67 77  1  0  0  0  0
 68 78  1  0  0  0  0
 70 71  1  0  0  0  0
M  CHG  1  78   1
M  ISO  4  36 100  63 100  64 101  85 101
M  END
> <Batch ID>
0133

> <Smiles>
CNC(C)C(=O)NC(C(=O)N1Cc2cc([101O:1][101CH2:1]C3CCC(c4ccc(CCC[100CH2:0][100C:0](=O)N5CCCC(n6nc(-c7ccc(Oc8ccc(F)cc8F)cc7)c(C(N)=O)c6N)C5)cc4)CC3)ccc2CC1C(=O)NC1CCCc2ccccc21)C(C)(C)C

> <Shape>
0.321

> <Color>
0.106

> <Negative vol penalty>
0.000

$$$$

  -OEChem-04052302303D

 87 95  0     1  0  0  0  0  0999 V2000
  -16.9046  -28.9906   24.4397 C   0  0  0  0  0  0  0  0  0  0  0  0
  -17.0422  -28.8396   23.0636 C   0  0  0  0  0  0  0  0  0  0  0  0
  -26.4492  -12.2687   21.7170 C   0  0  0  0  0  0  0  0  0  0  0  0
  -25.8503  -13.5852   19.7817 C   0  0  0  0  0  0  0  0  0  0  0  0
  -17.9115  -29.6140   25.1756 C   0  0  0  0  0  0  0  0  0  0  0  0
  -18.1864  -29.3130   22.4224 C   0  0  0  0  0  0  0  0  0  0  0  0
  -22.4234  -24.8779   18.6449 C   0  0  0  0  0  0  0  0  0  0  0  0
  -32.7388  -25.1317   16.4956 C   0  0  0  0  0  0  0  0  0  0  0  0
  -31.3584  -24.9346   16.4609 C   0  0  0  0  0  0  0  0  0  0  0  0
  -25.2103  -11.6298   21.6658 C   0  0  0  0  0  0  0  0  0  0  0  0
  -24.6114  -12.9463   19.7305 C   0  0  0  0  0  0  0  0  0  0  0  0
  -23.1689  -24.1343   17.7298 C   0  0  0  0  0  0  0  0  0  0  0  0
  -23.7543   -9.1583   19.8756 C   0  0  0  0  0  0  0  0  0  0  0  0
  -23.7331   -7.7719   20.0274 C   0  0  0  0  0  0  0  0  0  0  0  0
  -24.6269  -26.0284   17.3624 C   0  0  0  0  0  0  0  0  0  0  0  0
  -33.0249  -22.9509   17.4954 C   0  0  0  0  0  0  0  0  0  0  0  0
  -22.3256   -8.0069   21.9770 C   0  0  0  0  0  0  0  0  0  0  0  0
  -26.7692  -13.2465   20.7750 C   0  0  0  0  0  0  0  0  0  0  0  0
  -29.2379  -13.5090   20.1885 C   0  0  0  0  0  0  0  0  0  0  0  0
  -19.0729  -30.0866   24.5444 C   0  0  0  0  0  0  0  0  0  0  0  0
  -22.7865  -26.1962   18.9341 C   0  0  0  0  0  0  0  0  0  0  0  0
  -19.2091  -29.9445   23.1503 C   0  0  0  0  0  0  0  0  0  0  0  0
  -23.8914  -26.7741   18.2874 C   0  0  0  0  0  0  0  0  0  0  0  0
  -33.5721  -24.1398   17.0128 C   0  0  0  0  0  0  0  0  0  0  0  0
  -30.8112  -23.7458   16.9434 C   0  0  0  0  0  0  0  0  0  0  0  0
  -31.6445  -22.7539   17.4607 C   0  0  0  0  0  0  0  0  0  0  0  0
  -24.2914  -11.9686   20.6725 C   0  0  0  0  0  0  0  0  0  0  0  0
  -24.2678  -24.7083   17.0900 C   0  0  0  0  0  0  0  0  0  0  0  0
  -23.0612   -9.9690   20.7746 C   0  0  0  0  0  0  0  0  0  0  0  0
  -23.0188   -7.1962   21.0780 C   0  0  0  0  0  0  0  0  0  0  0  0
  -22.3468   -9.3933   21.8252 C   0  0  0  0  0  0  0  0  0  0  0  0
  -28.0485  -13.9072   20.8277 C   0  0  0  0  0  0  0  0  0  0  0  0
  -30.1582  -14.4620   20.5510 C   0  0  0  0  0  0  0  0  0  0  0  0
  -29.4885  -12.3788   19.3426 C   0  0  0  0  0  0  0  0  0  0  0  0
  -22.0712  -29.3099   20.9011 C   0  0  0  0  0  0  0  0  0  0  0  0
  -30.4187  -20.1731   21.5814 C   0  0  0  0  0  0  0  0  0  0  0  0
  -25.1189  -28.9626   20.8595 C   0  0  0  0  0  0  0  0  0  0  0  0
  -28.3883  -27.9918   20.9346 C   0  0  0  0  0  0  0  0  0  0  0  0
  -20.1130  -30.7960   25.3749 C   0  0  0  0  0  0  0  0  0  0  0  0
  -21.9756  -27.0543   19.8669 C   0  0  0  0  0  0  0  0  0  0  0  0
  -24.2242  -28.2066   18.6037 C   0  0  0  0  0  0  0  0  0  0  0  0
  -21.4618  -30.9345   24.6735 C   0  0  0  0  0  0  0  0  0  0  0  0
  -30.5270  -17.7469   24.2161 C   0  0  0  0  0  0  0  0  0  0  0  0
  -21.2709  -31.4232   23.2412 C   0  0  0  0  0  0  0  0  0  0  0  0
  -29.9847  -16.4785   23.5586 C   0  0  0  0  0  0  0  0  0  0  0  0
  -29.8360  -18.9950   23.6759 C   0  0  0  0  0  0  0  0  0  0  0  0
  -29.3576  -17.8617   21.5292 C   0  0  0  0  0  0  0  0  0  0  0  0
  -20.4466  -30.4226   22.4221 C   0  0  1  0  0  0  0  0  0  0  0  0
  -22.8346  -28.0366   20.6832 C   0  0  1  0  0  0  0  0  0  0  0  0
  -30.0504  -16.5798   22.0243 C   0  0  2  0  0  0  0  0  0  0  0  0
  -35.0479  -24.3509   17.0503 C   0  0  0  0  0  0  0  0  0  0  0  0
  -28.4430  -24.0418   13.0666 C   0  0  0  0  0  0  0  0  0  0  0  0
  -30.6343  -28.7012   21.8004 C   0  0  0  0  0  0  0  0  0  0  0  0
  -25.3057  -31.0560   18.6489 C   0  0  0  0  0  0  0  0  0  0  0  0
  -27.7924  -31.0377   18.9393 C   0  0  0  0  0  0  0  0  0  0  0  0
  -26.3232  -31.7448   20.8272 C   0  0  0  0  0  0  0  0  0  0  0  0
  -29.2641  -21.8095   15.0382 C   0  0  0  0  0  0  0  0  0  0  0  0
  -28.6503  -25.5519   22.5889 C   0  0  0  0  0  0  0  0  0  0  0  0
  -29.3112  -23.5556   16.8962 C   0  0  0  0  0  0  0  0  0  0  0  0
  -31.0812  -21.4731   17.9832 C   0  0  0  0  0  0  0  0  0  0  0  0
  -30.4563  -20.1471   20.0741 C   0  0  0  0  0  0  0  0  0  0  0  0
  -28.9969  -24.2633   14.4707 C   0  0  0  0  0  0  0  0  0  0  0  0
  -31.0440  -21.4413   19.5201 C   0  0  0  0  0  0  0  0  0  0  0  0
  -27.1308  -23.0243   15.6721 C   0  0  0  0  0  0  0  0  0  0  0  0
  -26.3803  -24.2910   16.0796 C   0  0  0  0  0  0  0  0  0  1  0  0
  -26.4216  -29.3026   20.1807 C   0  0  1  0  0  0  0  0  0  0  0  0
  -29.3815  -27.8848   22.0776 C   0  0  2  0  0  0  0  0  0  0  0  0
  -26.4467  -30.7612   19.6431 C   0  0  0  0  0  0  0  0  0  0  0  0
  -28.6784  -23.1526   15.5221 C   0  0  1  0  0  0  0  0  0  0  0  0
  -28.1968  -15.0258   21.5423 N   0  0  0  0  0  0  0  0  0  0  0  0
  -29.4902  -15.3387   21.3543 N   0  0  0  0  0  0  0  0  0  0  0  0
  -24.1008  -28.4433   20.0506 N   0  0  0  0  0  0  0  0  0  0  0  0
  -29.9007  -19.0429   22.2141 N   0  0  0  0  0  0  0  0  0  0  0  0
  -31.4656  -14.6271   20.2578 N   0  0  0  0  0  0  0  0  0  0  0  0
  -28.4313  -11.4991   19.0723 N   0  0  0  0  0  0  0  0  0  0  0  0
  -21.2664  -29.2982   22.0243 N   0  0  0  0  0  0  0  0  0  0  0  0
  -27.4746  -29.0029   21.1449 N   0  0  0  0  0  0  0  0  0  0  0  0
  -29.7824  -26.4644   22.2843 N   0  3  0  0  0  0  0  0  0  0  0  0
  -30.6205  -12.1465   18.8546 O   0  0  0  0  0  0  0  0  0  0  0  0
  -22.2031  -30.2363   20.1099 O   0  0  0  0  0  0  0  0  0  0  0  0
  -30.8404  -21.1680   22.1770 O   0  0  0  0  0  0  0  0  0  0  0  0
  -25.0024  -29.1565   22.0728 O   0  0  0  0  0  0  0  0  0  0  0  0
  -28.4220  -27.2548   19.9516 O   0  0  0  0  0  0  0  0  0  0  0  0
  -23.0825  -11.3452   20.6221 O   0  0  0  0  0  0  0  0  0  0  0  0
  -24.9940  -23.9752   16.2011 O   0  0  0  0  0  0  0  0  0  1  0  0
  -22.9972   -5.8647   21.2228 F   0  0  0  0  0  0  0  0  0  0  0  0
  -21.6781  -10.1669   22.6913 F   0  0  0  0  0  0  0  0  0  0  0  0
  1  2  1  0  0  0  0
  1  5  2  0  0  0  0
  2  6  2  0  0  0  0
  3 10  2  0  0  0  0
  3 18  1  0  0  0  0
  4 11  1  0  0  0  0
  4 18  2  0  0  0  0
  5 20  1  0  0  0  0
  6 22  1  0  0  0  0
  7 12  2  0  0  0  0
  7 21  1  0  0  0  0
  8  9  2  0  0  0  0
  8 24  1  0  0  0  0
  9 25  1  0  0  0  0
 10 27  1  0  0  0  0
 11 27  2  0  0  0  0
 12 28  1  0  0  0  0
 13 14  2  0  0  0  0
 13 29  1  0  0  0  0
 14 30  1  0  0  0  0
 15 23  1  0  0  0  0
 15 28  2  0  0  0  0
 16 24  2  0  0  0  0
 16 26  1  0  0  0  0
 17 30  2  0  0  0  0
 17 31  1  0  0  0  0
 18 32  1  0  0  0  0
 19 32  1  0  0  0  0
 19 33  2  0  0  0  0
 19 34  1  0  0  0  0
 20 22  2  0  0  0  0
 20 39  1  0  0  0  0
 21 23  2  0  0  0  0
 21 40  1  0  0  0  0
 22 48  1  0  0  0  0
 23 41  1  0  0  0  0
 24 51  1  0  0  0  0
 25 26  2  0  0  0  0
 25 59  1  0  0  0  0
 26 60  1  0  0  0  0
 27 84  1  0  0  0  0
 28 85  1  0  0  0  0
 29 31  2  0  0  0  0
 29 84  1  0  0  0  0
 30 86  1  0  0  0  0
 31 87  1  0  0  0  0
 32 70  2  0  0  0  0
 33 71  1  0  0  0  0
 33 74  1  0  0  0  0
 34 75  1  0  0  0  0
 34 79  2  0  0  0  0
 35 49  1  0  0  0  0
 35 76  1  0  0  0  0
 35 80  2  0  0  0  0
 36 61  1  0  0  0  0
 36 73  1  0  0  0  0
 36 81  2  0  0  0  0
 37 66  1  0  0  0  0
 37 72  1  0  0  0  0
 37 82  2  0  0  0  0
 38 67  1  0  0  0  0
 38 77  1  0  0  0  0
 38 83  2  0  0  0  0
 39 42  1  0  0  0  0
 40 49  1  0  0  0  0
 41 72  1  0  0  0  0
 42 44  1  0  0  0  0
 43 45  1  0  0  0  0
 43 46  1  0  0  0  0
 44 48  1  0  0  0  0
 45 50  1  0  0  0  0
 46 73  1  0  0  0  0
 47 50  1  0  0  0  0
 47 73  1  0  0  0  0
 48 76  1  0  0  0  0
 49 72  1  0  0  0  0
 50 71  1  0  0  0  0
 52 62  1  0  0  0  0
 53 67  1  0  0  0  0
 54 68  1  0  0  0  0
 55 68  1  0  0  0  0
 56 68  1  0  0  0  0
 57 69  1  0  0  0  0
 58 78  1  0  0  0  0
 59 69  1  0  0  0  0
 60 63  1  0  0  0  0
 61 63  1  0  0  0  0
 62 69  1  0  0  0  0
 64 65  1  0  0  0  0
 64 69  1  0  0  0  0
 65 85  1  0  0  0  0
 66 68  1  0  0  0  0
 66 77  1  0  0  0  0
 67 78  1  0  0  0  0
 70 71  1  0  0  0  0
M  CHG  1  78   1
M  ISO  4  36 100  61 100  65 101  85 101
M  END
> <Batch ID>
0133

> <Smiles>
CCC(C)(Cc1ccc(C)cc1CC[100CH2:0][100C:0](=O)N1CCCC(n2nc(-c3ccc(Oc4ccc(F)cc4F)cc3)c(C(N)=O)c2N)C1)C[101CH2:1][101O:1]c1ccc2c(c1)CN(C(=O)C(NC(=O)C(C)NC)C(C)(C)C)C(C(=O)NC1CCCc3ccccc31)C2

> <Shape>
0.271

> <Color>
0.096

> <Negative vol penalty>
0.000

$$$$

  -OEChem-04052302303D

 86 94  0     1  0  0  0  0  0999 V2000
  -30.1486  -10.7681   17.7689 C   0  0  0  0  0  0  0  0  0  0  0  0
  -29.1342  -11.7167   17.8500 C   0  0  0  0  0  0  0  0  0  0  0  0
  -26.2181  -23.4939   21.9359 C   0  0  0  0  0  0  0  0  0  0  0  0
  -24.5586  -22.6000   20.4246 C   0  0  0  0  0  0  0  0  0  0  0  0
  -31.3818  -11.0149   18.3708 C   0  0  0  0  0  0  0  0  0  0  0  0
  -29.3520  -12.9122   18.5338 C   0  0  0  0  0  0  0  0  0  0  0  0
  -27.6396  -16.9439   15.9926 C   0  0  0  0  0  0  0  0  0  0  0  0
  -22.3193  -11.7681   22.3615 C   0  0  0  0  0  0  0  0  0  0  0  0
  -26.3636  -24.6120   21.1147 C   0  0  0  0  0  0  0  0  0  0  0  0
  -24.7040  -23.7181   19.6035 C   0  0  0  0  0  0  0  0  0  0  0  0
  -26.2664  -17.1825   16.0276 C   0  0  0  0  0  0  0  0  0  0  0  0
  -21.9400  -12.9855   21.7963 C   0  0  0  0  0  0  0  0  0  0  0  0
  -26.9099  -27.8727   19.6033 C   0  0  0  0  0  0  0  0  0  0  0  0
  -26.9509  -29.1256   20.2149 C   0  0  0  0  0  0  0  0  0  0  0  0
  -26.6075  -18.8609   17.7264 C   0  0  0  0  0  0  0  0  0  0  0  0
  -24.5044  -11.9805   21.3529 C   0  0  0  0  0  0  0  0  0  0  0  0
  -24.7461  -28.7513   21.1292 C   0  0  0  0  0  0  0  0  0  0  0  0
  -25.3156  -22.4878   21.5908 C   0  0  0  0  0  0  0  0  0  0  0  0
  -24.2696  -21.1773   23.5133 C   0  0  0  0  0  0  0  0  0  0  0  0
  -31.6181  -12.2182   19.0541 C   0  0  0  0  0  0  0  0  0  0  0  0
  -28.5073  -17.6555   16.8334 C   0  0  0  0  0  0  0  0  0  0  0  0
  -30.5891  -13.1747   19.1465 C   0  0  0  0  0  0  0  0  0  0  0  0
  -27.9915  -18.6312   17.6983 C   0  0  0  0  0  0  0  0  0  0  0  0
  -23.6015  -11.2655   22.1399 C   0  0  0  0  0  0  0  0  0  0  0  0
  -24.1251  -13.1980   20.7876 C   0  0  0  0  0  0  0  0  0  0  0  0
  -25.6066  -24.7241   19.9486 C   0  0  0  0  0  0  0  0  0  0  0  0
  -25.7498  -18.1390   16.8967 C   0  0  0  0  0  0  0  0  0  0  0  0
  -22.8429  -13.7005   21.0093 C   0  0  0  0  0  0  0  0  0  0  0  0
  -25.7870  -27.0591   19.7545 C   0  0  0  0  0  0  0  0  0  0  0  0
  -25.8690  -29.5649   20.9779 C   0  0  0  0  0  0  0  0  0  0  0  0
  -24.7051  -27.4984   20.5175 C   0  0  0  0  0  0  0  0  0  0  0  0
  -25.1653  -21.3323   22.4383 C   0  0  0  0  0  0  0  0  0  0  0  0
  -24.5180  -19.9123   23.9874 C   0  0  0  0  0  0  0  0  0  0  0  0
  -23.2998  -22.0946   24.0364 C   0  0  0  0  0  0  0  0  0  0  0  0
  -30.5116  -16.8688   19.1717 C   0  0  0  0  0  0  0  0  0  0  0  0
  -22.2829  -16.8155   18.2602 C   0  0  0  0  0  0  0  0  0  0  0  0
  -31.3043  -20.0107   19.0216 C   0  0  0  0  0  0  0  0  0  0  0  0
  -30.4016  -23.1887   18.1660 C   0  0  0  0  0  0  0  0  0  0  0  0
  -26.7844  -14.9816   21.4572 C   0  0  0  0  0  0  0  0  0  0  0  0
  -32.9517  -12.4199   19.7291 C   0  0  0  0  0  0  0  0  0  0  0  0
  -29.9889  -17.4052   16.7645 C   0  0  0  0  0  0  0  0  0  0  0  0
  -28.8827  -19.4367   18.6069 C   0  0  0  0  0  0  0  0  0  0  0  0
  -33.2258  -13.8712   20.1147 C   0  0  0  0  0  0  0  0  0  0  0  0
  -28.0147  -16.6662   24.3426 C   0  0  0  0  0  0  0  0  0  0  0  0
  -32.0065  -14.4813   20.7987 C   0  0  0  0  0  0  0  0  0  0  0  0
  -27.3431  -18.0391   24.2787 C   0  0  0  0  0  0  0  0  0  0  0  0
  -28.3773  -16.1501   22.9518 C   0  0  0  0  0  0  0  0  0  0  0  0
  -26.5885  -17.4993   21.9254 C   0  0  0  0  0  0  0  0  0  0  0  0
  -30.7953  -14.4942   19.8583 C   0  0  1  0  0  0  0  0  0  0  0  0
  -30.7255  -17.8251   18.0327 C   0  0  1  0  0  0  0  0  0  0  0  0
  -26.1537  -18.0365   23.2997 C   0  0  2  0  0  0  0  0  0  0  0  0
  -24.0069   -9.9645   22.7456 C   0  0  0  0  0  0  0  0  0  0  0  0
  -31.2446  -25.5521   18.1978 C   0  0  0  0  0  0  0  0  0  0  0  0
  -30.7536  -20.1642   22.0188 C   0  0  0  0  0  0  0  0  0  0  0  0
  -30.6789  -22.6577   21.8067 C   0  0  0  0  0  0  0  0  0  0  0  0
  -32.7780  -21.4239   21.2642 C   0  0  0  0  0  0  0  0  0  0  0  0
  -30.2497  -23.4054   15.2183 C   0  0  0  0  0  0  0  0  0  0  0  0
  -25.1047  -13.9507   19.9489 C   0  0  0  0  0  0  0  0  0  0  0  0
  -22.4182  -18.3325   18.2847 C   0  0  0  0  0  0  0  0  0  0  0  0
  -21.0901  -16.2541   19.0232 C   0  0  0  0  0  0  0  0  0  0  0  0
  -23.8598  -18.8054   18.1772 C   0  0  0  0  0  0  0  0  0  1  0  0
  -21.3384  -14.8599   19.5782 C   0  0  0  0  0  0  0  0  0  0  0  0
  -30.8078  -21.2715   19.6871 C   0  0  1  0  0  0  0  0  0  0  0  0
  -31.1326  -24.2690   17.3893 C   0  0  2  0  0  0  0  0  0  0  0  0
  -31.2373  -21.3629   21.1786 C   0  0  0  0  0  0  0  0  0  0  0  0
  -25.9259  -20.2523   22.2410 N   0  0  0  0  0  0  0  0  0  0  0  0
  -25.5089  -19.4065   23.1985 N   0  0  0  0  0  0  0  0  0  0  0  0
  -30.3235  -19.1509   18.5071 N   0  0  0  0  0  0  0  0  0  0  0  0
  -27.2055  -16.1718   22.0730 N   0  0  0  0  0  0  0  0  0  0  0  0
  -23.9833  -19.1946   24.9980 N   0  0  0  0  0  0  0  0  0  0  0  0
  -23.1750  -23.3523   23.4307 N   0  0  0  0  0  0  0  0  0  0  0  0
  -30.9100  -15.5736   18.9012 N   0  0  0  0  0  0  0  0  0  0  0  0
  -31.2752  -22.3800   18.8616 N   0  0  0  0  0  0  0  0  0  0  0  0
  -25.6619  -15.0888   20.6453 N   0  0  0  0  0  0  0  0  0  0  0  0
  -30.4109  -24.5738   16.1216 N   0  3  0  0  0  0  0  0  0  0  0  0
  -22.5771  -21.8135   25.0224 O   0  0  0  0  0  0  0  0  0  0  0  0
  -30.0228  -17.2762   20.2190 O   0  0  0  0  0  0  0  0  0  0  0  0
  -23.0810  -16.0938   17.6646 O   0  0  0  0  0  0  0  0  0  0  0  0
  -32.5178  -19.8000   18.9542 O   0  0  0  0  0  0  0  0  0  0  0  0
  -29.1777  -23.0761   18.1594 O   0  0  0  0  0  0  0  0  0  0  0  0
  -27.3626  -13.9022   21.6233 O   0  0  0  0  0  0  0  0  0  0  0  0
  -25.7481  -25.8152   19.1472 O   0  0  0  0  0  0  0  0  0  0  0  0
  -24.4098  -18.3734   16.9334 O   0  0  0  0  0  0  0  0  0  1  0  0
  -22.4529  -14.8940   20.4605 O   0  0  0  0  0  0  0  0  0  0  0  0
  -25.9092  -30.7674   21.5666 F   0  0  0  0  0  0  0  0  0  0  0  0
  -23.6241  -26.7208   20.6674 F   0  0  0  0  0  0  0  0  0  0  0  0
  1  2  1  0  0  0  0
  1  5  2  0  0  0  0
  2  6  2  0  0  0  0
  3  9  2  0  0  0  0
  3 18  1  0  0  0  0
  4 10  1  0  0  0  0
  4 18  2  0  0  0  0
  5 20  1  0  0  0  0
  6 22  1  0  0  0  0
  7 11  2  0  0  0  0
  7 21  1  0  0  0  0
  8 12  2  0  0  0  0
  8 24  1  0  0  0  0
  9 26  1  0  0  0  0
 10 26  2  0  0  0  0
 11 27  1  0  0  0  0
 12 28  1  0  0  0  0
 13 14  2  0  0  0  0
 13 29  1  0  0  0  0
 14 30  1  0  0  0  0
 15 23  1  0  0  0  0
 15 27  2  0  0  0  0
 16 24  2  0  0  0  0
 16 25  1  0  0  0  0
 17 30  2  0  0  0  0
 17 31  1  0  0  0  0
 18 32  1  0  0  0  0
 19 32  1  0  0  0  0
 19 33  2  0  0  0  0
 19 34  1  0  0  0  0
 20 22  2  0  0  0  0
 20 40  1  0  0  0  0
 21 23  2  0  0  0  0
 21 41  1  0  0  0  0
 22 49  1  0  0  0  0
 23 42  1  0  0  0  0
 24 52  1  0  0  0  0
 25 28  2  0  0  0  0
 25 58  1  0  0  0  0
 26 82  1  0  0  0  0
 27 83  1  0  0  0  0
 28 84  1  0  0  0  0
 29 31  2  0  0  0  0
 29 82  1  0  0  0  0
 30 85  1  0  0  0  0
 31 86  1  0  0  0  0
 32 66  2  0  0  0  0
 33 67  1  0  0  0  0
 33 70  1  0  0  0  0
 34 71  1  0  0  0  0
 34 76  2  0  0  0  0
 35 50  1  0  0  0  0
 35 72  1  0  0  0  0
 35 77  2  0  0  0  0
 36 59  1  0  0  0  0
 36 60  1  0  0  0  0
 36 78  2  0  0  0  0
 37 63  1  0  0  0  0
 37 68  1  0  0  0  0
 37 79  2  0  0  0  0
 38 64  1  0  0  0  0
 38 73  1  0  0  0  0
 38 80  2  0  0  0  0
 39 69  1  0  0  0  0
 39 74  1  0  0  0  0
 39 81  2  0  0  0  0
 40 43  1  0  0  0  0
 41 50  1  0  0  0  0
 42 68  1  0  0  0  0
 43 45  1  0  0  0  0
 44 46  1  0  0  0  0
 44 47  1  0  0  0  0
 45 49  1  0  0  0  0
 46 51  1  0  0  0  0
 47 69  1  0  0  0  0
 48 51  1  0  0  0  0
 48 69  1  0  0  0  0
 49 72  1  0  0  0  0
 50 68  1  0  0  0  0
 51 67  1  0  0  0  0
 53 64  1  0  0  0  0
 54 65  1  0  0  0  0
 55 65  1  0  0  0  0
 56 65  1  0  0  0  0
 57 75  1  0  0  0  0
 58 74  1  0  0  0  0
 59 61  1  0  0  0  0
 60 62  1  0  0  0  0
 61 83  1  0  0  0  0
 62 84  1  0  0  0  0
 63 65  1  0  0  0  0
 63 73  1  0  0  0  0
 64 75  1  0  0  0  0
 66 67  1  0  0  0  0
M  CHG  1  75   1
M  ISO  4  39 100  61 101  74 100  83 101
M  END
> <Batch ID>
0133

> <Smiles>
CNC(C)C(=O)NC(C(=O)N1Cc2cc([101O:1][101CH2:1]CC(=O)CCOc3ccc(C)cc3C[100NH:0][100C:0](=O)N3CCCC(n4nc(-c5ccc(Oc6ccc(F)cc6F)cc5)c(C(N)=O)c4N)C3)ccc2CC1C(=O)NC1CCCc2ccccc21)C(C)(C)C

> <Shape>
0.194

> <Color>
0.076

> <Negative vol penalty>
0.000

$$$$

  -OEChem-04052302303D

 92101  0     1  0  0  0  0  0999 V2000
  -22.1029  -33.9613   18.0499 C   0  0  0  0  0  0  0  0  0  0  0  0
  -21.9771  -32.8457   18.8715 C   0  0  0  0  0  0  0  0  0  0  0  0
  -27.9124  -23.1540   28.2075 C   0  0  0  0  0  0  0  0  0  0  0  0
  -26.3950  -13.1879   18.9920 C   0  0  0  0  0  0  0  0  0  0  0  0
  -26.2154  -12.9920   21.3934 C   0  0  0  0  0  0  0  0  0  0  0  0
  -22.8124  -33.8680   16.8534 C   0  0  0  0  0  0  0  0  0  0  0  0
  -22.5599  -31.6357   18.4964 C   0  0  0  0  0  0  0  0  0  0  0  0
  -28.6405  -22.8513   27.0569 C   0  0  0  0  0  0  0  0  0  0  0  0
  -24.9897  -29.3803   22.3245 C   0  0  0  0  0  0  0  0  0  0  0  0
  -26.8905  -24.1021   28.1570 C   0  0  0  0  0  0  0  0  0  0  0  0
  -25.2097  -12.4676   18.8446 C   0  0  0  0  0  0  0  0  0  0  0  0
  -25.0300  -12.2718   21.2460 C   0  0  0  0  0  0  0  0  0  0  0  0
  -24.2109  -28.7057   23.2637 C   0  0  0  0  0  0  0  0  0  0  0  0
  -24.1157   -9.1106   20.4699 C   0  0  0  0  0  0  0  0  0  0  0  0
  -23.9565   -7.9597   21.2416 C   0  0  0  0  0  0  0  0  0  0  0  0
  -27.3250  -24.4450   25.8052 C   0  0  0  0  0  0  0  0  0  0  0  0
  -24.7345  -26.6123   22.1854 C   0  0  0  0  0  0  0  0  0  0  0  0
  -21.9885   -8.9177   22.2644 C   0  0  0  0  0  0  0  0  0  0  0  0
  -26.8979  -13.4501   20.2664 C   0  0  0  0  0  0  0  0  0  0  0  0
  -29.3940  -13.8491   19.9224 C   0  0  0  0  0  0  0  0  0  0  0  0
  -28.3469  -23.4969   25.8558 C   0  0  0  0  0  0  0  0  0  0  0  0
  -23.4123  -32.6587   16.4680 C   0  0  0  0  0  0  0  0  0  0  0  0
  -25.6390  -28.6759   21.3004 C   0  0  0  0  0  0  0  0  0  0  0  0
  -23.2769  -31.5257   17.2929 C   0  0  0  0  0  0  0  0  0  0  0  0
  -25.5230  -27.2800   21.2359 C   0  0  0  0  0  0  0  0  0  0  0  0
  -26.5969  -24.7476   26.9559 C   0  0  0  0  0  0  0  0  0  0  0  0
  -24.5272  -12.0096   19.9716 C   0  0  0  0  0  0  0  0  0  0  0  0
  -24.0808  -27.3218   23.1925 C   0  0  0  0  0  0  0  0  0  0  0  0
  -23.2114  -10.1652   20.5955 C   0  0  0  0  0  0  0  0  0  0  0  0
  -22.8929   -7.8632   22.1388 C   0  0  0  0  0  0  0  0  0  0  0  0
  -22.1477  -10.0687   21.4927 C   0  0  0  0  0  0  0  0  0  0  0  0
  -28.1227  -14.1935   20.4194 C   0  0  0  0  0  0  0  0  0  0  0  0
  -30.2123  -14.8726   20.3338 C   0  0  0  0  0  0  0  0  0  0  0  0
  -28.5870  -22.0328   23.7187 C   0  0  0  0  0  0  0  0  0  0  0  0
  -27.4829  -21.3303   24.0367 C   0  0  0  0  0  0  0  0  0  0  0  0
  -29.7989  -12.7061   19.1573 C   0  0  0  0  0  0  0  0  0  0  0  0
  -28.9987  -20.5322   21.6646 C   0  0  0  0  0  0  0  0  0  0  0  0
  -25.4788  -28.6778   18.1258 C   0  0  0  0  0  0  0  0  0  0  0  0
  -27.9943  -26.6463   18.3864 C   0  0  0  0  0  0  0  0  0  0  0  0
  -30.5805  -24.8762   18.0894 C   0  0  0  0  0  0  0  0  0  0  0  0
  -24.1292  -32.5940   15.1427 C   0  0  0  0  0  0  0  0  0  0  0  0
  -26.4971  -29.4155   20.3109 C   0  0  0  0  0  0  0  0  0  0  0  0
  -26.2162  -26.4752   20.1682 C   0  0  0  0  0  0  0  0  0  0  0  0
  -25.0344  -31.3733   14.9988 C   0  0  0  0  0  0  0  0  0  0  0  0
  -31.4499  -22.7732   23.6364 C   0  0  0  0  0  0  0  0  0  0  0  0
  -30.6990  -18.1267   23.7975 C   0  0  0  0  0  0  0  0  0  0  0  0
  -30.6290  -22.9071   24.9139 C   0  0  0  0  0  0  0  0  0  0  0  0
  -24.3058  -30.1121   15.4520 C   0  0  0  0  0  0  0  0  0  0  0  0
  -30.3164  -16.8049   23.1330 C   0  0  0  0  0  0  0  0  0  0  0  0
  -30.9068  -21.6633   22.7371 C   0  0  0  0  0  0  0  0  0  0  0  0
  -29.5639  -19.1443   23.7178 C   0  0  0  0  0  0  0  0  0  0  0  0
  -28.6949  -18.0768   21.6612 C   0  0  0  0  0  0  0  0  0  0  0  0
  -29.1426  -23.1642   24.5977 C   0  0  2  0  0  0  0  0  0  0  0  0
  -23.9158  -30.2021   16.9323 C   0  0  1  0  0  0  0  0  0  0  0  0
  -26.6968  -28.6521   19.0053 C   0  0  1  0  0  0  0  0  0  0  0  0
  -29.8241  -17.0333   21.6932 C   0  0  2  0  0  0  0  0  0  0  0  0
  -29.3937  -21.7648   22.4381 C   0  0  2  0  0  0  0  0  0  0  0  0
  -29.1102  -22.9308   21.5204 C   0  0  0  0  0  0  0  0  0  0  0  0
  -25.6781  -19.6290   23.8179 C   0  0  0  0  0  0  0  0  0  0  0  0
  -20.4257  -26.2360   26.1672 C   0  0  0  0  0  0  0  0  0  0  0  0
  -31.9065  -22.9592   17.1598 C   0  0  0  0  0  0  0  0  0  0  0  0
  -25.6594  -24.8159   19.0990 C   0  0  0  0  0  0  0  0  0  0  0  0
  -27.0539  -22.8688   18.3695 C   0  0  0  0  0  0  0  0  0  0  0  0
  -26.4352  -24.6421   16.7279 C   0  0  0  0  0  0  0  0  0  0  0  0
  -32.6309  -26.6891   16.9634 C   0  0  0  0  0  0  0  0  0  0  0  0
  -25.4921  -25.7736   26.9015 C   0  0  0  0  0  0  0  0  0  0  0  0
  -26.9291  -20.2272   23.1936 C   0  0  0  0  0  0  0  0  0  0  0  0
  -21.6716  -25.3621   26.2011 C   0  0  0  0  0  0  0  0  0  0  0  0
  -24.1436  -25.1311   26.5584 C   0  0  0  0  0  0  0  0  0  0  0  0
  -23.2301  -27.2334   25.4116 C   0  0  0  0  0  0  0  0  0  1  0  0
  -28.1516  -25.1503   18.5133 C   0  0  1  0  0  0  0  0  0  0  0  0
  -31.5602  -24.4332   17.0178 C   0  0  2  0  0  0  0  0  0  0  0  0
  -22.9782  -26.1447   26.4664 C   0  0  1  0  0  0  0  0  0  0  0  0
  -26.8344  -24.3870   18.1976 C   0  0  0  0  0  0  0  0  0  0  0  0
  -28.1280  -15.3457   21.0949 N   0  0  0  0  0  0  0  0  0  0  0  0
  -29.4126  -15.7341   21.0255 N   0  0  0  0  0  0  0  0  0  0  0  0
  -29.1050  -19.3128   22.3338 N   0  0  0  0  0  0  0  0  0  0  0  0
  -27.0388  -27.2446   19.2201 N   0  0  0  0  0  0  0  0  0  0  0  0
  -31.5307  -15.1106   20.1678 N   0  0  0  0  0  0  0  0  0  0  0  0
  -30.2290  -11.5617   19.8425 N   0  0  0  0  0  0  0  0  0  0  0  0
  -25.0654  -29.9486   17.7742 N   0  0  0  0  0  0  0  0  0  0  0  0
  -29.2745  -24.7839   17.6570 N   0  0  0  0  0  0  0  0  0  0  0  0
  -32.8207  -25.2230   17.1098 N   0  3  0  0  0  0  0  0  0  0  0  0
  -29.7955  -12.7056   17.9029 O   0  0  0  0  0  0  0  0  0  0  0  0
  -28.6101  -20.6513   20.4997 O   0  0  0  0  0  0  0  0  0  0  0  0
  -24.9538  -27.6227   17.7899 O   0  0  0  0  0  0  0  0  0  0  0  0
  -28.6984  -27.2624   17.5825 O   0  0  0  0  0  0  0  0  0  0  0  0
  -30.9378  -25.2618   19.2003 O   0  0  0  0  0  0  0  0  0  0  0  0
  -23.3703  -11.3069   19.8281 O   0  0  0  0  0  0  0  0  0  0  0  0
  -23.3207  -26.6610   24.1076 O   0  0  0  0  0  0  0  0  0  1  0  0
  -22.7393   -6.7572   22.8787 F   0  0  0  0  0  0  0  0  0  0  0  0
  -21.2750  -11.0780   21.6169 F   0  0  0  0  0  0  0  0  0  0  0  0
  1  2  1  0  0  0  0
  1  6  2  0  0  0  0
  2  7  2  0  0  0  0
  3  8  2  0  0  0  0
  3 10  1  0  0  0  0
  4 11  2  0  0  0  0
  4 19  1  0  0  0  0
  5 12  1  0  0  0  0
  5 19  2  0  0  0  0
  6 22  1  0  0  0  0
  7 24  1  0  0  0  0
  8 21  1  0  0  0  0
  9 13  2  0  0  0  0
  9 23  1  0  0  0  0
 10 26  2  0  0  0  0
 11 27  1  0  0  0  0
 12 27  2  0  0  0  0
 13 28  1  0  0  0  0
 14 15  2  0  0  0  0
 14 29  1  0  0  0  0
 15 30  1  0  0  0  0
 16 21  2  0  0  0  0
 16 26  1  0  0  0  0
 17 25  1  0  0  0  0
 17 28  2  0  0  0  0
 18 30  2  0  0  0  0
 18 31  1  0  0  0  0
 19 32  1  0  0  0  0
 20 32  1  0  0  0  0
 20 33  2  0  0  0  0
 20 36  1  0  0  0  0
 21 53  1  0  0  0  0
 22 24  2  0  0  0  0
 22 41  1  0  0  0  0
 23 25  2  0  0  0  0
 23 42  1  0  0  0  0
 24 54  1  0  0  0  0
 25 43  1  0  0  0  0
 26 66  1  0  0  0  0
 27 89  1  0  0  0  0
 28 90  1  0  0  0  0
 29 31  2  0  0  0  0
 29 89  1  0  0  0  0
 30 91  1  0  0  0  0
 31 92  1  0  0  0  0
 32 75  2  0  0  0  0
 33 76  1  0  0  0  0
 33 79  1  0  0  0  0
 34 35  2  0  0  0  0
 34 53  1  0  0  0  0
 34 57  1  0  0  0  0
 35 67  1  0  0  0  0
 36 80  1  0  0  0  0
 36 84  2  0  0  0  0
 37 57  1  0  0  0  0
 37 77  1  0  0  0  0
 37 85  2  0  0  0  0
 38 55  1  0  0  0  0
 38 81  1  0  0  0  0
 38 86  2  0  0  0  0
 39 71  1  0  0  0  0
 39 78  1  0  0  0  0
 39 87  2  0  0  0  0
 40 72  1  0  0  0  0
 40 82  1  0  0  0  0
 40 88  2  0  0  0  0
 41 44  1  0  0  0  0
 42 55  1  0  0  0  0
 43 78  1  0  0  0  0
 44 48  1  0  0  0  0
 45 47  1  0  0  0  0
 45 50  1  0  0  0  0
 46 49  1  0  0  0  0
 46 51  1  0  0  0  0
 47 53  1  0  0  0  0
 48 54  1  0  0  0  0
 49 56  1  0  0  0  0
 50 57  1  0  0  0  0
 51 77  1  0  0  0  0
 52 56  1  0  0  0  0
 52 77  1  0  0  0  0
 54 81  1  0  0  0  0
 55 78  1  0  0  0  0
 56 76  1  0  0  0  0
 57 58  1  0  0  0  0
 59 67  1  0  0  0  0
 60 68  1  0  0  0  0
 61 72  1  0  0  0  0
 62 74  1  0  0  0  0
 63 74  1  0  0  0  0
 64 74  1  0  0  0  0
 65 83  1  0  0  0  0
 66 69  1  0  0  0  0
 68 73  1  0  0  0  0
 69 73  1  0  0  0  0
 70 73  1  0  0  0  0
 70 90  1  0  0  0  0
 71 74  1  0  0  0  0
 71 82  1  0  0  0  0
 72 83  1  0  0  0  0
 75 76  1  0  0  0  0
M  CHG  1  83   1
M  ISO  4  37 100  57 100  70 101  90 101
M  END
> <Batch ID>
0133

> <Smiles>
CCC=C1C(c2cccc(CCC(CC)[101CH2:1][101O:1]c3ccc4c(c3)CN(C(=O)C(NC(=O)C(C)NC)C(C)(C)C)C(C(=O)NC3CCCc5ccccc53)C4)c2)CCC[100C:0]1(C)[100C:0](=O)N1CCCC(n2nc(-c3ccc(Oc4ccc(F)cc4F)cc3)c(C(N)=O)c2N)C1

> <Shape>
0.206

> <Color>
0.085

> <Negative vol penalty>
0.000

$$$$

  -OEChem-04052302303D

 82 90  0     1  0  0  0  0  0999 V2000
  -29.8650  -23.7085   23.9423 C   0  0  0  0  0  0  0  0  0  0  0  0
  -28.5135  -23.5609   23.6471 C   0  0  0  0  0  0  0  0  0  0  0  0
  -17.1880  -28.1392   24.6647 C   0  0  0  0  0  0  0  0  0  0  0  0
  -29.5719  -27.8746   19.4361 C   0  0  0  0  0  0  0  0  0  0  0  0
  -28.2437  -25.9023   19.8639 C   0  0  0  0  0  0  0  0  0  0  0  0
  -30.8111  -22.9262   23.2814 C   0  0  0  0  0  0  0  0  0  0  0  0
  -28.1074  -22.6317   22.6900 C   0  0  0  0  0  0  0  0  0  0  0  0
  -24.1126  -19.9090   24.1979 C   0  0  0  0  0  0  0  0  0  0  0  0
  -17.3159  -26.8258   24.2127 C   0  0  0  0  0  0  0  0  0  0  0  0
  -17.9196  -29.1600   24.0578 C   0  0  0  0  0  0  0  0  0  0  0  0
  -30.7186  -27.0847   19.3541 C   0  0  0  0  0  0  0  0  0  0  0  0
  -29.3904  -25.1123   19.7819 C   0  0  0  0  0  0  0  0  0  0  0  0
  -22.8616  -20.5200   24.1250 C   0  0  0  0  0  0  0  0  0  0  0  0
  -33.9413  -25.5463   18.6740 C   0  0  0  0  0  0  0  0  0  0  0  0
  -34.8257  -25.7940   17.6243 C   0  0  0  0  0  0  0  0  0  0  0  0
  -22.4158  -19.3476   22.0644 C   0  0  0  0  0  0  0  0  0  0  0  0
  -18.9073  -27.5541   22.5471 C   0  0  0  0  0  0  0  0  0  0  0  0
  -33.0748  -25.3038   16.0333 C   0  0  0  0  0  0  0  0  0  0  0  0
  -28.3345  -27.2834   19.6911 C   0  0  0  0  0  0  0  0  0  0  0  0
  -26.2841  -28.4535   18.7245 C   0  0  0  0  0  0  0  0  0  0  0  0
  -30.4157  -21.9800   22.3227 C   0  0  0  0  0  0  0  0  0  0  0  0
  -24.5298  -19.0196   23.1972 C   0  0  0  0  0  0  0  0  0  0  0  0
  -29.0493  -21.8369   22.0147 C   0  0  0  0  0  0  0  0  0  0  0  0
  -23.6716  -18.7247   22.1283 C   0  0  0  0  0  0  0  0  0  0  0  0
  -18.1756  -26.5332   23.1540 C   0  0  0  0  0  0  0  0  0  0  0  0
  -18.7793  -28.8675   22.9991 C   0  0  0  0  0  0  0  0  0  0  0  0
  -30.6279  -25.7035   19.5269 C   0  0  0  0  0  0  0  0  0  0  0  0
  -22.0141  -20.2416   23.0567 C   0  0  0  0  0  0  0  0  0  0  0  0
  -32.6236  -25.1772   18.4034 C   0  0  0  0  0  0  0  0  0  0  0  0
  -34.3925  -25.6728   16.3039 C   0  0  0  0  0  0  0  0  0  0  0  0
  -32.1903  -25.0560   17.0831 C   0  0  0  0  0  0  0  0  0  0  0  0
  -27.1497  -28.0990   19.7765 C   0  0  0  0  0  0  0  0  0  0  0  0
  -25.3205  -29.2305   19.3197 C   0  0  0  0  0  0  0  0  0  0  0  0
  -26.3454  -28.1110   17.3336 C   0  0  0  0  0  0  0  0  0  0  0  0
  -26.9115  -18.9676   21.0928 C   0  0  0  0  0  0  0  0  0  0  0  0
  -25.7722  -15.9964   20.4633 C   0  0  0  0  0  0  0  0  0  0  0  0
  -23.1368  -13.8292   20.5327 C   0  0  0  0  0  0  0  0  0  0  0  0
  -21.7498  -30.2056   23.4964 C   0  0  0  0  0  0  0  0  0  0  0  0
  -31.4786  -21.1906   21.6004 C   0  0  0  0  0  0  0  0  0  0  0  0
  -25.8715  -18.3483   23.3044 C   0  0  0  0  0  0  0  0  0  0  0  0
  -24.0638  -17.7616   21.0388 C   0  0  0  0  0  0  0  0  0  0  0  0
  -30.9360  -19.9651   20.8695 C   0  0  0  0  0  0  0  0  0  0  0  0
  -25.1214  -31.2557   23.9507 C   0  0  0  0  0  0  0  0  0  0  0  0
  -29.6856  -20.3278   20.0748 C   0  0  0  0  0  0  0  0  0  0  0  0
  -25.8786  -30.5525   22.8227 C   0  0  0  0  0  0  0  0  0  0  0  0
  -24.0029  -30.3799   24.5111 C   0  0  0  0  0  0  0  0  0  0  0  0
  -23.8126  -29.1629   22.3765 C   0  0  0  0  0  0  0  0  0  0  0  0
  -28.5676  -20.8223   21.0005 C   0  0  1  0  0  0  0  0  0  0  0  0
  -26.4009  -17.8533   21.9620 C   0  0  1  0  0  0  0  0  0  0  0  0
  -24.9143  -30.0285   21.7416 C   0  0  2  0  0  0  0  0  0  0  0  0
  -22.5000  -11.4817   19.9152 C   0  0  0  0  0  0  0  0  0  0  0  0
  -25.6237  -16.8117   17.5267 C   0  0  0  0  0  0  0  0  0  0  0  0
  -24.1328  -14.8405   17.1269 C   0  0  0  0  0  0  0  0  0  0  0  0
  -26.4708  -14.4924   17.9240 C   0  0  0  0  0  0  0  0  0  0  0  0
  -22.5097  -13.1371   23.3410 C   0  0  0  0  0  0  0  0  0  0  0  0
  -18.3123  -25.1133   22.6650 C   0  0  0  0  0  0  0  0  0  0  0  0
  -19.5622  -29.9590   22.3507 C   0  0  0  0  0  0  0  0  0  0  0  0
  -19.4161  -24.3187   23.3716 C   0  0  0  0  0  0  0  0  0  0  0  0
  -19.5908  -22.9071   22.8097 C   0  0  0  0  0  0  0  0  0  0  0  0
  -20.6670  -22.1355   23.5613 C   0  0  0  0  0  0  0  0  0  1  0  0
  -24.7436  -15.4239   19.5181 C   0  0  1  0  0  0  0  0  0  0  0  0
  -23.0257  -12.3935   21.0130 C   0  0  2  0  0  0  0  0  0  0  0  0
  -25.2358  -15.4118   18.0433 C   0  0  0  0  0  0  0  0  0  0  0  0
  -26.7697  -28.6090   20.9510 N   0  0  0  0  0  0  0  0  0  0  0  0
  -25.6547  -29.2920   20.6406 N   0  0  0  0  0  0  0  0  0  0  0  0
  -25.3883  -17.1355   21.1850 N   0  0  0  0  0  0  0  0  0  0  0  0
  -23.1232  -29.9172   23.4350 N   0  0  0  0  0  0  0  0  0  0  0  0
  -24.2284  -29.8603   18.8369 N   0  0  0  0  0  0  0  0  0  0  0  0
  -27.4021  -27.3041   16.8901 N   0  0  0  0  0  0  0  0  0  0  0  0
  -27.9303  -19.7054   21.6647 N   0  0  0  0  0  0  0  0  0  0  0  0
  -24.3951  -14.1079   20.0425 N   0  0  0  0  0  0  0  0  0  0  0  0
  -20.9885  -29.7361   22.4331 N   0  0  0  0  0  0  0  0  0  0  0  0
  -22.1010  -12.3072   22.1785 N   0  3  0  0  0  0  0  0  0  0  0  0
  -25.4977  -28.5223   16.5055 O   0  0  0  0  0  0  0  0  0  0  0  0
  -26.4186  -19.1440   19.9848 O   0  0  0  0  0  0  0  0  0  0  0  0
  -26.8730  -15.4488   20.5630 O   0  0  0  0  0  0  0  0  0  0  0  0
  -22.1998  -14.6230   20.5835 O   0  0  0  0  0  0  0  0  0  0  0  0
  -21.2408  -30.8394   24.4271 O   0  0  0  0  0  0  0  0  0  0  0  0
  -31.7465  -24.9324   19.4467 O   0  0  0  0  0  0  0  0  0  0  0  0
  -20.7927  -20.8371   22.9828 O   0  0  0  0  0  0  0  0  0  1  0  0
  -35.2415  -25.9122   15.2960 F   0  0  0  0  0  0  0  0  0  0  0  0
  -30.9253  -24.7029   16.8170 F   0  0  0  0  0  0  0  0  0  0  0  0
  1  2  1  0  0  0  0
  1  6  2  0  0  0  0
  2  7  2  0  0  0  0
  3  9  2  0  0  0  0
  3 10  1  0  0  0  0
  4 11  2  0  0  0  0
  4 19  1  0  0  0  0
  5 12  1  0  0  0  0
  5 19  2  0  0  0  0
  6 21  1  0  0  0  0
  7 23  1  0  0  0  0
  8 13  2  0  0  0  0
  8 22  1  0  0  0  0
  9 25  1  0  0  0  0
 10 26  2  0  0  0  0
 11 27  1  0  0  0  0
 12 27  2  0  0  0  0
 13 28  1  0  0  0  0
 14 15  2  0  0  0  0
 14 29  1  0  0  0  0
 15 30  1  0  0  0  0
 16 24  1  0  0  0  0
 16 28  2  0  0  0  0
 17 25  2  0  0  0  0
 17 26  1  0  0  0  0
 18 30  2  0  0  0  0
 18 31  1  0  0  0  0
 19 32  1  0  0  0  0
 20 32  1  0  0  0  0
 20 33  2  0  0  0  0
 20 34  1  0  0  0  0
 21 23  2  0  0  0  0
 21 39  1  0  0  0  0
 22 24  2  0  0  0  0
 22 40  1  0  0  0  0
 23 48  1  0  0  0  0
 24 41  1  0  0  0  0
 25 56  1  0  0  0  0
 26 57  1  0  0  0  0
 27 79  1  0  0  0  0
 28 80  1  0  0  0  0
 29 31  2  0  0  0  0
 29 79  1  0  0  0  0
 30 81  1  0  0  0  0
 31 82  1  0  0  0  0
 32 64  2  0  0  0  0
 33 65  1  0  0  0  0
 33 68  1  0  0  0  0
 34 69  1  0  0  0  0
 34 74  2  0  0  0  0
 35 49  1  0  0  0  0
 35 70  1  0  0  0  0
 35 75  2  0  0  0  0
 36 61  1  0  0  0  0
 36 66  1  0  0  0  0
 36 76  2  0  0  0  0
 37 62  1  0  0  0  0
 37 71  1  0  0  0  0
 37 77  2  0  0  0  0
 38 67  1  0  0  0  0
 38 72  1  0  0  0  0
 38 78  2  0  0  0  0
 39 42  1  0  0  0  0
 40 49  1  0  0  0  0
 41 66  1  0  0  0  0
 42 44  1  0  0  0  0
 43 45  1  0  0  0  0
 43 46  1  0  0  0  0
 44 48  1  0  0  0  0
 45 50  1  0  0  0  0
 46 67  1  0  0  0  0
 47 50  1  0  0  0  0
 47 67  1  0  0  0  0
 48 70  1  0  0  0  0
 49 66  1  0  0  0  0
 50 65  1  0  0  0  0
 51 62  1  0  0  0  0
 52 63  1  0  0  0  0
 53 63  1  0  0  0  0
 54 63  1  0  0  0  0
 55 73  1  0  0  0  0
 56 58  1  0  0  0  0
 57 72  1  0  0  0  0
 58 59  1  0  0  0  0
 59 60  1  0  0  0  0
 60 80  1  0  0  0  0
 61 63  1  0  0  0  0
 61 71  1  0  0  0  0
 62 73  1  0  0  0  0
 64 65  1  0  0  0  0
M  CHG  1  73   1
M  ISO  4  38 100  60 101  72 100  80 101
M  END
> <Batch ID>
0133

> <Smiles>
CNC(C)C(=O)NC(C(=O)N1Cc2cc([101O:1][101CH2:1]CCCc3cccc(C[100NH:0][100C:0](=O)N4CCCC(n5nc(-c6ccc(Oc7ccc(F)cc7F)cc6)c(C(N)=O)c5N)C4)c3)ccc2CC1C(=O)NC1CCCc2ccccc21)C(C)(C)C

> <Shape>
0.208

> <Color>
0.077

> <Negative vol penalty>
0.000

$$$$

  -OEChem-04052302303D

 86 94  0     1  0  0  0  0  0999 V2000
  -19.4137   -9.7863   22.0335 C   0  0  0  0  0  0  0  0  0  0  0  0
  -19.9522  -10.8110   22.8050 C   0  0  0  0  0  0  0  0  0  0  0  0
  -18.9809  -27.2906   21.6283 C   0  0  0  0  0  0  0  0  0  0  0  0
  -30.2311  -26.0246   20.4466 C   0  0  0  0  0  0  0  0  0  0  0  0
  -28.1938  -24.7277   20.5133 C   0  0  0  0  0  0  0  0  0  0  0  0
  -20.2467   -9.0086   21.2301 C   0  0  0  0  0  0  0  0  0  0  0  0
  -21.3243  -11.0580   22.7745 C   0  0  0  0  0  0  0  0  0  0  0  0
  -22.4023  -15.9925   22.4096 C   0  0  0  0  0  0  0  0  0  0  0  0
  -19.7912  -28.4091   21.8229 C   0  0  0  0  0  0  0  0  0  0  0  0
  -18.9166  -26.2974   22.6057 C   0  0  0  0  0  0  0  0  0  0  0  0
  -30.9495  -24.9197   20.9032 C   0  0  0  0  0  0  0  0  0  0  0  0
  -28.9122  -23.6227   20.9698 C   0  0  0  0  0  0  0  0  0  0  0  0
  -22.2983  -16.7547   23.5724 C   0  0  0  0  0  0  0  0  0  0  0  0
  -32.1996  -22.0551   19.6131 C   0  0  0  0  0  0  0  0  0  0  0  0
  -33.4031  -21.7556   18.9749 C   0  0  0  0  0  0  0  0  0  0  0  0
  -24.6902  -16.6315   23.8599 C   0  0  0  0  0  0  0  0  0  0  0  0
  -20.4731  -27.5413   23.9721 C   0  0  0  0  0  0  0  0  0  0  0  0
  -34.5810  -22.0336   21.0659 C   0  0  0  0  0  0  0  0  0  0  0  0
  -28.8532  -25.9287   20.2517 C   0  0  0  0  0  0  0  0  0  0  0  0
  -27.8447  -27.4181   18.4428 C   0  0  0  0  0  0  0  0  0  0  0  0
  -21.6283   -9.2524   21.1824 C   0  0  0  0  0  0  0  0  0  0  0  0
  -23.6520  -15.5341   21.9684 C   0  0  0  0  0  0  0  0  0  0  0  0
  -22.1767  -10.2820   21.9708 C   0  0  0  0  0  0  0  0  0  0  0  0
  -24.8077  -15.8658   22.6898 C   0  0  0  0  0  0  0  0  0  0  0  0
  -20.5373  -28.5345   22.9947 C   0  0  0  0  0  0  0  0  0  0  0  0
  -19.6628  -26.4228   23.7775 C   0  0  0  0  0  0  0  0  0  0  0  0
  -30.2901  -23.7187   21.1647 C   0  0  0  0  0  0  0  0  0  0  0  0
  -23.4420  -17.0718   24.2993 C   0  0  0  0  0  0  0  0  0  0  0  0
  -32.1867  -22.3438   20.9777 C   0  0  0  0  0  0  0  0  0  0  0  0
  -34.5939  -21.7448   19.7013 C   0  0  0  0  0  0  0  0  0  0  0  0
  -33.3774  -22.3330   21.7041 C   0  0  0  0  0  0  0  0  0  0  0  0
  -28.1104  -27.0700   19.7807 C   0  0  0  0  0  0  0  0  0  0  0  0
  -27.1099  -28.5753   18.5285 C   0  0  0  0  0  0  0  0  0  0  0  0
  -28.2279  -26.7547   17.2308 C   0  0  0  0  0  0  0  0  0  0  0  0
  -24.9550  -12.6725   21.5027 C   0  0  0  0  0  0  0  0  0  0  0  0
  -22.6570  -19.9420   26.3704 C   0  0  0  0  0  0  0  0  0  0  0  0
  -23.6417  -30.8117   22.8968 C   0  0  0  0  0  0  0  0  0  0  0  0
  -27.4026  -14.4168   20.2824 C   0  0  0  0  0  0  0  0  0  0  0  0
  -29.0631  -17.3962   20.1705 C   0  0  0  0  0  0  0  0  0  0  0  0
  -22.4950   -8.3548   20.3351 C   0  0  0  0  0  0  0  0  0  0  0  0
  -23.7503  -14.7356   20.6976 C   0  0  0  0  0  0  0  0  0  0  0  0
  -26.1752  -15.4153   22.2476 C   0  0  0  0  0  0  0  0  0  0  0  0
  -23.8872   -8.9233   20.0727 C   0  0  0  0  0  0  0  0  0  0  0  0
  -26.4394  -32.3966   21.3154 C   0  0  0  0  0  0  0  0  0  0  0  0
  -24.4992   -9.4545   21.3650 C   0  0  0  0  0  0  0  0  0  0  0  0
  -27.1764  -31.2380   20.6448 C   0  0  0  0  0  0  0  0  0  0  0  0
  -25.8119  -31.9683   22.6382 C   0  0  0  0  0  0  0  0  0  0  0  0
  -25.6378  -29.6278   21.8550 C   0  0  0  0  0  0  0  0  0  0  0  0
  -23.6567  -10.5967   21.9457 C   0  0  1  0  0  0  0  0  0  0  0  0
  -25.0162  -13.8877   20.6211 C   0  0  1  0  0  0  0  0  0  0  0  0
  -26.2605  -30.0097   20.5005 C   0  0  2  0  0  0  0  0  0  0  0  0
  -31.0489  -18.5061   19.1110 C   0  0  0  0  0  0  0  0  0  0  0  0
  -29.2535  -12.9270   22.1967 C   0  0  0  0  0  0  0  0  0  0  0  0
  -30.9820  -14.6916   21.7882 C   0  0  0  0  0  0  0  0  0  0  0  0
  -30.1839  -13.2693   19.9007 C   0  0  0  0  0  0  0  0  0  0  0  0
  -27.3652  -19.4158   18.8299 C   0  0  0  0  0  0  0  0  0  0  0  0
  -21.4024  -29.7315   23.2026 C   0  0  0  0  0  0  0  0  0  0  0  0
  -19.5938  -25.3492   24.8333 C   0  0  0  0  0  0  0  0  0  0  0  0
  -21.5876  -21.0110   26.5336 C   0  0  0  0  0  0  0  0  0  0  0  0
  -22.2750  -18.7589   25.5027 C   0  0  0  0  0  0  0  0  0  1  0  0
  -22.8335  -29.5574   22.6787 C   0  0  0  0  0  0  0  0  0  0  0  0
  -20.6532  -24.2677   24.6103 C   0  0  0  0  0  0  0  0  0  0  0  0
  -21.6389  -22.1048   25.4682 C   0  0  0  0  0  0  0  0  0  0  0  0
  -20.5968  -23.2019   25.7066 C   0  0  0  0  0  0  0  0  0  0  0  0
  -28.6535  -15.0450   20.8476 C   0  0  1  0  0  0  0  0  0  0  0  0
  -29.5571  -18.2308   19.0026 C   0  0  2  0  0  0  0  0  0  0  0  0
  -29.7424  -13.9902   21.1929 C   0  0  0  0  0  0  0  0  0  0  0  0
  -27.5870  -27.9360   20.6525 N   0  0  0  0  0  0  0  0  0  0  0  0
  -26.9852  -28.8398   19.8607 N   0  0  0  0  0  0  0  0  0  0  0  0
  -26.2186  -14.6315   21.0021 N   0  0  0  0  0  0  0  0  0  0  0  0
  -24.9672  -30.7854   22.4629 N   0  0  0  0  0  0  0  0  0  0  0  0
  -26.5647  -29.3822   17.5936 N   0  0  0  0  0  0  0  0  0  0  0  0
  -28.9817  -25.5768   17.3235 N   0  0  0  0  0  0  0  0  0  0  0  0
  -23.9012  -11.8246   21.2198 N   0  0  0  0  0  0  0  0  0  0  0  0
  -29.0799  -16.0487   19.8785 N   0  0  0  0  0  0  0  0  0  0  0  0
  -28.8402  -19.5366   18.9592 N   0  3  0  0  0  0  0  0  0  0  0  0
  -27.9251  -27.2024   16.0988 O   0  0  0  0  0  0  0  0  0  0  0  0
  -25.8021  -12.5150   22.3742 O   0  0  0  0  0  0  0  0  0  0  0  0
  -23.7534  -20.0113   26.9235 O   0  0  0  0  0  0  0  0  0  0  0  0
  -23.1082  -31.7857   23.4343 O   0  0  0  0  0  0  0  0  0  0  0  0
  -27.4721  -13.7658   19.2370 O   0  0  0  0  0  0  0  0  0  0  0  0
  -28.7022  -17.8900   21.2365 O   0  0  0  0  0  0  0  0  0  0  0  0
  -30.9908  -22.6401   21.6100 O   0  0  0  0  0  0  0  0  0  0  0  0
  -23.3432  -17.8151   25.4350 O   0  0  0  0  0  0  0  0  0  1  0  0
  -35.7494  -21.4558   19.0886 F   0  0  0  0  0  0  0  0  0  0  0  0
  -33.3712  -22.6085   23.0156 F   0  0  0  0  0  0  0  0  0  0  0  0
  1  2  1  0  0  0  0
  1  6  2  0  0  0  0
  2  7  2  0  0  0  0
  3  9  1  0  0  0  0
  3 10  2  0  0  0  0
  4 11  2  0  0  0  0
  4 19  1  0  0  0  0
  5 12  1  0  0  0  0
  5 19  2  0  0  0  0
  6 21  1  0  0  0  0
  7 23  1  0  0  0  0
  8 13  2  0  0  0  0
  8 22  1  0  0  0  0
  9 25  2  0  0  0  0
 10 26  1  0  0  0  0
 11 27  1  0  0  0  0
 12 27  2  0  0  0  0
 13 28  1  0  0  0  0
 14 15  2  0  0  0  0
 14 29  1  0  0  0  0
 15 30  1  0  0  0  0
 16 24  1  0  0  0  0
 16 28  2  0  0  0  0
 17 25  1  0  0  0  0
 17 26  2  0  0  0  0
 18 30  2  0  0  0  0
 18 31  1  0  0  0  0
 19 32  1  0  0  0  0
 20 32  1  0  0  0  0
 20 33  2  0  0  0  0
 20 34  1  0  0  0  0
 21 23  2  0  0  0  0
 21 40  1  0  0  0  0
 22 24  2  0  0  0  0
 22 41  1  0  0  0  0
 23 49  1  0  0  0  0
 24 42  1  0  0  0  0
 25 57  1  0  0  0  0
 26 58  1  0  0  0  0
 27 83  1  0  0  0  0
 28 84  1  0  0  0  0
 29 31  2  0  0  0  0
 29 83  1  0  0  0  0
 30 85  1  0  0  0  0
 31 86  1  0  0  0  0
 32 68  2  0  0  0  0
 33 69  1  0  0  0  0
 33 72  1  0  0  0  0
 34 73  1  0  0  0  0
 34 77  2  0  0  0  0
 35 50  1  0  0  0  0
 35 74  1  0  0  0  0
 35 78  2  0  0  0  0
 36 59  1  0  0  0  0
 36 60  1  0  0  0  0
 36 79  2  0  0  0  0
 37 61  1  0  0  0  0
 37 71  1  0  0  0  0
 37 80  2  0  0  0  0
 38 65  1  0  0  0  0
 38 70  1  0  0  0  0
 38 81  2  0  0  0  0
 39 66  1  0  0  0  0
 39 75  1  0  0  0  0
 39 82  2  0  0  0  0
 40 43  1  0  0  0  0
 41 50  1  0  0  0  0
 42 70  1  0  0  0  0
 43 45  1  0  0  0  0
 44 46  1  0  0  0  0
 44 47  1  0  0  0  0
 45 49  1  0  0  0  0
 46 51  1  0  0  0  0
 47 71  1  0  0  0  0
 48 51  1  0  0  0  0
 48 71  1  0  0  0  0
 49 74  1  0  0  0  0
 50 70  1  0  0  0  0
 51 69  1  0  0  0  0
 52 66  1  0  0  0  0
 53 67  1  0  0  0  0
 54 67  1  0  0  0  0
 55 67  1  0  0  0  0
 56 76  1  0  0  0  0
 57 61  1  0  0  0  0
 58 62  1  0  0  0  0
 59 63  1  0  0  0  0
 60 84  1  0  0  0  0
 62 64  1  0  0  0  0
 63 64  1  0  0  0  0
 65 67  1  0  0  0  0
 65 75  1  0  0  0  0
 66 76  1  0  0  0  0
 68 69  1  0  0  0  0
M  CHG  1  76   1
M  ISO  4  37 100  60 101  61 100  84 101
M  END
> <Batch ID>
0133

> <Smiles>
CNC(C)C(=O)NC(C(=O)N1Cc2cc([101O:1][101CH2:1]C(=O)CCCCCc3cccc(C[100CH2:0][100C:0](=O)N4CCCC(n5nc(-c6ccc(Oc7ccc(F)cc7F)cc6)c(C(N)=O)c5N)C4)c3)ccc2CC1C(=O)NC1CCCc2ccccc21)C(C)(C)C

> <Shape>
0.262

> <Color>
0.050

> <Negative vol penalty>
0.000

$$$$

  -OEChem-04052302303D

 87 96  0     1  0  0  0  0  0999 V2000
  -20.9514  -16.2624   34.6184 C   0  0  0  0  0  0  0  0  0  0  0  0
  -21.8363  -15.5079   33.8548 C   0  0  0  0  0  0  0  0  0  0  0  0
  -23.1415  -10.1869   22.1025 C   0  0  0  0  0  0  0  0  0  0  0  0
  -23.7828   -9.4716   19.8857 C   0  0  0  0  0  0  0  0  0  0  0  0
  -20.8497  -17.6372   34.4099 C   0  0  0  0  0  0  0  0  0  0  0  0
  -22.6192  -16.1276   32.8814 C   0  0  0  0  0  0  0  0  0  0  0  0
  -29.8097  -15.7667   33.1228 C   0  0  0  0  0  0  0  0  0  0  0  0
  -33.5005  -13.5488   25.0034 C   0  0  0  0  0  0  0  0  0  0  0  0
  -32.7465  -13.3261   23.8513 C   0  0  0  0  0  0  0  0  0  0  0  0
  -22.4018   -9.0159   22.2665 C   0  0  0  0  0  0  0  0  0  0  0  0
  -23.0431   -8.3004   20.0497 C   0  0  0  0  0  0  0  0  0  0  0  0
  -31.1830  -15.5661   32.9820 C   0  0  0  0  0  0  0  0  0  0  0  0
  -23.0050   -5.7707   22.9999 C   0  0  0  0  0  0  0  0  0  0  0  0
  -23.1342   -5.0862   24.2084 C   0  0  0  0  0  0  0  0  0  0  0  0
  -31.2043  -17.0026   31.0368 C   0  0  0  0  0  0  0  0  0  0  0  0
  -30.8022  -12.8718   25.2117 C   0  0  0  0  0  0  0  0  0  0  0  0
  -20.7690   -5.3619   24.6174 C   0  0  0  0  0  0  0  0  0  0  0  0
  -23.8320  -10.4148   20.9121 C   0  0  0  0  0  0  0  0  0  0  0  0
  -24.1150  -12.9470   20.7869 C   0  0  0  0  0  0  0  0  0  0  0  0
  -21.6387  -18.2756   33.4401 C   0  0  0  0  0  0  0  0  0  0  0  0
  -29.1304  -16.5994   32.2291 C   0  0  0  0  0  0  0  0  0  0  0  0
  -22.5270  -17.5120   32.6589 C   0  0  0  0  0  0  0  0  0  0  0  0
  -29.8310  -17.2173   31.1802 C   0  0  0  0  0  0  0  0  0  0  0  0
  -31.5563  -13.0944   26.3638 C   0  0  0  0  0  0  0  0  0  0  0  0
  -32.9055  -13.4329   26.2597 C   0  0  0  0  0  0  0  0  0  0  0  0
  -31.3973  -12.9876   23.9554 C   0  0  0  0  0  0  0  0  0  0  0  0
  -22.3525   -8.0726   21.2401 C   0  0  0  0  0  0  0  0  0  0  0  0
  -31.8785  -16.1823   31.9414 C   0  0  0  0  0  0  0  0  0  0  0  0
  -21.7578   -6.2509   22.6002 C   0  0  0  0  0  0  0  0  0  0  0  0
  -22.0162   -4.8817   25.0171 C   0  0  0  0  0  0  0  0  0  0  0  0
  -20.6399   -6.0464   23.4090 C   0  0  0  0  0  0  0  0  0  0  0  0
  -24.5958  -11.6247   20.7419 C   0  0  0  0  0  0  0  0  0  0  0  0
  -25.2264  -13.7240   20.5688 C   0  0  0  0  0  0  0  0  0  0  0  0
  -34.6586  -14.1979   29.9881 C   0  0  0  0  0  0  0  0  0  0  0  0
  -34.7369  -15.1743   29.0570 C   0  0  0  0  0  0  0  0  0  0  0  0
  -22.7830  -13.4298   21.0064 C   0  0  0  0  0  0  0  0  0  0  0  0
  -25.8668  -18.1442   31.2101 C   0  0  0  0  0  0  0  0  0  0  0  0
  -28.0184  -20.3050   30.8755 C   0  0  0  0  0  0  0  0  0  0  0  0
  -29.7694  -23.2258   30.6755 C   0  0  0  0  0  0  0  0  0  0  0  0
  -31.0675  -12.8365   21.4625 C   0  0  0  0  0  0  0  0  0  0  0  0
  -21.4596  -19.7567   33.2185 C   0  0  0  0  0  0  0  0  0  0  0  0
  -27.6406  -16.7953   32.3059 C   0  0  0  0  0  0  0  0  0  0  0  0
  -29.0527  -18.0770   30.2220 C   0  0  0  0  0  0  0  0  0  0  0  0
  -34.2145  -12.8017   29.6178 C   0  0  0  0  0  0  0  0  0  0  0  0
  -34.3187  -14.9586   27.6126 C   0  0  0  0  0  0  0  0  0  0  0  0
  -22.5960  -20.3956   32.4245 C   0  0  0  0  0  0  0  0  0  0  0  0
  -29.4833  -13.6394   18.3766 C   0  0  0  0  0  0  0  0  0  0  0  0
  -22.9333  -19.5501   31.2005 C   0  0  0  0  0  0  0  0  0  0  0  0
  -28.0056  -13.3399   18.6390 C   0  0  0  0  0  0  0  0  0  0  0  0
  -34.2589  -12.5266   28.1180 C   0  0  0  0  0  0  0  0  0  0  0  0
  -30.3983  -12.6369   19.0777 C   0  0  0  0  0  0  0  0  0  0  0  0
  -28.6774  -12.1759   20.7793 C   0  0  0  0  0  0  0  0  0  0  0  0
  -23.4111  -18.1519   31.6105 C   0  0  1  0  0  0  0  0  0  0  0  0
  -27.1966  -18.2125   31.9016 C   0  0  1  0  0  0  0  0  0  0  0  0
  -27.7185  -13.1976   20.1466 C   0  0  2  0  0  0  0  0  0  0  0  0
  -30.8944  -12.9623   27.6968 C   0  0  0  0  0  0  0  0  0  0  0  0
  -35.2321  -16.5718   29.3253 C   0  0  0  0  0  0  0  0  0  0  0  0
  -29.7662  -25.4485   29.5106 C   0  0  0  0  0  0  0  0  0  0  0  0
  -29.0482  -18.9701   28.3335 C   0  0  0  0  0  0  0  0  0  0  0  0
  -29.9045  -21.2031   27.5926 C   0  0  0  0  0  0  0  0  0  0  0  0
  -27.4591  -20.8624   27.9483 C   0  0  0  0  0  0  0  0  0  0  0  0
  -29.5222  -24.6958   33.2322 C   0  0  0  0  0  0  0  0  0  0  0  0
  -34.9702  -14.3657   31.4507 C   0  0  0  0  0  0  0  0  0  0  0  0
  -33.7389  -14.7364   32.2665 C   0  0  0  0  0  0  0  0  0  1  0  0
  -28.9979  -20.9821   29.9507 C   0  0  1  0  0  0  0  0  0  0  0  0
  -29.3225  -24.6750   30.7425 C   0  0  2  0  0  0  0  0  0  0  0  0
  -28.8607  -20.4933   28.4811 C   0  0  0  0  0  0  0  0  0  0  0  0
  -25.9102  -11.5614   20.5130 N   0  0  0  0  0  0  0  0  0  0  0  0
  -26.2648  -12.8538   20.4121 N   0  0  0  0  0  0  0  0  0  0  0  0
  -33.6755  -13.6585   27.4021 N   0  0  2  0  0  0  0  0  0  0  0  0
  -28.0908  -18.9093   30.9614 N   0  0  0  0  0  0  0  0  0  0  0  0
  -30.0711  -12.5583   20.5030 N   0  0  0  0  0  0  0  0  0  0  0  0
  -25.4069  -15.0600   20.4975 N   0  0  0  0  0  0  0  0  0  0  0  0
  -21.7593  -12.4952   21.2140 N   0  0  0  0  0  0  0  0  0  0  0  0
  -30.6313  -12.7620   22.7849 N   0  0  0  0  0  0  0  0  0  0  0  0
  -24.7838  -18.2003   32.0664 N   0  0  0  0  0  0  0  0  0  0  0  0
  -28.7983  -22.4169   30.1242 N   0  0  0  0  0  0  0  0  0  0  0  0
  -29.8971  -25.3391   31.9466 N   0  3  0  0  0  0  0  0  0  0  0  0
  -22.5057  -14.6531   21.0018 O   0  0  0  0  0  0  0  0  0  0  0  0
  -25.8249  -18.0490   29.9891 O   0  0  0  0  0  0  0  0  0  0  0  0
  -27.2062  -20.9918   31.5015 O   0  0  0  0  0  0  0  0  0  0  0  0
  -30.8713  -22.8496   31.0690 O   0  0  0  0  0  0  0  0  0  0  0  0
  -32.2157  -13.1464   21.1346 O   0  0  0  0  0  0  0  0  0  0  0  0
  -21.6310   -6.9296   21.3998 O   0  0  0  0  0  0  0  0  0  0  0  0
  -33.2200  -15.9858   31.8125 O   0  0  0  0  0  0  0  0  0  1  0  0
  -22.1402   -4.2230   26.1768 F   0  0  0  0  0  0  0  0  0  0  0  0
  -19.4389   -6.5043   23.0297 F   0  0  0  0  0  0  0  0  0  0  0  0
  1  2  1  0  0  0  0
  1  5  2  0  0  0  0
  2  6  2  0  0  0  0
  3 10  2  0  0  0  0
  3 18  1  0  0  0  0
  4 11  1  0  0  0  0
  4 18  2  0  0  0  0
  5 20  1  0  0  0  0
  6 22  1  0  0  0  0
  7 12  2  0  0  0  0
  7 21  1  0  0  0  0
  8  9  2  0  0  0  0
  8 25  1  0  0  0  0
  9 26  1  0  0  0  0
 10 27  1  0  0  0  0
 11 27  2  0  0  0  0
 12 28  1  0  0  0  0
 13 14  2  0  0  0  0
 13 29  1  0  0  0  0
 14 30  1  0  0  0  0
 15 23  1  0  0  0  0
 15 28  2  0  0  0  0
 16 24  1  0  0  0  0
 16 26  2  0  0  0  0
 17 30  2  0  0  0  0
 17 31  1  0  0  0  0
 18 32  1  0  0  0  0
 19 32  1  0  0  0  0
 19 33  2  0  0  0  0
 19 36  1  0  0  0  0
 20 22  2  0  0  0  0
 20 41  1  0  0  0  0
 21 23  2  0  0  0  0
 21 42  1  0  0  0  0
 22 53  1  0  0  0  0
 23 43  1  0  0  0  0
 24 25  2  0  0  0  0
 24 56  1  0  0  0  0
 25 70  1  0  0  0  0
 26 75  1  0  0  0  0
 27 84  1  0  0  0  0
 28 85  1  0  0  0  0
 29 31  2  0  0  0  0
 29 84  1  0  0  0  0
 30 86  1  0  0  0  0
 31 87  1  0  0  0  0
 32 68  2  0  0  0  0
 33 69  1  0  0  0  0
 33 73  1  0  0  0  0
 34 35  2  0  0  0  0
 34 44  1  0  0  0  0
 34 63  1  0  0  0  0
 35 45  1  0  0  0  0
 35 57  1  0  0  0  0
 36 74  1  0  0  0  0
 36 79  2  0  0  0  0
 37 54  1  0  0  0  0
 37 76  1  0  0  0  0
 37 80  2  0  0  0  0
 38 65  1  0  0  0  0
 38 71  1  0  0  0  0
 38 81  2  0  0  0  0
 39 66  1  0  0  0  0
 39 77  1  0  0  0  0
 39 82  2  0  0  0  0
 40 72  1  0  0  0  0
 40 75  1  0  0  0  0
 40 83  2  0  0  0  0
 41 46  1  0  0  0  0
 42 54  1  0  0  0  0
 43 71  1  0  0  0  0
 44 50  1  0  0  0  0
 45 70  1  0  0  0  0
 46 48  1  0  0  0  0
 47 49  1  0  0  0  0
 47 51  1  0  0  0  0
 48 53  1  0  0  0  0
 49 55  1  0  0  0  0
 50 70  1  0  0  0  0
 51 72  1  0  0  0  0
 52 55  1  0  0  0  0
 52 72  1  0  0  0  0
 53 76  1  0  0  0  0
 54 71  1  0  0  0  0
 55 69  1  0  0  0  0
 58 66  1  0  0  0  0
 59 67  1  0  0  0  0
 60 67  1  0  0  0  0
 61 67  1  0  0  0  0
 62 78  1  0  0  0  0
 63 64  1  0  0  0  0
 64 85  1  0  0  0  0
 65 67  1  0  0  0  0
 65 77  1  0  0  0  0
 66 78  1  0  0  0  0
 68 69  1  0  0  0  0
M  CHG  1  78   1
M  ISO  4  40 100  64 101  75 100  85 101
M  END
> <Batch ID>
0133

> <Smiles>
CNC(C)C(=O)NC(C(=O)N1Cc2cc([101O:1][101CH2:1]CC3=C(C)CN(c4ccc([100NH:0][100C:0](=O)N5CCCC(n6nc(-c7ccc(Oc8ccc(F)cc8F)cc7)c(C(N)=O)c6N)C5)cc4C)CC3)ccc2CC1C(=O)NC1CCCc2ccccc21)C(C)(C)C

> <Shape>
0.136

> <Color>
0.196

> <Negative vol penalty>
0.000

$$$$

  -OEChem-04052302303D

 82 90  0     1  0  0  0  0  0999 V2000
  -19.5618  -22.2976   11.5981 C   0  0  0  0  0  0  0  0  0  0  0  0
  -19.9079  -21.0001   11.9618 C   0  0  0  0  0  0  0  0  0  0  0  0
  -25.9559  -25.7615   19.9726 C   0  0  0  0  0  0  0  0  0  0  0  0
  -26.8052  -25.2085   22.1658 C   0  0  0  0  0  0  0  0  0  0  0  0
  -19.9874  -23.3749   12.3740 C   0  0  0  0  0  0  0  0  0  0  0  0
  -20.6808  -20.7794   13.1012 C   0  0  0  0  0  0  0  0  0  0  0  0
  -21.6223  -16.0215   18.3731 C   0  0  0  0  0  0  0  0  0  0  0  0
  -25.1612  -26.7618   20.5326 C   0  0  0  0  0  0  0  0  0  0  0  0
  -26.0105  -26.2088   22.7258 C   0  0  0  0  0  0  0  0  0  0  0  0
  -22.6309  -15.2812   18.9884 C   0  0  0  0  0  0  0  0  0  0  0  0
  -25.5651  -29.9215   21.6664 C   0  0  0  0  0  0  0  0  0  0  0  0
  -25.5392  -31.1618   21.0288 C   0  0  0  0  0  0  0  0  0  0  0  0
  -29.0975  -11.6733   18.7450 C   0  0  0  0  0  0  0  0  0  0  0  0
  -29.8988  -12.7981   18.4351 C   0  0  0  0  0  0  0  0  0  0  0  0
  -23.2427  -17.2135   20.2966 C   0  0  0  0  0  0  0  0  0  0  0  0
  -23.1553  -30.9441   20.7021 C   0  0  0  0  0  0  0  0  0  0  0  0
  -26.7779  -24.9848   20.7893 C   0  0  0  0  0  0  0  0  0  0  0  0
  -28.9166  -24.0796   19.7338 C   0  0  0  0  0  0  0  0  0  0  0  0
  -20.7578  -23.1666   13.5289 C   0  0  0  0  0  0  0  0  0  0  0  0
  -21.4231  -17.3687   18.7076 C   0  0  0  0  0  0  0  0  0  0  0  0
  -21.1183  -21.8551   13.8926 C   0  0  0  0  0  0  0  0  0  0  0  0
  -22.2293  -17.9679   19.6859 C   0  0  0  0  0  0  0  0  0  0  0  0
  -25.1885  -26.9854   21.9091 C   0  0  0  0  0  0  0  0  0  0  0  0
  -23.4431  -15.8780   19.9482 C   0  0  0  0  0  0  0  0  0  0  0  0
  -24.3861  -29.1924   21.8219 C   0  0  0  0  0  0  0  0  0  0  0  0
  -24.3343  -31.6731   20.5467 C   0  0  0  0  0  0  0  0  0  0  0  0
  -23.1812  -29.7037   21.3397 C   0  0  0  0  0  0  0  0  0  0  0  0
  -27.5986  -23.9511   20.2115 C   0  0  0  0  0  0  0  0  0  0  0  0
  -28.4303  -11.9880   19.9060 C   0  0  0  0  0  0  0  0  0  0  0  0
  -29.6639  -13.7200   19.4286 C   0  0  0  0  0  0  0  0  0  0  0  0
  -29.2452  -22.8219   19.2903 C   0  0  0  0  0  0  0  0  0  0  0  0
  -29.7677  -25.2327   19.6945 C   0  0  0  0  0  0  0  0  0  0  0  0
  -21.5756  -20.1197   17.1225 C   0  0  0  0  0  0  0  0  0  0  0  0
  -25.7231  -13.1383   20.8894 C   0  0  0  0  0  0  0  0  0  0  0  0
  -20.4312  -21.3366   19.9031 C   0  0  0  0  0  0  0  0  0  0  0  0
  -20.0805  -21.0091   23.2819 C   0  0  0  0  0  0  0  0  0  0  0  0
  -29.4039  -17.4037   20.0421 C   0  0  0  0  0  0  0  0  0  0  0  0
  -21.2344  -24.3657   14.3096 C   0  0  0  0  0  0  0  0  0  0  0  0
  -20.3136  -18.1460   18.0540 C   0  0  0  0  0  0  0  0  0  0  0  0
  -22.0432  -19.4054   20.0953 C   0  0  0  0  0  0  0  0  0  0  0  0
  -21.7351  -24.0211   15.7099 C   0  0  0  0  0  0  0  0  0  0  0  0
  -26.3674  -18.7225   18.5799 C   0  0  0  0  0  0  0  0  0  0  0  0
  -22.6663  -22.8139   15.6618 C   0  0  0  0  0  0  0  0  0  0  0  0
  -26.5314  -20.2213   18.8385 C   0  0  0  0  0  0  0  0  0  0  0  0
  -26.9016  -17.8984   19.7476 C   0  0  0  0  0  0  0  0  0  0  0  0
  -28.4853  -19.6827   20.3656 C   0  0  0  0  0  0  0  0  0  0  0  0
  -21.9346  -21.5734   15.1353 C   0  0  1  0  0  0  0  0  0  0  0  0
  -20.5335  -19.6549   18.1001 C   0  0  1  0  0  0  0  0  0  0  0  0
  -27.9845  -20.5699   19.2114 C   0  0  2  0  0  0  0  0  0  0  0  0
  -19.1308  -22.1823   25.2867 C   0  0  0  0  0  0  0  0  0  0  0  0
  -22.7757  -23.2890   19.8682 C   0  0  0  0  0  0  0  0  0  0  0  0
  -22.3297  -23.7593   22.2865 C   0  0  0  0  0  0  0  0  0  0  0  0
  -20.5952  -24.2898   20.5740 C   0  0  0  0  0  0  0  0  0  0  0  0
  -18.2364  -18.7687   23.8641 C   0  0  0  0  0  0  0  0  0  0  0  0
  -27.4348  -11.2408   20.7608 C   0  0  0  0  0  0  0  0  0  0  0  0
  -30.1770  -15.0729   19.6862 C   0  0  0  0  0  0  0  0  0  0  0  0
  -25.9873  -11.6819   20.5355 C   0  0  0  0  0  0  0  0  0  0  0  0
  -24.5746  -13.7960   20.1497 C   0  0  0  0  0  0  0  0  0  1  0  0
  -21.0512  -21.8754   21.1697 C   0  0  1  0  0  0  0  0  0  0  0  0
  -18.8727  -21.1621   24.1888 C   0  0  2  0  0  0  0  0  0  0  0  0
  -21.6930  -23.2768   20.9657 C   0  0  0  0  0  0  0  0  0  0  0  0
  -27.1225  -22.7097   20.0835 N   0  0  0  0  0  0  0  0  0  0  0  0
  -28.1468  -22.0468   19.5201 N   0  0  0  0  0  0  0  0  0  0  0  0
  -20.9491  -20.1254   19.4230 N   0  0  0  0  0  0  0  0  0  0  0  0
  -28.2945  -18.2655   20.0394 N   0  0  0  0  0  0  0  0  0  0  0  0
  -30.3637  -22.3144   18.7300 N   0  0  0  0  0  0  0  0  0  0  0  0
  -29.2724  -26.4460   20.1914 N   0  0  0  0  0  0  0  0  0  0  0  0
  -21.1005  -21.0013   16.1704 N   0  0  0  0  0  0  0  0  0  0  0  0
  -20.0034  -21.8400   22.1842 N   0  0  0  0  0  0  0  0  0  0  0  0
  -29.1368  -16.0764   19.7295 N   0  0  0  0  0  0  0  0  0  0  0  0
  -18.5365  -19.8586   24.8280 N   0  3  0  0  0  0  0  0  0  0  0  0
  -30.9272  -25.1923   19.2173 O   0  0  0  0  0  0  0  0  0  0  0  0
  -22.7259  -19.7100   17.2253 O   0  0  0  0  0  0  0  0  0  0  0  0
  -26.3705  -13.7406   21.7442 O   0  0  0  0  0  0  0  0  0  0  0  0
  -19.5160  -21.9636   19.3636 O   0  0  0  0  0  0  0  0  0  0  0  0
  -21.0020  -20.2331   23.5251 O   0  0  0  0  0  0  0  0  0  0  0  0
  -30.5494  -17.7897   20.2988 O   0  0  0  0  0  0  0  0  0  0  0  0
  -28.7699  -13.2338   20.3291 O   0  0  0  0  0  0  0  0  0  0  0  0
  -24.4133  -27.9615   22.4558 O   0  0  0  0  0  0  0  0  0  0  0  0
  -24.4287  -15.1579   20.5499 O   0  0  0  0  0  0  0  0  0  1  0  0
  -24.3093  -32.8649   19.9358 F   0  0  0  0  0  0  0  0  0  0  0  0
  -22.0451  -29.0084   21.4872 F   0  0  0  0  0  0  0  0  0  0  0  0
  1  2  1  0  0  0  0
  1  5  2  0  0  0  0
  2  6  2  0  0  0  0
  3  8  2  0  0  0  0
  3 17  1  0  0  0  0
  4  9  1  0  0  0  0
  4 17  2  0  0  0  0
  5 19  1  0  0  0  0
  6 21  1  0  0  0  0
  7 10  2  0  0  0  0
  7 20  1  0  0  0  0
  8 23  1  0  0  0  0
  9 23  2  0  0  0  0
 10 24  1  0  0  0  0
 11 12  2  0  0  0  0
 11 25  1  0  0  0  0
 12 26  1  0  0  0  0
 13 14  1  0  0  0  0
 13 29  2  0  0  0  0
 14 30  2  0  0  0  0
 15 22  1  0  0  0  0
 15 24  2  0  0  0  0
 16 26  2  0  0  0  0
 16 27  1  0  0  0  0
 17 28  1  0  0  0  0
 18 28  1  0  0  0  0
 18 31  2  0  0  0  0
 18 32  1  0  0  0  0
 19 21  2  0  0  0  0
 19 38  1  0  0  0  0
 20 22  2  0  0  0  0
 20 39  1  0  0  0  0
 21 47  1  0  0  0  0
 22 40  1  0  0  0  0
 23 79  1  0  0  0  0
 24 80  1  0  0  0  0
 25 27  2  0  0  0  0
 25 79  1  0  0  0  0
 26 81  1  0  0  0  0
 27 82  1  0  0  0  0
 28 62  2  0  0  0  0
 29 55  1  0  0  0  0
 29 78  1  0  0  0  0
 30 56  1  0  0  0  0
 30 78  1  0  0  0  0
 31 63  1  0  0  0  0
 31 66  1  0  0  0  0
 32 67  1  0  0  0  0
 32 72  2  0  0  0  0
 33 48  1  0  0  0  0
 33 68  1  0  0  0  0
 33 73  2  0  0  0  0
 34 57  1  0  0  0  0
 34 58  1  0  0  0  0
 34 74  2  0  0  0  0
 35 59  1  0  0  0  0
 35 64  1  0  0  0  0
 35 75  2  0  0  0  0
 36 60  1  0  0  0  0
 36 69  1  0  0  0  0
 36 76  2  0  0  0  0
 37 65  1  0  0  0  0
 37 70  1  0  0  0  0
 37 77  2  0  0  0  0
 38 41  1  0  0  0  0
 39 48  1  0  0  0  0
 40 64  1  0  0  0  0
 41 43  1  0  0  0  0
 42 44  1  0  0  0  0
 42 45  1  0  0  0  0
 43 47  1  0  0  0  0
 44 49  1  0  0  0  0
 45 65  1  0  0  0  0
 46 49  1  0  0  0  0
 46 65  1  0  0  0  0
 47 68  1  0  0  0  0
 48 64  1  0  0  0  0
 49 63  1  0  0  0  0
 50 60  1  0  0  0  0
 51 61  1  0  0  0  0
 52 61  1  0  0  0  0
 53 61  1  0  0  0  0
 54 71  1  0  0  0  0
 55 57  1  0  0  0  0
 56 70  1  0  0  0  0
 58 80  1  0  0  0  0
 59 61  1  0  0  0  0
 59 69  1  0  0  0  0
 60 71  1  0  0  0  0
 62 63  1  0  0  0  0
M  CHG  1  71   1
M  ISO  4  37 100  58 101  70 100  80 101
M  END
> <Batch ID>
0133

> <Smiles>
CNC(C)C(=O)NC(C(=O)N1Cc2cc([101O:1][101CH2:1]C(=O)CCc3ccc(C[100NH:0][100C:0](=O)N4CCCC(n5nc(-c6ccc(Oc7ccc(F)cc7F)cc6)c(C(N)=O)c5N)C4)o3)ccc2CC1C(=O)NC1CCCc2ccccc21)C(C)(C)C

> <Shape>
0.183

> <Color>
0.078

> <Negative vol penalty>
0.000

$$$$

  -OEChem-04052302303D

 94103  0     1  0  0  0  0  0999 V2000
  -29.5695  -32.7672   25.8729 C   0  0  0  0  0  0  0  0  0  0  0  0
  -29.1626  -31.5342   25.3734 C   0  0  0  0  0  0  0  0  0  0  0  0
  -24.3403  -19.0628   24.5761 C   0  0  0  0  0  0  0  0  0  0  0  0
  -25.0433  -20.4465   22.7246 C   0  0  0  0  0  0  0  0  0  0  0  0
  -28.6429  -33.7985   26.0206 C   0  0  0  0  0  0  0  0  0  0  0  0
  -27.8284  -31.3315   25.0222 C   0  0  0  0  0  0  0  0  0  0  0  0
  -27.3288  -28.9527   20.5796 C   0  0  0  0  0  0  0  0  0  0  0  0
  -23.9327  -20.2008   25.2720 C   0  0  0  0  0  0  0  0  0  0  0  0
  -24.6356  -21.5846   23.4204 C   0  0  0  0  0  0  0  0  0  0  0  0
  -27.5336  -27.5737   20.5692 C   0  0  0  0  0  0  0  0  0  0  0  0
  -21.2924  -22.3131   25.2636 C   0  0  0  0  0  0  0  0  0  0  0  0
  -20.0523  -22.2738   25.9009 C   0  0  0  0  0  0  0  0  0  0  0  0
  -26.2529  -18.5364   17.2024 C   0  0  0  0  0  0  0  0  0  0  0  0
  -25.1469  -27.2251   20.6043 C   0  0  0  0  0  0  0  0  0  0  0  0
  -28.3005  -17.4887   16.4631 C   0  0  0  0  0  0  0  0  0  0  0  0
  -21.1314  -22.6741   28.0252 C   0  0  0  0  0  0  0  0  0  0  0  0
  -24.8957  -19.1856   23.3025 C   0  0  0  0  0  0  0  0  0  0  0  0
  -26.9892  -19.4141   17.9980 C   0  0  0  0  0  0  0  0  0  0  0  0
  -24.5442  -17.2280   21.7049 C   0  0  0  0  0  0  0  0  0  0  0  0
  -27.2987  -33.6113   25.6620 C   0  0  0  0  0  0  0  0  0  0  0  0
  -26.0295  -29.4791   20.6135 C   0  0  0  0  0  0  0  0  0  0  0  0
  -26.8827  -32.3608   25.1665 C   0  0  0  0  0  0  0  0  0  0  0  0
  -24.9282  -28.6111   20.6125 C   0  0  0  0  0  0  0  0  0  0  0  0
  -26.9085  -17.5736   16.4350 C   0  0  0  0  0  0  0  0  0  0  0  0
  -29.0369  -18.3665   17.2588 C   0  0  0  0  0  0  0  0  0  0  0  0
  -28.3811  -19.3292   18.0262 C   0  0  0  0  0  0  0  0  0  0  0  0
  -24.0802  -21.4618   24.6941 C   0  0  0  0  0  0  0  0  0  0  0  0
  -26.4426  -26.7096   20.5844 C   0  0  0  0  0  0  0  0  0  0  0  0
  -22.4520  -22.5329   26.0070 C   0  0  0  0  0  0  0  0  0  0  0  0
  -19.9718  -22.4543   27.2817 C   0  0  0  0  0  0  0  0  0  0  0  0
  -22.3715  -22.7134   27.3878 C   0  0  0  0  0  0  0  0  0  0  0  0
  -25.3175  -18.0103   22.5834 C   0  0  0  0  0  0  0  0  0  0  0  0
  -25.3975  -16.2364   21.2867 C   0  0  0  0  0  0  0  0  0  0  0  0
  -26.2766  -20.4092   18.7885 C   0  0  0  0  0  0  0  0  0  0  0  0
  -23.1768  -17.3839   21.3028 C   0  0  0  0  0  0  0  0  0  0  0  0
  -24.3968  -31.2937   22.6496 C   0  0  0  0  0  0  0  0  0  0  0  0
  -31.0105  -15.5119   19.9766 C   0  0  0  0  0  0  0  0  0  0  0  0
  -22.1560  -31.2282   20.3051 C   0  0  0  0  0  0  0  0  0  0  0  0
  -20.8528  -29.6282   17.5869 C   0  0  0  0  0  0  0  0  0  0  0  0
  -26.3241  -34.7407   25.8840 C   0  0  0  0  0  0  0  0  0  0  0  0
  -25.8249  -30.9692   20.5975 C   0  0  0  0  0  0  0  0  0  0  0  0
  -23.5128  -29.1258   20.6284 C   0  0  0  0  0  0  0  0  0  0  0  0
  -25.0049  -34.5625   25.1369 C   0  0  0  0  0  0  0  0  0  0  0  0
  -29.5793  -14.2664   23.0164 C   0  0  0  0  0  0  0  0  0  0  0  0
  -24.4731  -33.1450   25.3233 C   0  0  0  0  0  0  0  0  0  0  0  0
  -28.2746  -15.0512   23.1468 C   0  0  0  0  0  0  0  0  0  0  0  0
  -30.2960  -23.1807   21.7338 C   0  0  0  0  0  0  0  0  0  0  0  0
  -29.7503  -21.7880   21.5967 C   0  0  0  0  0  0  0  0  0  0  0  0
  -30.6829  -15.1171   22.3955 C   0  0  0  0  0  0  0  0  0  0  0  0
  -29.0140  -16.5014   21.2039 C   0  0  0  0  0  0  0  0  0  0  0  0
  -25.4492  -32.1100   24.7513 C   0  0  1  0  0  0  0  0  0  0  0  0
  -24.4681  -31.3921   21.1519 C   0  0  1  0  0  0  0  0  0  0  0  0
  -27.8641  -15.6692   21.7985 C   0  0  2  0  0  0  0  0  0  0  0  0
  -29.4082  -22.8339   20.5615 C   0  0  0  0  0  0  0  0  0  0  0  0
  -25.7376  -15.3590   16.3297 C   0  0  0  0  0  0  0  0  0  0  0  0
  -31.1318  -25.5203   16.6910 C   0  0  0  0  0  0  0  0  0  0  0  0
  -18.9985  -29.7953   15.9043 C   0  0  0  0  0  0  0  0  0  0  0  0
  -20.1651  -30.2655   22.4073 C   0  0  0  0  0  0  0  0  0  0  0  0
  -18.6497  -29.5541   20.5456 C   0  0  0  0  0  0  0  0  0  0  0  0
  -19.2560  -31.9596   20.8079 C   0  0  0  0  0  0  0  0  0  0  0  0
  -22.7598  -29.8147   15.3313 C   0  0  0  0  0  0  0  0  0  0  0  0
  -26.1214  -16.6348   15.5845 C   0  0  0  0  0  0  0  0  0  0  0  0
  -30.5263  -18.2542   17.2710 C   0  0  0  0  0  0  0  0  0  0  0  0
  -29.1803  -20.2766   18.8853 C   0  0  0  0  0  0  0  0  0  0  0  0
  -30.4946  -16.1440   18.7084 C   0  0  0  0  0  0  0  0  0  0  0  0
  -28.0125  -23.3820   20.5502 C   0  0  0  0  0  0  0  0  0  0  0  0
  -31.1203  -24.1514   17.3551 C   0  0  0  0  0  0  0  0  0  0  0  0
  -31.0439  -17.5572   18.5401 C   0  0  0  0  0  0  0  0  0  0  0  0
  -29.2938  -21.6968   18.3106 C   0  0  0  0  0  0  0  0  0  0  0  0
  -30.0764  -24.0838   18.4744 C   0  0  0  0  0  0  0  0  0  0  0  0
  -27.9909  -24.9047   20.5492 C   0  0  0  0  0  0  0  0  0  1  0  0
  -20.9930  -30.3286   19.9626 C   0  0  1  0  0  0  0  0  0  0  0  0
  -20.4467  -30.1390   16.2162 C   0  0  2  0  0  0  0  0  0  0  0  0
  -30.0457  -22.7174   19.2043 C   0  0  1  0  0  0  0  0  0  0  0  0
  -19.7925  -30.5169   20.9325 C   0  0  0  0  0  0  0  0  0  0  0  0
  -26.5660  -17.5548   22.7164 N   0  0  0  0  0  0  0  0  0  0  0  0
  -25.1395  -20.9242   18.4307 N   0  0  0  0  0  0  0  0  0  0  0  0
  -26.5837  -16.4755   21.9159 N   0  0  0  0  0  0  0  0  0  0  0  0
  -23.3648  -30.5906   20.6185 N   0  0  0  0  0  0  0  0  0  0  0  0
  -30.2461  -15.7043   21.1276 N   0  0  0  0  0  0  0  0  0  0  0  0
  -25.2413  -15.1918   20.4459 N   0  0  0  0  0  0  0  0  0  0  0  0
  -22.4442  -18.4572   21.8278 N   0  0  0  0  0  0  0  0  0  0  0  0
  -25.3415  -32.0567   23.3091 N   0  0  0  0  0  0  0  0  0  0  0  0
  -20.6759  -30.5867   18.5622 N   0  0  0  0  0  0  0  0  0  0  0  0
  -21.3104  -29.5362   15.1619 N   0  3  0  0  0  0  0  0  0  0  0  0
  -22.6163  -16.5852   20.5145 O   0  0  0  0  0  0  0  0  0  0  0  0
  -23.5468  -30.5797   23.1685 O   0  0  0  0  0  0  0  0  0  0  0  0
  -32.0602  -14.8644   19.9427 O   0  0  0  0  0  0  0  0  0  0  0  0
  -21.9997  -32.4517   20.2879 O   0  0  0  0  0  0  0  0  0  0  0  0
  -21.2805  -28.4913   17.7742 O   0  0  0  0  0  0  0  0  0  0  0  0
  -23.6823  -22.5725   25.3727 O   0  0  0  0  0  0  0  0  0  0  0  0
  -26.6397  -25.3632   20.5749 O   0  0  0  0  0  0  0  0  0  1  0  0
  -18.7807  -22.4180   27.8934 F   0  0  0  0  0  0  0  0  0  0  0  0
  -23.4819  -22.9261   28.1072 F   0  0  0  0  0  0  0  0  0  0  0  0
  1  2  1  0  0  0  0
  1  5  2  0  0  0  0
  2  6  2  0  0  0  0
  3  8  2  0  0  0  0
  3 17  1  0  0  0  0
  4  9  1  0  0  0  0
  4 17  2  0  0  0  0
  5 20  1  0  0  0  0
  6 22  1  0  0  0  0
  7 10  2  0  0  0  0
  7 21  1  0  0  0  0
  8 27  1  0  0  0  0
  9 27  2  0  0  0  0
 10 28  1  0  0  0  0
 11 12  2  0  0  0  0
 11 29  1  0  0  0  0
 12 30  1  0  0  0  0
 13 18  2  0  0  0  0
 13 24  1  0  0  0  0
 14 23  1  0  0  0  0
 14 28  2  0  0  0  0
 15 24  2  0  0  0  0
 15 25  1  0  0  0  0
 16 30  2  0  0  0  0
 16 31  1  0  0  0  0
 17 32  1  0  0  0  0
 18 26  1  0  0  0  0
 18 34  1  0  0  0  0
 19 32  1  0  0  0  0
 19 33  2  0  0  0  0
 19 35  1  0  0  0  0
 20 22  2  0  0  0  0
 20 40  1  0  0  0  0
 21 23  2  0  0  0  0
 21 41  1  0  0  0  0
 22 51  1  0  0  0  0
 23 42  1  0  0  0  0
 24 62  1  0  0  0  0
 25 26  2  0  0  0  0
 25 63  1  0  0  0  0
 26 64  1  0  0  0  0
 27 91  1  0  0  0  0
 28 92  1  0  0  0  0
 29 31  2  0  0  0  0
 29 91  1  0  0  0  0
 30 93  1  0  0  0  0
 31 94  1  0  0  0  0
 32 76  2  0  0  0  0
 33 78  1  0  0  0  0
 33 81  1  0  0  0  0
 34 77  2  0  0  0  0
 35 82  1  0  0  0  0
 35 86  2  0  0  0  0
 36 52  1  0  0  0  0
 36 83  1  0  0  0  0
 36 87  2  0  0  0  0
 37 65  1  0  0  0  0
 37 80  1  0  0  0  0
 37 88  2  0  0  0  0
 38 72  1  0  0  0  0
 38 79  1  0  0  0  0
 38 89  2  0  0  0  0
 39 73  1  0  0  0  0
 39 84  1  0  0  0  0
 39 90  2  0  0  0  0
 40 43  1  0  0  0  0
 41 52  1  0  0  0  0
 42 79  1  0  0  0  0
 43 45  1  0  0  0  0
 44 46  1  0  0  0  0
 44 49  1  0  0  0  0
 45 51  1  0  0  0  0
 46 53  1  0  0  0  0
 47 48  1  0  0  0  0
 47 54  1  0  0  0  0
 48 54  1  0  0  0  0
 49 80  1  0  0  0  0
 50 53  1  0  0  0  0
 50 80  1  0  0  0  0
 51 83  1  0  0  0  0
 52 79  1  0  0  0  0
 53 78  1  0  0  0  0
 54 66  1  0  0  0  0
 54 74  1  0  0  0  0
 55 62  1  0  0  0  0
 56 67  1  0  0  0  0
 57 73  1  0  0  0  0
 58 75  1  0  0  0  0
 59 75  1  0  0  0  0
 60 75  1  0  0  0  0
 61 85  1  0  0  0  0
 63 68  1  0  0  0  0
 64 69  1  0  0  0  0
 65 68  1  0  0  0  0
 66 71  1  0  0  0  0
 67 70  1  0  0  0  0
 69 74  1  0  0  0  0
 70 74  1  0  0  0  0
 71 92  1  0  0  0  0
 72 75  1  0  0  0  0
 72 84  1  0  0  0  0
 73 85  1  0  0  0  0
 76 78  1  0  0  0  0
M  CHG  1  85   1
M  ISO  4  37 100  65 100  71 101  92 101
M  END
> <Batch ID>
0133

> <Smiles>
CCCC(CCc1c(C=N)cc(CC)cc1CC[100CH2:0][100C:0](=O)N1CCCC(n2nc(-c3ccc(Oc4ccc(F)cc4F)cc3)c(C(N)=O)c2N)C1)C1(C[101CH2:1][101O:1]c2ccc3c(c2)CN(C(=O)C(NC(=O)C(C)NC)C(C)(C)C)C(C(=O)NC2CCCc4ccccc42)C3)CC1

> <Shape>
0.214

> <Color>
0.087

> <Negative vol penalty>
0.000

$$$$

  -OEChem-04052302303D

 86 94  0     1  0  0  0  0  0999 V2000
  -33.4468  -24.2023   21.3224 C   0  0  0  0  0  0  0  0  0  0  0  0
  -33.1183  -25.5416   21.5063 C   0  0  0  0  0  0  0  0  0  0  0  0
  -25.7292  -14.4078   19.4196 C   0  0  0  0  0  0  0  0  0  0  0  0
  -23.9379  -14.3572   21.0400 C   0  0  0  0  0  0  0  0  0  0  0  0
  -32.8707  -23.4816   20.2770 C   0  0  0  0  0  0  0  0  0  0  0  0
  -32.2144  -26.1613   20.6441 C   0  0  0  0  0  0  0  0  0  0  0  0
  -25.5553  -29.9215   22.2395 C   0  0  0  0  0  0  0  0  0  0  0  0
  -20.5617  -23.2656   25.6649 C   0  0  0  0  0  0  0  0  0  0  0  0
  -20.6068  -21.8716   25.6501 C   0  0  0  0  0  0  0  0  0  0  0  0
  -26.0221  -13.0736   19.7017 C   0  0  0  0  0  0  0  0  0  0  0  0
  -24.2308  -13.0229   21.3221 C   0  0  0  0  0  0  0  0  0  0  0  0
  -24.2814  -30.4717   22.3822 C   0  0  0  0  0  0  0  0  0  0  0  0
  -24.2744   -9.4974   22.2093 C   0  0  0  0  0  0  0  0  0  0  0  0
  -23.2071   -8.6044   22.3043 C   0  0  0  0  0  0  0  0  0  0  0  0
  -23.7204  -29.7833   20.1329 C   0  0  0  0  0  0  0  0  0  0  0  0
  -22.7273  -23.3469   24.5968 C   0  0  0  0  0  0  0  0  0  0  0  0
  -22.5866   -9.1034   20.0232 C   0  0  0  0  0  0  0  0  0  0  0  0
  -24.6871  -15.0496   20.0888 C   0  0  0  0  0  0  0  0  0  0  0  0
  -23.4907  -16.9154   18.8258 C   0  0  0  0  0  0  0  0  0  0  0  0
  -31.9519  -24.0902   19.4075 C   0  0  0  0  0  0  0  0  0  0  0  0
  -25.9118  -29.2858   21.0469 C   0  0  0  0  0  0  0  0  0  0  0  0
  -31.6265  -25.4485   19.5854 C   0  0  0  0  0  0  0  0  0  0  0  0
  -24.9908  -29.2194   19.9886 C   0  0  0  0  0  0  0  0  0  0  0  0
  -21.6220  -24.0033   25.1382 C   0  0  0  0  0  0  0  0  0  0  0  0
  -21.7121  -21.2152   25.1087 C   0  0  0  0  0  0  0  0  0  0  0  0
  -22.7724  -21.9529   24.5821 C   0  0  0  0  0  0  0  0  0  0  0  0
  -25.2729  -12.3811   20.6529 C   0  0  0  0  0  0  0  0  0  0  0  0
  -23.3663  -30.4030   21.3314 C   0  0  0  0  0  0  0  0  0  0  0  0
  -24.4978  -10.1935   21.0213 C   0  0  0  0  0  0  0  0  0  0  0  0
  -22.3632   -8.4074   21.2113 C   0  0  0  0  0  0  0  0  0  0  0  0
  -23.6539   -9.9964   19.9283 C   0  0  0  0  0  0  0  0  0  0  0  0
  -24.3844  -16.4281   19.7982 C   0  0  0  0  0  0  0  0  0  0  0  0
  -23.5617  -18.2816   18.9482 C   0  0  0  0  0  0  0  0  0  0  0  0
  -22.6697  -16.1974   17.8951 C   0  0  0  0  0  0  0  0  0  0  0  0
  -28.5446  -27.4331   19.1203 C   0  0  0  0  0  0  0  0  0  0  0  0
  -20.0120  -28.2829   22.8438 C   0  0  0  0  0  0  0  0  0  0  0  0
  -25.8682  -26.0603   18.5182 C   0  0  0  0  0  0  0  0  0  0  0  0
  -22.7954  -24.5804   18.4481 C   0  0  0  0  0  0  0  0  0  0  0  0
  -25.0310  -21.9044   23.4673 C   0  0  0  0  0  0  0  0  0  0  0  0
  -31.3913  -23.2835   18.2632 C   0  0  0  0  0  0  0  0  0  0  0  0
  -27.2939  -28.7333   20.8267 C   0  0  0  0  0  0  0  0  0  0  0  0
  -25.4299  -28.5564   18.7117 C   0  0  0  0  0  0  0  0  0  0  0  0
  -30.1574  -23.9125   17.6214 C   0  0  0  0  0  0  0  0  0  0  0  0
  -26.5668  -21.7729   20.2577 C   0  0  0  0  0  0  0  0  0  0  0  0
  -30.3854  -25.3999   17.3711 C   0  0  0  0  0  0  0  0  0  0  0  0
  -26.0952  -20.4345   19.6847 C   0  0  0  0  0  0  0  0  0  0  0  0
  -26.8244  -21.6870   21.7611 C   0  0  0  0  0  0  0  0  0  0  0  0
  -25.2366  -19.8161   21.9798 C   0  0  0  0  0  0  0  0  0  0  0  0
  -30.6313  -26.1493   18.6862 C   0  0  1  0  0  0  0  0  0  0  0  0
  -27.3039  -27.4588   19.9637 C   0  0  1  0  0  0  0  0  0  0  0  0
  -24.9018  -19.8700   20.4802 C   0  0  2  0  0  0  0  0  0  0  0  0
  -21.7336  -19.7210   25.1071 C   0  0  0  0  0  0  0  0  0  0  0  0
  -21.5659  -22.6406   17.4367 C   0  0  0  0  0  0  0  0  0  0  0  0
  -25.7332  -27.5396   15.8542 C   0  0  0  0  0  0  0  0  0  0  0  0
  -23.7833  -26.0972   15.2330 C   0  0  0  0  0  0  0  0  0  0  0  0
  -26.0126  -25.0620   15.6591 C   0  0  0  0  0  0  0  0  0  0  0  0
  -22.2031  -23.4206   21.1057 C   0  0  0  0  0  0  0  0  0  0  0  0
  -21.5724  -25.5089   25.1544 C   0  0  0  0  0  0  0  0  0  0  0  0
  -20.7645  -27.6615   24.0116 C   0  0  0  0  0  0  0  0  0  0  0  0
  -19.8320  -29.7926   22.9067 C   0  0  0  0  0  0  0  0  0  0  0  0
  -20.9348  -26.1442   23.9111 C   0  0  0  0  0  0  0  0  0  0  0  0
  -19.7699  -30.4702   21.5414 C   0  0  0  0  0  0  0  0  0  0  0  0
  -21.0620  -30.3260   20.7467 C   0  0  0  0  0  0  0  0  0  1  0  0
  -24.6730  -25.9648   17.6040 C   0  0  1  0  0  0  0  0  0  0  0  0
  -22.3688  -23.1349   18.6299 C   0  0  2  0  0  0  0  0  0  0  0  0
  -25.0499  -26.1817   16.1113 C   0  0  0  0  0  0  0  0  0  0  0  0
  -24.9796  -17.4052   20.4874 N   0  0  0  0  0  0  0  0  0  0  0  0
  -24.4589  -18.5202   19.9473 N   0  0  0  0  0  0  0  0  0  0  0  0
  -26.1841  -27.3303   19.0158 N   0  0  0  0  0  0  0  0  0  0  0  0
  -25.6496  -21.1479   22.4496 N   0  0  0  0  0  0  0  0  0  0  0  0
  -22.9436  -19.2901   18.2975 N   0  0  0  0  0  0  0  0  0  0  0  0
  -22.7181  -14.7967   17.9038 N   0  0  0  0  0  0  0  0  0  0  0  0
  -23.9035  -21.3044   24.0272 N   0  0  0  0  0  0  0  0  0  0  0  0
  -29.3828  -26.3668   19.3850 N   0  0  0  0  0  0  0  0  0  0  0  0
  -24.0488  -24.6757   17.8815 N   0  0  0  0  0  0  0  0  0  0  0  0
  -21.5292  -22.9925   19.8529 N   0  3  0  0  0  0  0  0  0  0  0  0
  -21.9279  -16.7810   17.0689 O   0  0  0  0  0  0  0  0  0  0  0  0
  -28.7285  -28.3144   18.2890 O   0  0  0  0  0  0  0  0  0  0  0  0
  -19.5300  -27.5993   21.9423 O   0  0  0  0  0  0  0  0  0  0  0  0
  -26.5095  -25.0391   18.7812 O   0  0  0  0  0  0  0  0  0  0  0  0
  -22.0859  -25.5301   18.7725 O   0  0  0  0  0  0  0  0  0  0  0  0
  -25.4531  -23.0155   23.7976 O   0  0  0  0  0  0  0  0  0  0  0  0
  -25.5583  -11.0791   20.9283 O   0  0  0  0  0  0  0  0  0  0  0  0
  -22.1227  -30.9382   21.4792 O   0  0  0  0  0  0  0  0  0  1  0  0
  -21.3392   -7.5487   21.3021 F   0  0  0  0  0  0  0  0  0  0  0  0
  -23.8642  -10.6614   18.7839 F   0  0  0  0  0  0  0  0  0  0  0  0
  1  2  1  0  0  0  0
  1  5  2  0  0  0  0
  2  6  2  0  0  0  0
  3 10  2  0  0  0  0
  3 18  1  0  0  0  0
  4 11  1  0  0  0  0
  4 18  2  0  0  0  0
  5 20  1  0  0  0  0
  6 22  1  0  0  0  0
  7 12  2  0  0  0  0
  7 21  1  0  0  0  0
  8  9  2  0  0  0  0
  8 24  1  0  0  0  0
  9 25  1  0  0  0  0
 10 27  1  0  0  0  0
 11 27  2  0  0  0  0
 12 28  1  0  0  0  0
 13 14  2  0  0  0  0
 13 29  1  0  0  0  0
 14 30  1  0  0  0  0
 15 23  1  0  0  0  0
 15 28  2  0  0  0  0
 16 24  2  0  0  0  0
 16 26  1  0  0  0  0
 17 30  2  0  0  0  0
 17 31  1  0  0  0  0
 18 32  1  0  0  0  0
 19 32  1  0  0  0  0
 19 33  2  0  0  0  0
 19 34  1  0  0  0  0
 20 22  2  0  0  0  0
 20 40  1  0  0  0  0
 21 23  2  0  0  0  0
 21 41  1  0  0  0  0
 22 49  1  0  0  0  0
 23 42  1  0  0  0  0
 24 58  1  0  0  0  0
 25 26  2  0  0  0  0
 25 52  1  0  0  0  0
 26 73  1  0  0  0  0
 27 83  1  0  0  0  0
 28 84  1  0  0  0  0
 29 31  2  0  0  0  0
 29 83  1  0  0  0  0
 30 85  1  0  0  0  0
 31 86  1  0  0  0  0
 32 67  2  0  0  0  0
 33 68  1  0  0  0  0
 33 71  1  0  0  0  0
 34 72  1  0  0  0  0
 34 77  2  0  0  0  0
 35 50  1  0  0  0  0
 35 74  1  0  0  0  0
 35 78  2  0  0  0  0
 36 59  1  0  0  0  0
 36 60  1  0  0  0  0
 36 79  2  0  0  0  0
 37 64  1  0  0  0  0
 37 69  1  0  0  0  0
 37 80  2  0  0  0  0
 38 65  1  0  0  0  0
 38 75  1  0  0  0  0
 38 81  2  0  0  0  0
 39 70  1  0  0  0  0
 39 73  1  0  0  0  0
 39 82  2  0  0  0  0
 40 43  1  0  0  0  0
 41 50  1  0  0  0  0
 42 69  1  0  0  0  0
 43 45  1  0  0  0  0
 44 46  1  0  0  0  0
 44 47  1  0  0  0  0
 45 49  1  0  0  0  0
 46 51  1  0  0  0  0
 47 70  1  0  0  0  0
 48 51  1  0  0  0  0
 48 70  1  0  0  0  0
 49 74  1  0  0  0  0
 50 69  1  0  0  0  0
 51 68  1  0  0  0  0
 53 65  1  0  0  0  0
 54 66  1  0  0  0  0
 55 66  1  0  0  0  0
 56 66  1  0  0  0  0
 57 76  1  0  0  0  0
 58 61  1  0  0  0  0
 59 61  1  0  0  0  0
 60 62  1  0  0  0  0
 62 63  1  0  0  0  0
 63 84  1  0  0  0  0
 64 66  1  0  0  0  0
 64 75  1  0  0  0  0
 65 76  1  0  0  0  0
 67 68  1  0  0  0  0
M  CHG  1  76   1
M  ISO  4  39 100  63 101  73 100  84 101
M  END
> <Batch ID>
0133

> <Smiles>
CNC(C)C(=O)NC(C(=O)N1Cc2cc([101O:1][101CH2:1]CCC(=O)CCCc3ccc(C)c([100NH:0][100C:0](=O)N4CCCC(n5nc(-c6ccc(Oc7ccc(F)cc7F)cc6)c(C(N)=O)c5N)C4)c3)ccc2CC1C(=O)NC1CCCc2ccccc21)C(C)(C)C

> <Shape>
0.213

> <Color>
0.069

> <Negative vol penalty>
0.000

$$$$

  -OEChem-04052302303D

 85 93  0     1  0  0  0  0  0999 V2000
  -34.8322  -36.2955   21.4305 C   0  0  0  0  0  0  0  0  0  0  0  0
  -35.0301  -35.1688   22.2221 C   0  0  0  0  0  0  0  0  0  0  0  0
  -23.0788   -9.9529   19.8924 C   0  0  0  0  0  0  0  0  0  0  0  0
  -23.8695   -9.8645   22.1736 C   0  0  0  0  0  0  0  0  0  0  0  0
  -33.6760  -36.4102   20.6597 C   0  0  0  0  0  0  0  0  0  0  0  0
  -34.0714  -34.1565   22.2444 C   0  0  0  0  0  0  0  0  0  0  0  0
  -35.0805  -28.1419   22.8028 C   0  0  0  0  0  0  0  0  0  0  0  0
  -32.7467  -17.3795   23.5611 C   0  0  0  0  0  0  0  0  0  0  0  0
  -32.1255  -16.5416   22.6349 C   0  0  0  0  0  0  0  0  0  0  0  0
  -22.3343   -8.7928   20.1054 C   0  0  0  0  0  0  0  0  0  0  0  0
  -23.1250   -8.7044   22.3867 C   0  0  0  0  0  0  0  0  0  0  0  0
  -35.0189  -27.2779   23.8952 C   0  0  0  0  0  0  0  0  0  0  0  0
  -19.9024   -7.8924   23.0003 C   0  0  0  0  0  0  0  0  0  0  0  0
  -19.1612   -7.8073   24.1788 C   0  0  0  0  0  0  0  0  0  0  0  0
  -32.7725  -26.6587   23.2711 C   0  0  0  0  0  0  0  0  0  0  0  0
  -30.5895  -18.2313   24.2375 C   0  0  0  0  0  0  0  0  0  0  0  0
  -20.4056   -5.8378   24.8190 C   0  0  0  0  0  0  0  0  0  0  0  0
  -23.8465  -10.4888   20.9264 C   0  0  0  0  0  0  0  0  0  0  0  0
  -24.1956  -13.0157   20.9043 C   0  0  0  0  0  0  0  0  0  0  0  0
  -32.7072  -35.3944   20.6651 C   0  0  0  0  0  0  0  0  0  0  0  0
  -33.9827  -28.2791   21.9411 C   0  0  0  0  0  0  0  0  0  0  0  0
  -32.9005  -34.2583   21.4740 C   0  0  0  0  0  0  0  0  0  0  0  0
  -32.8237  -27.5231   22.1670 C   0  0  0  0  0  0  0  0  0  0  0  0
  -31.9787  -18.2243   24.3624 C   0  0  0  0  0  0  0  0  0  0  0  0
  -29.9682  -17.3935   23.3114 C   0  0  0  0  0  0  0  0  0  0  0  0
  -30.7363  -16.5486   22.5101 C   0  0  0  0  0  0  0  0  0  0  0  0
  -22.3573   -8.1686   21.3526 C   0  0  0  0  0  0  0  0  0  0  0  0
  -33.8637  -26.5383   24.1312 C   0  0  0  0  0  0  0  0  0  0  0  0
  -20.8952   -6.9503   22.7311 C   0  0  0  0  0  0  0  0  0  0  0  0
  -19.4128   -6.7800   25.0882 C   0  0  0  0  0  0  0  0  0  0  0  0
  -21.1468   -5.9230   23.6405 C   0  0  0  0  0  0  0  0  0  0  0  0
  -24.6162  -11.6868   20.7068 C   0  0  0  0  0  0  0  0  0  0  0  0
  -25.2854  -13.7760   20.5569 C   0  0  0  0  0  0  0  0  0  0  0  0
  -22.9327  -13.5179   21.3611 C   0  0  0  0  0  0  0  0  0  0  0  0
  -32.0671  -30.6767   21.1130 C   0  0  0  0  0  0  0  0  0  0  0  0
  -30.8966  -28.5008   19.0112 C   0  0  0  0  0  0  0  0  0  0  0  0
  -30.4383  -25.2197   18.1918 C   0  0  0  0  0  0  0  0  0  0  0  0
  -30.7571  -14.7973   20.6994 C   0  0  0  0  0  0  0  0  0  0  0  0
  -31.4514  -35.5846   19.8518 C   0  0  0  0  0  0  0  0  0  0  0  0
  -34.0748  -29.1953   20.7517 C   0  0  0  0  0  0  0  0  0  0  0  0
  -31.6250  -27.6190   21.2600 C   0  0  0  0  0  0  0  0  0  0  0  0
  -30.6598  -34.2962   19.6430 C   0  0  0  0  0  0  0  0  0  0  0  0
  -29.6023  -12.4849   18.2506 C   0  0  0  0  0  0  0  0  0  0  0  0
  -30.5222  -33.5353   20.9579 C   0  0  0  0  0  0  0  0  0  0  0  0
  -28.1676  -12.1805   18.6875 C   0  0  0  0  0  0  0  0  0  0  0  0
  -30.5344  -12.6620   19.4479 C   0  0  0  0  0  0  0  0  0  0  0  0
  -28.6488  -13.3355   20.8833 C   0  0  0  0  0  0  0  0  0  0  0  0
  -31.8952  -33.1276   21.5057 C   0  0  1  0  0  0  0  0  0  0  0  0
  -32.7109  -29.6417   20.2343 C   0  0  1  0  0  0  0  0  0  0  0  0
  -27.6596  -13.2131   19.7128 C   0  0  2  0  0  0  0  0  0  0  0  0
  -28.0092  -18.2002   21.9705 C   0  0  0  0  0  0  0  0  0  0  0  0
  -29.4135  -23.7534   16.4319 C   0  0  0  0  0  0  0  0  0  0  0  0
  -28.1234  -29.0875   20.1406 C   0  0  0  0  0  0  0  0  0  0  0  0
  -27.3135  -26.9795   19.0595 C   0  0  0  0  0  0  0  0  0  0  0  0
  -28.2054  -28.8371   17.6536 C   0  0  0  0  0  0  0  0  0  0  0  0
  -33.0508  -24.0023   17.5200 C   0  0  0  0  0  0  0  0  0  0  0  0
  -32.6506  -19.1318   25.3619 C   0  0  0  0  0  0  0  0  0  0  0  0
  -28.4785  -17.4241   23.1969 C   0  0  0  0  0  0  0  0  0  0  0  0
  -33.0193  -20.5089   24.7983 C   0  0  0  0  0  0  0  0  0  0  0  0
  -33.7130  -21.4109   25.8253 C   0  0  0  0  0  0  0  0  0  0  0  0
  -34.0883  -22.7614   25.2097 C   0  0  0  0  0  0  0  0  0  0  0  0
  -34.7225  -23.7272   26.2111 C   0  0  0  0  0  0  0  0  0  0  0  0
  -35.0246  -25.1018   25.6295 C   0  0  0  0  0  0  0  0  0  1  0  0
  -29.8035  -27.4602   19.0473 C   0  0  1  0  0  0  0  0  0  0  0  0
  -30.6758  -24.4619   16.8981 C   0  0  2  0  0  0  0  0  0  0  0  0
  -28.3832  -28.0905   18.9936 C   0  0  0  0  0  0  0  0  0  0  0  0
  -25.8750  -11.6042   20.2677 N   0  0  0  0  0  0  0  0  0  0  0  0
  -26.2547  -12.8908   20.1865 N   0  0  0  0  0  0  0  0  0  0  0  0
  -31.7615  -28.5333   20.1142 N   0  0  0  0  0  0  0  0  0  0  0  0
  -29.9909  -13.6580   20.3739 N   0  0  0  0  0  0  0  0  0  0  0  0
  -25.4995  -15.1087   20.5351 N   0  0  0  0  0  0  0  0  0  0  0  0
  -21.9222  -12.5988   21.6749 N   0  0  0  0  0  0  0  0  0  0  0  0
  -30.1242  -15.6902   21.5634 N   0  0  0  0  0  0  0  0  0  0  0  0
  -32.4038  -31.9773   20.7898 N   0  0  0  0  0  0  0  0  0  0  0  0
  -30.0870  -26.5324   17.9577 N   0  0  0  0  0  0  0  0  0  0  0  0
  -31.7459  -23.4415   17.0844 N   0  3  0  0  0  0  0  0  0  0  0  0
  -22.7016  -14.7458   21.4715 O   0  0  0  0  0  0  0  0  0  0  0  0
  -31.3190  -30.3216   22.0163 O   0  0  0  0  0  0  0  0  0  0  0  0
  -30.9842  -29.2522   18.0369 O   0  0  0  0  0  0  0  0  0  0  0  0
  -30.5493  -24.6983   19.2992 O   0  0  0  0  0  0  0  0  0  0  0  0
  -31.8804  -14.9814   20.2237 O   0  0  0  0  0  0  0  0  0  0  0  0
  -21.6308   -7.0366   21.5610 O   0  0  0  0  0  0  0  0  0  0  0  0
  -33.8007  -25.6948   25.1972 O   0  0  0  0  0  0  0  0  0  1  0  0
  -18.7020   -6.6992   26.2206 F   0  0  0  0  0  0  0  0  0  0  0  0
  -22.1000   -5.0156   23.3879 F   0  0  0  0  0  0  0  0  0  0  0  0
  1  2  1  0  0  0  0
  1  5  2  0  0  0  0
  2  6  2  0  0  0  0
  3 10  2  0  0  0  0
  3 18  1  0  0  0  0
  4 11  1  0  0  0  0
  4 18  2  0  0  0  0
  5 20  1  0  0  0  0
  6 22  1  0  0  0  0
  7 12  2  0  0  0  0
  7 21  1  0  0  0  0
  8  9  2  0  0  0  0
  8 24  1  0  0  0  0
  9 26  1  0  0  0  0
 10 27  1  0  0  0  0
 11 27  2  0  0  0  0
 12 28  1  0  0  0  0
 13 14  2  0  0  0  0
 13 29  1  0  0  0  0
 14 30  1  0  0  0  0
 15 23  1  0  0  0  0
 15 28  2  0  0  0  0
 16 24  2  0  0  0  0
 16 25  1  0  0  0  0
 17 30  2  0  0  0  0
 17 31  1  0  0  0  0
 18 32  1  0  0  0  0
 19 32  1  0  0  0  0
 19 33  2  0  0  0  0
 19 34  1  0  0  0  0
 20 22  2  0  0  0  0
 20 39  1  0  0  0  0
 21 23  2  0  0  0  0
 21 40  1  0  0  0  0
 22 48  1  0  0  0  0
 23 41  1  0  0  0  0
 24 57  1  0  0  0  0
 25 26  2  0  0  0  0
 25 58  1  0  0  0  0
 26 73  1  0  0  0  0
 27 82  1  0  0  0  0
 28 83  1  0  0  0  0
 29 31  2  0  0  0  0
 29 82  1  0  0  0  0
 30 84  1  0  0  0  0
 31 85  1  0  0  0  0
 32 67  2  0  0  0  0
 33 68  1  0  0  0  0
 33 71  1  0  0  0  0
 34 72  1  0  0  0  0
 34 77  2  0  0  0  0
 35 49  1  0  0  0  0
 35 74  1  0  0  0  0
 35 78  2  0  0  0  0
 36 64  1  0  0  0  0
 36 69  1  0  0  0  0
 36 79  2  0  0  0  0
 37 65  1  0  0  0  0
 37 75  1  0  0  0  0
 37 80  2  0  0  0  0
 38 70  1  0  0  0  0
 38 73  1  0  0  0  0
 38 81  2  0  0  0  0
 39 42  1  0  0  0  0
 40 49  1  0  0  0  0
 41 69  1  0  0  0  0
 42 44  1  0  0  0  0
 43 45  1  0  0  0  0
 43 46  1  0  0  0  0
 44 48  1  0  0  0  0
 45 50  1  0  0  0  0
 46 70  1  0  0  0  0
 47 50  1  0  0  0  0
 47 70  1  0  0  0  0
 48 74  1  0  0  0  0
 49 69  1  0  0  0  0
 50 68  1  0  0  0  0
 51 58  1  0  0  0  0
 52 65  1  0  0  0  0
 53 66  1  0  0  0  0
 54 66  1  0  0  0  0
 55 66  1  0  0  0  0
 56 76  1  0  0  0  0
 57 59  1  0  0  0  0
 59 60  1  0  0  0  0
 60 61  1  0  0  0  0
 61 62  1  0  0  0  0
 62 63  1  0  0  0  0
 63 83  1  0  0  0  0
 64 66  1  0  0  0  0
 64 75  1  0  0  0  0
 65 76  1  0  0  0  0
 67 68  1  0  0  0  0
M  CHG  1  76   1
M  ISO  4  38 100  63 101  73 100  83 101
M  END
> <Batch ID>
0133

> <Smiles>
CCc1cc(CCCCC[101CH2:1][101O:1]c2ccc3c(c2)CN(C(=O)C(NC(=O)C(C)NC)C(C)(C)C)C(C(=O)NC2CCCc4ccccc42)C3)ccc1[100NH:0][100C:0](=O)N1CCCC(n2nc(-c3ccc(Oc4ccc(F)cc4F)cc3)c(C(N)=O)c2N)C1

> <Shape>
0.225

> <Color>
0.206

> <Negative vol penalty>
0.000

$$$$

  -OEChem-04052302303D

 83 91  0     1  0  0  0  0  0999 V2000
  -28.6573  -26.2453   27.5158 C   0  0  0  0  0  0  0  0  0  0  0  0
  -29.7167  -25.4107   27.1744 C   0  0  0  0  0  0  0  0  0  0  0  0
  -23.0662   -9.8677   19.9440 C   0  0  0  0  0  0  0  0  0  0  0  0
  -23.8245   -9.8743   22.2379 C   0  0  0  0  0  0  0  0  0  0  0  0
  -27.4855  -26.2269   26.7605 C   0  0  0  0  0  0  0  0  0  0  0  0
  -29.6044  -24.5563   26.0781 C   0  0  0  0  0  0  0  0  0  0  0  0
  -34.0677  -22.9106   22.2210 C   0  0  0  0  0  0  0  0  0  0  0  0
  -30.5327  -18.3100   24.0422 C   0  0  0  0  0  0  0  0  0  0  0  0
  -22.3162   -8.7188   20.1952 C   0  0  0  0  0  0  0  0  0  0  0  0
  -23.0744   -8.7254   22.4891 C   0  0  0  0  0  0  0  0  0  0  0  0
  -34.8741  -21.7756   22.1492 C   0  0  0  0  0  0  0  0  0  0  0  0
  -31.9200  -18.3062   24.1872 C   0  0  0  0  0  0  0  0  0  0  0  0
  -19.8418   -7.9453   23.0906 C   0  0  0  0  0  0  0  0  0  0  0  0
  -19.0838   -7.9111   24.2610 C   0  0  0  0  0  0  0  0  0  0  0  0
  -33.3677  -20.8152   20.5282 C   0  0  0  0  0  0  0  0  0  0  0  0
  -32.0878  -16.5519   22.5345 C   0  0  0  0  0  0  0  0  0  0  0  0
  -20.3146   -5.9684   25.0013 C   0  0  0  0  0  0  0  0  0  0  0  0
  -23.8204  -10.4455   20.9653 C   0  0  0  0  0  0  0  0  0  0  0  0
  -24.1754  -12.9686   20.8416 C   0  0  0  0  0  0  0  0  0  0  0  0
  -27.3624  -25.3788   25.6486 C   0  0  0  0  0  0  0  0  0  0  0  0
  -32.8974  -23.0020   21.4539 C   0  0  0  0  0  0  0  0  0  0  0  0
  -28.4294  -24.5256   25.3081 C   0  0  0  0  0  0  0  0  0  0  0  0
  -32.5495  -21.9536   20.5902 C   0  0  0  0  0  0  0  0  0  0  0  0
  -29.9230  -17.4347   23.1435 C   0  0  0  0  0  0  0  0  0  0  0  0
  -30.7005  -16.5557   22.3896 C   0  0  0  0  0  0  0  0  0  0  0  0
  -22.3203   -8.1477   21.4678 C   0  0  0  0  0  0  0  0  0  0  0  0
  -34.5227  -20.7265   21.3049 C   0  0  0  0  0  0  0  0  0  0  0  0
  -32.6976  -17.4271   23.4333 C   0  0  0  0  0  0  0  0  0  0  0  0
  -20.8361   -6.9910   22.8755 C   0  0  0  0  0  0  0  0  0  0  0  0
  -19.3202   -6.9227   25.2164 C   0  0  0  0  0  0  0  0  0  0  0  0
  -21.0726   -6.0026   23.8309 C   0  0  0  0  0  0  0  0  0  0  0  0
  -24.5958  -11.6319   20.7063 C   0  0  0  0  0  0  0  0  0  0  0  0
  -25.2717  -13.7119   20.4779 C   0  0  0  0  0  0  0  0  0  0  0  0
  -22.9073  -13.4917   21.2588 C   0  0  0  0  0  0  0  0  0  0  0  0
  -29.7998  -23.2775   22.1116 C   0  0  0  0  0  0  0  0  0  0  0  0
  -29.5439  -23.6025   18.8943 C   0  0  0  0  0  0  0  0  0  0  0  0
  -30.8727  -23.0082   15.8076 C   0  0  0  0  0  0  0  0  0  0  0  0
  -30.7431  -14.7294   20.6549 C   0  0  0  0  0  0  0  0  0  0  0  0
  -26.0585  -25.3598   24.8909 C   0  0  0  0  0  0  0  0  0  0  0  0
  -32.0524  -24.2444   21.5227 C   0  0  0  0  0  0  0  0  0  0  0  0
  -31.3141  -22.0111   19.7306 C   0  0  0  0  0  0  0  0  0  0  0  0
  -26.1603  -24.6961   23.5200 C   0  0  0  0  0  0  0  0  0  0  0  0
  -29.6178  -12.3177   18.2896 C   0  0  0  0  0  0  0  0  0  0  0  0
  -26.9197  -23.3770   23.6207 C   0  0  0  0  0  0  0  0  0  0  0  0
  -28.1764  -12.0342   18.7186 C   0  0  0  0  0  0  0  0  0  0  0  0
  -30.5333  -12.5436   19.4915 C   0  0  0  0  0  0  0  0  0  0  0  0
  -28.6291  -13.2801   20.8703 C   0  0  0  0  0  0  0  0  0  0  0  0
  -28.3550  -23.6027   24.1110 C   0  0  1  0  0  0  0  0  0  0  0  0
  -30.6107  -24.0117   21.0816 C   0  0  1  0  0  0  0  0  0  0  0  0
  -27.6563  -13.1101   19.6921 C   0  0  2  0  0  0  0  0  0  0  0  0
  -28.4350  -17.4609   23.0090 C   0  0  0  0  0  0  0  0  0  0  0  0
  -30.4161  -23.3605   13.3653 C   0  0  0  0  0  0  0  0  0  0  0  0
  -36.9717  -17.3265   23.7388 C   0  0  0  0  0  0  0  0  0  0  0  0
  -27.4892  -21.3476   18.9556 C   0  0  0  0  0  0  0  0  0  0  0  0
  -27.7839  -21.1057   16.4812 C   0  0  0  0  0  0  0  0  0  0  0  0
  -26.9132  -23.2427   17.4287 C   0  0  0  0  0  0  0  0  0  0  0  0
  -33.3228  -24.6325   15.4650 C   0  0  0  0  0  0  0  0  0  0  0  0
  -36.0367  -19.2606   22.4071 C   0  0  0  0  0  0  0  0  0  1  0  0
  -34.8238  -17.0604   22.4330 C   0  0  0  0  0  0  0  0  0  0  0  0
  -29.3526  -22.6537   17.7358 C   0  0  1  0  0  0  0  0  0  0  0  0
  -31.0871  -23.9176   14.6111 C   0  0  2  0  0  0  0  0  0  0  0  0
  -36.1955  -17.7394   22.4823 C   0  0  2  0  0  0  0  0  0  0  0  0
  -27.9070  -22.0852   17.6679 C   0  0  0  0  0  0  0  0  0  0  0  0
  -25.8605  -11.5289   20.2890 N   0  0  0  0  0  0  0  0  0  0  0  0
  -26.2441  -12.8103   20.1590 N   0  0  0  0  0  0  0  0  0  0  0  0
  -30.5170  -23.2442   19.8380 N   0  0  0  0  0  0  0  0  0  0  0  0
  -29.9790  -13.5787   20.3669 N   0  0  0  0  0  0  0  0  0  0  0  0
  -25.4890  -15.0421   20.4030 N   0  0  0  0  0  0  0  0  0  0  0  0
  -21.8904  -12.5883   21.5968 N   0  0  0  0  0  0  0  0  0  0  0  0
  -30.0999  -15.6591   21.4714 N   0  0  0  0  0  0  0  0  0  0  0  0
  -29.1843  -24.1011   23.0348 N   0  0  0  0  0  0  0  0  0  0  0  0
  -29.7656  -23.3807   16.5403 N   0  0  0  0  0  0  0  0  0  0  0  0
  -32.5429  -24.0716   14.3319 N   0  3  0  0  0  0  0  0  0  0  0  0
  -22.6774  -14.7236   21.3140 O   0  0  0  0  0  0  0  0  0  0  0  0
  -29.7360  -22.0544   22.0710 O   0  0  0  0  0  0  0  0  0  0  0  0
  -28.8603  -24.6274   18.9558 O   0  0  0  0  0  0  0  0  0  0  0  0
  -31.6111  -22.0598   16.0642 O   0  0  0  0  0  0  0  0  0  0  0  0
  -31.8734  -14.8915   20.1878 O   0  0  0  0  0  0  0  0  0  0  0  0
  -21.5883   -7.0268   21.7133 O   0  0  0  0  0  0  0  0  0  0  0  0
  -35.3077  -19.6172   21.2333 O   0  0  0  0  0  0  0  0  0  1  0  0
  -34.0606  -17.4237   23.5760 O   0  0  0  0  0  0  0  0  0  0  0  0
  -18.5933   -6.8910   26.3410 F   0  0  0  0  0  0  0  0  0  0  0  0
  -22.0273   -5.0838   23.6304 F   0  0  0  0  0  0  0  0  0  0  0  0
  1  2  1  0  0  0  0
  1  5  2  0  0  0  0
  2  6  2  0  0  0  0
  3  9  2  0  0  0  0
  3 18  1  0  0  0  0
  4 10  1  0  0  0  0
  4 18  2  0  0  0  0
  5 20  1  0  0  0  0
  6 22  1  0  0  0  0
  7 11  2  0  0  0  0
  7 21  1  0  0  0  0
  8 12  2  0  0  0  0
  8 24  1  0  0  0  0
  9 26  1  0  0  0  0
 10 26  2  0  0  0  0
 11 27  1  0  0  0  0
 12 28  1  0  0  0  0
 13 14  2  0  0  0  0
 13 29  1  0  0  0  0
 14 30  1  0  0  0  0
 15 23  1  0  0  0  0
 15 27  2  0  0  0  0
 16 25  1  0  0  0  0
 16 28  2  0  0  0  0
 17 30  2  0  0  0  0
 17 31  1  0  0  0  0
 18 32  1  0  0  0  0
 19 32  1  0  0  0  0
 19 33  2  0  0  0  0
 19 34  1  0  0  0  0
 20 22  2  0  0  0  0
 20 39  1  0  0  0  0
 21 23  2  0  0  0  0
 21 40  1  0  0  0  0
 22 48  1  0  0  0  0
 23 41  1  0  0  0  0
 24 25  2  0  0  0  0
 24 51  1  0  0  0  0
 25 70  1  0  0  0  0
 26 79  1  0  0  0  0
 27 80  1  0  0  0  0
 28 81  1  0  0  0  0
 29 31  2  0  0  0  0
 29 79  1  0  0  0  0
 30 82  1  0  0  0  0
 31 83  1  0  0  0  0
 32 64  2  0  0  0  0
 33 65  1  0  0  0  0
 33 68  1  0  0  0  0
 34 69  1  0  0  0  0
 34 74  2  0  0  0  0
 35 49  1  0  0  0  0
 35 71  1  0  0  0  0
 35 75  2  0  0  0  0
 36 60  1  0  0  0  0
 36 66  1  0  0  0  0
 36 76  2  0  0  0  0
 37 61  1  0  0  0  0
 37 72  1  0  0  0  0
 37 77  2  0  0  0  0
 38 67  1  0  0  0  0
 38 70  1  0  0  0  0
 38 78  2  0  0  0  0
 39 42  1  0  0  0  0
 40 49  1  0  0  0  0
 41 66  1  0  0  0  0
 42 44  1  0  0  0  0
 43 45  1  0  0  0  0
 43 46  1  0  0  0  0
 44 48  1  0  0  0  0
 45 50  1  0  0  0  0
 46 67  1  0  0  0  0
 47 50  1  0  0  0  0
 47 67  1  0  0  0  0
 48 71  1  0  0  0  0
 49 66  1  0  0  0  0
 50 65  1  0  0  0  0
 52 61  1  0  0  0  0
 53 62  1  0  0  0  0
 54 63  1  0  0  0  0
 55 63  1  0  0  0  0
 56 63  1  0  0  0  0
 57 73  1  0  0  0  0
 58 62  1  0  0  0  0
 58 80  1  0  0  0  0
 59 62  1  0  0  0  0
 59 81  1  0  0  0  0
 60 63  1  0  0  0  0
 60 72  1  0  0  0  0
 61 73  1  0  0  0  0
 64 65  1  0  0  0  0
M  CHG  1  73   1
M  ISO  4  38 100  58 101  70 100  80 101
M  END
> <Batch ID>
0133

> <Smiles>
CNC(C)C(=O)NC(C(=O)N1Cc2cc([101O:1][101CH2:1]C(C)COc3ccc(C)c([100NH:0][100C:0](=O)N4CCCC(n5nc(-c6ccc(Oc7ccc(F)cc7F)cc6)c(C(N)=O)c5N)C4)c3)ccc2CC1C(=O)NC1CCCc2ccccc21)C(C)(C)C

> <Shape>
0.214

> <Color>
0.193

> <Negative vol penalty>
0.000

$$$$

  -OEChem-04052302303D

 87 95  0     1  0  0  0  0  0999 V2000
  -23.6634  -20.6859   24.8670 C   0  0  0  0  0  0  0  0  0  0  0  0
  -24.9001  -21.2784   24.6325 C   0  0  0  0  0  0  0  0  0  0  0  0
  -23.1333   -9.7878   19.9387 C   0  0  0  0  0  0  0  0  0  0  0  0
  -23.8366   -9.8698   22.2487 C   0  0  0  0  0  0  0  0  0  0  0  0
  -22.4982  -21.3058   24.4173 C   0  0  0  0  0  0  0  0  0  0  0  0
  -24.9724  -22.4905   23.9470 C   0  0  0  0  0  0  0  0  0  0  0  0
  -28.1452  -25.7743   26.1368 C   0  0  0  0  0  0  0  0  0  0  0  0
  -31.1823  -19.1715   20.5376 C   0  0  0  0  0  0  0  0  0  0  0  0
  -31.0293  -17.7856   20.5771 C   0  0  0  0  0  0  0  0  0  0  0  0
  -22.4079   -8.6257   20.2008 C   0  0  0  0  0  0  0  0  0  0  0  0
  -23.1110   -8.7076   22.5108 C   0  0  0  0  0  0  0  0  0  0  0  0
  -29.5093  -25.5805   25.9235 C   0  0  0  0  0  0  0  0  0  0  0  0
  -19.8865   -7.8561   23.0565 C   0  0  0  0  0  0  0  0  0  0  0  0
  -19.1021   -7.8298   24.2095 C   0  0  0  0  0  0  0  0  0  0  0  0
  -29.4832  -27.3012   24.2330 C   0  0  0  0  0  0  0  0  0  0  0  0
  -29.5085  -19.4056   22.2640 C   0  0  0  0  0  0  0  0  0  0  0  0
  -20.3654   -5.9390   25.0257 C   0  0  0  0  0  0  0  0  0  0  0  0
  -23.8477  -10.4099   20.9627 C   0  0  0  0  0  0  0  0  0  0  0  0
  -24.1395  -12.9379   20.7851 C   0  0  0  0  0  0  0  0  0  0  0  0
  -22.5557  -22.5309   23.7344 C   0  0  0  0  0  0  0  0  0  0  0  0
  -27.4364  -26.7270   25.3909 C   0  0  0  0  0  0  0  0  0  0  0  0
  -23.8071  -23.1266   23.4865 C   0  0  0  0  0  0  0  0  0  0  0  0
  -28.1107  -27.5069   24.4405 C   0  0  0  0  0  0  0  0  0  0  0  0
  -30.4220  -19.9815   21.3811 C   0  0  0  0  0  0  0  0  0  0  0  0
  -29.3555  -18.0197   22.3035 C   0  0  0  0  0  0  0  0  0  0  0  0
  -30.1159  -17.2097   21.4600 C   0  0  0  0  0  0  0  0  0  0  0  0
  -22.3967   -8.0856   21.4868 C   0  0  0  0  0  0  0  0  0  0  0  0
  -30.1779  -26.3420   24.9694 C   0  0  0  0  0  0  0  0  0  0  0  0
  -20.9103   -6.9238   22.8879 C   0  0  0  0  0  0  0  0  0  0  0  0
  -19.3416   -6.8712   25.1942 C   0  0  0  0  0  0  0  0  0  0  0  0
  -21.1498   -5.9653   23.8726 C   0  0  0  0  0  0  0  0  0  0  0  0
  -24.5978  -11.6101   20.6924 C   0  0  0  0  0  0  0  0  0  0  0  0
  -25.2243  -13.7012   20.4286 C   0  0  0  0  0  0  0  0  0  0  0  0
  -22.8486  -13.4368   21.1599 C   0  0  0  0  0  0  0  0  0  0  0  0
  -25.0059  -26.6189   23.3453 C   0  0  0  0  0  0  0  0  0  0  0  0
  -25.2374  -29.8506   23.5026 C   0  0  0  0  0  0  0  0  0  0  0  0
  -27.1698  -32.5889   24.1466 C   0  0  0  0  0  0  0  0  0  0  0  0
  -30.6615  -14.8685   20.7067 C   0  0  0  0  0  0  0  0  0  0  0  0
  -21.2727  -23.1394   23.2260 C   0  0  0  0  0  0  0  0  0  0  0  0
  -25.9709  -26.9426   25.6518 C   0  0  0  0  0  0  0  0  0  0  0  0
  -27.3998  -28.5569   23.6277 C   0  0  0  0  0  0  0  0  0  0  0  0
  -21.4083  -24.6090   22.8359 C   0  0  0  0  0  0  0  0  0  0  0  0
  -29.6561  -12.3715   18.3762 C   0  0  0  0  0  0  0  0  0  0  0  0
  -22.6578  -24.8231   21.9875 C   0  0  0  0  0  0  0  0  0  0  0  0
  -28.2128  -12.0600   18.7787 C   0  0  0  0  0  0  0  0  0  0  0  0
  -30.5366  -12.6506   19.5930 C   0  0  0  0  0  0  0  0  0  0  0  0
  -28.5816  -13.3689   20.9089 C   0  0  0  0  0  0  0  0  0  0  0  0
  -23.9248  -24.4535   22.7683 C   0  0  1  0  0  0  0  0  0  0  0  0
  -25.2420  -27.5821   24.4740 C   0  0  1  0  0  0  0  0  0  0  0  0
  -27.6418  -13.1446   19.7131 C   0  0  2  0  0  0  0  0  0  0  0  0
  -28.3673  -17.4302   23.2572 C   0  0  0  0  0  0  0  0  0  0  0  0
  -34.9943  -25.1960   21.2110 C   0  0  0  0  0  0  0  0  0  0  0  0
  -27.0926  -35.0971   24.1522 C   0  0  0  0  0  0  0  0  0  0  0  0
  -25.4207  -29.8607   20.4569 C   0  0  0  0  0  0  0  0  0  0  0  0
  -26.2804  -32.2086   20.5860 C   0  0  0  0  0  0  0  0  0  0  0  0
  -23.9921  -31.6723   21.4221 C   0  0  0  0  0  0  0  0  0  0  0  0
  -34.3391  -25.8900   24.1583 C   0  0  0  0  0  0  0  0  0  0  0  0
  -27.7562  -32.7161   27.0447 C   0  0  0  0  0  0  0  0  0  0  0  0
  -30.5858  -21.4799   21.3365 C   0  0  0  0  0  0  0  0  0  0  0  0
  -33.7316  -25.9029   21.6915 C   0  0  0  0  0  0  0  0  0  0  0  0
  -31.6519  -22.0144   22.2995 C   0  0  0  0  0  0  0  0  0  0  0  0
  -31.8568  -23.5305   22.1856 C   0  0  0  0  0  0  0  0  0  0  0  0
  -32.9085  -24.0199   23.1918 C   0  0  0  0  0  0  0  0  0  0  0  0
  -32.0021  -26.4100   23.4451 C   0  0  0  0  0  0  0  0  0  1  0  0
  -26.0061  -30.9056   22.7442 C   0  0  1  0  0  0  0  0  0  0  0  0
  -26.9095  -33.8327   24.9771 C   0  0  2  0  0  0  0  0  0  0  0  0
  -25.4381  -31.1407   21.3161 C   0  0  0  0  0  0  0  0  0  0  0  0
  -33.2453  -25.5397   23.1299 C   0  0  1  0  0  0  0  0  0  0  0  0
  -25.8743  -11.5309   20.3072 N   0  0  0  0  0  0  0  0  0  0  0  0
  -26.2272  -12.8186   20.1545 N   0  0  0  0  0  0  0  0  0  0  0  0
  -25.9658  -28.7258   23.9150 N   0  0  0  0  0  0  0  0  0  0  0  0
  -29.9348  -13.6912   20.4296 N   0  0  0  0  0  0  0  0  0  0  0  0
  -25.4085  -15.0346   20.3260 N   0  0  0  0  0  0  0  0  0  0  0  0
  -21.8480  -12.5149   21.4964 N   0  0  0  0  0  0  0  0  0  0  0  0
  -29.9750  -15.8000   21.4850 N   0  0  0  0  0  0  0  0  0  0  0  0
  -24.2688  -25.5055   23.7007 N   0  0  0  0  0  0  0  0  0  0  0  0
  -26.0094  -32.0948   23.5893 N   0  0  0  0  0  0  0  0  0  0  0  0
  -27.8456  -33.8874   26.1353 N   0  3  0  0  0  0  0  0  0  0  0  0
  -22.5853  -14.6630   21.1794 O   0  0  0  0  0  0  0  0  0  0  0  0
  -25.4577  -26.8681   22.2338 O   0  0  0  0  0  0  0  0  0  0  0  0
  -24.0366  -30.0217   23.7273 O   0  0  0  0  0  0  0  0  0  0  0  0
  -28.2910  -32.1062   24.0033 O   0  0  0  0  0  0  0  0  0  0  0  0
  -31.7979  -15.0495   20.2620 O   0  0  0  0  0  0  0  0  0  0  0  0
  -21.6887   -6.9517   21.7429 O   0  0  0  0  0  0  0  0  0  0  0  0
  -31.5186  -26.1531   24.7572 O   0  0  0  0  0  0  0  0  0  1  0  0
  -18.5892   -6.8471   26.3022 F   0  0  0  0  0  0  0  0  0  0  0  0
  -22.1327   -5.0678   23.7169 F   0  0  0  0  0  0  0  0  0  0  0  0
  1  2  1  0  0  0  0
  1  5  2  0  0  0  0
  2  6  2  0  0  0  0
  3 10  2  0  0  0  0
  3 18  1  0  0  0  0
  4 11  1  0  0  0  0
  4 18  2  0  0  0  0
  5 20  1  0  0  0  0
  6 22  1  0  0  0  0
  7 12  2  0  0  0  0
  7 21  1  0  0  0  0
  8  9  2  0  0  0  0
  8 24  1  0  0  0  0
  9 26  1  0  0  0  0
 10 27  1  0  0  0  0
 11 27  2  0  0  0  0
 12 28  1  0  0  0  0
 13 14  2  0  0  0  0
 13 29  1  0  0  0  0
 14 30  1  0  0  0  0
 15 23  1  0  0  0  0
 15 28  2  0  0  0  0
 16 24  2  0  0  0  0
 16 25  1  0  0  0  0
 17 30  2  0  0  0  0
 17 31  1  0  0  0  0
 18 32  1  0  0  0  0
 19 32  1  0  0  0  0
 19 33  2  0  0  0  0
 19 34  1  0  0  0  0
 20 22  2  0  0  0  0
 20 39  1  0  0  0  0
 21 23  2  0  0  0  0
 21 40  1  0  0  0  0
 22 48  1  0  0  0  0
 23 41  1  0  0  0  0
 24 59  1  0  0  0  0
 25 26  2  0  0  0  0
 25 51  1  0  0  0  0
 26 75  1  0  0  0  0
 27 84  1  0  0  0  0
 28 85  1  0  0  0  0
 29 31  2  0  0  0  0
 29 84  1  0  0  0  0
 30 86  1  0  0  0  0
 31 87  1  0  0  0  0
 32 69  2  0  0  0  0
 33 70  1  0  0  0  0
 33 73  1  0  0  0  0
 34 74  1  0  0  0  0
 34 79  2  0  0  0  0
 35 49  1  0  0  0  0
 35 76  1  0  0  0  0
 35 80  2  0  0  0  0
 36 65  1  0  0  0  0
 36 71  1  0  0  0  0
 36 81  2  0  0  0  0
 37 66  1  0  0  0  0
 37 77  1  0  0  0  0
 37 82  2  0  0  0  0
 38 72  1  0  0  0  0
 38 75  1  0  0  0  0
 38 83  2  0  0  0  0
 39 42  1  0  0  0  0
 40 49  1  0  0  0  0
 41 71  1  0  0  0  0
 42 44  1  0  0  0  0
 43 45  1  0  0  0  0
 43 46  1  0  0  0  0
 44 48  1  0  0  0  0
 45 50  1  0  0  0  0
 46 72  1  0  0  0  0
 47 50  1  0  0  0  0
 47 72  1  0  0  0  0
 48 76  1  0  0  0  0
 49 71  1  0  0  0  0
 50 70  1  0  0  0  0
 52 60  1  0  0  0  0
 53 66  1  0  0  0  0
 54 67  1  0  0  0  0
 55 67  1  0  0  0  0
 56 67  1  0  0  0  0
 57 68  1  0  0  0  0
 58 78  1  0  0  0  0
 59 61  1  0  0  0  0
 60 68  1  0  0  0  0
 61 62  1  0  0  0  0
 62 63  1  0  0  0  0
 63 68  1  0  0  0  0
 64 68  1  0  0  0  0
 64 85  1  0  0  0  0
 65 67  1  0  0  0  0
 65 77  1  0  0  0  0
 66 78  1  0  0  0  0
 69 70  1  0  0  0  0
M  CHG  1  78   1
M  ISO  4  38 100  64 101  75 100  85 101
M  END
> <Batch ID>
0133

> <Smiles>
CCC(C)(CCCCc1ccc([100NH:0][100C:0](=O)N2CCCC(n3nc(-c4ccc(Oc5ccc(F)cc5F)cc4)c(C(N)=O)c3N)C2)c(C)c1)[101CH2:1][101O:1]c1ccc2c(c1)CN(C(=O)C(NC(=O)C(C)NC)C(C)(C)C)C(C(=O)NC1CCCc3ccccc31)C2

> <Shape>
0.264

> <Color>
0.186

> <Negative vol penalty>
0.000

$$$$

  -OEChem-04052302303D

 84 92  0     1  0  0  0  0  0999 V2000
  -26.6743  -23.7970   17.2028 C   0  0  0  0  0  0  0  0  0  0  0  0
  -25.5575  -24.2373   17.9059 C   0  0  0  0  0  0  0  0  0  0  0  0
  -26.9761  -13.4786   20.7999 C   0  0  0  0  0  0  0  0  0  0  0  0
  -24.6196  -14.0095   20.8448 C   0  0  0  0  0  0  0  0  0  0  0  0
  -27.9527  -24.1332   17.6459 C   0  0  0  0  0  0  0  0  0  0  0  0
  -25.7186  -25.0134   19.0532 C   0  0  0  0  0  0  0  0  0  0  0  0
  -22.5637  -28.9726   19.1794 C   0  0  0  0  0  0  0  0  0  0  0  0
  -21.0433  -22.6648   21.6185 C   0  0  0  0  0  0  0  0  0  0  0  0
  -22.0596  -21.7807   21.9804 C   0  0  0  0  0  0  0  0  0  0  0  0
  -26.6985  -12.2043   21.2946 C   0  0  0  0  0  0  0  0  0  0  0  0
  -24.3419  -12.7352   21.3394 C   0  0  0  0  0  0  0  0  0  0  0  0
  -21.2415  -28.7218   19.5435 C   0  0  0  0  0  0  0  0  0  0  0  0
  -22.9776   -9.4972   22.2733 C   0  0  0  0  0  0  0  0  0  0  0  0
  -21.9133   -8.7977   21.7045 C   0  0  0  0  0  0  0  0  0  0  0  0
  -21.7154  -29.4995   21.7773 C   0  0  0  0  0  0  0  0  0  0  0  0
  -23.6166  -23.6235   22.1100 C   0  0  0  0  0  0  0  0  0  0  0  0
  -23.0016   -8.8942   19.5497 C   0  0  0  0  0  0  0  0  0  0  0  0
  -25.9367  -14.3813   20.5751 C   0  0  0  0  0  0  0  0  0  0  0  0
  -26.2857  -16.0912   18.7144 C   0  0  0  0  0  0  0  0  0  0  0  0
  -28.1294  -24.9219   18.7937 C   0  0  0  0  0  0  0  0  0  0  0  0
  -23.4760  -29.4794   20.1161 C   0  0  0  0  0  0  0  0  0  0  0  0
  -27.0007  -25.3594   19.5128 C   0  0  0  0  0  0  0  0  0  0  0  0
  -23.0480  -29.7583   21.4219 C   0  0  0  0  0  0  0  0  0  0  0  0
  -21.3137  -24.0283   21.5023 C   0  0  0  0  0  0  0  0  0  0  0  0
  -22.6003  -24.5076   21.7481 C   0  0  0  0  0  0  0  0  0  0  0  0
  -23.3463  -22.2600   22.2262 C   0  0  0  0  0  0  0  0  0  0  0  0
  -25.3814  -11.8326   21.5643 C   0  0  0  0  0  0  0  0  0  0  0  0
  -20.8179  -28.9825   20.8434 C   0  0  0  0  0  0  0  0  0  0  0  0
  -24.0539   -9.8954   21.4803 C   0  0  0  0  0  0  0  0  0  0  0  0
  -21.9254   -8.4962   20.3427 C   0  0  0  0  0  0  0  0  0  0  0  0
  -24.0659   -9.5938   20.1185 C   0  0  0  0  0  0  0  0  0  0  0  0
  -26.2230  -15.6980   20.0647 C   0  0  0  0  0  0  0  0  0  0  0  0
  -26.5874  -17.4303   18.7604 C   0  0  0  0  0  0  0  0  0  0  0  0
  -17.2292  -25.9474   20.9178 C   0  0  0  0  0  0  0  0  0  0  0  0
  -26.0887  -15.3153   17.5249 C   0  0  0  0  0  0  0  0  0  0  0  0
  -18.1104  -26.2326   21.8909 C   0  0  0  0  0  0  0  0  0  0  0  0
  -26.1894  -28.4318   21.3982 C   0  0  0  0  0  0  0  0  0  0  0  0
  -26.2524  -31.3927   22.7216 C   0  0  0  0  0  0  0  0  0  0  0  0
  -24.5174  -34.1539   23.7278 C   0  0  0  0  0  0  0  0  0  0  0  0
  -25.7089  -21.6737   22.8747 C   0  0  0  0  0  0  0  0  0  0  0  0
  -29.5321  -25.2201   19.2608 C   0  0  0  0  0  0  0  0  0  0  0  0
  -24.8921  -29.7696   19.7002 C   0  0  0  0  0  0  0  0  0  0  0  0
  -23.9830  -30.3218   22.4595 C   0  0  0  0  0  0  0  0  0  0  0  0
  -29.6075  -26.3596   20.2737 C   0  0  0  0  0  0  0  0  0  0  0  0
  -28.8284  -20.6727   21.4805 C   0  0  0  0  0  0  0  0  0  0  0  0
  -28.5428  -26.1865   21.3522 C   0  0  0  0  0  0  0  0  0  0  0  0
  -28.5186  -19.3220   20.8311 C   0  0  0  0  0  0  0  0  0  0  0  0
  -28.0569  -20.8651   22.7849 C   0  0  0  0  0  0  0  0  0  0  0  0
  -26.2958  -19.3149   22.0336 C   0  0  0  0  0  0  0  0  0  0  0  0
  -27.1340  -26.2237   20.7478 C   0  0  1  0  0  0  0  0  0  0  0  0
  -25.8650  -29.8024   20.8749 C   0  0  1  0  0  0  0  0  0  0  0  0
  -27.0001  -19.1028   20.6836 C   0  0  2  0  0  0  0  0  0  0  0  0
  -22.9126  -25.9635   21.6319 C   0  0  0  0  0  0  0  0  0  0  0  0
  -24.8377  -36.3963   24.8079 C   0  0  0  0  0  0  0  0  0  0  0  0
  -26.5779  -30.0364   25.4353 C   0  0  0  0  0  0  0  0  0  0  0  0
  -25.9427  -32.2033   26.5166 C   0  0  0  0  0  0  0  0  0  0  0  0
  -27.9973  -32.0693   25.1082 C   0  0  0  0  0  0  0  0  0  0  0  0
  -23.4744  -35.5768   21.3516 C   0  0  0  0  0  0  0  0  0  0  0  0
  -20.1982  -24.9650   21.1088 C   0  0  0  0  0  0  0  0  0  0  0  0
  -19.2118  -25.2563   22.2485 C   0  0  0  0  0  0  0  0  0  0  0  0
  -18.0234  -27.5348   22.6589 C   0  0  0  0  0  0  0  0  0  0  0  0
  -19.2881  -28.3828   22.5627 C   0  0  0  0  0  0  0  0  0  1  0  0
  -25.7269  -32.0048   23.9976 C   0  0  1  0  0  0  0  0  0  0  0  0
  -24.7570  -35.6346   23.4941 C   0  0  2  0  0  0  0  0  0  0  0  0
  -26.5438  -31.5660   25.2456 C   0  0  0  0  0  0  0  0  0  0  0  0
  -26.4655  -16.7058   20.9070 N   0  0  0  0  0  0  0  0  0  0  0  0
  -26.6837  -17.7455   20.0839 N   0  0  0  0  0  0  0  0  0  0  0  0
  -25.3592  -30.5827   22.0061 N   0  0  0  0  0  0  0  0  0  0  0  0
  -26.6253  -20.6458   22.5675 N   0  0  0  0  0  0  0  0  0  0  0  0
  -26.7772  -18.3572   17.7975 N   0  0  0  0  0  0  0  0  0  0  0  0
  -25.7852  -13.9535   17.6580 N   0  0  0  0  0  0  0  0  0  0  0  0
  -24.3785  -21.3624   22.5957 N   0  0  0  0  0  0  0  0  0  0  0  0
  -26.7449  -27.5869   20.4564 N   0  0  0  0  0  0  0  0  0  0  0  0
  -25.7001  -33.4468   23.7778 N   0  0  0  0  0  0  0  0  0  0  0  0
  -23.6518  -36.2161   22.6808 N   0  3  0  0  0  0  0  0  0  0  0  0
  -26.1953  -15.8112   16.3776 O   0  0  0  0  0  0  0  0  0  0  0  0
  -25.9545  -28.1613   22.5701 O   0  0  0  0  0  0  0  0  0  0  0  0
  -27.4102  -31.6305   22.3689 O   0  0  0  0  0  0  0  0  0  0  0  0
  -23.3936  -33.6732   23.8571 O   0  0  0  0  0  0  0  0  0  0  0  0
  -26.0800  -22.7608   23.3247 O   0  0  0  0  0  0  0  0  0  0  0  0
  -25.1101  -10.5891   22.0467 O   0  0  0  0  0  0  0  0  0  0  0  0
  -19.5280  -28.7380   21.2016 O   0  0  0  0  0  0  0  0  0  1  0  0
  -20.9040   -7.8230   19.7969 F   0  0  0  0  0  0  0  0  0  0  0  0
  -25.0976   -9.9726   19.3518 F   0  0  0  0  0  0  0  0  0  0  0  0
  1  2  1  0  0  0  0
  1  5  2  0  0  0  0
  2  6  2  0  0  0  0
  3 10  2  0  0  0  0
  3 18  1  0  0  0  0
  4 11  1  0  0  0  0
  4 18  2  0  0  0  0
  5 20  1  0  0  0  0
  6 22  1  0  0  0  0
  7 12  2  0  0  0  0
  7 21  1  0  0  0  0
  8  9  2  0  0  0  0
  8 24  1  0  0  0  0
  9 26  1  0  0  0  0
 10 27  1  0  0  0  0
 11 27  2  0  0  0  0
 12 28  1  0  0  0  0
 13 14  2  0  0  0  0
 13 29  1  0  0  0  0
 14 30  1  0  0  0  0
 15 23  1  0  0  0  0
 15 28  2  0  0  0  0
 16 25  1  0  0  0  0
 16 26  2  0  0  0  0
 17 30  2  0  0  0  0
 17 31  1  0  0  0  0
 18 32  1  0  0  0  0
 19 32  1  0  0  0  0
 19 33  2  0  0  0  0
 19 35  1  0  0  0  0
 20 22  2  0  0  0  0
 20 41  1  0  0  0  0
 21 23  2  0  0  0  0
 21 42  1  0  0  0  0
 22 50  1  0  0  0  0
 23 43  1  0  0  0  0
 24 25  2  0  0  0  0
 24 59  1  0  0  0  0
 25 53  1  0  0  0  0
 26 72  1  0  0  0  0
 27 81  1  0  0  0  0
 28 82  1  0  0  0  0
 29 31  2  0  0  0  0
 29 81  1  0  0  0  0
 30 83  1  0  0  0  0
 31 84  1  0  0  0  0
 32 66  2  0  0  0  0
 33 67  1  0  0  0  0
 33 70  1  0  0  0  0
 34 36  2  0  0  0  0
 35 71  1  0  0  0  0
 35 76  2  0  0  0  0
 36 60  1  0  0  0  0
 36 61  1  0  0  0  0
 37 51  1  0  0  0  0
 37 73  1  0  0  0  0
 37 77  2  0  0  0  0
 38 63  1  0  0  0  0
 38 68  1  0  0  0  0
 38 78  2  0  0  0  0
 39 64  1  0  0  0  0
 39 74  1  0  0  0  0
 39 79  2  0  0  0  0
 40 69  1  0  0  0  0
 40 72  1  0  0  0  0
 40 80  2  0  0  0  0
 41 44  1  0  0  0  0
 42 51  1  0  0  0  0
 43 68  1  0  0  0  0
 44 46  1  0  0  0  0
 45 47  1  0  0  0  0
 45 48  1  0  0  0  0
 46 50  1  0  0  0  0
 47 52  1  0  0  0  0
 48 69  1  0  0  0  0
 49 52  1  0  0  0  0
 49 69  1  0  0  0  0
 50 73  1  0  0  0  0
 51 68  1  0  0  0  0
 52 67  1  0  0  0  0
 54 64  1  0  0  0  0
 55 65  1  0  0  0  0
 56 65  1  0  0  0  0
 57 65  1  0  0  0  0
 58 75  1  0  0  0  0
 59 60  1  0  0  0  0
 61 62  1  0  0  0  0
 62 82  1  0  0  0  0
 63 65  1  0  0  0  0
 63 74  1  0  0  0  0
 64 75  1  0  0  0  0
 66 67  1  0  0  0  0
M  CHG  1  75   1
M  ISO  4  40 100  62 101  72 100  82 101
M  END
> <Batch ID>
0133

> <Smiles>
C=C(CCc1ccc([100NH:0][100C:0](=O)N2CCCC(n3nc(-c4ccc(Oc5ccc(F)cc5F)cc4)c(C(N)=O)c3N)C2)cc1C)C[101CH2:1][101O:1]c1ccc2c(c1)CN(C(=O)C(NC(=O)C(C)NC)C(C)(C)C)C(C(=O)NC1CCCc3ccccc31)C2

> <Shape>
0.297

> <Color>
0.079

> <Negative vol penalty>
0.000

$$$$

  -OEChem-04052302303D

 84 92  0     1  0  0  0  0  0999 V2000
  -26.7271  -12.0809   17.0448 C   0  0  0  0  0  0  0  0  0  0  0  0
  -25.8577  -13.1380   16.7959 C   0  0  0  0  0  0  0  0  0  0  0  0
  -28.7808  -25.2757   18.6650 C   0  0  0  0  0  0  0  0  0  0  0  0
  -27.0839  -23.9951   19.8129 C   0  0  0  0  0  0  0  0  0  0  0  0
  -26.8840  -11.5999   18.3440 C   0  0  0  0  0  0  0  0  0  0  0  0
  -25.1436  -13.7140   17.8461 C   0  0  0  0  0  0  0  0  0  0  0  0
  -23.6064  -19.6108   18.4550 C   0  0  0  0  0  0  0  0  0  0  0  0
  -18.2331  -25.9325   23.1733 C   0  0  0  0  0  0  0  0  0  0  0  0
  -19.1211  -26.4129   24.1357 C   0  0  0  0  0  0  0  0  0  0  0  0
  -29.7067  -24.2592   18.8996 C   0  0  0  0  0  0  0  0  0  0  0  0
  -28.0098  -22.9785   20.0475 C   0  0  0  0  0  0  0  0  0  0  0  0
  -22.4283  -20.3057   18.1851 C   0  0  0  0  0  0  0  0  0  0  0  0
  -29.3987  -20.4289   18.3180 C   0  0  0  0  0  0  0  0  0  0  0  0
  -28.9897  -19.1157   18.0862 C   0  0  0  0  0  0  0  0  0  0  0  0
  -21.7753  -20.0849   20.4968 C   0  0  0  0  0  0  0  0  0  0  0  0
  -18.6682  -27.8738   21.8026 C   0  0  0  0  0  0  0  0  0  0  0  0
  -29.4217  -18.5727   20.4005 C   0  0  0  0  0  0  0  0  0  0  0  0
  -27.4694  -25.1437   19.1217 C   0  0  0  0  0  0  0  0  0  0  0  0
  -25.6595  -26.3271   17.7684 C   0  0  0  0  0  0  0  0  0  0  0  0
  -26.1788  -12.1765   19.4120 C   0  0  0  0  0  0  0  0  0  0  0  0
  -23.8732  -19.1374   19.7478 C   0  0  0  0  0  0  0  0  0  0  0  0
  -25.2901  -13.2393   19.1606 C   0  0  0  0  0  0  0  0  0  0  0  0
  -22.9588  -19.3864   20.7811 C   0  0  0  0  0  0  0  0  0  0  0  0
  -18.0067  -26.6629   22.0067 C   0  0  0  0  0  0  0  0  0  0  0  0
  -19.7827  -27.6239   23.9316 C   0  0  0  0  0  0  0  0  0  0  0  0
  -19.5563  -28.3543   22.7650 C   0  0  0  0  0  0  0  0  0  0  0  0
  -29.3212  -23.1106   19.5908 C   0  0  0  0  0  0  0  0  0  0  0  0
  -21.5112  -20.5403   19.2053 C   0  0  0  0  0  0  0  0  0  0  0  0
  -29.8194  -20.8141   19.5909 C   0  0  0  0  0  0  0  0  0  0  0  0
  -29.0012  -18.1876   19.1274 C   0  0  0  0  0  0  0  0  0  0  0  0
  -29.8308  -19.8860   20.6322 C   0  0  0  0  0  0  0  0  0  0  0  0
  -26.5126  -26.1936   18.8802 C   0  0  0  0  0  0  0  0  0  0  0  0
  -24.9540  -27.4798   18.0134 C   0  0  0  0  0  0  0  0  0  0  0  0
  -25.5173  -25.4843   16.6172 C   0  0  0  0  0  0  0  0  0  0  0  0
  -24.3094  -16.2660   21.0395 C   0  0  0  0  0  0  0  0  0  0  0  0
  -25.0141  -17.9959   23.6915 C   0  0  0  0  0  0  0  0  0  0  0  0
  -24.6719  -20.9188   25.4195 C   0  0  0  0  0  0  0  0  0  0  0  0
  -22.6053  -30.4349   22.4026 C   0  0  0  0  0  0  0  0  0  0  0  0
  -26.3455  -11.5915   20.7921 C   0  0  0  0  0  0  0  0  0  0  0  0
  -25.1610  -18.4127   20.0285 C   0  0  0  0  0  0  0  0  0  0  0  0
  -23.2075  -18.9169   22.1904 C   0  0  0  0  0  0  0  0  0  0  0  0
  -25.8348  -12.5024   21.9056 C   0  0  0  0  0  0  0  0  0  0  0  0
  -25.6544  -31.4525   20.8716 C   0  0  0  0  0  0  0  0  0  0  0  0
  -24.4585  -13.0571   21.5524 C   0  0  0  0  0  0  0  0  0  0  0  0
  -26.1072  -30.2126   20.0987 C   0  0  0  0  0  0  0  0  0  0  0  0
  -24.9877  -31.0808   22.1942 C   0  0  0  0  0  0  0  0  0  0  0  0
  -24.3288  -28.8786   21.3055 C   0  0  0  0  0  0  0  0  0  0  0  0
  -24.5167  -13.9066   20.2771 C   0  0  1  0  0  0  0  0  0  0  0  0
  -25.0908  -17.5285   21.2697 C   0  0  1  0  0  0  0  0  0  0  0  0
  -24.9569  -29.2004   19.9387 C   0  0  2  0  0  0  0  0  0  0  0  0
  -20.7280  -28.1186   24.9767 C   0  0  0  0  0  0  0  0  0  0  0  0
  -25.0533  -22.6088   27.2350 C   0  0  0  0  0  0  0  0  0  0  0  0
  -22.9310  -16.3334   25.1770 C   0  0  0  0  0  0  0  0  0  0  0  0
  -22.9480  -18.0597   26.9902 C   0  0  0  0  0  0  0  0  0  0  0  0
  -25.0248  -16.7796   26.4698 C   0  0  0  0  0  0  0  0  0  0  0  0
  -26.9831  -22.0982   23.9959 C   0  0  0  0  0  0  0  0  0  0  0  0
  -17.0462  -26.1435   20.9666 C   0  0  0  0  0  0  0  0  0  0  0  0
  -20.2529  -29.6535   22.5249 C   0  0  0  0  0  0  0  0  0  0  0  0
  -17.7027  -25.2495   19.9086 C   0  0  0  0  0  0  0  0  0  0  0  0
  -18.4301  -24.0432   20.5107 C   0  0  0  0  0  0  0  0  0  0  0  0
  -19.0420  -23.1654   19.4204 C   0  0  0  0  0  0  0  0  0  0  0  0
  -19.8031  -21.9864   20.0099 C   0  0  0  0  0  0  0  0  0  1  0  0
  -24.2196  -18.5468   24.8509 C   0  0  1  0  0  0  0  0  0  0  0  0
  -25.6914  -21.8040   26.1134 C   0  0  2  0  0  0  0  0  0  0  0  0
  -23.7749  -17.4372   25.8451 C   0  0  0  0  0  0  0  0  0  0  0  0
  -26.3644  -27.1826   19.7656 N   0  0  0  0  0  0  0  0  0  0  0  0
  -25.4100  -27.9486   19.2102 N   0  0  0  0  0  0  0  0  0  0  0  0
  -24.4781  -18.2074   22.4133 N   0  0  0  0  0  0  0  0  0  0  0  0
  -23.9047  -30.1195   21.9725 N   0  0  0  0  0  0  0  0  0  0  0  0
  -23.9944  -28.1280   17.3196 N   0  0  0  0  0  0  0  0  0  0  0  0
  -26.3199  -24.3391   16.5243 N   0  0  0  0  0  0  0  0  0  0  0  0
  -25.0683  -15.2132   20.5649 N   0  0  0  0  0  0  0  0  0  0  0  0
  -25.0431  -19.5912   25.4504 N   0  0  0  0  0  0  0  0  0  0  0  0
  -21.6369  -29.4715   22.1478 N   0  0  0  0  0  0  0  0  0  0  0  0
  -26.2998  -22.7546   25.1402 N   0  3  0  0  0  0  0  0  0  0  0  0
  -24.7144  -25.7481   15.6903 O   0  0  0  0  0  0  0  0  0  0  0  0
  -23.1072  -16.2478   21.2764 O   0  0  0  0  0  0  0  0  0  0  0  0
  -26.0749  -17.4060   23.9113 O   0  0  0  0  0  0  0  0  0  0  0  0
  -23.6468  -21.3604   24.9050 O   0  0  0  0  0  0  0  0  0  0  0  0
  -22.3275  -31.4987   22.9667 O   0  0  0  0  0  0  0  0  0  0  0  0
  -30.2244  -22.1184   19.8196 O   0  0  0  0  0  0  0  0  0  0  0  0
  -20.3602  -21.2178   18.9444 O   0  0  0  0  0  0  0  0  0  1  0  0
  -28.6069  -16.9269   18.9051 F   0  0  0  0  0  0  0  0  0  0  0  0
  -30.2327  -20.2504   21.8575 F   0  0  0  0  0  0  0  0  0  0  0  0
  1  2  1  0  0  0  0
  1  5  2  0  0  0  0
  2  6  2  0  0  0  0
  3 10  2  0  0  0  0
  3 18  1  0  0  0  0
  4 11  1  0  0  0  0
  4 18  2  0  0  0  0
  5 20  1  0  0  0  0
  6 22  1  0  0  0  0
  7 12  2  0  0  0  0
  7 21  1  0  0  0  0
  8  9  2  0  0  0  0
  8 24  1  0  0  0  0
  9 25  1  0  0  0  0
 10 27  1  0  0  0  0
 11 27  2  0  0  0  0
 12 28  1  0  0  0  0
 13 14  2  0  0  0  0
 13 29  1  0  0  0  0
 14 30  1  0  0  0  0
 15 23  1  0  0  0  0
 15 28  2  0  0  0  0
 16 24  2  0  0  0  0
 16 26  1  0  0  0  0
 17 30  2  0  0  0  0
 17 31  1  0  0  0  0
 18 32  1  0  0  0  0
 19 32  1  0  0  0  0
 19 33  2  0  0  0  0
 19 34  1  0  0  0  0
 20 22  2  0  0  0  0
 20 39  1  0  0  0  0
 21 23  2  0  0  0  0
 21 40  1  0  0  0  0
 22 48  1  0  0  0  0
 23 41  1  0  0  0  0
 24 57  1  0  0  0  0
 25 26  2  0  0  0  0
 25 51  1  0  0  0  0
 26 58  1  0  0  0  0
 27 81  1  0  0  0  0
 28 82  1  0  0  0  0
 29 31  2  0  0  0  0
 29 81  1  0  0  0  0
 30 83  1  0  0  0  0
 31 84  1  0  0  0  0
 32 66  2  0  0  0  0
 33 67  1  0  0  0  0
 33 70  1  0  0  0  0
 34 71  1  0  0  0  0
 34 76  2  0  0  0  0
 35 49  1  0  0  0  0
 35 72  1  0  0  0  0
 35 77  2  0  0  0  0
 36 63  1  0  0  0  0
 36 68  1  0  0  0  0
 36 78  2  0  0  0  0
 37 64  1  0  0  0  0
 37 73  1  0  0  0  0
 37 79  2  0  0  0  0
 38 69  1  0  0  0  0
 38 74  1  0  0  0  0
 38 80  2  0  0  0  0
 39 42  1  0  0  0  0
 40 49  1  0  0  0  0
 41 68  1  0  0  0  0
 42 44  1  0  0  0  0
 43 45  1  0  0  0  0
 43 46  1  0  0  0  0
 44 48  1  0  0  0  0
 45 50  1  0  0  0  0
 46 69  1  0  0  0  0
 47 50  1  0  0  0  0
 47 69  1  0  0  0  0
 48 72  1  0  0  0  0
 49 68  1  0  0  0  0
 50 67  1  0  0  0  0
 52 64  1  0  0  0  0
 53 65  1  0  0  0  0
 54 65  1  0  0  0  0
 55 65  1  0  0  0  0
 56 75  1  0  0  0  0
 57 59  1  0  0  0  0
 58 74  1  0  0  0  0
 59 60  1  0  0  0  0
 60 61  1  0  0  0  0
 61 62  1  0  0  0  0
 62 82  1  0  0  0  0
 63 65  1  0  0  0  0
 63 73  1  0  0  0  0
 64 75  1  0  0  0  0
 66 67  1  0  0  0  0
M  CHG  1  75   1
M  ISO  4  38 100  62 101  74 100  82 101
M  END
> <Batch ID>
0133

> <Smiles>
CNC(C)C(=O)NC(C(=O)N1Cc2cc([101O:1][101CH2:1]CCCCc3ccc(C)c(C[100NH:0][100C:0](=O)N4CCCC(n5nc(-c6ccc(Oc7ccc(F)cc7F)cc6)c(C(N)=O)c5N)C4)c3)ccc2CC1C(=O)NC1CCCc2ccccc21)C(C)(C)C

> <Shape>
0.209

> <Color>
0.087

> <Negative vol penalty>
0.000

$$$$

  -OEChem-04052302303D

 85 93  0     1  0  0  0  0  0999 V2000
  -28.0961  -20.0497   16.2362 C   0  0  0  0  0  0  0  0  0  0  0  0
  -28.5577  -18.8137   16.6743 C   0  0  0  0  0  0  0  0  0  0  0  0
  -30.8158  -19.9880   24.2707 C   0  0  0  0  0  0  0  0  0  0  0  0
  -27.0961  -29.4169   20.0150 C   0  0  0  0  0  0  0  0  0  0  0  0
  -25.6990  -27.5779   20.7247 C   0  0  0  0  0  0  0  0  0  0  0  0
  -26.8235  -20.4836   16.6014 C   0  0  0  0  0  0  0  0  0  0  0  0
  -27.7424  -18.0059   17.4679 C   0  0  0  0  0  0  0  0  0  0  0  0
  -29.3737  -13.4714   18.4581 C   0  0  0  0  0  0  0  0  0  0  0  0
  -31.1136  -18.6620   24.5846 C   0  0  0  0  0  0  0  0  0  0  0  0
  -29.8681  -20.2764   23.2887 C   0  0  0  0  0  0  0  0  0  0  0  0
  -25.9585  -30.1831   19.7612 C   0  0  0  0  0  0  0  0  0  0  0  0
  -24.5615  -28.3442   20.4710 C   0  0  0  0  0  0  0  0  0  0  0  0
  -30.4325  -13.2253   19.3312 C   0  0  0  0  0  0  0  0  0  0  0  0
  -22.8406  -30.8238   21.9911 C   0  0  0  0  0  0  0  0  0  0  0  0
  -21.8284  -30.8158   22.9508 C   0  0  0  0  0  0  0  0  0  0  0  0
  -28.8646  -12.5258   21.0258 C   0  0  0  0  0  0  0  0  0  0  0  0
  -20.2846  -29.9332   21.3152 C   0  0  0  0  0  0  0  0  0  0  0  0
  -26.9663  -28.1142   20.4966 C   0  0  0  0  0  0  0  0  0  0  0  0
  -29.1814  -27.6163   21.6599 C   0  0  0  0  0  0  0  0  0  0  0  0
  -25.9976  -19.6856   17.4101 C   0  0  0  0  0  0  0  0  0  0  0  0
  -28.0496  -13.2566   18.8667 C   0  0  0  0  0  0  0  0  0  0  0  0
  -26.4457  -18.4157   17.8273 C   0  0  0  0  0  0  0  0  0  0  0  0
  -27.7910  -12.7676   20.1552 C   0  0  0  0  0  0  0  0  0  0  0  0
  -30.4637  -17.6243   23.9164 C   0  0  0  0  0  0  0  0  0  0  0  0
  -29.2182  -19.2388   22.6205 C   0  0  0  0  0  0  0  0  0  0  0  0
  -29.5160  -17.9127   22.9343 C   0  0  0  0  0  0  0  0  0  0  0  0
  -24.6912  -29.6468   19.9892 C   0  0  0  0  0  0  0  0  0  0  0  0
  -30.1779  -12.7551   20.6162 C   0  0  0  0  0  0  0  0  0  0  0  0
  -22.5748  -30.3866   20.6934 C   0  0  0  0  0  0  0  0  0  0  0  0
  -20.5504  -30.3705   22.6128 C   0  0  0  0  0  0  0  0  0  0  0  0
  -21.2969  -29.9413   20.3555 C   0  0  0  0  0  0  0  0  0  0  0  0
  -28.1410  -27.3219   20.7584 C   0  0  0  0  0  0  0  0  0  0  0  0
  -30.0507  -26.5600   21.5378 C   0  0  0  0  0  0  0  0  0  0  0  0
  -29.3471  -28.7438   22.5300 C   0  0  0  0  0  0  0  0  0  0  0  0
  -25.4850  -15.1004   19.2231 C   0  0  0  0  0  0  0  0  0  0  0  0
  -24.0140  -12.2705   19.8150 C   0  0  0  0  0  0  0  0  0  0  0  0
  -24.2808   -9.0230   20.8297 C   0  0  0  0  0  0  0  0  0  0  0  0
  -29.3418  -20.8769   19.7911 C   0  0  0  0  0  0  0  0  0  0  0  0
  -24.6261  -20.2008   17.7689 C   0  0  0  0  0  0  0  0  0  0  0  0
  -26.9202  -13.5016   17.9040 C   0  0  0  0  0  0  0  0  0  0  0  0
  -26.3886  -12.5014   20.6356 C   0  0  0  0  0  0  0  0  0  0  0  0
  -24.0151  -19.4806   18.9666 C   0  0  0  0  0  0  0  0  0  0  0  0
  -31.5497  -23.2896   18.3837 C   0  0  0  0  0  0  0  0  0  0  0  0
  -24.1204  -17.9748   18.7768 C   0  0  0  0  0  0  0  0  0  0  0  0
  -31.0203  -24.6231   18.9141 C   0  0  0  0  0  0  0  0  0  0  0  0
  -30.4158  -22.3123   18.0816 C   0  0  0  0  0  0  0  0  0  0  0  0
  -28.9533  -23.4150   19.7305 C   0  0  0  0  0  0  0  0  0  0  0  0
  -25.5882  -17.5334   18.7165 C   0  0  1  0  0  0  0  0  0  0  0  0
  -25.5828  -13.7369   18.5993 C   0  0  1  0  0  0  0  0  0  0  0  0
  -30.0627  -24.4136   20.1025 C   0  0  2  0  0  0  0  0  0  0  0  0
  -27.3976  -16.5876   22.7269 C   0  0  0  0  0  0  0  0  0  0  0  0
  -22.8997   -6.9697   21.2468 C   0  0  0  0  0  0  0  0  0  0  0  0
  -22.9959  -13.4876   22.4212 C   0  0  0  0  0  0  0  0  0  0  0  0
  -22.4585  -11.1733   23.2107 C   0  0  0  0  0  0  0  0  0  0  0  0
  -21.3182  -12.0973   21.1937 C   0  0  0  0  0  0  0  0  0  0  0  0
  -25.7557   -7.4741   18.7841 C   0  0  0  0  0  0  0  0  0  0  0  0
  -30.8038  -16.1995   24.2749 C   0  0  0  0  0  0  0  0  0  0  0  0
  -28.8192  -16.8000   22.2178 C   0  0  0  0  0  0  0  0  0  0  0  0
  -28.2072  -19.5747   21.5733 C   0  0  0  0  0  0  0  0  0  0  0  0
  -31.7519  -15.5199   23.2804 C   0  0  0  0  0  0  0  0  0  0  0  0
  -32.1460  -14.1008   23.7020 C   0  0  0  0  0  0  0  0  0  0  0  0
  -33.0651  -13.4518   22.6686 C   0  0  0  0  0  0  0  0  0  0  0  0
  -32.3809  -13.3147   21.3159 C   0  0  0  0  0  0  0  0  0  1  0  0
  -23.7544  -11.4376   21.0470 C   0  0  1  0  0  0  0  0  0  0  0  0
  -23.7402   -7.7346   20.2362 C   0  0  2  0  0  0  0  0  0  0  0  0
  -22.6582  -12.0557   21.9601 C   0  0  0  0  0  0  0  0  0  0  0  0
  -28.3304  -26.1690   20.1112 N   0  0  0  0  0  0  0  0  0  0  0  0
  -29.4998  -25.7296   20.6066 N   0  0  0  0  0  0  0  0  0  0  0  0
  -25.3177  -12.7623   19.6595 N   0  0  0  0  0  0  0  0  0  0  0  0
  -29.5453  -22.1568   19.2495 N   0  0  0  0  0  0  0  0  0  0  0  0
  -31.2250  -26.2698   22.1371 N   0  0  0  0  0  0  0  0  0  0  0  0
  -28.8214  -28.6698   23.8271 N   0  0  0  0  0  0  0  0  0  0  0  0
  -25.6469  -16.1412   18.3288 N   0  0  0  0  0  0  0  0  0  0  0  0
  -23.4486  -10.0921   20.5732 N   0  0  0  0  0  0  0  0  0  0  0  0
  -28.5078  -20.8191   20.9010 N   0  0  0  0  0  0  0  0  0  0  0  0
  -24.8612   -6.8565   19.7966 N   0  3  0  0  0  0  0  0  0  0  0  0
  -29.9295  -29.7923   22.1625 O   0  0  0  0  0  0  0  0  0  0  0  0
  -25.2764  -15.2006   20.4265 O   0  0  0  0  0  0  0  0  0  0  0  0
  -23.0957  -12.4712   19.0162 O   0  0  0  0  0  0  0  0  0  0  0  0
  -25.3339   -9.0751   21.4611 O   0  0  0  0  0  0  0  0  0  0  0  0
  -29.8688  -19.8616   19.3237 O   0  0  0  0  0  0  0  0  0  0  0  0
  -23.5810  -30.3944   19.7420 O   0  0  0  0  0  0  0  0  0  0  0  0
  -31.2094  -12.5146   21.4706 O   0  0  0  0  0  0  0  0  0  1  0  0
  -19.5789  -30.3614   23.5349 F   0  0  0  0  0  0  0  0  0  0  0  0
  -21.0358  -29.5189   19.1107 F   0  0  0  0  0  0  0  0  0  0  0  0
  1  2  1  0  0  0  0
  1  6  2  0  0  0  0
  2  7  2  0  0  0  0
  3  9  1  0  0  0  0
  3 10  2  0  0  0  0
  4 11  2  0  0  0  0
  4 18  1  0  0  0  0
  5 12  1  0  0  0  0
  5 18  2  0  0  0  0
  6 20  1  0  0  0  0
  7 22  1  0  0  0  0
  8 13  2  0  0  0  0
  8 21  1  0  0  0  0
  9 24  2  0  0  0  0
 10 25  1  0  0  0  0
 11 27  1  0  0  0  0
 12 27  2  0  0  0  0
 13 28  1  0  0  0  0
 14 15  2  0  0  0  0
 14 29  1  0  0  0  0
 15 30  1  0  0  0  0
 16 23  1  0  0  0  0
 16 28  2  0  0  0  0
 17 30  2  0  0  0  0
 17 31  1  0  0  0  0
 18 32  1  0  0  0  0
 19 32  1  0  0  0  0
 19 33  2  0  0  0  0
 19 34  1  0  0  0  0
 20 22  2  0  0  0  0
 20 39  1  0  0  0  0
 21 23  2  0  0  0  0
 21 40  1  0  0  0  0
 22 48  1  0  0  0  0
 23 41  1  0  0  0  0
 24 26  1  0  0  0  0
 24 57  1  0  0  0  0
 25 26  2  0  0  0  0
 25 59  1  0  0  0  0
 26 58  1  0  0  0  0
 27 82  1  0  0  0  0
 28 83  1  0  0  0  0
 29 31  2  0  0  0  0
 29 82  1  0  0  0  0
 30 84  1  0  0  0  0
 31 85  1  0  0  0  0
 32 67  2  0  0  0  0
 33 68  1  0  0  0  0
 33 71  1  0  0  0  0
 34 72  1  0  0  0  0
 34 77  2  0  0  0  0
 35 49  1  0  0  0  0
 35 73  1  0  0  0  0
 35 78  2  0  0  0  0
 36 64  1  0  0  0  0
 36 69  1  0  0  0  0
 36 79  2  0  0  0  0
 37 65  1  0  0  0  0
 37 74  1  0  0  0  0
 37 80  2  0  0  0  0
 38 70  1  0  0  0  0
 38 75  1  0  0  0  0
 38 81  2  0  0  0  0
 39 42  1  0  0  0  0
 40 49  1  0  0  0  0
 41 69  1  0  0  0  0
 42 44  1  0  0  0  0
 43 45  1  0  0  0  0
 43 46  1  0  0  0  0
 44 48  1  0  0  0  0
 45 50  1  0  0  0  0
 46 70  1  0  0  0  0
 47 50  1  0  0  0  0
 47 70  1  0  0  0  0
 48 73  1  0  0  0  0
 49 69  1  0  0  0  0
 50 68  1  0  0  0  0
 51 58  1  0  0  0  0
 52 65  1  0  0  0  0
 53 66  1  0  0  0  0
 54 66  1  0  0  0  0
 55 66  1  0  0  0  0
 56 76  1  0  0  0  0
 57 60  1  0  0  0  0
 59 75  1  0  0  0  0
 60 61  1  0  0  0  0
 61 62  1  0  0  0  0
 62 63  1  0  0  0  0
 63 83  1  0  0  0  0
 64 66  1  0  0  0  0
 64 74  1  0  0  0  0
 65 76  1  0  0  0  0
 67 68  1  0  0  0  0
M  CHG  1  76   1
M  ISO  4  38 100  63 101  75 100  83 101
M  END
> <Batch ID>
0133

> <Smiles>
CCc1c(CCCC[101CH2:1][101O:1]c2ccc3c(c2)CN(C(=O)C(NC(=O)C(C)NC)C(C)(C)C)C(C(=O)NC2CCCc4ccccc42)C3)cccc1C[100NH:0][100C:0](=O)N1CCCC(n2nc(-c3ccc(Oc4ccc(F)cc4F)cc3)c(C(N)=O)c2N)C1

> <Shape>
0.279

> <Color>
0.070

> <Negative vol penalty>
0.000

$$$$

  -OEChem-04052302303D

 87 95  0     1  0  0  0  0  0999 V2000
  -29.8680  -25.8896   16.6592 C   0  0  0  0  0  0  0  0  0  0  0  0
  -28.4832  -25.9791   16.7585 C   0  0  0  0  0  0  0  0  0  0  0  0
  -26.7406  -13.3726   19.7016 C   0  0  0  0  0  0  0  0  0  0  0  0
  -24.7170  -13.9527   20.8873 C   0  0  0  0  0  0  0  0  0  0  0  0
  -30.6655  -26.1861   17.7638 C   0  0  0  0  0  0  0  0  0  0  0  0
  -27.8951  -26.3642   17.9628 C   0  0  0  0  0  0  0  0  0  0  0  0
  -22.8040  -29.6927   18.6750 C   0  0  0  0  0  0  0  0  0  0  0  0
  -26.6341  -12.0603   20.1620 C   0  0  0  0  0  0  0  0  0  0  0  0
  -24.6106  -12.6404   21.3477 C   0  0  0  0  0  0  0  0  0  0  0  0
  -21.4812  -29.3391   18.9375 C   0  0  0  0  0  0  0  0  0  0  0  0
  -23.6086   -9.3558   22.5418 C   0  0  0  0  0  0  0  0  0  0  0  0
  -22.3554   -8.7463   22.4817 C   0  0  0  0  0  0  0  0  0  0  0  0
  -21.8492  -29.7320   21.2890 C   0  0  0  0  0  0  0  0  0  0  0  0
  -23.5583  -24.4177   18.0605 C   0  0  0  0  0  0  0  0  0  0  0  0
  -22.2102  -24.2353   20.0571 C   0  0  0  0  0  0  0  0  0  0  0  0
  -22.3257   -9.0438   20.0842 C   0  0  0  0  0  0  0  0  0  0  0  0
  -25.7820  -14.3189   20.0643 C   0  0  0  0  0  0  0  0  0  0  0  0
  -25.3496  -16.2070   18.4043 C   0  0  0  0  0  0  0  0  0  0  0  0
  -30.0873  -26.5843   18.9794 C   0  0  0  0  0  0  0  0  0  0  0  0
  -23.6638  -30.0588   19.7205 C   0  0  0  0  0  0  0  0  0  0  0  0
  -28.6856  -26.6650   19.0850 C   0  0  0  0  0  0  0  0  0  0  0  0
  -23.1817  -30.0923   21.0368 C   0  0  0  0  0  0  0  0  0  0  0  0
  -23.4597  -24.2177   19.4374 C   0  0  0  0  0  0  0  0  0  0  0  0
  -22.4073  -24.6354   17.3032 C   0  0  0  0  0  0  0  0  0  0  0  0
  -21.1577  -24.6530   17.9229 C   0  0  0  0  0  0  0  0  0  0  0  0
  -25.5691  -11.6941   20.9850 C   0  0  0  0  0  0  0  0  0  0  0  0
  -21.0044  -29.3559   20.2450 C   0  0  0  0  0  0  0  0  0  0  0  0
  -24.2203   -9.8094   21.3731 C   0  0  0  0  0  0  0  0  0  0  0  0
  -21.0591  -24.4530   19.2998 C   0  0  0  0  0  0  0  0  0  0  0  0
  -21.7139   -8.5902   21.2530 C   0  0  0  0  0  0  0  0  0  0  0  0
  -23.5789   -9.6533   20.1443 C   0  0  0  0  0  0  0  0  0  0  0  0
  -25.8917  -15.6749   19.5895 C   0  0  0  0  0  0  0  0  0  0  0  0
  -25.7323  -17.5261   18.4137 C   0  0  0  0  0  0  0  0  0  0  0  0
  -24.5697  -15.5663   17.3860 C   0  0  0  0  0  0  0  0  0  0  0  0
  -26.3718  -28.8942   20.9098 C   0  0  0  0  0  0  0  0  0  0  0  0
  -26.3421  -22.3498   21.1796 C   0  0  0  0  0  0  0  0  0  0  0  0
  -26.2741  -31.5806   22.7252 C   0  0  0  0  0  0  0  0  0  0  0  0
  -24.3992  -34.0664   24.1226 C   0  0  0  0  0  0  0  0  0  0  0  0
  -30.9883  -26.8489   20.1596 C   0  0  0  0  0  0  0  0  0  0  0  0
  -25.0805  -30.4633   19.4176 C   0  0  0  0  0  0  0  0  0  0  0  0
  -24.0586  -30.4975   22.1924 C   0  0  0  0  0  0  0  0  0  0  0  0
  -30.3027  -27.6117   21.2903 C   0  0  0  0  0  0  0  0  0  0  0  0
  -29.0299  -19.9857   21.3436 C   0  0  0  0  0  0  0  0  0  0  0  0
  -28.9339  -27.0081   21.5883 C   0  0  0  0  0  0  0  0  0  0  0  0
  -28.4002  -18.6903   20.8332 C   0  0  0  0  0  0  0  0  0  0  0  0
  -28.0288  -20.8175   22.1394 C   0  0  0  0  0  0  0  0  0  0  0  0
  -26.1373  -19.8312   20.8858 C   0  0  0  0  0  0  0  0  0  0  0  0
  -28.0114  -27.1031   20.3670 C   0  0  1  0  0  0  0  0  0  0  0  0
  -26.0115  -30.3235   20.6181 C   0  0  1  0  0  0  0  0  0  0  0  0
  -27.1062  -18.9756   20.0506 C   0  0  2  0  0  0  0  0  0  0  0  0
  -22.5397  -24.8483   15.8307 C   0  0  0  0  0  0  0  0  0  0  0  0
  -19.7403  -26.3534   16.7456 C   0  0  0  0  0  0  0  0  0  0  0  0
  -24.5948  -36.0963   25.5850 C   0  0  0  0  0  0  0  0  0  0  0  0
  -17.1763  -25.5315   20.4782 C   0  0  0  0  0  0  0  0  0  0  0  0
  -26.5616  -29.7849   25.1753 C   0  0  0  0  0  0  0  0  0  0  0  0
  -25.8059  -31.7089   26.5878 C   0  0  0  0  0  0  0  0  0  0  0  0
  -27.9102  -31.8894   25.2602 C   0  0  0  0  0  0  0  0  0  0  0  0
  -23.3812  -35.8454   21.9877 C   0  0  0  0  0  0  0  0  0  0  0  0
  -24.6907  -23.9863   20.2470 C   0  0  0  0  0  0  0  0  0  0  0  0
  -19.9204  -24.8851   17.1156 C   0  0  0  0  0  0  0  0  0  0  0  0
  -25.0773  -22.5073   20.3736 C   0  0  0  0  0  0  0  0  0  0  0  0
  -18.2479  -27.4816   21.6292 C   0  0  0  0  0  0  0  0  0  0  0  0
  -19.4427  -28.4166   21.7730 C   0  0  0  0  0  0  0  0  0  1  0  0
  -19.6494  -25.4430   20.9394 C   0  0  0  0  0  0  0  0  0  0  0  0
  -25.6825  -31.9441   24.0658 C   0  0  1  0  0  0  0  0  0  0  0  0
  -24.5881  -35.5723   24.1574 C   0  0  2  0  0  0  0  0  0  0  0  0
  -18.4631  -26.3556   20.6016 C   0  0  1  0  0  0  0  0  0  0  0  0
  -26.4738  -31.3223   25.2509 C   0  0  0  0  0  0  0  0  0  0  0  0
  -26.5675  -16.5817   20.3001 N   0  0  0  0  0  0  0  0  0  0  0  0
  -26.4526  -17.6971   19.5592 N   0  0  0  0  0  0  0  0  0  0  0  0
  -25.4379  -30.8783   21.8458 N   0  0  0  0  0  0  0  0  0  0  0  0
  -26.8047  -21.0476   21.3701 N   0  0  0  0  0  0  0  0  0  0  0  0
  -25.5196  -18.5448   17.5538 N   0  0  0  0  0  0  0  0  0  0  0  0
  -24.2668  -14.2059   17.5332 N   0  0  0  0  0  0  0  0  0  0  0  0
  -27.4891  -28.4460   20.2314 N   0  0  0  0  0  0  0  0  0  0  0  0
  -25.6064  -33.4007   24.0969 N   0  0  0  0  0  0  0  0  0  0  0  0
  -23.4888  -36.2495   23.4132 N   0  3  0  0  0  0  0  0  0  0  0  0
  -24.1677  -16.1781   16.3673 O   0  0  0  0  0  0  0  0  0  0  0  0
  -25.6877  -28.2465   21.6935 O   0  0  0  0  0  0  0  0  0  0  0  0
  -26.9024  -23.3555   21.6232 O   0  0  0  0  0  0  0  0  0  0  0  0
  -27.4329  -31.9140   22.4652 O   0  0  0  0  0  0  0  0  0  0  0  0
  -23.2915  -33.5339   24.1223 O   0  0  0  0  0  0  0  0  0  0  0  0
  -25.4648  -10.4135   21.4343 O   0  0  0  0  0  0  0  0  0  0  0  0
  -19.7139  -29.0105   20.5041 O   0  0  0  0  0  0  0  0  0  1  0  0
  -19.8397  -24.4658   19.9259 O   0  0  0  0  0  0  0  0  0  0  0  0
  -20.5112   -8.0035   21.1952 F   0  0  0  0  0  0  0  0  0  0  0  0
  -24.1621  -10.0860   19.0181 F   0  0  0  0  0  0  0  0  0  0  0  0
  1  2  1  0  0  0  0
  1  5  2  0  0  0  0
  2  6  2  0  0  0  0
  3  8  2  0  0  0  0
  3 17  1  0  0  0  0
  4  9  1  0  0  0  0
  4 17  2  0  0  0  0
  5 19  1  0  0  0  0
  6 21  1  0  0  0  0
  7 10  2  0  0  0  0
  7 20  1  0  0  0  0
  8 26  1  0  0  0  0
  9 26  2  0  0  0  0
 10 27  1  0  0  0  0
 11 12  2  0  0  0  0
 11 28  1  0  0  0  0
 12 30  1  0  0  0  0
 13 22  1  0  0  0  0
 13 27  2  0  0  0  0
 14 23  1  0  0  0  0
 14 24  2  0  0  0  0
 15 23  2  0  0  0  0
 15 29  1  0  0  0  0
 16 30  2  0  0  0  0
 16 31  1  0  0  0  0
 17 32  1  0  0  0  0
 18 32  1  0  0  0  0
 18 33  2  0  0  0  0
 18 34  1  0  0  0  0
 19 21  2  0  0  0  0
 19 39  1  0  0  0  0
 20 22  2  0  0  0  0
 20 40  1  0  0  0  0
 21 48  1  0  0  0  0
 22 41  1  0  0  0  0
 23 59  1  0  0  0  0
 24 25  1  0  0  0  0
 24 51  1  0  0  0  0
 25 29  2  0  0  0  0
 25 60  1  0  0  0  0
 26 83  1  0  0  0  0
 27 84  1  0  0  0  0
 28 31  2  0  0  0  0
 28 83  1  0  0  0  0
 29 85  1  0  0  0  0
 30 86  1  0  0  0  0
 31 87  1  0  0  0  0
 32 69  2  0  0  0  0
 33 70  1  0  0  0  0
 33 73  1  0  0  0  0
 34 74  1  0  0  0  0
 34 78  2  0  0  0  0
 35 49  1  0  0  0  0
 35 75  1  0  0  0  0
 35 79  2  0  0  0  0
 36 61  1  0  0  0  0
 36 72  1  0  0  0  0
 36 80  2  0  0  0  0
 37 65  1  0  0  0  0
 37 71  1  0  0  0  0
 37 81  2  0  0  0  0
 38 66  1  0  0  0  0
 38 76  1  0  0  0  0
 38 82  2  0  0  0  0
 39 42  1  0  0  0  0
 40 49  1  0  0  0  0
 41 71  1  0  0  0  0
 42 44  1  0  0  0  0
 43 45  1  0  0  0  0
 43 46  1  0  0  0  0
 44 48  1  0  0  0  0
 45 50  1  0  0  0  0
 46 72  1  0  0  0  0
 47 50  1  0  0  0  0
 47 72  1  0  0  0  0
 48 75  1  0  0  0  0
 49 71  1  0  0  0  0
 50 70  1  0  0  0  0
 52 60  1  0  0  0  0
 53 66  1  0  0  0  0
 54 67  1  0  0  0  0
 55 68  1  0  0  0  0
 56 68  1  0  0  0  0
 57 68  1  0  0  0  0
 58 77  1  0  0  0  0
 59 61  1  0  0  0  0
 62 63  1  0  0  0  0
 62 67  1  0  0  0  0
 63 84  1  0  0  0  0
 64 67  1  0  0  0  0
 64 85  1  0  0  0  0
 65 68  1  0  0  0  0
 65 76  1  0  0  0  0
 66 77  1  0  0  0  0
 69 70  1  0  0  0  0
M  CHG  1  77   1
M  ISO  4  36 100  61 100  63 101  84 101
M  END
> <Batch ID>
0133

> <Smiles>
CCc1c(C)cc(C[100CH2:0][100C:0](=O)N2CCCC(n3nc(-c4ccc(Oc5ccc(F)cc5F)cc4)c(C(N)=O)c3N)C2)cc1OCC(C)C[101CH2:1][101O:1]c1ccc2c(c1)CN(C(=O)C(NC(=O)C(C)NC)C(C)(C)C)C(C(=O)NC1CCCc3ccccc31)C2

> <Shape>
0.308

> <Color>
0.086

> <Negative vol penalty>
0.000

$$$$

  -OEChem-04052302303D

 84 92  0     1  0  0  0  0  0999 V2000
  -20.8207  -34.4951   15.7164 C   0  0  0  0  0  0  0  0  0  0  0  0
  -21.5747  -33.3262   15.7438 C   0  0  0  0  0  0  0  0  0  0  0  0
  -23.1304  -10.7640   21.3195 C   0  0  0  0  0  0  0  0  0  0  0  0
  -22.9134  -13.1223   20.8420 C   0  0  0  0  0  0  0  0  0  0  0  0
  -21.1213  -35.5378   16.5919 C   0  0  0  0  0  0  0  0  0  0  0  0
  -22.6304  -33.1998   16.6459 C   0  0  0  0  0  0  0  0  0  0  0  0
  -24.4475  -28.0917   19.4939 C   0  0  0  0  0  0  0  0  0  0  0  0
  -22.0399  -10.8390   22.1859 C   0  0  0  0  0  0  0  0  0  0  0  0
  -21.8228  -13.1974   21.7084 C   0  0  0  0  0  0  0  0  0  0  0  0
  -25.4723  -27.1842   19.2294 C   0  0  0  0  0  0  0  0  0  0  0  0
  -21.2982  -13.3664   25.0442 C   0  0  0  0  0  0  0  0  0  0  0  0
  -21.2528  -14.4366   25.9376 C   0  0  0  0  0  0  0  0  0  0  0  0
  -29.4282  -17.8628   19.7225 C   0  0  0  0  0  0  0  0  0  0  0  0
  -30.8716  -19.5332   20.7040 C   0  0  0  0  0  0  0  0  0  0  0  0
  -26.8959  -28.3452   20.7929 C   0  0  0  0  0  0  0  0  0  0  0  0
  -31.4688  -17.1956   20.8305 C   0  0  0  0  0  0  0  0  0  0  0  0
  -19.1622  -15.1592   24.9658 C   0  0  0  0  0  0  0  0  0  0  0  0
  -23.5672  -11.9057   20.6475 C   0  0  0  0  0  0  0  0  0  0  0  0
  -29.7102  -19.1988   20.0075 C   0  0  0  0  0  0  0  0  0  0  0  0
  -24.6668  -11.5474   18.3738 C   0  0  0  0  0  0  0  0  0  0  0  0
  -22.1751  -35.4203   17.5118 C   0  0  0  0  0  0  0  0  0  0  0  0
  -24.6432  -29.1410   20.4034 C   0  0  0  0  0  0  0  0  0  0  0  0
  -22.9462  -34.2424   17.5336 C   0  0  0  0  0  0  0  0  0  0  0  0
  -25.8712  -29.2632   21.0692 C   0  0  0  0  0  0  0  0  0  0  0  0
  -30.3074  -16.8612   20.1341 C   0  0  0  0  0  0  0  0  0  0  0  0
  -21.3861  -12.0557   22.3804 C   0  0  0  0  0  0  0  0  0  0  0  0
  -26.6977  -27.3125   19.8767 C   0  0  0  0  0  0  0  0  0  0  0  0
  -20.2757  -13.1926   24.1115 C   0  0  0  0  0  0  0  0  0  0  0  0
  -20.1848  -15.3329   25.8985 C   0  0  0  0  0  0  0  0  0  0  0  0
  -31.7509  -18.5316   21.1155 C   0  0  0  0  0  0  0  0  0  0  0  0
  -19.2077  -14.0890   24.0723 C   0  0  0  0  0  0  0  0  0  0  0  0
  -24.6940  -11.8289   19.7528 C   0  0  0  0  0  0  0  0  0  0  0  0
  -25.9844  -11.5915   17.9883 C   0  0  0  0  0  0  0  0  0  0  0  0
  -28.7684  -20.2708   19.5697 C   0  0  0  0  0  0  0  0  0  0  0  0
  -23.5504  -11.2709   17.5177 C   0  0  0  0  0  0  0  0  0  0  0  0
  -24.6133  -32.3135   20.2081 C   0  0  0  0  0  0  0  0  0  0  0  0
  -24.9430  -32.1259   23.4297 C   0  0  0  0  0  0  0  0  0  0  0  0
  -25.9570  -30.3131   26.1375 C   0  0  0  0  0  0  0  0  0  0  0  0
  -30.7878  -14.3887   20.1810 C   0  0  0  0  0  0  0  0  0  0  0  0
  -22.4922  -36.5927   18.4060 C   0  0  0  0  0  0  0  0  0  0  0  0
  -23.5188  -30.0958   20.6977 C   0  0  0  0  0  0  0  0  0  0  0  0
  -26.1252  -30.3601   22.0695 C   0  0  0  0  0  0  0  0  0  0  0  0
  -23.3896  -36.2325   19.5872 C   0  0  0  0  0  0  0  0  0  0  0  0
  -30.4074  -10.8838   19.6825 C   0  0  0  0  0  0  0  0  0  0  0  0
  -24.5663  -35.3799   19.1233 C   0  0  0  0  0  0  0  0  0  0  0  0
  -28.8972  -10.7036   19.5124 C   0  0  0  0  0  0  0  0  0  0  0  0
  -30.7374  -11.9619   20.7133 C   0  0  0  0  0  0  0  0  0  0  0  0
  -28.5782  -13.0789   20.3143 C   0  0  0  0  0  0  0  0  0  0  0  0
  -24.0835  -34.0578   18.5147 C   0  0  1  0  0  0  0  0  0  0  0  0
  -23.9998  -31.4308   21.2579 C   0  0  1  0  0  0  0  0  0  0  0  0
  -28.1964  -12.0488   19.2387 C   0  0  2  0  0  0  0  0  0  0  0  0
  -26.1352  -30.4387   28.6375 C   0  0  0  0  0  0  0  0  0  0  0  0
  -27.3702  -33.9554   23.1623 C   0  0  0  0  0  0  0  0  0  0  0  0
  -28.0453  -33.2824   25.4773 C   0  0  0  0  0  0  0  0  0  0  0  0
  -25.8840  -34.4715   25.1063 C   0  0  0  0  0  0  0  0  0  0  0  0
  -24.1515  -27.9960   26.4987 C   0  0  0  0  0  0  0  0  0  0  0  0
  -29.1056  -21.7178   19.8965 C   0  0  0  0  0  0  0  0  0  0  0  0
  -28.0497  -22.6908   19.3686 C   0  0  0  0  0  0  0  0  0  0  0  0
  -28.3871  -24.1327   19.7401 C   0  0  0  0  0  0  0  0  0  0  0  0
  -27.3187  -25.1025   19.2555 C   0  0  0  0  0  0  0  0  0  1  0  0
  -26.1120  -32.0598   24.3826 C   0  0  1  0  0  0  0  0  0  0  0  0
  -25.2748  -30.0096   27.4593 C   0  0  2  0  0  0  0  0  0  0  0  0
  -26.8491  -33.4226   24.5119 C   0  0  0  0  0  0  0  0  0  0  0  0
  -25.9308  -12.0363   20.2125 N   0  0  0  0  0  0  0  0  0  0  0  0
  -26.6931  -11.8849   19.1160 N   0  0  0  0  0  0  0  0  0  0  0  0
  -24.9968  -31.2724   22.3186 N   0  0  0  0  0  0  0  0  0  0  0  0
  -30.0419  -13.2088   20.3872 N   0  0  0  0  0  0  0  0  0  0  0  0
  -26.5943  -11.4073   16.7981 N   0  0  0  0  0  0  0  0  0  0  0  0
  -22.2652  -11.2650   18.0767 N   0  0  0  0  0  0  0  0  0  0  0  0
  -30.0213  -15.5040   19.8446 N   0  0  0  0  0  0  0  0  0  0  0  0
  -23.7064  -33.1289   19.5584 N   0  0  0  0  0  0  0  0  0  0  0  0
  -25.5840  -31.5443   25.6412 N   0  0  0  0  0  0  0  0  0  0  0  0
  -25.0069  -28.5486   27.5804 N   0  3  0  0  0  0  0  0  0  0  0  0
  -27.7481  -19.9604   18.9591 O   0  0  0  0  0  0  0  0  0  0  0  0
  -23.6899  -11.0198   16.2966 O   0  0  0  0  0  0  0  0  0  0  0  0
  -25.8204  -32.2599   20.0037 O   0  0  0  0  0  0  0  0  0  0  0  0
  -24.0130  -32.9009   23.6663 O   0  0  0  0  0  0  0  0  0  0  0  0
  -26.7450  -29.5374   25.6011 O   0  0  0  0  0  0  0  0  0  0  0  0
  -32.0183  -14.4020   20.2678 O   0  0  0  0  0  0  0  0  0  0  0  0
  -20.3218  -12.1292   23.2256 O   0  0  0  0  0  0  0  0  0  0  0  0
  -27.6999  -26.4285   19.6199 O   0  0  0  0  0  0  0  0  0  1  0  0
  -20.1406  -16.3597   26.7575 F   0  0  0  0  0  0  0  0  0  0  0  0
  -32.8646  -18.8523   21.7870 F   0  0  0  0  0  0  0  0  0  0  0  0
  -18.2218  -13.9266   23.1793 F   0  0  0  0  0  0  0  0  0  0  0  0
  1  2  1  0  0  0  0
  1  5  2  0  0  0  0
  2  6  2  0  0  0  0
  3  8  2  0  0  0  0
  3 18  1  0  0  0  0
  4  9  1  0  0  0  0
  4 18  2  0  0  0  0
  5 21  1  0  0  0  0
  6 23  1  0  0  0  0
  7 10  2  0  0  0  0
  7 22  1  0  0  0  0
  8 26  1  0  0  0  0
  9 26  2  0  0  0  0
 10 27  1  0  0  0  0
 11 12  2  0  0  0  0
 11 28  1  0  0  0  0
 12 29  1  0  0  0  0
 13 19  2  0  0  0  0
 13 25  1  0  0  0  0
 14 19  1  0  0  0  0
 14 30  2  0  0  0  0
 15 24  1  0  0  0  0
 15 27  2  0  0  0  0
 16 25  2  0  0  0  0
 16 30  1  0  0  0  0
 17 29  2  0  0  0  0
 17 31  1  0  0  0  0
 18 32  1  0  0  0  0
 19 34  1  0  0  0  0
 20 32  1  0  0  0  0
 20 33  2  0  0  0  0
 20 35  1  0  0  0  0
 21 23  2  0  0  0  0
 21 40  1  0  0  0  0
 22 24  2  0  0  0  0
 22 41  1  0  0  0  0
 23 49  1  0  0  0  0
 24 42  1  0  0  0  0
 25 70  1  0  0  0  0
 26 80  1  0  0  0  0
 27 81  1  0  0  0  0
 28 31  2  0  0  0  0
 28 80  1  0  0  0  0
 29 82  1  0  0  0  0
 30 83  1  0  0  0  0
 31 84  1  0  0  0  0
 32 64  2  0  0  0  0
 33 65  1  0  0  0  0
 33 68  1  0  0  0  0
 34 57  1  0  0  0  0
 34 74  2  0  0  0  0
 35 69  1  0  0  0  0
 35 75  2  0  0  0  0
 36 50  1  0  0  0  0
 36 71  1  0  0  0  0
 36 76  2  0  0  0  0
 37 61  1  0  0  0  0
 37 66  1  0  0  0  0
 37 77  2  0  0  0  0
 38 62  1  0  0  0  0
 38 72  1  0  0  0  0
 38 78  2  0  0  0  0
 39 67  1  0  0  0  0
 39 70  1  0  0  0  0
 39 79  2  0  0  0  0
 40 43  1  0  0  0  0
 41 50  1  0  0  0  0
 42 66  1  0  0  0  0
 43 45  1  0  0  0  0
 44 46  1  0  0  0  0
 44 47  1  0  0  0  0
 45 49  1  0  0  0  0
 46 51  1  0  0  0  0
 47 67  1  0  0  0  0
 48 51  1  0  0  0  0
 48 67  1  0  0  0  0
 49 71  1  0  0  0  0
 50 66  1  0  0  0  0
 51 65  1  0  0  0  0
 52 62  1  0  0  0  0
 53 63  1  0  0  0  0
 54 63  1  0  0  0  0
 55 63  1  0  0  0  0
 56 73  1  0  0  0  0
 57 58  1  0  0  0  0
 58 59  1  0  0  0  0
 59 60  1  0  0  0  0
 60 81  1  0  0  0  0
 61 63  1  0  0  0  0
 61 72  1  0  0  0  0
 62 73  1  0  0  0  0
 64 65  1  0  0  0  0
M  CHG  1  73   1
M  ISO  4  39 100  60 101  70 100  81 101
M  END
> <Batch ID>
0133

> <Smiles>
CNC(C)C(=O)NC(C(=O)N1Cc2cc([101O:1][101CH2:1]CCCC(=O)c3cc(F)cc([100NH:0][100C:0](=O)N4CCCC(n5nc(-c6ccc(Oc7ccc(F)cc7F)cc6)c(C(N)=O)c5N)C4)c3)ccc2CC1C(=O)NC1CCCc2ccccc21)C(C)(C)C

> <Shape>
0.274

> <Color>
0.094

> <Negative vol penalty>
0.000

$$$$

  -OEChem-04052302303D

 86 94  0     1  0  0  0  0  0999 V2000
  -30.4640  -31.4818   25.2677 C   0  0  0  0  0  0  0  0  0  0  0  0
  -30.2506  -30.2119   24.7414 C   0  0  0  0  0  0  0  0  0  0  0  0
  -25.0712  -20.9468   19.7019 C   0  0  0  0  0  0  0  0  0  0  0  0
  -25.4691  -20.1597   17.4526 C   0  0  0  0  0  0  0  0  0  0  0  0
  -29.3859  -32.3435   25.4655 C   0  0  0  0  0  0  0  0  0  0  0  0
  -28.9586  -29.8024   24.4136 C   0  0  0  0  0  0  0  0  0  0  0  0
  -28.7371  -27.4867   19.9154 C   0  0  0  0  0  0  0  0  0  0  0  0
  -31.6161  -18.5000   14.4787 C   0  0  0  0  0  0  0  0  0  0  0  0
  -31.5181  -17.2351   13.8991 C   0  0  0  0  0  0  0  0  0  0  0  0
  -24.7951  -22.2213   19.2070 C   0  0  0  0  0  0  0  0  0  0  0  0
  -25.1929  -21.4342   16.9577 C   0  0  0  0  0  0  0  0  0  0  0  0
  -29.1636  -26.1605   19.8603 C   0  0  0  0  0  0  0  0  0  0  0  0
  -26.7918  -24.4005   16.6828 C   0  0  0  0  0  0  0  0  0  0  0  0
  -27.6522  -24.9208   15.7161 C   0  0  0  0  0  0  0  0  0  0  0  0
  -26.8675  -25.4251   19.9371 C   0  0  0  0  0  0  0  0  0  0  0  0
  -32.5881  -17.5169   16.4601 C   0  0  0  0  0  0  0  0  0  0  0  0
  -25.8075  -25.0895   14.1651 C   0  0  0  0  0  0  0  0  0  0  0  0
  -25.4083  -19.9160   18.8246 C   0  0  0  0  0  0  0  0  0  0  0  0
  -24.7787  -17.5497   19.5404 C   0  0  0  0  0  0  0  0  0  0  0  0
  -28.0812  -31.9479   25.1310 C   0  0  0  0  0  0  0  0  0  0  0  0
  -27.3707  -27.7923   19.9929 C   0  0  0  0  0  0  0  0  0  0  0  0
  -27.8618  -30.6590   24.6084 C   0  0  0  0  0  0  0  0  0  0  0  0
  -26.4261  -26.7561   19.9905 C   0  0  0  0  0  0  0  0  0  0  0  0
  -32.1511  -18.6410   15.7592 C   0  0  0  0  0  0  0  0  0  0  0  0
  -31.9550  -16.1111   14.6000 C   0  0  0  0  0  0  0  0  0  0  0  0
  -32.4900  -16.2519   15.8805 C   0  0  0  0  0  0  0  0  0  0  0  0
  -24.8558  -22.4651   17.8350 C   0  0  0  0  0  0  0  0  0  0  0  0
  -28.2289  -25.1294   19.8741 C   0  0  0  0  0  0  0  0  0  0  0  0
  -25.4393  -24.2246   16.3907 C   0  0  0  0  0  0  0  0  0  0  0  0
  -27.1601  -25.2654   14.4573 C   0  0  0  0  0  0  0  0  0  0  0  0
  -24.9471  -24.5691   15.1318 C   0  0  0  0  0  0  0  0  0  0  0  0
  -25.6942  -18.5993   19.3352 C   0  0  0  0  0  0  0  0  0  0  0  0
  -25.5418  -16.5202   20.0347 C   0  0  0  0  0  0  0  0  0  0  0  0
  -23.3650  -17.5090   19.3051 C   0  0  0  0  0  0  0  0  0  0  0  0
  -25.5181  -29.2633   22.1160 C   0  0  0  0  0  0  0  0  0  0  0  0
  -29.8465  -22.1727   18.5328 C   0  0  0  0  0  0  0  0  0  0  0  0
  -23.2572  -28.8910   19.8198 C   0  0  0  0  0  0  0  0  0  0  0  0
  -22.1615  -27.1684   17.0851 C   0  0  0  0  0  0  0  0  0  0  0  0
  -31.3517  -15.1552   19.5527 C   0  0  0  0  0  0  0  0  0  0  0  0
  -26.9417  -32.8966   25.4069 C   0  0  0  0  0  0  0  0  0  0  0  0
  -26.9256  -29.2287   20.0247 C   0  0  0  0  0  0  0  0  0  0  0  0
  -24.9466  -27.0316   20.0522 C   0  0  0  0  0  0  0  0  0  0  0  0
  -25.6500  -32.5238   24.6838 C   0  0  0  0  0  0  0  0  0  0  0  0
  -29.5193  -15.6848   22.5591 C   0  0  0  0  0  0  0  0  0  0  0  0
  -25.3615  -31.0341   24.8403 C   0  0  0  0  0  0  0  0  0  0  0  0
  -28.2486  -16.3971   22.0923 C   0  0  0  0  0  0  0  0  0  0  0  0
  -30.7396  -16.1200   21.7507 C   0  0  0  0  0  0  0  0  0  0  0  0
  -29.3210  -16.7044   19.8220 C   0  0  0  0  0  0  0  0  0  0  0  0
  -26.4780  -30.1875   24.2172 C   0  0  1  0  0  0  0  0  0  0  0  0
  -25.5330  -29.4097   20.6207 C   0  0  1  0  0  0  0  0  0  0  0  0
  -28.0539  -16.2567   20.5706 C   0  0  2  0  0  0  0  0  0  0  0  0
  -31.8389  -14.7670   13.9593 C   0  0  0  0  0  0  0  0  0  0  0  0
  -20.7178  -26.6089   15.1102 C   0  0  0  0  0  0  0  0  0  0  0  0
  -21.5057  -27.5627   21.9359 C   0  0  0  0  0  0  0  0  0  0  0  0
  -20.0783  -26.6601   20.0877 C   0  0  0  0  0  0  0  0  0  0  0  0
  -20.2909  -29.1250   20.4068 C   0  0  0  0  0  0  0  0  0  0  0  0
  -23.7507  -28.8995   15.2861 C   0  0  0  0  0  0  0  0  0  0  0  0
  -32.2565  -20.0079   16.3855 C   0  0  0  0  0  0  0  0  0  0  0  0
  -32.9640  -15.0628   16.6499 C   0  0  0  0  0  0  0  0  0  0  0  0
  -31.0998  -21.7680   17.7746 C   0  0  0  0  0  0  0  0  0  0  0  0
  -29.8591  -23.5687   19.1239 C   0  0  0  0  0  0  0  0  0  1  0  0
  -30.9986  -20.3654   17.1794 C   0  0  0  0  0  0  0  0  0  0  0  0
  -31.8291  -14.2556   17.2896 C   0  0  0  0  0  0  0  0  0  0  0  0
  -22.2479  -27.8222   19.4767 C   0  0  1  0  0  0  0  0  0  0  0  0
  -21.6417  -27.6402   15.7391 C   0  0  2  0  0  0  0  0  0  0  0  0
  -21.0586  -27.7869   20.4775 C   0  0  0  0  0  0  0  0  0  0  0  0
  -26.9434  -18.2671   19.6719 N   0  0  0  0  0  0  0  0  0  0  0  0
  -26.8182  -16.9973   20.0937 N   0  0  0  0  0  0  0  0  0  0  0  0
  -24.5615  -28.4521   20.0882 N   0  0  0  0  0  0  0  0  0  0  0  0
  -30.4902  -15.9604   20.3160 N   0  0  0  0  0  0  0  0  0  0  0  0
  -25.2387  -15.2626   20.4205 N   0  0  0  0  0  0  0  0  0  0  0  0
  -22.7394  -18.6545   18.7944 N   0  0  0  0  0  0  0  0  0  0  0  0
  -26.3427  -30.1537   22.7768 N   0  0  0  0  0  0  0  0  0  0  0  0
  -21.8563  -28.0601   18.0916 N   0  0  0  0  0  0  0  0  0  0  0  0
  -31.0403  -15.0526   18.2025 N   0  0  0  0  0  0  0  0  0  0  0  0
  -22.7754  -27.8879   14.8040 N   0  3  0  0  0  0  0  0  0  0  0  0
  -22.6742  -16.4925   19.5561 O   0  0  0  0  0  0  0  0  0  0  0  0
  -24.8096  -28.4069   22.6322 O   0  0  0  0  0  0  0  0  0  0  0  0
  -28.8812  -21.4219   18.6648 O   0  0  0  0  0  0  0  0  0  0  0  0
  -22.9032  -30.0724   19.8418 O   0  0  0  0  0  0  0  0  0  0  0  0
  -22.7735  -26.1124   17.2299 O   0  0  0  0  0  0  0  0  0  0  0  0
  -32.3232  -14.5669   20.0396 O   0  0  0  0  0  0  0  0  0  0  0  0
  -24.5862  -23.7086   17.3517 O   0  0  0  0  0  0  0  0  0  0  0  0
  -28.6426  -23.8341   19.8210 O   0  0  0  0  0  0  0  0  0  1  0  0
  -27.9861  -25.7665   13.5296 F   0  0  0  0  0  0  0  0  0  0  0  0
  -23.6485  -24.4035   14.8457 F   0  0  0  0  0  0  0  0  0  0  0  0
  1  2  1  0  0  0  0
  1  5  2  0  0  0  0
  2  6  2  0  0  0  0
  3 10  2  0  0  0  0
  3 18  1  0  0  0  0
  4 11  1  0  0  0  0
  4 18  2  0  0  0  0
  5 20  1  0  0  0  0
  6 22  1  0  0  0  0
  7 12  2  0  0  0  0
  7 21  1  0  0  0  0
  8  9  2  0  0  0  0
  8 24  1  0  0  0  0
  9 25  1  0  0  0  0
 10 27  1  0  0  0  0
 11 27  2  0  0  0  0
 12 28  1  0  0  0  0
 13 14  2  0  0  0  0
 13 29  1  0  0  0  0
 14 30  1  0  0  0  0
 15 23  1  0  0  0  0
 15 28  2  0  0  0  0
 16 24  2  0  0  0  0
 16 26  1  0  0  0  0
 17 30  2  0  0  0  0
 17 31  1  0  0  0  0
 18 32  1  0  0  0  0
 19 32  1  0  0  0  0
 19 33  2  0  0  0  0
 19 34  1  0  0  0  0
 20 22  2  0  0  0  0
 20 40  1  0  0  0  0
 21 23  2  0  0  0  0
 21 41  1  0  0  0  0
 22 49  1  0  0  0  0
 23 42  1  0  0  0  0
 24 58  1  0  0  0  0
 25 26  2  0  0  0  0
 25 52  1  0  0  0  0
 26 59  1  0  0  0  0
 27 83  1  0  0  0  0
 28 84  1  0  0  0  0
 29 31  2  0  0  0  0
 29 83  1  0  0  0  0
 30 85  1  0  0  0  0
 31 86  1  0  0  0  0
 32 67  2  0  0  0  0
 33 68  1  0  0  0  0
 33 71  1  0  0  0  0
 34 72  1  0  0  0  0
 34 77  2  0  0  0  0
 35 50  1  0  0  0  0
 35 73  1  0  0  0  0
 35 78  2  0  0  0  0
 36 60  1  0  0  0  0
 36 61  1  0  0  0  0
 36 79  2  0  0  0  0
 37 64  1  0  0  0  0
 37 69  1  0  0  0  0
 37 80  2  0  0  0  0
 38 65  1  0  0  0  0
 38 74  1  0  0  0  0
 38 81  2  0  0  0  0
 39 70  1  0  0  0  0
 39 75  1  0  0  0  0
 39 82  2  0  0  0  0
 40 43  1  0  0  0  0
 41 50  1  0  0  0  0
 42 69  1  0  0  0  0
 43 45  1  0  0  0  0
 44 46  1  0  0  0  0
 44 47  1  0  0  0  0
 45 49  1  0  0  0  0
 46 51  1  0  0  0  0
 47 70  1  0  0  0  0
 48 51  1  0  0  0  0
 48 70  1  0  0  0  0
 49 73  1  0  0  0  0
 50 69  1  0  0  0  0
 51 68  1  0  0  0  0
 53 65  1  0  0  0  0
 54 66  1  0  0  0  0
 55 66  1  0  0  0  0
 56 66  1  0  0  0  0
 57 76  1  0  0  0  0
 58 62  1  0  0  0  0
 59 63  1  0  0  0  0
 60 62  1  0  0  0  0
 61 84  1  0  0  0  0
 63 75  1  0  0  0  0
 64 66  1  0  0  0  0
 64 74  1  0  0  0  0
 65 76  1  0  0  0  0
 67 68  1  0  0  0  0
M  CHG  1  76   1
M  ISO  4  39 100  61 101  75 100  84 101
M  END
> <Batch ID>
0133

> <Smiles>
CNC(C)C(=O)NC(C(=O)N1Cc2cc([101O:1][101CH2:1]C(=O)CCCc3ccc(C)c(CC[100NH:0][100C:0](=O)N4CCCC(n5nc(-c6ccc(Oc7ccc(F)cc7F)cc6)c(C(N)=O)c5N)C4)c3)ccc2CC1C(=O)NC1CCCc2ccccc21)C(C)(C)C

> <Shape>
0.184

> <Color>
0.079

> <Negative vol penalty>
0.000

$$$$

  -OEChem-04052302303D

 88 96  0     1  0  0  0  0  0999 V2000
  -20.7315  -35.0212   22.4918 C   0  0  0  0  0  0  0  0  0  0  0  0
  -21.9477  -34.4680   22.1040 C   0  0  0  0  0  0  0  0  0  0  0  0
  -26.9051  -13.0257   22.8490 C   0  0  0  0  0  0  0  0  0  0  0  0
  -25.7112  -13.2877   20.7650 C   0  0  0  0  0  0  0  0  0  0  0  0
  -19.8486  -34.2804   23.2764 C   0  0  0  0  0  0  0  0  0  0  0  0
  -22.2821  -33.1740   22.5017 C   0  0  0  0  0  0  0  0  0  0  0  0
  -25.4865  -29.0515   19.3012 C   0  0  0  0  0  0  0  0  0  0  0  0
  -25.9531  -12.1011   23.2783 C   0  0  0  0  0  0  0  0  0  0  0  0
  -24.7591  -12.3631   21.1943 C   0  0  0  0  0  0  0  0  0  0  0  0
  -26.8267  -28.6695   19.3403 C   0  0  0  0  0  0  0  0  0  0  0  0
  -24.4874   -9.0039   21.4443 C   0  0  0  0  0  0  0  0  0  0  0  0
  -24.0854   -8.0221   20.5388 C   0  0  0  0  0  0  0  0  0  0  0  0
  -26.2538  -26.8291   20.7906 C   0  0  0  0  0  0  0  0  0  0  0  0
  -28.4498  -21.0396   14.9533 C   0  0  0  0  0  0  0  0  0  0  0  0
  -27.8147  -22.9785   16.8559 C   0  0  0  0  0  0  0  0  0  0  0  0
  -21.8090   -8.8180   20.6863 C   0  0  0  0  0  0  0  0  0  0  0  0
  -26.7842  -13.6191   21.5924 C   0  0  0  0  0  0  0  0  0  0  0  0
  -28.9515  -14.3074   20.4363 C   0  0  0  0  0  0  0  0  0  0  0  0
  -20.1681  -32.9732   23.6758 C   0  0  0  0  0  0  0  0  0  0  0  0
  -24.5197  -28.3303   20.0166 C   0  0  0  0  0  0  0  0  0  0  0  0
  -21.4032  -32.4155   23.2935 C   0  0  0  0  0  0  0  0  0  0  0  0
  -24.9015  -27.2024   20.7570 C   0  0  0  0  0  0  0  0  0  0  0  0
  -29.0952  -22.2759   14.9314 C   0  0  0  0  0  0  0  0  0  0  0  0
  -27.4867  -20.7727   15.9265 C   0  0  0  0  0  0  0  0  0  0  0  0
  -28.7777  -23.2453   15.8827 C   0  0  0  0  0  0  0  0  0  0  0  0
  -27.1693  -21.7421   16.8778 C   0  0  0  0  0  0  0  0  0  0  0  0
  -24.8801  -11.7698   22.4509 C   0  0  0  0  0  0  0  0  0  0  0  0
  -27.2110  -27.5599   20.0874 C   0  0  0  0  0  0  0  0  0  0  0  0
  -23.5502   -9.8927   21.9710 C   0  0  0  0  0  0  0  0  0  0  0  0
  -22.7462   -7.9291   20.1598 C   0  0  0  0  0  0  0  0  0  0  0  0
  -22.2110   -9.7998   21.5920 C   0  0  0  0  0  0  0  0  0  0  0  0
  -27.7671  -14.5747   21.1487 C   0  0  0  0  0  0  0  0  0  0  0  0
  -29.5307  -15.5400   20.2585 C   0  0  0  0  0  0  0  0  0  0  0  0
  -31.3000  -26.7162   17.6599 C   0  0  0  0  0  0  0  0  0  0  0  0
  -29.4808  -13.0568   19.9764 C   0  0  0  0  0  0  0  0  0  0  0  0
  -31.5311  -25.9252   16.5926 C   0  0  0  0  0  0  0  0  0  0  0  0
  -22.5119  -29.0098   22.3853 C   0  0  0  0  0  0  0  0  0  0  0  0
  -21.4184  -26.0131   21.7970 C   0  0  0  0  0  0  0  0  0  0  0  0
  -22.0349  -22.8969   20.5496 C   0  0  0  0  0  0  0  0  0  0  0  0
  -27.3145  -21.0995   20.0822 C   0  0  0  0  0  0  0  0  0  0  0  0
  -19.2023  -32.2286   24.5631 C   0  0  0  0  0  0  0  0  0  0  0  0
  -23.0742  -28.7394   19.9426 C   0  0  0  0  0  0  0  0  0  0  0  0
  -23.8994  -26.3824   21.5263 C   0  0  0  0  0  0  0  0  0  0  0  0
  -19.4693  -30.7271   24.6292 C   0  0  0  0  0  0  0  0  0  0  0  0
  -29.8270  -19.8652   22.2823 C   0  0  0  0  0  0  0  0  0  0  0  0
  -20.9549  -30.4581   24.8470 C   0  0  0  0  0  0  0  0  0  0  0  0
  -29.6909  -18.3452   22.1770 C   0  0  0  0  0  0  0  0  0  0  0  0
  -28.4693  -20.5601   22.2064 C   0  0  0  0  0  0  0  0  0  0  0  0
  -27.5190  -18.6818   20.9245 C   0  0  0  0  0  0  0  0  0  0  0  0
  -21.7910  -31.0059   23.6841 C   0  0  1  0  0  0  0  0  0  0  0  0
  -22.2498  -28.2368   21.1238 C   0  0  1  0  0  0  0  0  0  0  0  0
  -28.8668  -17.9405   20.9399 C   0  0  2  0  0  0  0  0  0  0  0  0
  -30.1233  -22.5386   13.8804 C   0  0  0  0  0  0  0  0  0  0  0  0
  -26.8083  -19.4422   15.9296 C   0  0  0  0  0  0  0  0  0  0  0  0
  -33.8761  -25.8522   15.6819 C   0  0  0  0  0  0  0  0  0  0  0  0
  -20.9611  -20.6494   20.2441 C   0  0  0  0  0  0  0  0  0  0  0  0
  -21.8316  -25.4154   24.7605 C   0  0  0  0  0  0  0  0  0  0  0  0
  -21.6672  -22.9764   24.2201 C   0  0  0  0  0  0  0  0  0  0  0  0
  -19.7239  -24.4807   23.7918 C   0  0  0  0  0  0  0  0  0  0  0  0
  -22.2815  -23.0504   17.6044 C   0  0  0  0  0  0  0  0  0  0  0  0
  -29.4631  -24.5898   15.8793 C   0  0  0  0  0  0  0  0  0  0  0  0
  -26.1411  -21.4794   17.9286 C   0  0  0  0  0  0  0  0  0  0  0  0
  -30.4163  -26.4300   18.8427 C   0  0  0  0  0  0  0  0  0  0  0  0
  -32.4408  -26.2992   15.4444 C   0  0  0  0  0  0  0  0  0  0  0  0
  -30.8651  -24.5629   16.5069 C   0  0  0  0  0  0  0  0  0  0  0  0
  -29.3123  -27.4722   18.9770 C   0  0  0  0  0  0  0  0  0  1  0  0
  -21.7606  -24.6320   22.3014 C   0  0  1  0  0  0  0  0  0  0  0  0
  -21.2318  -22.0082   19.6170 C   0  0  2  0  0  0  0  0  0  0  0  0
  -21.2652  -24.3925   23.7556 C   0  0  0  0  0  0  0  0  0  0  0  0
  -27.6023  -15.8749   21.4060 N   0  0  0  0  0  0  0  0  0  0  0  0
  -28.6909  -16.4357   20.8523 N   0  0  0  0  0  0  0  0  0  0  0  0
  -22.4992  -26.8263   21.4277 N   0  0  0  0  0  0  0  0  0  0  0  0
  -27.7392  -20.1341   21.0099 N   0  0  0  0  0  0  0  0  0  0  0  0
  -30.6715  -15.9343   19.6537 N   0  0  0  0  0  0  0  0  0  0  0  0
  -28.7578  -11.8864   20.2442 N   0  0  0  0  0  0  0  0  0  0  0  0
  -21.7071  -30.1222   22.5411 N   0  0  0  0  0  0  0  0  0  0  0  0
  -21.2188  -23.6945   21.3236 N   0  0  0  0  0  0  0  0  0  0  0  0
  -26.6350  -20.6103   18.9733 N   0  0  0  0  0  0  0  0  0  0  0  0
  -21.9695  -21.7976   18.3393 N   0  3  0  0  0  0  0  0  0  0  0  0
  -30.5709  -12.9778   19.3608 O   0  0  0  0  0  0  0  0  0  0  0  0
  -23.3792  -28.6247   23.1607 O   0  0  0  0  0  0  0  0  0  0  0  0
  -20.2353  -26.3552   21.7264 O   0  0  0  0  0  0  0  0  0  0  0  0
  -23.2631  -22.8821   20.5903 O   0  0  0  0  0  0  0  0  0  0  0  0
  -27.5298  -22.3075   20.2286 O   0  0  0  0  0  0  0  0  0  0  0  0
  -23.9510  -10.8674   22.8693 O   0  0  0  0  0  0  0  0  0  0  0  0
  -28.5186  -27.1853   20.1277 O   0  0  0  0  0  0  0  0  0  1  0  0
  -22.3606   -6.9872   19.2890 F   0  0  0  0  0  0  0  0  0  0  0  0
  -21.3063  -10.6516   22.0936 F   0  0  0  0  0  0  0  0  0  0  0  0
  1  2  1  0  0  0  0
  1  5  2  0  0  0  0
  2  6  2  0  0  0  0
  3  8  2  0  0  0  0
  3 17  1  0  0  0  0
  4  9  1  0  0  0  0
  4 17  2  0  0  0  0
  5 19  1  0  0  0  0
  6 21  1  0  0  0  0
  7 10  2  0  0  0  0
  7 20  1  0  0  0  0
  8 27  1  0  0  0  0
  9 27  2  0  0  0  0
 10 28  1  0  0  0  0
 11 12  2  0  0  0  0
 11 29  1  0  0  0  0
 12 30  1  0  0  0  0
 13 22  1  0  0  0  0
 13 28  2  0  0  0  0
 14 23  1  0  0  0  0
 14 24  2  0  0  0  0
 15 25  1  0  0  0  0
 15 26  2  0  0  0  0
 16 30  2  0  0  0  0
 16 31  1  0  0  0  0
 17 32  1  0  0  0  0
 18 32  1  0  0  0  0
 18 33  2  0  0  0  0
 18 35  1  0  0  0  0
 19 21  2  0  0  0  0
 19 41  1  0  0  0  0
 20 22  2  0  0  0  0
 20 42  1  0  0  0  0
 21 50  1  0  0  0  0
 22 43  1  0  0  0  0
 23 25  2  0  0  0  0
 23 53  1  0  0  0  0
 24 26  1  0  0  0  0
 24 54  1  0  0  0  0
 25 61  1  0  0  0  0
 26 62  1  0  0  0  0
 27 85  1  0  0  0  0
 28 86  1  0  0  0  0
 29 31  2  0  0  0  0
 29 85  1  0  0  0  0
 30 87  1  0  0  0  0
 31 88  1  0  0  0  0
 32 70  2  0  0  0  0
 33 71  1  0  0  0  0
 33 74  1  0  0  0  0
 34 36  2  0  0  0  0
 34 63  1  0  0  0  0
 35 75  1  0  0  0  0
 35 80  2  0  0  0  0
 36 64  1  0  0  0  0
 36 65  1  0  0  0  0
 37 51  1  0  0  0  0
 37 76  1  0  0  0  0
 37 81  2  0  0  0  0
 38 67  1  0  0  0  0
 38 72  1  0  0  0  0
 38 82  2  0  0  0  0
 39 68  1  0  0  0  0
 39 77  1  0  0  0  0
 39 83  2  0  0  0  0
 40 73  1  0  0  0  0
 40 78  1  0  0  0  0
 40 84  2  0  0  0  0
 41 44  1  0  0  0  0
 42 51  1  0  0  0  0
 43 72  1  0  0  0  0
 44 46  1  0  0  0  0
 45 47  1  0  0  0  0
 45 48  1  0  0  0  0
 46 50  1  0  0  0  0
 47 52  1  0  0  0  0
 48 73  1  0  0  0  0
 49 52  1  0  0  0  0
 49 73  1  0  0  0  0
 50 76  1  0  0  0  0
 51 72  1  0  0  0  0
 52 71  1  0  0  0  0
 55 64  1  0  0  0  0
 56 68  1  0  0  0  0
 57 69  1  0  0  0  0
 58 69  1  0  0  0  0
 59 69  1  0  0  0  0
 60 79  1  0  0  0  0
 61 65  1  0  0  0  0
 62 78  1  0  0  0  0
 63 66  1  0  0  0  0
 66 86  1  0  0  0  0
 67 69  1  0  0  0  0
 67 77  1  0  0  0  0
 68 79  1  0  0  0  0
 70 71  1  0  0  0  0
M  CHG  1  79   1
M  ISO  4  40 100  66 101  78 100  86 101
M  END
> <Batch ID>
0133

> <Smiles>
CCC(=CC[101CH2:1][101O:1]c1ccc2c(c1)CN(C(=O)C(NC(=O)C(C)NC)C(C)(C)C)C(C(=O)NC1CCCc3ccccc31)C2)CCc1cc(C[100NH:0][100C:0](=O)N2CCCC(n3nc(-c4ccc(Oc5ccc(F)cc5F)cc4)c(C(N)=O)c3N)C2)c(C)cc1C

> <Shape>
0.217

> <Color>
0.081

> <Negative vol penalty>
0.000

$$$$

  -OEChem-04052302303D

 86 94  0     1  0  0  0  0  0999 V2000
  -29.6951  -23.6864   25.0744 C   0  0  0  0  0  0  0  0  0  0  0  0
  -28.4441  -23.5606   24.4790 C   0  0  0  0  0  0  0  0  0  0  0  0
  -27.5590  -26.3003   18.6548 C   0  0  0  0  0  0  0  0  0  0  0  0
  -28.4226  -25.8554   20.8668 C   0  0  0  0  0  0  0  0  0  0  0  0
  -30.7351  -22.8391   24.6943 C   0  0  0  0  0  0  0  0  0  0  0  0
  -28.2326  -22.5881   23.5023 C   0  0  0  0  0  0  0  0  0  0  0  0
  -23.8862  -20.0766   24.1705 C   0  0  0  0  0  0  0  0  0  0  0  0
  -27.9254  -25.0157   18.2533 C   0  0  0  0  0  0  0  0  0  0  0  0
  -28.7890  -24.5708   20.4654 C   0  0  0  0  0  0  0  0  0  0  0  0
  -22.7130  -20.7180   23.7756 C   0  0  0  0  0  0  0  0  0  0  0  0
  -26.7304  -21.8692   18.5764 C   0  0  0  0  0  0  0  0  0  0  0  0
  -25.8049  -21.1324   17.8374 C   0  0  0  0  0  0  0  0  0  0  0  0
  -22.7089  -19.4383   21.7307 C   0  0  0  0  0  0  0  0  0  0  0  0
  -17.5389  -27.0209   23.0098 C   0  0  0  0  0  0  0  0  0  0  0  0
  -18.2202  -29.3130   23.3549 C   0  0  0  0  0  0  0  0  0  0  0  0
  -19.4344  -27.9121   21.8056 C   0  0  0  0  0  0  0  0  0  0  0  0
  -27.3784  -20.9895   16.0096 C   0  0  0  0  0  0  0  0  0  0  0  0
  -27.8077  -26.7202   19.9615 C   0  0  0  0  0  0  0  0  0  0  0  0
  -27.8776  -29.2671   19.8350 C   0  0  0  0  0  0  0  0  0  0  0  0
  -30.5336  -21.8494   23.7193 C   0  0  0  0  0  0  0  0  0  0  0  0
  -24.4865  -19.1175   23.3421 C   0  0  0  0  0  0  0  0  0  0  0  0
  -29.2712  -21.7277   23.1078 C   0  0  0  0  0  0  0  0  0  0  0  0
  -23.8882  -18.7843   22.1185 C   0  0  0  0  0  0  0  0  0  0  0  0
  -17.3614  -28.2519   23.6413 C   0  0  0  0  0  0  0  0  0  0  0  0
  -18.5755  -26.8510   22.0920 C   0  0  0  0  0  0  0  0  0  0  0  0
  -19.2568  -29.1431   22.4370 C   0  0  0  0  0  0  0  0  0  0  0  0
  -28.5403  -24.1510   19.1586 C   0  0  0  0  0  0  0  0  0  0  0  0
  -22.1257  -20.4010   22.5542 C   0  0  0  0  0  0  0  0  0  0  0  0
  -27.9798  -22.1663   18.0320 C   0  0  0  0  0  0  0  0  0  0  0  0
  -26.1289  -20.6925   16.5540 C   0  0  0  0  0  0  0  0  0  0  0  0
  -28.3038  -21.7264   16.7486 C   0  0  0  0  0  0  0  0  0  0  0  0
  -27.4299  -28.0473   20.3766 C   0  0  0  0  0  0  0  0  0  0  0  0
  -27.2290  -30.2283   20.5711 C   0  0  0  0  0  0  0  0  0  0  0  0
  -28.7976  -29.5097   18.7624 C   0  0  0  0  0  0  0  0  0  0  0  0
  -27.2873  -18.8715   21.8592 C   0  0  0  0  0  0  0  0  0  0  0  0
  -26.2015  -15.9022   21.1334 C   0  0  0  0  0  0  0  0  0  0  0  0
  -23.5334  -13.8200   20.6948 C   0  0  0  0  0  0  0  0  0  0  0  0
  -22.1124  -30.2199   23.6810 C   0  0  0  0  0  0  0  0  0  0  0  0
  -31.7010  -20.9880   23.3074 C   0  0  0  0  0  0  0  0  0  0  0  0
  -25.7374  -18.4153   23.7946 C   0  0  0  0  0  0  0  0  0  0  0  0
  -24.4819  -17.7471   21.2019 C   0  0  0  0  0  0  0  0  0  0  0  0
  -31.2920  -19.7373   22.5335 C   0  0  0  0  0  0  0  0  0  0  0  0
  -25.3627  -30.9974   24.9089 C   0  0  0  0  0  0  0  0  0  0  0  0
  -30.2765  -20.0880   21.4506 C   0  0  0  0  0  0  0  0  0  0  0  0
  -26.3015  -30.4396   23.8377 C   0  0  0  0  0  0  0  0  0  0  0  0
  -24.1370  -30.1077   25.1040 C   0  0  0  0  0  0  0  0  0  0  0  0
  -24.3228  -29.2538   22.7996 C   0  0  0  0  0  0  0  0  0  0  0  0
  -28.9959  -20.6688   22.0624 C   0  0  1  0  0  0  0  0  0  0  0  0
  -26.5426  -17.8262   22.6406 C   0  0  1  0  0  0  0  0  0  0  0  0
  -25.5459  -30.1462   22.5276 C   0  0  2  0  0  0  0  0  0  0  0  0
  -16.2526  -28.4330   24.6223 C   0  0  0  0  0  0  0  0  0  0  0  0
  -21.9659  -23.8285   20.1699 C   0  0  0  0  0  0  0  0  0  0  0  0
  -22.9594  -11.4593   20.0664 C   0  0  0  0  0  0  0  0  0  0  0  0
  -26.7731  -16.5451   18.2059 C   0  0  0  0  0  0  0  0  0  0  0  0
  -25.3343  -14.5974   17.5697 C   0  0  0  0  0  0  0  0  0  0  0  0
  -27.4067  -14.2301   18.9086 C   0  0  0  0  0  0  0  0  0  0  0  0
  -18.5395  -22.4761   21.4968 C   0  0  0  0  0  0  0  0  0  0  0  0
  -22.2431  -13.3148   23.3099 C   0  0  0  0  0  0  0  0  0  0  0  0
  -18.7680  -25.5191   21.4080 C   0  0  0  0  0  0  0  0  0  0  0  0
  -20.1750  -30.2780   22.1311 C   0  0  0  0  0  0  0  0  0  0  0  0
  -20.5901  -23.1765   20.2389 C   0  0  0  0  0  0  0  0  0  0  0  0
  -19.7073  -24.6090   22.2119 C   0  0  0  0  0  0  0  0  0  0  0  0
  -20.7791  -22.3597   22.6319 C   0  0  0  0  0  0  0  0  0  1  0  0
  -25.3974  -15.3044   20.0043 C   0  0  1  0  0  0  0  0  0  0  0  0
  -23.2538  -12.4192   21.2086 C   0  0  2  0  0  0  0  0  0  0  0  0
  -26.2175  -15.1902   18.6883 C   0  0  0  0  0  0  0  0  0  0  0  0
  -19.9111  -23.1755   21.6376 C   0  0  1  0  0  0  0  0  0  0  0  0
  -26.5639  -28.2153   21.3795 N   0  0  0  0  0  0  0  0  0  0  0  0
  -26.4623  -29.5521   21.4740 N   0  0  0  0  0  0  0  0  0  0  0  0
  -25.7088  -17.0929   21.6859 N   0  0  0  0  0  0  0  0  0  0  0  0
  -23.4650  -29.8693   23.8243 N   0  0  0  0  0  0  0  0  0  0  0  0
  -27.2453  -31.5775   20.5278 N   0  0  0  0  0  0  0  0  0  0  0  0
  -30.1598  -29.6371   19.0664 N   0  0  0  0  0  0  0  0  0  0  0  0
  -28.1756  -19.6123   22.6152 N   0  0  0  0  0  0  0  0  0  0  0  0
  -24.8817  -14.0325   20.4992 N   0  0  0  0  0  0  0  0  0  0  0  0
  -21.5540  -29.9663   22.4342 N   0  0  0  0  0  0  0  0  0  0  0  0
  -22.0810  -12.4293   22.1281 N   0  3  0  0  0  0  0  0  0  0  0  0
  -28.4207  -29.6269   17.5717 O   0  0  0  0  0  0  0  0  0  0  0  0
  -27.0729  -18.9957   20.6591 O   0  0  0  0  0  0  0  0  0  0  0  0
  -27.2252  -15.3300   21.5159 O   0  0  0  0  0  0  0  0  0  0  0  0
  -22.6444  -14.6421   20.4841 O   0  0  0  0  0  0  0  0  0  0  0  0
  -21.4527  -30.7268   24.5948 O   0  0  0  0  0  0  0  0  0  0  0  0
  -28.8978  -22.8973   18.7673 O   0  0  0  0  0  0  0  0  0  0  0  0
  -20.9809  -21.0261   22.1661 O   0  0  0  0  0  0  0  0  0  1  0  0
  -25.2407  -19.9836   15.8450 F   0  0  0  0  0  0  0  0  0  0  0  0
  -29.5030  -22.0077   16.2208 F   0  0  0  0  0  0  0  0  0  0  0  0
  1  2  1  0  0  0  0
  1  5  2  0  0  0  0
  2  6  2  0  0  0  0
  3  8  2  0  0  0  0
  3 18  1  0  0  0  0
  4  9  1  0  0  0  0
  4 18  2  0  0  0  0
  5 20  1  0  0  0  0
  6 22  1  0  0  0  0
  7 10  2  0  0  0  0
  7 21  1  0  0  0  0
  8 27  1  0  0  0  0
  9 27  2  0  0  0  0
 10 28  1  0  0  0  0
 11 12  2  0  0  0  0
 11 29  1  0  0  0  0
 12 30  1  0  0  0  0
 13 23  1  0  0  0  0
 13 28  2  0  0  0  0
 14 24  2  0  0  0  0
 14 25  1  0  0  0  0
 15 24  1  0  0  0  0
 15 26  2  0  0  0  0
 16 25  2  0  0  0  0
 16 26  1  0  0  0  0
 17 30  2  0  0  0  0
 17 31  1  0  0  0  0
 18 32  1  0  0  0  0
 19 32  1  0  0  0  0
 19 33  2  0  0  0  0
 19 34  1  0  0  0  0
 20 22  2  0  0  0  0
 20 39  1  0  0  0  0
 21 23  2  0  0  0  0
 21 40  1  0  0  0  0
 22 48  1  0  0  0  0
 23 41  1  0  0  0  0
 24 51  1  0  0  0  0
 25 59  1  0  0  0  0
 26 60  1  0  0  0  0
 27 83  1  0  0  0  0
 28 84  1  0  0  0  0
 29 31  2  0  0  0  0
 29 83  1  0  0  0  0
 30 85  1  0  0  0  0
 31 86  1  0  0  0  0
 32 68  2  0  0  0  0
 33 69  1  0  0  0  0
 33 72  1  0  0  0  0
 34 73  1  0  0  0  0
 34 78  2  0  0  0  0
 35 49  1  0  0  0  0
 35 74  1  0  0  0  0
 35 79  2  0  0  0  0
 36 64  1  0  0  0  0
 36 70  1  0  0  0  0
 36 80  2  0  0  0  0
 37 65  1  0  0  0  0
 37 75  1  0  0  0  0
 37 81  2  0  0  0  0
 38 71  1  0  0  0  0
 38 76  1  0  0  0  0
 38 82  2  0  0  0  0
 39 42  1  0  0  0  0
 40 49  1  0  0  0  0
 41 70  1  0  0  0  0
 42 44  1  0  0  0  0
 43 45  1  0  0  0  0
 43 46  1  0  0  0  0
 44 48  1  0  0  0  0
 45 50  1  0  0  0  0
 46 71  1  0  0  0  0
 47 50  1  0  0  0  0
 47 71  1  0  0  0  0
 48 74  1  0  0  0  0
 49 70  1  0  0  0  0
 50 69  1  0  0  0  0
 52 61  1  0  0  0  0
 53 65  1  0  0  0  0
 54 66  1  0  0  0  0
 55 66  1  0  0  0  0
 56 66  1  0  0  0  0
 57 67  1  0  0  0  0
 58 77  1  0  0  0  0
 59 62  1  0  0  0  0
 60 76  1  0  0  0  0
 61 67  1  0  0  0  0
 62 67  1  0  0  0  0
 63 67  1  0  0  0  0
 63 84  1  0  0  0  0
 64 66  1  0  0  0  0
 64 75  1  0  0  0  0
 65 77  1  0  0  0  0
 68 69  1  0  0  0  0
M  CHG  1  77   1
M  ISO  4  38 100  63 101  76 100  84 101
M  END
> <Batch ID>
0133

> <Smiles>
CCC(C)(CCc1cc(C)cc(C[100NH:0][100C:0](=O)N2CCCC(n3nc(-c4ccc(Oc5ccc(F)cc5F)cc4)c(C(N)=O)c3N)C2)c1)[101CH2:1][101O:1]c1ccc2c(c1)CN(C(=O)C(NC(=O)C(C)NC)C(C)(C)C)C(C(=O)NC1CCCc3ccccc31)C2

> <Shape>
0.197

> <Color>
0.078

> <Negative vol penalty>
0.000

$$$$

  -OEChem-04052302303D

 86 94  0     1  0  0  0  0  0999 V2000
  -30.3432  -31.4101   25.5841 C   0  0  0  0  0  0  0  0  0  0  0  0
  -29.8794  -30.3654   24.7912 C   0  0  0  0  0  0  0  0  0  0  0  0
  -23.2503   -9.9817   22.1405 C   0  0  0  0  0  0  0  0  0  0  0  0
  -24.3371   -9.0975   20.1723 C   0  0  0  0  0  0  0  0  0  0  0  0
  -29.4393  -32.1992   26.2943 C   0  0  0  0  0  0  0  0  0  0  0  0
  -28.5114  -30.1083   24.7089 C   0  0  0  0  0  0  0  0  0  0  0  0
  -26.9746  -29.2710   19.9568 C   0  0  0  0  0  0  0  0  0  0  0  0
  -22.4068   -8.8713   22.1736 C   0  0  0  0  0  0  0  0  0  0  0  0
  -23.4936   -7.9871   20.2054 C   0  0  0  0  0  0  0  0  0  0  0  0
  -27.2362  -28.0132   19.4153 C   0  0  0  0  0  0  0  0  0  0  0  0
  -22.5756   -5.6437   23.1669 C   0  0  0  0  0  0  0  0  0  0  0  0
  -22.3664   -5.0250   24.3994 C   0  0  0  0  0  0  0  0  0  0  0  0
  -24.9630  -27.3493   19.8748 C   0  0  0  0  0  0  0  0  0  0  0  0
  -31.5057  -17.9742   20.7030 C   0  0  0  0  0  0  0  0  0  0  0  0
  -30.2541  -19.0631   18.4601 C   0  0  0  0  0  0  0  0  0  0  0  0
  -19.9989   -5.4729   24.2223 C   0  0  0  0  0  0  0  0  0  0  0  0
  -24.2154  -10.0949   21.1398 C   0  0  0  0  0  0  0  0  0  0  0  0
  -26.3383  -11.3783   21.7344 C   0  0  0  0  0  0  0  0  0  0  0  0
  -28.0588  -31.9577   26.2130 C   0  0  0  0  0  0  0  0  0  0  0  0
  -25.7062  -29.5743   20.4721 C   0  0  0  0  0  0  0  0  0  0  0  0
  -27.5882  -30.8940   25.4197 C   0  0  0  0  0  0  0  0  0  0  0  0
  -24.6872  -28.6125   20.4199 C   0  0  0  0  0  0  0  0  0  0  0  0
  -31.0483  -17.1378   19.6848 C   0  0  0  0  0  0  0  0  0  0  0  0
  -31.3373  -19.3551   20.5998 C   0  0  0  0  0  0  0  0  0  0  0  0
  -30.4225  -17.6823   18.5634 C   0  0  0  0  0  0  0  0  0  0  0  0
  -22.5285   -7.8740   21.2061 C   0  0  0  0  0  0  0  0  0  0  0  0
  -26.2312  -27.0512   19.3768 C   0  0  0  0  0  0  0  0  0  0  0  0
  -21.4965   -6.1770   22.4621 C   0  0  0  0  0  0  0  0  0  0  0  0
  -30.7116  -19.8995   19.4784 C   0  0  0  0  0  0  0  0  0  0  0  0
  -21.0781   -4.9396   24.9271 C   0  0  0  0  0  0  0  0  0  0  0  0
  -20.2081   -6.0916   22.9898 C   0  0  0  0  0  0  0  0  0  0  0  0
  -25.0867  -11.2420   21.1048 C   0  0  0  0  0  0  0  0  0  0  0  0
  -26.7567  -12.6422   21.3967 C   0  0  0  0  0  0  0  0  0  0  0  0
  -27.0585  -10.4459   22.5515 C   0  0  0  0  0  0  0  0  0  0  0  0
  -24.5818  -30.3807   23.3338 C   0  0  0  0  0  0  0  0  0  0  0  0
  -21.8081  -30.7807   21.7000 C   0  0  0  0  0  0  0  0  0  0  0  0
  -19.9139  -29.9969   18.9716 C   0  0  0  0  0  0  0  0  0  0  0  0
  -27.4505  -16.6922   17.6202 C   0  0  0  0  0  0  0  0  0  0  0  0
  -27.1235  -32.8077   27.0361 C   0  0  0  0  0  0  0  0  0  0  0  0
  -25.4324  -30.9447   21.0286 C   0  0  0  0  0  0  0  0  0  0  0  0
  -23.3027  -28.8949   20.9416 C   0  0  0  0  0  0  0  0  0  0  0  0
  -25.6643  -32.7053   26.5998 C   0  0  0  0  0  0  0  0  0  0  0  0
  -24.2669  -16.4564   19.1968 C   0  0  0  0  0  0  0  0  0  0  0  0
  -25.2700  -31.2463   26.3931 C   0  0  0  0  0  0  0  0  0  0  0  0
  -24.2975  -15.0880   19.8800 C   0  0  0  0  0  0  0  0  0  0  0  0
  -24.9981  -16.4344   17.8564 C   0  0  0  0  0  0  0  0  0  0  0  0
  -26.4114  -14.5560   18.5966 C   0  0  0  0  0  0  0  0  0  0  0  0
  -26.1100  -30.5994   25.2851 C   0  0  1  0  0  0  0  0  0  0  0  0
  -24.2508  -30.9728   21.9931 C   0  0  1  0  0  0  0  0  0  0  0  0
  -25.7348  -14.5423   19.9780 C   0  0  2  0  0  0  0  0  0  0  0  0
  -31.2379  -15.6624   19.8175 C   0  0  0  0  0  0  0  0  0  0  0  0
  -33.1410  -20.9339   21.3351 C   0  0  0  0  0  0  0  0  0  0  0  0
  -17.6758  -30.4505   17.9312 C   0  0  0  0  0  0  0  0  0  0  0  0
  -20.4910  -28.9199   23.7280 C   0  0  0  0  0  0  0  0  0  0  0  0
  -18.5749  -28.6573   22.1380 C   0  0  0  0  0  0  0  0  0  0  0  0
  -19.1112  -30.9032   23.0820 C   0  0  0  0  0  0  0  0  0  0  0  0
  -21.1475  -31.1707   16.5510 C   0  0  0  0  0  0  0  0  0  0  0  0
  -31.8340  -20.2355   21.6987 C   0  0  0  0  0  0  0  0  0  0  0  0
  -29.9244  -16.8072   17.4604 C   0  0  0  0  0  0  0  0  0  0  0  0
  -27.8067  -23.8090   19.0142 C   0  0  0  0  0  0  0  0  0  0  0  0
  -29.2144  -23.2397   19.1521 C   0  0  0  0  0  0  0  0  0  0  0  0
  -27.8192  -25.3309   18.9589 C   0  0  0  0  0  0  0  0  0  1  0  0
  -29.1993  -21.7208   19.2506 C   0  0  0  0  0  0  0  0  0  0  0  0
  -20.6412  -29.8928   21.3412 C   0  0  1  0  0  0  0  0  0  0  0  0
  -19.1365  -30.8678   18.0012 C   0  0  2  0  0  0  0  0  0  0  0  0
  -19.7311  -29.5870   22.5641 C   0  0  0  0  0  0  0  0  0  0  0  0
  -24.7329  -12.3322   20.4191 N   0  0  0  0  0  0  0  0  0  0  0  0
  -25.7685  -13.1658   20.6159 N   0  0  0  0  0  0  0  0  0  0  0  0
  -23.0863  -30.2473   21.4816 N   0  0  0  0  0  0  0  0  0  0  0  0
  -26.3554  -15.9080   18.0189 N   0  0  0  0  0  0  0  0  0  0  0  0
  -27.8698  -13.3457   21.6944 N   0  0  0  0  0  0  0  0  0  0  0  0
  -26.4841   -9.1916   22.7988 N   0  0  0  0  0  0  0  0  0  0  0  0
  -25.6286  -31.0072   23.9827 N   0  0  0  0  0  0  0  0  0  0  0  0
  -19.9540  -30.5494   20.2343 N   0  0  0  0  0  0  0  0  0  0  0  0
  -28.7021  -16.1209   17.8148 N   0  0  0  0  0  0  0  0  0  0  0  0
  -19.7200  -30.7676   16.6336 N   0  3  0  0  0  0  0  0  0  0  0  0
  -28.1707  -10.7231   23.0612 O   0  0  0  0  0  0  0  0  0  0  0  0
  -23.9343  -29.4269   23.7495 O   0  0  0  0  0  0  0  0  0  0  0  0
  -21.5936  -31.9088   22.1507 O   0  0  0  0  0  0  0  0  0  0  0  0
  -20.4305  -28.9311   18.6433 O   0  0  0  0  0  0  0  0  0  0  0  0
  -27.3225  -17.8202   17.1322 O   0  0  0  0  0  0  0  0  0  0  0  0
  -21.7057   -6.7902   21.2382 O   0  0  0  0  0  0  0  0  0  0  0  0
  -26.4840  -25.8224   18.8494 O   0  0  0  0  0  0  0  0  0  1  0  0
  -30.5368  -21.2541   19.3617 O   0  0  0  0  0  0  0  0  0  0  0  0
  -20.8771   -4.3441   26.1100 F   0  0  0  0  0  0  0  0  0  0  0  0
  -19.1673   -6.6011   22.3168 F   0  0  0  0  0  0  0  0  0  0  0  0
  1  2  1  0  0  0  0
  1  5  2  0  0  0  0
  2  6  2  0  0  0  0
  3  8  2  0  0  0  0
  3 17  1  0  0  0  0
  4  9  1  0  0  0  0
  4 17  2  0  0  0  0
  5 19  1  0  0  0  0
  6 21  1  0  0  0  0
  7 10  2  0  0  0  0
  7 20  1  0  0  0  0
  8 26  1  0  0  0  0
  9 26  2  0  0  0  0
 10 27  1  0  0  0  0
 11 12  2  0  0  0  0
 11 28  1  0  0  0  0
 12 30  1  0  0  0  0
 13 22  1  0  0  0  0
 13 27  2  0  0  0  0
 14 23  2  0  0  0  0
 14 24  1  0  0  0  0
 15 25  2  0  0  0  0
 15 29  1  0  0  0  0
 16 30  2  0  0  0  0
 16 31  1  0  0  0  0
 17 32  1  0  0  0  0
 18 32  1  0  0  0  0
 18 33  2  0  0  0  0
 18 34  1  0  0  0  0
 19 21  2  0  0  0  0
 19 39  1  0  0  0  0
 20 22  2  0  0  0  0
 20 40  1  0  0  0  0
 21 48  1  0  0  0  0
 22 41  1  0  0  0  0
 23 25  1  0  0  0  0
 23 51  1  0  0  0  0
 24 29  2  0  0  0  0
 24 58  1  0  0  0  0
 25 59  1  0  0  0  0
 26 82  1  0  0  0  0
 27 83  1  0  0  0  0
 28 31  2  0  0  0  0
 28 82  1  0  0  0  0
 29 84  1  0  0  0  0
 30 85  1  0  0  0  0
 31 86  1  0  0  0  0
 32 67  2  0  0  0  0
 33 68  1  0  0  0  0
 33 71  1  0  0  0  0
 34 72  1  0  0  0  0
 34 77  2  0  0  0  0
 35 49  1  0  0  0  0
 35 73  1  0  0  0  0
 35 78  2  0  0  0  0
 36 64  1  0  0  0  0
 36 69  1  0  0  0  0
 36 79  2  0  0  0  0
 37 65  1  0  0  0  0
 37 74  1  0  0  0  0
 37 80  2  0  0  0  0
 38 70  1  0  0  0  0
 38 75  1  0  0  0  0
 38 81  2  0  0  0  0
 39 42  1  0  0  0  0
 40 49  1  0  0  0  0
 41 69  1  0  0  0  0
 42 44  1  0  0  0  0
 43 45  1  0  0  0  0
 43 46  1  0  0  0  0
 44 48  1  0  0  0  0
 45 50  1  0  0  0  0
 46 70  1  0  0  0  0
 47 50  1  0  0  0  0
 47 70  1  0  0  0  0
 48 73  1  0  0  0  0
 49 69  1  0  0  0  0
 50 68  1  0  0  0  0
 52 58  1  0  0  0  0
 53 65  1  0  0  0  0
 54 66  1  0  0  0  0
 55 66  1  0  0  0  0
 56 66  1  0  0  0  0
 57 76  1  0  0  0  0
 59 75  1  0  0  0  0
 60 61  1  0  0  0  0
 60 62  1  0  0  0  0
 61 63  1  0  0  0  0
 62 83  1  0  0  0  0
 63 84  1  0  0  0  0
 64 66  1  0  0  0  0
 64 74  1  0  0  0  0
 65 76  1  0  0  0  0
 67 68  1  0  0  0  0
M  CHG  1  76   1
M  ISO  4  38 100  62 101  75 100  83 101
M  END
> <Batch ID>
0133

> <Smiles>
CCc1cc(C)c(C[100NH:0][100C:0](=O)N2CCCC(n3nc(-c4ccc(Oc5ccc(F)cc5F)cc4)c(C(N)=O)c3N)C2)cc1OCCC[101CH2:1][101O:1]c1ccc2c(c1)CN(C(=O)C(NC(=O)C(C)NC)C(C)(C)C)C(C(=O)NC1CCCc3ccccc31)C2

> <Shape>
0.299

> <Color>
0.112

> <Negative vol penalty>
0.000

$$$$

  -OEChem-04052302303D

 89 97  0     1  0  0  0  0  0999 V2000
  -25.1455  -35.5146   25.9782 C   0  0  0  0  0  0  0  0  0  0  0  0
  -25.9457  -34.5289   25.4093 C   0  0  0  0  0  0  0  0  0  0  0  0
  -24.6345  -16.5084   19.7433 C   0  0  0  0  0  0  0  0  0  0  0  0
  -26.8033  -17.2588   18.9883 C   0  0  0  0  0  0  0  0  0  0  0  0
  -23.7914  -35.2686   26.2017 C   0  0  0  0  0  0  0  0  0  0  0  0
  -25.3924  -33.2963   25.0646 C   0  0  0  0  0  0  0  0  0  0  0  0
  -26.9349  -29.7722   20.2993 C   0  0  0  0  0  0  0  0  0  0  0  0
  -24.9961  -15.1891   19.4708 C   0  0  0  0  0  0  0  0  0  0  0  0
  -27.1650  -15.9394   18.7158 C   0  0  0  0  0  0  0  0  0  0  0  0
  -27.7618  -28.6552   20.1875 C   0  0  0  0  0  0  0  0  0  0  0  0
  -28.7894  -12.7347   18.1599 C   0  0  0  0  0  0  0  0  0  0  0  0
  -30.0528  -12.3097   18.5707 C   0  0  0  0  0  0  0  0  0  0  0  0
  -25.8365  -27.2167   20.3954 C   0  0  0  0  0  0  0  0  0  0  0  0
  -29.5909  -24.3698   13.2498 C   0  0  0  0  0  0  0  0  0  0  0  0
  -28.3655  -25.3997   15.5346 C   0  0  0  0  0  0  0  0  0  0  0  0
  -29.4750  -12.8080   20.8631 C   0  0  0  0  0  0  0  0  0  0  0  0
  -25.5381  -17.5433   19.5020 C   0  0  0  0  0  0  0  0  0  0  0  0
  -25.3443  -19.6050   20.9917 C   0  0  0  0  0  0  0  0  0  0  0  0
  -23.2192  -34.0357   25.8506 C   0  0  0  0  0  0  0  0  0  0  0  0
  -25.5516  -29.6194   20.4712 C   0  0  0  0  0  0  0  0  0  0  0  0
  -24.0297  -33.0331   25.2848 C   0  0  0  0  0  0  0  0  0  0  0  0
  -24.9940  -28.3334   20.5065 C   0  0  0  0  0  0  0  0  0  0  0  0
  -30.3695  -24.8702   14.2933 C   0  0  0  0  0  0  0  0  0  0  0  0
  -28.1996  -24.3844   13.3486 C   0  0  0  0  0  0  0  0  0  0  0  0
  -29.7568  -25.3852   15.4358 C   0  0  0  0  0  0  0  0  0  0  0  0
  -27.5869  -24.8993   14.4910 C   0  0  0  0  0  0  0  0  0  0  0  0
  -26.2613  -14.9046   18.9571 C   0  0  0  0  0  0  0  0  0  0  0  0
  -27.2130  -27.3772   20.2385 C   0  0  0  0  0  0  0  0  0  0  0  0
  -27.8688  -13.1964   19.1006 C   0  0  0  0  0  0  0  0  0  0  0  0
  -30.3956  -12.3463   19.9223 C   0  0  0  0  0  0  0  0  0  0  0  0
  -28.2116  -13.2330   20.4522 C   0  0  0  0  0  0  0  0  0  0  0  0
  -25.1650  -18.9064   19.7827 C   0  0  0  0  0  0  0  0  0  0  0  0
  -24.8277  -20.8538   20.7464 C   0  0  0  0  0  0  0  0  0  0  0  0
  -25.9258  -19.1646   22.2260 C   0  0  0  0  0  0  0  0  0  0  0  0
  -23.4723  -30.4117   22.7411 C   0  0  0  0  0  0  0  0  0  0  0  0
  -24.0408  -23.9407   15.6509 C   0  0  0  0  0  0  0  0  0  0  0  0
  -21.3019  -29.3287   20.5872 C   0  0  0  0  0  0  0  0  0  0  0  0
  -20.6375  -27.3449   17.8909 C   0  0  0  0  0  0  0  0  0  0  0  0
  -21.7611  -33.7993   26.1548 C   0  0  0  0  0  0  0  0  0  0  0  0
  -24.6702  -30.8347   20.5634 C   0  0  0  0  0  0  0  0  0  0  0  0
  -23.5126  -28.1156   20.6692 C   0  0  0  0  0  0  0  0  0  0  0  0
  -21.1714  -32.6005   25.4163 C   0  0  0  0  0  0  0  0  0  0  0  0
  -21.5555  -23.1062   18.0936 C   0  0  0  0  0  0  0  0  0  0  0  0
  -22.1028  -31.3972   25.5224 C   0  0  0  0  0  0  0  0  0  0  0  0
  -22.2045  -21.9787   18.8954 C   0  0  0  0  0  0  0  0  0  0  0  0
  -21.9509  -23.0438   16.6216 C   0  0  0  0  0  0  0  0  0  0  0  0
  -24.0781  -21.9151   17.1894 C   0  0  0  0  0  0  0  0  0  0  0  0
  -23.4610  -31.6921   24.8745 C   0  0  1  0  0  0  0  0  0  0  0  0
  -23.3375  -30.5554   21.2515 C   0  0  1  0  0  0  0  0  0  0  0  0
  -23.7292  -21.9595   18.6876 C   0  0  2  0  0  0  0  0  0  0  0  0
  -31.8573  -24.8435   14.1654 C   0  0  0  0  0  0  0  0  0  0  0  0
  -27.3105  -24.8154   11.0442 C   0  0  0  0  0  0  0  0  0  0  0  0
  -31.3161  -22.4866   18.3828 C   0  0  0  0  0  0  0  0  0  0  0  0
  -33.3971  -25.4719   17.9199 C   0  0  0  0  0  0  0  0  0  0  0  0
  -18.7634  -26.6396   16.3784 C   0  0  0  0  0  0  0  0  0  0  0  0
  -20.2207  -27.5049   22.7814 C   0  0  0  0  0  0  0  0  0  0  0  0
  -19.0388  -26.1895   21.0091 C   0  0  0  0  0  0  0  0  0  0  0  0
  -18.4659  -28.5906   21.3685 C   0  0  0  0  0  0  0  0  0  0  0  0
  -21.9945  -28.4479   15.5033 C   0  0  0  0  0  0  0  0  0  0  0  0
  -27.3867  -23.8440   12.2183 C   0  0  0  0  0  0  0  0  0  0  0  0
  -26.0992  -24.9261   14.6189 C   0  0  0  0  0  0  0  0  0  0  0  0
  -30.5812  -25.9333   16.5818 C   0  0  0  0  0  0  0  0  0  0  0  0
  -25.5416  -23.8389   15.5449 C   0  0  0  0  0  0  0  0  0  0  0  0
  -31.0665  -23.5491   17.3159 C   0  0  0  0  0  0  0  0  0  0  0  0
  -32.0598  -25.4652   18.6551 C   0  0  0  0  0  0  0  0  0  0  0  0
  -29.5557  -25.0645   18.7548 C   0  0  0  0  0  0  0  0  0  0  0  0
  -29.2046  -26.4278   19.3507 C   0  0  0  0  0  0  0  0  0  1  0  0
  -20.6706  -27.9910   20.2859 C   0  0  1  0  0  0  0  0  0  0  0  0
  -19.9031  -27.6236   16.5919 C   0  0  2  0  0  0  0  0  0  0  0  0
  -19.6272  -27.5727   21.3601 C   0  0  0  0  0  0  0  0  0  0  0  0
  -30.8133  -25.0055   17.8290 C   0  0  0  0  0  0  0  0  0  0  0  0
  -24.5801  -19.6495   18.8396 N   0  0  0  0  0  0  0  0  0  0  0  0
  -24.3873  -20.8281   19.4558 N   0  0  0  0  0  0  0  0  0  0  0  0
  -22.6931  -29.3352   20.7614 N   0  0  0  0  0  0  0  0  0  0  0  0
  -23.4062  -23.0044   16.4674 N   0  0  0  0  0  0  0  0  0  0  0  0
  -24.7118  -21.9604   21.5109 N   0  0  0  0  0  0  0  0  0  0  0  0
  -26.4075  -17.8509   22.3064 N   0  0  0  0  0  0  0  0  0  0  0  0
  -23.3636  -31.6027   23.4333 N   0  0  0  0  0  0  0  0  0  0  0  0
  -20.1300  -28.0898   18.9344 N   0  0  0  0  0  0  0  0  0  0  0  0
  -20.8375  -27.5185   15.4357 N   0  3  0  0  0  0  0  0  0  0  0  0
  -26.0008  -19.9087   23.2331 O   0  0  0  0  0  0  0  0  0  0  0  0
  -23.6594  -29.3022   23.2266 O   0  0  0  0  0  0  0  0  0  0  0  0
  -23.4521  -24.8283   15.0281 O   0  0  0  0  0  0  0  0  0  0  0  0
  -20.5880  -30.3322   20.6580 O   0  0  0  0  0  0  0  0  0  0  0  0
  -21.5658  -26.5436   17.9726 O   0  0  0  0  0  0  0  0  0  0  0  0
  -26.6146  -13.6173   18.6913 O   0  0  0  0  0  0  0  0  0  0  0  0
  -28.0178  -26.2853   20.1302 O   0  0  0  0  0  0  0  0  0  1  0  0
  -31.6083  -11.9367   20.3168 F   0  0  0  0  0  0  0  0  0  0  0  0
  -27.3309  -13.6745   21.3608 F   0  0  0  0  0  0  0  0  0  0  0  0
  1  2  1  0  0  0  0
  1  5  2  0  0  0  0
  2  6  2  0  0  0  0
  3  8  2  0  0  0  0
  3 17  1  0  0  0  0
  4  9  1  0  0  0  0
  4 17  2  0  0  0  0
  5 19  1  0  0  0  0
  6 21  1  0  0  0  0
  7 10  2  0  0  0  0
  7 20  1  0  0  0  0
  8 27  1  0  0  0  0
  9 27  2  0  0  0  0
 10 28  1  0  0  0  0
 11 12  2  0  0  0  0
 11 29  1  0  0  0  0
 12 30  1  0  0  0  0
 13 22  1  0  0  0  0
 13 28  2  0  0  0  0
 14 23  2  0  0  0  0
 14 24  1  0  0  0  0
 15 25  2  0  0  0  0
 15 26  1  0  0  0  0
 16 30  2  0  0  0  0
 16 31  1  0  0  0  0
 17 32  1  0  0  0  0
 18 32  1  0  0  0  0
 18 33  2  0  0  0  0
 18 34  1  0  0  0  0
 19 21  2  0  0  0  0
 19 39  1  0  0  0  0
 20 22  2  0  0  0  0
 20 40  1  0  0  0  0
 21 48  1  0  0  0  0
 22 41  1  0  0  0  0
 23 25  1  0  0  0  0
 23 51  1  0  0  0  0
 24 26  2  0  0  0  0
 24 60  1  0  0  0  0
 25 62  1  0  0  0  0
 26 61  1  0  0  0  0
 27 86  1  0  0  0  0
 28 87  1  0  0  0  0
 29 31  2  0  0  0  0
 29 86  1  0  0  0  0
 30 88  1  0  0  0  0
 31 89  1  0  0  0  0
 32 72  2  0  0  0  0
 33 73  1  0  0  0  0
 33 76  1  0  0  0  0
 34 77  1  0  0  0  0
 34 81  2  0  0  0  0
 35 49  1  0  0  0  0
 35 78  1  0  0  0  0
 35 82  2  0  0  0  0
 36 63  1  0  0  0  0
 36 75  1  0  0  0  0
 36 83  2  0  0  0  0
 37 68  1  0  0  0  0
 37 74  1  0  0  0  0
 37 84  2  0  0  0  0
 38 69  1  0  0  0  0
 38 79  1  0  0  0  0
 38 85  2  0  0  0  0
 39 42  1  0  0  0  0
 40 49  1  0  0  0  0
 41 74  1  0  0  0  0
 42 44  1  0  0  0  0
 43 45  1  0  0  0  0
 43 46  1  0  0  0  0
 44 48  1  0  0  0  0
 45 50  1  0  0  0  0
 46 75  1  0  0  0  0
 47 50  1  0  0  0  0
 47 75  1  0  0  0  0
 48 78  1  0  0  0  0
 49 74  1  0  0  0  0
 50 73  1  0  0  0  0
 52 60  1  0  0  0  0
 53 64  1  0  0  0  0
 54 65  1  0  0  0  0
 55 69  1  0  0  0  0
 56 70  1  0  0  0  0
 57 70  1  0  0  0  0
 58 70  1  0  0  0  0
 59 80  1  0  0  0  0
 61 63  1  0  0  0  0
 62 71  1  0  0  0  0
 64 71  1  0  0  0  0
 65 71  1  0  0  0  0
 66 67  1  0  0  0  0
 66 71  1  0  0  0  0
 67 87  1  0  0  0  0
 68 70  1  0  0  0  0
 68 79  1  0  0  0  0
 69 80  1  0  0  0  0
 72 73  1  0  0  0  0
M  CHG  1  80   1
M  ISO  4  36 100  63 100  67 101  87 101
M  END
> <Batch ID>
0133

> <Smiles>
CCc1cc(C)c(CC(CC)(CC)C[101CH2:1][101O:1]c2ccc3c(c2)CN(C(=O)C(NC(=O)C(C)NC)C(C)(C)C)C(C(=O)NC2CCCc4ccccc42)C3)cc1C[100CH2:0][100C:0](=O)N1CCCC(n2nc(-c3ccc(Oc4ccc(F)cc4F)cc3)c(C(N)=O)c2N)C1

> <Shape>
0.209

> <Color>
0.057

> <Negative vol penalty>
0.000

$$$$

  -OEChem-04052302303D

 85 93  0     1  0  0  0  0  0999 V2000
  -33.2211  -32.8131   25.2809 C   0  0  0  0  0  0  0  0  0  0  0  0
  -33.2861  -31.4504   25.0084 C   0  0  0  0  0  0  0  0  0  0  0  0
  -23.0756   -9.8675   19.9378 C   0  0  0  0  0  0  0  0  0  0  0  0
  -23.8366   -9.8701   22.2309 C   0  0  0  0  0  0  0  0  0  0  0  0
  -32.0877  -33.5414   24.9220 C   0  0  0  0  0  0  0  0  0  0  0  0
  -32.2171  -30.8149   24.3777 C   0  0  0  0  0  0  0  0  0  0  0  0
  -33.7180  -27.6957   20.6814 C   0  0  0  0  0  0  0  0  0  0  0  0
  -32.6494  -17.4876   23.4639 C   0  0  0  0  0  0  0  0  0  0  0  0
  -32.0621  -16.6064   22.5561 C   0  0  0  0  0  0  0  0  0  0  0  0
  -22.3322   -8.7137   20.1858 C   0  0  0  0  0  0  0  0  0  0  0  0
  -23.0931   -8.7162   22.4789 C   0  0  0  0  0  0  0  0  0  0  0  0
  -34.2224  -26.4531   21.0625 C   0  0  0  0  0  0  0  0  0  0  0  0
  -19.8654   -7.9163   23.0813 C   0  0  0  0  0  0  0  0  0  0  0  0
  -19.1090   -7.8738   24.2524 C   0  0  0  0  0  0  0  0  0  0  0  0
  -32.0946  -25.4388   20.5497 C   0  0  0  0  0  0  0  0  0  0  0  0
  -29.8777  -17.4514   23.1491 C   0  0  0  0  0  0  0  0  0  0  0  0
  -20.3513   -5.9352   24.9844 C   0  0  0  0  0  0  0  0  0  0  0  0
  -23.8279  -10.4457   20.9604 C   0  0  0  0  0  0  0  0  0  0  0  0
  -24.1690  -12.9712   20.8453 C   0  0  0  0  0  0  0  0  0  0  0  0
  -31.0082  -32.9164   24.2779 C   0  0  0  0  0  0  0  0  0  0  0  0
  -32.3925  -27.8212   20.2412 C   0  0  0  0  0  0  0  0  0  0  0  0
  -31.0675  -31.5352   24.0110 C   0  0  0  0  0  0  0  0  0  0  0  0
  -31.5766  -26.6837   20.1611 C   0  0  0  0  0  0  0  0  0  0  0  0
  -31.8508  -18.3507   24.2143 C   0  0  0  0  0  0  0  0  0  0  0  0
  -30.6763  -16.5882   22.3987 C   0  0  0  0  0  0  0  0  0  0  0  0
  -22.3409   -8.1380   21.4563 C   0  0  0  0  0  0  0  0  0  0  0  0
  -33.4099  -25.3249   20.9995 C   0  0  0  0  0  0  0  0  0  0  0  0
  -20.8648   -6.9682   22.8616 C   0  0  0  0  0  0  0  0  0  0  0  0
  -19.3520   -6.8833   25.2040 C   0  0  0  0  0  0  0  0  0  0  0  0
  -30.4650  -18.3326   24.0569 C   0  0  0  0  0  0  0  0  0  0  0  0
  -21.1077   -5.9777   23.8132 C   0  0  0  0  0  0  0  0  0  0  0  0
  -24.5965  -11.6373   20.7047 C   0  0  0  0  0  0  0  0  0  0  0  0
  -25.2608  -13.7217   20.4830 C   0  0  0  0  0  0  0  0  0  0  0  0
  -22.8985  -13.4858   21.2658 C   0  0  0  0  0  0  0  0  0  0  0  0
  -29.8279  -29.3946   21.2663 C   0  0  0  0  0  0  0  0  0  0  0  0
  -28.5314  -28.2975   18.5026 C   0  0  0  0  0  0  0  0  0  0  0  0
  -28.5648  -25.9638   16.0128 C   0  0  0  0  0  0  0  0  0  0  0  0
  -30.7267  -14.7684   20.6574 C   0  0  0  0  0  0  0  0  0  0  0  0
  -29.7846  -33.7356   23.9517 C   0  0  0  0  0  0  0  0  0  0  0  0
  -31.8716  -29.1642   19.8083 C   0  0  0  0  0  0  0  0  0  0  0  0
  -30.1527  -26.7616   19.6763 C   0  0  0  0  0  0  0  0  0  0  0  0
  -28.8503  -33.0624   22.9496 C   0  0  0  0  0  0  0  0  0  0  0  0
  -29.6119  -12.3591   18.2847 C   0  0  0  0  0  0  0  0  0  0  0  0
  -28.6229  -31.6025   23.3291 C   0  0  0  0  0  0  0  0  0  0  0  0
  -28.1725  -12.0663   18.7144 C   0  0  0  0  0  0  0  0  0  0  0  0
  -30.5275  -12.5857   19.4864 C   0  0  0  0  0  0  0  0  0  0  0  0
  -28.6210  -13.3069   20.8700 C   0  0  0  0  0  0  0  0  0  0  0  0
  -29.9386  -30.8151   23.3060 C   0  0  1  0  0  0  0  0  0  0  0  0
  -30.3502  -29.2612   19.8638 C   0  0  1  0  0  0  0  0  0  0  0  0
  -27.6477  -13.1357   19.6923 C   0  0  2  0  0  0  0  0  0  0  0  0
  -32.3738  -17.6267   27.1313 C   0  0  0  0  0  0  0  0  0  0  0  0
  -27.3593  -25.3070   13.9121 C   0  0  0  0  0  0  0  0  0  0  0  0
  -26.2456  -27.1594   20.1730 C   0  0  0  0  0  0  0  0  0  0  0  0
  -25.6084  -25.7431   18.2093 C   0  0  0  0  0  0  0  0  0  0  0  0
  -25.5368  -28.2299   18.0268 C   0  0  0  0  0  0  0  0  0  0  0  0
  -30.9984  -26.3204   14.3667 C   0  0  0  0  0  0  0  0  0  0  0  0
  -33.2587  -18.5667   26.3208 C   0  0  0  0  0  0  0  0  0  0  0  0
  -32.7156  -21.2426   23.5182 C   0  0  0  0  0  0  0  0  0  0  0  0
  -33.6710  -22.2771   22.9255 C   0  0  0  0  0  0  0  0  0  0  0  0
  -33.4412  -20.3171   24.5029 C   0  0  0  0  0  0  0  0  0  0  0  0
  -32.9697  -23.1740   21.9138 C   0  0  0  0  0  0  0  0  0  1  0  0
  -32.4954  -19.3113   25.2015 C   0  0  1  0  0  0  0  0  0  0  0  0
  -27.7750  -27.0561   18.0954 C   0  0  1  0  0  0  0  0  0  0  0  0
  -28.5139  -26.1020   14.5019 C   0  0  2  0  0  0  0  0  0  0  0  0
  -26.3177  -27.0456   18.6372 C   0  0  0  0  0  0  0  0  0  0  0  0
  -25.8612  -11.5427   20.2856 N   0  0  0  0  0  0  0  0  0  0  0  0
  -26.2377  -12.8266   20.1597 N   0  0  0  0  0  0  0  0  0  0  0  0
  -29.6876  -28.0981   19.2702 N   0  0  0  0  0  0  0  0  0  0  0  0
  -29.9687  -13.6146   20.3661 N   0  0  0  0  0  0  0  0  0  0  0  0
  -25.4708  -15.0534   20.4126 N   0  0  0  0  0  0  0  0  0  0  0  0
  -21.8870  -12.5757   21.6017 N   0  0  0  0  0  0  0  0  0  0  0  0
  -30.0795  -15.6917   21.4779 N   0  0  0  0  0  0  0  0  0  0  0  0
  -30.3130  -30.4962   21.9449 N   0  0  0  0  0  0  0  0  0  0  0  0
  -27.8728  -26.9769   16.6419 N   0  0  0  0  0  0  0  0  0  0  0  0
  -29.7823  -25.6101   13.8937 N   0  3  0  0  0  0  0  0  0  0  0  0
  -22.6620  -14.7162   21.3258 O   0  0  0  0  0  0  0  0  0  0  0  0
  -29.0418  -28.5606   21.7001 O   0  0  0  0  0  0  0  0  0  0  0  0
  -28.1157  -29.4030   18.1466 O   0  0  0  0  0  0  0  0  0  0  0  0
  -29.1561  -25.0466   16.5782 O   0  0  0  0  0  0  0  0  0  0  0  0
  -31.8556  -14.9384   20.1896 O   0  0  0  0  0  0  0  0  0  0  0  0
  -21.6154   -7.0122   21.6987 O   0  0  0  0  0  0  0  0  0  0  0  0
  -33.8995  -24.1109   21.3715 O   0  0  0  0  0  0  0  0  0  1  0  0
  -18.6266   -6.8435   26.3293 F   0  0  0  0  0  0  0  0  0  0  0  0
  -29.6894  -19.1581   24.7734 F   0  0  0  0  0  0  0  0  0  0  0  0
  -22.0672   -5.0649   23.6083 F   0  0  0  0  0  0  0  0  0  0  0  0
  1  2  1  0  0  0  0
  1  5  2  0  0  0  0
  2  6  2  0  0  0  0
  3 10  2  0  0  0  0
  3 18  1  0  0  0  0
  4 11  1  0  0  0  0
  4 18  2  0  0  0  0
  5 20  1  0  0  0  0
  6 22  1  0  0  0  0
  7 12  2  0  0  0  0
  7 21  1  0  0  0  0
  8  9  2  0  0  0  0
  8 24  1  0  0  0  0
  9 25  1  0  0  0  0
 10 26  1  0  0  0  0
 11 26  2  0  0  0  0
 12 27  1  0  0  0  0
 13 14  2  0  0  0  0
 13 28  1  0  0  0  0
 14 29  1  0  0  0  0
 15 23  1  0  0  0  0
 15 27  2  0  0  0  0
 16 25  2  0  0  0  0
 16 30  1  0  0  0  0
 17 29  2  0  0  0  0
 17 31  1  0  0  0  0
 18 32  1  0  0  0  0
 19 32  1  0  0  0  0
 19 33  2  0  0  0  0
 19 34  1  0  0  0  0
 20 22  2  0  0  0  0
 20 39  1  0  0  0  0
 21 23  2  0  0  0  0
 21 40  1  0  0  0  0
 22 48  1  0  0  0  0
 23 41  1  0  0  0  0
 24 30  2  0  0  0  0
 24 62  1  0  0  0  0
 25 72  1  0  0  0  0
 26 81  1  0  0  0  0
 27 82  1  0  0  0  0
 28 31  2  0  0  0  0
 28 81  1  0  0  0  0
 29 83  1  0  0  0  0
 30 84  1  0  0  0  0
 31 85  1  0  0  0  0
 32 66  2  0  0  0  0
 33 67  1  0  0  0  0
 33 70  1  0  0  0  0
 34 71  1  0  0  0  0
 34 76  2  0  0  0  0
 35 49  1  0  0  0  0
 35 73  1  0  0  0  0
 35 77  2  0  0  0  0
 36 63  1  0  0  0  0
 36 68  1  0  0  0  0
 36 78  2  0  0  0  0
 37 64  1  0  0  0  0
 37 74  1  0  0  0  0
 37 79  2  0  0  0  0
 38 69  1  0  0  0  0
 38 72  1  0  0  0  0
 38 80  2  0  0  0  0
 39 42  1  0  0  0  0
 40 49  1  0  0  0  0
 41 68  1  0  0  0  0
 42 44  1  0  0  0  0
 43 45  1  0  0  0  0
 43 46  1  0  0  0  0
 44 48  1  0  0  0  0
 45 50  1  0  0  0  0
 46 69  1  0  0  0  0
 47 50  1  0  0  0  0
 47 69  1  0  0  0  0
 48 73  1  0  0  0  0
 49 68  1  0  0  0  0
 50 67  1  0  0  0  0
 51 57  1  0  0  0  0
 52 64  1  0  0  0  0
 53 65  1  0  0  0  0
 54 65  1  0  0  0  0
 55 65  1  0  0  0  0
 56 75  1  0  0  0  0
 57 62  1  0  0  0  0
 58 59  1  0  0  0  0
 58 60  1  0  0  0  0
 59 61  1  0  0  0  0
 60 62  1  0  0  0  0
 61 82  1  0  0  0  0
 63 65  1  0  0  0  0
 63 74  1  0  0  0  0
 64 75  1  0  0  0  0
 66 67  1  0  0  0  0
M  CHG  1  75   1
M  ISO  4  38 100  61 101  72 100  82 101
M  END
> <Batch ID>
0133

> <Smiles>
CCC(CCC[101CH2:1][101O:1]c1ccc2c(c1)CN(C(=O)C(NC(=O)C(C)NC)C(C)(C)C)C(C(=O)NC1CCCc3ccccc31)C2)c1ccc([100NH:0][100C:0](=O)N2CCCC(n3nc(-c4ccc(Oc5ccc(F)cc5F)cc4)c(C(N)=O)c3N)C2)cc1F

> <Shape>
0.225

> <Color>
0.192

> <Negative vol penalty>
0.000

$$$$

  -OEChem-04052302303D

 84 92  0     1  0  0  0  0  0999 V2000
  -26.7271  -12.0809   17.0448 C   0  0  0  0  0  0  0  0  0  0  0  0
  -25.8577  -13.1380   16.7959 C   0  0  0  0  0  0  0  0  0  0  0  0
  -28.7808  -25.2757   18.6650 C   0  0  0  0  0  0  0  0  0  0  0  0
  -27.0839  -23.9951   19.8129 C   0  0  0  0  0  0  0  0  0  0  0  0
  -26.8840  -11.5999   18.3440 C   0  0  0  0  0  0  0  0  0  0  0  0
  -25.1436  -13.7140   17.8461 C   0  0  0  0  0  0  0  0  0  0  0  0
  -23.6064  -19.6108   18.4550 C   0  0  0  0  0  0  0  0  0  0  0  0
  -18.2331  -25.9325   23.1733 C   0  0  0  0  0  0  0  0  0  0  0  0
  -19.1211  -26.4129   24.1357 C   0  0  0  0  0  0  0  0  0  0  0  0
  -29.7067  -24.2592   18.8996 C   0  0  0  0  0  0  0  0  0  0  0  0
  -28.0098  -22.9785   20.0475 C   0  0  0  0  0  0  0  0  0  0  0  0
  -22.4283  -20.3057   18.1851 C   0  0  0  0  0  0  0  0  0  0  0  0
  -29.3987  -20.4289   18.3180 C   0  0  0  0  0  0  0  0  0  0  0  0
  -28.9897  -19.1157   18.0862 C   0  0  0  0  0  0  0  0  0  0  0  0
  -21.7753  -20.0849   20.4968 C   0  0  0  0  0  0  0  0  0  0  0  0
  -18.6682  -27.8738   21.8026 C   0  0  0  0  0  0  0  0  0  0  0  0
  -29.4217  -18.5727   20.4005 C   0  0  0  0  0  0  0  0  0  0  0  0
  -27.4694  -25.1437   19.1217 C   0  0  0  0  0  0  0  0  0  0  0  0
  -25.6595  -26.3271   17.7684 C   0  0  0  0  0  0  0  0  0  0  0  0
  -26.1788  -12.1765   19.4120 C   0  0  0  0  0  0  0  0  0  0  0  0
  -23.8732  -19.1374   19.7478 C   0  0  0  0  0  0  0  0  0  0  0  0
  -25.2901  -13.2393   19.1606 C   0  0  0  0  0  0  0  0  0  0  0  0
  -22.9588  -19.3864   20.7811 C   0  0  0  0  0  0  0  0  0  0  0  0
  -18.0067  -26.6629   22.0067 C   0  0  0  0  0  0  0  0  0  0  0  0
  -19.7827  -27.6239   23.9316 C   0  0  0  0  0  0  0  0  0  0  0  0
  -19.5563  -28.3543   22.7650 C   0  0  0  0  0  0  0  0  0  0  0  0
  -29.3212  -23.1106   19.5908 C   0  0  0  0  0  0  0  0  0  0  0  0
  -21.5112  -20.5403   19.2053 C   0  0  0  0  0  0  0  0  0  0  0  0
  -29.8194  -20.8141   19.5909 C   0  0  0  0  0  0  0  0  0  0  0  0
  -29.0012  -18.1876   19.1274 C   0  0  0  0  0  0  0  0  0  0  0  0
  -29.8308  -19.8860   20.6322 C   0  0  0  0  0  0  0  0  0  0  0  0
  -26.5126  -26.1936   18.8802 C   0  0  0  0  0  0  0  0  0  0  0  0
  -24.9540  -27.4798   18.0134 C   0  0  0  0  0  0  0  0  0  0  0  0
  -25.5173  -25.4843   16.6172 C   0  0  0  0  0  0  0  0  0  0  0  0
  -24.3094  -16.2660   21.0395 C   0  0  0  0  0  0  0  0  0  0  0  0
  -25.0141  -17.9959   23.6915 C   0  0  0  0  0  0  0  0  0  0  0  0
  -24.6719  -20.9188   25.4195 C   0  0  0  0  0  0  0  0  0  0  0  0
  -22.6053  -30.4349   22.4026 C   0  0  0  0  0  0  0  0  0  0  0  0
  -26.3455  -11.5915   20.7921 C   0  0  0  0  0  0  0  0  0  0  0  0
  -25.1610  -18.4127   20.0285 C   0  0  0  0  0  0  0  0  0  0  0  0
  -23.2075  -18.9169   22.1904 C   0  0  0  0  0  0  0  0  0  0  0  0
  -25.8348  -12.5024   21.9056 C   0  0  0  0  0  0  0  0  0  0  0  0
  -25.6544  -31.4525   20.8716 C   0  0  0  0  0  0  0  0  0  0  0  0
  -24.4585  -13.0571   21.5524 C   0  0  0  0  0  0  0  0  0  0  0  0
  -26.1072  -30.2126   20.0987 C   0  0  0  0  0  0  0  0  0  0  0  0
  -24.9877  -31.0808   22.1942 C   0  0  0  0  0  0  0  0  0  0  0  0
  -24.3288  -28.8786   21.3055 C   0  0  0  0  0  0  0  0  0  0  0  0
  -24.5167  -13.9066   20.2771 C   0  0  1  0  0  0  0  0  0  0  0  0
  -25.0908  -17.5285   21.2697 C   0  0  1  0  0  0  0  0  0  0  0  0
  -24.9569  -29.2004   19.9387 C   0  0  2  0  0  0  0  0  0  0  0  0
  -20.7280  -28.1186   24.9767 C   0  0  0  0  0  0  0  0  0  0  0  0
  -25.0533  -22.6088   27.2350 C   0  0  0  0  0  0  0  0  0  0  0  0
  -22.9310  -16.3334   25.1770 C   0  0  0  0  0  0  0  0  0  0  0  0
  -22.9480  -18.0597   26.9902 C   0  0  0  0  0  0  0  0  0  0  0  0
  -25.0248  -16.7796   26.4698 C   0  0  0  0  0  0  0  0  0  0  0  0
  -26.9831  -22.0982   23.9959 C   0  0  0  0  0  0  0  0  0  0  0  0
  -17.0462  -26.1435   20.9666 C   0  0  0  0  0  0  0  0  0  0  0  0
  -20.2529  -29.6535   22.5249 C   0  0  0  0  0  0  0  0  0  0  0  0
  -17.7027  -25.2495   19.9086 C   0  0  0  0  0  0  0  0  0  0  0  0
  -18.4301  -24.0432   20.5107 C   0  0  0  0  0  0  0  0  0  0  0  0
  -19.0420  -23.1654   19.4204 C   0  0  0  0  0  0  0  0  0  0  0  0
  -19.8031  -21.9864   20.0099 C   0  0  0  0  0  0  0  0  0  1  0  0
  -24.2196  -18.5468   24.8509 C   0  0  1  0  0  0  0  0  0  0  0  0
  -25.6914  -21.8040   26.1134 C   0  0  2  0  0  0  0  0  0  0  0  0
  -23.7749  -17.4372   25.8451 C   0  0  0  0  0  0  0  0  0  0  0  0
  -26.3644  -27.1826   19.7656 N   0  0  0  0  0  0  0  0  0  0  0  0
  -25.4100  -27.9486   19.2102 N   0  0  0  0  0  0  0  0  0  0  0  0
  -24.4781  -18.2074   22.4133 N   0  0  0  0  0  0  0  0  0  0  0  0
  -23.9047  -30.1195   21.9725 N   0  0  0  0  0  0  0  0  0  0  0  0
  -23.9944  -28.1280   17.3196 N   0  0  0  0  0  0  0  0  0  0  0  0
  -26.3199  -24.3391   16.5243 N   0  0  0  0  0  0  0  0  0  0  0  0
  -25.0683  -15.2132   20.5649 N   0  0  0  0  0  0  0  0  0  0  0  0
  -25.0431  -19.5912   25.4504 N   0  0  0  0  0  0  0  0  0  0  0  0
  -21.6369  -29.4715   22.1478 N   0  0  0  0  0  0  0  0  0  0  0  0
  -26.2998  -22.7546   25.1402 N   0  3  0  0  0  0  0  0  0  0  0  0
  -24.7144  -25.7481   15.6903 O   0  0  0  0  0  0  0  0  0  0  0  0
  -23.1072  -16.2478   21.2764 O   0  0  0  0  0  0  0  0  0  0  0  0
  -26.0749  -17.4060   23.9113 O   0  0  0  0  0  0  0  0  0  0  0  0
  -23.6468  -21.3604   24.9050 O   0  0  0  0  0  0  0  0  0  0  0  0
  -22.3275  -31.4987   22.9667 O   0  0  0  0  0  0  0  0  0  0  0  0
  -30.2244  -22.1184   19.8196 O   0  0  0  0  0  0  0  0  0  0  0  0
  -20.3602  -21.2178   18.9444 O   0  0  0  0  0  0  0  0  0  1  0  0
  -28.6069  -16.9269   18.9051 F   0  0  0  0  0  0  0  0  0  0  0  0
  -30.2327  -20.2504   21.8575 F   0  0  0  0  0  0  0  0  0  0  0  0
  1  2  1  0  0  0  0
  1  5  2  0  0  0  0
  2  6  2  0  0  0  0
  3 10  2  0  0  0  0
  3 18  1  0  0  0  0
  4 11  1  0  0  0  0
  4 18  2  0  0  0  0
  5 20  1  0  0  0  0
  6 22  1  0  0  0  0
  7 12  2  0  0  0  0
  7 21  1  0  0  0  0
  8  9  2  0  0  0  0
  8 24  1  0  0  0  0
  9 25  1  0  0  0  0
 10 27  1  0  0  0  0
 11 27  2  0  0  0  0
 12 28  1  0  0  0  0
 13 14  2  0  0  0  0
 13 29  1  0  0  0  0
 14 30  1  0  0  0  0
 15 23  1  0  0  0  0
 15 28  2  0  0  0  0
 16 24  2  0  0  0  0
 16 26  1  0  0  0  0
 17 30  2  0  0  0  0
 17 31  1  0  0  0  0
 18 32  1  0  0  0  0
 19 32  1  0  0  0  0
 19 33  2  0  0  0  0
 19 34  1  0  0  0  0
 20 22  2  0  0  0  0
 20 39  1  0  0  0  0
 21 23  2  0  0  0  0
 21 40  1  0  0  0  0
 22 48  1  0  0  0  0
 23 41  1  0  0  0  0
 24 57  1  0  0  0  0
 25 26  2  0  0  0  0
 25 51  1  0  0  0  0
 26 58  1  0  0  0  0
 27 81  1  0  0  0  0
 28 82  1  0  0  0  0
 29 31  2  0  0  0  0
 29 81  1  0  0  0  0
 30 83  1  0  0  0  0
 31 84  1  0  0  0  0
 32 66  2  0  0  0  0
 33 67  1  0  0  0  0
 33 70  1  0  0  0  0
 34 71  1  0  0  0  0
 34 76  2  0  0  0  0
 35 49  1  0  0  0  0
 35 72  1  0  0  0  0
 35 77  2  0  0  0  0
 36 63  1  0  0  0  0
 36 68  1  0  0  0  0
 36 78  2  0  0  0  0
 37 64  1  0  0  0  0
 37 73  1  0  0  0  0
 37 79  2  0  0  0  0
 38 69  1  0  0  0  0
 38 74  1  0  0  0  0
 38 80  2  0  0  0  0
 39 42  1  0  0  0  0
 40 49  1  0  0  0  0
 41 68  1  0  0  0  0
 42 44  1  0  0  0  0
 43 45  1  0  0  0  0
 43 46  1  0  0  0  0
 44 48  1  0  0  0  0
 45 50  1  0  0  0  0
 46 69  1  0  0  0  0
 47 50  1  0  0  0  0
 47 69  1  0  0  0  0
 48 72  1  0  0  0  0
 49 68  1  0  0  0  0
 50 67  1  0  0  0  0
 52 64  1  0  0  0  0
 53 65  1  0  0  0  0
 54 65  1  0  0  0  0
 55 65  1  0  0  0  0
 56 75  1  0  0  0  0
 57 59  1  0  0  0  0
 58 74  1  0  0  0  0
 59 60  1  0  0  0  0
 60 61  1  0  0  0  0
 61 62  1  0  0  0  0
 62 82  1  0  0  0  0
 63 65  1  0  0  0  0
 63 73  1  0  0  0  0
 64 75  1  0  0  0  0
 66 67  1  0  0  0  0
M  CHG  1  75   1
M  ISO  4  38 100  62 101  74 100  82 101
M  END
> <Batch ID>
0133

> <Smiles>
CNC(C)C(=O)NC(C(=O)N1Cc2cc([101O:1][101CH2:1]CCCCc3ccc(C)c(C[100NH:0][100C:0](=O)N4CCCC(n5nc(-c6ccc(Oc7ccc(F)cc7F)cc6)c(C(N)=O)c5N)C4)c3)ccc2CC1C(=O)NC1CCCc2ccccc21)C(C)(C)C

> <Shape>
0.209

> <Color>
0.087

> <Negative vol penalty>
0.000

$$$$

  -OEChem-04052302303D

 88 96  0     1  0  0  0  0  0999 V2000
  -16.8977  -27.7489   23.8007 C   0  0  0  0  0  0  0  0  0  0  0  0
  -17.5752  -27.1905   22.7215 C   0  0  0  0  0  0  0  0  0  0  0  0
  -23.7375  -10.0568   22.2407 C   0  0  0  0  0  0  0  0  0  0  0  0
  -24.1234  -11.5065   24.1344 C   0  0  0  0  0  0  0  0  0  0  0  0
  -17.3716  -28.9206   24.3892 C   0  0  0  0  0  0  0  0  0  0  0  0
  -18.7265  -27.8044   22.2295 C   0  0  0  0  0  0  0  0  0  0  0  0
  -22.4520  -24.4980   21.3163 C   0  0  0  0  0  0  0  0  0  0  0  0
  -29.2261  -20.4512   21.5559 C   0  0  0  0  0  0  0  0  0  0  0  0
  -28.4224  -21.5850   21.6743 C   0  0  0  0  0  0  0  0  0  0  0  0
  -23.1584   -9.1089   23.0843 C   0  0  0  0  0  0  0  0  0  0  0  0
  -23.5442  -10.5586   24.9781 C   0  0  0  0  0  0  0  0  0  0  0  0
  -22.3623  -23.7448   20.1465 C   0  0  0  0  0  0  0  0  0  0  0  0
  -24.2030   -6.7386   25.2556 C   0  0  0  0  0  0  0  0  0  0  0  0
  -24.5779   -5.4059   25.0858 C   0  0  0  0  0  0  0  0  0  0  0  0
  -23.9244  -25.2370   19.0731 C   0  0  0  0  0  0  0  0  0  0  0  0
  -28.5331  -20.2001   19.2551 C   0  0  0  0  0  0  0  0  0  0  0  0
  -22.2808   -4.8189   24.6211 C   0  0  0  0  0  0  0  0  0  0  0  0
  -24.2201  -11.2556   22.7657 C   0  0  0  0  0  0  0  0  0  0  0  0
  -24.1674  -13.2865   21.2229 C   0  0  0  0  0  0  0  0  0  0  0  0
  -18.5347  -29.5438   23.9102 C   0  0  0  0  0  0  0  0  0  0  0  0
  -23.2716  -25.6346   21.3700 C   0  0  0  0  0  0  0  0  0  0  0  0
  -19.2157  -28.9863   22.8112 C   0  0  0  0  0  0  0  0  0  0  0  0
  -24.0247  -26.0015   20.2456 C   0  0  0  0  0  0  0  0  0  0  0  0
  -29.2815  -19.7587   20.3463 C   0  0  0  0  0  0  0  0  0  0  0  0
  -27.6740  -22.0264   20.5831 C   0  0  0  0  0  0  0  0  0  0  0  0
  -27.7294  -21.3340   19.3734 C   0  0  0  0  0  0  0  0  0  0  0  0
  -23.0617   -9.3598   24.4530 C   0  0  0  0  0  0  0  0  0  0  0  0
  -23.0963  -24.1159   19.0238 C   0  0  0  0  0  0  0  0  0  0  0  0
  -22.8669   -7.1115   25.1083 C   0  0  0  0  0  0  0  0  0  0  0  0
  -23.6168   -4.4460   24.7685 C   0  0  0  0  0  0  0  0  0  0  0  0
  -21.9059   -6.1517   24.7910 C   0  0  0  0  0  0  0  0  0  0  0  0
  -24.8189  -12.2349   21.8949 C   0  0  0  0  0  0  0  0  0  0  0  0
  -25.1683  -13.9245   20.5317 C   0  0  0  0  0  0  0  0  0  0  0  0
  -22.7815  -13.6538   21.2236 C   0  0  0  0  0  0  0  0  0  0  0  0
  -22.7757  -28.7368   21.8537 C   0  0  0  0  0  0  0  0  0  0  0  0
  -24.8530  -21.3922   16.7772 C   0  0  0  0  0  0  0  0  0  0  0  0
  -30.3384  -16.0558   20.4043 C   0  0  0  0  0  0  0  0  0  0  0  0
  -26.0169  -28.8626   21.8184 C   0  0  0  0  0  0  0  0  0  0  0  0
  -28.9601  -27.4552   20.8167 C   0  0  0  0  0  0  0  0  0  0  0  0
  -18.9819  -30.8350   24.5486 C   0  0  0  0  0  0  0  0  0  0  0  0
  -23.3779  -26.4210   22.6477 C   0  0  0  0  0  0  0  0  0  0  0  0
  -24.9349  -27.2014   20.2578 C   0  0  0  0  0  0  0  0  0  0  0  0
  -20.4194  -31.2179   24.2061 C   0  0  0  0  0  0  0  0  0  0  0  0
  -29.9550  -12.5727   19.6555 C   0  0  0  0  0  0  0  0  0  0  0  0
  -20.6705  -31.0645   22.7094 C   0  0  0  0  0  0  0  0  0  0  0  0
  -28.5425  -12.2539   20.1437 C   0  0  0  0  0  0  0  0  0  0  0  0
  -30.6350  -13.6052   20.5491 C   0  0  0  0  0  0  0  0  0  0  0  0
  -28.4457  -14.5551   21.2022 C   0  0  0  0  0  0  0  0  0  0  0  0
  -20.4820  -29.6091   22.2647 C   0  0  1  0  0  0  0  0  0  0  0  0
  -23.8483  -27.8557   22.4289 C   0  0  1  0  0  0  0  0  0  0  0  0
  -27.7118  -13.5388   20.3094 C   0  0  2  0  0  0  0  0  0  0  0  0
  -26.8199  -23.2423   20.7340 C   0  0  0  0  0  0  0  0  0  0  0  0
  -23.4482  -18.7650   15.9136 C   0  0  0  0  0  0  0  0  0  0  0  0
  -31.4413  -27.1249   20.6382 C   0  0  0  0  0  0  0  0  0  0  0  0
  -22.6903  -21.7319   15.5235 C   0  0  0  0  0  0  0  0  0  0  0  0
  -25.7849  -31.0238   19.6770 C   0  0  0  0  0  0  0  0  0  0  0  0
  -28.2021  -30.6535   19.1403 C   0  0  0  0  0  0  0  0  0  0  0  0
  -27.5383  -31.4539   21.4077 C   0  0  0  0  0  0  0  0  0  0  0  0
  -29.0204  -25.7305   23.2210 C   0  0  0  0  0  0  0  0  0  0  0  0
  -30.1405  -18.5462   20.2202 C   0  0  0  0  0  0  0  0  0  0  0  0
  -26.9296  -21.7918   18.1811 C   0  0  0  0  0  0  0  0  0  0  0  0
  -25.6809  -20.9320   17.9746 C   0  0  0  0  0  0  0  0  0  0  0  0
  -29.4212  -17.2399   20.5798 C   0  0  0  0  0  0  0  0  0  0  0  0
  -22.9511  -19.6971   17.0137 C   0  0  0  0  0  0  0  0  0  0  0  0
  -22.7416  -21.9885   18.0217 C   0  0  0  0  0  0  0  0  0  1  0  0
  -27.0676  -29.0579   20.7522 C   0  0  1  0  0  0  0  0  0  0  0  0
  -30.2419  -27.1552   21.5726 C   0  0  2  0  0  0  0  0  0  0  0  0
  -23.3163  -21.1923   16.8275 C   0  0  1  0  0  0  0  0  0  0  0  0
  -27.1297  -30.5257   20.2431 C   0  0  0  0  0  0  0  0  0  0  0  0
  -26.1320  -12.2031   21.6523 N   0  0  0  0  0  0  0  0  0  0  0  0
  -26.3137  -13.2426   20.8201 N   0  0  0  0  0  0  0  0  0  0  0  0
  -25.0000  -27.9418   21.5287 N   0  0  0  0  0  0  0  0  0  0  0  0
  -29.8044  -14.8014   20.6996 N   0  0  0  0  0  0  0  0  0  0  0  0
  -25.1714  -14.9965   19.7113 N   0  0  0  0  0  0  0  0  0  0  0  0
  -21.8885  -12.8911   21.9885 N   0  0  0  0  0  0  0  0  0  0  0  0
  -21.6356  -28.8154   22.6305 N   0  0  0  0  0  0  0  0  0  0  0  0
  -28.3198  -28.5685   21.3186 N   0  0  0  0  0  0  0  0  0  0  0  0
  -30.1439  -25.8336   22.2544 N   0  3  0  0  0  0  0  0  0  0  0  0
  -22.3452  -14.6196   20.5524 O   0  0  0  0  0  0  0  0  0  0  0  0
  -22.9688  -29.3046   20.7851 O   0  0  0  0  0  0  0  0  0  0  0  0
  -25.3953  -21.9130   15.7991 O   0  0  0  0  0  0  0  0  0  0  0  0
  -31.4938  -16.2420   20.0135 O   0  0  0  0  0  0  0  0  0  0  0  0
  -26.0994  -29.4981   22.8724 O   0  0  0  0  0  0  0  0  0  0  0  0
  -28.5682  -26.7726   19.8727 O   0  0  0  0  0  0  0  0  0  0  0  0
  -22.4965   -8.4352   25.2764 O   0  0  0  0  0  0  0  0  0  0  0  0
  -23.0101  -23.3829   17.8805 O   0  0  0  0  0  0  0  0  0  1  0  0
  -23.9772   -3.1665   24.6040 F   0  0  0  0  0  0  0  0  0  0  0  0
  -20.6210   -6.5041   24.6470 F   0  0  0  0  0  0  0  0  0  0  0  0
  1  2  1  0  0  0  0
  1  5  2  0  0  0  0
  2  6  2  0  0  0  0
  3 10  2  0  0  0  0
  3 18  1  0  0  0  0
  4 11  1  0  0  0  0
  4 18  2  0  0  0  0
  5 20  1  0  0  0  0
  6 22  1  0  0  0  0
  7 12  2  0  0  0  0
  7 21  1  0  0  0  0
  8  9  2  0  0  0  0
  8 24  1  0  0  0  0
  9 25  1  0  0  0  0
 10 27  1  0  0  0  0
 11 27  2  0  0  0  0
 12 28  1  0  0  0  0
 13 14  2  0  0  0  0
 13 29  1  0  0  0  0
 14 30  1  0  0  0  0
 15 23  1  0  0  0  0
 15 28  2  0  0  0  0
 16 24  2  0  0  0  0
 16 26  1  0  0  0  0
 17 30  2  0  0  0  0
 17 31  1  0  0  0  0
 18 32  1  0  0  0  0
 19 32  1  0  0  0  0
 19 33  2  0  0  0  0
 19 34  1  0  0  0  0
 20 22  2  0  0  0  0
 20 40  1  0  0  0  0
 21 23  2  0  0  0  0
 21 41  1  0  0  0  0
 22 49  1  0  0  0  0
 23 42  1  0  0  0  0
 24 60  1  0  0  0  0
 25 26  2  0  0  0  0
 25 52  1  0  0  0  0
 26 61  1  0  0  0  0
 27 85  1  0  0  0  0
 28 86  1  0  0  0  0
 29 31  2  0  0  0  0
 29 85  1  0  0  0  0
 30 87  1  0  0  0  0
 31 88  1  0  0  0  0
 32 70  2  0  0  0  0
 33 71  1  0  0  0  0
 33 74  1  0  0  0  0
 34 75  1  0  0  0  0
 34 79  2  0  0  0  0
 35 50  1  0  0  0  0
 35 76  1  0  0  0  0
 35 80  2  0  0  0  0
 36 62  1  0  0  0  0
 36 68  1  0  0  0  0
 36 81  2  0  0  0  0
 37 63  1  0  0  0  0
 37 73  1  0  0  0  0
 37 82  2  0  0  0  0
 38 66  1  0  0  0  0
 38 72  1  0  0  0  0
 38 83  2  0  0  0  0
 39 67  1  0  0  0  0
 39 77  1  0  0  0  0
 39 84  2  0  0  0  0
 40 43  1  0  0  0  0
 41 50  1  0  0  0  0
 42 72  1  0  0  0  0
 43 45  1  0  0  0  0
 44 46  1  0  0  0  0
 44 47  1  0  0  0  0
 45 49  1  0  0  0  0
 46 51  1  0  0  0  0
 47 73  1  0  0  0  0
 48 51  1  0  0  0  0
 48 73  1  0  0  0  0
 49 76  1  0  0  0  0
 50 72  1  0  0  0  0
 51 71  1  0  0  0  0
 53 64  1  0  0  0  0
 54 67  1  0  0  0  0
 55 68  1  0  0  0  0
 56 69  1  0  0  0  0
 57 69  1  0  0  0  0
 58 69  1  0  0  0  0
 59 78  1  0  0  0  0
 60 63  1  0  0  0  0
 61 62  1  0  0  0  0
 64 68  1  0  0  0  0
 65 68  1  0  0  0  0
 65 86  1  0  0  0  0
 66 69  1  0  0  0  0
 66 77  1  0  0  0  0
 67 78  1  0  0  0  0
 70 71  1  0  0  0  0
M  CHG  1  78   1
M  ISO  4  37 100  63 100  65 101  86 101
M  END
> <Batch ID>
0133

> <Smiles>
CCC(C)(C(=O)CCc1cc(C[100CH2:0][100C:0](=O)N2CCCC(n3nc(-c4ccc(Oc5ccc(F)cc5F)cc4)c(C(N)=O)c3N)C2)ccc1C)[101CH2:1][101O:1]c1ccc2c(c1)CN(C(=O)C(NC(=O)C(C)NC)C(C)(C)C)C(C(=O)NC1CCCc3ccccc31)C2

> <Shape>
0.290

> <Color>
0.128

> <Negative vol penalty>
0.000

$$$$

  -OEChem-04052302303D

 86 94  0     1  0  0  0  0  0999 V2000
  -30.3991  -24.9941   17.5213 C   0  0  0  0  0  0  0  0  0  0  0  0
  -29.0354  -24.8694   17.7666 C   0  0  0  0  0  0  0  0  0  0  0  0
  -27.9252  -15.8540   18.5016 C   0  0  0  0  0  0  0  0  0  0  0  0
  -27.1089  -16.5923   20.6524 C   0  0  0  0  0  0  0  0  0  0  0  0
  -31.2116  -25.6662   18.4334 C   0  0  0  0  0  0  0  0  0  0  0  0
  -28.4836  -25.4159   18.9248 C   0  0  0  0  0  0  0  0  0  0  0  0
  -22.9243  -27.9125   19.5307 C   0  0  0  0  0  0  0  0  0  0  0  0
  -29.1238  -16.5318   18.7238 C   0  0  0  0  0  0  0  0  0  0  0  0
  -28.3076  -17.2701   20.8746 C   0  0  0  0  0  0  0  0  0  0  0  0
  -21.7191  -27.4110   20.0204 C   0  0  0  0  0  0  0  0  0  0  0  0
  -29.7390  -20.1795   19.9169 C   0  0  0  0  0  0  0  0  0  0  0  0
  -29.6654  -21.4771   20.4233 C   0  0  0  0  0  0  0  0  0  0  0  0
  -22.1937  -28.3894   22.1737 C   0  0  0  0  0  0  0  0  0  0  0  0
  -18.1337  -17.7988   22.6126 C   0  0  0  0  0  0  0  0  0  0  0  0
  -18.6665  -19.3106   24.4201 C   0  0  0  0  0  0  0  0  0  0  0  0
  -19.0042  -20.0001   22.1294 C   0  0  0  0  0  0  0  0  0  0  0  0
  -30.9378  -20.7934   22.3600 C   0  0  0  0  0  0  0  0  0  0  0  0
  -26.9177  -15.8843   19.4659 C   0  0  0  0  0  0  0  0  0  0  0  0
  -25.3788  -13.8529   19.5800 C   0  0  0  0  0  0  0  0  0  0  0  0
  -30.6679  -26.2296   19.5986 C   0  0  0  0  0  0  0  0  0  0  0  0
  -23.7798  -28.6483   20.3634 C   0  0  0  0  0  0  0  0  0  0  0  0
  -29.2899  -26.0950   19.8540 C   0  0  0  0  0  0  0  0  0  0  0  0
  -23.4080  -28.9014   21.6915 C   0  0  0  0  0  0  0  0  0  0  0  0
  -18.1987  -18.0729   23.9786 C   0  0  0  0  0  0  0  0  0  0  0  0
  -18.5365  -18.7624   21.6879 C   0  0  0  0  0  0  0  0  0  0  0  0
  -19.0693  -20.2742   23.4955 C   0  0  0  0  0  0  0  0  0  0  0  0
  -29.3150  -17.2399   19.9103 C   0  0  0  0  0  0  0  0  0  0  0  0
  -21.3550  -27.6469   21.3428 C   0  0  0  0  0  0  0  0  0  0  0  0
  -30.4118  -19.1888   20.6321 C   0  0  0  0  0  0  0  0  0  0  0  0
  -30.2649  -21.7840   21.6449 C   0  0  0  0  0  0  0  0  0  0  0  0
  -31.0113  -19.4957   21.8536 C   0  0  0  0  0  0  0  0  0  0  0  0
  -25.6791  -15.1847   19.2366 C   0  0  0  0  0  0  0  0  0  0  0  0
  -24.0861  -13.6713   19.1527 C   0  0  0  0  0  0  0  0  0  0  0  0
  -26.1952  -12.8681   20.2275 C   0  0  0  0  0  0  0  0  0  0  0  0
  -26.7474  -28.2610   21.4342 C   0  0  0  0  0  0  0  0  0  0  0  0
  -19.5960  -17.5474   18.1902 C   0  0  0  0  0  0  0  0  0  0  0  0
  -26.2846  -31.2365   22.6403 C   0  0  0  0  0  0  0  0  0  0  0  0
  -24.0880  -33.6244   23.6987 C   0  0  0  0  0  0  0  0  0  0  0  0
  -31.5939  -26.9059   20.5783 C   0  0  0  0  0  0  0  0  0  0  0  0
  -25.0638  -29.2052   19.8125 C   0  0  0  0  0  0  0  0  0  0  0  0
  -24.2815  -29.7027   22.6206 C   0  0  0  0  0  0  0  0  0  0  0  0
  -30.8687  -27.7811   21.5973 C   0  0  0  0  0  0  0  0  0  0  0  0
  -20.9719  -15.1929   15.8657 C   0  0  0  0  0  0  0  0  0  0  0  0
  -29.6691  -27.0403   22.1796 C   0  0  0  0  0  0  0  0  0  0  0  0
  -22.3202  -14.8245   16.4835 C   0  0  0  0  0  0  0  0  0  0  0  0
  -20.6200  -16.6546   16.1242 C   0  0  0  0  0  0  0  0  0  0  0  0
  -21.9837  -16.6697   18.1886 C   0  0  0  0  0  0  0  0  0  0  0  0
  -28.6500  -26.6957   21.0868 C   0  0  1  0  0  0  0  0  0  0  0  0
  -26.0981  -29.5035   20.8935 C   0  0  1  0  0  0  0  0  0  0  0  0
  -22.3631  -15.1933   17.9770 C   0  0  2  0  0  0  0  0  0  0  0  0
  -17.7675  -17.0423   24.9668 C   0  0  0  0  0  0  0  0  0  0  0  0
  -24.0092  -35.9389   24.6652 C   0  0  0  0  0  0  0  0  0  0  0  0
  -17.7146  -24.8060   25.1358 C   0  0  0  0  0  0  0  0  0  0  0  0
  -27.1070  -30.1259   25.3607 C   0  0  0  0  0  0  0  0  0  0  0  0
  -26.1138  -32.1672   26.4165 C   0  0  0  0  0  0  0  0  0  0  0  0
  -28.0306  -32.3899   24.8357 C   0  0  0  0  0  0  0  0  0  0  0  0
  -22.5798  -34.6682   21.3761 C   0  0  0  0  0  0  0  0  0  0  0  0
  -18.4668  -18.4700   20.2270 C   0  0  0  0  0  0  0  0  0  0  0  0
  -19.5750  -21.6124   23.9733 C   0  0  0  0  0  0  0  0  0  0  0  0
  -19.7463  -17.8405   19.6618 C   0  0  0  0  0  0  0  0  0  0  0  0
  -18.4359  -22.6276   24.1110 C   0  0  0  0  0  0  0  0  0  0  0  0
  -18.8498  -25.1895   22.2643 C   0  0  0  0  0  0  0  0  0  0  0  0
  -19.6634  -24.8339   23.5100 C   0  0  0  0  0  0  0  0  0  0  0  0
  -19.6958  -25.9458   21.2462 C   0  0  0  0  0  0  0  0  0  1  0  0
  -25.7447  -31.7930   23.9356 C   0  0  1  0  0  0  0  0  0  0  0  0
  -23.9877  -35.1077   23.3918 C   0  0  2  0  0  0  0  0  0  0  0  0
  -18.9060  -24.0190   24.5790 C   0  0  1  0  0  0  0  0  0  0  0  0
  -26.7333  -31.6022   25.1204 C   0  0  0  0  0  0  0  0  0  0  0  0
  -24.6593  -15.8051   18.6372 N   0  0  0  0  0  0  0  0  0  0  0  0
  -23.7057  -14.8589   18.6006 N   0  0  0  0  0  0  0  0  0  0  0  0
  -25.5300  -30.2205   22.0369 N   0  0  0  0  0  0  0  0  0  0  0  0
  -20.6940  -16.9706   17.5517 N   0  0  0  0  0  0  0  0  0  0  0  0
  -23.2492  -12.6130   19.1991 N   0  0  0  0  0  0  0  0  0  0  0  0
  -27.4992  -13.2215   20.6002 N   0  0  0  0  0  0  0  0  0  0  0  0
  -27.8714  -27.8639   20.7353 N   0  0  0  0  0  0  0  0  0  0  0  0
  -25.3942  -33.1836   23.6678 N   0  0  0  0  0  0  0  0  0  0  0  0
  -22.7228  -35.4010   22.6605 N   0  3  0  0  0  0  0  0  0  0  0  0
  -25.7863  -11.7040   20.4535 O   0  0  0  0  0  0  0  0  0  0  0  0
  -26.2653  -27.7048   22.4140 O   0  0  0  0  0  0  0  0  0  0  0  0
  -18.5327  -17.8210   17.6274 O   0  0  0  0  0  0  0  0  0  0  0  0
  -27.3335  -31.6916   22.1772 O   0  0  0  0  0  0  0  0  0  0  0  0
  -23.1063  -32.9272   23.9450 O   0  0  0  0  0  0  0  0  0  0  0  0
  -30.4846  -17.9012   20.1276 O   0  0  0  0  0  0  0  0  0  0  0  0
  -20.1795  -27.1579   21.8234 O   0  0  0  0  0  0  0  0  0  1  0  0
  -30.1955  -23.0305   22.1303 F   0  0  0  0  0  0  0  0  0  0  0  0
  -31.6601  -18.5485   22.5447 F   0  0  0  0  0  0  0  0  0  0  0  0
  1  2  1  0  0  0  0
  1  5  2  0  0  0  0
  2  6  2  0  0  0  0
  3  8  2  0  0  0  0
  3 18  1  0  0  0  0
  4  9  1  0  0  0  0
  4 18  2  0  0  0  0
  5 20  1  0  0  0  0
  6 22  1  0  0  0  0
  7 10  2  0  0  0  0
  7 21  1  0  0  0  0
  8 27  1  0  0  0  0
  9 27  2  0  0  0  0
 10 28  1  0  0  0  0
 11 12  2  0  0  0  0
 11 29  1  0  0  0  0
 12 30  1  0  0  0  0
 13 23  1  0  0  0  0
 13 28  2  0  0  0  0
 14 24  1  0  0  0  0
 14 25  2  0  0  0  0
 15 24  2  0  0  0  0
 15 26  1  0  0  0  0
 16 25  1  0  0  0  0
 16 26  2  0  0  0  0
 17 30  2  0  0  0  0
 17 31  1  0  0  0  0
 18 32  1  0  0  0  0
 19 32  1  0  0  0  0
 19 33  2  0  0  0  0
 19 34  1  0  0  0  0
 20 22  2  0  0  0  0
 20 39  1  0  0  0  0
 21 23  2  0  0  0  0
 21 40  1  0  0  0  0
 22 48  1  0  0  0  0
 23 41  1  0  0  0  0
 24 51  1  0  0  0  0
 25 58  1  0  0  0  0
 26 59  1  0  0  0  0
 27 83  1  0  0  0  0
 28 84  1  0  0  0  0
 29 31  2  0  0  0  0
 29 83  1  0  0  0  0
 30 85  1  0  0  0  0
 31 86  1  0  0  0  0
 32 69  2  0  0  0  0
 33 70  1  0  0  0  0
 33 73  1  0  0  0  0
 34 74  1  0  0  0  0
 34 78  2  0  0  0  0
 35 49  1  0  0  0  0
 35 75  1  0  0  0  0
 35 79  2  0  0  0  0
 36 60  1  0  0  0  0
 36 72  1  0  0  0  0
 36 80  2  0  0  0  0
 37 65  1  0  0  0  0
 37 71  1  0  0  0  0
 37 81  2  0  0  0  0
 38 66  1  0  0  0  0
 38 76  1  0  0  0  0
 38 82  2  0  0  0  0
 39 42  1  0  0  0  0
 40 49  1  0  0  0  0
 41 71  1  0  0  0  0
 42 44  1  0  0  0  0
 43 45  1  0  0  0  0
 43 46  1  0  0  0  0
 44 48  1  0  0  0  0
 45 50  1  0  0  0  0
 46 72  1  0  0  0  0
 47 50  1  0  0  0  0
 47 72  1  0  0  0  0
 48 75  1  0  0  0  0
 49 71  1  0  0  0  0
 50 70  1  0  0  0  0
 52 66  1  0  0  0  0
 53 67  1  0  0  0  0
 54 68  1  0  0  0  0
 55 68  1  0  0  0  0
 56 68  1  0  0  0  0
 57 77  1  0  0  0  0
 58 60  1  0  0  0  0
 59 61  1  0  0  0  0
 61 67  1  0  0  0  0
 62 63  1  0  0  0  0
 62 64  1  0  0  0  0
 63 67  1  0  0  0  0
 64 84  1  0  0  0  0
 65 68  1  0  0  0  0
 65 76  1  0  0  0  0
 66 77  1  0  0  0  0
 69 70  1  0  0  0  0
M  CHG  1  77   1
M  ISO  4  36 100  60 100  64 101  84 101
M  END
> <Batch ID>
0133

> <Smiles>
CNC(C)C(=O)NC(C(=O)N1Cc2cc([101O:1][101CH2:1]CCC(C)CCc3cc(C)cc(C[100CH2:0][100C:0](=O)N4CCCC(n5nc(-c6ccc(Oc7ccc(F)cc7F)cc6)c(C(N)=O)c5N)C4)c3)ccc2CC1C(=O)NC1CCCc2ccccc21)C(C)(C)C

> <Shape>
0.267

> <Color>
0.082

> <Negative vol penalty>
0.000

$$$$

  -OEChem-04052302303D

 87 95  0     1  0  0  0  0  0999 V2000
  -30.3829  -17.8548   17.2258 C   0  0  0  0  0  0  0  0  0  0  0  0
  -29.3248  -18.5067   16.6006 C   0  0  0  0  0  0  0  0  0  0  0  0
  -23.3219  -14.4932   21.3362 C   0  0  0  0  0  0  0  0  0  0  0  0
  -25.2283  -14.7383   19.8723 C   0  0  0  0  0  0  0  0  0  0  0  0
  -30.7463  -18.2057   18.5253 C   0  0  0  0  0  0  0  0  0  0  0  0
  -28.6287  -19.5092   17.2751 C   0  0  0  0  0  0  0  0  0  0  0  0
  -25.1695  -25.6693   16.0906 C   0  0  0  0  0  0  0  0  0  0  0  0
  -23.1087  -13.2061   20.8430 C   0  0  0  0  0  0  0  0  0  0  0  0
  -25.0150  -13.4511   19.3791 C   0  0  0  0  0  0  0  0  0  0  0  0
  -23.9458  -26.2847   16.3507 C   0  0  0  0  0  0  0  0  0  0  0  0
  -24.4154  -10.1195   21.2885 C   0  0  0  0  0  0  0  0  0  0  0  0
  -24.1490   -9.1078   22.2110 C   0  0  0  0  0  0  0  0  0  0  0  0
  -19.3326  -26.2751   21.6848 C   0  0  0  0  0  0  0  0  0  0  0  0
  -24.7132  -26.8618   18.5637 C   0  0  0  0  0  0  0  0  0  0  0  0
  -19.9699  -28.4453   23.3178 C   0  0  0  0  0  0  0  0  0  0  0  0
  -22.0140   -8.7061   21.1537 C   0  0  0  0  0  0  0  0  0  0  0  0
  -24.3817  -15.2594   20.8508 C   0  0  0  0  0  0  0  0  0  0  0  0
  -20.2057  -26.1066   22.7594 C   0  0  0  0  0  0  0  0  0  0  0  0
  -25.3999  -16.9573   22.4596 C   0  0  0  0  0  0  0  0  0  0  0  0
  -30.0606  -19.2198   19.2124 C   0  0  0  0  0  0  0  0  0  0  0  0
  -26.1720  -25.6360   17.0706 C   0  0  0  0  0  0  0  0  0  0  0  0
  -28.9825  -19.8732   18.5854 C   0  0  0  0  0  0  0  0  0  0  0  0
  -25.9497  -26.2476   18.3126 C   0  0  0  0  0  0  0  0  0  0  0  0
  -18.7781  -27.5288   21.4266 C   0  0  0  0  0  0  0  0  0  0  0  0
  -20.5244  -27.1917   23.5759 C   0  0  0  0  0  0  0  0  0  0  0  0
  -19.0968  -28.6138   22.2431 C   0  0  0  0  0  0  0  0  0  0  0  0
  -23.9552  -12.6850   19.8645 C   0  0  0  0  0  0  0  0  0  0  0  0
  -23.7164  -26.8785   17.5884 C   0  0  0  0  0  0  0  0  0  0  0  0
  -23.4812  -10.4247   20.2987 C   0  0  0  0  0  0  0  0  0  0  0  0
  -22.9483   -8.4010   22.1435 C   0  0  0  0  0  0  0  0  0  0  0  0
  -22.2805   -9.7179   20.2313 C   0  0  0  0  0  0  0  0  0  0  0  0
  -24.6022  -16.5893   21.3595 C   0  0  0  0  0  0  0  0  0  0  0  0
  -25.2790  -18.3237   22.5295 C   0  0  0  0  0  0  0  0  0  0  0  0
  -20.7687  -24.7850   23.0034 C   0  0  0  0  0  0  0  0  0  0  0  0
  -21.5486  -24.0979   22.1441 C   0  0  0  0  0  0  0  0  0  0  0  0
  -26.1804  -16.1374   23.3394 C   0  0  0  0  0  0  0  0  0  0  0  0
  -22.0521  -22.7680   22.5427 C   0  0  0  0  0  0  0  0  0  0  0  0
  -27.6857  -23.3324   18.6536 C   0  0  0  0  0  0  0  0  0  0  0  0
  -29.4516  -25.8066   19.7858 C   0  0  0  0  0  0  0  0  0  0  0  0
  -29.6652  -29.1462   20.4553 C   0  0  0  0  0  0  0  0  0  0  0  0
  -30.4595  -19.5318   20.6331 C   0  0  0  0  0  0  0  0  0  0  0  0
  -27.4963  -24.9917   16.7649 C   0  0  0  0  0  0  0  0  0  0  0  0
  -27.0007  -26.2569   19.3914 C   0  0  0  0  0  0  0  0  0  0  0  0
  -29.9116  -20.8629   21.1412 C   0  0  0  0  0  0  0  0  0  0  0  0
  -23.2963  -21.6373   19.2862 C   0  0  0  0  0  0  0  0  0  0  0  0
  -28.4326  -20.9990   20.7936 C   0  0  0  0  0  0  0  0  0  0  0  0
  -23.7698  -20.2267   19.6264 C   0  0  0  0  0  0  0  0  0  0  0  0
  -22.0646  -22.0380   20.0967 C   0  0  0  0  0  0  0  0  0  0  0  0
  -22.7214  -20.4823   21.9102 C   0  0  0  0  0  0  0  0  0  0  0  0
  -28.2191  -20.9830   19.2751 C   0  0  1  0  0  0  0  0  0  0  0  0
  -28.2575  -24.5675   18.0171 C   0  0  1  0  0  0  0  0  0  0  0  0
  -23.9877  -20.0760   21.1403 C   0  0  1  0  0  0  0  0  0  0  0  0
  -21.4562  -27.0478   24.7362 C   0  0  0  0  0  0  0  0  0  0  0  0
  -16.8126  -31.6892   22.7226 C   0  0  0  0  0  0  0  0  0  0  0  0
  -31.2189  -30.8676   21.4145 C   0  0  0  0  0  0  0  0  0  0  0  0
  -28.8149  -24.8105   22.5987 C   0  0  0  0  0  0  0  0  0  0  0  0
  -29.5562  -27.0341   23.4787 C   0  0  0  0  0  0  0  0  0  0  0  0
  -31.1749  -25.5703   22.2704 C   0  0  0  0  0  0  0  0  0  0  0  0
  -29.7536  -30.6533   17.9098 C   0  0  0  0  0  0  0  0  0  0  0  0
  -17.8367  -27.6871   20.2592 C   0  0  0  0  0  0  0  0  0  0  0  0
  -18.5156  -29.9654   21.9860 C   0  0  0  0  0  0  0  0  0  0  0  0
  -17.3803  -30.2996   22.9643 C   0  0  0  0  0  0  0  0  0  0  0  0
  -18.4842  -28.3210   19.0228 C   0  0  0  0  0  0  0  0  0  0  0  0
  -19.7114  -27.5497   18.5269 C   0  0  0  0  0  0  0  0  0  0  0  0
  -20.3050  -28.1985   17.2777 C   0  0  0  0  0  0  0  0  0  0  0  0
  -21.5501  -27.4641   16.8010 C   0  0  0  0  0  0  0  0  0  1  0  0
  -29.3501  -26.7396   20.9683 C   0  0  1  0  0  0  0  0  0  0  0  0
  -30.7458  -30.1677   20.1500 C   0  0  2  0  0  0  0  0  0  0  0  0
  -29.7033  -26.0369   22.3096 C   0  0  0  0  0  0  0  0  0  0  0  0
  -24.0177  -17.6373   20.7729 N   0  0  0  0  0  0  0  0  0  0  0  0
  -24.4483  -18.6773   21.5072 N   0  0  0  0  0  0  0  0  0  0  0  0
  -22.2769  -21.8298   21.5369 N   0  0  0  0  0  0  0  0  0  0  0  0
  -28.2768  -25.6086   19.0467 N   0  0  0  0  0  0  0  0  0  0  0  0
  -25.8032  -19.2452   23.3653 N   0  0  0  0  0  0  0  0  0  0  0  0
  -26.1935  -14.7523   23.1258 N   0  0  0  0  0  0  0  0  0  0  0  0
  -28.5638  -22.2666   18.7026 N   0  0  0  0  0  0  0  0  0  0  0  0
  -30.1933  -27.8883   20.6555 N   0  0  0  0  0  0  0  0  0  0  0  0
  -30.2312  -31.1998   19.2061 N   0  3  0  0  0  0  0  0  0  0  0  0
  -26.8334  -16.6171   24.2971 O   0  0  0  0  0  0  0  0  0  0  0  0
  -22.2385  -22.5673   23.7442 O   0  0  0  0  0  0  0  0  0  0  0  0
  -26.5335  -23.3458   19.0707 O   0  0  0  0  0  0  0  0  0  0  0  0
  -30.5352  -25.2788   19.5232 O   0  0  0  0  0  0  0  0  0  0  0  0
  -28.4722  -29.4360   20.5144 O   0  0  0  0  0  0  0  0  0  0  0  0
  -23.7475  -11.4289   19.3831 O   0  0  0  0  0  0  0  0  0  0  0  0
  -22.5226  -27.4792   17.8451 O   0  0  0  0  0  0  0  0  0  1  0  0
  -22.6932   -7.4284   23.0285 F   0  0  0  0  0  0  0  0  0  0  0  0
  -21.3796  -10.0058   19.2819 F   0  0  0  0  0  0  0  0  0  0  0  0
  1  2  1  0  0  0  0
  1  5  2  0  0  0  0
  2  6  2  0  0  0  0
  3  8  2  0  0  0  0
  3 17  1  0  0  0  0
  4  9  1  0  0  0  0
  4 17  2  0  0  0  0
  5 20  1  0  0  0  0
  6 22  1  0  0  0  0
  7 10  2  0  0  0  0
  7 21  1  0  0  0  0
  8 27  1  0  0  0  0
  9 27  2  0  0  0  0
 10 28  1  0  0  0  0
 11 12  2  0  0  0  0
 11 29  1  0  0  0  0
 12 30  1  0  0  0  0
 13 18  2  0  0  0  0
 13 24  1  0  0  0  0
 14 23  1  0  0  0  0
 14 28  2  0  0  0  0
 15 25  2  0  0  0  0
 15 26  1  0  0  0  0
 16 30  2  0  0  0  0
 16 31  1  0  0  0  0
 17 32  1  0  0  0  0
 18 25  1  0  0  0  0
 18 34  1  0  0  0  0
 19 32  1  0  0  0  0
 19 33  2  0  0  0  0
 19 36  1  0  0  0  0
 20 22  2  0  0  0  0
 20 41  1  0  0  0  0
 21 23  2  0  0  0  0
 21 42  1  0  0  0  0
 22 50  1  0  0  0  0
 23 43  1  0  0  0  0
 24 26  2  0  0  0  0
 24 60  1  0  0  0  0
 25 53  1  0  0  0  0
 26 61  1  0  0  0  0
 27 84  1  0  0  0  0
 28 85  1  0  0  0  0
 29 31  2  0  0  0  0
 29 84  1  0  0  0  0
 30 86  1  0  0  0  0
 31 87  1  0  0  0  0
 32 70  2  0  0  0  0
 33 71  1  0  0  0  0
 33 74  1  0  0  0  0
 34 35  2  0  0  0  0
 35 37  1  0  0  0  0
 36 75  1  0  0  0  0
 36 79  2  0  0  0  0
 37 72  1  0  0  0  0
 37 80  2  0  0  0  0
 38 51  1  0  0  0  0
 38 76  1  0  0  0  0
 38 81  2  0  0  0  0
 39 67  1  0  0  0  0
 39 73  1  0  0  0  0
 39 82  2  0  0  0  0
 40 68  1  0  0  0  0
 40 77  1  0  0  0  0
 40 83  2  0  0  0  0
 41 44  1  0  0  0  0
 42 51  1  0  0  0  0
 43 73  1  0  0  0  0
 44 46  1  0  0  0  0
 45 47  1  0  0  0  0
 45 48  1  0  0  0  0
 46 50  1  0  0  0  0
 47 52  1  0  0  0  0
 48 72  1  0  0  0  0
 49 52  1  0  0  0  0
 49 72  1  0  0  0  0
 50 76  1  0  0  0  0
 51 73  1  0  0  0  0
 52 71  1  0  0  0  0
 54 62  1  0  0  0  0
 55 68  1  0  0  0  0
 56 69  1  0  0  0  0
 57 69  1  0  0  0  0
 58 69  1  0  0  0  0
 59 78  1  0  0  0  0
 60 63  1  0  0  0  0
 61 62  1  0  0  0  0
 63 64  1  0  0  0  0
 64 65  1  0  0  0  0
 65 66  1  0  0  0  0
 66 85  1  0  0  0  0
 67 69  1  0  0  0  0
 67 77  1  0  0  0  0
 68 78  1  0  0  0  0
 70 71  1  0  0  0  0
M  CHG  1  78   1
M  ISO  4  35 100  37 100  66 101  85 101
M  END
> <Batch ID>
0133

> <Smiles>
CCCc1cc(C)c(C=[100CH:0][100C:0](=O)N2CCCC(n3nc(-c4ccc(Oc5ccc(F)cc5F)cc4)c(C(N)=O)c3N)C2)cc1CCCC[101CH2:1][101O:1]c1ccc2c(c1)CN(C(=O)C(NC(=O)C(C)NC)C(C)(C)C)C(C(=O)NC1CCCc3ccccc31)C2

> <Shape>
0.209

> <Color>
0.054

> <Negative vol penalty>
0.000

$$$$

  -OEChem-04052302303D

 86 94  0     1  0  0  0  0  0999 V2000
  -18.4845  -24.9690   22.0256 C   0  0  0  0  0  0  0  0  0  0  0  0
  -19.7799  -25.0849   21.5316 C   0  0  0  0  0  0  0  0  0  0  0  0
  -24.6435  -13.0507   25.5574 C   0  0  0  0  0  0  0  0  0  0  0  0
  -25.1109  -15.3819   25.9860 C   0  0  0  0  0  0  0  0  0  0  0  0
  -17.7466  -26.1149   22.3193 C   0  0  0  0  0  0  0  0  0  0  0  0
  -20.3377  -26.3469   21.3300 C   0  0  0  0  0  0  0  0  0  0  0  0
  -25.0948  -26.6634   23.0372 C   0  0  0  0  0  0  0  0  0  0  0  0
  -27.5705  -20.9942   16.0706 C   0  0  0  0  0  0  0  0  0  0  0  0
  -27.3544  -19.6406   15.8125 C   0  0  0  0  0  0  0  0  0  0  0  0
  -24.2172  -12.8937   26.8762 C   0  0  0  0  0  0  0  0  0  0  0  0
  -24.6846  -15.2250   27.3048 C   0  0  0  0  0  0  0  0  0  0  0  0
  -26.0947  -26.1027   22.2437 C   0  0  0  0  0  0  0  0  0  0  0  0
  -21.4522  -13.5773   28.6984 C   0  0  0  0  0  0  0  0  0  0  0  0
  -20.2699  -12.8706   28.9177 C   0  0  0  0  0  0  0  0  0  0  0  0
  -26.6444  -28.2941   21.3983 C   0  0  0  0  0  0  0  0  0  0  0  0
  -29.4973  -20.4302   17.4146 C   0  0  0  0  0  0  0  0  0  0  0  0
  -21.4803  -11.2589   30.2497 C   0  0  0  0  0  0  0  0  0  0  0  0
  -25.0904  -14.2948   25.1123 C   0  0  0  0  0  0  0  0  0  0  0  0
  -24.7456  -14.8194   22.6397 C   0  0  0  0  0  0  0  0  0  0  0  0
  -18.2991  -27.3915   22.1304 C   0  0  0  0  0  0  0  0  0  0  0  0
  -24.8546  -28.0447   23.0090 C   0  0  0  0  0  0  0  0  0  0  0  0
  -19.6060  -27.5110   21.6203 C   0  0  0  0  0  0  0  0  0  0  0  0
  -25.6426  -28.8702   22.1943 C   0  0  0  0  0  0  0  0  0  0  0  0
  -28.6421  -21.3890   16.8717 C   0  0  0  0  0  0  0  0  0  0  0  0
  -28.2097  -18.6818   16.3554 C   0  0  0  0  0  0  0  0  0  0  0  0
  -29.2812  -19.0766   17.1565 C   0  0  0  0  0  0  0  0  0  0  0  0
  -24.2377  -13.9808   27.7499 C   0  0  0  0  0  0  0  0  0  0  0  0
  -26.8678  -26.9177   21.4219 C   0  0  0  0  0  0  0  0  0  0  0  0
  -22.6487  -13.1248   29.2547 C   0  0  0  0  0  0  0  0  0  0  0  0
  -20.2839  -11.7114   29.6934 C   0  0  0  0  0  0  0  0  0  0  0  0
  -22.6627  -11.9656   30.0304 C   0  0  0  0  0  0  0  0  0  0  0  0
  -25.5315  -14.4575   23.7503 C   0  0  0  0  0  0  0  0  0  0  0  0
  -25.6271  -14.8372   21.5865 C   0  0  0  0  0  0  0  0  0  0  0  0
  -23.3442  -15.1134   22.5667 C   0  0  0  0  0  0  0  0  0  0  0  0
  -22.3843  -29.8759   22.2040 C   0  0  0  0  0  0  0  0  0  0  0  0
  -30.5988  -16.3046   19.4845 C   0  0  0  0  0  0  0  0  0  0  0  0
  -24.2758  -32.2533   23.3410 C   0  0  0  0  0  0  0  0  0  0  0  0
  -27.4250  -33.3647   24.0439 C   0  0  0  0  0  0  0  0  0  0  0  0
  -17.4459  -28.6015   22.4175 C   0  0  0  0  0  0  0  0  0  0  0  0
  -23.7901  -28.6374   23.8910 C   0  0  0  0  0  0  0  0  0  0  0  0
  -25.4383  -30.3616   22.1430 C   0  0  0  0  0  0  0  0  0  0  0  0
  -18.2448  -29.8975   22.5294 C   0  0  0  0  0  0  0  0  0  0  0  0
  -30.3876  -13.1868   21.2380 C   0  0  0  0  0  0  0  0  0  0  0  0
  -19.2405  -30.0118   21.3795 C   0  0  0  0  0  0  0  0  0  0  0  0
  -29.0554  -13.2820   21.9804 C   0  0  0  0  0  0  0  0  0  0  0  0
  -31.0781  -14.5444   21.1538 C   0  0  0  0  0  0  0  0  0  0  0  0
  -28.9024  -15.7150   21.2863 C   0  0  0  0  0  0  0  0  0  0  0  0
  -20.2547  -28.8621   21.4115 C   0  0  1  0  0  0  0  0  0  0  0  0
  -23.2905  -29.9916   23.3970 C   0  0  1  0  0  0  0  0  0  0  0  0
  -28.1573  -14.3709   21.3671 C   0  0  2  0  0  0  0  0  0  0  0  0
  -27.9575  -17.2384   16.0660 C   0  0  0  0  0  0  0  0  0  0  0  0
  -26.3751  -25.7313   17.4460 C   0  0  0  0  0  0  0  0  0  0  0  0
  -28.6565  -35.3636   24.9300 C   0  0  0  0  0  0  0  0  0  0  0  0
  -23.8633  -33.6849   20.6782 C   0  0  0  0  0  0  0  0  0  0  0  0
  -25.8180  -35.1449   21.2398 C   0  0  0  0  0  0  0  0  0  0  0  0
  -23.7857  -35.1738   22.6860 C   0  0  0  0  0  0  0  0  0  0  0  0
  -29.8788  -25.0276   19.0457 C   0  0  0  0  0  0  0  0  0  0  0  0
  -28.5238  -31.8241   26.3193 C   0  0  0  0  0  0  0  0  0  0  0  0
  -28.8755  -22.8540   17.1513 C   0  0  0  0  0  0  0  0  0  0  0  0
  -30.2098  -18.0678   17.7489 C   0  0  0  0  0  0  0  0  0  0  0  0
  -29.6229  -17.3247   18.9545 C   0  0  0  0  0  0  0  0  0  0  0  0
  -27.8585  -25.8097   17.7870 C   0  0  0  0  0  0  0  0  0  0  0  0
  -28.1277  -23.3077   18.4130 C   0  0  0  0  0  0  0  0  0  0  0  0
  -27.6417  -25.0353   20.1917 C   0  0  0  0  0  0  0  0  0  1  0  0
  -25.3206  -33.1657   22.7452 C   0  0  1  0  0  0  0  0  0  0  0  0
  -28.0052  -34.0338   25.2768 C   0  0  2  0  0  0  0  0  0  0  0  0
  -24.6997  -34.2640   21.8366 C   0  0  0  0  0  0  0  0  0  0  0  0
  -28.3653  -24.7862   18.8420 C   0  0  1  0  0  0  0  0  0  0  0  0
  -26.8135  -14.2594   23.4322 N   0  0  0  0  0  0  0  0  0  0  0  0
  -26.8400  -14.4977   22.1098 N   0  0  0  0  0  0  0  0  0  0  0  0
  -24.3810  -30.8928   23.0190 N   0  0  0  0  0  0  0  0  0  0  0  0
  -30.1850  -15.5563   20.5867 N   0  0  0  0  0  0  0  0  0  0  0  0
  -25.4752  -15.1098   20.2732 N   0  0  0  0  0  0  0  0  0  0  0  0
  -22.5857  -15.0483   23.7435 N   0  0  0  0  0  0  0  0  0  0  0  0
  -21.2601  -29.1032   22.4243 N   0  0  0  0  0  0  0  0  0  0  0  0
  -26.0957  -33.6856   23.8665 N   0  0  0  0  0  0  0  0  0  0  0  0
  -29.0329  -33.1573   25.9065 N   0  3  0  0  0  0  0  0  0  0  0  0
  -22.7781  -15.4085   21.4869 O   0  0  0  0  0  0  0  0  0  0  0  0
  -22.6822  -30.4468   21.1614 O   0  0  0  0  0  0  0  0  0  0  0  0
  -31.6945  -16.1760   18.9323 O   0  0  0  0  0  0  0  0  0  0  0  0
  -23.4027  -32.7292   24.0710 O   0  0  0  0  0  0  0  0  0  0  0  0
  -28.0858  -32.6338   23.3093 O   0  0  0  0  0  0  0  0  0  0  0  0
  -23.8216  -13.8280   29.0367 O   0  0  0  0  0  0  0  0  0  0  0  0
  -27.8439  -26.3729   20.6459 O   0  0  0  0  0  0  0  0  0  1  0  0
  -19.1481  -11.0337   29.9051 F   0  0  0  0  0  0  0  0  0  0  0  0
  -23.8088  -11.5266   30.5685 F   0  0  0  0  0  0  0  0  0  0  0  0
  1  2  1  0  0  0  0
  1  5  2  0  0  0  0
  2  6  2  0  0  0  0
  3 10  2  0  0  0  0
  3 18  1  0  0  0  0
  4 11  1  0  0  0  0
  4 18  2  0  0  0  0
  5 20  1  0  0  0  0
  6 22  1  0  0  0  0
  7 12  2  0  0  0  0
  7 21  1  0  0  0  0
  8  9  2  0  0  0  0
  8 24  1  0  0  0  0
  9 25  1  0  0  0  0
 10 27  1  0  0  0  0
 11 27  2  0  0  0  0
 12 28  1  0  0  0  0
 13 14  2  0  0  0  0
 13 29  1  0  0  0  0
 14 30  1  0  0  0  0
 15 23  1  0  0  0  0
 15 28  2  0  0  0  0
 16 24  2  0  0  0  0
 16 26  1  0  0  0  0
 17 30  2  0  0  0  0
 17 31  1  0  0  0  0
 18 32  1  0  0  0  0
 19 32  1  0  0  0  0
 19 33  2  0  0  0  0
 19 34  1  0  0  0  0
 20 22  2  0  0  0  0
 20 39  1  0  0  0  0
 21 23  2  0  0  0  0
 21 40  1  0  0  0  0
 22 48  1  0  0  0  0
 23 41  1  0  0  0  0
 24 59  1  0  0  0  0
 25 26  2  0  0  0  0
 25 51  1  0  0  0  0
 26 60  1  0  0  0  0
 27 83  1  0  0  0  0
 28 84  1  0  0  0  0
 29 31  2  0  0  0  0
 29 83  1  0  0  0  0
 30 85  1  0  0  0  0
 31 86  1  0  0  0  0
 32 69  2  0  0  0  0
 33 70  1  0  0  0  0
 33 73  1  0  0  0  0
 34 74  1  0  0  0  0
 34 78  2  0  0  0  0
 35 49  1  0  0  0  0
 35 75  1  0  0  0  0
 35 79  2  0  0  0  0
 36 61  1  0  0  0  0
 36 72  1  0  0  0  0
 36 80  2  0  0  0  0
 37 65  1  0  0  0  0
 37 71  1  0  0  0  0
 37 81  2  0  0  0  0
 38 66  1  0  0  0  0
 38 76  1  0  0  0  0
 38 82  2  0  0  0  0
 39 42  1  0  0  0  0
 40 49  1  0  0  0  0
 41 71  1  0  0  0  0
 42 44  1  0  0  0  0
 43 45  1  0  0  0  0
 43 46  1  0  0  0  0
 44 48  1  0  0  0  0
 45 50  1  0  0  0  0
 46 72  1  0  0  0  0
 47 50  1  0  0  0  0
 47 72  1  0  0  0  0
 48 75  1  0  0  0  0
 49 71  1  0  0  0  0
 50 70  1  0  0  0  0
 52 62  1  0  0  0  0
 53 66  1  0  0  0  0
 54 67  1  0  0  0  0
 55 67  1  0  0  0  0
 56 67  1  0  0  0  0
 57 68  1  0  0  0  0
 58 77  1  0  0  0  0
 59 63  1  0  0  0  0
 60 61  1  0  0  0  0
 62 68  1  0  0  0  0
 63 68  1  0  0  0  0
 64 68  1  0  0  0  0
 64 84  1  0  0  0  0
 65 67  1  0  0  0  0
 65 76  1  0  0  0  0
 66 77  1  0  0  0  0
 69 70  1  0  0  0  0
M  CHG  1  77   1
M  ISO  4  36 100  61 100  64 101  84 101
M  END
> <Batch ID>
0133

> <Smiles>
CCC(C)(CCc1ccc(C)c(C[100CH2:0][100C:0](=O)N2CCCC(n3nc(-c4ccc(Oc5ccc(F)cc5F)cc4)c(C(N)=O)c3N)C2)c1)[101CH2:1][101O:1]c1ccc2c(c1)CN(C(=O)C(NC(=O)C(C)NC)C(C)(C)C)C(C(=O)NC1CCCc3ccccc31)C2

> <Shape>
0.213

> <Color>
0.100

> <Negative vol penalty>
0.000

$$$$

  -OEChem-04052302303D

 84 92  0     1  0  0  0  0  0999 V2000
  -24.9691  -18.4633   16.7237 C   0  0  0  0  0  0  0  0  0  0  0  0
  -24.7888  -19.7323   17.2647 C   0  0  0  0  0  0  0  0  0  0  0  0
  -18.4645  -27.1311   24.1291 C   0  0  0  0  0  0  0  0  0  0  0  0
  -23.9419  -14.3347   19.7430 C   0  0  0  0  0  0  0  0  0  0  0  0
  -25.1389  -14.0024   21.8152 C   0  0  0  0  0  0  0  0  0  0  0  0
  -18.5617  -25.7627   23.8771 C   0  0  0  0  0  0  0  0  0  0  0  0
  -19.2536  -28.0303   23.4117 C   0  0  0  0  0  0  0  0  0  0  0  0
  -25.9166  -17.6006   17.2733 C   0  0  0  0  0  0  0  0  0  0  0  0
  -25.5552  -20.1388   18.3565 C   0  0  0  0  0  0  0  0  0  0  0  0
  -27.3544  -24.8424   17.8232 C   0  0  0  0  0  0  0  0  0  0  0  0
  -24.7915  -13.4296   19.1071 C   0  0  0  0  0  0  0  0  0  0  0  0
  -25.9885  -13.0971   21.1793 C   0  0  0  0  0  0  0  0  0  0  0  0
  -26.4699  -25.8933   18.0619 C   0  0  0  0  0  0  0  0  0  0  0  0
  -28.6726  -13.2192   19.1271 C   0  0  0  0  0  0  0  0  0  0  0  0
  -30.0411  -13.3331   19.3717 C   0  0  0  0  0  0  0  0  0  0  0  0
  -20.2374  -26.1924   22.1904 C   0  0  0  0  0  0  0  0  0  0  0  0
  -27.4129  -26.1789   20.2638 C   0  0  0  0  0  0  0  0  0  0  0  0
  -30.0691  -11.0867   20.2606 C   0  0  0  0  0  0  0  0  0  0  0  0
  -24.1156  -14.6212   21.0971 C   0  0  0  0  0  0  0  0  0  0  0  0
  -19.4482  -25.2933   22.9078 C   0  0  0  0  0  0  0  0  0  0  0  0
  -20.1401  -27.5609   22.4424 C   0  0  0  0  0  0  0  0  0  0  0  0
  -22.0260  -15.2691   22.4090 C   0  0  0  0  0  0  0  0  0  0  0  0
  -26.7017  -18.0004   18.3661 C   0  0  0  0  0  0  0  0  0  0  0  0
  -28.2690  -24.4441   18.8087 C   0  0  0  0  0  0  0  0  0  0  0  0
  -26.5131  -19.2802   18.9220 C   0  0  0  0  0  0  0  0  0  0  0  0
  -28.3097  -25.1243   20.0341 C   0  0  0  0  0  0  0  0  0  0  0  0
  -25.8148  -12.8107   19.8252 C   0  0  0  0  0  0  0  0  0  0  0  0
  -26.4971  -26.5599   19.2834 C   0  0  0  0  0  0  0  0  0  0  0  0
  -28.0023  -12.0390   19.4492 C   0  0  0  0  0  0  0  0  0  0  0  0
  -30.7394  -12.2668   19.9385 C   0  0  0  0  0  0  0  0  0  0  0  0
  -28.7006  -10.9728   20.0160 C   0  0  0  0  0  0  0  0  0  0  0  0
  -23.2387  -15.5566   21.7544 C   0  0  0  0  0  0  0  0  0  0  0  0
  -21.5827  -16.4878   22.8615 C   0  0  0  0  0  0  0  0  0  0  0  0
  -19.5485  -23.8660   22.6457 C   0  0  0  0  0  0  0  0  0  0  0  0
  -20.5890  -23.2516   22.0437 C   0  0  0  0  0  0  0  0  0  0  0  0
  -20.9828  -28.5227   21.6768 C   0  0  0  0  0  0  0  0  0  0  0  0
  -21.3598  -14.0127   22.5918 C   0  0  0  0  0  0  0  0  0  0  0  0
  -20.5466  -21.7873   21.8577 C   0  0  0  0  0  0  0  0  0  0  0  0
  -28.7697  -21.7719   20.4556 C   0  0  0  0  0  0  0  0  0  0  0  0
  -31.3680  -23.3861   21.5353 C   0  0  0  0  0  0  0  0  0  0  0  0
  -32.8733  -26.3919   22.1233 C   0  0  0  0  0  0  0  0  0  0  0  0
  -27.6801  -17.0157   18.9559 C   0  0  0  0  0  0  0  0  0  0  0  0
  -29.2345  -23.3260   18.5257 C   0  0  0  0  0  0  0  0  0  0  0  0
  -29.2862  -24.7487   21.1176 C   0  0  0  0  0  0  0  0  0  0  0  0
  -28.7135  -17.6606   19.8759 C   0  0  0  0  0  0  0  0  0  0  0  0
  -23.8933  -20.9637   23.1039 C   0  0  0  0  0  0  0  0  0  0  0  0
  -28.0375  -18.6263   20.8441 C   0  0  0  0  0  0  0  0  0  0  0  0
  -23.9315  -19.4561   22.8685 C   0  0  0  0  0  0  0  0  0  0  0  0
  -23.0919  -21.6907   22.0251 C   0  0  0  0  0  0  0  0  0  0  0  0
  -21.7483  -19.6498   21.6130 C   0  0  0  0  0  0  0  0  0  0  0  0
  -27.3425  -19.7667   20.0905 C   0  0  1  0  0  0  0  0  0  0  0  0
  -29.7757  -22.6691   19.7917 C   0  0  1  0  0  0  0  0  0  0  0  0
  -22.5099  -18.8933   22.7125 C   0  0  1  0  0  0  0  0  0  0  0  0
  -34.9811  -27.3921   23.0475 C   0  0  0  0  0  0  0  0  0  0  0  0
  -30.4068  -22.7877   24.3686 C   0  0  0  0  0  0  0  0  0  0  0  0
  -31.9626  -24.5656   25.1972 C   0  0  0  0  0  0  0  0  0  0  0  0
  -32.8743  -22.5563   24.0335 C   0  0  0  0  0  0  0  0  0  0  0  0
  -33.5310  -27.6812   19.5418 C   0  0  0  0  0  0  0  0  0  0  0  0
  -21.4105  -28.2059   20.2525 C   0  0  0  0  0  0  0  0  0  0  0  0
  -22.7846  -27.5381   20.2370 C   0  0  0  0  0  0  0  0  0  0  0  0
  -23.8397  -28.4242   20.9041 C   0  0  0  0  0  0  0  0  0  0  0  0
  -25.2264  -27.7934   20.8708 C   0  0  0  0  0  0  0  0  0  1  0  0
  -31.6452  -24.3133   22.6939 C   0  0  1  0  0  0  0  0  0  0  0  0
  -34.2657  -26.9018   21.7982 C   0  0  2  0  0  0  0  0  0  0  0  0
  -31.7024  -23.5618   24.0538 C   0  0  0  0  0  0  0  0  0  0  0  0
  -23.5462  -16.8560   21.7858 N   0  0  0  0  0  0  0  0  0  0  0  0
  -21.3613  -29.6359   22.2220 N   0  0  0  0  0  0  0  0  0  0  0  0
  -22.5202  -17.3959   22.4655 N   0  0  0  0  0  0  0  0  0  0  0  0
  -21.7574  -21.0970   21.8540 N   0  0  0  0  0  0  0  0  0  0  0  0
  -30.2055  -23.6449   20.7954 N   0  0  0  0  0  0  0  0  0  0  0  0
  -20.4864  -16.8606   23.5554 N   0  0  0  0  0  0  0  0  0  0  0  0
  -21.9534  -12.8585   22.0630 N   0  0  0  0  0  0  0  0  0  0  0  0
  -28.3125  -20.7464   19.6502 N   0  0  0  0  0  0  0  0  0  0  0  0
  -32.8687  -25.0330   22.3570 N   0  0  0  0  0  0  0  0  0  0  0  0
  -34.1907  -28.0293   20.8266 N   0  3  0  0  0  0  0  0  0  0  0  0
  -20.2621  -13.9188   23.1917 O   0  0  0  0  0  0  0  0  0  0  0  0
  -19.4402  -21.2644   21.7119 O   0  0  0  0  0  0  0  0  0  0  0  0
  -28.4344  -21.9927   21.6134 O   0  0  0  0  0  0  0  0  0  0  0  0
  -32.1577  -22.4704   21.2912 O   0  0  0  0  0  0  0  0  0  0  0  0
  -31.8889  -27.1263   22.1692 O   0  0  0  0  0  0  0  0  0  0  0  0
  -26.6438  -11.9272   19.2050 O   0  0  0  0  0  0  0  0  0  0  0  0
  -25.6344  -27.5856   19.5193 O   0  0  0  0  0  0  0  0  0  1  0  0
  -32.0538  -12.3758   20.1719 F   0  0  0  0  0  0  0  0  0  0  0  0
  -28.0624   -9.8361   20.3265 F   0  0  0  0  0  0  0  0  0  0  0  0
  1  2  1  0  0  0  0
  1  8  2  0  0  0  0
  2  9  2  0  0  0  0
  3  6  1  0  0  0  0
  3  7  2  0  0  0  0
  4 11  2  0  0  0  0
  4 19  1  0  0  0  0
  5 12  1  0  0  0  0
  5 19  2  0  0  0  0
  6 20  2  0  0  0  0
  7 21  1  0  0  0  0
  8 23  1  0  0  0  0
  9 25  1  0  0  0  0
 10 13  2  0  0  0  0
 10 24  1  0  0  0  0
 11 27  1  0  0  0  0
 12 27  2  0  0  0  0
 13 28  1  0  0  0  0
 14 15  2  0  0  0  0
 14 29  1  0  0  0  0
 15 30  1  0  0  0  0
 16 20  1  0  0  0  0
 16 21  2  0  0  0  0
 17 26  1  0  0  0  0
 17 28  2  0  0  0  0
 18 30  2  0  0  0  0
 18 31  1  0  0  0  0
 19 32  1  0  0  0  0
 20 34  1  0  0  0  0
 21 36  1  0  0  0  0
 22 32  1  0  0  0  0
 22 33  2  0  0  0  0
 22 37  1  0  0  0  0
 23 25  2  0  0  0  0
 23 42  1  0  0  0  0
 24 26  2  0  0  0  0
 24 43  1  0  0  0  0
 25 51  1  0  0  0  0
 26 44  1  0  0  0  0
 27 81  1  0  0  0  0
 28 82  1  0  0  0  0
 29 31  2  0  0  0  0
 29 81  1  0  0  0  0
 30 83  1  0  0  0  0
 31 84  1  0  0  0  0
 32 66  2  0  0  0  0
 33 68  1  0  0  0  0
 33 71  1  0  0  0  0
 34 35  2  0  0  0  0
 35 38  1  0  0  0  0
 36 59  1  0  0  0  0
 36 67  2  0  0  0  0
 37 72  1  0  0  0  0
 37 76  2  0  0  0  0
 38 69  1  0  0  0  0
 38 77  2  0  0  0  0
 39 52  1  0  0  0  0
 39 73  1  0  0  0  0
 39 78  2  0  0  0  0
 40 63  1  0  0  0  0
 40 70  1  0  0  0  0
 40 79  2  0  0  0  0
 41 64  1  0  0  0  0
 41 74  1  0  0  0  0
 41 80  2  0  0  0  0
 42 45  1  0  0  0  0
 43 52  1  0  0  0  0
 44 70  1  0  0  0  0
 45 47  1  0  0  0  0
 46 48  1  0  0  0  0
 46 49  1  0  0  0  0
 47 51  1  0  0  0  0
 48 53  1  0  0  0  0
 49 69  1  0  0  0  0
 50 53  1  0  0  0  0
 50 69  1  0  0  0  0
 51 73  1  0  0  0  0
 52 70  1  0  0  0  0
 53 68  1  0  0  0  0
 54 64  1  0  0  0  0
 55 65  1  0  0  0  0
 56 65  1  0  0  0  0
 57 65  1  0  0  0  0
 58 75  1  0  0  0  0
 59 60  1  0  0  0  0
 60 61  1  0  0  0  0
 61 62  1  0  0  0  0
 62 82  1  0  0  0  0
 63 65  1  0  0  0  0
 63 74  1  0  0  0  0
 64 75  1  0  0  0  0
 66 68  1  0  0  0  0
M  CHG  1  75   1
M  ISO  4  35 100  38 100  62 101  82 101
M  END
> <Batch ID>
0133

> <Smiles>
CNC(C)C(=O)NC(C(=O)N1Cc2cc([101O:1][101CH2:1]CCCC(=N)c3cccc(C=[100CH:0][100C:0](=O)N4CCCC(n5nc(-c6ccc(Oc7ccc(F)cc7F)cc6)c(C(N)=O)c5N)C4)c3)ccc2CC1C(=O)NC1CCCc2ccccc21)C(C)(C)C

> <Shape>
0.206

> <Color>
0.060

> <Negative vol penalty>
0.000

$$$$

  -OEChem-04052302303D

 87 95  0     1  0  0  0  0  0999 V2000
  -26.0236  -24.4876    7.8017 C   0  0  0  0  0  0  0  0  0  0  0  0
  -27.1642  -24.0636    8.4760 C   0  0  0  0  0  0  0  0  0  0  0  0
  -22.9982   -9.9819   19.9184 C   0  0  0  0  0  0  0  0  0  0  0  0
  -23.7797   -9.8818   22.2023 C   0  0  0  0  0  0  0  0  0  0  0  0
  -25.4088  -25.6867    8.1598 C   0  0  0  0  0  0  0  0  0  0  0  0
  -27.6914  -24.8390    9.5081 C   0  0  0  0  0  0  0  0  0  0  0  0
  -28.9667  -22.0771   13.5566 C   0  0  0  0  0  0  0  0  0  0  0  0
  -22.2286   -8.8384   20.1316 C   0  0  0  0  0  0  0  0  0  0  0  0
  -23.0100   -8.7382   22.4155 C   0  0  0  0  0  0  0  0  0  0  0  0
  -30.1634  -21.3649   13.4902 C   0  0  0  0  0  0  0  0  0  0  0  0
  -23.2138   -5.4342   21.7279 C   0  0  0  0  0  0  0  0  0  0  0  0
  -23.8106   -4.3673   22.3995 C   0  0  0  0  0  0  0  0  0  0  0  0
  -31.2526  -23.0863   14.7823 C   0  0  0  0  0  0  0  0  0  0  0  0
  -29.3467  -19.6618   20.2453 C   0  0  0  0  0  0  0  0  0  0  0  0
  -31.7514  -18.2479   20.2742 C   0  0  0  0  0  0  0  0  0  0  0  0
  -22.1302   -4.5159   24.1290 C   0  0  0  0  0  0  0  0  0  0  0  0
  -23.7738  -10.5037   20.9537 C   0  0  0  0  0  0  0  0  0  0  0  0
  -24.1766  -13.0225   20.9273 C   0  0  0  0  0  0  0  0  0  0  0  0
  -25.9231  -26.4724    9.2032 C   0  0  0  0  0  0  0  0  0  0  0  0
  -28.9065  -23.3066   14.2282 C   0  0  0  0  0  0  0  0  0  0  0  0
  -27.0837  -26.0504    9.8796 C   0  0  0  0  0  0  0  0  0  0  0  0
  -30.0533  -23.8109   14.8580 C   0  0  0  0  0  0  0  0  0  0  0  0
  -30.3798  -20.0253   19.3816 C   0  0  0  0  0  0  0  0  0  0  0  0
  -29.5158  -18.5914   21.1235 C   0  0  0  0  0  0  0  0  0  0  0  0
  -31.5822  -19.3184   19.3960 C   0  0  0  0  0  0  0  0  0  0  0  0
  -30.7182  -17.8844   21.1380 C   0  0  0  0  0  0  0  0  0  0  0  0
  -22.2345   -8.2165   21.3801 C   0  0  0  0  0  0  0  0  0  0  0  0
  -31.3073  -21.8708   14.1006 C   0  0  0  0  0  0  0  0  0  0  0  0
  -22.0752   -6.0421   22.2569 C   0  0  0  0  0  0  0  0  0  0  0  0
  -23.2689   -3.9081   23.6000 C   0  0  0  0  0  0  0  0  0  0  0  0
  -21.5334   -5.5829   23.4574 C   0  0  0  0  0  0  0  0  0  0  0  0
  -24.5695  -11.6846   20.7340 C   0  0  0  0  0  0  0  0  0  0  0  0
  -25.2834  -13.7588   20.5818 C   0  0  0  0  0  0  0  0  0  0  0  0
  -22.9232  -13.5524   21.3790 C   0  0  0  0  0  0  0  0  0  0  0  0
  -28.2513  -26.2981   13.3764 C   0  0  0  0  0  0  0  0  0  0  0  0
  -28.4638  -26.8406   16.5675 C   0  0  0  0  0  0  0  0  0  0  0  0
  -29.6947  -25.8634   19.5968 C   0  0  0  0  0  0  0  0  0  0  0  0
  -30.7921  -14.6366   20.7521 C   0  0  0  0  0  0  0  0  0  0  0  0
  -25.2514  -27.7844    9.5229 C   0  0  0  0  0  0  0  0  0  0  0  0
  -27.6015  -24.0496   14.3136 C   0  0  0  0  0  0  0  0  0  0  0  0
  -30.0365  -25.1165   15.6088 C   0  0  0  0  0  0  0  0  0  0  0  0
  -25.6564  -28.3620   10.8767 C   0  0  0  0  0  0  0  0  0  0  0  0
  -29.5736  -12.3745   18.2874 C   0  0  0  0  0  0  0  0  0  0  0  0
  -27.1705  -28.3007   11.0519 C   0  0  0  0  0  0  0  0  0  0  0  0
  -28.1335  -12.0992   18.7237 C   0  0  0  0  0  0  0  0  0  0  0  0
  -30.5072  -12.5264   19.4863 C   0  0  0  0  0  0  0  0  0  0  0  0
  -28.6372  -13.2492   20.9197 C   0  0  0  0  0  0  0  0  0  0  0  0
  -27.6712  -26.8516   11.0210 C   0  0  1  0  0  0  0  0  0  0  0  0
  -27.7793  -25.5403   14.5850 C   0  0  1  0  0  0  0  0  0  0  0  0
  -27.6479  -13.1439   19.7464 C   0  0  2  0  0  0  0  0  0  0  0  0
  -30.1755  -21.1743   18.4496 C   0  0  0  0  0  0  0  0  0  0  0  0
  -28.3959  -18.2211   22.0396 C   0  0  0  0  0  0  0  0  0  0  0  0
  -30.0282  -25.8620   22.0840 C   0  0  0  0  0  0  0  0  0  0  0  0
  -30.4854  -29.0361   15.9329 C   0  0  0  0  0  0  0  0  0  0  0  0
  -31.1745  -29.0007   18.3396 C   0  0  0  0  0  0  0  0  0  0  0  0
  -28.8384  -29.6201   17.7220 C   0  0  0  0  0  0  0  0  0  0  0  0
  -33.4469  -17.5578   14.5248 C   0  0  0  0  0  0  0  0  0  0  0  0
  -34.8883  -19.5040   13.9151 C   0  0  0  0  0  0  0  0  0  0  0  0
  -27.3807  -24.0681   20.0227 C   0  0  0  0  0  0  0  0  0  0  0  0
  -32.7131  -19.6926   18.4711 C   0  0  0  0  0  0  0  0  0  0  0  0
  -30.9225  -16.7355   22.0700 C   0  0  0  0  0  0  0  0  0  0  0  0
  -32.5315  -19.1894   17.0322 C   0  0  0  0  0  0  0  0  0  0  0  0
  -33.7337  -19.5153   16.1330 C   0  0  0  0  0  0  0  0  0  0  0  0
  -32.3859  -19.7562   13.9552 C   0  0  0  0  0  0  0  0  0  1  0  0
  -29.5773  -27.2109   17.5172 C   0  0  1  0  0  0  0  0  0  0  0  0
  -29.0271  -25.7013   20.9505 C   0  0  2  0  0  0  0  0  0  0  0  0
  -30.0200  -28.6933   17.3622 C   0  0  0  0  0  0  0  0  0  0  0  0
  -33.5934  -19.0851   14.6448 C   0  0  0  0  0  0  0  0  0  0  0  0
  -25.8276  -11.5744   20.2992 N   0  0  0  0  0  0  0  0  0  0  0  0
  -26.2348  -12.8525   20.2164 N   0  0  0  0  0  0  0  0  0  0  0  0
  -28.7382  -25.8089   15.6587 N   0  0  0  0  0  0  0  0  0  0  0  0
  -29.9905  -13.5329   20.4168 N   0  0  0  0  0  0  0  0  0  0  0  0
  -25.5258  -15.0866   20.5578 N   0  0  0  0  0  0  0  0  0  0  0  0
  -21.8924  -12.6556   21.6915 N   0  0  0  0  0  0  0  0  0  0  0  0
  -27.4086  -26.1991   12.2858 N   0  0  0  0  0  0  0  0  0  0  0  0
  -29.1060  -26.8647   18.8537 N   0  0  0  0  0  0  0  0  0  0  0  0
  -30.2239  -15.5464   21.6354 N   0  0  0  0  0  0  0  0  0  0  0  0
  -28.4032  -24.3525   21.0622 N   0  3  0  0  0  0  0  0  0  0  0  0
  -22.7179  -14.7852   21.4860 O   0  0  0  0  0  0  0  0  0  0  0  0
  -29.3015  -26.9273   13.4299 O   0  0  0  0  0  0  0  0  0  0  0  0
  -27.3876  -27.4398   16.6345 O   0  0  0  0  0  0  0  0  0  0  0  0
  -30.6457  -25.1735   19.2362 O   0  0  0  0  0  0  0  0  0  0  0  0
  -31.9276  -14.8019   20.2938 O   0  0  0  0  0  0  0  0  0  0  0  0
  -21.4834   -7.1007   21.5886 O   0  0  0  0  0  0  0  0  0  0  0  0
  -32.4768  -21.1780   14.0367 O   0  0  0  0  0  0  0  0  0  1  0  0
  -23.8412   -2.8825   24.2440 F   0  0  0  0  0  0  0  0  0  0  0  0
  -20.4390   -6.1621   23.9699 F   0  0  0  0  0  0  0  0  0  0  0  0
  1  2  1  0  0  0  0
  1  5  2  0  0  0  0
  2  6  2  0  0  0  0
  3  8  2  0  0  0  0
  3 17  1  0  0  0  0
  4  9  1  0  0  0  0
  4 17  2  0  0  0  0
  5 19  1  0  0  0  0
  6 21  1  0  0  0  0
  7 10  2  0  0  0  0
  7 20  1  0  0  0  0
  8 27  1  0  0  0  0
  9 27  2  0  0  0  0
 10 28  1  0  0  0  0
 11 12  2  0  0  0  0
 11 29  1  0  0  0  0
 12 30  1  0  0  0  0
 13 22  1  0  0  0  0
 13 28  2  0  0  0  0
 14 23  1  0  0  0  0
 14 24  2  0  0  0  0
 15 25  1  0  0  0  0
 15 26  2  0  0  0  0
 16 30  2  0  0  0  0
 16 31  1  0  0  0  0
 17 32  1  0  0  0  0
 18 32  1  0  0  0  0
 18 33  2  0  0  0  0
 18 34  1  0  0  0  0
 19 21  2  0  0  0  0
 19 39  1  0  0  0  0
 20 22  2  0  0  0  0
 20 40  1  0  0  0  0
 21 48  1  0  0  0  0
 22 41  1  0  0  0  0
 23 25  2  0  0  0  0
 23 51  1  0  0  0  0
 24 26  1  0  0  0  0
 24 52  1  0  0  0  0
 25 60  1  0  0  0  0
 26 61  1  0  0  0  0
 27 84  1  0  0  0  0
 28 85  1  0  0  0  0
 29 31  2  0  0  0  0
 29 84  1  0  0  0  0
 30 86  1  0  0  0  0
 31 87  1  0  0  0  0
 32 69  2  0  0  0  0
 33 70  1  0  0  0  0
 33 73  1  0  0  0  0
 34 74  1  0  0  0  0
 34 79  2  0  0  0  0
 35 49  1  0  0  0  0
 35 75  1  0  0  0  0
 35 80  2  0  0  0  0
 36 65  1  0  0  0  0
 36 71  1  0  0  0  0
 36 81  2  0  0  0  0
 37 66  1  0  0  0  0
 37 76  1  0  0  0  0
 37 82  2  0  0  0  0
 38 72  1  0  0  0  0
 38 77  1  0  0  0  0
 38 83  2  0  0  0  0
 39 42  1  0  0  0  0
 40 49  1  0  0  0  0
 41 71  1  0  0  0  0
 42 44  1  0  0  0  0
 43 45  1  0  0  0  0
 43 46  1  0  0  0  0
 44 48  1  0  0  0  0
 45 50  1  0  0  0  0
 46 72  1  0  0  0  0
 47 50  1  0  0  0  0
 47 72  1  0  0  0  0
 48 75  1  0  0  0  0
 49 71  1  0  0  0  0
 50 70  1  0  0  0  0
 53 66  1  0  0  0  0
 54 67  1  0  0  0  0
 55 67  1  0  0  0  0
 56 67  1  0  0  0  0
 57 68  1  0  0  0  0
 58 68  1  0  0  0  0
 59 78  1  0  0  0  0
 60 62  1  0  0  0  0
 61 77  1  0  0  0  0
 62 63  1  0  0  0  0
 63 68  1  0  0  0  0
 64 68  1  0  0  0  0
 64 85  1  0  0  0  0
 65 67  1  0  0  0  0
 65 76  1  0  0  0  0
 66 78  1  0  0  0  0
 69 70  1  0  0  0  0
M  CHG  1  78   1
M  ISO  4  38 100  64 101  77 100  85 101
M  END
> <Batch ID>
0133

> <Smiles>
CNC(C)C(=O)NC(C(=O)N1Cc2cc([101O:1][101CH2:1]C(C)(C)CCCc3cc(C[100NH:0][100C:0](=O)N4CCCC(n5nc(-c6ccc(Oc7ccc(F)cc7F)cc6)c(C(N)=O)c5N)C4)c(C)cc3C)ccc2CC1C(=O)NC1CCCc2ccccc21)C(C)(C)C

> <Shape>
0.228

> <Color>
0.217

> <Negative vol penalty>
0.000

$$$$

  -OEChem-04052302303D

 88 96  0     1  0  0  0  0  0999 V2000
  -30.7782  -24.9036   18.6210 C   0  0  0  0  0  0  0  0  0  0  0  0
  -29.4193  -24.7488   18.8756 C   0  0  0  0  0  0  0  0  0  0  0  0
  -23.6936  -12.0882   20.0914 C   0  0  0  0  0  0  0  0  0  0  0  0
  -24.9607  -13.5359   21.5527 C   0  0  0  0  0  0  0  0  0  0  0  0
  -31.5537  -25.7134   19.4496 C   0  0  0  0  0  0  0  0  0  0  0  0
  -28.8353  -25.4030   19.9598 C   0  0  0  0  0  0  0  0  0  0  0  0
  -23.1685  -27.7070   20.2522 C   0  0  0  0  0  0  0  0  0  0  0  0
  -24.8543  -22.8284   24.0652 C   0  0  0  0  0  0  0  0  0  0  0  0
  -25.1835  -23.0138   22.7226 C   0  0  0  0  0  0  0  0  0  0  0  0
  -24.8557  -11.3803   19.7849 C   0  0  0  0  0  0  0  0  0  0  0  0
  -26.1229  -12.8281   21.2462 C   0  0  0  0  0  0  0  0  0  0  0  0
  -21.9824  -27.2141   20.7944 C   0  0  0  0  0  0  0  0  0  0  0  0
  -28.3570  -12.6837   18.7127 C   0  0  0  0  0  0  0  0  0  0  0  0
  -29.5077  -13.4190   18.4283 C   0  0  0  0  0  0  0  0  0  0  0  0
  -22.3973  -28.4590   22.8185 C   0  0  0  0  0  0  0  0  0  0  0  0
  -22.6726  -22.0168   23.4183 C   0  0  0  0  0  0  0  0  0  0  0  0
  -30.6395  -12.3657   20.2848 C   0  0  0  0  0  0  0  0  0  0  0  0
  -23.7461  -13.1660   20.9752 C   0  0  0  0  0  0  0  0  0  0  0  0
  -21.6409  -13.6351   22.3374 C   0  0  0  0  0  0  0  0  0  0  0  0
  -30.9770  -26.3856   20.5388 C   0  0  0  0  0  0  0  0  0  0  0  0
  -23.9848  -28.5725   20.9946 C   0  0  0  0  0  0  0  0  0  0  0  0
  -29.6041  -26.2216   20.8046 C   0  0  0  0  0  0  0  0  0  0  0  0
  -23.5920  -28.9636   22.2825 C   0  0  0  0  0  0  0  0  0  0  0  0
  -23.5988  -22.3298   24.4131 C   0  0  0  0  0  0  0  0  0  0  0  0
  -24.2573  -22.7007   21.7277 C   0  0  0  0  0  0  0  0  0  0  0  0
  -23.0018  -22.2022   22.0756 C   0  0  0  0  0  0  0  0  0  0  0  0
  -26.0704  -11.7502   20.3623 C   0  0  0  0  0  0  0  0  0  0  0  0
  -21.5981  -27.5878   22.0788 C   0  0  0  0  0  0  0  0  0  0  0  0
  -28.3475  -11.7895   19.7831 C   0  0  0  0  0  0  0  0  0  0  0  0
  -30.6490  -13.2600   19.2143 C   0  0  0  0  0  0  0  0  0  0  0  0
  -29.4888  -11.6304   20.5691 C   0  0  0  0  0  0  0  0  0  0  0  0
  -22.5460  -13.8980   21.2918 C   0  0  0  0  0  0  0  0  0  0  0  0
  -20.6784  -14.6068   22.2108 C   0  0  0  0  0  0  0  0  0  0  0  0
  -21.6677  -12.6048   23.3342 C   0  0  0  0  0  0  0  0  0  0  0  0
  -26.9580  -28.4448   22.1115 C   0  0  0  0  0  0  0  0  0  0  0  0
  -20.8031  -20.0791   19.7308 C   0  0  0  0  0  0  0  0  0  0  0  0
  -26.3572  -31.5183   22.9570 C   0  0  0  0  0  0  0  0  0  0  0  0
  -24.0511  -33.9153   23.7205 C   0  0  0  0  0  0  0  0  0  0  0  0
  -31.8652  -27.2125   21.4343 C   0  0  0  0  0  0  0  0  0  0  0  0
  -25.2478  -29.1165   20.3853 C   0  0  0  0  0  0  0  0  0  0  0  0
  -24.4227  -29.9063   23.1130 C   0  0  0  0  0  0  0  0  0  0  0  0
  -31.0947  -28.1689   22.3410 C   0  0  0  0  0  0  0  0  0  0  0  0
  -18.5632  -17.3914   18.9565 C   0  0  0  0  0  0  0  0  0  0  0  0
  -29.9239  -27.4498   23.0034 C   0  0  0  0  0  0  0  0  0  0  0  0
  -19.2621  -16.1630   19.5377 C   0  0  0  0  0  0  0  0  0  0  0  0
  -19.5688  -18.3967   18.4040 C   0  0  0  0  0  0  0  0  0  0  0  0
  -21.3060  -17.5973   19.9739 C   0  0  0  0  0  0  0  0  0  0  0  0
  -28.9292  -26.9345   21.9562 C   0  0  1  0  0  0  0  0  0  0  0  0
  -26.2597  -29.5852   21.4263 C   0  0  1  0  0  0  0  0  0  0  0  0
  -20.3276  -16.5702   20.5708 C   0  0  2  0  0  0  0  0  0  0  0  0
  -24.5684  -24.3777   19.8900 C   0  0  0  0  0  0  0  0  0  0  0  0
  -23.8645  -36.3218   24.4071 C   0  0  0  0  0  0  0  0  0  0  0  0
  -18.8218  -26.7325   26.6789 C   0  0  0  0  0  0  0  0  0  0  0  0
  -27.2057  -30.7729   25.7915 C   0  0  0  0  0  0  0  0  0  0  0  0
  -26.1168  -32.8786   26.5966 C   0  0  0  0  0  0  0  0  0  0  0  0
  -28.0344  -32.9977   25.0056 C   0  0  0  0  0  0  0  0  0  0  0  0
  -22.5172  -34.6112   21.2870 C   0  0  0  0  0  0  0  0  0  0  0  0
  -23.2430  -22.1300   25.8648 C   0  0  0  0  0  0  0  0  0  0  0  0
  -24.6320  -22.9087   20.2970 C   0  0  0  0  0  0  0  0  0  0  0  0
  -21.9939  -21.8604   21.0277 C   0  0  0  0  0  0  0  0  0  0  0  0
  -21.8540  -20.3545   20.7766 C   0  0  0  0  0  0  0  0  0  0  0  0
  -22.5939  -23.3557   26.5178 C   0  0  0  0  0  0  0  0  0  0  0  0
  -21.2930  -23.7845   25.8279 C   0  0  0  0  0  0  0  0  0  0  0  0
  -20.7032  -25.0323   26.4949 C   0  0  0  0  0  0  0  0  0  0  0  0
  -19.4624  -25.7966   24.3963 C   0  0  0  0  0  0  0  0  0  0  0  0
  -20.3950  -26.9477   24.0279 C   0  0  0  0  0  0  0  0  0  1  0  0
  -25.7836  -32.1991   24.1762 C   0  0  1  0  0  0  0  0  0  0  0  0
  -23.8890  -35.3463   23.2406 C   0  0  2  0  0  0  0  0  0  0  0  0
  -19.3587  -25.5213   25.9115 C   0  0  2  0  0  0  0  0  0  0  0  0
  -26.7702  -32.1928   25.3778 C   0  0  0  0  0  0  0  0  0  0  0  0
  -22.1903  -14.9538   20.5551 N   0  0  0  0  0  0  0  0  0  0  0  0
  -21.0509  -15.3629   21.1385 N   0  0  0  0  0  0  0  0  0  0  0  0
  -25.6521  -30.4062   22.4756 N   0  0  0  0  0  0  0  0  0  0  0  0
  -20.5769  -18.7409   19.4082 N   0  0  0  0  0  0  0  0  0  0  0  0
  -19.5582  -14.8795   22.9130 N   0  0  0  0  0  0  0  0  0  0  0  0
  -22.7287  -11.6891   23.3202 N   0  0  0  0  0  0  0  0  0  0  0  0
  -28.1035  -28.0178   21.4674 N   0  0  0  0  0  0  0  0  0  0  0  0
  -25.3753  -33.5318   23.7453 N   0  0  0  0  0  0  0  0  0  0  0  0
  -22.6183  -35.4956   22.4763 N   0  3  0  0  0  0  0  0  0  0  0  0
  -20.7685  -12.4894   24.2012 O   0  0  0  0  0  0  0  0  0  0  0  0
  -26.4927  -27.9871   23.1487 O   0  0  0  0  0  0  0  0  0  0  0  0
  -20.2003  -21.0261   19.2191 O   0  0  0  0  0  0  0  0  0  0  0  0
  -27.3890  -31.9614   22.4463 O   0  0  0  0  0  0  0  0  0  0  0  0
  -23.0985  -33.2095   24.0447 O   0  0  0  0  0  0  0  0  0  0  0  0
  -27.2046  -11.0596   20.0636 O   0  0  0  0  0  0  0  0  0  0  0  0
  -20.4411  -27.1076   22.6106 O   0  0  0  0  0  0  0  0  0  1  0  0
  -31.7544  -13.9650   18.9402 F   0  0  0  0  0  0  0  0  0  0  0  0
  -29.4861  -10.7719   21.5981 F   0  0  0  0  0  0  0  0  0  0  0  0
  1  2  1  0  0  0  0
  1  5  2  0  0  0  0
  2  6  2  0  0  0  0
  3 10  2  0  0  0  0
  3 18  1  0  0  0  0
  4 11  1  0  0  0  0
  4 18  2  0  0  0  0
  5 20  1  0  0  0  0
  6 22  1  0  0  0  0
  7 12  2  0  0  0  0
  7 21  1  0  0  0  0
  8  9  2  0  0  0  0
  8 24  1  0  0  0  0
  9 25  1  0  0  0  0
 10 27  1  0  0  0  0
 11 27  2  0  0  0  0
 12 28  1  0  0  0  0
 13 14  2  0  0  0  0
 13 29  1  0  0  0  0
 14 30  1  0  0  0  0
 15 23  1  0  0  0  0
 15 28  2  0  0  0  0
 16 24  2  0  0  0  0
 16 26  1  0  0  0  0
 17 30  2  0  0  0  0
 17 31  1  0  0  0  0
 18 32  1  0  0  0  0
 19 32  1  0  0  0  0
 19 33  2  0  0  0  0
 19 34  1  0  0  0  0
 20 22  2  0  0  0  0
 20 39  1  0  0  0  0
 21 23  2  0  0  0  0
 21 40  1  0  0  0  0
 22 48  1  0  0  0  0
 23 41  1  0  0  0  0
 24 58  1  0  0  0  0
 25 26  2  0  0  0  0
 25 59  1  0  0  0  0
 26 60  1  0  0  0  0
 27 85  1  0  0  0  0
 28 86  1  0  0  0  0
 29 31  2  0  0  0  0
 29 85  1  0  0  0  0
 30 87  1  0  0  0  0
 31 88  1  0  0  0  0
 32 71  2  0  0  0  0
 33 72  1  0  0  0  0
 33 75  1  0  0  0  0
 34 76  1  0  0  0  0
 34 80  2  0  0  0  0
 35 49  1  0  0  0  0
 35 77  1  0  0  0  0
 35 81  2  0  0  0  0
 36 61  1  0  0  0  0
 36 74  1  0  0  0  0
 36 82  2  0  0  0  0
 37 67  1  0  0  0  0
 37 73  1  0  0  0  0
 37 83  2  0  0  0  0
 38 68  1  0  0  0  0
 38 78  1  0  0  0  0
 38 84  2  0  0  0  0
 39 42  1  0  0  0  0
 40 49  1  0  0  0  0
 41 73  1  0  0  0  0
 42 44  1  0  0  0  0
 43 45  1  0  0  0  0
 43 46  1  0  0  0  0
 44 48  1  0  0  0  0
 45 50  1  0  0  0  0
 46 74  1  0  0  0  0
 47 50  1  0  0  0  0
 47 74  1  0  0  0  0
 48 77  1  0  0  0  0
 49 73  1  0  0  0  0
 50 72  1  0  0  0  0
 51 59  1  0  0  0  0
 52 68  1  0  0  0  0
 53 69  1  0  0  0  0
 54 70  1  0  0  0  0
 55 70  1  0  0  0  0
 56 70  1  0  0  0  0
 57 79  1  0  0  0  0
 58 62  1  0  0  0  0
 60 61  1  0  0  0  0
 62 63  1  0  0  0  0
 63 64  1  0  0  0  0
 64 69  1  0  0  0  0
 65 66  1  0  0  0  0
 65 69  1  0  0  0  0
 66 86  1  0  0  0  0
 67 70  1  0  0  0  0
 67 78  1  0  0  0  0
 68 79  1  0  0  0  0
 71 72  1  0  0  0  0
M  CHG  1  79   1
M  ISO  4  36 100  61 100  66 101  86 101
M  END
> <Batch ID>
0133

> <Smiles>
CCc1ccc(CCCCC(C)C[101CH2:1][101O:1]c2ccc3c(c2)CN(C(=O)C(NC(=O)C(C)NC)C(C)(C)C)C(C(=O)NC2CCCc4ccccc42)C3)cc1C[100CH2:0][100C:0](=O)N1CCCC(n2nc(-c3ccc(Oc4ccc(F)cc4F)cc3)c(C(N)=O)c2N)C1

> <Shape>
0.259

> <Color>
0.080

> <Negative vol penalty>
0.000

$$$$

  -OEChem-04052302303D

 88 96  0     1  0  0  0  0  0999 V2000
  -29.1045  -31.7063   20.1739 C   0  0  0  0  0  0  0  0  0  0  0  0
  -28.4269  -30.5024   20.0101 C   0  0  0  0  0  0  0  0  0  0  0  0
  -28.0604  -18.7609   15.2172 C   0  0  0  0  0  0  0  0  0  0  0  0
  -23.1470   -9.7772   21.4659 C   0  0  0  0  0  0  0  0  0  0  0  0
  -23.8111  -10.7541   23.5734 C   0  0  0  0  0  0  0  0  0  0  0  0
  -28.7810  -32.5479   21.2373 C   0  0  0  0  0  0  0  0  0  0  0  0
  -27.4259  -30.1389   20.9103 C   0  0  0  0  0  0  0  0  0  0  0  0
  -23.2995  -28.3275   18.6002 C   0  0  0  0  0  0  0  0  0  0  0  0
  -28.3221  -18.1274   16.4320 C   0  0  0  0  0  0  0  0  0  0  0  0
  -27.9347  -20.1492   15.1675 C   0  0  0  0  0  0  0  0  0  0  0  0
  -22.4379   -8.7883   22.1477 C   0  0  0  0  0  0  0  0  0  0  0  0
  -23.1019   -9.7652   24.2553 C   0  0  0  0  0  0  0  0  0  0  0  0
  -23.3530  -27.0125   18.1400 C   0  0  0  0  0  0  0  0  0  0  0  0
  -23.1236   -5.9083   23.7786 C   0  0  0  0  0  0  0  0  0  0  0  0
  -23.2682   -4.5912   23.3429 C   0  0  0  0  0  0  0  0  0  0  0  0
  -22.1287  -26.2873   20.0879 C   0  0  0  0  0  0  0  0  0  0  0  0
  -28.3323  -20.2705   17.5474 C   0  0  0  0  0  0  0  0  0  0  0  0
  -20.8956   -4.4768   22.9017 C   0  0  0  0  0  0  0  0  0  0  0  0
  -23.8336  -10.7601   22.1788 C   0  0  0  0  0  0  0  0  0  0  0  0
  -24.0837  -13.0328   21.0474 C   0  0  0  0  0  0  0  0  0  0  0  0
  -27.7690  -32.1991   22.1455 C   0  0  0  0  0  0  0  0  0  0  0  0
  -22.6686  -28.6312   19.8152 C   0  0  0  0  0  0  0  0  0  0  0  0
  -27.0895  -30.9761   21.9877 C   0  0  0  0  0  0  0  0  0  0  0  0
  -22.0664  -27.6072   20.5601 C   0  0  0  0  0  0  0  0  0  0  0  0
  -28.4580  -18.8822   17.5971 C   0  0  0  0  0  0  0  0  0  0  0  0
  -28.0706  -20.9040   16.3325 C   0  0  0  0  0  0  0  0  0  0  0  0
  -22.4153   -8.7823   23.5424 C   0  0  0  0  0  0  0  0  0  0  0  0
  -22.7701  -25.9918   18.8852 C   0  0  0  0  0  0  0  0  0  0  0  0
  -21.8650   -6.5097   23.7759 C   0  0  0  0  0  0  0  0  0  0  0  0
  -22.1542   -3.8754   22.9044 C   0  0  0  0  0  0  0  0  0  0  0  0
  -20.7510   -5.7939   23.3374 C   0  0  0  0  0  0  0  0  0  0  0  0
  -24.5668  -11.7815   21.4750 C   0  0  0  0  0  0  0  0  0  0  0  0
  -25.1606  -13.6253   20.4344 C   0  0  0  0  0  0  0  0  0  0  0  0
  -22.7784  -13.6081   21.1916 C   0  0  0  0  0  0  0  0  0  0  0  0
  -23.6134  -29.8740   22.5841 C   0  0  0  0  0  0  0  0  0  0  0  0
  -20.4442  -29.7675   23.2675 C   0  0  0  0  0  0  0  0  0  0  0  0
  -17.3954  -28.3592   22.6611 C   0  0  0  0  0  0  0  0  0  0  0  0
  -30.5892  -14.9140   20.3120 C   0  0  0  0  0  0  0  0  0  0  0  0
  -27.4870  -33.1192   23.3068 C   0  0  0  0  0  0  0  0  0  0  0  0
  -22.5962  -30.0584   20.2847 C   0  0  0  0  0  0  0  0  0  0  0  0
  -21.3593  -27.8835   21.8609 C   0  0  0  0  0  0  0  0  0  0  0  0
  -26.1569  -32.8351   23.9999 C   0  0  0  0  0  0  0  0  0  0  0  0
  -29.6423  -11.7105   19.0801 C   0  0  0  0  0  0  0  0  0  0  0  0
  -25.9934  -31.3391   24.2488 C   0  0  0  0  0  0  0  0  0  0  0  0
  -28.2005  -11.5443   19.5633 C   0  0  0  0  0  0  0  0  0  0  0  0
  -30.5002  -12.4469   20.1066 C   0  0  0  0  0  0  0  0  0  0  0  0
  -28.5166  -13.5791   21.0324 C   0  0  0  0  0  0  0  0  0  0  0  0
  -25.9806  -30.5584   22.9290 C   0  0  1  0  0  0  0  0  0  0  0  0
  -22.3761  -30.1820   21.7892 C   0  0  1  0  0  0  0  0  0  0  0  0
  -27.5990  -12.8914   20.0070 C   0  0  2  0  0  0  0  0  0  0  0  0
  -24.7972  -21.0302   19.5307 C   0  0  0  0  0  0  0  0  0  0  0  0
  -29.2573  -23.0882   16.6633 C   0  0  0  0  0  0  0  0  0  0  0  0
  -14.9996  -28.4530   23.4021 C   0  0  0  0  0  0  0  0  0  0  0  0
  -21.1697  -28.2278   25.8000 C   0  0  0  0  0  0  0  0  0  0  0  0
  -18.7696  -27.5403   25.9859 C   0  0  0  0  0  0  0  0  0  0  0  0
  -19.3863  -29.9545   26.1037 C   0  0  0  0  0  0  0  0  0  0  0  0
  -16.4704  -29.1468   19.9623 C   0  0  0  0  0  0  0  0  0  0  0  0
  -28.7393  -18.2042   18.8954 C   0  0  0  0  0  0  0  0  0  0  0  0
  -24.5727  -22.5131   19.2654 C   0  0  0  0  0  0  0  0  0  0  0  0
  -30.2377  -18.0304   19.2130 C   0  0  0  0  0  0  0  0  0  0  0  0
  -26.7868  -22.9540   17.1626 C   0  0  0  0  0  0  0  0  0  0  0  0
  -25.3955  -22.3733   16.8589 C   0  0  0  0  0  0  0  0  0  0  0  0
  -30.5222  -17.3818   20.5660 C   0  0  0  0  0  0  0  0  0  0  0  0
  -23.9500  -24.3399   17.6463 C   0  0  0  0  0  0  0  0  0  1  0  0
  -27.9330  -22.4158   16.2783 C   0  0  2  0  0  0  0  0  0  0  0  0
  -19.5175  -28.7486   23.8855 C   0  0  1  0  0  0  0  0  0  0  0  0
  -16.0310  -28.9778   22.4153 C   0  0  2  0  0  0  0  0  0  0  0  0
  -24.2507  -22.8382   17.7881 C   0  0  2  0  0  0  0  0  0  0  0  0
  -19.7257  -28.6120   25.4203 C   0  0  0  0  0  0  0  0  0  0  0  0
  -25.8505  -11.5893   21.1602 N   0  0  0  0  0  0  0  0  0  0  0  0
  -26.1832  -12.7277   20.5281 N   0  0  0  0  0  0  0  0  0  0  0  0
  -21.3207  -29.2940   22.2809 N   0  0  0  0  0  0  0  0  0  0  0  0
  -29.8749  -13.7168   20.4840 N   0  0  0  0  0  0  0  0  0  0  0  0
  -25.3230  -14.8212   19.8297 N   0  0  0  0  0  0  0  0  0  0  0  0
  -21.7888  -12.8634   21.8477 N   0  0  0  0  0  0  0  0  0  0  0  0
  -24.6925  -30.6823   22.2810 N   0  0  0  0  0  0  0  0  0  0  0  0
  -18.1660  -29.1381   23.4982 N   0  0  0  0  0  0  0  0  0  0  0  0
  -29.9210  -16.0725   20.6889 N   0  0  0  0  0  0  0  0  0  0  0  0
  -15.5621  -28.6665   21.0354 N   0  3  0  0  0  0  0  0  0  0  0  0
  -22.4933  -14.7419   20.7371 O   0  0  0  0  0  0  0  0  0  0  0  0
  -23.5904  -28.9710   23.4121 O   0  0  0  0  0  0  0  0  0  0  0  0
  -20.3875  -30.9417   23.6413 O   0  0  0  0  0  0  0  0  0  0  0  0
  -17.7414  -27.2900   22.1634 O   0  0  0  0  0  0  0  0  0  0  0  0
  -31.7353  -14.9484   19.8515 O   0  0  0  0  0  0  0  0  0  0  0  0
  -21.7233   -7.8177   24.2080 O   0  0  0  0  0  0  0  0  0  0  0  0
  -22.8215  -24.7074   18.4386 O   0  0  0  0  0  0  0  0  0  1  0  0
  -22.2934   -2.6111   22.4846 F   0  0  0  0  0  0  0  0  0  0  0  0
  -19.5395   -6.3667   23.3314 F   0  0  0  0  0  0  0  0  0  0  0  0
  1  2  1  0  0  0  0
  1  6  2  0  0  0  0
  2  7  2  0  0  0  0
  3  9  1  0  0  0  0
  3 10  2  0  0  0  0
  4 11  2  0  0  0  0
  4 19  1  0  0  0  0
  5 12  1  0  0  0  0
  5 19  2  0  0  0  0
  6 21  1  0  0  0  0
  7 23  1  0  0  0  0
  8 13  2  0  0  0  0
  8 22  1  0  0  0  0
  9 25  2  0  0  0  0
 10 26  1  0  0  0  0
 11 27  1  0  0  0  0
 12 27  2  0  0  0  0
 13 28  1  0  0  0  0
 14 15  2  0  0  0  0
 14 29  1  0  0  0  0
 15 30  1  0  0  0  0
 16 24  1  0  0  0  0
 16 28  2  0  0  0  0
 17 25  1  0  0  0  0
 17 26  2  0  0  0  0
 18 30  2  0  0  0  0
 18 31  1  0  0  0  0
 19 32  1  0  0  0  0
 20 32  1  0  0  0  0
 20 33  2  0  0  0  0
 20 34  1  0  0  0  0
 21 23  2  0  0  0  0
 21 39  1  0  0  0  0
 22 24  2  0  0  0  0
 22 40  1  0  0  0  0
 23 48  1  0  0  0  0
 24 41  1  0  0  0  0
 25 58  1  0  0  0  0
 26 65  1  0  0  0  0
 27 85  1  0  0  0  0
 28 86  1  0  0  0  0
 29 31  2  0  0  0  0
 29 85  1  0  0  0  0
 30 87  1  0  0  0  0
 31 88  1  0  0  0  0
 32 70  2  0  0  0  0
 33 71  1  0  0  0  0
 33 74  1  0  0  0  0
 34 75  1  0  0  0  0
 34 80  2  0  0  0  0
 35 49  1  0  0  0  0
 35 76  1  0  0  0  0
 35 81  2  0  0  0  0
 36 66  1  0  0  0  0
 36 72  1  0  0  0  0
 36 82  2  0  0  0  0
 37 67  1  0  0  0  0
 37 77  1  0  0  0  0
 37 83  2  0  0  0  0
 38 73  1  0  0  0  0
 38 78  1  0  0  0  0
 38 84  2  0  0  0  0
 39 42  1  0  0  0  0
 40 49  1  0  0  0  0
 41 72  1  0  0  0  0
 42 44  1  0  0  0  0
 43 45  1  0  0  0  0
 43 46  1  0  0  0  0
 44 48  1  0  0  0  0
 45 50  1  0  0  0  0
 46 73  1  0  0  0  0
 47 50  1  0  0  0  0
 47 73  1  0  0  0  0
 48 76  1  0  0  0  0
 49 72  1  0  0  0  0
 50 71  1  0  0  0  0
 51 59  1  0  0  0  0
 52 65  1  0  0  0  0
 53 67  1  0  0  0  0
 54 69  1  0  0  0  0
 55 69  1  0  0  0  0
 56 69  1  0  0  0  0
 57 79  1  0  0  0  0
 58 60  1  0  0  0  0
 59 68  1  0  0  0  0
 60 63  1  0  0  0  0
 61 62  1  0  0  0  0
 61 65  1  0  0  0  0
 62 68  1  0  0  0  0
 63 78  1  0  0  0  0
 64 68  1  0  0  0  0
 64 86  1  0  0  0  0
 66 69  1  0  0  0  0
 66 77  1  0  0  0  0
 67 79  1  0  0  0  0
 70 71  1  0  0  0  0
M  CHG  1  79   1
M  ISO  4  38 100  64 101  78 100  86 101
M  END
> <Batch ID>
0133

> <Smiles>
CCC(CCC(C)c1cccc(CCC[100NH:0][100C:0](=O)N2CCCC(n3nc(-c4ccc(Oc5ccc(F)cc5F)cc4)c(C(N)=O)c3N)C2)c1)[101CH2:1][101O:1]c1ccc2c(c1)CN(C(=O)C(NC(=O)C(C)NC)C(C)(C)C)C(C(=O)NC1CCCc3ccccc31)C2

> <Shape>
0.315

> <Color>
0.168

> <Negative vol penalty>
0.000

$$$$

  -OEChem-04052302303D

 81 89  0     1  0  0  0  0  0999 V2000
  -27.3954  -23.6280   21.8385 C   0  0  0  0  0  0  0  0  0  0  0  0
  -26.4222  -22.7516   21.3694 C   0  0  0  0  0  0  0  0  0  0  0  0
  -26.8729  -28.6890   18.9509 C   0  0  0  0  0  0  0  0  0  0  0  0
  -25.9758  -27.0475   20.4799 C   0  0  0  0  0  0  0  0  0  0  0  0
  -28.7454  -23.3120   21.6920 C   0  0  0  0  0  0  0  0  0  0  0  0
  -26.7985  -21.5590   20.7525 C   0  0  0  0  0  0  0  0  0  0  0  0
  -24.0861  -17.5979   22.3642 C   0  0  0  0  0  0  0  0  0  0  0  0
  -26.3532  -29.7119   19.7440 C   0  0  0  0  0  0  0  0  0  0  0  0
  -25.4561  -28.0704   21.2731 C   0  0  0  0  0  0  0  0  0  0  0  0
  -22.8006  -17.4527   21.8444 C   0  0  0  0  0  0  0  0  0  0  0  0
  -23.5839  -30.2387   23.5100 C   0  0  0  0  0  0  0  0  0  0  0  0
  -22.2761  -30.0984   23.9741 C   0  0  0  0  0  0  0  0  0  0  0  0
  -19.6139  -20.3755   16.3642 C   0  0  0  0  0  0  0  0  0  0  0  0
  -20.7844  -20.3613   15.5686 C   0  0  0  0  0  0  0  0  0  0  0  0
  -23.6197  -15.7917   20.2986 C   0  0  0  0  0  0  0  0  0  0  0  0
  -21.4776  -30.0044   21.6958 C   0  0  0  0  0  0  0  0  0  0  0  0
  -26.6842  -27.3568   19.3188 C   0  0  0  0  0  0  0  0  0  0  0  0
  -28.4912  -25.7035   18.6054 C   0  0  0  0  0  0  0  0  0  0  0  0
  -29.1384  -22.1105   21.0817 C   0  0  0  0  0  0  0  0  0  0  0  0
  -25.1519  -16.8478   21.8468 C   0  0  0  0  0  0  0  0  0  0  0  0
  -28.1551  -21.2272   20.5966 C   0  0  0  0  0  0  0  0  0  0  0  0
  -24.9173  -15.9274   20.8153 C   0  0  0  0  0  0  0  0  0  0  0  0
  -25.6448  -29.4026   20.9052 C   0  0  0  0  0  0  0  0  0  0  0  0
  -22.5678  -16.5516   20.8095 C   0  0  0  0  0  0  0  0  0  0  0  0
  -23.8387  -30.2620   22.1387 C   0  0  0  0  0  0  0  0  0  0  0  0
  -21.2229  -29.9812   23.0671 C   0  0  0  0  0  0  0  0  0  0  0  0
  -22.7855  -30.1448   21.2317 C   0  0  0  0  0  0  0  0  0  0  0  0
  -27.2203  -26.2997   18.4995 C   0  0  0  0  0  0  0  0  0  0  0  0
  -20.0256  -20.1323   17.6539 C   0  0  0  0  0  0  0  0  0  0  0  0
  -21.8280  -20.1106   16.4290 C   0  0  0  0  0  0  0  0  0  0  0  0
  -28.5124  -24.7606   17.6069 C   0  0  0  0  0  0  0  0  0  0  0  0
  -29.5572  -25.9774   19.5242 C   0  0  0  0  0  0  0  0  0  0  0  0
  -27.8868  -17.5480   20.3860 C   0  0  0  0  0  0  0  0  0  0  0  0
  -28.4018  -14.3576   20.6656 C   0  0  0  0  0  0  0  0  0  0  0  0
  -27.0826  -11.2297   21.0161 C   0  0  0  0  0  0  0  0  0  0  0  0
  -24.1976  -21.7414   14.7577 C   0  0  0  0  0  0  0  0  0  0  0  0
  -30.6103  -21.8343   20.9035 C   0  0  0  0  0  0  0  0  0  0  0  0
  -26.5276  -16.9966   22.4365 C   0  0  0  0  0  0  0  0  0  0  0  0
  -26.0236  -15.0836   20.2385 C   0  0  0  0  0  0  0  0  0  0  0  0
  -30.9210  -20.3764   20.5745 C   0  0  0  0  0  0  0  0  0  0  0  0
  -26.6716  -23.8381   13.2882 C   0  0  0  0  0  0  0  0  0  0  0  0
  -29.9854  -19.8641   19.4840 C   0  0  0  0  0  0  0  0  0  0  0  0
  -27.2075  -24.6530   14.4667 C   0  0  0  0  0  0  0  0  0  0  0  0
  -25.1716  -23.5813   13.4152 C   0  0  0  0  0  0  0  0  0  0  0  0
  -25.2899  -23.7833   15.8686 C   0  0  0  0  0  0  0  0  0  0  0  0
  -28.5234  -19.9124   19.9441 C   0  0  1  0  0  0  0  0  0  0  0  0
  -27.6362  -16.5554   21.4858 C   0  0  1  0  0  0  0  0  0  0  0  0
  -26.8088  -24.0199   15.8134 C   0  0  2  0  0  0  0  0  0  0  0  0
  -27.7514   -8.8163   21.1765 C   0  0  0  0  0  0  0  0  0  0  0  0
  -28.9245  -14.3052   17.6600 C   0  0  0  0  0  0  0  0  0  0  0  0
  -28.6425  -11.8184   17.7246 C   0  0  0  0  0  0  0  0  0  0  0  0
  -30.4850  -12.8969   19.0149 C   0  0  0  0  0  0  0  0  0  0  0  0
  -25.8994  -10.9609   23.7155 C   0  0  0  0  0  0  0  0  0  0  0  0
  -19.2930  -20.0173   18.9668 C   0  0  0  0  0  0  0  0  0  0  0  0
  -23.2785  -19.9728   16.2364 C   0  0  0  0  0  0  0  0  0  0  0  0
  -18.5503  -18.6887   19.1471 C   0  0  0  0  0  0  0  0  0  0  0  0
  -19.4854  -17.4789   19.1734 C   0  0  0  0  0  0  0  0  0  0  0  0
  -20.4626  -17.5528   20.3388 C   0  0  0  0  0  0  0  0  0  1  0  0
  -28.0999  -13.1473   19.8152 C   0  0  1  0  0  0  0  0  0  0  0  0
  -27.4354  -10.0866   21.9506 C   0  0  2  0  0  0  0  0  0  0  0  0
  -29.0173  -13.0591   18.5630 C   0  0  0  0  0  0  0  0  0  0  0  0
  -26.4873  -25.7793   17.5116 N   0  0  0  0  0  0  0  0  0  0  0  0
  -27.3003  -24.8462   16.9876 N   0  0  0  0  0  0  0  0  0  0  0  0
  -27.3524  -15.2700   20.8444 N   0  0  0  0  0  0  0  0  0  0  0  0
  -24.8607  -22.9789   14.7138 N   0  0  0  0  0  0  0  0  0  0  0  0
  -29.4495  -23.8749   17.2070 N   0  0  0  0  0  0  0  0  0  0  0  0
  -29.3688  -26.9784   20.4870 N   0  0  0  0  0  0  0  0  0  0  0  0
  -28.2368  -18.8075   20.8338 N   0  0  0  0  0  0  0  0  0  0  0  0
  -28.1875  -11.9927   20.7027 N   0  0  0  0  0  0  0  0  0  0  0  0
  -23.9468  -21.2380   16.0283 N   0  0  0  0  0  0  0  0  0  0  0  0
  -26.3009   -9.8039   22.8746 N   0  3  0  0  0  0  0  0  0  0  0  0
  -30.6508  -25.3644   19.4819 O   0  0  0  0  0  0  0  0  0  0  0  0
  -27.7726  -17.1967   19.2175 O   0  0  0  0  0  0  0  0  0  0  0  0
  -29.5251  -14.4849   21.1591 O   0  0  0  0  0  0  0  0  0  0  0  0
  -25.9417  -11.4239   20.6024 O   0  0  0  0  0  0  0  0  0  0  0  0
  -23.8592  -21.1278   13.7399 O   0  0  0  0  0  0  0  0  0  0  0  0
  -21.3739  -19.9699   17.7020 O   0  0  0  0  0  0  0  0  0  0  0  0
  -25.1377  -30.4005   21.6795 O   0  0  0  0  0  0  0  0  0  0  0  0
  -21.3141  -16.4084   20.2999 O   0  0  0  0  0  0  0  0  0  1  0  0
  -19.9672  -29.8449   23.5129 F   0  0  0  0  0  0  0  0  0  0  0  0
  -23.0241  -30.1653   19.9132 F   0  0  0  0  0  0  0  0  0  0  0  0
  1  2  1  0  0  0  0
  1  5  2  0  0  0  0
  2  6  2  0  0  0  0
  3  8  2  0  0  0  0
  3 17  1  0  0  0  0
  4  9  1  0  0  0  0
  4 17  2  0  0  0  0
  5 19  1  0  0  0  0
  6 21  1  0  0  0  0
  7 10  2  0  0  0  0
  7 20  1  0  0  0  0
  8 23  1  0  0  0  0
  9 23  2  0  0  0  0
 10 24  1  0  0  0  0
 11 12  2  0  0  0  0
 11 25  1  0  0  0  0
 12 26  1  0  0  0  0
 13 14  1  0  0  0  0
 13 29  2  0  0  0  0
 14 30  2  0  0  0  0
 15 22  1  0  0  0  0
 15 24  2  0  0  0  0
 16 26  2  0  0  0  0
 16 27  1  0  0  0  0
 17 28  1  0  0  0  0
 18 28  1  0  0  0  0
 18 31  2  0  0  0  0
 18 32  1  0  0  0  0
 19 21  2  0  0  0  0
 19 37  1  0  0  0  0
 20 22  2  0  0  0  0
 20 38  1  0  0  0  0
 21 46  1  0  0  0  0
 22 39  1  0  0  0  0
 23 78  1  0  0  0  0
 24 79  1  0  0  0  0
 25 27  2  0  0  0  0
 25 78  1  0  0  0  0
 26 80  1  0  0  0  0
 27 81  1  0  0  0  0
 28 62  2  0  0  0  0
 29 54  1  0  0  0  0
 29 77  1  0  0  0  0
 30 55  1  0  0  0  0
 30 77  1  0  0  0  0
 31 63  1  0  0  0  0
 31 66  1  0  0  0  0
 32 67  1  0  0  0  0
 32 72  2  0  0  0  0
 33 47  1  0  0  0  0
 33 68  1  0  0  0  0
 33 73  2  0  0  0  0
 34 59  1  0  0  0  0
 34 64  1  0  0  0  0
 34 74  2  0  0  0  0
 35 60  1  0  0  0  0
 35 69  1  0  0  0  0
 35 75  2  0  0  0  0
 36 65  1  0  0  0  0
 36 70  1  0  0  0  0
 36 76  2  0  0  0  0
 37 40  1  0  0  0  0
 38 47  1  0  0  0  0
 39 64  1  0  0  0  0
 40 42  1  0  0  0  0
 41 43  1  0  0  0  0
 41 44  1  0  0  0  0
 42 46  1  0  0  0  0
 43 48  1  0  0  0  0
 44 65  1  0  0  0  0
 45 48  1  0  0  0  0
 45 65  1  0  0  0  0
 46 68  1  0  0  0  0
 47 64  1  0  0  0  0
 48 63  1  0  0  0  0
 49 60  1  0  0  0  0
 50 61  1  0  0  0  0
 51 61  1  0  0  0  0
 52 61  1  0  0  0  0
 53 71  1  0  0  0  0
 54 56  1  0  0  0  0
 55 70  1  0  0  0  0
 56 57  1  0  0  0  0
 57 58  1  0  0  0  0
 58 79  1  0  0  0  0
 59 61  1  0  0  0  0
 59 69  1  0  0  0  0
 60 71  1  0  0  0  0
 62 63  1  0  0  0  0
M  CHG  1  71   1
M  ISO  4  36 100  58 101  70 100  79 101
M  END
> <Batch ID>
0133

> <Smiles>
CNC(C)C(=O)NC(C(=O)N1Cc2cc([101O:1][101CH2:1]CCCc3ccc(C[100NH:0][100C:0](=O)N4CCCC(n5nc(-c6ccc(Oc7ccc(F)cc7F)cc6)c(C(N)=O)c5N)C4)o3)ccc2CC1C(=O)NC1CCCc2ccccc21)C(C)(C)C

> <Shape>
0.226

> <Color>
0.056

> <Negative vol penalty>
0.000

$$$$

  -OEChem-04052302303D

 97107  0     1  0  0  0  0  0999 V2000
  -22.3462  -30.5598   13.8801 C   0  0  0  0  0  0  0  0  0  0  0  0
  -22.1501  -30.2001   15.2096 C   0  0  0  0  0  0  0  0  0  0  0  0
  -22.8408  -24.7490   20.3035 C   0  0  0  0  0  0  0  0  0  0  0  0
  -29.3003  -12.1438   21.0890 C   0  0  0  0  0  0  0  0  0  0  0  0
  -28.2544  -13.0906   19.1277 C   0  0  0  0  0  0  0  0  0  0  0  0
  -24.2845  -16.9828   20.7024 C   0  0  0  0  0  0  0  0  0  0  0  0
  -23.2947  -29.8882   13.1100 C   0  0  0  0  0  0  0  0  0  0  0  0
  -22.9019  -29.1676   15.7695 C   0  0  0  0  0  0  0  0  0  0  0  0
  -23.2590  -23.6885   21.1073 C   0  0  0  0  0  0  0  0  0  0  0  0
  -24.2737  -18.1892   21.4025 C   0  0  0  0  0  0  0  0  0  0  0  0
  -24.7245  -30.3537   20.4346 C   0  0  0  0  0  0  0  0  0  0  0  0
  -21.6786  -25.4508   20.6237 C   0  0  0  0  0  0  0  0  0  0  0  0
  -30.4084  -12.9689   20.8964 C   0  0  0  0  0  0  0  0  0  0  0  0
  -29.3624  -13.9158   18.9351 C   0  0  0  0  0  0  0  0  0  0  0  0
  -23.8559  -30.2830   21.5228 C   0  0  0  0  0  0  0  0  0  0  0  0
  -30.5773  -16.7933   20.2253 C   0  0  0  0  0  0  0  0  0  0  0  0
  -30.3402  -18.1342   19.9234 C   0  0  0  0  0  0  0  0  0  0  0  0
  -22.5912  -16.1066   22.1862 C   0  0  0  0  0  0  0  0  0  0  0  0
  -21.3526  -24.0313   22.5514 C   0  0  0  0  0  0  0  0  0  0  0  0
  -24.7294  -28.1024   22.0706 C   0  0  0  0  0  0  0  0  0  0  0  0
  -31.5209  -17.8721   17.8320 C   0  0  0  0  0  0  0  0  0  0  0  0
  -28.2234  -12.2046   20.2046 C   0  0  0  0  0  0  0  0  0  0  0  0
  -23.4432  -15.9415   21.0943 C   0  0  0  0  0  0  0  0  0  0  0  0
  -27.0605   -9.9447   20.4233 C   0  0  0  0  0  0  0  0  0  0  0  0
  -22.5149  -23.3296   22.2312 C   0  0  0  0  0  0  0  0  0  0  0  0
  -24.0652  -28.8534   13.6635 C   0  0  0  0  0  0  0  0  0  0  0  0
  -25.5966  -29.2932   20.1491 C   0  0  0  0  0  0  0  0  0  0  0  0
  -23.8606  -28.4806   15.0057 C   0  0  0  0  0  0  0  0  0  0  0  0
  -23.4217  -18.3543   22.4944 C   0  0  0  0  0  0  0  0  0  0  0  0
  -25.6114  -28.1643   20.9810 C   0  0  0  0  0  0  0  0  0  0  0  0
  -20.9345  -25.0919   21.7476 C   0  0  0  0  0  0  0  0  0  0  0  0
  -22.5804  -17.3130   22.8863 C   0  0  0  0  0  0  0  0  0  0  0  0
  -30.4394  -13.8549   19.8195 C   0  0  0  0  0  0  0  0  0  0  0  0
  -23.8567  -29.1563   22.3396 C   0  0  0  0  0  0  0  0  0  0  0  0
  -31.2864  -15.9917   19.3306 C   0  0  0  0  0  0  0  0  0  0  0  0
  -30.8120  -18.6737   18.7267 C   0  0  0  0  0  0  0  0  0  0  0  0
  -31.7581  -16.5311   18.1339 C   0  0  0  0  0  0  0  0  0  0  0  0
  -27.0787  -11.3521   20.4026 C   0  0  0  0  0  0  0  0  0  0  0  0
  -25.7437   -9.6216   20.6430 C   0  0  0  0  0  0  0  0  0  0  0  0
  -23.4551  -14.6714   20.3577 C   0  0  0  0  0  0  0  0  0  0  0  0
  -28.1375   -9.0126   20.2587 C   0  0  0  0  0  0  0  0  0  0  0  0
  -26.0813  -27.2835   17.7054 C   0  0  0  0  0  0  0  0  0  0  0  0
  -28.6434  -26.3905   19.6267 C   0  0  0  0  0  0  0  0  0  0  0  0
  -29.9579  -24.6724   16.9885 C   0  0  0  0  0  0  0  0  0  0  0  0
  -25.0452  -28.1249   12.7783 C   0  0  0  0  0  0  0  0  0  0  0  0
  -26.5472  -29.4024   18.9878 C   0  0  0  0  0  0  0  0  0  0  0  0
  -26.5305  -27.0017   20.7194 C   0  0  0  0  0  0  0  0  0  0  0  0
  -26.0638  -27.2928   13.5531 C   0  0  0  0  0  0  0  0  0  0  0  0
  -24.7849  -21.2938   24.6401 C   0  0  0  0  0  0  0  0  0  0  0  0
  -23.5156  -12.2917   23.1833 C   0  0  0  0  0  0  0  0  0  0  0  0
  -24.3420  -22.4520   23.7483 C   0  0  0  0  0  0  0  0  0  0  0  0
  -24.7942  -19.9688   23.8804 C   0  0  0  0  0  0  0  0  0  0  0  0
  -25.3701  -26.4729   14.6363 C   0  0  0  0  0  0  0  0  0  0  0  0
  -23.2502  -10.9647   22.4781 C   0  0  0  0  0  0  0  0  0  0  0  0
  -22.9813  -20.8428   22.3351 C   0  0  0  0  0  0  0  0  0  0  0  0
  -22.8014  -13.4385   22.4806 C   0  0  0  0  0  0  0  0  0  0  0  0
  -22.9680  -12.2534   20.3023 C   0  0  0  0  0  0  0  0  0  0  0  0
  -22.9715  -22.1762   23.1062 C   0  0  2  0  0  0  0  0  0  0  0  0
  -23.4267  -19.6775   23.2387 C   0  0  1  0  0  0  0  0  0  0  0  0
  -24.6740  -27.3825   15.6559 C   0  0  1  0  0  0  0  0  0  0  0  0
  -27.0869  -28.0551   18.5121 C   0  0  1  0  0  0  0  0  0  0  0  0
  -23.5893  -11.0145   20.9779 C   0  0  1  0  0  0  0  0  0  0  0  0
  -21.6595  -17.4676   24.0520 C   0  0  0  0  0  0  0  0  0  0  0  0
  -18.6213  -25.6877   20.9878 C   0  0  0  0  0  0  0  0  0  0  0  0
  -32.0300  -23.4548   16.2665 C   0  0  0  0  0  0  0  0  0  0  0  0
  -30.0565  -29.0591   19.1937 C   0  0  0  0  0  0  0  0  0  0  0  0
  -31.6408  -27.8890   17.6480 C   0  0  0  0  0  0  0  0  0  0  0  0
  -31.5271  -27.2266   20.0503 C   0  0  0  0  0  0  0  0  0  0  0  0
  -19.3718  -29.9032   24.0160 C   0  0  0  0  0  0  0  0  0  0  0  0
  -21.1160  -29.1611   25.6416 C   0  0  0  0  0  0  0  0  0  0  0  0
  -28.4827  -22.1306   16.6395 C   0  0  0  0  0  0  0  0  0  0  0  0
  -19.9188  -27.3558   22.3741 C   0  0  0  0  0  0  0  0  0  0  0  0
  -20.4702  -27.6134   23.7865 C   0  0  0  0  0  0  0  0  0  0  0  0
  -21.7681  -29.7784   23.2919 C   0  0  0  0  0  0  0  0  0  1  0  0
  -19.6684  -25.8558   22.0958 C   0  0  2  0  0  0  0  0  0  0  0  0
  -29.6254  -26.6090   18.5029 C   0  0  1  0  0  0  0  0  0  0  0  0
  -30.6580  -23.3277   16.9102 C   0  0  2  0  0  0  0  0  0  0  0  0
  -30.6844  -27.6951   18.8440 C   0  0  0  0  0  0  0  0  0  0  0  0
  -20.6817  -29.1084   24.1605 C   0  0  0  0  0  0  0  0  0  0  0  0
  -25.8696  -11.8864   20.5938 N   0  0  0  0  0  0  0  0  0  0  0  0
  -25.0792  -10.8089   20.7366 N   0  0  0  0  0  0  0  0  0  0  0  0
  -23.1514  -13.4965   21.0565 N   0  0  0  0  0  0  0  0  0  0  0  0
  -27.4948  -27.1923   19.6282 N   0  0  0  0  0  0  0  0  0  0  0  0
  -25.1011   -8.4405   20.7633 N   0  0  0  0  0  0  0  0  0  0  0  0
  -28.4403   -8.5630   18.9663 N   0  0  0  0  0  0  0  0  0  0  0  0
  -25.6406  -27.9444   16.5747 N   0  0  0  0  0  0  0  0  0  0  0  0
  -30.1903  -25.2998   18.1942 N   0  0  0  0  0  0  0  0  0  0  0  0
  -29.8488  -22.3684   16.1066 N   0  3  0  0  0  0  0  0  0  0  0  0
  -23.7504  -14.7394   19.1653 O   0  0  0  0  0  0  0  0  0  0  0  0
  -28.8007   -8.5784   21.2309 O   0  0  0  0  0  0  0  0  0  0  0  0
  -25.7322  -26.1702   18.0801 O   0  0  0  0  0  0  0  0  0  0  0  0
  -28.8893  -25.5385   20.4851 O   0  0  0  0  0  0  0  0  0  0  0  0
  -29.2762  -25.1229   16.0704 O   0  0  0  0  0  0  0  0  0  0  0  0
  -31.5203  -14.6604   19.6314 O   0  0  0  0  0  0  0  0  0  0  0  0
  -23.0103  -29.0849   23.4029 O   0  0  0  0  0  0  0  0  0  1  0  0
  -30.5828  -19.9610   18.4362 F   0  0  0  0  0  0  0  0  0  0  0  0
  -32.4389  -15.7658   17.2699 F   0  0  0  0  0  0  0  0  0  0  0  0
  1  2  1  0  0  0  0
  1  7  2  0  0  0  0
  2  8  2  0  0  0  0
  3  9  1  0  0  0  0
  3 12  2  0  0  0  0
  4 13  2  0  0  0  0
  4 22  1  0  0  0  0
  5 14  1  0  0  0  0
  5 22  2  0  0  0  0
  6 10  2  0  0  0  0
  6 23  1  0  0  0  0
  7 26  1  0  0  0  0
  8 28  1  0  0  0  0
  9 25  2  0  0  0  0
 10 29  1  0  0  0  0
 11 15  2  0  0  0  0
 11 27  1  0  0  0  0
 12 31  1  0  0  0  0
 13 33  1  0  0  0  0
 14 33  2  0  0  0  0
 15 34  1  0  0  0  0
 16 17  2  0  0  0  0
 16 35  1  0  0  0  0
 17 36  1  0  0  0  0
 18 23  2  0  0  0  0
 18 32  1  0  0  0  0
 19 25  1  0  0  0  0
 19 31  2  0  0  0  0
 20 30  1  0  0  0  0
 20 34  2  0  0  0  0
 21 36  2  0  0  0  0
 21 37  1  0  0  0  0
 22 38  1  0  0  0  0
 23 40  1  0  0  0  0
 24 38  1  0  0  0  0
 24 39  2  0  0  0  0
 24 41  1  0  0  0  0
 25 58  1  0  0  0  0
 26 28  2  0  0  0  0
 26 45  1  0  0  0  0
 27 30  2  0  0  0  0
 27 46  1  0  0  0  0
 28 60  1  0  0  0  0
 29 32  2  0  0  0  0
 29 59  1  0  0  0  0
 30 47  1  0  0  0  0
 31 75  1  0  0  0  0
 32 63  1  0  0  0  0
 33 94  1  0  0  0  0
 34 95  1  0  0  0  0
 35 37  2  0  0  0  0
 35 94  1  0  0  0  0
 36 96  1  0  0  0  0
 37 97  1  0  0  0  0
 38 80  2  0  0  0  0
 39 81  1  0  0  0  0
 39 84  1  0  0  0  0
 40 82  1  0  0  0  0
 40 89  2  0  0  0  0
 41 85  1  0  0  0  0
 41 90  2  0  0  0  0
 42 61  1  0  0  0  0
 42 86  1  0  0  0  0
 42 91  2  0  0  0  0
 43 76  1  0  0  0  0
 43 83  1  0  0  0  0
 43 92  2  0  0  0  0
 44 77  1  0  0  0  0
 44 87  1  0  0  0  0
 44 93  2  0  0  0  0
 45 48  1  0  0  0  0
 46 61  1  0  0  0  0
 47 83  1  0  0  0  0
 48 53  1  0  0  0  0
 49 51  1  0  0  0  0
 49 52  1  0  0  0  0
 50 54  1  0  0  0  0
 50 56  1  0  0  0  0
 51 58  1  0  0  0  0
 52 59  1  0  0  0  0
 53 60  1  0  0  0  0
 54 62  1  0  0  0  0
 55 58  1  0  0  0  0
 55 59  1  0  0  0  0
 56 82  1  0  0  0  0
 57 62  1  0  0  0  0
 57 82  1  0  0  0  0
 60 86  1  0  0  0  0
 61 83  1  0  0  0  0
 62 81  1  0  0  0  0
 64 75  1  0  0  0  0
 65 77  1  0  0  0  0
 66 78  1  0  0  0  0
 67 78  1  0  0  0  0
 68 78  1  0  0  0  0
 69 79  1  0  0  0  0
 70 79  1  0  0  0  0
 71 88  1  0  0  0  0
 72 73  1  0  0  0  0
 72 75  1  0  0  0  0
 73 79  1  0  0  0  0
 74 79  1  0  0  0  0
 74 95  1  0  0  0  0
 76 78  1  0  0  0  0
 76 87  1  0  0  0  0
 77 88  1  0  0  0  0
 80 81  1  0  0  0  0
M  CHG  1  88   1
M  ISO  4  23 100  40 100  74 101  95 101
M  END
> <Batch ID>
0133

> <Smiles>
CNC(C)C(=O)NC(C(=O)N1Cc2cc([101O:1][101CH2:1]C(C)(C)CCC(C)c3cccc(C4CCCC(c5cc[100c:0]([100C:0](=O)N6CCCC(n7nc(-c8ccc(Oc9ccc(F)cc9F)cc8)c(C(N)=O)c7N)C6)cc5C)C4)c3)ccc2CC1C(=O)NC1CCCc2ccccc21)C(C)(C)C

> <Shape>
0.235

> <Color>
0.087

> <Negative vol penalty>
0.000

$$$$

  -OEChem-04052302303D

 83 91  0     1  0  0  0  0  0999 V2000
  -30.2118  -35.3658   18.2633 C   0  0  0  0  0  0  0  0  0  0  0  0
  -29.9488  -34.0063   18.1295 C   0  0  0  0  0  0  0  0  0  0  0  0
  -24.6260   -8.5035   21.3056 C   0  0  0  0  0  0  0  0  0  0  0  0
  -23.3137  -10.5150   21.5677 C   0  0  0  0  0  0  0  0  0  0  0  0
  -29.9565  -36.0083   19.4741 C   0  0  0  0  0  0  0  0  0  0  0  0
  -29.4313  -33.2881   19.2069 C   0  0  0  0  0  0  0  0  0  0  0  0
  -25.4732  -28.6214   18.9597 C   0  0  0  0  0  0  0  0  0  0  0  0
  -26.4933  -19.0140   19.6925 C   0  0  0  0  0  0  0  0  0  0  0  0
  -25.3335  -19.7705   19.8598 C   0  0  0  0  0  0  0  0  0  0  0  0
  -23.8796   -7.8857   22.3089 C   0  0  0  0  0  0  0  0  0  0  0  0
  -22.5672   -9.8972   22.5710 C   0  0  0  0  0  0  0  0  0  0  0  0
  -25.6483  -27.2392   19.0115 C   0  0  0  0  0  0  0  0  0  0  0  0
  -20.8525   -6.4096   22.6108 C   0  0  0  0  0  0  0  0  0  0  0  0
  -20.4132   -5.1056   22.3822 C   0  0  0  0  0  0  0  0  0  0  0  0
  -25.1786  -27.2746   21.3774 C   0  0  0  0  0  0  0  0  0  0  0  0
  -26.6719  -18.7577   22.0882 C   0  0  0  0  0  0  0  0  0  0  0  0
  -21.6419   -4.3518   24.3211 C   0  0  0  0  0  0  0  0  0  0  0  0
  -24.3432   -9.8182   20.9350 C   0  0  0  0  0  0  0  0  0  0  0  0
  -24.8437  -10.4608   18.5176 C   0  0  0  0  0  0  0  0  0  0  0  0
  -29.4265  -35.2996   20.5639 C   0  0  0  0  0  0  0  0  0  0  0  0
  -25.1597  -29.3432   20.1203 C   0  0  0  0  0  0  0  0  0  0  0  0
  -29.1699  -33.9213   20.4339 C   0  0  0  0  0  0  0  0  0  0  0  0
  -24.9975  -28.6655   21.3371 C   0  0  0  0  0  0  0  0  0  0  0  0
  -27.1625  -18.5075   20.8067 C   0  0  0  0  0  0  0  0  0  0  0  0
  -24.8429  -20.0207   21.1414 C   0  0  0  0  0  0  0  0  0  0  0  0
  -25.5120  -19.5143   22.2556 C   0  0  0  0  0  0  0  0  0  0  0  0
  -22.8501   -8.5825   22.9416 C   0  0  0  0  0  0  0  0  0  0  0  0
  -25.5038  -26.5660   20.2210 C   0  0  0  0  0  0  0  0  0  0  0  0
  -21.6866   -6.6847   23.6945 C   0  0  0  0  0  0  0  0  0  0  0  0
  -20.8078   -4.0767   23.2374 C   0  0  0  0  0  0  0  0  0  0  0  0
  -22.0813   -5.6558   24.5496 C   0  0  0  0  0  0  0  0  0  0  0  0
  -25.1143  -10.4571   19.8991 C   0  0  0  0  0  0  0  0  0  0  0  0
  -25.8642  -11.1990   17.9698 C   0  0  0  0  0  0  0  0  0  0  0  0
  -23.7661   -9.8515   17.7941 C   0  0  0  0  0  0  0  0  0  0  0  0
  -26.5810  -31.6532   21.7778 C   0  0  0  0  0  0  0  0  0  0  0  0
  -29.4354  -15.4432   20.2816 C   0  0  0  0  0  0  0  0  0  0  0  0
  -23.8099  -31.6144   23.4636 C   0  0  0  0  0  0  0  0  0  0  0  0
  -21.0431  -29.8772   24.4503 C   0  0  0  0  0  0  0  0  0  0  0  0
  -29.2114  -36.0271   21.8674 C   0  0  0  0  0  0  0  0  0  0  0  0
  -24.9478  -30.8303   20.0425 C   0  0  0  0  0  0  0  0  0  0  0  0
  -24.6415  -29.3914   22.6078 C   0  0  0  0  0  0  0  0  0  0  0  0
  -28.3116  -35.2740   22.8439 C   0  0  0  0  0  0  0  0  0  0  0  0
  -30.4334  -12.3945   18.6850 C   0  0  0  0  0  0  0  0  0  0  0  0
  -28.7269  -33.8089   22.9312 C   0  0  0  0  0  0  0  0  0  0  0  0
  -29.1657  -11.5417   18.7153 C   0  0  0  0  0  0  0  0  0  0  0  0
  -30.5512  -13.2643   19.9326 C   0  0  0  0  0  0  0  0  0  0  0  0
  -28.0929  -13.2836   20.2120 C   0  0  0  0  0  0  0  0  0  0  0  0
  -28.5852  -33.1133   21.5720 C   0  0  1  0  0  0  0  0  0  0  0  0
  -25.1361  -31.5317   21.3842 C   0  0  1  0  0  0  0  0  0  0  0  0
  -27.9195  -12.4122   18.9554 C   0  0  2  0  0  0  0  0  0  0  0  0
  -25.0056  -19.7695   23.6373 C   0  0  0  0  0  0  0  0  0  0  0  0
  -18.9773  -30.0971   25.8579 C   0  0  0  0  0  0  0  0  0  0  0  0
  -25.4944  -31.2728   25.9847 C   0  0  0  0  0  0  0  0  0  0  0  0
  -23.4200  -30.5560   27.1895 C   0  0  0  0  0  0  0  0  0  0  0  0
  -23.5687  -32.8507   26.2225 C   0  0  0  0  0  0  0  0  0  0  0  0
  -19.2694  -29.4515   22.1198 C   0  0  0  0  0  0  0  0  0  0  0  0
  -28.4028  -17.6991   20.6275 C   0  0  0  0  0  0  0  0  0  0  0  0
  -23.5879  -20.8421   21.2972 C   0  0  0  0  0  0  0  0  0  0  0  0
  -28.1436  -16.1938   20.4860 C   0  0  0  0  0  0  0  0  0  0  0  0
  -23.8434  -22.2817   21.7571 C   0  0  0  0  0  0  0  0  0  0  0  0
  -24.6589  -23.0957   20.7515 C   0  0  0  0  0  0  0  0  0  0  0  0
  -24.9262  -24.5060   21.2597 C   0  0  0  0  0  0  0  0  0  1  0  0
  -23.3062  -30.8683   24.6755 C   0  0  1  0  0  0  0  0  0  0  0  0
  -19.5719  -30.2510   24.4667 C   0  0  2  0  0  0  0  0  0  0  0  0
  -23.9559  -31.3732   25.9947 C   0  0  0  0  0  0  0  0  0  0  0  0
  -26.2202  -11.1387   20.2097 N   0  0  0  0  0  0  0  0  0  0  0  0
  -26.6535  -11.5775   19.0157 N   0  0  0  0  0  0  0  0  0  0  0  0
  -24.4508  -30.8458   22.4816 N   0  0  0  0  0  0  0  0  0  0  0  0
  -29.3390  -14.0590   20.1381 N   0  0  0  0  0  0  0  0  0  0  0  0
  -26.1545  -11.5546   16.7003 N   0  0  0  0  0  0  0  0  0  0  0  0
  -22.8035   -9.1290   18.5123 N   0  0  0  0  0  0  0  0  0  0  0  0
  -27.1977  -32.7972   21.3083 N   0  0  0  0  0  0  0  0  0  0  0  0
  -21.8516  -30.9769   24.6461 N   0  0  0  0  0  0  0  0  0  0  0  0
  -18.8061  -29.3813   23.5295 N   0  3  0  0  0  0  0  0  0  0  0  0
  -23.6691   -9.9312   16.5461 O   0  0  0  0  0  0  0  0  0  0  0  0
  -27.0978  -30.7749   22.4585 O   0  0  0  0  0  0  0  0  0  0  0  0
  -30.4973  -16.0706   20.2477 O   0  0  0  0  0  0  0  0  0  0  0  0
  -23.6348  -32.8331   23.3877 O   0  0  0  0  0  0  0  0  0  0  0  0
  -21.4357  -28.7245   24.2844 O   0  0  0  0  0  0  0  0  0  0  0  0
  -22.1213   -7.9799   23.9206 O   0  0  0  0  0  0  0  0  0  0  0  0
  -25.6748  -25.2170   20.2746 O   0  0  0  0  0  0  0  0  0  1  0  0
  -20.3846   -2.8249   23.0186 F   0  0  0  0  0  0  0  0  0  0  0  0
  -22.8815   -5.9141   25.5931 F   0  0  0  0  0  0  0  0  0  0  0  0
  1  2  1  0  0  0  0
  1  5  2  0  0  0  0
  2  6  2  0  0  0  0
  3 10  2  0  0  0  0
  3 18  1  0  0  0  0
  4 11  1  0  0  0  0
  4 18  2  0  0  0  0
  5 20  1  0  0  0  0
  6 22  1  0  0  0  0
  7 12  2  0  0  0  0
  7 21  1  0  0  0  0
  8  9  2  0  0  0  0
  8 24  1  0  0  0  0
  9 25  1  0  0  0  0
 10 27  1  0  0  0  0
 11 27  2  0  0  0  0
 12 28  1  0  0  0  0
 13 14  2  0  0  0  0
 13 29  1  0  0  0  0
 14 30  1  0  0  0  0
 15 23  1  0  0  0  0
 15 28  2  0  0  0  0
 16 24  2  0  0  0  0
 16 26  1  0  0  0  0
 17 30  2  0  0  0  0
 17 31  1  0  0  0  0
 18 32  1  0  0  0  0
 19 32  1  0  0  0  0
 19 33  2  0  0  0  0
 19 34  1  0  0  0  0
 20 22  2  0  0  0  0
 20 39  1  0  0  0  0
 21 23  2  0  0  0  0
 21 40  1  0  0  0  0
 22 48  1  0  0  0  0
 23 41  1  0  0  0  0
 24 57  1  0  0  0  0
 25 26  2  0  0  0  0
 25 58  1  0  0  0  0
 26 51  1  0  0  0  0
 27 80  1  0  0  0  0
 28 81  1  0  0  0  0
 29 31  2  0  0  0  0
 29 80  1  0  0  0  0
 30 82  1  0  0  0  0
 31 83  1  0  0  0  0
 32 66  2  0  0  0  0
 33 67  1  0  0  0  0
 33 70  1  0  0  0  0
 34 71  1  0  0  0  0
 34 75  2  0  0  0  0
 35 49  1  0  0  0  0
 35 72  1  0  0  0  0
 35 76  2  0  0  0  0
 36 59  1  0  0  0  0
 36 69  1  0  0  0  0
 36 77  2  0  0  0  0
 37 63  1  0  0  0  0
 37 68  1  0  0  0  0
 37 78  2  0  0  0  0
 38 64  1  0  0  0  0
 38 73  1  0  0  0  0
 38 79  2  0  0  0  0
 39 42  1  0  0  0  0
 40 49  1  0  0  0  0
 41 68  1  0  0  0  0
 42 44  1  0  0  0  0
 43 45  1  0  0  0  0
 43 46  1  0  0  0  0
 44 48  1  0  0  0  0
 45 50  1  0  0  0  0
 46 69  1  0  0  0  0
 47 50  1  0  0  0  0
 47 69  1  0  0  0  0
 48 72  1  0  0  0  0
 49 68  1  0  0  0  0
 50 67  1  0  0  0  0
 52 64  1  0  0  0  0
 53 65  1  0  0  0  0
 54 65  1  0  0  0  0
 55 65  1  0  0  0  0
 56 74  1  0  0  0  0
 57 59  1  0  0  0  0
 58 60  1  0  0  0  0
 60 61  1  0  0  0  0
 61 62  1  0  0  0  0
 62 81  1  0  0  0  0
 63 65  1  0  0  0  0
 63 73  1  0  0  0  0
 64 74  1  0  0  0  0
 66 67  1  0  0  0  0
M  CHG  1  74   1
M  ISO  4  36 100  59 100  62 101  81 101
M  END
> <Batch ID>
0133

> <Smiles>
CNC(C)C(=O)NC(C(=O)N1Cc2cc([101O:1][101CH2:1]CCCc3ccc(C[100CH2:0][100C:0](=O)N4CCCC(n5nc(-c6ccc(Oc7ccc(F)cc7F)cc6)c(C(N)=O)c5N)C4)cc3C)ccc2CC1C(=O)NC1CCCc2ccccc21)C(C)(C)C

> <Shape>
0.239

> <Color>
0.101

> <Negative vol penalty>
0.000

$$$$

  -OEChem-04052302303D

 85 93  0     1  0  0  0  0  0999 V2000
  -24.5570  -20.3928   16.0571 C   0  0  0  0  0  0  0  0  0  0  0  0
  -24.0491  -21.5334   16.6705 C   0  0  0  0  0  0  0  0  0  0  0  0
  -25.5033  -14.1575   20.9380 C   0  0  0  0  0  0  0  0  0  0  0  0
  -23.1695  -13.7873   21.4416 C   0  0  0  0  0  0  0  0  0  0  0  0
  -25.7488  -19.8300   16.5119 C   0  0  0  0  0  0  0  0  0  0  0  0
  -24.7322  -22.1115   17.7399 C   0  0  0  0  0  0  0  0  0  0  0  0
  -25.1251  -28.0778   19.0643 C   0  0  0  0  0  0  0  0  0  0  0  0
  -25.7842  -12.8308   21.2644 C   0  0  0  0  0  0  0  0  0  0  0  0
  -23.4504  -12.4606   21.7680 C   0  0  0  0  0  0  0  0  0  0  0  0
  -24.4331  -28.8862   19.9651 C   0  0  0  0  0  0  0  0  0  0  0  0
  -24.0181   -9.5605   20.1286 C   0  0  0  0  0  0  0  0  0  0  0  0
  -23.1627   -8.5773   19.6314 C   0  0  0  0  0  0  0  0  0  0  0  0
  -26.2054  -28.5978   21.5761 C   0  0  0  0  0  0  0  0  0  0  0  0
  -19.0267  -26.5412   22.0494 C   0  0  0  0  0  0  0  0  0  0  0  0
  -20.4747  -27.7338   23.5719 C   0  0  0  0  0  0  0  0  0  0  0  0
  -22.6359   -7.8943   21.8882 C   0  0  0  0  0  0  0  0  0  0  0  0
  -24.1960  -14.6358   21.0267 C   0  0  0  0  0  0  0  0  0  0  0  0
  -23.5516  -16.5147   19.4259 C   0  0  0  0  0  0  0  0  0  0  0  0
  -26.4518  -20.4070   17.5813 C   0  0  0  0  0  0  0  0  0  0  0  0
  -26.3594  -27.5135   19.4173 C   0  0  0  0  0  0  0  0  0  0  0  0
  -25.9338  -21.5552   18.2104 C   0  0  0  0  0  0  0  0  0  0  0  0
  -26.9122  -27.7847   20.6770 C   0  0  0  0  0  0  0  0  0  0  0  0
  -18.7040  -27.7414   21.4161 C   0  0  0  0  0  0  0  0  0  0  0  0
  -20.1520  -28.9340   22.9387 C   0  0  0  0  0  0  0  0  0  0  0  0
  -19.2667  -28.9378   21.8607 C   0  0  0  0  0  0  0  0  0  0  0  0
  -24.7578  -11.9823   21.6794 C   0  0  0  0  0  0  0  0  0  0  0  0
  -24.9719  -29.1440   21.2223 C   0  0  0  0  0  0  0  0  0  0  0  0
  -24.1825   -9.7105   21.5056 C   0  0  0  0  0  0  0  0  0  0  0  0
  -19.9120  -26.5374   23.1273 C   0  0  0  0  0  0  0  0  0  0  0  0
  -22.4716   -7.7442   20.5112 C   0  0  0  0  0  0  0  0  0  0  0  0
  -23.4914   -8.8775   22.3854 C   0  0  0  0  0  0  0  0  0  0  0  0
  -23.9053  -16.0063   20.6902 C   0  0  0  0  0  0  0  0  0  0  0  0
  -23.3817  -17.8618   19.6328 C   0  0  0  0  0  0  0  0  0  0  0  0
  -23.3910  -15.8303   18.1763 C   0  0  0  0  0  0  0  0  0  0  0  0
  -27.4578  -24.5492   19.7486 C   0  0  0  0  0  0  0  0  0  0  0  0
  -21.2405  -21.9567   22.6203 C   0  0  0  0  0  0  0  0  0  0  0  0
  -30.2926  -26.0646   20.1842 C   0  0  0  0  0  0  0  0  0  0  0  0
  -31.9487  -28.9081   21.0891 C   0  0  0  0  0  0  0  0  0  0  0  0
  -27.7114  -19.7356   18.0684 C   0  0  0  0  0  0  0  0  0  0  0  0
  -27.1059  -26.6654   18.4244 C   0  0  0  0  0  0  0  0  0  0  0  0
  -28.2436  -27.2195   21.0971 C   0  0  0  0  0  0  0  0  0  0  0  0
  -28.5685  -20.6257   18.9649 C   0  0  0  0  0  0  0  0  0  0  0  0
  -24.5333  -20.7647   23.6018 C   0  0  0  0  0  0  0  0  0  0  0  0
  -27.7039  -21.3164   20.0147 C   0  0  0  0  0  0  0  0  0  0  0  0
  -24.6173  -19.4403   22.8442 C   0  0  0  0  0  0  0  0  0  0  0  0
  -23.1120  -21.0481   24.0810 C   0  0  0  0  0  0  0  0  0  0  0  0
  -22.1740  -19.6988   22.2307 C   0  0  0  0  0  0  0  0  0  0  0  0
  -26.6586  -22.2256   19.3572 C   0  0  1  0  0  0  0  0  0  0  0  0
  -28.1123  -25.7246   19.0795 C   0  0  1  0  0  0  0  0  0  0  0  0
  -23.5855  -19.3904   21.7038 C   0  0  2  0  0  0  0  0  0  0  0  0
  -17.7544  -27.7171   20.2634 C   0  0  0  0  0  0  0  0  0  0  0  0
  -17.9233  -31.0510   21.9871 C   0  0  0  0  0  0  0  0  0  0  0  0
  -34.2639  -29.8308   21.3817 C   0  0  0  0  0  0  0  0  0  0  0  0
  -30.5791  -24.5115   22.7949 C   0  0  0  0  0  0  0  0  0  0  0  0
  -32.3632  -26.1287   23.4801 C   0  0  0  0  0  0  0  0  0  0  0  0
  -32.6843  -24.7030   21.4586 C   0  0  0  0  0  0  0  0  0  0  0  0
  -31.4996  -30.9983   19.0426 C   0  0  0  0  0  0  0  0  0  0  0  0
  -20.7720  -30.2140   23.4396 C   0  0  0  0  0  0  0  0  0  0  0  0
  -18.9200  -30.2247   21.1817 C   0  0  0  0  0  0  0  0  0  0  0  0
  -21.2494  -23.2106   23.4579 C   0  0  0  0  0  0  0  0  0  0  0  0
  -22.3018  -30.2124   23.4045 C   0  0  0  0  0  0  0  0  0  0  0  0
  -20.2007  -24.1836   22.9487 C   0  0  0  0  0  0  0  0  0  0  0  0
  -22.8737  -29.9294   22.0201 C   0  0  0  0  0  0  0  0  0  1  0  0
  -31.0367  -26.6188   21.3751 C   0  0  1  0  0  0  0  0  0  0  0  0
  -33.0896  -29.6622   20.4303 C   0  0  2  0  0  0  0  0  0  0  0  0
  -31.6398  -25.4997   22.2703 C   0  0  0  0  0  0  0  0  0  0  0  0
  -23.9574  -16.9535   21.6306 N   0  0  0  0  0  0  0  0  0  0  0  0
  -23.6344  -18.0704   20.9567 N   0  0  0  0  0  0  0  0  0  0  0  0
  -28.9321  -26.3911   20.0935 N   0  0  0  0  0  0  0  0  0  0  0  0
  -22.1560  -20.9640   22.9704 N   0  0  0  0  0  0  0  0  0  0  0  0
  -23.0423  -18.8764   18.8095 N   0  0  0  0  0  0  0  0  0  0  0  0
  -23.6037  -14.4454   18.1408 N   0  0  0  0  0  0  0  0  0  0  0  0
  -27.2692  -23.4617   18.9172 N   0  0  0  0  0  0  0  0  0  0  0  0
  -32.0218  -27.5535   20.8421 N   0  0  0  0  0  0  0  0  0  0  0  0
  -32.6359  -31.0148   19.9994 N   0  3  0  0  0  0  0  0  0  0  0  0
  -23.0843  -16.4316   17.1190 O   0  0  0  0  0  0  0  0  0  0  0  0
  -27.1483  -24.6228   20.9320 O   0  0  0  0  0  0  0  0  0  0  0  0
  -20.4449  -21.8653   21.6818 O   0  0  0  0  0  0  0  0  0  0  0  0
  -30.8979  -25.3736   19.3610 O   0  0  0  0  0  0  0  0  0  0  0  0
  -31.0816  -29.4645   21.7593 O   0  0  0  0  0  0  0  0  0  0  0  0
  -25.0315  -10.6876   21.9977 O   0  0  0  0  0  0  0  0  0  0  0  0
  -24.2982  -29.9322   22.1036 O   0  0  0  0  0  0  0  0  0  1  0  0
  -20.2249  -25.3664   23.7463 O   0  0  0  0  0  0  0  0  0  0  0  0
  -21.6490   -6.8011   20.0336 F   0  0  0  0  0  0  0  0  0  0  0  0
  -23.6443   -9.0176   23.7093 F   0  0  0  0  0  0  0  0  0  0  0  0
  1  2  1  0  0  0  0
  1  5  2  0  0  0  0
  2  6  2  0  0  0  0
  3  8  2  0  0  0  0
  3 17  1  0  0  0  0
  4  9  1  0  0  0  0
  4 17  2  0  0  0  0
  5 19  1  0  0  0  0
  6 21  1  0  0  0  0
  7 10  2  0  0  0  0
  7 20  1  0  0  0  0
  8 26  1  0  0  0  0
  9 26  2  0  0  0  0
 10 27  1  0  0  0  0
 11 12  2  0  0  0  0
 11 28  1  0  0  0  0
 12 30  1  0  0  0  0
 13 22  1  0  0  0  0
 13 27  2  0  0  0  0
 14 23  2  0  0  0  0
 14 29  1  0  0  0  0
 15 24  1  0  0  0  0
 15 29  2  0  0  0  0
 16 30  2  0  0  0  0
 16 31  1  0  0  0  0
 17 32  1  0  0  0  0
 18 32  1  0  0  0  0
 18 33  2  0  0  0  0
 18 34  1  0  0  0  0
 19 21  2  0  0  0  0
 19 39  1  0  0  0  0
 20 22  2  0  0  0  0
 20 40  1  0  0  0  0
 21 48  1  0  0  0  0
 22 41  1  0  0  0  0
 23 25  1  0  0  0  0
 23 51  1  0  0  0  0
 24 25  2  0  0  0  0
 24 58  1  0  0  0  0
 25 59  1  0  0  0  0
 26 81  1  0  0  0  0
 27 82  1  0  0  0  0
 28 31  2  0  0  0  0
 28 81  1  0  0  0  0
 29 83  1  0  0  0  0
 30 84  1  0  0  0  0
 31 85  1  0  0  0  0
 32 67  2  0  0  0  0
 33 68  1  0  0  0  0
 33 71  1  0  0  0  0
 34 72  1  0  0  0  0
 34 76  2  0  0  0  0
 35 49  1  0  0  0  0
 35 73  1  0  0  0  0
 35 77  2  0  0  0  0
 36 60  1  0  0  0  0
 36 70  1  0  0  0  0
 36 78  2  0  0  0  0
 37 64  1  0  0  0  0
 37 69  1  0  0  0  0
 37 79  2  0  0  0  0
 38 65  1  0  0  0  0
 38 74  1  0  0  0  0
 38 80  2  0  0  0  0
 39 42  1  0  0  0  0
 40 49  1  0  0  0  0
 41 69  1  0  0  0  0
 42 44  1  0  0  0  0
 43 45  1  0  0  0  0
 43 46  1  0  0  0  0
 44 48  1  0  0  0  0
 45 50  1  0  0  0  0
 46 70  1  0  0  0  0
 47 50  1  0  0  0  0
 47 70  1  0  0  0  0
 48 73  1  0  0  0  0
 49 69  1  0  0  0  0
 50 68  1  0  0  0  0
 52 59  1  0  0  0  0
 53 65  1  0  0  0  0
 54 66  1  0  0  0  0
 55 66  1  0  0  0  0
 56 66  1  0  0  0  0
 57 75  1  0  0  0  0
 58 61  1  0  0  0  0
 60 62  1  0  0  0  0
 61 63  1  0  0  0  0
 62 83  1  0  0  0  0
 63 82  1  0  0  0  0
 64 66  1  0  0  0  0
 64 74  1  0  0  0  0
 65 75  1  0  0  0  0
 67 68  1  0  0  0  0
M  CHG  1  75   1
M  ISO  4  36 100  60 100  63 101  82 101
M  END
> <Batch ID>
0133

> <Smiles>
CCc1c(C)cc(OC[100CH2:0][100C:0](=O)N2CCCC(n3nc(-c4ccc(Oc5ccc(F)cc5F)cc4)c(C(N)=O)c3N)C2)cc1CC[101CH2:1][101O:1]c1ccc2c(c1)CN(C(=O)C(NC(=O)C(C)NC)C(C)(C)C)C(C(=O)NC1CCCc3ccccc31)C2

> <Shape>
0.210

> <Color>
0.074

> <Negative vol penalty>
0.000

$$$$

  -OEChem-04052302303D

 86 94  0     1  0  0  0  0  0999 V2000
  -23.0686   -7.2810   20.9366 C   0  0  0  0  0  0  0  0  0  0  0  0
  -22.2416   -8.1093   20.1847 C   0  0  0  0  0  0  0  0  0  0  0  0
  -29.3861  -28.7898   19.7195 C   0  0  0  0  0  0  0  0  0  0  0  0
  -27.6913  -27.2201   19.0120 C   0  0  0  0  0  0  0  0  0  0  0  0
  -23.8820   -7.8256   21.9294 C   0  0  0  0  0  0  0  0  0  0  0  0
  -22.2268   -9.4826   20.4258 C   0  0  0  0  0  0  0  0  0  0  0  0
  -21.3984  -15.7378   17.0343 C   0  0  0  0  0  0  0  0  0  0  0  0
  -30.3233  -27.7578   19.7645 C   0  0  0  0  0  0  0  0  0  0  0  0
  -28.6286  -26.1880   19.0569 C   0  0  0  0  0  0  0  0  0  0  0  0
  -20.6530  -16.9136   17.1100 C   0  0  0  0  0  0  0  0  0  0  0  0
  -31.1464  -25.0261   17.1253 C   0  0  0  0  0  0  0  0  0  0  0  0
  -31.1761  -24.1326   16.0546 C   0  0  0  0  0  0  0  0  0  0  0  0
  -22.1594  -17.7527   18.7970 C   0  0  0  0  0  0  0  0  0  0  0  0
  -18.3069  -26.9626   23.1086 C   0  0  0  0  0  0  0  0  0  0  0  0
  -19.6448  -28.8779   23.7239 C   0  0  0  0  0  0  0  0  0  0  0  0
  -30.6903  -22.3090   17.5631 C   0  0  0  0  0  0  0  0  0  0  0  0
  -28.0701  -28.5210   19.3433 C   0  0  0  0  0  0  0  0  0  0  0  0
  -26.7963  -30.4112   18.1977 C   0  0  0  0  0  0  0  0  0  0  0  0
  -23.8844   -9.2075   22.1763 C   0  0  0  0  0  0  0  0  0  0  0  0
  -22.5254  -15.5558   17.8486 C   0  0  0  0  0  0  0  0  0  0  0  0
  -23.0400  -10.0461   21.4237 C   0  0  0  0  0  0  0  0  0  0  0  0
  -22.9188  -16.5747   18.7279 C   0  0  0  0  0  0  0  0  0  0  0  0
  -18.9733  -26.8902   21.8853 C   0  0  0  0  0  0  0  0  0  0  0  0
  -19.9754  -27.8116   21.5814 C   0  0  0  0  0  0  0  0  0  0  0  0
  -20.3111  -28.8055   22.5007 C   0  0  0  0  0  0  0  0  0  0  0  0
  -29.9446  -26.4568   19.4332 C   0  0  0  0  0  0  0  0  0  0  0  0
  -21.0318  -17.9201   17.9935 C   0  0  0  0  0  0  0  0  0  0  0  0
  -30.8888  -24.5611   18.4149 C   0  0  0  0  0  0  0  0  0  0  0  0
  -30.9480  -22.7741   16.2735 C   0  0  0  0  0  0  0  0  0  0  0  0
  -18.6427  -27.9565   24.0279 C   0  0  0  0  0  0  0  0  0  0  0  0
  -30.6607  -23.2025   18.6338 C   0  0  0  0  0  0  0  0  0  0  0  0
  -27.1014  -29.5866   19.2972 C   0  0  0  0  0  0  0  0  0  0  0  0
  -25.8184  -31.2560   18.6630 C   0  0  0  0  0  0  0  0  0  0  0  0
  -27.3476  -30.4133   16.8742 C   0  0  0  0  0  0  0  0  0  0  0  0
  -23.3373  -13.4931   20.1266 C   0  0  0  0  0  0  0  0  0  0  0  0
  -26.1929  -15.0218   19.9514 C   0  0  0  0  0  0  0  0  0  0  0  0
  -27.9218  -17.8448   19.1214 C   0  0  0  0  0  0  0  0  0  0  0  0
  -21.7635  -30.7953   23.0277 C   0  0  0  0  0  0  0  0  0  0  0  0
  -24.7458   -9.7441   23.2919 C   0  0  0  0  0  0  0  0  0  0  0  0
  -23.3342  -14.2927   17.7357 C   0  0  0  0  0  0  0  0  0  0  0  0
  -24.1324  -16.4370   19.6091 C   0  0  0  0  0  0  0  0  0  0  0  0
  -24.9488  -11.2559   23.2315 C   0  0  0  0  0  0  0  0  0  0  0  0
  -24.2562  -33.3157   22.6943 C   0  0  0  0  0  0  0  0  0  0  0  0
  -23.6203  -11.9634   22.9835 C   0  0  0  0  0  0  0  0  0  0  0  0
  -25.2378  -32.7230   21.6806 C   0  0  0  0  0  0  0  0  0  0  0  0
  -23.6895  -32.2466   23.6269 C   0  0  0  0  0  0  0  0  0  0  0  0
  -24.0740  -30.4945   21.9383 C   0  0  0  0  0  0  0  0  0  0  0  0
  -23.0143  -11.5438   21.6388 C   0  0  1  0  0  0  0  0  0  0  0  0
  -24.1658  -14.0024   18.9813 C   0  0  1  0  0  0  0  0  0  0  0  0
  -24.6219  -31.5228   20.9352 C   0  0  2  0  0  0  0  0  0  0  0  0
  -20.2002  -28.7862   19.2822 C   0  0  0  0  0  0  0  0  0  0  0  0
  -30.2386  -18.8090   19.1269 C   0  0  0  0  0  0  0  0  0  0  0  0
  -25.9975  -15.4676   22.9635 C   0  0  0  0  0  0  0  0  0  0  0  0
  -27.7891  -17.2037   22.7525 C   0  0  0  0  0  0  0  0  0  0  0  0
  -28.2750  -14.8327   22.1485 C   0  0  0  0  0  0  0  0  0  0  0  0
  -27.9201  -18.1667   16.1794 C   0  0  0  0  0  0  0  0  0  0  0  0
  -18.5919  -25.8046   20.9105 C   0  0  0  0  0  0  0  0  0  0  0  0
  -20.6879  -27.7302   20.2676 C   0  0  0  0  0  0  0  0  0  0  0  0
  -19.5627  -24.6184   20.8934 C   0  0  0  0  0  0  0  0  0  0  0  0
  -19.1651  -23.5327   19.8871 C   0  0  0  0  0  0  0  0  0  0  0  0
  -20.1781  -22.3849   19.8842 C   0  0  0  0  0  0  0  0  0  0  0  0
  -19.7928  -21.2405   18.9463 C   0  0  0  0  0  0  0  0  0  0  0  0
  -20.7508  -20.0579   18.9969 C   0  0  0  0  0  0  0  0  0  1  0  0
  -26.8063  -16.2224   20.6307 C   0  0  1  0  0  0  0  0  0  0  0  0
  -29.1969  -18.0468   18.3228 C   0  0  2  0  0  0  0  0  0  0  0  0
  -27.1930  -15.9337   22.1087 C   0  0  0  0  0  0  0  0  0  0  0  0
  -26.3761  -29.8811   20.3795 N   0  0  0  0  0  0  0  0  0  0  0  0
  -25.6057  -30.9002   19.9623 N   0  0  0  0  0  0  0  0  0  0  0  0
  -24.8869  -15.1808   19.4667 N   0  0  0  0  0  0  0  0  0  0  0  0
  -23.1194  -31.1434   22.8506 N   0  0  0  0  0  0  0  0  0  0  0  0
  -25.1284  -32.2611   18.0833 N   0  0  0  0  0  0  0  0  0  0  0  0
  -28.3444  -29.4780   16.5641 N   0  0  0  0  0  0  0  0  0  0  0  0
  -21.3247  -29.7527   22.2122 N   0  0  0  0  0  0  0  0  0  0  0  0
  -23.6820  -12.2235   20.5495 N   0  0  0  0  0  0  0  0  0  0  0  0
  -27.9242  -16.6395   19.7912 N   0  0  0  0  0  0  0  0  0  0  0  0
  -28.9118  -18.8132   17.0769 N   0  3  0  0  0  0  0  0  0  0  0  0
  -26.9792  -31.2313   15.9974 O   0  0  0  0  0  0  0  0  0  0  0  0
  -22.4519  -14.2002   20.5932 O   0  0  0  0  0  0  0  0  0  0  0  0
  -26.8510  -13.9836   19.8480 O   0  0  0  0  0  0  0  0  0  0  0  0
  -27.0160  -18.6749   19.1512 O   0  0  0  0  0  0  0  0  0  0  0  0
  -21.0376  -31.3970   23.8232 O   0  0  0  0  0  0  0  0  0  0  0  0
  -30.8589  -25.4495   19.4767 O   0  0  0  0  0  0  0  0  0  0  0  0
  -20.3057  -19.0685   18.0699 O   0  0  0  0  0  0  0  0  0  1  0  0
  -30.9749  -21.9164   15.2450 F   0  0  0  0  0  0  0  0  0  0  0  0
  -18.0014  -28.0275   25.2017 F   0  0  0  0  0  0  0  0  0  0  0  0
  -30.4115  -22.7500   19.8703 F   0  0  0  0  0  0  0  0  0  0  0  0
  1  2  1  0  0  0  0
  1  5  2  0  0  0  0
  2  6  2  0  0  0  0
  3  8  2  0  0  0  0
  3 17  1  0  0  0  0
  4  9  1  0  0  0  0
  4 17  2  0  0  0  0
  5 19  1  0  0  0  0
  6 21  1  0  0  0  0
  7 10  2  0  0  0  0
  7 20  1  0  0  0  0
  8 26  1  0  0  0  0
  9 26  2  0  0  0  0
 10 27  1  0  0  0  0
 11 12  2  0  0  0  0
 11 28  1  0  0  0  0
 12 29  1  0  0  0  0
 13 22  1  0  0  0  0
 13 27  2  0  0  0  0
 14 23  2  0  0  0  0
 14 30  1  0  0  0  0
 15 25  1  0  0  0  0
 15 30  2  0  0  0  0
 16 29  2  0  0  0  0
 16 31  1  0  0  0  0
 17 32  1  0  0  0  0
 18 32  1  0  0  0  0
 18 33  2  0  0  0  0
 18 34  1  0  0  0  0
 19 21  2  0  0  0  0
 19 39  1  0  0  0  0
 20 22  2  0  0  0  0
 20 40  1  0  0  0  0
 21 48  1  0  0  0  0
 22 41  1  0  0  0  0
 23 24  1  0  0  0  0
 23 57  1  0  0  0  0
 24 25  2  0  0  0  0
 24 58  1  0  0  0  0
 25 73  1  0  0  0  0
 26 82  1  0  0  0  0
 27 83  1  0  0  0  0
 28 31  2  0  0  0  0
 28 82  1  0  0  0  0
 29 84  1  0  0  0  0
 30 85  1  0  0  0  0
 31 86  1  0  0  0  0
 32 67  2  0  0  0  0
 33 68  1  0  0  0  0
 33 71  1  0  0  0  0
 34 72  1  0  0  0  0
 34 77  2  0  0  0  0
 35 49  1  0  0  0  0
 35 74  1  0  0  0  0
 35 78  2  0  0  0  0
 36 64  1  0  0  0  0
 36 69  1  0  0  0  0
 36 79  2  0  0  0  0
 37 65  1  0  0  0  0
 37 75  1  0  0  0  0
 37 80  2  0  0  0  0
 38 70  1  0  0  0  0
 38 73  1  0  0  0  0
 38 81  2  0  0  0  0
 39 42  1  0  0  0  0
 40 49  1  0  0  0  0
 41 69  1  0  0  0  0
 42 44  1  0  0  0  0
 43 45  1  0  0  0  0
 43 46  1  0  0  0  0
 44 48  1  0  0  0  0
 45 50  1  0  0  0  0
 46 70  1  0  0  0  0
 47 50  1  0  0  0  0
 47 70  1  0  0  0  0
 48 74  1  0  0  0  0
 49 69  1  0  0  0  0
 50 68  1  0  0  0  0
 51 58  1  0  0  0  0
 52 65  1  0  0  0  0
 53 66  1  0  0  0  0
 54 66  1  0  0  0  0
 55 66  1  0  0  0  0
 56 76  1  0  0  0  0
 57 59  1  0  0  0  0
 59 60  1  0  0  0  0
 60 61  1  0  0  0  0
 61 62  1  0  0  0  0
 62 63  1  0  0  0  0
 63 83  1  0  0  0  0
 64 66  1  0  0  0  0
 64 75  1  0  0  0  0
 65 76  1  0  0  0  0
 67 68  1  0  0  0  0
M  CHG  1  76   1
M  ISO  4  38 100  63 101  73 100  83 101
M  END
> <Batch ID>
0133

> <Smiles>
CCc1c(CCCCC[101CH2:1][101O:1]c2ccc3c(c2)CN(C(=O)C(NC(=O)C(C)NC)C(C)(C)C)C(C(=O)NC2CCCc4ccccc42)C3)cc(F)cc1[100NH:0][100C:0](=O)N1CCCC(n2nc(-c3ccc(Oc4ccc(F)cc4F)cc3)c(C(N)=O)c2N)C1

> <Shape>
0.257

> <Color>
0.084

> <Negative vol penalty>
0.000

$$$$

  -OEChem-04052302303D

 90 99  0     1  0  0  0  0  0999 V2000
  -31.6050  -30.0242   27.7234 C   0  0  0  0  0  0  0  0  0  0  0  0
  -30.5876  -29.1529   27.3475 C   0  0  0  0  0  0  0  0  0  0  0  0
  -23.0735   -9.8695   19.9417 C   0  0  0  0  0  0  0  0  0  0  0  0
  -23.8311   -9.8779   22.2359 C   0  0  0  0  0  0  0  0  0  0  0  0
  -32.8707  -29.5257   28.0289 C   0  0  0  0  0  0  0  0  0  0  0  0
  -30.8358  -27.7826   27.2759 C   0  0  0  0  0  0  0  0  0  0  0  0
  -27.1499  -25.0276   29.3900 C   0  0  0  0  0  0  0  0  0  0  0  0
  -22.3285   -8.7172   20.1919 C   0  0  0  0  0  0  0  0  0  0  0  0
  -23.0860   -8.7256   22.4861 C   0  0  0  0  0  0  0  0  0  0  0  0
  -25.9836  -24.8479   28.6476 C   0  0  0  0  0  0  0  0  0  0  0  0
  -19.3781   -7.9242   21.6408 C   0  0  0  0  0  0  0  0  0  0  0  0
  -18.0717   -7.8785   21.1543 C   0  0  0  0  0  0  0  0  0  0  0  0
  -26.7439  -22.6533   27.9958 C   0  0  0  0  0  0  0  0  0  0  0  0
  -30.5907  -19.8664   21.4945 C   0  0  0  0  0  0  0  0  0  0  0  0
  -31.1538  -17.6940   20.5999 C   0  0  0  0  0  0  0  0  0  0  0  0
  -29.5209  -17.8850   22.3702 C   0  0  0  0  0  0  0  0  0  0  0  0
  -18.6313   -5.9339   19.8343 C   0  0  0  0  0  0  0  0  0  0  0  0
  -23.8249  -10.4499   20.9637 C   0  0  0  0  0  0  0  0  0  0  0  0
  -24.1688  -12.9746   20.8418 C   0  0  0  0  0  0  0  0  0  0  0  0
  -33.1319  -28.1477   27.9703 C   0  0  0  0  0  0  0  0  0  0  0  0
  -28.1286  -24.0242   29.4322 C   0  0  0  0  0  0  0  0  0  0  0  0
  -32.1066  -27.2653   27.5796 C   0  0  0  0  0  0  0  0  0  0  0  0
  -27.9206  -22.8217   28.7416 C   0  0  0  0  0  0  0  0  0  0  0  0
  -31.3227  -19.0786   20.6063 C   0  0  0  0  0  0  0  0  0  0  0  0
  -29.6898  -19.2696   22.3766 C   0  0  0  0  0  0  0  0  0  0  0  0
  -30.2529  -17.0972   21.4819 C   0  0  0  0  0  0  0  0  0  0  0  0
  -22.3347   -8.1452   21.4641 C   0  0  0  0  0  0  0  0  0  0  0  0
  -25.7818  -23.6618   27.9480 C   0  0  0  0  0  0  0  0  0  0  0  0
  -20.3112   -6.9747   21.2241 C   0  0  0  0  0  0  0  0  0  0  0  0
  -17.6983   -6.8834   20.2510 C   0  0  0  0  0  0  0  0  0  0  0  0
  -19.9377   -5.9795   20.3209 C   0  0  0  0  0  0  0  0  0  0  0  0
  -24.5952  -11.6399   20.7057 C   0  0  0  0  0  0  0  0  0  0  0  0
  -25.2619  -13.7229   20.4790 C   0  0  0  0  0  0  0  0  0  0  0  0
  -24.2406  -23.7394   24.3280 C   0  0  0  0  0  0  0  0  0  0  0  0
  -24.5246  -22.4267   24.1577 C   0  0  0  0  0  0  0  0  0  0  0  0
  -22.8983  -13.4918   21.2589 C   0  0  0  0  0  0  0  0  0  0  0  0
  -31.1745  -23.8228   28.5457 C   0  0  0  0  0  0  0  0  0  0  0  0
  -30.9976  -20.9232   29.9889 C   0  0  0  0  0  0  0  0  0  0  0  0
  -29.0543  -18.3151   31.0225 C   0  0  0  0  0  0  0  0  0  0  0  0
  -30.7288  -14.7644   20.6584 C   0  0  0  0  0  0  0  0  0  0  0  0
  -34.5287  -27.6604   28.2638 C   0  0  0  0  0  0  0  0  0  0  0  0
  -29.3690  -24.2228   30.2593 C   0  0  0  0  0  0  0  0  0  0  0  0
  -28.9312  -21.7054   28.7709 C   0  0  0  0  0  0  0  0  0  0  0  0
  -24.8500  -24.8192   23.4567 C   0  0  0  0  0  0  0  0  0  0  0  0
  -34.6074  -26.1587   28.5262 C   0  0  0  0  0  0  0  0  0  0  0  0
  -26.0194  -24.3618   22.5905 C   0  0  0  0  0  0  0  0  0  0  0  0
  -29.6149  -12.3494   18.2911 C   0  0  0  0  0  0  0  0  0  0  0  0
  -33.8153  -25.3905   27.4730 C   0  0  0  0  0  0  0  0  0  0  0  0
  -25.7401  -22.9959   21.9862 C   0  0  0  0  0  0  0  0  0  0  0  0
  -28.1746  -12.0593   18.7195 C   0  0  0  0  0  0  0  0  0  0  0  0
  -30.5290  -12.5785   19.4935 C   0  0  0  0  0  0  0  0  0  0  0  0
  -28.6211  -13.3057   20.8722 C   0  0  0  0  0  0  0  0  0  0  0  0
  -32.3301  -25.7700   27.5143 C   0  0  1  0  0  0  0  0  0  0  0  0
  -25.4817  -21.9400   23.0731 C   0  0  1  0  0  0  0  0  0  0  0  0
  -30.5312  -23.3401   29.8149 C   0  0  1  0  0  0  0  0  0  0  0  0
  -27.6494  -13.1322   19.6935 C   0  0  2  0  0  0  0  0  0  0  0  0
  -32.2860  -19.7168   19.6634 C   0  0  0  0  0  0  0  0  0  0  0  0
  -23.9107  -21.3194   24.9791 C   0  0  0  0  0  0  0  0  0  0  0  0
  -29.1990  -16.0711   32.1366 C   0  0  0  0  0  0  0  0  0  0  0  0
  -32.0628  -19.7092   27.4002 C   0  0  0  0  0  0  0  0  0  0  0  0
  -31.2964  -17.4700   28.2167 C   0  0  0  0  0  0  0  0  0  0  0  0
  -33.0332  -18.7315   29.4875 C   0  0  0  0  0  0  0  0  0  0  0  0
  -27.3495  -19.1948   33.2761 C   0  0  0  0  0  0  0  0  0  0  0  0
  -28.8984  -20.1214   23.3368 C   0  0  0  0  0  0  0  0  0  0  0  0
  -23.3102  -24.2871   25.3800 C   0  0  0  0  0  0  0  0  0  0  0  0
  -26.7984  -21.4577   23.6948 C   0  0  0  0  0  0  0  0  0  0  0  0
  -27.5681  -20.5695   22.7250 C   0  0  0  0  0  0  0  0  0  0  0  0
  -24.0398  -24.6509   26.6661 C   0  0  0  0  0  0  0  0  0  1  0  0
  -30.6341  -19.5274   29.5430 C   0  0  1  0  0  0  0  0  0  0  0  0
  -28.9941  -17.5642   32.3404 C   0  0  2  0  0  0  0  0  0  0  0  0
  -31.7383  -18.8811   28.6595 C   0  0  0  0  0  0  0  0  0  0  0  0
  -25.8604  -11.5427   20.2888 N   0  0  0  0  0  0  0  0  0  0  0  0
  -26.2384  -12.8259   20.1597 N   0  0  0  0  0  0  0  0  0  0  0  0
  -30.1308  -21.9499   29.5887 N   0  0  0  0  0  0  0  0  0  0  0  0
  -29.9699  -13.6106   20.3694 N   0  0  0  0  0  0  0  0  0  0  0  0
  -25.4735  -15.0542   20.4050 N   0  0  0  0  0  0  0  0  0  0  0  0
  -21.8853  -12.5837   21.5960 N   0  0  0  0  0  0  0  0  0  0  0  0
  -30.0813  -15.6907   21.4753 N   0  0  0  0  0  0  0  0  0  0  0  0
  -31.6704  -25.1104   28.6207 N   0  0  0  0  0  0  0  0  0  0  0  0
  -30.3254  -18.7787   30.7564 N   0  0  0  0  0  0  0  0  0  0  0  0
  -27.6714  -17.7720   32.9950 N   0  3  0  0  0  0  0  0  0  0  0  0
  -22.6630  -14.7227   21.3149 O   0  0  0  0  0  0  0  0  0  0  0  0
  -31.2189  -23.0815   27.5710 O   0  0  0  0  0  0  0  0  0  0  0  0
  -32.0094  -21.0951   30.6733 O   0  0  0  0  0  0  0  0  0  0  0  0
  -28.0729  -18.4712   30.2993 O   0  0  0  0  0  0  0  0  0  0  0  0
  -31.8585  -14.9318   20.1918 O   0  0  0  0  0  0  0  0  0  0  0  0
  -21.6076   -7.0209   21.7087 O   0  0  0  0  0  0  0  0  0  0  0  0
  -24.6446  -23.4840   27.2220 O   0  0  0  0  0  0  0  0  0  1  0  0
  -16.4433   -6.8388   19.7851 F   0  0  0  0  0  0  0  0  0  0  0  0
  -20.8294   -5.0639   19.9177 F   0  0  0  0  0  0  0  0  0  0  0  0
  1  2  1  0  0  0  0
  1  5  2  0  0  0  0
  2  6  2  0  0  0  0
  3  8  2  0  0  0  0
  3 18  1  0  0  0  0
  4  9  1  0  0  0  0
  4 18  2  0  0  0  0
  5 20  1  0  0  0  0
  6 22  1  0  0  0  0
  7 10  2  0  0  0  0
  7 21  1  0  0  0  0
  8 27  1  0  0  0  0
  9 27  2  0  0  0  0
 10 28  1  0  0  0  0
 11 12  2  0  0  0  0
 11 29  1  0  0  0  0
 12 30  1  0  0  0  0
 13 23  1  0  0  0  0
 13 28  2  0  0  0  0
 14 24  2  0  0  0  0
 14 25  1  0  0  0  0
 15 24  1  0  0  0  0
 15 26  2  0  0  0  0
 16 25  2  0  0  0  0
 16 26  1  0  0  0  0
 17 30  2  0  0  0  0
 17 31  1  0  0  0  0
 18 32  1  0  0  0  0
 19 32  1  0  0  0  0
 19 33  2  0  0  0  0
 19 36  1  0  0  0  0
 20 22  2  0  0  0  0
 20 41  1  0  0  0  0
 21 23  2  0  0  0  0
 21 42  1  0  0  0  0
 22 53  1  0  0  0  0
 23 43  1  0  0  0  0
 24 57  1  0  0  0  0
 25 64  1  0  0  0  0
 26 78  1  0  0  0  0
 27 87  1  0  0  0  0
 28 88  1  0  0  0  0
 29 31  2  0  0  0  0
 29 87  1  0  0  0  0
 30 89  1  0  0  0  0
 31 90  1  0  0  0  0
 32 72  2  0  0  0  0
 33 73  1  0  0  0  0
 33 76  1  0  0  0  0
 34 35  2  0  0  0  0
 34 44  1  0  0  0  0
 34 65  1  0  0  0  0
 35 54  1  0  0  0  0
 35 58  1  0  0  0  0
 36 77  1  0  0  0  0
 36 82  2  0  0  0  0
 37 55  1  0  0  0  0
 37 79  1  0  0  0  0
 37 83  2  0  0  0  0
 38 69  1  0  0  0  0
 38 74  1  0  0  0  0
 38 84  2  0  0  0  0
 39 70  1  0  0  0  0
 39 80  1  0  0  0  0
 39 85  2  0  0  0  0
 40 75  1  0  0  0  0
 40 78  1  0  0  0  0
 40 86  2  0  0  0  0
 41 45  1  0  0  0  0
 42 55  1  0  0  0  0
 43 74  1  0  0  0  0
 44 46  1  0  0  0  0
 45 48  1  0  0  0  0
 46 49  1  0  0  0  0
 47 50  1  0  0  0  0
 47 51  1  0  0  0  0
 48 53  1  0  0  0  0
 49 54  1  0  0  0  0
 50 56  1  0  0  0  0
 51 75  1  0  0  0  0
 52 56  1  0  0  0  0
 52 75  1  0  0  0  0
 53 79  1  0  0  0  0
 54 66  1  0  0  0  0
 55 74  1  0  0  0  0
 56 73  1  0  0  0  0
 59 70  1  0  0  0  0
 60 71  1  0  0  0  0
 61 71  1  0  0  0  0
 62 71  1  0  0  0  0
 63 81  1  0  0  0  0
 64 67  1  0  0  0  0
 65 68  1  0  0  0  0
 66 67  1  0  0  0  0
 68 88  1  0  0  0  0
 69 71  1  0  0  0  0
 69 80  1  0  0  0  0
 70 81  1  0  0  0  0
 72 73  1  0  0  0  0
M  CHG  1  81   1
M  ISO  4  40 100  68 101  78 100  88 101
M  END
> <Batch ID>
0133

> <Smiles>
CNC(C)C(=O)NC(C(=O)N1Cc2cc([101O:1][101CH2:1]CC3=C(C)C(CCCc4cc(C)cc([100NH:0][100C:0](=O)N5CCCC(n6nc(-c7ccc(Oc8ccc(F)cc8F)cc7)c(C(N)=O)c6N)C5)c4)CCC3)ccc2CC1C(=O)NC1CCCc2ccccc21)C(C)(C)C

> <Shape>
0.153

> <Color>
0.196

> <Negative vol penalty>
0.000

$$$$

  -OEChem-04052302303D

 86 94  0     1  0  0  0  0  0999 V2000
  -29.2460  -35.9227   18.0496 C   0  0  0  0  0  0  0  0  0  0  0  0
  -29.3763  -34.5962   18.4483 C   0  0  0  0  0  0  0  0  0  0  0  0
  -22.9364  -16.5516   21.8012 C   0  0  0  0  0  0  0  0  0  0  0  0
  -23.8567  -16.1000   23.9889 C   0  0  0  0  0  0  0  0  0  0  0  0
  -28.3743  -36.7716   18.7304 C   0  0  0  0  0  0  0  0  0  0  0  0
  -28.6357  -34.1182   19.5288 C   0  0  0  0  0  0  0  0  0  0  0  0
  -26.5480  -29.5979   18.6051 C   0  0  0  0  0  0  0  0  0  0  0  0
  -30.2402  -17.4411   20.7893 C   0  0  0  0  0  0  0  0  0  0  0  0
  -29.6630  -18.6142   21.2752 C   0  0  0  0  0  0  0  0  0  0  0  0
  -22.1575  -17.5755   22.3402 C   0  0  0  0  0  0  0  0  0  0  0  0
  -23.0779  -17.1240   24.5279 C   0  0  0  0  0  0  0  0  0  0  0  0
  -27.3802  -28.4826   18.6913 C   0  0  0  0  0  0  0  0  0  0  0  0
  -22.5898  -20.7841   23.3155 C   0  0  0  0  0  0  0  0  0  0  0  0
  -22.5405  -21.9940   22.6233 C   0  0  0  0  0  0  0  0  0  0  0  0
  -26.5183  -28.0174   20.8958 C   0  0  0  0  0  0  0  0  0  0  0  0
  -28.6334  -17.3976   18.9856 C   0  0  0  0  0  0  0  0  0  0  0  0
  -20.1479  -21.7593   22.3834 C   0  0  0  0  0  0  0  0  0  0  0  0
  -23.7859  -15.8137   22.6256 C   0  0  0  0  0  0  0  0  0  0  0  0
  -24.1348  -13.6016   21.4039 C   0  0  0  0  0  0  0  0  0  0  0  0
  -27.6154  -36.3011   19.8137 C   0  0  0  0  0  0  0  0  0  0  0  0
  -25.7012  -29.9381   19.6698 C   0  0  0  0  0  0  0  0  0  0  0  0
  -27.7540  -34.9619   20.2255 C   0  0  0  0  0  0  0  0  0  0  0  0
  -25.6745  -29.1360   20.8196 C   0  0  0  0  0  0  0  0  0  0  0  0
  -29.7254  -16.8328   19.6444 C   0  0  0  0  0  0  0  0  0  0  0  0
  -28.5710  -19.1791   20.6164 C   0  0  0  0  0  0  0  0  0  0  0  0
  -28.0562  -18.5708   19.4715 C   0  0  0  0  0  0  0  0  0  0  0  0
  -22.2283  -17.8618   23.7035 C   0  0  0  0  0  0  0  0  0  0  0  0
  -27.3675  -27.6938   19.8379 C   0  0  0  0  0  0  0  0  0  0  0  0
  -21.4182  -20.0617   23.5417 C   0  0  0  0  0  0  0  0  0  0  0  0
  -21.3196  -22.4817   22.1572 C   0  0  0  0  0  0  0  0  0  0  0  0
  -20.1972  -20.5493   23.0756 C   0  0  0  0  0  0  0  0  0  0  0  0
  -24.5903  -14.7555   22.0695 C   0  0  0  0  0  0  0  0  0  0  0  0
  -25.2811  -12.9207   21.0738 C   0  0  0  0  0  0  0  0  0  0  0  0
  -22.7954  -13.1828   21.1101 C   0  0  0  0  0  0  0  0  0  0  0  0
  -25.4264  -32.4452   21.6043 C   0  0  0  0  0  0  0  0  0  0  0  0
  -28.2351  -24.1960   20.1749 C   0  0  0  0  0  0  0  0  0  0  0  0
  -22.7887  -30.8656   22.6388 C   0  0  0  0  0  0  0  0  0  0  0  0
  -30.9414  -14.7590   20.2408 C   0  0  0  0  0  0  0  0  0  0  0  0
  -21.1401  -27.8980   22.9886 C   0  0  0  0  0  0  0  0  0  0  0  0
  -26.7216  -37.2686   20.5484 C   0  0  0  0  0  0  0  0  0  0  0  0
  -24.7902  -31.1290   19.5504 C   0  0  0  0  0  0  0  0  0  0  0  0
  -24.7689  -29.4467   21.9823 C   0  0  0  0  0  0  0  0  0  0  0  0
  -25.6936  -36.5859   21.4470 C   0  0  0  0  0  0  0  0  0  0  0  0
  -29.7855  -12.2383   22.5103 C   0  0  0  0  0  0  0  0  0  0  0  0
  -26.3542  -35.4897   22.2768 C   0  0  0  0  0  0  0  0  0  0  0  0
  -28.2856  -12.5111   22.6161 C   0  0  0  0  0  0  0  0  0  0  0  0
  -30.5788  -13.5322   22.3569 C   0  0  0  0  0  0  0  0  0  0  0  0
  -28.6375  -14.6577   21.3147 C   0  0  0  0  0  0  0  0  0  0  0  0
  -26.9493  -34.3997   21.3772 C   0  0  1  0  0  0  0  0  0  0  0  0
  -24.3428  -31.6769   20.9021 C   0  0  1  0  0  0  0  0  0  0  0  0
  -27.7965  -13.3749   21.4400 C   0  0  2  0  0  0  0  0  0  0  0  0
  -26.8875  -19.1572   18.7498 C   0  0  0  0  0  0  0  0  0  0  0  0
  -19.0202  -26.9187   23.9075 C   0  0  0  0  0  0  0  0  0  0  0  0
  -31.4827  -15.8941   18.1201 C   0  0  0  0  0  0  0  0  0  0  0  0
  -29.3773  -14.5847   18.4148 C   0  0  0  0  0  0  0  0  0  0  0  0
  -23.9043  -31.1117   25.4681 C   0  0  0  0  0  0  0  0  0  0  0  0
  -22.2861  -29.3409   26.1853 C   0  0  0  0  0  0  0  0  0  0  0  0
  -21.4420  -31.5065   25.2796 C   0  0  0  0  0  0  0  0  0  0  0  0
  -20.2985  -26.9233   20.3239 C   0  0  0  0  0  0  0  0  0  0  0  0
  -27.9635  -20.4464   21.1610 C   0  0  0  0  0  0  0  0  0  0  0  0
  -27.7980  -22.9537   20.9331 C   0  0  0  0  0  0  0  0  0  0  0  0
  -27.7183  -25.5131   20.7196 C   0  0  0  0  0  0  0  0  0  1  0  0
  -28.3858  -21.6716   20.3479 C   0  0  0  0  0  0  0  0  0  0  0  0
  -22.5091  -29.8377   23.7084 C   0  0  1  0  0  0  0  0  0  0  0  0
  -19.7080  -27.4991   22.6816 C   0  0  2  0  0  0  0  0  0  0  0  0
  -30.3424  -15.5782   19.1254 C   0  0  0  0  0  0  0  0  0  0  0  0
  -22.5540  -30.4442   25.1394 C   0  0  0  0  0  0  0  0  0  0  0  0
  -25.9220  -14.8079   22.1580 N   0  0  0  0  0  0  0  0  0  0  0  0
  -26.3132  -13.6784   21.5438 N   0  0  0  0  0  0  0  0  0  0  0  0
  -23.9014  -30.6251   21.8203 N   0  0  0  0  0  0  0  0  0  0  0  0
  -30.0693  -14.3347   21.2436 N   0  0  0  0  0  0  0  0  0  0  0  0
  -25.4967  -11.7537   20.4305 N   0  0  0  0  0  0  0  0  0  0  0  0
  -22.1235  -12.3867   22.0477 N   0  0  0  0  0  0  0  0  0  0  0  0
  -25.9065  -33.5241   20.8868 N   0  0  0  0  0  0  0  0  0  0  0  0
  -21.2328  -29.2227   23.3599 N   0  0  0  0  0  0  0  0  0  0  0  0
  -19.6761  -26.4775   21.5970 N   0  3  0  0  0  0  0  0  0  0  0  0
  -22.2176  -13.4914   20.0403 O   0  0  0  0  0  0  0  0  0  0  0  0
  -25.7982  -32.0866   22.7156 O   0  0  0  0  0  0  0  0  0  0  0  0
  -28.9592  -24.1450   19.1819 O   0  0  0  0  0  0  0  0  0  0  0  0
  -22.0432  -31.8421   22.5288 O   0  0  0  0  0  0  0  0  0  0  0  0
  -32.1479  -14.5023   20.2183 O   0  0  0  0  0  0  0  0  0  0  0  0
  -22.0818  -27.1121   22.9108 O   0  0  0  0  0  0  0  0  0  0  0  0
  -21.4687  -18.8610   24.2298 O   0  0  0  0  0  0  0  0  0  0  0  0
  -28.1793  -26.6051   19.9249 O   0  0  0  0  0  0  0  0  0  1  0  0
  -21.2722  -23.6443   21.4938 F   0  0  0  0  0  0  0  0  0  0  0  0
  -19.0681  -19.8604   23.2909 F   0  0  0  0  0  0  0  0  0  0  0  0
  1  2  1  0  0  0  0
  1  5  2  0  0  0  0
  2  6  2  0  0  0  0
  3 10  2  0  0  0  0
  3 18  1  0  0  0  0
  4 11  1  0  0  0  0
  4 18  2  0  0  0  0
  5 20  1  0  0  0  0
  6 22  1  0  0  0  0
  7 12  2  0  0  0  0
  7 21  1  0  0  0  0
  8  9  2  0  0  0  0
  8 24  1  0  0  0  0
  9 25  1  0  0  0  0
 10 27  1  0  0  0  0
 11 27  2  0  0  0  0
 12 28  1  0  0  0  0
 13 14  2  0  0  0  0
 13 29  1  0  0  0  0
 14 30  1  0  0  0  0
 15 23  1  0  0  0  0
 15 28  2  0  0  0  0
 16 24  2  0  0  0  0
 16 26  1  0  0  0  0
 17 30  2  0  0  0  0
 17 31  1  0  0  0  0
 18 32  1  0  0  0  0
 19 32  1  0  0  0  0
 19 33  2  0  0  0  0
 19 34  1  0  0  0  0
 20 22  2  0  0  0  0
 20 40  1  0  0  0  0
 21 23  2  0  0  0  0
 21 41  1  0  0  0  0
 22 49  1  0  0  0  0
 23 42  1  0  0  0  0
 24 66  1  0  0  0  0
 25 26  2  0  0  0  0
 25 60  1  0  0  0  0
 26 52  1  0  0  0  0
 27 83  1  0  0  0  0
 28 84  1  0  0  0  0
 29 31  2  0  0  0  0
 29 83  1  0  0  0  0
 30 85  1  0  0  0  0
 31 86  1  0  0  0  0
 32 68  2  0  0  0  0
 33 69  1  0  0  0  0
 33 72  1  0  0  0  0
 34 73  1  0  0  0  0
 34 77  2  0  0  0  0
 35 50  1  0  0  0  0
 35 74  1  0  0  0  0
 35 78  2  0  0  0  0
 36 61  1  0  0  0  0
 36 62  1  0  0  0  0
 36 79  2  0  0  0  0
 37 64  1  0  0  0  0
 37 70  1  0  0  0  0
 37 80  2  0  0  0  0
 38 66  1  0  0  0  0
 38 71  1  0  0  0  0
 38 81  2  0  0  0  0
 39 65  1  0  0  0  0
 39 75  1  0  0  0  0
 39 82  2  0  0  0  0
 40 43  1  0  0  0  0
 41 50  1  0  0  0  0
 42 70  1  0  0  0  0
 43 45  1  0  0  0  0
 44 46  1  0  0  0  0
 44 47  1  0  0  0  0
 45 49  1  0  0  0  0
 46 51  1  0  0  0  0
 47 71  1  0  0  0  0
 48 51  1  0  0  0  0
 48 71  1  0  0  0  0
 49 74  1  0  0  0  0
 50 70  1  0  0  0  0
 51 69  1  0  0  0  0
 53 65  1  0  0  0  0
 54 66  1  0  0  0  0
 55 66  1  0  0  0  0
 56 67  1  0  0  0  0
 57 67  1  0  0  0  0
 58 67  1  0  0  0  0
 59 76  1  0  0  0  0
 60 63  1  0  0  0  0
 61 63  1  0  0  0  0
 62 84  1  0  0  0  0
 64 67  1  0  0  0  0
 64 75  1  0  0  0  0
 65 76  1  0  0  0  0
 68 69  1  0  0  0  0
M  CHG  1  76   1
M  ISO  4  38 100  62 101  66 100  84 101
M  END
> <Batch ID>
0133

> <Smiles>
CNC(C)C(=O)NC(C(=O)N1Cc2cc([101O:1][101CH2:1]C(=O)CCCc3ccc([100C:0](C)(C)[100C:0](=O)N4CCCC(n5nc(-c6ccc(Oc7ccc(F)cc7F)cc6)c(C(N)=O)c5N)C4)cc3C)ccc2CC1C(=O)NC1CCCc2ccccc21)C(C)(C)C

> <Shape>
0.253

> <Color>
0.117

> <Negative vol penalty>
0.000

$$$$

  -OEChem-04052302303D

 87 95  0     1  0  0  0  0  0999 V2000
  -27.6382  -35.3260   24.2653 C   0  0  0  0  0  0  0  0  0  0  0  0
  -27.9193  -34.0113   23.9078 C   0  0  0  0  0  0  0  0  0  0  0  0
  -29.3926  -19.3288   16.8850 C   0  0  0  0  0  0  0  0  0  0  0  0
  -22.5443  -10.3660   21.4595 C   0  0  0  0  0  0  0  0  0  0  0  0
  -24.4569   -9.0131   20.8692 C   0  0  0  0  0  0  0  0  0  0  0  0
  -28.2035  -18.6013   16.9336 C   0  0  0  0  0  0  0  0  0  0  0  0
  -26.3516  -35.6766   24.6725 C   0  0  0  0  0  0  0  0  0  0  0  0
  -26.9142  -33.0461   23.9583 C   0  0  0  0  0  0  0  0  0  0  0  0
  -26.8636  -30.0774   19.8559 C   0  0  0  0  0  0  0  0  0  0  0  0
  -29.3565  -20.7228   16.8514 C   0  0  0  0  0  0  0  0  0  0  0  0
  -21.7669   -9.2142   21.5808 C   0  0  0  0  0  0  0  0  0  0  0  0
  -23.6796   -7.8612   20.9906 C   0  0  0  0  0  0  0  0  0  0  0  0
  -27.8212  -29.0664   19.7897 C   0  0  0  0  0  0  0  0  0  0  0  0
  -22.5011   -5.9045   23.4812 C   0  0  0  0  0  0  0  0  0  0  0  0
  -23.0512   -4.8228   24.1687 C   0  0  0  0  0  0  0  0  0  0  0  0
  -26.1705  -27.4637   20.5150 C   0  0  0  0  0  0  0  0  0  0  0  0
  -22.8426   -3.4570   22.1867 C   0  0  0  0  0  0  0  0  0  0  0  0
  -23.8892  -10.2654   21.1036 C   0  0  0  0  0  0  0  0  0  0  0  0
  -26.9783  -19.2678   16.9485 C   0  0  0  0  0  0  0  0  0  0  0  0
  -25.4477  -12.0817   21.9869 C   0  0  0  0  0  0  0  0  0  0  0  0
  -25.3279  -34.7172   24.7188 C   0  0  0  0  0  0  0  0  0  0  0  0
  -25.5527  -29.7907   20.2633 C   0  0  0  0  0  0  0  0  0  0  0  0
  -25.6131  -33.3839   24.3678 C   0  0  0  0  0  0  0  0  0  0  0  0
  -25.1975  -28.4725   20.5830 C   0  0  0  0  0  0  0  0  0  0  0  0
  -26.9421  -20.6618   16.9149 C   0  0  0  0  0  0  0  0  0  0  0  0
  -22.3346   -7.9618   21.3464 C   0  0  0  0  0  0  0  0  0  0  0  0
  -27.4755  -27.7598   20.1221 C   0  0  0  0  0  0  0  0  0  0  0  0
  -28.1313  -21.3893   16.8663 C   0  0  0  0  0  0  0  0  0  0  0  0
  -22.1217   -5.7625   22.1464 C   0  0  0  0  0  0  0  0  0  0  0  0
  -23.2220   -3.5990   23.5215 C   0  0  0  0  0  0  0  0  0  0  0  0
  -22.2925   -4.5388   21.4992 C   0  0  0  0  0  0  0  0  0  0  0  0
  -24.6926  -11.4549   20.9776 C   0  0  0  0  0  0  0  0  0  0  0  0
  -26.0218  -13.1632   21.3647 C   0  0  0  0  0  0  0  0  0  0  0  0
  -25.7530  -18.4813   16.9999 C   0  0  0  0  0  0  0  0  0  0  0  0
  -25.6152  -11.7186   23.3638 C   0  0  0  0  0  0  0  0  0  0  0  0
  -25.4770  -17.5637   18.1235 C   0  0  0  0  0  0  0  0  0  0  0  0
  -23.7037  -30.7079   22.6806 C   0  0  0  0  0  0  0  0  0  0  0  0
  -21.4446  -29.0128   21.0852 C   0  0  0  0  0  0  0  0  0  0  0  0
  -20.7196  -26.5252   18.8642 C   0  0  0  0  0  0  0  0  0  0  0  0
  -23.9644  -35.1337   25.2108 C   0  0  0  0  0  0  0  0  0  0  0  0
  -24.5246  -30.8879   20.3037 C   0  0  0  0  0  0  0  0  0  0  0  0
  -23.7987  -28.1088   21.0068 C   0  0  0  0  0  0  0  0  0  0  0  0
  -22.8638  -34.1296   24.8780 C   0  0  0  0  0  0  0  0  0  0  0  0
  -26.3187  -14.3959   16.4839 C   0  0  0  0  0  0  0  0  0  0  0  0
  -23.3155  -32.7118   25.2136 C   0  0  0  0  0  0  0  0  0  0  0  0
  -25.9826  -13.3959   17.5870 C   0  0  0  0  0  0  0  0  0  0  0  0
  -25.3771  -15.5992   16.4967 C   0  0  0  0  0  0  0  0  0  0  0  0
  -24.9718  -15.2875   18.9213 C   0  0  0  0  0  0  0  0  0  0  0  0
  -24.5434  -32.3135   24.3858 C   0  0  1  0  0  0  0  0  0  0  0  0
  -23.3510  -30.5733   21.2262 C   0  0  1  0  0  0  0  0  0  0  0  0
  -25.9362  -14.0916   18.9567 C   0  0  1  0  0  0  0  0  0  0  0  0
  -23.6424  -23.2357   19.7095 C   0  0  0  0  0  0  0  0  0  0  0  0
  -18.7820  -25.3464   17.7901 C   0  0  0  0  0  0  0  0  0  0  0  0
  -20.9435  -27.4808   23.6759 C   0  0  0  0  0  0  0  0  0  0  0  0
  -19.7382  -25.7444   22.3342 C   0  0  0  0  0  0  0  0  0  0  0  0
  -18.8763  -28.0842   22.4043 C   0  0  0  0  0  0  0  0  0  0  0  0
  -21.5697  -27.3525   16.1528 C   0  0  0  0  0  0  0  0  0  0  0  0
  -25.6326  -21.3848   16.9297 C   0  0  0  0  0  0  0  0  0  0  0  0
  -23.9644  -22.6836   18.3300 C   0  0  0  0  0  0  0  0  0  0  0  0
  -25.3211  -21.9794   18.3110 C   0  0  0  0  0  0  0  0  0  0  0  0
  -29.8998  -25.5477   18.6065 C   0  0  0  0  0  0  0  0  0  0  0  0
  -28.7607  -24.7803   17.9446 C   0  0  0  0  0  0  0  0  0  0  0  0
  -29.4466  -26.9185   19.0911 C   0  0  0  0  0  0  0  0  0  1  0  0
  -29.2232  -23.4276   17.4218 C   0  0  0  0  0  0  0  0  0  0  0  0
  -20.9794  -27.5767   21.0961 C   0  0  1  0  0  0  0  0  0  0  0  0
  -19.7851  -26.4830   17.6687 C   0  0  2  0  0  0  0  0  0  0  0  0
  -20.1613  -27.2284   22.3716 C   0  0  0  0  0  0  0  0  0  0  0  0
  -24.7772  -12.0859   19.8034 N   0  0  0  0  0  0  0  0  0  0  0  0
  -24.8322  -18.5329   16.0775 N   0  0  0  0  0  0  0  0  0  0  0  0
  -25.5921  -13.1204   20.0710 N   0  0  0  0  0  0  0  0  0  0  0  0
  -25.3047  -16.2118   17.8316 N   0  0  0  0  0  0  0  0  0  0  0  0
  -22.8308  -29.2177   21.0368 N   0  0  0  0  0  0  0  0  0  0  0  0
  -26.8471  -14.1372   21.8036 N   0  0  0  0  0  0  0  0  0  0  0  0
  -24.9541  -10.5779   23.8392 N   0  0  0  0  0  0  0  0  0  0  0  0
  -24.1522  -31.9655   23.0366 N   0  0  0  0  0  0  0  0  0  0  0  0
  -20.2540  -27.3731   19.8468 N   0  0  0  0  0  0  0  0  0  0  0  0
  -20.5613  -26.2925   16.4109 N   0  3  0  0  0  0  0  0  0  0  0  0
  -26.3169  -12.3953   24.1533 O   0  0  0  0  0  0  0  0  0  0  0  0
  -25.4110  -18.0518   19.2532 O   0  0  0  0  0  0  0  0  0  0  0  0
  -23.5768  -29.7428   23.4249 O   0  0  0  0  0  0  0  0  0  0  0  0
  -20.6086  -29.9195   21.1113 O   0  0  0  0  0  0  0  0  0  0  0  0
  -21.7569  -25.8685   18.9224 O   0  0  0  0  0  0  0  0  0  0  0  0
  -21.5764   -6.8377   21.4649 O   0  0  0  0  0  0  0  0  0  0  0  0
  -28.4085  -26.7711   20.0590 O   0  0  0  0  0  0  0  0  0  1  0  0
  -28.1162  -22.7595   16.8325 O   0  0  0  0  0  0  0  0  0  0  0  0
  -23.7517   -2.5607   24.1815 F   0  0  0  0  0  0  0  0  0  0  0  0
  -21.9309   -4.3966   20.2166 F   0  0  0  0  0  0  0  0  0  0  0  0
  1  2  1  0  0  0  0
  1  7  2  0  0  0  0
  2  8  2  0  0  0  0
  3  6  2  0  0  0  0
  3 10  1  0  0  0  0
  4 11  2  0  0  0  0
  4 18  1  0  0  0  0
  5 12  1  0  0  0  0
  5 18  2  0  0  0  0
  6 19  1  0  0  0  0
  7 21  1  0  0  0  0
  8 23  1  0  0  0  0
  9 13  2  0  0  0  0
  9 22  1  0  0  0  0
 10 28  2  0  0  0  0
 11 26  1  0  0  0  0
 12 26  2  0  0  0  0
 13 27  1  0  0  0  0
 14 15  2  0  0  0  0
 14 29  1  0  0  0  0
 15 30  1  0  0  0  0
 16 24  1  0  0  0  0
 16 27  2  0  0  0  0
 17 30  2  0  0  0  0
 17 31  1  0  0  0  0
 18 32  1  0  0  0  0
 19 25  2  0  0  0  0
 19 34  1  0  0  0  0
 20 32  1  0  0  0  0
 20 33  2  0  0  0  0
 20 35  1  0  0  0  0
 21 23  2  0  0  0  0
 21 40  1  0  0  0  0
 22 24  2  0  0  0  0
 22 41  1  0  0  0  0
 23 49  1  0  0  0  0
 24 42  1  0  0  0  0
 25 28  1  0  0  0  0
 25 58  1  0  0  0  0
 26 83  1  0  0  0  0
 27 84  1  0  0  0  0
 28 85  1  0  0  0  0
 29 31  2  0  0  0  0
 29 83  1  0  0  0  0
 30 86  1  0  0  0  0
 31 87  1  0  0  0  0
 32 68  2  0  0  0  0
 33 70  1  0  0  0  0
 33 73  1  0  0  0  0
 34 36  1  0  0  0  0
 34 69  2  0  0  0  0
 35 74  1  0  0  0  0
 35 78  2  0  0  0  0
 36 71  1  0  0  0  0
 36 79  2  0  0  0  0
 37 50  1  0  0  0  0
 37 75  1  0  0  0  0
 37 80  2  0  0  0  0
 38 65  1  0  0  0  0
 38 72  1  0  0  0  0
 38 81  2  0  0  0  0
 39 66  1  0  0  0  0
 39 76  1  0  0  0  0
 39 82  2  0  0  0  0
 40 43  1  0  0  0  0
 41 50  1  0  0  0  0
 42 72  1  0  0  0  0
 43 45  1  0  0  0  0
 44 46  1  0  0  0  0
 44 47  1  0  0  0  0
 45 49  1  0  0  0  0
 46 51  1  0  0  0  0
 47 71  1  0  0  0  0
 48 51  1  0  0  0  0
 48 71  1  0  0  0  0
 49 75  1  0  0  0  0
 50 72  1  0  0  0  0
 51 70  1  0  0  0  0
 52 59  1  0  0  0  0
 53 66  1  0  0  0  0
 54 67  1  0  0  0  0
 55 67  1  0  0  0  0
 56 67  1  0  0  0  0
 57 77  1  0  0  0  0
 58 60  1  0  0  0  0
 59 60  1  0  0  0  0
 61 62  1  0  0  0  0
 61 63  1  0  0  0  0
 62 64  1  0  0  0  0
 63 84  1  0  0  0  0
 64 85  1  0  0  0  0
 65 67  1  0  0  0  0
 65 76  1  0  0  0  0
 66 77  1  0  0  0  0
 68 70  1  0  0  0  0
M  CHG  1  77   1
M  ISO  4  34 100  36 100  63 101  84 101
M  END
> <Batch ID>
0133

> <Smiles>
CCCCc1c(OCCC[101CH2:1][101O:1]c2ccc3c(c2)CN(C(=O)C(NC(=O)C(C)NC)C(C)(C)C)C(C(=O)NC2CCCc4ccccc42)C3)cccc1[100C:0](=N)[100C:0](=O)N1CCCC(n2nc(-c3ccc(Oc4ccc(F)cc4F)cc3)c(C(N)=O)c2N)C1

> <Shape>
0.268

> <Color>
0.110

> <Negative vol penalty>
0.000

$$$$

  -OEChem-04052302303D

 87 95  0     1  0  0  0  0  0999 V2000
  -34.5168  -30.5803   13.6979 C   0  0  0  0  0  0  0  0  0  0  0  0
  -33.3264  -30.1647   14.2858 C   0  0  0  0  0  0  0  0  0  0  0  0
  -23.0703   -9.8723   19.9448 C   0  0  0  0  0  0  0  0  0  0  0  0
  -23.8325   -9.8814   22.2374 C   0  0  0  0  0  0  0  0  0  0  0  0
  -35.4432  -29.6354   13.2588 C   0  0  0  0  0  0  0  0  0  0  0  0
  -33.0612  -28.8038   14.4340 C   0  0  0  0  0  0  0  0  0  0  0  0
  -30.0383  -26.1218   19.0355 C   0  0  0  0  0  0  0  0  0  0  0  0
  -28.9105  -18.2751   24.8596 C   0  0  0  0  0  0  0  0  0  0  0  0
  -22.3250   -8.7205   20.1971 C   0  0  0  0  0  0  0  0  0  0  0  0
  -23.0872   -8.7296   22.4898 C   0  0  0  0  0  0  0  0  0  0  0  0
  -28.7193  -25.6890   19.1652 C   0  0  0  0  0  0  0  0  0  0  0  0
  -28.3294  -19.4111   24.2964 C   0  0  0  0  0  0  0  0  0  0  0  0
  -19.9361   -5.9838   20.3318 C   0  0  0  0  0  0  0  0  0  0  0  0
  -18.6298   -5.9370   19.8449 C   0  0  0  0  0  0  0  0  0  0  0  0
  -29.3976  -23.4570   18.5510 C   0  0  0  0  0  0  0  0  0  0  0  0
  -29.3708  -18.8938   22.1786 C   0  0  0  0  0  0  0  0  0  0  0  0
  -18.0688   -7.8825   21.1630 C   0  0  0  0  0  0  0  0  0  0  0  0
  -23.8241  -10.4527   20.9649 C   0  0  0  0  0  0  0  0  0  0  0  0
  -24.1694  -12.9772   20.8410 C   0  0  0  0  0  0  0  0  0  0  0  0
  -35.1935  -28.2623   13.4104 C   0  0  0  0  0  0  0  0  0  0  0  0
  -31.0467  -25.2263   18.6514 C   0  0  0  0  0  0  0  0  0  0  0  0
  -33.9846  -27.8396   13.9953 C   0  0  0  0  0  0  0  0  0  0  0  0
  -30.7290  -23.8804   18.4197 C   0  0  0  0  0  0  0  0  0  0  0  0
  -29.7219  -17.4484   24.0824 C   0  0  0  0  0  0  0  0  0  0  0  0
  -29.9520  -17.7578   22.7419 C   0  0  0  0  0  0  0  0  0  0  0  0
  -22.3335   -8.1492   21.4696 C   0  0  0  0  0  0  0  0  0  0  0  0
  -28.3983  -24.3571   18.9201 C   0  0  0  0  0  0  0  0  0  0  0  0
  -28.5595  -19.7205   22.9559 C   0  0  0  0  0  0  0  0  0  0  0  0
  -20.3087   -6.9799   21.2344 C   0  0  0  0  0  0  0  0  0  0  0  0
  -17.6962   -6.8863   20.2604 C   0  0  0  0  0  0  0  0  0  0  0  0
  -19.3751   -7.9293   21.6499 C   0  0  0  0  0  0  0  0  0  0  0  0
  -24.5946  -11.6421   20.7047 C   0  0  0  0  0  0  0  0  0  0  0  0
  -25.2623  -13.7246   20.4756 C   0  0  0  0  0  0  0  0  0  0  0  0
  -22.9001  -13.4954   21.2605 C   0  0  0  0  0  0  0  0  0  0  0  0
  -33.0399  -25.0166   16.1843 C   0  0  0  0  0  0  0  0  0  0  0  0
  -34.2772  -22.5529   17.8935 C   0  0  0  0  0  0  0  0  0  0  0  0
  -33.8064  -20.1539   20.2746 C   0  0  0  0  0  0  0  0  0  0  0  0
  -30.7477  -14.7360   20.6569 C   0  0  0  0  0  0  0  0  0  0  0  0
  -36.2039  -27.2775   12.8774 C   0  0  0  0  0  0  0  0  0  0  0  0
  -32.4691  -25.7030   18.5420 C   0  0  0  0  0  0  0  0  0  0  0  0
  -31.7782  -22.8747   18.0245 C   0  0  0  0  0  0  0  0  0  0  0  0
  -36.0133  -25.8602   13.4114 C   0  0  0  0  0  0  0  0  0  0  0  0
  -29.6042  -12.3498   18.2747 C   0  0  0  0  0  0  0  0  0  0  0  0
  -34.5452  -25.4534   13.3338 C   0  0  0  0  0  0  0  0  0  0  0  0
  -28.1668  -12.0587   18.7095 C   0  0  0  0  0  0  0  0  0  0  0  0
  -30.5229  -12.5710   19.4743 C   0  0  0  0  0  0  0  0  0  0  0  0
  -28.6236  -13.3067   20.8618 C   0  0  0  0  0  0  0  0  0  0  0  0
  -33.6717  -26.3726   14.1961 C   0  0  1  0  0  0  0  0  0  0  0  0
  -33.3288  -24.8175   17.6453 C   0  0  1  0  0  0  0  0  0  0  0  0
  -27.6480  -13.1319   19.6854 C   0  0  2  0  0  0  0  0  0  0  0  0
  -31.5314  -16.5828   25.5867 C   0  0  0  0  0  0  0  0  0  0  0  0
  -34.9888  -18.2653   21.4290 C   0  0  0  0  0  0  0  0  0  0  0  0
  -24.3221  -23.1604   19.3850 C   0  0  0  0  0  0  0  0  0  0  0  0
  -33.9223  -20.8160   15.4101 C   0  0  0  0  0  0  0  0  0  0  0  0
  -34.2041  -18.7987   16.8660 C   0  0  0  0  0  0  0  0  0  0  0  0
  -36.0651  -20.4451   16.6451 C   0  0  0  0  0  0  0  0  0  0  0  0
  -33.5247  -21.4431   22.9237 C   0  0  0  0  0  0  0  0  0  0  0  0
  -30.3330  -16.2377   24.7076 C   0  0  0  0  0  0  0  0  0  0  0  0
  -30.8179  -16.8882   21.8907 C   0  0  0  0  0  0  0  0  0  0  0  0
  -26.6605  -22.8492   22.4942 C   0  0  0  0  0  0  0  0  0  0  0  0
  -25.8097  -22.4544   21.2809 C   0  0  0  0  0  0  0  0  0  0  0  0
  -27.1757  -21.6315   23.2540 C   0  0  0  0  0  0  0  0  0  0  0  0
  -26.2938  -24.6094   19.9986 C   0  0  0  0  0  0  0  0  0  1  0  0
  -34.0096  -21.0695   17.9780 C   0  0  1  0  0  0  0  0  0  0  0  0
  -34.6443  -19.7459   21.4729 C   0  0  2  0  0  0  0  0  0  0  0  0
  -25.2125  -23.6601   20.5301 C   0  0  1  0  0  0  0  0  0  0  0  0
  -34.5300  -20.3015   16.7303 C   0  0  0  0  0  0  0  0  0  0  0  0
  -25.8589  -11.5438   20.2853 N   0  0  0  0  0  0  0  0  0  0  0  0
  -26.2375  -12.8267   20.1548 N   0  0  0  0  0  0  0  0  0  0  0  0
  -33.1534  -23.3908   17.9246 N   0  0  0  0  0  0  0  0  0  0  0  0
  -29.9747  -13.6015   20.3594 N   0  0  0  0  0  0  0  0  0  0  0  0
  -25.4745  -15.0556   20.4005 N   0  0  0  0  0  0  0  0  0  0  0  0
  -21.8872  -12.5881   21.6001 N   0  0  0  0  0  0  0  0  0  0  0  0
  -33.7893  -26.0163   15.5938 N   0  0  0  0  0  0  0  0  0  0  0  0
  -34.5886  -20.6216   19.2399 N   0  0  0  0  0  0  0  0  0  0  0  0
  -30.1507  -15.6669   21.4983 N   0  0  0  0  0  0  0  0  0  0  0  0
  -33.9062  -20.0193   22.7384 N   0  3  0  0  0  0  0  0  0  0  0  0
  -22.6657  -14.7264   21.3164 O   0  0  0  0  0  0  0  0  0  0  0  0
  -32.2004  -24.3143   15.6331 O   0  0  0  0  0  0  0  0  0  0  0  0
  -35.4408  -22.9537   17.8103 O   0  0  0  0  0  0  0  0  0  0  0  0
  -32.5808  -20.0630   20.2568 O   0  0  0  0  0  0  0  0  0  0  0  0
  -31.8834  -14.9092   20.2019 O   0  0  0  0  0  0  0  0  0  0  0  0
  -21.6062   -7.0255   21.7163 O   0  0  0  0  0  0  0  0  0  0  0  0
  -27.1116  -23.9322   19.0452 O   0  0  0  0  0  0  0  0  0  1  0  0
  -27.9888  -20.8374   22.4022 O   0  0  0  0  0  0  0  0  0  0  0  0
  -16.4422   -6.8422   19.7916 F   0  0  0  0  0  0  0  0  0  0  0  0
  -19.7275   -8.8893   22.5159 F   0  0  0  0  0  0  0  0  0  0  0  0
  1  2  1  0  0  0  0
  1  5  2  0  0  0  0
  2  6  2  0  0  0  0
  3  9  2  0  0  0  0
  3 18  1  0  0  0  0
  4 10  1  0  0  0  0
  4 18  2  0  0  0  0
  5 20  1  0  0  0  0
  6 22  1  0  0  0  0
  7 11  2  0  0  0  0
  7 21  1  0  0  0  0
  8 12  2  0  0  0  0
  8 24  1  0  0  0  0
  9 26  1  0  0  0  0
 10 26  2  0  0  0  0
 11 27  1  0  0  0  0
 12 28  1  0  0  0  0
 13 14  2  0  0  0  0
 13 29  1  0  0  0  0
 14 30  1  0  0  0  0
 15 23  1  0  0  0  0
 15 27  2  0  0  0  0
 16 25  1  0  0  0  0
 16 28  2  0  0  0  0
 17 30  2  0  0  0  0
 17 31  1  0  0  0  0
 18 32  1  0  0  0  0
 19 32  1  0  0  0  0
 19 33  2  0  0  0  0
 19 34  1  0  0  0  0
 20 22  2  0  0  0  0
 20 39  1  0  0  0  0
 21 23  2  0  0  0  0
 21 40  1  0  0  0  0
 22 48  1  0  0  0  0
 23 41  1  0  0  0  0
 24 25  2  0  0  0  0
 24 58  1  0  0  0  0
 25 59  1  0  0  0  0
 26 83  1  0  0  0  0
 27 84  1  0  0  0  0
 28 85  1  0  0  0  0
 29 31  2  0  0  0  0
 29 83  1  0  0  0  0
 30 86  1  0  0  0  0
 31 87  1  0  0  0  0
 32 68  2  0  0  0  0
 33 69  1  0  0  0  0
 33 72  1  0  0  0  0
 34 73  1  0  0  0  0
 34 78  2  0  0  0  0
 35 49  1  0  0  0  0
 35 74  1  0  0  0  0
 35 79  2  0  0  0  0
 36 64  1  0  0  0  0
 36 70  1  0  0  0  0
 36 80  2  0  0  0  0
 37 65  1  0  0  0  0
 37 75  1  0  0  0  0
 37 81  2  0  0  0  0
 38 71  1  0  0  0  0
 38 76  1  0  0  0  0
 38 82  2  0  0  0  0
 39 42  1  0  0  0  0
 40 49  1  0  0  0  0
 41 70  1  0  0  0  0
 42 44  1  0  0  0  0
 43 45  1  0  0  0  0
 43 46  1  0  0  0  0
 44 48  1  0  0  0  0
 45 50  1  0  0  0  0
 46 71  1  0  0  0  0
 47 50  1  0  0  0  0
 47 71  1  0  0  0  0
 48 74  1  0  0  0  0
 49 70  1  0  0  0  0
 50 69  1  0  0  0  0
 51 58  1  0  0  0  0
 52 65  1  0  0  0  0
 53 66  1  0  0  0  0
 54 67  1  0  0  0  0
 55 67  1  0  0  0  0
 56 67  1  0  0  0  0
 57 77  1  0  0  0  0
 59 76  1  0  0  0  0
 60 61  1  0  0  0  0
 60 62  1  0  0  0  0
 61 66  1  0  0  0  0
 62 85  1  0  0  0  0
 63 66  1  0  0  0  0
 63 84  1  0  0  0  0
 64 67  1  0  0  0  0
 64 75  1  0  0  0  0
 65 77  1  0  0  0  0
 68 69  1  0  0  0  0
M  CHG  1  77   1
M  ISO  4  38 100  63 101  76 100  84 101
M  END
> <Batch ID>
0133

> <Smiles>
CCc1ccc(OCCCC(C)[101CH2:1][101O:1]c2ccc3c(c2)CN(C(=O)C(NC(=O)C(C)NC)C(C)(C)C)C(C(=O)NC2CCCc4ccccc42)C3)cc1C[100NH:0][100C:0](=O)N1CCCC(n2nc(-c3ccc(Oc4ccc(F)cc4F)cc3)c(C(N)=O)c2N)C1

> <Shape>
0.193

> <Color>
0.188

> <Negative vol penalty>
0.000

$$$$

  -OEChem-04052302303D

 88 96  0     1  0  0  0  0  0999 V2000
  -29.1409  -11.4120   19.1339 C   0  0  0  0  0  0  0  0  0  0  0  0
  -28.9657  -11.8191   20.4526 C   0  0  0  0  0  0  0  0  0  0  0  0
  -25.2057  -26.9560   18.7791 C   0  0  0  0  0  0  0  0  0  0  0  0
  -25.3643  -26.7034   21.1766 C   0  0  0  0  0  0  0  0  0  0  0  0
  -28.7448  -12.2463   18.0895 C   0  0  0  0  0  0  0  0  0  0  0  0
  -28.3953  -13.0614   20.7276 C   0  0  0  0  0  0  0  0  0  0  0  0
  -24.7364  -14.4723   25.4316 C   0  0  0  0  0  0  0  0  0  0  0  0
  -23.9580  -27.5621   18.9255 C   0  0  0  0  0  0  0  0  0  0  0  0
  -24.1166  -27.3096   21.3230 C   0  0  0  0  0  0  0  0  0  0  0  0
  -24.9817  -15.0841   26.6602 C   0  0  0  0  0  0  0  0  0  0  0  0
  -20.8675  -26.4338   20.9951 C   0  0  0  0  0  0  0  0  0  0  0  0
  -19.9583  -25.8418   21.8718 C   0  0  0  0  0  0  0  0  0  0  0  0
  -24.3038  -17.2052   25.7325 C   0  0  0  0  0  0  0  0  0  0  0  0
  -30.0615  -18.2331   25.7359 C   0  0  0  0  0  0  0  0  0  0  0  0
  -29.8990  -18.2223   23.3254 C   0  0  0  0  0  0  0  0  0  0  0  0
  -29.2396  -20.1841   24.5718 C   0  0  0  0  0  0  0  0  0  0  0  0
  -19.9018  -27.8704   23.1829 C   0  0  0  0  0  0  0  0  0  0  0  0
  -25.9088  -26.5266   19.9047 C   0  0  0  0  0  0  0  0  0  0  0  0
  -28.4544  -26.5338   19.7379 C   0  0  0  0  0  0  0  0  0  0  0  0
  -28.1604  -13.4954   18.3519 C   0  0  0  0  0  0  0  0  0  0  0  0
  -24.2825  -15.2256   24.3394 C   0  0  0  0  0  0  0  0  0  0  0  0
  -27.9923  -13.9139   19.6857 C   0  0  0  0  0  0  0  0  0  0  0  0
  -24.0509  -16.6001   24.4919 C   0  0  0  0  0  0  0  0  0  0  0  0
  -30.2271  -17.5755   24.5170 C   0  0  0  0  0  0  0  0  0  0  0  0
  -29.5677  -19.5374   25.7633 C   0  0  0  0  0  0  0  0  0  0  0  0
  -29.4053  -19.5266   23.3528 C   0  0  0  0  0  0  0  0  0  0  0  0
  -23.4134  -27.7389   20.1974 C   0  0  0  0  0  0  0  0  0  0  0  0
  -24.7682  -16.4512   26.8099 C   0  0  0  0  0  0  0  0  0  0  0  0
  -21.2939  -27.7440   21.2124 C   0  0  0  0  0  0  0  0  0  0  0  0
  -19.4755  -26.5601   22.9656 C   0  0  0  0  0  0  0  0  0  0  0  0
  -20.8111  -28.4623   22.3062 C   0  0  0  0  0  0  0  0  0  0  0  0
  -27.1975  -25.8999   19.7541 C   0  0  0  0  0  0  0  0  0  0  0  0
  -29.3536  -25.5090   19.5713 C   0  0  0  0  0  0  0  0  0  0  0  0
  -28.7799  -27.9245   19.8624 C   0  0  0  0  0  0  0  0  0  0  0  0
  -25.4232  -15.8989   21.4499 C   0  0  0  0  0  0  0  0  0  0  0  0
  -26.0420  -19.1019   29.8434 C   0  0  0  0  0  0  0  0  0  0  0  0
  -22.5204  -17.2921   21.0557 C   0  0  0  0  0  0  0  0  0  0  0  0
  -19.7767  -18.7271   22.4908 C   0  0  0  0  0  0  0  0  0  0  0  0
  -29.1764  -19.6744   20.8484 C   0  0  0  0  0  0  0  0  0  0  0  0
  -27.7915  -14.3829   17.1896 C   0  0  0  0  0  0  0  0  0  0  0  0
  -23.9971  -14.5458   23.0283 C   0  0  0  0  0  0  0  0  0  0  0  0
  -23.5449  -17.4498   23.3560 C   0  0  0  0  0  0  0  0  0  0  0  0
  -26.8517  -15.5244   17.5691 C   0  0  0  0  0  0  0  0  0  0  0  0
  -29.7371  -21.1384   17.6516 C   0  0  0  0  0  0  0  0  0  0  0  0
  -27.3374  -16.2160   18.8389 C   0  0  0  0  0  0  0  0  0  0  0  0
  -29.2695  -22.5849   17.8283 C   0  0  0  0  0  0  0  0  0  0  0  0
  -28.8610  -20.1599   18.4319 C   0  0  0  0  0  0  0  0  0  0  0  0
  -28.2274  -21.9217   20.0331 C   0  0  0  0  0  0  0  0  0  0  0  0
  -27.3545  -15.2438   20.0246 C   0  0  1  0  0  0  0  0  0  0  0  0
  -24.0274  -15.5024   21.8403 C   0  0  1  0  0  0  0  0  0  0  0  0
  -29.1185  -22.9504   19.3180 C   0  0  2  0  0  0  0  0  0  0  0  0
  -29.6434  -15.1377   24.5675 C   0  0  0  0  0  0  0  0  0  0  0  0
  -17.5857  -19.8039   21.9098 C   0  0  0  0  0  0  0  0  0  0  0  0
  -27.9577  -22.3313   28.8234 C   0  0  0  0  0  0  0  0  0  0  0  0
  -23.9919  -19.8333   20.2272 C   0  0  0  0  0  0  0  0  0  0  0  0
  -21.8617  -21.0997   20.5837 C   0  0  0  0  0  0  0  0  0  0  0  0
  -21.9691  -19.3046   18.8548 C   0  0  0  0  0  0  0  0  0  0  0  0
  -18.2416  -16.6624   23.9534 C   0  0  0  0  0  0  0  0  0  0  0  0
  -30.7549  -16.1810   24.4878 C   0  0  0  0  0  0  0  0  0  0  0  0
  -29.3888  -20.2482   27.0814 C   0  0  0  0  0  0  0  0  0  0  0  0
  -24.5827  -18.6839   29.7239 C   0  0  0  0  0  0  0  0  0  0  0  0
  -26.3297  -20.5681   29.5433 C   0  0  0  0  0  0  0  0  0  0  0  0
  -28.0049  -20.0429   27.7141 C   0  0  0  0  0  0  0  0  0  0  0  0
  -24.2150  -18.1924   28.3325 C   0  0  0  0  0  0  0  0  0  1  0  0
  -21.9533  -18.6693   21.3019 C   0  0  1  0  0  0  0  0  0  0  0  0
  -18.2915  -18.5054   22.2684 C   0  0  2  0  0  0  0  0  0  0  0  0
  -27.7573  -20.8256   29.0248 C   0  0  1  0  0  0  0  0  0  0  0  0
  -22.4554  -19.7114   20.2629 C   0  0  0  0  0  0  0  0  0  0  0  0
  -27.2862  -24.5751   19.6091 N   0  0  0  0  0  0  0  0  0  0  0  0
  -28.6096  -24.3681   19.5002 N   0  0  0  0  0  0  0  0  0  0  0  0
  -23.2866  -16.7402   22.0921 N   0  0  0  0  0  0  0  0  0  0  0  0
  -28.7672  -20.5673   19.8355 N   0  0  0  0  0  0  0  0  0  0  0  0
  -30.7002  -25.4816   19.4800 N   0  0  0  0  0  0  0  0  0  0  0  0
  -27.7345  -28.8432   20.0276 N   0  0  0  0  0  0  0  0  0  0  0  0
  -29.0721  -20.1836   22.1424 N   0  0  0  0  0  0  0  0  0  0  0  0
  -26.0152  -15.0475   20.5367 N   0  0  0  0  0  0  0  0  0  0  0  0
  -20.5032  -18.5131   21.3386 N   0  0  0  0  0  0  0  0  0  0  0  0
  -17.6602  -17.9520   23.4998 N   0  3  0  0  0  0  0  0  0  0  0  0
  -29.9618  -28.3419   19.8117 O   0  0  0  0  0  0  0  0  0  0  0  0
  -25.9252  -16.9037   21.9397 O   0  0  0  0  0  0  0  0  0  0  0  0
  -26.9237  -18.3179   30.1910 O   0  0  0  0  0  0  0  0  0  0  0  0
  -22.2860  -16.7238   19.9862 O   0  0  0  0  0  0  0  0  0  0  0  0
  -20.2450  -19.0607   23.5771 O   0  0  0  0  0  0  0  0  0  0  0  0
  -29.6144  -18.5515   20.5856 O   0  0  0  0  0  0  0  0  0  0  0  0
  -22.1960  -28.3306   20.3406 O   0  0  0  0  0  0  0  0  0  0  0  0
  -25.0075  -17.0510   28.0078 O   0  0  0  0  0  0  0  0  0  1  0  0
  -18.6012  -25.9921   23.8066 F   0  0  0  0  0  0  0  0  0  0  0  0
  -21.2161  -29.7218   22.5194 F   0  0  0  0  0  0  0  0  0  0  0  0
  1  2  1  0  0  0  0
  1  5  2  0  0  0  0
  2  6  2  0  0  0  0
  3  8  2  0  0  0  0
  3 18  1  0  0  0  0
  4  9  1  0  0  0  0
  4 18  2  0  0  0  0
  5 20  1  0  0  0  0
  6 22  1  0  0  0  0
  7 10  2  0  0  0  0
  7 21  1  0  0  0  0
  8 27  1  0  0  0  0
  9 27  2  0  0  0  0
 10 28  1  0  0  0  0
 11 12  2  0  0  0  0
 11 29  1  0  0  0  0
 12 30  1  0  0  0  0
 13 23  1  0  0  0  0
 13 28  2  0  0  0  0
 14 24  1  0  0  0  0
 14 25  2  0  0  0  0
 15 24  2  0  0  0  0
 15 26  1  0  0  0  0
 16 25  1  0  0  0  0
 16 26  2  0  0  0  0
 17 30  2  0  0  0  0
 17 31  1  0  0  0  0
 18 32  1  0  0  0  0
 19 32  1  0  0  0  0
 19 33  2  0  0  0  0
 19 34  1  0  0  0  0
 20 22  2  0  0  0  0
 20 40  1  0  0  0  0
 21 23  2  0  0  0  0
 21 41  1  0  0  0  0
 22 49  1  0  0  0  0
 23 42  1  0  0  0  0
 24 59  1  0  0  0  0
 25 60  1  0  0  0  0
 26 75  1  0  0  0  0
 27 85  1  0  0  0  0
 28 86  1  0  0  0  0
 29 31  2  0  0  0  0
 29 85  1  0  0  0  0
 30 87  1  0  0  0  0
 31 88  1  0  0  0  0
 32 69  2  0  0  0  0
 33 70  1  0  0  0  0
 33 73  1  0  0  0  0
 34 74  1  0  0  0  0
 34 79  2  0  0  0  0
 35 50  1  0  0  0  0
 35 76  1  0  0  0  0
 35 80  2  0  0  0  0
 36 61  1  0  0  0  0
 36 62  1  0  0  0  0
 36 81  2  0  0  0  0
 37 65  1  0  0  0  0
 37 71  1  0  0  0  0
 37 82  2  0  0  0  0
 38 66  1  0  0  0  0
 38 77  1  0  0  0  0
 38 83  2  0  0  0  0
 39 72  1  0  0  0  0
 39 75  1  0  0  0  0
 39 84  2  0  0  0  0
 40 43  1  0  0  0  0
 41 50  1  0  0  0  0
 42 71  1  0  0  0  0
 43 45  1  0  0  0  0
 44 46  1  0  0  0  0
 44 47  1  0  0  0  0
 45 49  1  0  0  0  0
 46 51  1  0  0  0  0
 47 72  1  0  0  0  0
 48 51  1  0  0  0  0
 48 72  1  0  0  0  0
 49 76  1  0  0  0  0
 50 71  1  0  0  0  0
 51 70  1  0  0  0  0
 52 59  1  0  0  0  0
 53 66  1  0  0  0  0
 54 67  1  0  0  0  0
 55 68  1  0  0  0  0
 56 68  1  0  0  0  0
 57 68  1  0  0  0  0
 58 78  1  0  0  0  0
 60 63  1  0  0  0  0
 61 64  1  0  0  0  0
 62 67  1  0  0  0  0
 63 67  1  0  0  0  0
 64 86  1  0  0  0  0
 65 68  1  0  0  0  0
 65 77  1  0  0  0  0
 66 78  1  0  0  0  0
 69 70  1  0  0  0  0
M  CHG  1  78   1
M  ISO  4  39 100  64 101  75 100  86 101
M  END
> <Batch ID>
0133

> <Smiles>
CCc1cc(CCC(C)CC(=O)C[101CH2:1][101O:1]c2ccc3c(c2)CN(C(=O)C(NC(=O)C(C)NC)C(C)(C)C)C(C(=O)NC2CCCc4ccccc42)C3)cc([100NH:0][100C:0](=O)N2CCCC(n3nc(-c4ccc(Oc5ccc(F)cc5F)cc4)c(C(N)=O)c3N)C2)c1

> <Shape>
0.193

> <Color>
0.052

> <Negative vol penalty>
0.000

$$$$

  -OEChem-04052302303D

 86 94  0     1  0  0  0  0  0999 V2000
  -28.0056  -35.8128   22.2758 C   0  0  0  0  0  0  0  0  0  0  0  0
  -28.2772  -34.4554   22.1379 C   0  0  0  0  0  0  0  0  0  0  0  0
  -24.5572  -14.5236   22.1176 C   0  0  0  0  0  0  0  0  0  0  0  0
  -26.1064  -14.9084   20.3041 C   0  0  0  0  0  0  0  0  0  0  0  0
  -26.8503  -36.2277   22.9369 C   0  0  0  0  0  0  0  0  0  0  0  0
  -27.3941  -33.5120   22.6621 C   0  0  0  0  0  0  0  0  0  0  0  0
  -26.4781  -29.7101   19.4447 C   0  0  0  0  0  0  0  0  0  0  0  0
  -27.6513  -20.7730   14.1377 C   0  0  0  0  0  0  0  0  0  0  0  0
  -26.5710  -19.9151   13.9313 C   0  0  0  0  0  0  0  0  0  0  0  0
  -24.7188  -13.1467   21.9635 C   0  0  0  0  0  0  0  0  0  0  0  0
  -26.2681  -13.5315   20.1500 C   0  0  0  0  0  0  0  0  0  0  0  0
  -27.4553  -28.7221   19.3319 C   0  0  0  0  0  0  0  0  0  0  0  0
  -23.5937  -10.7234   19.8932 C   0  0  0  0  0  0  0  0  0  0  0  0
  -22.4457   -9.9313   19.9074 C   0  0  0  0  0  0  0  0  0  0  0  0
  -26.1759  -27.2977   20.7993 C   0  0  0  0  0  0  0  0  0  0  0  0
  -26.2045  -22.3128   15.3094 C   0  0  0  0  0  0  0  0  0  0  0  0
  -23.2974   -8.7313   21.8235 C   0  0  0  0  0  0  0  0  0  0  0  0
  -25.2510  -15.4045   21.2879 C   0  0  0  0  0  0  0  0  0  0  0  0
  -25.8365  -17.6845   22.2707 C   0  0  0  0  0  0  0  0  0  0  0  0
  -25.9477  -35.2889   23.4609 C   0  0  0  0  0  0  0  0  0  0  0  0
  -25.3459  -29.5033   20.2457 C   0  0  0  0  0  0  0  0  0  0  0  0
  -26.2263  -33.9148   23.3320 C   0  0  0  0  0  0  0  0  0  0  0  0
  -25.1846  -28.2837   20.9186 C   0  0  0  0  0  0  0  0  0  0  0  0
  -27.4681  -21.9719   14.8268 C   0  0  0  0  0  0  0  0  0  0  0  0
  -25.3075  -20.2560   14.4138 C   0  0  0  0  0  0  0  0  0  0  0  0
  -25.1242  -21.4549   15.1029 C   0  0  0  0  0  0  0  0  0  0  0  0
  -25.5743  -12.6507   20.9798 C   0  0  0  0  0  0  0  0  0  0  0  0
  -27.3057  -27.5168   20.0115 C   0  0  0  0  0  0  0  0  0  0  0  0
  -24.5936  -10.5195   20.8442 C   0  0  0  0  0  0  0  0  0  0  0  0
  -22.2975   -8.9352   20.8725 C   0  0  0  0  0  0  0  0  0  0  0  0
  -24.4454   -9.5234   21.8093 C   0  0  0  0  0  0  0  0  0  0  0  0
  -25.0840  -16.8268   21.4462 C   0  0  0  0  0  0  0  0  0  0  0  0
  -25.2882  -18.9269   22.0649 C   0  0  0  0  0  0  0  0  0  0  0  0
  -26.9330  -17.3850   23.1445 C   0  0  0  0  0  0  0  0  0  0  0  0
  -24.1392  -30.9074   22.8295 C   0  0  0  0  0  0  0  0  0  0  0  0
  -21.6685  -28.8723   22.3040 C   0  0  0  0  0  0  0  0  0  0  0  0
  -20.5658  -25.9462   20.9370 C   0  0  0  0  0  0  0  0  0  0  0  0
  -22.2409  -21.3349   17.5079 C   0  0  0  0  0  0  0  0  0  0  0  0
  -24.7360  -35.7859   24.2088 C   0  0  0  0  0  0  0  0  0  0  0  0
  -24.2879  -30.5686   20.3357 C   0  0  0  0  0  0  0  0  0  0  0  0
  -23.9777  -28.0042   21.7752 C   0  0  0  0  0  0  0  0  0  0  0  0
  -23.6627  -34.7186   24.4074 C   0  0  0  0  0  0  0  0  0  0  0  0
  -21.1661  -21.0529   20.8905 C   0  0  0  0  0  0  0  0  0  0  0  0
  -24.2889  -33.4160   24.8951 C   0  0  0  0  0  0  0  0  0  0  0  0
  -22.1162  -20.0152   21.4909 C   0  0  0  0  0  0  0  0  0  0  0  0
  -20.8162  -20.7255   19.4405 C   0  0  0  0  0  0  0  0  0  0  0  0
  -22.9273  -19.4867   19.1539 C   0  0  0  0  0  0  0  0  0  0  0  0
  -25.2803  -32.8609   23.8652 C   0  0  1  0  0  0  0  0  0  0  0  0
  -23.4257  -30.4502   21.5887 C   0  0  1  0  0  0  0  0  0  0  0  0
  -23.3534  -19.8044   20.5974 C   0  0  2  0  0  0  0  0  0  0  0  0
  -24.1658  -19.3221   14.1796 C   0  0  0  0  0  0  0  0  0  0  0  0
  -18.5045  -24.5339   20.7050 C   0  0  0  0  0  0  0  0  0  0  0  0
  -31.4855  -22.8728   17.6748 C   0  0  0  0  0  0  0  0  0  0  0  0
  -21.9823  -27.9439   25.1936 C   0  0  0  0  0  0  0  0  0  0  0  0
  -20.5951  -25.9383   24.6266 C   0  0  0  0  0  0  0  0  0  0  0  0
  -19.6144  -28.2243   24.4393 C   0  0  0  0  0  0  0  0  0  0  0  0
  -20.6072  -26.1652   17.9859 C   0  0  0  0  0  0  0  0  0  0  0  0
  -28.6362  -22.8996   15.0495 C   0  0  0  0  0  0  0  0  0  0  0  0
  -23.7806  -21.8411   15.6284 C   0  0  0  0  0  0  0  0  0  0  0  0
  -29.3625  -22.5844   16.3611 C   0  0  0  0  0  0  0  0  0  0  0  0
  -29.3778  -25.0519   18.3751 C   0  0  0  0  0  0  0  0  0  0  0  0
  -30.1620  -24.9510   17.0655 C   0  0  0  0  0  0  0  0  0  0  0  0
  -28.9903  -26.4945   18.6800 C   0  0  0  0  0  0  0  0  0  1  0  0
  -21.3285  -27.4680   22.7416 C   0  0  1  0  0  0  0  0  0  0  0  0
  -19.3544  -25.6287   20.0791 C   0  0  2  0  0  0  0  0  0  0  0  0
  -30.5547  -23.5199   16.6434 C   0  0  1  0  0  0  0  0  0  0  0  0
  -20.9039  -27.3993   24.2358 C   0  0  0  0  0  0  0  0  0  0  0  0
  -24.1303  -17.4699   20.7672 N   0  0  0  0  0  0  0  0  0  0  0  0
  -24.2798  -18.7449   21.1649 N   0  0  0  0  0  0  0  0  0  0  0  0
  -22.9740  -29.0796   21.8365 N   0  0  0  0  0  0  0  0  0  0  0  0
  -22.0331  -20.5393   18.6467 N   0  0  0  0  0  0  0  0  0  0  0  0
  -25.5752  -20.1464   22.5679 N   0  0  0  0  0  0  0  0  0  0  0  0
  -27.3701  -16.0566   23.2370 N   0  0  0  0  0  0  0  0  0  0  0  0
  -24.5730  -32.2184   22.7783 N   0  0  0  0  0  0  0  0  0  0  0  0
  -20.3158  -26.9840   21.8097 N   0  0  0  0  0  0  0  0  0  0  0  0
  -23.4226  -21.0983   16.8162 N   0  0  0  0  0  0  0  0  0  0  0  0
  -19.7827  -25.1752   18.7256 N   0  3  0  0  0  0  0  0  0  0  0  0
  -27.4976  -18.2666   23.8356 O   0  0  0  0  0  0  0  0  0  0  0  0
  -24.2840  -30.1290   23.7648 O   0  0  0  0  0  0  0  0  0  0  0  0
  -20.8054  -29.7512   22.3678 O   0  0  0  0  0  0  0  0  0  0  0  0
  -21.6265  -25.3322   20.8450 O   0  0  0  0  0  0  0  0  0  0  0  0
  -21.4357  -22.1963   17.1382 O   0  0  0  0  0  0  0  0  0  0  0  0
  -25.7324  -11.3072   20.8293 O   0  0  0  0  0  0  0  0  0  0  0  0
  -28.2582  -26.5510   19.9036 O   0  0  0  0  0  0  0  0  0  1  0  0
  -21.1944   -8.1757   20.8869 F   0  0  0  0  0  0  0  0  0  0  0  0
  -25.4021   -9.3235   22.7262 F   0  0  0  0  0  0  0  0  0  0  0  0
  1  2  1  0  0  0  0
  1  5  2  0  0  0  0
  2  6  2  0  0  0  0
  3 10  2  0  0  0  0
  3 18  1  0  0  0  0
  4 11  1  0  0  0  0
  4 18  2  0  0  0  0
  5 20  1  0  0  0  0
  6 22  1  0  0  0  0
  7 12  2  0  0  0  0
  7 21  1  0  0  0  0
  8  9  2  0  0  0  0
  8 24  1  0  0  0  0
  9 25  1  0  0  0  0
 10 27  1  0  0  0  0
 11 27  2  0  0  0  0
 12 28  1  0  0  0  0
 13 14  2  0  0  0  0
 13 29  1  0  0  0  0
 14 30  1  0  0  0  0
 15 23  1  0  0  0  0
 15 28  2  0  0  0  0
 16 24  2  0  0  0  0
 16 26  1  0  0  0  0
 17 30  2  0  0  0  0
 17 31  1  0  0  0  0
 18 32  1  0  0  0  0
 19 32  1  0  0  0  0
 19 33  2  0  0  0  0
 19 34  1  0  0  0  0
 20 22  2  0  0  0  0
 20 39  1  0  0  0  0
 21 23  2  0  0  0  0
 21 40  1  0  0  0  0
 22 48  1  0  0  0  0
 23 41  1  0  0  0  0
 24 58  1  0  0  0  0
 25 26  2  0  0  0  0
 25 51  1  0  0  0  0
 26 59  1  0  0  0  0
 27 83  1  0  0  0  0
 28 84  1  0  0  0  0
 29 31  2  0  0  0  0
 29 83  1  0  0  0  0
 30 85  1  0  0  0  0
 31 86  1  0  0  0  0
 32 68  2  0  0  0  0
 33 69  1  0  0  0  0
 33 72  1  0  0  0  0
 34 73  1  0  0  0  0
 34 78  2  0  0  0  0
 35 49  1  0  0  0  0
 35 74  1  0  0  0  0
 35 79  2  0  0  0  0
 36 64  1  0  0  0  0
 36 70  1  0  0  0  0
 36 80  2  0  0  0  0
 37 65  1  0  0  0  0
 37 75  1  0  0  0  0
 37 81  2  0  0  0  0
 38 71  1  0  0  0  0
 38 76  1  0  0  0  0
 38 82  2  0  0  0  0
 39 42  1  0  0  0  0
 40 49  1  0  0  0  0
 41 70  1  0  0  0  0
 42 44  1  0  0  0  0
 43 45  1  0  0  0  0
 43 46  1  0  0  0  0
 44 48  1  0  0  0  0
 45 50  1  0  0  0  0
 46 71  1  0  0  0  0
 47 50  1  0  0  0  0
 47 71  1  0  0  0  0
 48 74  1  0  0  0  0
 49 70  1  0  0  0  0
 50 69  1  0  0  0  0
 52 65  1  0  0  0  0
 53 66  1  0  0  0  0
 54 67  1  0  0  0  0
 55 67  1  0  0  0  0
 56 67  1  0  0  0  0
 57 77  1  0  0  0  0
 58 60  1  0  0  0  0
 59 76  1  0  0  0  0
 60 66  1  0  0  0  0
 61 62  1  0  0  0  0
 61 63  1  0  0  0  0
 62 66  1  0  0  0  0
 63 84  1  0  0  0  0
 64 67  1  0  0  0  0
 64 75  1  0  0  0  0
 65 77  1  0  0  0  0
 68 69  1  0  0  0  0
M  CHG  1  77   1
M  ISO  4  38 100  63 101  76 100  84 101
M  END
> <Batch ID>
0133

> <Smiles>
CNC(C)C(=O)NC(C(=O)N1Cc2cc([101O:1][101CH2:1]CCC(C)CCc3ccc(C)c(C[100NH:0][100C:0](=O)N4CCCC(n5nc(-c6ccc(Oc7ccc(F)cc7F)cc6)c(C(N)=O)c5N)C4)c3)ccc2CC1C(=O)NC1CCCc2ccccc21)C(C)(C)C

> <Shape>
0.249

> <Color>
0.073

> <Negative vol penalty>
0.000

$$$$

  -OEChem-04052302303D

 85 93  0     1  0  0  0  0  0999 V2000
  -32.8157  -30.9233   21.2134 C   0  0  0  0  0  0  0  0  0  0  0  0
  -31.9795  -30.0926   20.4743 C   0  0  0  0  0  0  0  0  0  0  0  0
  -25.4328  -16.8202   21.7456 C   0  0  0  0  0  0  0  0  0  0  0  0
  -24.6625  -17.5110   19.5623 C   0  0  0  0  0  0  0  0  0  0  0  0
  -32.4853  -31.2524   22.5273 C   0  0  0  0  0  0  0  0  0  0  0  0
  -30.8128  -29.5897   21.0492 C   0  0  0  0  0  0  0  0  0  0  0  0
  -26.8218  -29.9181   17.9493 C   0  0  0  0  0  0  0  0  0  0  0  0
  -33.2445  -24.0593   16.9064 C   0  0  0  0  0  0  0  0  0  0  0  0
  -32.0398  -23.8792   16.2268 C   0  0  0  0  0  0  0  0  0  0  0  0
  -24.4616  -15.8194   21.7716 C   0  0  0  0  0  0  0  0  0  0  0  0
  -23.6913  -16.5100   19.5883 C   0  0  0  0  0  0  0  0  0  0  0  0
  -26.7235  -28.9667   16.9349 C   0  0  0  0  0  0  0  0  0  0  0  0
  -22.4199  -12.8511   22.2568 C   0  0  0  0  0  0  0  0  0  0  0  0
  -22.8080  -11.5819   22.6859 C   0  0  0  0  0  0  0  0  0  0  0  0
  -25.1278  -27.7313   18.2566 C   0  0  0  0  0  0  0  0  0  0  0  0
  -32.1244  -25.4674   18.5188 C   0  0  0  0  0  0  0  0  0  0  0  0
  -24.4149  -11.4646   20.8856 C   0  0  0  0  0  0  0  0  0  0  0  0
  -25.5332  -17.6661   20.6410 C   0  0  0  0  0  0  0  0  0  0  0  0
  -27.8493  -18.5985   20.1178 C   0  0  0  0  0  0  0  0  0  0  0  0
  -31.3091  -30.7611   23.1154 C   0  0  0  0  0  0  0  0  0  0  0  0
  -26.0809  -29.7772   19.1315 C   0  0  0  0  0  0  0  0  0  0  0  0
  -30.4670  -29.9115   22.3726 C   0  0  0  0  0  0  0  0  0  0  0  0
  -25.2166  -28.6836   19.2834 C   0  0  0  0  0  0  0  0  0  0  0  0
  -33.2868  -24.8533   18.0525 C   0  0  0  0  0  0  0  0  0  0  0  0
  -30.8774  -24.4932   16.6932 C   0  0  0  0  0  0  0  0  0  0  0  0
  -30.9197  -25.2874   17.8392 C   0  0  0  0  0  0  0  0  0  0  0  0
  -23.5909  -15.6642   20.6929 C   0  0  0  0  0  0  0  0  0  0  0  0
  -25.8786  -27.8716   17.0897 C   0  0  0  0  0  0  0  0  0  0  0  0
  -23.0292  -13.4270   21.1421 C   0  0  0  0  0  0  0  0  0  0  0  0
  -23.8055  -10.8887   22.0003 C   0  0  0  0  0  0  0  0  0  0  0  0
  -24.0267  -12.7338   20.4565 C   0  0  0  0  0  0  0  0  0  0  0  0
  -26.5358  -18.7006   20.6138 C   0  0  0  0  0  0  0  0  0  0  0  0
  -28.3905  -19.8446   20.3202 C   0  0  0  0  0  0  0  0  0  0  0  0
  -28.5203  -17.4776   19.5270 C   0  0  0  0  0  0  0  0  0  0  0  0
  -26.8076  -29.4280   22.2062 C   0  0  0  0  0  0  0  0  0  0  0  0
  -27.0023  -25.2969   14.8072 C   0  0  0  0  0  0  0  0  0  0  0  0
  -23.5993  -29.7069   22.5948 C   0  0  0  0  0  0  0  0  0  0  0  0
  -20.4799  -29.4000   21.2450 C   0  0  0  0  0  0  0  0  0  0  0  0
  -28.0125  -25.4083   20.1041 C   0  0  0  0  0  0  0  0  0  0  0  0
  -31.0180  -31.1062   24.5544 C   0  0  0  0  0  0  0  0  0  0  0  0
  -26.1779  -30.8263   20.2051 C   0  0  0  0  0  0  0  0  0  0  0  0
  -24.3843  -28.4970   20.5247 C   0  0  0  0  0  0  0  0  0  0  0  0
  -29.5732  -30.8345   24.9657 C   0  0  0  0  0  0  0  0  0  0  0  0
  -26.6690  -23.7899   22.9768 C   0  0  0  0  0  0  0  0  0  0  0  0
  -29.1308  -29.4568   24.4830 C   0  0  0  0  0  0  0  0  0  0  0  0
  -26.6172  -22.3148   22.5748 C   0  0  0  0  0  0  0  0  0  0  0  0
  -26.3475  -24.7073   21.7991 C   0  0  0  0  0  0  0  0  0  0  0  0
  -27.1150  -23.0035   20.1923 C   0  0  0  0  0  0  0  0  0  0  0  0
  -29.1802  -29.3662   22.9530 C   0  0  1  0  0  0  0  0  0  0  0  0
  -25.7661  -30.3126   21.5813 C   0  0  1  0  0  0  0  0  0  0  0  0
  -27.4871  -22.0411   21.3332 C   0  0  2  0  0  0  0  0  0  0  0  0
  -34.5750  -25.0461   18.7786 C   0  0  0  0  0  0  0  0  0  0  0  0
  -18.0509  -29.6629   21.8180 C   0  0  0  0  0  0  0  0  0  0  0  0
  -23.6870  -27.0878   24.1577 C   0  0  0  0  0  0  0  0  0  0  0  0
  -21.2049  -26.9181   23.8771 C   0  0  0  0  0  0  0  0  0  0  0  0
  -22.1880  -28.8355   25.1340 C   0  0  0  0  0  0  0  0  0  0  0  0
  -20.0975  -31.4809   19.1756 C   0  0  0  0  0  0  0  0  0  0  0  0
  -29.5878  -24.2849   15.9413 C   0  0  0  0  0  0  0  0  0  0  0  0
  -29.6881  -25.9550   18.3569 C   0  0  0  0  0  0  0  0  0  0  0  0
  -28.2011  -24.9485   13.9407 C   0  0  0  0  0  0  0  0  0  0  0  0
  -26.9362  -26.7327   15.2895 C   0  0  0  0  0  0  0  0  0  1  0  0
  -29.5284  -25.1366   14.6720 C   0  0  0  0  0  0  0  0  0  0  0  0
  -22.4376  -28.7430   22.6198 C   0  0  1  0  0  0  0  0  0  0  0  0
  -19.2864  -30.3381   21.2431 C   0  0  2  0  0  0  0  0  0  0  0  0
  -22.3964  -27.8983   23.9244 C   0  0  0  0  0  0  0  0  0  0  0  0
  -26.2593  -19.9154   21.0951 N   0  0  0  0  0  0  0  0  0  0  0  0
  -27.4067  -20.5882   20.9027 N   0  0  0  0  0  0  0  0  0  0  0  0
  -24.5188  -29.5463   21.5486 N   0  0  0  0  0  0  0  0  0  0  0  0
  -27.2082  -24.3971   20.6550 N   0  0  0  0  0  0  0  0  0  0  0  0
  -29.6073  -20.3657   20.0550 N   0  0  0  0  0  0  0  0  0  0  0  0
  -27.8175  -16.2722   19.3944 N   0  0  0  0  0  0  0  0  0  0  0  0
  -28.0376  -30.0361   22.3699 N   0  0  0  0  0  0  0  0  0  0  0  0
  -21.2393  -29.5419   22.3871 N   0  0  0  0  0  0  0  0  0  0  0  0
  -28.8026  -25.0283   19.0262 N   0  0  0  0  0  0  0  0  0  0  0  0
  -18.9770  -30.7799   19.8539 N   0  3  0  0  0  0  0  0  0  0  0  0
  -29.7131  -17.5382   19.1434 O   0  0  0  0  0  0  0  0  0  0  0  0
  -26.5164  -28.2793   22.5181 O   0  0  0  0  0  0  0  0  0  0  0  0
  -26.1384  -24.4732   15.1043 O   0  0  0  0  0  0  0  0  0  0  0  0
  -23.6837  -30.5749   23.4671 O   0  0  0  0  0  0  0  0  0  0  0  0
  -20.7129  -28.6168   20.3269 O   0  0  0  0  0  0  0  0  0  0  0  0
  -28.0295  -26.5630   20.5440 O   0  0  0  0  0  0  0  0  0  0  0  0
  -22.6433  -14.6875   20.7178 O   0  0  0  0  0  0  0  0  0  0  0  0
  -25.7813  -26.9411   16.1014 O   0  0  0  0  0  0  0  0  0  1  0  0
  -24.1792   -9.6705   22.4134 F   0  0  0  0  0  0  0  0  0  0  0  0
  -24.6166  -13.2825   19.3856 F   0  0  0  0  0  0  0  0  0  0  0  0
  1  2  1  0  0  0  0
  1  5  2  0  0  0  0
  2  6  2  0  0  0  0
  3 10  2  0  0  0  0
  3 18  1  0  0  0  0
  4 11  1  0  0  0  0
  4 18  2  0  0  0  0
  5 20  1  0  0  0  0
  6 22  1  0  0  0  0
  7 12  2  0  0  0  0
  7 21  1  0  0  0  0
  8  9  2  0  0  0  0
  8 24  1  0  0  0  0
  9 25  1  0  0  0  0
 10 27  1  0  0  0  0
 11 27  2  0  0  0  0
 12 28  1  0  0  0  0
 13 14  2  0  0  0  0
 13 29  1  0  0  0  0
 14 30  1  0  0  0  0
 15 23  1  0  0  0  0
 15 28  2  0  0  0  0
 16 24  2  0  0  0  0
 16 26  1  0  0  0  0
 17 30  2  0  0  0  0
 17 31  1  0  0  0  0
 18 32  1  0  0  0  0
 19 32  1  0  0  0  0
 19 33  2  0  0  0  0
 19 34  1  0  0  0  0
 20 22  2  0  0  0  0
 20 40  1  0  0  0  0
 21 23  2  0  0  0  0
 21 41  1  0  0  0  0
 22 49  1  0  0  0  0
 23 42  1  0  0  0  0
 24 52  1  0  0  0  0
 25 26  2  0  0  0  0
 25 58  1  0  0  0  0
 26 59  1  0  0  0  0
 27 82  1  0  0  0  0
 28 83  1  0  0  0  0
 29 31  2  0  0  0  0
 29 82  1  0  0  0  0
 30 84  1  0  0  0  0
 31 85  1  0  0  0  0
 32 66  2  0  0  0  0
 33 67  1  0  0  0  0
 33 70  1  0  0  0  0
 34 71  1  0  0  0  0
 34 76  2  0  0  0  0
 35 50  1  0  0  0  0
 35 72  1  0  0  0  0
 35 77  2  0  0  0  0
 36 60  1  0  0  0  0
 36 61  1  0  0  0  0
 36 78  2  0  0  0  0
 37 63  1  0  0  0  0
 37 68  1  0  0  0  0
 37 79  2  0  0  0  0
 38 64  1  0  0  0  0
 38 73  1  0  0  0  0
 38 80  2  0  0  0  0
 39 69  1  0  0  0  0
 39 74  1  0  0  0  0
 39 81  2  0  0  0  0
 40 43  1  0  0  0  0
 41 50  1  0  0  0  0
 42 68  1  0  0  0  0
 43 45  1  0  0  0  0
 44 46  1  0  0  0  0
 44 47  1  0  0  0  0
 45 49  1  0  0  0  0
 46 51  1  0  0  0  0
 47 69  1  0  0  0  0
 48 51  1  0  0  0  0
 48 69  1  0  0  0  0
 49 72  1  0  0  0  0
 50 68  1  0  0  0  0
 51 67  1  0  0  0  0
 53 64  1  0  0  0  0
 54 65  1  0  0  0  0
 55 65  1  0  0  0  0
 56 65  1  0  0  0  0
 57 75  1  0  0  0  0
 58 62  1  0  0  0  0
 59 74  1  0  0  0  0
 60 62  1  0  0  0  0
 61 83  1  0  0  0  0
 63 65  1  0  0  0  0
 63 73  1  0  0  0  0
 64 75  1  0  0  0  0
 66 67  1  0  0  0  0
M  CHG  1  75   1
M  ISO  4  39 100  61 101  74 100  83 101
M  END
> <Batch ID>
0133

> <Smiles>
CNC(C)C(=O)NC(C(=O)N1Cc2cc([101O:1][101CH2:1]C(=O)CCCc3ccc(C)cc3C[100NH:0][100C:0](=O)N3CCCC(n4nc(-c5ccc(Oc6ccc(F)cc6F)cc5)c(C(N)=O)c4N)C3)ccc2CC1C(=O)NC1CCCc2ccccc21)C(C)(C)C

> <Shape>
0.203

> <Color>
0.086

> <Negative vol penalty>
0.000

$$$$

  -OEChem-04052302303D

 89 97  0     1  0  0  0  0  0999 V2000
  -27.4499  -34.3291   24.9324 C   0  0  0  0  0  0  0  0  0  0  0  0
  -28.1694  -33.2286   24.4776 C   0  0  0  0  0  0  0  0  0  0  0  0
  -22.9913   -9.9011   20.0522 C   0  0  0  0  0  0  0  0  0  0  0  0
  -23.6581  -10.0981   22.3660 C   0  0  0  0  0  0  0  0  0  0  0  0
  -26.0815  -34.2146   25.1735 C   0  0  0  0  0  0  0  0  0  0  0  0
  -27.5208  -32.0127   24.2646 C   0  0  0  0  0  0  0  0  0  0  0  0
  -28.7708  -27.8859   19.9158 C   0  0  0  0  0  0  0  0  0  0  0  0
  -22.2116   -8.7895   20.3715 C   0  0  0  0  0  0  0  0  0  0  0  0
  -22.8784   -8.9864   22.6853 C   0  0  0  0  0  0  0  0  0  0  0  0
  -29.5078  -26.7025   19.9297 C   0  0  0  0  0  0  0  0  0  0  0  0
  -23.1149   -5.6230   22.4366 C   0  0  0  0  0  0  0  0  0  0  0  0
  -23.6772   -4.6541   23.2677 C   0  0  0  0  0  0  0  0  0  0  0  0
  -27.4770  -25.4488   20.2805 C   0  0  0  0  0  0  0  0  0  0  0  0
  -29.3188  -19.5810   19.4524 C   0  0  0  0  0  0  0  0  0  0  0  0
  -31.7189  -18.1974   19.7808 C   0  0  0  0  0  0  0  0  0  0  0  0
  -21.9129   -5.0123   24.8788 C   0  0  0  0  0  0  0  0  0  0  0  0
  -23.7146  -10.5554   21.0495 C   0  0  0  0  0  0  0  0  0  0  0  0
  -24.1191  -13.0526   20.7212 C   0  0  0  0  0  0  0  0  0  0  0  0
  -25.4140  -32.9993   24.9542 C   0  0  0  0  0  0  0  0  0  0  0  0
  -27.3803  -27.8605   20.0954 C   0  0  0  0  0  0  0  0  0  0  0  0
  -26.1424  -31.8815   24.5043 C   0  0  0  0  0  0  0  0  0  0  0  0
  -26.7243  -26.6330   20.2660 C   0  0  0  0  0  0  0  0  0  0  0  0
  -29.4438  -18.6327   20.4676 C   0  0  0  0  0  0  0  0  0  0  0  0
  -31.5938  -19.1457   18.7655 C   0  0  0  0  0  0  0  0  0  0  0  0
  -30.6438  -17.9409   20.6318 C   0  0  0  0  0  0  0  0  0  0  0  0
  -30.3938  -19.8375   18.6013 C   0  0  0  0  0  0  0  0  0  0  0  0
  -22.1551   -8.3322   21.6881 C   0  0  0  0  0  0  0  0  0  0  0  0
  -28.8613  -25.4840   20.1150 C   0  0  0  0  0  0  0  0  0  0  0  0
  -21.9516   -6.2865   22.8266 C   0  0  0  0  0  0  0  0  0  0  0  0
  -23.0762   -4.3487   24.4888 C   0  0  0  0  0  0  0  0  0  0  0  0
  -21.3506   -5.9812   24.0477 C   0  0  0  0  0  0  0  0  0  0  0  0
  -24.5207  -11.7034   20.7202 C   0  0  0  0  0  0  0  0  0  0  0  0
  -25.2419  -13.7454   20.3396 C   0  0  0  0  0  0  0  0  0  0  0  0
  -22.8450  -13.6283   21.0390 C   0  0  0  0  0  0  0  0  0  0  0  0
  -25.3753  -29.0523   22.2549 C   0  0  0  0  0  0  0  0  0  0  0  0
  -23.1212  -27.9152   20.2181 C   0  0  0  0  0  0  0  0  0  0  0  0
  -22.2966  -25.7097   17.7477 C   0  0  0  0  0  0  0  0  0  0  0  0
  -30.7357  -14.6709   20.6683 C   0  0  0  0  0  0  0  0  0  0  0  0
  -23.9428  -32.9111   25.2740 C   0  0  0  0  0  0  0  0  0  0  0  0
  -26.5964  -29.1434   20.0511 C   0  0  0  0  0  0  0  0  0  0  0  0
  -25.2309  -26.5499   20.4429 C   0  0  0  0  0  0  0  0  0  0  0  0
  -23.2594  -31.6891   24.6656 C   0  0  0  0  0  0  0  0  0  0  0  0
  -29.6406  -12.1053   18.4558 C   0  0  0  0  0  0  0  0  0  0  0  0
  -24.0946  -30.4355   24.9060 C   0  0  0  0  0  0  0  0  0  0  0  0
  -28.1805  -11.8793   18.8519 C   0  0  0  0  0  0  0  0  0  0  0  0
  -30.5134  -12.4147   19.6701 C   0  0  0  0  0  0  0  0  0  0  0  0
  -28.5746  -13.3033   20.9052 C   0  0  0  0  0  0  0  0  0  0  0  0
  -25.4698  -30.5523   24.2377 C   0  0  1  0  0  0  0  0  0  0  0  0
  -25.2480  -29.0444   20.7578 C   0  0  1  0  0  0  0  0  0  0  0  0
  -27.6450  -13.0431   19.7075 C   0  0  2  0  0  0  0  0  0  0  0  0
  -28.2795  -18.3755   21.3669 C   0  0  0  0  0  0  0  0  0  0  0  0
  -34.9570  -18.3712   13.4052 C   0  0  0  0  0  0  0  0  0  0  0  0
  -29.1552  -20.4347   16.5046 C   0  0  0  0  0  0  0  0  0  0  0  0
  -20.3691  -24.9931   16.3096 C   0  0  0  0  0  0  0  0  0  0  0  0
  -21.9074  -26.4284   22.5900 C   0  0  0  0  0  0  0  0  0  0  0  0
  -20.6216  -25.0253   20.9633 C   0  0  0  0  0  0  0  0  0  0  0  0
  -20.2385  -27.4884   21.0585 C   0  0  0  0  0  0  0  0  0  0  0  0
  -23.7287  -26.4399   15.2628 C   0  0  0  0  0  0  0  0  0  0  0  0
  -32.7581  -19.4028   17.8661 C   0  0  0  0  0  0  0  0  0  0  0  0
  -30.8011  -16.9216   21.7120 C   0  0  0  0  0  0  0  0  0  0  0  0
  -33.7210  -18.2017   14.2742 C   0  0  0  0  0  0  0  0  0  0  0  0
  -32.6419  -18.7168   16.4994 C   0  0  0  0  0  0  0  0  0  0  0  0
  -33.8745  -18.9239   15.6134 C   0  0  0  0  0  0  0  0  0  0  0  0
  -31.0571  -22.8631   18.8999 C   0  0  0  0  0  0  0  0  0  0  0  0
  -29.9219  -22.2873   18.0410 C   0  0  0  0  0  0  0  0  0  0  0  0
  -30.7704  -24.2924   19.3458 C   0  0  0  0  0  0  0  0  0  1  0  0
  -30.2337  -20.8740   17.5026 C   0  0  1  0  0  0  0  0  0  0  0  0
  -22.3867  -26.6059   20.0593 C   0  0  1  0  0  0  0  0  0  0  0  0
  -21.5825  -25.9029   16.4222 C   0  0  2  0  0  0  0  0  0  0  0  0
  -21.3170  -26.3884   21.1664 C   0  0  0  0  0  0  0  0  0  0  0  0
  -25.7988  -11.5461   20.3657 N   0  0  0  0  0  0  0  0  0  0  0  0
  -26.2101  -12.8056   20.1405 N   0  0  0  0  0  0  0  0  0  0  0  0
  -24.5092  -27.8323   20.3984 N   0  0  0  0  0  0  0  0  0  0  0  0
  -29.9514  -13.5286   20.4377 N   0  0  0  0  0  0  0  0  0  0  0  0
  -25.4857  -15.0607   20.1581 N   0  0  0  0  0  0  0  0  0  0  0  0
  -21.7996  -12.7726   21.4123 N   0  0  0  0  0  0  0  0  0  0  0  0
  -25.3617  -30.3158   22.8141 N   0  0  0  0  0  0  0  0  0  0  0  0
  -21.8517  -26.6000   18.7020 N   0  0  0  0  0  0  0  0  0  0  0  0
  -30.1246  -15.6826   21.3989 N   0  0  0  0  0  0  0  0  0  0  0  0
  -22.5027  -25.6014   15.2893 N   0  3  0  0  0  0  0  0  0  0  0  0
  -22.6350  -14.8635   20.9773 O   0  0  0  0  0  0  0  0  0  0  0  0
  -25.4769  -27.9905   22.8582 O   0  0  0  0  0  0  0  0  0  0  0  0
  -22.4878  -28.9729   20.1764 O   0  0  0  0  0  0  0  0  0  0  0  0
  -23.1600  -24.8522   17.9205 O   0  0  0  0  0  0  0  0  0  0  0  0
  -31.8927  -14.7831   20.2493 O   0  0  0  0  0  0  0  0  0  0  0  0
  -21.3942   -7.2476   22.0000 O   0  0  0  0  0  0  0  0  0  0  0  0
  -29.5784  -24.3275   20.1296 O   0  0  0  0  0  0  0  0  0  1  0  0
  -23.6154   -3.4172   25.2861 F   0  0  0  0  0  0  0  0  0  0  0  0
  -20.2323   -6.6145   24.4273 F   0  0  0  0  0  0  0  0  0  0  0  0
  1  2  1  0  0  0  0
  1  5  2  0  0  0  0
  2  6  2  0  0  0  0
  3  8  2  0  0  0  0
  3 17  1  0  0  0  0
  4  9  1  0  0  0  0
  4 17  2  0  0  0  0
  5 19  1  0  0  0  0
  6 21  1  0  0  0  0
  7 10  2  0  0  0  0
  7 20  1  0  0  0  0
  8 27  1  0  0  0  0
  9 27  2  0  0  0  0
 10 28  1  0  0  0  0
 11 12  2  0  0  0  0
 11 29  1  0  0  0  0
 12 30  1  0  0  0  0
 13 22  1  0  0  0  0
 13 28  2  0  0  0  0
 14 23  2  0  0  0  0
 14 26  1  0  0  0  0
 15 24  1  0  0  0  0
 15 25  2  0  0  0  0
 16 30  2  0  0  0  0
 16 31  1  0  0  0  0
 17 32  1  0  0  0  0
 18 32  1  0  0  0  0
 18 33  2  0  0  0  0
 18 34  1  0  0  0  0
 19 21  2  0  0  0  0
 19 39  1  0  0  0  0
 20 22  2  0  0  0  0
 20 40  1  0  0  0  0
 21 48  1  0  0  0  0
 22 41  1  0  0  0  0
 23 25  1  0  0  0  0
 23 51  1  0  0  0  0
 24 26  2  0  0  0  0
 24 59  1  0  0  0  0
 25 60  1  0  0  0  0
 26 67  1  0  0  0  0
 27 86  1  0  0  0  0
 28 87  1  0  0  0  0
 29 31  2  0  0  0  0
 29 86  1  0  0  0  0
 30 88  1  0  0  0  0
 31 89  1  0  0  0  0
 32 71  2  0  0  0  0
 33 72  1  0  0  0  0
 33 75  1  0  0  0  0
 34 76  1  0  0  0  0
 34 81  2  0  0  0  0
 35 49  1  0  0  0  0
 35 77  1  0  0  0  0
 35 82  2  0  0  0  0
 36 68  1  0  0  0  0
 36 73  1  0  0  0  0
 36 83  2  0  0  0  0
 37 69  1  0  0  0  0
 37 78  1  0  0  0  0
 37 84  2  0  0  0  0
 38 74  1  0  0  0  0
 38 79  1  0  0  0  0
 38 85  2  0  0  0  0
 39 42  1  0  0  0  0
 40 49  1  0  0  0  0
 41 73  1  0  0  0  0
 42 44  1  0  0  0  0
 43 45  1  0  0  0  0
 43 46  1  0  0  0  0
 44 48  1  0  0  0  0
 45 50  1  0  0  0  0
 46 74  1  0  0  0  0
 47 50  1  0  0  0  0
 47 74  1  0  0  0  0
 48 77  1  0  0  0  0
 49 73  1  0  0  0  0
 50 72  1  0  0  0  0
 52 61  1  0  0  0  0
 53 67  1  0  0  0  0
 54 69  1  0  0  0  0
 55 70  1  0  0  0  0
 56 70  1  0  0  0  0
 57 70  1  0  0  0  0
 58 80  1  0  0  0  0
 59 62  1  0  0  0  0
 60 79  1  0  0  0  0
 61 63  1  0  0  0  0
 62 63  1  0  0  0  0
 64 65  1  0  0  0  0
 64 66  1  0  0  0  0
 65 67  1  0  0  0  0
 66 87  1  0  0  0  0
 68 70  1  0  0  0  0
 68 78  1  0  0  0  0
 69 80  1  0  0  0  0
 71 72  1  0  0  0  0
M  CHG  1  80   1
M  ISO  4  38 100  66 101  79 100  87 101
M  END
> <Batch ID>
0133

> <Smiles>
CCCCCc1cc(C[100NH:0][100C:0](=O)N2CCCC(n3nc(-c4ccc(Oc5ccc(F)cc5F)cc4)c(C(N)=O)c3N)C2)c(C)cc1C(C)CC[101CH2:1][101O:1]c1ccc2c(c1)CN(C(=O)C(NC(=O)C(C)NC)C(C)(C)C)C(C(=O)NC1CCCc3ccccc31)C2

> <Shape>
0.371

> <Color>
0.210

> <Negative vol penalty>
0.000

$$$$

  -OEChem-04052302303D

 90 98  0     1  0  0  0  0  0999 V2000
  -17.5708  -31.3083   25.1070 C   0  0  0  0  0  0  0  0  0  0  0  0
  -18.8498  -31.0189   25.5716 C   0  0  0  0  0  0  0  0  0  0  0  0
  -24.3357   -9.4550   22.0900 C   0  0  0  0  0  0  0  0  0  0  0  0
  -23.5964   -9.3985   19.7905 C   0  0  0  0  0  0  0  0  0  0  0  0
  -17.0604  -30.6262   24.0033 C   0  0  0  0  0  0  0  0  0  0  0  0
  -19.6188  -30.0465   24.9333 C   0  0  0  0  0  0  0  0  0  0  0  0
  -26.4216  -28.4680   23.3376 C   0  0  0  0  0  0  0  0  0  0  0  0
  -23.2615   -8.6437   22.4553 C   0  0  0  0  0  0  0  0  0  0  0  0
  -22.5222   -8.5872   20.1559 C   0  0  0  0  0  0  0  0  0  0  0  0
  -27.3421  -27.4276   23.4559 C   0  0  0  0  0  0  0  0  0  0  0  0
  -22.4611   -5.3613   22.3225 C   0  0  0  0  0  0  0  0  0  0  0  0
  -22.7183   -4.2933   23.1821 C   0  0  0  0  0  0  0  0  0  0  0  0
  -30.0358  -20.6156   19.9229 C   0  0  0  0  0  0  0  0  0  0  0  0
  -26.3871  -26.3694   21.5098 C   0  0  0  0  0  0  0  0  0  0  0  0
  -32.0220  -21.7761   21.5012 C   0  0  0  0  0  0  0  0  0  0  0  0
  -21.1763   -5.2199   24.7948 C   0  0  0  0  0  0  0  0  0  0  0  0
  -24.5031   -9.8325   20.7576 C   0  0  0  0  0  0  0  0  0  0  0  0
  -30.7326  -19.8397   20.8492 C   0  0  0  0  0  0  0  0  0  0  0  0
  -26.8951  -10.2536   19.9773 C   0  0  0  0  0  0  0  0  0  0  0  0
  -17.8272  -29.6518   23.3452 C   0  0  0  0  0  0  0  0  0  0  0  0
  -25.4683  -28.4614   22.3092 C   0  0  0  0  0  0  0  0  0  0  0  0
  -19.1176  -29.3498   23.8205 C   0  0  0  0  0  0  0  0  0  0  0  0
  -25.4573  -27.4122   21.3791 C   0  0  0  0  0  0  0  0  0  0  0  0
  -31.7256  -20.4199   21.6384 C   0  0  0  0  0  0  0  0  0  0  0  0
  -31.3252  -22.5519   20.5748 C   0  0  0  0  0  0  0  0  0  0  0  0
  -22.3548   -8.2098   21.4882 C   0  0  0  0  0  0  0  0  0  0  0  0
  -27.3231  -26.3766   22.5436 C   0  0  0  0  0  0  0  0  0  0  0  0
  -21.5615   -6.3586   22.6991 C   0  0  0  0  0  0  0  0  0  0  0  0
  -30.3321  -21.9717   19.7857 C   0  0  0  0  0  0  0  0  0  0  0  0
  -22.0759   -4.2225   24.4182 C   0  0  0  0  0  0  0  0  0  0  0  0
  -20.9191   -6.2879   23.9352 C   0  0  0  0  0  0  0  0  0  0  0  0
  -25.6123  -10.6710   20.3797 C   0  0  0  0  0  0  0  0  0  0  0  0
  -27.5741  -11.4215   19.7294 C   0  0  0  0  0  0  0  0  0  0  0  0
  -30.4013  -18.4258   20.9681 C   0  0  0  0  0  0  0  0  0  0  0  0
  -29.1863  -17.9325   21.2830 C   0  0  0  0  0  0  0  0  0  0  0  0
  -27.4255   -8.9287   19.8398 C   0  0  0  0  0  0  0  0  0  0  0  0
  -29.0059  -16.4686   21.3550 C   0  0  0  0  0  0  0  0  0  0  0  0
  -22.2926  -28.3858   22.1948 C   0  0  0  0  0  0  0  0  0  0  0  0
  -27.8971  -23.2180   16.5631 C   0  0  0  0  0  0  0  0  0  0  0  0
  -22.7862  -28.7915   19.0146 C   0  0  0  0  0  0  0  0  0  0  0  0
  -24.8777  -28.4465   16.3400 C   0  0  0  0  0  0  0  0  0  0  0  0
  -17.2147  -28.9075   22.1852 C   0  0  0  0  0  0  0  0  0  0  0  0
  -24.4995  -29.6046   22.1795 C   0  0  0  0  0  0  0  0  0  0  0  0
  -24.4672  -27.3683   20.2449 C   0  0  0  0  0  0  0  0  0  0  0  0
  -18.2366  -28.1563   21.3357 C   0  0  0  0  0  0  0  0  0  0  0  0
  -25.9435  -16.1794   19.3625 C   0  0  0  0  0  0  0  0  0  0  0  0
  -19.2002  -27.3768   22.2249 C   0  0  0  0  0  0  0  0  0  0  0  0
  -25.6689  -14.6812   19.4620 C   0  0  0  0  0  0  0  0  0  0  0  0
  -26.5690  -16.7322   20.6422 C   0  0  0  0  0  0  0  0  0  0  0  0
  -27.5262  -14.5072   21.1650 C   0  0  0  0  0  0  0  0  0  0  0  0
  -19.9918  -28.3191   23.1396 C   0  0  1  0  0  0  0  0  0  0  0  0
  -23.2417  -29.2362   21.3987 C   0  0  1  0  0  0  0  0  0  0  0  0
  -26.9402  -13.9207   19.8711 C   0  0  1  0  0  0  0  0  0  0  0  0
  -32.4922  -19.6191   22.6415 C   0  0  0  0  0  0  0  0  0  0  0  0
  -27.6089  -23.5378   14.0704 C   0  0  0  0  0  0  0  0  0  0  0  0
  -24.9877  -28.8318   13.8628 C   0  0  0  0  0  0  0  0  0  0  0  0
  -21.0400  -26.3316   18.5569 C   0  0  0  0  0  0  0  0  0  0  0  0
  -21.9479  -26.2067   16.2270 C   0  0  0  0  0  0  0  0  0  0  0  0
  -20.6432  -28.2062   16.9497 C   0  0  0  0  0  0  0  0  0  0  0  0
  -27.1428  -30.3311   16.6166 C   0  0  0  0  0  0  0  0  0  0  0  0
  -31.6597  -24.0160   20.4391 C   0  0  0  0  0  0  0  0  0  0  0  0
  -27.3472  -24.1019   15.4552 C   0  0  0  0  0  0  0  0  0  0  0  0
  -27.6432  -23.7122   17.9810 C   0  0  0  0  0  0  0  0  0  0  0  0
  -30.6368  -24.9485   21.0973 C   0  0  0  0  0  0  0  0  0  0  0  0
  -30.5436  -24.7609   22.6123 C   0  0  0  0  0  0  0  0  0  0  0  0
  -28.2281  -22.7973   19.0460 C   0  0  0  0  0  0  0  0  0  0  0  0
  -29.4908  -25.6745   23.2250 C   0  0  0  0  0  0  0  0  0  1  0  0
  -22.9862  -27.8679   17.8373 C   0  0  1  0  0  0  0  0  0  0  0  0
  -25.2724  -29.4138   15.2386 C   0  0  2  0  0  0  0  0  0  0  0  0
  -21.6719  -27.1526   17.4151 C   0  0  0  0  0  0  0  0  0  0  0  0
  -25.4817  -12.0003   20.3885 N   0  0  0  0  0  0  0  0  0  0  0  0
  -26.6912  -12.4282   19.9886 N   0  0  0  0  0  0  0  0  0  0  0  0
  -27.7489  -15.9524   21.0451 N   0  0  0  0  0  0  0  0  0  0  0  0
  -23.5363  -28.5060   20.1641 N   0  0  0  0  0  0  0  0  0  0  0  0
  -28.8343  -11.6753   19.3172 N   0  0  0  0  0  0  0  0  0  0  0  0
  -26.5920   -7.8414   20.1353 N   0  0  0  0  0  0  0  0  0  0  0  0
  -21.0553  -28.9654   22.4008 N   0  0  0  0  0  0  0  0  0  0  0  0
  -23.5923  -28.6748   16.7838 N   0  0  0  0  0  0  0  0  0  0  0  0
  -26.7263  -29.7301   15.3235 N   0  3  0  0  0  0  0  0  0  0  0  0
  -28.6087   -8.7157   19.4817 O   0  0  0  0  0  0  0  0  0  0  0  0
  -29.9795  -15.7915   21.6904 O   0  0  0  0  0  0  0  0  0  0  0  0
  -22.6556  -27.2846   22.5915 O   0  0  0  0  0  0  0  0  0  0  0  0
  -28.5064  -22.1758   16.3280 O   0  0  0  0  0  0  0  0  0  0  0  0
  -21.9988  -29.7359   18.9153 O   0  0  0  0  0  0  0  0  0  0  0  0
  -25.6327  -27.5732   16.7617 O   0  0  0  0  0  0  0  0  0  0  0  0
  -21.3066   -7.4179   21.8443 O   0  0  0  0  0  0  0  0  0  0  0  0
  -28.2200  -25.3595   22.6572 O   0  0  0  0  0  0  0  0  0  1  0  0
  -29.6417  -22.7156   18.8765 O   0  0  0  0  0  0  0  0  0  0  0  0
  -22.3218   -3.1961   25.2429 F   0  0  0  0  0  0  0  0  0  0  0  0
  -20.0530   -7.2424   24.3020 F   0  0  0  0  0  0  0  0  0  0  0  0
  1  2  1  0  0  0  0
  1  5  2  0  0  0  0
  2  6  2  0  0  0  0
  3  8  2  0  0  0  0
  3 17  1  0  0  0  0
  4  9  1  0  0  0  0
  4 17  2  0  0  0  0
  5 20  1  0  0  0  0
  6 22  1  0  0  0  0
  7 10  2  0  0  0  0
  7 21  1  0  0  0  0
  8 26  1  0  0  0  0
  9 26  2  0  0  0  0
 10 27  1  0  0  0  0
 11 12  2  0  0  0  0
 11 28  1  0  0  0  0
 12 30  1  0  0  0  0
 13 18  2  0  0  0  0
 13 29  1  0  0  0  0
 14 23  1  0  0  0  0
 14 27  2  0  0  0  0
 15 24  2  0  0  0  0
 15 25  1  0  0  0  0
 16 30  2  0  0  0  0
 16 31  1  0  0  0  0
 17 32  1  0  0  0  0
 18 24  1  0  0  0  0
 18 34  1  0  0  0  0
 19 32  1  0  0  0  0
 19 33  2  0  0  0  0
 19 36  1  0  0  0  0
 20 22  2  0  0  0  0
 20 42  1  0  0  0  0
 21 23  2  0  0  0  0
 21 43  1  0  0  0  0
 22 51  1  0  0  0  0
 23 44  1  0  0  0  0
 24 54  1  0  0  0  0
 25 29  2  0  0  0  0
 25 61  1  0  0  0  0
 26 86  1  0  0  0  0
 27 87  1  0  0  0  0
 28 31  2  0  0  0  0
 28 86  1  0  0  0  0
 29 88  1  0  0  0  0
 30 89  1  0  0  0  0
 31 90  1  0  0  0  0
 32 71  2  0  0  0  0
 33 72  1  0  0  0  0
 33 75  1  0  0  0  0
 34 35  2  0  0  0  0
 35 37  1  0  0  0  0
 36 76  1  0  0  0  0
 36 80  2  0  0  0  0
 37 73  1  0  0  0  0
 37 81  2  0  0  0  0
 38 52  1  0  0  0  0
 38 77  1  0  0  0  0
 38 82  2  0  0  0  0
 39 62  1  0  0  0  0
 39 63  1  0  0  0  0
 39 83  2  0  0  0  0
 40 68  1  0  0  0  0
 40 74  1  0  0  0  0
 40 84  2  0  0  0  0
 41 69  1  0  0  0  0
 41 78  1  0  0  0  0
 41 85  2  0  0  0  0
 42 45  1  0  0  0  0
 43 52  1  0  0  0  0
 44 74  1  0  0  0  0
 45 47  1  0  0  0  0
 46 48  1  0  0  0  0
 46 49  1  0  0  0  0
 47 51  1  0  0  0  0
 48 53  1  0  0  0  0
 49 73  1  0  0  0  0
 50 53  1  0  0  0  0
 50 73  1  0  0  0  0
 51 77  1  0  0  0  0
 52 74  1  0  0  0  0
 53 72  1  0  0  0  0
 55 62  1  0  0  0  0
 56 69  1  0  0  0  0
 57 70  1  0  0  0  0
 58 70  1  0  0  0  0
 59 70  1  0  0  0  0
 60 79  1  0  0  0  0
 61 64  1  0  0  0  0
 63 66  1  0  0  0  0
 64 65  1  0  0  0  0
 65 67  1  0  0  0  0
 66 88  1  0  0  0  0
 67 87  1  0  0  0  0
 68 70  1  0  0  0  0
 68 78  1  0  0  0  0
 69 79  1  0  0  0  0
 71 72  1  0  0  0  0
M  CHG  1  79   1
M  ISO  4  35 100  37 100  67 101  87 101
M  END
> <Batch ID>
0133

> <Smiles>
CCC(=O)CCOc1cc(C=[100CH:0][100C:0](=O)N2CCCC(n3nc(-c4ccc(Oc5ccc(F)cc5F)cc4)c(C(N)=O)c3N)C2)c(C)cc1CCC[101CH2:1][101O:1]c1ccc2c(c1)CN(C(=O)C(NC(=O)C(C)NC)C(C)(C)C)C(C(=O)NC1CCCc3ccccc31)C2

> <Shape>
0.264

> <Color>
0.101

> <Negative vol penalty>
0.000

$$$$

  -OEChem-04052302303D

 84 92  0     1  0  0  0  0  0999 V2000
  -33.2265  -22.9939   16.5018 C   0  0  0  0  0  0  0  0  0  0  0  0
  -33.2716  -22.2740   17.6914 C   0  0  0  0  0  0  0  0  0  0  0  0
  -25.9513  -26.9611   19.6819 C   0  0  0  0  0  0  0  0  0  0  0  0
  -27.0958  -28.5252   21.1244 C   0  0  0  0  0  0  0  0  0  0  0  0
  -31.9978  -23.2841   15.9101 C   0  0  0  0  0  0  0  0  0  0  0  0
  -32.0879  -21.8449   18.2906 C   0  0  0  0  0  0  0  0  0  0  0  0
  -32.3435  -17.0424   19.8768 C   0  0  0  0  0  0  0  0  0  0  0  0
  -32.9010  -20.8179   27.6448 C   0  0  0  0  0  0  0  0  0  0  0  0
  -31.6350  -18.8733   28.3178 C   0  0  0  0  0  0  0  0  0  0  0  0
  -25.2155  -28.0092   19.1292 C   0  0  0  0  0  0  0  0  0  0  0  0
  -26.3600  -29.5734   20.5716 C   0  0  0  0  0  0  0  0  0  0  0  0
  -33.0259  -16.8009   21.0684 C   0  0  0  0  0  0  0  0  0  0  0  0
  -24.5280  -32.6149   19.7951 C   0  0  0  0  0  0  0  0  0  0  0  0
  -23.9855  -33.5574   20.6685 C   0  0  0  0  0  0  0  0  0  0  0  0
  -31.9343  -21.6451   28.2166 C   0  0  0  0  0  0  0  0  0  0  0  0
  -30.6683  -19.7005   28.8896 C   0  0  0  0  0  0  0  0  0  0  0  0
  -30.9220  -16.6884   22.2432 C   0  0  0  0  0  0  0  0  0  0  0  0
  -22.7113  -31.8164   21.7559 C   0  0  0  0  0  0  0  0  0  0  0  0
  -26.8915  -27.2190   20.6796 C   0  0  0  0  0  0  0  0  0  0  0  0
  -28.8913  -25.6404   20.8061 C   0  0  0  0  0  0  0  0  0  0  0  0
  -30.7989  -22.8499   16.4973 C   0  0  0  0  0  0  0  0  0  0  0  0
  -30.9435  -17.1197   19.8614 C   0  0  0  0  0  0  0  0  0  0  0  0
  -30.8419  -22.1307   17.7069 C   0  0  0  0  0  0  0  0  0  0  0  0
  -30.2242  -16.9284   21.0497 C   0  0  0  0  0  0  0  0  0  0  0  0
  -32.7513  -19.4319   27.6954 C   0  0  0  0  0  0  0  0  0  0  0  0
  -25.4199  -29.3153   19.5740 C   0  0  0  0  0  0  0  0  0  0  0  0
  -32.3152  -16.6267   22.2523 C   0  0  0  0  0  0  0  0  0  0  0  0
  -24.1621  -31.2731   19.9020 C   0  0  0  0  0  0  0  0  0  0  0  0
  -23.0772  -33.1582   21.6489 C   0  0  0  0  0  0  0  0  0  0  0  0
  -23.2538  -30.8739   20.8824 C   0  0  0  0  0  0  0  0  0  0  0  0
  -30.8180  -21.0864   28.8390 C   0  0  0  0  0  0  0  0  0  0  0  0
  -27.6515  -26.1367   21.2514 C   0  0  0  0  0  0  0  0  0  0  0  0
  -29.1865  -24.6213   21.6783 C   0  0  0  0  0  0  0  0  0  0  0  0
  -29.7036  -26.0628   19.7027 C   0  0  0  0  0  0  0  0  0  0  0  0
  -28.8295  -19.3784   19.1311 C   0  0  0  0  0  0  0  0  0  0  0  0
  -26.6940  -16.9781   19.5786 C   0  0  0  0  0  0  0  0  0  0  0  0
  -25.9703  -13.9784   21.0365 C   0  0  0  0  0  0  0  0  0  0  0  0
  -28.7214  -23.3405   27.1964 C   0  0  0  0  0  0  0  0  0  0  0  0
  -29.4926  -23.2284   15.8455 C   0  0  0  0  0  0  0  0  0  0  0  0
  -30.2211  -17.3543   18.5631 C   0  0  0  0  0  0  0  0  0  0  0  0
  -28.7193  -16.9818   21.0831 C   0  0  0  0  0  0  0  0  0  0  0  0
  -28.3029  -22.4144   16.3477 C   0  0  0  0  0  0  0  0  0  0  0  0
  -26.5538  -21.7957   24.7617 C   0  0  0  0  0  0  0  0  0  0  0  0
  -28.3165  -22.3332   17.8709 C   0  0  0  0  0  0  0  0  0  0  0  0
  -26.7372  -22.7210   23.5578 C   0  0  0  0  0  0  0  0  0  0  0  0
  -26.5520  -22.5792   26.0719 C   0  0  0  0  0  0  0  0  0  0  0  0
  -27.9354  -24.3599   25.0745 C   0  0  0  0  0  0  0  0  0  0  0  0
  -29.5808  -21.6265   18.3744 C   0  0  1  0  0  0  0  0  0  0  0  0
  -28.8188  -17.9240   18.7540 C   0  0  1  0  0  0  0  0  0  0  0  0
  -27.9774  -23.6177   23.7271 C   0  0  2  0  0  0  0  0  0  0  0  0
  -24.1315  -12.2840   21.2486 C   0  0  0  0  0  0  0  0  0  0  0  0
  -25.2368  -18.8082   21.5375 C   0  0  0  0  0  0  0  0  0  0  0  0
  -24.0225  -16.7977   22.4044 C   0  0  0  0  0  0  0  0  0  0  0  0
  -23.7391  -17.4942   20.0259 C   0  0  0  0  0  0  0  0  0  0  0  0
  -27.6214  -11.8600   19.7935 C   0  0  0  0  0  0  0  0  0  0  0  0
  -33.7957  -18.5374   27.0767 C   0  0  0  0  0  0  0  0  0  0  0  0
  -33.5301  -18.2013   25.6051 C   0  0  0  0  0  0  0  0  0  0  0  0
  -34.5570  -17.2323   25.0175 C   0  0  0  0  0  0  0  0  0  0  0  0
  -34.2842  -16.9534   23.5456 C   0  0  0  0  0  0  0  0  0  1  0  0
  -25.9187  -16.4431   20.7583 C   0  0  1  0  0  0  0  0  0  0  0  0
  -25.3704  -12.7031   20.4725 C   0  0  2  0  0  0  0  0  0  0  0  0
  -24.7577  -17.3867   21.1816 C   0  0  0  0  0  0  0  0  0  0  0  0
  -27.1906  -25.4863   22.3231 N   0  0  0  0  0  0  0  0  0  0  0  0
  -28.1459  -24.5709   22.5586 N   0  0  0  0  0  0  0  0  0  0  0  0
  -28.0589  -17.2201   19.7891 N   0  0  0  0  0  0  0  0  0  0  0  0
  -27.7584  -23.4082   26.1765 N   0  0  0  0  0  0  0  0  0  0  0  0
  -30.2320  -23.7723   21.7705 N   0  0  0  0  0  0  0  0  0  0  0  0
  -29.2513  -27.1252   18.9083 N   0  0  0  0  0  0  0  0  0  0  0  0
  -29.4586  -20.1938   18.2098 N   0  0  0  0  0  0  0  0  0  0  0  0
  -25.4911  -15.0978   20.3895 N   0  0  0  0  0  0  0  0  0  0  0  0
  -28.5314  -22.3684   28.2386 N   0  0  0  0  0  0  0  0  0  0  0  0
  -26.3622  -11.5924   20.5349 N   0  3  0  0  0  0  0  0  0  0  0  0
  -30.7902  -25.5037   19.4195 O   0  0  0  0  0  0  0  0  0  0  0  0
  -28.3046  -19.7346   20.1795 O   0  0  0  0  0  0  0  0  0  0  0  0
  -26.1117  -17.1673   18.5078 O   0  0  0  0  0  0  0  0  0  0  0  0
  -26.7800  -13.9816   21.9611 O   0  0  0  0  0  0  0  0  0  0  0  0
  -29.7107  -24.0739   27.2132 O   0  0  0  0  0  0  0  0  0  0  0  0
  -28.9220  -21.3480   30.5818 O   0  0  0  0  0  0  0  0  0  0  0  0
  -30.2217  -23.3966   29.9056 O   0  0  0  0  0  0  0  0  0  0  0  0
  -24.7022  -30.3384   19.0346 O   0  0  0  0  0  0  0  0  0  0  0  0
  -32.9788  -16.3915   23.4169 O   0  0  0  0  0  0  0  0  0  1  0  0
  -22.5575  -34.0632   22.4886 F   0  0  0  0  0  0  0  0  0  0  0  0
  -22.8993  -29.5861   20.9907 F   0  0  0  0  0  0  0  0  0  0  0  0
  -29.5942  -22.1343   29.5655 S   0  0  0  0  0  0  0  0  0  0  0  0
  1  2  1  0  0  0  0
  1  5  2  0  0  0  0
  2  6  2  0  0  0  0
  3 10  2  0  0  0  0
  3 19  1  0  0  0  0
  4 11  1  0  0  0  0
  4 19  2  0  0  0  0
  5 21  1  0  0  0  0
  6 23  1  0  0  0  0
  7 12  2  0  0  0  0
  7 22  1  0  0  0  0
  8 15  2  0  0  0  0
  8 25  1  0  0  0  0
  9 16  1  0  0  0  0
  9 25  2  0  0  0  0
 10 26  1  0  0  0  0
 11 26  2  0  0  0  0
 12 27  1  0  0  0  0
 13 14  2  0  0  0  0
 13 28  1  0  0  0  0
 14 29  1  0  0  0  0
 15 31  1  0  0  0  0
 16 31  2  0  0  0  0
 17 24  1  0  0  0  0
 17 27  2  0  0  0  0
 18 29  2  0  0  0  0
 18 30  1  0  0  0  0
 19 32  1  0  0  0  0
 20 32  1  0  0  0  0
 20 33  2  0  0  0  0
 20 34  1  0  0  0  0
 21 23  2  0  0  0  0
 21 39  1  0  0  0  0
 22 24  2  0  0  0  0
 22 40  1  0  0  0  0
 23 48  1  0  0  0  0
 24 41  1  0  0  0  0
 25 56  1  0  0  0  0
 26 80  1  0  0  0  0
 27 81  1  0  0  0  0
 28 30  2  0  0  0  0
 28 80  1  0  0  0  0
 29 82  1  0  0  0  0
 30 83  1  0  0  0  0
 31 84  1  0  0  0  0
 32 63  2  0  0  0  0
 33 64  1  0  0  0  0
 33 67  1  0  0  0  0
 34 68  1  0  0  0  0
 34 73  2  0  0  0  0
 35 49  1  0  0  0  0
 35 69  1  0  0  0  0
 35 74  2  0  0  0  0
 36 60  1  0  0  0  0
 36 65  1  0  0  0  0
 36 75  2  0  0  0  0
 37 61  1  0  0  0  0
 37 70  1  0  0  0  0
 37 76  2  0  0  0  0
 38 66  1  0  0  0  0
 38 71  1  0  0  0  0
 38 77  2  0  0  0  0
 39 42  1  0  0  0  0
 40 49  1  0  0  0  0
 41 65  1  0  0  0  0
 42 44  1  0  0  0  0
 43 45  1  0  0  0  0
 43 46  1  0  0  0  0
 44 48  1  0  0  0  0
 45 50  1  0  0  0  0
 46 66  1  0  0  0  0
 47 50  1  0  0  0  0
 47 66  1  0  0  0  0
 48 69  1  0  0  0  0
 49 65  1  0  0  0  0
 50 64  1  0  0  0  0
 51 61  1  0  0  0  0
 52 62  1  0  0  0  0
 53 62  1  0  0  0  0
 54 62  1  0  0  0  0
 55 72  1  0  0  0  0
 56 57  1  0  0  0  0
 57 58  1  0  0  0  0
 58 59  1  0  0  0  0
 59 81  1  0  0  0  0
 60 62  1  0  0  0  0
 60 70  1  0  0  0  0
 61 72  1  0  0  0  0
 63 64  1  0  0  0  0
 71 84  1  0  0  0  0
 78 84  2  0  0  0  0
 79 84  2  0  0  0  0
M  CHG  1  72   1
M  ISO  4  38 100  59 101  71 100  81 101
M  END
> <Batch ID>
0133

> <Smiles>
CNC(C)C(=O)NC(C(=O)N1Cc2cc([101O:1][101CH2:1]CCCc3ccc(S(=O)(=O)[100NH:0][100C:0](=O)N4CCCC(n5nc(-c6ccc(Oc7ccc(F)cc7F)cc6)c(C(N)=O)c5N)C4)cc3)ccc2CC1C(=O)NC1CCCc2ccccc21)C(C)(C)C

> <Shape>
0.189

> <Color>
0.059

> <Negative vol penalty>
0.000

$$$$

  -OEChem-04052302303D

 86 95  0     1  0  0  0  0  0999 V2000
  -32.1039   -7.1634   34.4022 C   0  0  0  0  0  0  0  0  0  0  0  0
  -31.3942   -7.8152   33.3987 C   0  0  0  0  0  0  0  0  0  0  0  0
  -22.8608  -10.0528   20.0419 C   0  0  0  0  0  0  0  0  0  0  0  0
  -24.2951   -9.4517   21.8909 C   0  0  0  0  0  0  0  0  0  0  0  0
  -31.4558   -6.7777   35.5749 C   0  0  0  0  0  0  0  0  0  0  0  0
  -30.0356   -8.0807   33.5670 C   0  0  0  0  0  0  0  0  0  0  0  0
  -28.7879  -12.7851   32.1681 C   0  0  0  0  0  0  0  0  0  0  0  0
  -22.1622   -8.8552   20.1945 C   0  0  0  0  0  0  0  0  0  0  0  0
  -23.5965   -8.2541   22.0434 C   0  0  0  0  0  0  0  0  0  0  0  0
  -28.6591  -13.0300   30.8016 C   0  0  0  0  0  0  0  0  0  0  0  0
  -20.6732   -7.2326   23.3967 C   0  0  0  0  0  0  0  0  0  0  0  0
  -20.3169   -6.8522   24.6905 C   0  0  0  0  0  0  0  0  0  0  0  0
  -29.2703  -13.2324   25.5702 C   0  0  0  0  0  0  0  0  0  0  0  0
  -26.2619  -12.8502   31.0014 C   0  0  0  0  0  0  0  0  0  0  0  0
  -28.6663  -15.3526   26.5586 C   0  0  0  0  0  0  0  0  0  0  0  0
  -30.9892  -14.8277   26.1512 C   0  0  0  0  0  0  0  0  0  0  0  0
  -21.6044   -4.8222   24.4481 C   0  0  0  0  0  0  0  0  0  0  0  0
  -23.9273  -10.3511   20.8901 C   0  0  0  0  0  0  0  0  0  0  0  0
  -24.1310  -12.8931   20.8266 C   0  0  0  0  0  0  0  0  0  0  0  0
  -30.0909   -7.0473   35.7616 C   0  0  0  0  0  0  0  0  0  0  0  0
  -27.6533  -12.5597   32.9608 C   0  0  0  0  0  0  0  0  0  0  0  0
  -29.3684   -7.6971   34.7427 C   0  0  0  0  0  0  0  0  0  0  0  0
  -28.2947  -14.1141   26.0355 C   0  0  0  0  0  0  0  0  0  0  0  0
  -26.3787  -12.6052   32.3782 C   0  0  0  0  0  0  0  0  0  0  0  0
  -30.6176  -13.5892   25.6281 C   0  0  0  0  0  0  0  0  0  0  0  0
  -22.5300   -7.9558   21.1952 C   0  0  0  0  0  0  0  0  0  0  0  0
  -27.3962  -13.0598   30.2175 C   0  0  0  0  0  0  0  0  0  0  0  0
  -21.4950   -6.4078   22.6285 C   0  0  0  0  0  0  0  0  0  0  0  0
  -20.7825   -5.6470   25.2163 C   0  0  0  0  0  0  0  0  0  0  0  0
  -30.0136  -15.7095   26.6164 C   0  0  0  0  0  0  0  0  0  0  0  0
  -21.9606   -5.2026   23.1543 C   0  0  0  0  0  0  0  0  0  0  0  0
  -24.6497  -11.5878   20.7327 C   0  0  0  0  0  0  0  0  0  0  0  0
  -25.2122  -13.7093   20.6001 C   0  0  0  0  0  0  0  0  0  0  0  0
  -22.7916  -13.3289   21.0947 C   0  0  0  0  0  0  0  0  0  0  0  0
  -26.5904  -10.1333   34.7176 C   0  0  0  0  0  0  0  0  0  0  0  0
  -31.1169  -12.8310   21.2894 C   0  0  0  0  0  0  0  0  0  0  0  0
  -24.2954  -12.2625   35.5673 C   0  0  0  0  0  0  0  0  0  0  0  0
  -22.5297  -15.0799   34.7986 C   0  0  0  0  0  0  0  0  0  0  0  0
  -29.4229   -6.5690   37.0264 C   0  0  0  0  0  0  0  0  0  0  0  0
  -27.8075  -12.3234   34.4382 C   0  0  0  0  0  0  0  0  0  0  0  0
  -25.1280  -12.3897   33.1890 C   0  0  0  0  0  0  0  0  0  0  0  0
  -28.0669   -7.2215   37.2833 C   0  0  0  0  0  0  0  0  0  0  0  0
  -25.7899  -12.0308   24.5416 C   0  0  0  0  0  0  0  0  0  0  0  0
  -29.4017  -13.8381   18.3089 C   0  0  0  0  0  0  0  0  0  0  0  0
  -26.3142  -13.4629   24.5422 C   0  0  0  0  0  0  0  0  0  0  0  0
  -27.2231   -7.2170   36.0126 C   0  0  0  0  0  0  0  0  0  0  0  0
  -25.3815  -11.7890   25.9848 C   0  0  0  0  0  0  0  0  0  0  0  0
  -27.9460  -13.4677   18.5898 C   0  0  0  0  0  0  0  0  0  0  0  0
  -30.3642  -12.8333   18.9341 C   0  0  0  0  0  0  0  0  0  0  0  0
  -28.7115  -12.2645   20.6854 C   0  0  0  0  0  0  0  0  0  0  0  0
  -26.8325  -13.7267   25.9732 C   0  0  1  0  0  0  0  0  0  0  0  0
  -27.8993   -8.0250   34.8985 C   0  0  1  0  0  0  0  0  0  0  0  0
  -26.6158  -11.5973   35.0548 C   0  0  1  0  0  0  0  0  0  0  0  0
  -26.5201  -12.4377   26.7695 C   0  0  1  0  0  0  0  0  0  0  0  0
  -27.7067  -13.2710   20.0973 C   0  0  2  0  0  0  0  0  0  0  0  0
  -20.6946  -16.5535   35.6693 C   0  0  0  0  0  0  0  0  0  0  0  0
  -22.2291  -10.1788   34.7315 C   0  0  0  0  0  0  0  0  0  0  0  0
  -20.5065  -11.9956   34.7144 C   0  0  0  0  0  0  0  0  0  0  0  0
  -21.6770  -11.4091   36.8377 C   0  0  0  0  0  0  0  0  0  0  0  0
  -24.3236  -17.4298   34.9358 C   0  0  0  0  0  0  0  0  0  0  0  0
  -31.6610  -12.6467   25.1309 C   0  0  0  0  0  0  0  0  0  0  0  0
  -30.7568  -12.6371   22.7409 C   0  0  0  0  0  0  0  0  0  0  0  0
  -26.1515  -12.7038   28.2226 C   0  0  0  0  0  0  0  0  0  1  0  0
  -31.9705  -12.8569   23.6386 C   0  0  0  0  0  0  0  0  0  0  0  0
  -22.9381  -12.6437   35.0274 C   0  0  1  0  0  0  0  0  0  0  0  0
  -22.1954  -16.3139   35.6171 C   0  0  2  0  0  0  0  0  0  0  0  0
  -21.8612  -11.5590   35.3119 C   0  0  0  0  0  0  0  0  0  0  0  0
  -25.9585  -11.5709   20.4671 N   0  0  0  0  0  0  0  0  0  0  0  0
  -26.2714  -12.8757   20.3921 N   0  0  0  0  0  0  0  0  0  0  0  0
  -25.3312  -12.1561   34.6284 N   0  0  0  0  0  0  0  0  0  0  0  0
  -30.0899  -12.6577   20.3614 N   0  0  0  0  0  0  0  0  0  0  0  0
  -25.3506  -15.0516   20.5606 N   0  0  0  0  0  0  0  0  0  0  0  0
  -22.4125  -13.5425   22.4269 N   0  0  0  0  0  0  0  0  0  0  0  0
  -27.7176   -9.4434   35.1212 N   0  0  0  0  0  0  0  0  0  0  0  0
  -22.6290  -13.9543   35.5888 N   0  0  0  0  0  0  0  0  0  0  0  0
  -22.8435  -17.5188   35.0261 N   0  3  0  0  0  0  0  0  0  0  0  0
  -21.9508  -13.5073   20.1810 O   0  0  0  0  0  0  0  0  0  0  0  0
  -25.6193   -9.6641   34.1358 O   0  0  0  0  0  0  0  0  0  0  0  0
  -32.2761  -13.1306   20.9916 O   0  0  0  0  0  0  0  0  0  0  0  0
  -24.4331  -12.0733   36.7784 O   0  0  0  0  0  0  0  0  0  0  0  0
  -22.6834  -15.1108   33.5796 O   0  0  0  0  0  0  0  0  0  0  0  0
  -21.8484   -6.7872   21.3445 O   0  0  0  0  0  0  0  0  0  0  0  0
  -27.2677  -13.2980   28.8839 O   0  0  0  0  0  0  0  0  0  1  0  0
  -20.4416   -5.2826   26.4593 F   0  0  0  0  0  0  0  0  0  0  0  0
  -30.3702  -16.8983   27.1197 F   0  0  0  0  0  0  0  0  0  0  0  0
  -22.7514   -4.4066   22.4216 F   0  0  0  0  0  0  0  0  0  0  0  0
  1  2  1  0  0  0  0
  1  5  2  0  0  0  0
  2  6  2  0  0  0  0
  3  8  2  0  0  0  0
  3 18  1  0  0  0  0
  4  9  1  0  0  0  0
  4 18  2  0  0  0  0
  5 20  1  0  0  0  0
  6 22  1  0  0  0  0
  7 10  2  0  0  0  0
  7 21  1  0  0  0  0
  8 26  1  0  0  0  0
  9 26  2  0  0  0  0
 10 27  1  0  0  0  0
 11 12  2  0  0  0  0
 11 28  1  0  0  0  0
 12 29  1  0  0  0  0
 13 23  2  0  0  0  0
 13 25  1  0  0  0  0
 14 24  1  0  0  0  0
 14 27  2  0  0  0  0
 15 23  1  0  0  0  0
 15 30  2  0  0  0  0
 16 25  2  0  0  0  0
 16 30  1  0  0  0  0
 17 29  2  0  0  0  0
 17 31  1  0  0  0  0
 18 32  1  0  0  0  0
 19 32  1  0  0  0  0
 19 33  2  0  0  0  0
 19 34  1  0  0  0  0
 20 22  2  0  0  0  0
 20 39  1  0  0  0  0
 21 24  2  0  0  0  0
 21 40  1  0  0  0  0
 22 52  1  0  0  0  0
 23 51  1  0  0  0  0
 24 41  1  0  0  0  0
 25 61  1  0  0  0  0
 26 82  1  0  0  0  0
 27 83  1  0  0  0  0
 28 31  2  0  0  0  0
 28 82  1  0  0  0  0
 29 84  1  0  0  0  0
 30 85  1  0  0  0  0
 31 86  1  0  0  0  0
 32 68  2  0  0  0  0
 33 69  1  0  0  0  0
 33 72  1  0  0  0  0
 34 73  1  0  0  0  0
 34 77  2  0  0  0  0
 35 53  1  0  0  0  0
 35 74  1  0  0  0  0
 35 78  2  0  0  0  0
 36 62  1  0  0  0  0
 36 71  1  0  0  0  0
 36 79  2  0  0  0  0
 37 65  1  0  0  0  0
 37 70  1  0  0  0  0
 37 80  2  0  0  0  0
 38 66  1  0  0  0  0
 38 75  1  0  0  0  0
 38 81  2  0  0  0  0
 39 42  1  0  0  0  0
 40 53  1  0  0  0  0
 41 70  1  0  0  0  0
 42 46  1  0  0  0  0
 43 45  1  0  0  0  0
 43 47  1  0  0  0  0
 44 48  1  0  0  0  0
 44 49  1  0  0  0  0
 45 51  1  0  0  0  0
 46 52  1  0  0  0  0
 47 54  1  0  0  0  0
 48 55  1  0  0  0  0
 49 71  1  0  0  0  0
 50 55  1  0  0  0  0
 50 71  1  0  0  0  0
 51 54  1  0  0  0  0
 52 74  1  0  0  0  0
 53 70  1  0  0  0  0
 54 63  1  0  0  0  0
 55 69  1  0  0  0  0
 56 66  1  0  0  0  0
 57 67  1  0  0  0  0
 58 67  1  0  0  0  0
 59 67  1  0  0  0  0
 60 76  1  0  0  0  0
 61 64  1  0  0  0  0
 62 64  1  0  0  0  0
 63 83  1  0  0  0  0
 65 67  1  0  0  0  0
 65 75  1  0  0  0  0
 66 76  1  0  0  0  0
 68 69  1  0  0  0  0
M  CHG  1  76   1
M  ISO  4  36 100  62 100  63 101  83 101
M  END
> <Batch ID>
0133

> <Smiles>
CNC(C)C(=O)NC(C(=O)N1Cc2cc([101O:1][101CH2:1]C3CCCC3c3cc(F)cc(CC[100CH2:0][100C:0](=O)N4CCCC(n5nc(-c6ccc(Oc7ccc(F)cc7F)cc6)c(C(N)=O)c5N)C4)c3)ccc2CC1C(=O)NC1CCCc2ccccc21)C(C)(C)C

> <Shape>
0.149

> <Color>
0.167

> <Negative vol penalty>
0.000

$$$$

  -OEChem-04052302303D

 86 94  0     1  0  0  0  0  0999 V2000
  -33.8006  -27.4516   18.5540 C   0  0  0  0  0  0  0  0  0  0  0  0
  -32.6112  -26.9548   19.0774 C   0  0  0  0  0  0  0  0  0  0  0  0
  -29.0082  -18.2998   18.5776 C   0  0  0  0  0  0  0  0  0  0  0  0
  -23.0859   -9.8596   20.4963 C   0  0  0  0  0  0  0  0  0  0  0  0
  -23.8485  -10.2798   22.7499 C   0  0  0  0  0  0  0  0  0  0  0  0
  -29.7086  -17.2980   19.2495 C   0  0  0  0  0  0  0  0  0  0  0  0
  -34.3786  -28.5953   19.1034 C   0  0  0  0  0  0  0  0  0  0  0  0
  -31.9998  -27.6007   20.1513 C   0  0  0  0  0  0  0  0  0  0  0  0
  -27.0021  -28.1173   19.5175 C   0  0  0  0  0  0  0  0  0  0  0  0
  -27.9434  -18.9470   19.2046 C   0  0  0  0  0  0  0  0  0  0  0  0
  -22.3548   -8.7612   20.9485 C   0  0  0  0  0  0  0  0  0  0  0  0
  -23.1174   -9.1814   23.2022 C   0  0  0  0  0  0  0  0  0  0  0  0
  -26.2110  -26.9936   19.7523 C   0  0  0  0  0  0  0  0  0  0  0  0
  -19.8988   -8.4693   23.9464 C   0  0  0  0  0  0  0  0  0  0  0  0
  -19.1438   -8.6292   25.1083 C   0  0  0  0  0  0  0  0  0  0  0  0
  -25.6496  -27.8525   21.9355 C   0  0  0  0  0  0  0  0  0  0  0  0
  -20.4069   -6.8654   26.1718 C   0  0  0  0  0  0  0  0  0  0  0  0
  -23.8328  -10.6189   21.3970 C   0  0  0  0  0  0  0  0  0  0  0  0
  -29.3442  -16.9433   20.5484 C   0  0  0  0  0  0  0  0  0  0  0  0
  -24.1473  -13.0864   20.8314 C   0  0  0  0  0  0  0  0  0  0  0  0
  -33.7689  -29.2611   20.1784 C   0  0  0  0  0  0  0  0  0  0  0  0
  -27.1318  -29.1135   20.4959 C   0  0  0  0  0  0  0  0  0  0  0  0
  -32.5709  -28.7536   20.7165 C   0  0  0  0  0  0  0  0  0  0  0  0
  -26.4409  -28.9891   21.7096 C   0  0  0  0  0  0  0  0  0  0  0  0
  -27.5790  -18.5923   20.5035 C   0  0  0  0  0  0  0  0  0  0  0  0
  -28.2794  -17.5904   21.1754 C   0  0  0  0  0  0  0  0  0  0  0  0
  -22.3705   -8.4221   22.3015 C   0  0  0  0  0  0  0  0  0  0  0  0
  -25.5369  -26.8596   20.9625 C   0  0  0  0  0  0  0  0  0  0  0  0
  -20.9078   -7.5074   23.8971 C   0  0  0  0  0  0  0  0  0  0  0  0
  -19.3978   -7.8273   26.2210 C   0  0  0  0  0  0  0  0  0  0  0  0
  -21.1618   -6.7055   25.0098 C   0  0  0  0  0  0  0  0  0  0  0  0
  -24.5887  -11.7533   20.9304 C   0  0  0  0  0  0  0  0  0  0  0  0
  -25.2309  -13.7711   20.3379 C   0  0  0  0  0  0  0  0  0  0  0  0
  -30.0952  -15.8940   21.2252 C   0  0  0  0  0  0  0  0  0  0  0  0
  -22.8719  -13.6550   21.1565 C   0  0  0  0  0  0  0  0  0  0  0  0
  -30.7295  -14.7911   20.4673 C   0  0  0  0  0  0  0  0  0  0  0  0
  -29.5521  -30.3043   22.1775 C   0  0  0  0  0  0  0  0  0  0  0  0
  -27.3012  -32.4075   23.1937 C   0  0  0  0  0  0  0  0  0  0  0  0
  -23.9979  -33.0902   23.7121 C   0  0  0  0  0  0  0  0  0  0  0  0
  -34.4560  -30.4666   20.7694 C   0  0  0  0  0  0  0  0  0  0  0  0
  -27.9677  -30.3324   20.2167 C   0  0  0  0  0  0  0  0  0  0  0  0
  -26.5308  -30.0401   22.7847 C   0  0  0  0  0  0  0  0  0  0  0  0
  -33.5486  -31.3072   21.6641 C   0  0  0  0  0  0  0  0  0  0  0  0
  -29.5807  -12.1075   18.3852 C   0  0  0  0  0  0  0  0  0  0  0  0
  -32.7721  -30.4141   22.6265 C   0  0  0  0  0  0  0  0  0  0  0  0
  -28.1563  -11.8605   18.8813 C   0  0  0  0  0  0  0  0  0  0  0  0
  -30.5040  -12.5263   19.5246 C   0  0  0  0  0  0  0  0  0  0  0  0
  -28.5918  -13.4757   20.7858 C   0  0  0  0  0  0  0  0  0  0  0  0
  -31.8644  -29.4405   21.8650 C   0  0  1  0  0  0  0  0  0  0  0  0
  -28.4383  -31.0375   21.4850 C   0  0  1  0  0  0  0  0  0  0  0  0
  -27.6235  -13.0776   19.6582 C   0  0  2  0  0  0  0  0  0  0  0  0
  -28.3702  -18.2274   23.5987 C   0  0  0  0  0  0  0  0  0  0  0  0
  -22.4697  -34.8768   24.5897 C   0  0  0  0  0  0  0  0  0  0  0  0
  -28.0734  -31.6617   26.0499 C   0  0  0  0  0  0  0  0  0  0  0  0
  -25.9384  -32.7131   26.8275 C   0  0  0  0  0  0  0  0  0  0  0  0
  -27.6659  -34.1017   25.6828 C   0  0  0  0  0  0  0  0  0  0  0  0
  -22.6319  -33.3667   21.1013 C   0  0  0  0  0  0  0  0  0  0  0  0
  -26.4256  -19.3088   21.1593 C   0  0  0  0  0  0  0  0  0  0  0  0
  -27.8860  -17.2128   22.5689 C   0  0  0  0  0  0  0  0  0  0  0  0
  -26.5923  -20.8317   21.2131 C   0  0  0  0  0  0  0  0  0  0  0  0
  -25.4164  -21.5399   21.8951 C   0  0  0  0  0  0  0  0  0  0  0  0
  -25.6411  -23.0532   21.9520 C   0  0  0  0  0  0  0  0  0  0  0  0
  -24.4651  -23.8167   22.5618 C   0  0  0  0  0  0  0  0  0  0  0  0
  -24.6435  -25.3290   22.5484 C   0  0  0  0  0  0  0  0  0  1  0  0
  -26.3119  -32.4470   24.3334 C   0  0  1  0  0  0  0  0  0  0  0  0
  -23.1518  -34.3002   23.3589 C   0  0  2  0  0  0  0  0  0  0  0  0
  -26.9970  -32.7099   25.7041 C   0  0  0  0  0  0  0  0  0  0  0  0
  -25.8540  -11.5981   20.5317 N   0  0  0  0  0  0  0  0  0  0  0  0
  -30.2598  -15.8547   22.5184 N   0  0  0  0  0  0  0  0  0  0  0  0
  -26.2169  -12.8426   20.1773 N   0  0  0  0  0  0  0  0  0  0  0  0
  -29.9515  -13.6601   20.2632 N   0  0  0  0  0  0  0  0  0  0  0  0
  -27.3656  -31.2104   22.4667 N   0  0  0  0  0  0  0  0  0  0  0  0
  -25.4269  -15.0708   20.0300 N   0  0  0  0  0  0  0  0  0  0  0  0
  -21.8703  -12.8094   21.6524 N   0  0  0  0  0  0  0  0  0  0  0  0
  -30.6760  -30.1198   21.3952 N   0  0  0  0  0  0  0  0  0  0  0  0
  -25.3071  -33.4394   23.9674 N   0  0  0  0  0  0  0  0  0  0  0  0
  -22.1008  -33.9266   22.3706 N   0  3  0  0  0  0  0  0  0  0  0  0
  -22.6225  -14.8739   20.9962 O   0  0  0  0  0  0  0  0  0  0  0  0
  -31.8790  -14.9963   20.1002 O   0  0  0  0  0  0  0  0  0  0  0  0
  -29.4033  -29.9347   23.3364 O   0  0  0  0  0  0  0  0  0  0  0  0
  -27.9863  -33.4046   22.9529 O   0  0  0  0  0  0  0  0  0  0  0  0
  -23.5420  -31.9499   23.7606 O   0  0  0  0  0  0  0  0  0  0  0  0
  -21.6570   -7.3504   22.7431 O   0  0  0  0  0  0  0  0  0  0  0  0
  -24.7646  -25.7635   21.1945 O   0  0  0  0  0  0  0  0  0  1  0  0
  -18.6737   -7.9819   27.3372 F   0  0  0  0  0  0  0  0  0  0  0  0
  -22.1306   -5.7806   24.9689 F   0  0  0  0  0  0  0  0  0  0  0  0
  1  2  1  0  0  0  0
  1  7  2  0  0  0  0
  2  8  2  0  0  0  0
  3  6  2  0  0  0  0
  3 10  1  0  0  0  0
  4 11  2  0  0  0  0
  4 18  1  0  0  0  0
  5 12  1  0  0  0  0
  5 18  2  0  0  0  0
  6 19  1  0  0  0  0
  7 21  1  0  0  0  0
  8 23  1  0  0  0  0
  9 13  2  0  0  0  0
  9 22  1  0  0  0  0
 10 25  2  0  0  0  0
 11 27  1  0  0  0  0
 12 27  2  0  0  0  0
 13 28  1  0  0  0  0
 14 15  2  0  0  0  0
 14 29  1  0  0  0  0
 15 30  1  0  0  0  0
 16 24  1  0  0  0  0
 16 28  2  0  0  0  0
 17 30  2  0  0  0  0
 17 31  1  0  0  0  0
 18 32  1  0  0  0  0
 19 26  2  0  0  0  0
 19 34  1  0  0  0  0
 20 32  1  0  0  0  0
 20 33  2  0  0  0  0
 20 35  1  0  0  0  0
 21 23  2  0  0  0  0
 21 40  1  0  0  0  0
 22 24  2  0  0  0  0
 22 41  1  0  0  0  0
 23 49  1  0  0  0  0
 24 42  1  0  0  0  0
 25 26  1  0  0  0  0
 25 58  1  0  0  0  0
 26 59  1  0  0  0  0
 27 83  1  0  0  0  0
 28 84  1  0  0  0  0
 29 31  2  0  0  0  0
 29 83  1  0  0  0  0
 30 85  1  0  0  0  0
 31 86  1  0  0  0  0
 32 68  2  0  0  0  0
 33 70  1  0  0  0  0
 33 73  1  0  0  0  0
 34 36  1  0  0  0  0
 34 69  2  0  0  0  0
 35 74  1  0  0  0  0
 35 78  2  0  0  0  0
 36 71  1  0  0  0  0
 36 79  2  0  0  0  0
 37 50  1  0  0  0  0
 37 75  1  0  0  0  0
 37 80  2  0  0  0  0
 38 65  1  0  0  0  0
 38 72  1  0  0  0  0
 38 81  2  0  0  0  0
 39 66  1  0  0  0  0
 39 76  1  0  0  0  0
 39 82  2  0  0  0  0
 40 43  1  0  0  0  0
 41 50  1  0  0  0  0
 42 72  1  0  0  0  0
 43 45  1  0  0  0  0
 44 46  1  0  0  0  0
 44 47  1  0  0  0  0
 45 49  1  0  0  0  0
 46 51  1  0  0  0  0
 47 71  1  0  0  0  0
 48 51  1  0  0  0  0
 48 71  1  0  0  0  0
 49 75  1  0  0  0  0
 50 72  1  0  0  0  0
 51 70  1  0  0  0  0
 52 59  1  0  0  0  0
 53 66  1  0  0  0  0
 54 67  1  0  0  0  0
 55 67  1  0  0  0  0
 56 67  1  0  0  0  0
 57 77  1  0  0  0  0
 58 60  1  0  0  0  0
 60 61  1  0  0  0  0
 61 62  1  0  0  0  0
 62 63  1  0  0  0  0
 63 64  1  0  0  0  0
 64 84  1  0  0  0  0
 65 67  1  0  0  0  0
 65 76  1  0  0  0  0
 66 77  1  0  0  0  0
 68 70  1  0  0  0  0
M  CHG  1  77   1
M  ISO  4  34 100  36 100  64 101  84 101
M  END
> <Batch ID>
0133

> <Smiles>
CCc1c(CCCCC[101CH2:1][101O:1]c2ccc3c(c2)CN(C(=O)C(NC(=O)C(C)NC)C(C)(C)C)C(C(=O)NC2CCCc4ccccc42)C3)cccc1[100C:0](=N)[100C:0](=O)N1CCCC(n2nc(-c3ccc(Oc4ccc(F)cc4F)cc3)c(C(N)=O)c2N)C1

> <Shape>
0.300

> <Color>
0.221

> <Negative vol penalty>
0.000

$$$$

  -OEChem-04052302303D

 88 97  0     1  0  0  0  0  0999 V2000
  -37.0004  -17.4353   23.8032 C   0  0  0  0  0  0  0  0  0  0  0  0
  -36.0208  -18.0497   23.0296 C   0  0  0  0  0  0  0  0  0  0  0  0
  -19.9761  -27.3474   21.4978 C   0  0  0  0  0  0  0  0  0  0  0  0
  -19.4554  -26.2778   23.6006 C   0  0  0  0  0  0  0  0  0  0  0  0
  -23.0643  -20.4984   19.1699 C   0  0  0  0  0  0  0  0  0  0  0  0
  -37.0839  -16.0442   23.8441 C   0  0  0  0  0  0  0  0  0  0  0  0
  -35.1248  -17.2733   22.2956 C   0  0  0  0  0  0  0  0  0  0  0  0
  -30.3477  -18.9009   22.7143 C   0  0  0  0  0  0  0  0  0  0  0  0
  -22.8757  -20.9827   17.8754 C   0  0  0  0  0  0  0  0  0  0  0  0
  -18.6567  -27.7881   21.3952 C   0  0  0  0  0  0  0  0  0  0  0  0
  -18.1359  -26.7185   23.4980 C   0  0  0  0  0  0  0  0  0  0  0  0
  -29.9869  -20.0168   21.9606 C   0  0  0  0  0  0  0  0  0  0  0  0
  -14.7186  -27.8672   23.9674 C   0  0  0  0  0  0  0  0  0  0  0  0
  -14.1275  -28.4173   25.1047 C   0  0  0  0  0  0  0  0  0  0  0  0
  -25.2161  -21.5925   19.2657 C   0  0  0  0  0  0  0  0  0  0  0  0
  -28.9607  -18.5721   20.3239 C   0  0  0  0  0  0  0  0  0  0  0  0
  -15.8267  -30.1340   25.1576 C   0  0  0  0  0  0  0  0  0  0  0  0
  -20.3755  -26.5922   22.6005 C   0  0  0  0  0  0  0  0  0  0  0  0
  -24.2345  -20.8033   19.8650 C   0  0  0  0  0  0  0  0  0  0  0  0
  -22.8992  -26.9310   22.7542 C   0  0  0  0  0  0  0  0  0  0  0  0
  -36.1824  -15.2501   23.1178 C   0  0  0  0  0  0  0  0  0  0  0  0
  -30.0267  -17.6093   22.2723 C   0  0  0  0  0  0  0  0  0  0  0  0
  -35.1972  -15.8702   22.3257 C   0  0  0  0  0  0  0  0  0  0  0  0
  -25.0276  -22.0768   17.9713 C   0  0  0  0  0  0  0  0  0  0  0  0
  -29.3163  -17.4415   21.0751 C   0  0  0  0  0  0  0  0  0  0  0  0
  -23.8574  -21.7719   17.2762 C   0  0  0  0  0  0  0  0  0  0  0  0
  -17.7366  -27.4736   22.3952 C   0  0  0  0  0  0  0  0  0  0  0  0
  -29.2958  -19.8525   20.7637 C   0  0  0  0  0  0  0  0  0  0  0  0
  -15.8638  -28.4505   23.4252 C   0  0  0  0  0  0  0  0  0  0  0  0
  -14.6815  -29.5507   25.6998 C   0  0  0  0  0  0  0  0  0  0  0  0
  -16.4178  -29.5838   24.0203 C   0  0  0  0  0  0  0  0  0  0  0  0
  -21.7381  -26.1363   22.7068 C   0  0  0  0  0  0  0  0  0  0  0  0
  -23.9293  -26.0281   22.8551 C   0  0  0  0  0  0  0  0  0  0  0  0
  -27.5071  -22.5237   17.7500 C   0  0  0  0  0  0  0  0  0  0  0  0
  -28.3461  -23.3028   18.4551 C   0  0  0  0  0  0  0  0  0  0  0  0
  -24.4324  -20.2923   21.2276 C   0  0  0  0  0  0  0  0  0  0  0  0
  -23.0344  -28.3577   22.7110 C   0  0  0  0  0  0  0  0  0  0  0  0
  -31.7049  -15.0373   21.4526 C   0  0  0  0  0  0  0  0  0  0  0  0
  -28.7729  -13.6609   21.2747 C   0  0  0  0  0  0  0  0  0  0  0  0
  -25.4089  -14.0531   20.8550 C   0  0  0  0  0  0  0  0  0  0  0  0
  -36.3418  -13.7509   23.1559 C   0  0  0  0  0  0  0  0  0  0  0  0
  -30.3996  -16.4172   23.1103 C   0  0  0  0  0  0  0  0  0  0  0  0
  -28.9300  -16.0774   20.5668 C   0  0  0  0  0  0  0  0  0  0  0  0
  -27.9517  -24.6746   18.9405 C   0  0  0  0  0  0  0  0  0  0  0  0
  -35.1180  -12.9950   22.6447 C   0  0  0  0  0  0  0  0  0  0  0  0
  -26.4495  -24.9540   18.8634 C   0  0  0  0  0  0  0  0  0  0  0  0
  -24.9324  -21.6443   24.4931 C   0  0  0  0  0  0  0  0  0  0  0  0
  -25.8492  -24.4395   17.5580 C   0  0  0  0  0  0  0  0  0  0  0  0
  -34.6226  -13.6036   21.3367 C   0  0  0  0  0  0  0  0  0  0  0  0
  -24.2620  -23.0173   24.4178 C   0  0  0  0  0  0  0  0  0  0  0  0
  -24.1805  -20.6040   23.6667 C   0  0  0  0  0  0  0  0  0  0  0  0
  -23.2860  -22.3612   22.1778 C   0  0  0  0  0  0  0  0  0  0  0  0
  -26.1137  -22.9362   17.3385 C   0  0  2  0  0  0  0  0  0  0  0  0
  -34.1915  -15.0618   21.5351 C   0  0  1  0  0  0  0  0  0  0  0  0
  -30.4723  -15.1219   22.3077 C   0  0  1  0  0  0  0  0  0  0  0  0
  -24.0413  -23.4508   22.9564 C   0  0  1  0  0  0  0  0  0  0  0  0
  -23.2743  -12.7405   20.7196 C   0  0  0  0  0  0  0  0  0  0  0  0
  -23.4706  -19.9673   14.8266 C   0  0  0  0  0  0  0  0  0  0  0  0
  -23.9274  -21.9712   13.3986 C   0  0  0  0  0  0  0  0  0  0  0  0
  -29.4938  -12.7853   18.4421 C   0  0  0  0  0  0  0  0  0  0  0  0
  -27.0634  -12.3429   18.0351 C   0  0  0  0  0  0  0  0  0  0  0  0
  -28.2856  -11.0607   19.7914 C   0  0  0  0  0  0  0  0  0  0  0  0
  -24.2787  -15.4261   23.2206 C   0  0  0  0  0  0  0  0  0  0  0  0
  -23.6343  -22.2788   15.8893 C   0  0  0  0  0  0  0  0  0  0  0  0
  -29.7376  -22.8581   18.7977 C   0  0  0  0  0  0  0  0  0  0  0  0
  -29.7922  -22.0839   20.1078 C   0  0  0  0  0  0  0  0  0  1  0  0
  -27.7336  -13.4952   20.1924 C   0  0  1  0  0  0  0  0  0  0  0  0
  -24.2260  -13.5011   21.6299 C   0  0  2  0  0  0  0  0  0  0  0  0
  -24.1505  -21.3377   14.7741 C   0  0  0  0  0  0  0  0  0  0  0  0
  -28.1529  -12.4468   19.1236 C   0  0  0  0  0  0  0  0  0  0  0  0
  -22.0049  -24.8292   22.7721 N   0  0  0  0  0  0  0  0  0  0  0  0
  -23.3454  -24.7956   22.8614 N   0  0  0  0  0  0  0  0  0  0  0  0
  -23.9862  -21.0743   22.2957 N   0  0  0  0  0  0  0  0  0  0  0  0
  -29.3227  -14.9426   21.4186 N   0  0  0  0  0  0  0  0  0  0  0  0
  -25.2686  -26.1763   22.9381 N   0  0  0  0  0  0  0  0  0  0  0  0
  -21.8736  -29.1360   22.6062 N   0  0  0  0  0  0  0  0  0  0  0  0
  -32.8881  -15.1228   22.1611 N   0  0  0  0  0  0  0  0  0  0  0  0
  -26.4809  -13.1861   20.8734 N   0  0  0  0  0  0  0  0  0  0  0  0
  -23.4700  -14.6089   22.2797 N   0  3  0  0  0  0  0  0  0  0  0  0
  -24.9958  -19.2029   21.3229 O   0  0  0  0  0  0  0  0  0  0  0  0
  -24.1527  -28.9249   22.7473 O   0  0  0  0  0  0  0  0  0  0  0  0
  -31.5908  -14.9028   20.2399 O   0  0  0  0  0  0  0  0  0  0  0  0
  -29.0804  -12.6905   21.9715 O   0  0  0  0  0  0  0  0  0  0  0  0
  -25.3831  -15.1426   20.2868 O   0  0  0  0  0  0  0  0  0  0  0  0
  -16.4491  -27.9036   22.2955 O   0  0  0  0  0  0  0  0  0  0  0  0
  -28.9430  -20.9400   20.0257 O   0  0  0  0  0  0  0  0  0  1  0  0
  -14.1128  -30.0797   26.7911 F   0  0  0  0  0  0  0  0  0  0  0  0
  -17.5173  -30.1493   23.5032 F   0  0  0  0  0  0  0  0  0  0  0  0
  1  2  1  0  0  0  0
  1  6  2  0  0  0  0
  2  7  2  0  0  0  0
  3 10  2  0  0  0  0
  3 18  1  0  0  0  0
  4 11  1  0  0  0  0
  4 18  2  0  0  0  0
  5  9  2  0  0  0  0
  5 19  1  0  0  0  0
  6 21  1  0  0  0  0
  7 23  1  0  0  0  0
  8 12  2  0  0  0  0
  8 22  1  0  0  0  0
  9 26  1  0  0  0  0
 10 27  1  0  0  0  0
 11 27  2  0  0  0  0
 12 28  1  0  0  0  0
 13 14  2  0  0  0  0
 13 29  1  0  0  0  0
 14 30  1  0  0  0  0
 15 19  2  0  0  0  0
 15 24  1  0  0  0  0
 16 25  1  0  0  0  0
 16 28  2  0  0  0  0
 17 30  2  0  0  0  0
 17 31  1  0  0  0  0
 18 32  1  0  0  0  0
 19 36  1  0  0  0  0
 20 32  1  0  0  0  0
 20 33  2  0  0  0  0
 20 37  1  0  0  0  0
 21 23  2  0  0  0  0
 21 41  1  0  0  0  0
 22 25  2  0  0  0  0
 22 42  1  0  0  0  0
 23 54  1  0  0  0  0
 24 26  2  0  0  0  0
 24 53  1  0  0  0  0
 25 43  1  0  0  0  0
 26 64  1  0  0  0  0
 27 85  1  0  0  0  0
 28 86  1  0  0  0  0
 29 31  2  0  0  0  0
 29 85  1  0  0  0  0
 30 87  1  0  0  0  0
 31 88  1  0  0  0  0
 32 71  2  0  0  0  0
 33 72  1  0  0  0  0
 33 75  1  0  0  0  0
 34 35  2  0  0  0  0
 34 53  1  0  0  0  0
 35 44  1  0  0  0  0
 35 65  1  0  0  0  0
 36 73  1  0  0  0  0
 36 80  2  0  0  0  0
 37 76  1  0  0  0  0
 37 81  2  0  0  0  0
 38 55  1  0  0  0  0
 38 77  1  0  0  0  0
 38 82  2  0  0  0  0
 39 67  1  0  0  0  0
 39 74  1  0  0  0  0
 39 83  2  0  0  0  0
 40 68  1  0  0  0  0
 40 78  1  0  0  0  0
 40 84  2  0  0  0  0
 41 45  1  0  0  0  0
 42 55  1  0  0  0  0
 43 74  1  0  0  0  0
 44 46  1  0  0  0  0
 45 49  1  0  0  0  0
 46 48  1  0  0  0  0
 47 50  1  0  0  0  0
 47 51  1  0  0  0  0
 48 53  1  0  0  0  0
 49 54  1  0  0  0  0
 50 56  1  0  0  0  0
 51 73  1  0  0  0  0
 52 56  1  0  0  0  0
 52 73  1  0  0  0  0
 54 77  1  0  0  0  0
 55 74  1  0  0  0  0
 56 72  1  0  0  0  0
 57 68  1  0  0  0  0
 58 69  1  0  0  0  0
 59 69  1  0  0  0  0
 60 70  1  0  0  0  0
 61 70  1  0  0  0  0
 62 70  1  0  0  0  0
 63 79  1  0  0  0  0
 64 69  1  0  0  0  0
 65 66  1  0  0  0  0
 66 86  1  0  0  0  0
 67 70  1  0  0  0  0
 67 78  1  0  0  0  0
 68 79  1  0  0  0  0
 71 72  1  0  0  0  0
M  CHG  1  79   1
M  ISO  4  19 100  36 100  66 101  86 101
M  END
> <Batch ID>
0133

> <Smiles>
CNC(C)C(=O)NC(C(=O)N1Cc2cc([101O:1][101CH2:1]CC3=CC(c4c[100c:0]([100C:0](=O)N5CCCC(n6nc(-c7ccc(Oc8ccc(F)cc8F)cc7)c(C(N)=O)c6N)C5)ccc4CC(C)C)CCC3)ccc2CC1C(=O)NC1CCCc2ccccc21)C(C)(C)C

> <Shape>
0.219

> <Color>
0.085

> <Negative vol penalty>
0.000

$$$$

  -OEChem-04052302303D

 85 93  0     1  0  0  0  0  0999 V2000
  -28.2667  -37.0656   26.7711 C   0  0  0  0  0  0  0  0  0  0  0  0
  -28.5366  -35.7018   26.8222 C   0  0  0  0  0  0  0  0  0  0  0  0
  -30.5932  -17.1217   24.8521 C   0  0  0  0  0  0  0  0  0  0  0  0
  -23.5486   -9.6199   20.7559 C   0  0  0  0  0  0  0  0  0  0  0  0
  -24.1063  -10.3287   22.9972 C   0  0  0  0  0  0  0  0  0  0  0  0
  -30.1959  -16.5190   23.6586 C   0  0  0  0  0  0  0  0  0  0  0  0
  -27.0335  -37.5138   26.2996 C   0  0  0  0  0  0  0  0  0  0  0  0
  -27.5730  -34.7853   26.4028 C   0  0  0  0  0  0  0  0  0  0  0  0
  -28.5581  -29.4352   23.5900 C   0  0  0  0  0  0  0  0  0  0  0  0
  -30.8069  -18.4993   24.9005 C   0  0  0  0  0  0  0  0  0  0  0  0
  -22.9505   -8.4689   21.2687 C   0  0  0  0  0  0  0  0  0  0  0  0
  -23.5082   -9.1777   23.5101 C   0  0  0  0  0  0  0  0  0  0  0  0
  -28.6071  -28.1235   24.0598 C   0  0  0  0  0  0  0  0  0  0  0  0
  -23.9432   -5.4631   22.4536 C   0  0  0  0  0  0  0  0  0  0  0  0
  -24.2279   -4.2508   21.8252 C   0  0  0  0  0  0  0  0  0  0  0  0
  -26.2972  -27.8196   23.4345 C   0  0  0  0  0  0  0  0  0  0  0  0
  -21.8807   -3.9536   21.3355 C   0  0  0  0  0  0  0  0  0  0  0  0
  -24.1265  -10.5498   21.6201 C   0  0  0  0  0  0  0  0  0  0  0  0
  -30.0124  -17.2939   22.5133 C   0  0  0  0  0  0  0  0  0  0  0  0
  -24.1300  -12.9821   20.8510 C   0  0  0  0  0  0  0  0  0  0  0  0
  -26.0579  -36.6027   25.8652 C   0  0  0  0  0  0  0  0  0  0  0  0
  -27.3731  -29.9533   23.0479 C   0  0  0  0  0  0  0  0  0  0  0  0
  -26.3251  -35.2216   25.9264 C   0  0  0  0  0  0  0  0  0  0  0  0
  -26.2365  -29.1374   22.9561 C   0  0  0  0  0  0  0  0  0  0  0  0
  -30.6234  -19.2741   23.7552 C   0  0  0  0  0  0  0  0  0  0  0  0
  -30.2262  -18.6715   22.5616 C   0  0  0  0  0  0  0  0  0  0  0  0
  -22.9302   -8.2478   22.6458 C   0  0  0  0  0  0  0  0  0  0  0  0
  -27.4757  -27.3164   23.9848 C   0  0  0  0  0  0  0  0  0  0  0  0
  -22.6273   -5.9207   22.5230 C   0  0  0  0  0  0  0  0  0  0  0  0
  -23.1966   -3.4961   21.2661 C   0  0  0  0  0  0  0  0  0  0  0  0
  -21.5961   -5.1659   21.9639 C   0  0  0  0  0  0  0  0  0  0  0  0
  -24.7450  -11.7388   21.0910 C   0  0  0  0  0  0  0  0  0  0  0  0
  -25.1363  -13.7723   20.3516 C   0  0  0  0  0  0  0  0  0  0  0  0
  -29.5959  -16.6363   21.2815 C   0  0  0  0  0  0  0  0  0  0  0  0
  -22.7706  -13.3867   21.0608 C   0  0  0  0  0  0  0  0  0  0  0  0
  -30.4221  -15.5773   20.6578 C   0  0  0  0  0  0  0  0  0  0  0  0
  -25.4091  -32.3327   23.8126 C   0  0  0  0  0  0  0  0  0  0  0  0
  -23.9830  -31.5377   21.0097 C   0  0  0  0  0  0  0  0  0  0  0  0
  -23.3928  -29.1633   18.6305 C   0  0  0  0  0  0  0  0  0  0  0  0
  -24.7220  -37.1327   25.4080 C   0  0  0  0  0  0  0  0  0  0  0  0
  -27.3443  -31.3618   22.5210 C   0  0  0  0  0  0  0  0  0  0  0  0
  -24.9457  -29.6394   22.3643 C   0  0  0  0  0  0  0  0  0  0  0  0
  -23.8951  -36.1115   24.6311 C   0  0  0  0  0  0  0  0  0  0  0  0
  -29.7860  -12.5949   18.7717 C   0  0  0  0  0  0  0  0  0  0  0  0
  -23.8946  -34.7665   25.3505 C   0  0  0  0  0  0  0  0  0  0  0  0
  -28.3820  -12.1878   19.2177 C   0  0  0  0  0  0  0  0  0  0  0  0
  -30.5709  -13.2339   19.9127 C   0  0  0  0  0  0  0  0  0  0  0  0
  -28.4719  -13.9996   20.9883 C   0  0  0  0  0  0  0  0  0  0  0  0
  -25.3146  -34.1974   25.4572 C   0  0  1  0  0  0  0  0  0  0  0  0
  -25.9372  -31.9481   22.4595 C   0  0  1  0  0  0  0  0  0  0  0  0
  -27.6390  -13.3755   19.8550 C   0  0  2  0  0  0  0  0  0  0  0  0
  -31.1920  -19.3742   20.3571 C   0  0  0  0  0  0  0  0  0  0  0  0
  -22.1591  -28.7973   16.4761 C   0  0  0  0  0  0  0  0  0  0  0  0
  -21.3610  -31.3082   22.5531 C   0  0  0  0  0  0  0  0  0  0  0  0
  -20.4078  -30.0503   20.6095 C   0  0  0  0  0  0  0  0  0  0  0  0
  -21.1621  -32.4100   20.3168 C   0  0  0  0  0  0  0  0  0  0  0  0
  -25.8979  -28.6088   17.1554 C   0  0  0  0  0  0  0  0  0  0  0  0
  -30.8591  -20.7615   23.8349 C   0  0  0  0  0  0  0  0  0  0  0  0
  -30.0298  -19.5058   21.3351 C   0  0  0  0  0  0  0  0  0  0  0  0
  -29.5725  -21.5878   23.9420 C   0  0  0  0  0  0  0  0  0  0  0  0
  -29.8354  -23.0888   24.0992 C   0  0  0  0  0  0  0  0  0  0  0  0
  -28.5275  -23.8750   24.1712 C   0  0  0  0  0  0  0  0  0  0  0  0
  -28.7770  -25.3633   24.3697 C   0  0  0  0  0  0  0  0  0  1  0  0
  -22.8871  -30.5835   20.6007 C   0  0  1  0  0  0  0  0  0  0  0  0
  -23.4748  -29.2132   17.1155 C   0  0  2  0  0  0  0  0  0  0  0  0
  -21.4781  -31.0789   21.0330 C   0  0  0  0  0  0  0  0  0  0  0  0
  -26.0416  -11.7344   20.7702 N   0  0  0  0  0  0  0  0  0  0  0  0
  -28.4888  -16.9269   20.6564 N   0  0  0  0  0  0  0  0  0  0  0  0
  -26.2495  -12.9848   20.3236 N   0  0  0  0  0  0  0  0  0  0  0  0
  -29.8224  -14.3335   20.5184 N   0  0  0  0  0  0  0  0  0  0  0  0
  -24.9658  -31.0255   21.8685 N   0  0  0  0  0  0  0  0  0  0  0  0
  -25.1687  -15.0569   19.9380 N   0  0  0  0  0  0  0  0  0  0  0  0
  -21.8674  -12.4498   21.5811 N   0  0  0  0  0  0  0  0  0  0  0  0
  -25.7250  -33.6228   24.1940 N   0  0  0  0  0  0  0  0  0  0  0  0
  -23.0352  -30.3838   19.1631 N   0  0  0  0  0  0  0  0  0  0  0  0
  -24.5453  -28.3002   16.6243 N   0  3  0  0  0  0  0  0  0  0  0  0
  -22.3649  -14.5399   20.7795 O   0  0  0  0  0  0  0  0  0  0  0  0
  -31.5524  -15.9144   20.3305 O   0  0  0  0  0  0  0  0  0  0  0  0
  -24.7617  -31.5198   24.4619 O   0  0  0  0  0  0  0  0  0  0  0  0
  -23.9716  -32.6929   20.5772 O   0  0  0  0  0  0  0  0  0  0  0  0
  -23.6196  -28.1426   19.2766 O   0  0  0  0  0  0  0  0  0  0  0  0
  -22.3465   -7.1248   23.1465 O   0  0  0  0  0  0  0  0  0  0  0  0
  -27.5206  -26.0359   24.4433 O   0  0  0  0  0  0  0  0  0  1  0  0
  -23.4703   -2.3327   20.6613 F   0  0  0  0  0  0  0  0  0  0  0  0
  -20.3301   -5.6009   22.0264 F   0  0  0  0  0  0  0  0  0  0  0  0
  1  2  1  0  0  0  0
  1  7  2  0  0  0  0
  2  8  2  0  0  0  0
  3  6  2  0  0  0  0
  3 10  1  0  0  0  0
  4 11  2  0  0  0  0
  4 18  1  0  0  0  0
  5 12  1  0  0  0  0
  5 18  2  0  0  0  0
  6 19  1  0  0  0  0
  7 21  1  0  0  0  0
  8 23  1  0  0  0  0
  9 13  2  0  0  0  0
  9 22  1  0  0  0  0
 10 25  2  0  0  0  0
 11 27  1  0  0  0  0
 12 27  2  0  0  0  0
 13 28  1  0  0  0  0
 14 15  2  0  0  0  0
 14 29  1  0  0  0  0
 15 30  1  0  0  0  0
 16 24  1  0  0  0  0
 16 28  2  0  0  0  0
 17 30  2  0  0  0  0
 17 31  1  0  0  0  0
 18 32  1  0  0  0  0
 19 26  2  0  0  0  0
 19 34  1  0  0  0  0
 20 32  1  0  0  0  0
 20 33  2  0  0  0  0
 20 35  1  0  0  0  0
 21 23  2  0  0  0  0
 21 40  1  0  0  0  0
 22 24  2  0  0  0  0
 22 41  1  0  0  0  0
 23 49  1  0  0  0  0
 24 42  1  0  0  0  0
 25 26  1  0  0  0  0
 25 58  1  0  0  0  0
 26 59  1  0  0  0  0
 27 82  1  0  0  0  0
 28 83  1  0  0  0  0
 29 31  2  0  0  0  0
 29 82  1  0  0  0  0
 30 84  1  0  0  0  0
 31 85  1  0  0  0  0
 32 67  2  0  0  0  0
 33 69  1  0  0  0  0
 33 72  1  0  0  0  0
 34 36  1  0  0  0  0
 34 68  2  0  0  0  0
 35 73  1  0  0  0  0
 35 77  2  0  0  0  0
 36 70  1  0  0  0  0
 36 78  2  0  0  0  0
 37 50  1  0  0  0  0
 37 74  1  0  0  0  0
 37 79  2  0  0  0  0
 38 64  1  0  0  0  0
 38 71  1  0  0  0  0
 38 80  2  0  0  0  0
 39 65  1  0  0  0  0
 39 75  1  0  0  0  0
 39 81  2  0  0  0  0
 40 43  1  0  0  0  0
 41 50  1  0  0  0  0
 42 71  1  0  0  0  0
 43 45  1  0  0  0  0
 44 46  1  0  0  0  0
 44 47  1  0  0  0  0
 45 49  1  0  0  0  0
 46 51  1  0  0  0  0
 47 70  1  0  0  0  0
 48 51  1  0  0  0  0
 48 70  1  0  0  0  0
 49 74  1  0  0  0  0
 50 71  1  0  0  0  0
 51 69  1  0  0  0  0
 52 59  1  0  0  0  0
 53 65  1  0  0  0  0
 54 66  1  0  0  0  0
 55 66  1  0  0  0  0
 56 66  1  0  0  0  0
 57 76  1  0  0  0  0
 58 60  1  0  0  0  0
 60 61  1  0  0  0  0
 61 62  1  0  0  0  0
 62 63  1  0  0  0  0
 63 83  1  0  0  0  0
 64 66  1  0  0  0  0
 64 75  1  0  0  0  0
 65 76  1  0  0  0  0
 67 69  1  0  0  0  0
M  CHG  1  76   1
M  ISO  4  34 100  36 100  63 101  83 101
M  END
> <Batch ID>
0133

> <Smiles>
CCc1c(CCCC[101CH2:1][101O:1]c2ccc3c(c2)CN(C(=O)C(NC(=O)C(C)NC)C(C)(C)C)C(C(=O)NC2CCCc4ccccc42)C3)cccc1[100C:0](=N)[100C:0](=O)N1CCCC(n2nc(-c3ccc(Oc4ccc(F)cc4F)cc3)c(C(N)=O)c2N)C1

> <Shape>
0.292

> <Color>
0.150

> <Negative vol penalty>
0.000

$$$$

  -OEChem-04052302303D

 81 89  0     1  0  0  0  0  0999 V2000
  -27.9533  -32.7205   27.1678 C   0  0  0  0  0  0  0  0  0  0  0  0
  -28.0310  -31.5790   26.3763 C   0  0  0  0  0  0  0  0  0  0  0  0
  -23.9792   -9.8101   22.1194 C   0  0  0  0  0  0  0  0  0  0  0  0
  -24.7081   -8.5481   20.1925 C   0  0  0  0  0  0  0  0  0  0  0  0
  -26.7185  -33.3265   27.3957 C   0  0  0  0  0  0  0  0  0  0  0  0
  -26.8738  -31.0422   25.8132 C   0  0  0  0  0  0  0  0  0  0  0  0
  -27.4914  -29.7627   20.9525 C   0  0  0  0  0  0  0  0  0  0  0  0
  -22.8853   -8.9570   22.2644 C   0  0  0  0  0  0  0  0  0  0  0  0
  -23.6142   -7.6949   20.3374 C   0  0  0  0  0  0  0  0  0  0  0  0
  -28.1642  -28.5704   20.6885 C   0  0  0  0  0  0  0  0  0  0  0  0
  -22.2824   -5.8671   23.4981 C   0  0  0  0  0  0  0  0  0  0  0  0
  -21.9852   -5.4062   24.7806 C   0  0  0  0  0  0  0  0  0  0  0  0
  -31.1903  -20.7024   19.0713 C   0  0  0  0  0  0  0  0  0  0  0  0
  -31.0443  -21.8512   18.2577 C   0  0  0  0  0  0  0  0  0  0  0  0
  -26.0508  -27.4649   20.3271 C   0  0  0  0  0  0  0  0  0  0  0  0
  -19.8019   -6.4315   24.6432 C   0  0  0  0  0  0  0  0  0  0  0  0
  -24.8906   -9.6057   21.0834 C   0  0  0  0  0  0  0  0  0  0  0  0
  -27.2958  -10.3406   21.5108 C   0  0  0  0  0  0  0  0  0  0  0  0
  -25.5468  -32.8025   26.8273 C   0  0  0  0  0  0  0  0  0  0  0  0
  -26.0905  -29.8125   20.9165 C   0  0  0  0  0  0  0  0  0  0  0  0
  -25.6220  -31.6411   26.0349 C   0  0  0  0  0  0  0  0  0  0  0  0
  -25.3627  -28.6596   20.5886 C   0  0  0  0  0  0  0  0  0  0  0  0
  -22.7027   -7.8994   21.3734 C   0  0  0  0  0  0  0  0  0  0  0  0
  -27.4438  -27.4206   20.3786 C   0  0  0  0  0  0  0  0  0  0  0  0
  -21.3393   -6.6103   22.7882 C   0  0  0  0  0  0  0  0  0  0  0  0
  -20.7450   -5.6883   25.3532 C   0  0  0  0  0  0  0  0  0  0  0  0
  -20.0991   -6.8925   23.3607 C   0  0  0  0  0  0  0  0  0  0  0  0
  -26.0205  -10.4870   20.9328 C   0  0  0  0  0  0  0  0  0  0  0  0
  -29.9983  -20.0210   18.9876 C   0  0  0  0  0  0  0  0  0  0  0  0
  -29.7736  -21.7899   17.7346 C   0  0  0  0  0  0  0  0  0  0  0  0
  -28.0026  -11.4301   21.0637 C   0  0  0  0  0  0  0  0  0  0  0  0
  -29.6580  -18.8071   19.6279 C   0  0  0  0  0  0  0  0  0  0  0  0
  -28.4709  -18.1237   19.5204 C   0  0  0  0  0  0  0  0  0  0  0  0
  -27.7967   -9.3118   22.3747 C   0  0  0  0  0  0  0  0  0  0  0  0
  -28.2700  -16.8551   20.2491 C   0  0  0  0  0  0  0  0  0  0  0  0
  -23.8133  -30.4546   23.0392 C   0  0  0  0  0  0  0  0  0  0  0  0
  -21.8750  -30.2231   20.4486 C   0  0  0  0  0  0  0  0  0  0  0  0
  -21.3701  -28.9828   17.3095 C   0  0  0  0  0  0  0  0  0  0  0  0
  -24.2287  -33.4650   27.1408 C   0  0  0  0  0  0  0  0  0  0  0  0
  -25.3808  -31.1127   21.1775 C   0  0  0  0  0  0  0  0  0  0  0  0
  -23.8583  -28.6652   20.5169 C   0  0  0  0  0  0  0  0  0  0  0  0
  -23.0997  -33.0500   26.2009 C   0  0  0  0  0  0  0  0  0  0  0  0
  -26.9257  -14.8346   17.5028 C   0  0  0  0  0  0  0  0  0  0  0  0
  -23.0854  -31.5355   26.0198 C   0  0  0  0  0  0  0  0  0  0  0  0
  -26.6317  -13.5206   18.2215 C   0  0  0  0  0  0  0  0  0  0  0  0
  -26.6987  -16.0446   18.4078 C   0  0  0  0  0  0  0  0  0  0  0  0
  -27.1576  -14.6622   20.4125 C   0  0  0  0  0  0  0  0  0  0  0  0
  -24.3923  -31.0432   25.3864 C   0  0  1  0  0  0  0  0  0  0  0  0
  -23.9320  -30.9249   21.6171 C   0  0  1  0  0  0  0  0  0  0  0  0
  -27.4246  -13.4293   19.5349 C   0  0  1  0  0  0  0  0  0  0  0  0
  -19.6741  -28.9323   15.4607 C   0  0  0  0  0  0  0  0  0  0  0  0
  -20.2266  -28.1921   22.0194 C   0  0  0  0  0  0  0  0  0  0  0  0
  -19.1642  -27.4911   19.8635 C   0  0  0  0  0  0  0  0  0  0  0  0
  -18.8780  -29.8267   20.6915 C   0  0  0  0  0  0  0  0  0  0  0  0
  -23.2192  -30.3130   15.4200 C   0  0  0  0  0  0  0  0  0  0  0  0
  -28.9963  -22.6870   16.8046 C   0  0  0  0  0  0  0  0  0  0  0  0
  -27.9430  -23.5476   17.5112 C   0  0  0  0  0  0  0  0  0  0  0  0
  -28.5488  -24.5362   18.5086 C   0  0  0  0  0  0  0  0  0  0  0  0
  -27.4714  -25.3446   19.2188 C   0  0  0  0  0  0  0  0  0  1  0  0
  -21.1202  -29.1027   19.7748 C   0  0  1  0  0  0  0  0  0  0  0  0
  -20.8911  -29.6445   16.0300 C   0  0  2  0  0  0  0  0  0  0  0  0
  -19.8755  -28.6523   20.5905 C   0  0  0  0  0  0  0  0  0  0  0  0
  -25.9201  -11.5832   20.1763 N   0  0  0  0  0  0  0  0  0  0  0  0
  -27.1412  -12.1355   20.2759 N   0  0  0  0  0  0  0  0  0  0  0  0
  -27.4206  -15.9069   19.6816 N   0  0  0  0  0  0  0  0  0  0  0  0
  -23.2099  -29.9592   20.7863 N   0  0  0  0  0  0  0  0  0  0  0  0
  -29.2706  -11.8440   21.2714 N   0  0  0  0  0  0  0  0  0  0  0  0
  -26.9371   -8.2653   22.7358 N   0  0  0  0  0  0  0  0  0  0  0  0
  -24.3932  -31.3033   23.9627 N   0  0  0  0  0  0  0  0  0  0  0  0
  -20.8143  -29.5694   18.4268 N   0  0  0  0  0  0  0  0  0  0  0  0
  -21.9700  -29.6260   15.0021 N   0  3  0  0  0  0  0  0  0  0  0  0
  -28.9668   -9.3288   22.8266 O   0  0  0  0  0  0  0  0  0  0  0  0
  -28.8636  -16.7142   21.3198 O   0  0  0  0  0  0  0  0  0  0  0  0
  -23.2370  -29.4006   23.2809 O   0  0  0  0  0  0  0  0  0  0  0  0
  -21.3034  -31.2955   20.6607 O   0  0  0  0  0  0  0  0  0  0  0  0
  -22.1555  -28.0375   17.3170 O   0  0  0  0  0  0  0  0  0  0  0  0
  -29.1295  -20.6772   18.1746 O   0  0  0  0  0  0  0  0  0  0  0  0
  -21.6355   -7.0665   21.5147 O   0  0  0  0  0  0  0  0  0  0  0  0
  -28.0979  -26.2555   20.1211 O   0  0  0  0  0  0  0  0  0  1  0  0
  -20.4592   -5.2443   26.5842 F   0  0  0  0  0  0  0  0  0  0  0  0
  -19.1886   -7.6049   22.6831 F   0  0  0  0  0  0  0  0  0  0  0  0
  1  2  1  0  0  0  0
  1  5  2  0  0  0  0
  2  6  2  0  0  0  0
  3  8  2  0  0  0  0
  3 17  1  0  0  0  0
  4  9  1  0  0  0  0
  4 17  2  0  0  0  0
  5 19  1  0  0  0  0
  6 21  1  0  0  0  0
  7 10  2  0  0  0  0
  7 20  1  0  0  0  0
  8 23  1  0  0  0  0
  9 23  2  0  0  0  0
 10 24  1  0  0  0  0
 11 12  2  0  0  0  0
 11 25  1  0  0  0  0
 12 26  1  0  0  0  0
 13 14  1  0  0  0  0
 13 29  2  0  0  0  0
 14 30  2  0  0  0  0
 15 22  1  0  0  0  0
 15 24  2  0  0  0  0
 16 26  2  0  0  0  0
 16 27  1  0  0  0  0
 17 28  1  0  0  0  0
 18 28  1  0  0  0  0
 18 31  2  0  0  0  0
 18 34  1  0  0  0  0
 19 21  2  0  0  0  0
 19 39  1  0  0  0  0
 20 22  2  0  0  0  0
 20 40  1  0  0  0  0
 21 48  1  0  0  0  0
 22 41  1  0  0  0  0
 23 78  1  0  0  0  0
 24 79  1  0  0  0  0
 25 27  2  0  0  0  0
 25 78  1  0  0  0  0
 26 80  1  0  0  0  0
 27 81  1  0  0  0  0
 28 63  2  0  0  0  0
 29 32  1  0  0  0  0
 29 77  1  0  0  0  0
 30 56  1  0  0  0  0
 30 77  1  0  0  0  0
 31 64  1  0  0  0  0
 31 67  1  0  0  0  0
 32 33  2  0  0  0  0
 33 35  1  0  0  0  0
 34 68  1  0  0  0  0
 34 72  2  0  0  0  0
 35 65  1  0  0  0  0
 35 73  2  0  0  0  0
 36 49  1  0  0  0  0
 36 69  1  0  0  0  0
 36 74  2  0  0  0  0
 37 60  1  0  0  0  0
 37 66  1  0  0  0  0
 37 75  2  0  0  0  0
 38 61  1  0  0  0  0
 38 70  1  0  0  0  0
 38 76  2  0  0  0  0
 39 42  1  0  0  0  0
 40 49  1  0  0  0  0
 41 66  1  0  0  0  0
 42 44  1  0  0  0  0
 43 45  1  0  0  0  0
 43 46  1  0  0  0  0
 44 48  1  0  0  0  0
 45 50  1  0  0  0  0
 46 65  1  0  0  0  0
 47 50  1  0  0  0  0
 47 65  1  0  0  0  0
 48 69  1  0  0  0  0
 49 66  1  0  0  0  0
 50 64  1  0  0  0  0
 51 61  1  0  0  0  0
 52 62  1  0  0  0  0
 53 62  1  0  0  0  0
 54 62  1  0  0  0  0
 55 71  1  0  0  0  0
 56 57  1  0  0  0  0
 57 58  1  0  0  0  0
 58 59  1  0  0  0  0
 59 79  1  0  0  0  0
 60 62  1  0  0  0  0
 60 70  1  0  0  0  0
 61 71  1  0  0  0  0
 63 64  1  0  0  0  0
M  CHG  1  71   1
M  ISO  4  33 100  35 100  59 101  79 101
M  END
> <Batch ID>
0133

> <Smiles>
CNC(C)C(=O)NC(C(=O)N1Cc2cc([101O:1][101CH2:1]CCCc3ccc(C=[100CH:0][100C:0](=O)N4CCCC(n5nc(-c6ccc(Oc7ccc(F)cc7F)cc6)c(C(N)=O)c5N)C4)o3)ccc2CC1C(=O)NC1CCCc2ccccc21)C(C)(C)C

> <Shape>
0.280

> <Color>
0.110

> <Negative vol penalty>
0.000

$$$$

  -OEChem-04052302303D

 88 96  0     1  0  0  0  0  0999 V2000
  -25.3583  -38.7661   20.2607 C   0  0  0  0  0  0  0  0  0  0  0  0
  -25.6995  -37.7090   19.4232 C   0  0  0  0  0  0  0  0  0  0  0  0
  -23.5976   -9.6888   22.3569 C   0  0  0  0  0  0  0  0  0  0  0  0
  -23.8760   -9.2219   20.0028 C   0  0  0  0  0  0  0  0  0  0  0  0
  -25.4609  -38.6196   21.6434 C   0  0  0  0  0  0  0  0  0  0  0  0
  -26.1446  -36.5050   19.9680 C   0  0  0  0  0  0  0  0  0  0  0  0
  -25.9976  -29.4435   18.7720 C   0  0  0  0  0  0  0  0  0  0  0  0
  -22.6752   -8.6470   22.4544 C   0  0  0  0  0  0  0  0  0  0  0  0
  -22.9537   -8.1800   20.1004 C   0  0  0  0  0  0  0  0  0  0  0  0
  -26.8566  -28.3501   18.6713 C   0  0  0  0  0  0  0  0  0  0  0  0
  -22.7416   -5.2734   22.6716 C   0  0  0  0  0  0  0  0  0  0  0  0
  -22.8609   -4.4011   23.7535 C   0  0  0  0  0  0  0  0  0  0  0  0
  -25.1395  -21.8080   20.9797 C   0  0  0  0  0  0  0  0  0  0  0  0
  -26.9186  -28.1850   21.0772 C   0  0  0  0  0  0  0  0  0  0  0  0
  -23.5921  -23.4518   22.6187 C   0  0  0  0  0  0  0  0  0  0  0  0
  -20.6383   -5.0035   24.4844 C   0  0  0  0  0  0  0  0  0  0  0  0
  -24.1980   -9.9762   21.1311 C   0  0  0  0  0  0  0  0  0  0  0  0
  -24.3865  -21.2518   22.0138 C   0  0  0  0  0  0  0  0  0  0  0  0
  -26.5444  -10.9741   21.2098 C   0  0  0  0  0  0  0  0  0  0  0  0
  -25.8983  -37.4100   22.2058 C   0  0  0  0  0  0  0  0  0  0  0  0
  -25.6006  -29.9235   20.0283 C   0  0  0  0  0  0  0  0  0  0  0  0
  -26.2545  -36.3426   21.3595 C   0  0  0  0  0  0  0  0  0  0  0  0
  -26.0524  -29.2831   21.1910 C   0  0  0  0  0  0  0  0  0  0  0  0
  -25.1188  -23.1861   20.7651 C   0  0  0  0  0  0  0  0  0  0  0  0
  -23.6128  -22.0736   22.8332 C   0  0  0  0  0  0  0  0  0  0  0  0
  -24.3451  -24.0080   21.5846 C   0  0  0  0  0  0  0  0  0  0  0  0
  -22.3533   -7.8926   21.3262 C   0  0  0  0  0  0  0  0  0  0  0  0
  -27.3196  -27.7224   19.8241 C   0  0  0  0  0  0  0  0  0  0  0  0
  -21.5707   -6.0108   22.4961 C   0  0  0  0  0  0  0  0  0  0  0  0
  -21.8093   -4.2661   24.6598 C   0  0  0  0  0  0  0  0  0  0  0  0
  -20.5190   -5.8759   23.4025 C   0  0  0  0  0  0  0  0  0  0  0  0
  -25.1505  -11.0526   21.0295 C   0  0  0  0  0  0  0  0  0  0  0  0
  -26.9897  -12.2575   21.0070 C   0  0  0  0  0  0  0  0  0  0  0  0
  -24.4288  -19.8090   22.2128 C   0  0  0  0  0  0  0  0  0  0  0  0
  -24.0807  -18.8838   21.2954 C   0  0  0  0  0  0  0  0  0  0  0  0
  -27.3636   -9.8422   21.5316 C   0  0  0  0  0  0  0  0  0  0  0  0
  -24.1886  -17.4534   21.6462 C   0  0  0  0  0  0  0  0  0  0  0  0
  -25.9500  -32.6677   21.5939 C   0  0  0  0  0  0  0  0  0  0  0  0
  -23.9853  -31.2409   23.7449 C   0  0  0  0  0  0  0  0  0  0  0  0
  -22.7468  -28.3470   25.0632 C   0  0  0  0  0  0  0  0  0  0  0  0
  -26.0380  -37.3148   23.7044 C   0  0  0  0  0  0  0  0  0  0  0  0
  -24.6522  -31.0875   20.1193 C   0  0  0  0  0  0  0  0  0  0  0  0
  -25.6397  -29.7470   22.5632 C   0  0  0  0  0  0  0  0  0  0  0  0
  -26.1611  -35.8814   24.2149 C   0  0  0  0  0  0  0  0  0  0  0  0
  -25.9360  -16.2688   18.6503 C   0  0  0  0  0  0  0  0  0  0  0  0
  -27.1684  -35.1008   23.3765 C   0  0  0  0  0  0  0  0  0  0  0  0
  -26.0134  -14.7701   18.9289 C   0  0  0  0  0  0  0  0  0  0  0  0
  -24.6517  -16.8871   19.2005 C   0  0  0  0  0  0  0  0  0  0  0  0
  -24.5115  -15.1178   20.9298 C   0  0  0  0  0  0  0  0  0  0  0  0
  -26.7178  -35.0128   21.9134 C   0  0  1  0  0  0  0  0  0  0  0  0
  -24.7223  -31.8119   21.4601 C   0  0  1  0  0  0  0  0  0  0  0  0
  -25.8176  -14.4839   20.4261 C   0  0  1  0  0  0  0  0  0  0  0  0
  -22.7935  -21.5122   23.9507 C   0  0  0  0  0  0  0  0  0  0  0  0
  -23.0262  -25.9394   20.6809 C   0  0  0  0  0  0  0  0  0  0  0  0
  -28.6658  -22.0315   17.7419 C   0  0  0  0  0  0  0  0  0  0  0  0
  -21.3026  -26.8667   26.4847 C   0  0  0  0  0  0  0  0  0  0  0  0
  -26.0746  -31.8649   25.8792 C   0  0  0  0  0  0  0  0  0  0  0  0
  -24.9417  -30.2063   27.3738 C   0  0  0  0  0  0  0  0  0  0  0  0
  -23.7074  -32.2305   26.5983 C   0  0  0  0  0  0  0  0  0  0  0  0
  -29.8434  -24.2978   19.3996 C   0  0  0  0  0  0  0  0  0  0  0  0
  -20.6190  -28.2536   23.0083 C   0  0  0  0  0  0  0  0  0  0  0  0
  -25.9418  -23.7655   19.6400 C   0  0  0  0  0  0  0  0  0  0  0  0
  -24.3075  -25.4861   21.3741 C   0  0  0  0  0  0  0  0  0  0  0  0
  -28.2938  -23.5025   17.5985 C   0  0  0  0  0  0  0  0  0  0  0  0
  -27.4275  -23.8450   20.0185 C   0  0  0  0  0  0  0  0  0  0  0  0
  -28.0289  -25.8283   18.5731 C   0  0  0  0  0  0  0  0  0  1  0  0
  -24.1846  -30.3660   24.9588 C   0  0  1  0  0  0  0  0  0  0  0  0
  -21.3275  -27.9102   25.3787 C   0  0  2  0  0  0  0  0  0  0  0  0
  -24.7366  -31.1591   26.1769 C   0  0  0  0  0  0  0  0  0  0  0  0
  -28.3822  -24.3526   18.8973 C   0  0  1  0  0  0  0  0  0  0  0  0
  -24.7374  -12.2882   20.7351 N   0  0  0  0  0  0  0  0  0  0  0  0
  -25.8786  -12.9979   20.7288 N   0  0  0  0  0  0  0  0  0  0  0  0
  -24.4569  -16.5506   20.6189 N   0  0  0  0  0  0  0  0  0  0  0  0
  -24.7160  -30.8929   22.6001 N   0  0  0  0  0  0  0  0  0  0  0  0
  -28.2193  -12.8136   21.0414 N   0  0  0  0  0  0  0  0  0  0  0  0
  -26.7441   -8.5972   21.7061 N   0  0  0  0  0  0  0  0  0  0  0  0
  -25.6825  -34.0128   21.7627 N   0  0  0  0  0  0  0  0  0  0  0  0
  -22.9049  -29.7096   25.2035 N   0  0  0  0  0  0  0  0  0  0  0  0
  -20.6838  -27.3270   24.1677 N   0  3  0  0  0  0  0  0  0  0  0  0
  -28.6060   -9.9355   21.6768 O   0  0  0  0  0  0  0  0  0  0  0  0
  -24.0294  -17.1443   22.8284 O   0  0  0  0  0  0  0  0  0  0  0  0
  -27.0579  -32.1461   21.5490 O   0  0  0  0  0  0  0  0  0  0  0  0
  -23.2044  -32.1938   23.8078 O   0  0  0  0  0  0  0  0  0  0  0  0
  -23.6280  -27.5579   24.7297 O   0  0  0  0  0  0  0  0  0  0  0  0
  -21.4534   -6.8758   21.4211 O   0  0  0  0  0  0  0  0  0  0  0  0
  -28.1587  -26.6553   19.7287 O   0  0  0  0  0  0  0  0  0  1  0  0
  -21.9234   -3.4273   25.6979 F   0  0  0  0  0  0  0  0  0  0  0  0
  -19.3912   -6.5808   23.2385 F   0  0  0  0  0  0  0  0  0  0  0  0
  1  2  1  0  0  0  0
  1  5  2  0  0  0  0
  2  6  2  0  0  0  0
  3  8  2  0  0  0  0
  3 17  1  0  0  0  0
  4  9  1  0  0  0  0
  4 17  2  0  0  0  0
  5 20  1  0  0  0  0
  6 22  1  0  0  0  0
  7 10  2  0  0  0  0
  7 21  1  0  0  0  0
  8 27  1  0  0  0  0
  9 27  2  0  0  0  0
 10 28  1  0  0  0  0
 11 12  2  0  0  0  0
 11 29  1  0  0  0  0
 12 30  1  0  0  0  0
 13 18  2  0  0  0  0
 13 24  1  0  0  0  0
 14 23  1  0  0  0  0
 14 28  2  0  0  0  0
 15 25  2  0  0  0  0
 15 26  1  0  0  0  0
 16 30  2  0  0  0  0
 16 31  1  0  0  0  0
 17 32  1  0  0  0  0
 18 25  1  0  0  0  0
 18 34  1  0  0  0  0
 19 32  1  0  0  0  0
 19 33  2  0  0  0  0
 19 36  1  0  0  0  0
 20 22  2  0  0  0  0
 20 41  1  0  0  0  0
 21 23  2  0  0  0  0
 21 42  1  0  0  0  0
 22 50  1  0  0  0  0
 23 43  1  0  0  0  0
 24 26  2  0  0  0  0
 24 62  1  0  0  0  0
 25 53  1  0  0  0  0
 26 63  1  0  0  0  0
 27 85  1  0  0  0  0
 28 86  1  0  0  0  0
 29 31  2  0  0  0  0
 29 85  1  0  0  0  0
 30 87  1  0  0  0  0
 31 88  1  0  0  0  0
 32 71  2  0  0  0  0
 33 72  1  0  0  0  0
 33 75  1  0  0  0  0
 34 35  2  0  0  0  0
 35 37  1  0  0  0  0
 36 76  1  0  0  0  0
 36 80  2  0  0  0  0
 37 73  1  0  0  0  0
 37 81  2  0  0  0  0
 38 51  1  0  0  0  0
 38 77  1  0  0  0  0
 38 82  2  0  0  0  0
 39 67  1  0  0  0  0
 39 74  1  0  0  0  0
 39 83  2  0  0  0  0
 40 68  1  0  0  0  0
 40 78  1  0  0  0  0
 40 84  2  0  0  0  0
 41 44  1  0  0  0  0
 42 51  1  0  0  0  0
 43 74  1  0  0  0  0
 44 46  1  0  0  0  0
 45 47  1  0  0  0  0
 45 48  1  0  0  0  0
 46 50  1  0  0  0  0
 47 52  1  0  0  0  0
 48 73  1  0  0  0  0
 49 52  1  0  0  0  0
 49 73  1  0  0  0  0
 50 77  1  0  0  0  0
 51 74  1  0  0  0  0
 52 72  1  0  0  0  0
 54 63  1  0  0  0  0
 55 64  1  0  0  0  0
 56 68  1  0  0  0  0
 57 69  1  0  0  0  0
 58 69  1  0  0  0  0
 59 69  1  0  0  0  0
 60 70  1  0  0  0  0
 61 79  1  0  0  0  0
 62 65  1  0  0  0  0
 64 70  1  0  0  0  0
 65 70  1  0  0  0  0
 66 70  1  0  0  0  0
 66 86  1  0  0  0  0
 67 69  1  0  0  0  0
 67 78  1  0  0  0  0
 68 79  1  0  0  0  0
 71 72  1  0  0  0  0
M  CHG  1  79   1
M  ISO  4  35 100  37 100  66 101  86 101
M  END
> <Batch ID>
0133

> <Smiles>
CCc1cc(C)c(C=[100CH:0][100C:0](=O)N2CCCC(n3nc(-c4ccc(Oc5ccc(F)cc5F)cc4)c(C(N)=O)c3N)C2)cc1CCC(C)(CC)[101CH2:1][101O:1]c1ccc2c(c1)CN(C(=O)C(NC(=O)C(C)NC)C(C)(C)C)C(C(=O)NC1CCCc3ccccc31)C2

> <Shape>
0.261

> <Color>
0.127

> <Negative vol penalty>
0.000

$$$$

  -OEChem-04052302303D

 86 94  0     1  0  0  0  0  0999 V2000
  -30.5720  -14.7235   31.8591 C   0  0  0  0  0  0  0  0  0  0  0  0
  -31.1067  -14.4841   30.5973 C   0  0  0  0  0  0  0  0  0  0  0  0
  -26.3967  -28.3468   18.9232 C   0  0  0  0  0  0  0  0  0  0  0  0
  -26.3909  -27.5767   21.2132 C   0  0  0  0  0  0  0  0  0  0  0  0
  -30.3214  -11.9611   19.6200 C   0  0  0  0  0  0  0  0  0  0  0  0
  -29.6458  -15.7499   32.0392 C   0  0  0  0  0  0  0  0  0  0  0  0
  -30.7147  -15.2705   29.5145 C   0  0  0  0  0  0  0  0  0  0  0  0
  -34.1859  -17.0064   24.7771 C   0  0  0  0  0  0  0  0  0  0  0  0
  -29.2458  -11.3074   19.0188 C   0  0  0  0  0  0  0  0  0  0  0  0
  -25.3078  -29.1738   19.1986 C   0  0  0  0  0  0  0  0  0  0  0  0
  -25.3020  -28.4038   21.4886 C   0  0  0  0  0  0  0  0  0  0  0  0
  -34.3217  -16.5089   23.4818 C   0  0  0  0  0  0  0  0  0  0  0  0
  -24.7608  -31.6796   22.1186 C   0  0  0  0  0  0  0  0  0  0  0  0
  -24.8006  -32.4313   23.2928 C   0  0  0  0  0  0  0  0  0  0  0  0
  -32.7415  -18.1514   22.6916 C   0  0  0  0  0  0  0  0  0  0  0  0
  -27.8476  -13.2357   19.4235 C   0  0  0  0  0  0  0  0  0  0  0  0
  -22.7900  -31.3351   24.0627 C   0  0  0  0  0  0  0  0  0  0  0  0
  -26.9383  -27.5482   19.9305 C   0  0  0  0  0  0  0  0  0  0  0  0
  -30.1600  -13.2521   20.1231 C   0  0  0  0  0  0  0  0  0  0  0  0
  -29.4278  -27.0184   19.7595 C   0  0  0  0  0  0  0  0  0  0  0  0
  -29.2494  -16.5555   30.9601 C   0  0  0  0  0  0  0  0  0  0  0  0
  -33.3171  -18.0749   25.0417 C   0  0  0  0  0  0  0  0  0  0  0  0
  -29.7813  -16.3079   29.6801 C   0  0  0  0  0  0  0  0  0  0  0  0
  -32.5984  -18.6623   23.9907 C   0  0  0  0  0  0  0  0  0  0  0  0
  -28.0090  -11.9446   18.9205 C   0  0  0  0  0  0  0  0  0  0  0  0
  -28.9231  -13.8894   20.0248 C   0  0  0  0  0  0  0  0  0  0  0  0
  -24.7604  -29.2024   20.4813 C   0  0  0  0  0  0  0  0  0  0  0  0
  -33.5973  -17.0795   22.4393 C   0  0  0  0  0  0  0  0  0  0  0  0
  -23.7356  -30.7556   21.9164 C   0  0  0  0  0  0  0  0  0  0  0  0
  -23.8152  -32.2591   24.2649 C   0  0  0  0  0  0  0  0  0  0  0  0
  -22.7502  -30.5833   22.8884 C   0  0  0  0  0  0  0  0  0  0  0  0
  -28.0628  -26.6932   19.6465 C   0  0  0  0  0  0  0  0  0  0  0  0
  -30.0859  -25.8750   19.3775 C   0  0  0  0  0  0  0  0  0  0  0  0
  -31.3292  -13.9286   20.7621 C   0  0  0  0  0  0  0  0  0  0  0  0
  -30.0456  -28.2444   20.1729 C   0  0  0  0  0  0  0  0  0  0  0  0
  -30.7156  -18.4615   26.8268 C   0  0  0  0  0  0  0  0  0  0  0  0
  -28.3891  -20.1844   19.4909 C   0  0  0  0  0  0  0  0  0  0  0  0
  -31.0390  -21.5635   25.9349 C   0  0  0  0  0  0  0  0  0  0  0  0
  -32.2502  -23.8177   23.6769 C   0  0  0  0  0  0  0  0  0  0  0  0
  -28.2098  -17.6227   31.1943 C   0  0  0  0  0  0  0  0  0  0  0  0
  -33.2020  -18.6173   26.4399 C   0  0  0  0  0  0  0  0  0  0  0  0
  -31.6678  -19.8244   24.2186 C   0  0  0  0  0  0  0  0  0  0  0  0
  -28.1291  -18.6517   30.0695 C   0  0  0  0  0  0  0  0  0  0  0  0
  -29.6055  -22.0202   16.5966 C   0  0  0  0  0  0  0  0  0  0  0  0
  -28.1124  -17.9577   28.7113 C   0  0  0  0  0  0  0  0  0  0  0  0
  -29.4416  -23.4667   17.0612 C   0  0  0  0  0  0  0  0  0  0  0  0
  -28.4887  -21.1285   17.1328 C   0  0  0  0  0  0  0  0  0  0  0  0
  -28.1813  -22.6163   19.0864 C   0  0  0  0  0  0  0  0  0  0  0  0
  -29.3996  -17.1553   28.4858 C   0  0  1  0  0  0  0  0  0  0  0  0
  -31.9000  -19.3747   26.6816 C   0  0  1  0  0  0  0  0  0  0  0  0
  -29.3049  -23.5426   18.5919 C   0  0  2  0  0  0  0  0  0  0  0  0
  -26.8592  -11.2460   18.2766 C   0  0  0  0  0  0  0  0  0  0  0  0
  -32.3230  -26.2796   23.1965 C   0  0  0  0  0  0  0  0  0  0  0  0
  -28.1437  -21.4599   24.9778 C   0  0  0  0  0  0  0  0  0  0  0  0
  -28.5696  -23.5600   23.6831 C   0  0  0  0  0  0  0  0  0  0  0  0
  -28.7738  -23.5665   26.1693 C   0  0  0  0  0  0  0  0  0  0  0  0
  -35.2046  -23.8803   23.8415 C   0  0  0  0  0  0  0  0  0  0  0  0
  -28.7228  -15.2718   20.5544 C   0  0  0  0  0  0  0  0  0  0  0  0
  -32.6074  -14.1813   19.9735 C   0  0  0  0  0  0  0  0  0  0  0  0
  -28.5418  -18.8045   18.9021 C   0  0  0  0  0  0  0  0  0  0  0  0
  -28.7137  -16.3247   19.4363 C   0  0  0  0  0  0  0  0  0  0  0  0
  -32.6248  -15.5579   19.3136 C   0  0  0  0  0  0  0  0  0  0  0  0
  -28.5435  -17.7407   19.9954 C   0  0  0  0  0  0  0  0  0  0  0  0
  -32.5919  -16.7042   20.3170 C   0  0  0  0  0  0  0  0  0  1  0  0
  -30.5394  -22.4026   24.7837 C   0  0  1  0  0  0  0  0  0  0  0  0
  -33.0292  -25.1077   23.8602 C   0  0  2  0  0  0  0  0  0  0  0  0
  -29.0226  -22.7241   24.8992 C   0  0  0  0  0  0  0  0  0  0  0  0
  -27.8641  -25.4413   19.2256 N   0  0  0  0  0  0  0  0  0  0  0  0
  -31.2633  -14.3103   21.9992 N   0  0  0  0  0  0  0  0  0  0  0  0
  -29.1130  -24.9698   19.0706 N   0  0  0  0  0  0  0  0  0  0  0  0
  -31.5846  -20.3150   25.6042 N   0  0  0  0  0  0  0  0  0  0  0  0
  -28.3728  -21.2502   18.5910 N   0  0  0  0  0  0  0  0  0  0  0  0
  -31.3961  -25.5656   19.2775 N   0  0  0  0  0  0  0  0  0  0  0  0
  -29.2218  -29.3200   20.5317 N   0  0  0  0  0  0  0  0  0  0  0  0
  -30.4877  -18.0373   28.1220 N   0  0  0  0  0  0  0  0  0  0  0  0
  -31.3980  -23.5811   24.7347 N   0  0  0  0  0  0  0  0  0  0  0  0
  -34.3895  -24.9803   23.2648 N   0  3  0  0  0  0  0  0  0  0  0  0
  -31.2914  -28.3874   20.2068 O   0  0  0  0  0  0  0  0  0  0  0  0
  -30.0564  -18.1650   25.8372 O   0  0  0  0  0  0  0  0  0  0  0  0
  -28.2902  -20.3093   20.7143 O   0  0  0  0  0  0  0  0  0  0  0  0
  -30.9551  -22.0028   27.0845 O   0  0  0  0  0  0  0  0  0  0  0  0
  -32.3817  -23.0943   22.6920 O   0  0  0  0  0  0  0  0  0  0  0  0
  -23.6980  -30.0094   20.7504 O   0  0  0  0  0  0  0  0  0  0  0  0
  -33.7276  -16.5954   21.1742 O   0  0  0  0  0  0  0  0  0  1  0  0
  -23.8543  -32.9800   25.3932 F   0  0  0  0  0  0  0  0  0  0  0  0
  -21.7635  -29.6963   22.7003 F   0  0  0  0  0  0  0  0  0  0  0  0
  1  2  1  0  0  0  0
  1  6  2  0  0  0  0
  2  7  2  0  0  0  0
  3 10  2  0  0  0  0
  3 18  1  0  0  0  0
  4 11  1  0  0  0  0
  4 18  2  0  0  0  0
  5  9  2  0  0  0  0
  5 19  1  0  0  0  0
  6 21  1  0  0  0  0
  7 23  1  0  0  0  0
  8 12  2  0  0  0  0
  8 22  1  0  0  0  0
  9 25  1  0  0  0  0
 10 27  1  0  0  0  0
 11 27  2  0  0  0  0
 12 28  1  0  0  0  0
 13 14  2  0  0  0  0
 13 29  1  0  0  0  0
 14 30  1  0  0  0  0
 15 24  1  0  0  0  0
 15 28  2  0  0  0  0
 16 25  2  0  0  0  0
 16 26  1  0  0  0  0
 17 30  2  0  0  0  0
 17 31  1  0  0  0  0
 18 32  1  0  0  0  0
 19 26  2  0  0  0  0
 19 34  1  0  0  0  0
 20 32  1  0  0  0  0
 20 33  2  0  0  0  0
 20 35  1  0  0  0  0
 21 23  2  0  0  0  0
 21 40  1  0  0  0  0
 22 24  2  0  0  0  0
 22 41  1  0  0  0  0
 23 49  1  0  0  0  0
 24 42  1  0  0  0  0
 25 52  1  0  0  0  0
 26 58  1  0  0  0  0
 27 83  1  0  0  0  0
 28 84  1  0  0  0  0
 29 31  2  0  0  0  0
 29 83  1  0  0  0  0
 30 85  1  0  0  0  0
 31 86  1  0  0  0  0
 32 68  2  0  0  0  0
 33 70  1  0  0  0  0
 33 73  1  0  0  0  0
 34 59  1  0  0  0  0
 34 69  2  0  0  0  0
 35 74  1  0  0  0  0
 35 78  2  0  0  0  0
 36 50  1  0  0  0  0
 36 75  1  0  0  0  0
 36 79  2  0  0  0  0
 37 60  1  0  0  0  0
 37 72  1  0  0  0  0
 37 80  2  0  0  0  0
 38 65  1  0  0  0  0
 38 71  1  0  0  0  0
 38 81  2  0  0  0  0
 39 66  1  0  0  0  0
 39 76  1  0  0  0  0
 39 82  2  0  0  0  0
 40 43  1  0  0  0  0
 41 50  1  0  0  0  0
 42 71  1  0  0  0  0
 43 45  1  0  0  0  0
 44 46  1  0  0  0  0
 44 47  1  0  0  0  0
 45 49  1  0  0  0  0
 46 51  1  0  0  0  0
 47 72  1  0  0  0  0
 48 51  1  0  0  0  0
 48 72  1  0  0  0  0
 49 75  1  0  0  0  0
 50 71  1  0  0  0  0
 51 70  1  0  0  0  0
 53 66  1  0  0  0  0
 54 67  1  0  0  0  0
 55 67  1  0  0  0  0
 56 67  1  0  0  0  0
 57 77  1  0  0  0  0
 58 61  1  0  0  0  0
 59 62  1  0  0  0  0
 60 63  1  0  0  0  0
 61 63  1  0  0  0  0
 62 64  1  0  0  0  0
 64 84  1  0  0  0  0
 65 67  1  0  0  0  0
 65 76  1  0  0  0  0
 66 77  1  0  0  0  0
 68 70  1  0  0  0  0
M  CHG  1  77   1
M  ISO  4  37 100  60 100  64 101  84 101
M  END
> <Batch ID>
0133

> <Smiles>
CNC(C)C(=O)NC(C(=O)N1Cc2cc([101O:1][101CH2:1]CCC(=N)c3ccc(C)cc3CCC[100CH2:0][100C:0](=O)N3CCCC(n4nc(-c5ccc(Oc6ccc(F)cc6F)cc5)c(C(N)=O)c4N)C3)ccc2CC1C(=O)NC1CCCc2ccccc21)C(C)(C)C

> <Shape>
0.208

> <Color>
0.053

> <Negative vol penalty>
0.000

$$$$
