
  -OEChem-04052302333D

 85 93  0     1  0  0  0  0  0999 V2000
  -13.2171  -27.0488   17.7026 C   0  0  0  0  0  0  0  0  0  0  0  0
  -14.3303  -26.2167   17.6408 C   0  0  0  0  0  0  0  0  0  0  0  0
  -22.9947   -9.8995   19.9918 C   0  0  0  0  0  0  0  0  0  0  0  0
  -23.7494   -9.9509   22.2863 C   0  0  0  0  0  0  0  0  0  0  0  0
  -13.3052  -28.2823   18.3466 C   0  0  0  0  0  0  0  0  0  0  0  0
  -15.5325  -26.6180   18.2222 C   0  0  0  0  0  0  0  0  0  0  0  0
  -19.6706  -23.0347   20.9684 C   0  0  0  0  0  0  0  0  0  0  0  0
  -30.7050  -17.7385   24.2053 C   0  0  0  0  0  0  0  0  0  0  0  0
  -30.1871  -18.7349   25.0326 C   0  0  0  0  0  0  0  0  0  0  0  0
  -22.2343   -8.7631   20.2674 C   0  0  0  0  0  0  0  0  0  0  0  0
  -22.9890   -8.8145   22.5619 C   0  0  0  0  0  0  0  0  0  0  0  0
  -20.8684  -22.4753   20.5255 C   0  0  0  0  0  0  0  0  0  0  0  0
  -23.2350   -5.4764   22.0851 C   0  0  0  0  0  0  0  0  0  0  0  0
  -23.8346   -4.4602   22.8290 C   0  0  0  0  0  0  0  0  0  0  0  0
  -22.0826  -24.3167   21.5023 C   0  0  0  0  0  0  0  0  0  0  0  0
  -29.9156  -18.9402   22.2637 C   0  0  0  0  0  0  0  0  0  0  0  0
  -22.1319   -4.6982   24.5264 C   0  0  0  0  0  0  0  0  0  0  0  0
  -23.7523  -10.4934   21.0013 C   0  0  0  0  0  0  0  0  0  0  0  0
  -24.1294  -13.0100   20.8217 C   0  0  0  0  0  0  0  0  0  0  0  0
  -14.5064  -28.6947   18.9446 C   0  0  0  0  0  0  0  0  0  0  0  0
  -19.6690  -24.2469   21.6734 C   0  0  0  0  0  0  0  0  0  0  0  0
  -15.6371  -27.8587   18.8737 C   0  0  0  0  0  0  0  0  0  0  0  0
  -20.8837  -24.8881   21.9554 C   0  0  0  0  0  0  0  0  0  0  0  0
  -30.5693  -17.8411   22.8208 C   0  0  0  0  0  0  0  0  0  0  0  0
  -29.5334  -19.8340   24.4755 C   0  0  0  0  0  0  0  0  0  0  0  0
  -22.2314   -8.2206   21.5524 C   0  0  0  0  0  0  0  0  0  0  0  0
  -22.0744  -23.1178   20.7899 C   0  0  0  0  0  0  0  0  0  0  0  0
  -22.0839   -6.1036   22.5619 C   0  0  0  0  0  0  0  0  0  0  0  0
  -29.3977  -19.9366   23.0910 C   0  0  0  0  0  0  0  0  0  0  0  0
  -23.2830   -4.0711   24.0496 C   0  0  0  0  0  0  0  0  0  0  0  0
  -21.5323   -5.7145   23.7825 C   0  0  0  0  0  0  0  0  0  0  0  0
  -24.5384  -11.6670   20.7171 C   0  0  0  0  0  0  0  0  0  0  0  0
  -25.2327  -13.7353   20.4434 C   0  0  0  0  0  0  0  0  0  0  0  0
  -22.8653  -13.5532   21.2248 C   0  0  0  0  0  0  0  0  0  0  0  0
  -18.4440  -27.1357   21.1652 C   0  0  0  0  0  0  0  0  0  0  0  0
  -30.7494  -14.6183   20.7200 C   0  0  0  0  0  0  0  0  0  0  0  0
  -19.5303  -27.6977   24.1696 C   0  0  0  0  0  0  0  0  0  0  0  0
  -21.7119  -26.8769   26.6624 C   0  0  0  0  0  0  0  0  0  0  0  0
  -14.5664  -30.0572   19.5884 C   0  0  0  0  0  0  0  0  0  0  0  0
  -18.3707  -24.8236   22.1676 C   0  0  0  0  0  0  0  0  0  0  0  0
  -20.9378  -26.1810   22.7260 C   0  0  0  0  0  0  0  0  0  0  0  0
  -15.7729  -30.2454   20.5046 C   0  0  0  0  0  0  0  0  0  0  0  0
  -29.5583  -12.2789   18.2810 C   0  0  0  0  0  0  0  0  0  0  0  0
  -17.0434  -29.7471   19.8233 C   0  0  0  0  0  0  0  0  0  0  0  0
  -28.1228  -11.9986   18.7235 C   0  0  0  0  0  0  0  0  0  0  0  0
  -30.4789  -12.4975   19.4776 C   0  0  0  0  0  0  0  0  0  0  0  0
  -28.5828  -13.2919   20.8544 C   0  0  0  0  0  0  0  0  0  0  0  0
  -16.9519  -28.2480   19.5138 C   0  0  1  0  0  0  0  0  0  0  0  0
  -18.4450  -26.3246   22.4300 C   0  0  1  0  0  0  0  0  0  0  0  0
  -27.6135  -13.0955   19.6752 C   0  0  2  0  0  0  0  0  0  0  0  0
  -29.8610  -22.1386   25.4072 C   0  0  0  0  0  0  0  0  0  0  0  0
  -22.3860  -27.5388   28.9872 C   0  0  0  0  0  0  0  0  0  0  0  0
  -20.9998  -30.1259   23.0496 C   0  0  0  0  0  0  0  0  0  0  0  0
  -22.3724  -30.1736   25.1428 C   0  0  0  0  0  0  0  0  0  0  0  0
  -19.9025  -30.5011   25.2653 C   0  0  0  0  0  0  0  0  0  0  0  0
  -21.0030  -24.2173   27.7500 C   0  0  0  0  0  0  0  0  0  0  0  0
  -31.1239  -16.7757   21.9366 C   0  0  0  0  0  0  0  0  0  0  0  0
  -28.9842  -20.8901   25.3764 C   0  0  0  0  0  0  0  0  0  0  0  0
  -30.1331  -15.6433   21.6384 C   0  0  0  0  0  0  0  0  0  0  0  0
  -25.3925  -21.6791   21.0037 C   0  0  0  0  0  0  0  0  0  0  0  0
  -26.6462  -21.9053   21.8415 C   0  0  0  0  0  0  0  0  0  0  0  0
  -24.4094  -22.8341   21.1408 C   0  0  0  0  0  0  0  0  0  1  0  0
  -27.6103  -20.7319   21.7388 C   0  0  0  0  0  0  0  0  0  0  0  0
  -20.8244  -28.2014   24.7618 C   0  0  1  0  0  0  0  0  0  0  0  0
  -21.5008  -26.6327   28.1458 C   0  0  2  0  0  0  0  0  0  0  0  0
  -21.0239  -29.7271   24.5386 C   0  0  0  0  0  0  0  0  0  0  0  0
  -25.8028  -11.5437   20.3045 N   0  0  0  0  0  0  0  0  0  0  0  0
  -26.1977  -12.8185   20.1464 N   0  0  0  0  0  0  0  0  0  0  0  0
  -19.6412  -26.7083   23.1824 N   0  0  0  0  0  0  0  0  0  0  0  0
  -29.9490  -13.5310   20.3689 N   0  0  0  0  0  0  0  0  0  0  0  0
  -25.4617  -15.0616   20.3390 N   0  0  0  0  0  0  0  0  0  0  0  0
  -21.8401  -12.6665   21.5812 N   0  0  0  0  0  0  0  0  0  0  0  0
  -17.1821  -27.4696   20.7120 N   0  0  0  0  0  0  0  0  0  0  0  0
  -20.8157  -27.7987   26.1640 N   0  0  0  0  0  0  0  0  0  0  0  0
  -21.8172  -25.2172   28.4879 N   0  3  0  0  0  0  0  0  0  0  0  0
  -22.6460  -14.7880   21.2521 O   0  0  0  0  0  0  0  0  0  0  0  0
  -19.5094  -27.4376   20.6402 O   0  0  0  0  0  0  0  0  0  0  0  0
  -31.9066  -14.7823   20.3250 O   0  0  0  0  0  0  0  0  0  0  0  0
  -18.4602  -28.1597   24.5734 O   0  0  0  0  0  0  0  0  0  0  0  0
  -22.5868  -26.3097   26.0119 O   0  0  0  0  0  0  0  0  0  0  0  0
  -21.4894   -7.1118   21.8218 O   0  0  0  0  0  0  0  0  0  0  0  0
  -23.2449  -22.5743   20.3581 O   0  0  0  0  0  0  0  0  0  1  0  0
  -28.7592  -21.0105   22.5270 O   0  0  0  0  0  0  0  0  0  0  0  0
  -23.8580   -3.0941   24.7632 F   0  0  0  0  0  0  0  0  0  0  0  0
  -20.4259   -6.3125   24.2452 F   0  0  0  0  0  0  0  0  0  0  0  0
  1  2  1  0  0  0  0
  1  5  2  0  0  0  0
  2  6  2  0  0  0  0
  3 10  2  0  0  0  0
  3 18  1  0  0  0  0
  4 11  1  0  0  0  0
  4 18  2  0  0  0  0
  5 20  1  0  0  0  0
  6 22  1  0  0  0  0
  7 12  2  0  0  0  0
  7 21  1  0  0  0  0
  8  9  2  0  0  0  0
  8 24  1  0  0  0  0
  9 25  1  0  0  0  0
 10 26  1  0  0  0  0
 11 26  2  0  0  0  0
 12 27  1  0  0  0  0
 13 14  2  0  0  0  0
 13 28  1  0  0  0  0
 14 30  1  0  0  0  0
 15 23  1  0  0  0  0
 15 27  2  0  0  0  0
 16 24  2  0  0  0  0
 16 29  1  0  0  0  0
 17 30  2  0  0  0  0
 17 31  1  0  0  0  0
 18 32  1  0  0  0  0
 19 32  1  0  0  0  0
 19 33  2  0  0  0  0
 19 34  1  0  0  0  0
 20 22  2  0  0  0  0
 20 39  1  0  0  0  0
 21 23  2  0  0  0  0
 21 40  1  0  0  0  0
 22 48  1  0  0  0  0
 23 41  1  0  0  0  0
 24 57  1  0  0  0  0
 25 29  2  0  0  0  0
 25 58  1  0  0  0  0
 26 81  1  0  0  0  0
 27 82  1  0  0  0  0
 28 31  2  0  0  0  0
 28 81  1  0  0  0  0
 29 83  1  0  0  0  0
 30 84  1  0  0  0  0
 31 85  1  0  0  0  0
 32 67  2  0  0  0  0
 33 68  1  0  0  0  0
 33 71  1  0  0  0  0
 34 72  1  0  0  0  0
 34 76  2  0  0  0  0
 35 49  1  0  0  0  0
 35 73  1  0  0  0  0
 35 77  2  0  0  0  0
 36 59  1  0  0  0  0
 36 70  1  0  0  0  0
 36 78  2  0  0  0  0
 37 64  1  0  0  0  0
 37 69  1  0  0  0  0
 37 79  2  0  0  0  0
 38 65  1  0  0  0  0
 38 74  1  0  0  0  0
 38 80  2  0  0  0  0
 39 42  1  0  0  0  0
 40 49  1  0  0  0  0
 41 69  1  0  0  0  0
 42 44  1  0  0  0  0
 43 45  1  0  0  0  0
 43 46  1  0  0  0  0
 44 48  1  0  0  0  0
 45 50  1  0  0  0  0
 46 70  1  0  0  0  0
 47 50  1  0  0  0  0
 47 70  1  0  0  0  0
 48 73  1  0  0  0  0
 49 69  1  0  0  0  0
 50 68  1  0  0  0  0
 51 58  1  0  0  0  0
 52 65  1  0  0  0  0
 53 66  1  0  0  0  0
 54 66  1  0  0  0  0
 55 66  1  0  0  0  0
 56 75  1  0  0  0  0
 57 59  1  0  0  0  0
 60 61  1  0  0  0  0
 60 62  1  0  0  0  0
 61 63  1  0  0  0  0
 62 82  1  0  0  0  0
 63 83  1  0  0  0  0
 64 66  1  0  0  0  0
 64 74  1  0  0  0  0
 65 75  1  0  0  0  0
 67 68  1  0  0  0  0
M  CHG  1  75   1
M  ISO  4  36 100  59 100  62 101  82 101
M  END
> <Batch ID>
0134

> <Smiles>
CCc1ccc(C[100CH2:0][100C:0](=O)N2CCCC(n3nc(-c4ccc(Oc5ccc(F)cc5F)cc4)c(C(N)=O)c3N)C2)cc1OCCC[101CH2:1][101O:1]c1ccc2c(c1)CN(C(=O)C(NC(=O)C(C)NC)C(C)(C)C)C(C(=O)NC1CCCc3ccccc31)C2

> <Shape>
0.245

> <Color>
0.200

> <Negative vol penalty>
0.000

$$$$

  -OEChem-04052302333D

 92101  0     1  0  0  0  0  0999 V2000
  -19.2156  -33.6355   23.0528 C   0  0  0  0  0  0  0  0  0  0  0  0
  -20.5363  -33.4833   22.6429 C   0  0  0  0  0  0  0  0  0  0  0  0
  -32.4066  -22.4457   15.9940 C   0  0  0  0  0  0  0  0  0  0  0  0
  -23.8547  -14.9539   23.1750 C   0  0  0  0  0  0  0  0  0  0  0  0
  -22.4005  -14.7745   21.2540 C   0  0  0  0  0  0  0  0  0  0  0  0
  -31.5973  -21.6144   16.7684 C   0  0  0  0  0  0  0  0  0  0  0  0
  -30.5788  -21.3545   21.4091 C   0  0  0  0  0  0  0  0  0  0  0  0
  -18.5662  -32.5914   23.7100 C   0  0  0  0  0  0  0  0  0  0  0  0
  -21.2088  -32.2872   22.8911 C   0  0  0  0  0  0  0  0  0  0  0  0
  -25.4116  -29.6182   19.3248 C   0  0  0  0  0  0  0  0  0  0  0  0
  -33.0939  -23.5027   16.5906 C   0  0  0  0  0  0  0  0  0  0  0  0
  -29.9481  -21.7928   22.5735 C   0  0  0  0  0  0  0  0  0  0  0  0
  -22.7445  -15.1441   23.9977 C   0  0  0  0  0  0  0  0  0  0  0  0
  -21.2902  -14.9646   22.0768 C   0  0  0  0  0  0  0  0  0  0  0  0
  -26.8052  -29.6088   19.3635 C   0  0  0  0  0  0  0  0  0  0  0  0
  -20.6382  -17.6644   24.7952 C   0  0  0  0  0  0  0  0  0  0  0  0
  -20.7049  -18.6812   25.7477 C   0  0  0  0  0  0  0  0  0  0  0  0
  -32.1625  -22.8973   18.7361 C   0  0  0  0  0  0  0  0  0  0  0  0
  -26.7519  -27.5135   20.5578 C   0  0  0  0  0  0  0  0  0  0  0  0
  -28.0081  -22.4307   21.2825 C   0  0  0  0  0  0  0  0  0  0  0  0
  -20.3830  -17.0555   27.5057 C   0  0  0  0  0  0  0  0  0  0  0  0
  -23.6827  -14.7692   21.8031 C   0  0  0  0  0  0  0  0  0  0  0  0
  -31.4752  -21.8403   18.1394 C   0  0  0  0  0  0  0  0  0  0  0  0
  -29.9242  -21.4543   20.1814 C   0  0  0  0  0  0  0  0  0  0  0  0
  -25.4336  -13.3493   20.6092 C   0  0  0  0  0  0  0  0  0  0  0  0
  -19.2279  -31.3784   23.9578 C   0  0  0  0  0  0  0  0  0  0  0  0
  -24.6762  -28.5790   19.9129 C   0  0  0  0  0  0  0  0  0  0  0  0
  -20.5680  -31.2264   23.5535 C   0  0  0  0  0  0  0  0  0  0  0  0
  -25.3491  -27.5108   20.5230 C   0  0  0  0  0  0  0  0  0  0  0  0
  -32.9719  -23.7285   17.9617 C   0  0  0  0  0  0  0  0  0  0  0  0
  -28.6627  -22.3309   22.5102 C   0  0  0  0  0  0  0  0  0  0  0  0
  -28.6388  -21.9924   20.1181 C   0  0  0  0  0  0  0  0  0  0  0  0
  -21.4623  -15.1494   23.4487 C   0  0  0  0  0  0  0  0  0  0  0  0
  -27.4756  -28.5578   19.9826 C   0  0  0  0  0  0  0  0  0  0  0  0
  -20.4439  -16.3431   25.1980 C   0  0  0  0  0  0  0  0  0  0  0  0
  -20.5773  -18.3768   27.1030 C   0  0  0  0  0  0  0  0  0  0  0  0
  -20.3163  -16.0387   26.5532 C   0  0  0  0  0  0  0  0  0  0  0  0
  -24.8292  -14.5734   20.9527 C   0  0  0  0  0  0  0  0  0  0  0  0
  -26.4759  -13.7000   19.7863 C   0  0  0  0  0  0  0  0  0  0  0  0
  -30.4171  -19.6655   18.6312 C   0  0  0  0  0  0  0  0  0  0  0  0
  -30.6306  -20.9739   18.9469 C   0  0  0  0  0  0  0  0  0  0  0  0
  -25.0841  -12.0145   20.9990 C   0  0  0  0  0  0  0  0  0  0  0  0
  -29.5671  -18.7564   19.4261 C   0  0  0  0  0  0  0  0  0  0  0  0
  -22.5586  -28.3878   22.2757 C   0  0  0  0  0  0  0  0  0  0  0  0
  -22.3183  -25.3071   21.2886 C   0  0  0  0  0  0  0  0  0  0  0  0
  -23.7567  -22.6557   19.6925 C   0  0  0  0  0  0  0  0  0  0  0  0
  -18.4996  -30.2954   24.7136 C   0  0  0  0  0  0  0  0  0  0  0  0
  -23.1739  -28.5905   19.8392 C   0  0  0  0  0  0  0  0  0  0  0  0
  -24.6065  -26.3609   21.1513 C   0  0  0  0  0  0  0  0  0  0  0  0
  -19.1636  -28.9251   24.6052 C   0  0  0  0  0  0  0  0  0  0  0  0
  -27.8425  -17.0510   16.6786 C   0  0  0  0  0  0  0  0  0  0  0  0
  -20.6664  -29.0399   24.8401 C   0  0  0  0  0  0  0  0  0  0  0  0
  -26.8912  -16.1397   17.4496 C   0  0  0  0  0  0  0  0  0  0  0  0
  -28.0663  -18.3816   17.3955 C   0  0  0  0  0  0  0  0  0  0  0  0
  -27.5727  -17.3169   19.5780 C   0  0  0  0  0  0  0  0  0  0  0  0
  -21.3232  -29.9351   23.7824 C   0  0  1  0  0  0  0  0  0  0  0  0
  -22.5162  -27.7393   20.9209 C   0  0  1  0  0  0  0  0  0  0  0  0
  -27.3701  -15.9538   18.8981 C   0  0  1  0  0  0  0  0  0  0  0  0
  -27.9074  -22.1152   18.8201 C   0  0  0  0  0  0  0  0  0  0  0  0
  -28.2711  -24.2682   24.0529 C   0  0  0  0  0  0  0  0  0  0  0  0
  -23.3323  -20.2599   19.0779 C   0  0  0  0  0  0  0  0  0  0  0  0
  -22.8769  -24.4717   24.1695 C   0  0  0  0  0  0  0  0  0  0  0  0
  -23.3798  -22.1672   23.3302 C   0  0  0  0  0  0  0  0  0  0  0  0
  -21.1018  -23.1356   23.0214 C   0  0  0  0  0  0  0  0  0  0  0  0
  -23.9536  -23.2421   16.7983 C   0  0  0  0  0  0  0  0  0  0  0  0
  -33.7162  -24.8706   18.6065 C   0  0  0  0  0  0  0  0  0  0  0  0
  -27.9874  -22.7981   23.7549 C   0  0  0  0  0  0  0  0  0  0  0  0
  -32.9284  -26.1853   18.6360 C   0  0  0  0  0  0  0  0  0  0  0  0
  -31.5749  -26.0573   19.3420 C   0  0  0  0  0  0  0  0  0  0  0  0
  -30.8392  -27.3958   19.3748 C   0  0  0  0  0  0  0  0  0  0  0  0
  -29.4745  -27.2705   20.0371 C   0  0  0  0  0  0  0  0  0  1  0  0
  -23.0218  -24.0164   21.6322 C   0  0  1  0  0  0  0  0  0  0  0  0
  -23.2249  -21.7096   18.6311 C   0  0  2  0  0  0  0  0  0  0  0  0
  -22.6093  -23.4702   23.0283 C   0  0  0  0  0  0  0  0  0  0  0  0
  -25.4370  -15.6233   20.3939 N   0  0  0  0  0  0  0  0  0  0  0  0
  -26.4343  -15.0599   19.6910 N   0  0  0  0  0  0  0  0  0  0  0  0
  -28.4669  -18.1778   18.7958 N   0  0  0  0  0  0  0  0  0  0  0  0
  -23.1384  -26.4209   21.0590 N   0  0  0  0  0  0  0  0  0  0  0  0
  -27.4149  -12.9747   19.1423 N   0  0  0  0  0  0  0  0  0  0  0  0
  -23.9847  -11.8330   21.8491 N   0  0  0  0  0  0  0  0  0  0  0  0
  -21.4823  -29.2138   22.5379 N   0  0  0  0  0  0  0  0  0  0  0  0
  -22.7547  -23.0997   20.5292 N   0  0  0  0  0  0  0  0  0  0  0  0
  -23.9925  -21.8689   17.3637 N   0  3  0  0  0  0  0  0  0  0  0  0
  -25.7376  -11.0137   20.6182 O   0  0  0  0  0  0  0  0  0  0  0  0
  -29.8808  -18.5684   20.6030 O   0  0  0  0  0  0  0  0  0  0  0  0
  -23.4974  -28.1548   23.0279 O   0  0  0  0  0  0  0  0  0  0  0  0
  -21.0868  -25.3248   21.2192 O   0  0  0  0  0  0  0  0  0  0  0  0
  -24.9430  -22.9665   19.7737 O   0  0  0  0  0  0  0  0  0  0  0  0
  -20.3787  -15.3346   24.2512 O   0  0  0  0  0  0  0  0  0  0  0  0
  -28.8358  -28.5465   20.0223 O   0  0  0  0  0  0  0  0  0  1  0  0
  -20.6429  -19.3531   28.0176 F   0  0  0  0  0  0  0  0  0  0  0  0
  -20.1306  -14.7710   26.9463 F   0  0  0  0  0  0  0  0  0  0  0  0
  1  2  1  0  0  0  0
  1  8  2  0  0  0  0
  2  9  2  0  0  0  0
  3  6  2  0  0  0  0
  3 11  1  0  0  0  0
  4 13  2  0  0  0  0
  4 22  1  0  0  0  0
  5 14  1  0  0  0  0
  5 22  2  0  0  0  0
  6 23  1  0  0  0  0
  7 12  2  0  0  0  0
  7 24  1  0  0  0  0
  8 26  1  0  0  0  0
  9 28  1  0  0  0  0
 10 15  2  0  0  0  0
 10 27  1  0  0  0  0
 11 30  2  0  0  0  0
 12 31  1  0  0  0  0
 13 33  1  0  0  0  0
 14 33  2  0  0  0  0
 15 34  1  0  0  0  0
 16 17  2  0  0  0  0
 16 35  1  0  0  0  0
 17 36  1  0  0  0  0
 18 23  2  0  0  0  0
 18 30  1  0  0  0  0
 19 29  1  0  0  0  0
 19 34  2  0  0  0  0
 20 31  2  0  0  0  0
 20 32  1  0  0  0  0
 21 36  2  0  0  0  0
 21 37  1  0  0  0  0
 22 38  1  0  0  0  0
 23 41  1  0  0  0  0
 24 32  2  0  0  0  0
 24 41  1  0  0  0  0
 25 38  1  0  0  0  0
 25 39  2  0  0  0  0
 25 42  1  0  0  0  0
 26 28  2  0  0  0  0
 26 47  1  0  0  0  0
 27 29  2  0  0  0  0
 27 48  1  0  0  0  0
 28 56  1  0  0  0  0
 29 49  1  0  0  0  0
 30 66  1  0  0  0  0
 31 67  1  0  0  0  0
 32 59  1  0  0  0  0
 33 89  1  0  0  0  0
 34 90  1  0  0  0  0
 35 37  2  0  0  0  0
 35 89  1  0  0  0  0
 36 91  1  0  0  0  0
 37 92  1  0  0  0  0
 38 75  2  0  0  0  0
 39 76  1  0  0  0  0
 39 79  1  0  0  0  0
 40 41  2  0  0  0  0
 40 43  1  0  0  0  0
 42 80  1  0  0  0  0
 42 84  2  0  0  0  0
 43 77  1  0  0  0  0
 43 85  2  0  0  0  0
 44 57  1  0  0  0  0
 44 81  1  0  0  0  0
 44 86  2  0  0  0  0
 45 72  1  0  0  0  0
 45 78  1  0  0  0  0
 45 87  2  0  0  0  0
 46 73  1  0  0  0  0
 46 82  1  0  0  0  0
 46 88  2  0  0  0  0
 47 50  1  0  0  0  0
 48 57  1  0  0  0  0
 49 78  1  0  0  0  0
 50 52  1  0  0  0  0
 51 53  1  0  0  0  0
 51 54  1  0  0  0  0
 52 56  1  0  0  0  0
 53 58  1  0  0  0  0
 54 77  1  0  0  0  0
 55 58  1  0  0  0  0
 55 77  1  0  0  0  0
 56 81  1  0  0  0  0
 57 78  1  0  0  0  0
 58 76  1  0  0  0  0
 60 67  1  0  0  0  0
 61 73  1  0  0  0  0
 62 74  1  0  0  0  0
 63 74  1  0  0  0  0
 64 74  1  0  0  0  0
 65 83  1  0  0  0  0
 66 68  1  0  0  0  0
 68 69  1  0  0  0  0
 69 70  1  0  0  0  0
 70 71  1  0  0  0  0
 71 90  1  0  0  0  0
 72 74  1  0  0  0  0
 72 82  1  0  0  0  0
 73 83  1  0  0  0  0
 75 76  1  0  0  0  0
M  CHG  1  83   1
M  ISO  4  40 100  43 100  71 101  90 101
M  END
> <Batch ID>
0134

> <Smiles>
CCc1ccc(C(=[100CH:0][100C:0](=O)N2CCCC(n3nc(-c4ccc(Oc5ccc(F)cc5F)cc4)c(C(N)=O)c3N)C2)c2cccc(CCCC[101CH2:1][101O:1]c3ccc4c(c3)CN(C(=O)C(NC(=O)C(C)NC)C(C)(C)C)C(C(=O)NC3CCCc5ccccc53)C4)c2)c(C)c1

> <Shape>
0.199

> <Color>
0.081

> <Negative vol penalty>
0.000

$$$$

  -OEChem-04052302333D

 88 96  0     1  0  0  0  0  0999 V2000
  -25.5839  -23.6927   24.0275 C   0  0  0  0  0  0  0  0  0  0  0  0
  -25.6059  -22.3129   23.8510 C   0  0  0  0  0  0  0  0  0  0  0  0
  -26.1063  -27.7706   18.8552 C   0  0  0  0  0  0  0  0  0  0  0  0
  -26.4978  -27.9332   21.2337 C   0  0  0  0  0  0  0  0  0  0  0  0
  -24.3702  -24.3784   24.0018 C   0  0  0  0  0  0  0  0  0  0  0  0
  -24.4139  -21.6178   23.6497 C   0  0  0  0  0  0  0  0  0  0  0  0
  -24.7540  -18.2202   19.9100 C   0  0  0  0  0  0  0  0  0  0  0  0
  -30.0242  -14.8929   23.6802 C   0  0  0  0  0  0  0  0  0  0  0  0
  -30.1192  -16.2752   23.8412 C   0  0  0  0  0  0  0  0  0  0  0  0
  -25.0216  -28.6393   18.9743 C   0  0  0  0  0  0  0  0  0  0  0  0
  -25.4130  -28.8020   21.3528 C   0  0  0  0  0  0  0  0  0  0  0  0
  -25.3979  -17.0179   20.1987 C   0  0  0  0  0  0  0  0  0  0  0  0
  -22.0416  -28.5766   21.4689 C   0  0  0  0  0  0  0  0  0  0  0  0
  -21.1477  -28.3572   22.5169 C   0  0  0  0  0  0  0  0  0  0  0  0
  -23.2557  -15.9450   20.4797 C   0  0  0  0  0  0  0  0  0  0  0  0
  -31.3545  -15.0358   21.6684 C   0  0  0  0  0  0  0  0  0  0  0  0
  -21.6305  -30.5579   23.3893 C   0  0  0  0  0  0  0  0  0  0  0  0
  -26.8444  -27.4175   19.9849 C   0  0  0  0  0  0  0  0  0  0  0  0
  -29.3075  -26.8642   19.6183 C   0  0  0  0  0  0  0  0  0  0  0  0
  -23.1637  -23.6926   23.7905 C   0  0  0  0  0  0  0  0  0  0  0  0
  -23.3538  -18.2968   19.9146 C   0  0  0  0  0  0  0  0  0  0  0  0
  -23.1828  -22.2948   23.6225 C   0  0  0  0  0  0  0  0  0  0  0  0
  -22.5963  -17.1489   20.1882 C   0  0  0  0  0  0  0  0  0  0  0  0
  -30.6419  -14.2732   22.5939 C   0  0  0  0  0  0  0  0  0  0  0  0
  -30.8318  -17.0378   22.9158 C   0  0  0  0  0  0  0  0  0  0  0  0
  -31.4494  -16.4181   21.8294 C   0  0  0  0  0  0  0  0  0  0  0  0
  -24.6750  -29.1551   20.2231 C   0  0  0  0  0  0  0  0  0  0  0  0
  -24.6488  -15.8807   20.4865 C   0  0  0  0  0  0  0  0  0  0  0  0
  -22.7301  -29.7865   21.3811 C   0  0  0  0  0  0  0  0  0  0  0  0
  -20.9421  -29.3479   23.4771 C   0  0  0  0  0  0  0  0  0  0  0  0
  -22.5245  -30.7772   22.3413 C   0  0  0  0  0  0  0  0  0  0  0  0
  -27.9647  -26.5196   19.8627 C   0  0  0  0  0  0  0  0  0  0  0  0
  -29.9712  -25.6620   19.5921 C   0  0  0  0  0  0  0  0  0  0  0  0
  -29.9019  -28.1556   19.4317 C   0  0  0  0  0  0  0  0  0  0  0  0
  -21.2019  -19.9247   21.5948 C   0  0  0  0  0  0  0  0  0  0  0  0
  -26.7809  -12.9939   19.9591 C   0  0  0  0  0  0  0  0  0  0  0  0
  -19.1241  -18.5926   19.4898 C   0  0  0  0  0  0  0  0  0  0  0  0
  -18.4366  -16.0630   17.3046 C   0  0  0  0  0  0  0  0  0  0  0  0
  -29.9349  -20.6224   22.2402 C   0  0  0  0  0  0  0  0  0  0  0  0
  -21.8720  -24.4707   23.8179 C   0  0  0  0  0  0  0  0  0  0  0  0
  -22.6740  -19.5948   19.5749 C   0  0  0  0  0  0  0  0  0  0  0  0
  -21.0904  -17.1734   20.1862 C   0  0  0  0  0  0  0  0  0  0  0  0
  -20.6892  -23.7089   23.2255 C   0  0  0  0  0  0  0  0  0  0  0  0
  -28.6309  -20.9555   18.8808 C   0  0  0  0  0  0  0  0  0  0  0  0
  -20.6480  -22.2830   23.7659 C   0  0  0  0  0  0  0  0  0  0  0  0
  -28.4575  -22.4714   18.7708 C   0  0  0  0  0  0  0  0  0  0  0  0
  -28.2832  -20.4595   20.2812 C   0  0  0  0  0  0  0  0  0  0  0  0
  -28.8717  -22.6394   21.2688 C   0  0  0  0  0  0  0  0  0  0  0  0
  -21.9132  -21.5088   23.3768 C   0  0  1  0  0  0  0  0  0  0  0  0
  -21.2490  -19.6818   20.1127 C   0  0  1  0  0  0  0  0  0  0  0  0
  -29.2296  -23.2059   19.8828 C   0  0  2  0  0  0  0  0  0  0  0  0
  -32.2173  -17.2141   20.8257 C   0  0  0  0  0  0  0  0  0  0  0  0
  -16.6429  -15.2250   15.7626 C   0  0  0  0  0  0  0  0  0  0  0  0
  -28.2224  -13.1633   17.9087 C   0  0  0  0  0  0  0  0  0  0  0  0
  -17.5399  -17.5739   21.8903 C   0  0  0  0  0  0  0  0  0  0  0  0
  -16.3548  -15.9954   20.3501 C   0  0  0  0  0  0  0  0  0  0  0  0
  -16.1403  -18.4581   20.0159 C   0  0  0  0  0  0  0  0  0  0  0  0
  -20.1961  -16.3063   14.9374 C   0  0  0  0  0  0  0  0  0  0  0  0
  -30.5386  -12.7785   22.4198 C   0  0  0  0  0  0  0  0  0  0  0  0
  -30.9186  -18.5162   23.1084 C   0  0  0  0  0  0  0  0  0  0  0  0
  -26.5443  -14.4826   20.1568 C   0  0  0  0  0  0  0  0  0  1  0  0
  -29.3278  -12.3340   21.5881 C   0  0  0  0  0  0  0  0  0  0  0  0
  -29.3334  -12.9223   20.1671 C   0  0  0  0  0  0  0  0  0  0  0  0
  -18.3214  -17.3150   19.4432 C   0  0  1  0  0  0  0  0  0  0  0  0
  -17.8969  -16.0764   15.8858 C   0  0  2  0  0  0  0  0  0  0  0  0
  -28.1037  -12.5566   19.3107 C   0  0  1  0  0  0  0  0  0  0  0  0
  -17.1175  -17.3353   20.4269 C   0  0  0  0  0  0  0  0  0  0  0  0
  -27.7842  -25.2017   19.9830 N   0  0  0  0  0  0  0  0  0  0  0  0
  -29.0225  -24.7076   19.8134 N   0  0  0  0  0  0  0  0  0  0  0  0
  -20.4723  -18.4677   19.8542 N   0  0  0  0  0  0  0  0  0  0  0  0
  -29.0656  -21.1857   21.2913 N   0  0  0  0  0  0  0  0  0  0  0  0
  -31.2680  -25.3388   19.4015 N   0  0  0  0  0  0  0  0  0  0  0  0
  -29.0755  -29.2861   19.4897 N   0  0  0  0  0  0  0  0  0  0  0  0
  -21.8403  -21.0828   21.9956 N   0  0  0  0  0  0  0  0  0  0  0  0
  -17.9486  -17.1178   18.0466 N   0  0  0  0  0  0  0  0  0  0  0  0
  -30.0571  -19.2388   22.1992 N   0  0  0  0  0  0  0  0  0  0  0  0
  -28.0859  -11.0643   19.1206 N   0  3  0  0  0  0  0  0  0  0  0  0
  -18.9185  -15.5482   14.9380 N   0  3  0  0  0  0  0  0  0  0  0  0
  -31.1267  -28.3015   19.2036 O   0  0  0  0  0  0  0  0  0  0  0  0
  -20.6274  -19.1218   22.3207 O   0  0  0  0  0  0  0  0  0  0  0  0
  -25.9320  -12.1695   20.3059 O   0  0  0  0  0  0  0  0  0  0  0  0
  -18.5770  -19.6612   19.2062 O   0  0  0  0  0  0  0  0  0  0  0  0
  -19.2105  -15.2008   17.7148 O   0  0  0  0  0  0  0  0  0  0  0  0
  -30.5605  -21.3027   23.0605 O   0  0  0  0  0  0  0  0  0  0  0  0
  -23.6167  -30.0031   20.3396 O   0  0  0  0  0  0  0  0  0  0  0  0
  -25.2749  -14.7060   20.7693 O   0  0  0  0  0  0  0  0  0  1  0  0
  -20.0824  -29.1377   24.4826 F   0  0  0  0  0  0  0  0  0  0  0  0
  -23.1821  -31.9421   22.2616 F   0  0  0  0  0  0  0  0  0  0  0  0
  1  2  1  0  0  0  0
  1  5  2  0  0  0  0
  2  6  2  0  0  0  0
  3 10  2  0  0  0  0
  3 18  1  0  0  0  0
  4 11  1  0  0  0  0
  4 18  2  0  0  0  0
  5 20  1  0  0  0  0
  6 22  1  0  0  0  0
  7 12  2  0  0  0  0
  7 21  1  0  0  0  0
  8  9  2  0  0  0  0
  8 24  1  0  0  0  0
  9 25  1  0  0  0  0
 10 27  1  0  0  0  0
 11 27  2  0  0  0  0
 12 28  1  0  0  0  0
 13 14  2  0  0  0  0
 13 29  1  0  0  0  0
 14 30  1  0  0  0  0
 15 23  1  0  0  0  0
 15 28  2  0  0  0  0
 16 24  2  0  0  0  0
 16 26  1  0  0  0  0
 17 30  2  0  0  0  0
 17 31  1  0  0  0  0
 18 32  1  0  0  0  0
 19 32  1  0  0  0  0
 19 33  2  0  0  0  0
 19 34  1  0  0  0  0
 20 22  2  0  0  0  0
 20 40  1  0  0  0  0
 21 23  2  0  0  0  0
 21 41  1  0  0  0  0
 22 49  1  0  0  0  0
 23 42  1  0  0  0  0
 24 59  1  0  0  0  0
 25 26  2  0  0  0  0
 25 60  1  0  0  0  0
 26 52  1  0  0  0  0
 27 85  1  0  0  0  0
 28 86  1  0  0  0  0
 29 31  2  0  0  0  0
 29 85  1  0  0  0  0
 30 87  1  0  0  0  0
 31 88  1  0  0  0  0
 32 68  2  0  0  0  0
 33 69  1  0  0  0  0
 33 72  1  0  0  0  0
 34 73  1  0  0  0  0
 34 79  2  0  0  0  0
 35 50  1  0  0  0  0
 35 74  1  0  0  0  0
 35 80  2  0  0  0  0
 36 61  1  0  0  0  0
 36 66  1  0  0  0  0
 36 81  2  0  0  0  0
 37 64  1  0  0  0  0
 37 70  1  0  0  0  0
 37 82  2  0  0  0  0
 38 65  1  0  0  0  0
 38 75  1  0  0  0  0
 38 83  2  0  0  0  0
 39 71  1  0  0  0  0
 39 76  1  0  0  0  0
 39 84  2  0  0  0  0
 40 43  1  0  0  0  0
 41 50  1  0  0  0  0
 42 70  1  0  0  0  0
 43 45  1  0  0  0  0
 44 46  1  0  0  0  0
 44 47  1  0  0  0  0
 45 49  1  0  0  0  0
 46 51  1  0  0  0  0
 47 71  1  0  0  0  0
 48 51  1  0  0  0  0
 48 71  1  0  0  0  0
 49 74  1  0  0  0  0
 50 70  1  0  0  0  0
 51 69  1  0  0  0  0
 53 65  1  0  0  0  0
 54 66  1  0  0  0  0
 55 67  1  0  0  0  0
 56 67  1  0  0  0  0
 57 67  1  0  0  0  0
 58 78  1  0  0  0  0
 59 62  1  0  0  0  0
 60 76  1  0  0  0  0
 61 86  1  0  0  0  0
 62 63  1  0  0  0  0
 63 66  1  0  0  0  0
 64 67  1  0  0  0  0
 64 75  1  0  0  0  0
 65 78  1  0  0  0  0
 66 77  1  0  0  0  0
 68 69  1  0  0  0  0
M  CHG  2  77   1  78   1
M  ISO  4  39 100  61 101  76 100  86 101
M  END
> <Batch ID>
0134

> <Smiles>
CNC(C)C(=O)NC(C(=O)N1Cc2cc([101O:1][101CH2:1]C(=O)C(C)(N)CCCc3ccc(C[100NH:0][100C:0](=O)N4CCCC(n5nc(-c6ccc(Oc7ccc(F)cc7F)cc6)c(C(N)=O)c5N)C4)c(C)c3)ccc2CC1C(=O)NC1CCCc2ccccc21)C(C)(C)C

> <Shape>
0.228

> <Color>
0.059

> <Negative vol penalty>
0.000

$$$$

  -OEChem-04052302333D

 87 95  0     1  0  0  0  0  0999 V2000
  -17.4109  -23.4893   15.3351 C   0  0  0  0  0  0  0  0  0  0  0  0
  -17.6465  -22.1718   15.7150 C   0  0  0  0  0  0  0  0  0  0  0  0
  -28.8946  -26.5998   17.9050 C   0  0  0  0  0  0  0  0  0  0  0  0
  -28.6124  -26.1414   20.2603 C   0  0  0  0  0  0  0  0  0  0  0  0
  -18.3827  -24.4631   15.5611 C   0  0  0  0  0  0  0  0  0  0  0  0
  -18.8546  -21.8273   16.3201 C   0  0  0  0  0  0  0  0  0  0  0  0
  -19.7202  -17.6056   20.6713 C   0  0  0  0  0  0  0  0  0  0  0  0
  -28.2286  -27.8153   18.0617 C   0  0  0  0  0  0  0  0  0  0  0  0
  -27.9465  -27.3570   20.4170 C   0  0  0  0  0  0  0  0  0  0  0  0
  -20.1612  -16.2839   20.6215 C   0  0  0  0  0  0  0  0  0  0  0  0
  -24.8572  -28.5989   19.8300 C   0  0  0  0  0  0  0  0  0  0  0  0
  -23.6842  -28.6026   20.5848 C   0  0  0  0  0  0  0  0  0  0  0  0
  -22.3994  -17.0173   21.1428 C   0  0  0  0  0  0  0  0  0  0  0  0
  -28.6748  -11.3096   19.1218 C   0  0  0  0  0  0  0  0  0  0  0  0
  -30.0438  -13.2179   18.5554 C   0  0  0  0  0  0  0  0  0  0  0  0
  -28.6089  -13.2945   20.4976 C   0  0  0  0  0  0  0  0  0  0  0  0
  -24.6795  -30.1770   22.1237 C   0  0  0  0  0  0  0  0  0  0  0  0
  -29.0864  -25.7628   19.0043 C   0  0  0  0  0  0  0  0  0  0  0  0
  -31.1568  -24.2729   18.9632 C   0  0  0  0  0  0  0  0  0  0  0  0
  -19.5995  -24.1322   16.1781 C   0  0  0  0  0  0  0  0  0  0  0  0
  -20.6191  -18.6459   20.9470 C   0  0  0  0  0  0  0  0  0  0  0  0
  -19.8441  -22.7974   16.5534 C   0  0  0  0  0  0  0  0  0  0  0  0
  -21.9668  -18.3511   21.1981 C   0  0  0  0  0  0  0  0  0  0  0  0
  -29.6094  -11.9201   18.2856 C   0  0  0  0  0  0  0  0  0  0  0  0
  -28.1745  -11.9968   20.2278 C   0  0  0  0  0  0  0  0  0  0  0  0
  -29.5435  -13.9051   19.6614 C   0  0  0  0  0  0  0  0  0  0  0  0
  -27.7546  -28.1939   19.3177 C   0  0  0  0  0  0  0  0  0  0  0  0
  -21.5015  -15.9899   20.8543 C   0  0  0  0  0  0  0  0  0  0  0  0
  -25.9414  -29.3842   20.2220 C   0  0  0  0  0  0  0  0  0  0  0  0
  -23.5954  -29.3916   21.7317 C   0  0  0  0  0  0  0  0  0  0  0  0
  -25.8525  -30.1732   21.3688 C   0  0  0  0  0  0  0  0  0  0  0  0
  -29.7738  -24.5068   18.8429 C   0  0  0  0  0  0  0  0  0  0  0  0
  -31.3003  -22.9288   18.7197 C   0  0  0  0  0  0  0  0  0  0  0  0
  -25.0580  -12.6266   21.2415 C   0  0  0  0  0  0  0  0  0  0  0  0
  -32.2170  -25.1888   19.2680 C   0  0  0  0  0  0  0  0  0  0  0  0
  -25.7202  -11.5764   20.7187 C   0  0  0  0  0  0  0  0  0  0  0  0
  -23.6357  -12.9922   20.9729 C   0  0  0  0  0  0  0  0  0  0  0  0
  -21.6381  -21.2080   19.3656 C   0  0  0  0  0  0  0  0  0  0  0  0
  -29.6674  -17.7543   19.6340 C   0  0  0  0  0  0  0  0  0  0  0  0
  -23.1339  -21.8617   22.1687 C   0  0  0  0  0  0  0  0  0  0  0  0
  -24.4295  -20.6943   25.1023 C   0  0  0  0  0  0  0  0  0  0  0  0
  -20.6386  -25.2102   16.3587 C   0  0  0  0  0  0  0  0  0  0  0  0
  -20.1225  -20.0636   21.0236 C   0  0  0  0  0  0  0  0  0  0  0  0
  -22.9682  -19.4296   21.5184 C   0  0  0  0  0  0  0  0  0  0  0  0
  -21.7412  -24.8342   17.3452 C   0  0  0  0  0  0  0  0  0  0  0  0
  -28.0269  -19.5312   16.9177 C   0  0  0  0  0  0  0  0  0  0  0  0
  -22.2508  -23.4241   17.0644 C   0  0  0  0  0  0  0  0  0  0  0  0
  -28.4299  -20.9759   17.2101 C   0  0  0  0  0  0  0  0  0  0  0  0
  -27.8104  -18.7377   18.2035 C   0  0  0  0  0  0  0  0  0  0  0  0
  -29.3874  -20.2035   19.4236 C   0  0  0  0  0  0  0  0  0  0  0  0
  -21.1322  -22.3892   17.2349 C   0  0  1  0  0  0  0  0  0  0  0  0
  -21.2248  -21.0955   20.8058 C   0  0  1  0  0  0  0  0  0  0  0  0
  -29.6451  -21.0299   18.1526 C   0  0  2  0  0  0  0  0  0  0  0  0
  -30.1443  -11.1847   17.1034 C   0  0  0  0  0  0  0  0  0  0  0  0
  -24.4815   -9.4011   20.4130 C   0  0  0  0  0  0  0  0  0  0  0  0
  -25.6205  -21.4619   27.1734 C   0  0  0  0  0  0  0  0  0  0  0  0
  -25.7287  -22.1080   20.5824 C   0  0  0  0  0  0  0  0  0  0  0  0
  -26.9841  -21.9233   22.7407 C   0  0  0  0  0  0  0  0  0  0  0  0
  -25.4277  -23.8361   22.3649 C   0  0  0  0  0  0  0  0  0  0  0  0
  -22.2258  -19.7743   26.8505 C   0  0  0  0  0  0  0  0  0  0  0  0
  -27.1625  -11.3358   21.1341 C   0  0  0  0  0  0  0  0  0  0  0  0
  -30.0082  -15.2928   19.9494 C   0  0  0  0  0  0  0  0  0  0  0  0
  -25.1442  -10.5876   19.7275 C   0  0  0  0  0  0  0  0  0  0  0  0
  -23.3211  -14.4716   21.0543 C   0  0  0  0  0  0  0  0  0  1  0  0
  -29.1589  -16.3798   19.2788 C   0  0  0  0  0  0  0  0  0  0  0  0
  -24.4794  -21.5270   22.7659 C   0  0  1  0  0  0  0  0  0  0  0  0
  -24.2712  -21.1725   26.5343 C   0  0  2  0  0  0  0  0  0  0  0  0
  -25.6367  -22.3283   22.1056 C   0  0  0  0  0  0  0  0  0  0  0  0
  -29.0877  -23.4000   18.5458 N   0  0  0  0  0  0  0  0  0  0  0  0
  -30.0435  -22.4577   18.4774 N   0  0  0  0  0  0  0  0  0  0  0  0
  -22.4351  -20.8007   21.5756 N   0  0  0  0  0  0  0  0  0  0  0  0
  -28.9791  -18.8369   19.0859 N   0  0  0  0  0  0  0  0  0  0  0  0
  -32.3776  -22.1158   18.6913 N   0  0  0  0  0  0  0  0  0  0  0  0
  -31.8942  -26.5344   19.4904 N   0  0  0  0  0  0  0  0  0  0  0  0
  -20.9002  -22.1223   18.6383 N   0  0  0  0  0  0  0  0  0  0  0  0
  -24.3515  -21.7374   24.2039 N   0  0  0  0  0  0  0  0  0  0  0  0
  -23.5760  -20.1385   27.3519 N   0  3  0  0  0  0  0  0  0  0  0  0
  -33.4170  -24.8279   19.3248 O   0  0  0  0  0  0  0  0  0  0  0  0
  -22.7760  -12.1531   20.7230 O   0  0  0  0  0  0  0  0  0  0  0  0
  -22.5593  -20.5176   18.9457 O   0  0  0  0  0  0  0  0  0  0  0  0
  -30.6487  -17.8604   20.3742 O   0  0  0  0  0  0  0  0  0  0  0  0
  -22.7152  -23.0202   22.2327 O   0  0  0  0  0  0  0  0  0  0  0  0
  -24.6084  -19.5140   24.8101 O   0  0  0  0  0  0  0  0  0  0  0  0
  -27.1049  -29.3800   19.4711 O   0  0  0  0  0  0  0  0  0  0  0  0
  -21.9347  -14.7008   20.8056 O   0  0  0  0  0  0  0  0  0  1  0  0
  -22.4684  -29.3963   22.4556 F   0  0  0  0  0  0  0  0  0  0  0  0
  -26.8903  -30.9306   21.7498 F   0  0  0  0  0  0  0  0  0  0  0  0
  1  2  1  0  0  0  0
  1  5  2  0  0  0  0
  2  6  2  0  0  0  0
  3  8  2  0  0  0  0
  3 18  1  0  0  0  0
  4  9  1  0  0  0  0
  4 18  2  0  0  0  0
  5 20  1  0  0  0  0
  6 22  1  0  0  0  0
  7 10  2  0  0  0  0
  7 21  1  0  0  0  0
  8 27  1  0  0  0  0
  9 27  2  0  0  0  0
 10 28  1  0  0  0  0
 11 12  2  0  0  0  0
 11 29  1  0  0  0  0
 12 30  1  0  0  0  0
 13 23  1  0  0  0  0
 13 28  2  0  0  0  0
 14 24  2  0  0  0  0
 14 25  1  0  0  0  0
 15 24  1  0  0  0  0
 15 26  2  0  0  0  0
 16 25  2  0  0  0  0
 16 26  1  0  0  0  0
 17 30  2  0  0  0  0
 17 31  1  0  0  0  0
 18 32  1  0  0  0  0
 19 32  1  0  0  0  0
 19 33  2  0  0  0  0
 19 35  1  0  0  0  0
 20 22  2  0  0  0  0
 20 42  1  0  0  0  0
 21 23  2  0  0  0  0
 21 43  1  0  0  0  0
 22 51  1  0  0  0  0
 23 44  1  0  0  0  0
 24 54  1  0  0  0  0
 25 61  1  0  0  0  0
 26 62  1  0  0  0  0
 27 84  1  0  0  0  0
 28 85  1  0  0  0  0
 29 31  2  0  0  0  0
 29 84  1  0  0  0  0
 30 86  1  0  0  0  0
 31 87  1  0  0  0  0
 32 69  2  0  0  0  0
 33 70  1  0  0  0  0
 33 73  1  0  0  0  0
 34 36  2  0  0  0  0
 34 37  1  0  0  0  0
 35 74  1  0  0  0  0
 35 78  2  0  0  0  0
 36 61  1  0  0  0  0
 36 63  1  0  0  0  0
 37 64  1  0  0  0  0
 37 79  2  0  0  0  0
 38 52  1  0  0  0  0
 38 75  1  0  0  0  0
 38 80  2  0  0  0  0
 39 65  1  0  0  0  0
 39 72  1  0  0  0  0
 39 81  2  0  0  0  0
 40 66  1  0  0  0  0
 40 71  1  0  0  0  0
 40 82  2  0  0  0  0
 41 67  1  0  0  0  0
 41 76  1  0  0  0  0
 41 83  2  0  0  0  0
 42 45  1  0  0  0  0
 43 52  1  0  0  0  0
 44 71  1  0  0  0  0
 45 47  1  0  0  0  0
 46 48  1  0  0  0  0
 46 49  1  0  0  0  0
 47 51  1  0  0  0  0
 48 53  1  0  0  0  0
 49 72  1  0  0  0  0
 50 53  1  0  0  0  0
 50 72  1  0  0  0  0
 51 75  1  0  0  0  0
 52 71  1  0  0  0  0
 53 70  1  0  0  0  0
 55 63  1  0  0  0  0
 56 67  1  0  0  0  0
 57 68  1  0  0  0  0
 58 68  1  0  0  0  0
 59 68  1  0  0  0  0
 60 77  1  0  0  0  0
 62 65  1  0  0  0  0
 64 85  1  0  0  0  0
 66 68  1  0  0  0  0
 66 76  1  0  0  0  0
 67 77  1  0  0  0  0
 69 70  1  0  0  0  0
M  CHG  1  77   1
M  ISO  4  39 100  64 101  65 100  85 101
M  END
> <Batch ID>
0134

> <Smiles>
CCC(=CC(=O)[101CH2:1][101O:1]c1ccc2c(c1)CN(C(=O)C(NC(=O)C(C)NC)C(C)(C)C)C(C(=O)NC1CCCc3ccccc31)C2)Cc1cc(C)cc(C[100CH2:0][100C:0](=O)N2CCCC(n3nc(-c4ccc(Oc5ccc(F)cc5F)cc4)c(C(N)=O)c3N)C2)c1

> <Shape>
0.211

> <Color>
0.075

> <Negative vol penalty>
0.000

$$$$

  -OEChem-04052302333D

 84 92  0     1  0  0  0  0  0999 V2000
  -26.1870  -31.8390   14.2528 C   0  0  0  0  0  0  0  0  0  0  0  0
  -26.9357  -31.1706   15.2162 C   0  0  0  0  0  0  0  0  0  0  0  0
  -22.9989   -9.8184   20.0495 C   0  0  0  0  0  0  0  0  0  0  0  0
  -23.6936   -9.9913   22.3570 C   0  0  0  0  0  0  0  0  0  0  0  0
  -24.8037  -31.6708   14.2062 C   0  0  0  0  0  0  0  0  0  0  0  0
  -26.3014  -30.3344   16.1343 C   0  0  0  0  0  0  0  0  0  0  0  0
  -28.7285  -25.9333   16.7536 C   0  0  0  0  0  0  0  0  0  0  0  0
  -22.2357   -8.6939   20.3635 C   0  0  0  0  0  0  0  0  0  0  0  0
  -22.9304   -8.8668   22.6710 C   0  0  0  0  0  0  0  0  0  0  0  0
  -29.8668  -25.9417   17.5586 C   0  0  0  0  0  0  0  0  0  0  0  0
  -23.2007   -5.5098   22.3729 C   0  0  0  0  0  0  0  0  0  0  0  0
  -23.7844   -4.5361   23.1833 C   0  0  0  0  0  0  0  0  0  0  0  0
  -28.5696  -25.0602   19.3915 C   0  0  0  0  0  0  0  0  0  0  0  0
  -30.3044  -19.0883   22.7983 C   0  0  0  0  0  0  0  0  0  0  0  0
  -22.0374   -4.8525   24.8219 C   0  0  0  0  0  0  0  0  0  0  0  0
  -31.8114  -17.3233   21.3632 C   0  0  0  0  0  0  0  0  0  0  0  0
  -23.7279  -10.4671   21.0463 C   0  0  0  0  0  0  0  0  0  0  0  0
  -24.1005  -12.9730   20.7473 C   0  0  0  0  0  0  0  0  0  0  0  0
  -24.1532  -30.8246   15.1181 C   0  0  0  0  0  0  0  0  0  0  0  0
  -27.4978  -25.4978   17.2656 C   0  0  0  0  0  0  0  0  0  0  0  0
  -24.9079  -30.1558   16.1007 C   0  0  0  0  0  0  0  0  0  0  0  0
  -27.4178  -25.0449   18.5902 C   0  0  0  0  0  0  0  0  0  0  0  0
  -29.7643  -17.8549   22.4511 C   0  0  0  0  0  0  0  0  0  0  0  0
  -30.5257  -16.9499   21.7199 C   0  0  0  0  0  0  0  0  0  0  0  0
  -22.2014   -8.2181   21.6743 C   0  0  0  0  0  0  0  0  0  0  0  0
  -29.7869  -25.5078   18.8786 C   0  0  0  0  0  0  0  0  0  0  0  0
  -22.0353   -6.1550   22.7871 C   0  0  0  0  0  0  0  0  0  0  0  0
  -23.2027   -4.2074   24.4077 C   0  0  0  0  0  0  0  0  0  0  0  0
  -21.4537   -5.8263   24.0115 C   0  0  0  0  0  0  0  0  0  0  0  0
  -24.5169  -11.6284   20.7224 C   0  0  0  0  0  0  0  0  0  0  0  0
  -31.6001  -19.3659   22.3934 C   0  0  0  0  0  0  0  0  0  0  0  0
  -25.2106  -13.6834   20.3607 C   0  0  0  0  0  0  0  0  0  0  0  0
  -22.8244  -13.5299   21.0893 C   0  0  0  0  0  0  0  0  0  0  0  0
  -24.6549  -26.8447   17.7210 C   0  0  0  0  0  0  0  0  0  0  0  0
  -32.4107  -24.1377   20.9617 C   0  0  0  0  0  0  0  0  0  0  0  0
  -23.7920  -23.8284   18.5452 C   0  0  0  0  0  0  0  0  0  0  0  0
  -24.7374  -20.7536   19.6849 C   0  0  0  0  0  0  0  0  0  0  0  0
  -30.6808  -14.6912   20.6151 C   0  0  0  0  0  0  0  0  0  0  0  0
  -22.6504  -30.7113   15.0585 C   0  0  0  0  0  0  0  0  0  0  0  0
  -26.2850  -25.4697   16.3764 C   0  0  0  0  0  0  0  0  0  0  0  0
  -26.1247  -24.5486   19.1818 C   0  0  0  0  0  0  0  0  0  0  0  0
  -22.0987  -29.5155   15.8305 C   0  0  0  0  0  0  0  0  0  0  0  0
  -29.6075  -12.1159   18.4031 C   0  0  0  0  0  0  0  0  0  0  0  0
  -22.7436  -29.4269   17.2099 C   0  0  0  0  0  0  0  0  0  0  0  0
  -28.1532  -11.8701   18.8114 C   0  0  0  0  0  0  0  0  0  0  0  0
  -30.4907  -12.4264   19.6103 C   0  0  0  0  0  0  0  0  0  0  0  0
  -28.5535  -13.2695   20.8774 C   0  0  0  0  0  0  0  0  0  0  0  0
  -24.2591  -29.2209   17.0982 C   0  0  1  0  0  0  0  0  0  0  0  0
  -24.9730  -25.4899   17.1545 C   0  0  1  0  0  0  0  0  0  0  0  0
  -27.6125  -13.0166   19.6882 C   0  0  2  0  0  0  0  0  0  0  0  0
  -28.3698  -17.5285   22.8749 C   0  0  0  0  0  0  0  0  0  0  0  0
  -23.8032  -18.5054   20.2932 C   0  0  0  0  0  0  0  0  0  0  0  0
  -22.7232  -24.9825   21.1597 C   0  0  0  0  0  0  0  0  0  0  0  0
  -22.6884  -22.6586   22.0904 C   0  0  0  0  0  0  0  0  0  0  0  0
  -21.2697  -23.2327   20.1205 C   0  0  0  0  0  0  0  0  0  0  0  0
  -26.3519  -19.3927   17.6112 C   0  0  0  0  0  0  0  0  0  0  0  0
  -32.2179  -20.6932   22.7516 C   0  0  0  0  0  0  0  0  0  0  0  0
  -32.6173  -23.0779   22.0311 C   0  0  0  0  0  0  0  0  0  0  0  0
  -30.9703  -24.5276   20.6937 C   0  0  0  0  0  0  0  0  0  1  0  0
  -31.9522  -21.7496   21.6775 C   0  0  0  0  0  0  0  0  0  0  0  0
  -23.7733  -23.0349   19.8293 C   0  0  1  0  0  0  0  0  0  0  0  0
  -24.4177  -19.3542   19.1911 C   0  0  2  0  0  0  0  0  0  0  0  0
  -22.6378  -23.4883   20.7897 C   0  0  0  0  0  0  0  0  0  0  0  0
  -32.3702  -18.5122   21.6822 N   0  0  0  0  0  0  0  0  0  0  0  0
  -25.7920  -11.4903   20.3494 N   0  0  0  0  0  0  0  0  0  0  0  0
  -26.1864  -12.7572   20.1362 N   0  0  0  0  0  0  0  0  0  0  0  0
  -24.9654  -24.5463   18.2743 N   0  0  0  0  0  0  0  0  0  0  0  0
  -29.9185  -13.5252   20.3913 N   0  0  0  0  0  0  0  0  0  0  0  0
  -25.4376  -15.0037   20.1942 N   0  0  0  0  0  0  0  0  0  0  0  0
  -21.7935  -12.6576   21.4643 N   0  0  0  0  0  0  0  0  0  0  0  0
  -30.0207  -15.6808   21.3428 N   0  0  0  0  0  0  0  0  0  0  0  0
  -24.5591  -27.8435   16.7709 N   0  0  0  0  0  0  0  0  0  0  0  0
  -23.7018  -21.6306   19.4404 N   0  0  0  0  0  0  0  0  0  0  0  0
  -25.6565  -18.6781   18.7125 N   0  3  0  0  0  0  0  0  0  0  0  0
  -22.6001  -14.7634   21.0474 O   0  0  0  0  0  0  0  0  0  0  0  0
  -24.5059  -26.9741   18.9305 O   0  0  0  0  0  0  0  0  0  0  0  0
  -33.3454  -24.6495   20.3475 O   0  0  0  0  0  0  0  0  0  0  0  0
  -22.8046  -23.8061   17.8062 O   0  0  0  0  0  0  0  0  0  0  0  0
  -25.7982  -21.0393   20.2360 O   0  0  0  0  0  0  0  0  0  0  0  0
  -31.8244  -14.8144   20.1691 O   0  0  0  0  0  0  0  0  0  0  0  0
  -21.4566   -7.1210   21.9811 O   0  0  0  0  0  0  0  0  0  0  0  0
  -30.8962  -25.5156   19.6667 O   0  0  0  0  0  0  0  0  0  1  0  0
  -23.7625   -3.2712   25.1851 F   0  0  0  0  0  0  0  0  0  0  0  0
  -20.3335   -6.4418   24.4142 F   0  0  0  0  0  0  0  0  0  0  0  0
  1  2  1  0  0  0  0
  1  5  2  0  0  0  0
  2  6  2  0  0  0  0
  3  8  2  0  0  0  0
  3 17  1  0  0  0  0
  4  9  1  0  0  0  0
  4 17  2  0  0  0  0
  5 19  1  0  0  0  0
  6 21  1  0  0  0  0
  7 10  2  0  0  0  0
  7 20  1  0  0  0  0
  8 25  1  0  0  0  0
  9 25  2  0  0  0  0
 10 26  1  0  0  0  0
 11 12  2  0  0  0  0
 11 27  1  0  0  0  0
 12 28  1  0  0  0  0
 13 22  1  0  0  0  0
 13 26  2  0  0  0  0
 14 23  2  0  0  0  0
 14 31  1  0  0  0  0
 15 28  2  0  0  0  0
 15 29  1  0  0  0  0
 16 24  2  0  0  0  0
 16 64  1  0  0  0  0
 17 30  1  0  0  0  0
 18 30  1  0  0  0  0
 18 32  2  0  0  0  0
 18 33  1  0  0  0  0
 19 21  2  0  0  0  0
 19 39  1  0  0  0  0
 20 22  2  0  0  0  0
 20 40  1  0  0  0  0
 21 48  1  0  0  0  0
 22 41  1  0  0  0  0
 23 24  1  0  0  0  0
 23 51  1  0  0  0  0
 24 71  1  0  0  0  0
 25 81  1  0  0  0  0
 26 82  1  0  0  0  0
 27 29  2  0  0  0  0
 27 81  1  0  0  0  0
 28 83  1  0  0  0  0
 29 84  1  0  0  0  0
 30 65  2  0  0  0  0
 31 57  1  0  0  0  0
 31 64  2  0  0  0  0
 32 66  1  0  0  0  0
 32 69  1  0  0  0  0
 33 70  1  0  0  0  0
 33 75  2  0  0  0  0
 34 49  1  0  0  0  0
 34 72  1  0  0  0  0
 34 76  2  0  0  0  0
 35 58  1  0  0  0  0
 35 59  1  0  0  0  0
 35 77  2  0  0  0  0
 36 61  1  0  0  0  0
 36 67  1  0  0  0  0
 36 78  2  0  0  0  0
 37 62  1  0  0  0  0
 37 73  1  0  0  0  0
 37 79  2  0  0  0  0
 38 68  1  0  0  0  0
 38 71  1  0  0  0  0
 38 80  2  0  0  0  0
 39 42  1  0  0  0  0
 40 49  1  0  0  0  0
 41 67  1  0  0  0  0
 42 44  1  0  0  0  0
 43 45  1  0  0  0  0
 43 46  1  0  0  0  0
 44 48  1  0  0  0  0
 45 50  1  0  0  0  0
 46 68  1  0  0  0  0
 47 50  1  0  0  0  0
 47 68  1  0  0  0  0
 48 72  1  0  0  0  0
 49 67  1  0  0  0  0
 50 66  1  0  0  0  0
 52 62  1  0  0  0  0
 53 63  1  0  0  0  0
 54 63  1  0  0  0  0
 55 63  1  0  0  0  0
 56 74  1  0  0  0  0
 57 60  1  0  0  0  0
 58 60  1  0  0  0  0
 59 82  1  0  0  0  0
 61 63  1  0  0  0  0
 61 73  1  0  0  0  0
 62 74  1  0  0  0  0
 65 66  1  0  0  0  0
M  CHG  1  74   1
M  ISO  4  38 100  59 101  71 100  82 101
M  END
> <Batch ID>
0134

> <Smiles>
CNC(C)C(=O)NC(C(=O)N1Cc2cc([101O:1][101CH2:1]C(=O)CCCc3cc(C)c([100NH:0][100C:0](=O)N4CCCC(n5nc(-c6ccc(Oc7ccc(F)cc7F)cc6)c(C(N)=O)c5N)C4)cn3)ccc2CC1C(=O)NC1CCCc2ccccc21)C(C)(C)C

> <Shape>
0.220

> <Color>
0.217

> <Negative vol penalty>
0.000

$$$$

  -OEChem-04052302333D

 86 94  0     1  0  0  0  0  0999 V2000
  -32.5734  -15.2783   24.5382 C   0  0  0  0  0  0  0  0  0  0  0  0
  -33.0994  -16.2891   23.7402 C   0  0  0  0  0  0  0  0  0  0  0  0
  -23.0735   -9.8692   19.9414 C   0  0  0  0  0  0  0  0  0  0  0  0
  -23.8310   -9.8775   22.2356 C   0  0  0  0  0  0  0  0  0  0  0  0
  -32.0389  -15.5858   25.7887 C   0  0  0  0  0  0  0  0  0  0  0  0
  -33.0903  -17.6084   24.1918 C   0  0  0  0  0  0  0  0  0  0  0  0
  -37.4947  -19.9711   23.3770 C   0  0  0  0  0  0  0  0  0  0  0  0
  -29.7121  -19.2847   22.3542 C   0  0  0  0  0  0  0  0  0  0  0  0
  -22.3286   -8.7167   20.1915 C   0  0  0  0  0  0  0  0  0  0  0  0
  -23.0860   -8.7251   22.4857 C   0  0  0  0  0  0  0  0  0  0  0  0
  -37.7445  -20.4236   22.0821 C   0  0  0  0  0  0  0  0  0  0  0  0
  -30.6177  -19.8630   21.4648 C   0  0  0  0  0  0  0  0  0  0  0  0
  -19.3783   -7.9234   21.6404 C   0  0  0  0  0  0  0  0  0  0  0  0
  -18.0719   -7.8777   21.1538 C   0  0  0  0  0  0  0  0  0  0  0  0
  -37.0952  -22.6512   22.7420 C   0  0  0  0  0  0  0  0  0  0  0  0
  -31.1578  -17.6757   20.5925 C   0  0  0  0  0  0  0  0  0  0  0  0
  -18.6316   -5.9331   19.8338 C   0  0  0  0  0  0  0  0  0  0  0  0
  -23.8248  -10.4495   20.9634 C   0  0  0  0  0  0  0  0  0  0  0  0
  -24.1685  -12.9743   20.8416 C   0  0  0  0  0  0  0  0  0  0  0  0
  -32.0320  -16.9081   26.2599 C   0  0  0  0  0  0  0  0  0  0  0  0
  -37.0321  -20.8545   24.3629 C   0  0  0  0  0  0  0  0  0  0  0  0
  -32.5541  -17.9341   25.4492 C   0  0  0  0  0  0  0  0  0  0  0  0
  -36.8428  -22.2079   24.0492 C   0  0  0  0  0  0  0  0  0  0  0  0
  -29.5295  -17.9019   22.3629 C   0  0  0  0  0  0  0  0  0  0  0  0
  -30.2523  -17.0974   21.4820 C   0  0  0  0  0  0  0  0  0  0  0  0
  -22.3348   -8.1447   21.4637 C   0  0  0  0  0  0  0  0  0  0  0  0
  -37.5420  -21.7633   21.7637 C   0  0  0  0  0  0  0  0  0  0  0  0
  -31.3405  -19.0585   20.5839 C   0  0  0  0  0  0  0  0  0  0  0  0
  -20.3114   -6.9740   21.2236 C   0  0  0  0  0  0  0  0  0  0  0  0
  -17.6985   -6.8825   20.2506 C   0  0  0  0  0  0  0  0  0  0  0  0
  -19.9380   -5.9789   20.3203 C   0  0  0  0  0  0  0  0  0  0  0  0
  -24.5950  -11.6397   20.7055 C   0  0  0  0  0  0  0  0  0  0  0  0
  -25.2616  -13.7228   20.4789 C   0  0  0  0  0  0  0  0  0  0  0  0
  -34.6257  -21.8952   18.7125 C   0  0  0  0  0  0  0  0  0  0  0  0
  -34.2205  -20.8977   19.5123 C   0  0  0  0  0  0  0  0  0  0  0  0
  -22.8980  -13.4914   21.2588 C   0  0  0  0  0  0  0  0  0  0  0  0
  -34.4010  -21.0601   26.1345 C   0  0  0  0  0  0  0  0  0  0  0  0
  -36.0190  -23.4838   27.5594 C   0  0  0  0  0  0  0  0  0  0  0  0
  -38.4562  -25.8626   27.3412 C   0  0  0  0  0  0  0  0  0  0  0  0
  -30.7283  -14.7647   20.6584 C   0  0  0  0  0  0  0  0  0  0  0  0
  -31.4006  -17.1985   27.5985 C   0  0  0  0  0  0  0  0  0  0  0  0
  -36.7929  -20.3561   25.7617 C   0  0  0  0  0  0  0  0  0  0  0  0
  -36.3666  -23.2010   25.0766 C   0  0  0  0  0  0  0  0  0  0  0  0
  -31.7691  -18.5688   28.1613 C   0  0  0  0  0  0  0  0  0  0  0  0
  -29.6147  -12.3497   18.2910 C   0  0  0  0  0  0  0  0  0  0  0  0
  -31.6323  -19.6420   27.0860 C   0  0  0  0  0  0  0  0  0  0  0  0
  -28.1744  -12.0594   18.7193 C   0  0  0  0  0  0  0  0  0  0  0  0
  -30.5287  -12.5788   19.4934 C   0  0  0  0  0  0  0  0  0  0  0  0
  -28.6208  -13.3058   20.8721 C   0  0  0  0  0  0  0  0  0  0  0  0
  -32.5848  -19.3737   25.9146 C   0  0  1  0  0  0  0  0  0  0  0  0
  -35.8328  -21.2378   26.5542 C   0  0  1  0  0  0  0  0  0  0  0  0
  -27.6491  -13.1322   19.6934 C   0  0  2  0  0  0  0  0  0  0  0  0
  -28.5528  -17.3100   23.3265 C   0  0  0  0  0  0  0  0  0  0  0  0
  -39.5206  -27.7184   28.6529 C   0  0  0  0  0  0  0  0  0  0  0  0
  -38.1296  -23.2437   17.7852 C   0  0  0  0  0  0  0  0  0  0  0  0
  -33.5940  -25.2545   27.0172 C   0  0  0  0  0  0  0  0  0  0  0  0
  -35.0394  -27.2501   27.4606 C   0  0  0  0  0  0  0  0  0  0  0  0
  -34.6388  -25.5765   29.2665 C   0  0  0  0  0  0  0  0  0  0  0  0
  -41.1068  -24.5479   27.2717 C   0  0  0  0  0  0  0  0  0  0  0  0
  -35.9924  -21.9664   18.0921 C   0  0  0  0  0  0  0  0  0  0  0  0
  -32.8618  -20.8290   20.1288 C   0  0  0  0  0  0  0  0  0  0  0  0
  -37.0008  -23.3063   20.0368 C   0  0  0  0  0  0  0  0  0  1  0  0
  -36.1415  -24.9702   27.3258 C   0  0  1  0  0  0  0  0  0  0  0  0
  -39.5799  -26.2432   28.2882 C   0  0  2  0  0  0  0  0  0  0  0  0
  -36.7836  -23.2204   18.5184 C   0  0  1  0  0  0  0  0  0  0  0  0
  -34.8606  -25.7440   27.7474 C   0  0  0  0  0  0  0  0  0  0  0  0
  -25.8602  -11.5426   20.2886 N   0  0  0  0  0  0  0  0  0  0  0  0
  -26.2381  -12.8258   20.1596 N   0  0  0  0  0  0  0  0  0  0  0  0
  -36.1407  -22.6639   26.4286 N   0  0  0  0  0  0  0  0  0  0  0  0
  -29.9695  -13.6108   20.3693 N   0  0  0  0  0  0  0  0  0  0  0  0
  -25.4730  -15.0540   20.4050 N   0  0  0  0  0  0  0  0  0  0  0  0
  -21.8851  -12.5832   21.5958 N   0  0  0  0  0  0  0  0  0  0  0  0
  -30.0807  -15.6909   21.4754 N   0  0  0  0  0  0  0  0  0  0  0  0
  -33.9343  -19.7656   26.2605 N   0  0  0  0  0  0  0  0  0  0  0  0
  -37.3519  -25.3942   28.0212 N   0  0  0  0  0  0  0  0  0  0  0  0
  -40.9028  -25.9673   27.6598 N   0  3  0  0  0  0  0  0  0  0  0  0
  -22.6625  -14.7222   21.3149 O   0  0  0  0  0  0  0  0  0  0  0  0
  -33.7662  -22.0262   25.7279 O   0  0  0  0  0  0  0  0  0  0  0  0
  -35.8295  -23.0652   28.7042 O   0  0  0  0  0  0  0  0  0  0  0  0
  -38.5475  -25.9735   26.1206 O   0  0  0  0  0  0  0  0  0  0  0  0
  -31.8580  -14.9322   20.1918 O   0  0  0  0  0  0  0  0  0  0  0  0
  -21.6078   -7.0203   21.7082 O   0  0  0  0  0  0  0  0  0  0  0  0
  -32.2303  -19.6273   19.7098 O   0  0  0  0  0  0  0  0  0  0  0  0
  -37.7844  -22.2075   20.5005 O   0  0  0  0  0  0  0  0  0  1  0  0
  -16.4435   -6.8378   19.7846 F   0  0  0  0  0  0  0  0  0  0  0  0
  -20.8298   -5.0634   19.9172 F   0  0  0  0  0  0  0  0  0  0  0  0
  1  2  1  0  0  0  0
  1  5  2  0  0  0  0
  2  6  2  0  0  0  0
  3  9  2  0  0  0  0
  3 18  1  0  0  0  0
  4 10  1  0  0  0  0
  4 18  2  0  0  0  0
  5 20  1  0  0  0  0
  6 22  1  0  0  0  0
  7 11  2  0  0  0  0
  7 21  1  0  0  0  0
  8 12  2  0  0  0  0
  8 24  1  0  0  0  0
  9 26  1  0  0  0  0
 10 26  2  0  0  0  0
 11 27  1  0  0  0  0
 12 28  1  0  0  0  0
 13 14  2  0  0  0  0
 13 29  1  0  0  0  0
 14 30  1  0  0  0  0
 15 23  1  0  0  0  0
 15 27  2  0  0  0  0
 16 25  1  0  0  0  0
 16 28  2  0  0  0  0
 17 30  2  0  0  0  0
 17 31  1  0  0  0  0
 18 32  1  0  0  0  0
 19 32  1  0  0  0  0
 19 33  2  0  0  0  0
 19 36  1  0  0  0  0
 20 22  2  0  0  0  0
 20 41  1  0  0  0  0
 21 23  2  0  0  0  0
 21 42  1  0  0  0  0
 22 50  1  0  0  0  0
 23 43  1  0  0  0  0
 24 25  2  0  0  0  0
 24 53  1  0  0  0  0
 25 73  1  0  0  0  0
 26 82  1  0  0  0  0
 27 84  1  0  0  0  0
 28 83  1  0  0  0  0
 29 31  2  0  0  0  0
 29 82  1  0  0  0  0
 30 85  1  0  0  0  0
 31 86  1  0  0  0  0
 32 67  2  0  0  0  0
 33 68  1  0  0  0  0
 33 71  1  0  0  0  0
 34 35  2  0  0  0  0
 34 60  1  0  0  0  0
 35 61  1  0  0  0  0
 36 72  1  0  0  0  0
 36 77  2  0  0  0  0
 37 51  1  0  0  0  0
 37 74  1  0  0  0  0
 37 78  2  0  0  0  0
 38 63  1  0  0  0  0
 38 69  1  0  0  0  0
 38 79  2  0  0  0  0
 39 64  1  0  0  0  0
 39 75  1  0  0  0  0
 39 80  2  0  0  0  0
 40 70  1  0  0  0  0
 40 73  1  0  0  0  0
 40 81  2  0  0  0  0
 41 44  1  0  0  0  0
 42 51  1  0  0  0  0
 43 69  1  0  0  0  0
 44 46  1  0  0  0  0
 45 47  1  0  0  0  0
 45 48  1  0  0  0  0
 46 50  1  0  0  0  0
 47 52  1  0  0  0  0
 48 70  1  0  0  0  0
 49 52  1  0  0  0  0
 49 70  1  0  0  0  0
 50 74  1  0  0  0  0
 51 69  1  0  0  0  0
 52 68  1  0  0  0  0
 54 64  1  0  0  0  0
 55 65  1  0  0  0  0
 56 66  1  0  0  0  0
 57 66  1  0  0  0  0
 58 66  1  0  0  0  0
 59 76  1  0  0  0  0
 60 65  1  0  0  0  0
 61 83  1  0  0  0  0
 62 65  1  0  0  0  0
 62 84  1  0  0  0  0
 63 66  1  0  0  0  0
 63 75  1  0  0  0  0
 64 76  1  0  0  0  0
 67 68  1  0  0  0  0
M  CHG  1  76   1
M  ISO  4  40 100  62 101  73 100  84 101
M  END
> <Batch ID>
0134

> <Smiles>
CNC(C)C(=O)NC(C(=O)N1Cc2cc([101O:1][101CH2:1]C(C)CC=CCOc3ccc(C)c([100NH:0][100C:0](=O)N4CCCC(n5nc(-c6ccc(Oc7ccc(F)cc7F)cc6)c(C(N)=O)c5N)C4)c3)ccc2CC1C(=O)NC1CCCc2ccccc21)C(C)(C)C

> <Shape>
0.155

> <Color>
0.191

> <Negative vol penalty>
0.000

$$$$

  -OEChem-04052302333D

 85 93  0     1  0  0  0  0  0999 V2000
  -17.1328  -28.0413   19.5848 C   0  0  0  0  0  0  0  0  0  0  0  0
  -17.8686  -29.2185   19.4939 C   0  0  0  0  0  0  0  0  0  0  0  0
  -24.2330  -14.1506   19.5547 C   0  0  0  0  0  0  0  0  0  0  0  0
  -25.9140  -14.6620   21.2130 C   0  0  0  0  0  0  0  0  0  0  0  0
  -17.3667  -27.1536   20.6341 C   0  0  0  0  0  0  0  0  0  0  0  0
  -18.8381  -29.5091   20.4531 C   0  0  0  0  0  0  0  0  0  0  0  0
  -26.4401  -31.0741   19.5662 C   0  0  0  0  0  0  0  0  0  0  0  0
  -31.0084  -22.5869   21.4790 C   0  0  0  0  0  0  0  0  0  0  0  0
  -24.4383  -12.7874   19.7671 C   0  0  0  0  0  0  0  0  0  0  0  0
  -26.1193  -13.2988   21.4254 C   0  0  0  0  0  0  0  0  0  0  0  0
  -27.8286  -31.2087   19.5498 C   0  0  0  0  0  0  0  0  0  0  0  0
  -31.0932  -23.8975   21.0092 C   0  0  0  0  0  0  0  0  0  0  0  0
  -24.2634   -9.1747   20.1316 C   0  0  0  0  0  0  0  0  0  0  0  0
  -23.1374   -8.3601   20.2504 C   0  0  0  0  0  0  0  0  0  0  0  0
  -27.9512  -30.3274   21.7985 C   0  0  0  0  0  0  0  0  0  0  0  0
  -29.9501  -23.2451   18.9832 C   0  0  0  0  0  0  0  0  0  0  0  0
  -22.4120   -9.6422   22.1654 C   0  0  0  0  0  0  0  0  0  0  0  0
  -24.9709  -15.0879   20.2777 C   0  0  0  0  0  0  0  0  0  0  0  0
  -23.8461  -17.3331   20.7268 C   0  0  0  0  0  0  0  0  0  0  0  0
  -18.3463  -27.4288   21.6012 C   0  0  0  0  0  0  0  0  0  0  0  0
  -25.8025  -30.5506   20.6944 C   0  0  0  0  0  0  0  0  0  0  0  0
  -19.0844  -28.6249   21.5171 C   0  0  0  0  0  0  0  0  0  0  0  0
  -26.5618  -30.1787   21.8160 C   0  0  0  0  0  0  0  0  0  0  0  0
  -30.3945  -21.6053   20.7009 C   0  0  0  0  0  0  0  0  0  0  0  0
  -29.8653  -21.9345   19.4530 C   0  0  0  0  0  0  0  0  0  0  0  0
  -25.3814  -12.3615   20.7024 C   0  0  0  0  0  0  0  0  0  0  0  0
  -28.5822  -30.8365   20.6633 C   0  0  0  0  0  0  0  0  0  0  0  0
  -30.5640  -24.2266   19.7613 C   0  0  0  0  0  0  0  0  0  0  0  0
  -24.4638  -10.2230   21.0298 C   0  0  0  0  0  0  0  0  0  0  0  0
  -22.2116   -8.5938   21.2673 C   0  0  0  0  0  0  0  0  0  0  0  0
  -23.5380  -10.4567   22.0466 C   0  0  0  0  0  0  0  0  0  0  0  0
  -24.7598  -16.4963   20.0584 C   0  0  0  0  0  0  0  0  0  0  0  0
  -24.0327  -18.5691   20.1576 C   0  0  0  0  0  0  0  0  0  0  0  0
  -22.9122  -17.0211   21.7690 C   0  0  0  0  0  0  0  0  0  0  0  0
  -22.5704  -29.5527   22.3172 C   0  0  0  0  0  0  0  0  0  0  0  0
  -31.3137  -27.8285   19.4770 C   0  0  0  0  0  0  0  0  0  0  0  0
  -24.6368  -27.4088   23.0545 C   0  0  0  0  0  0  0  0  0  0  0  0
  -26.7646  -25.1064   22.7812 C   0  0  0  0  0  0  0  0  0  0  0  0
  -28.6669  -21.1303   17.3882 C   0  0  0  0  0  0  0  0  0  0  0  0
  -18.5305  -26.4615   22.7436 C   0  0  0  0  0  0  0  0  0  0  0  0
  -24.3040  -30.4453   20.7795 C   0  0  0  0  0  0  0  0  0  0  0  0
  -25.8301  -29.6527   23.0205 C   0  0  0  0  0  0  0  0  0  0  0  0
  -19.8354  -26.6647   23.5093 C   0  0  0  0  0  0  0  0  0  0  0  0
  -25.4002  -20.6372   16.0604 C   0  0  0  0  0  0  0  0  0  0  0  0
  -20.0501  -28.1436   23.8153 C   0  0  0  0  0  0  0  0  0  0  0  0
  -24.7800  -19.6000   16.9994 C   0  0  0  0  0  0  0  0  0  0  0  0
  -26.8870  -20.3742   15.8277 C   0  0  0  0  0  0  0  0  0  0  0  0
  -27.0721  -19.2033   17.9872 C   0  0  0  0  0  0  0  0  0  0  0  0
  -20.1619  -28.9636   22.5243 C   0  0  1  0  0  0  0  0  0  0  0  0
  -23.8297  -29.2155   21.5743 C   0  0  1  0  0  0  0  0  0  0  0  0
  -25.5904  -19.4644   18.3034 C   0  0  2  0  0  0  0  0  0  0  0  0
  -30.3181  -20.2098   21.2296 C   0  0  0  0  0  0  0  0  0  0  0  0
  -27.9385  -23.0202   23.5342 C   0  0  0  0  0  0  0  0  0  0  0  0
  -24.9791  -28.7105   25.7917 C   0  0  0  0  0  0  0  0  0  0  0  0
  -26.3336  -26.7236   26.4885 C   0  0  0  0  0  0  0  0  0  0  0  0
  -23.9420  -26.4353   25.8405 C   0  0  0  0  0  0  0  0  0  0  0  0
  -26.0222  -23.6576   20.3097 C   0  0  0  0  0  0  0  0  0  0  0  0
  -31.9866  -28.9306   20.2803 C   0  0  0  0  0  0  0  0  0  0  0  0
  -31.2811  -26.4630   20.1352 C   0  0  0  0  0  0  0  0  0  0  0  0
  -31.9842  -30.2884   19.5854 C   0  0  0  0  0  0  0  0  0  0  0  0
  -30.5787  -30.8377   19.3705 C   0  0  0  0  0  0  0  0  0  1  0  0
  -25.6600  -26.9282   24.0522 C   0  0  1  0  0  0  0  0  0  0  0  0
  -26.8222  -23.5932   22.6750 C   0  0  2  0  0  0  0  0  0  0  0  0
  -25.2361  -27.2148   25.5205 C   0  0  0  0  0  0  0  0  0  0  0  0
  -25.4737  -17.1458   19.1351 N   0  0  0  0  0  0  0  0  0  0  0  0
  -25.0086  -18.4038   19.2192 N   0  0  0  0  0  0  0  0  0  0  0  0
  -24.7683  -28.7259   22.5982 N   0  0  0  0  0  0  0  0  0  0  0  0
  -27.5911  -20.2618   17.1069 N   0  0  0  0  0  0  0  0  0  0  0  0
  -23.4556  -19.7703   20.3732 N   0  0  0  0  0  0  0  0  0  0  0  0
  -22.8503  -15.7016   22.2376 N   0  0  0  0  0  0  0  0  0  0  0  0
  -29.2379  -20.9518   18.6478 N   0  0  0  0  0  0  0  0  0  0  0  0
  -21.4742  -28.8029   21.9356 N   0  0  0  0  0  0  0  0  0  0  0  0
  -25.8838  -25.5166   23.7596 N   0  0  0  0  0  0  0  0  0  0  0  0
  -27.0582  -23.1818   21.2622 N   0  3  0  0  0  0  0  0  0  0  0  0
  -22.1436  -17.8831   22.2585 O   0  0  0  0  0  0  0  0  0  0  0  0
  -22.5907  -30.4277   23.1749 O   0  0  0  0  0  0  0  0  0  0  0  0
  -30.8466  -28.0169   18.3550 O   0  0  0  0  0  0  0  0  0  0  0  0
  -23.7409  -26.6411   22.6921 O   0  0  0  0  0  0  0  0  0  0  0  0
  -27.4367  -25.8502   22.0701 O   0  0  0  0  0  0  0  0  0  0  0  0
  -29.0356  -21.9888   16.5826 O   0  0  0  0  0  0  0  0  0  0  0  0
  -25.5818  -11.0313   20.9100 O   0  0  0  0  0  0  0  0  0  0  0  0
  -30.6477  -25.5186   19.2986 O   0  0  0  0  0  0  0  0  0  0  0  0
  -29.9376  -30.9663   20.6389 O   0  0  0  0  0  0  0  0  0  1  0  0
  -21.1296   -7.8125   21.3803 F   0  0  0  0  0  0  0  0  0  0  0  0
  -23.7245  -11.4630   22.9117 F   0  0  0  0  0  0  0  0  0  0  0  0
  1  2  1  0  0  0  0
  1  5  2  0  0  0  0
  2  6  2  0  0  0  0
  3  9  2  0  0  0  0
  3 18  1  0  0  0  0
  4 10  1  0  0  0  0
  4 18  2  0  0  0  0
  5 20  1  0  0  0  0
  6 22  1  0  0  0  0
  7 11  2  0  0  0  0
  7 21  1  0  0  0  0
  8 12  2  0  0  0  0
  8 24  1  0  0  0  0
  9 26  1  0  0  0  0
 10 26  2  0  0  0  0
 11 27  1  0  0  0  0
 12 28  1  0  0  0  0
 13 14  2  0  0  0  0
 13 29  1  0  0  0  0
 14 30  1  0  0  0  0
 15 23  1  0  0  0  0
 15 27  2  0  0  0  0
 16 25  1  0  0  0  0
 16 28  2  0  0  0  0
 17 30  2  0  0  0  0
 17 31  1  0  0  0  0
 18 32  1  0  0  0  0
 19 32  1  0  0  0  0
 19 33  2  0  0  0  0
 19 34  1  0  0  0  0
 20 22  2  0  0  0  0
 20 40  1  0  0  0  0
 21 23  2  0  0  0  0
 21 41  1  0  0  0  0
 22 49  1  0  0  0  0
 23 42  1  0  0  0  0
 24 25  2  0  0  0  0
 24 52  1  0  0  0  0
 25 71  1  0  0  0  0
 26 81  1  0  0  0  0
 27 83  1  0  0  0  0
 28 82  1  0  0  0  0
 29 31  2  0  0  0  0
 29 81  1  0  0  0  0
 30 84  1  0  0  0  0
 31 85  1  0  0  0  0
 32 65  2  0  0  0  0
 33 66  1  0  0  0  0
 33 69  1  0  0  0  0
 34 70  1  0  0  0  0
 34 75  2  0  0  0  0
 35 50  1  0  0  0  0
 35 72  1  0  0  0  0
 35 76  2  0  0  0  0
 36 58  1  0  0  0  0
 36 59  1  0  0  0  0
 36 77  2  0  0  0  0
 37 62  1  0  0  0  0
 37 67  1  0  0  0  0
 37 78  2  0  0  0  0
 38 63  1  0  0  0  0
 38 73  1  0  0  0  0
 38 79  2  0  0  0  0
 39 68  1  0  0  0  0
 39 71  1  0  0  0  0
 39 80  2  0  0  0  0
 40 43  1  0  0  0  0
 41 50  1  0  0  0  0
 42 67  1  0  0  0  0
 43 45  1  0  0  0  0
 44 46  1  0  0  0  0
 44 47  1  0  0  0  0
 45 49  1  0  0  0  0
 46 51  1  0  0  0  0
 47 68  1  0  0  0  0
 48 51  1  0  0  0  0
 48 68  1  0  0  0  0
 49 72  1  0  0  0  0
 50 67  1  0  0  0  0
 51 66  1  0  0  0  0
 53 63  1  0  0  0  0
 54 64  1  0  0  0  0
 55 64  1  0  0  0  0
 56 64  1  0  0  0  0
 57 74  1  0  0  0  0
 58 60  1  0  0  0  0
 59 82  1  0  0  0  0
 60 61  1  0  0  0  0
 61 83  1  0  0  0  0
 62 64  1  0  0  0  0
 62 73  1  0  0  0  0
 63 74  1  0  0  0  0
 65 66  1  0  0  0  0
M  CHG  1  74   1
M  ISO  4  39 100  61 101  71 100  83 101
M  END
> <Batch ID>
0134

> <Smiles>
CNC(C)C(=O)NC(C(=O)N1Cc2cc([101O:1][101CH2:1]CCC(=O)COc3ccc(C)c([100NH:0][100C:0](=O)N4CCCC(n5nc(-c6ccc(Oc7ccc(F)cc7F)cc6)c(C(N)=O)c5N)C4)c3)ccc2CC1C(=O)NC1CCCc2ccccc21)C(C)(C)C

> <Shape>
0.212

> <Color>
0.094

> <Negative vol penalty>
0.000

$$$$

  -OEChem-04052302333D

 83 91  0     1  0  0  0  0  0999 V2000
  -26.5640  -34.6952   24.6432 C   0  0  0  0  0  0  0  0  0  0  0  0
  -27.0123  -33.4716   24.1560 C   0  0  0  0  0  0  0  0  0  0  0  0
  -27.2961  -22.7724   24.2681 C   0  0  0  0  0  0  0  0  0  0  0  0
  -25.3637  -12.2244   23.1996 C   0  0  0  0  0  0  0  0  0  0  0  0
  -24.5163  -14.0547   24.5295 C   0  0  0  0  0  0  0  0  0  0  0  0
  -25.2718  -34.8096   25.1540 C   0  0  0  0  0  0  0  0  0  0  0  0
  -26.1689  -32.3614   24.1804 C   0  0  0  0  0  0  0  0  0  0  0  0
  -26.2709  -29.7485   19.8437 C   0  0  0  0  0  0  0  0  0  0  0  0
  -28.5120  -23.4558   24.2565 C   0  0  0  0  0  0  0  0  0  0  0  0
  -27.0980  -21.6869   23.4147 C   0  0  0  0  0  0  0  0  0  0  0  0
  -25.3191  -11.3914   24.3175 C   0  0  0  0  0  0  0  0  0  0  0  0
  -24.4717  -13.2218   25.6475 C   0  0  0  0  0  0  0  0  0  0  0  0
  -27.3617  -28.9061   19.6334 C   0  0  0  0  0  0  0  0  0  0  0  0
  -27.1806  -10.8332   27.0830 C   0  0  0  0  0  0  0  0  0  0  0  0
  -28.2844  -10.0157   27.3255 C   0  0  0  0  0  0  0  0  0  0  0  0
  -26.0249  -27.0158   20.3107 C   0  0  0  0  0  0  0  0  0  0  0  0
  -29.3317  -21.9684   22.5381 C   0  0  0  0  0  0  0  0  0  0  0  0
  -26.8754   -8.0610   27.1500 C   0  0  0  0  0  0  0  0  0  0  0  0
  -24.9623  -13.5561   23.3056 C   0  0  0  0  0  0  0  0  0  0  0  0
  -23.9858  -14.6296   21.2076 C   0  0  0  0  0  0  0  0  0  0  0  0
  -24.4088  -33.7026   25.1759 C   0  0  0  0  0  0  0  0  0  0  0  0
  -25.0500  -29.2314   20.3003 C   0  0  0  0  0  0  0  0  0  0  0  0
  -24.8644  -32.4608   24.6933 C   0  0  0  0  0  0  0  0  0  0  0  0
  -24.9193  -27.8533   20.5236 C   0  0  0  0  0  0  0  0  0  0  0  0
  -29.5297  -23.0539   23.3915 C   0  0  0  0  0  0  0  0  0  0  0  0
  -28.1158  -21.2850   22.5497 C   0  0  0  0  0  0  0  0  0  0  0  0
  -24.8731  -11.8901   25.5414 C   0  0  0  0  0  0  0  0  0  0  0  0
  -27.2397  -27.5400   19.8696 C   0  0  0  0  0  0  0  0  0  0  0  0
  -25.9241  -10.2646   26.8740 C   0  0  0  0  0  0  0  0  0  0  0  0
  -28.1318   -8.6297   27.3590 C   0  0  0  0  0  0  0  0  0  0  0  0
  -25.7715   -8.8785   26.9074 C   0  0  0  0  0  0  0  0  0  0  0  0
  -25.0086  -14.4172   22.1512 C   0  0  0  0  0  0  0  0  0  0  0  0
  -24.5220  -15.5266   20.3162 C   0  0  0  0  0  0  0  0  0  0  0  0
  -22.6689  -14.0666   21.1426 C   0  0  0  0  0  0  0  0  0  0  0  0
  -23.2613  -29.6607   22.8927 C   0  0  0  0  0  0  0  0  0  0  0  0
  -21.1732  -27.7653   21.2897 C   0  0  0  0  0  0  0  0  0  0  0  0
  -20.6720  -25.3755   18.9055 C   0  0  0  0  0  0  0  0  0  0  0  0
  -28.8200  -19.6535   20.7640 C   0  0  0  0  0  0  0  0  0  0  0  0
  -23.0369  -33.8635   25.7813 C   0  0  0  0  0  0  0  0  0  0  0  0
  -23.8749  -30.1497   20.4967 C   0  0  0  0  0  0  0  0  0  0  0  0
  -23.6244  -27.2456   20.9949 C   0  0  0  0  0  0  0  0  0  0  0  0
  -22.0779  -32.7299   25.4267 C   0  0  0  0  0  0  0  0  0  0  0  0
  -28.7164  -16.9263   18.4773 C   0  0  0  0  0  0  0  0  0  0  0  0
  -22.7592  -31.3774   25.6098 C   0  0  0  0  0  0  0  0  0  0  0  0
  -27.6564  -15.9956   19.0708 C   0  0  0  0  0  0  0  0  0  0  0  0
  -29.5495  -17.6032   19.5643 C   0  0  0  0  0  0  0  0  0  0  0  0
  -27.7132  -17.3712   21.1902 C   0  0  0  0  0  0  0  0  0  0  0  0
  -23.9708  -31.2396   24.6800 C   0  0  1  0  0  0  0  0  0  0  0  0
  -22.8302  -29.5864   21.4552 C   0  0  1  0  0  0  0  0  0  0  0  0
  -26.8063  -16.7161   20.1356 C   0  0  2  0  0  0  0  0  0  0  0  0
  -31.9940  -22.8721   23.8193 C   0  0  0  0  0  0  0  0  0  0  0  0
  -18.8609  -23.9979   17.8473 C   0  0  0  0  0  0  0  0  0  0  0  0
  -21.0923  -25.9777   23.7611 C   0  0  0  0  0  0  0  0  0  0  0  0
  -20.0676  -24.1850   22.3452 C   0  0  0  0  0  0  0  0  0  0  0  0
  -18.8730  -26.3506   22.6703 C   0  0  0  0  0  0  0  0  0  0  0  0
  -21.1938  -26.5325   16.2319 C   0  0  0  0  0  0  0  0  0  0  0  0
  -30.1664  -25.5113   21.5967 C   0  0  0  0  0  0  0  0  0  0  0  0
  -30.5790  -26.1809   20.2816 C   0  0  0  0  0  0  0  0  0  0  0  0
  -31.1789  -24.4363   22.0117 C   0  0  0  0  0  0  0  0  0  0  0  0
  -29.6028  -27.2722   19.8592 C   0  0  0  0  0  0  0  0  0  1  0  0
  -30.8537  -23.7985   23.3793 C   0  0  1  0  0  0  0  0  0  0  0  0
  -20.9298  -26.2780   21.2019 C   0  0  1  0  0  0  0  0  0  0  0  0
  -19.6716  -25.2821   17.7675 C   0  0  2  0  0  0  0  0  0  0  0  0
  -20.2658  -25.7092   22.4876 C   0  0  0  0  0  0  0  0  0  0  0  0
  -26.1112  -15.1222   21.8842 N   0  0  0  0  0  0  0  0  0  0  0  0
  -25.7843  -15.7864   20.7626 N   0  0  0  0  0  0  0  0  0  0  0  0
  -22.5062  -28.1855   21.1785 N   0  0  0  0  0  0  0  0  0  0  0  0
  -28.6774  -18.2686   20.5346 N   0  0  0  0  0  0  0  0  0  0  0  0
  -24.0321  -16.1104   19.2019 N   0  0  0  0  0  0  0  0  0  0  0  0
  -22.2793  -13.1612   22.1390 N   0  0  0  0  0  0  0  0  0  0  0  0
  -27.9144  -20.1819   21.6834 N   0  0  0  0  0  0  0  0  0  0  0  0
  -23.5410  -30.9411   23.3307 N   0  0  0  0  0  0  0  0  0  0  0  0
  -20.1560  -26.0622   19.9841 N   0  0  0  0  0  0  0  0  0  0  0  0
  -20.3762  -25.3123   16.4547 N   0  3  0  0  0  0  0  0  0  0  0  0
  -21.8672  -14.3451   20.2188 O   0  0  0  0  0  0  0  0  0  0  0  0
  -23.3334  -28.6327   23.5557 O   0  0  0  0  0  0  0  0  0  0  0  0
  -20.2150  -28.5268   21.4439 O   0  0  0  0  0  0  0  0  0  0  0  0
  -21.7972  -24.8848   18.8451 O   0  0  0  0  0  0  0  0  0  0  0  0
  -29.6641  -20.3266   20.1670 O   0  0  0  0  0  0  0  0  0  0  0  0
  -24.8293  -11.0775   26.6325 O   0  0  0  0  0  0  0  0  0  0  0  0
  -28.3031  -26.7156   19.6658 O   0  0  0  0  0  0  0  0  0  1  0  0
  -29.1922   -7.8447   27.5904 F   0  0  0  0  0  0  0  0  0  0  0  0
  -24.5671   -8.3264   26.7062 F   0  0  0  0  0  0  0  0  0  0  0  0
  1  2  1  0  0  0  0
  1  6  2  0  0  0  0
  2  7  2  0  0  0  0
  3  9  2  0  0  0  0
  3 10  1  0  0  0  0
  4 11  2  0  0  0  0
  4 19  1  0  0  0  0
  5 12  1  0  0  0  0
  5 19  2  0  0  0  0
  6 21  1  0  0  0  0
  7 23  1  0  0  0  0
  8 13  2  0  0  0  0
  8 22  1  0  0  0  0
  9 25  1  0  0  0  0
 10 26  2  0  0  0  0
 11 27  1  0  0  0  0
 12 27  2  0  0  0  0
 13 28  1  0  0  0  0
 14 15  2  0  0  0  0
 14 29  1  0  0  0  0
 15 30  1  0  0  0  0
 16 24  1  0  0  0  0
 16 28  2  0  0  0  0
 17 25  2  0  0  0  0
 17 26  1  0  0  0  0
 18 30  2  0  0  0  0
 18 31  1  0  0  0  0
 19 32  1  0  0  0  0
 20 32  1  0  0  0  0
 20 33  2  0  0  0  0
 20 34  1  0  0  0  0
 21 23  2  0  0  0  0
 21 39  1  0  0  0  0
 22 24  2  0  0  0  0
 22 40  1  0  0  0  0
 23 48  1  0  0  0  0
 24 41  1  0  0  0  0
 25 61  1  0  0  0  0
 26 71  1  0  0  0  0
 27 80  1  0  0  0  0
 28 81  1  0  0  0  0
 29 31  2  0  0  0  0
 29 80  1  0  0  0  0
 30 82  1  0  0  0  0
 31 83  1  0  0  0  0
 32 65  2  0  0  0  0
 33 66  1  0  0  0  0
 33 69  1  0  0  0  0
 34 70  1  0  0  0  0
 34 75  2  0  0  0  0
 35 49  1  0  0  0  0
 35 72  1  0  0  0  0
 35 76  2  0  0  0  0
 36 62  1  0  0  0  0
 36 67  1  0  0  0  0
 36 77  2  0  0  0  0
 37 63  1  0  0  0  0
 37 73  1  0  0  0  0
 37 78  2  0  0  0  0
 38 68  1  0  0  0  0
 38 71  1  0  0  0  0
 38 79  2  0  0  0  0
 39 42  1  0  0  0  0
 40 49  1  0  0  0  0
 41 67  1  0  0  0  0
 42 44  1  0  0  0  0
 43 45  1  0  0  0  0
 43 46  1  0  0  0  0
 44 48  1  0  0  0  0
 45 50  1  0  0  0  0
 46 68  1  0  0  0  0
 47 50  1  0  0  0  0
 47 68  1  0  0  0  0
 48 72  1  0  0  0  0
 49 67  1  0  0  0  0
 50 66  1  0  0  0  0
 51 61  1  0  0  0  0
 52 63  1  0  0  0  0
 53 64  1  0  0  0  0
 54 64  1  0  0  0  0
 55 64  1  0  0  0  0
 56 74  1  0  0  0  0
 57 58  1  0  0  0  0
 57 59  1  0  0  0  0
 58 60  1  0  0  0  0
 59 61  1  0  0  0  0
 60 81  1  0  0  0  0
 62 64  1  0  0  0  0
 62 73  1  0  0  0  0
 63 74  1  0  0  0  0
 65 66  1  0  0  0  0
M  CHG  1  74   1
M  ISO  4  38 100  60 101  71 100  81 101
M  END
> <Batch ID>
0134

> <Smiles>
CNC(C)C(=O)NC(C(=O)N1Cc2cc([101O:1][101CH2:1]CCCC(C)c3cccc([100NH:0][100C:0](=O)N4CCCC(n5nc(-c6ccc(Oc7ccc(F)cc7F)cc6)c(C(N)=O)c5N)C4)c3)ccc2CC1C(=O)NC1CCCc2ccccc21)C(C)(C)C

> <Shape>
0.220

> <Color>
0.102

> <Negative vol penalty>
0.000

$$$$

  -OEChem-04052302333D

 84 92  0     1  0  0  0  0  0999 V2000
  -24.0907  -17.7847   18.5089 C   0  0  0  0  0  0  0  0  0  0  0  0
  -24.9716  -18.8005   18.8659 C   0  0  0  0  0  0  0  0  0  0  0  0
  -24.5986   -9.0784   21.9305 C   0  0  0  0  0  0  0  0  0  0  0  0
  -23.0488   -9.9837   20.3133 C   0  0  0  0  0  0  0  0  0  0  0  0
  -22.8235  -18.1018   18.0214 C   0  0  0  0  0  0  0  0  0  0  0  0
  -24.5863  -20.1342   18.7345 C   0  0  0  0  0  0  0  0  0  0  0  0
  -25.8144  -22.9189   22.7820 C   0  0  0  0  0  0  0  0  0  0  0  0
  -30.9692  -19.7836   18.5111 C   0  0  0  0  0  0  0  0  0  0  0  0
  -29.1500  -20.9607   17.4424 C   0  0  0  0  0  0  0  0  0  0  0  0
  -23.5521   -8.3975   22.5523 C   0  0  0  0  0  0  0  0  0  0  0  0
  -22.0022   -9.3027   20.9351 C   0  0  0  0  0  0  0  0  0  0  0  0
  -27.1440  -23.3220   22.8979 C   0  0  0  0  0  0  0  0  0  0  0  0
  -31.4731  -20.9942   18.9867 C   0  0  0  0  0  0  0  0  0  0  0  0
  -29.6539  -22.1713   17.9180 C   0  0  0  0  0  0  0  0  0  0  0  0
  -21.7538   -5.5821   22.0304 C   0  0  0  0  0  0  0  0  0  0  0  0
  -21.9664   -4.2494   22.3830 C   0  0  0  0  0  0  0  0  0  0  0  0
  -26.5526  -25.4981   22.0411 C   0  0  0  0  0  0  0  0  0  0  0  0
  -21.5594   -4.7977   24.7005 C   0  0  0  0  0  0  0  0  0  0  0  0
  -24.3470   -9.8715   20.8110 C   0  0  0  0  0  0  0  0  0  0  0  0
  -26.2448  -10.1067   19.1225 C   0  0  0  0  0  0  0  0  0  0  0  0
  -22.4189  -19.4399   17.8931 C   0  0  0  0  0  0  0  0  0  0  0  0
  -24.8442  -23.8003   22.2837 C   0  0  0  0  0  0  0  0  0  0  0  0
  -23.3130  -20.4695   18.2436 C   0  0  0  0  0  0  0  0  0  0  0  0
  -25.2109  -25.1046   21.9223 C   0  0  0  0  0  0  0  0  0  0  0  0
  -29.8076  -19.7669   17.7389 C   0  0  0  0  0  0  0  0  0  0  0  0
  -22.2539   -8.5096   22.0546 C   0  0  0  0  0  0  0  0  0  0  0  0
  -30.8154  -22.1880   18.6902 C   0  0  0  0  0  0  0  0  0  0  0  0
  -27.5138  -24.6108   22.5247 C   0  0  0  0  0  0  0  0  0  0  0  0
  -21.4440   -6.5226   23.0128 C   0  0  0  0  0  0  0  0  0  0  0  0
  -21.8692   -3.8572   23.7181 C   0  0  0  0  0  0  0  0  0  0  0  0
  -21.3468   -6.1304   24.3479 C   0  0  0  0  0  0  0  0  0  0  0  0
  -25.4275  -10.5756   20.1685 C   0  0  0  0  0  0  0  0  0  0  0  0
  -27.1103  -11.1432   18.8720 C   0  0  0  0  0  0  0  0  0  0  0  0
  -31.0684  -26.5824   20.3750 C   0  0  0  0  0  0  0  0  0  0  0  0
  -26.2233   -8.8468   18.4385 C   0  0  0  0  0  0  0  0  0  0  0  0
  -30.8517  -25.2689   20.5509 C   0  0  0  0  0  0  0  0  0  0  0  0
  -22.9102  -23.8143   19.7612 C   0  0  0  0  0  0  0  0  0  0  0  0
  -21.7202  -26.4789   21.1776 C   0  0  0  0  0  0  0  0  0  0  0  0
  -22.2209  -29.0962   23.3097 C   0  0  0  0  0  0  0  0  0  0  0  0
  -28.0324  -16.4687   18.0139 C   0  0  0  0  0  0  0  0  0  0  0  0
  -21.0566  -19.7343   17.3168 C   0  0  0  0  0  0  0  0  0  0  0  0
  -23.4094  -23.3588   22.1900 C   0  0  0  0  0  0  0  0  0  0  0  0
  -24.2039  -26.0957   21.4007 C   0  0  0  0  0  0  0  0  0  0  0  0
  -20.5885  -21.1666   17.5609 C   0  0  0  0  0  0  0  0  0  0  0  0
  -28.0019  -15.3920   21.4689 C   0  0  0  0  0  0  0  0  0  0  0  0
  -21.7038  -22.1553   17.2364 C   0  0  0  0  0  0  0  0  0  0  0  0
  -27.3921  -13.9944   21.3466 C   0  0  0  0  0  0  0  0  0  0  0  0
  -27.3545  -16.3653   20.4882 C   0  0  0  0  0  0  0  0  0  0  0  0
  -26.7937  -14.5319   18.9397 C   0  0  0  0  0  0  0  0  0  0  0  0
  -22.9226  -21.9279   18.1389 C   0  0  1  0  0  0  0  0  0  0  0  0
  -22.5981  -24.1727   21.1866 C   0  0  1  0  0  0  0  0  0  0  0  0
  -27.4216  -13.4958   19.8896 C   0  0  2  0  0  0  0  0  0  0  0  0
  -21.0780  -31.1297   24.2349 C   0  0  0  0  0  0  0  0  0  0  0  0
  -22.1833  -27.9372   18.5378 C   0  0  0  0  0  0  0  0  0  0  0  0
  -21.9385  -30.1022   19.7711 C   0  0  0  0  0  0  0  0  0  0  0  0
  -20.0289  -28.4999   19.6764 C   0  0  0  0  0  0  0  0  0  0  0  0
  -22.4052  -28.0805   26.0834 C   0  0  0  0  0  0  0  0  0  0  0  0
  -29.2684  -18.4727   17.2308 C   0  0  0  0  0  0  0  0  0  0  0  0
  -31.0768  -24.6133   21.8974 C   0  0  0  0  0  0  0  0  0  0  0  0
  -30.3652  -24.4071   19.4173 C   0  0  0  0  0  0  0  0  0  0  0  0
  -29.8120  -24.0000   22.4912 C   0  0  0  0  0  0  0  0  0  1  0  0
  -22.0348  -27.9540   21.1153 C   0  0  1  0  0  0  0  0  0  0  0  0
  -21.3724  -29.6518   24.4392 C   0  0  2  0  0  0  0  0  0  0  0  0
  -21.5660  -28.6043   19.7831 C   0  0  0  0  0  0  0  0  0  0  0  0
  -25.7456  -11.8136   20.5559 N   0  0  0  0  0  0  0  0  0  0  0  0
  -26.7724  -12.1314   19.7492 N   0  0  0  0  0  0  0  0  0  0  0  0
  -22.8147  -25.6146   21.3216 N   0  0  0  0  0  0  0  0  0  0  0  0
  -27.4326  -15.8402   19.1178 N   0  0  0  0  0  0  0  0  0  0  0  0
  -28.1200  -11.2967   17.9891 N   0  0  0  0  0  0  0  0  0  0  0  0
  -25.2687   -7.8947   18.8216 N   0  0  0  0  0  0  0  0  0  0  0  0
  -22.6889  -22.4854   19.4538 N   0  0  0  0  0  0  0  0  0  0  0  0
  -21.4451  -28.5480   22.3102 N   0  0  0  0  0  0  0  0  0  0  0  0
  -28.6086  -17.7078   18.2655 N   0  0  0  0  0  0  0  0  0  0  0  0
  -22.0749  -29.4884   25.7434 N   0  3  0  0  0  0  0  0  0  0  0  0
  -27.0374   -8.5671   17.5261 O   0  0  0  0  0  0  0  0  0  0  0  0
  -23.3200  -24.6797   18.9965 O   0  0  0  0  0  0  0  0  0  0  0  0
  -20.5459  -26.1076   21.1084 O   0  0  0  0  0  0  0  0  0  0  0  0
  -23.4488  -29.1470   23.3119 O   0  0  0  0  0  0  0  0  0  0  0  0
  -28.0575  -15.9606   16.8877 O   0  0  0  0  0  0  0  0  0  0  0  0
  -21.2325   -7.8452   22.6610 O   0  0  0  0  0  0  0  0  0  0  0  0
  -31.3100  -23.3773   19.1588 O   0  0  0  0  0  0  0  0  0  0  0  0
  -28.8110  -25.0067   22.6362 O   0  0  0  0  0  0  0  0  0  1  0  0
  -22.0719   -2.5771   24.0564 F   0  0  0  0  0  0  0  0  0  0  0  0
  -21.0483   -7.0292   25.2960 F   0  0  0  0  0  0  0  0  0  0  0  0
  1  2  1  0  0  0  0
  1  5  2  0  0  0  0
  2  6  2  0  0  0  0
  3 10  2  0  0  0  0
  3 19  1  0  0  0  0
  4 11  1  0  0  0  0
  4 19  2  0  0  0  0
  5 21  1  0  0  0  0
  6 23  1  0  0  0  0
  7 12  2  0  0  0  0
  7 22  1  0  0  0  0
  8 13  2  0  0  0  0
  8 25  1  0  0  0  0
  9 14  1  0  0  0  0
  9 25  2  0  0  0  0
 10 26  1  0  0  0  0
 11 26  2  0  0  0  0
 12 28  1  0  0  0  0
 13 27  1  0  0  0  0
 14 27  2  0  0  0  0
 15 16  2  0  0  0  0
 15 29  1  0  0  0  0
 16 30  1  0  0  0  0
 17 24  1  0  0  0  0
 17 28  2  0  0  0  0
 18 30  2  0  0  0  0
 18 31  1  0  0  0  0
 19 32  1  0  0  0  0
 20 32  1  0  0  0  0
 20 33  2  0  0  0  0
 20 35  1  0  0  0  0
 21 23  2  0  0  0  0
 21 41  1  0  0  0  0
 22 24  2  0  0  0  0
 22 42  1  0  0  0  0
 23 50  1  0  0  0  0
 24 43  1  0  0  0  0
 25 58  1  0  0  0  0
 26 80  1  0  0  0  0
 27 81  1  0  0  0  0
 28 82  1  0  0  0  0
 29 31  2  0  0  0  0
 29 80  1  0  0  0  0
 30 83  1  0  0  0  0
 31 84  1  0  0  0  0
 32 65  2  0  0  0  0
 33 66  1  0  0  0  0
 33 69  1  0  0  0  0
 34 36  2  0  0  0  0
 35 70  1  0  0  0  0
 35 75  2  0  0  0  0
 36 59  1  0  0  0  0
 36 60  1  0  0  0  0
 37 51  1  0  0  0  0
 37 71  1  0  0  0  0
 37 76  2  0  0  0  0
 38 62  1  0  0  0  0
 38 67  1  0  0  0  0
 38 77  2  0  0  0  0
 39 63  1  0  0  0  0
 39 72  1  0  0  0  0
 39 78  2  0  0  0  0
 40 68  1  0  0  0  0
 40 73  1  0  0  0  0
 40 79  2  0  0  0  0
 41 44  1  0  0  0  0
 42 51  1  0  0  0  0
 43 67  1  0  0  0  0
 44 46  1  0  0  0  0
 45 47  1  0  0  0  0
 45 48  1  0  0  0  0
 46 50  1  0  0  0  0
 47 52  1  0  0  0  0
 48 68  1  0  0  0  0
 49 52  1  0  0  0  0
 49 68  1  0  0  0  0
 50 71  1  0  0  0  0
 51 67  1  0  0  0  0
 52 66  1  0  0  0  0
 53 63  1  0  0  0  0
 54 64  1  0  0  0  0
 55 64  1  0  0  0  0
 56 64  1  0  0  0  0
 57 74  1  0  0  0  0
 58 73  1  0  0  0  0
 59 61  1  0  0  0  0
 60 81  1  0  0  0  0
 61 82  1  0  0  0  0
 62 64  1  0  0  0  0
 62 72  1  0  0  0  0
 63 74  1  0  0  0  0
 65 66  1  0  0  0  0
M  CHG  1  74   1
M  ISO  4  40 100  61 101  73 100  82 101
M  END
> <Batch ID>
0134

> <Smiles>
C=C(COc1ccc(C[100NH:0][100C:0](=O)N2CCCC(n3nc(-c4ccc(Oc5ccc(F)cc5F)cc4)c(C(N)=O)c3N)C2)cc1)C[101CH2:1][101O:1]c1ccc2c(c1)CN(C(=O)C(NC(=O)C(C)NC)C(C)(C)C)C(C(=O)NC1CCCc3ccccc31)C2

> <Shape>
0.192

> <Color>
0.084

> <Negative vol penalty>
0.000

$$$$

  -OEChem-04052302333D

 84 92  0     1  0  0  0  0  0999 V2000
  -30.5556  -33.6949   23.6063 C   0  0  0  0  0  0  0  0  0  0  0  0
  -29.8361  -32.5679   23.2222 C   0  0  0  0  0  0  0  0  0  0  0  0
  -24.5085   -8.8333   20.7055 C   0  0  0  0  0  0  0  0  0  0  0  0
  -22.9830  -10.6933   20.9292 C   0  0  0  0  0  0  0  0  0  0  0  0
  -29.9945  -34.6085   24.4976 C   0  0  0  0  0  0  0  0  0  0  0  0
  -28.5552  -32.3533   23.7300 C   0  0  0  0  0  0  0  0  0  0  0  0
  -25.2641  -30.9202   20.1579 C   0  0  0  0  0  0  0  0  0  0  0  0
  -29.0045  -20.7402   21.0122 C   0  0  0  0  0  0  0  0  0  0  0  0
  -29.0724  -19.3931   21.3675 C   0  0  0  0  0  0  0  0  0  0  0  0
  -23.4806   -7.9504   21.0366 C   0  0  0  0  0  0  0  0  0  0  0  0
  -21.9550   -9.8105   21.2603 C   0  0  0  0  0  0  0  0  0  0  0  0
  -25.3144  -29.5903   19.7425 C   0  0  0  0  0  0  0  0  0  0  0  0
  -21.9043   -6.9010   23.8363 C   0  0  0  0  0  0  0  0  0  0  0  0
  -22.1895   -5.8906   24.7546 C   0  0  0  0  0  0  0  0  0  0  0  0
  -23.4299  -29.0825   21.1602 C   0  0  0  0  0  0  0  0  0  0  0  0
  -28.0966  -20.1265   18.8590 C   0  0  0  0  0  0  0  0  0  0  0  0
  -21.6314   -4.2252   23.0957 C   0  0  0  0  0  0  0  0  0  0  0  0
  -24.2597  -10.2048   20.6519 C   0  0  0  0  0  0  0  0  0  0  0  0
  -25.6771  -11.5642   19.0239 C   0  0  0  0  0  0  0  0  0  0  0  0
  -28.7024  -34.4100   25.0091 C   0  0  0  0  0  0  0  0  0  0  0  0
  -24.3016  -31.3396   21.0875 C   0  0  0  0  0  0  0  0  0  0  0  0
  -27.9768  -33.2644   24.6300 C   0  0  0  0  0  0  0  0  0  0  0  0
  -23.3679  -30.4188   21.5839 C   0  0  0  0  0  0  0  0  0  0  0  0
  -28.5166  -21.1069   19.7579 C   0  0  0  0  0  0  0  0  0  0  0  0
  -28.1646  -18.7794   19.2142 C   0  0  0  0  0  0  0  0  0  0  0  0
  -28.6525  -18.4127   20.4685 C   0  0  0  0  0  0  0  0  0  0  0  0
  -22.2039   -8.4390   21.3139 C   0  0  0  0  0  0  0  0  0  0  0  0
  -24.3990  -28.6706   20.2458 C   0  0  0  0  0  0  0  0  0  0  0  0
  -21.4826   -6.5735   22.5476 C   0  0  0  0  0  0  0  0  0  0  0  0
  -22.0531   -4.5527   24.3843 C   0  0  0  0  0  0  0  0  0  0  0  0
  -21.3462   -5.2356   22.1773 C   0  0  0  0  0  0  0  0  0  0  0  0
  -25.3212  -11.1173   20.3105 C   0  0  0  0  0  0  0  0  0  0  0  0
  -26.7383  -12.4101   19.2356 C   0  0  0  0  0  0  0  0  0  0  0  0
  -25.1001  -11.2434   17.7512 C   0  0  0  0  0  0  0  0  0  0  0  0
  -24.3988  -32.5784   24.0132 C   0  0  0  0  0  0  0  0  0  0  0  0
  -21.1953  -32.8505   23.5826 C   0  0  0  0  0  0  0  0  0  0  0  0
  -18.3851  -31.7656   21.9786 C   0  0  0  0  0  0  0  0  0  0  0  0
  -29.1914  -16.5349   22.0590 C   0  0  0  0  0  0  0  0  0  0  0  0
  -28.1563  -35.4007   26.0066 C   0  0  0  0  0  0  0  0  0  0  0  0
  -24.2437  -32.7834   21.5052 C   0  0  0  0  0  0  0  0  0  0  0  0
  -22.3020  -30.8228   22.5684 C   0  0  0  0  0  0  0  0  0  0  0  0
  -26.6470  -35.2932   26.2080 C   0  0  0  0  0  0  0  0  0  0  0  0
  -29.5051  -13.2477   23.3907 C   0  0  0  0  0  0  0  0  0  0  0  0
  -26.2346  -33.8355   26.3863 C   0  0  0  0  0  0  0  0  0  0  0  0
  -28.4739  -12.4372   22.6022 C   0  0  0  0  0  0  0  0  0  0  0  0
  -29.0104  -14.6631   23.6835 C   0  0  0  0  0  0  0  0  0  0  0  0
  -27.5235  -14.6064   21.7201 C   0  0  0  0  0  0  0  0  0  0  0  0
  -26.5750  -33.0096   25.1399 C   0  0  1  0  0  0  0  0  0  0  0  0
  -23.5464  -32.9900   22.8463 C   0  0  1  0  0  0  0  0  0  0  0  0
  -28.0033  -13.1947   21.3451 C   0  0  2  0  0  0  0  0  0  0  0  0
  -28.8802  -17.0515   17.5443 C   0  0  0  0  0  0  0  0  0  0  0  0
  -15.9084  -32.1533   21.8643 C   0  0  0  0  0  0  0  0  0  0  0  0
  -20.8401  -31.3411   26.2105 C   0  0  0  0  0  0  0  0  0  0  0  0
  -18.4541  -30.9314   25.5721 C   0  0  0  0  0  0  0  0  0  0  0  0
  -19.2745  -33.2653   25.8928 C   0  0  0  0  0  0  0  0  0  0  0  0
  -18.5214  -32.5437   19.1265 C   0  0  0  0  0  0  0  0  0  0  0  0
  -28.4455  -22.5633   19.3730 C   0  0  0  0  0  0  0  0  0  0  0  0
  -27.7106  -17.7503   18.2301 C   0  0  0  0  0  0  0  0  0  0  0  0
  -27.1181  -23.2368   19.7393 C   0  0  0  0  0  0  0  0  0  0  0  0
  -27.0942  -24.7328   19.4104 C   0  0  0  0  0  0  0  0  0  0  0  0
  -25.7443  -25.3553   19.7631 C   0  0  0  0  0  0  0  0  0  0  0  0
  -25.7241  -26.8506   19.4792 C   0  0  0  0  0  0  0  0  0  1  0  0
  -20.0017  -31.9656   23.8497 C   0  0  1  0  0  0  0  0  0  0  0  0
  -17.2657  -32.5213   21.2855 C   0  0  2  0  0  0  0  0  0  0  0  0
  -19.6638  -31.8675   25.3642 C   0  0  0  0  0  0  0  0  0  0  0  0
  -26.0937  -11.6362   21.2686 N   0  0  0  0  0  0  0  0  0  0  0  0
  -26.9456  -12.4179   20.5836 N   0  0  0  0  0  0  0  0  0  0  0  0
  -22.2905  -32.2444   22.9510 N   0  0  0  0  0  0  0  0  0  0  0  0
  -28.5855  -15.3207   22.4458 N   0  0  0  0  0  0  0  0  0  0  0  0
  -27.5050  -13.1406   18.3983 N   0  0  0  0  0  0  0  0  0  0  0  0
  -24.0150  -10.3571   17.7138 N   0  0  0  0  0  0  0  0  0  0  0  0
  -28.7294  -17.0497   20.8482 N   0  0  0  0  0  0  0  0  0  0  0  0
  -25.6040  -33.2496   24.0939 N   0  0  0  0  0  0  0  0  0  0  0  0
  -18.9150  -32.4868   23.0276 N   0  0  0  0  0  0  0  0  0  0  0  0
  -17.2553  -32.2097   19.8282 N   0  3  0  0  0  0  0  0  0  0  0  0
  -25.5442  -11.7157   16.6773 O   0  0  0  0  0  0  0  0  0  0  0  0
  -23.9926  -31.7169   24.7841 O   0  0  0  0  0  0  0  0  0  0  0  0
  -21.1545  -34.0376   23.9155 O   0  0  0  0  0  0  0  0  0  0  0  0
  -18.7502  -30.6459   21.6272 O   0  0  0  0  0  0  0  0  0  0  0  0
  -30.0756  -17.0639   22.7374 O   0  0  0  0  0  0  0  0  0  0  0  0
  -21.2006   -7.5778   21.6368 O   0  0  0  0  0  0  0  0  0  0  0  0
  -24.4463  -27.3717   19.8425 O   0  0  0  0  0  0  0  0  0  1  0  0
  -22.3285   -3.5825   25.2658 F   0  0  0  0  0  0  0  0  0  0  0  0
  -20.9426   -4.9149   20.9404 F   0  0  0  0  0  0  0  0  0  0  0  0
  1  2  1  0  0  0  0
  1  5  2  0  0  0  0
  2  6  2  0  0  0  0
  3 10  2  0  0  0  0
  3 18  1  0  0  0  0
  4 11  1  0  0  0  0
  4 18  2  0  0  0  0
  5 20  1  0  0  0  0
  6 22  1  0  0  0  0
  7 12  2  0  0  0  0
  7 21  1  0  0  0  0
  8  9  2  0  0  0  0
  8 24  1  0  0  0  0
  9 26  1  0  0  0  0
 10 27  1  0  0  0  0
 11 27  2  0  0  0  0
 12 28  1  0  0  0  0
 13 14  2  0  0  0  0
 13 29  1  0  0  0  0
 14 30  1  0  0  0  0
 15 23  1  0  0  0  0
 15 28  2  0  0  0  0
 16 24  2  0  0  0  0
 16 25  1  0  0  0  0
 17 30  2  0  0  0  0
 17 31  1  0  0  0  0
 18 32  1  0  0  0  0
 19 32  1  0  0  0  0
 19 33  2  0  0  0  0
 19 34  1  0  0  0  0
 20 22  2  0  0  0  0
 20 39  1  0  0  0  0
 21 23  2  0  0  0  0
 21 40  1  0  0  0  0
 22 48  1  0  0  0  0
 23 41  1  0  0  0  0
 24 57  1  0  0  0  0
 25 26  2  0  0  0  0
 25 58  1  0  0  0  0
 26 72  1  0  0  0  0
 27 81  1  0  0  0  0
 28 82  1  0  0  0  0
 29 31  2  0  0  0  0
 29 81  1  0  0  0  0
 30 83  1  0  0  0  0
 31 84  1  0  0  0  0
 32 66  2  0  0  0  0
 33 67  1  0  0  0  0
 33 70  1  0  0  0  0
 34 71  1  0  0  0  0
 34 76  2  0  0  0  0
 35 49  1  0  0  0  0
 35 73  1  0  0  0  0
 35 77  2  0  0  0  0
 36 63  1  0  0  0  0
 36 68  1  0  0  0  0
 36 78  2  0  0  0  0
 37 64  1  0  0  0  0
 37 74  1  0  0  0  0
 37 79  2  0  0  0  0
 38 69  1  0  0  0  0
 38 72  1  0  0  0  0
 38 80  2  0  0  0  0
 39 42  1  0  0  0  0
 40 49  1  0  0  0  0
 41 68  1  0  0  0  0
 42 44  1  0  0  0  0
 43 45  1  0  0  0  0
 43 46  1  0  0  0  0
 44 48  1  0  0  0  0
 45 50  1  0  0  0  0
 46 69  1  0  0  0  0
 47 50  1  0  0  0  0
 47 69  1  0  0  0  0
 48 73  1  0  0  0  0
 49 68  1  0  0  0  0
 50 67  1  0  0  0  0
 51 58  1  0  0  0  0
 52 64  1  0  0  0  0
 53 65  1  0  0  0  0
 54 65  1  0  0  0  0
 55 65  1  0  0  0  0
 56 75  1  0  0  0  0
 57 59  1  0  0  0  0
 59 60  1  0  0  0  0
 60 61  1  0  0  0  0
 61 62  1  0  0  0  0
 62 82  1  0  0  0  0
 63 65  1  0  0  0  0
 63 74  1  0  0  0  0
 64 75  1  0  0  0  0
 66 67  1  0  0  0  0
M  CHG  1  75   1
M  ISO  4  38 100  62 101  72 100  82 101
M  END
> <Batch ID>
0134

> <Smiles>
CCc1cc(CCCC[101CH2:1][101O:1]c2ccc3c(c2)CN(C(=O)C(NC(=O)C(C)NC)C(C)(C)C)C(C(=O)NC2CCCc4ccccc42)C3)ccc1[100NH:0][100C:0](=O)N1CCCC(n2nc(-c3ccc(Oc4ccc(F)cc4F)cc3)c(C(N)=O)c2N)C1

> <Shape>
0.283

> <Color>
0.092

> <Negative vol penalty>
0.000

$$$$

  -OEChem-04052302333D

 83 91  0     1  0  0  0  0  0999 V2000
  -28.1812  -35.6461   23.7445 C   0  0  0  0  0  0  0  0  0  0  0  0
  -28.4146  -34.3022   23.4709 C   0  0  0  0  0  0  0  0  0  0  0  0
  -24.3958   -9.8016   22.6418 C   0  0  0  0  0  0  0  0  0  0  0  0
  -24.6460  -11.7918   23.9885 C   0  0  0  0  0  0  0  0  0  0  0  0
  -26.9252  -36.0582   24.1879 C   0  0  0  0  0  0  0  0  0  0  0  0
  -27.3923  -33.3694   23.6416 C   0  0  0  0  0  0  0  0  0  0  0  0
  -27.0669  -30.1149   19.7754 C   0  0  0  0  0  0  0  0  0  0  0  0
  -26.8533  -19.0344   17.8640 C   0  0  0  0  0  0  0  0  0  0  0  0
  -29.2623  -19.0070   17.6819 C   0  0  0  0  0  0  0  0  0  0  0  0
  -24.1448   -9.0545   23.7926 C   0  0  0  0  0  0  0  0  0  0  0  0
  -24.3949  -11.0447   25.1393 C   0  0  0  0  0  0  0  0  0  0  0  0
  -27.9973  -29.0774   19.7364 C   0  0  0  0  0  0  0  0  0  0  0  0
  -26.8562  -20.4189   17.6943 C   0  0  0  0  0  0  0  0  0  0  0  0
  -29.2652  -20.3915   17.5122 C   0  0  0  0  0  0  0  0  0  0  0  0
  -21.5495   -8.5058   25.8894 C   0  0  0  0  0  0  0  0  0  0  0  0
  -20.4868   -7.6029   25.8571 C   0  0  0  0  0  0  0  0  0  0  0  0
  -26.3508  -27.5742   20.6578 C   0  0  0  0  0  0  0  0  0  0  0  0
  -22.0154   -5.7875   26.3100 C   0  0  0  0  0  0  0  0  0  0  0  0
  -24.6464  -11.1703   22.7398 C   0  0  0  0  0  0  0  0  0  0  0  0
  -23.9622  -12.6066   20.7457 C   0  0  0  0  0  0  0  0  0  0  0  0
  -25.8842  -35.1313   24.3548 C   0  0  0  0  0  0  0  0  0  0  0  0
  -25.7725  -29.8921   20.2668 C   0  0  0  0  0  0  0  0  0  0  0  0
  -26.1216  -33.7692   24.0889 C   0  0  0  0  0  0  0  0  0  0  0  0
  -25.4050  -28.6100   20.6995 C   0  0  0  0  0  0  0  0  0  0  0  0
  -28.0564  -18.3284   17.8578 C   0  0  0  0  0  0  0  0  0  0  0  0
  -24.1443   -9.6760   25.0414 C   0  0  0  0  0  0  0  0  0  0  0  0
  -28.0622  -21.0974   17.5184 C   0  0  0  0  0  0  0  0  0  0  0  0
  -27.6403  -27.8075   20.1803 C   0  0  0  0  0  0  0  0  0  0  0  0
  -22.8452   -8.0495   26.1320 C   0  0  0  0  0  0  0  0  0  0  0  0
  -20.7197   -6.2438   26.0675 C   0  0  0  0  0  0  0  0  0  0  0  0
  -23.0781   -6.6904   26.3423 C   0  0  0  0  0  0  0  0  0  0  0  0
  -24.9064  -11.9425   21.5514 C   0  0  0  0  0  0  0  0  0  0  0  0
  -24.7087  -13.1876   19.7499 C   0  0  0  0  0  0  0  0  0  0  0  0
  -22.5377  -12.6909   20.8850 C   0  0  0  0  0  0  0  0  0  0  0  0
  -24.0700  -31.0286   22.6986 C   0  0  0  0  0  0  0  0  0  0  0  0
  -28.8260  -24.5753   18.2273 C   0  0  0  0  0  0  0  0  0  0  0  0
  -21.6955  -29.2815   21.3451 C   0  0  0  0  0  0  0  0  0  0  0  0
  -20.8033  -26.6596   19.3510 C   0  0  0  0  0  0  0  0  0  0  0  0
  -29.1581  -16.0710   18.0494 C   0  0  0  0  0  0  0  0  0  0  0  0
  -24.5571  -35.6171   24.8816 C   0  0  0  0  0  0  0  0  0  0  0  0
  -24.7723  -31.0154   20.2773 C   0  0  0  0  0  0  0  0  0  0  0  0
  -24.0220  -28.3139   21.2172 C   0  0  0  0  0  0  0  0  0  0  0  0
  -23.4191  -34.6203   24.6780 C   0  0  0  0  0  0  0  0  0  0  0  0
  -29.5698  -12.5614   18.4852 C   0  0  0  0  0  0  0  0  0  0  0  0
  -23.8560  -33.2192   25.0939 C   0  0  0  0  0  0  0  0  0  0  0  0
  -28.3155  -12.1421   19.2555 C   0  0  0  0  0  0  0  0  0  0  0  0
  -30.0741  -13.9341   18.9267 C   0  0  0  0  0  0  0  0  0  0  0  0
  -27.8153  -14.5855   19.6636 C   0  0  0  0  0  0  0  0  0  0  0  0
  -25.0309  -32.7308   24.2381 C   0  0  1  0  0  0  0  0  0  0  0  0
  -23.6407  -30.7985   21.2772 C   0  0  1  0  0  0  0  0  0  0  0  0
  -27.2325  -13.2378   19.2081 C   0  0  2  0  0  0  0  0  0  0  0  0
  -18.7879  -25.4567   18.4630 C   0  0  0  0  0  0  0  0  0  0  0  0
  -21.2937  -27.9537   24.0628 C   0  0  0  0  0  0  0  0  0  0  0  0
  -19.9833  -26.1567   22.9131 C   0  0  0  0  0  0  0  0  0  0  0  0
  -19.1781  -28.5169   22.8538 C   0  0  0  0  0  0  0  0  0  0  0  0
  -21.5320  -27.2671   16.5476 C   0  0  0  0  0  0  0  0  0  0  0  0
  -29.9737  -25.4379   18.7314 C   0  0  0  0  0  0  0  0  0  0  0  0
  -29.1991  -23.1654   17.8125 C   0  0  0  0  0  0  0  0  0  0  0  0
  -29.5371  -26.8436   19.1178 C   0  0  0  0  0  0  0  0  0  1  0  0
  -21.1999  -27.8624   21.4842 C   0  0  1  0  0  0  0  0  0  0  0  0
  -19.8083  -26.5555   18.2093 C   0  0  2  0  0  0  0  0  0  0  0  0
  -20.4405  -27.6281   22.8206 C   0  0  0  0  0  0  0  0  0  0  0  0
  -26.1572  -12.0874   21.1059 N   0  0  0  0  0  0  0  0  0  0  0  0
  -26.0041  -12.8491   20.0093 N   0  0  0  0  0  0  0  0  0  0  0  0
  -23.0816  -29.4466   21.2135 N   0  0  0  0  0  0  0  0  0  0  0  0
  -28.9953  -14.9218   18.8516 N   0  0  0  0  0  0  0  0  0  0  0  0
  -24.3767  -13.9499   18.6863 N   0  0  0  0  0  0  0  0  0  0  0  0
  -21.9321  -12.0350   21.9655 N   0  0  0  0  0  0  0  0  0  0  0  0
  -28.0535  -16.9220   18.0302 N   0  0  0  0  0  0  0  0  0  0  0  0
  -24.5637  -32.2966   22.9389 N   0  0  0  0  0  0  0  0  0  0  0  0
  -20.4073  -27.5879   20.2905 N   0  0  0  0  0  0  0  0  0  0  0  0
  -20.5150  -26.2548   16.9321 N   0  3  0  0  0  0  0  0  0  0  0  0
  -21.8213  -13.3152   20.0661 O   0  0  0  0  0  0  0  0  0  0  0  0
  -23.9600  -30.1232   23.5171 O   0  0  0  0  0  0  0  0  0  0  0  0
  -27.6682  -24.9848   18.1596 O   0  0  0  0  0  0  0  0  0  0  0  0
  -20.8821  -30.2089   21.3458 O   0  0  0  0  0  0  0  0  0  0  0  0
  -21.8275  -25.9824   19.4059 O   0  0  0  0  0  0  0  0  0  0  0  0
  -30.1902  -16.2709   17.4038 O   0  0  0  0  0  0  0  0  0  0  0  0
  -23.8991   -8.9473   26.1645 O   0  0  0  0  0  0  0  0  0  0  0  0
  -28.0651  -22.4620   17.3512 O   0  0  0  0  0  0  0  0  0  0  0  0
  -28.5468  -26.7932   20.1440 O   0  0  0  0  0  0  0  0  0  1  0  0
  -19.6989   -5.3771   26.0379 F   0  0  0  0  0  0  0  0  0  0  0  0
  -24.3205   -6.2464   26.5769 F   0  0  0  0  0  0  0  0  0  0  0  0
  1  2  1  0  0  0  0
  1  5  2  0  0  0  0
  2  6  2  0  0  0  0
  3 10  2  0  0  0  0
  3 19  1  0  0  0  0
  4 11  1  0  0  0  0
  4 19  2  0  0  0  0
  5 21  1  0  0  0  0
  6 23  1  0  0  0  0
  7 12  2  0  0  0  0
  7 22  1  0  0  0  0
  8 13  2  0  0  0  0
  8 25  1  0  0  0  0
  9 14  1  0  0  0  0
  9 25  2  0  0  0  0
 10 26  1  0  0  0  0
 11 26  2  0  0  0  0
 12 28  1  0  0  0  0
 13 27  1  0  0  0  0
 14 27  2  0  0  0  0
 15 16  2  0  0  0  0
 15 29  1  0  0  0  0
 16 30  1  0  0  0  0
 17 24  1  0  0  0  0
 17 28  2  0  0  0  0
 18 30  2  0  0  0  0
 18 31  1  0  0  0  0
 19 32  1  0  0  0  0
 20 32  1  0  0  0  0
 20 33  2  0  0  0  0
 20 34  1  0  0  0  0
 21 23  2  0  0  0  0
 21 40  1  0  0  0  0
 22 24  2  0  0  0  0
 22 41  1  0  0  0  0
 23 49  1  0  0  0  0
 24 42  1  0  0  0  0
 25 69  1  0  0  0  0
 26 79  1  0  0  0  0
 27 80  1  0  0  0  0
 28 81  1  0  0  0  0
 29 31  2  0  0  0  0
 29 79  1  0  0  0  0
 30 82  1  0  0  0  0
 31 83  1  0  0  0  0
 32 63  2  0  0  0  0
 33 64  1  0  0  0  0
 33 67  1  0  0  0  0
 34 68  1  0  0  0  0
 34 73  2  0  0  0  0
 35 50  1  0  0  0  0
 35 70  1  0  0  0  0
 35 74  2  0  0  0  0
 36 57  1  0  0  0  0
 36 58  1  0  0  0  0
 36 75  2  0  0  0  0
 37 60  1  0  0  0  0
 37 65  1  0  0  0  0
 37 76  2  0  0  0  0
 38 61  1  0  0  0  0
 38 71  1  0  0  0  0
 38 77  2  0  0  0  0
 39 66  1  0  0  0  0
 39 69  1  0  0  0  0
 39 78  2  0  0  0  0
 40 43  1  0  0  0  0
 41 50  1  0  0  0  0
 42 65  1  0  0  0  0
 43 45  1  0  0  0  0
 44 46  1  0  0  0  0
 44 47  1  0  0  0  0
 45 49  1  0  0  0  0
 46 51  1  0  0  0  0
 47 66  1  0  0  0  0
 48 51  1  0  0  0  0
 48 66  1  0  0  0  0
 49 70  1  0  0  0  0
 50 65  1  0  0  0  0
 51 64  1  0  0  0  0
 52 61  1  0  0  0  0
 53 62  1  0  0  0  0
 54 62  1  0  0  0  0
 55 62  1  0  0  0  0
 56 72  1  0  0  0  0
 57 59  1  0  0  0  0
 58 80  1  0  0  0  0
 59 81  1  0  0  0  0
 60 62  1  0  0  0  0
 60 71  1  0  0  0  0
 61 72  1  0  0  0  0
 63 64  1  0  0  0  0
M  CHG  1  72   1
M  ISO  4  39 100  59 101  69 100  81 101
M  END
> <Batch ID>
0134

> <Smiles>
CNC(C)C(=O)NC(C(=O)N1Cc2cc([101O:1][101CH2:1]CC(=O)COc3ccc([100NH:0][100C:0](=O)N4CCCC(n5nc(-c6ccc(Oc7ccc(F)cc7F)cc6)c(C(N)=O)c5N)C4)cc3)ccc2CC1C(=O)NC1CCCc2ccccc21)C(C)(C)C

> <Shape>
0.291

> <Color>
0.097

> <Negative vol penalty>
0.000

$$$$

  -OEChem-04052302333D

 86 94  0     1  0  0  0  0  0999 V2000
  -18.7386  -32.5087   25.2317 C   0  0  0  0  0  0  0  0  0  0  0  0
  -19.9557  -31.9473   25.6043 C   0  0  0  0  0  0  0  0  0  0  0  0
  -26.9197  -13.5334   21.3016 C   0  0  0  0  0  0  0  0  0  0  0  0
  -26.8779  -13.6239   18.8876 C   0  0  0  0  0  0  0  0  0  0  0  0
  -17.9659  -31.9016   24.2427 C   0  0  0  0  0  0  0  0  0  0  0  0
  -20.4003  -30.7777   24.9887 C   0  0  0  0  0  0  0  0  0  0  0  0
  -26.6892  -30.5933   21.4806 C   0  0  0  0  0  0  0  0  0  0  0  0
  -26.1561  -12.3665   21.2711 C   0  0  0  0  0  0  0  0  0  0  0  0
  -26.1143  -12.4570   18.8571 C   0  0  0  0  0  0  0  0  0  0  0  0
  -27.9765  -30.4205   20.9715 C   0  0  0  0  0  0  0  0  0  0  0  0
  -22.9099  -11.5249   20.8487 C   0  0  0  0  0  0  0  0  0  0  0  0
  -21.8391  -11.4286   21.7373 C   0  0  0  0  0  0  0  0  0  0  0  0
  -27.4481  -28.1354   20.3823 C   0  0  0  0  0  0  0  0  0  0  0  0
  -33.5284  -23.6422   17.6963 C   0  0  0  0  0  0  0  0  0  0  0  0
  -32.1823  -21.7096   17.1579 C   0  0  0  0  0  0  0  0  0  0  0  0
  -31.2238  -23.5375   18.4138 C   0  0  0  0  0  0  0  0  0  0  0  0
  -22.8399   -9.4668   22.7307 C   0  0  0  0  0  0  0  0  0  0  0  0
  -27.2805  -14.1621   20.1099 C   0  0  0  0  0  0  0  0  0  0  0  0
  -29.4730  -15.4662   20.1200 C   0  0  0  0  0  0  0  0  0  0  0  0
  -18.4057  -30.7293   23.6079 C   0  0  0  0  0  0  0  0  0  0  0  0
  -25.7705  -29.5414   21.4284 C   0  0  0  0  0  0  0  0  0  0  0  0
  -19.6321  -30.1536   23.9912 C   0  0  0  0  0  0  0  0  0  0  0  0
  -26.1533  -28.3065   20.8794 C   0  0  0  0  0  0  0  0  0  0  0  0
  -33.3992  -22.3887   17.0983 C   0  0  0  0  0  0  0  0  0  0  0  0
  -32.4407  -24.2166   18.3542 C   0  0  0  0  0  0  0  0  0  0  0  0
  -31.0945  -22.2840   17.8157 C   0  0  0  0  0  0  0  0  0  0  0  0
  -25.7534  -11.8283   20.0488 C   0  0  0  0  0  0  0  0  0  0  0  0
  -28.3550  -29.1944   20.4239 C   0  0  0  0  0  0  0  0  0  0  0  0
  -23.9457  -10.5921   20.9010 C   0  0  0  0  0  0  0  0  0  0  0  0
  -21.8041  -10.3995   22.6783 C   0  0  0  0  0  0  0  0  0  0  0  0
  -23.9107   -9.5631   21.8420 C   0  0  0  0  0  0  0  0  0  0  0  0
  -28.0688  -15.3678   20.1408 C   0  0  0  0  0  0  0  0  0  0  0  0
  -29.7233  -16.8159   20.1654 C   0  0  0  0  0  0  0  0  0  0  0  0
  -30.4626  -14.4302   20.0644 C   0  0  0  0  0  0  0  0  0  0  0  0
  -22.2960  -28.3425   22.1811 C   0  0  0  0  0  0  0  0  0  0  0  0
  -31.9421  -27.7127   21.1518 C   0  0  0  0  0  0  0  0  0  0  0  0
  -23.0518  -27.2136   19.4307 C   0  0  0  0  0  0  0  0  0  0  0  0
  -24.1060  -26.5177   16.2618 C   0  0  0  0  0  0  0  0  0  0  0  0
  -28.6811  -22.0223   18.4890 C   0  0  0  0  0  0  0  0  0  0  0  0
  -17.5137  -30.0832   22.5776 C   0  0  0  0  0  0  0  0  0  0  0  0
  -24.3927  -29.6634   22.0206 C   0  0  0  0  0  0  0  0  0  0  0  0
  -25.1427  -27.1923   20.8758 C   0  0  0  0  0  0  0  0  0  0  0  0
  -18.2320  -29.0526   21.7104 C   0  0  0  0  0  0  0  0  0  0  0  0
  -26.6246  -20.7117   21.0832 C   0  0  0  0  0  0  0  0  0  0  0  0
  -19.0746  -28.1210   22.5758 C   0  0  0  0  0  0  0  0  0  0  0  0
  -26.9325  -19.2127   21.0676 C   0  0  0  0  0  0  0  0  0  0  0  0
  -26.6190  -21.3043   19.6752 C   0  0  0  0  0  0  0  0  0  0  0  0
  -28.1349  -19.5378   18.8686 C   0  0  0  0  0  0  0  0  0  0  0  0
  -20.1600  -28.8993   23.3293 C   0  0  1  0  0  0  0  0  0  0  0  0
  -23.3258  -28.8823   21.2327 C   0  0  1  0  0  0  0  0  0  0  0  0
  -28.2156  -18.9092   20.2694 C   0  0  2  0  0  0  0  0  0  0  0  0
  -34.5623  -21.7747   16.3951 C   0  0  0  0  0  0  0  0  0  0  0  0
  -33.7523  -26.7547   22.5487 C   0  0  0  0  0  0  0  0  0  0  0  0
  -23.3933  -25.3420   14.1625 C   0  0  0  0  0  0  0  0  0  0  0  0
  -23.6748  -24.5249   20.7293 C   0  0  0  0  0  0  0  0  0  0  0  0
  -23.8800  -23.5444   18.4349 C   0  0  0  0  0  0  0  0  0  0  0  0
  -21.7057  -24.5079   19.1876 C   0  0  0  0  0  0  0  0  0  0  0  0
  -24.2048  -29.0219   14.6877 C   0  0  0  0  0  0  0  0  0  0  0  0
  -32.5805  -25.5717   19.0005 C   0  0  0  0  0  0  0  0  0  0  0  0
  -31.9658  -29.0481   20.4193 C   0  0  0  0  0  0  0  0  0  0  0  0
  -33.0389  -25.5247   20.4663 C   0  0  0  0  0  0  0  0  0  0  0  0
  -30.6514  -29.8059   20.5242 C   0  0  0  0  0  0  0  0  0  1  0  0
  -33.2385  -26.9045   21.1184 C   0  0  1  0  0  0  0  0  0  0  0  0
  -23.6297  -26.0585   18.6528 C   0  0  1  0  0  0  0  0  0  0  0  0
  -23.4178  -26.6625   14.9165 C   0  0  2  0  0  0  0  0  0  0  0  0
  -23.2386  -24.6811   19.2589 C   0  0  0  0  0  0  0  0  0  0  0  0
  -27.4691  -16.5601   20.1954 N   0  0  0  0  0  0  0  0  0  0  0  0
  -28.5015  -17.4204   20.2093 N   0  0  0  0  0  0  0  0  0  0  0  0
  -23.8224  -27.7128   20.4879 N   0  0  0  0  0  0  0  0  0  0  0  0
  -27.8671  -20.9801   18.9809 N   0  0  0  0  0  0  0  0  0  0  0  0
  -30.8672  -17.5328   20.1718 N   0  0  0  0  0  0  0  0  0  0  0  0
  -30.0324  -13.0969   20.0226 N   0  0  0  0  0  0  0  0  0  0  0  0
  -29.8583  -21.5942   17.8762 N   0  0  0  0  0  0  0  0  0  0  0  0
  -21.2598  -29.2181   22.4443 N   0  0  0  0  0  0  0  0  0  0  0  0
  -23.2052  -26.2449   17.2695 N   0  0  0  0  0  0  0  0  0  0  0  0
  -24.1270  -27.6696   14.0777 N   0  3  0  0  0  0  0  0  0  0  0  0
  -31.6921  -14.6787   20.0688 O   0  0  0  0  0  0  0  0  0  0  0  0
  -22.4296  -27.2141   22.6399 O   0  0  0  0  0  0  0  0  0  0  0  0
  -30.9543  -27.3215   21.7733 O   0  0  0  0  0  0  0  0  0  0  0  0
  -21.9450  -27.6595   19.1154 O   0  0  0  0  0  0  0  0  0  0  0  0
  -25.3215  -26.6313   16.4039 O   0  0  0  0  0  0  0  0  0  0  0  0
  -28.3710  -23.2084   18.6272 O   0  0  0  0  0  0  0  0  0  0  0  0
  -25.0085  -10.6895   20.0187 O   0  0  0  0  0  0  0  0  0  0  0  0
  -29.6118  -29.0339   19.9245 O   0  0  0  0  0  0  0  0  0  1  0  0
  -20.7764  -10.3081   23.5326 F   0  0  0  0  0  0  0  0  0  0  0  0
  -24.9035   -8.6647   21.8979 F   0  0  0  0  0  0  0  0  0  0  0  0
  1  2  1  0  0  0  0
  1  5  2  0  0  0  0
  2  6  2  0  0  0  0
  3  8  2  0  0  0  0
  3 18  1  0  0  0  0
  4  9  1  0  0  0  0
  4 18  2  0  0  0  0
  5 20  1  0  0  0  0
  6 22  1  0  0  0  0
  7 10  2  0  0  0  0
  7 21  1  0  0  0  0
  8 27  1  0  0  0  0
  9 27  2  0  0  0  0
 10 28  1  0  0  0  0
 11 12  2  0  0  0  0
 11 29  1  0  0  0  0
 12 30  1  0  0  0  0
 13 23  1  0  0  0  0
 13 28  2  0  0  0  0
 14 24  2  0  0  0  0
 14 25  1  0  0  0  0
 15 24  1  0  0  0  0
 15 26  2  0  0  0  0
 16 25  2  0  0  0  0
 16 26  1  0  0  0  0
 17 30  2  0  0  0  0
 17 31  1  0  0  0  0
 18 32  1  0  0  0  0
 19 32  1  0  0  0  0
 19 33  2  0  0  0  0
 19 34  1  0  0  0  0
 20 22  2  0  0  0  0
 20 40  1  0  0  0  0
 21 23  2  0  0  0  0
 21 41  1  0  0  0  0
 22 49  1  0  0  0  0
 23 42  1  0  0  0  0
 24 52  1  0  0  0  0
 25 59  1  0  0  0  0
 26 73  1  0  0  0  0
 27 83  1  0  0  0  0
 28 84  1  0  0  0  0
 29 31  2  0  0  0  0
 29 83  1  0  0  0  0
 30 85  1  0  0  0  0
 31 86  1  0  0  0  0
 32 67  2  0  0  0  0
 33 68  1  0  0  0  0
 33 71  1  0  0  0  0
 34 72  1  0  0  0  0
 34 77  2  0  0  0  0
 35 50  1  0  0  0  0
 35 74  1  0  0  0  0
 35 78  2  0  0  0  0
 36 60  1  0  0  0  0
 36 63  1  0  0  0  0
 36 79  2  0  0  0  0
 37 64  1  0  0  0  0
 37 69  1  0  0  0  0
 37 80  2  0  0  0  0
 38 65  1  0  0  0  0
 38 75  1  0  0  0  0
 38 81  2  0  0  0  0
 39 70  1  0  0  0  0
 39 73  1  0  0  0  0
 39 82  2  0  0  0  0
 40 43  1  0  0  0  0
 41 50  1  0  0  0  0
 42 69  1  0  0  0  0
 43 45  1  0  0  0  0
 44 46  1  0  0  0  0
 44 47  1  0  0  0  0
 45 49  1  0  0  0  0
 46 51  1  0  0  0  0
 47 70  1  0  0  0  0
 48 51  1  0  0  0  0
 48 70  1  0  0  0  0
 49 74  1  0  0  0  0
 50 69  1  0  0  0  0
 51 68  1  0  0  0  0
 53 63  1  0  0  0  0
 54 65  1  0  0  0  0
 55 66  1  0  0  0  0
 56 66  1  0  0  0  0
 57 66  1  0  0  0  0
 58 76  1  0  0  0  0
 59 61  1  0  0  0  0
 60 62  1  0  0  0  0
 61 63  1  0  0  0  0
 62 84  1  0  0  0  0
 64 66  1  0  0  0  0
 64 75  1  0  0  0  0
 65 76  1  0  0  0  0
 67 68  1  0  0  0  0
M  CHG  1  76   1
M  ISO  4  39 100  62 101  73 100  84 101
M  END
> <Batch ID>
0134

> <Smiles>
CNC(C)C(=O)NC(C(=O)N1Cc2cc([101O:1][101CH2:1]CC(=O)C(C)CCc3cc(C)cc([100NH:0][100C:0](=O)N4CCCC(n5nc(-c6ccc(Oc7ccc(F)cc7F)cc6)c(C(N)=O)c5N)C4)c3)ccc2CC1C(=O)NC1CCCc2ccccc21)C(C)(C)C

> <Shape>
0.252

> <Color>
0.081

> <Negative vol penalty>
0.000

$$$$

  -OEChem-04052302333D

 86 94  0     1  0  0  0  0  0999 V2000
  -32.7155  -18.8250   25.6983 C   0  0  0  0  0  0  0  0  0  0  0  0
  -31.5272  -19.4763   26.0131 C   0  0  0  0  0  0  0  0  0  0  0  0
  -29.1102  -26.3162   20.4382 C   0  0  0  0  0  0  0  0  0  0  0  0
  -27.2662  -26.2113   18.8806 C   0  0  0  0  0  0  0  0  0  0  0  0
  -32.8566  -18.1925   24.4638 C   0  0  0  0  0  0  0  0  0  0  0  0
  -30.4795  -19.4964   25.0930 C   0  0  0  0  0  0  0  0  0  0  0  0
  -23.3228  -19.5117   24.7813 C   0  0  0  0  0  0  0  0  0  0  0  0
  -18.3210  -29.0558   23.3581 C   0  0  0  0  0  0  0  0  0  0  0  0
  -17.5130  -27.9571   23.6504 C   0  0  0  0  0  0  0  0  0  0  0  0
  -29.5275  -25.0495   20.0295 C   0  0  0  0  0  0  0  0  0  0  0  0
  -27.6836  -24.9446   18.4718 C   0  0  0  0  0  0  0  0  0  0  0  0
  -22.2712  -20.2248   24.2073 C   0  0  0  0  0  0  0  0  0  0  0  0
  -27.4865  -21.7681   19.6127 C   0  0  0  0  0  0  0  0  0  0  0  0
  -26.5139  -20.7774   19.4780 C   0  0  0  0  0  0  0  0  0  0  0  0
  -22.5993  -19.0304   22.1372 C   0  0  0  0  0  0  0  0  0  0  0  0
  -19.5808  -27.7132   21.7937 C   0  0  0  0  0  0  0  0  0  0  0  0
  -27.0793  -20.5399   17.1412 C   0  0  0  0  0  0  0  0  0  0  0  0
  -27.9795  -26.8970   19.8638 C   0  0  0  0  0  0  0  0  0  0  0  0
  -27.9354  -29.4448   19.7430 C   0  0  0  0  0  0  0  0  0  0  0  0
  -31.8066  -18.1965   23.5320 C   0  0  0  0  0  0  0  0  0  0  0  0
  -24.0288  -18.5588   24.0330 C   0  0  0  0  0  0  0  0  0  0  0  0
  -30.6072  -18.8644   23.8444 C   0  0  0  0  0  0  0  0  0  0  0  0
  -23.6578  -18.3047   22.7049 C   0  0  0  0  0  0  0  0  0  0  0  0
  -19.3548  -28.9339   22.4297 C   0  0  0  0  0  0  0  0  0  0  0  0
  -17.7389  -26.7364   23.0144 C   0  0  0  0  0  0  0  0  0  0  0  0
  -18.7728  -26.6144   22.0861 C   0  0  0  0  0  0  0  0  0  0  0  0
  -28.8142  -24.3638   19.0463 C   0  0  0  0  0  0  0  0  0  0  0  0
  -21.9112  -19.9862   22.8842 C   0  0  0  0  0  0  0  0  0  0  0  0
  -28.2555  -22.1447   18.5115 C   0  0  0  0  0  0  0  0  0  0  0  0
  -26.3103  -20.1633   18.2423 C   0  0  0  0  0  0  0  0  0  0  0  0
  -28.0520  -21.5306   17.2758 C   0  0  0  0  0  0  0  0  0  0  0  0
  -27.5476  -28.2052   20.2860 C   0  0  0  0  0  0  0  0  0  0  0  0
  -27.2522  -30.3748   20.4880 C   0  0  0  0  0  0  0  0  0  0  0  0
  -28.8329  -29.7302   18.6620 C   0  0  0  0  0  0  0  0  0  0  0  0
  -27.0458  -18.2371   23.0855 C   0  0  0  0  0  0  0  0  0  0  0  0
  -25.9971  -15.3558   22.0268 C   0  0  0  0  0  0  0  0  0  0  0  0
  -23.3771  -13.4250   20.9997 C   0  0  0  0  0  0  0  0  0  0  0  0
  -22.1723  -30.1333   23.6482 C   0  0  0  0  0  0  0  0  0  0  0  0
  -32.0230  -17.5395   22.1918 C   0  0  0  0  0  0  0  0  0  0  0  0
  -25.1433  -17.7789   24.6750 C   0  0  0  0  0  0  0  0  0  0  0  0
  -24.3707  -17.2778   21.8649 C   0  0  0  0  0  0  0  0  0  0  0  0
  -30.7295  -17.2864   21.4217 C   0  0  0  0  0  0  0  0  0  0  0  0
  -25.3971  -31.0514   24.8459 C   0  0  0  0  0  0  0  0  0  0  0  0
  -29.8414  -18.5263   21.4475 C   0  0  0  0  0  0  0  0  0  0  0  0
  -26.3489  -30.5379   23.7641 C   0  0  0  0  0  0  0  0  0  0  0  0
  -24.2140  -30.1078   25.0508 C   0  0  0  0  0  0  0  0  0  0  0  0
  -24.4144  -29.2678   22.7426 C   0  0  0  0  0  0  0  0  0  0  0  0
  -29.4390  -18.8869   22.8826 C   0  0  1  0  0  0  0  0  0  0  0  0
  -26.1264  -17.1985   23.6631 C   0  0  1  0  0  0  0  0  0  0  0  0
  -25.5941  -30.2141   22.4608 C   0  0  2  0  0  0  0  0  0  0  0  0
  -16.8615  -25.5737   23.3445 C   0  0  0  0  0  0  0  0  0  0  0  0
  -22.3394  -23.5110   20.6815 C   0  0  0  0  0  0  0  0  0  0  0  0
  -22.8368  -11.1223   20.1614 C   0  0  0  0  0  0  0  0  0  0  0  0
  -27.1330  -16.0878   19.2912 C   0  0  0  0  0  0  0  0  0  0  0  0
  -25.7620  -14.2397   18.3048 C   0  0  0  0  0  0  0  0  0  0  0  0
  -27.5300  -13.7183   19.9855 C   0  0  0  0  0  0  0  0  0  0  0  0
  -18.6733  -22.2741   21.2820 C   0  0  0  0  0  0  0  0  0  0  0  0
  -21.5999  -12.8779   23.3021 C   0  0  0  0  0  0  0  0  0  0  0  0
  -19.0365  -25.3035   21.3855 C   0  0  0  0  0  0  0  0  0  0  0  0
  -20.2189  -30.1087   22.1177 C   0  0  0  0  0  0  0  0  0  0  0  0
  -20.9499  -22.9242   20.4622 C   0  0  0  0  0  0  0  0  0  0  0  0
  -19.7710  -24.3171   22.3045 C   0  0  0  0  0  0  0  0  0  0  0  0
  -20.6537  -22.0033   22.8059 C   0  0  0  0  0  0  0  0  0  1  0  0
  -25.3956  -14.8438   20.7403 C   0  0  1  0  0  0  0  0  0  0  0  0
  -22.9500  -12.0199   21.3838 C   0  0  2  0  0  0  0  0  0  0  0  0
  -26.4428  -14.7432   19.5954 C   0  0  0  0  0  0  0  0  0  0  0  0
  -20.0212  -22.8997   21.7088 C   0  0  1  0  0  0  0  0  0  0  0  0
  -26.6850  -28.3327   21.2978 N   0  0  0  0  0  0  0  0  0  0  0  0
  -26.5253  -29.6634   21.3966 N   0  0  0  0  0  0  0  0  0  0  0  0
  -25.4577  -16.5457   22.5357 N   0  0  0  0  0  0  0  0  0  0  0  0
  -23.5405  -29.8426   23.7773 N   0  0  0  0  0  0  0  0  0  0  0  0
  -27.2084  -31.7234   20.4479 N   0  0  0  0  0  0  0  0  0  0  0  0
  -29.4500  -28.6569   18.0049 N   0  0  0  0  0  0  0  0  0  0  0  0
  -28.3839  -18.0118   23.3467 N   0  0  0  0  0  0  0  0  0  0  0  0
  -24.7456  -13.5796   21.0684 N   0  0  0  0  0  0  0  0  0  0  0  0
  -21.6133  -29.8578   22.4063 N   0  0  0  0  0  0  0  0  0  0  0  0
  -21.6269  -12.0498   22.0690 N   0  3  0  0  0  0  0  0  0  0  0  0
  -29.0930  -30.9028   18.3004 O   0  0  0  0  0  0  0  0  0  0  0  0
  -26.5761  -19.1728   22.4486 O   0  0  0  0  0  0  0  0  0  0  0  0
  -26.9069  -14.7195   22.5643 O   0  0  0  0  0  0  0  0  0  0  0  0
  -22.5772  -14.2972   20.6681 O   0  0  0  0  0  0  0  0  0  0  0  0
  -21.5000  -30.6085   24.5698 O   0  0  0  0  0  0  0  0  0  0  0  0
  -29.2213  -23.1279   18.6470 O   0  0  0  0  0  0  0  0  0  0  0  0
  -20.8856  -20.6813   22.3212 O   0  0  0  0  0  0  0  0  0  1  0  0
  -25.3773  -19.2109   18.1135 F   0  0  0  0  0  0  0  0  0  0  0  0
  -28.7885  -21.8874   16.2147 F   0  0  0  0  0  0  0  0  0  0  0  0
  1  2  1  0  0  0  0
  1  5  2  0  0  0  0
  2  6  2  0  0  0  0
  3 10  2  0  0  0  0
  3 18  1  0  0  0  0
  4 11  1  0  0  0  0
  4 18  2  0  0  0  0
  5 20  1  0  0  0  0
  6 22  1  0  0  0  0
  7 12  2  0  0  0  0
  7 21  1  0  0  0  0
  8  9  2  0  0  0  0
  8 24  1  0  0  0  0
  9 25  1  0  0  0  0
 10 27  1  0  0  0  0
 11 27  2  0  0  0  0
 12 28  1  0  0  0  0
 13 14  2  0  0  0  0
 13 29  1  0  0  0  0
 14 30  1  0  0  0  0
 15 23  1  0  0  0  0
 15 28  2  0  0  0  0
 16 24  2  0  0  0  0
 16 26  1  0  0  0  0
 17 30  2  0  0  0  0
 17 31  1  0  0  0  0
 18 32  1  0  0  0  0
 19 32  1  0  0  0  0
 19 33  2  0  0  0  0
 19 34  1  0  0  0  0
 20 22  2  0  0  0  0
 20 39  1  0  0  0  0
 21 23  2  0  0  0  0
 21 40  1  0  0  0  0
 22 48  1  0  0  0  0
 23 41  1  0  0  0  0
 24 60  1  0  0  0  0
 25 26  2  0  0  0  0
 25 51  1  0  0  0  0
 26 59  1  0  0  0  0
 27 83  1  0  0  0  0
 28 84  1  0  0  0  0
 29 31  2  0  0  0  0
 29 83  1  0  0  0  0
 30 85  1  0  0  0  0
 31 86  1  0  0  0  0
 32 68  2  0  0  0  0
 33 69  1  0  0  0  0
 33 72  1  0  0  0  0
 34 73  1  0  0  0  0
 34 78  2  0  0  0  0
 35 49  1  0  0  0  0
 35 74  1  0  0  0  0
 35 79  2  0  0  0  0
 36 64  1  0  0  0  0
 36 70  1  0  0  0  0
 36 80  2  0  0  0  0
 37 65  1  0  0  0  0
 37 75  1  0  0  0  0
 37 81  2  0  0  0  0
 38 71  1  0  0  0  0
 38 76  1  0  0  0  0
 38 82  2  0  0  0  0
 39 42  1  0  0  0  0
 40 49  1  0  0  0  0
 41 70  1  0  0  0  0
 42 44  1  0  0  0  0
 43 45  1  0  0  0  0
 43 46  1  0  0  0  0
 44 48  1  0  0  0  0
 45 50  1  0  0  0  0
 46 71  1  0  0  0  0
 47 50  1  0  0  0  0
 47 71  1  0  0  0  0
 48 74  1  0  0  0  0
 49 70  1  0  0  0  0
 50 69  1  0  0  0  0
 52 61  1  0  0  0  0
 53 65  1  0  0  0  0
 54 66  1  0  0  0  0
 55 66  1  0  0  0  0
 56 66  1  0  0  0  0
 57 67  1  0  0  0  0
 58 77  1  0  0  0  0
 59 62  1  0  0  0  0
 60 76  1  0  0  0  0
 61 67  1  0  0  0  0
 62 67  1  0  0  0  0
 63 67  1  0  0  0  0
 63 84  1  0  0  0  0
 64 66  1  0  0  0  0
 64 75  1  0  0  0  0
 65 77  1  0  0  0  0
 68 69  1  0  0  0  0
M  CHG  1  77   1
M  ISO  4  38 100  63 101  76 100  84 101
M  END
> <Batch ID>
0134

> <Smiles>
CCC(C)(CCc1cc(C[100NH:0][100C:0](=O)N2CCCC(n3nc(-c4ccc(Oc5ccc(F)cc5F)cc4)c(C(N)=O)c3N)C2)ccc1C)[101CH2:1][101O:1]c1ccc2c(c1)CN(C(=O)C(NC(=O)C(C)NC)C(C)(C)C)C(C(=O)NC1CCCc3ccccc31)C2

> <Shape>
0.221

> <Color>
0.068

> <Negative vol penalty>
0.000

$$$$

  -OEChem-04052302333D

 83 91  0     1  0  0  0  0  0999 V2000
  -28.3929  -26.1250   27.2502 C   0  0  0  0  0  0  0  0  0  0  0  0
  -29.4667  -25.2922   26.9519 C   0  0  0  0  0  0  0  0  0  0  0  0
  -22.9834   -9.8972   19.9851 C   0  0  0  0  0  0  0  0  0  0  0  0
  -23.7080   -9.9439   22.2894 C   0  0  0  0  0  0  0  0  0  0  0  0
  -27.2570  -26.1127   26.4418 C   0  0  0  0  0  0  0  0  0  0  0  0
  -29.4047  -24.4458   25.8455 C   0  0  0  0  0  0  0  0  0  0  0  0
  -34.0401  -22.8254   22.1858 C   0  0  0  0  0  0  0  0  0  0  0  0
  -30.5381  -18.3008   24.0006 C   0  0  0  0  0  0  0  0  0  0  0  0
  -22.2095   -8.7678   20.2512 C   0  0  0  0  0  0  0  0  0  0  0  0
  -22.9340   -8.8144   22.5556 C   0  0  0  0  0  0  0  0  0  0  0  0
  -34.8487  -21.6904   22.1429 C   0  0  0  0  0  0  0  0  0  0  0  0
  -31.9228  -18.2761   24.1666 C   0  0  0  0  0  0  0  0  0  0  0  0
  -21.4321   -5.7311   23.7588 C   0  0  0  0  0  0  0  0  0  0  0  0
  -22.0112   -4.7117   24.5144 C   0  0  0  0  0  0  0  0  0  0  0  0
  -33.4182  -20.7427   20.4475 C   0  0  0  0  0  0  0  0  0  0  0  0
  -32.0836  -16.4812   22.5573 C   0  0  0  0  0  0  0  0  0  0  0  0
  -23.7366   -4.4531   22.8430 C   0  0  0  0  0  0  0  0  0  0  0  0
  -23.7327  -10.4853   21.0041 C   0  0  0  0  0  0  0  0  0  0  0  0
  -24.1343  -12.9983   20.8279 C   0  0  0  0  0  0  0  0  0  0  0  0
  -27.1850  -25.2727   25.3193 C   0  0  0  0  0  0  0  0  0  0  0  0
  -32.9064  -22.9229   21.3663 C   0  0  0  0  0  0  0  0  0  0  0  0
  -28.2663  -24.4213   25.0220 C   0  0  0  0  0  0  0  0  0  0  0  0
  -32.5983  -21.8810   20.4800 C   0  0  0  0  0  0  0  0  0  0  0  0
  -29.9261  -17.4156   23.1131 C   0  0  0  0  0  0  0  0  0  0  0  0
  -30.6989  -16.5059   22.3914 C   0  0  0  0  0  0  0  0  0  0  0  0
  -22.1847   -8.2263   21.5365 C   0  0  0  0  0  0  0  0  0  0  0  0
  -34.5362  -20.6476   21.2757 C   0  0  0  0  0  0  0  0  0  0  0  0
  -32.6956  -17.3663   23.4449 C   0  0  0  0  0  0  0  0  0  0  0  0
  -22.0051   -6.1115   22.5453 C   0  0  0  0  0  0  0  0  0  0  0  0
  -23.1635   -4.0727   24.0565 C   0  0  0  0  0  0  0  0  0  0  0  0
  -23.1574   -5.4726   22.0874 C   0  0  0  0  0  0  0  0  0  0  0  0
  -24.5328  -11.6517   20.7296 C   0  0  0  0  0  0  0  0  0  0  0  0
  -25.2489  -13.7137   20.4639 C   0  0  0  0  0  0  0  0  0  0  0  0
  -22.8698  -13.5529   21.2138 C   0  0  0  0  0  0  0  0  0  0  0  0
  -29.7819  -23.1955   21.8830 C   0  0  0  0  0  0  0  0  0  0  0  0
  -29.6743  -23.5439   18.6597 C   0  0  0  0  0  0  0  0  0  0  0  0
  -31.1433  -22.9711   15.6331 C   0  0  0  0  0  0  0  0  0  0  0  0
  -30.7344  -14.6394   20.6999 C   0  0  0  0  0  0  0  0  0  0  0  0
  -25.9173  -25.2600   24.5023 C   0  0  0  0  0  0  0  0  0  0  0  0
  -32.0594  -24.1654   21.4053 C   0  0  0  0  0  0  0  0  0  0  0  0
  -31.4037  -21.9455   19.5649 C   0  0  0  0  0  0  0  0  0  0  0  0
  -26.0819  -24.6060   23.1328 C   0  0  0  0  0  0  0  0  0  0  0  0
  -29.6012  -12.1934   18.3739 C   0  0  0  0  0  0  0  0  0  0  0  0
  -26.8355  -23.2858   23.2587 C   0  0  0  0  0  0  0  0  0  0  0  0
  -28.1488  -11.9452   18.7875 C   0  0  0  0  0  0  0  0  0  0  0  0
  -30.5028  -12.4312   19.5840 C   0  0  0  0  0  0  0  0  0  0  0  0
  -28.5920  -13.2326   20.9166 C   0  0  0  0  0  0  0  0  0  0  0  0
  -28.2468  -23.5071   23.8162 C   0  0  1  0  0  0  0  0  0  0  0  0
  -30.6395  -23.9367   20.8966 C   0  0  1  0  0  0  0  0  0  0  0  0
  -27.6337  -13.0522   19.7281 C   0  0  2  0  0  0  0  0  0  0  0  0
  -28.0192  -18.1679   21.6694 C   0  0  0  0  0  0  0  0  0  0  0  0
  -30.7996  -23.3413   13.1750 C   0  0  0  0  0  0  0  0  0  0  0  0
  -27.6183  -21.2899   18.6102 C   0  0  0  0  0  0  0  0  0  0  0  0
  -28.0264  -21.0656   16.1503 C   0  0  0  0  0  0  0  0  0  0  0  0
  -27.1136  -23.1962   17.0722 C   0  0  0  0  0  0  0  0  0  0  0  0
  -33.6071  -24.5964   15.4153 C   0  0  0  0  0  0  0  0  0  0  0  0
  -28.4410  -17.4647   22.9557 C   0  0  0  0  0  0  0  0  0  0  0  0
  -36.1671  -17.6629   22.4943 C   0  0  0  0  0  0  0  0  0  0  0  0
  -35.9976  -19.1730   22.4358 C   0  0  0  0  0  0  0  0  0  1  0  0
  -34.8296  -16.9396   22.4859 C   0  0  0  0  0  0  0  0  0  0  0  0
  -29.5362  -22.6036   17.4868 C   0  0  1  0  0  0  0  0  0  0  0  0
  -31.4128  -23.8890   14.4544 C   0  0  2  0  0  0  0  0  0  0  0  0
  -28.0951  -22.0365   17.3484 C   0  0  0  0  0  0  0  0  0  0  0  0
  -25.8014  -11.5170   20.3340 N   0  0  0  0  0  0  0  0  0  0  0  0
  -26.2097  -12.7881   20.1804 N   0  0  0  0  0  0  0  0  0  0  0  0
  -30.6029  -23.1783   19.6445 N   0  0  0  0  0  0  0  0  0  0  0  0
  -29.9543  -13.4958   20.4269 N   0  0  0  0  0  0  0  0  0  0  0  0
  -25.4910  -15.0378   20.3617 N   0  0  0  0  0  0  0  0  0  0  0  0
  -21.8322  -12.6755   21.5571 N   0  0  0  0  0  0  0  0  0  0  0  0
  -30.0959  -15.5988   21.4851 N   0  0  0  0  0  0  0  0  0  0  0  0
  -29.1248  -24.0128   22.7828 N   0  0  0  0  0  0  0  0  0  0  0  0
  -30.0038  -23.3390   16.3168 N   0  0  0  0  0  0  0  0  0  0  0  0
  -32.8799  -24.0442   14.2435 N   0  3  0  0  0  0  0  0  0  0  0  0
  -22.6610  -14.7896   21.2373 O   0  0  0  0  0  0  0  0  0  0  0  0
  -29.7198  -21.9728   21.8306 O   0  0  0  0  0  0  0  0  0  0  0  0
  -28.9888  -24.5688   18.6972 O   0  0  0  0  0  0  0  0  0  0  0  0
  -31.8689  -22.0205   15.9166 O   0  0  0  0  0  0  0  0  0  0  0  0
  -31.8741  -14.7709   20.2463 O   0  0  0  0  0  0  0  0  0  0  0  0
  -21.4294   -7.1243   21.7966 O   0  0  0  0  0  0  0  0  0  0  0  0
  -35.3234  -19.5384   21.2323 O   0  0  0  0  0  0  0  0  0  1  0  0
  -34.0563  -17.3424   23.6081 O   0  0  0  0  0  0  0  0  0  0  0  0
  -23.7204   -3.0948   24.7830 F   0  0  0  0  0  0  0  0  0  0  0  0
  -23.7132   -5.8345   20.9230 F   0  0  0  0  0  0  0  0  0  0  0  0
  1  2  1  0  0  0  0
  1  5  2  0  0  0  0
  2  6  2  0  0  0  0
  3  9  2  0  0  0  0
  3 18  1  0  0  0  0
  4 10  1  0  0  0  0
  4 18  2  0  0  0  0
  5 20  1  0  0  0  0
  6 22  1  0  0  0  0
  7 11  2  0  0  0  0
  7 21  1  0  0  0  0
  8 12  2  0  0  0  0
  8 24  1  0  0  0  0
  9 26  1  0  0  0  0
 10 26  2  0  0  0  0
 11 27  1  0  0  0  0
 12 28  1  0  0  0  0
 13 14  2  0  0  0  0
 13 29  1  0  0  0  0
 14 30  1  0  0  0  0
 15 23  1  0  0  0  0
 15 27  2  0  0  0  0
 16 25  1  0  0  0  0
 16 28  2  0  0  0  0
 17 30  2  0  0  0  0
 17 31  1  0  0  0  0
 18 32  1  0  0  0  0
 19 32  1  0  0  0  0
 19 33  2  0  0  0  0
 19 34  1  0  0  0  0
 20 22  2  0  0  0  0
 20 39  1  0  0  0  0
 21 23  2  0  0  0  0
 21 40  1  0  0  0  0
 22 48  1  0  0  0  0
 23 41  1  0  0  0  0
 24 25  2  0  0  0  0
 24 57  1  0  0  0  0
 25 70  1  0  0  0  0
 26 79  1  0  0  0  0
 27 80  1  0  0  0  0
 28 81  1  0  0  0  0
 29 31  2  0  0  0  0
 29 79  1  0  0  0  0
 30 82  1  0  0  0  0
 31 83  1  0  0  0  0
 32 64  2  0  0  0  0
 33 65  1  0  0  0  0
 33 68  1  0  0  0  0
 34 69  1  0  0  0  0
 34 74  2  0  0  0  0
 35 49  1  0  0  0  0
 35 71  1  0  0  0  0
 35 75  2  0  0  0  0
 36 61  1  0  0  0  0
 36 66  1  0  0  0  0
 36 76  2  0  0  0  0
 37 62  1  0  0  0  0
 37 72  1  0  0  0  0
 37 77  2  0  0  0  0
 38 67  1  0  0  0  0
 38 70  1  0  0  0  0
 38 78  2  0  0  0  0
 39 42  1  0  0  0  0
 40 49  1  0  0  0  0
 41 66  1  0  0  0  0
 42 44  1  0  0  0  0
 43 45  1  0  0  0  0
 43 46  1  0  0  0  0
 44 48  1  0  0  0  0
 45 50  1  0  0  0  0
 46 67  1  0  0  0  0
 47 50  1  0  0  0  0
 47 67  1  0  0  0  0
 48 71  1  0  0  0  0
 49 66  1  0  0  0  0
 50 65  1  0  0  0  0
 51 57  1  0  0  0  0
 52 62  1  0  0  0  0
 53 63  1  0  0  0  0
 54 63  1  0  0  0  0
 55 63  1  0  0  0  0
 56 73  1  0  0  0  0
 58 59  1  0  0  0  0
 58 60  1  0  0  0  0
 59 80  1  0  0  0  0
 60 81  1  0  0  0  0
 61 63  1  0  0  0  0
 61 72  1  0  0  0  0
 62 73  1  0  0  0  0
 64 65  1  0  0  0  0
M  CHG  1  73   1
M  ISO  4  38 100  59 101  70 100  80 101
M  END
> <Batch ID>
0134

> <Smiles>
CCc1ccc(OCC[101CH2:1][101O:1]c2ccc3c(c2)CN(C(=O)C(NC(=O)C(C)NC)C(C)(C)C)C(C(=O)NC2CCCc4ccccc42)C3)cc1[100NH:0][100C:0](=O)N1CCCC(n2nc(-c3ccc(Oc4ccc(F)cc4F)cc3)c(C(N)=O)c2N)C1

> <Shape>
0.222

> <Color>
0.200

> <Negative vol penalty>
0.000

$$$$

  -OEChem-04052302333D

 82 90  0     1  0  0  0  0  0999 V2000
  -25.3151  -35.5793   21.7398 C   0  0  0  0  0  0  0  0  0  0  0  0
  -25.9905  -34.3634   21.7099 C   0  0  0  0  0  0  0  0  0  0  0  0
  -25.7927  -11.8866   20.0416 C   0  0  0  0  0  0  0  0  0  0  0  0
  -23.7991  -12.6217   21.1914 C   0  0  0  0  0  0  0  0  0  0  0  0
  -24.0456  -35.6564   22.3112 C   0  0  0  0  0  0  0  0  0  0  0  0
  -25.3972  -33.2240   22.2523 C   0  0  0  0  0  0  0  0  0  0  0  0
  -25.8896  -29.1665   19.2625 C   0  0  0  0  0  0  0  0  0  0  0  0
  -25.6848  -10.6375   20.6530 C   0  0  0  0  0  0  0  0  0  0  0  0
  -23.6911  -11.3726   21.8027 C   0  0  0  0  0  0  0  0  0  0  0  0
  -27.1236  -28.5177   19.2678 C   0  0  0  0  0  0  0  0  0  0  0  0
  -22.6118   -8.2798   20.9723 C   0  0  0  0  0  0  0  0  0  0  0  0
  -21.3518   -7.6824   21.0044 C   0  0  0  0  0  0  0  0  0  0  0  0
  -32.8293  -22.3357   19.6136 C   0  0  0  0  0  0  0  0  0  0  0  0
  -33.1949  -23.5403   20.2603 C   0  0  0  0  0  0  0  0  0  0  0  0
  -26.2323  -26.8478   20.7632 C   0  0  0  0  0  0  0  0  0  0  0  0
  -21.4232   -7.6615   23.4192 C   0  0  0  0  0  0  0  0  0  0  0  0
  -24.8499  -12.8787   20.3108 C   0  0  0  0  0  0  0  0  0  0  0  0
  -24.3992  -14.5666   18.4519 C   0  0  0  0  0  0  0  0  0  0  0  0
  -23.4325  -34.5154   22.8523 C   0  0  0  0  0  0  0  0  0  0  0  0
  -24.8190  -28.6661   20.0174 C   0  0  0  0  0  0  0  0  0  0  0  0
  -24.1189  -33.2862   22.8327 C   0  0  0  0  0  0  0  0  0  0  0  0
  -24.9850  -27.4907   20.7637 C   0  0  0  0  0  0  0  0  0  0  0  0
  -24.6340  -10.3805   21.5335 C   0  0  0  0  0  0  0  0  0  0  0  0
  -27.2959  -27.3598   20.0205 C   0  0  0  0  0  0  0  0  0  0  0  0
  -23.2776   -8.5680   22.1637 C   0  0  0  0  0  0  0  0  0  0  0  0
  -20.7575   -7.3733   22.2278 C   0  0  0  0  0  0  0  0  0  0  0  0
  -22.6833   -8.2589   23.3871 C   0  0  0  0  0  0  0  0  0  0  0  0
  -24.9612  -14.1694   19.6800 C   0  0  0  0  0  0  0  0  0  0  0  0
  -31.8272  -21.7819   20.3758 C   0  0  0  0  0  0  0  0  0  0  0  0
  -32.3900  -23.6369   21.3715 C   0  0  0  0  0  0  0  0  0  0  0  0
  -24.7931  -15.8738   18.3009 C   0  0  0  0  0  0  0  0  0  0  0  0
  -31.1368  -20.5715   20.1357 C   0  0  0  0  0  0  0  0  0  0  0  0
  -30.1219  -20.0378   20.8928 C   0  0  0  0  0  0  0  0  0  0  0  0
  -23.5932  -13.8208   17.5301 C   0  0  0  0  0  0  0  0  0  0  0  0
  -29.4906  -18.7610   20.5033 C   0  0  0  0  0  0  0  0  0  0  0  0
  -23.0706  -29.7656   22.4336 C   0  0  0  0  0  0  0  0  0  0  0  0
  -30.3552  -25.9774   21.3947 C   0  0  0  0  0  0  0  0  0  0  0  0
  -21.3673  -27.0522   21.9249 C   0  0  0  0  0  0  0  0  0  0  0  0
  -21.2911  -23.8644   20.7088 C   0  0  0  0  0  0  0  0  0  0  0  0
  -22.0787  -34.6577   23.5017 C   0  0  0  0  0  0  0  0  0  0  0  0
  -23.4865  -29.3628   19.9798 C   0  0  0  0  0  0  0  0  0  0  0  0
  -23.8613  -26.9013   21.5751 C   0  0  0  0  0  0  0  0  0  0  0  0
  -21.3642  -33.3263   23.7186 C   0  0  0  0  0  0  0  0  0  0  0  0
  -25.9760  -19.7527   20.8129 C   0  0  0  0  0  0  0  0  0  0  0  0
  -22.3171  -32.3018   24.3262 C   0  0  0  0  0  0  0  0  0  0  0  0
  -25.2704  -18.4392   20.4863 C   0  0  0  0  0  0  0  0  0  0  0  0
  -27.2931  -19.5255   21.5533 C   0  0  0  0  0  0  0  0  0  0  0  0
  -27.5171  -17.2852   20.5182 C   0  0  0  0  0  0  0  0  0  0  0  0
  -23.4982  -32.0230   23.3887 C   0  0  1  0  0  0  0  0  0  0  0  0
  -22.6150  -29.0513   21.1926 C   0  0  1  0  0  0  0  0  0  0  0  0
  -26.2127  -17.4881   19.7316 C   0  0  1  0  0  0  0  0  0  0  0  0
  -19.7699  -21.8829   20.4704 C   0  0  0  0  0  0  0  0  0  0  0  0
  -21.7444  -26.4099   24.8838 C   0  0  0  0  0  0  0  0  0  0  0  0
  -21.0658  -24.0518   24.3868 C   0  0  0  0  0  0  0  0  0  0  0  0
  -19.4597  -25.9193   23.9927 C   0  0  0  0  0  0  0  0  0  0  0  0
  -21.4690  -23.9367   17.7555 C   0  0  0  0  0  0  0  0  0  0  0  0
  -32.2676  -24.6630   22.4724 C   0  0  0  0  0  0  0  0  0  0  0  0
  -30.8542  -25.2292   22.6223 C   0  0  0  0  0  0  0  0  0  0  0  0
  -28.8503  -26.0117   21.2132 C   0  0  0  0  0  0  0  0  0  1  0  0
  -21.4350  -25.6350   22.4405 C   0  0  1  0  0  0  0  0  0  0  0  0
  -20.2932  -23.1511   19.8144 C   0  0  2  0  0  0  0  0  0  0  0  0
  -20.9481  -25.5159   23.9123 C   0  0  0  0  0  0  0  0  0  0  0  0
  -25.6591  -15.1451   20.2673 N   0  0  0  0  0  0  0  0  0  0  0  0
  -25.5383  -16.1684   19.4046 N   0  0  0  0  0  0  0  0  0  0  0  0
  -28.1524  -18.5676   20.8415 N   0  0  0  0  0  0  0  0  0  0  0  0
  -22.5794  -27.6225   21.5111 N   0  0  0  0  0  0  0  0  0  0  0  0
  -24.5713  -16.7883   17.3331 N   0  0  0  0  0  0  0  0  0  0  0  0
  -23.2819  -12.4899   17.8399 N   0  0  0  0  0  0  0  0  0  0  0  0
  -23.0935  -31.1421   22.3141 N   0  0  0  0  0  0  0  0  0  0  0  0
  -20.6813  -24.8199   21.4940 N   0  0  0  0  0  0  0  0  0  0  0  0
  -20.9305  -22.7816   18.5189 N   0  3  0  0  0  0  0  0  0  0  0  0
  -23.1753  -14.3149   16.4555 O   0  0  0  0  0  0  0  0  0  0  0  0
  -30.1891  -17.9403   19.9055 O   0  0  0  0  0  0  0  0  0  0  0  0
  -23.3772  -29.1160   23.4264 O   0  0  0  0  0  0  0  0  0  0  0  0
  -31.1133  -26.5507   20.6142 O   0  0  0  0  0  0  0  0  0  0  0  0
  -20.2779  -27.6295   21.8840 O   0  0  0  0  0  0  0  0  0  0  0  0
  -22.4908  -23.5980   20.7133 O   0  0  0  0  0  0  0  0  0  0  0  0
  -31.5534  -22.5690   21.4492 O   0  0  0  0  0  0  0  0  0  0  0  0
  -24.5282   -9.1618   22.1301 O   0  0  0  0  0  0  0  0  0  0  0  0
  -28.4995  -26.7248   20.0280 O   0  0  0  0  0  0  0  0  0  1  0  0
  -19.5468   -6.8010   22.2585 F   0  0  0  0  0  0  0  0  0  0  0  0
  -23.3175   -8.5344   24.5350 F   0  0  0  0  0  0  0  0  0  0  0  0
  1  2  1  0  0  0  0
  1  5  2  0  0  0  0
  2  6  2  0  0  0  0
  3  8  2  0  0  0  0
  3 17  1  0  0  0  0
  4  9  1  0  0  0  0
  4 17  2  0  0  0  0
  5 19  1  0  0  0  0
  6 21  1  0  0  0  0
  7 10  2  0  0  0  0
  7 20  1  0  0  0  0
  8 23  1  0  0  0  0
  9 23  2  0  0  0  0
 10 24  1  0  0  0  0
 11 12  2  0  0  0  0
 11 25  1  0  0  0  0
 12 26  1  0  0  0  0
 13 14  1  0  0  0  0
 13 29  2  0  0  0  0
 14 30  2  0  0  0  0
 15 22  1  0  0  0  0
 15 24  2  0  0  0  0
 16 26  2  0  0  0  0
 16 27  1  0  0  0  0
 17 28  1  0  0  0  0
 18 28  1  0  0  0  0
 18 31  2  0  0  0  0
 18 34  1  0  0  0  0
 19 21  2  0  0  0  0
 19 40  1  0  0  0  0
 20 22  2  0  0  0  0
 20 41  1  0  0  0  0
 21 49  1  0  0  0  0
 22 42  1  0  0  0  0
 23 79  1  0  0  0  0
 24 80  1  0  0  0  0
 25 27  2  0  0  0  0
 25 79  1  0  0  0  0
 26 81  1  0  0  0  0
 27 82  1  0  0  0  0
 28 63  2  0  0  0  0
 29 32  1  0  0  0  0
 29 78  1  0  0  0  0
 30 57  1  0  0  0  0
 30 78  1  0  0  0  0
 31 64  1  0  0  0  0
 31 67  1  0  0  0  0
 32 33  2  0  0  0  0
 33 35  1  0  0  0  0
 34 68  1  0  0  0  0
 34 72  2  0  0  0  0
 35 65  1  0  0  0  0
 35 73  2  0  0  0  0
 36 50  1  0  0  0  0
 36 69  1  0  0  0  0
 36 74  2  0  0  0  0
 37 58  1  0  0  0  0
 37 59  1  0  0  0  0
 37 75  2  0  0  0  0
 38 60  1  0  0  0  0
 38 66  1  0  0  0  0
 38 76  2  0  0  0  0
 39 61  1  0  0  0  0
 39 70  1  0  0  0  0
 39 77  2  0  0  0  0
 40 43  1  0  0  0  0
 41 50  1  0  0  0  0
 42 66  1  0  0  0  0
 43 45  1  0  0  0  0
 44 46  1  0  0  0  0
 44 47  1  0  0  0  0
 45 49  1  0  0  0  0
 46 51  1  0  0  0  0
 47 65  1  0  0  0  0
 48 51  1  0  0  0  0
 48 65  1  0  0  0  0
 49 69  1  0  0  0  0
 50 66  1  0  0  0  0
 51 64  1  0  0  0  0
 52 61  1  0  0  0  0
 53 62  1  0  0  0  0
 54 62  1  0  0  0  0
 55 62  1  0  0  0  0
 56 71  1  0  0  0  0
 57 58  1  0  0  0  0
 59 80  1  0  0  0  0
 60 62  1  0  0  0  0
 60 70  1  0  0  0  0
 61 71  1  0  0  0  0
 63 64  1  0  0  0  0
M  CHG  1  71   1
M  ISO  4  33 100  35 100  59 101  80 101
M  END
> <Batch ID>
0134

> <Smiles>
CNC(C)C(=O)NC(C(=O)N1Cc2cc([101O:1][101CH2:1]C(=O)CCc3ccc(C=[100CH:0][100C:0](=O)N4CCCC(n5nc(-c6ccc(Oc7ccc(F)cc7F)cc6)c(C(N)=O)c5N)C4)o3)ccc2CC1C(=O)NC1CCCc2ccccc21)C(C)(C)C

> <Shape>
0.226

> <Color>
0.100

> <Negative vol penalty>
0.000

$$$$

  -OEChem-04052302333D

 85 93  0     1  0  0  0  0  0999 V2000
  -32.4930  -32.3610   21.6097 C   0  0  0  0  0  0  0  0  0  0  0  0
  -31.1655  -32.0529   21.8893 C   0  0  0  0  0  0  0  0  0  0  0  0
  -23.0381   -9.9531   19.8859 C   0  0  0  0  0  0  0  0  0  0  0  0
  -23.8930   -9.7782   22.1388 C   0  0  0  0  0  0  0  0  0  0  0  0
  -33.1974  -31.6130   20.6672 C   0  0  0  0  0  0  0  0  0  0  0  0
  -30.5413  -30.9972   21.2257 C   0  0  0  0  0  0  0  0  0  0  0  0
  -27.7373  -25.4593   24.8809 C   0  0  0  0  0  0  0  0  0  0  0  0
  -22.2949   -8.7884   20.0775 C   0  0  0  0  0  0  0  0  0  0  0  0
  -23.1498   -8.6134   22.3304 C   0  0  0  0  0  0  0  0  0  0  0  0
  -26.9913  -24.4684   25.5195 C   0  0  0  0  0  0  0  0  0  0  0  0
  -19.9426   -7.7900   23.0056 C   0  0  0  0  0  0  0  0  0  0  0  0
  -19.2348   -7.6639   24.2009 C   0  0  0  0  0  0  0  0  0  0  0  0
  -26.4536  -23.4789   23.3794 C   0  0  0  0  0  0  0  0  0  0  0  0
  -32.1865  -16.4211   22.6245 C   0  0  0  0  0  0  0  0  0  0  0  0
  -32.0595  -18.0399   24.4135 C   0  0  0  0  0  0  0  0  0  0  0  0
  -30.0361  -17.2333   23.3683 C   0  0  0  0  0  0  0  0  0  0  0  0
  -20.4883   -5.6681   24.7327 C   0  0  0  0  0  0  0  0  0  0  0  0
  -23.8372  -10.4480   20.9166 C   0  0  0  0  0  0  0  0  0  0  0  0
  -24.1964  -12.9729   20.9772 C   0  0  0  0  0  0  0  0  0  0  0  0
  -32.5844  -30.5416   19.9987 C   0  0  0  0  0  0  0  0  0  0  0  0
  -27.8570  -25.4548   23.4884 C   0  0  0  0  0  0  0  0  0  0  0  0
  -31.2377  -30.2351   20.2724 C   0  0  0  0  0  0  0  0  0  0  0  0
  -27.2097  -24.4617   22.7350 C   0  0  0  0  0  0  0  0  0  0  0  0
  -32.8186  -17.2296   23.5692 C   0  0  0  0  0  0  0  0  0  0  0  0
  -30.7952  -16.4230   22.5240 C   0  0  0  0  0  0  0  0  0  0  0  0
  -22.3508   -8.1185   21.2997 C   0  0  0  0  0  0  0  0  0  0  0  0
  -26.3509  -23.4808   24.7706 C   0  0  0  0  0  0  0  0  0  0  0  0
  -20.9232   -6.8551   22.6738 C   0  0  0  0  0  0  0  0  0  0  0  0
  -30.6682  -18.0418   24.3130 C   0  0  0  0  0  0  0  0  0  0  0  0
  -19.5077   -6.6030   25.0645 C   0  0  0  0  0  0  0  0  0  0  0  0
  -21.1961   -5.7942   23.5373 C   0  0  0  0  0  0  0  0  0  0  0  0
  -24.6055  -11.6508   20.7191 C   0  0  0  0  0  0  0  0  0  0  0  0
  -25.2791  -13.7419   20.6270 C   0  0  0  0  0  0  0  0  0  0  0  0
  -22.9492  -13.4620   21.4880 C   0  0  0  0  0  0  0  0  0  0  0  0
  -29.3017  -27.0923   20.4375 C   0  0  0  0  0  0  0  0  0  0  0  0
  -27.8373  -19.7104   25.9918 C   0  0  0  0  0  0  0  0  0  0  0  0
  -29.5160  -24.0623   20.0086 C   0  0  0  0  0  0  0  0  0  0  0  0
  -30.3200  -21.0475   20.4177 C   0  0  0  0  0  0  0  0  0  0  0  0
  -30.7570  -14.7394   20.6505 C   0  0  0  0  0  0  0  0  0  0  0  0
  -33.3721  -29.7918   18.9537 C   0  0  0  0  0  0  0  0  0  0  0  0
  -28.5995  -26.5380   22.7541 C   0  0  0  0  0  0  0  0  0  0  0  0
  -27.3378  -24.5165   21.2372 C   0  0  0  0  0  0  0  0  0  0  0  0
  -32.7505  -28.4522   18.5673 C   0  0  0  0  0  0  0  0  0  0  0  0
  -29.5231  -12.5226   18.1524 C   0  0  0  0  0  0  0  0  0  0  0  0
  -31.2531  -28.6091   18.3226 C   0  0  0  0  0  0  0  0  0  0  0  0
  -28.1001  -12.2069   18.6187 C   0  0  0  0  0  0  0  0  0  0  0  0
  -30.4896  -12.6524   19.3283 C   0  0  0  0  0  0  0  0  0  0  0  0
  -28.6485  -13.2788   20.8407 C   0  0  0  0  0  0  0  0  0  0  0  0
  -30.5333  -29.0818   19.5914 C   0  0  1  0  0  0  0  0  0  0  0  0
  -29.3217  -26.0273   21.4944 C   0  0  1  0  0  0  0  0  0  0  0  0
  -27.6259  -13.2028   19.6953 C   0  0  2  0  0  0  0  0  0  0  0  0
  -34.3060  -17.2279   23.6767 C   0  0  0  0  0  0  0  0  0  0  0  0
  -30.9065  -18.7421   19.6187 C   0  0  0  0  0  0  0  0  0  0  0  0
  -27.0443  -24.1617   18.2240 C   0  0  0  0  0  0  0  0  0  0  0  0
  -27.5012  -21.7860   17.5797 C   0  0  0  0  0  0  0  0  0  0  0  0
  -29.1640  -23.5650   17.0386 C   0  0  0  0  0  0  0  0  0  0  0  0
  -32.9554  -21.1262   21.7620 C   0  0  0  0  0  0  0  0  0  0  0  0
  -26.3180  -19.7367   25.9326 C   0  0  0  0  0  0  0  0  0  0  0  0
  -28.5173  -18.7959   24.9917 C   0  0  0  0  0  0  0  0  0  0  0  0
  -25.6783  -20.6795   26.9469 C   0  0  0  0  0  0  0  0  0  0  0  0
  -26.0504  -22.1387   26.7112 C   0  0  0  0  0  0  0  0  0  1  0  0
  -28.8846  -22.8178   19.4377 C   0  0  1  0  0  0  0  0  0  0  0  0
  -31.4457  -20.0935   20.0612 C   0  0  2  0  0  0  0  0  0  0  0  0
  -28.1452  -23.0898   18.0973 C   0  0  0  0  0  0  0  0  0  0  0  0
  -25.8509  -11.5804   20.2416 N   0  0  0  0  0  0  0  0  0  0  0  0
  -26.2337  -12.8678   20.1968 N   0  0  0  0  0  0  0  0  0  0  0  0
  -28.7237  -24.8387   20.8630 N   0  0  0  0  0  0  0  0  0  0  0  0
  -29.9770  -13.6155   20.3054 N   0  0  0  0  0  0  0  0  0  0  0  0
  -25.4983  -15.0738   20.6480 N   0  0  0  0  0  0  0  0  0  0  0  0
  -21.9441  -12.5353   21.7967 N   0  0  0  0  0  0  0  0  0  0  0  0
  -30.1527  -15.6021   21.5644 N   0  0  0  0  0  0  0  0  0  0  0  0
  -30.3580  -27.9799   20.5132 N   0  0  0  0  0  0  0  0  0  0  0  0
  -29.9507  -21.8265   19.3415 N   0  0  0  0  0  0  0  0  0  0  0  0
  -32.3370  -19.8818   21.2366 N   0  3  0  0  0  0  0  0  0  0  0  0
  -22.7266  -14.6858   21.6500 O   0  0  0  0  0  0  0  0  0  0  0  0
  -28.3958  -27.1077   19.6124 O   0  0  0  0  0  0  0  0  0  0  0  0
  -28.4801  -20.3649   26.8110 O   0  0  0  0  0  0  0  0  0  0  0  0
  -30.6781  -24.3439   19.7025 O   0  0  0  0  0  0  0  0  0  0  0  0
  -29.8159  -21.0942   21.5376 O   0  0  0  0  0  0  0  0  0  0  0  0
  -31.8671  -14.9373   20.1499 O   0  0  0  0  0  0  0  0  0  0  0  0
  -21.6256   -6.9821   21.4871 O   0  0  0  0  0  0  0  0  0  0  0  0
  -29.9201  -18.8408   25.1450 O   0  0  0  0  0  0  0  0  0  0  0  0
  -25.6280  -22.5138   25.4007 O   0  0  0  0  0  0  0  0  0  1  0  0
  -18.8290   -6.4829   26.2130 F   0  0  0  0  0  0  0  0  0  0  0  0
  -22.1379   -4.8936   23.2245 F   0  0  0  0  0  0  0  0  0  0  0  0
  1  2  1  0  0  0  0
  1  5  2  0  0  0  0
  2  6  2  0  0  0  0
  3  8  2  0  0  0  0
  3 18  1  0  0  0  0
  4  9  1  0  0  0  0
  4 18  2  0  0  0  0
  5 20  1  0  0  0  0
  6 22  1  0  0  0  0
  7 10  2  0  0  0  0
  7 21  1  0  0  0  0
  8 26  1  0  0  0  0
  9 26  2  0  0  0  0
 10 27  1  0  0  0  0
 11 12  2  0  0  0  0
 11 28  1  0  0  0  0
 12 30  1  0  0  0  0
 13 23  1  0  0  0  0
 13 27  2  0  0  0  0
 14 24  1  0  0  0  0
 14 25  2  0  0  0  0
 15 24  2  0  0  0  0
 15 29  1  0  0  0  0
 16 25  1  0  0  0  0
 16 29  2  0  0  0  0
 17 30  2  0  0  0  0
 17 31  1  0  0  0  0
 18 32  1  0  0  0  0
 19 32  1  0  0  0  0
 19 33  2  0  0  0  0
 19 34  1  0  0  0  0
 20 22  2  0  0  0  0
 20 40  1  0  0  0  0
 21 23  2  0  0  0  0
 21 41  1  0  0  0  0
 22 49  1  0  0  0  0
 23 42  1  0  0  0  0
 24 52  1  0  0  0  0
 25 71  1  0  0  0  0
 26 81  1  0  0  0  0
 27 83  1  0  0  0  0
 28 31  2  0  0  0  0
 28 81  1  0  0  0  0
 29 82  1  0  0  0  0
 30 84  1  0  0  0  0
 31 85  1  0  0  0  0
 32 65  2  0  0  0  0
 33 66  1  0  0  0  0
 33 69  1  0  0  0  0
 34 70  1  0  0  0  0
 34 75  2  0  0  0  0
 35 50  1  0  0  0  0
 35 72  1  0  0  0  0
 35 76  2  0  0  0  0
 36 58  1  0  0  0  0
 36 59  1  0  0  0  0
 36 77  2  0  0  0  0
 37 62  1  0  0  0  0
 37 67  1  0  0  0  0
 37 78  2  0  0  0  0
 38 63  1  0  0  0  0
 38 73  1  0  0  0  0
 38 79  2  0  0  0  0
 39 68  1  0  0  0  0
 39 71  1  0  0  0  0
 39 80  2  0  0  0  0
 40 43  1  0  0  0  0
 41 50  1  0  0  0  0
 42 67  1  0  0  0  0
 43 45  1  0  0  0  0
 44 46  1  0  0  0  0
 44 47  1  0  0  0  0
 45 49  1  0  0  0  0
 46 51  1  0  0  0  0
 47 68  1  0  0  0  0
 48 51  1  0  0  0  0
 48 68  1  0  0  0  0
 49 72  1  0  0  0  0
 50 67  1  0  0  0  0
 51 66  1  0  0  0  0
 53 63  1  0  0  0  0
 54 64  1  0  0  0  0
 55 64  1  0  0  0  0
 56 64  1  0  0  0  0
 57 74  1  0  0  0  0
 58 60  1  0  0  0  0
 59 82  1  0  0  0  0
 60 61  1  0  0  0  0
 61 83  1  0  0  0  0
 62 64  1  0  0  0  0
 62 73  1  0  0  0  0
 63 74  1  0  0  0  0
 65 66  1  0  0  0  0
M  CHG  1  74   1
M  ISO  4  39 100  61 101  71 100  83 101
M  END
> <Batch ID>
0134

> <Smiles>
CNC(C)C(=O)NC(C(=O)N1Cc2cc([101O:1][101CH2:1]CCC(=O)COc3cc(C)cc([100NH:0][100C:0](=O)N4CCCC(n5nc(-c6ccc(Oc7ccc(F)cc7F)cc6)c(C(N)=O)c5N)C4)c3)ccc2CC1C(=O)NC1CCCc2ccccc21)C(C)(C)C

> <Shape>
0.245

> <Color>
0.216

> <Negative vol penalty>
0.000

$$$$

  -OEChem-04052302333D

 86 94  0     1  0  0  0  0  0999 V2000
  -27.3652  -32.9289   13.8269 C   0  0  0  0  0  0  0  0  0  0  0  0
  -28.0422  -31.9354   14.5271 C   0  0  0  0  0  0  0  0  0  0  0  0
  -24.4628   -8.9284   21.3218 C   0  0  0  0  0  0  0  0  0  0  0  0
  -23.0838  -10.9068   21.1751 C   0  0  0  0  0  0  0  0  0  0  0  0
  -26.4269  -33.7255   14.4817 C   0  0  0  0  0  0  0  0  0  0  0  0
  -27.7819  -31.7388   15.8828 C   0  0  0  0  0  0  0  0  0  0  0  0
  -27.7991  -26.4092   18.8997 C   0  0  0  0  0  0  0  0  0  0  0  0
  -23.5961   -8.3951   22.2757 C   0  0  0  0  0  0  0  0  0  0  0  0
  -22.2171  -10.3734   22.1290 C   0  0  0  0  0  0  0  0  0  0  0  0
  -28.7565  -25.7875   19.6999 C   0  0  0  0  0  0  0  0  0  0  0  0
  -20.5890   -6.8496   22.3217 C   0  0  0  0  0  0  0  0  0  0  0  0
  -20.2143   -5.5134   22.1819 C   0  0  0  0  0  0  0  0  0  0  0  0
  -27.6896  -26.6892   21.6666 C   0  0  0  0  0  0  0  0  0  0  0  0
  -26.3259  -18.2977   20.1619 C   0  0  0  0  0  0  0  0  0  0  0  0
  -28.5647  -18.6349   21.0051 C   0  0  0  0  0  0  0  0  0  0  0  0
  -21.1741   -5.0180   24.3430 C   0  0  0  0  0  0  0  0  0  0  0  0
  -24.2067  -10.1844   20.7715 C   0  0  0  0  0  0  0  0  0  0  0  0
  -25.0282  -10.5814   18.3892 C   0  0  0  0  0  0  0  0  0  0  0  0
  -26.1479  -33.5322   15.8438 C   0  0  0  0  0  0  0  0  0  0  0  0
  -26.7843  -27.1859   19.4772 C   0  0  0  0  0  0  0  0  0  0  0  0
  -26.8399  -32.5345   16.5567 C   0  0  0  0  0  0  0  0  0  0  0  0
  -26.7190  -27.3176   20.8717 C   0  0  0  0  0  0  0  0  0  0  0  0
  -25.9705  -19.5753   20.5945 C   0  0  0  0  0  0  0  0  0  0  0  0
  -26.9123  -20.3827   21.2324 C   0  0  0  0  0  0  0  0  0  0  0  0
  -27.6230  -17.8275   20.3672 C   0  0  0  0  0  0  0  0  0  0  0  0
  -22.4732   -9.1175   22.6792 C   0  0  0  0  0  0  0  0  0  0  0  0
  -28.7036  -25.9298   21.0834 C   0  0  0  0  0  0  0  0  0  0  0  0
  -21.2564   -7.2701   23.4722 C   0  0  0  0  0  0  0  0  0  0  0  0
  -28.2094  -19.9125   21.4377 C   0  0  0  0  0  0  0  0  0  0  0  0
  -20.5068   -4.5976   23.1925 C   0  0  0  0  0  0  0  0  0  0  0  0
  -21.5489   -6.3543   24.4828 C   0  0  0  0  0  0  0  0  0  0  0  0
  -25.1019  -10.7362   19.7865 C   0  0  0  0  0  0  0  0  0  0  0  0
  -26.0995  -11.2934   17.9079 C   0  0  0  0  0  0  0  0  0  0  0  0
  -24.0763   -9.8586   17.5972 C   0  0  0  0  0  0  0  0  0  0  0  0
  -25.9264  -30.2418   19.3066 C   0  0  0  0  0  0  0  0  0  0  0  0
  -30.6208  -23.2126   22.5333 C   0  0  0  0  0  0  0  0  0  0  0  0
  -23.4161  -29.2331   21.0964 C   0  0  0  0  0  0  0  0  0  0  0  0
  -22.1533  -26.9356   23.2814 C   0  0  0  0  0  0  0  0  0  0  0  0
  -29.2275  -15.9110   20.0523 C   0  0  0  0  0  0  0  0  0  0  0  0
  -25.1597  -34.4493   16.5198 C   0  0  0  0  0  0  0  0  0  0  0  0
  -25.7434  -27.8282   18.6018 C   0  0  0  0  0  0  0  0  0  0  0  0
  -25.6379  -28.1239   21.5422 C   0  0  0  0  0  0  0  0  0  0  0  0
  -24.6699  -33.9290   17.8687 C   0  0  0  0  0  0  0  0  0  0  0  0
  -30.5047  -12.7171   19.1332 C   0  0  0  0  0  0  0  0  0  0  0  0
  -25.8440  -33.4386   18.7100 C   0  0  0  0  0  0  0  0  0  0  0  0
  -29.2568  -11.8340   19.0633 C   0  0  0  0  0  0  0  0  0  0  0  0
  -30.4142  -13.7382   20.2658 C   0  0  0  0  0  0  0  0  0  0  0  0
  -27.9524  -13.6816   20.1913 C   0  0  0  0  0  0  0  0  0  0  0  0
  -26.5671  -32.2743   18.0224 C   0  0  1  0  0  0  0  0  0  0  0  0
  -25.0560  -29.0177   19.2651 C   0  0  1  0  0  0  0  0  0  0  0  0
  -27.9691  -12.6802   19.0249 C   0  0  2  0  0  0  0  0  0  0  0  0
  -24.5752  -20.0557   20.3631 C   0  0  0  0  0  0  0  0  0  0  0  0
  -26.4798  -22.7556   20.5479 C   0  0  0  0  0  0  0  0  0  0  0  0
  -20.0853  -26.3973   24.5970 C   0  0  0  0  0  0  0  0  0  0  0  0
  -24.1153  -31.4334   23.0913 C   0  0  0  0  0  0  0  0  0  0  0  0
  -22.6733  -30.2693   24.7746 C   0  0  0  0  0  0  0  0  0  0  0  0
  -21.6670  -31.1485   22.6682 C   0  0  0  0  0  0  0  0  0  0  0  0
  -21.8008  -24.3480   21.8889 C   0  0  0  0  0  0  0  0  0  0  0  0
  -26.5375  -21.7540   21.6963 C   0  0  0  0  0  0  0  0  0  0  0  0
  -31.2501  -21.8846   22.1388 C   0  0  0  0  0  0  0  0  0  0  0  0
  -30.2003  -24.1059   21.3825 C   0  0  0  0  0  0  0  0  0  1  0  0
  -30.3186  -21.0045   21.3180 C   0  0  0  0  0  0  0  0  0  0  0  0
  -23.1431  -29.0980   22.5750 C   0  0  1  0  0  0  0  0  0  0  0  0
  -20.8398  -26.1747   23.2955 C   0  0  2  0  0  0  0  0  0  0  0  0
  -22.9213  -30.4736   23.2648 C   0  0  0  0  0  0  0  0  0  0  0  0
  -26.1383  -11.4874   20.1681 N   0  0  0  0  0  0  0  0  0  0  0  0
  -26.7256  -11.8110   19.0034 N   0  0  0  0  0  0  0  0  0  0  0  0
  -24.6469  -28.7378   20.6430 N   0  0  0  0  0  0  0  0  0  0  0  0
  -29.1711  -14.5055   20.1623 N   0  0  0  0  0  0  0  0  0  0  0  0
  -26.5576  -11.5210   16.6586 N   0  0  0  0  0  0  0  0  0  0  0  0
  -23.0380   -9.1826   18.2524 N   0  0  0  0  0  0  0  0  0  0  0  0
  -27.9841  -16.5299   19.9272 N   0  0  0  0  0  0  0  0  0  0  0  0
  -25.8195  -31.0463   18.1882 N   0  0  0  0  0  0  0  0  0  0  0  0
  -22.0174  -28.1785   22.6999 N   0  0  0  0  0  0  0  0  0  0  0  0
  -21.0861  -24.7133   23.1390 N   0  3  0  0  0  0  0  0  0  0  0  0
  -24.1539   -9.8001   16.3466 O   0  0  0  0  0  0  0  0  0  0  0  0
  -26.6408  -30.4424   20.2819 O   0  0  0  0  0  0  0  0  0  0  0  0
  -30.4573  -23.5472   23.7055 O   0  0  0  0  0  0  0  0  0  0  0  0
  -22.5655  -29.7523   20.3694 O   0  0  0  0  0  0  0  0  0  0  0  0
  -23.1949  -26.4751   23.7435 O   0  0  0  0  0  0  0  0  0  0  0  0
  -30.3012  -16.5185   20.0407 O   0  0  0  0  0  0  0  0  0  0  0  0
  -21.6272   -8.5972   23.6098 O   0  0  0  0  0  0  0  0  0  0  0  0
  -29.6374  -25.3245   21.8668 O   0  0  0  0  0  0  0  0  0  1  0  0
  -29.1479  -20.6911   22.0623 O   0  0  0  0  0  0  0  0  0  0  0  0
  -20.1454   -3.3147   23.0587 F   0  0  0  0  0  0  0  0  0  0  0  0
  -22.1888   -6.7525   25.5908 F   0  0  0  0  0  0  0  0  0  0  0  0
  1  2  1  0  0  0  0
  1  5  2  0  0  0  0
  2  6  2  0  0  0  0
  3  8  2  0  0  0  0
  3 17  1  0  0  0  0
  4  9  1  0  0  0  0
  4 17  2  0  0  0  0
  5 19  1  0  0  0  0
  6 21  1  0  0  0  0
  7 10  2  0  0  0  0
  7 20  1  0  0  0  0
  8 26  1  0  0  0  0
  9 26  2  0  0  0  0
 10 27  1  0  0  0  0
 11 12  2  0  0  0  0
 11 28  1  0  0  0  0
 12 30  1  0  0  0  0
 13 22  1  0  0  0  0
 13 27  2  0  0  0  0
 14 23  2  0  0  0  0
 14 25  1  0  0  0  0
 15 25  2  0  0  0  0
 15 29  1  0  0  0  0
 16 30  2  0  0  0  0
 16 31  1  0  0  0  0
 17 32  1  0  0  0  0
 18 32  1  0  0  0  0
 18 33  2  0  0  0  0
 18 34  1  0  0  0  0
 19 21  2  0  0  0  0
 19 40  1  0  0  0  0
 20 22  2  0  0  0  0
 20 41  1  0  0  0  0
 21 49  1  0  0  0  0
 22 42  1  0  0  0  0
 23 24  1  0  0  0  0
 23 52  1  0  0  0  0
 24 29  2  0  0  0  0
 24 59  1  0  0  0  0
 25 72  1  0  0  0  0
 26 82  1  0  0  0  0
 27 83  1  0  0  0  0
 28 31  2  0  0  0  0
 28 82  1  0  0  0  0
 29 84  1  0  0  0  0
 30 85  1  0  0  0  0
 31 86  1  0  0  0  0
 32 66  2  0  0  0  0
 33 67  1  0  0  0  0
 33 70  1  0  0  0  0
 34 71  1  0  0  0  0
 34 76  2  0  0  0  0
 35 50  1  0  0  0  0
 35 73  1  0  0  0  0
 35 77  2  0  0  0  0
 36 60  1  0  0  0  0
 36 61  1  0  0  0  0
 36 78  2  0  0  0  0
 37 63  1  0  0  0  0
 37 68  1  0  0  0  0
 37 79  2  0  0  0  0
 38 64  1  0  0  0  0
 38 74  1  0  0  0  0
 38 80  2  0  0  0  0
 39 69  1  0  0  0  0
 39 72  1  0  0  0  0
 39 81  2  0  0  0  0
 40 43  1  0  0  0  0
 41 50  1  0  0  0  0
 42 68  1  0  0  0  0
 43 45  1  0  0  0  0
 44 46  1  0  0  0  0
 44 47  1  0  0  0  0
 45 49  1  0  0  0  0
 46 51  1  0  0  0  0
 47 69  1  0  0  0  0
 48 51  1  0  0  0  0
 48 69  1  0  0  0  0
 49 73  1  0  0  0  0
 50 68  1  0  0  0  0
 51 67  1  0  0  0  0
 53 59  1  0  0  0  0
 54 64  1  0  0  0  0
 55 65  1  0  0  0  0
 56 65  1  0  0  0  0
 57 65  1  0  0  0  0
 58 75  1  0  0  0  0
 60 62  1  0  0  0  0
 61 83  1  0  0  0  0
 62 84  1  0  0  0  0
 63 65  1  0  0  0  0
 63 74  1  0  0  0  0
 64 75  1  0  0  0  0
 66 67  1  0  0  0  0
M  CHG  1  75   1
M  ISO  4  39 100  61 101  72 100  83 101
M  END
> <Batch ID>
0134

> <Smiles>
CCc1c(C)cc([100NH:0][100C:0](=O)N2CCCC(n3nc(-c4ccc(Oc5ccc(F)cc5F)cc4)c(C(N)=O)c3N)C2)cc1OCCC(=O)[101CH2:1][101O:1]c1ccc2c(c1)CN(C(=O)C(NC(=O)C(C)NC)C(C)(C)C)C(C(=O)NC1CCCc3ccccc31)C2

> <Shape>
0.242

> <Color>
0.072

> <Negative vol penalty>
0.000

$$$$

  -OEChem-04052302333D

 84 92  0     1  0  0  0  0  0999 V2000
  -23.3087  -32.1925   14.0517 C   0  0  0  0  0  0  0  0  0  0  0  0
  -24.2456  -31.4209   14.7316 C   0  0  0  0  0  0  0  0  0  0  0  0
  -21.0745  -10.2192   20.5621 C   0  0  0  0  0  0  0  0  0  0  0  0
  -23.0509   -9.9897   21.9326 C   0  0  0  0  0  0  0  0  0  0  0  0
  -22.8326  -33.3721   14.6225 C   0  0  0  0  0  0  0  0  0  0  0  0
  -24.7077  -31.8290   15.9823 C   0  0  0  0  0  0  0  0  0  0  0  0
  -24.8680  -28.0312   19.3283 C   0  0  0  0  0  0  0  0  0  0  0  0
  -30.1490  -16.1814   22.2612 C   0  0  0  0  0  0  0  0  0  0  0  0
  -20.9170   -8.8333   20.5572 C   0  0  0  0  0  0  0  0  0  0  0  0
  -22.8933   -8.6038   21.9278 C   0  0  0  0  0  0  0  0  0  0  0  0
  -25.9373  -27.1419   19.2314 C   0  0  0  0  0  0  0  0  0  0  0  0
  -30.5302  -17.4876   21.9548 C   0  0  0  0  0  0  0  0  0  0  0  0
  -20.9831   -6.3103   23.5126 C   0  0  0  0  0  0  0  0  0  0  0  0
  -21.1312   -5.6385   24.7260 C   0  0  0  0  0  0  0  0  0  0  0  0
  -27.0481  -28.2901   21.0390 C   0  0  0  0  0  0  0  0  0  0  0  0
  -28.9720  -17.5093   20.1085 C   0  0  0  0  0  0  0  0  0  0  0  0
  -22.9540   -4.3559   23.7935 C   0  0  0  0  0  0  0  0  0  0  0  0
  -22.1416  -10.7974   21.2498 C   0  0  0  0  0  0  0  0  0  0  0  0
  -21.7688  -13.1428   22.1815 C   0  0  0  0  0  0  0  0  0  0  0  0
  -23.2819  -33.7899   15.8851 C   0  0  0  0  0  0  0  0  0  0  0  0
  -24.8856  -29.0650   20.2756 C   0  0  0  0  0  0  0  0  0  0  0  0
  -24.2382  -33.0160   16.5699 C   0  0  0  0  0  0  0  0  0  0  0  0
  -25.9766  -29.1896   21.1476 C   0  0  0  0  0  0  0  0  0  0  0  0
  -29.1794  -15.5390   21.4912 C   0  0  0  0  0  0  0  0  0  0  0  0
  -28.5909  -16.2030   20.4149 C   0  0  0  0  0  0  0  0  0  0  0  0
  -21.8263   -8.0256   21.2401 C   0  0  0  0  0  0  0  0  0  0  0  0
  -27.0289  -27.2730   20.0848 C   0  0  0  0  0  0  0  0  0  0  0  0
  -29.9417  -18.1516   20.8785 C   0  0  0  0  0  0  0  0  0  0  0  0
  -21.8204   -6.0048   22.4396 C   0  0  0  0  0  0  0  0  0  0  0  0
  -22.1166   -4.6613   24.8665 C   0  0  0  0  0  0  0  0  0  0  0  0
  -22.8059   -5.0277   22.5800 C   0  0  0  0  0  0  0  0  0  0  0  0
  -22.3052  -12.2290   21.2547 C   0  0  0  0  0  0  0  0  0  0  0  0
  -22.2115  -14.3693   21.7500 C   0  0  0  0  0  0  0  0  0  0  0  0
  -20.9442  -12.9042   23.3299 C   0  0  0  0  0  0  0  0  0  0  0  0
  -24.8403  -32.2401   20.1320 C   0  0  0  0  0  0  0  0  0  0  0  0
  -24.6063  -31.9940   23.3580 C   0  0  0  0  0  0  0  0  0  0  0  0
  -25.1610  -30.1417   26.1702 C   0  0  0  0  0  0  0  0  0  0  0  0
  -26.9320  -16.1011   18.5217 C   0  0  0  0  0  0  0  0  0  0  0  0
  -22.7737  -35.0968   16.4406 C   0  0  0  0  0  0  0  0  0  0  0  0
  -23.7122  -29.9997   20.3853 C   0  0  0  0  0  0  0  0  0  0  0  0
  -26.0350  -30.2699   22.1954 C   0  0  0  0  0  0  0  0  0  0  0  0
  -23.0340  -35.2656   17.9353 C   0  0  0  0  0  0  0  0  0  0  0  0
  -23.5033  -16.6958   17.7684 C   0  0  0  0  0  0  0  0  0  0  0  0
  -24.4717  -34.8842   18.2732 C   0  0  0  0  0  0  0  0  0  0  0  0
  -22.7579  -15.7052   18.6658 C   0  0  0  0  0  0  0  0  0  0  0  0
  -24.8071  -16.1062   17.2334 C   0  0  0  0  0  0  0  0  0  0  0  0
  -24.9632  -14.5717   19.1543 C   0  0  0  0  0  0  0  0  0  0  0  0
  -24.7451  -33.4126   17.9395 C   0  0  1  0  0  0  0  0  0  0  0  0
  -24.0671  -31.3295   21.0434 C   0  0  1  0  0  0  0  0  0  0  0  0
  -23.6756  -15.1438   19.7695 C   0  0  2  0  0  0  0  0  0  0  0  0
  -28.7907  -14.1396   21.8425 C   0  0  0  0  0  0  0  0  0  0  0  0
  -24.8988  -30.2209   28.6646 C   0  0  0  0  0  0  0  0  0  0  0  0
  -27.0139  -33.8586   23.5495 C   0  0  0  0  0  0  0  0  0  0  0  0
  -27.2855  -33.1492   25.9352 C   0  0  0  0  0  0  0  0  0  0  0  0
  -25.2036  -34.3181   25.2127 C   0  0  0  0  0  0  0  0  0  0  0  0
  -23.3569  -27.7956   26.1712 C   0  0  0  0  0  0  0  0  0  0  0  0
  -28.5718  -22.6640   19.7729 C   0  0  0  0  0  0  0  0  0  0  0  0
  -28.7919  -24.1255   20.1638 C   0  0  0  0  0  0  0  0  0  0  0  0
  -29.6089  -21.7146   20.3704 C   0  0  0  0  0  0  0  0  0  0  0  0
  -27.7834  -25.0834   19.5441 C   0  0  0  0  0  0  0  0  0  1  0  0
  -29.3313  -20.2683   19.9824 C   0  0  0  0  0  0  0  0  0  0  0  0
  -25.5921  -31.9240   24.4992 C   0  0  1  0  0  0  0  0  0  0  0  0
  -24.2638  -29.8040   27.3471 C   0  0  2  0  0  0  0  0  0  0  0  0
  -26.2738  -33.2932   24.7782 C   0  0  0  0  0  0  0  0  0  0  0  0
  -23.0329  -12.8242   20.3059 N   0  0  0  0  0  0  0  0  0  0  0  0
  -22.9568  -14.1251   20.6342 N   0  0  0  0  0  0  0  0  0  0  0  0
  -24.8663  -31.1630   22.2590 N   0  0  0  0  0  0  0  0  0  0  0  0
  -25.6269  -15.5982   18.3355 N   0  0  0  0  0  0  0  0  0  0  0  0
  -22.0319  -15.6220   22.2200 N   0  0  0  0  0  0  0  0  0  0  0  0
  -20.5820  -11.5839   23.6298 N   0  0  0  0  0  0  0  0  0  0  0  0
  -27.6041  -15.5676   19.6209 N   0  0  0  0  0  0  0  0  0  0  0  0
  -24.1827  -32.5508   18.9570 N   0  0  0  0  0  0  0  0  0  0  0  0
  -24.8610  -31.3775   25.6372 N   0  0  0  0  0  0  0  0  0  0  0  0
  -24.0018  -28.3377   27.3948 N   0  3  0  0  0  0  0  0  0  0  0  0
  -20.5269  -13.8359   24.0589 O   0  0  0  0  0  0  0  0  0  0  0  0
  -25.9506  -32.6330   20.4704 O   0  0  0  0  0  0  0  0  0  0  0  0
  -23.6372  -32.7526   23.4417 O   0  0  0  0  0  0  0  0  0  0  0  0
  -26.0426  -29.3865   25.7664 O   0  0  0  0  0  0  0  0  0  0  0  0
  -27.4076  -16.9629   17.7779 O   0  0  0  0  0  0  0  0  0  0  0  0
  -21.6727   -6.6732   21.2358 O   0  0  0  0  0  0  0  0  0  0  0  0
  -28.0743  -26.4068   19.9919 O   0  0  0  0  0  0  0  0  0  1  0  0
  -30.3165  -19.4355   20.5778 O   0  0  0  0  0  0  0  0  0  0  0  0
  -22.2597   -4.0174   26.0322 F   0  0  0  0  0  0  0  0  0  0  0  0
  -23.6140   -4.7308   21.5531 F   0  0  0  0  0  0  0  0  0  0  0  0
  1  2  1  0  0  0  0
  1  5  2  0  0  0  0
  2  6  2  0  0  0  0
  3  9  2  0  0  0  0
  3 18  1  0  0  0  0
  4 10  1  0  0  0  0
  4 18  2  0  0  0  0
  5 20  1  0  0  0  0
  6 22  1  0  0  0  0
  7 11  2  0  0  0  0
  7 21  1  0  0  0  0
  8 12  2  0  0  0  0
  8 24  1  0  0  0  0
  9 26  1  0  0  0  0
 10 26  2  0  0  0  0
 11 27  1  0  0  0  0
 12 28  1  0  0  0  0
 13 14  2  0  0  0  0
 13 29  1  0  0  0  0
 14 30  1  0  0  0  0
 15 23  1  0  0  0  0
 15 27  2  0  0  0  0
 16 25  1  0  0  0  0
 16 28  2  0  0  0  0
 17 30  2  0  0  0  0
 17 31  1  0  0  0  0
 18 32  1  0  0  0  0
 19 32  1  0  0  0  0
 19 33  2  0  0  0  0
 19 34  1  0  0  0  0
 20 22  2  0  0  0  0
 20 39  1  0  0  0  0
 21 23  2  0  0  0  0
 21 40  1  0  0  0  0
 22 48  1  0  0  0  0
 23 41  1  0  0  0  0
 24 25  2  0  0  0  0
 24 51  1  0  0  0  0
 25 71  1  0  0  0  0
 26 80  1  0  0  0  0
 27 81  1  0  0  0  0
 28 82  1  0  0  0  0
 29 31  2  0  0  0  0
 29 80  1  0  0  0  0
 30 83  1  0  0  0  0
 31 84  1  0  0  0  0
 32 65  2  0  0  0  0
 33 66  1  0  0  0  0
 33 69  1  0  0  0  0
 34 70  1  0  0  0  0
 34 75  2  0  0  0  0
 35 49  1  0  0  0  0
 35 72  1  0  0  0  0
 35 76  2  0  0  0  0
 36 62  1  0  0  0  0
 36 67  1  0  0  0  0
 36 77  2  0  0  0  0
 37 63  1  0  0  0  0
 37 73  1  0  0  0  0
 37 78  2  0  0  0  0
 38 68  1  0  0  0  0
 38 71  1  0  0  0  0
 38 79  2  0  0  0  0
 39 42  1  0  0  0  0
 40 49  1  0  0  0  0
 41 67  1  0  0  0  0
 42 44  1  0  0  0  0
 43 45  1  0  0  0  0
 43 46  1  0  0  0  0
 44 48  1  0  0  0  0
 45 50  1  0  0  0  0
 46 68  1  0  0  0  0
 47 50  1  0  0  0  0
 47 68  1  0  0  0  0
 48 72  1  0  0  0  0
 49 67  1  0  0  0  0
 50 66  1  0  0  0  0
 52 63  1  0  0  0  0
 53 64  1  0  0  0  0
 54 64  1  0  0  0  0
 55 64  1  0  0  0  0
 56 74  1  0  0  0  0
 57 58  1  0  0  0  0
 57 59  1  0  0  0  0
 58 60  1  0  0  0  0
 59 61  1  0  0  0  0
 60 81  1  0  0  0  0
 61 82  1  0  0  0  0
 62 64  1  0  0  0  0
 62 73  1  0  0  0  0
 63 74  1  0  0  0  0
 65 66  1  0  0  0  0
M  CHG  1  74   1
M  ISO  4  38 100  60 101  71 100  81 101
M  END
> <Batch ID>
0134

> <Smiles>
CNC(C)C(=O)NC(C(=O)N1Cc2cc([101O:1][101CH2:1]CCCCOc3ccc(C)c([100NH:0][100C:0](=O)N4CCCC(n5nc(-c6ccc(Oc7ccc(F)cc7F)cc6)c(C(N)=O)c5N)C4)c3)ccc2CC1C(=O)NC1CCCc2ccccc21)C(C)(C)C

> <Shape>
0.297

> <Color>
0.112

> <Negative vol penalty>
0.000

$$$$

  -OEChem-04052302333D

 87 96  0     1  0  0  0  0  0999 V2000
  -19.8597  -23.8615   21.7861 C   0  0  0  0  0  0  0  0  0  0  0  0
  -20.9943  -24.3352   21.1353 C   0  0  0  0  0  0  0  0  0  0  0  0
  -26.5454  -13.7798   21.9607 C   0  0  0  0  0  0  0  0  0  0  0  0
  -26.1096  -13.7815   19.5843 C   0  0  0  0  0  0  0  0  0  0  0  0
  -18.9613  -24.7594   22.3610 C   0  0  0  0  0  0  0  0  0  0  0  0
  -21.2307  -25.7073   21.0581 C   0  0  0  0  0  0  0  0  0  0  0  0
  -26.0400  -26.9113   22.0903 C   0  0  0  0  0  0  0  0  0  0  0  0
  -28.6233  -22.1326   14.5530 C   0  0  0  0  0  0  0  0  0  0  0  0
  -28.9045  -23.4936   14.6711 C   0  0  0  0  0  0  0  0  0  0  0  0
  -25.7692  -12.6295   22.1022 C   0  0  0  0  0  0  0  0  0  0  0  0
  -25.3334  -12.6313   19.7258 C   0  0  0  0  0  0  0  0  0  0  0  0
  -26.9797  -26.7001   21.0823 C   0  0  0  0  0  0  0  0  0  0  0  0
  -25.8468   -9.3102   20.0823 C   0  0  0  0  0  0  0  0  0  0  0  0
  -26.0388   -8.2829   19.1585 C   0  0  0  0  0  0  0  0  0  0  0  0
  -26.9000  -29.0458   20.5248 C   0  0  0  0  0  0  0  0  0  0  0  0
  -26.9118  -23.7896   16.0049 C   0  0  0  0  0  0  0  0  0  0  0  0
  -23.7266   -8.4603   18.4807 C   0  0  0  0  0  0  0  0  0  0  0  0
  -26.7156  -14.3558   20.7018 C   0  0  0  0  0  0  0  0  0  0  0  0
  -28.8999  -15.6111   20.3012 C   0  0  0  0  0  0  0  0  0  0  0  0
  -19.1917  -26.1427   22.2993 C   0  0  0  0  0  0  0  0  0  0  0  0
  -25.5143  -28.1915   22.3164 C   0  0  0  0  0  0  0  0  0  0  0  0
  -20.3338  -26.6246   21.6316 C   0  0  0  0  0  0  0  0  0  0  0  0
  -25.9557  -29.2711   21.5380 C   0  0  0  0  0  0  0  0  0  0  0  0
  -27.4863  -21.6000   15.1607 C   0  0  0  0  0  0  0  0  0  0  0  0
  -26.6306  -22.4285   15.8867 C   0  0  0  0  0  0  0  0  0  0  0  0
  -28.0488  -24.3221   15.3971 C   0  0  0  0  0  0  0  0  0  0  0  0
  -25.1632  -12.0553   20.9848 C   0  0  0  0  0  0  0  0  0  0  0  0
  -27.4077  -27.7668   20.2974 C   0  0  0  0  0  0  0  0  0  0  0  0
  -24.5947   -9.9125   20.2054 C   0  0  0  0  0  0  0  0  0  0  0  0
  -24.9787   -7.8580   18.3576 C   0  0  0  0  0  0  0  0  0  0  0  0
  -23.5346   -9.4876   19.4045 C   0  0  0  0  0  0  0  0  0  0  0  0
  -27.5168  -15.5443   20.5550 C   0  0  0  0  0  0  0  0  0  0  0  0
  -29.1752  -16.9558   20.2509 C   0  0  0  0  0  0  0  0  0  0  0  0
  -29.8508  -14.5524   20.1265 C   0  0  0  0  0  0  0  0  0  0  0  0
  -22.6126  -29.4817   22.1764 C   0  0  0  0  0  0  0  0  0  0  0  0
  -24.1332  -32.0767   23.3914 C   0  0  0  0  0  0  0  0  0  0  0  0
  -27.0526  -33.7962   23.8004 C   0  0  0  0  0  0  0  0  0  0  0  0
  -25.8298  -21.7581   18.9870 C   0  0  0  0  0  0  0  0  0  0  0  0
  -18.1678  -27.0765   22.8945 C   0  0  0  0  0  0  0  0  0  0  0  0
  -24.5213  -28.4077   23.4253 C   0  0  0  0  0  0  0  0  0  0  0  0
  -25.4373  -30.6686   21.7538 C   0  0  0  0  0  0  0  0  0  0  0  0
  -18.6840  -28.4991   23.0942 C   0  0  0  0  0  0  0  0  0  0  0  0
  -27.6648  -21.1543   21.9778 C   0  0  0  0  0  0  0  0  0  0  0  0
  -19.4153  -28.9818   21.8456 C   0  0  0  0  0  0  0  0  0  0  0  0
  -27.9598  -19.6541   21.9294 C   0  0  0  0  0  0  0  0  0  0  0  0
  -29.2758  -27.7083   14.4817 C   0  0  0  0  0  0  0  0  0  0  0  0
  -26.2863  -21.4772   21.4055 C   0  0  0  0  0  0  0  0  0  0  0  0
  -28.4099  -26.4695   14.2780 C   0  0  0  0  0  0  0  0  0  0  0  0
  -27.9107  -26.4086   16.7216 C   0  0  0  0  0  0  0  0  0  0  0  0
  -26.3357  -19.4530   20.0005 C   0  0  0  0  0  0  0  0  0  0  0  0
  -20.6376  -28.1048   21.5485 C   0  0  1  0  0  0  0  0  0  0  0  0
  -23.6698  -29.6584   23.2294 C   0  0  1  0  0  0  0  0  0  0  0  0
  -28.8088  -28.5458   15.6799 C   0  0  1  0  0  0  0  0  0  0  0  0
  -28.7748  -27.6634   16.9472 C   0  0  1  0  0  0  0  0  0  0  0  0
  -27.7375  -19.0843   20.5155 C   0  0  2  0  0  0  0  0  0  0  0  0
  -27.2055  -20.1400   15.0192 C   0  0  0  0  0  0  0  0  0  0  0  0
  -29.7166  -29.7685   15.8337 C   0  0  0  0  0  0  0  0  0  0  0  0
  -27.9737  -35.9030   24.8054 C   0  0  0  0  0  0  0  0  0  0  0  0
  -22.9677  -33.6875   21.0768 C   0  0  0  0  0  0  0  0  0  0  0  0
  -24.6404  -35.4825   21.5752 C   0  0  0  0  0  0  0  0  0  0  0  0
  -22.9340  -34.8604   23.2853 C   0  0  0  0  0  0  0  0  0  0  0  0
  -28.8330  -32.2873   25.6204 C   0  0  0  0  0  0  0  0  0  0  0  0
  -25.4067  -21.8810   16.5447 C   0  0  0  0  0  0  0  0  0  0  0  0
  -28.2549  -28.4203   18.1735 C   0  0  0  0  0  0  0  0  0  1  0  0
  -24.8419  -33.2730   22.8036 C   0  0  1  0  0  0  0  0  0  0  0  0
  -27.6873  -34.4260   25.0271 C   0  0  2  0  0  0  0  0  0  0  0  0
  -23.8545  -34.2993   22.1796 C   0  0  0  0  0  0  0  0  0  0  0  0
  -26.9528  -16.7506   20.6589 N   0  0  0  0  0  0  0  0  0  0  0  0
  -27.9866  -17.5881   20.4694 N   0  0  0  0  0  0  0  0  0  0  0  0
  -28.3321  -25.6885   15.5163 N   0  0  1  0  0  0  0  0  0  0  0  0
  -24.4631  -30.8279   22.8460 N   0  0  0  0  0  0  0  0  0  0  0  0
  -26.1406  -20.9101   20.0628 N   0  0  0  0  0  0  0  0  0  0  0  0
  -30.3156  -17.6473   20.0415 N   0  0  0  0  0  0  0  0  0  0  0  0
  -29.3990  -13.2282   20.2091 N   0  0  0  0  0  0  0  0  0  0  0  0
  -21.7322  -28.4476   22.4310 N   0  0  0  0  0  0  0  0  0  0  0  0
  -25.6757  -33.8180   23.8695 N   0  0  0  0  0  0  0  0  0  0  0  0
  -25.7160  -21.1405   17.7475 N   0  0  0  0  0  0  0  0  0  0  0  0
  -28.9703  -33.7426   25.3552 N   0  3  0  0  0  0  0  0  0  0  0  0
  -31.0681  -14.7740   19.9200 O   0  0  0  0  0  0  0  0  0  0  0  0
  -22.5960  -30.2293   21.2056 O   0  0  0  0  0  0  0  0  0  0  0  0
  -23.3221  -32.2434   24.3057 O   0  0  0  0  0  0  0  0  0  0  0  0
  -27.7123  -33.3346   22.8718 O   0  0  0  0  0  0  0  0  0  0  0  0
  -25.6711  -22.9763   19.1204 O   0  0  0  0  0  0  0  0  0  0  0  0
  -24.4059  -10.9327   21.1225 O   0  0  0  0  0  0  0  0  0  0  0  0
  -28.3243  -27.5633   19.3124 O   0  0  0  0  0  0  0  0  0  1  0  0
  -25.1636   -6.8726   17.4694 F   0  0  0  0  0  0  0  0  0  0  0  0
  -22.3297  -10.0632   19.5174 F   0  0  0  0  0  0  0  0  0  0  0  0
  1  2  1  0  0  0  0
  1  5  2  0  0  0  0
  2  6  2  0  0  0  0
  3 10  2  0  0  0  0
  3 18  1  0  0  0  0
  4 11  1  0  0  0  0
  4 18  2  0  0  0  0
  5 20  1  0  0  0  0
  6 22  1  0  0  0  0
  7 12  2  0  0  0  0
  7 21  1  0  0  0  0
  8  9  2  0  0  0  0
  8 24  1  0  0  0  0
  9 26  1  0  0  0  0
 10 27  1  0  0  0  0
 11 27  2  0  0  0  0
 12 28  1  0  0  0  0
 13 14  2  0  0  0  0
 13 29  1  0  0  0  0
 14 30  1  0  0  0  0
 15 23  1  0  0  0  0
 15 28  2  0  0  0  0
 16 25  1  0  0  0  0
 16 26  2  0  0  0  0
 17 30  2  0  0  0  0
 17 31  1  0  0  0  0
 18 32  1  0  0  0  0
 19 32  1  0  0  0  0
 19 33  2  0  0  0  0
 19 34  1  0  0  0  0
 20 22  2  0  0  0  0
 20 39  1  0  0  0  0
 21 23  2  0  0  0  0
 21 40  1  0  0  0  0
 22 51  1  0  0  0  0
 23 41  1  0  0  0  0
 24 25  2  0  0  0  0
 24 56  1  0  0  0  0
 25 63  1  0  0  0  0
 26 70  1  0  0  0  0
 27 84  1  0  0  0  0
 28 85  1  0  0  0  0
 29 31  2  0  0  0  0
 29 84  1  0  0  0  0
 30 86  1  0  0  0  0
 31 87  1  0  0  0  0
 32 68  2  0  0  0  0
 33 69  1  0  0  0  0
 33 73  1  0  0  0  0
 34 74  1  0  0  0  0
 34 79  2  0  0  0  0
 35 52  1  0  0  0  0
 35 75  1  0  0  0  0
 35 80  2  0  0  0  0
 36 65  1  0  0  0  0
 36 71  1  0  0  0  0
 36 81  2  0  0  0  0
 37 66  1  0  0  0  0
 37 76  1  0  0  0  0
 37 82  2  0  0  0  0
 38 72  1  0  0  0  0
 38 77  1  0  0  0  0
 38 83  2  0  0  0  0
 39 42  1  0  0  0  0
 40 52  1  0  0  0  0
 41 71  1  0  0  0  0
 42 44  1  0  0  0  0
 43 45  1  0  0  0  0
 43 47  1  0  0  0  0
 44 51  1  0  0  0  0
 45 55  1  0  0  0  0
 46 48  1  0  0  0  0
 46 53  1  0  0  0  0
 47 72  1  0  0  0  0
 48 70  1  0  0  0  0
 49 54  1  0  0  0  0
 49 70  1  0  0  0  0
 50 55  1  0  0  0  0
 50 72  1  0  0  0  0
 51 75  1  0  0  0  0
 52 71  1  0  0  0  0
 53 54  1  0  0  0  0
 53 57  1  0  0  0  0
 54 64  1  0  0  0  0
 55 69  1  0  0  0  0
 58 66  1  0  0  0  0
 59 67  1  0  0  0  0
 60 67  1  0  0  0  0
 61 67  1  0  0  0  0
 62 78  1  0  0  0  0
 63 77  1  0  0  0  0
 64 85  1  0  0  0  0
 65 67  1  0  0  0  0
 65 76  1  0  0  0  0
 66 78  1  0  0  0  0
 68 69  1  0  0  0  0
M  CHG  1  78   1
M  ISO  4  38 100  64 101  77 100  85 101
M  END
> <Batch ID>
0134

> <Smiles>
CNC(C)C(=O)NC(C(=O)N1Cc2cc([101O:1][101CH2:1]C3CN(c4ccc(C)c(C[100NH:0][100C:0](=O)N5CCCC(n6nc(-c7ccc(Oc8ccc(F)cc8F)cc7)c(C(N)=O)c6N)C5)c4)CCC3C)ccc2CC1C(=O)NC1CCCc2ccccc21)C(C)(C)C

> <Shape>
0.239

> <Color>
0.111

> <Negative vol penalty>
0.000

$$$$

  -OEChem-04052302333D

 84 92  0     1  0  0  0  0  0999 V2000
  -16.5575  -29.8764   22.8737 C   0  0  0  0  0  0  0  0  0  0  0  0
  -17.5816  -30.0031   21.9407 C   0  0  0  0  0  0  0  0  0  0  0  0
  -23.7985  -10.5594   19.9987 C   0  0  0  0  0  0  0  0  0  0  0  0
  -25.1873  -11.1459   21.8867 C   0  0  0  0  0  0  0  0  0  0  0  0
  -16.8556  -29.5347   24.1922 C   0  0  0  0  0  0  0  0  0  0  0  0
  -18.9046  -29.7893   22.3259 C   0  0  0  0  0  0  0  0  0  0  0  0
  -25.1233  -27.2944   19.7922 C   0  0  0  0  0  0  0  0  0  0  0  0
  -23.7410   -9.2410   20.4506 C   0  0  0  0  0  0  0  0  0  0  0  0
  -25.1297   -9.8275   22.3386 C   0  0  0  0  0  0  0  0  0  0  0  0
  -26.4618  -27.6641   19.6682 C   0  0  0  0  0  0  0  0  0  0  0  0
  -22.0634   -7.4852   22.8034 C   0  0  0  0  0  0  0  0  0  0  0  0
  -20.8206   -6.8520   22.7987 C   0  0  0  0  0  0  0  0  0  0  0  0
  -26.8506  -27.0008   21.9548 C   0  0  0  0  0  0  0  0  0  0  0  0
  -30.0622  -22.7623   19.5296 C   0  0  0  0  0  0  0  0  0  0  0  0
  -21.6848   -5.1670   21.2983 C   0  0  0  0  0  0  0  0  0  0  0  0
  -31.5358  -22.6069   21.8209 C   0  0  0  0  0  0  0  0  0  0  0  0
  -24.5217  -11.5118   20.7167 C   0  0  0  0  0  0  0  0  0  0  0  0
  -23.7004  -13.9227   20.5730 C   0  0  0  0  0  0  0  0  0  0  0  0
  -18.1820  -29.3071   24.5915 C   0  0  0  0  0  0  0  0  0  0  0  0
  -24.6350  -26.7844   21.0038 C   0  0  0  0  0  0  0  0  0  0  0  0
  -19.2209  -29.4456   23.6513 C   0  0  0  0  0  0  0  0  0  0  0  0
  -25.5060  -26.6229   22.0907 C   0  0  0  0  0  0  0  0  0  0  0  0
  -31.0301  -21.4334   21.2850 C   0  0  0  0  0  0  0  0  0  0  0  0
  -24.4066   -8.8751   21.6205 C   0  0  0  0  0  0  0  0  0  0  0  0
  -27.3251  -27.5201   20.7505 C   0  0  0  0  0  0  0  0  0  0  0  0
  -23.1169   -6.9594   22.0555 C   0  0  0  0  0  0  0  0  0  0  0  0
  -30.2804  -21.5212   20.1174 C   0  0  0  0  0  0  0  0  0  0  0  0
  -20.6313   -5.6929   22.0462 C   0  0  0  0  0  0  0  0  0  0  0  0
  -22.9277   -5.8003   21.3030 C   0  0  0  0  0  0  0  0  0  0  0  0
  -24.5820  -12.8737   20.2502 C   0  0  0  0  0  0  0  0  0  0  0  0
  -30.6110  -23.8763   20.1441 C   0  0  0  0  0  0  0  0  0  0  0  0
  -24.1862  -15.0049   19.8806 C   0  0  0  0  0  0  0  0  0  0  0  0
  -22.5457  -13.9193   21.4229 C   0  0  0  0  0  0  0  0  0  0  0  0
  -22.4381  -27.7124   23.1053 C   0  0  0  0  0  0  0  0  0  0  0  0
  -28.5245  -18.1512   18.2776 C   0  0  0  0  0  0  0  0  0  0  0  0
  -23.0994  -24.8471   24.4746 C   0  0  0  0  0  0  0  0  0  0  0  0
  -25.3167  -22.2911   24.9187 C   0  0  0  0  0  0  0  0  0  0  0  0
  -18.4595  -28.9862   26.0388 C   0  0  0  0  0  0  0  0  0  0  0  0
  -23.1946  -26.3652   21.1131 C   0  0  0  0  0  0  0  0  0  0  0  0
  -25.0361  -26.0614   23.4069 C   0  0  0  0  0  0  0  0  0  0  0  0
  -19.8525  -28.4098   26.2786 C   0  0  0  0  0  0  0  0  0  0  0  0
  -27.6998  -15.3037   16.2648 C   0  0  0  0  0  0  0  0  0  0  0  0
  -20.9045  -29.2306   25.5394 C   0  0  0  0  0  0  0  0  0  0  0  0
  -26.7670  -14.4892   17.1602 C   0  0  0  0  0  0  0  0  0  0  0  0
  -28.7835  -16.0044   17.0782 C   0  0  0  0  0  0  0  0  0  0  0  0
  -27.3222  -16.0556   19.0741 C   0  0  0  0  0  0  0  0  0  0  0  0
  -20.6662  -29.1974   24.0249 C   0  0  1  0  0  0  0  0  0  0  0  0
  -22.6878  -26.3380   22.5518 C   0  0  1  0  0  0  0  0  0  0  0  0
  -26.1941  -15.3561   18.2953 C   0  0  2  0  0  0  0  0  0  0  0  0
  -31.2910  -20.1278   21.9516 C   0  0  0  0  0  0  0  0  0  0  0  0
  -25.5890  -20.1063   26.1228 C   0  0  0  0  0  0  0  0  0  0  0  0
  -23.5967  -26.3496   27.0832 C   0  0  0  0  0  0  0  0  0  0  0  0
  -24.7566  -24.3097   27.9559 C   0  0  0  0  0  0  0  0  0  0  0  0
  -22.3418  -24.2016   27.3395 C   0  0  0  0  0  0  0  0  0  0  0  0
  -25.6118  -20.7966   22.3813 C   0  0  0  0  0  0  0  0  0  0  0  0
  -27.8813  -18.9050   19.4143 C   0  0  0  0  0  0  0  0  0  0  0  0
  -30.7137  -27.4973   19.4744 C   0  0  0  0  0  0  0  0  0  0  0  0
  -28.3363  -20.3536   19.4011 C   0  0  0  0  0  0  0  0  0  0  0  0
  -29.2231  -27.7657   19.3387 C   0  0  0  0  0  0  0  0  0  1  0  0
  -30.9934  -26.2210   20.2524 C   0  0  0  0  0  0  0  0  0  0  0  0
  -24.0817  -24.3592   25.5119 C   0  0  1  0  0  0  0  0  0  0  0  0
  -25.1474  -20.7848   24.8355 C   0  0  2  0  0  0  0  0  0  0  0  0
  -23.7029  -24.8175   26.9486 C   0  0  0  0  0  0  0  0  0  0  0  0
  -31.3449  -23.8304   21.2786 N   0  0  0  0  0  0  0  0  0  0  0  0
  -25.5541  -13.2550   19.4173 N   0  0  0  0  0  0  0  0  0  0  0  0
  -25.2862  -14.5557   19.2109 N   0  0  0  0  0  0  0  0  0  0  0  0
  -23.6176  -25.6719   23.4661 N   0  0  0  0  0  0  0  0  0  0  0  0
  -28.1999  -16.7996   18.1600 N   0  0  0  0  0  0  0  0  0  0  0  0
  -23.7755  -16.2873   19.7852 N   0  0  0  0  0  0  0  0  0  0  0  0
  -22.1869  -12.7224   22.0577 N   0  0  0  0  0  0  0  0  0  0  0  0
  -21.1249  -27.9426   23.4685 N   0  0  0  0  0  0  0  0  0  0  0  0
  -24.1629  -22.9118   25.3484 N   0  0  0  0  0  0  0  0  0  0  0  0
  -25.9570  -20.2338   23.7121 N   0  3  0  0  0  0  0  0  0  0  0  0
  -21.8431  -14.9432   21.6007 O   0  0  0  0  0  0  0  0  0  0  0  0
  -23.3683  -28.5048   23.1974 O   0  0  0  0  0  0  0  0  0  0  0  0
  -29.2900  -18.7482   17.5161 O   0  0  0  0  0  0  0  0  0  0  0  0
  -21.9173  -24.5031   24.5521 O   0  0  0  0  0  0  0  0  0  0  0  0
  -26.3686  -22.8598   24.6347 O   0  0  0  0  0  0  0  0  0  0  0  0
  -24.3504   -7.5888   22.0619 O   0  0  0  0  0  0  0  0  0  0  0  0
  -28.6319  -27.8808   20.6324 O   0  0  0  0  0  0  0  0  0  1  0  0
  -29.7551  -20.4056   19.5395 O   0  0  0  0  0  0  0  0  0  0  0  0
  -30.4099  -25.1109   19.5839 O   0  0  0  0  0  0  0  0  0  0  0  0
  -19.4382   -5.0840   22.0430 F   0  0  0  0  0  0  0  0  0  0  0  0
  -23.9363   -5.2897   20.5835 F   0  0  0  0  0  0  0  0  0  0  0  0
  1  2  1  0  0  0  0
  1  5  2  0  0  0  0
  2  6  2  0  0  0  0
  3  8  2  0  0  0  0
  3 17  1  0  0  0  0
  4  9  1  0  0  0  0
  4 17  2  0  0  0  0
  5 19  1  0  0  0  0
  6 21  1  0  0  0  0
  7 10  2  0  0  0  0
  7 20  1  0  0  0  0
  8 24  1  0  0  0  0
  9 24  2  0  0  0  0
 10 25  1  0  0  0  0
 11 12  2  0  0  0  0
 11 26  1  0  0  0  0
 12 28  1  0  0  0  0
 13 22  1  0  0  0  0
 13 25  2  0  0  0  0
 14 27  2  0  0  0  0
 14 31  1  0  0  0  0
 15 28  2  0  0  0  0
 15 29  1  0  0  0  0
 16 23  2  0  0  0  0
 16 64  1  0  0  0  0
 17 30  1  0  0  0  0
 18 30  1  0  0  0  0
 18 32  2  0  0  0  0
 18 33  1  0  0  0  0
 19 21  2  0  0  0  0
 19 38  1  0  0  0  0
 20 22  2  0  0  0  0
 20 39  1  0  0  0  0
 21 47  1  0  0  0  0
 22 40  1  0  0  0  0
 23 27  1  0  0  0  0
 23 50  1  0  0  0  0
 24 79  1  0  0  0  0
 25 80  1  0  0  0  0
 26 29  2  0  0  0  0
 26 79  1  0  0  0  0
 27 81  1  0  0  0  0
 28 83  1  0  0  0  0
 29 84  1  0  0  0  0
 30 65  2  0  0  0  0
 31 64  2  0  0  0  0
 31 82  1  0  0  0  0
 32 66  1  0  0  0  0
 32 69  1  0  0  0  0
 33 70  1  0  0  0  0
 33 74  2  0  0  0  0
 34 48  1  0  0  0  0
 34 71  1  0  0  0  0
 34 75  2  0  0  0  0
 35 56  1  0  0  0  0
 35 68  1  0  0  0  0
 35 76  2  0  0  0  0
 36 61  1  0  0  0  0
 36 67  1  0  0  0  0
 36 77  2  0  0  0  0
 37 62  1  0  0  0  0
 37 72  1  0  0  0  0
 37 78  2  0  0  0  0
 38 41  1  0  0  0  0
 39 48  1  0  0  0  0
 40 67  1  0  0  0  0
 41 43  1  0  0  0  0
 42 44  1  0  0  0  0
 42 45  1  0  0  0  0
 43 47  1  0  0  0  0
 44 49  1  0  0  0  0
 45 68  1  0  0  0  0
 46 49  1  0  0  0  0
 46 68  1  0  0  0  0
 47 71  1  0  0  0  0
 48 67  1  0  0  0  0
 49 66  1  0  0  0  0
 51 62  1  0  0  0  0
 52 63  1  0  0  0  0
 53 63  1  0  0  0  0
 54 63  1  0  0  0  0
 55 73  1  0  0  0  0
 56 58  1  0  0  0  0
 57 59  1  0  0  0  0
 57 60  1  0  0  0  0
 58 81  1  0  0  0  0
 59 80  1  0  0  0  0
 60 82  1  0  0  0  0
 61 63  1  0  0  0  0
 61 72  1  0  0  0  0
 62 73  1  0  0  0  0
 65 66  1  0  0  0  0
M  CHG  1  73   1
M  ISO  4  35 100  56 100  59 101  80 101
M  END
> <Batch ID>
0134

> <Smiles>
CNC(C)C(=O)NC(C(=O)N1Cc2cc([101O:1][101CH2:1]CCOc3cc(OC[100CH2:0][100C:0](=O)N4CCCC(n5nc(-c6ccc(Oc7ccc(F)cc7F)cc6)c(C(N)=O)c5N)C4)c(C)cn3)ccc2CC1C(=O)NC1CCCc2ccccc21)C(C)(C)C

> <Shape>
0.234

> <Color>
0.102

> <Negative vol penalty>
0.000

$$$$

  -OEChem-04052302333D

 85 93  0     1  0  0  0  0  0999 V2000
  -28.0363  -37.4239   19.3293 C   0  0  0  0  0  0  0  0  0  0  0  0
  -28.4753  -36.1133   19.1717 C   0  0  0  0  0  0  0  0  0  0  0  0
  -22.9572  -10.1203   19.9010 C   0  0  0  0  0  0  0  0  0  0  0  0
  -24.0302   -9.6766   22.0197 C   0  0  0  0  0  0  0  0  0  0  0  0
  -29.7688  -17.4662   20.5230 C   0  0  0  0  0  0  0  0  0  0  0  0
  -27.1396  -37.7396   20.3492 C   0  0  0  0  0  0  0  0  0  0  0  0
  -28.0186  -35.1177   20.0346 C   0  0  0  0  0  0  0  0  0  0  0  0
  -26.9184  -29.2569   18.6395 C   0  0  0  0  0  0  0  0  0  0  0  0
  -22.2305   -8.9358   20.0210 C   0  0  0  0  0  0  0  0  0  0  0  0
  -23.3035   -8.4921   22.1397 C   0  0  0  0  0  0  0  0  0  0  0  0
  -29.0419  -18.6468   20.3706 C   0  0  0  0  0  0  0  0  0  0  0  0
  -27.6710  -28.0954   18.8078 C   0  0  0  0  0  0  0  0  0  0  0  0
  -20.1745   -7.5701   23.0231 C   0  0  0  0  0  0  0  0  0  0  0  0
  -19.5880   -7.2937   24.2580 C   0  0  0  0  0  0  0  0  0  0  0  0
  -26.4940  -27.6378   20.8632 C   0  0  0  0  0  0  0  0  0  0  0  0
  -27.8963  -18.2103   22.4525 C   0  0  0  0  0  0  0  0  0  0  0  0
  -20.8774   -5.2565   24.4144 C   0  0  0  0  0  0  0  0  0  0  0  0
  -23.8571  -10.4907   20.9004 C   0  0  0  0  0  0  0  0  0  0  0  0
  -29.5594  -16.6575   21.6401 C   0  0  0  0  0  0  0  0  0  0  0  0
  -24.2341  -12.9915   21.2341 C   0  0  0  0  0  0  0  0  0  0  0  0
  -26.6643  -36.7456   21.2191 C   0  0  0  0  0  0  0  0  0  0  0  0
  -25.9539  -29.6239   19.5890 C   0  0  0  0  0  0  0  0  0  0  0  0
  -27.1158  -35.4206   21.0680 C   0  0  0  0  0  0  0  0  0  0  0  0
  -25.7288  -28.8031   20.7033 C   0  0  0  0  0  0  0  0  0  0  0  0
  -28.6232  -17.0295   22.6048 C   0  0  0  0  0  0  0  0  0  0  0  0
  -22.4036   -8.1217   21.1403 C   0  0  0  0  0  0  0  0  0  0  0  0
  -27.4609  -27.2872   19.9213 C   0  0  0  0  0  0  0  0  0  0  0  0
  -28.1057  -19.0189   21.3353 C   0  0  0  0  0  0  0  0  0  0  0  0
  -21.1125   -6.6897   22.4837 C   0  0  0  0  0  0  0  0  0  0  0  0
  -19.9395   -6.1369   24.9537 C   0  0  0  0  0  0  0  0  0  0  0  0
  -21.4639   -5.5329   23.1794 C   0  0  0  0  0  0  0  0  0  0  0  0
  -24.6085  -11.7139   20.7767 C   0  0  0  0  0  0  0  0  0  0  0  0
  -25.2809  -13.8051   20.8753 C   0  0  0  0  0  0  0  0  0  0  0  0
  -30.3316  -15.4296   21.7734 C   0  0  0  0  0  0  0  0  0  0  0  0
  -23.0463  -13.4058   21.9220 C   0  0  0  0  0  0  0  0  0  0  0  0
  -30.7981  -14.6810   20.5838 C   0  0  0  0  0  0  0  0  0  0  0  0
  -25.5515  -32.1057   21.5339 C   0  0  0  0  0  0  0  0  0  0  0  0
  -22.7180  -30.6569   22.1618 C   0  0  0  0  0  0  0  0  0  0  0  0
  -20.8826  -27.7801   22.2086 C   0  0  0  0  0  0  0  0  0  0  0  0
  -25.7324  -37.1436   22.3362 C   0  0  0  0  0  0  0  0  0  0  0  0
  -25.1318  -30.8658   19.3792 C   0  0  0  0  0  0  0  0  0  0  0  0
  -24.6912  -29.1420   21.7412 C   0  0  0  0  0  0  0  0  0  0  0  0
  -25.0069  -35.9618   22.9743 C   0  0  0  0  0  0  0  0  0  0  0  0
  -29.2372  -12.9593   17.8532 C   0  0  0  0  0  0  0  0  0  0  0  0
  -25.9849  -34.8272   23.2622 C   0  0  0  0  0  0  0  0  0  0  0  0
  -27.8783  -12.5532   18.4224 C   0  0  0  0  0  0  0  0  0  0  0  0
  -30.3237  -12.9244   18.9231 C   0  0  0  0  0  0  0  0  0  0  0  0
  -28.6493  -13.3504   20.7018 C   0  0  0  0  0  0  0  0  0  0  0  0
  -26.6241  -34.3083   21.9685 C   0  0  1  0  0  0  0  0  0  0  0  0
  -24.5344  -31.4124   20.6721 C   0  0  1  0  0  0  0  0  0  0  0  0
  -27.5211  -13.4004   19.6567 C   0  0  2  0  0  0  0  0  0  0  0  0
  -29.0450  -16.7515   25.0607 C   0  0  0  0  0  0  0  0  0  0  0  0
  -18.6087  -26.9037   22.8075 C   0  0  0  0  0  0  0  0  0  0  0  0
  -23.4500  -30.7870   25.1211 C   0  0  0  0  0  0  0  0  0  0  0  0
  -21.6580  -29.0964   25.5671 C   0  0  0  0  0  0  0  0  0  0  0  0
  -21.0605  -31.3224   24.6129 C   0  0  0  0  0  0  0  0  0  0  0  0
  -20.3608  -26.9042   19.4302 C   0  0  0  0  0  0  0  0  0  0  0  0
  -28.3802  -16.1824   23.8112 C   0  0  0  0  0  0  0  0  0  0  0  0
  -28.1398  -23.7481   20.2952 C   0  0  0  0  0  0  0  0  0  0  0  0
  -27.4878  -22.5634   20.9995 C   0  0  0  0  0  0  0  0  0  0  0  0
  -27.5728  -25.0741   20.7848 C   0  0  0  0  0  0  0  0  0  1  0  0
  -28.0232  -21.2365   20.4802 C   0  0  0  0  0  0  0  0  0  0  0  0
  -22.2415  -29.6263   23.1568 C   0  0  1  0  0  0  0  0  0  0  0  0
  -19.4864  -27.4677   21.7010 C   0  0  2  0  0  0  0  0  0  0  0  0
  -22.1235  -30.2024   24.5961 C   0  0  0  0  0  0  0  0  0  0  0  0
  -25.8001  -11.7110   20.1732 N   0  0  0  0  0  0  0  0  0  0  0  0
  -30.6616  -14.9148   22.9257 N   0  0  0  0  0  0  0  0  0  0  0  0
  -26.1834  -12.9969   20.2489 N   0  0  0  0  0  0  0  0  0  0  0  0
  -29.9374  -13.7084   20.0945 N   0  0  0  0  0  0  0  0  0  0  0  0
  -23.9173  -30.3699   21.4946 N   0  0  0  0  0  0  0  0  0  0  0  0
  -25.5082  -15.1259   21.0376 N   0  0  0  0  0  0  0  0  0  0  0  0
  -22.0718  -12.4414   22.2127 N   0  0  0  0  0  0  0  0  0  0  0  0
  -25.7003  -33.4512   21.2568 N   0  0  0  0  0  0  0  0  0  0  0  0
  -20.9938  -29.0903   22.6235 N   0  0  0  0  0  0  0  0  0  0  0  0
  -19.5483  -26.4700   20.5957 N   0  3  0  0  0  0  0  0  0  0  0  0
  -22.8474  -14.5990   22.2540 O   0  0  0  0  0  0  0  0  0  0  0  0
  -31.8996  -15.0020   20.1572 O   0  0  0  0  0  0  0  0  0  0  0  0
  -26.1555  -31.4673   22.3879 O   0  0  0  0  0  0  0  0  0  0  0  0
  -22.0470  -31.6755   21.9780 O   0  0  0  0  0  0  0  0  0  0  0  0
  -21.7832  -26.9443   22.2378 O   0  0  0  0  0  0  0  0  0  0  0  0
  -21.6944   -6.9659   21.2578 O   0  0  0  0  0  0  0  0  0  0  0  0
  -28.1946  -26.1533   20.0883 O   0  0  0  0  0  0  0  0  0  1  0  0
  -27.3892  -20.1777   21.1844 O   0  0  0  0  0  0  0  0  0  0  0  0
  -19.3773   -5.8724   26.1404 F   0  0  0  0  0  0  0  0  0  0  0  0
  -22.3652   -4.6839   22.6668 F   0  0  0  0  0  0  0  0  0  0  0  0
  1  2  1  0  0  0  0
  1  6  2  0  0  0  0
  2  7  2  0  0  0  0
  3  9  2  0  0  0  0
  3 18  1  0  0  0  0
  4 10  1  0  0  0  0
  4 18  2  0  0  0  0
  5 11  2  0  0  0  0
  5 19  1  0  0  0  0
  6 21  1  0  0  0  0
  7 23  1  0  0  0  0
  8 12  2  0  0  0  0
  8 22  1  0  0  0  0
  9 26  1  0  0  0  0
 10 26  2  0  0  0  0
 11 28  1  0  0  0  0
 12 27  1  0  0  0  0
 13 14  2  0  0  0  0
 13 29  1  0  0  0  0
 14 30  1  0  0  0  0
 15 24  1  0  0  0  0
 15 27  2  0  0  0  0
 16 25  1  0  0  0  0
 16 28  2  0  0  0  0
 17 30  2  0  0  0  0
 17 31  1  0  0  0  0
 18 32  1  0  0  0  0
 19 25  2  0  0  0  0
 19 34  1  0  0  0  0
 20 32  1  0  0  0  0
 20 33  2  0  0  0  0
 20 35  1  0  0  0  0
 21 23  2  0  0  0  0
 21 40  1  0  0  0  0
 22 24  2  0  0  0  0
 22 41  1  0  0  0  0
 23 49  1  0  0  0  0
 24 42  1  0  0  0  0
 25 58  1  0  0  0  0
 26 81  1  0  0  0  0
 27 82  1  0  0  0  0
 28 83  1  0  0  0  0
 29 31  2  0  0  0  0
 29 81  1  0  0  0  0
 30 84  1  0  0  0  0
 31 85  1  0  0  0  0
 32 66  2  0  0  0  0
 33 68  1  0  0  0  0
 33 71  1  0  0  0  0
 34 36  1  0  0  0  0
 34 67  2  0  0  0  0
 35 72  1  0  0  0  0
 35 76  2  0  0  0  0
 36 69  1  0  0  0  0
 36 77  2  0  0  0  0
 37 50  1  0  0  0  0
 37 73  1  0  0  0  0
 37 78  2  0  0  0  0
 38 63  1  0  0  0  0
 38 70  1  0  0  0  0
 38 79  2  0  0  0  0
 39 64  1  0  0  0  0
 39 74  1  0  0  0  0
 39 80  2  0  0  0  0
 40 43  1  0  0  0  0
 41 50  1  0  0  0  0
 42 70  1  0  0  0  0
 43 45  1  0  0  0  0
 44 46  1  0  0  0  0
 44 47  1  0  0  0  0
 45 49  1  0  0  0  0
 46 51  1  0  0  0  0
 47 69  1  0  0  0  0
 48 51  1  0  0  0  0
 48 69  1  0  0  0  0
 49 73  1  0  0  0  0
 50 70  1  0  0  0  0
 51 68  1  0  0  0  0
 52 58  1  0  0  0  0
 53 64  1  0  0  0  0
 54 65  1  0  0  0  0
 55 65  1  0  0  0  0
 56 65  1  0  0  0  0
 57 75  1  0  0  0  0
 59 60  1  0  0  0  0
 59 61  1  0  0  0  0
 60 62  1  0  0  0  0
 61 82  1  0  0  0  0
 62 83  1  0  0  0  0
 63 65  1  0  0  0  0
 63 74  1  0  0  0  0
 64 75  1  0  0  0  0
 66 68  1  0  0  0  0
M  CHG  1  75   1
M  ISO  4  34 100  36 100  61 101  82 101
M  END
> <Batch ID>
0134

> <Smiles>
CCc1cc(OCCC[101CH2:1][101O:1]c2ccc3c(c2)CN(C(=O)C(NC(=O)C(C)NC)C(C)(C)C)C(C(=O)NC2CCCc4ccccc42)C3)ccc1[100C:0](=N)[100C:0](=O)N1CCCC(n2nc(-c3ccc(Oc4ccc(F)cc4F)cc3)c(C(N)=O)c2N)C1

> <Shape>
0.385

> <Color>
0.225

> <Negative vol penalty>
0.000

$$$$

  -OEChem-04052302333D

 84 92  0     1  0  0  0  0  0999 V2000
  -19.2127  -29.3512   25.6050 C   0  0  0  0  0  0  0  0  0  0  0  0
  -20.5728  -29.1869   25.3634 C   0  0  0  0  0  0  0  0  0  0  0  0
  -24.6783  -11.5645   20.7186 C   0  0  0  0  0  0  0  0  0  0  0  0
  -25.0325  -12.4098   22.9540 C   0  0  0  0  0  0  0  0  0  0  0  0
  -18.2794  -28.6856   24.8113 C   0  0  0  0  0  0  0  0  0  0  0  0
  -21.0005  -28.3560   24.3284 C   0  0  0  0  0  0  0  0  0  0  0  0
  -25.9171  -29.1483   20.7639 C   0  0  0  0  0  0  0  0  0  0  0  0
  -25.3920  -23.3317   22.9195 C   0  0  0  0  0  0  0  0  0  0  0  0
  -24.7064  -10.2587   21.2079 C   0  0  0  0  0  0  0  0  0  0  0  0
  -25.0605  -11.1039   23.4434 C   0  0  0  0  0  0  0  0  0  0  0  0
  -27.2014  -28.6072   20.8035 C   0  0  0  0  0  0  0  0  0  0  0  0
  -26.5005  -24.1686   23.0467 C   0  0  0  0  0  0  0  0  0  0  0  0
  -22.6047   -8.1569   22.8198 C   0  0  0  0  0  0  0  0  0  0  0  0
  -21.6247   -7.2737   22.3668 C   0  0  0  0  0  0  0  0  0  0  0  0
  -26.5371  -26.9290   19.2031 C   0  0  0  0  0  0  0  0  0  0  0  0
  -27.8326  -22.5959   21.7862 C   0  0  0  0  0  0  0  0  0  0  0  0
  -23.3411   -5.8301   21.4684 C   0  0  0  0  0  0  0  0  0  0  0  0
  -24.8414  -12.6401   21.5917 C   0  0  0  0  0  0  0  0  0  0  0  0
  -23.6866  -14.8225   20.9504 C   0  0  0  0  0  0  0  0  0  0  0  0
  -18.6957  -27.8537   23.7600 C   0  0  0  0  0  0  0  0  0  0  0  0
  -24.9284  -28.5762   19.9505 C   0  0  0  0  0  0  0  0  0  0  0  0
  -20.0720  -27.6776   23.5208 C   0  0  0  0  0  0  0  0  0  0  0  0
  -25.2418  -27.4663   19.1530 C   0  0  0  0  0  0  0  0  0  0  0  0
  -25.5037  -22.1267   22.2257 C   0  0  0  0  0  0  0  0  0  0  0  0
  -26.7241  -21.7589   21.6590 C   0  0  0  0  0  0  0  0  0  0  0  0
  -24.8975  -10.0283   22.5703 C   0  0  0  0  0  0  0  0  0  0  0  0
  -27.5108  -27.4957   20.0252 C   0  0  0  0  0  0  0  0  0  0  0  0
  -27.7208  -23.8008   22.4800 C   0  0  0  0  0  0  0  0  0  0  0  0
  -23.9529   -7.8767   22.5971 C   0  0  0  0  0  0  0  0  0  0  0  0
  -21.9929   -6.1103   21.6911 C   0  0  0  0  0  0  0  0  0  0  0  0
  -24.3211   -6.7133   21.9214 C   0  0  0  0  0  0  0  0  0  0  0  0
  -24.8131  -13.9893   21.0867 C   0  0  0  0  0  0  0  0  0  0  0  0
  -24.1853  -15.9918   20.4302 C   0  0  0  0  0  0  0  0  0  0  0  0
  -22.3123  -14.5628   21.2659 C   0  0  0  0  0  0  0  0  0  0  0  0
  -22.1091  -27.2049   20.4745 C   0  0  0  0  0  0  0  0  0  0  0  0
  -21.9428  -27.2089   17.2350 C   0  0  0  0  0  0  0  0  0  0  0  0
  -23.5944  -27.2738   14.2492 C   0  0  0  0  0  0  0  0  0  0  0  0
  -28.0055  -20.0415   20.3342 C   0  0  0  0  0  0  0  0  0  0  0  0
  -17.6508  -27.1179   22.9592 C   0  0  0  0  0  0  0  0  0  0  0  0
  -23.5553  -29.1881   19.8988 C   0  0  0  0  0  0  0  0  0  0  0  0
  -24.2219  -26.8272   18.2475 C   0  0  0  0  0  0  0  0  0  0  0  0
  -18.1792  -26.5499   21.6445 C   0  0  0  0  0  0  0  0  0  0  0  0
  -28.7501  -17.0666   18.5251 C   0  0  0  0  0  0  0  0  0  0  0  0
  -19.5082  -25.8351   21.8676 C   0  0  0  0  0  0  0  0  0  0  0  0
  -27.6995  -16.0694   19.0190 C   0  0  0  0  0  0  0  0  0  0  0  0
  -29.2265  -17.9898   19.6451 C   0  0  0  0  0  0  0  0  0  0  0  0
  -27.1073  -17.6905   20.8652 C   0  0  0  0  0  0  0  0  0  0  0  0
  -20.5747  -26.8042   22.3918 C   0  0  1  0  0  0  0  0  0  0  0  0
  -22.4836  -28.2117   19.4239 C   0  0  1  0  0  0  0  0  0  0  0  0
  -26.5495  -16.7818   19.7575 C   0  0  2  0  0  0  0  0  0  0  0  0
  -24.2997  -21.2501   22.1053 C   0  0  0  0  0  0  0  0  0  0  0  0
  -32.3530  -27.1392   20.1610 C   0  0  0  0  0  0  0  0  0  0  0  0
  -23.1900  -27.2281   11.7730 C   0  0  0  0  0  0  0  0  0  0  0  0
  -21.3756  -24.2146   17.3852 C   0  0  0  0  0  0  0  0  0  0  0  0
  -21.9227  -24.0594   14.9470 C   0  0  0  0  0  0  0  0  0  0  0  0
  -19.9986  -25.4542   15.7054 C   0  0  0  0  0  0  0  0  0  0  0  0
  -24.8469  -29.9294   13.8786 C   0  0  0  0  0  0  0  0  0  0  0  0
  -31.5249  -25.8710   20.3122 C   0  0  0  0  0  0  0  0  0  0  0  0
  -29.4884  -27.0968   21.2845 C   0  0  0  0  0  0  0  0  0  1  0  0
  -29.7641  -24.5879   21.5521 C   0  0  0  0  0  0  0  0  0  0  0  0
  -22.3571  -26.2535   16.1420 C   0  0  1  0  0  0  0  0  0  0  0  0
  -23.3822  -28.1077   12.9986 C   0  0  2  0  0  0  0  0  0  0  0  0
  -30.4884  -25.9405   21.4511 C   0  0  1  0  0  0  0  0  0  0  0  0
  -21.4324  -25.0060   16.0634 C   0  0  0  0  0  0  0  0  0  0  0  0
  -25.9423  -14.5791   20.6853 N   0  0  0  0  0  0  0  0  0  0  0  0
  -25.5278  -15.7954   20.2916 N   0  0  0  0  0  0  0  0  0  0  0  0
  -22.8917  -27.4581   18.2366 N   0  0  0  0  0  0  0  0  0  0  0  0
  -28.0833  -18.6332   20.2963 N   0  0  0  0  0  0  0  0  0  0  0  0
  -23.6020  -17.1584   20.0822 N   0  0  0  0  0  0  0  0  0  0  0  0
  -21.9732  -13.3092   21.7928 N   0  0  0  0  0  0  0  0  0  0  0  0
  -26.8577  -20.5391   20.9504 N   0  0  0  0  0  0  0  0  0  0  0  0
  -21.0916  -27.6187   21.3129 N   0  0  0  0  0  0  0  0  0  0  0  0
  -22.4090  -27.0374   14.9127 N   0  0  0  0  0  0  0  0  0  0  0  0
  -24.5565  -28.9940   12.7616 N   0  3  0  0  0  0  0  0  0  0  0  0
  -21.4093  -15.4113   21.0705 O   0  0  0  0  0  0  0  0  0  0  0  0
  -22.6987  -26.1316   20.5202 O   0  0  0  0  0  0  0  0  0  0  0  0
  -20.8211  -27.7209   17.1975 O   0  0  0  0  0  0  0  0  0  0  0  0
  -24.7005  -26.8691   14.6003 O   0  0  0  0  0  0  0  0  0  0  0  0
  -28.8785  -20.7534   19.8313 O   0  0  0  0  0  0  0  0  0  0  0  0
  -24.9246   -8.7542   23.0481 O   0  0  0  0  0  0  0  0  0  0  0  0
  -28.7634  -26.9651   20.0625 O   0  0  0  0  0  0  0  0  0  1  0  0
  -28.8097  -24.6234   22.6051 O   0  0  0  0  0  0  0  0  0  0  0  0
  -21.0518   -5.2615   21.2575 F   0  0  0  0  0  0  0  0  0  0  0  0
  -25.6147   -6.4382   21.7055 F   0  0  0  0  0  0  0  0  0  0  0  0
  1  2  1  0  0  0  0
  1  5  2  0  0  0  0
  2  6  2  0  0  0  0
  3  9  2  0  0  0  0
  3 18  1  0  0  0  0
  4 10  1  0  0  0  0
  4 18  2  0  0  0  0
  5 20  1  0  0  0  0
  6 22  1  0  0  0  0
  7 11  2  0  0  0  0
  7 21  1  0  0  0  0
  8 12  2  0  0  0  0
  8 24  1  0  0  0  0
  9 26  1  0  0  0  0
 10 26  2  0  0  0  0
 11 27  1  0  0  0  0
 12 28  1  0  0  0  0
 13 14  2  0  0  0  0
 13 29  1  0  0  0  0
 14 30  1  0  0  0  0
 15 23  1  0  0  0  0
 15 27  2  0  0  0  0
 16 25  1  0  0  0  0
 16 28  2  0  0  0  0
 17 30  2  0  0  0  0
 17 31  1  0  0  0  0
 18 32  1  0  0  0  0
 19 32  1  0  0  0  0
 19 33  2  0  0  0  0
 19 34  1  0  0  0  0
 20 22  2  0  0  0  0
 20 39  1  0  0  0  0
 21 23  2  0  0  0  0
 21 40  1  0  0  0  0
 22 48  1  0  0  0  0
 23 41  1  0  0  0  0
 24 25  2  0  0  0  0
 24 51  1  0  0  0  0
 25 71  1  0  0  0  0
 26 80  1  0  0  0  0
 27 81  1  0  0  0  0
 28 82  1  0  0  0  0
 29 31  2  0  0  0  0
 29 80  1  0  0  0  0
 30 83  1  0  0  0  0
 31 84  1  0  0  0  0
 32 65  2  0  0  0  0
 33 66  1  0  0  0  0
 33 69  1  0  0  0  0
 34 70  1  0  0  0  0
 34 75  2  0  0  0  0
 35 49  1  0  0  0  0
 35 72  1  0  0  0  0
 35 76  2  0  0  0  0
 36 61  1  0  0  0  0
 36 67  1  0  0  0  0
 36 77  2  0  0  0  0
 37 62  1  0  0  0  0
 37 73  1  0  0  0  0
 37 78  2  0  0  0  0
 38 68  1  0  0  0  0
 38 71  1  0  0  0  0
 38 79  2  0  0  0  0
 39 42  1  0  0  0  0
 40 49  1  0  0  0  0
 41 67  1  0  0  0  0
 42 44  1  0  0  0  0
 43 45  1  0  0  0  0
 43 46  1  0  0  0  0
 44 48  1  0  0  0  0
 45 50  1  0  0  0  0
 46 68  1  0  0  0  0
 47 50  1  0  0  0  0
 47 68  1  0  0  0  0
 48 72  1  0  0  0  0
 49 67  1  0  0  0  0
 50 66  1  0  0  0  0
 52 58  1  0  0  0  0
 53 62  1  0  0  0  0
 54 64  1  0  0  0  0
 55 64  1  0  0  0  0
 56 64  1  0  0  0  0
 57 74  1  0  0  0  0
 58 63  1  0  0  0  0
 59 63  1  0  0  0  0
 59 81  1  0  0  0  0
 60 63  1  0  0  0  0
 60 82  1  0  0  0  0
 61 64  1  0  0  0  0
 61 73  1  0  0  0  0
 62 74  1  0  0  0  0
 65 66  1  0  0  0  0
M  CHG  1  74   1
M  ISO  4  38 100  59 101  71 100  81 101
M  END
> <Batch ID>
0134

> <Smiles>
CCC(COc1ccc(C)c([100NH:0][100C:0](=O)N2CCCC(n3nc(-c4ccc(Oc5ccc(F)cc5F)cc4)c(C(N)=O)c3N)C2)c1)[101CH2:1][101O:1]c1ccc2c(c1)CN(C(=O)C(NC(=O)C(C)NC)C(C)(C)C)C(C(=O)NC1CCCc3ccccc31)C2

> <Shape>
0.250

> <Color>
0.087

> <Negative vol penalty>
0.000

$$$$

  -OEChem-04052302333D

 84 92  0     1  0  0  0  0  0999 V2000
  -30.0764  -34.3642   16.7574 C   0  0  0  0  0  0  0  0  0  0  0  0
  -30.2917  -33.0456   17.1450 C   0  0  0  0  0  0  0  0  0  0  0  0
  -24.5003   -8.6417   21.4222 C   0  0  0  0  0  0  0  0  0  0  0  0
  -23.6479  -10.6584   22.4437 C   0  0  0  0  0  0  0  0  0  0  0  0
  -29.2110  -35.1733   17.4925 C   0  0  0  0  0  0  0  0  0  0  0  0
  -29.6425  -32.5355   18.2687 C   0  0  0  0  0  0  0  0  0  0  0  0
  -27.6129  -26.8128   19.0669 C   0  0  0  0  0  0  0  0  0  0  0  0
  -30.4666  -18.4161   23.3010 C   0  0  0  0  0  0  0  0  0  0  0  0
  -30.3480  -17.3585   22.3993 C   0  0  0  0  0  0  0  0  0  0  0  0
  -23.9186   -7.8818   22.4370 C   0  0  0  0  0  0  0  0  0  0  0  0
  -23.0662   -9.8985   23.4585 C   0  0  0  0  0  0  0  0  0  0  0  0
  -28.1509  -25.7107   19.7299 C   0  0  0  0  0  0  0  0  0  0  0  0
  -20.8437   -6.7186   23.2273 C   0  0  0  0  0  0  0  0  0  0  0  0
  -20.1481   -5.5675   22.8576 C   0  0  0  0  0  0  0  0  0  0  0  0
  -26.8416  -26.2535   21.6819 C   0  0  0  0  0  0  0  0  0  0  0  0
  -27.9420  -17.5652   22.4733 C   0  0  0  0  0  0  0  0  0  0  0  0
  -21.6544   -4.2293   24.1909 C   0  0  0  0  0  0  0  0  0  0  0  0
  -24.3650  -10.0300   21.4255 C   0  0  0  0  0  0  0  0  0  0  0  0
  -24.3811  -11.1889   19.1530 C   0  0  0  0  0  0  0  0  0  0  0  0
  -28.5434  -34.6700   18.6202 C   0  0  0  0  0  0  0  0  0  0  0  0
  -26.6918  -27.6513   19.7112 C   0  0  0  0  0  0  0  0  0  0  0  0
  -28.7684  -33.3390   19.0204 C   0  0  0  0  0  0  0  0  0  0  0  0
  -26.2914  -27.3641   21.0240 C   0  0  0  0  0  0  0  0  0  0  0  0
  -29.3228  -19.0481   23.7890 C   0  0  0  0  0  0  0  0  0  0  0  0
  -29.0857  -16.9331   21.9854 C   0  0  0  0  0  0  0  0  0  0  0  0
  -23.2016   -8.5102   23.4551 C   0  0  0  0  0  0  0  0  0  0  0  0
  -27.7674  -25.4325   21.0386 C   0  0  0  0  0  0  0  0  0  0  0  0
  -21.9446   -6.6251   24.0787 C   0  0  0  0  0  0  0  0  0  0  0  0
  -20.5534   -4.3228   23.3395 C   0  0  0  0  0  0  0  0  0  0  0  0
  -28.0606  -18.6227   23.3751 C   0  0  0  0  0  0  0  0  0  0  0  0
  -22.3499   -5.3805   24.5605 C   0  0  0  0  0  0  0  0  0  0  0  0
  -24.9661  -10.8156   20.3778 C   0  0  0  0  0  0  0  0  0  0  0  0
  -25.3530  -11.9225   18.5178 C   0  0  0  0  0  0  0  0  0  0  0  0
  -23.0757  -10.8987   18.6358 C   0  0  0  0  0  0  0  0  0  0  0  0
  -26.6484  -30.7203   20.5375 C   0  0  0  0  0  0  0  0  0  0  0  0
  -23.5897  -30.0475   21.3822 C   0  0  0  0  0  0  0  0  0  0  0  0
  -21.2919  -27.7059   22.3223 C   0  0  0  0  0  0  0  0  0  0  0  0
  -29.9982  -15.1208   20.4923 C   0  0  0  0  0  0  0  0  0  0  0  0
  -27.6539  -35.5965   19.4108 C   0  0  0  0  0  0  0  0  0  0  0  0
  -26.1005  -28.8208   18.9730 C   0  0  0  0  0  0  0  0  0  0  0  0
  -25.2906  -28.2214   21.7532 C   0  0  0  0  0  0  0  0  0  0  0  0
  -26.7161  -34.8687   20.3706 C   0  0  0  0  0  0  0  0  0  0  0  0
  -30.1115  -12.3767   18.2264 C   0  0  0  0  0  0  0  0  0  0  0  0
  -27.4765  -33.8048   21.1558 C   0  0  0  0  0  0  0  0  0  0  0  0
  -28.7493  -11.7025   18.4051 C   0  0  0  0  0  0  0  0  0  0  0  0
  -30.6542  -12.9178   19.5480 C   0  0  0  0  0  0  0  0  0  0  0  0
  -28.3749  -13.1259   20.4596 C   0  0  0  0  0  0  0  0  0  0  0  0
  -28.0635  -32.7420   20.2191 C   0  0  1  0  0  0  0  0  0  0  0  0
  -25.5594  -29.9025   19.9028 C   0  0  1  0  0  0  0  0  0  0  0  0
  -27.7579  -12.6223   19.1445 C   0  0  2  0  0  0  0  0  0  0  0  0
  -30.1053  -19.7223   26.0741 C   0  0  0  0  0  0  0  0  0  0  0  0
  -18.8825  -27.4636   22.9808 C   0  0  0  0  0  0  0  0  0  0  0  0
  -24.2283  -31.2003   24.1342 C   0  0  0  0  0  0  0  0  0  0  0  0
  -22.1607  -30.0876   25.0031 C   0  0  0  0  0  0  0  0  0  0  0  0
  -21.9839  -31.8356   23.2323 C   0  0  0  0  0  0  0  0  0  0  0  0
  -20.7272  -25.9127   20.0366 C   0  0  0  0  0  0  0  0  0  0  0  0
  -29.5390  -22.0439   22.9862 C   0  0  0  0  0  0  0  0  0  0  0  0
  -30.2982  -23.2851   22.5055 C   0  0  0  0  0  0  0  0  0  0  0  0
  -30.2363  -21.4014   24.1921 C   0  0  0  0  0  0  0  0  0  0  0  0
  -29.6120  -23.9586   21.3232 C   0  0  0  0  0  0  0  0  0  1  0  0
  -29.4565  -20.2007   24.7693 C   0  0  1  0  0  0  0  0  0  0  0  0
  -22.9103  -29.5593   22.6388 C   0  0  1  0  0  0  0  0  0  0  0  0
  -19.8817  -27.4260   21.8349 C   0  0  2  0  0  0  0  0  0  0  0  0
  -22.8411  -30.6554   23.7393 C   0  0  0  0  0  0  0  0  0  0  0  0
  -26.2131  -11.2740   20.5146 N   0  0  0  0  0  0  0  0  0  0  0  0
  -26.4197  -11.9429   19.3674 N   0  0  0  0  0  0  0  0  0  0  0  0
  -24.7456  -29.3571   20.9911 N   0  0  0  0  0  0  0  0  0  0  0  0
  -29.6628  -13.7841   20.1895 N   0  0  0  0  0  0  0  0  0  0  0  0
  -25.3908  -12.5456   17.3208 N   0  0  0  0  0  0  0  0  0  0  0  0
  -22.2021  -10.1319   19.4189 N   0  0  0  0  0  0  0  0  0  0  0  0
  -28.9652  -15.8575   21.0709 N   0  0  0  0  0  0  0  0  0  0  0  0
  -27.0332  -31.8192   19.7932 N   0  0  0  0  0  0  0  0  0  0  0  0
  -21.6093  -29.0443   22.2258 N   0  0  0  0  0  0  0  0  0  0  0  0
  -19.8122  -26.0820   21.1947 N   0  3  0  0  0  0  0  0  0  0  0  0
  -22.7012  -11.2933   17.5056 O   0  0  0  0  0  0  0  0  0  0  0  0
  -27.1048  -30.3804   21.6228 O   0  0  0  0  0  0  0  0  0  0  0  0
  -23.1083  -31.0017   20.7662 O   0  0  0  0  0  0  0  0  0  0  0  0
  -22.0359  -26.8260   22.7497 O   0  0  0  0  0  0  0  0  0  0  0  0
  -31.1105  -15.5859   20.2310 O   0  0  0  0  0  0  0  0  0  0  0  0
  -22.6336   -7.7690   24.4454 O   0  0  0  0  0  0  0  0  0  0  0  0
  -28.2915  -24.3578   21.6883 O   0  0  0  0  0  0  0  0  0  1  0  0
  -19.8845   -3.2176   22.9856 F   0  0  0  0  0  0  0  0  0  0  0  0
  -26.9558  -19.2239   23.8383 F   0  0  0  0  0  0  0  0  0  0  0  0
  -23.4061   -5.2845   25.3797 F   0  0  0  0  0  0  0  0  0  0  0  0
  1  2  1  0  0  0  0
  1  5  2  0  0  0  0
  2  6  2  0  0  0  0
  3 10  2  0  0  0  0
  3 18  1  0  0  0  0
  4 11  1  0  0  0  0
  4 18  2  0  0  0  0
  5 20  1  0  0  0  0
  6 22  1  0  0  0  0
  7 12  2  0  0  0  0
  7 21  1  0  0  0  0
  8  9  2  0  0  0  0
  8 24  1  0  0  0  0
  9 25  1  0  0  0  0
 10 26  1  0  0  0  0
 11 26  2  0  0  0  0
 12 27  1  0  0  0  0
 13 14  2  0  0  0  0
 13 28  1  0  0  0  0
 14 29  1  0  0  0  0
 15 23  1  0  0  0  0
 15 27  2  0  0  0  0
 16 25  2  0  0  0  0
 16 30  1  0  0  0  0
 17 29  2  0  0  0  0
 17 31  1  0  0  0  0
 18 32  1  0  0  0  0
 19 32  1  0  0  0  0
 19 33  2  0  0  0  0
 19 34  1  0  0  0  0
 20 22  2  0  0  0  0
 20 39  1  0  0  0  0
 21 23  2  0  0  0  0
 21 40  1  0  0  0  0
 22 48  1  0  0  0  0
 23 41  1  0  0  0  0
 24 30  2  0  0  0  0
 24 61  1  0  0  0  0
 25 71  1  0  0  0  0
 26 80  1  0  0  0  0
 27 81  1  0  0  0  0
 28 31  2  0  0  0  0
 28 80  1  0  0  0  0
 29 82  1  0  0  0  0
 30 83  1  0  0  0  0
 31 84  1  0  0  0  0
 32 65  2  0  0  0  0
 33 66  1  0  0  0  0
 33 69  1  0  0  0  0
 34 70  1  0  0  0  0
 34 75  2  0  0  0  0
 35 49  1  0  0  0  0
 35 72  1  0  0  0  0
 35 76  2  0  0  0  0
 36 62  1  0  0  0  0
 36 67  1  0  0  0  0
 36 77  2  0  0  0  0
 37 63  1  0  0  0  0
 37 73  1  0  0  0  0
 37 78  2  0  0  0  0
 38 68  1  0  0  0  0
 38 71  1  0  0  0  0
 38 79  2  0  0  0  0
 39 42  1  0  0  0  0
 40 49  1  0  0  0  0
 41 67  1  0  0  0  0
 42 44  1  0  0  0  0
 43 45  1  0  0  0  0
 43 46  1  0  0  0  0
 44 48  1  0  0  0  0
 45 50  1  0  0  0  0
 46 68  1  0  0  0  0
 47 50  1  0  0  0  0
 47 68  1  0  0  0  0
 48 72  1  0  0  0  0
 49 67  1  0  0  0  0
 50 66  1  0  0  0  0
 51 61  1  0  0  0  0
 52 63  1  0  0  0  0
 53 64  1  0  0  0  0
 54 64  1  0  0  0  0
 55 64  1  0  0  0  0
 56 74  1  0  0  0  0
 57 58  1  0  0  0  0
 57 59  1  0  0  0  0
 58 60  1  0  0  0  0
 59 61  1  0  0  0  0
 60 81  1  0  0  0  0
 62 64  1  0  0  0  0
 62 73  1  0  0  0  0
 63 74  1  0  0  0  0
 65 66  1  0  0  0  0
M  CHG  1  74   1
M  ISO  4  38 100  60 101  71 100  81 101
M  END
> <Batch ID>
0134

> <Smiles>
CNC(C)C(=O)NC(C(=O)N1Cc2cc([101O:1][101CH2:1]CCCC(C)c3ccc([100NH:0][100C:0](=O)N4CCCC(n5nc(-c6ccc(Oc7ccc(F)cc7F)cc6)c(C(N)=O)c5N)C4)cc3F)ccc2CC1C(=O)NC1CCCc2ccccc21)C(C)(C)C

> <Shape>
0.267

> <Color>
0.090

> <Negative vol penalty>
0.000

$$$$

  -OEChem-04052302333D

 85 93  0     1  0  0  0  0  0999 V2000
  -19.4605  -12.6833   30.7438 C   0  0  0  0  0  0  0  0  0  0  0  0
  -20.3217  -13.7397   30.4649 C   0  0  0  0  0  0  0  0  0  0  0  0
  -32.6749  -17.4662   23.4342 C   0  0  0  0  0  0  0  0  0  0  0  0
  -23.0755   -9.8686   19.9409 C   0  0  0  0  0  0  0  0  0  0  0  0
  -23.8353   -9.8749   22.2343 C   0  0  0  0  0  0  0  0  0  0  0  0
  -18.1561  -12.9410   31.1632 C   0  0  0  0  0  0  0  0  0  0  0  0
  -19.8786  -15.0545   30.6043 C   0  0  0  0  0  0  0  0  0  0  0  0
  -23.2500  -18.0003   32.9708 C   0  0  0  0  0  0  0  0  0  0  0  0
  -31.8957  -18.3415   24.1908 C   0  0  0  0  0  0  0  0  0  0  0  0
  -32.0665  -16.5901   22.5353 C   0  0  0  0  0  0  0  0  0  0  0  0
  -22.3312   -8.7156   20.1906 C   0  0  0  0  0  0  0  0  0  0  0  0
  -23.0910   -8.7219   22.4840 C   0  0  0  0  0  0  0  0  0  0  0  0
  -24.3358  -18.4533   32.2227 C   0  0  0  0  0  0  0  0  0  0  0  0
  -21.1051   -5.9852   23.8201 C   0  0  0  0  0  0  0  0  0  0  0  0
  -20.3488   -5.9417   24.9912 C   0  0  0  0  0  0  0  0  0  0  0  0
  -23.2374  -20.5807   31.9278 C   0  0  0  0  0  0  0  0  0  0  0  0
  -19.1049   -7.8795   24.2600 C   0  0  0  0  0  0  0  0  0  0  0  0
  -23.8276  -10.4482   20.9627 C   0  0  0  0  0  0  0  0  0  0  0  0
  -24.1702  -12.9732   20.8431 C   0  0  0  0  0  0  0  0  0  0  0  0
  -17.6997  -14.2596   31.3172 C   0  0  0  0  0  0  0  0  0  0  0  0
  -22.1432  -18.8318   33.1943 C   0  0  0  0  0  0  0  0  0  0  0  0
  -18.5664  -15.3300   31.0250 C   0  0  0  0  0  0  0  0  0  0  0  0
  -22.1400  -20.1368   32.6813 C   0  0  0  0  0  0  0  0  0  0  0  0
  -30.5081  -18.3407   24.0485 C   0  0  0  0  0  0  0  0  0  0  0  0
  -29.8997  -17.4646   23.1496 C   0  0  0  0  0  0  0  0  0  0  0  0
  -30.6789  -16.5893   22.3930 C   0  0  0  0  0  0  0  0  0  0  0  0
  -22.3390   -8.1423   21.4622 C   0  0  0  0  0  0  0  0  0  0  0  0
  -24.3283  -19.7426   31.6986 C   0  0  0  0  0  0  0  0  0  0  0  0
  -20.8614   -6.9759   22.8689 C   0  0  0  0  0  0  0  0  0  0  0  0
  -19.3487   -6.8888   25.2112 C   0  0  0  0  0  0  0  0  0  0  0  0
  -19.8613   -7.9230   23.0888 C   0  0  0  0  0  0  0  0  0  0  0  0
  -24.5970  -11.6389   20.7052 C   0  0  0  0  0  0  0  0  0  0  0  0
  -25.2626  -13.7224   20.4800 C   0  0  0  0  0  0  0  0  0  0  0  0
  -22.8999  -13.4894   21.2621 C   0  0  0  0  0  0  0  0  0  0  0  0
  -19.0547  -18.7024   32.4539 C   0  0  0  0  0  0  0  0  0  0  0  0
  -18.8999  -21.3645   34.3009 C   0  0  0  0  0  0  0  0  0  0  0  0
  -20.5094  -24.0603   35.6385 C   0  0  0  0  0  0  0  0  0  0  0  0
  -30.7291  -14.7663   20.6551 C   0  0  0  0  0  0  0  0  0  0  0  0
  -16.2666  -14.4885   31.7277 C   0  0  0  0  0  0  0  0  0  0  0  0
  -20.9915  -18.3375   34.0260 C   0  0  0  0  0  0  0  0  0  0  0  0
  -20.9848  -21.0758   32.9097 C   0  0  0  0  0  0  0  0  0  0  0  0
  -15.9911  -15.9101   32.2108 C   0  0  0  0  0  0  0  0  0  0  0  0
  -29.6140  -12.3532   18.2864 C   0  0  0  0  0  0  0  0  0  0  0  0
  -16.6064  -16.9273   31.2550 C   0  0  0  0  0  0  0  0  0  0  0  0
  -28.1743  -12.0620   18.7158 C   0  0  0  0  0  0  0  0  0  0  0  0
  -30.5292  -12.5815   19.4881 C   0  0  0  0  0  0  0  0  0  0  0  0
  -28.6224  -13.3064   20.8694 C   0  0  0  0  0  0  0  0  0  0  0  0
  -18.1303  -16.7699   31.1882 C   0  0  1  0  0  0  0  0  0  0  0  0
  -19.6931  -19.0919   33.7571 C   0  0  1  0  0  0  0  0  0  0  0  0
  -27.6496  -13.1336   19.6915 C   0  0  2  0  0  0  0  0  0  0  0  0
  -27.9606  -18.1855   21.7330 C   0  0  0  0  0  0  0  0  0  0  0  0
  -20.1112  -26.0791   37.0749 C   0  0  0  0  0  0  0  0  0  0  0  0
  -17.5306  -22.7588   31.9577 C   0  0  0  0  0  0  0  0  0  0  0  0
  -18.0169  -24.9497   33.0675 C   0  0  0  0  0  0  0  0  0  0  0  0
  -16.5499  -23.2790   34.1987 C   0  0  0  0  0  0  0  0  0  0  0  0
  -22.4449  -23.1350   37.6773 C   0  0  0  0  0  0  0  0  0  0  0  0
  -29.6897  -19.2972   24.8787 C   0  0  0  0  0  0  0  0  0  0  0  0
  -28.4105  -17.4674   23.0004 C   0  0  0  0  0  0  0  0  0  0  0  0
  -29.0222  -18.6465   26.0956 C   0  0  0  0  0  0  0  0  0  0  0  0
  -28.1844  -19.6319   26.9182 C   0  0  0  0  0  0  0  0  0  0  0  0
  -27.5145  -18.9317   28.1035 C   0  0  0  0  0  0  0  0  0  0  0  0
  -26.7208  -19.8839   28.9985 C   0  0  0  0  0  0  0  0  0  0  0  0
  -26.1183  -19.2123   30.2252 C   0  0  0  0  0  0  0  0  0  1  0  0
  -19.0368  -22.8473   34.0528 C   0  0  1  0  0  0  0  0  0  0  0  0
  -20.5364  -24.6192   37.0496 C   0  0  2  0  0  0  0  0  0  0  0  0
  -17.8046  -23.4406   33.3130 C   0  0  0  0  0  0  0  0  0  0  0  0
  -25.8619  -11.5427   20.2869 N   0  0  0  0  0  0  0  0  0  0  0  0
  -26.2392  -12.8262   20.1589 N   0  0  0  0  0  0  0  0  0  0  0  0
  -19.8796  -20.5439   33.7240 N   0  0  0  0  0  0  0  0  0  0  0  0
  -29.9705  -13.6124   20.3656 N   0  0  0  0  0  0  0  0  0  0  0  0
  -25.4734  -15.0539   20.4073 N   0  0  0  0  0  0  0  0  0  0  0  0
  -21.8877  -12.5805   21.5992 N   0  0  0  0  0  0  0  0  0  0  0  0
  -30.0820  -15.6914   21.4737 N   0  0  0  0  0  0  0  0  0  0  0  0
  -18.7508  -17.3579   32.3559 N   0  0  0  0  0  0  0  0  0  0  0  0
  -19.3039  -23.4556   35.3516 N   0  0  0  0  0  0  0  0  0  0  0  0
  -21.9097  -24.5197   37.6199 N   0  3  0  0  0  0  0  0  0  0  0  0
  -22.6640  -14.7201   21.3197 O   0  0  0  0  0  0  0  0  0  0  0  0
  -18.8514  -19.5585   31.6010 O   0  0  0  0  0  0  0  0  0  0  0  0
  -17.9625  -20.9502   34.9874 O   0  0  0  0  0  0  0  0  0  0  0  0
  -21.4611  -24.1543   34.8664 O   0  0  0  0  0  0  0  0  0  0  0  0
  -31.8583  -14.9347   20.1876 O   0  0  0  0  0  0  0  0  0  0  0  0
  -21.6127   -7.0174   21.7063 O   0  0  0  0  0  0  0  0  0  0  0  0
  -25.3865  -20.1870   30.9674 O   0  0  0  0  0  0  0  0  0  1  0  0
  -18.6214   -6.8459   26.3352 F   0  0  0  0  0  0  0  0  0  0  0  0
  -19.6217   -8.8765   22.1781 F   0  0  0  0  0  0  0  0  0  0  0  0
  1  2  1  0  0  0  0
  1  6  2  0  0  0  0
  2  7  2  0  0  0  0
  3  9  1  0  0  0  0
  3 10  2  0  0  0  0
  4 11  2  0  0  0  0
  4 18  1  0  0  0  0
  5 12  1  0  0  0  0
  5 18  2  0  0  0  0
  6 20  1  0  0  0  0
  7 22  1  0  0  0  0
  8 13  2  0  0  0  0
  8 21  1  0  0  0  0
  9 24  2  0  0  0  0
 10 26  1  0  0  0  0
 11 27  1  0  0  0  0
 12 27  2  0  0  0  0
 13 28  1  0  0  0  0
 14 15  2  0  0  0  0
 14 29  1  0  0  0  0
 15 30  1  0  0  0  0
 16 23  1  0  0  0  0
 16 28  2  0  0  0  0
 17 30  2  0  0  0  0
 17 31  1  0  0  0  0
 18 32  1  0  0  0  0
 19 32  1  0  0  0  0
 19 33  2  0  0  0  0
 19 34  1  0  0  0  0
 20 22  2  0  0  0  0
 20 39  1  0  0  0  0
 21 23  2  0  0  0  0
 21 40  1  0  0  0  0
 22 48  1  0  0  0  0
 23 41  1  0  0  0  0
 24 25  1  0  0  0  0
 24 57  1  0  0  0  0
 25 26  2  0  0  0  0
 25 58  1  0  0  0  0
 26 73  1  0  0  0  0
 27 82  1  0  0  0  0
 28 83  1  0  0  0  0
 29 31  2  0  0  0  0
 29 82  1  0  0  0  0
 30 84  1  0  0  0  0
 31 85  1  0  0  0  0
 32 67  2  0  0  0  0
 33 68  1  0  0  0  0
 33 71  1  0  0  0  0
 34 72  1  0  0  0  0
 34 77  2  0  0  0  0
 35 49  1  0  0  0  0
 35 74  1  0  0  0  0
 35 78  2  0  0  0  0
 36 64  1  0  0  0  0
 36 69  1  0  0  0  0
 36 79  2  0  0  0  0
 37 65  1  0  0  0  0
 37 75  1  0  0  0  0
 37 80  2  0  0  0  0
 38 70  1  0  0  0  0
 38 73  1  0  0  0  0
 38 81  2  0  0  0  0
 39 42  1  0  0  0  0
 40 49  1  0  0  0  0
 41 69  1  0  0  0  0
 42 44  1  0  0  0  0
 43 45  1  0  0  0  0
 43 46  1  0  0  0  0
 44 48  1  0  0  0  0
 45 50  1  0  0  0  0
 46 70  1  0  0  0  0
 47 50  1  0  0  0  0
 47 70  1  0  0  0  0
 48 74  1  0  0  0  0
 49 69  1  0  0  0  0
 50 68  1  0  0  0  0
 51 58  1  0  0  0  0
 52 65  1  0  0  0  0
 53 66  1  0  0  0  0
 54 66  1  0  0  0  0
 55 66  1  0  0  0  0
 56 76  1  0  0  0  0
 57 59  1  0  0  0  0
 59 60  1  0  0  0  0
 60 61  1  0  0  0  0
 61 62  1  0  0  0  0
 62 63  1  0  0  0  0
 63 83  1  0  0  0  0
 64 66  1  0  0  0  0
 64 75  1  0  0  0  0
 65 76  1  0  0  0  0
 67 68  1  0  0  0  0
M  CHG  1  76   1
M  ISO  4  38 100  63 101  73 100  83 101
M  END
> <Batch ID>
0134

> <Smiles>
CCc1c(CCCCC[101CH2:1][101O:1]c2ccc3c(c2)CN(C(=O)C(NC(=O)C(C)NC)C(C)(C)C)C(C(=O)NC2CCCc4ccccc42)C3)cccc1[100NH:0][100C:0](=O)N1CCCC(n2nc(-c3ccc(Oc4ccc(F)cc4F)cc3)c(C(N)=O)c2N)C1

> <Shape>
0.164

> <Color>
0.192

> <Negative vol penalty>
0.000

$$$$

  -OEChem-04052302333D

 84 92  0     1  0  0  0  0  0999 V2000
  -27.0803  -32.2210   27.8617 C   0  0  0  0  0  0  0  0  0  0  0  0
  -27.4641  -31.3323   26.8625 C   0  0  0  0  0  0  0  0  0  0  0  0
  -24.6033  -12.5097   19.7569 C   0  0  0  0  0  0  0  0  0  0  0  0
  -25.4700  -13.3101   21.8653 C   0  0  0  0  0  0  0  0  0  0  0  0
  -25.7294  -32.3881   28.1632 C   0  0  0  0  0  0  0  0  0  0  0  0
  -26.4972  -30.6093   26.1650 C   0  0  0  0  0  0  0  0  0  0  0  0
  -27.3354  -30.5598   21.1710 C   0  0  0  0  0  0  0  0  0  0  0  0
  -29.7277  -22.5571   22.9674 C   0  0  0  0  0  0  0  0  0  0  0  0
  -28.8498  -21.6703   23.5907 C   0  0  0  0  0  0  0  0  0  0  0  0
  -25.2461  -11.2880   19.9565 C   0  0  0  0  0  0  0  0  0  0  0  0
  -26.1128  -12.0884   22.0649 C   0  0  0  0  0  0  0  0  0  0  0  0
  -28.3166  -29.6892   20.6987 C   0  0  0  0  0  0  0  0  0  0  0  0
  -26.3629   -7.8308   20.0809 C   0  0  0  0  0  0  0  0  0  0  0  0
  -25.6402   -6.6671   19.8179 C   0  0  0  0  0  0  0  0  0  0  0  0
  -26.6036  -28.1182   20.0531 C   0  0  0  0  0  0  0  0  0  0  0  0
  -28.6008  -22.1927   20.8616 C   0  0  0  0  0  0  0  0  0  0  0  0
  -24.0112   -7.3020   21.4853 C   0  0  0  0  0  0  0  0  0  0  0  0
  -24.7153  -13.5208   20.7113 C   0  0  0  0  0  0  0  0  0  0  0  0
  -22.7495  -15.1347   20.9076 C   0  0  0  0  0  0  0  0  0  0  0  0
  -24.7447  -31.6739   27.4623 C   0  0  0  0  0  0  0  0  0  0  0  0
  -25.9792  -30.2107   21.0977 C   0  0  0  0  0  0  0  0  0  0  0  0
  -25.1318  -30.7660   26.4582 C   0  0  0  0  0  0  0  0  0  0  0  0
  -25.6070  -28.9872   20.5229 C   0  0  0  0  0  0  0  0  0  0  0  0
  -29.6032  -22.8183   21.6029 C   0  0  0  0  0  0  0  0  0  0  0  0
  -27.8474  -21.0447   22.8495 C   0  0  0  0  0  0  0  0  0  0  0  0
  -27.7229  -21.3059   21.4849 C   0  0  0  0  0  0  0  0  0  0  0  0
  -26.0008  -11.0773   21.1104 C   0  0  0  0  0  0  0  0  0  0  0  0
  -27.9510  -28.4670   20.1423 C   0  0  0  0  0  0  0  0  0  0  0  0
  -25.9098   -8.7300   21.0462 C   0  0  0  0  0  0  0  0  0  0  0  0
  -24.4643   -6.4027   20.5200 C   0  0  0  0  0  0  0  0  0  0  0  0
  -24.7339   -8.4656   21.7484 C   0  0  0  0  0  0  0  0  0  0  0  0
  -24.0520  -14.7832   20.5054 C   0  0  0  0  0  0  0  0  0  0  0  0
  -22.5959  -16.4307   20.4796 C   0  0  0  0  0  0  0  0  0  0  0  0
  -21.7663  -14.3590   21.6058 C   0  0  0  0  0  0  0  0  0  0  0  0
  -23.6677  -29.7332   23.2267 C   0  0  0  0  0  0  0  0  0  0  0  0
  -21.8141  -29.4767   20.5771 C   0  0  0  0  0  0  0  0  0  0  0  0
  -21.6098  -28.7970   17.2389 C   0  0  0  0  0  0  0  0  0  0  0  0
  -26.4647  -20.8428   19.3521 C   0  0  0  0  0  0  0  0  0  0  0  0
  -23.2998  -31.8528   27.8560 C   0  0  0  0  0  0  0  0  0  0  0  0
  -24.9314  -31.1724   21.5873 C   0  0  0  0  0  0  0  0  0  0  0  0
  -24.1636  -28.5741   20.4024 C   0  0  0  0  0  0  0  0  0  0  0  0
  -22.3153  -31.3272   26.8145 C   0  0  0  0  0  0  0  0  0  0  0  0
  -24.0966  -19.4557   17.0838 C   0  0  0  0  0  0  0  0  0  0  0  0
  -22.7340  -29.9406   26.3359 C   0  0  0  0  0  0  0  0  0  0  0  0
  -23.6934  -18.1349   17.7434 C   0  0  0  0  0  0  0  0  0  0  0  0
  -25.5772  -19.7665   17.2956 C   0  0  0  0  0  0  0  0  0  0  0  0
  -25.6214  -18.4129   19.3535 C   0  0  0  0  0  0  0  0  0  0  0  0
  -24.1110  -29.9820   25.6624 C   0  0  1  0  0  0  0  0  0  0  0  0
  -23.6099  -30.4921   21.9312 C   0  0  1  0  0  0  0  0  0  0  0  0
  -24.1242  -18.0891   19.2225 C   0  0  2  0  0  0  0  0  0  0  0  0
  -26.9217  -20.0987   23.5433 C   0  0  0  0  0  0  0  0  0  0  0  0
  -19.9546  -28.6314   15.3600 C   0  0  0  0  0  0  0  0  0  0  0  0
  -20.8618  -26.7863   21.6563 C   0  0  0  0  0  0  0  0  0  0  0  0
  -19.9929  -26.2551   19.3692 C   0  0  0  0  0  0  0  0  0  0  0  0
  -19.0660  -28.1950   20.6341 C   0  0  0  0  0  0  0  0  0  0  0  0
  -31.0940  -25.9024   18.7675 C   0  0  0  0  0  0  0  0  0  0  0  0
  -32.2654  -26.4205   20.9232 C   0  0  0  0  0  0  0  0  0  0  0  0
  -22.9485  -30.9523   15.7153 C   0  0  0  0  0  0  0  0  0  0  0  0
  -30.5538  -23.7784   20.9291 C   0  0  0  0  0  0  0  0  0  0  0  0
  -30.0170  -25.2161   20.9680 C   0  0  0  0  0  0  0  0  0  0  0  0
  -30.1787  -27.6551   20.3268 C   0  0  0  0  0  0  0  0  0  1  0  0
  -21.3979  -28.3448   19.6690 C   0  0  1  0  0  0  0  0  0  0  0  0
  -20.9283  -29.5348   16.1006 C   0  0  2  0  0  0  0  0  0  0  0  0
  -20.3570  -27.4020   20.3360 C   0  0  0  0  0  0  0  0  0  0  0  0
  -30.8902  -26.2820   20.2462 C   0  0  0  0  0  0  0  0  0  0  0  0
  -24.6810  -15.7758   19.8706 N   0  0  0  0  0  0  0  0  0  0  0  0
  -23.7699  -16.7637   19.8705 N   0  0  0  0  0  0  0  0  0  0  0  0
  -23.1765  -29.5459   20.9011 N   0  0  0  0  0  0  0  0  0  0  0  0
  -25.9114  -19.7090   18.7204 N   0  0  0  0  0  0  0  0  0  0  0  0
  -21.5725  -17.3066   20.5686 N   0  0  0  0  0  0  0  0  0  0  0  0
  -22.0884  -13.0449   21.9714 N   0  0  0  0  0  0  0  0  0  0  0  0
  -26.7107  -20.6808   20.7151 N   0  0  0  0  0  0  0  0  0  0  0  0
  -24.0011  -30.5104   24.3196 N   0  0  0  0  0  0  0  0  0  0  0  0
  -20.9367  -28.9634   18.4308 N   0  0  0  0  0  0  0  0  0  0  0  0
  -21.9405  -30.0332   15.1269 N   0  3  0  0  0  0  0  0  0  0  0  0
  -20.6297  -14.8121   21.8822 O   0  0  0  0  0  0  0  0  0  0  0  0
  -23.4262  -28.5319   23.2345 O   0  0  0  0  0  0  0  0  0  0  0  0
  -20.9630  -30.2744   20.9782 O   0  0  0  0  0  0  0  0  0  0  0  0
  -22.6345  -28.1360   17.0854 O   0  0  0  0  0  0  0  0  0  0  0  0
  -26.6774  -21.8901   18.7356 O   0  0  0  0  0  0  0  0  0  0  0  0
  -26.6280   -9.8852   21.3056 O   0  0  0  0  0  0  0  0  0  0  0  0
  -28.9068  -27.6152   19.6811 O   0  0  0  0  0  0  0  0  0  1  0  0
  -23.7696   -5.2860   20.2663 F   0  0  0  0  0  0  0  0  0  0  0  0
  -24.2930   -9.3264   22.6760 F   0  0  0  0  0  0  0  0  0  0  0  0
  1  2  1  0  0  0  0
  1  5  2  0  0  0  0
  2  6  2  0  0  0  0
  3 10  2  0  0  0  0
  3 18  1  0  0  0  0
  4 11  1  0  0  0  0
  4 18  2  0  0  0  0
  5 20  1  0  0  0  0
  6 22  1  0  0  0  0
  7 12  2  0  0  0  0
  7 21  1  0  0  0  0
  8  9  2  0  0  0  0
  8 24  1  0  0  0  0
  9 25  1  0  0  0  0
 10 27  1  0  0  0  0
 11 27  2  0  0  0  0
 12 28  1  0  0  0  0
 13 14  2  0  0  0  0
 13 29  1  0  0  0  0
 14 30  1  0  0  0  0
 15 23  1  0  0  0  0
 15 28  2  0  0  0  0
 16 24  2  0  0  0  0
 16 26  1  0  0  0  0
 17 30  2  0  0  0  0
 17 31  1  0  0  0  0
 18 32  1  0  0  0  0
 19 32  1  0  0  0  0
 19 33  2  0  0  0  0
 19 34  1  0  0  0  0
 20 22  2  0  0  0  0
 20 39  1  0  0  0  0
 21 23  2  0  0  0  0
 21 40  1  0  0  0  0
 22 48  1  0  0  0  0
 23 41  1  0  0  0  0
 24 59  1  0  0  0  0
 25 26  2  0  0  0  0
 25 51  1  0  0  0  0
 26 72  1  0  0  0  0
 27 81  1  0  0  0  0
 28 82  1  0  0  0  0
 29 31  2  0  0  0  0
 29 81  1  0  0  0  0
 30 83  1  0  0  0  0
 31 84  1  0  0  0  0
 32 66  2  0  0  0  0
 33 67  1  0  0  0  0
 33 70  1  0  0  0  0
 34 71  1  0  0  0  0
 34 76  2  0  0  0  0
 35 49  1  0  0  0  0
 35 73  1  0  0  0  0
 35 77  2  0  0  0  0
 36 62  1  0  0  0  0
 36 68  1  0  0  0  0
 36 78  2  0  0  0  0
 37 63  1  0  0  0  0
 37 74  1  0  0  0  0
 37 79  2  0  0  0  0
 38 69  1  0  0  0  0
 38 72  1  0  0  0  0
 38 80  2  0  0  0  0
 39 42  1  0  0  0  0
 40 49  1  0  0  0  0
 41 68  1  0  0  0  0
 42 44  1  0  0  0  0
 43 45  1  0  0  0  0
 43 46  1  0  0  0  0
 44 48  1  0  0  0  0
 45 50  1  0  0  0  0
 46 69  1  0  0  0  0
 47 50  1  0  0  0  0
 47 69  1  0  0  0  0
 48 73  1  0  0  0  0
 49 68  1  0  0  0  0
 50 67  1  0  0  0  0
 52 63  1  0  0  0  0
 53 64  1  0  0  0  0
 54 64  1  0  0  0  0
 55 64  1  0  0  0  0
 56 65  1  0  0  0  0
 57 65  1  0  0  0  0
 58 75  1  0  0  0  0
 59 60  1  0  0  0  0
 60 65  1  0  0  0  0
 61 65  1  0  0  0  0
 61 82  1  0  0  0  0
 62 64  1  0  0  0  0
 62 74  1  0  0  0  0
 63 75  1  0  0  0  0
 66 67  1  0  0  0  0
M  CHG  1  75   1
M  ISO  4  38 100  61 101  72 100  82 101
M  END
> <Batch ID>
0134

> <Smiles>
CNC(C)C(=O)NC(C(=O)N1Cc2cc([101O:1][101CH2:1]C(C)(C)CCc3ccc(C)c([100NH:0][100C:0](=O)N4CCCC(n5nc(-c6ccc(Oc7ccc(F)cc7F)cc6)c(C(N)=O)c5N)C4)c3)ccc2CC1C(=O)NC1CCCc2ccccc21)C(C)(C)C

> <Shape>
0.231

> <Color>
0.086

> <Negative vol penalty>
0.000

$$$$

  -OEChem-04052302333D

 85 93  0     1  0  0  0  0  0999 V2000
  -29.5544  -30.9281   26.2505 C   0  0  0  0  0  0  0  0  0  0  0  0
  -29.1966  -29.8284   25.4772 C   0  0  0  0  0  0  0  0  0  0  0  0
  -23.1151   -9.8769   20.0955 C   0  0  0  0  0  0  0  0  0  0  0  0
  -23.7637  -10.1294   22.4090 C   0  0  0  0  0  0  0  0  0  0  0  0
  -28.5702  -31.7911   26.7306 C   0  0  0  0  0  0  0  0  0  0  0  0
  -27.8541  -29.5903   25.1846 C   0  0  0  0  0  0  0  0  0  0  0  0
  -27.1103  -28.3802   20.3238 C   0  0  0  0  0  0  0  0  0  0  0  0
  -22.3597   -8.7531   20.4298 C   0  0  0  0  0  0  0  0  0  0  0  0
  -23.0082   -9.0055   22.7435 C   0  0  0  0  0  0  0  0  0  0  0  0
  -27.4182  -27.0764   19.9380 C   0  0  0  0  0  0  0  0  0  0  0  0
  -19.7546   -8.2602   23.2715 C   0  0  0  0  0  0  0  0  0  0  0  0
  -18.9421   -8.3404   24.4025 C   0  0  0  0  0  0  0  0  0  0  0  0
  -25.0798  -26.4956   20.0565 C   0  0  0  0  0  0  0  0  0  0  0  0
  -31.0581  -17.9977   20.4033 C   0  0  0  0  0  0  0  0  0  0  0  0
  -20.1461   -6.4974   25.3979 C   0  0  0  0  0  0  0  0  0  0  0  0
  -23.8171  -10.5651   21.0851 C   0  0  0  0  0  0  0  0  0  0  0  0
  -24.1651  -13.0651   20.7156 C   0  0  0  0  0  0  0  0  0  0  0  0
  -27.2158  -31.5689   26.4357 C   0  0  0  0  0  0  0  0  0  0  0  0
  -25.7839  -28.7494   20.5899 C   0  0  0  0  0  0  0  0  0  0  0  0
  -26.8508  -30.4504   25.6624 C   0  0  0  0  0  0  0  0  0  0  0  0
  -24.7575  -27.8055   20.4431 C   0  0  0  0  0  0  0  0  0  0  0  0
  -30.8942  -19.4004   20.5927 C   0  0  0  0  0  0  0  0  0  0  0  0
  -22.3062   -8.3173   21.7538 C   0  0  0  0  0  0  0  0  0  0  0  0
  -26.4032  -26.1331   19.8070 C   0  0  0  0  0  0  0  0  0  0  0  0
  -20.7627   -7.2986   23.2037 C   0  0  0  0  0  0  0  0  0  0  0  0
  -19.1379   -7.4590   25.4657 C   0  0  0  0  0  0  0  0  0  0  0  0
  -20.9585   -6.4172   24.2669 C   0  0  0  0  0  0  0  0  0  0  0  0
  -24.5981  -11.7258   20.7402 C   0  0  0  0  0  0  0  0  0  0  0  0
  -29.9273  -19.6863   21.5313 C   0  0  0  0  0  0  0  0  0  0  0  0
  -25.2737  -13.7773   20.3280 C   0  0  0  0  0  0  0  0  0  0  0  0
  -30.2103  -17.2649   21.2047 C   0  0  0  0  0  0  0  0  0  0  0  0
  -22.8761  -13.6162   21.0164 C   0  0  0  0  0  0  0  0  0  0  0  0
  -24.2220  -29.8167   23.1443 C   0  0  0  0  0  0  0  0  0  0  0  0
  -28.2456  -23.1025   18.8014 C   0  0  0  0  0  0  0  0  0  0  0  0
  -21.7763  -30.1271   21.0360 C   0  0  0  0  0  0  0  0  0  0  0  0
  -20.3424  -29.1488   18.0977 C   0  0  0  0  0  0  0  0  0  0  0  0
  -30.7255  -14.8615   20.6531 C   0  0  0  0  0  0  0  0  0  0  0  0
  -26.1837  -32.5028   27.0165 C   0  0  0  0  0  0  0  0  0  0  0  0
  -25.4653  -30.1669   20.9792 C   0  0  0  0  0  0  0  0  0  0  0  0
  -23.3150  -28.1565   20.6973 C   0  0  0  0  0  0  0  0  0  0  0  0
  -24.8159  -32.3904   26.3482 C   0  0  0  0  0  0  0  0  0  0  0  0
  -29.7256  -12.2062   18.5021 C   0  0  0  0  0  0  0  0  0  0  0  0
  -24.4147  -30.9266   26.1960 C   0  0  0  0  0  0  0  0  0  0  0  0
  -28.2668  -11.9547   18.8906 C   0  0  0  0  0  0  0  0  0  0  0  0
  -30.5819  -12.5648   19.7153 C   0  0  0  0  0  0  0  0  0  0  0  0
  -28.6109  -13.4217   20.9195 C   0  0  0  0  0  0  0  0  0  0  0  0
  -25.4073  -30.1726   25.3028 C   0  0  1  0  0  0  0  0  0  0  0  0
  -24.1401  -30.2986   21.7235 C   0  0  1  0  0  0  0  0  0  0  0  0
  -27.6958  -13.1206   19.7213 C   0  0  2  0  0  0  0  0  0  0  0  0
  -29.4601  -21.0065   22.0117 C   0  0  0  0  0  0  0  0  0  0  0  0
  -18.3266  -29.5532   16.6588 C   0  0  0  0  0  0  0  0  0  0  0  0
  -29.3720  -20.8927   16.7478 C   0  0  0  0  0  0  0  0  0  0  0  0
  -20.0779  -28.4699   22.9541 C   0  0  0  0  0  0  0  0  0  0  0  0
  -18.4483  -28.1081   21.0881 C   0  0  0  0  0  0  0  0  0  0  0  0
  -18.8911  -30.4159   21.9251 C   0  0  0  0  0  0  0  0  0  0  0  0
  -22.0022  -30.0898   15.8352 C   0  0  0  0  0  0  0  0  0  0  0  0
  -31.6918  -20.4401   19.8470 C   0  0  0  0  0  0  0  0  0  0  0  0
  -29.6752  -22.6558   18.5273 C   0  0  0  0  0  0  0  0  0  0  0  0
  -28.0744  -24.5587   19.1869 C   0  0  0  0  0  0  0  0  0  1  0  0
  -31.2459  -20.6419   18.3916 C   0  0  0  0  0  0  0  0  0  0  0  0
  -20.6579  -29.2334   20.5569 C   0  0  1  0  0  0  0  0  0  0  0  0
  -19.7676  -29.9481   16.9422 C   0  0  2  0  0  0  0  0  0  0  0  0
  -29.8020  -21.1583   18.1981 C   0  0  2  0  0  0  0  0  0  0  0  0
  -19.5461  -29.0494   21.6281 C   0  0  0  0  0  0  0  0  0  0  0  0
  -25.8816  -11.5924   20.3954 N   0  0  0  0  0  0  0  0  0  0  0  0
  -26.2646  -12.8571   20.1505 N   0  0  0  0  0  0  0  0  0  0  0  0
  -23.0550  -29.5537   21.0818 N   0  0  0  0  0  0  0  0  0  0  0  0
  -29.9817  -13.6796   20.4512 N   0  0  0  0  0  0  0  0  0  0  0  0
  -25.4878  -15.0946   20.1250 N   0  0  0  0  0  0  0  0  0  0  0  0
  -21.8488  -12.7428   21.3989 N   0  0  0  0  0  0  0  0  0  0  0  0
  -30.0398  -15.8645   21.3374 N   0  0  0  0  0  0  0  0  0  0  0  0
  -25.1649  -30.4769   23.9089 N   0  0  0  0  0  0  0  0  0  0  0  0
  -20.1879  -29.8059   19.3000 N   0  0  0  0  0  0  0  0  0  0  0  0
  -20.5688  -29.7213   15.7062 N   0  3  0  0  0  0  0  0  0  0  0  0
  -22.6377  -14.8448   20.9322 O   0  0  0  0  0  0  0  0  0  0  0  0
  -23.4833  -28.9138   23.5195 O   0  0  0  0  0  0  0  0  0  0  0  0
  -27.2901  -22.3294   18.7542 O   0  0  0  0  0  0  0  0  0  0  0  0
  -21.5259  -31.2931   21.3511 O   0  0  0  0  0  0  0  0  0  0  0  0
  -20.8720  -28.0497   17.9491 O   0  0  0  0  0  0  0  0  0  0  0  0
  -31.8759  -14.9853   20.2249 O   0  0  0  0  0  0  0  0  0  0  0  0
  -21.5690   -7.2208   22.0805 O   0  0  0  0  0  0  0  0  0  0  0  0
  -26.7010  -24.8595   19.4312 O   0  0  0  0  0  0  0  0  0  1  0  0
  -18.3586   -7.5371   26.5523 F   0  0  0  0  0  0  0  0  0  0  0  0
  -21.9262   -5.4920   24.2081 F   0  0  0  0  0  0  0  0  0  0  0  0
  -29.2219  -18.2671   22.1798 S   0  0  0  0  0  0  0  0  0  0  0  0
  1  2  1  0  0  0  0
  1  5  2  0  0  0  0
  2  6  2  0  0  0  0
  3  8  2  0  0  0  0
  3 16  1  0  0  0  0
  4  9  1  0  0  0  0
  4 16  2  0  0  0  0
  5 18  1  0  0  0  0
  6 20  1  0  0  0  0
  7 10  2  0  0  0  0
  7 19  1  0  0  0  0
  8 23  1  0  0  0  0
  9 23  2  0  0  0  0
 10 24  1  0  0  0  0
 11 12  2  0  0  0  0
 11 25  1  0  0  0  0
 12 26  1  0  0  0  0
 13 21  1  0  0  0  0
 13 24  2  0  0  0  0
 14 22  1  0  0  0  0
 14 31  2  0  0  0  0
 15 26  2  0  0  0  0
 15 27  1  0  0  0  0
 16 28  1  0  0  0  0
 17 28  1  0  0  0  0
 17 30  2  0  0  0  0
 17 32  1  0  0  0  0
 18 20  2  0  0  0  0
 18 38  1  0  0  0  0
 19 21  2  0  0  0  0
 19 39  1  0  0  0  0
 20 47  1  0  0  0  0
 21 40  1  0  0  0  0
 22 29  2  0  0  0  0
 22 57  1  0  0  0  0
 23 81  1  0  0  0  0
 24 82  1  0  0  0  0
 25 27  2  0  0  0  0
 25 81  1  0  0  0  0
 26 83  1  0  0  0  0
 27 84  1  0  0  0  0
 28 65  2  0  0  0  0
 29 50  1  0  0  0  0
 29 85  1  0  0  0  0
 30 66  1  0  0  0  0
 30 69  1  0  0  0  0
 31 71  1  0  0  0  0
 31 85  1  0  0  0  0
 32 70  1  0  0  0  0
 32 75  2  0  0  0  0
 33 48  1  0  0  0  0
 33 72  1  0  0  0  0
 33 76  2  0  0  0  0
 34 58  1  0  0  0  0
 34 59  1  0  0  0  0
 34 77  2  0  0  0  0
 35 61  1  0  0  0  0
 35 67  1  0  0  0  0
 35 78  2  0  0  0  0
 36 62  1  0  0  0  0
 36 73  1  0  0  0  0
 36 79  2  0  0  0  0
 37 68  1  0  0  0  0
 37 71  1  0  0  0  0
 37 80  2  0  0  0  0
 38 41  1  0  0  0  0
 39 48  1  0  0  0  0
 40 67  1  0  0  0  0
 41 43  1  0  0  0  0
 42 44  1  0  0  0  0
 42 45  1  0  0  0  0
 43 47  1  0  0  0  0
 44 49  1  0  0  0  0
 45 68  1  0  0  0  0
 46 49  1  0  0  0  0
 46 68  1  0  0  0  0
 47 72  1  0  0  0  0
 48 67  1  0  0  0  0
 49 66  1  0  0  0  0
 51 62  1  0  0  0  0
 52 63  1  0  0  0  0
 53 64  1  0  0  0  0
 54 64  1  0  0  0  0
 55 64  1  0  0  0  0
 56 74  1  0  0  0  0
 57 60  1  0  0  0  0
 58 63  1  0  0  0  0
 59 82  1  0  0  0  0
 60 63  1  0  0  0  0
 61 64  1  0  0  0  0
 61 73  1  0  0  0  0
 62 74  1  0  0  0  0
 65 66  1  0  0  0  0
M  CHG  1  74   1
M  ISO  4  37 100  59 101  71 100  82 101
M  END
> <Batch ID>
0134

> <Smiles>
CNC(C)C(=O)NC(C(=O)N1Cc2cc([101O:1][101CH2:1]C(=O)CC(C)CCc3cc([100NH:0][100C:0](=O)N4CCCC(n5nc(-c6ccc(Oc7ccc(F)cc7F)cc6)c(C(N)=O)c5N)C4)sc3C)ccc2CC1C(=O)NC1CCCc2ccccc21)C(C)(C)C

> <Shape>
0.360

> <Color>
0.223

> <Negative vol penalty>
0.000

$$$$

  -OEChem-04052302333D

 86 94  0     1  0  0  0  0  0999 V2000
  -21.0206  -33.7758   21.3579 C   0  0  0  0  0  0  0  0  0  0  0  0
  -22.2893  -33.2104   21.2799 C   0  0  0  0  0  0  0  0  0  0  0  0
  -24.0410   -9.8154   21.9503 C   0  0  0  0  0  0  0  0  0  0  0  0
  -24.4834  -11.1866   23.8897 C   0  0  0  0  0  0  0  0  0  0  0  0
  -20.0093  -33.1220   22.0604 C   0  0  0  0  0  0  0  0  0  0  0  0
  -22.5477  -31.9912   21.9054 C   0  0  0  0  0  0  0  0  0  0  0  0
  -26.3040  -27.5700   19.9434 C   0  0  0  0  0  0  0  0  0  0  0  0
  -31.8658  -19.5278   21.0138 C   0  0  0  0  0  0  0  0  0  0  0  0
  -32.1074  -18.2100   21.4019 C   0  0  0  0  0  0  0  0  0  0  0  0
  -23.6050   -8.7825   22.7801 C   0  0  0  0  0  0  0  0  0  0  0  0
  -24.0474  -10.1537   24.7195 C   0  0  0  0  0  0  0  0  0  0  0  0
  -27.6147  -27.2349   20.2802 C   0  0  0  0  0  0  0  0  0  0  0  0
  -20.8185   -7.9991   24.5278 C   0  0  0  0  0  0  0  0  0  0  0  0
  -19.6408   -7.3391   24.1771 C   0  0  0  0  0  0  0  0  0  0  0  0
  -26.7872  -25.5895   21.8382 C   0  0  0  0  0  0  0  0  0  0  0  0
  -29.8543  -19.5530   22.3519 C   0  0  0  0  0  0  0  0  0  0  0  0
  -20.8545   -5.2558   24.0219 C   0  0  0  0  0  0  0  0  0  0  0  0
  -24.4803  -11.0175   22.5051 C   0  0  0  0  0  0  0  0  0  0  0  0
  -24.1517  -13.1183   21.0957 C   0  0  0  0  0  0  0  0  0  0  0  0
  -20.2528  -31.8895   22.6867 C   0  0  0  0  0  0  0  0  0  0  0  0
  -25.2231  -26.9240   20.5605 C   0  0  0  0  0  0  0  0  0  0  0  0
  -21.5390  -31.3209   22.6181 C   0  0  0  0  0  0  0  0  0  0  0  0
  -25.4638  -25.9165   21.5056 C   0  0  0  0  0  0  0  0  0  0  0  0
  -30.7392  -20.1993   21.4888 C   0  0  0  0  0  0  0  0  0  0  0  0
  -31.2225  -17.5637   22.2650 C   0  0  0  0  0  0  0  0  0  0  0  0
  -23.6081   -8.9516   24.1647 C   0  0  0  0  0  0  0  0  0  0  0  0
  -27.8565  -26.2465   21.2299 C   0  0  0  0  0  0  0  0  0  0  0  0
  -22.0143   -7.2875   24.6256 C   0  0  0  0  0  0  0  0  0  0  0  0
  -30.0959  -18.2352   22.7400 C   0  0  0  0  0  0  0  0  0  0  0  0
  -19.6588   -5.9674   23.9241 C   0  0  0  0  0  0  0  0  0  0  0  0
  -22.0323   -5.9158   24.3726 C   0  0  0  0  0  0  0  0  0  0  0  0
  -24.9314  -12.0846   21.6485 C   0  0  0  0  0  0  0  0  0  0  0  0
  -25.0419  -13.8664   20.3647 C   0  0  0  0  0  0  0  0  0  0  0  0
  -22.7484  -13.3789   21.2310 C   0  0  0  0  0  0  0  0  0  0  0  0
  -22.8075  -27.8571   22.4038 C   0  0  0  0  0  0  0  0  0  0  0  0
  -21.8514  -24.7789   22.0397 C   0  0  0  0  0  0  0  0  0  0  0  0
  -22.6986  -21.5425   21.3650 C   0  0  0  0  0  0  0  0  0  0  0  0
  -30.9619  -14.6791   20.7444 C   0  0  0  0  0  0  0  0  0  0  0  0
  -19.1408  -31.2433   23.4745 C   0  0  0  0  0  0  0  0  0  0  0  0
  -23.8154  -27.2784   20.1666 C   0  0  0  0  0  0  0  0  0  0  0  0
  -24.3384  -25.1788   22.1822 C   0  0  0  0  0  0  0  0  0  0  0  0
  -19.3953  -29.7723   23.7932 C   0  0  0  0  0  0  0  0  0  0  0  0
  -29.1416  -13.4821   17.9283 C   0  0  0  0  0  0  0  0  0  0  0  0
  -20.8152  -29.5771   24.3154 C   0  0  0  0  0  0  0  0  0  0  0  0
  -27.7858  -13.0815   18.5126 C   0  0  0  0  0  0  0  0  0  0  0  0
  -30.2845  -13.1776   18.8942 C   0  0  0  0  0  0  0  0  0  0  0  0
  -28.7671  -13.3478   20.8287 C   0  0  0  0  0  0  0  0  0  0  0  0
  -21.8516  -29.9878   23.2624 C   0  0  1  0  0  0  0  0  0  0  0  0
  -22.7871  -26.9152   21.2333 C   0  0  1  0  0  0  0  0  0  0  0  0
  -27.5780  -13.6870   19.9138 C   0  0  2  0  0  0  0  0  0  0  0  0
  -27.2735  -16.2365   23.7368 C   0  0  0  0  0  0  0  0  0  0  0  0
  -21.7072  -19.2449   21.1773 C   0  0  0  0  0  0  0  0  0  0  0  0
  -31.8151  -25.0536   22.3451 C   0  0  0  0  0  0  0  0  0  0  0  0
  -21.7076  -24.5951   25.0820 C   0  0  0  0  0  0  0  0  0  0  0  0
  -21.6539  -22.1019   24.8592 C   0  0  0  0  0  0  0  0  0  0  0  0
  -19.8199  -23.4798   23.8791 C   0  0  0  0  0  0  0  0  0  0  0  0
  -23.4887  -21.3075   18.5226 C   0  0  0  0  0  0  0  0  0  0  0  0
  -30.4788  -21.6245   21.0695 C   0  0  0  0  0  0  0  0  0  0  0  0
  -31.4964  -16.1527   22.6685 C   0  0  0  0  0  0  0  0  0  0  0  0
  -31.1093  -22.6729   21.9966 C   0  0  0  0  0  0  0  0  0  0  0  0
  -27.8726  -17.4926   23.1411 C   0  0  0  0  0  0  0  0  0  0  0  0
  -29.3738  -24.5726   21.9727 C   0  0  0  0  0  0  0  0  0  1  0  0
  -22.0979  -23.4879   22.7824 C   0  0  1  0  0  0  0  0  0  0  0  0
  -22.0858  -20.5147   20.4310 C   0  0  2  0  0  0  0  0  0  0  0  0
  -30.8072  -24.1433   21.6318 C   0  0  1  0  0  0  0  0  0  0  0  0
  -21.3412  -23.4312   24.1395 C   0  0  0  0  0  0  0  0  0  0  0  0
  -26.2178  -12.1655   21.2984 N   0  0  0  0  0  0  0  0  0  0  0  0
  -26.2534  -13.2588   20.5178 N   0  0  0  0  0  0  0  0  0  0  0  0
  -22.9797  -25.5656   21.7679 N   0  0  0  0  0  0  0  0  0  0  0  0
  -30.0266  -13.7815   20.2037 N   0  0  0  0  0  0  0  0  0  0  0  0
  -24.8987  -14.9780   19.6123 N   0  0  0  0  0  0  0  0  0  0  0  0
  -21.9805  -12.5108   22.0191 N   0  0  0  0  0  0  0  0  0  0  0  0
  -21.9844  -28.9571   22.2552 N   0  0  0  0  0  0  0  0  0  0  0  0
  -21.7503  -22.4131   21.8592 N   0  0  0  0  0  0  0  0  0  0  0  0
  -30.6372  -15.2106   21.9865 N   0  0  0  0  0  0  0  0  0  0  0  0
  -23.0491  -20.1560   19.3518 N   0  3  0  0  0  0  0  0  0  0  0  0
  -22.1888  -14.3434   20.6564 O   0  0  0  0  0  0  0  0  0  0  0  0
  -23.5164  -27.6039   23.3708 O   0  0  0  0  0  0  0  0  0  0  0  0
  -20.7012  -25.0748   21.7065 O   0  0  0  0  0  0  0  0  0  0  0  0
  -23.8979  -21.5682   21.6326 O   0  0  0  0  0  0  0  0  0  0  0  0
  -32.0063  -14.9885   20.1608 O   0  0  0  0  0  0  0  0  0  0  0  0
  -23.1825   -7.9440   24.9747 O   0  0  0  0  0  0  0  0  0  0  0  0
  -29.1349  -25.9179   21.5610 O   0  0  0  0  0  0  0  0  0  1  0  0
  -29.2221  -17.6191   23.5844 O   0  0  0  0  0  0  0  0  0  0  0  0
  -18.5275   -5.3335   23.5888 F   0  0  0  0  0  0  0  0  0  0  0  0
  -23.1777   -5.2267   24.4660 F   0  0  0  0  0  0  0  0  0  0  0  0
  1  2  1  0  0  0  0
  1  5  2  0  0  0  0
  2  6  2  0  0  0  0
  3 10  2  0  0  0  0
  3 18  1  0  0  0  0
  4 11  1  0  0  0  0
  4 18  2  0  0  0  0
  5 20  1  0  0  0  0
  6 22  1  0  0  0  0
  7 12  2  0  0  0  0
  7 21  1  0  0  0  0
  8  9  2  0  0  0  0
  8 24  1  0  0  0  0
  9 25  1  0  0  0  0
 10 26  1  0  0  0  0
 11 26  2  0  0  0  0
 12 27  1  0  0  0  0
 13 14  2  0  0  0  0
 13 28  1  0  0  0  0
 14 30  1  0  0  0  0
 15 23  1  0  0  0  0
 15 27  2  0  0  0  0
 16 24  2  0  0  0  0
 16 29  1  0  0  0  0
 17 30  2  0  0  0  0
 17 31  1  0  0  0  0
 18 32  1  0  0  0  0
 19 32  1  0  0  0  0
 19 33  2  0  0  0  0
 19 34  1  0  0  0  0
 20 22  2  0  0  0  0
 20 39  1  0  0  0  0
 21 23  2  0  0  0  0
 21 40  1  0  0  0  0
 22 48  1  0  0  0  0
 23 41  1  0  0  0  0
 24 58  1  0  0  0  0
 25 29  2  0  0  0  0
 25 59  1  0  0  0  0
 26 82  1  0  0  0  0
 27 83  1  0  0  0  0
 28 31  2  0  0  0  0
 28 82  1  0  0  0  0
 29 84  1  0  0  0  0
 30 85  1  0  0  0  0
 31 86  1  0  0  0  0
 32 67  2  0  0  0  0
 33 68  1  0  0  0  0
 33 71  1  0  0  0  0
 34 72  1  0  0  0  0
 34 77  2  0  0  0  0
 35 49  1  0  0  0  0
 35 73  1  0  0  0  0
 35 78  2  0  0  0  0
 36 63  1  0  0  0  0
 36 69  1  0  0  0  0
 36 79  2  0  0  0  0
 37 64  1  0  0  0  0
 37 74  1  0  0  0  0
 37 80  2  0  0  0  0
 38 70  1  0  0  0  0
 38 75  1  0  0  0  0
 38 81  2  0  0  0  0
 39 42  1  0  0  0  0
 40 49  1  0  0  0  0
 41 69  1  0  0  0  0
 42 44  1  0  0  0  0
 43 45  1  0  0  0  0
 43 46  1  0  0  0  0
 44 48  1  0  0  0  0
 45 50  1  0  0  0  0
 46 70  1  0  0  0  0
 47 50  1  0  0  0  0
 47 70  1  0  0  0  0
 48 73  1  0  0  0  0
 49 69  1  0  0  0  0
 50 68  1  0  0  0  0
 51 61  1  0  0  0  0
 52 64  1  0  0  0  0
 53 65  1  0  0  0  0
 54 66  1  0  0  0  0
 55 66  1  0  0  0  0
 56 66  1  0  0  0  0
 57 76  1  0  0  0  0
 58 60  1  0  0  0  0
 59 75  1  0  0  0  0
 60 65  1  0  0  0  0
 61 84  1  0  0  0  0
 62 65  1  0  0  0  0
 62 83  1  0  0  0  0
 63 66  1  0  0  0  0
 63 74  1  0  0  0  0
 64 76  1  0  0  0  0
 67 68  1  0  0  0  0
M  CHG  1  76   1
M  ISO  4  38 100  62 101  75 100  83 101
M  END
> <Batch ID>
0134

> <Smiles>
CCOc1cc(CCC(C)[101CH2:1][101O:1]c2ccc3c(c2)CN(C(=O)C(NC(=O)C(C)NC)C(C)(C)C)C(C(=O)NC2CCCc4ccccc42)C3)ccc1C[100NH:0][100C:0](=O)N1CCCC(n2nc(-c3ccc(Oc4ccc(F)cc4F)cc3)c(C(N)=O)c2N)C1

> <Shape>
0.224

> <Color>
0.126

> <Negative vol penalty>
0.000

$$$$

  -OEChem-04052302333D

 85 93  0     1  0  0  0  0  0999 V2000
  -26.6753  -34.6195   24.9628 C   0  0  0  0  0  0  0  0  0  0  0  0
  -27.0976  -33.3995   24.4446 C   0  0  0  0  0  0  0  0  0  0  0  0
  -24.0300  -11.8002   20.0644 C   0  0  0  0  0  0  0  0  0  0  0  0
  -24.8697  -12.1241   22.3065 C   0  0  0  0  0  0  0  0  0  0  0  0
  -25.3690  -34.7631   25.4284 C   0  0  0  0  0  0  0  0  0  0  0  0
  -26.2141  -32.3219   24.3928 C   0  0  0  0  0  0  0  0  0  0  0  0
  -26.3916  -29.8754   19.9625 C   0  0  0  0  0  0  0  0  0  0  0  0
  -26.9828  -22.6679   24.1176 C   0  0  0  0  0  0  0  0  0  0  0  0
  -26.8011  -21.6268   23.2073 C   0  0  0  0  0  0  0  0  0  0  0  0
  -23.9201  -10.4304   20.3034 C   0  0  0  0  0  0  0  0  0  0  0  0
  -24.7597  -10.7543   22.5456 C   0  0  0  0  0  0  0  0  0  0  0  0
  -27.4585  -29.0010   19.7603 C   0  0  0  0  0  0  0  0  0  0  0  0
  -23.0779   -6.8968   20.4437 C   0  0  0  0  0  0  0  0  0  0  0  0
  -21.9081   -6.2585   20.0319 C   0  0  0  0  0  0  0  0  0  0  0  0
  -26.0282  -27.1380   20.3106 C   0  0  0  0  0  0  0  0  0  0  0  0
  -29.0808  -21.8896   22.4516 C   0  0  0  0  0  0  0  0  0  0  0  0
  -20.6131   -7.7017   21.4733 C   0  0  0  0  0  0  0  0  0  0  0  0
  -24.5049  -12.6471   21.0659 C   0  0  0  0  0  0  0  0  0  0  0  0
  -23.6381  -15.0462   21.0449 C   0  0  0  0  0  0  0  0  0  0  0  0
  -24.4661  -33.6896   25.3734 C   0  0  0  0  0  0  0  0  0  0  0  0
  -25.1357  -29.3878   20.3515 C   0  0  0  0  0  0  0  0  0  0  0  0
  -24.8949  -32.4509   24.8594 C   0  0  0  0  0  0  0  0  0  0  0  0
  -24.9463  -28.0081   20.5146 C   0  0  0  0  0  0  0  0  0  0  0  0
  -28.2135  -23.3200   24.1949 C   0  0  0  0  0  0  0  0  0  0  0  0
  -29.2625  -22.9308   23.3619 C   0  0  0  0  0  0  0  0  0  0  0  0
  -27.8501  -21.2376   22.3743 C   0  0  0  0  0  0  0  0  0  0  0  0
  -24.2849   -9.9074   21.5440 C   0  0  0  0  0  0  0  0  0  0  0  0
  -27.2777  -27.6323   19.9372 C   0  0  0  0  0  0  0  0  0  0  0  0
  -23.0154   -7.9376   21.3704 C   0  0  0  0  0  0  0  0  0  0  0  0
  -20.6757   -6.6609   20.5466 C   0  0  0  0  0  0  0  0  0  0  0  0
  -21.7830   -8.3400   21.8851 C   0  0  0  0  0  0  0  0  0  0  0  0
  -24.6192  -14.0621   20.8194 C   0  0  0  0  0  0  0  0  0  0  0  0
  -24.2334  -16.2205   20.6532 C   0  0  0  0  0  0  0  0  0  0  0  0
  -22.3078  -14.9111   21.5621 C   0  0  0  0  0  0  0  0  0  0  0  0
  -23.2631  -29.7848   22.8891 C   0  0  0  0  0  0  0  0  0  0  0  0
  -21.1721  -28.0328   21.1339 C   0  0  0  0  0  0  0  0  0  0  0  0
  -20.6786  -25.7570   18.6391 C   0  0  0  0  0  0  0  0  0  0  0  0
  -28.6038  -19.6690   20.5529 C   0  0  0  0  0  0  0  0  0  0  0  0
  -23.0781  -33.8790   25.9323 C   0  0  0  0  0  0  0  0  0  0  0  0
  -23.9880  -30.3417   20.5396 C   0  0  0  0  0  0  0  0  0  0  0  0
  -23.6125  -27.4322   20.9118 C   0  0  0  0  0  0  0  0  0  0  0  0
  -22.0933  -32.7971   25.4967 C   0  0  0  0  0  0  0  0  0  0  0  0
  -28.5508  -17.0478   18.1438 C   0  0  0  0  0  0  0  0  0  0  0  0
  -22.7171  -31.4137   25.6515 C   0  0  0  0  0  0  0  0  0  0  0  0
  -27.4425  -16.1183   18.6437 C   0  0  0  0  0  0  0  0  0  0  0  0
  -29.3448  -17.6559   19.2986 C   0  0  0  0  0  0  0  0  0  0  0  0
  -27.4267  -17.3981   20.8229 C   0  0  0  0  0  0  0  0  0  0  0  0
  -23.9586  -31.2659   24.7636 C   0  0  1  0  0  0  0  0  0  0  0  0
  -22.8865  -29.7821   21.4345 C   0  0  1  0  0  0  0  0  0  0  0  0
  -26.5579  -16.8123   19.6979 C   0  0  2  0  0  0  0  0  0  0  0  0
  -29.1692  -23.9993   26.4111 C   0  0  0  0  0  0  0  0  0  0  0  0
  -31.6997  -22.6395   23.8753 C   0  0  0  0  0  0  0  0  0  0  0  0
  -18.8617  -24.4906   17.4590 C   0  0  0  0  0  0  0  0  0  0  0  0
  -20.9290  -26.1559   23.5273 C   0  0  0  0  0  0  0  0  0  0  0  0
  -19.8964  -24.4591   22.0033 C   0  0  0  0  0  0  0  0  0  0  0  0
  -18.7694  -26.6543   22.3688 C   0  0  0  0  0  0  0  0  0  0  0  0
  -21.3472  -26.9951   16.0355 C   0  0  0  0  0  0  0  0  0  0  0  0
  -28.3839  -24.4323   25.1768 C   0  0  0  0  0  0  0  0  0  0  0  0
  -30.0583  -25.4294   21.6919 C   0  0  0  0  0  0  0  0  0  0  0  0
  -30.5465  -26.1329   20.4210 C   0  0  0  0  0  0  0  0  0  0  0  0
  -31.0139  -24.3016   22.1019 C   0  0  0  0  0  0  0  0  0  0  0  0
  -29.6280  -27.2757   20.0058 C   0  0  0  0  0  0  0  0  0  1  0  0
  -30.6120  -23.6246   23.4296 C   0  0  1  0  0  0  0  0  0  0  0  0
  -20.8785  -26.5602   20.9778 C   0  0  1  0  0  0  0  0  0  0  0  0
  -19.7211  -25.7453   17.4612 C   0  0  2  0  0  0  0  0  0  0  0  0
  -20.1441  -25.9681   22.2137 C   0  0  0  0  0  0  0  0  0  0  0  0
  -25.7516  -14.5671   20.3229 N   0  0  0  0  0  0  0  0  0  0  0  0
  -25.4859  -15.8814   20.2331 N   0  0  0  0  0  0  0  0  0  0  0  0
  -22.5229  -28.4061   21.0901 N   0  0  0  0  0  0  0  0  0  0  0  0
  -28.4416  -18.2994   20.2550 N   0  0  0  0  0  0  0  0  0  0  0  0
  -23.8023  -17.4996   20.6306 N   0  0  0  0  0  0  0  0  0  0  0  0
  -21.8550  -13.6327   21.9156 N   0  0  0  0  0  0  0  0  0  0  0  0
  -27.6665  -20.1787   21.4508 N   0  0  0  0  0  0  0  0  0  0  0  0
  -23.5717  -31.0359   23.3881 N   0  0  0  0  0  0  0  0  0  0  0  0
  -20.1459  -26.4208   19.7239 N   0  0  0  0  0  0  0  0  0  0  0  0
  -20.4775  -25.7992   16.1783 N   0  3  0  0  0  0  0  0  0  0  0  0
  -21.5374  -15.8927   21.6912 O   0  0  0  0  0  0  0  0  0  0  0  0
  -23.2715  -28.7300   23.5130 O   0  0  0  0  0  0  0  0  0  0  0  0
  -20.2370  -28.8235   21.2819 O   0  0  0  0  0  0  0  0  0  0  0  0
  -21.7868  -25.2267   18.6020 O   0  0  0  0  0  0  0  0  0  0  0  0
  -29.4908  -20.3467   20.0277 O   0  0  0  0  0  0  0  0  0  0  0  0
  -24.1776   -8.5709   21.7777 O   0  0  0  0  0  0  0  0  0  0  0  0
  -28.3176  -26.7767   19.7411 O   0  0  0  0  0  0  0  0  0  1  0  0
  -19.5523   -6.0488   20.1499 F   0  0  0  0  0  0  0  0  0  0  0  0
  -21.7165   -9.3400   22.7747 F   0  0  0  0  0  0  0  0  0  0  0  0
  1  2  1  0  0  0  0
  1  5  2  0  0  0  0
  2  6  2  0  0  0  0
  3 10  2  0  0  0  0
  3 18  1  0  0  0  0
  4 11  1  0  0  0  0
  4 18  2  0  0  0  0
  5 20  1  0  0  0  0
  6 22  1  0  0  0  0
  7 12  2  0  0  0  0
  7 21  1  0  0  0  0
  8  9  2  0  0  0  0
  8 24  1  0  0  0  0
  9 26  1  0  0  0  0
 10 27  1  0  0  0  0
 11 27  2  0  0  0  0
 12 28  1  0  0  0  0
 13 14  2  0  0  0  0
 13 29  1  0  0  0  0
 14 30  1  0  0  0  0
 15 23  1  0  0  0  0
 15 28  2  0  0  0  0
 16 25  1  0  0  0  0
 16 26  2  0  0  0  0
 17 30  2  0  0  0  0
 17 31  1  0  0  0  0
 18 32  1  0  0  0  0
 19 32  1  0  0  0  0
 19 33  2  0  0  0  0
 19 34  1  0  0  0  0
 20 22  2  0  0  0  0
 20 39  1  0  0  0  0
 21 23  2  0  0  0  0
 21 40  1  0  0  0  0
 22 48  1  0  0  0  0
 23 41  1  0  0  0  0
 24 25  2  0  0  0  0
 24 58  1  0  0  0  0
 25 63  1  0  0  0  0
 26 73  1  0  0  0  0
 27 82  1  0  0  0  0
 28 83  1  0  0  0  0
 29 31  2  0  0  0  0
 29 82  1  0  0  0  0
 30 84  1  0  0  0  0
 31 85  1  0  0  0  0
 32 67  2  0  0  0  0
 33 68  1  0  0  0  0
 33 71  1  0  0  0  0
 34 72  1  0  0  0  0
 34 77  2  0  0  0  0
 35 49  1  0  0  0  0
 35 74  1  0  0  0  0
 35 78  2  0  0  0  0
 36 64  1  0  0  0  0
 36 69  1  0  0  0  0
 36 79  2  0  0  0  0
 37 65  1  0  0  0  0
 37 75  1  0  0  0  0
 37 80  2  0  0  0  0
 38 70  1  0  0  0  0
 38 73  1  0  0  0  0
 38 81  2  0  0  0  0
 39 42  1  0  0  0  0
 40 49  1  0  0  0  0
 41 69  1  0  0  0  0
 42 44  1  0  0  0  0
 43 45  1  0  0  0  0
 43 46  1  0  0  0  0
 44 48  1  0  0  0  0
 45 50  1  0  0  0  0
 46 70  1  0  0  0  0
 47 50  1  0  0  0  0
 47 70  1  0  0  0  0
 48 74  1  0  0  0  0
 49 69  1  0  0  0  0
 50 68  1  0  0  0  0
 51 58  1  0  0  0  0
 52 63  1  0  0  0  0
 53 65  1  0  0  0  0
 54 66  1  0  0  0  0
 55 66  1  0  0  0  0
 56 66  1  0  0  0  0
 57 76  1  0  0  0  0
 59 60  1  0  0  0  0
 59 61  1  0  0  0  0
 60 62  1  0  0  0  0
 61 63  1  0  0  0  0
 62 83  1  0  0  0  0
 64 66  1  0  0  0  0
 64 75  1  0  0  0  0
 65 76  1  0  0  0  0
 67 68  1  0  0  0  0
M  CHG  1  76   1
M  ISO  4  38 100  62 101  73 100  83 101
M  END
> <Batch ID>
0134

> <Smiles>
CCc1ccc([100NH:0][100C:0](=O)N2CCCC(n3nc(-c4ccc(Oc5ccc(F)cc5F)cc4)c(C(N)=O)c3N)C2)cc1C(C)CCC[101CH2:1][101O:1]c1ccc2c(c1)CN(C(=O)C(NC(=O)C(C)NC)C(C)(C)C)C(C(=O)NC1CCCc3ccccc31)C2

> <Shape>
0.282

> <Color>
0.096

> <Negative vol penalty>
0.000

$$$$

  -OEChem-04052302333D

 84 92  0     1  0  0  0  0  0999 V2000
  -33.0607  -25.2139   19.9288 C   0  0  0  0  0  0  0  0  0  0  0  0
  -31.6815  -25.1092   20.0783 C   0  0  0  0  0  0  0  0  0  0  0  0
  -24.2989   -9.5215   22.1134 C   0  0  0  0  0  0  0  0  0  0  0  0
  -22.7096  -10.2362   20.4400 C   0  0  0  0  0  0  0  0  0  0  0  0
  -21.3011  -18.7937   17.5128 C   0  0  0  0  0  0  0  0  0  0  0  0
  -33.7895  -26.0570   20.7667 C   0  0  0  0  0  0  0  0  0  0  0  0
  -31.0305  -25.8467   21.0666 C   0  0  0  0  0  0  0  0  0  0  0  0
  -26.7966  -28.0501   19.3743 C   0  0  0  0  0  0  0  0  0  0  0  0
  -22.3403  -17.9663   17.9381 C   0  0  0  0  0  0  0  0  0  0  0  0
  -23.3483   -8.6492   22.6437 C   0  0  0  0  0  0  0  0  0  0  0  0
  -21.7590   -9.3639   20.9702 C   0  0  0  0  0  0  0  0  0  0  0  0
  -25.6674  -27.2429   19.2430 C   0  0  0  0  0  0  0  0  0  0  0  0
  -22.0751   -5.6050   21.9058 C   0  0  0  0  0  0  0  0  0  0  0  0
  -22.4874   -4.3100   22.2198 C   0  0  0  0  0  0  0  0  0  0  0  0
  -24.8275  -28.0870   21.3409 C   0  0  0  0  0  0  0  0  0  0  0  0
  -23.0459  -19.6602   19.5097 C   0  0  0  0  0  0  0  0  0  0  0  0
  -21.8699   -4.6729   24.5272 C   0  0  0  0  0  0  0  0  0  0  0  0
  -23.9795  -10.3151   21.0116 C   0  0  0  0  0  0  0  0  0  0  0  0
  -21.1343  -20.0545   18.0859 C   0  0  0  0  0  0  0  0  0  0  0  0
  -25.9001  -10.9387   19.4527 C   0  0  0  0  0  0  0  0  0  0  0  0
  -33.1459  -26.8125   21.7594 C   0  0  0  0  0  0  0  0  0  0  0  0
  -26.9551  -28.8751   20.4971 C   0  0  0  0  0  0  0  0  0  0  0  0
  -31.7516  -26.6997   21.9194 C   0  0  0  0  0  0  0  0  0  0  0  0
  -25.9583  -28.9056   21.4828 C   0  0  0  0  0  0  0  0  0  0  0  0
  -22.0067  -20.4877   19.0843 C   0  0  0  0  0  0  0  0  0  0  0  0
  -23.2127  -18.3994   18.9365 C   0  0  0  0  0  0  0  0  0  0  0  0
  -22.0784   -8.5704   22.0720 C   0  0  0  0  0  0  0  0  0  0  0  0
  -24.6841  -27.2591   20.2277 C   0  0  0  0  0  0  0  0  0  0  0  0
  -21.5603   -6.4340   22.9025 C   0  0  0  0  0  0  0  0  0  0  0  0
  -22.3848   -3.8439   23.5305 C   0  0  0  0  0  0  0  0  0  0  0  0
  -21.4577   -5.9679   24.2132 C   0  0  0  0  0  0  0  0  0  0  0  0
  -24.9608  -11.2167   20.4638 C   0  0  0  0  0  0  0  0  0  0  0  0
  -26.5931  -12.1140   19.2953 C   0  0  0  0  0  0  0  0  0  0  0  0
  -20.0409  -20.8983   17.6222 C   0  0  0  0  0  0  0  0  0  0  0  0
  -26.1258   -9.7264   18.7212 C   0  0  0  0  0  0  0  0  0  0  0  0
  -29.0745  -29.0670   22.8583 C   0  0  0  0  0  0  0  0  0  0  0  0
  -27.3875  -31.7270   23.6335 C   0  0  0  0  0  0  0  0  0  0  0  0
  -24.4401  -33.4392   23.4675 C   0  0  0  0  0  0  0  0  0  0  0  0
  -25.2219  -17.8340   20.3471 C   0  0  0  0  0  0  0  0  0  0  0  0
  -33.9819  -27.6743   22.6721 C   0  0  0  0  0  0  0  0  0  0  0  0
  -28.1662  -29.7598   20.6108 C   0  0  0  0  0  0  0  0  0  0  0  0
  -26.0712  -29.7888   22.6976 C   0  0  0  0  0  0  0  0  0  0  0  0
  -33.1686  -28.7062   23.4493 C   0  0  0  0  0  0  0  0  0  0  0  0
  -27.9550  -16.0121   21.7211 C   0  0  0  0  0  0  0  0  0  0  0  0
  -31.9267  -28.0605   24.0556 C   0  0  0  0  0  0  0  0  0  0  0  0
  -27.5857  -14.5505   21.4572 C   0  0  0  0  0  0  0  0  0  0  0  0
  -26.7274  -16.8542   22.0642 C   0  0  0  0  0  0  0  0  0  0  0  0
  -25.2572  -15.3083   20.8321 C   0  0  0  0  0  0  0  0  0  0  0  0
  -31.0062  -27.5024   22.9635 C   0  0  1  0  0  0  0  0  0  0  0  0
  -28.4687  -30.1770   22.0467 C   0  0  1  0  0  0  0  0  0  0  0  0
  -26.4525  -14.4343   20.4189 C   0  0  2  0  0  0  0  0  0  0  0  0
  -18.6462  -20.3680   17.7752 C   0  0  0  0  0  0  0  0  0  0  0  0
  -23.3536  -35.5692   24.2292 C   0  0  0  0  0  0  0  0  0  0  0  0
  -27.0931  -30.5699   26.4414 C   0  0  0  0  0  0  0  0  0  0  0  0
  -25.2550  -32.2192   26.8529 C   0  0  0  0  0  0  0  0  0  0  0  0
  -27.5658  -33.0246   26.3690 C   0  0  0  0  0  0  0  0  0  0  0  0
  -23.9827  -34.3372   20.6848 C   0  0  0  0  0  0  0  0  0  0  0  0
  -21.8498  -21.8462   19.7196 C   0  0  0  0  0  0  0  0  0  0  0  0
  -22.8654  -22.8821   19.2250 C   0  0  0  0  0  0  0  0  0  0  0  0
  -22.7401  -24.2303   19.9360 C   0  0  0  0  0  0  0  0  0  0  0  0
  -23.7370  -25.2443   19.3914 C   0  0  0  0  0  0  0  0  0  1  0  0
  -26.1885  -32.0167   24.5038 C   0  0  1  0  0  0  0  0  0  0  0  0
  -24.1328  -34.8840   23.1173 C   0  0  2  0  0  0  0  0  0  0  0  0
  -26.5241  -31.9394   26.0200 C   0  0  0  0  0  0  0  0  0  0  0  0
  -25.0468  -12.4703   20.9168 N   0  0  0  0  0  0  0  0  0  0  0  0
  -26.0483  -12.9903   20.1871 N   0  0  0  0  0  0  0  0  0  0  0  0
  -27.2769  -30.6308   22.7664 N   0  0  0  0  0  0  0  0  0  0  0  0
  -25.6979  -16.6974   21.0344 N   0  0  0  0  0  0  0  0  0  0  0  0
  -27.6094  -12.4729   18.4824 N   0  0  0  0  0  0  0  0  0  0  0  0
  -25.3239   -8.6135   19.0085 N   0  0  0  0  0  0  0  0  0  0  0  0
  -24.2681  -17.5581   19.3679 N   0  0  0  0  0  0  0  0  0  0  0  0
  -30.2557  -28.5713   22.3402 N   0  0  0  0  0  0  0  0  0  0  0  0
  -25.6732  -33.3111   24.0710 N   0  0  0  0  0  0  0  0  0  0  0  0
  -23.3259  -34.9535   21.8663 N   0  3  0  0  0  0  0  0  0  0  0  0
  -20.1778  -22.0101   17.1109 O   0  0  0  0  0  0  0  0  0  0  0  0
  -27.0233   -9.6280   17.8504 O   0  0  0  0  0  0  0  0  0  0  0  0
  -28.5126  -28.6894   23.8797 O   0  0  0  0  0  0  0  0  0  0  0  0
  -28.3828  -32.4512   23.7148 O   0  0  0  0  0  0  0  0  0  0  0  0
  -23.6623  -32.5170   23.2327 O   0  0  0  0  0  0  0  0  0  0  0  0
  -25.6502  -18.9653   20.5891 O   0  0  0  0  0  0  0  0  0  0  0  0
  -21.1507   -7.7191   22.5890 O   0  0  0  0  0  0  0  0  0  0  0  0
  -23.5813  -26.4717   20.1024 O   0  0  0  0  0  0  0  0  0  1  0  0
  -22.7793   -2.5998   23.8316 F   0  0  0  0  0  0  0  0  0  0  0  0
  -20.9628   -6.7593   25.1748 F   0  0  0  0  0  0  0  0  0  0  0  0
  1  2  1  0  0  0  0
  1  6  2  0  0  0  0
  2  7  2  0  0  0  0
  3 10  2  0  0  0  0
  3 18  1  0  0  0  0
  4 11  1  0  0  0  0
  4 18  2  0  0  0  0
  5  9  2  0  0  0  0
  5 19  1  0  0  0  0
  6 21  1  0  0  0  0
  7 23  1  0  0  0  0
  8 12  2  0  0  0  0
  8 22  1  0  0  0  0
  9 26  1  0  0  0  0
 10 27  1  0  0  0  0
 11 27  2  0  0  0  0
 12 28  1  0  0  0  0
 13 14  2  0  0  0  0
 13 29  1  0  0  0  0
 14 30  1  0  0  0  0
 15 24  1  0  0  0  0
 15 28  2  0  0  0  0
 16 25  1  0  0  0  0
 16 26  2  0  0  0  0
 17 30  2  0  0  0  0
 17 31  1  0  0  0  0
 18 32  1  0  0  0  0
 19 25  2  0  0  0  0
 19 34  1  0  0  0  0
 20 32  1  0  0  0  0
 20 33  2  0  0  0  0
 20 35  1  0  0  0  0
 21 23  2  0  0  0  0
 21 40  1  0  0  0  0
 22 24  2  0  0  0  0
 22 41  1  0  0  0  0
 23 49  1  0  0  0  0
 24 42  1  0  0  0  0
 25 58  1  0  0  0  0
 26 71  1  0  0  0  0
 27 81  1  0  0  0  0
 28 82  1  0  0  0  0
 29 31  2  0  0  0  0
 29 81  1  0  0  0  0
 30 83  1  0  0  0  0
 31 84  1  0  0  0  0
 32 65  2  0  0  0  0
 33 66  1  0  0  0  0
 33 69  1  0  0  0  0
 34 52  1  0  0  0  0
 34 75  2  0  0  0  0
 35 70  1  0  0  0  0
 35 76  2  0  0  0  0
 36 50  1  0  0  0  0
 36 72  1  0  0  0  0
 36 77  2  0  0  0  0
 37 62  1  0  0  0  0
 37 67  1  0  0  0  0
 37 78  2  0  0  0  0
 38 63  1  0  0  0  0
 38 73  1  0  0  0  0
 38 79  2  0  0  0  0
 39 68  1  0  0  0  0
 39 71  1  0  0  0  0
 39 80  2  0  0  0  0
 40 43  1  0  0  0  0
 41 50  1  0  0  0  0
 42 67  1  0  0  0  0
 43 45  1  0  0  0  0
 44 46  1  0  0  0  0
 44 47  1  0  0  0  0
 45 49  1  0  0  0  0
 46 51  1  0  0  0  0
 47 68  1  0  0  0  0
 48 51  1  0  0  0  0
 48 68  1  0  0  0  0
 49 72  1  0  0  0  0
 50 67  1  0  0  0  0
 51 66  1  0  0  0  0
 53 63  1  0  0  0  0
 54 64  1  0  0  0  0
 55 64  1  0  0  0  0
 56 64  1  0  0  0  0
 57 74  1  0  0  0  0
 58 59  1  0  0  0  0
 59 60  1  0  0  0  0
 60 61  1  0  0  0  0
 61 82  1  0  0  0  0
 62 64  1  0  0  0  0
 62 73  1  0  0  0  0
 63 74  1  0  0  0  0
 65 66  1  0  0  0  0
M  CHG  1  74   1
M  ISO  4  39 100  61 101  71 100  82 101
M  END
> <Batch ID>
0134

> <Smiles>
CNC(C)C(=O)NC(C(=O)N1Cc2cc([101O:1][101CH2:1]CCCc3cc([100NH:0][100C:0](=O)N4CCCC(n5nc(-c6ccc(Oc7ccc(F)cc7F)cc6)c(C(N)=O)c5N)C4)ccc3C(C)=O)ccc2CC1C(=O)NC1CCCc2ccccc21)C(C)(C)C

> <Shape>
0.243

> <Color>
0.094

> <Negative vol penalty>
0.000

$$$$

  -OEChem-04052302333D

 84 92  0     1  0  0  0  0  0999 V2000
  -22.2798  -31.2144   26.7600 C   0  0  0  0  0  0  0  0  0  0  0  0
  -23.1771  -30.4061   26.0693 C   0  0  0  0  0  0  0  0  0  0  0  0
  -23.2336   -9.7079   21.5276 C   0  0  0  0  0  0  0  0  0  0  0  0
  -24.0134  -10.7069   23.5846 C   0  0  0  0  0  0  0  0  0  0  0  0
  -20.9465  -31.2766   26.3570 C   0  0  0  0  0  0  0  0  0  0  0  0
  -22.7412  -29.6587   24.9757 C   0  0  0  0  0  0  0  0  0  0  0  0
  -25.9258  -29.9251   21.0473 C   0  0  0  0  0  0  0  0  0  0  0  0
  -29.0114  -20.4784   20.1607 C   0  0  0  0  0  0  0  0  0  0  0  0
  -29.9021  -20.1934   22.3883 C   0  0  0  0  0  0  0  0  0  0  0  0
  -29.5842  -19.2659   19.7766 C   0  0  0  0  0  0  0  0  0  0  0  0
  -30.4748  -18.9809   22.0043 C   0  0  0  0  0  0  0  0  0  0  0  0
  -22.5519   -8.7350   22.2585 C   0  0  0  0  0  0  0  0  0  0  0  0
  -23.3317   -9.7339   24.3155 C   0  0  0  0  0  0  0  0  0  0  0  0
  -27.0807  -29.1466   21.1099 C   0  0  0  0  0  0  0  0  0  0  0  0
  -19.6618   -8.4949   23.9970 C   0  0  0  0  0  0  0  0  0  0  0  0
  -18.3545   -8.1943   23.6147 C   0  0  0  0  0  0  0  0  0  0  0  0
  -26.0426  -27.5026   19.6820 C   0  0  0  0  0  0  0  0  0  0  0  0
  -19.0003   -5.9018   23.2091 C   0  0  0  0  0  0  0  0  0  0  0  0
  -23.9644  -10.6938   22.1906 C   0  0  0  0  0  0  0  0  0  0  0  0
  -24.1758  -12.9487   21.0165 C   0  0  0  0  0  0  0  0  0  0  0  0
  -20.4963  -30.5370   25.2521 C   0  0  0  0  0  0  0  0  0  0  0  0
  -24.8148  -29.4923   20.3092 C   0  0  0  0  0  0  0  0  0  0  0  0
  -21.4004  -29.7101   24.5584 C   0  0  0  0  0  0  0  0  0  0  0  0
  -24.8758  -28.2787   19.6095 C   0  0  0  0  0  0  0  0  0  0  0  0
  -29.1705  -20.9422   21.4666 C   0  0  0  0  0  0  0  0  0  0  0  0
  -30.3158  -18.5172   20.6983 C   0  0  0  0  0  0  0  0  0  0  0  0
  -22.6009   -8.7480   23.6525 C   0  0  0  0  0  0  0  0  0  0  0  0
  -27.1382  -27.9337   20.4296 C   0  0  0  0  0  0  0  0  0  0  0  0
  -20.6384   -7.4990   23.9854 C   0  0  0  0  0  0  0  0  0  0  0  0
  -18.0238   -6.8977   23.2207 C   0  0  0  0  0  0  0  0  0  0  0  0
  -20.3076   -6.2025   23.5915 C   0  0  0  0  0  0  0  0  0  0  0  0
  -24.6693  -11.6988   21.4362 C   0  0  0  0  0  0  0  0  0  0  0  0
  -25.2249  -13.5228   20.3410 C   0  0  0  0  0  0  0  0  0  0  0  0
  -22.8846  -13.5381   21.2192 C   0  0  0  0  0  0  0  0  0  0  0  0
  -21.8041  -28.7539   21.0122 C   0  0  0  0  0  0  0  0  0  0  0  0
  -28.9017  -24.7560   22.0744 C   0  0  0  0  0  0  0  0  0  0  0  0
  -30.6761  -14.7401   20.0380 C   0  0  0  0  0  0  0  0  0  0  0  0
  -21.5201  -28.5152   17.7897 C   0  0  0  0  0  0  0  0  0  0  0  0
  -23.0393  -27.9989   14.7777 C   0  0  0  0  0  0  0  0  0  0  0  0
  -19.0353  -30.6001   24.8829 C   0  0  0  0  0  0  0  0  0  0  0  0
  -23.5862  -30.3564   20.2299 C   0  0  0  0  0  0  0  0  0  0  0  0
  -23.7177  -27.7788   18.7865 C   0  0  0  0  0  0  0  0  0  0  0  0
  -18.7369  -30.0662   23.4843 C   0  0  0  0  0  0  0  0  0  0  0  0
  -29.6069  -11.5640   18.7696 C   0  0  0  0  0  0  0  0  0  0  0  0
  -19.4497  -28.7370   23.2569 C   0  0  0  0  0  0  0  0  0  0  0  0
  -28.1984  -11.4051   19.3406 C   0  0  0  0  0  0  0  0  0  0  0  0
  -30.5270  -12.2891   19.7467 C   0  0  0  0  0  0  0  0  0  0  0  0
  -28.6017  -13.4609   20.7674 C   0  0  0  0  0  0  0  0  0  0  0  0
  -20.9712  -28.9036   23.3520 C   0  0  1  0  0  0  0  0  0  0  0  0
  -22.3278  -29.5739   19.8672 C   0  0  1  0  0  0  0  0  0  0  0  0
  -27.6318  -12.7604   19.7994 C   0  0  2  0  0  0  0  0  0  0  0  0
  -22.5411  -27.8236   12.3244 C   0  0  0  0  0  0  0  0  0  0  0  0
  -20.3867  -25.7155   18.2224 C   0  0  0  0  0  0  0  0  0  0  0  0
  -20.8011  -25.2487   15.7978 C   0  0  0  0  0  0  0  0  0  0  0  0
  -19.2154  -27.0551   16.4651 C   0  0  0  0  0  0  0  0  0  0  0  0
  -24.7703  -30.3139   14.1425 C   0  0  0  0  0  0  0  0  0  0  0  0
  -28.5521  -22.2518   21.8823 C   0  0  0  0  0  0  0  0  0  0  0  0
  -30.9264  -17.2200   20.2873 C   0  0  0  0  0  0  0  0  0  0  0  0
  -29.5037  -23.4244   21.6523 C   0  0  0  0  0  0  0  0  0  0  0  0
  -29.8116  -25.9661   21.9111 C   0  0  0  0  0  0  0  0  0  0  0  0
  -30.0070  -16.0105   20.4988 C   0  0  0  0  0  0  0  0  0  0  0  0
  -29.0462  -27.2610   21.6798 C   0  0  0  0  0  0  0  0  0  1  0  0
  -21.6991  -27.4075   16.7798 C   0  0  1  0  0  0  0  0  0  0  0  0
  -22.9467  -28.7489   13.4611 C   0  0  2  0  0  0  0  0  0  0  0  0
  -20.5469  -26.3649   16.8332 C   0  0  0  0  0  0  0  0  0  0  0  0
  -25.9335  -11.4904   21.0587 N   0  0  0  0  0  0  0  0  0  0  0  0
  -26.2432  -12.6170   20.3947 N   0  0  0  0  0  0  0  0  0  0  0  0
  -22.5364  -28.6565   18.7452 N   0  0  0  0  0  0  0  0  0  0  0  0
  -29.9432  -13.5612   20.1759 N   0  0  0  0  0  0  0  0  0  0  0  0
  -25.3664  -14.7089   19.7121 N   0  0  0  0  0  0  0  0  0  0  0  0
  -21.9236  -12.8116   21.9355 N   0  0  0  0  0  0  0  0  0  0  0  0
  -21.4919  -29.4931   22.1372 N   0  0  0  0  0  0  0  0  0  0  0  0
  -21.8564  -28.0583   15.4836 N   0  0  0  0  0  0  0  0  0  0  0  0
  -24.2615  -29.3627   13.1210 N   0  3  0  0  0  0  0  0  0  0  0  0
  -22.5864  -14.6684   20.7642 O   0  0  0  0  0  0  0  0  0  0  0  0
  -21.6903  -27.5405   20.8840 O   0  0  0  0  0  0  0  0  0  0  0  0
  -27.7580  -24.8474   22.5174 O   0  0  0  0  0  0  0  0  0  0  0  0
  -31.8151  -14.7962   19.5671 O   0  0  0  0  0  0  0  0  0  0  0  0
  -20.5191  -29.2334   17.7285 O   0  0  0  0  0  0  0  0  0  0  0  0
  -24.0579  -27.4153   15.1416 O   0  0  0  0  0  0  0  0  0  0  0  0
  -21.9356   -7.7989   24.3660 O   0  0  0  0  0  0  0  0  0  0  0  0
  -28.2640  -27.1716   20.4896 O   0  0  0  0  0  0  0  0  0  1  0  0
  -16.7680   -6.6088   22.8550 F   0  0  0  0  0  0  0  0  0  0  0  0
  -21.2413   -5.2412   23.5794 F   0  0  0  0  0  0  0  0  0  0  0  0
  1  2  1  0  0  0  0
  1  5  2  0  0  0  0
  2  6  2  0  0  0  0
  3 12  2  0  0  0  0
  3 19  1  0  0  0  0
  4 13  1  0  0  0  0
  4 19  2  0  0  0  0
  5 21  1  0  0  0  0
  6 23  1  0  0  0  0
  7 14  2  0  0  0  0
  7 22  1  0  0  0  0
  8 10  2  0  0  0  0
  8 25  1  0  0  0  0
  9 11  1  0  0  0  0
  9 25  2  0  0  0  0
 10 26  1  0  0  0  0
 11 26  2  0  0  0  0
 12 27  1  0  0  0  0
 13 27  2  0  0  0  0
 14 28  1  0  0  0  0
 15 16  2  0  0  0  0
 15 29  1  0  0  0  0
 16 30  1  0  0  0  0
 17 24  1  0  0  0  0
 17 28  2  0  0  0  0
 18 30  2  0  0  0  0
 18 31  1  0  0  0  0
 19 32  1  0  0  0  0
 20 32  1  0  0  0  0
 20 33  2  0  0  0  0
 20 34  1  0  0  0  0
 21 23  2  0  0  0  0
 21 40  1  0  0  0  0
 22 24  2  0  0  0  0
 22 41  1  0  0  0  0
 23 49  1  0  0  0  0
 24 42  1  0  0  0  0
 25 57  1  0  0  0  0
 26 58  1  0  0  0  0
 27 81  1  0  0  0  0
 28 82  1  0  0  0  0
 29 31  2  0  0  0  0
 29 81  1  0  0  0  0
 30 83  1  0  0  0  0
 31 84  1  0  0  0  0
 32 66  2  0  0  0  0
 33 67  1  0  0  0  0
 33 70  1  0  0  0  0
 34 71  1  0  0  0  0
 34 75  2  0  0  0  0
 35 50  1  0  0  0  0
 35 72  1  0  0  0  0
 35 76  2  0  0  0  0
 36 59  1  0  0  0  0
 36 60  1  0  0  0  0
 36 77  2  0  0  0  0
 37 61  1  0  0  0  0
 37 69  1  0  0  0  0
 37 78  2  0  0  0  0
 38 63  1  0  0  0  0
 38 68  1  0  0  0  0
 38 79  2  0  0  0  0
 39 64  1  0  0  0  0
 39 73  1  0  0  0  0
 39 80  2  0  0  0  0
 40 43  1  0  0  0  0
 41 50  1  0  0  0  0
 42 68  1  0  0  0  0
 43 45  1  0  0  0  0
 44 46  1  0  0  0  0
 44 47  1  0  0  0  0
 45 49  1  0  0  0  0
 46 51  1  0  0  0  0
 47 69  1  0  0  0  0
 48 51  1  0  0  0  0
 48 69  1  0  0  0  0
 49 72  1  0  0  0  0
 50 68  1  0  0  0  0
 51 67  1  0  0  0  0
 52 64  1  0  0  0  0
 53 65  1  0  0  0  0
 54 65  1  0  0  0  0
 55 65  1  0  0  0  0
 56 74  1  0  0  0  0
 57 59  1  0  0  0  0
 58 61  1  0  0  0  0
 60 62  1  0  0  0  0
 62 82  1  0  0  0  0
 63 65  1  0  0  0  0
 63 73  1  0  0  0  0
 64 74  1  0  0  0  0
 66 67  1  0  0  0  0
M  CHG  1  74   1
M  ISO  4  37 100  61 100  62 101  82 101
M  END
> <Batch ID>
0134

> <Smiles>
CNC(C)C(=O)NC(C(=O)N1Cc2cc([101O:1][101CH2:1]CC(=O)CCc3ccc(C[100CH2:0][100C:0](=O)N4CCCC(n5nc(-c6ccc(Oc7ccc(F)cc7F)cc6)c(C(N)=O)c5N)C4)cc3)ccc2CC1C(=O)NC1CCCc2ccccc21)C(C)(C)C

> <Shape>
0.288

> <Color>
0.192

> <Negative vol penalty>
0.000

$$$$

  -OEChem-04052302333D

 85 93  0     1  0  0  0  0  0999 V2000
  -21.3450  -27.3286   20.0880 C   0  0  0  0  0  0  0  0  0  0  0  0
  -22.2358  -26.4665   20.7193 C   0  0  0  0  0  0  0  0  0  0  0  0
  -22.9495   -9.8894   20.0260 C   0  0  0  0  0  0  0  0  0  0  0  0
  -23.6565   -9.9951   22.3338 C   0  0  0  0  0  0  0  0  0  0  0  0
  -31.4969  -18.8395   20.3998 C   0  0  0  0  0  0  0  0  0  0  0  0
  -21.8161  -28.2663   19.1699 C   0  0  0  0  0  0  0  0  0  0  0  0
  -23.5983  -26.5409   20.4320 C   0  0  0  0  0  0  0  0  0  0  0  0
  -26.4747  -26.3500   24.5956 C   0  0  0  0  0  0  0  0  0  0  0  0
  -31.2797  -17.4631   20.4621 C   0  0  0  0  0  0  0  0  0  0  0  0
  -22.1597   -8.7776   20.3188 C   0  0  0  0  0  0  0  0  0  0  0  0
  -22.8666   -8.8833   22.6267 C   0  0  0  0  0  0  0  0  0  0  0  0
  -26.6727  -25.0978   25.1758 C   0  0  0  0  0  0  0  0  0  0  0  0
  -23.0523   -5.5279   22.2554 C   0  0  0  0  0  0  0  0  0  0  0  0
  -23.6145   -4.5228   23.0422 C   0  0  0  0  0  0  0  0  0  0  0  0
  -28.8380  -24.9584   24.1216 C   0  0  0  0  0  0  0  0  0  0  0  0
  -29.6166  -17.8034   22.1813 C   0  0  0  0  0  0  0  0  0  0  0  0
  -21.8817   -4.8469   24.6944 C   0  0  0  0  0  0  0  0  0  0  0  0
  -23.6979  -10.4981   21.0335 C   0  0  0  0  0  0  0  0  0  0  0  0
  -30.7741  -19.6979   21.2283 C   0  0  0  0  0  0  0  0  0  0  0  0
  -24.1317  -12.9998   20.7869 C   0  0  0  0  0  0  0  0  0  0  0  0
  -23.1862  -28.3586   18.8785 C   0  0  0  0  0  0  0  0  0  0  0  0
  -27.4539  -26.9119   23.7638 C   0  0  0  0  0  0  0  0  0  0  0  0
  -24.0881  -27.4797   19.5082 C   0  0  0  0  0  0  0  0  0  0  0  0
  -28.6511  -26.2189   23.5341 C   0  0  0  0  0  0  0  0  0  0  0  0
  -30.3395  -16.9450   21.3528 C   0  0  0  0  0  0  0  0  0  0  0  0
  -22.1182   -8.2746   21.6192 C   0  0  0  0  0  0  0  0  0  0  0  0
  -27.8532  -24.4005   24.9366 C   0  0  0  0  0  0  0  0  0  0  0  0
  -21.9048   -6.1927   22.6880 C   0  0  0  0  0  0  0  0  0  0  0  0
  -29.8339  -19.1798   22.1190 C   0  0  0  0  0  0  0  0  0  0  0  0
  -23.0292   -4.1822   24.2617 C   0  0  0  0  0  0  0  0  0  0  0  0
  -21.3195   -5.8522   23.9075 C   0  0  0  0  0  0  0  0  0  0  0  0
  -24.5144  -11.6462   20.7314 C   0  0  0  0  0  0  0  0  0  0  0  0
  -25.2577  -13.6907   20.4112 C   0  0  0  0  0  0  0  0  0  0  0  0
  -31.0164  -21.1314   21.1473 C   0  0  0  0  0  0  0  0  0  0  0  0
  -22.8710  -13.5808   21.1460 C   0  0  0  0  0  0  0  0  0  0  0  0
  -27.5664  -27.7986   20.7135 C   0  0  0  0  0  0  0  0  0  0  0  0
  -30.4902  -28.9249   21.5532 C   0  0  0  0  0  0  0  0  0  0  0  0
  -33.1607  -28.7572   23.6715 C   0  0  0  0  0  0  0  0  0  0  0  0
  -30.7521  -14.5569   20.6649 C   0  0  0  0  0  0  0  0  0  0  0  0
  -23.6426  -29.3564   17.8438 C   0  0  0  0  0  0  0  0  0  0  0  0
  -27.2364  -28.2753   23.1670 C   0  0  0  0  0  0  0  0  0  0  0  0
  -29.7422  -26.7873   22.6652 C   0  0  0  0  0  0  0  0  0  0  0  0
  -25.1456  -29.6218   17.8748 C   0  0  0  0  0  0  0  0  0  0  0  0
  -29.6073  -12.0574   18.4024 C   0  0  0  0  0  0  0  0  0  0  0  0
  -25.9179  -28.3088   17.9558 C   0  0  0  0  0  0  0  0  0  0  0  0
  -28.1488  -11.8389   18.8112 C   0  0  0  0  0  0  0  0  0  0  0  0
  -30.5023  -12.3198   19.6124 C   0  0  0  0  0  0  0  0  0  0  0  0
  -28.5911  -13.1830   20.9052 C   0  0  0  0  0  0  0  0  0  0  0  0
  -25.5762  -27.5462   19.2416 C   0  0  1  0  0  0  0  0  0  0  0  0
  -28.0833  -28.5250   21.9229 C   0  0  1  0  0  0  0  0  0  0  0  0
  -27.6399  -12.9793   19.7147 C   0  0  2  0  0  0  0  0  0  0  0  0
  -32.7772  -22.9684   21.3452 C   0  0  0  0  0  0  0  0  0  0  0  0
  -35.4162  -29.7775   24.0825 C   0  0  0  0  0  0  0  0  0  0  0  0
  -31.6395  -27.3135   19.2311 C   0  0  0  0  0  0  0  0  0  0  0  0
  -33.9088  -27.5938   20.2509 C   0  0  0  0  0  0  0  0  0  0  0  0
  -32.6229  -29.5967   19.5042 C   0  0  0  0  0  0  0  0  0  0  0  0
  -32.3565  -29.7429   26.3437 C   0  0  0  0  0  0  0  0  0  0  0  0
  -32.4167  -21.6166   20.7492 C   0  0  0  0  0  0  0  0  0  0  0  0
  -28.4317  -20.8298   25.0993 C   0  0  0  0  0  0  0  0  0  0  0  0
  -28.8630  -22.2529   24.7816 C   0  0  0  0  0  0  0  0  0  1  0  0
  -29.2570  -19.8024   24.3406 C   0  0  0  0  0  0  0  0  0  0  0  0
  -31.8879  -28.3552   21.5804 C   0  0  1  0  0  0  0  0  0  0  0  0
  -33.9318  -29.8378   24.4077 C   0  0  2  0  0  0  0  0  0  0  0  0
  -32.4936  -28.2029   20.1565 C   0  0  0  0  0  0  0  0  0  0  0  0
  -25.7843  -11.4847   20.3503 N   0  0  0  0  0  0  0  0  0  0  0  0
  -26.2093  -12.7457   20.1628 N   0  0  0  0  0  0  0  0  0  0  0  0
  -29.4797  -28.1208   22.0993 N   0  0  0  0  0  0  0  0  0  0  0  0
  -29.9602  -13.4153   20.4192 N   0  0  0  0  0  0  0  0  0  0  0  0
  -25.5168  -15.0083   20.2722 N   0  0  0  0  0  0  0  0  0  0  0  0
  -21.8201  -12.7264   21.5063 N   0  0  0  0  0  0  0  0  0  0  0  0
  -30.1194  -15.5467   21.4163 N   0  0  0  0  0  0  0  0  0  0  0  0
  -26.2680  -28.1266   20.3725 N   0  0  0  0  0  0  0  0  0  0  0  0
  -32.6617  -29.2142   22.4701 N   0  0  0  0  0  0  0  0  0  0  0  0
  -33.7666  -29.6801   25.8804 N   0  3  0  0  0  0  0  0  0  0  0  0
  -30.1399  -21.9777   21.3870 O   0  0  0  0  0  0  0  0  0  0  0  0
  -22.6773  -14.8200   21.1315 O   0  0  0  0  0  0  0  0  0  0  0  0
  -28.2922  -27.0008   20.1317 O   0  0  0  0  0  0  0  0  0  0  0  0
  -30.3030  -30.0451   21.0719 O   0  0  0  0  0  0  0  0  0  0  0  0
  -33.0186  -27.6201   24.1159 O   0  0  0  0  0  0  0  0  0  0  0  0
  -31.8969  -14.6613   20.2170 O   0  0  0  0  0  0  0  0  0  0  0  0
  -21.3474   -7.1899   21.9053 O   0  0  0  0  0  0  0  0  0  0  0  0
  -28.0488  -23.1779   25.5012 O   0  0  0  0  0  0  0  0  0  1  0  0
  -29.1140  -20.0068   22.9415 O   0  0  0  0  0  0  0  0  0  0  0  0
  -23.5682   -3.2159   25.0165 F   0  0  0  0  0  0  0  0  0  0  0  0
  -20.2164   -6.4864   24.3279 F   0  0  0  0  0  0  0  0  0  0  0  0
  1  2  1  0  0  0  0
  1  6  2  0  0  0  0
  2  7  2  0  0  0  0
  3 10  2  0  0  0  0
  3 18  1  0  0  0  0
  4 11  1  0  0  0  0
  4 18  2  0  0  0  0
  5  9  2  0  0  0  0
  5 19  1  0  0  0  0
  6 21  1  0  0  0  0
  7 23  1  0  0  0  0
  8 12  2  0  0  0  0
  8 22  1  0  0  0  0
  9 25  1  0  0  0  0
 10 26  1  0  0  0  0
 11 26  2  0  0  0  0
 12 27  1  0  0  0  0
 13 14  2  0  0  0  0
 13 28  1  0  0  0  0
 14 30  1  0  0  0  0
 15 24  1  0  0  0  0
 15 27  2  0  0  0  0
 16 25  2  0  0  0  0
 16 29  1  0  0  0  0
 17 30  2  0  0  0  0
 17 31  1  0  0  0  0
 18 32  1  0  0  0  0
 19 29  2  0  0  0  0
 19 34  1  0  0  0  0
 20 32  1  0  0  0  0
 20 33  2  0  0  0  0
 20 35  1  0  0  0  0
 21 23  2  0  0  0  0
 21 40  1  0  0  0  0
 22 24  2  0  0  0  0
 22 41  1  0  0  0  0
 23 49  1  0  0  0  0
 24 42  1  0  0  0  0
 25 71  1  0  0  0  0
 26 81  1  0  0  0  0
 27 82  1  0  0  0  0
 28 31  2  0  0  0  0
 28 81  1  0  0  0  0
 29 83  1  0  0  0  0
 30 84  1  0  0  0  0
 31 85  1  0  0  0  0
 32 65  2  0  0  0  0
 33 66  1  0  0  0  0
 33 69  1  0  0  0  0
 34 58  1  0  0  0  0
 34 75  2  0  0  0  0
 35 70  1  0  0  0  0
 35 76  2  0  0  0  0
 36 50  1  0  0  0  0
 36 72  1  0  0  0  0
 36 77  2  0  0  0  0
 37 62  1  0  0  0  0
 37 67  1  0  0  0  0
 37 78  2  0  0  0  0
 38 63  1  0  0  0  0
 38 73  1  0  0  0  0
 38 79  2  0  0  0  0
 39 68  1  0  0  0  0
 39 71  1  0  0  0  0
 39 80  2  0  0  0  0
 40 43  1  0  0  0  0
 41 50  1  0  0  0  0
 42 67  1  0  0  0  0
 43 45  1  0  0  0  0
 44 46  1  0  0  0  0
 44 47  1  0  0  0  0
 45 49  1  0  0  0  0
 46 51  1  0  0  0  0
 47 68  1  0  0  0  0
 48 51  1  0  0  0  0
 48 68  1  0  0  0  0
 49 72  1  0  0  0  0
 50 67  1  0  0  0  0
 51 66  1  0  0  0  0
 52 58  1  0  0  0  0
 53 63  1  0  0  0  0
 54 64  1  0  0  0  0
 55 64  1  0  0  0  0
 56 64  1  0  0  0  0
 57 74  1  0  0  0  0
 59 60  1  0  0  0  0
 59 61  1  0  0  0  0
 60 82  1  0  0  0  0
 61 83  1  0  0  0  0
 62 64  1  0  0  0  0
 62 73  1  0  0  0  0
 63 74  1  0  0  0  0
 65 66  1  0  0  0  0
M  CHG  1  74   1
M  ISO  4  39 100  60 101  71 100  82 101
M  END
> <Batch ID>
0134

> <Smiles>
CCC(=O)c1ccc([100NH:0][100C:0](=O)N2CCCC(n3nc(-c4ccc(Oc5ccc(F)cc5F)cc4)c(C(N)=O)c3N)C2)cc1OCC[101CH2:1][101O:1]c1ccc2c(c1)CN(C(=O)C(NC(=O)C(C)NC)C(C)(C)C)C(C(=O)NC1CCCc3ccccc31)C2

> <Shape>
0.257

> <Color>
0.215

> <Negative vol penalty>
0.000

$$$$

  -OEChem-04052302333D

 84 92  0     1  0  0  0  0  0999 V2000
  -31.3959  -26.4890   17.8883 C   0  0  0  0  0  0  0  0  0  0  0  0
  -30.5660  -25.4587   18.3183 C   0  0  0  0  0  0  0  0  0  0  0  0
  -27.5610  -17.0882   18.9837 C   0  0  0  0  0  0  0  0  0  0  0  0
  -27.8773  -17.1263   21.3786 C   0  0  0  0  0  0  0  0  0  0  0  0
  -31.3293  -27.7388   18.5027 C   0  0  0  0  0  0  0  0  0  0  0  0
  -29.6697  -25.6772   19.3640 C   0  0  0  0  0  0  0  0  0  0  0  0
  -24.0882  -23.2379   19.9988 C   0  0  0  0  0  0  0  0  0  0  0  0
  -28.2493  -18.2964   18.8736 C   0  0  0  0  0  0  0  0  0  0  0  0
  -28.5657  -18.3344   21.2685 C   0  0  0  0  0  0  0  0  0  0  0  0
  -23.6169  -22.1536   20.7377 C   0  0  0  0  0  0  0  0  0  0  0  0
  -30.0934  -21.6092   21.6580 C   0  0  0  0  0  0  0  0  0  0  0  0
  -29.7782  -22.6201   22.5659 C   0  0  0  0  0  0  0  0  0  0  0  0
  -20.8472  -17.1185   24.9245 C   0  0  0  0  0  0  0  0  0  0  0  0
  -18.7639  -18.3303   24.7570 C   0  0  0  0  0  0  0  0  0  0  0  0
  -22.9646  -23.6531   22.5111 C   0  0  0  0  0  0  0  0  0  0  0  0
  -18.9072  -16.3610   26.1492 C   0  0  0  0  0  0  0  0  0  0  0  0
  -27.4948  -22.6173   21.7764 C   0  0  0  0  0  0  0  0  0  0  0  0
  -27.3749  -16.5032   20.2362 C   0  0  0  0  0  0  0  0  0  0  0  0
  -20.1049  -18.1788   24.4046 C   0  0  0  0  0  0  0  0  0  0  0  0
  -27.2082  -13.9584   20.2995 C   0  0  0  0  0  0  0  0  0  0  0  0
  -30.4249  -27.9756   19.5499 C   0  0  0  0  0  0  0  0  0  0  0  0
  -24.0110  -24.5391   20.5161 C   0  0  0  0  0  0  0  0  0  0  0  0
  -29.5918  -26.9309   19.9939 C   0  0  0  0  0  0  0  0  0  0  0  0
  -23.4332  -24.7526   21.7757 C   0  0  0  0  0  0  0  0  0  0  0  0
  -20.2483  -16.2095   25.7968 C   0  0  0  0  0  0  0  0  0  0  0  0
  -28.7517  -18.9195   20.0159 C   0  0  0  0  0  0  0  0  0  0  0  0
  -23.0577  -22.3608   21.9952 C   0  0  0  0  0  0  0  0  0  0  0  0
  -29.1093  -21.1024   20.8092 C   0  0  0  0  0  0  0  0  0  0  0  0
  -28.4789  -23.1241   22.6252 C   0  0  0  0  0  0  0  0  0  0  0  0
  -18.1650  -17.4214   25.6293 C   0  0  0  0  0  0  0  0  0  0  0  0
  -27.8101  -21.6064   20.8684 C   0  0  0  0  0  0  0  0  0  0  0  0
  -26.6634  -15.2555   20.3507 C   0  0  0  0  0  0  0  0  0  0  0  0
  -26.1274  -13.1256   20.4564 C   0  0  0  0  0  0  0  0  0  0  0  0
  -20.7454  -19.1516   23.4707 C   0  0  0  0  0  0  0  0  0  0  0  0
  -28.5696  -13.5435   20.1259 C   0  0  0  0  0  0  0  0  0  0  0  0
  -26.1334  -26.7767   21.2856 C   0  0  0  0  0  0  0  0  0  0  0  0
  -23.4787  -28.5770   21.7688 C   0  0  0  0  0  0  0  0  0  0  0  0
  -20.1390  -28.6863   22.4625 C   0  0  0  0  0  0  0  0  0  0  0  0
  -20.7642  -13.8442   23.0198 C   0  0  0  0  0  0  0  0  0  0  0  0
  -30.4224  -29.3293   20.2148 C   0  0  0  0  0  0  0  0  0  0  0  0
  -24.4995  -25.7010   19.6953 C   0  0  0  0  0  0  0  0  0  0  0  0
  -23.3085  -26.1320   22.3674 C   0  0  0  0  0  0  0  0  0  0  0  0
  -29.1820  -29.5873   21.0664 C   0  0  0  0  0  0  0  0  0  0  0  0
  -21.4169  -12.9111   19.6463 C   0  0  0  0  0  0  0  0  0  0  0  0
  -28.8828  -28.3823   21.9526 C   0  0  0  0  0  0  0  0  0  0  0  0
  -22.8847  -13.2891   19.4397 C   0  0  0  0  0  0  0  0  0  0  0  0
  -20.6967  -13.9145   20.5445 C   0  0  0  0  0  0  0  0  0  0  0  0
  -22.8153  -14.5379   21.6384 C   0  0  0  0  0  0  0  0  0  0  0  0
  -28.5891  -27.1362   21.1085 C   0  0  1  0  0  0  0  0  0  0  0  0
  -24.8390  -26.9268   20.5376 C   0  0  1  0  0  0  0  0  0  0  0  0
  -23.5976  -13.5252   20.7848 C   0  0  2  0  0  0  0  0  0  0  0  0
  -18.2557  -30.3031   22.8320 C   0  0  0  0  0  0  0  0  0  0  0  0
  -24.5512  -29.1847   24.5600 C   0  0  0  0  0  0  0  0  0  0  0  0
  -22.2610  -29.9744   25.1922 C   0  0  0  0  0  0  0  0  0  0  0  0
  -23.5268  -31.1416   23.3872 C   0  0  0  0  0  0  0  0  0  0  0  0
  -18.6222  -27.6268   20.1525 C   0  0  0  0  0  0  0  0  0  0  0  0
  -21.0416  -15.0759   26.3533 C   0  0  0  0  0  0  0  0  0  0  0  0
  -22.2114  -18.9576   23.1058 C   0  0  0  0  0  0  0  0  0  0  0  0
  -20.9911  -13.8090   25.4909 C   0  0  0  0  0  0  0  0  0  0  0  0
  -22.7192  -20.0105   22.1285 C   0  0  0  0  0  0  0  0  0  1  0  0
  -22.5677  -28.8450   22.9424 C   0  0  1  0  0  0  0  0  0  0  0  0
  -19.0002  -29.4528   21.8144 C   0  0  2  0  0  0  0  0  0  0  0  0
  -23.2307  -29.7601   24.0104 C   0  0  0  0  0  0  0  0  0  0  0  0
  -25.3393  -15.2520   20.5261 N   0  0  0  0  0  0  0  0  0  0  0  0
  -25.0430  -13.9426   20.5865 N   0  0  0  0  0  0  0  0  0  0  0  0
  -23.8063  -27.2350   21.5289 N   0  0  0  0  0  0  0  0  0  0  0  0
  -21.4231  -14.0917   21.8042 N   0  0  0  0  0  0  0  0  0  0  0  0
  -26.0082  -11.7814   20.4942 N   0  0  0  0  0  0  0  0  0  0  0  0
  -29.5550  -14.5293   19.9793 N   0  0  0  0  0  0  0  0  0  0  0  0
  -27.2444  -27.1917   20.5764 N   0  0  0  0  0  0  0  0  0  0  0  0
  -21.3294  -29.3777   22.3847 N   0  0  0  0  0  0  0  0  0  0  0  0
  -21.5270  -14.0300   24.1662 N   0  0  0  0  0  0  0  0  0  0  0  0
  -18.0298  -28.5094   21.1904 N   0  3  0  0  0  0  0  0  0  0  0  0
  -20.0768  -20.0800   23.0219 O   0  0  0  0  0  0  0  0  0  0  0  0
  -28.9002  -12.3342   20.0849 O   0  0  0  0  0  0  0  0  0  0  0  0
  -26.1247  -26.3196   22.4225 O   0  0  0  0  0  0  0  0  0  0  0  0
  -23.8790  -29.5229   21.0857 O   0  0  0  0  0  0  0  0  0  0  0  0
  -19.9869  -27.5860   22.9886 O   0  0  0  0  0  0  0  0  0  0  0  0
  -19.5851  -13.4792   23.0787 O   0  0  0  0  0  0  0  0  0  0  0  0
  -29.4236  -20.0983   19.9088 O   0  0  0  0  0  0  0  0  0  0  0  0
  -22.5975  -21.3041   22.7187 O   0  0  0  0  0  0  0  0  0  1  0  0
  -28.1760  -24.0937   23.4982 F   0  0  0  0  0  0  0  0  0  0  0  0
  -16.8771  -17.5669   25.9679 F   0  0  0  0  0  0  0  0  0  0  0  0
  -26.8601  -21.1227   20.0563 F   0  0  0  0  0  0  0  0  0  0  0  0
  1  2  1  0  0  0  0
  1  5  2  0  0  0  0
  2  6  2  0  0  0  0
  3  8  2  0  0  0  0
  3 18  1  0  0  0  0
  4  9  1  0  0  0  0
  4 18  2  0  0  0  0
  5 21  1  0  0  0  0
  6 23  1  0  0  0  0
  7 10  2  0  0  0  0
  7 22  1  0  0  0  0
  8 26  1  0  0  0  0
  9 26  2  0  0  0  0
 10 27  1  0  0  0  0
 11 12  2  0  0  0  0
 11 28  1  0  0  0  0
 12 29  1  0  0  0  0
 13 19  2  0  0  0  0
 13 25  1  0  0  0  0
 14 19  1  0  0  0  0
 14 30  2  0  0  0  0
 15 24  1  0  0  0  0
 15 27  2  0  0  0  0
 16 25  2  0  0  0  0
 16 30  1  0  0  0  0
 17 29  2  0  0  0  0
 17 31  1  0  0  0  0
 18 32  1  0  0  0  0
 19 34  1  0  0  0  0
 20 32  1  0  0  0  0
 20 33  2  0  0  0  0
 20 35  1  0  0  0  0
 21 23  2  0  0  0  0
 21 40  1  0  0  0  0
 22 24  2  0  0  0  0
 22 41  1  0  0  0  0
 23 49  1  0  0  0  0
 24 42  1  0  0  0  0
 25 57  1  0  0  0  0
 26 80  1  0  0  0  0
 27 81  1  0  0  0  0
 28 31  2  0  0  0  0
 28 80  1  0  0  0  0
 29 82  1  0  0  0  0
 30 83  1  0  0  0  0
 31 84  1  0  0  0  0
 32 64  2  0  0  0  0
 33 65  1  0  0  0  0
 33 68  1  0  0  0  0
 34 58  1  0  0  0  0
 34 74  2  0  0  0  0
 35 69  1  0  0  0  0
 35 75  2  0  0  0  0
 36 50  1  0  0  0  0
 36 70  1  0  0  0  0
 36 76  2  0  0  0  0
 37 61  1  0  0  0  0
 37 66  1  0  0  0  0
 37 77  2  0  0  0  0
 38 62  1  0  0  0  0
 38 71  1  0  0  0  0
 38 78  2  0  0  0  0
 39 67  1  0  0  0  0
 39 72  1  0  0  0  0
 39 79  2  0  0  0  0
 40 43  1  0  0  0  0
 41 50  1  0  0  0  0
 42 66  1  0  0  0  0
 43 45  1  0  0  0  0
 44 46  1  0  0  0  0
 44 47  1  0  0  0  0
 45 49  1  0  0  0  0
 46 51  1  0  0  0  0
 47 67  1  0  0  0  0
 48 51  1  0  0  0  0
 48 67  1  0  0  0  0
 49 70  1  0  0  0  0
 50 66  1  0  0  0  0
 51 65  1  0  0  0  0
 52 62  1  0  0  0  0
 53 63  1  0  0  0  0
 54 63  1  0  0  0  0
 55 63  1  0  0  0  0
 56 73  1  0  0  0  0
 57 59  1  0  0  0  0
 58 60  1  0  0  0  0
 59 72  1  0  0  0  0
 60 81  1  0  0  0  0
 61 63  1  0  0  0  0
 61 71  1  0  0  0  0
 62 73  1  0  0  0  0
 64 65  1  0  0  0  0
M  CHG  1  73   1
M  ISO  4  39 100  60 101  72 100  81 101
M  END
> <Batch ID>
0134

> <Smiles>
CNC(C)C(=O)NC(C(=O)N1Cc2cc([101O:1][101CH2:1]CC(=O)c3cc(F)cc(CC[100NH:0][100C:0](=O)N4CCCC(n5nc(-c6ccc(Oc7ccc(F)cc7F)cc6)c(C(N)=O)c5N)C4)c3)ccc2CC1C(=O)NC1CCCc2ccccc21)C(C)(C)C

> <Shape>
0.232

> <Color>
0.076

> <Negative vol penalty>
0.000

$$$$

  -OEChem-04052302333D

 81 89  0     1  0  0  0  0  0999 V2000
  -30.4394  -10.1012   17.0496 C   0  0  0  0  0  0  0  0  0  0  0  0
  -29.8408  -10.9963   16.1688 C   0  0  0  0  0  0  0  0  0  0  0  0
  -27.1829  -27.5418   20.3445 C   0  0  0  0  0  0  0  0  0  0  0  0
  -25.1573  -28.1498   19.1763 C   0  0  0  0  0  0  0  0  0  0  0  0
  -30.3854  -10.3350   18.4231 C   0  0  0  0  0  0  0  0  0  0  0  0
  -29.1868  -12.1252   16.6611 C   0  0  0  0  0  0  0  0  0  0  0  0
  -28.9136  -17.6555   14.0444 C   0  0  0  0  0  0  0  0  0  0  0  0
  -27.0508  -28.6663   21.1590 C   0  0  0  0  0  0  0  0  0  0  0  0
  -25.0252  -29.2744   19.9909 C   0  0  0  0  0  0  0  0  0  0  0  0
  -27.9382  -18.2781   13.2668 C   0  0  0  0  0  0  0  0  0  0  0  0
  -25.2356  -29.5871   23.8591 C   0  0  0  0  0  0  0  0  0  0  0  0
  -25.4355  -29.4219   25.2296 C   0  0  0  0  0  0  0  0  0  0  0  0
  -27.3656  -21.9640    8.1847 C   0  0  0  0  0  0  0  0  0  0  0  0
  -27.0720  -19.3680   15.2368 C   0  0  0  0  0  0  0  0  0  0  0  0
  -27.2496  -31.0159   25.1570 C   0  0  0  0  0  0  0  0  0  0  0  0
  -28.3947  -22.3420    7.3508 C   0  0  0  0  0  0  0  0  0  0  0  0
  -26.2362  -27.2835   19.3531 C   0  0  0  0  0  0  0  0  0  0  0  0
  -25.8507  -24.8360   18.7458 C   0  0  0  0  0  0  0  0  0  0  0  0
  -29.7388  -11.4723   18.9319 C   0  0  0  0  0  0  0  0  0  0  0  0
  -28.9689  -17.8764   15.4281 C   0  0  0  0  0  0  0  0  0  0  0  0
  -29.1229  -12.3737   18.0427 C   0  0  0  0  0  0  0  0  0  0  0  0
  -28.0507  -18.7491   16.0293 C   0  0  0  0  0  0  0  0  0  0  0  0
  -27.0069  -22.9993    9.0956 C   0  0  0  0  0  0  0  0  0  0  0  0
  -25.9719  -29.5327   20.9822 C   0  0  0  0  0  0  0  0  0  0  0  0
  -27.0154  -19.1323   13.8633 C   0  0  0  0  0  0  0  0  0  0  0  0
  -26.0428  -30.4666   23.1375 C   0  0  0  0  0  0  0  0  0  0  0  0
  -26.4425  -30.1363   25.8786 C   0  0  0  0  0  0  0  0  0  0  0  0
  -27.0498  -31.1810   23.7865 C   0  0  0  0  0  0  0  0  0  0  0  0
  -26.3724  -26.1223   18.5110 C   0  0  0  0  0  0  0  0  0  0  0  0
  -27.7760  -24.1293    8.9232 C   0  0  0  0  0  0  0  0  0  0  0  0
  -26.2545  -24.0983   17.6599 C   0  0  0  0  0  0  0  0  0  0  0  0
  -25.0707  -24.3514   19.8469 C   0  0  0  0  0  0  0  0  0  0  0  0
  -28.6721  -16.0409   18.0062 C   0  0  0  0  0  0  0  0  0  0  0  0
  -29.5207  -18.7588   19.5602 C   0  0  0  0  0  0  0  0  0  0  0  0
  -29.6809  -22.1678   19.5581 C   0  0  0  0  0  0  0  0  0  0  0  0
  -27.5995  -25.6563   12.1264 C   0  0  0  0  0  0  0  0  0  0  0  0
  -29.6656  -11.6579   20.4268 C   0  0  0  0  0  0  0  0  0  0  0  0
  -30.0438  -17.2181   16.2487 C   0  0  0  0  0  0  0  0  0  0  0  0
  -28.0799  -19.0354   17.5077 C   0  0  0  0  0  0  0  0  0  0  0  0
  -29.2767  -13.0731   20.8466 C   0  0  0  0  0  0  0  0  0  0  0  0
  -29.7490  -23.8374   14.3999 C   0  0  0  0  0  0  0  0  0  0  0  0
  -28.0847  -13.5634   20.0308 C   0  0  0  0  0  0  0  0  0  0  0  0
  -29.0649  -24.1018   15.7424 C   0  0  0  0  0  0  0  0  0  0  0  0
  -29.6888  -25.0662   13.4973 C   0  0  0  0  0  0  0  0  0  0  0  0
  -27.6279  -25.8519   14.5970 C   0  0  0  0  0  0  0  0  0  0  0  0
  -28.4256  -13.6225   18.5369 C   0  0  1  0  0  0  0  0  0  0  0  0
  -29.6865  -17.1139   17.7282 C   0  0  1  0  0  0  0  0  0  0  0  0
  -27.6352  -24.6400   15.5463 C   0  0  2  0  0  0  0  0  0  0  0  0
  -30.3900  -24.1074   20.9837 C   0  0  0  0  0  0  0  0  0  0  0  0
  -27.0172  -18.4141   21.2700 C   0  0  0  0  0  0  0  0  0  0  0  0
  -27.2622  -20.8007   21.9860 C   0  0  0  0  0  0  0  0  0  0  0  0
  -29.0488  -19.1472   22.5308 C   0  0  0  0  0  0  0  0  0  0  0  0
  -31.6776  -23.0548   17.5618 C   0  0  0  0  0  0  0  0  0  0  0  0
  -25.9120  -22.8621   10.1233 C   0  0  0  0  0  0  0  0  0  0  0  0
  -27.7212  -25.4118    9.6602 C   0  0  0  0  0  0  0  0  0  0  0  0
  -26.3073  -22.0180   11.3401 C   0  0  0  0  0  0  0  0  0  0  0  0
  -25.1605  -21.8262   12.3336 C   0  0  0  0  0  0  0  0  0  0  0  0
  -25.6010  -21.0177   13.5464 C   0  0  0  0  0  0  0  0  0  1  0  0
  -28.7744  -19.9341   20.1439 C   0  0  1  0  0  0  0  0  0  0  0  0
  -30.8090  -23.1234   19.9026 C   0  0  2  0  0  0  0  0  0  0  0  0
  -28.0236  -19.5673   21.4551 C   0  0  0  0  0  0  0  0  0  0  0  0
  -27.0557  -26.2005   17.3660 N   0  0  0  0  0  0  0  0  0  0  0  0
  -26.9661  -24.9541   16.8716 N   0  0  0  0  0  0  0  0  0  0  0  0
  -29.1459  -18.3629   18.2685 N   0  0  0  0  0  0  0  0  0  0  0  0
  -28.2991  -25.5166   13.3366 N   0  0  0  0  0  0  0  0  0  0  0  0
  -26.0667  -22.8075   17.3120 N   0  0  0  0  0  0  0  0  0  0  0  0
  -24.7445  -25.2428   20.8781 N   0  0  0  0  0  0  0  0  0  0  0  0
  -29.2214  -14.7958   18.2461 N   0  0  0  0  0  0  0  0  0  0  0  0
  -29.7535  -21.0049   20.2955 N   0  0  0  0  0  0  0  0  0  0  0  0
  -28.3089  -25.3249   10.9785 N   0  0  0  0  0  0  0  0  0  0  0  0
  -31.2192  -23.8968   18.6966 N   0  3  0  0  0  0  0  0  0  0  0  0
  -24.6887  -23.1590   19.9224 O   0  0  0  0  0  0  0  0  0  0  0  0
  -27.4793  -16.3221   18.0046 O   0  0  0  0  0  0  0  0  0  0  0  0
  -30.4086  -18.2167   20.2230 O   0  0  0  0  0  0  0  0  0  0  0  0
  -28.8192  -22.4285   18.7214 O   0  0  0  0  0  0  0  0  0  0  0  0
  -26.4269  -26.0427   12.0731 O   0  0  0  0  0  0  0  0  0  0  0  0
  -25.8426  -30.6300   21.7770 O   0  0  0  0  0  0  0  0  0  0  0  0
  -26.0619  -19.7407   13.1068 O   0  0  0  0  0  0  0  0  0  1  0  0
  -26.6333  -29.9788   27.1950 F   0  0  0  0  0  0  0  0  0  0  0  0
  -27.8276  -32.0283   23.0988 F   0  0  0  0  0  0  0  0  0  0  0  0
  -28.9244  -23.9394    7.6673 S   0  0  0  0  0  0  0  0  0  0  0  0
  1  2  1  0  0  0  0
  1  5  2  0  0  0  0
  2  6  2  0  0  0  0
  3  8  2  0  0  0  0
  3 17  1  0  0  0  0
  4  9  1  0  0  0  0
  4 17  2  0  0  0  0
  5 19  1  0  0  0  0
  6 21  1  0  0  0  0
  7 10  2  0  0  0  0
  7 20  1  0  0  0  0
  8 24  1  0  0  0  0
  9 24  2  0  0  0  0
 10 25  1  0  0  0  0
 11 12  2  0  0  0  0
 11 26  1  0  0  0  0
 12 27  1  0  0  0  0
 13 16  2  0  0  0  0
 13 23  1  0  0  0  0
 14 22  1  0  0  0  0
 14 25  2  0  0  0  0
 15 27  2  0  0  0  0
 15 28  1  0  0  0  0
 16 81  1  0  0  0  0
 17 29  1  0  0  0  0
 18 29  1  0  0  0  0
 18 31  2  0  0  0  0
 18 32  1  0  0  0  0
 19 21  2  0  0  0  0
 19 37  1  0  0  0  0
 20 22  2  0  0  0  0
 20 38  1  0  0  0  0
 21 46  1  0  0  0  0
 22 39  1  0  0  0  0
 23 30  2  0  0  0  0
 23 54  1  0  0  0  0
 24 77  1  0  0  0  0
 25 78  1  0  0  0  0
 26 28  2  0  0  0  0
 26 77  1  0  0  0  0
 27 79  1  0  0  0  0
 28 80  1  0  0  0  0
 29 62  2  0  0  0  0
 30 55  1  0  0  0  0
 30 81  1  0  0  0  0
 31 63  1  0  0  0  0
 31 66  1  0  0  0  0
 32 67  1  0  0  0  0
 32 72  2  0  0  0  0
 33 47  1  0  0  0  0
 33 68  1  0  0  0  0
 33 73  2  0  0  0  0
 34 59  1  0  0  0  0
 34 64  1  0  0  0  0
 34 74  2  0  0  0  0
 35 60  1  0  0  0  0
 35 69  1  0  0  0  0
 35 75  2  0  0  0  0
 36 65  1  0  0  0  0
 36 70  1  0  0  0  0
 36 76  2  0  0  0  0
 37 40  1  0  0  0  0
 38 47  1  0  0  0  0
 39 64  1  0  0  0  0
 40 42  1  0  0  0  0
 41 43  1  0  0  0  0
 41 44  1  0  0  0  0
 42 46  1  0  0  0  0
 43 48  1  0  0  0  0
 44 65  1  0  0  0  0
 45 48  1  0  0  0  0
 45 65  1  0  0  0  0
 46 68  1  0  0  0  0
 47 64  1  0  0  0  0
 48 63  1  0  0  0  0
 49 60  1  0  0  0  0
 50 61  1  0  0  0  0
 51 61  1  0  0  0  0
 52 61  1  0  0  0  0
 53 71  1  0  0  0  0
 54 56  1  0  0  0  0
 55 70  1  0  0  0  0
 56 57  1  0  0  0  0
 57 58  1  0  0  0  0
 58 78  1  0  0  0  0
 59 61  1  0  0  0  0
 59 69  1  0  0  0  0
 60 71  1  0  0  0  0
 62 63  1  0  0  0  0
M  CHG  1  71   1
M  ISO  4  36 100  58 101  70 100  78 101
M  END
> <Batch ID>
0134

> <Smiles>
CNC(C)C(=O)NC(C(=O)N1Cc2cc([101O:1][101CH2:1]CCCc3ccsc3C[100NH:0][100C:0](=O)N3CCCC(n4nc(-c5ccc(Oc6ccc(F)cc6F)cc5)c(C(N)=O)c4N)C3)ccc2CC1C(=O)NC1CCCc2ccccc21)C(C)(C)C

> <Shape>
0.195

> <Color>
0.066

> <Negative vol penalty>
0.000

$$$$

  -OEChem-04052302333D

 83 92  0     1  0  0  0  0  0999 V2000
  -30.3123  -10.8610   19.0783 C   0  0  0  0  0  0  0  0  0  0  0  0
  -30.2211  -12.2376   18.8994 C   0  0  0  0  0  0  0  0  0  0  0  0
  -20.5869  -25.8905   23.6156 C   0  0  0  0  0  0  0  0  0  0  0  0
  -19.1128  -26.6313   21.8506 C   0  0  0  0  0  0  0  0  0  0  0  0
  -28.0386  -28.4973   19.3735 C   0  0  0  0  0  0  0  0  0  0  0  0
  -29.1924  -10.1361   19.4837 C   0  0  0  0  0  0  0  0  0  0  0  0
  -29.0095  -12.8901   19.1248 C   0  0  0  0  0  0  0  0  0  0  0  0
  -29.5693  -17.1630   21.7844 C   0  0  0  0  0  0  0  0  0  0  0  0
  -28.6716  -27.2740   19.1537 C   0  0  0  0  0  0  0  0  0  0  0  0
  -19.4819  -25.5673   24.4029 C   0  0  0  0  0  0  0  0  0  0  0  0
  -18.0077  -26.3080   22.6379 C   0  0  0  0  0  0  0  0  0  0  0  0
  -30.0367  -18.2833   21.0985 C   0  0  0  0  0  0  0  0  0  0  0  0
  -17.2265  -23.0574   24.6199 C   0  0  0  0  0  0  0  0  0  0  0  0
  -17.2416  -21.8322   25.2864 C   0  0  0  0  0  0  0  0  0  0  0  0
  -29.2947  -27.1772   21.4858 C   0  0  0  0  0  0  0  0  0  0  0  0
  -27.7792  -19.1175   20.9349 C   0  0  0  0  0  0  0  0  0  0  0  0
  -17.0621  -22.9820   27.4037 C   0  0  0  0  0  0  0  0  0  0  0  0
  -20.4024  -26.4226   22.3394 C   0  0  0  0  0  0  0  0  0  0  0  0
  -28.0336  -29.0606   20.6495 C   0  0  0  0  0  0  0  0  0  0  0  0
  -22.2131  -25.9188   20.6145 C   0  0  0  0  0  0  0  0  0  0  0  0
  -27.9690  -10.7814   19.7235 C   0  0  0  0  0  0  0  0  0  0  0  0
  -28.1998  -17.0061   22.0415 C   0  0  0  0  0  0  0  0  0  0  0  0
  -27.8718  -12.1730   19.5325 C   0  0  0  0  0  0  0  0  0  0  0  0
  -28.6617  -28.4006   21.7057 C   0  0  0  0  0  0  0  0  0  0  0  0
  -27.2973  -17.9957   21.6265 C   0  0  0  0  0  0  0  0  0  0  0  0
  -29.2997  -26.6139   20.2098 C   0  0  0  0  0  0  0  0  0  0  0  0
  -18.1922  -25.7760   23.9141 C   0  0  0  0  0  0  0  0  0  0  0  0
  -29.1413  -19.2593   20.6711 C   0  0  0  0  0  0  0  0  0  0  0  0
  -17.1293  -24.2449   25.3452 C   0  0  0  0  0  0  0  0  0  0  0  0
  -17.1594  -21.7945   26.6784 C   0  0  0  0  0  0  0  0  0  0  0  0
  -17.0470  -24.2071   26.7372 C   0  0  0  0  0  0  0  0  0  0  0  0
  -21.5435  -26.7573   21.5258 C   0  0  0  0  0  0  0  0  0  0  0  0
  -23.2185  -26.7019   20.1023 C   0  0  0  0  0  0  0  0  0  0  0  0
  -27.3591  -30.3497   20.8502 C   0  0  0  0  0  0  0  0  0  0  0  0
  -21.9497  -24.5542   20.2623 C   0  0  0  0  0  0  0  0  0  0  0  0
  -25.9932  -14.8714   21.2183 C   0  0  0  0  0  0  0  0  0  0  0  0
  -24.1362  -16.5846   23.2527 C   0  0  0  0  0  0  0  0  0  0  0  0
  -23.5369  -19.5538   24.8249 C   0  0  0  0  0  0  0  0  0  0  0  0
  -26.7737   -9.9490   20.1147 C   0  0  0  0  0  0  0  0  0  0  0  0
  -27.7147  -15.8050   22.8060 C   0  0  0  0  0  0  0  0  0  0  0  0
  -25.8195  -17.8844   21.8954 C   0  0  0  0  0  0  0  0  0  0  0  0
  -25.6240  -10.7688   20.6946 C   0  0  0  0  0  0  0  0  0  0  0  0
  -24.0630  -31.6729   20.4942 C   0  0  0  0  0  0  0  0  0  0  0  0
  -29.2076  -30.3742   23.2808 C   0  0  0  0  0  0  0  0  0  0  0  0
  -29.9883  -29.1969   23.7755 C   0  0  0  0  0  0  0  0  0  0  0  0
  -25.3568  -11.9982   19.8320 C   0  0  0  0  0  0  0  0  0  0  0  0
  -23.1648  -30.4479   20.6752 C   0  0  0  0  0  0  0  0  0  0  0  0
  -25.2980  -31.6033   21.3889 C   0  0  0  0  0  0  0  0  0  0  0  0
  -25.1932  -29.1350   21.4253 C   0  0  0  0  0  0  0  0  0  0  0  0
  -28.6702  -28.9825   23.0811 C   0  0  0  0  0  0  0  0  0  0  0  0
  -26.5814  -12.9201   19.7910 C   0  0  1  0  0  0  0  0  0  0  0  0
  -26.2406  -15.4967   22.5620 C   0  0  1  0  0  0  0  0  0  0  0  0
  -23.9623  -29.1413   20.5039 C   0  0  1  0  0  0  0  0  0  0  0  0
  -21.9235  -20.6602   26.3965 C   0  0  0  0  0  0  0  0  0  0  0  0
  -22.1099  -16.8438   20.9862 C   0  0  0  0  0  0  0  0  0  0  0  0
  -21.0196  -18.6986   22.2665 C   0  0  0  0  0  0  0  0  0  0  0  0
  -21.1089  -16.4014   23.2349 C   0  0  0  0  0  0  0  0  0  0  0  0
  -25.6520  -20.0430   26.8364 C   0  0  0  0  0  0  0  0  0  0  0  0
  -29.9844  -25.2918   19.9714 C   0  0  0  0  0  0  0  0  0  0  0  0
  -29.0701  -24.0771   20.1655 C   0  0  0  0  0  0  0  0  0  0  0  0
  -29.8008  -22.7444   19.9950 C   0  0  0  0  0  0  0  0  0  0  0  0
  -28.8536  -21.5630   20.1553 C   0  0  0  0  0  0  0  0  0  1  0  0
  -23.2247  -17.7805   23.1183 C   0  0  1  0  0  0  0  0  0  0  0  0
  -23.2238  -19.8812   26.2738 C   0  0  2  0  0  0  0  0  0  0  0  0
  -21.8933  -17.4325   22.3946 C   0  0  0  0  0  0  0  0  0  0  0  0
  -22.0786  -27.9793   21.5911 N   0  0  0  0  0  0  0  0  0  0  0  0
  -23.0951  -27.9145   20.7144 N   0  0  0  0  0  0  0  0  0  0  0  0
  -26.0058  -30.3381   21.1964 N   0  0  0  0  0  0  0  0  0  0  0  0
  -25.3934  -16.6884   22.6409 N   0  0  0  0  0  0  0  0  0  0  0  0
  -24.1873  -26.4647   19.1926 N   0  0  0  0  0  0  0  0  0  0  0  0
  -20.8778  -23.8988   20.8836 N   0  0  0  0  0  0  0  0  0  0  0  0
  -26.6770  -13.6882   21.0138 N   0  0  0  0  0  0  0  0  0  0  0  0
  -23.0510  -18.3147   24.4648 N   0  0  0  0  0  0  0  0  0  0  0  0
  -24.3191  -20.6983   26.8685 N   0  3  0  0  0  0  0  0  0  0  0  0
  -28.0477  -31.3552   20.6831 O   0  0  0  0  0  0  0  0  0  0  0  0
  -22.6543  -23.9292   19.4339 O   0  0  0  0  0  0  0  0  0  0  0  0
  -25.2365  -15.4209   20.4263 O   0  0  0  0  0  0  0  0  0  0  0  0
  -23.7497  -15.5976   23.8836 O   0  0  0  0  0  0  0  0  0  0  0  0
  -24.1480  -20.3221   24.0854 O   0  0  0  0  0  0  0  0  0  0  0  0
  -17.1137  -25.4604   24.6820 O   0  0  0  0  0  0  0  0  0  0  0  0
  -29.5948  -20.3534   20.0009 O   0  0  0  0  0  0  0  0  0  1  0  0
  -17.1723  -20.6178   27.3182 F   0  0  0  0  0  0  0  0  0  0  0  0
  -16.9522  -25.3446   27.4394 F   0  0  0  0  0  0  0  0  0  0  0  0
  1  2  1  0  0  0  0
  1  6  2  0  0  0  0
  2  7  2  0  0  0  0
  3 10  2  0  0  0  0
  3 18  1  0  0  0  0
  4 11  1  0  0  0  0
  4 18  2  0  0  0  0
  5  9  2  0  0  0  0
  5 19  1  0  0  0  0
  6 21  1  0  0  0  0
  7 23  1  0  0  0  0
  8 12  2  0  0  0  0
  8 22  1  0  0  0  0
  9 26  1  0  0  0  0
 10 27  1  0  0  0  0
 11 27  2  0  0  0  0
 12 28  1  0  0  0  0
 13 14  2  0  0  0  0
 13 29  1  0  0  0  0
 14 30  1  0  0  0  0
 15 24  1  0  0  0  0
 15 26  2  0  0  0  0
 16 25  1  0  0  0  0
 16 28  2  0  0  0  0
 17 30  2  0  0  0  0
 17 31  1  0  0  0  0
 18 32  1  0  0  0  0
 19 24  2  0  0  0  0
 19 34  1  0  0  0  0
 20 32  1  0  0  0  0
 20 33  2  0  0  0  0
 20 35  1  0  0  0  0
 21 23  2  0  0  0  0
 21 39  1  0  0  0  0
 22 25  2  0  0  0  0
 22 40  1  0  0  0  0
 23 51  1  0  0  0  0
 24 50  1  0  0  0  0
 25 41  1  0  0  0  0
 26 59  1  0  0  0  0
 27 80  1  0  0  0  0
 28 81  1  0  0  0  0
 29 31  2  0  0  0  0
 29 80  1  0  0  0  0
 30 82  1  0  0  0  0
 31 83  1  0  0  0  0
 32 66  2  0  0  0  0
 33 67  1  0  0  0  0
 33 70  1  0  0  0  0
 34 68  1  0  0  0  0
 34 75  2  0  0  0  0
 35 71  1  0  0  0  0
 35 76  2  0  0  0  0
 36 52  1  0  0  0  0
 36 72  1  0  0  0  0
 36 77  2  0  0  0  0
 37 63  1  0  0  0  0
 37 69  1  0  0  0  0
 37 78  2  0  0  0  0
 38 64  1  0  0  0  0
 38 73  1  0  0  0  0
 38 79  2  0  0  0  0
 39 42  1  0  0  0  0
 40 52  1  0  0  0  0
 41 69  1  0  0  0  0
 42 46  1  0  0  0  0
 43 47  1  0  0  0  0
 43 48  1  0  0  0  0
 44 45  1  0  0  0  0
 44 50  1  0  0  0  0
 45 50  1  0  0  0  0
 46 51  1  0  0  0  0
 47 53  1  0  0  0  0
 48 68  1  0  0  0  0
 49 53  1  0  0  0  0
 49 68  1  0  0  0  0
 51 72  1  0  0  0  0
 52 69  1  0  0  0  0
 53 67  1  0  0  0  0
 54 64  1  0  0  0  0
 55 65  1  0  0  0  0
 56 65  1  0  0  0  0
 57 65  1  0  0  0  0
 58 74  1  0  0  0  0
 59 60  1  0  0  0  0
 60 61  1  0  0  0  0
 61 62  1  0  0  0  0
 62 81  1  0  0  0  0
 63 65  1  0  0  0  0
 63 73  1  0  0  0  0
 64 74  1  0  0  0  0
 66 67  1  0  0  0  0
M  CHG  1  74   1
M  ISO  4  19 100  34 100  62 101  81 101
M  END
> <Batch ID>
0134

> <Smiles>
CNC(C)C(=O)NC(C(=O)N1Cc2cc([101O:1][101CH2:1]CCCc3cc[100c:0]([100C:0](=O)N4CCCC(n5nc(-c6ccc(Oc7ccc(F)cc7F)cc6)c(C(N)=O)c5N)C4)c(C4CC4)c3)ccc2CC1C(=O)NC1CCCc2ccccc21)C(C)(C)C

> <Shape>
0.228

> <Color>
0.061

> <Negative vol penalty>
0.000

$$$$

  -OEChem-04052302333D

 86 94  0     1  0  0  0  0  0999 V2000
  -20.0653  -18.8731   23.2310 C   0  0  0  0  0  0  0  0  0  0  0  0
  -21.0646  -18.9025   22.2635 C   0  0  0  0  0  0  0  0  0  0  0  0
  -23.0173   -9.9737   19.8654 C   0  0  0  0  0  0  0  0  0  0  0  0
  -23.9072   -9.7043   22.0954 C   0  0  0  0  0  0  0  0  0  0  0  0
  -19.4100  -20.0500   23.5906 C   0  0  0  0  0  0  0  0  0  0  0  0
  -21.4083  -20.1087   21.6543 C   0  0  0  0  0  0  0  0  0  0  0  0
  -26.4196  -20.7544   21.3141 C   0  0  0  0  0  0  0  0  0  0  0  0
  -30.6349  -19.7583   22.1741 C   0  0  0  0  0  0  0  0  0  0  0  0
  -29.7828  -19.0678   23.0360 C   0  0  0  0  0  0  0  0  0  0  0  0
  -22.2884   -8.7938   20.0137 C   0  0  0  0  0  0  0  0  0  0  0  0
  -23.1783   -8.5243   22.2437 C   0  0  0  0  0  0  0  0  0  0  0  0
  -27.0835  -20.0624   20.3021 C   0  0  0  0  0  0  0  0  0  0  0  0
  -23.4351   -5.2977   21.2669 C   0  0  0  0  0  0  0  0  0  0  0  0
  -24.0901   -4.1961   21.8173 C   0  0  0  0  0  0  0  0  0  0  0  0
  -27.1065  -22.0644   18.9564 C   0  0  0  0  0  0  0  0  0  0  0  0
  -31.1248  -17.6994   21.0088 C   0  0  0  0  0  0  0  0  0  0  0  0
  -22.4893   -4.1480   23.6262 C   0  0  0  0  0  0  0  0  0  0  0  0
  -23.8268  -10.4289   20.9062 C   0  0  0  0  0  0  0  0  0  0  0  0
  -24.1625  -12.9519   21.0781 C   0  0  0  0  0  0  0  0  0  0  0  0
  -19.7526  -21.2729   22.9924 C   0  0  0  0  0  0  0  0  0  0  0  0
  -26.0839  -22.1061   21.1502 C   0  0  0  0  0  0  0  0  0  0  0  0
  -20.7561  -21.3029   22.0053 C   0  0  0  0  0  0  0  0  0  0  0  0
  -26.4406  -22.7720   19.9689 C   0  0  0  0  0  0  0  0  0  0  0  0
  -31.3058  -19.0741   21.1605 C   0  0  0  0  0  0  0  0  0  0  0  0
  -29.6017  -17.6931   22.8843 C   0  0  0  0  0  0  0  0  0  0  0  0
  -30.2727  -17.0089   21.8707 C   0  0  0  0  0  0  0  0  0  0  0  0
  -22.3688   -8.0691   21.2029 C   0  0  0  0  0  0  0  0  0  0  0  0
  -27.4245  -20.7166   19.1219 C   0  0  0  0  0  0  0  0  0  0  0  0
  -22.3072   -5.8246   21.8961 C   0  0  0  0  0  0  0  0  0  0  0  0
  -23.6172   -3.6213   22.9969 C   0  0  0  0  0  0  0  0  0  0  0  0
  -21.8342   -5.2497   23.0758 C   0  0  0  0  0  0  0  0  0  0  0  0
  -24.5805  -11.6474   20.7534 C   0  0  0  0  0  0  0  0  0  0  0  0
  -25.2325  -13.7474   20.7481 C   0  0  0  0  0  0  0  0  0  0  0  0
  -22.9184  -13.4041   21.6287 C   0  0  0  0  0  0  0  0  0  0  0  0
  -23.3631  -23.7475   21.0670 C   0  0  0  0  0  0  0  0  0  0  0  0
  -25.3605  -26.3016   20.9708 C   0  0  0  0  0  0  0  0  0  0  0  0
  -28.4486  -27.5374   20.2071 C   0  0  0  0  0  0  0  0  0  0  0  0
  -30.7002  -14.7993   20.7388 C   0  0  0  0  0  0  0  0  0  0  0  0
  -18.9836  -22.5112   23.3798 C   0  0  0  0  0  0  0  0  0  0  0  0
  -25.3914  -22.8454   22.2620 C   0  0  0  0  0  0  0  0  0  0  0  0
  -26.1210  -24.2277   19.7517 C   0  0  0  0  0  0  0  0  0  0  0  0
  -19.6660  -23.8093   22.9562 C   0  0  0  0  0  0  0  0  0  0  0  0
  -29.4509  -12.6870   18.1592 C   0  0  0  0  0  0  0  0  0  0  0  0
  -20.1405  -23.7156   21.5096 C   0  0  0  0  0  0  0  0  0  0  0  0
  -28.0380  -12.3355   18.6308 C   0  0  0  0  0  0  0  0  0  0  0  0
  -30.4334  -12.7726   19.3258 C   0  0  0  0  0  0  0  0  0  0  0  0
  -28.6090  -13.3097   20.8918 C   0  0  0  0  0  0  0  0  0  0  0  0
  -21.1744  -22.5959   21.3395 C   0  0  1  0  0  0  0  0  0  0  0  0
  -24.6421  -24.0839   21.7802 C   0  0  1  0  0  0  0  0  0  0  0  0
  -27.5702  -13.2759   19.7589 C   0  0  2  0  0  0  0  0  0  0  0  0
  -28.6836  -16.9792   23.8226 C   0  0  0  0  0  0  0  0  0  0  0  0
  -29.7706  -29.6704   20.2014 C   0  0  0  0  0  0  0  0  0  0  0  0
  -32.0541  -18.3383   17.5534 C   0  0  0  0  0  0  0  0  0  0  0  0
  -23.8646  -27.2192   18.4748 C   0  0  0  0  0  0  0  0  0  0  0  0
  -25.7712  -28.7663   17.9857 C   0  0  0  0  0  0  0  0  0  0  0  0
  -24.4418  -29.0504   20.0772 C   0  0  0  0  0  0  0  0  0  0  0  0
  -31.0249  -20.8152   15.9080 C   0  0  0  0  0  0  0  0  0  0  0  0
  -29.5413  -18.8035   15.9218 C   0  0  0  0  0  0  0  0  0  0  0  0
  -30.4393  -26.4447   22.1051 C   0  0  0  0  0  0  0  0  0  0  0  0
  -32.2270  -19.8217   20.2289 C   0  0  0  0  0  0  0  0  0  0  0  0
  -31.5323  -20.3693   18.9702 C   0  0  0  0  0  0  0  0  0  0  0  0
  -28.9484  -20.7997   17.2979 C   0  0  0  0  0  0  0  0  0  1  0  0
  -26.0305  -27.0941   19.8745 C   0  0  1  0  0  0  0  0  0  0  0  0
  -29.4007  -28.4237   20.9898 C   0  0  2  0  0  0  0  0  0  0  0  0
  -30.9413  -19.2995   18.0103 C   0  0  1  0  0  0  0  0  0  0  0  0
  -25.0315  -28.0045   19.1060 C   0  0  0  0  0  0  0  0  0  0  0  0
  -30.1354  -19.9298   16.8027 C   0  0  0  0  0  0  0  0  0  0  0  0
  -25.8193  -11.6119   20.2553 N   0  0  0  0  0  0  0  0  0  0  0  0
  -26.1889  -12.9039   20.2644 N   0  0  0  0  0  0  0  0  0  0  0  0
  -25.4376  -24.9056   20.8657 N   0  0  0  0  0  0  0  0  0  0  0  0
  -29.9261  -13.6844   20.3535 N   0  0  0  0  0  0  0  0  0  0  0  0
  -25.4390  -15.0791   20.8273 N   0  0  0  0  0  0  0  0  0  0  0  0
  -21.9269  -12.4539   21.9088 N   0  0  0  0  0  0  0  0  0  0  0  0
  -30.1013  -15.6127   21.7001 N   0  0  0  0  0  0  0  0  0  0  0  0
  -22.4673  -23.0231   21.8299 N   0  0  0  0  0  0  0  0  0  0  0  0
  -27.1312  -27.8142   20.5056 N   0  0  0  0  0  0  0  0  0  0  0  0
  -30.6528  -27.6821   21.3111 N   0  3  0  0  0  0  0  0  0  0  0  0
  -22.6864  -14.6169   21.8501 O   0  0  0  0  0  0  0  0  0  0  0  0
  -23.2004  -24.1190   19.9106 O   0  0  0  0  0  0  0  0  0  0  0  0
  -24.7960  -26.8992   21.8905 O   0  0  0  0  0  0  0  0  0  0  0  0
  -28.8349  -26.6873   19.4080 O   0  0  0  0  0  0  0  0  0  0  0  0
  -31.8008  -15.0314   20.2320 O   0  0  0  0  0  0  0  0  0  0  0  0
  -21.6575   -6.9178   21.3480 O   0  0  0  0  0  0  0  0  0  0  0  0
  -28.0719  -20.0433   18.1323 O   0  0  0  0  0  0  0  0  0  1  0  0
  -24.2454   -2.5624   23.5245 F   0  0  0  0  0  0  0  0  0  0  0  0
  -20.7504   -5.7507   23.6842 F   0  0  0  0  0  0  0  0  0  0  0  0
  1  2  1  0  0  0  0
  1  5  2  0  0  0  0
  2  6  2  0  0  0  0
  3 10  2  0  0  0  0
  3 18  1  0  0  0  0
  4 11  1  0  0  0  0
  4 18  2  0  0  0  0
  5 20  1  0  0  0  0
  6 22  1  0  0  0  0
  7 12  2  0  0  0  0
  7 21  1  0  0  0  0
  8  9  2  0  0  0  0
  8 24  1  0  0  0  0
  9 25  1  0  0  0  0
 10 27  1  0  0  0  0
 11 27  2  0  0  0  0
 12 28  1  0  0  0  0
 13 14  2  0  0  0  0
 13 29  1  0  0  0  0
 14 30  1  0  0  0  0
 15 23  1  0  0  0  0
 15 28  2  0  0  0  0
 16 24  2  0  0  0  0
 16 26  1  0  0  0  0
 17 30  2  0  0  0  0
 17 31  1  0  0  0  0
 18 32  1  0  0  0  0
 19 32  1  0  0  0  0
 19 33  2  0  0  0  0
 19 34  1  0  0  0  0
 20 22  2  0  0  0  0
 20 39  1  0  0  0  0
 21 23  2  0  0  0  0
 21 40  1  0  0  0  0
 22 48  1  0  0  0  0
 23 41  1  0  0  0  0
 24 60  1  0  0  0  0
 25 26  2  0  0  0  0
 25 51  1  0  0  0  0
 26 74  1  0  0  0  0
 27 83  1  0  0  0  0
 28 84  1  0  0  0  0
 29 31  2  0  0  0  0
 29 83  1  0  0  0  0
 30 85  1  0  0  0  0
 31 86  1  0  0  0  0
 32 68  2  0  0  0  0
 33 69  1  0  0  0  0
 33 72  1  0  0  0  0
 34 73  1  0  0  0  0
 34 78  2  0  0  0  0
 35 49  1  0  0  0  0
 35 75  1  0  0  0  0
 35 79  2  0  0  0  0
 36 63  1  0  0  0  0
 36 70  1  0  0  0  0
 36 80  2  0  0  0  0
 37 64  1  0  0  0  0
 37 76  1  0  0  0  0
 37 81  2  0  0  0  0
 38 71  1  0  0  0  0
 38 74  1  0  0  0  0
 38 82  2  0  0  0  0
 39 42  1  0  0  0  0
 40 49  1  0  0  0  0
 41 70  1  0  0  0  0
 42 44  1  0  0  0  0
 43 45  1  0  0  0  0
 43 46  1  0  0  0  0
 44 48  1  0  0  0  0
 45 50  1  0  0  0  0
 46 71  1  0  0  0  0
 47 50  1  0  0  0  0
 47 71  1  0  0  0  0
 48 75  1  0  0  0  0
 49 70  1  0  0  0  0
 50 69  1  0  0  0  0
 52 64  1  0  0  0  0
 53 65  1  0  0  0  0
 54 66  1  0  0  0  0
 55 66  1  0  0  0  0
 56 66  1  0  0  0  0
 57 67  1  0  0  0  0
 58 67  1  0  0  0  0
 59 77  1  0  0  0  0
 60 61  1  0  0  0  0
 61 65  1  0  0  0  0
 62 67  1  0  0  0  0
 62 84  1  0  0  0  0
 63 66  1  0  0  0  0
 63 76  1  0  0  0  0
 64 77  1  0  0  0  0
 65 67  1  0  0  0  0
 68 69  1  0  0  0  0
M  CHG  1  77   1
M  ISO  4  38 100  62 101  74 100  84 101
M  END
> <Batch ID>
0134

> <Smiles>
CNC(C)C(=O)NC(C(=O)N1Cc2cc([101O:1][101CH2:1]C(C)(C)C(C)CCc3ccc(C)c([100NH:0][100C:0](=O)N4CCCC(n5nc(-c6ccc(Oc7ccc(F)cc7F)cc6)c(C(N)=O)c5N)C4)c3)ccc2CC1C(=O)NC1CCCc2ccccc21)C(C)(C)C

> <Shape>
0.260

> <Color>
0.187

> <Negative vol penalty>
0.000

$$$$

  -OEChem-04052302333D

 86 94  0     1  0  0  0  0  0999 V2000
  -32.0305  -14.9873   21.1277 C   0  0  0  0  0  0  0  0  0  0  0  0
  -31.0031  -15.5925   21.8444 C   0  0  0  0  0  0  0  0  0  0  0  0
  -28.3949  -19.4403   21.2913 C   0  0  0  0  0  0  0  0  0  0  0  0
  -22.4283  -29.2485   19.5980 C   0  0  0  0  0  0  0  0  0  0  0  0
  -22.4914  -27.9606   21.6411 C   0  0  0  0  0  0  0  0  0  0  0  0
  -31.7299  -14.1291   20.0708 C   0  0  0  0  0  0  0  0  0  0  0  0
  -29.6746  -15.3407   21.5039 C   0  0  0  0  0  0  0  0  0  0  0  0
  -26.7653  -14.4558   25.5533 C   0  0  0  0  0  0  0  0  0  0  0  0
  -28.0052  -19.3863   22.6295 C   0  0  0  0  0  0  0  0  0  0  0  0
  -28.4473  -20.6668   20.6290 C   0  0  0  0  0  0  0  0  0  0  0  0
  -21.0401  -29.3404   19.6987 C   0  0  0  0  0  0  0  0  0  0  0  0
  -21.1032  -28.0526   21.7420 C   0  0  0  0  0  0  0  0  0  0  0  0
  -26.3573  -15.5615   26.2981 C   0  0  0  0  0  0  0  0  0  0  0  0
  -18.8256  -30.3453   22.7304 C   0  0  0  0  0  0  0  0  0  0  0  0
  -18.2874  -30.6601   23.9781 C   0  0  0  0  0  0  0  0  0  0  0  0
  -24.2093  -15.4995   25.2021 C   0  0  0  0  0  0  0  0  0  0  0  0
  -17.0725  -28.5718   23.9810 C   0  0  0  0  0  0  0  0  0  0  0  0
  -23.1539  -28.5586   20.5691 C   0  0  0  0  0  0  0  0  0  0  0  0
  -25.5400  -29.3528   20.9972 C   0  0  0  0  0  0  0  0  0  0  0  0
  -30.3969  -13.8591   19.7233 C   0  0  0  0  0  0  0  0  0  0  0  0
  -25.9007  -13.8693   24.6179 C   0  0  0  0  0  0  0  0  0  0  0  0
  -29.3559  -14.4791   20.4405 C   0  0  0  0  0  0  0  0  0  0  0  0
  -24.6078  -14.3849   24.4486 C   0  0  0  0  0  0  0  0  0  0  0  0
  -27.6678  -20.5588   23.3055 C   0  0  0  0  0  0  0  0  0  0  0  0
  -27.7202  -21.7854   22.6432 C   0  0  0  0  0  0  0  0  0  0  0  0
  -28.1099  -21.8393   21.3050 C   0  0  0  0  0  0  0  0  0  0  0  0
  -20.3776  -28.7425   20.7707 C   0  0  0  0  0  0  0  0  0  0  0  0
  -25.0802  -16.0853   26.1205 C   0  0  0  0  0  0  0  0  0  0  0  0
  -18.4872  -29.1437   22.1079 C   0  0  0  0  0  0  0  0  0  0  0  0
  -17.4109  -29.7734   24.6034 C   0  0  0  0  0  0  0  0  0  0  0  0
  -17.6107  -28.2570   22.7332 C   0  0  0  0  0  0  0  0  0  0  0  0
  -24.5878  -28.4627   20.4653 C   0  0  0  0  0  0  0  0  0  0  0  0
  -26.7512  -28.8219   20.6261 C   0  0  0  0  0  0  0  0  0  0  0  0
  -25.3470  -30.5522   21.7586 C   0  0  0  0  0  0  0  0  0  0  0  0
  -25.9665  -13.4287   21.4707 C   0  0  0  0  0  0  0  0  0  0  0  0
  -23.2610  -11.7333   22.0436 C   0  0  0  0  0  0  0  0  0  0  0  0
  -20.5789  -11.1561   24.0733 C   0  0  0  0  0  0  0  0  0  0  0  0
  -28.5404  -23.2809   19.2843 C   0  0  0  0  0  0  0  0  0  0  0  0
  -30.1219  -12.9615   18.5429 C   0  0  0  0  0  0  0  0  0  0  0  0
  -26.3466  -12.6606   23.8417 C   0  0  0  0  0  0  0  0  0  0  0  0
  -23.6343  -13.7794   23.4717 C   0  0  0  0  0  0  0  0  0  0  0  0
  -28.6833  -12.4542   18.4855 C   0  0  0  0  0  0  0  0  0  0  0  0
  -28.7818  -26.1592   17.2025 C   0  0  0  0  0  0  0  0  0  0  0  0
  -27.7038  -13.5986   18.7256 C   0  0  0  0  0  0  0  0  0  0  0  0
  -27.8249  -27.1597   17.8548 C   0  0  0  0  0  0  0  0  0  0  0  0
  -28.2507  -24.7293   17.2861 C   0  0  0  0  0  0  0  0  0  0  0  0
  -26.9250  -25.2823   19.2875 C   0  0  0  0  0  0  0  0  0  0  0  0
  -27.9020  -14.2116   20.1172 C   0  0  1  0  0  0  0  0  0  0  0  0
  -25.5649  -12.4602   22.5470 C   0  0  1  0  0  0  0  0  0  0  0  0
  -27.4478  -26.7281   19.2856 C   0  0  2  0  0  0  0  0  0  0  0  0
  -28.5866  -23.8463   23.7783 C   0  0  0  0  0  0  0  0  0  0  0  0
  -18.5191   -9.7348   24.2595 C   0  0  0  0  0  0  0  0  0  0  0  0
  -21.8840  -13.4569   19.9358 C   0  0  0  0  0  0  0  0  0  0  0  0
  -19.6824  -12.6671   20.8288 C   0  0  0  0  0  0  0  0  0  0  0  0
  -21.2891  -11.0293   19.8495 C   0  0  0  0  0  0  0  0  0  0  0  0
  -22.8884  -20.3921   26.0320 C   0  0  0  0  0  0  0  0  0  0  0  0
  -23.7098  -19.5626   28.2397 C   0  0  0  0  0  0  0  0  0  0  0  0
  -21.5086   -9.9364   26.6044 C   0  0  0  0  0  0  0  0  0  0  0  0
  -27.2500  -20.4719   24.7520 C   0  0  0  0  0  0  0  0  0  0  0  0
  -27.3574  -23.0408   23.3728 C   0  0  0  0  0  0  0  0  0  0  0  0
  -25.7999  -20.0100   24.9532 C   0  0  0  0  0  0  0  0  0  0  0  0
  -25.3771  -20.0074   26.4301 C   0  0  0  0  0  0  0  0  0  0  0  0
  -23.7308  -18.0402   26.2374 C   0  0  0  0  0  0  0  0  0  1  0  0
  -21.7881  -12.0587   22.1042 C   0  0  1  0  0  0  0  0  0  0  0  0
  -19.9898   -9.8694   24.6226 C   0  0  2  0  0  0  0  0  0  0  0  0
  -21.1797  -12.3158   20.6967 C   0  0  0  0  0  0  0  0  0  0  0  0
  -23.9362  -19.4945   26.7137 C   0  0  0  0  0  0  0  0  0  0  0  0
  -25.1460  -27.4438   19.8064 N   0  0  0  0  0  0  0  0  0  0  0  0
  -26.4621  -27.6904   19.9217 N   0  0  0  0  0  0  0  0  0  0  0  0
  -24.1193  -12.6026   22.7317 N   0  0  0  0  0  0  0  0  0  0  0  0
  -27.9185  -24.3890   18.6713 N   0  0  0  0  0  0  0  0  0  0  0  0
  -28.0246  -29.2173   20.8369 N   0  0  0  0  0  0  0  0  0  0  0  0
  -24.0366  -30.9541   22.0515 N   0  0  0  0  0  0  0  0  0  0  0  0
  -28.1708  -23.0743   20.6130 N   0  0  0  0  0  0  0  0  0  0  0  0
  -27.3045  -13.3687   21.1306 N   0  0  0  0  0  0  0  0  0  0  0  0
  -21.1584  -10.9655   22.8368 N   0  0  0  0  0  0  0  0  0  0  0  0
  -20.1121   -9.8362   26.1075 N   0  3  0  0  0  0  0  0  0  0  0  0
  -26.3076  -31.2559   22.1532 O   0  0  0  0  0  0  0  0  0  0  0  0
  -25.1246  -14.1741   20.9837 O   0  0  0  0  0  0  0  0  0  0  0  0
  -23.6356  -10.7402   21.4151 O   0  0  0  0  0  0  0  0  0  0  0  0
  -20.5266  -12.2244   24.6788 O   0  0  0  0  0  0  0  0  0  0  0  0
  -29.3625  -22.5838   18.6840 O   0  0  0  0  0  0  0  0  0  0  0  0
  -19.0230  -28.8322   20.8695 O   0  0  0  0  0  0  0  0  0  0  0  0
  -24.6796  -17.1649   26.8456 O   0  0  0  0  0  0  0  0  0  1  0  0
  -16.8953  -30.0752   25.8023 F   0  0  0  0  0  0  0  0  0  0  0  0
  -17.2828  -27.1006   22.1407 F   0  0  0  0  0  0  0  0  0  0  0  0
  1  2  1  0  0  0  0
  1  6  2  0  0  0  0
  2  7  2  0  0  0  0
  3  9  1  0  0  0  0
  3 10  2  0  0  0  0
  4 11  2  0  0  0  0
  4 18  1  0  0  0  0
  5 12  1  0  0  0  0
  5 18  2  0  0  0  0
  6 20  1  0  0  0  0
  7 22  1  0  0  0  0
  8 13  2  0  0  0  0
  8 21  1  0  0  0  0
  9 24  2  0  0  0  0
 10 26  1  0  0  0  0
 11 27  1  0  0  0  0
 12 27  2  0  0  0  0
 13 28  1  0  0  0  0
 14 15  2  0  0  0  0
 14 29  1  0  0  0  0
 15 30  1  0  0  0  0
 16 23  1  0  0  0  0
 16 28  2  0  0  0  0
 17 30  2  0  0  0  0
 17 31  1  0  0  0  0
 18 32  1  0  0  0  0
 19 32  1  0  0  0  0
 19 33  2  0  0  0  0
 19 34  1  0  0  0  0
 20 22  2  0  0  0  0
 20 39  1  0  0  0  0
 21 23  2  0  0  0  0
 21 40  1  0  0  0  0
 22 48  1  0  0  0  0
 23 41  1  0  0  0  0
 24 25  1  0  0  0  0
 24 59  1  0  0  0  0
 25 26  2  0  0  0  0
 25 60  1  0  0  0  0
 26 74  1  0  0  0  0
 27 83  1  0  0  0  0
 28 84  1  0  0  0  0
 29 31  2  0  0  0  0
 29 83  1  0  0  0  0
 30 85  1  0  0  0  0
 31 86  1  0  0  0  0
 32 68  2  0  0  0  0
 33 69  1  0  0  0  0
 33 72  1  0  0  0  0
 34 73  1  0  0  0  0
 34 78  2  0  0  0  0
 35 49  1  0  0  0  0
 35 75  1  0  0  0  0
 35 79  2  0  0  0  0
 36 64  1  0  0  0  0
 36 70  1  0  0  0  0
 36 80  2  0  0  0  0
 37 65  1  0  0  0  0
 37 76  1  0  0  0  0
 37 81  2  0  0  0  0
 38 71  1  0  0  0  0
 38 74  1  0  0  0  0
 38 82  2  0  0  0  0
 39 42  1  0  0  0  0
 40 49  1  0  0  0  0
 41 70  1  0  0  0  0
 42 44  1  0  0  0  0
 43 45  1  0  0  0  0
 43 46  1  0  0  0  0
 44 48  1  0  0  0  0
 45 50  1  0  0  0  0
 46 71  1  0  0  0  0
 47 50  1  0  0  0  0
 47 71  1  0  0  0  0
 48 75  1  0  0  0  0
 49 70  1  0  0  0  0
 50 69  1  0  0  0  0
 51 60  1  0  0  0  0
 52 65  1  0  0  0  0
 53 66  1  0  0  0  0
 54 66  1  0  0  0  0
 55 66  1  0  0  0  0
 56 67  1  0  0  0  0
 57 67  1  0  0  0  0
 58 77  1  0  0  0  0
 59 61  1  0  0  0  0
 61 62  1  0  0  0  0
 62 67  1  0  0  0  0
 63 67  1  0  0  0  0
 63 84  1  0  0  0  0
 64 66  1  0  0  0  0
 64 76  1  0  0  0  0
 65 77  1  0  0  0  0
 68 69  1  0  0  0  0
M  CHG  1  77   1
M  ISO  4  38 100  63 101  74 100  84 101
M  END
> <Batch ID>
0134

> <Smiles>
CCc1c(CCCC(C)(C)[101CH2:1][101O:1]c2ccc3c(c2)CN(C(=O)C(NC(=O)C(C)NC)C(C)(C)C)C(C(=O)NC2CCCc4ccccc42)C3)cccc1[100NH:0][100C:0](=O)N1CCCC(n2nc(-c3ccc(Oc4ccc(F)cc4F)cc3)c(C(N)=O)c2N)C1

> <Shape>
0.255

> <Color>
0.060

> <Negative vol penalty>
0.000

$$$$

  -OEChem-04052302333D

 93101  0     1  0  0  0  0  0999 V2000
  -22.3182  -11.9977   18.5406 C   0  0  0  0  0  0  0  0  0  0  0  0
  -22.0194  -13.1608   19.2429 C   0  0  0  0  0  0  0  0  0  0  0  0
  -30.8877  -29.6420   19.6672 C   0  0  0  0  0  0  0  0  0  0  0  0
  -30.7457  -29.1056   22.0186 C   0  0  0  0  0  0  0  0  0  0  0  0
  -23.5729  -11.4051   18.6772 C   0  0  0  0  0  0  0  0  0  0  0  0
  -22.9748  -13.7315   20.0831 C   0  0  0  0  0  0  0  0  0  0  0  0
  -23.8563  -19.6996   21.1369 C   0  0  0  0  0  0  0  0  0  0  0  0
  -32.0396  -30.3909   19.9076 C   0  0  0  0  0  0  0  0  0  0  0  0
  -31.8976  -29.8545   22.2591 C   0  0  0  0  0  0  0  0  0  0  0  0
  -23.4472  -20.5399   22.1715 C   0  0  0  0  0  0  0  0  0  0  0  0
  -32.7242  -33.1158   22.5934 C   0  0  0  0  0  0  0  0  0  0  0  0
  -32.7177  -33.9820   23.6867 C   0  0  0  0  0  0  0  0  0  0  0  0
  -25.5733  -20.2187   23.2650 C   0  0  0  0  0  0  0  0  0  0  0  0
  -16.5778  -30.6148   23.3922 C   0  0  0  0  0  0  0  0  0  0  0  0
  -18.9048  -31.2632   23.4251 C   0  0  0  0  0  0  0  0  0  0  0  0
  -34.5887  -32.7895   24.6428 C   0  0  0  0  0  0  0  0  0  0  0  0
  -30.2407  -28.9994   20.7228 C   0  0  0  0  0  0  0  0  0  0  0  0
  -28.9771  -26.8563   20.1585 C   0  0  0  0  0  0  0  0  0  0  0  0
  -24.5475  -11.9742   19.5121 C   0  0  0  0  0  0  0  0  0  0  0  0
  -25.1250  -19.1029   21.1641 C   0  0  0  0  0  0  0  0  0  0  0  0
  -24.2432  -13.1453   20.2321 C   0  0  0  0  0  0  0  0  0  0  0  0
  -25.9970  -19.3733   22.2283 C   0  0  0  0  0  0  0  0  0  0  0  0
  -17.5549  -31.6100   23.3703 C   0  0  0  0  0  0  0  0  0  0  0  0
  -16.9506  -29.2728   23.4690 C   0  0  0  0  0  0  0  0  0  0  0  0
  -19.2777  -29.9213   23.5018 C   0  0  0  0  0  0  0  0  0  0  0  0
  -18.3006  -28.9261   23.5237 C   0  0  0  0  0  0  0  0  0  0  0  0
  -32.5446  -30.4972   21.2035 C   0  0  0  0  0  0  0  0  0  0  0  0
  -24.3046  -20.7972   23.2372 C   0  0  0  0  0  0  0  0  0  0  0  0
  -33.6630  -32.0864   22.5248 C   0  0  0  0  0  0  0  0  0  0  0  0
  -33.6499  -33.8189   24.7113 C   0  0  0  0  0  0  0  0  0  0  0  0
  -34.5953  -31.9232   23.5495 C   0  0  0  0  0  0  0  0  0  0  0  0
  -29.0504  -28.2260   20.4752 C   0  0  0  0  0  0  0  0  0  0  0  0
  -27.6334  -26.6070   20.0213 C   0  0  0  0  0  0  0  0  0  0  0  0
  -30.0296  -25.8952   20.0024 C   0  0  0  0  0  0  0  0  0  0  0  0
  -26.1953  -16.1113   21.2545 C   0  0  0  0  0  0  0  0  0  0  0  0
  -22.9073  -29.3562   22.3411 C   0  0  0  0  0  0  0  0  0  0  0  0
  -29.0826  -17.5460   20.8984 C   0  0  0  0  0  0  0  0  0  0  0  0
  -30.9913  -20.3496   21.2782 C   0  0  0  0  0  0  0  0  0  0  0  0
  -25.8732  -11.2714   19.6642 C   0  0  0  0  0  0  0  0  0  0  0  0
  -25.5613  -18.2202   20.0271 C   0  0  0  0  0  0  0  0  0  0  0  0
  -27.3771  -18.7736   22.2946 C   0  0  0  0  0  0  0  0  0  0  0  0
  -26.9588  -12.1465   20.2854 C   0  0  0  0  0  0  0  0  0  0  0  0
  -23.5275  -28.7294   18.8127 C   0  0  0  0  0  0  0  0  0  0  0  0
  -26.4195  -12.8762   21.5116 C   0  0  0  0  0  0  0  0  0  0  0  0
  -25.0261  -28.4305   18.8142 C   0  0  0  0  0  0  0  0  0  0  0  0
  -23.1656  -29.7895   19.8496 C   0  0  0  0  0  0  0  0  0  0  0  0
  -25.1133  -29.1561   21.2388 C   0  0  0  0  0  0  0  0  0  0  0  0
  -25.2617  -13.8081   21.1341 C   0  0  1  0  0  0  0  0  0  0  0  0
  -26.6803  -17.2579   20.4132 C   0  0  1  0  0  0  0  0  0  0  0  0
  -25.5155  -28.0695   20.2276 C   0  0  2  0  0  0  0  0  0  0  0  0
  -17.1562  -33.0447   23.2889 C   0  0  0  0  0  0  0  0  0  0  0  0
  -14.9830  -28.2949   22.2611 C   0  0  0  0  0  0  0  0  0  0  0  0
  -32.9978  -21.8442   21.0849 C   0  0  0  0  0  0  0  0  0  0  0  0
  -16.9728  -24.9629   26.9150 C   0  0  0  0  0  0  0  0  0  0  0  0
  -19.3640  -25.1377   27.5543 C   0  0  0  0  0  0  0  0  0  0  0  0
  -19.5778  -22.5210   23.8076 C   0  0  0  0  0  0  0  0  0  0  0  0
  -22.3194  -21.1396   25.9593 C   0  0  0  0  0  0  0  0  0  0  0  0
  -30.0070  -16.0182   23.3725 C   0  0  0  0  0  0  0  0  0  0  0  0
  -31.9496  -17.5895   23.5315 C   0  0  0  0  0  0  0  0  0  0  0  0
  -31.6898  -16.1292   21.5258 C   0  0  0  0  0  0  0  0  0  0  0  0
  -30.1225  -21.3686   18.6389 C   0  0  0  0  0  0  0  0  0  0  0  0
  -15.8847  -28.2264   23.4898 C   0  0  0  0  0  0  0  0  0  0  0  0
  -20.7301  -29.5763   23.5592 C   0  0  0  0  0  0  0  0  0  0  0  0
  -18.7028  -27.4770   23.6061 C   0  0  0  0  0  0  0  0  0  0  0  0
  -21.4429  -29.6896   22.2068 C   0  0  0  0  0  0  0  0  0  0  0  0
  -18.5120  -26.7967   24.9728 C   0  0  0  0  0  0  0  0  0  0  0  0
  -20.1533  -24.8392   24.5661 C   0  0  0  0  0  0  0  0  0  0  0  0
  -22.0002  -23.0859   24.3369 C   0  0  0  0  0  0  0  0  0  0  0  0
  -30.1283  -18.0926   21.8401 C   0  0  1  0  0  0  0  0  0  0  0  0
  -31.9372  -21.0606   20.3273 C   0  0  2  0  0  0  0  0  0  0  0  0
  -18.4061  -24.6465   26.4597 C   0  0  0  0  0  0  0  0  0  0  0  0
  -20.5220  -23.3391   24.6983 C   0  0  2  0  0  0  0  0  0  0  0  0
  -18.7412  -25.2606   25.0591 C   0  0  1  0  0  0  0  0  0  0  0  0
  -22.5053  -21.6500   24.5377 C   0  0  1  0  0  0  0  0  0  1  0  0
  -30.9170  -16.9673   22.5675 C   0  0  0  0  0  0  0  0  0  0  0  0
  -27.8489  -28.8063   20.5354 N   0  0  0  0  0  0  0  0  0  0  0  0
  -27.0080  -27.7963   20.2547 N   0  0  0  0  0  0  0  0  0  0  0  0
  -27.7552  -17.9122   21.1621 N   0  0  0  0  0  0  0  0  0  0  0  0
  -23.6732  -29.4218   21.1769 N   0  0  0  0  0  0  0  0  0  0  0  0
  -26.9378  -25.4887   19.7250 N   0  0  0  0  0  0  0  0  0  0  0  0
  -31.3536  -26.3198   20.1785 N   0  0  0  0  0  0  0  0  0  0  0  0
  -25.7663  -15.0196   20.5240 N   0  0  0  0  0  0  0  0  0  0  0  0
  -30.9618  -18.9904   21.0479 N   0  0  0  0  0  0  0  0  0  0  0  0
  -31.1831  -22.0085   19.4590 N   0  3  0  0  0  0  0  0  0  0  0  0
  -29.8035  -24.6992   19.6992 O   0  0  0  0  0  0  0  0  0  0  0  0
  -26.2105  -16.2092   22.4759 O   0  0  0  0  0  0  0  0  0  0  0  0
  -23.3547  -29.0444   23.4478 O   0  0  0  0  0  0  0  0  0  0  0  0
  -29.4316  -16.8267   19.9590 O   0  0  0  0  0  0  0  0  0  0  0  0
  -30.3460  -20.9403   22.1415 O   0  0  0  0  0  0  0  0  0  0  0  0
  -33.6688  -31.2277   21.4384 O   0  0  0  0  0  0  0  0  0  0  0  0
  -23.9057  -21.6202   24.2533 O   0  0  0  0  0  0  0  0  0  1  0  0
  -33.6444  -34.6517   25.7604 F   0  0  0  0  0  0  0  0  0  0  0  0
  -35.5003  -30.9368   23.4886 F   0  0  0  0  0  0  0  0  0  0  0  0
  1  2  1  0  0  0  0
  1  5  2  0  0  0  0
  2  6  2  0  0  0  0
  3  8  2  0  0  0  0
  3 17  1  0  0  0  0
  4  9  1  0  0  0  0
  4 17  2  0  0  0  0
  5 19  1  0  0  0  0
  6 21  1  0  0  0  0
  7 10  2  0  0  0  0
  7 20  1  0  0  0  0
  8 27  1  0  0  0  0
  9 27  2  0  0  0  0
 10 28  1  0  0  0  0
 11 12  2  0  0  0  0
 11 29  1  0  0  0  0
 12 30  1  0  0  0  0
 13 22  1  0  0  0  0
 13 28  2  0  0  0  0
 14 23  2  0  0  0  0
 14 24  1  0  0  0  0
 15 23  1  0  0  0  0
 15 25  2  0  0  0  0
 16 30  2  0  0  0  0
 16 31  1  0  0  0  0
 17 32  1  0  0  0  0
 18 32  1  0  0  0  0
 18 33  2  0  0  0  0
 18 34  1  0  0  0  0
 19 21  2  0  0  0  0
 19 39  1  0  0  0  0
 20 22  2  0  0  0  0
 20 40  1  0  0  0  0
 21 48  1  0  0  0  0
 22 41  1  0  0  0  0
 23 51  1  0  0  0  0
 24 26  2  0  0  0  0
 24 62  1  0  0  0  0
 25 26  1  0  0  0  0
 25 63  1  0  0  0  0
 26 64  1  0  0  0  0
 27 90  1  0  0  0  0
 28 91  1  0  0  0  0
 29 31  2  0  0  0  0
 29 90  1  0  0  0  0
 30 92  1  0  0  0  0
 31 93  1  0  0  0  0
 32 76  2  0  0  0  0
 33 77  1  0  0  0  0
 33 80  1  0  0  0  0
 34 81  1  0  0  0  0
 34 85  2  0  0  0  0
 35 49  1  0  0  0  0
 35 82  1  0  0  0  0
 35 86  2  0  0  0  0
 36 65  1  0  0  0  0
 36 79  1  0  0  0  0
 36 87  2  0  0  0  0
 37 69  1  0  0  0  0
 37 78  1  0  0  0  0
 37 88  2  0  0  0  0
 38 70  1  0  0  0  0
 38 83  1  0  0  0  0
 38 89  2  0  0  0  0
 39 42  1  0  0  0  0
 40 49  1  0  0  0  0
 41 78  1  0  0  0  0
 42 44  1  0  0  0  0
 43 45  1  0  0  0  0
 43 46  1  0  0  0  0
 44 48  1  0  0  0  0
 45 50  1  0  0  0  0
 46 79  1  0  0  0  0
 47 50  1  0  0  0  0
 47 79  1  0  0  0  0
 48 82  1  0  0  0  0
 49 78  1  0  0  0  0
 50 77  1  0  0  0  0
 52 62  1  0  0  0  0
 53 70  1  0  0  0  0
 54 71  1  0  0  0  0
 55 71  1  0  0  0  0
 56 72  1  0  0  0  0
 57 74  1  0  0  0  0
 58 75  1  0  0  0  0
 59 75  1  0  0  0  0
 60 75  1  0  0  0  0
 61 84  1  0  0  0  0
 63 65  1  0  0  0  0
 64 66  1  0  0  0  0
 66 73  1  0  0  0  0
 67 72  1  0  0  0  0
 67 73  1  0  0  0  0
 68 72  1  0  0  0  0
 68 74  1  0  0  0  0
 69 75  1  0  0  0  0
 69 83  1  0  0  0  0
 70 84  1  0  0  0  0
 71 73  1  0  0  0  0
 74 91  1  0  0  0  0
 76 77  1  0  0  0  0
M  CHG  1  84   1
M  ISO  4  36 100  65 100  74 101  91 101
M  END
> <Batch ID>
0134

> <Smiles>
CCc1cc(C)cc(C[100CH2:0][100C:0](=O)N2CCCC(n3nc(-c4ccc(Oc5ccc(F)cc5F)cc4)c(C(N)=O)c3N)C2)c1CCC(CC(C)C[101CH:1](C)[101O:1]c1ccc2c(c1)CN(C(=O)C(NC(=O)C(C)NC)C(C)(C)C)C(C(=O)NC1CCCc3ccccc31)C2)C(C)C

> <Shape>
0.226

> <Color>
0.062

> <Negative vol penalty>
0.000

$$$$

  -OEChem-04052302333D

 87 96  0     1  0  0  0  0  0999 V2000
  -19.6515  -32.7608   19.2822 C   0  0  0  0  0  0  0  0  0  0  0  0
  -21.0156  -32.5651   19.4725 C   0  0  0  0  0  0  0  0  0  0  0  0
  -29.5160  -23.7623   17.5607 C   0  0  0  0  0  0  0  0  0  0  0  0
  -24.1537  -15.1903   25.8591 C   0  0  0  0  0  0  0  0  0  0  0  0
  -23.7814  -17.4921   25.2266 C   0  0  0  0  0  0  0  0  0  0  0  0
  -18.7354  -32.1634   20.1470 C   0  0  0  0  0  0  0  0  0  0  0  0
  -21.4646  -31.7726   20.5284 C   0  0  0  0  0  0  0  0  0  0  0  0
  -29.4809  -22.8079   18.5773 C   0  0  0  0  0  0  0  0  0  0  0  0
  -25.1252  -28.5649   19.1302 C   0  0  0  0  0  0  0  0  0  0  0  0
  -30.3076  -24.9022   17.7013 C   0  0  0  0  0  0  0  0  0  0  0  0
  -23.5551  -15.4332   27.0954 C   0  0  0  0  0  0  0  0  0  0  0  0
  -23.1828  -17.7350   26.4628 C   0  0  0  0  0  0  0  0  0  0  0  0
  -26.4095  -29.0881   18.9862 C   0  0  0  0  0  0  0  0  0  0  0  0
  -21.8804  -19.0530   29.5896 C   0  0  0  0  0  0  0  0  0  0  0  0
  -22.2433  -20.2162   30.2682 C   0  0  0  0  0  0  0  0  0  0  0  0
  -31.0287  -24.1333   19.8752 C   0  0  0  0  0  0  0  0  0  0  0  0
  -26.9970  -28.2284   21.1623 C   0  0  0  0  0  0  0  0  0  0  0  0
  -24.5397  -19.4675   30.3234 C   0  0  0  0  0  0  0  0  0  0  0  0
  -24.2669  -16.2198   24.9247 C   0  0  0  0  0  0  0  0  0  0  0  0
  -24.2522  -15.5425   22.4653 C   0  0  0  0  0  0  0  0  0  0  0  0
  -30.2371  -22.9934   19.7345 C   0  0  0  0  0  0  0  0  0  0  0  0
  -19.1730  -31.3553   21.2083 C   0  0  0  0  0  0  0  0  0  0  0  0
  -24.7633  -27.8778   20.2978 C   0  0  0  0  0  0  0  0  0  0  0  0
  -20.5535  -31.1649   21.4090 C   0  0  0  0  0  0  0  0  0  0  0  0
  -25.7083  -27.6953   21.3174 C   0  0  0  0  0  0  0  0  0  0  0  0
  -23.0696  -16.7055   27.3972 C   0  0  0  0  0  0  0  0  0  0  0  0
  -31.0639  -25.0877   18.8586 C   0  0  0  0  0  0  0  0  0  0  0  0
  -27.3448  -28.9224   20.0036 C   0  0  0  0  0  0  0  0  0  0  0  0
  -22.8471  -18.0969   29.2779 C   0  0  0  0  0  0  0  0  0  0  0  0
  -23.5730  -20.4236   30.6351 C   0  0  0  0  0  0  0  0  0  0  0  0
  -24.1767  -18.3042   29.6448 C   0  0  0  0  0  0  0  0  0  0  0  0
  -24.8856  -15.9696   23.6477 C   0  0  0  0  0  0  0  0  0  0  0  0
  -25.2674  -15.4545   21.5444 C   0  0  0  0  0  0  0  0  0  0  0  0
  -22.8697  -15.2513   22.2212 C   0  0  0  0  0  0  0  0  0  0  0  0
  -22.6099  -28.3319   22.5914 C   0  0  0  0  0  0  0  0  0  0  0  0
  -30.6210  -18.1628   21.2032 C   0  0  0  0  0  0  0  0  0  0  0  0
  -23.6390  -25.4240   23.5951 C   0  0  0  0  0  0  0  0  0  0  0  0
  -26.1277  -23.0893   23.6427 C   0  0  0  0  0  0  0  0  0  0  0  0
  -18.1469  -30.7690   22.1452 C   0  0  0  0  0  0  0  0  0  0  0  0
  -23.3821  -27.2964   20.4263 C   0  0  0  0  0  0  0  0  0  0  0  0
  -25.3760  -26.9479   22.5822 C   0  0  0  0  0  0  0  0  0  0  0  0
  -18.6916  -29.6392   23.0153 C   0  0  0  0  0  0  0  0  0  0  0  0
  -29.9619  -14.6406   21.2013 C   0  0  0  0  0  0  0  0  0  0  0  0
  -20.0351  -30.0324   23.6213 C   0  0  0  0  0  0  0  0  0  0  0  0
  -28.5383  -14.5415   21.7477 C   0  0  0  0  0  0  0  0  0  0  0  0
  -31.4952  -21.3755   21.3108 C   0  0  0  0  0  0  0  0  0  0  0  0
  -30.7338  -15.7809   21.8577 C   0  0  0  0  0  0  0  0  0  0  0  0
  -28.6347  -17.0133   22.3008 C   0  0  0  0  0  0  0  0  0  0  0  0
  -30.1986  -21.9740   20.8208 C   0  0  2  0  0  0  0  0  0  0  0  0
  -21.0786  -30.2920   22.5281 C   0  0  1  0  0  0  0  0  0  0  0  0
  -22.9657  -27.0600   21.8748 C   0  0  1  0  0  0  0  0  0  0  0  0
  -30.5534  -20.5423   20.4934 C   0  0  2  0  0  0  0  0  0  0  0  0
  -27.8102  -15.8932   21.6420 C   0  0  2  0  0  0  0  0  0  0  0  0
  -27.2562  -20.8982   24.1151 C   0  0  0  0  0  0  0  0  0  0  0  0
  -24.1322  -26.6820   26.3309 C   0  0  0  0  0  0  0  0  0  0  0  0
  -25.5432  -24.6971   26.9118 C   0  0  0  0  0  0  0  0  0  0  0  0
  -23.1202  -24.3961   26.4009 C   0  0  0  0  0  0  0  0  0  0  0  0
  -33.4190  -28.6126   19.4655 C   0  0  0  0  0  0  0  0  0  0  0  0
  -32.4783  -28.6775   21.7788 C   0  0  0  0  0  0  0  0  0  0  0  0
  -25.1441  -21.9052   21.1149 C   0  0  0  0  0  0  0  0  0  0  0  0
  -29.7993  -19.4250   21.1282 C   0  0  0  0  0  0  0  0  0  0  0  0
  -30.9591  -28.9450   19.7565 C   0  0  0  0  0  0  0  0  0  0  0  0
  -29.6573  -28.7419   20.5284 C   0  0  0  0  0  0  0  0  0  1  0  0
  -32.0448  -26.6865   20.3206 C   0  0  0  0  0  0  0  0  0  0  0  0
  -24.7250  -24.9362   24.5234 C   0  0  1  0  0  0  0  0  0  0  0  0
  -26.1083  -21.5913   23.3976 C   0  0  2  0  0  0  0  0  0  0  0  0
  -24.3861  -25.1936   26.0189 C   0  0  0  0  0  0  0  0  0  0  0  0
  -32.2045  -28.2220   20.3347 C   0  0  0  0  0  0  0  0  0  0  0  0
  -26.2014  -16.1410   23.4949 N   0  0  0  0  0  0  0  0  0  0  0  0
  -26.4030  -15.8197   22.2056 N   0  0  0  0  0  0  0  0  0  0  0  0
  -24.0104  -26.4036   22.6633 N   0  0  0  0  0  0  0  0  0  0  0  0
  -29.9989  -17.0430   21.7556 N   0  0  0  0  0  0  0  0  0  0  0  0
  -25.2906  -15.1010   20.2418 N   0  0  0  0  0  0  0  0  0  0  0  0
  -21.9601  -15.3938   23.2779 N   0  0  0  0  0  0  0  0  0  0  0  0
  -21.5810  -29.0410   22.0016 N   0  0  0  0  0  0  0  0  0  0  0  0
  -24.9437  -23.5320   24.1935 N   0  0  0  0  0  0  0  0  0  0  0  0
  -26.2231  -21.3034   21.9399 N   0  3  0  0  0  0  0  0  0  0  0  0
  -22.4558  -14.8601   21.1035 O   0  0  0  0  0  0  0  0  0  0  0  0
  -23.2225  -28.6458   23.6052 O   0  0  0  0  0  0  0  0  0  0  0  0
  -31.7799  -18.1729   20.7802 O   0  0  0  0  0  0  0  0  0  0  0  0
  -22.5048  -24.9482   23.6885 O   0  0  0  0  0  0  0  0  0  0  0  0
  -27.0976  -23.7954   23.3760 O   0  0  0  0  0  0  0  0  0  0  0  0
  -22.4853  -16.9429   28.6033 O   0  0  0  0  0  0  0  0  0  0  0  0
  -28.5988  -29.4326   19.8659 O   0  0  0  0  0  0  0  0  0  1  0  0
  -31.8403  -26.2084   18.9975 O   0  0  0  0  0  0  0  0  0  0  0  0
  -23.9217  -21.5414   31.2855 F   0  0  0  0  0  0  0  0  0  0  0  0
  -25.1101  -17.3899   29.3470 F   0  0  0  0  0  0  0  0  0  0  0  0
  1  2  1  0  0  0  0
  1  6  2  0  0  0  0
  2  7  2  0  0  0  0
  3  8  1  0  0  0  0
  3 10  2  0  0  0  0
  4 11  2  0  0  0  0
  4 19  1  0  0  0  0
  5 12  1  0  0  0  0
  5 19  2  0  0  0  0
  6 22  1  0  0  0  0
  7 24  1  0  0  0  0
  8 21  2  0  0  0  0
  9 13  2  0  0  0  0
  9 23  1  0  0  0  0
 10 27  1  0  0  0  0
 11 26  1  0  0  0  0
 12 26  2  0  0  0  0
 13 28  1  0  0  0  0
 14 15  2  0  0  0  0
 14 29  1  0  0  0  0
 15 30  1  0  0  0  0
 16 21  1  0  0  0  0
 16 27  2  0  0  0  0
 17 25  1  0  0  0  0
 17 28  2  0  0  0  0
 18 30  2  0  0  0  0
 18 31  1  0  0  0  0
 19 32  1  0  0  0  0
 20 32  1  0  0  0  0
 20 33  2  0  0  0  0
 20 34  1  0  0  0  0
 21 49  1  0  0  0  0
 22 24  2  0  0  0  0
 22 39  1  0  0  0  0
 23 25  2  0  0  0  0
 23 40  1  0  0  0  0
 24 50  1  0  0  0  0
 25 41  1  0  0  0  0
 26 83  1  0  0  0  0
 27 85  1  0  0  0  0
 28 84  1  0  0  0  0
 29 31  2  0  0  0  0
 29 83  1  0  0  0  0
 30 86  1  0  0  0  0
 31 87  1  0  0  0  0
 32 69  2  0  0  0  0
 33 70  1  0  0  0  0
 33 73  1  0  0  0  0
 34 74  1  0  0  0  0
 34 78  2  0  0  0  0
 35 51  1  0  0  0  0
 35 75  1  0  0  0  0
 35 79  2  0  0  0  0
 36 61  1  0  0  0  0
 36 72  1  0  0  0  0
 36 80  2  0  0  0  0
 37 65  1  0  0  0  0
 37 71  1  0  0  0  0
 37 81  2  0  0  0  0
 38 66  1  0  0  0  0
 38 76  1  0  0  0  0
 38 82  2  0  0  0  0
 39 42  1  0  0  0  0
 40 51  1  0  0  0  0
 41 71  1  0  0  0  0
 42 44  1  0  0  0  0
 43 45  1  0  0  0  0
 43 47  1  0  0  0  0
 44 50  1  0  0  0  0
 45 53  1  0  0  0  0
 46 49  1  0  0  0  0
 46 52  1  0  0  0  0
 47 72  1  0  0  0  0
 48 53  1  0  0  0  0
 48 72  1  0  0  0  0
 49 52  1  0  0  0  0
 50 75  1  0  0  0  0
 51 71  1  0  0  0  0
 52 61  1  0  0  0  0
 53 70  1  0  0  0  0
 54 66  1  0  0  0  0
 55 67  1  0  0  0  0
 56 67  1  0  0  0  0
 57 67  1  0  0  0  0
 58 68  1  0  0  0  0
 59 68  1  0  0  0  0
 60 77  1  0  0  0  0
 62 63  1  0  0  0  0
 62 68  1  0  0  0  0
 63 84  1  0  0  0  0
 64 68  1  0  0  0  0
 64 85  1  0  0  0  0
 65 67  1  0  0  0  0
 65 76  1  0  0  0  0
 66 77  1  0  0  0  0
 69 70  1  0  0  0  0
M  CHG  1  77   1
M  ISO  4  36 100  61 100  63 101  84 101
M  END
> <Batch ID>
0134

> <Smiles>
CNC(C)C(=O)NC(C(=O)N1Cc2cc([101O:1][101CH2:1]CC(C)(C)COc3cccc(C4CC4[100CH2:0][100C:0](=O)N4CCCC(n5nc(-c6ccc(Oc7ccc(F)cc7F)cc6)c(C(N)=O)c5N)C4)c3)ccc2CC1C(=O)NC1CCCc2ccccc21)C(C)(C)C

> <Shape>
0.165

> <Color>
0.109

> <Negative vol penalty>
0.000

$$$$

  -OEChem-04052302333D

 86 94  0     1  0  0  0  0  0999 V2000
  -31.6452  -34.8739   22.8888 C   0  0  0  0  0  0  0  0  0  0  0  0
  -31.2759  -33.8679   22.0017 C   0  0  0  0  0  0  0  0  0  0  0  0
  -23.0878   -9.6401   20.2899 C   0  0  0  0  0  0  0  0  0  0  0  0
  -23.7078  -10.1153   22.5761 C   0  0  0  0  0  0  0  0  0  0  0  0
  -29.7489  -17.0809   19.2845 C   0  0  0  0  0  0  0  0  0  0  0  0
  -31.0514  -34.9437   24.1483 C   0  0  0  0  0  0  0  0  0  0  0  0
  -30.3133  -32.9302   22.3742 C   0  0  0  0  0  0  0  0  0  0  0  0
  -26.1505  -30.2862   18.7429 C   0  0  0  0  0  0  0  0  0  0  0  0
  -22.3337   -8.5488   20.7212 C   0  0  0  0  0  0  0  0  0  0  0  0
  -22.9536   -9.0241   23.0075 C   0  0  0  0  0  0  0  0  0  0  0  0
  -29.0855  -18.0628   18.5488 C   0  0  0  0  0  0  0  0  0  0  0  0
  -26.1146  -29.0476   18.1040 C   0  0  0  0  0  0  0  0  0  0  0  0
  -23.2876   -5.6624   23.1432 C   0  0  0  0  0  0  0  0  0  0  0  0
  -23.8617   -4.8101   24.0863 C   0  0  0  0  0  0  0  0  0  0  0  0
  -24.8239  -28.1484   19.9329 C   0  0  0  0  0  0  0  0  0  0  0  0
  -27.5396  -18.3880   20.3767 C   0  0  0  0  0  0  0  0  0  0  0  0
  -22.0599   -5.2947   25.6211 C   0  0  0  0  0  0  0  0  0  0  0  0
  -23.7749  -10.4233   21.2174 C   0  0  0  0  0  0  0  0  0  0  0  0
  -29.3076  -16.7524   20.5664 C   0  0  0  0  0  0  0  0  0  0  0  0
  -24.1158  -12.8787   20.6154 C   0  0  0  0  0  0  0  0  0  0  0  0
  -30.0741  -34.0122   24.5328 C   0  0  0  0  0  0  0  0  0  0  0  0
  -25.5316  -30.4627   19.9888 C   0  0  0  0  0  0  0  0  0  0  0  0
  -29.7069  -32.9868   23.6406 C   0  0  0  0  0  0  0  0  0  0  0  0
  -24.8512  -29.3910   20.5843 C   0  0  0  0  0  0  0  0  0  0  0  0
  -28.2030  -17.4060   21.1125 C   0  0  0  0  0  0  0  0  0  0  0  0
  -22.2665   -8.2409   22.0800 C   0  0  0  0  0  0  0  0  0  0  0  0
  -25.4537  -27.9777   18.7003 C   0  0  0  0  0  0  0  0  0  0  0  0
  -27.9809  -18.7164   19.0949 C   0  0  0  0  0  0  0  0  0  0  0  0
  -22.0997   -6.3310   23.4390 C   0  0  0  0  0  0  0  0  0  0  0  0
  -23.2479   -4.6262   25.3252 C   0  0  0  0  0  0  0  0  0  0  0  0
  -21.4858   -6.1471   24.6779 C   0  0  0  0  0  0  0  0  0  0  0  0
  -24.5546  -11.5503   20.7724 C   0  0  0  0  0  0  0  0  0  0  0  0
  -25.2257  -13.5571   20.1743 C   0  0  0  0  0  0  0  0  0  0  0  0
  -30.0185  -15.7226   21.3119 C   0  0  0  0  0  0  0  0  0  0  0  0
  -22.8208  -13.4486   20.8477 C   0  0  0  0  0  0  0  0  0  0  0  0
  -30.7022  -14.6057   20.6204 C   0  0  0  0  0  0  0  0  0  0  0  0
  -26.5367  -31.2378   22.9030 C   0  0  0  0  0  0  0  0  0  0  0  0
  -23.3618  -31.2649   23.5673 C   0  0  0  0  0  0  0  0  0  0  0  0
  -20.2262  -30.1768   22.7729 C   0  0  0  0  0  0  0  0  0  0  0  0
  -29.4946  -34.0998   25.9225 C   0  0  0  0  0  0  0  0  0  0  0  0
  -25.5565  -31.8123   20.6524 C   0  0  0  0  0  0  0  0  0  0  0  0
  -24.1535  -29.5339   21.9114 C   0  0  0  0  0  0  0  0  0  0  0  0
  -28.2117  -33.2916   26.0995 C   0  0  0  0  0  0  0  0  0  0  0  0
  -29.6936  -11.8697   18.5337 C   0  0  0  0  0  0  0  0  0  0  0  0
  -28.3738  -31.8960   25.5057 C   0  0  0  0  0  0  0  0  0  0  0  0
  -28.2421  -11.6275   18.9463 C   0  0  0  0  0  0  0  0  0  0  0  0
  -30.5431  -12.3189   19.7182 C   0  0  0  0  0  0  0  0  0  0  0  0
  -28.5532  -13.2879   20.8362 C   0  0  0  0  0  0  0  0  0  0  0  0
  -28.6485  -31.9661   23.9987 C   0  0  1  0  0  0  0  0  0  0  0  0
  -25.3318  -31.7412   22.1597 C   0  0  1  0  0  0  0  0  0  0  0  0
  -27.6581  -12.8595   19.6603 C   0  0  2  0  0  0  0  0  0  0  0  0
  -28.1200  -18.1217   23.5140 C   0  0  0  0  0  0  0  0  0  0  0  0
  -17.8364  -30.3384   23.5215 C   0  0  0  0  0  0  0  0  0  0  0  0
  -23.9524  -29.3404   25.8602 C   0  0  0  0  0  0  0  0  0  0  0  0
  -21.5078  -28.8076   25.9503 C   0  0  0  0  0  0  0  0  0  0  0  0
  -22.2935  -31.1315   26.4027 C   0  0  0  0  0  0  0  0  0  0  0  0
  -19.3846  -31.3960   20.2108 C   0  0  0  0  0  0  0  0  0  0  0  0
  -27.7103  -17.0743   22.4833 C   0  0  0  0  0  0  0  0  0  0  0  0
  -26.0364  -23.1515   18.9990 C   0  0  0  0  0  0  0  0  0  0  0  0
  -26.0259  -24.4509   18.1938 C   0  0  0  0  0  0  0  0  0  0  0  0
  -26.6838  -21.9840   18.2561 C   0  0  0  0  0  0  0  0  0  0  0  0
  -25.3509  -25.6112   18.9129 C   0  0  0  0  0  0  0  0  0  1  0  0
  -26.7020  -20.7214   19.1075 C   0  0  0  0  0  0  0  0  0  0  0  0
  -22.3592  -30.2391   24.0381 C   0  0  1  0  0  0  0  0  0  0  0  0
  -18.9116  -30.9198   22.6167 C   0  0  2  0  0  0  0  0  0  0  0  0
  -22.5429  -29.8761   25.5387 C   0  0  0  0  0  0  0  0  0  0  0  0
  -25.8427  -11.3921   20.4565 N   0  0  0  0  0  0  0  0  0  0  0  0
  -30.1031  -15.7130   22.6136 N   0  0  0  0  0  0  0  0  0  0  0  0
  -26.2228  -12.6298   20.0965 N   0  0  0  0  0  0  0  0  0  0  0  0
  -29.9421  -13.4666   20.3947 N   0  0  0  0  0  0  0  0  0  0  0  0
  -24.2114  -30.8715   22.5237 N   0  0  0  0  0  0  0  0  0  0  0  0
  -25.4361  -14.8503   19.8492 N   0  0  0  0  0  0  0  0  0  0  0  0
  -21.7931  -12.6098   21.3000 N   0  0  0  0  0  0  0  0  0  0  0  0
  -27.4243  -32.2300   23.2735 N   0  0  0  0  0  0  0  0  0  0  0  0
  -21.0425  -30.7746   23.7097 N   0  0  0  0  0  0  0  0  0  0  0  0
  -18.4346  -30.8377   21.2072 N   0  3  0  0  0  0  0  0  0  0  0  0
  -22.5778  -14.6622   20.6441 O   0  0  0  0  0  0  0  0  0  0  0  0
  -31.8716  -14.8079   20.3206 O   0  0  0  0  0  0  0  0  0  0  0  0
  -26.6518  -30.0382   23.1253 O   0  0  0  0  0  0  0  0  0  0  0  0
  -23.3852  -32.3768   24.1009 O   0  0  0  0  0  0  0  0  0  0  0  0
  -20.4999  -29.1651   22.1310 O   0  0  0  0  0  0  0  0  0  0  0  0
  -21.5305   -7.1762   22.5013 O   0  0  0  0  0  0  0  0  0  0  0  0
  -25.4177  -26.7674   18.0792 O   0  0  0  0  0  0  0  0  0  1  0  0
  -27.3270  -19.6794   18.3709 O   0  0  0  0  0  0  0  0  0  0  0  0
  -23.7985   -3.8065   26.2303 F   0  0  0  0  0  0  0  0  0  0  0  0
  -20.3438   -6.7858   24.9674 F   0  0  0  0  0  0  0  0  0  0  0  0
  1  2  1  0  0  0  0
  1  6  2  0  0  0  0
  2  7  2  0  0  0  0
  3  9  2  0  0  0  0
  3 18  1  0  0  0  0
  4 10  1  0  0  0  0
  4 18  2  0  0  0  0
  5 11  2  0  0  0  0
  5 19  1  0  0  0  0
  6 21  1  0  0  0  0
  7 23  1  0  0  0  0
  8 12  2  0  0  0  0
  8 22  1  0  0  0  0
  9 26  1  0  0  0  0
 10 26  2  0  0  0  0
 11 28  1  0  0  0  0
 12 27  1  0  0  0  0
 13 14  2  0  0  0  0
 13 29  1  0  0  0  0
 14 30  1  0  0  0  0
 15 24  1  0  0  0  0
 15 27  2  0  0  0  0
 16 25  1  0  0  0  0
 16 28  2  0  0  0  0
 17 30  2  0  0  0  0
 17 31  1  0  0  0  0
 18 32  1  0  0  0  0
 19 25  2  0  0  0  0
 19 34  1  0  0  0  0
 20 32  1  0  0  0  0
 20 33  2  0  0  0  0
 20 35  1  0  0  0  0
 21 23  2  0  0  0  0
 21 40  1  0  0  0  0
 22 24  2  0  0  0  0
 22 41  1  0  0  0  0
 23 49  1  0  0  0  0
 24 42  1  0  0  0  0
 25 58  1  0  0  0  0
 26 82  1  0  0  0  0
 27 83  1  0  0  0  0
 28 84  1  0  0  0  0
 29 31  2  0  0  0  0
 29 82  1  0  0  0  0
 30 85  1  0  0  0  0
 31 86  1  0  0  0  0
 32 67  2  0  0  0  0
 33 69  1  0  0  0  0
 33 72  1  0  0  0  0
 34 36  1  0  0  0  0
 34 68  2  0  0  0  0
 35 73  1  0  0  0  0
 35 77  2  0  0  0  0
 36 70  1  0  0  0  0
 36 78  2  0  0  0  0
 37 50  1  0  0  0  0
 37 74  1  0  0  0  0
 37 79  2  0  0  0  0
 38 64  1  0  0  0  0
 38 71  1  0  0  0  0
 38 80  2  0  0  0  0
 39 65  1  0  0  0  0
 39 75  1  0  0  0  0
 39 81  2  0  0  0  0
 40 43  1  0  0  0  0
 41 50  1  0  0  0  0
 42 71  1  0  0  0  0
 43 45  1  0  0  0  0
 44 46  1  0  0  0  0
 44 47  1  0  0  0  0
 45 49  1  0  0  0  0
 46 51  1  0  0  0  0
 47 70  1  0  0  0  0
 48 51  1  0  0  0  0
 48 70  1  0  0  0  0
 49 74  1  0  0  0  0
 50 71  1  0  0  0  0
 51 69  1  0  0  0  0
 52 58  1  0  0  0  0
 53 65  1  0  0  0  0
 54 66  1  0  0  0  0
 55 66  1  0  0  0  0
 56 66  1  0  0  0  0
 57 76  1  0  0  0  0
 59 60  1  0  0  0  0
 59 61  1  0  0  0  0
 60 62  1  0  0  0  0
 61 63  1  0  0  0  0
 62 83  1  0  0  0  0
 63 84  1  0  0  0  0
 64 66  1  0  0  0  0
 64 75  1  0  0  0  0
 65 76  1  0  0  0  0
 67 69  1  0  0  0  0
M  CHG  1  76   1
M  ISO  4  34 100  36 100  62 101  83 101
M  END
> <Batch ID>
0134

> <Smiles>
CCc1cc(OCCCC[101CH2:1][101O:1]c2ccc3c(c2)CN(C(=O)C(NC(=O)C(C)NC)C(C)(C)C)C(C(=O)NC2CCCc4ccccc42)C3)ccc1[100C:0](=N)[100C:0](=O)N1CCCC(n2nc(-c3ccc(Oc4ccc(F)cc4F)cc3)c(C(N)=O)c2N)C1

> <Shape>
0.331

> <Color>
0.198

> <Negative vol penalty>
0.000

$$$$

  -OEChem-04052302333D

 85 93  0     1  0  0  0  0  0999 V2000
  -26.9667  -12.3537   17.1934 C   0  0  0  0  0  0  0  0  0  0  0  0
  -26.1543  -13.4412   16.8891 C   0  0  0  0  0  0  0  0  0  0  0  0
  -28.8397  -25.1121   18.2674 C   0  0  0  0  0  0  0  0  0  0  0  0
  -27.6346  -23.8512   19.9391 C   0  0  0  0  0  0  0  0  0  0  0  0
  -26.9981  -11.8506   18.4933 C   0  0  0  0  0  0  0  0  0  0  0  0
  -25.3719  -14.0256   17.8845 C   0  0  0  0  0  0  0  0  0  0  0  0
  -23.9703  -19.9598   18.4560 C   0  0  0  0  0  0  0  0  0  0  0  0
  -29.9277  -24.2494   18.4009 C   0  0  0  0  0  0  0  0  0  0  0  0
  -28.7225  -22.9885   20.0727 C   0  0  0  0  0  0  0  0  0  0  0  0
  -22.8411  -20.6956   18.0989 C   0  0  0  0  0  0  0  0  0  0  0  0
  -30.0388  -20.3646   18.3984 C   0  0  0  0  0  0  0  0  0  0  0  0
  -29.7769  -18.9952   18.4388 C   0  0  0  0  0  0  0  0  0  0  0  0
  -21.9883  -20.4649   20.3436 C   0  0  0  0  0  0  0  0  0  0  0  0
  -30.7806  -18.8678   20.6327 C   0  0  0  0  0  0  0  0  0  0  0  0
  -18.3494  -26.6334   22.9142 C   0  0  0  0  0  0  0  0  0  0  0  0
  -27.6932  -24.9130   19.0365 C   0  0  0  0  0  0  0  0  0  0  0  0
  -25.4818  -25.6711   18.0154 C   0  0  0  0  0  0  0  0  0  0  0  0
  -26.2230  -12.4352   19.5073 C   0  0  0  0  0  0  0  0  0  0  0  0
  -24.1120  -19.4610   19.7589 C   0  0  0  0  0  0  0  0  0  0  0  0
  -25.3919  -13.5290   19.1989 C   0  0  0  0  0  0  0  0  0  0  0  0
  -23.1214  -19.7253   20.7154 C   0  0  0  0  0  0  0  0  0  0  0  0
  -18.3089  -27.1392   21.6357 C   0  0  0  0  0  0  0  0  0  0  0  0
  -19.2605  -28.1861   21.5968 C   0  0  0  0  0  0  0  0  0  0  0  0
  -29.8690  -23.1876   19.3036 C   0  0  0  0  0  0  0  0  0  0  0  0
  -21.8486  -20.9457   19.0419 C   0  0  0  0  0  0  0  0  0  0  0  0
  -30.6717  -20.9857   19.4752 C   0  0  0  0  0  0  0  0  0  0  0  0
  -30.1478  -18.2468   19.5559 C   0  0  0  0  0  0  0  0  0  0  0  0
  -31.0426  -20.2373   20.5924 C   0  0  0  0  0  0  0  0  0  0  0  0
  -26.5693  -25.8041   18.8994 C   0  0  0  0  0  0  0  0  0  0  0  0
  -19.8145  -28.2457   22.8544 C   0  0  0  0  0  0  0  0  0  0  0  0
  -24.6934  -26.7656   18.2738 C   0  0  0  0  0  0  0  0  0  0  0  0
  -25.2087  -24.6494   17.0473 C   0  0  0  0  0  0  0  0  0  0  0  0
  -24.3489  -16.5601   21.0367 C   0  0  0  0  0  0  0  0  0  0  0  0
  -24.8792  -18.2311   23.7660 C   0  0  0  0  0  0  0  0  0  0  0  0
  -24.4817  -21.1402   25.5056 C   0  0  0  0  0  0  0  0  0  0  0  0
  -22.9805  -30.0983   22.6867 C   0  0  0  0  0  0  0  0  0  0  0  0
  -26.2542  -11.8267   20.8869 C   0  0  0  0  0  0  0  0  0  0  0  0
  -25.3486  -18.6919   20.1354 C   0  0  0  0  0  0  0  0  0  0  0  0
  -23.2353  -19.2293   22.1330 C   0  0  0  0  0  0  0  0  0  0  0  0
  -25.6792  -12.7385   21.9679 C   0  0  0  0  0  0  0  0  0  0  0  0
  -25.4433  -31.1861   20.3569 C   0  0  0  0  0  0  0  0  0  0  0  0
  -24.3554  -13.3416   21.5089 C   0  0  0  0  0  0  0  0  0  0  0  0
  -25.8836  -29.8968   19.6614 C   0  0  0  0  0  0  0  0  0  0  0  0
  -25.1436  -30.9553   21.8364 C   0  0  0  0  0  0  0  0  0  0  0  0
  -24.6202  -28.5839   21.4160 C   0  0  0  0  0  0  0  0  0  0  0  0
  -24.5475  -14.2057   20.2568 C   0  0  1  0  0  0  0  0  0  0  0  0
  -25.1464  -17.7939   21.3521 C   0  0  1  0  0  0  0  0  0  0  0  0
  -24.8798  -28.7549   19.9095 C   0  0  2  0  0  0  0  0  0  0  0  0
  -19.3465  -31.3426   19.3755 C   0  0  0  0  0  0  0  0  0  0  0  0
  -24.9899  -22.1926   27.7262 C   0  0  0  0  0  0  0  0  0  0  0  0
  -22.6277  -16.6163   25.0439 C   0  0  0  0  0  0  0  0  0  0  0  0
  -22.5440  -18.3168   26.8795 C   0  0  0  0  0  0  0  0  0  0  0  0
  -24.6171  -16.9781   26.5154 C   0  0  0  0  0  0  0  0  0  0  0  0
  -26.1213  -23.2629   24.2548 C   0  0  0  0  0  0  0  0  0  0  0  0
  -17.4244  -26.6646   20.5102 C   0  0  0  0  0  0  0  0  0  0  0  0
  -19.5954  -29.0428   20.4435 C   0  0  0  0  0  0  0  0  0  0  0  0
  -20.8464  -29.0981   23.4641 C   0  0  0  0  0  0  0  0  0  0  0  0
  -18.9691  -30.4486   20.5461 C   0  0  0  0  0  0  0  0  0  0  0  0
  -18.1405  -25.7643   19.4970 C   0  0  0  0  0  0  0  0  0  0  0  0
  -18.7769  -24.5275   20.1390 C   0  0  0  0  0  0  0  0  0  0  0  0
  -19.4518  -23.6452   19.0902 C   0  0  0  0  0  0  0  0  0  0  0  0
  -20.1236  -22.4347   19.7228 C   0  0  0  0  0  0  0  0  0  1  0  0
  -24.0066  -18.7916   24.8630 C   0  0  1  0  0  0  0  0  0  0  0  0
  -25.4654  -21.9830   26.2970 C   0  0  2  0  0  0  0  0  0  0  0  0
  -23.4455  -17.6835   25.7983 C   0  0  0  0  0  0  0  0  0  0  0  0
  -26.4829  -26.8971   19.6623 N   0  0  0  0  0  0  0  0  0  0  0  0
  -25.3318  -27.4609   19.2583 N   0  0  0  0  0  0  0  0  0  0  0  0
  -24.4601  -18.4767   22.4507 N   0  0  0  0  0  0  0  0  0  0  0  0
  -24.1841  -29.8609   22.0026 N   0  0  0  0  0  0  0  0  0  0  0  0
  -23.5232  -27.1917   17.7526 N   0  0  0  0  0  0  0  0  0  0  0  0
  -26.1234  -23.5962   16.9112 N   0  0  0  0  0  0  0  0  0  0  0  0
  -25.1126  -15.4901   20.6109 N   0  0  0  0  0  0  0  0  0  0  0  0
  -24.8080  -19.8011   25.5464 N   0  0  0  0  0  0  0  0  0  0  0  0
  -22.1246  -29.0090   22.7940 N   0  0  0  0  0  0  0  0  0  0  0  0
  -25.6351  -23.3184   25.6575 N   0  3  0  0  0  0  0  0  0  0  0  0
  -24.1922  -24.6784   16.3128 O   0  0  0  0  0  0  0  0  0  0  0  0
  -23.1310  -16.5772   21.1711 O   0  0  0  0  0  0  0  0  0  0  0  0
  -25.8990  -17.6048   24.0649 O   0  0  0  0  0  0  0  0  0  0  0  0
  -23.5179  -21.6211   24.9137 O   0  0  0  0  0  0  0  0  0  0  0  0
  -22.6878  -31.2009   23.1616 O   0  0  0  0  0  0  0  0  0  0  0  0
  -19.2645  -27.3025   23.6635 O   0  0  0  0  0  0  0  0  0  0  0  0
  -30.9303  -22.3455   19.4340 O   0  0  0  0  0  0  0  0  0  0  0  0
  -20.7451  -21.6630   18.6958 O   0  0  0  0  0  0  0  0  0  1  0  0
  -29.8948  -16.9320   19.5952 F   0  0  0  0  0  0  0  0  0  0  0  0
  -31.6498  -20.8286   21.6304 F   0  0  0  0  0  0  0  0  0  0  0  0
  1  2  1  0  0  0  0
  1  5  2  0  0  0  0
  2  6  2  0  0  0  0
  3  8  2  0  0  0  0
  3 16  1  0  0  0  0
  4  9  1  0  0  0  0
  4 16  2  0  0  0  0
  5 18  1  0  0  0  0
  6 20  1  0  0  0  0
  7 10  2  0  0  0  0
  7 19  1  0  0  0  0
  8 24  1  0  0  0  0
  9 24  2  0  0  0  0
 10 25  1  0  0  0  0
 11 12  2  0  0  0  0
 11 26  1  0  0  0  0
 12 27  1  0  0  0  0
 13 21  1  0  0  0  0
 13 25  2  0  0  0  0
 14 27  2  0  0  0  0
 14 28  1  0  0  0  0
 15 22  2  0  0  0  0
 15 81  1  0  0  0  0
 16 29  1  0  0  0  0
 17 29  1  0  0  0  0
 17 31  2  0  0  0  0
 17 32  1  0  0  0  0
 18 20  2  0  0  0  0
 18 37  1  0  0  0  0
 19 21  2  0  0  0  0
 19 38  1  0  0  0  0
 20 46  1  0  0  0  0
 21 39  1  0  0  0  0
 22 23  1  0  0  0  0
 22 55  1  0  0  0  0
 23 30  2  0  0  0  0
 23 56  1  0  0  0  0
 24 82  1  0  0  0  0
 25 83  1  0  0  0  0
 26 28  2  0  0  0  0
 26 82  1  0  0  0  0
 27 84  1  0  0  0  0
 28 85  1  0  0  0  0
 29 66  2  0  0  0  0
 30 57  1  0  0  0  0
 30 81  1  0  0  0  0
 31 67  1  0  0  0  0
 31 70  1  0  0  0  0
 32 71  1  0  0  0  0
 32 76  2  0  0  0  0
 33 47  1  0  0  0  0
 33 72  1  0  0  0  0
 33 77  2  0  0  0  0
 34 63  1  0  0  0  0
 34 68  1  0  0  0  0
 34 78  2  0  0  0  0
 35 64  1  0  0  0  0
 35 73  1  0  0  0  0
 35 79  2  0  0  0  0
 36 69  1  0  0  0  0
 36 74  1  0  0  0  0
 36 80  2  0  0  0  0
 37 40  1  0  0  0  0
 38 47  1  0  0  0  0
 39 68  1  0  0  0  0
 40 42  1  0  0  0  0
 41 43  1  0  0  0  0
 41 44  1  0  0  0  0
 42 46  1  0  0  0  0
 43 48  1  0  0  0  0
 44 69  1  0  0  0  0
 45 48  1  0  0  0  0
 45 69  1  0  0  0  0
 46 72  1  0  0  0  0
 47 68  1  0  0  0  0
 48 67  1  0  0  0  0
 49 58  1  0  0  0  0
 50 64  1  0  0  0  0
 51 65  1  0  0  0  0
 52 65  1  0  0  0  0
 53 65  1  0  0  0  0
 54 75  1  0  0  0  0
 55 59  1  0  0  0  0
 56 58  1  0  0  0  0
 57 74  1  0  0  0  0
 59 60  1  0  0  0  0
 60 61  1  0  0  0  0
 61 62  1  0  0  0  0
 62 83  1  0  0  0  0
 63 65  1  0  0  0  0
 63 73  1  0  0  0  0
 64 75  1  0  0  0  0
 66 67  1  0  0  0  0
M  CHG  1  75   1
M  ISO  4  36 100  62 101  74 100  83 101
M  END
> <Batch ID>
0134

> <Smiles>
CCCc1c(CCCC[101CH2:1][101O:1]c2ccc3c(c2)CN(C(=O)C(NC(=O)C(C)NC)C(C)(C)C)C(C(=O)NC2CCCc4ccccc42)C3)coc1C[100NH:0][100C:0](=O)N1CCCC(n2nc(-c3ccc(Oc4ccc(F)cc4F)cc3)c(C(N)=O)c2N)C1

> <Shape>
0.197

> <Color>
0.076

> <Negative vol penalty>
0.000

$$$$

  -OEChem-04052302333D

 84 92  0     1  0  0  0  0  0999 V2000
  -27.0293  -17.7648   28.3101 C   0  0  0  0  0  0  0  0  0  0  0  0
  -27.8308  -18.1816   27.2522 C   0  0  0  0  0  0  0  0  0  0  0  0
  -23.1096   -9.8588   19.9520 C   0  0  0  0  0  0  0  0  0  0  0  0
  -23.8599   -9.9004   22.2481 C   0  0  0  0  0  0  0  0  0  0  0  0
  -25.7099  -18.2065   28.3997 C   0  0  0  0  0  0  0  0  0  0  0  0
  -27.3130  -19.0396   26.2825 C   0  0  0  0  0  0  0  0  0  0  0  0
  -30.3210  -23.4549   23.2887 C   0  0  0  0  0  0  0  0  0  0  0  0
  -31.5289  -18.4719   20.0184 C   0  0  0  0  0  0  0  0  0  0  0  0
  -22.3819   -8.6973   20.2107 C   0  0  0  0  0  0  0  0  0  0  0  0
  -23.1321   -8.7389   22.5069 C   0  0  0  0  0  0  0  0  0  0  0  0
  -30.9092  -23.4986   22.0254 C   0  0  0  0  0  0  0  0  0  0  0  0
  -31.3319  -19.4904   19.0860 C   0  0  0  0  0  0  0  0  0  0  0  0
  -19.4399   -7.8717   21.6583 C   0  0  0  0  0  0  0  0  0  0  0  0
  -18.1358   -7.8011   21.1684 C   0  0  0  0  0  0  0  0  0  0  0  0
  -28.9080  -24.5097   21.1353 C   0  0  0  0  0  0  0  0  0  0  0  0
  -29.0717  -19.7862   19.8867 C   0  0  0  0  0  0  0  0  0  0  0  0
  -18.7297   -5.8533   19.8683 C   0  0  0  0  0  0  0  0  0  0  0  0
  -23.8486  -10.4603   20.9707 C   0  0  0  0  0  0  0  0  0  0  0  0
  -24.1535  -12.9890   20.8263 C   0  0  0  0  0  0  0  0  0  0  0  0
  -25.1786  -19.0780   27.4359 C   0  0  0  0  0  0  0  0  0  0  0  0
  -29.0157  -23.9290   23.4829 C   0  0  0  0  0  0  0  0  0  0  0  0
  -25.9849  -19.4923   26.3585 C   0  0  0  0  0  0  0  0  0  0  0  0
  -28.3065  -24.4732   22.4026 C   0  0  0  0  0  0  0  0  0  0  0  0
  -30.4972  -18.1104   20.8849 C   0  0  0  0  0  0  0  0  0  0  0  0
  -29.2687  -18.7676   20.8190 C   0  0  0  0  0  0  0  0  0  0  0  0
  -22.3931   -8.1374   21.4882 C   0  0  0  0  0  0  0  0  0  0  0  0
  -30.2016  -24.0234   20.9479 C   0  0  0  0  0  0  0  0  0  0  0  0
  -30.1033  -20.1476   19.0201 C   0  0  0  0  0  0  0  0  0  0  0  0
  -20.3889   -6.9332   21.2532 C   0  0  0  0  0  0  0  0  0  0  0  0
  -17.7807   -6.7919   20.2734 C   0  0  0  0  0  0  0  0  0  0  0  0
  -20.0338   -5.9239   20.3582 C   0  0  0  0  0  0  0  0  0  0  0  0
  -24.6010  -11.6599   20.7039 C   0  0  0  0  0  0  0  0  0  0  0  0
  -25.2359  -13.7509   20.4597 C   0  0  0  0  0  0  0  0  0  0  0  0
  -22.8737  -13.4900   21.2349 C   0  0  0  0  0  0  0  0  0  0  0  0
  -26.2728  -22.6266   24.4231 C   0  0  0  0  0  0  0  0  0  0  0  0
  -25.2285  -25.6959   24.3156 C   0  0  0  0  0  0  0  0  0  0  0  0
  -25.5990  -28.8392   23.0393 C   0  0  0  0  0  0  0  0  0  0  0  0
  -30.7031  -14.8533   20.6594 C   0  0  0  0  0  0  0  0  0  0  0  0
  -23.7325  -19.4909   27.5491 C   0  0  0  0  0  0  0  0  0  0  0  0
  -28.4053  -23.8993   24.8573 C   0  0  0  0  0  0  0  0  0  0  0  0
  -26.9098  -25.0138   22.5625 C   0  0  0  0  0  0  0  0  0  0  0  0
  -23.3739  -20.6969   26.6846 C   0  0  0  0  0  0  0  0  0  0  0  0
  -29.6108  -12.4280   18.2926 C   0  0  0  0  0  0  0  0  0  0  0  0
  -23.9362  -20.5304   25.2765 C   0  0  0  0  0  0  0  0  0  0  0  0
  -28.1761  -12.1174   18.7228 C   0  0  0  0  0  0  0  0  0  0  0  0
  -30.5196  -12.6746   19.4948 C   0  0  0  0  0  0  0  0  0  0  0  0
  -28.6015  -13.3913   20.8663 C   0  0  0  0  0  0  0  0  0  0  0  0
  -25.4669  -20.4422   25.3005 C   0  0  1  0  0  0  0  0  0  0  0  0
  -26.8804  -23.9377   24.8349 C   0  0  1  0  0  0  0  0  0  0  0  0
  -27.6349  -13.1904   19.6867 C   0  0  2  0  0  0  0  0  0  0  0  0
  -28.1494  -18.3970   21.7357 C   0  0  0  0  0  0  0  0  0  0  0  0
  -24.5711  -31.1274   23.1091 C   0  0  0  0  0  0  0  0  0  0  0  0
  -31.8560  -24.1912   17.0050 C   0  0  0  0  0  0  0  0  0  0  0  0
  -22.9617  -24.7299   22.5161 C   0  0  0  0  0  0  0  0  0  0  0  0
  -22.5572  -27.1130   21.8640 C   0  0  0  0  0  0  0  0  0  0  0  0
  -22.2814  -26.4081   24.2409 C   0  0  0  0  0  0  0  0  0  0  0  0
  -28.0789  -30.0473   24.1114 C   0  0  0  0  0  0  0  0  0  0  0  0
  -30.7319  -17.0170   21.8746 C   0  0  0  0  0  0  0  0  0  0  0  0
  -29.8994  -23.9694   18.5896 C   0  0  0  0  0  0  0  0  0  1  0  0
  -31.0522  -21.9079   17.7330 C   0  0  0  0  0  0  0  0  0  0  0  0
  -24.6054  -26.5768   23.2598 C   0  0  1  0  0  0  0  0  0  0  0  0
  -25.6189  -30.2020   23.7078 C   0  0  2  0  0  0  0  0  0  0  0  0
  -30.6403  -23.3456   17.4035 C   0  0  2  0  0  0  0  0  0  0  0  0
  -23.1270  -26.1951   22.9665 C   0  0  0  0  0  0  0  0  0  0  0  0
  -25.8689  -11.5786   20.2916 N   0  0  0  0  0  0  0  0  0  0  0  0
  -26.2272  -12.8663   20.1517 N   0  0  0  0  0  0  0  0  0  0  0  0
  -26.3540  -24.9568   23.9246 N   0  0  0  0  0  0  0  0  0  0  0  0
  -29.9502  -13.7038   20.3681 N   0  0  0  0  0  0  0  0  0  0  0  0
  -25.4268  -15.0845   20.3740 N   0  0  0  0  0  0  0  0  0  0  0  0
  -21.8740  -12.5694   21.5774 N   0  0  0  0  0  0  0  0  0  0  0  0
  -26.0462  -21.7572   25.4730 N   0  0  0  0  0  0  0  0  0  0  0  0
  -24.7888  -27.9509   23.7144 N   0  0  0  0  0  0  0  0  0  0  0  0
  -30.0867  -15.7816   21.4896 N   0  0  0  0  0  0  0  0  0  0  0  0
  -26.9563  -30.8390   23.5457 N   0  3  0  0  0  0  0  0  0  0  0  0
  -22.6190  -14.7175   21.2787 O   0  0  0  0  0  0  0  0  0  0  0  0
  -26.0263  -22.4198   23.2407 O   0  0  0  0  0  0  0  0  0  0  0  0
  -24.7391  -25.6701   25.4476 O   0  0  0  0  0  0  0  0  0  0  0  0
  -26.2354  -28.5889   22.0180 O   0  0  0  0  0  0  0  0  0  0  0  0
  -31.8381  -15.0410   20.2085 O   0  0  0  0  0  0  0  0  0  0  0  0
  -21.6830   -7.0041   21.7411 O   0  0  0  0  0  0  0  0  0  0  0  0
  -30.7731  -24.0667   19.7136 O   0  0  0  0  0  0  0  0  0  1  0  0
  -29.9095  -21.1481   18.1038 O   0  0  0  0  0  0  0  0  0  0  0  0
  -16.5280   -6.7233   19.8042 F   0  0  0  0  0  0  0  0  0  0  0  0
  -20.9409   -5.0187   19.9663 F   0  0  0  0  0  0  0  0  0  0  0  0
  1  2  1  0  0  0  0
  1  5  2  0  0  0  0
  2  6  2  0  0  0  0
  3  9  2  0  0  0  0
  3 18  1  0  0  0  0
  4 10  1  0  0  0  0
  4 18  2  0  0  0  0
  5 20  1  0  0  0  0
  6 22  1  0  0  0  0
  7 11  2  0  0  0  0
  7 21  1  0  0  0  0
  8 12  2  0  0  0  0
  8 24  1  0  0  0  0
  9 26  1  0  0  0  0
 10 26  2  0  0  0  0
 11 27  1  0  0  0  0
 12 28  1  0  0  0  0
 13 14  2  0  0  0  0
 13 29  1  0  0  0  0
 14 30  1  0  0  0  0
 15 23  1  0  0  0  0
 15 27  2  0  0  0  0
 16 25  1  0  0  0  0
 16 28  2  0  0  0  0
 17 30  2  0  0  0  0
 17 31  1  0  0  0  0
 18 32  1  0  0  0  0
 19 32  1  0  0  0  0
 19 33  2  0  0  0  0
 19 34  1  0  0  0  0
 20 22  2  0  0  0  0
 20 39  1  0  0  0  0
 21 23  2  0  0  0  0
 21 40  1  0  0  0  0
 22 48  1  0  0  0  0
 23 41  1  0  0  0  0
 24 25  2  0  0  0  0
 24 58  1  0  0  0  0
 25 51  1  0  0  0  0
 26 80  1  0  0  0  0
 27 81  1  0  0  0  0
 28 82  1  0  0  0  0
 29 31  2  0  0  0  0
 29 80  1  0  0  0  0
 30 83  1  0  0  0  0
 31 84  1  0  0  0  0
 32 65  2  0  0  0  0
 33 66  1  0  0  0  0
 33 69  1  0  0  0  0
 34 70  1  0  0  0  0
 34 75  2  0  0  0  0
 35 49  1  0  0  0  0
 35 71  1  0  0  0  0
 35 76  2  0  0  0  0
 36 61  1  0  0  0  0
 36 67  1  0  0  0  0
 36 77  2  0  0  0  0
 37 62  1  0  0  0  0
 37 72  1  0  0  0  0
 37 78  2  0  0  0  0
 38 68  1  0  0  0  0
 38 73  1  0  0  0  0
 38 79  2  0  0  0  0
 39 42  1  0  0  0  0
 40 49  1  0  0  0  0
 41 67  1  0  0  0  0
 42 44  1  0  0  0  0
 43 45  1  0  0  0  0
 43 46  1  0  0  0  0
 44 48  1  0  0  0  0
 45 50  1  0  0  0  0
 46 68  1  0  0  0  0
 47 50  1  0  0  0  0
 47 68  1  0  0  0  0
 48 71  1  0  0  0  0
 49 67  1  0  0  0  0
 50 66  1  0  0  0  0
 52 62  1  0  0  0  0
 53 63  1  0  0  0  0
 54 64  1  0  0  0  0
 55 64  1  0  0  0  0
 56 64  1  0  0  0  0
 57 74  1  0  0  0  0
 58 73  1  0  0  0  0
 59 63  1  0  0  0  0
 59 81  1  0  0  0  0
 60 63  1  0  0  0  0
 60 82  1  0  0  0  0
 61 64  1  0  0  0  0
 61 72  1  0  0  0  0
 62 74  1  0  0  0  0
 65 66  1  0  0  0  0
M  CHG  1  74   1
M  ISO  4  38 100  59 101  73 100  81 101
M  END
> <Batch ID>
0134

> <Smiles>
CNC(C)C(=O)NC(C(=O)N1Cc2cc([101O:1][101CH2:1]C(C)COc3ccc(C[100NH:0][100C:0](=O)N4CCCC(n5nc(-c6ccc(Oc7ccc(F)cc7F)cc6)c(C(N)=O)c5N)C4)c(C)c3)ccc2CC1C(=O)NC1CCCc2ccccc21)C(C)(C)C

> <Shape>
0.240

> <Color>
0.196

> <Negative vol penalty>
0.000

$$$$

  -OEChem-04052302333D

 86 94  0     1  0  0  0  0  0999 V2000
  -28.6678  -23.3068   18.0856 C   0  0  0  0  0  0  0  0  0  0  0  0
  -27.5178  -23.5107   18.8414 C   0  0  0  0  0  0  0  0  0  0  0  0
  -28.7399  -12.4962   19.0063 C   0  0  0  0  0  0  0  0  0  0  0  0
  -28.2179  -13.7182   21.0241 C   0  0  0  0  0  0  0  0  0  0  0  0
  -29.8207  -24.0411   18.3606 C   0  0  0  0  0  0  0  0  0  0  0  0
  -27.5203  -24.4484   19.8734 C   0  0  0  0  0  0  0  0  0  0  0  0
  -23.3744  -27.3564   19.8661 C   0  0  0  0  0  0  0  0  0  0  0  0
  -19.0847  -18.6307   20.9590 C   0  0  0  0  0  0  0  0  0  0  0  0
  -19.5544  -17.4812   20.3237 C   0  0  0  0  0  0  0  0  0  0  0  0
  -30.0220  -13.0456   19.0053 C   0  0  0  0  0  0  0  0  0  0  0  0
  -29.5001  -14.2675   21.0231 C   0  0  0  0  0  0  0  0  0  0  0  0
  -22.2056  -26.8001   20.3841 C   0  0  0  0  0  0  0  0  0  0  0  0
  -32.5146  -16.2709   21.3532 C   0  0  0  0  0  0  0  0  0  0  0  0
  -32.6345  -17.6378   21.6037 C   0  0  0  0  0  0  0  0  0  0  0  0
  -22.5744  -27.9728   22.4596 C   0  0  0  0  0  0  0  0  0  0  0  0
  -20.3570  -18.0604   22.9320 C   0  0  0  0  0  0  0  0  0  0  0  0
  -31.2688  -18.1123   19.6680 C   0  0  0  0  0  0  0  0  0  0  0  0
  -27.8378  -12.8326   20.0157 C   0  0  0  0  0  0  0  0  0  0  0  0
  -26.1006  -11.0700   20.6348 C   0  0  0  0  0  0  0  0  0  0  0  0
  -29.8344  -24.9951   19.3903 C   0  0  0  0  0  0  0  0  0  0  0  0
  -24.1590  -28.2179   20.6462 C   0  0  0  0  0  0  0  0  0  0  0  0
  -28.6748  -25.1952   20.1633 C   0  0  0  0  0  0  0  0  0  0  0  0
  -23.7514  -28.5407   21.9484 C   0  0  0  0  0  0  0  0  0  0  0  0
  -19.4861  -18.9204   22.2631 C   0  0  0  0  0  0  0  0  0  0  0  0
  -20.8267  -16.9108   22.2968 C   0  0  0  0  0  0  0  0  0  0  0  0
  -20.4254  -16.6212   20.9927 C   0  0  0  0  0  0  0  0  0  0  0  0
  -30.4021  -13.9312   20.0137 C   0  0  0  0  0  0  0  0  0  0  0  0
  -21.8069  -27.1060   21.6820 C   0  0  0  0  0  0  0  0  0  0  0  0
  -31.7719  -15.8247   20.2600 C   0  0  0  0  0  0  0  0  0  0  0  0
  -32.0116  -18.5585   20.7612 C   0  0  0  0  0  0  0  0  0  0  0  0
  -31.1490  -16.7454   19.4175 C   0  0  0  0  0  0  0  0  0  0  0  0
  -26.5131  -12.2659   20.0171 C   0  0  0  0  0  0  0  0  0  0  0  0
  -24.7612  -10.9781   20.3450 C   0  0  0  0  0  0  0  0  0  0  0  0
  -26.8603  -10.1267   21.4020 C   0  0  0  0  0  0  0  0  0  0  0  0
  -27.1336  -28.1472   21.7645 C   0  0  0  0  0  0  0  0  0  0  0  0
  -26.4250  -31.1597   22.7364 C   0  0  0  0  0  0  0  0  0  0  0  0
  -24.0356  -33.4408   23.5936 C   0  0  0  0  0  0  0  0  0  0  0  0
  -20.5794  -15.0409   19.0369 C   0  0  0  0  0  0  0  0  0  0  0  0
  -31.1184  -25.7310   19.6810 C   0  0  0  0  0  0  0  0  0  0  0  0
  -25.4030  -28.8308   20.0635 C   0  0  0  0  0  0  0  0  0  0  0  0
  -24.5477  -29.4762   22.8197 C   0  0  0  0  0  0  0  0  0  0  0  0
  -30.9260  -26.9726   20.5480 C   0  0  0  0  0  0  0  0  0  0  0  0
  -21.5496  -12.2625   17.0328 C   0  0  0  0  0  0  0  0  0  0  0  0
  -30.0256  -26.6580   21.7385 C   0  0  0  0  0  0  0  0  0  0  0  0
  -22.8921  -11.8354   17.6307 C   0  0  0  0  0  0  0  0  0  0  0  0
  -21.3783  -13.7804   17.0499 C   0  0  0  0  0  0  0  0  0  0  0  0
  -22.9240  -13.9863   18.9573 C   0  0  0  0  0  0  0  0  0  0  0  0
  -28.6307  -26.2211   21.2750 C   0  0  1  0  0  0  0  0  0  0  0  0
  -26.3967  -29.2903   21.1259 C   0  0  1  0  0  0  0  0  0  0  0  0
  -23.1146  -12.4621   19.0212 C   0  0  2  0  0  0  0  0  0  0  0  0
  -21.9983  -13.8136   24.2818 C   0  0  0  0  0  0  0  0  0  0  0  0
  -23.7643  -35.8083   24.3799 C   0  0  0  0  0  0  0  0  0  0  0  0
  -27.2957  -30.3261   25.5394 C   0  0  0  0  0  0  0  0  0  0  0  0
  -26.1330  -32.3570   26.4291 C   0  0  0  0  0  0  0  0  0  0  0  0
  -28.0471  -32.6095   24.8495 C   0  0  0  0  0  0  0  0  0  0  0  0
  -22.4811  -34.1843   21.1874 C   0  0  0  0  0  0  0  0  0  0  0  0
  -18.9762  -20.1619   22.9505 C   0  0  0  0  0  0  0  0  0  0  0  0
  -21.7565  -16.0059   23.0385 C   0  0  0  0  0  0  0  0  0  0  0  0
  -21.0437  -14.7489   23.5565 C   0  0  0  0  0  0  0  0  0  0  0  0
  -19.8612  -21.3954   22.7380 C   0  0  0  0  0  0  0  0  0  0  0  0
  -19.3335  -22.6428   23.4555 C   0  0  0  0  0  0  0  0  0  0  0  0
  -20.2640  -23.8392   23.2395 C   0  0  0  0  0  0  0  0  0  0  0  0
  -19.7483  -25.1294   23.8776 C   0  0  0  0  0  0  0  0  0  0  0  0
  -20.6248  -26.3433   23.5995 C   0  0  0  0  0  0  0  0  0  1  0  0
  -25.8265  -31.7684   23.9815 C   0  0  1  0  0  0  0  0  0  0  0  0
  -23.8242  -34.8841   23.1737 C   0  0  2  0  0  0  0  0  0  0  0  0
  -26.8114  -31.7460   25.1844 C   0  0  0  0  0  0  0  0  0  0  0  0
  -25.5164  -12.8889   19.3826 N   0  0  0  0  0  0  0  0  0  0  0  0
  -24.4644  -12.0813   19.6000 N   0  0  0  0  0  0  0  0  0  0  0  0
  -25.7596  -30.0449   22.2070 N   0  0  0  0  0  0  0  0  0  0  0  0
  -21.5996  -14.3031   18.4000 N   0  0  0  0  0  0  0  0  0  0  0  0
  -23.8201  -10.0619   20.6572 N   0  0  0  0  0  0  0  0  0  0  0  0
  -28.2249  -10.3744   21.6041 N   0  0  0  0  0  0  0  0  0  0  0  0
  -20.8914  -15.4585   20.3302 N   0  0  0  0  0  0  0  0  0  0  0  0
  -27.8487  -27.3705   20.8729 N   0  0  0  0  0  0  0  0  0  0  0  0
  -25.3724  -33.1030   23.6058 N   0  0  0  0  0  0  0  0  0  0  0  0
  -22.5499  -35.0210   22.4131 N   0  3  0  0  0  0  0  0  0  0  0  0
  -26.3479   -9.0862   21.8800 O   0  0  0  0  0  0  0  0  0  0  0  0
  -27.0601  -27.9829   22.9767 O   0  0  0  0  0  0  0  0  0  0  0  0
  -27.4412  -31.6595   22.2474 O   0  0  0  0  0  0  0  0  0  0  0  0
  -23.1079  -32.6892   23.8855 O   0  0  0  0  0  0  0  0  0  0  0  0
  -19.4974  -15.2609   18.4864 O   0  0  0  0  0  0  0  0  0  0  0  0
  -31.6532  -14.4672   20.0131 O   0  0  0  0  0  0  0  0  0  0  0  0
  -20.6669  -26.5640   22.1902 O   0  0  0  0  0  0  0  0  0  1  0  0
  -32.1255  -19.8711   21.0028 F   0  0  0  0  0  0  0  0  0  0  0  0
  -30.4332  -16.3227   18.3664 F   0  0  0  0  0  0  0  0  0  0  0  0
  1  2  1  0  0  0  0
  1  5  2  0  0  0  0
  2  6  2  0  0  0  0
  3 10  2  0  0  0  0
  3 18  1  0  0  0  0
  4 11  1  0  0  0  0
  4 18  2  0  0  0  0
  5 20  1  0  0  0  0
  6 22  1  0  0  0  0
  7 12  2  0  0  0  0
  7 21  1  0  0  0  0
  8  9  2  0  0  0  0
  8 24  1  0  0  0  0
  9 26  1  0  0  0  0
 10 27  1  0  0  0  0
 11 27  2  0  0  0  0
 12 28  1  0  0  0  0
 13 14  2  0  0  0  0
 13 29  1  0  0  0  0
 14 30  1  0  0  0  0
 15 23  1  0  0  0  0
 15 28  2  0  0  0  0
 16 24  2  0  0  0  0
 16 25  1  0  0  0  0
 17 30  2  0  0  0  0
 17 31  1  0  0  0  0
 18 32  1  0  0  0  0
 19 32  1  0  0  0  0
 19 33  2  0  0  0  0
 19 34  1  0  0  0  0
 20 22  2  0  0  0  0
 20 39  1  0  0  0  0
 21 23  2  0  0  0  0
 21 40  1  0  0  0  0
 22 48  1  0  0  0  0
 23 41  1  0  0  0  0
 24 57  1  0  0  0  0
 25 26  2  0  0  0  0
 25 58  1  0  0  0  0
 26 74  1  0  0  0  0
 27 83  1  0  0  0  0
 28 84  1  0  0  0  0
 29 31  2  0  0  0  0
 29 83  1  0  0  0  0
 30 85  1  0  0  0  0
 31 86  1  0  0  0  0
 32 68  2  0  0  0  0
 33 69  1  0  0  0  0
 33 72  1  0  0  0  0
 34 73  1  0  0  0  0
 34 78  2  0  0  0  0
 35 49  1  0  0  0  0
 35 75  1  0  0  0  0
 35 79  2  0  0  0  0
 36 65  1  0  0  0  0
 36 70  1  0  0  0  0
 36 80  2  0  0  0  0
 37 66  1  0  0  0  0
 37 76  1  0  0  0  0
 37 81  2  0  0  0  0
 38 71  1  0  0  0  0
 38 74  1  0  0  0  0
 38 82  2  0  0  0  0
 39 42  1  0  0  0  0
 40 49  1  0  0  0  0
 41 70  1  0  0  0  0
 42 44  1  0  0  0  0
 43 45  1  0  0  0  0
 43 46  1  0  0  0  0
 44 48  1  0  0  0  0
 45 50  1  0  0  0  0
 46 71  1  0  0  0  0
 47 50  1  0  0  0  0
 47 71  1  0  0  0  0
 48 75  1  0  0  0  0
 49 70  1  0  0  0  0
 50 69  1  0  0  0  0
 51 59  1  0  0  0  0
 52 66  1  0  0  0  0
 53 67  1  0  0  0  0
 54 67  1  0  0  0  0
 55 67  1  0  0  0  0
 56 77  1  0  0  0  0
 57 60  1  0  0  0  0
 58 59  1  0  0  0  0
 60 61  1  0  0  0  0
 61 62  1  0  0  0  0
 62 63  1  0  0  0  0
 63 64  1  0  0  0  0
 64 84  1  0  0  0  0
 65 67  1  0  0  0  0
 65 76  1  0  0  0  0
 66 77  1  0  0  0  0
 68 69  1  0  0  0  0
M  CHG  1  77   1
M  ISO  4  38 100  64 101  74 100  84 101
M  END
> <Batch ID>
0134

> <Smiles>
CCCc1cc(CCCCC[101CH2:1][101O:1]c2ccc3c(c2)CN(C(=O)C(NC(=O)C(C)NC)C(C)(C)C)C(C(=O)NC2CCCc4ccccc42)C3)ccc1[100NH:0][100C:0](=O)N1CCCC(n2nc(-c3ccc(Oc4ccc(F)cc4F)cc3)c(C(N)=O)c2N)C1

> <Shape>
0.264

> <Color>
0.074

> <Negative vol penalty>
0.000

$$$$

  -OEChem-04052302333D

 87 95  0     1  0  0  0  0  0999 V2000
  -17.8707  -25.9164   22.7339 C   0  0  0  0  0  0  0  0  0  0  0  0
  -19.1689  -25.5311   23.0527 C   0  0  0  0  0  0  0  0  0  0  0  0
  -29.0551  -26.0778   16.6962 C   0  0  0  0  0  0  0  0  0  0  0  0
  -27.3649  -14.6524   21.9737 C   0  0  0  0  0  0  0  0  0  0  0  0
  -26.1777  -15.2750   19.9638 C   0  0  0  0  0  0  0  0  0  0  0  0
  -17.6481  -27.1053   22.0404 C   0  0  0  0  0  0  0  0  0  0  0  0
  -20.2454  -26.3340   22.6773 C   0  0  0  0  0  0  0  0  0  0  0  0
  -25.4535  -27.1965   25.7816 C   0  0  0  0  0  0  0  0  0  0  0  0
  -27.6635  -26.1525   16.6384 C   0  0  0  0  0  0  0  0  0  0  0  0
  -29.6869  -25.7528   17.8966 C   0  0  0  0  0  0  0  0  0  0  0  0
  -26.9176  -13.3390   21.8312 C   0  0  0  0  0  0  0  0  0  0  0  0
  -25.7304  -13.9615   19.8212 C   0  0  0  0  0  0  0  0  0  0  0  0
  -26.7224  -26.6316   25.6602 C   0  0  0  0  0  0  0  0  0  0  0  0
  -23.3361  -11.9858   21.1609 C   0  0  0  0  0  0  0  0  0  0  0  0
  -21.9915  -11.7897   20.8461 C   0  0  0  0  0  0  0  0  0  0  0  0
  -27.4237  -28.5101   24.3190 C   0  0  0  0  0  0  0  0  0  0  0  0
  -22.6332  -10.6560   18.8114 C   0  0  0  0  0  0  0  0  0  0  0  0
  -26.9949  -15.6204   21.0401 C   0  0  0  0  0  0  0  0  0  0  0  0
  -28.6373  -17.5355   20.6621 C   0  0  0  0  0  0  0  0  0  0  0  0
  -18.7217  -27.9280   21.6647 C   0  0  0  0  0  0  0  0  0  0  0  0
  -25.1565  -28.4192   25.1624 C   0  0  0  0  0  0  0  0  0  0  0  0
  -20.0370  -27.5343   21.9769 C   0  0  0  0  0  0  0  0  0  0  0  0
  -26.1511  -29.0896   24.4362 C   0  0  0  0  0  0  0  0  0  0  0  0
  -26.9036  -25.9024   17.7811 C   0  0  0  0  0  0  0  0  0  0  0  0
  -28.9270  -25.5027   19.0392 C   0  0  0  0  0  0  0  0  0  0  0  0
  -27.5354  -25.5775   18.9815 C   0  0  0  0  0  0  0  0  0  0  0  0
  -26.1003  -12.9935   20.7549 C   0  0  0  0  0  0  0  0  0  0  0  0
  -27.7069  -27.2870   24.9264 C   0  0  0  0  0  0  0  0  0  0  0  0
  -24.3293  -11.5171   20.3010 C   0  0  0  0  0  0  0  0  0  0  0  0
  -21.6400  -11.1248   19.6713 C   0  0  0  0  0  0  0  0  0  0  0  0
  -23.9779  -10.8522   19.1262 C   0  0  0  0  0  0  0  0  0  0  0  0
  -27.4563  -16.9775   21.1871 C   0  0  0  0  0  0  0  0  0  0  0  0
  -28.6142  -18.8437   21.0799 C   0  0  0  0  0  0  0  0  0  0  0  0
  -29.6634  -16.9259   19.8677 C   0  0  0  0  0  0  0  0  0  0  0  0
  -23.1081  -29.3592   22.9210 C   0  0  0  0  0  0  0  0  0  0  0  0
  -25.8001  -23.6222   21.8123 C   0  0  0  0  0  0  0  0  0  0  0  0
  -24.2227  -32.3070   23.6892 C   0  0  0  0  0  0  0  0  0  0  0  0
  -26.7422  -34.2018   24.9965 C   0  0  0  0  0  0  0  0  0  0  0  0
  -18.4349  -29.1804   20.8749 C   0  0  0  0  0  0  0  0  0  0  0  0
  -23.7909  -29.0282   25.3252 C   0  0  0  0  0  0  0  0  0  0  0  0
  -25.8891  -30.4143   23.7691 C   0  0  0  0  0  0  0  0  0  0  0  0
  -19.6043  -30.1610   20.8419 C   0  0  0  0  0  0  0  0  0  0  0  0
  -25.6537  -21.1856   24.4355 C   0  0  0  0  0  0  0  0  0  0  0  0
  -20.9056  -29.4296   20.5280 C   0  0  0  0  0  0  0  0  0  0  0  0
  -26.1781  -19.9125   23.7725 C   0  0  0  0  0  0  0  0  0  0  0  0
  -24.8520  -22.0360   23.4552 C   0  0  0  0  0  0  0  0  0  0  0  0
  -26.1189  -21.1130   21.5409 C   0  0  0  0  0  0  0  0  0  0  0  0
  -21.2291  -28.3907   21.6086 C   0  0  1  0  0  0  0  0  0  0  0  0
  -23.4467  -30.0264   24.2240 C   0  0  1  0  0  0  0  0  0  0  0  0
  -26.9605  -20.2399   22.4884 C   0  0  2  0  0  0  0  0  0  0  0  0
  -25.4149  -25.9887   17.6923 C   0  0  0  0  0  0  0  0  0  0  0  0
  -33.4368  -26.9894   23.4078 C   0  0  0  0  0  0  0  0  0  0  0  0
  -27.3800  -36.5850   25.4556 C   0  0  0  0  0  0  0  0  0  0  0  0
  -24.8278  -32.7132   20.7263 C   0  0  0  0  0  0  0  0  0  0  0  0
  -26.2913  -34.6428   21.3611 C   0  0  0  0  0  0  0  0  0  0  0  0
  -23.8511  -34.7086   21.8747 C   0  0  0  0  0  0  0  0  0  0  0  0
  -32.2276  -24.6513   21.7841 C   0  0  0  0  0  0  0  0  0  0  0  0
  -26.9269  -33.7130   27.9096 C   0  0  0  0  0  0  0  0  0  0  0  0
  -29.6356  -25.1529   20.3255 C   0  0  0  0  0  0  0  0  0  0  0  0
  -26.7206  -25.3094   20.2068 C   0  0  0  0  0  0  0  0  0  0  0  0
  -26.6071  -23.8214   20.5540 C   0  0  0  0  0  0  0  0  0  0  0  0
  -32.4765  -27.1359   22.2317 C   0  0  0  0  0  0  0  0  0  0  0  0
  -30.6230  -26.2543   20.7359 C   0  0  0  0  0  0  0  0  0  0  0  0
  -30.5630  -25.8286   23.2860 C   0  0  0  0  0  0  0  0  0  0  0  0
  -29.6702  -27.0245   23.6102 C   0  0  0  0  0  0  0  0  0  1  0  0
  -25.3579  -33.1792   23.2098 C   0  0  1  0  0  0  0  0  0  0  0  0
  -26.7315  -35.3280   26.0143 C   0  0  2  0  0  0  0  0  0  0  0  0
  -25.0867  -33.7851   21.8038 C   0  0  0  0  0  0  0  0  0  0  0  0
  -31.4592  -25.9712   22.0236 C   0  0  1  0  0  0  0  0  0  0  0  0
  -26.7355  -17.8590   21.8853 N   0  0  0  0  0  0  0  0  0  0  0  0
  -27.4657  -18.9842   21.8020 N   0  0  0  0  0  0  0  0  0  0  0  0
  -24.5364  -30.9660   23.9520 N   0  0  0  0  0  0  0  0  0  0  0  0
  -25.6214  -22.3063   22.2394 N   0  0  0  0  0  0  0  0  0  0  0  0
  -29.4645  -19.8760   20.8965 N   0  0  0  0  0  0  0  0  0  0  0  0
  -29.5301  -15.5726   19.5282 N   0  0  0  0  0  0  0  0  0  0  0  0
  -21.7713  -29.0368   22.7846 N   0  0  0  0  0  0  0  0  0  0  0  0
  -25.5797  -34.1719   24.2556 N   0  0  0  0  0  0  0  0  0  0  0  0
  -27.4721  -34.9233   27.2426 N   0  3  0  0  0  0  0  0  0  0  0  0
  -30.6768  -17.5580   19.4845 O   0  0  0  0  0  0  0  0  0  0  0  0
  -23.9938  -29.1534   22.0994 O   0  0  0  0  0  0  0  0  0  0  0  0
  -25.3456  -24.6082   22.3983 O   0  0  0  0  0  0  0  0  0  0  0  0
  -23.1007  -32.7992   23.8322 O   0  0  0  0  0  0  0  0  0  0  0  0
  -27.6888  -33.4284   24.8688 O   0  0  0  0  0  0  0  0  0  0  0  0
  -25.6638  -11.7119   20.6153 O   0  0  0  0  0  0  0  0  0  0  0  0
  -28.9460  -26.7375   24.8058 O   0  0  0  0  0  0  0  0  0  1  0  0
  -20.3488  -10.9352   19.3699 F   0  0  0  0  0  0  0  0  0  0  0  0
  -24.9276  -10.3986   18.2967 F   0  0  0  0  0  0  0  0  0  0  0  0
  1  2  1  0  0  0  0
  1  6  2  0  0  0  0
  2  7  2  0  0  0  0
  3  9  1  0  0  0  0
  3 10  2  0  0  0  0
  4 11  2  0  0  0  0
  4 18  1  0  0  0  0
  5 12  1  0  0  0  0
  5 18  2  0  0  0  0
  6 20  1  0  0  0  0
  7 22  1  0  0  0  0
  8 13  2  0  0  0  0
  8 21  1  0  0  0  0
  9 24  2  0  0  0  0
 10 25  1  0  0  0  0
 11 27  1  0  0  0  0
 12 27  2  0  0  0  0
 13 28  1  0  0  0  0
 14 15  2  0  0  0  0
 14 29  1  0  0  0  0
 15 30  1  0  0  0  0
 16 23  1  0  0  0  0
 16 28  2  0  0  0  0
 17 30  2  0  0  0  0
 17 31  1  0  0  0  0
 18 32  1  0  0  0  0
 19 32  1  0  0  0  0
 19 33  2  0  0  0  0
 19 34  1  0  0  0  0
 20 22  2  0  0  0  0
 20 39  1  0  0  0  0
 21 23  2  0  0  0  0
 21 40  1  0  0  0  0
 22 48  1  0  0  0  0
 23 41  1  0  0  0  0
 24 26  1  0  0  0  0
 24 51  1  0  0  0  0
 25 26  2  0  0  0  0
 25 59  1  0  0  0  0
 26 60  1  0  0  0  0
 27 84  1  0  0  0  0
 28 85  1  0  0  0  0
 29 31  2  0  0  0  0
 29 84  1  0  0  0  0
 30 86  1  0  0  0  0
 31 87  1  0  0  0  0
 32 70  2  0  0  0  0
 33 71  1  0  0  0  0
 33 74  1  0  0  0  0
 34 75  1  0  0  0  0
 34 79  2  0  0  0  0
 35 49  1  0  0  0  0
 35 76  1  0  0  0  0
 35 80  2  0  0  0  0
 36 61  1  0  0  0  0
 36 73  1  0  0  0  0
 36 81  2  0  0  0  0
 37 66  1  0  0  0  0
 37 72  1  0  0  0  0
 37 82  2  0  0  0  0
 38 67  1  0  0  0  0
 38 77  1  0  0  0  0
 38 83  2  0  0  0  0
 39 42  1  0  0  0  0
 40 49  1  0  0  0  0
 41 72  1  0  0  0  0
 42 44  1  0  0  0  0
 43 45  1  0  0  0  0
 43 46  1  0  0  0  0
 44 48  1  0  0  0  0
 45 50  1  0  0  0  0
 46 73  1  0  0  0  0
 47 50  1  0  0  0  0
 47 73  1  0  0  0  0
 48 76  1  0  0  0  0
 49 72  1  0  0  0  0
 50 71  1  0  0  0  0
 52 62  1  0  0  0  0
 53 67  1  0  0  0  0
 54 68  1  0  0  0  0
 55 68  1  0  0  0  0
 56 68  1  0  0  0  0
 57 69  1  0  0  0  0
 58 78  1  0  0  0  0
 59 63  1  0  0  0  0
 60 61  1  0  0  0  0
 62 69  1  0  0  0  0
 63 69  1  0  0  0  0
 64 65  1  0  0  0  0
 64 69  1  0  0  0  0
 65 85  1  0  0  0  0
 66 68  1  0  0  0  0
 66 77  1  0  0  0  0
 67 78  1  0  0  0  0
 70 71  1  0  0  0  0
M  CHG  1  78   1
M  ISO  4  36 100  61 100  65 101  85 101
M  END
> <Batch ID>
0134

> <Smiles>
CCC(C)(CCc1cccc(C)c1C[100CH2:0][100C:0](=O)N1CCCC(n2nc(-c3ccc(Oc4ccc(F)cc4F)cc3)c(C(N)=O)c2N)C1)C[101CH2:1][101O:1]c1ccc2c(c1)CN(C(=O)C(NC(=O)C(C)NC)C(C)(C)C)C(C(=O)NC1CCCc3ccccc31)C2

> <Shape>
0.236

> <Color>
0.083

> <Negative vol penalty>
0.000

$$$$

  -OEChem-04052302333D

 83 91  0     1  0  0  0  0  0999 V2000
  -22.2316  -22.3858   23.4352 C   0  0  0  0  0  0  0  0  0  0  0  0
  -23.4207  -22.5177   22.7253 C   0  0  0  0  0  0  0  0  0  0  0  0
  -24.0721   -9.7712   19.9453 C   0  0  0  0  0  0  0  0  0  0  0  0
  -24.7294  -10.0850   22.2489 C   0  0  0  0  0  0  0  0  0  0  0  0
  -21.1304  -23.1729   23.1008 C   0  0  0  0  0  0  0  0  0  0  0  0
  -23.5090  -23.4362   21.6798 C   0  0  0  0  0  0  0  0  0  0  0  0
  -27.7956  -26.1290   21.8164 C   0  0  0  0  0  0  0  0  0  0  0  0
  -26.5285  -21.0872   19.7608 C   0  0  0  0  0  0  0  0  0  0  0  0
  -23.7518   -8.4413   20.2178 C   0  0  0  0  0  0  0  0  0  0  0  0
  -24.4090   -8.7551   22.5215 C   0  0  0  0  0  0  0  0  0  0  0  0
  -28.9545  -25.5050   21.3565 C   0  0  0  0  0  0  0  0  0  0  0  0
  -27.4035  -21.7489   18.8994 C   0  0  0  0  0  0  0  0  0  0  0  0
  -21.6211   -6.9341   23.0976 C   0  0  0  0  0  0  0  0  0  0  0  0
  -20.8929   -6.6690   24.2573 C   0  0  0  0  0  0  0  0  0  0  0  0
  -28.7322  -26.6586   19.2496 C   0  0  0  0  0  0  0  0  0  0  0  0
  -29.2750  -20.6341   19.9442 C   0  0  0  0  0  0  0  0  0  0  0  0
  -22.6933   -5.2779   25.0699 C   0  0  0  0  0  0  0  0  0  0  0  0
  -24.5610  -10.5931   20.9609 C   0  0  0  0  0  0  0  0  0  0  0  0
  -24.0398  -13.0831   20.7714 C   0  0  0  0  0  0  0  0  0  0  0  0
  -21.2083  -24.1083   22.0570 C   0  0  0  0  0  0  0  0  0  0  0  0
  -27.0891  -27.0156   20.9910 C   0  0  0  0  0  0  0  0  0  0  0  0
  -22.4075  -24.2356   21.3302 C   0  0  0  0  0  0  0  0  0  0  0  0
  -27.5661  -27.2944   19.7022 C   0  0  0  0  0  0  0  0  0  0  0  0
  -27.0267  -20.1990   20.7140 C   0  0  0  0  0  0  0  0  0  0  0  0
  -28.4000  -19.9725   20.8057 C   0  0  0  0  0  0  0  0  0  0  0  0
  -23.9202   -7.9332   21.5059 C   0  0  0  0  0  0  0  0  0  0  0  0
  -29.4213  -25.7675   20.0719 C   0  0  0  0  0  0  0  0  0  0  0  0
  -28.7768  -21.5224   18.9911 C   0  0  0  0  0  0  0  0  0  0  0  0
  -22.8854   -6.3709   22.9239 C   0  0  0  0  0  0  0  0  0  0  0  0
  -21.4290   -5.8410   25.2435 C   0  0  0  0  0  0  0  0  0  0  0  0
  -23.4215   -5.5429   23.9101 C   0  0  0  0  0  0  0  0  0  0  0  0
  -24.8927  -11.9668   20.6798 C   0  0  0  0  0  0  0  0  0  0  0  0
  -24.8262  -14.1472   20.4029 C   0  0  0  0  0  0  0  0  0  0  0  0
  -22.6601  -13.1520   21.1552 C   0  0  0  0  0  0  0  0  0  0  0  0
  -24.1634  -27.0768   19.7500 C   0  0  0  0  0  0  0  0  0  0  0  0
  -25.0658  -30.0320   18.7626 C   0  0  0  0  0  0  0  0  0  0  0  0
  -27.6029  -32.1731   17.9716 C   0  0  0  0  0  0  0  0  0  0  0  0
  -29.6452  -16.9515   20.6455 C   0  0  0  0  0  0  0  0  0  0  0  0
  -19.9770  -24.9034   21.7014 C   0  0  0  0  0  0  0  0  0  0  0  0
  -25.8556  -27.7010   21.5115 C   0  0  0  0  0  0  0  0  0  0  0  0
  -26.8556  -28.2538   18.7840 C   0  0  0  0  0  0  0  0  0  0  0  0
  -20.2687  -26.1182   20.8242 C   0  0  0  0  0  0  0  0  0  0  0  0
  -29.4310  -14.2699   18.3132 C   0  0  0  0  0  0  0  0  0  0  0  0
  -21.1998  -25.7375   19.6775 C   0  0  0  0  0  0  0  0  0  0  0  0
  -28.1650  -13.5207   18.7324 C   0  0  0  0  0  0  0  0  0  0  0  0
  -30.1915  -14.8130   19.5210 C   0  0  0  0  0  0  0  0  0  0  0  0
  -28.1214  -14.8947   20.8558 C   0  0  0  0  0  0  0  0  0  0  0  0
  -22.5500  -25.2383   20.2058 C   0  0  1  0  0  0  0  0  0  0  0  0
  -24.9314  -28.1920   20.4015 C   0  0  1  0  0  0  0  0  0  0  0  0
  -27.2912  -14.3766   19.6690 C   0  0  2  0  0  0  0  0  0  0  0  0
  -26.0703  -19.5024   21.6252 C   0  0  0  0  0  0  0  0  0  0  0  0
  -28.0281  -34.5097   17.1611 C   0  0  0  0  0  0  0  0  0  0  0  0
  -24.2692  -29.1949   15.9387 C   0  0  0  0  0  0  0  0  0  0  0  0
  -25.5707  -31.1482   15.0675 C   0  0  0  0  0  0  0  0  0  0  0  0
  -23.6089  -31.5253   16.5614 C   0  0  0  0  0  0  0  0  0  0  0  0
  -29.0934  -32.8784   20.4292 C   0  0  0  0  0  0  0  0  0  0  0  0
  -28.9564  -19.0270   21.8190 C   0  0  0  0  0  0  0  0  0  0  0  0
  -31.5019  -23.6853   17.9631 C   0  0  0  0  0  0  0  0  0  0  0  0
  -30.6404  -24.9122   18.2177 C   0  0  0  0  0  0  0  0  0  1  0  0
  -30.9404  -22.4453   18.6410 C   0  0  0  0  0  0  0  0  0  0  0  0
  -25.7456  -30.5876   17.5345 C   0  0  1  0  0  0  0  0  0  0  0  0
  -27.8711  -33.6110   18.3778 C   0  0  2  0  0  0  0  0  0  0  0  0
  -24.8112  -30.5944   16.2919 C   0  0  0  0  0  0  0  0  0  0  0  0
  -26.1264  -12.2916   20.2841 N   0  0  0  0  0  0  0  0  0  0  0  0
  -26.0544  -13.6239   20.1236 N   0  0  0  0  0  0  0  0  0  0  0  0
  -25.6505  -28.8941   19.3365 N   0  0  0  0  0  0  0  0  0  0  0  0
  -29.3067  -15.6169   20.3675 N   0  0  0  0  0  0  0  0  0  0  0  0
  -24.5801  -15.4700   20.2937 N   0  0  0  0  0  0  0  0  0  0  0  0
  -22.0034  -11.9638   21.5036 N   0  0  0  0  0  0  0  0  0  0  0  0
  -23.3731  -26.3533   20.6226 N   0  0  0  0  0  0  0  0  0  0  0  0
  -26.2521  -31.9036   17.9085 N   0  0  0  0  0  0  0  0  0  0  0  0
  -28.7490  -17.6443   21.4503 N   0  0  0  0  0  0  0  0  0  0  0  0
  -29.1183  -33.6960   19.1890 N   0  3  0  0  0  0  0  0  0  0  0  0
  -22.0238  -14.2329   21.1724 O   0  0  0  0  0  0  0  0  0  0  0  0
  -24.2781  -26.8879   18.5447 O   0  0  0  0  0  0  0  0  0  0  0  0
  -24.0575  -30.5913   19.2009 O   0  0  0  0  0  0  0  0  0  0  0  0
  -28.5018  -31.3704   17.7304 O   0  0  0  0  0  0  0  0  0  0  0  0
  -30.6674  -17.4877   20.2044 O   0  0  0  0  0  0  0  0  0  0  0  0
  -23.6075   -6.6356   21.7723 O   0  0  0  0  0  0  0  0  0  0  0  0
  -30.5518  -25.1593   19.6203 O   0  0  0  0  0  0  0  0  0  1  0  0
  -29.6368  -22.1729   18.1450 O   0  0  0  0  0  0  0  0  0  0  0  0
  -20.7303   -5.5878   26.3579 F   0  0  0  0  0  0  0  0  0  0  0  0
  -24.6361   -5.0000   23.7494 F   0  0  0  0  0  0  0  0  0  0  0  0
  1  2  1  0  0  0  0
  1  5  2  0  0  0  0
  2  6  2  0  0  0  0
  3  9  2  0  0  0  0
  3 18  1  0  0  0  0
  4 10  1  0  0  0  0
  4 18  2  0  0  0  0
  5 20  1  0  0  0  0
  6 22  1  0  0  0  0
  7 11  2  0  0  0  0
  7 21  1  0  0  0  0
  8 12  2  0  0  0  0
  8 24  1  0  0  0  0
  9 26  1  0  0  0  0
 10 26  2  0  0  0  0
 11 27  1  0  0  0  0
 12 28  1  0  0  0  0
 13 14  2  0  0  0  0
 13 29  1  0  0  0  0
 14 30  1  0  0  0  0
 15 23  1  0  0  0  0
 15 27  2  0  0  0  0
 16 25  1  0  0  0  0
 16 28  2  0  0  0  0
 17 30  2  0  0  0  0
 17 31  1  0  0  0  0
 18 32  1  0  0  0  0
 19 32  1  0  0  0  0
 19 33  2  0  0  0  0
 19 34  1  0  0  0  0
 20 22  2  0  0  0  0
 20 39  1  0  0  0  0
 21 23  2  0  0  0  0
 21 40  1  0  0  0  0
 22 48  1  0  0  0  0
 23 41  1  0  0  0  0
 24 25  2  0  0  0  0
 24 51  1  0  0  0  0
 25 57  1  0  0  0  0
 26 79  1  0  0  0  0
 27 80  1  0  0  0  0
 28 81  1  0  0  0  0
 29 31  2  0  0  0  0
 29 79  1  0  0  0  0
 30 82  1  0  0  0  0
 31 83  1  0  0  0  0
 32 64  2  0  0  0  0
 33 65  1  0  0  0  0
 33 68  1  0  0  0  0
 34 69  1  0  0  0  0
 34 74  2  0  0  0  0
 35 49  1  0  0  0  0
 35 70  1  0  0  0  0
 35 75  2  0  0  0  0
 36 61  1  0  0  0  0
 36 66  1  0  0  0  0
 36 76  2  0  0  0  0
 37 62  1  0  0  0  0
 37 71  1  0  0  0  0
 37 77  2  0  0  0  0
 38 67  1  0  0  0  0
 38 72  1  0  0  0  0
 38 78  2  0  0  0  0
 39 42  1  0  0  0  0
 40 49  1  0  0  0  0
 41 66  1  0  0  0  0
 42 44  1  0  0  0  0
 43 45  1  0  0  0  0
 43 46  1  0  0  0  0
 44 48  1  0  0  0  0
 45 50  1  0  0  0  0
 46 67  1  0  0  0  0
 47 50  1  0  0  0  0
 47 67  1  0  0  0  0
 48 70  1  0  0  0  0
 49 66  1  0  0  0  0
 50 65  1  0  0  0  0
 52 62  1  0  0  0  0
 53 63  1  0  0  0  0
 54 63  1  0  0  0  0
 55 63  1  0  0  0  0
 56 73  1  0  0  0  0
 57 72  1  0  0  0  0
 58 59  1  0  0  0  0
 58 60  1  0  0  0  0
 59 80  1  0  0  0  0
 60 81  1  0  0  0  0
 61 63  1  0  0  0  0
 61 71  1  0  0  0  0
 62 73  1  0  0  0  0
 64 65  1  0  0  0  0
M  CHG  1  73   1
M  ISO  4  38 100  59 101  72 100  80 101
M  END
> <Batch ID>
0134

> <Smiles>
CNC(C)C(=O)NC(C(=O)N1Cc2cc([101O:1][101CH2:1]CCOc3ccc(C)c(C[100NH:0][100C:0](=O)N4CCCC(n5nc(-c6ccc(Oc7ccc(F)cc7F)cc6)c(C(N)=O)c5N)C4)c3)ccc2CC1C(=O)NC1CCCc2ccccc21)C(C)(C)C

> <Shape>
0.259

> <Color>
0.139

> <Negative vol penalty>
0.000

$$$$

  -OEChem-04052302333D

 87 95  0     1  0  0  0  0  0999 V2000
  -27.2999  -27.5393   20.7647 C   0  0  0  0  0  0  0  0  0  0  0  0
  -28.5017  -27.0856   21.2988 C   0  0  0  0  0  0  0  0  0  0  0  0
  -23.0770   -9.8660   19.9439 C   0  0  0  0  0  0  0  0  0  0  0  0
  -23.8338   -9.8792   22.2382 C   0  0  0  0  0  0  0  0  0  0  0  0
  -31.8513  -18.3672   24.1929 C   0  0  0  0  0  0  0  0  0  0  0  0
  -26.1554  -27.5781   21.5600 C   0  0  0  0  0  0  0  0  0  0  0  0
  -28.5599  -26.6714   22.6290 C   0  0  0  0  0  0  0  0  0  0  0  0
  -31.1261  -22.3440   23.2058 C   0  0  0  0  0  0  0  0  0  0  0  0
  -22.3328   -8.7135   20.1960 C   0  0  0  0  0  0  0  0  0  0  0  0
  -23.0896   -8.7267   22.4904 C   0  0  0  0  0  0  0  0  0  0  0  0
  -32.5179  -22.4203   23.1762 C   0  0  0  0  0  0  0  0  0  0  0  0
  -19.8607   -7.9304   23.0907 C   0  0  0  0  0  0  0  0  0  0  0  0
  -30.4656  -18.3505   24.0348 C   0  0  0  0  0  0  0  0  0  0  0  0
  -19.1022   -7.8936   24.2607 C   0  0  0  0  0  0  0  0  0  0  0  0
  -32.0606  -16.6132   22.5447 C   0  0  0  0  0  0  0  0  0  0  0  0
  -32.5675  -22.3398   25.5867 C   0  0  0  0  0  0  0  0  0  0  0  0
  -20.3427   -5.9581   25.0041 C   0  0  0  0  0  0  0  0  0  0  0  0
  -23.8275  -10.4488   20.9650 C   0  0  0  0  0  0  0  0  0  0  0  0
  -32.6489  -17.4985   23.4478 C   0  0  0  0  0  0  0  0  0  0  0  0
  -24.1694  -12.9736   20.8386 C   0  0  0  0  0  0  0  0  0  0  0  0
  -26.1974  -27.1551   22.8979 C   0  0  0  0  0  0  0  0  0  0  0  0
  -30.4429  -22.2759   24.4285 C   0  0  0  0  0  0  0  0  0  0  0  0
  -27.4151  -26.7058   23.4434 C   0  0  0  0  0  0  0  0  0  0  0  0
  -31.1672  -22.2601   25.6290 C   0  0  0  0  0  0  0  0  0  0  0  0
  -30.6748  -16.5965   22.3866 C   0  0  0  0  0  0  0  0  0  0  0  0
  -22.3391   -8.1438   21.4692 C   0  0  0  0  0  0  0  0  0  0  0  0
  -33.2387  -22.4211   24.3668 C   0  0  0  0  0  0  0  0  0  0  0  0
  -20.8601   -6.9810   22.8773 C   0  0  0  0  0  0  0  0  0  0  0  0
  -19.3432   -6.9075   25.2174 C   0  0  0  0  0  0  0  0  0  0  0  0
  -29.8773  -17.4652   23.1316 C   0  0  0  0  0  0  0  0  0  0  0  0
  -21.1011   -5.9949   23.8340 C   0  0  0  0  0  0  0  0  0  0  0  0
  -24.5969  -11.6390   20.7051 C   0  0  0  0  0  0  0  0  0  0  0  0
  -25.2620  -13.7222   20.4748 C   0  0  0  0  0  0  0  0  0  0  0  0
  -34.8167  -18.8024   23.3130 C   0  0  0  0  0  0  0  0  0  0  0  0
  -35.9226  -19.1590   23.9801 C   0  0  0  0  0  0  0  0  0  0  0  0
  -34.1284  -17.5169   23.6168 C   0  0  0  0  0  0  0  0  0  0  0  0
  -22.8984  -13.4905   21.2545 C   0  0  0  0  0  0  0  0  0  0  0  0
  -28.3201  -24.1147   25.9173 C   0  0  0  0  0  0  0  0  0  0  0  0
  -28.2527  -21.6547   28.0306 C   0  0  0  0  0  0  0  0  0  0  0  0
  -29.8433  -18.9586   29.3900 C   0  0  0  0  0  0  0  0  0  0  0  0
  -30.7279  -14.7684   20.6540 C   0  0  0  0  0  0  0  0  0  0  0  0
  -24.9452  -27.2598   23.7320 C   0  0  0  0  0  0  0  0  0  0  0  0
  -28.9427  -22.1671   24.4424 C   0  0  0  0  0  0  0  0  0  0  0  0
  -30.4823  -22.1682   26.9672 C   0  0  0  0  0  0  0  0  0  0  0  0
  -25.0051  -26.4504   25.0249 C   0  0  0  0  0  0  0  0  0  0  0  0
  -29.6168  -12.3482   18.2907 C   0  0  0  0  0  0  0  0  0  0  0  0
  -26.3323  -26.6836   25.7396 C   0  0  0  0  0  0  0  0  0  0  0  0
  -28.1766  -12.0577   18.7192 C   0  0  0  0  0  0  0  0  0  0  0  0
  -30.5303  -12.5803   19.4930 C   0  0  0  0  0  0  0  0  0  0  0  0
  -28.6215  -13.3084   20.8697 C   0  0  0  0  0  0  0  0  0  0  0  0
  -27.5126  -26.2247   24.8749 C   0  0  1  0  0  0  0  0  0  0  0  0
  -28.3230  -22.6203   25.7608 C   0  0  1  0  0  0  0  0  0  0  0  0
  -27.6502  -13.1319   19.6911 C   0  0  2  0  0  0  0  0  0  0  0  0
  -29.5526  -17.1677   31.1236 C   0  0  0  0  0  0  0  0  0  0  0  0
  -28.8329  -23.6907   30.2278 C   0  0  0  0  0  0  0  0  0  0  0  0
  -29.4649  -21.7882   31.7275 C   0  0  0  0  0  0  0  0  0  0  0  0
  -27.1407  -21.9527   30.8365 C   0  0  0  0  0  0  0  0  0  0  0  0
  -37.4296  -20.7566   26.1438 C   0  0  0  0  0  0  0  0  0  0  0  0
  -37.5249  -22.6601   24.5283 C   0  0  0  0  0  0  0  0  0  0  0  0
  -30.0311  -16.8073   27.3663 C   0  0  0  0  0  0  0  0  0  0  0  0
  -36.6500  -20.4536   23.7336 C   0  0  0  0  0  0  0  0  0  0  0  0
  -35.3032  -21.8637   25.4075 C   0  0  0  0  0  0  0  0  0  1  0  0
  -29.0216  -21.2968   29.2795 C   0  0  1  0  0  0  0  0  0  0  0  0
  -29.3712  -17.5415   29.6607 C   0  0  2  0  0  0  0  0  0  0  0  0
  -28.6281  -22.1858   30.4928 C   0  0  0  0  0  0  0  0  0  0  0  0
  -36.7117  -21.4186   24.9526 C   0  0  0  0  0  0  0  0  0  0  0  0
  -25.8623  -11.5421   20.2888 N   0  0  0  0  0  0  0  0  0  0  0  0
  -34.7486  -16.4333   23.9607 N   0  0  0  0  0  0  0  0  0  0  0  0
  -26.2393  -12.8253   20.1575 N   0  0  0  0  0  0  0  0  0  0  0  0
  -29.0138  -22.0700   26.9287 N   0  0  0  0  0  0  0  0  0  0  0  0
  -29.9701  -13.6135   20.3668 N   0  0  0  0  0  0  0  0  0  0  0  0
  -25.4725  -15.0534   20.3985 N   0  0  0  0  0  0  0  0  0  0  0  0
  -21.8860  -12.5822   21.5928 N   0  0  0  0  0  0  0  0  0  0  0  0
  -30.0794  -15.6957   21.4690 N   0  0  0  0  0  0  0  0  0  0  0  0
  -27.6403  -24.7838   24.9175 N   0  0  0  0  0  0  0  0  0  0  0  0
  -28.8125  -19.8687   29.4923 N   0  0  0  0  0  0  0  0  0  0  0  0
  -30.1390  -16.5720   28.8291 N   0  3  0  0  0  0  0  0  0  0  0  0
  -22.6620  -14.7213   21.3082 O   0  0  0  0  0  0  0  0  0  0  0  0
  -28.8911  -24.6230   26.8750 O   0  0  0  0  0  0  0  0  0  0  0  0
  -27.0227  -21.5621   28.0303 O   0  0  0  0  0  0  0  0  0  0  0  0
  -31.0106  -19.2315   29.1189 O   0  0  0  0  0  0  0  0  0  0  0  0
  -31.8576  -14.9359   20.1874 O   0  0  0  0  0  0  0  0  0  0  0  0
  -21.6128   -7.0194   21.7156 O   0  0  0  0  0  0  0  0  0  0  0  0
  -34.5972  -22.4962   24.3408 O   0  0  0  0  0  0  0  0  0  1  0  0
  -18.6157   -6.8732   26.3416 F   0  0  0  0  0  0  0  0  0  0  0  0
  -28.5446  -17.4581   22.9877 F   0  0  0  0  0  0  0  0  0  0  0  0
  -22.0608   -5.0809   23.6351 F   0  0  0  0  0  0  0  0  0  0  0  0
  1  2  1  0  0  0  0
  1  6  2  0  0  0  0
  2  7  2  0  0  0  0
  3  9  2  0  0  0  0
  3 18  1  0  0  0  0
  4 10  1  0  0  0  0
  4 18  2  0  0  0  0
  5 13  2  0  0  0  0
  5 19  1  0  0  0  0
  6 21  1  0  0  0  0
  7 23  1  0  0  0  0
  8 11  2  0  0  0  0
  8 22  1  0  0  0  0
  9 26  1  0  0  0  0
 10 26  2  0  0  0  0
 11 27  1  0  0  0  0
 12 14  2  0  0  0  0
 12 28  1  0  0  0  0
 13 30  1  0  0  0  0
 14 29  1  0  0  0  0
 15 19  2  0  0  0  0
 15 25  1  0  0  0  0
 16 24  1  0  0  0  0
 16 27  2  0  0  0  0
 17 29  2  0  0  0  0
 17 31  1  0  0  0  0
 18 32  1  0  0  0  0
 19 36  1  0  0  0  0
 20 32  1  0  0  0  0
 20 33  2  0  0  0  0
 20 37  1  0  0  0  0
 21 23  2  0  0  0  0
 21 42  1  0  0  0  0
 22 24  2  0  0  0  0
 22 43  1  0  0  0  0
 23 51  1  0  0  0  0
 24 44  1  0  0  0  0
 25 30  2  0  0  0  0
 25 74  1  0  0  0  0
 26 83  1  0  0  0  0
 27 84  1  0  0  0  0
 28 31  2  0  0  0  0
 28 83  1  0  0  0  0
 29 85  1  0  0  0  0
 30 86  1  0  0  0  0
 31 87  1  0  0  0  0
 32 67  2  0  0  0  0
 33 69  1  0  0  0  0
 33 72  1  0  0  0  0
 34 35  2  0  0  0  0
 34 36  1  0  0  0  0
 35 61  1  0  0  0  0
 36 68  2  0  0  0  0
 37 73  1  0  0  0  0
 37 78  2  0  0  0  0
 38 52  1  0  0  0  0
 38 75  1  0  0  0  0
 38 79  2  0  0  0  0
 39 63  1  0  0  0  0
 39 70  1  0  0  0  0
 39 80  2  0  0  0  0
 40 64  1  0  0  0  0
 40 76  1  0  0  0  0
 40 81  2  0  0  0  0
 41 71  1  0  0  0  0
 41 74  1  0  0  0  0
 41 82  2  0  0  0  0
 42 45  1  0  0  0  0
 43 52  1  0  0  0  0
 44 70  1  0  0  0  0
 45 47  1  0  0  0  0
 46 48  1  0  0  0  0
 46 49  1  0  0  0  0
 47 51  1  0  0  0  0
 48 53  1  0  0  0  0
 49 71  1  0  0  0  0
 50 53  1  0  0  0  0
 50 71  1  0  0  0  0
 51 75  1  0  0  0  0
 52 70  1  0  0  0  0
 53 69  1  0  0  0  0
 54 64  1  0  0  0  0
 55 65  1  0  0  0  0
 56 65  1  0  0  0  0
 57 65  1  0  0  0  0
 58 66  1  0  0  0  0
 59 66  1  0  0  0  0
 60 77  1  0  0  0  0
 61 66  1  0  0  0  0
 62 66  1  0  0  0  0
 62 84  1  0  0  0  0
 63 65  1  0  0  0  0
 63 76  1  0  0  0  0
 64 77  1  0  0  0  0
 67 69  1  0  0  0  0
M  CHG  1  77   1
M  ISO  4  41 100  62 101  74 100  84 101
M  END
> <Batch ID>
0134

> <Smiles>
CNC(C)C(=O)NC(C(=O)N1Cc2cc([101O:1][101CH2:1]C(C)(C)CC=CC(=N)c3ccc(F)c([100NH:0][100C:0](=O)N4CCCC(n5nc(-c6ccc(Oc7ccc(F)cc7F)cc6)c(C(N)=O)c5N)C4)c3)ccc2CC1C(=O)NC1CCCc2ccccc21)C(C)(C)C

> <Shape>
0.182

> <Color>
0.188

> <Negative vol penalty>
0.000

$$$$

  -OEChem-04052302333D

 85 93  0     1  0  0  0  0  0999 V2000
  -27.7719  -23.9658   16.9737 C   0  0  0  0  0  0  0  0  0  0  0  0
  -26.5531  -24.3921   17.4916 C   0  0  0  0  0  0  0  0  0  0  0  0
  -27.8741  -15.6361   21.3398 C   0  0  0  0  0  0  0  0  0  0  0  0
  -25.7066  -15.9608   20.3230 C   0  0  0  0  0  0  0  0  0  0  0  0
  -28.9533  -24.2331   17.6643 C   0  0  0  0  0  0  0  0  0  0  0  0
  -26.5149  -25.0850   18.7011 C   0  0  0  0  0  0  0  0  0  0  0  0
  -23.4606  -29.1208   18.5321 C   0  0  0  0  0  0  0  0  0  0  0  0
  -18.9029  -23.0793   18.7099 C   0  0  0  0  0  0  0  0  0  0  0  0
  -19.9252  -22.4293   18.0185 C   0  0  0  0  0  0  0  0  0  0  0  0
  -27.6515  -14.2596   21.3748 C   0  0  0  0  0  0  0  0  0  0  0  0
  -25.4841  -14.5842   20.3579 C   0  0  0  0  0  0  0  0  0  0  0  0
  -22.0898  -28.8865   18.6313 C   0  0  0  0  0  0  0  0  0  0  0  0
  -24.5642  -12.2664   22.6410 C   0  0  0  0  0  0  0  0  0  0  0  0
  -23.3181  -11.8224   23.0833 C   0  0  0  0  0  0  0  0  0  0  0  0
  -22.1599  -29.4995   20.9634 C   0  0  0  0  0  0  0  0  0  0  0  0
  -20.3797  -23.3960   20.5957 C   0  0  0  0  0  0  0  0  0  0  0  0
  -22.9462  -10.7446   20.9532 C   0  0  0  0  0  0  0  0  0  0  0  0
  -26.9016  -16.4867   20.8140 C   0  0  0  0  0  0  0  0  0  0  0  0
  -28.1697  -18.5860   20.1121 C   0  0  0  0  0  0  0  0  0  0  0  0
  -28.9304  -24.9381   18.8780 C   0  0  0  0  0  0  0  0  0  0  0  0
  -24.1945  -29.5364   19.6524 C   0  0  0  0  0  0  0  0  0  0  0  0
  -27.6969  -25.3608   19.4092 C   0  0  0  0  0  0  0  0  0  0  0  0
  -23.5394  -29.7409   20.8752 C   0  0  0  0  0  0  0  0  0  0  0  0
  -19.1302  -23.5627   19.9985 C   0  0  0  0  0  0  0  0  0  0  0  0
  -21.1747  -22.2626   18.6157 C   0  0  0  0  0  0  0  0  0  0  0  0
  -21.4019  -22.7459   19.9043 C   0  0  0  0  0  0  0  0  0  0  0  0
  -26.4565  -13.7336   20.8838 C   0  0  0  0  0  0  0  0  0  0  0  0
  -21.4398  -29.0730   19.8478 C   0  0  0  0  0  0  0  0  0  0  0  0
  -25.0013  -11.9496   21.3548 C   0  0  0  0  0  0  0  0  0  0  0  0
  -22.5091  -11.0615   22.2394 C   0  0  0  0  0  0  0  0  0  0  0  0
  -24.1923  -11.1886   20.5110 C   0  0  0  0  0  0  0  0  0  0  0  0
  -27.1307  -17.9088   20.7781 C   0  0  0  0  0  0  0  0  0  0  0  0
  -27.9447  -19.9132   20.3847 C   0  0  0  0  0  0  0  0  0  0  0  0
  -29.2424  -18.0621   19.3179 C   0  0  0  0  0  0  0  0  0  0  0  0
  -26.6080  -28.3244   21.3287 C   0  0  0  0  0  0  0  0  0  0  0  0
  -18.3549  -27.1804   19.7398 C   0  0  0  0  0  0  0  0  0  0  0  0
  -26.4795  -31.1877   22.8477 C   0  0  0  0  0  0  0  0  0  0  0  0
  -24.6384  -33.9272   23.7150 C   0  0  0  0  0  0  0  0  0  0  0  0
  -23.0377  -23.0148   21.8012 C   0  0  0  0  0  0  0  0  0  0  0  0
  -30.2288  -25.1620   19.6120 C   0  0  0  0  0  0  0  0  0  0  0  0
  -25.6677  -29.8107   19.5223 C   0  0  0  0  0  0  0  0  0  0  0  0
  -24.2782  -30.2057   22.1026 C   0  0  0  0  0  0  0  0  0  0  0  0
  -30.1373  -26.2290   20.6999 C   0  0  0  0  0  0  0  0  0  0  0  0
  -26.0343  -22.7816   23.7099 C   0  0  0  0  0  0  0  0  0  0  0  0
  -28.8900  -26.0169   21.5521 C   0  0  0  0  0  0  0  0  0  0  0  0
  -26.7530  -21.5709   23.1100 C   0  0  0  0  0  0  0  0  0  0  0  0
  -24.5203  -22.5811   23.7477 C   0  0  0  0  0  0  0  0  0  0  0  0
  -24.6301  -20.9959   21.8651 C   0  0  0  0  0  0  0  0  0  0  0  0
  -27.6168  -26.1369   20.7059 C   0  0  1  0  0  0  0  0  0  0  0  0
  -26.4092  -29.7359   20.8535 C   0  0  1  0  0  0  0  0  0  0  0  0
  -26.1521  -21.1776   21.7462 C   0  0  2  0  0  0  0  0  0  0  0  0
  -22.2508  -21.5615   17.8518 C   0  0  0  0  0  0  0  0  0  0  0  0
  -16.6209  -26.7185   18.0315 C   0  0  0  0  0  0  0  0  0  0  0  0
  -24.1478  -36.1971   24.6659 C   0  0  0  0  0  0  0  0  0  0  0  0
  -26.2782  -29.6449   25.4725 C   0  0  0  0  0  0  0  0  0  0  0  0
  -25.4938  -31.7535   26.5710 C   0  0  0  0  0  0  0  0  0  0  0  0
  -27.7690  -31.6512   25.5534 C   0  0  0  0  0  0  0  0  0  0  0  0
  -25.3327  -35.2708   21.1710 C   0  0  0  0  0  0  0  0  0  0  0  0
  -18.0246  -24.2655   20.7451 C   0  0  0  0  0  0  0  0  0  0  0  0
  -19.5465  -27.8525   19.0850 C   0  0  0  0  0  0  0  0  0  1  0  0
  -17.0326  -25.0116   19.8399 C   0  0  0  0  0  0  0  0  0  0  0  0
  -17.6738  -26.0772   18.9331 C   0  0  2  0  0  0  0  0  0  0  0  0
  -25.7399  -31.7293   24.0472 C   0  0  1  0  0  0  0  0  0  0  0  0
  -24.9428  -35.4122   23.6341 C   0  0  2  0  0  0  0  0  0  0  0  0
  -26.3064  -31.1841   25.3885 C   0  0  0  0  0  0  0  0  0  0  0  0
  -26.3069  -18.7374   21.4253 N   0  0  0  0  0  0  0  0  0  0  0  0
  -26.8283  -19.9489   21.1672 N   0  0  0  0  0  0  0  0  0  0  0  0
  -25.7185  -30.4543   21.9263 N   0  0  0  0  0  0  0  0  0  0  0  0
  -24.0214  -22.2149   22.4203 N   0  0  0  0  0  0  0  0  0  0  0  0
  -28.5950  -21.0415   20.0290 N   0  0  0  0  0  0  0  0  0  0  0  0
  -29.0389  -17.9058   17.9400 N   0  0  0  0  0  0  0  0  0  0  0  0
  -22.6645  -22.5869   20.5275 N   0  0  0  0  0  0  0  0  0  0  0  0
  -27.3118  -27.5275   20.4460 N   0  0  0  0  0  0  0  0  0  0  0  0
  -25.7792  -33.1829   23.9288 N   0  0  0  0  0  0  0  0  0  0  0  0
  -24.6044  -35.9374   22.2811 N   0  3  0  0  0  0  0  0  0  0  0  0
  -30.3428  -17.7267   19.8179 O   0  0  0  0  0  0  0  0  0  0  0  0
  -26.1576  -27.9840   22.4163 O   0  0  0  0  0  0  0  0  0  0  0  0
  -17.9433  -27.5279   20.8466 O   0  0  0  0  0  0  0  0  0  0  0  0
  -27.6864  -31.4132   22.7289 O   0  0  0  0  0  0  0  0  0  0  0  0
  -23.5017  -33.4732   23.6036 O   0  0  0  0  0  0  0  0  0  0  0  0
  -22.5812  -24.0218   22.3485 O   0  0  0  0  0  0  0  0  0  0  0  0
  -26.2391  -12.3904   20.9175 O   0  0  0  0  0  0  0  0  0  0  0  0
  -20.1020  -28.8444   19.9475 O   0  0  0  0  0  0  0  0  0  1  0  0
  -21.3131  -10.6339   22.6648 F   0  0  0  0  0  0  0  0  0  0  0  0
  -24.6073  -10.8801   19.2747 F   0  0  0  0  0  0  0  0  0  0  0  0
  1  2  1  0  0  0  0
  1  5  2  0  0  0  0
  2  6  2  0  0  0  0
  3 10  2  0  0  0  0
  3 18  1  0  0  0  0
  4 11  1  0  0  0  0
  4 18  2  0  0  0  0
  5 20  1  0  0  0  0
  6 22  1  0  0  0  0
  7 12  2  0  0  0  0
  7 21  1  0  0  0  0
  8  9  2  0  0  0  0
  8 24  1  0  0  0  0
  9 25  1  0  0  0  0
 10 27  1  0  0  0  0
 11 27  2  0  0  0  0
 12 28  1  0  0  0  0
 13 14  2  0  0  0  0
 13 29  1  0  0  0  0
 14 30  1  0  0  0  0
 15 23  1  0  0  0  0
 15 28  2  0  0  0  0
 16 24  2  0  0  0  0
 16 26  1  0  0  0  0
 17 30  2  0  0  0  0
 17 31  1  0  0  0  0
 18 32  1  0  0  0  0
 19 32  1  0  0  0  0
 19 33  2  0  0  0  0
 19 34  1  0  0  0  0
 20 22  2  0  0  0  0
 20 40  1  0  0  0  0
 21 23  2  0  0  0  0
 21 41  1  0  0  0  0
 22 49  1  0  0  0  0
 23 42  1  0  0  0  0
 24 59  1  0  0  0  0
 25 26  2  0  0  0  0
 25 52  1  0  0  0  0
 26 72  1  0  0  0  0
 27 82  1  0  0  0  0
 28 83  1  0  0  0  0
 29 31  2  0  0  0  0
 29 82  1  0  0  0  0
 30 84  1  0  0  0  0
 31 85  1  0  0  0  0
 32 66  2  0  0  0  0
 33 67  1  0  0  0  0
 33 70  1  0  0  0  0
 34 71  1  0  0  0  0
 34 76  2  0  0  0  0
 35 50  1  0  0  0  0
 35 73  1  0  0  0  0
 35 77  2  0  0  0  0
 36 60  1  0  0  0  0
 36 62  1  0  0  0  0
 36 78  2  0  0  0  0
 37 63  1  0  0  0  0
 37 68  1  0  0  0  0
 37 79  2  0  0  0  0
 38 64  1  0  0  0  0
 38 74  1  0  0  0  0
 38 80  2  0  0  0  0
 39 69  1  0  0  0  0
 39 72  1  0  0  0  0
 39 81  2  0  0  0  0
 40 43  1  0  0  0  0
 41 50  1  0  0  0  0
 42 68  1  0  0  0  0
 43 45  1  0  0  0  0
 44 46  1  0  0  0  0
 44 47  1  0  0  0  0
 45 49  1  0  0  0  0
 46 51  1  0  0  0  0
 47 69  1  0  0  0  0
 48 51  1  0  0  0  0
 48 69  1  0  0  0  0
 49 73  1  0  0  0  0
 50 68  1  0  0  0  0
 51 67  1  0  0  0  0
 53 62  1  0  0  0  0
 54 64  1  0  0  0  0
 55 65  1  0  0  0  0
 56 65  1  0  0  0  0
 57 65  1  0  0  0  0
 58 75  1  0  0  0  0
 59 61  1  0  0  0  0
 60 83  1  0  0  0  0
 61 62  1  0  0  0  0
 63 65  1  0  0  0  0
 63 74  1  0  0  0  0
 64 75  1  0  0  0  0
 66 67  1  0  0  0  0
M  CHG  1  75   1
M  ISO  4  39 100  60 101  72 100  83 101
M  END
> <Batch ID>
0134

> <Smiles>
CNC(C)C(=O)NC(C(=O)N1Cc2cc([101O:1][101CH2:1]C(=O)C(C)CCc3ccc(C)c([100NH:0][100C:0](=O)N4CCCC(n5nc(-c6ccc(Oc7ccc(F)cc7F)cc6)c(C(N)=O)c5N)C4)c3)ccc2CC1C(=O)NC1CCCc2ccccc21)C(C)(C)C

> <Shape>
0.272

> <Color>
0.081

> <Negative vol penalty>
0.000

$$$$

  -OEChem-04052302333D

 88 96  0     1  0  0  0  0  0999 V2000
  -18.1751  -32.6541   20.4913 C   0  0  0  0  0  0  0  0  0  0  0  0
  -19.5121  -32.5303   20.1275 C   0  0  0  0  0  0  0  0  0  0  0  0
  -26.4282  -12.8027   21.7103 C   0  0  0  0  0  0  0  0  0  0  0  0
  -25.5865  -14.1305   19.8758 C   0  0  0  0  0  0  0  0  0  0  0  0
  -17.7218  -32.0849   21.6806 C   0  0  0  0  0  0  0  0  0  0  0  0
  -20.3970  -31.8380   20.9535 C   0  0  0  0  0  0  0  0  0  0  0  0
  -25.1483  -28.3974   19.1947 C   0  0  0  0  0  0  0  0  0  0  0  0
  -25.2281  -12.0929   21.7472 C   0  0  0  0  0  0  0  0  0  0  0  0
  -24.3863  -13.4207   19.9127 C   0  0  0  0  0  0  0  0  0  0  0  0
  -26.5150  -28.6589   19.1094 C   0  0  0  0  0  0  0  0  0  0  0  0
  -22.5216   -9.6899   22.0877 C   0  0  0  0  0  0  0  0  0  0  0  0
  -22.5925   -8.3016   22.2017 C   0  0  0  0  0  0  0  0  0  0  0  0
  -26.8346  -27.6659   21.2845 C   0  0  0  0  0  0  0  0  0  0  0  0
  -29.8783  -22.8725   20.1602 C   0  0  0  0  0  0  0  0  0  0  0  0
  -29.4474  -23.8087   17.9751 C   0  0  0  0  0  0  0  0  0  0  0  0
  -23.8333   -8.1949   20.1314 C   0  0  0  0  0  0  0  0  0  0  0  0
  -26.6074  -13.8216   20.7746 C   0  0  0  0  0  0  0  0  0  0  0  0
  -28.9956  -14.2452   19.9842 C   0  0  0  0  0  0  0  0  0  0  0  0
  -18.5995  -31.3770   22.5168 C   0  0  0  0  0  0  0  0  0  0  0  0
  -24.6119  -27.7770   20.3321 C   0  0  0  0  0  0  0  0  0  0  0  0
  -19.9553  -31.2599   22.1557 C   0  0  0  0  0  0  0  0  0  0  0  0
  -25.4611  -27.3953   21.3806 C   0  0  0  0  0  0  0  0  0  0  0  0
  -28.1564  -21.9223   18.7572 C   0  0  0  0  0  0  0  0  0  0  0  0
  -28.8740  -21.9270   19.9533 C   0  0  0  0  0  0  0  0  0  0  0  0
  -24.2071  -12.4019   20.8485 C   0  0  0  0  0  0  0  0  0  0  0  0
  -27.3580  -28.2957   20.1556 C   0  0  0  0  0  0  0  0  0  0  0  0
  -23.1065  -10.3308   20.9955 C   0  0  0  0  0  0  0  0  0  0  0  0
  -30.1650  -23.8134   19.1712 C   0  0  0  0  0  0  0  0  0  0  0  0
  -28.4431  -22.8631   17.7680 C   0  0  0  0  0  0  0  0  0  0  0  0
  -23.2484   -7.5541   21.2236 C   0  0  0  0  0  0  0  0  0  0  0  0
  -23.7624   -9.5833   20.0174 C   0  0  0  0  0  0  0  0  0  0  0  0
  -27.8468  -14.5555   20.7362 C   0  0  0  0  0  0  0  0  0  0  0  0
  -29.8886  -15.2415   20.2945 C   0  0  0  0  0  0  0  0  0  0  0  0
  -29.2342  -13.1539   19.0854 C   0  0  0  0  0  0  0  0  0  0  0  0
  -22.5001  -28.6111   22.5566 C   0  0  0  0  0  0  0  0  0  0  0  0
  -22.8962  -25.5418   23.5287 C   0  0  0  0  0  0  0  0  0  0  0  0
  -24.8730  -22.7611   23.6114 C   0  0  0  0  0  0  0  0  0  0  0  0
  -29.2294  -20.8634   22.2091 C   0  0  0  0  0  0  0  0  0  0  0  0
  -18.0734  -30.8195   23.8157 C   0  0  0  0  0  0  0  0  0  0  0  0
  -23.1393  -27.4778   20.3972 C   0  0  0  0  0  0  0  0  0  0  0  0
  -24.9380  -26.7085   22.6148 C   0  0  0  0  0  0  0  0  0  0  0  0
  -18.9950  -29.7812   24.4505 C   0  0  0  0  0  0  0  0  0  0  0  0
  -31.0500  -18.2639   23.8231 C   0  0  0  0  0  0  0  0  0  0  0  0
  -20.4385  -30.2742   24.4450 C   0  0  0  0  0  0  0  0  0  0  0  0
  -30.5442  -16.9901   23.1420 C   0  0  0  0  0  0  0  0  0  0  0  0
  -29.9351  -19.2930   24.0010 C   0  0  0  0  0  0  0  0  0  0  0  0
  -28.6896  -18.3512   22.0954 C   0  0  0  0  0  0  0  0  0  0  0  0
  -20.9405  -30.4953   23.0130 C   0  0  1  0  0  0  0  0  0  0  0  0
  -22.6270  -27.3055   21.8239 C   0  0  1  0  0  0  0  0  0  0  0  0
  -29.7911  -17.3105   21.8359 C   0  0  2  0  0  0  0  0  0  0  0  0
  -27.6388  -19.5395   18.1731 C   0  0  0  0  0  0  0  0  0  0  0  0
  -27.6369  -21.9969   14.3687 C   0  0  0  0  0  0  0  0  0  0  0  0
  -25.5287  -20.3832   24.0729 C   0  0  0  0  0  0  0  0  0  0  0  0
  -31.5861  -28.9729   20.0375 C   0  0  0  0  0  0  0  0  0  0  0  0
  -23.5176  -26.6342   26.3090 C   0  0  0  0  0  0  0  0  0  0  0  0
  -24.4862  -24.4009   26.8939 C   0  0  0  0  0  0  0  0  0  0  0  0
  -22.0737  -24.5924   26.2892 C   0  0  0  0  0  0  0  0  0  0  0  0
  -23.7775  -21.8347   21.0229 C   0  0  0  0  0  0  0  0  0  0  0  0
  -27.0770  -20.9125   18.5251 C   0  0  0  0  0  0  0  0  0  0  0  0
  -31.9002  -26.5812   20.7133 C   0  0  0  0  0  0  0  0  0  0  0  0
  -28.5064  -22.6883   15.3971 C   0  0  0  0  0  0  0  0  0  0  0  0
  -31.3830  -25.1477   20.7178 C   0  0  0  0  0  0  0  0  0  0  0  0
  -29.5671  -27.6539   20.7590 C   0  0  0  0  0  0  0  0  0  1  0  0
  -23.8270  -24.8345   24.4839 C   0  0  1  0  0  0  0  0  0  0  0  0
  -24.5692  -21.3005   23.3308 C   0  0  2  0  0  0  0  0  0  0  0  0
  -30.9326  -27.5864   20.0625 C   0  0  1  0  0  0  0  0  0  0  0  0
  -23.4860  -25.1302   25.9717 C   0  0  0  0  0  0  0  0  0  0  0  0
  -27.9938  -15.6624   21.4693 N   0  0  0  0  0  0  0  0  0  0  0  0
  -29.2455  -16.0562   21.1794 N   0  0  0  0  0  0  0  0  0  0  0  0
  -23.4899  -26.4433   22.6340 N   0  0  0  0  0  0  0  0  0  0  0  0
  -29.2695  -19.5495   22.7219 N   0  0  0  0  0  0  0  0  0  0  0  0
  -31.1534  -15.4915   19.8941 N   0  0  0  0  0  0  0  0  0  0  0  0
  -28.2091  -12.2203   18.8810 N   0  0  0  0  0  0  0  0  0  0  0  0
  -28.5990  -20.9800   20.9707 N   0  0  0  0  0  0  0  0  0  0  0  0
  -21.2758  -29.2308   22.3941 N   0  0  0  0  0  0  0  0  0  0  0  0
  -23.7782  -23.4202   24.1293 N   0  0  0  0  0  0  0  0  0  0  0  0
  -24.6832  -21.0187   21.8719 N   0  3  0  0  0  0  0  0  0  0  0  0
  -30.3300  -13.0018   18.4940 O   0  0  0  0  0  0  0  0  0  0  0  0
  -23.4426  -29.0248   23.2215 O   0  0  0  0  0  0  0  0  0  0  0  0
  -21.6877  -25.2978   23.5700 O   0  0  0  0  0  0  0  0  0  0  0  0
  -25.9728  -23.2659   23.3963 O   0  0  0  0  0  0  0  0  0  0  0  0
  -29.7423  -21.8106   22.8104 O   0  0  0  0  0  0  0  0  0  0  0  0
  -23.0359  -11.7093   20.8841 O   0  0  0  0  0  0  0  0  0  0  0  0
  -28.6924  -28.5504   20.0752 O   0  0  0  0  0  0  0  0  0  1  0  0
  -31.1514  -24.7425   19.3743 O   0  0  0  0  0  0  0  0  0  0  0  0
  -27.7526  -22.8743   16.5932 O   0  0  0  0  0  0  0  0  0  0  0  0
  -23.3178   -6.2210   21.3341 F   0  0  0  0  0  0  0  0  0  0  0  0
  -24.3272  -10.1935   18.9664 F   0  0  0  0  0  0  0  0  0  0  0  0
  1  2  1  0  0  0  0
  1  5  2  0  0  0  0
  2  6  2  0  0  0  0
  3  8  2  0  0  0  0
  3 17  1  0  0  0  0
  4  9  1  0  0  0  0
  4 17  2  0  0  0  0
  5 19  1  0  0  0  0
  6 21  1  0  0  0  0
  7 10  2  0  0  0  0
  7 20  1  0  0  0  0
  8 25  1  0  0  0  0
  9 25  2  0  0  0  0
 10 26  1  0  0  0  0
 11 12  2  0  0  0  0
 11 27  1  0  0  0  0
 12 30  1  0  0  0  0
 13 22  1  0  0  0  0
 13 26  2  0  0  0  0
 14 24  2  0  0  0  0
 14 28  1  0  0  0  0
 15 28  2  0  0  0  0
 15 29  1  0  0  0  0
 16 30  2  0  0  0  0
 16 31  1  0  0  0  0
 17 32  1  0  0  0  0
 18 32  1  0  0  0  0
 18 33  2  0  0  0  0
 18 34  1  0  0  0  0
 19 21  2  0  0  0  0
 19 39  1  0  0  0  0
 20 22  2  0  0  0  0
 20 40  1  0  0  0  0
 21 48  1  0  0  0  0
 22 41  1  0  0  0  0
 23 24  1  0  0  0  0
 23 29  2  0  0  0  0
 23 59  1  0  0  0  0
 24 74  1  0  0  0  0
 25 83  1  0  0  0  0
 26 84  1  0  0  0  0
 27 31  2  0  0  0  0
 27 83  1  0  0  0  0
 28 85  1  0  0  0  0
 29 86  1  0  0  0  0
 30 87  1  0  0  0  0
 31 88  1  0  0  0  0
 32 68  2  0  0  0  0
 33 69  1  0  0  0  0
 33 72  1  0  0  0  0
 34 73  1  0  0  0  0
 34 78  2  0  0  0  0
 35 49  1  0  0  0  0
 35 75  1  0  0  0  0
 35 79  2  0  0  0  0
 36 64  1  0  0  0  0
 36 70  1  0  0  0  0
 36 80  2  0  0  0  0
 37 65  1  0  0  0  0
 37 76  1  0  0  0  0
 37 81  2  0  0  0  0
 38 71  1  0  0  0  0
 38 74  1  0  0  0  0
 38 82  2  0  0  0  0
 39 42  1  0  0  0  0
 40 49  1  0  0  0  0
 41 70  1  0  0  0  0
 42 44  1  0  0  0  0
 43 45  1  0  0  0  0
 43 46  1  0  0  0  0
 44 48  1  0  0  0  0
 45 50  1  0  0  0  0
 46 71  1  0  0  0  0
 47 50  1  0  0  0  0
 47 71  1  0  0  0  0
 48 75  1  0  0  0  0
 49 70  1  0  0  0  0
 50 69  1  0  0  0  0
 51 59  1  0  0  0  0
 52 61  1  0  0  0  0
 53 65  1  0  0  0  0
 54 66  1  0  0  0  0
 55 67  1  0  0  0  0
 56 67  1  0  0  0  0
 57 67  1  0  0  0  0
 58 77  1  0  0  0  0
 60 62  1  0  0  0  0
 60 66  1  0  0  0  0
 61 86  1  0  0  0  0
 62 85  1  0  0  0  0
 63 66  1  0  0  0  0
 63 84  1  0  0  0  0
 64 67  1  0  0  0  0
 64 76  1  0  0  0  0
 65 77  1  0  0  0  0
 68 69  1  0  0  0  0
M  CHG  1  77   1
M  ISO  4  38 100  63 101  74 100  84 101
M  END
> <Batch ID>
0134

> <Smiles>
CCOc1cc(OCCC(C)[101CH2:1][101O:1]c2ccc3c(c2)CN(C(=O)C(NC(=O)C(C)NC)C(C)(C)C)C(C(=O)NC2CCCc4ccccc42)C3)cc([100NH:0][100C:0](=O)N2CCCC(n3nc(-c4ccc(Oc5ccc(F)cc5F)cc4)c(C(N)=O)c3N)C2)c1CC

> <Shape>
0.267

> <Color>
0.106

> <Negative vol penalty>
0.000

$$$$

  -OEChem-04052302333D

 84 92  0     1  0  0  0  0  0999 V2000
  -17.6840  -33.1700   22.4453 C   0  0  0  0  0  0  0  0  0  0  0  0
  -19.0582  -32.9810   22.3394 C   0  0  0  0  0  0  0  0  0  0  0  0
  -27.8479  -12.7976   22.5481 C   0  0  0  0  0  0  0  0  0  0  0  0
  -26.8640  -12.8163   20.3416 C   0  0  0  0  0  0  0  0  0  0  0  0
  -16.8597  -32.1019   22.7972 C   0  0  0  0  0  0  0  0  0  0  0  0
  -19.6091  -31.7241   22.5864 C   0  0  0  0  0  0  0  0  0  0  0  0
  -24.4469  -29.2118   19.7953 C   0  0  0  0  0  0  0  0  0  0  0  0
  -32.3700  -22.6472   18.4672 C   0  0  0  0  0  0  0  0  0  0  0  0
  -27.2702  -11.5523   22.7951 C   0  0  0  0  0  0  0  0  0  0  0  0
  -26.2863  -11.5710   20.5886 C   0  0  0  0  0  0  0  0  0  0  0  0
  -25.7895  -29.1091   20.1567 C   0  0  0  0  0  0  0  0  0  0  0  0
  -32.3068  -23.9126   19.0506 C   0  0  0  0  0  0  0  0  0  0  0  0
  -24.2565   -8.5615   20.7699 C   0  0  0  0  0  0  0  0  0  0  0  0
  -22.9221   -8.3821   20.4057 C   0  0  0  0  0  0  0  0  0  0  0  0
  -25.3781  -26.9002   21.0344 C   0  0  0  0  0  0  0  0  0  0  0  0
  -29.9306  -23.9920   18.6210 C   0  0  0  0  0  0  0  0  0  0  0  0
  -22.2753  -10.1724   21.8936 C   0  0  0  0  0  0  0  0  0  0  0  0
  -27.6447  -13.4297   21.3213 C   0  0  0  0  0  0  0  0  0  0  0  0
  -29.5061  -14.9705   20.5034 C   0  0  0  0  0  0  0  0  0  0  0  0
  -17.3998  -30.8290   23.0392 C   0  0  0  0  0  0  0  0  0  0  0  0
  -23.5560  -28.1620   20.0610 C   0  0  0  0  0  0  0  0  0  0  0  0
  -18.7915  -30.6383   22.9431 C   0  0  0  0  0  0  0  0  0  0  0  0
  -24.0252  -26.9910   20.6730 C   0  0  0  0  0  0  0  0  0  0  0  0
  -31.2135  -22.0542   17.9605 C   0  0  0  0  0  0  0  0  0  0  0  0
  -29.9939  -22.7266   18.0374 C   0  0  0  0  0  0  0  0  0  0  0  0
  -26.4894  -10.9390   21.8154 C   0  0  0  0  0  0  0  0  0  0  0  0
  -26.2547  -27.9544   20.7789 C   0  0  0  0  0  0  0  0  0  0  0  0
  -31.0871  -24.5849   19.1276 C   0  0  0  0  0  0  0  0  0  0  0  0
  -24.6004   -9.5463   21.6960 C   0  0  0  0  0  0  0  0  0  0  0  0
  -21.9315   -9.1875   20.9675 C   0  0  0  0  0  0  0  0  0  0  0  0
  -23.6098  -10.3517   22.2579 C   0  0  0  0  0  0  0  0  0  0  0  0
  -28.2408  -14.7164   21.0657 C   0  0  0  0  0  0  0  0  0  0  0  0
  -29.5992  -16.3405   20.4726 C   0  0  0  0  0  0  0  0  0  0  0  0
  -30.5077  -14.0505   20.0495 C   0  0  0  0  0  0  0  0  0  0  0  0
  -20.9288  -27.8408   21.8213 C   0  0  0  0  0  0  0  0  0  0  0  0
  -20.8235  -24.9130   20.4288 C   0  0  0  0  0  0  0  0  0  0  0  0
  -22.5079  -22.3723   18.8944 C   0  0  0  0  0  0  0  0  0  0  0  0
  -27.3699  -21.3476   19.4216 C   0  0  0  0  0  0  0  0  0  0  0  0
  -16.4740  -29.7163   23.4629 C   0  0  0  0  0  0  0  0  0  0  0  0
  -22.1164  -28.2776   19.6407 C   0  0  0  0  0  0  0  0  0  0  0  0
  -23.1137  -25.8273   20.9620 C   0  0  0  0  0  0  0  0  0  0  0  0
  -17.0959  -28.3274   23.3423 C   0  0  0  0  0  0  0  0  0  0  0  0
  -26.6835  -19.8872   22.5954 C   0  0  0  0  0  0  0  0  0  0  0  0
  -18.5018  -28.3188   23.9339 C   0  0  0  0  0  0  0  0  0  0  0  0
  -27.1258  -18.4320   22.4318 C   0  0  0  0  0  0  0  0  0  0  0  0
  -26.0581  -20.4344   21.3141 C   0  0  0  0  0  0  0  0  0  0  0  0
  -27.3344  -18.8329   19.9429 C   0  0  0  0  0  0  0  0  0  0  0  0
  -19.4239  -29.2839   23.1791 C   0  0  1  0  0  0  0  0  0  0  0  0
  -21.1892  -27.3534   20.4240 C   0  0  1  0  0  0  0  0  0  0  0  0
  -28.0221  -18.2544   21.1914 C   0  0  2  0  0  0  0  0  0  0  0  0
  -31.3062  -20.6989   17.3404 C   0  0  0  0  0  0  0  0  0  0  0  0
  -22.1589  -20.0932   17.9037 C   0  0  0  0  0  0  0  0  0  0  0  0
  -30.4047  -27.7591   21.8039 C   0  0  0  0  0  0  0  0  0  0  0  0
  -20.6464  -23.7237   23.2331 C   0  0  0  0  0  0  0  0  0  0  0  0
  -21.2541  -21.5013   22.2534 C   0  0  0  0  0  0  0  0  0  0  0  0
  -19.1518  -22.6418   21.5448 C   0  0  0  0  0  0  0  0  0  0  0  0
  -23.4126  -23.2679   16.2226 C   0  0  0  0  0  0  0  0  0  0  0  0
  -28.7430  -22.1121   17.5008 C   0  0  0  0  0  0  0  0  0  0  0  0
  -28.5113  -28.5577   20.3323 C   0  0  0  0  0  0  0  0  0  1  0  0
  -29.7478  -26.4514   19.7429 C   0  0  0  0  0  0  0  0  0  0  0  0
  -21.3784  -23.5495   20.7633 C   0  0  1  0  0  0  0  0  0  0  0  0
  -22.2127  -21.5880   17.6286 C   0  0  2  0  0  0  0  0  0  0  0  0
  -29.8652  -27.8432   20.3709 C   0  0  2  0  0  0  0  0  0  0  0  0
  -20.6247  -22.8766   21.9451 C   0  0  0  0  0  0  0  0  0  0  0  0
  -27.5777  -15.8351   21.3703 N   0  0  0  0  0  0  0  0  0  0  0  0
  -28.4297  -16.8055   20.9981 N   0  0  0  0  0  0  0  0  0  0  0  0
  -21.7135  -25.9909   20.5378 N   0  0  0  0  0  0  0  0  0  0  0  0
  -26.9591  -20.2363   20.1762 N   0  0  0  0  0  0  0  0  0  0  0  0
  -30.5666  -17.1807   20.0476 N   0  0  0  0  0  0  0  0  0  0  0  0
  -30.2496  -12.6769   20.1538 N   0  0  0  0  0  0  0  0  0  0  0  0
  -19.8509  -28.6990   21.9260 N   0  0  0  0  0  0  0  0  0  0  0  0
  -21.3510  -22.7821   19.5228 N   0  0  0  0  0  0  0  0  0  0  0  0
  -28.2288  -21.0726   18.3645 N   0  0  0  0  0  0  0  0  0  0  0  0
  -23.2666  -21.8399   16.6055 N   0  3  0  0  0  0  0  0  0  0  0  0
  -31.6059  -14.4350   19.5810 O   0  0  0  0  0  0  0  0  0  0  0  0
  -21.6515  -27.4649   22.7368 O   0  0  0  0  0  0  0  0  0  0  0  0
  -19.6459  -25.0169   20.0766 O   0  0  0  0  0  0  0  0  0  0  0  0
  -23.6505  -22.5956   19.2884 O   0  0  0  0  0  0  0  0  0  0  0  0
  -27.0030  -22.5001   19.6747 O   0  0  0  0  0  0  0  0  0  0  0  0
  -25.9258   -9.7237   22.0560 O   0  0  0  0  0  0  0  0  0  0  0  0
  -27.5646  -27.8518   21.1333 O   0  0  0  0  0  0  0  0  0  1  0  0
  -31.0249  -25.8284   19.7005 O   0  0  0  0  0  0  0  0  0  0  0  0
  -20.6502   -9.0162   20.6165 F   0  0  0  0  0  0  0  0  0  0  0  0
  -23.9342  -11.3002   23.1472 F   0  0  0  0  0  0  0  0  0  0  0  0
  1  2  1  0  0  0  0
  1  5  2  0  0  0  0
  2  6  2  0  0  0  0
  3  9  2  0  0  0  0
  3 18  1  0  0  0  0
  4 10  1  0  0  0  0
  4 18  2  0  0  0  0
  5 20  1  0  0  0  0
  6 22  1  0  0  0  0
  7 11  2  0  0  0  0
  7 21  1  0  0  0  0
  8 12  2  0  0  0  0
  8 24  1  0  0  0  0
  9 26  1  0  0  0  0
 10 26  2  0  0  0  0
 11 27  1  0  0  0  0
 12 28  1  0  0  0  0
 13 14  2  0  0  0  0
 13 29  1  0  0  0  0
 14 30  1  0  0  0  0
 15 23  1  0  0  0  0
 15 27  2  0  0  0  0
 16 25  1  0  0  0  0
 16 28  2  0  0  0  0
 17 30  2  0  0  0  0
 17 31  1  0  0  0  0
 18 32  1  0  0  0  0
 19 32  1  0  0  0  0
 19 33  2  0  0  0  0
 19 34  1  0  0  0  0
 20 22  2  0  0  0  0
 20 39  1  0  0  0  0
 21 23  2  0  0  0  0
 21 40  1  0  0  0  0
 22 48  1  0  0  0  0
 23 41  1  0  0  0  0
 24 25  2  0  0  0  0
 24 51  1  0  0  0  0
 25 58  1  0  0  0  0
 26 80  1  0  0  0  0
 27 81  1  0  0  0  0
 28 82  1  0  0  0  0
 29 31  2  0  0  0  0
 29 80  1  0  0  0  0
 30 83  1  0  0  0  0
 31 84  1  0  0  0  0
 32 65  2  0  0  0  0
 33 66  1  0  0  0  0
 33 69  1  0  0  0  0
 34 70  1  0  0  0  0
 34 75  2  0  0  0  0
 35 49  1  0  0  0  0
 35 71  1  0  0  0  0
 35 76  2  0  0  0  0
 36 61  1  0  0  0  0
 36 67  1  0  0  0  0
 36 77  2  0  0  0  0
 37 62  1  0  0  0  0
 37 72  1  0  0  0  0
 37 78  2  0  0  0  0
 38 68  1  0  0  0  0
 38 73  1  0  0  0  0
 38 79  2  0  0  0  0
 39 42  1  0  0  0  0
 40 49  1  0  0  0  0
 41 67  1  0  0  0  0
 42 44  1  0  0  0  0
 43 45  1  0  0  0  0
 43 46  1  0  0  0  0
 44 48  1  0  0  0  0
 45 50  1  0  0  0  0
 46 68  1  0  0  0  0
 47 50  1  0  0  0  0
 47 68  1  0  0  0  0
 48 71  1  0  0  0  0
 49 67  1  0  0  0  0
 50 66  1  0  0  0  0
 52 62  1  0  0  0  0
 53 63  1  0  0  0  0
 54 64  1  0  0  0  0
 55 64  1  0  0  0  0
 56 64  1  0  0  0  0
 57 74  1  0  0  0  0
 58 73  1  0  0  0  0
 59 63  1  0  0  0  0
 59 81  1  0  0  0  0
 60 63  1  0  0  0  0
 60 82  1  0  0  0  0
 61 64  1  0  0  0  0
 61 72  1  0  0  0  0
 62 74  1  0  0  0  0
 65 66  1  0  0  0  0
M  CHG  1  74   1
M  ISO  4  38 100  59 101  73 100  81 101
M  END
> <Batch ID>
0134

> <Smiles>
CNC(C)C(=O)NC(C(=O)N1Cc2cc([101O:1][101CH2:1]C(C)COc3ccc(C)c(C[100NH:0][100C:0](=O)N4CCCC(n5nc(-c6ccc(Oc7ccc(F)cc7F)cc6)c(C(N)=O)c5N)C4)c3)ccc2CC1C(=O)NC1CCCc2ccccc21)C(C)(C)C

> <Shape>
0.255

> <Color>
0.086

> <Negative vol penalty>
0.000

$$$$

  -OEChem-04052302333D

 86 94  0     1  0  0  0  0  0999 V2000
  -30.3727  -26.1509   16.2696 C   0  0  0  0  0  0  0  0  0  0  0  0
  -29.9344  -25.2673   17.2507 C   0  0  0  0  0  0  0  0  0  0  0  0
  -20.7902  -14.8651   26.7287 C   0  0  0  0  0  0  0  0  0  0  0  0
  -28.5149  -16.6368   19.3770 C   0  0  0  0  0  0  0  0  0  0  0  0
  -27.0114  -17.6799   20.9545 C   0  0  0  0  0  0  0  0  0  0  0  0
  -30.1689  -27.5213   16.4259 C   0  0  0  0  0  0  0  0  0  0  0  0
  -29.2931  -25.7537   18.3894 C   0  0  0  0  0  0  0  0  0  0  0  0
  -24.7558  -23.0564   21.4948 C   0  0  0  0  0  0  0  0  0  0  0  0
  -21.0146  -16.2335   26.8789 C   0  0  0  0  0  0  0  0  0  0  0  0
  -20.2795  -14.3696   25.5289 C   0  0  0  0  0  0  0  0  0  0  0  0
  -29.2336  -17.8278   19.2744 C   0  0  0  0  0  0  0  0  0  0  0  0
  -27.7302  -18.8709   20.8519 C   0  0  0  0  0  0  0  0  0  0  0  0
  -24.7429  -22.2871   22.6574 C   0  0  0  0  0  0  0  0  0  0  0  0
  -30.6112  -20.1523   22.0678 C   0  0  0  0  0  0  0  0  0  0  0  0
  -30.9163  -20.8272   23.2497 C   0  0  0  0  0  0  0  0  0  0  0  0
  -24.2106  -24.2553   23.9466 C   0  0  0  0  0  0  0  0  0  0  0  0
  -20.2175  -16.6111   24.6296 C   0  0  0  0  0  0  0  0  0  0  0  0
  -29.6893  -22.7551   22.4656 C   0  0  0  0  0  0  0  0  0  0  0  0
  -27.4038  -16.5628   20.2170 C   0  0  0  0  0  0  0  0  0  0  0  0
  -27.1436  -14.0821   20.7516 C   0  0  0  0  0  0  0  0  0  0  0  0
  -29.5162  -28.0240   17.5625 C   0  0  0  0  0  0  0  0  0  0  0  0
  -24.5066  -24.4352   21.5508 C   0  0  0  0  0  0  0  0  0  0  0  0
  -29.0816  -27.1322   18.5617 C   0  0  0  0  0  0  0  0  0  0  0  0
  -24.2184  -25.0394   22.7829 C   0  0  0  0  0  0  0  0  0  0  0  0
  -20.7283  -17.1065   25.8293 C   0  0  0  0  0  0  0  0  0  0  0  0
  -19.9931  -15.2426   24.4794 C   0  0  0  0  0  0  0  0  0  0  0  0
  -28.8413  -18.9448   20.0118 C   0  0  0  0  0  0  0  0  0  0  0  0
  -24.4731  -22.8870   23.8839 C   0  0  0  0  0  0  0  0  0  0  0  0
  -29.8452  -20.7788   21.0847 C   0  0  0  0  0  0  0  0  0  0  0  0
  -30.4553  -22.1286   23.4486 C   0  0  0  0  0  0  0  0  0  0  0  0
  -29.3843  -22.0802   21.2836 C   0  0  0  0  0  0  0  0  0  0  0  0
  -26.6606  -15.3330   20.3230 C   0  0  0  0  0  0  0  0  0  0  0  0
  -26.0552  -13.2482   20.6723 C   0  0  0  0  0  0  0  0  0  0  0  0
  -28.4586  -13.7074   21.1830 C   0  0  0  0  0  0  0  0  0  0  0  0
  -26.1732  -27.0467   20.8391 C   0  0  0  0  0  0  0  0  0  0  0  0
  -23.3720  -28.5423   21.5015 C   0  0  0  0  0  0  0  0  0  0  0  0
  -20.3691  -28.4840   23.1219 C   0  0  0  0  0  0  0  0  0  0  0  0
  -20.1504  -14.2211   20.8683 C   0  0  0  0  0  0  0  0  0  0  0  0
  -29.3609  -29.5169   17.7096 C   0  0  0  0  0  0  0  0  0  0  0  0
  -24.4979  -25.2463   20.2841 C   0  0  0  0  0  0  0  0  0  0  0  0
  -23.9243  -26.5124   22.8942 C   0  0  0  0  0  0  0  0  0  0  0  0
  -28.3393  -29.9216   18.7692 C   0  0  0  0  0  0  0  0  0  0  0  0
  -21.9737  -12.6386   18.2514 C   0  0  0  0  0  0  0  0  0  0  0  0
  -28.5521  -29.1202   20.0495 C   0  0  0  0  0  0  0  0  0  0  0  0
  -23.4252  -13.0369   18.5243 C   0  0  0  0  0  0  0  0  0  0  0  0
  -21.0052  -13.7706   18.5874 C   0  0  0  0  0  0  0  0  0  0  0  0
  -22.5881  -14.7115   20.2253 C   0  0  0  0  0  0  0  0  0  0  0  0
  -28.3599  -27.6195   19.7994 C   0  0  1  0  0  0  0  0  0  0  0  0
  -24.7375  -26.7335   20.5252 C   0  0  1  0  0  0  0  0  0  0  0  0
  -23.5975  -13.5827   19.9545 C   0  0  2  0  0  0  0  0  0  0  0  0
  -21.1621  -21.3621   23.9302 C   0  0  0  0  0  0  0  0  0  0  0  0
  -18.3095  -29.8660   23.5036 C   0  0  0  0  0  0  0  0  0  0  0  0
  -25.3157  -19.9455   25.2328 C   0  0  0  0  0  0  0  0  0  0  0  0
  -24.9184  -30.3027   23.4558 C   0  0  0  0  0  0  0  0  0  0  0  0
  -22.7313  -30.9768   24.4709 C   0  0  0  0  0  0  0  0  0  0  0  0
  -23.2147  -31.5146   22.0835 C   0  0  0  0  0  0  0  0  0  0  0  0
  -23.1076  -20.7108   27.2554 C   0  0  0  0  0  0  0  0  0  0  0  0
  -18.6258  -26.4379   21.8837 C   0  0  0  0  0  0  0  0  0  0  0  0
  -20.9730  -18.5876   25.9922 C   0  0  0  0  0  0  0  0  0  0  0  0
  -19.4464  -14.7127   23.1968 C   0  0  0  0  0  0  0  0  0  0  0  0
  -21.6350  -21.4340   25.3775 C   0  0  0  0  0  0  0  0  0  0  0  0
  -22.3949  -18.9697   25.5537 C   0  0  0  0  0  0  0  0  0  0  0  0
  -22.7365  -29.1211   22.7425 C   0  0  1  0  0  0  0  0  0  0  0  0
  -18.9612  -28.7929   22.6455 C   0  0  2  0  0  0  0  0  0  0  0  0
  -24.0750  -20.7706   24.8929 C   0  0  1  0  0  0  0  0  0  1  0  0
  -23.4076  -30.4514   23.1866 C   0  0  0  0  0  0  0  0  0  0  0  0
  -22.7995  -20.4640   25.7579 C   0  0  2  0  0  0  0  0  0  0  0  0
  -25.3661  -15.3012   19.9955 N   0  0  0  0  0  0  0  0  0  0  0  0
  -25.0265  -14.0201   20.2183 N   0  0  0  0  0  0  0  0  0  0  0  0
  -23.9338  -27.2640   21.6283 N   0  0  0  0  0  0  0  0  0  0  0  0
  -21.2197  -14.2418   19.9577 N   0  0  0  0  0  0  0  0  0  0  0  0
  -25.8872  -11.9372   20.9472 N   0  0  0  0  0  0  0  0  0  0  0  0
  -28.7708  -13.8146   22.5451 N   0  0  0  0  0  0  0  0  0  0  0  0
  -26.9513  -27.2959   19.7247 N   0  0  0  0  0  0  0  0  0  0  0  0
  -21.3111  -29.2380   22.4545 N   0  0  0  0  0  0  0  0  0  0  0  0
  -20.4409  -14.6789   22.1477 N   0  0  0  0  0  0  0  0  0  0  0  0
  -18.1148  -27.5676   22.7020 N   0  3  0  0  0  0  0  0  0  0  0  0
  -29.3362  -13.3055   20.3818 O   0  0  0  0  0  0  0  0  0  0  0  0
  -26.5470  -27.0625   22.0060 O   0  0  0  0  0  0  0  0  0  0  0  0
  -23.3637  -29.1972   20.4562 O   0  0  0  0  0  0  0  0  0  0  0  0
  -20.6089  -27.6593   24.0010 O   0  0  0  0  0  0  0  0  0  0  0  0
  -19.0220  -13.8189   20.5653 O   0  0  0  0  0  0  0  0  0  0  0  0
  -29.5425  -20.1071   19.9121 O   0  0  0  0  0  0  0  0  0  0  0  0
  -24.4604  -22.1386   25.0204 O   0  0  0  0  0  0  0  0  0  1  0  0
  -30.7471  -22.7760   24.5844 F   0  0  0  0  0  0  0  0  0  0  0  0
  -28.6470  -22.6868   20.3432 F   0  0  0  0  0  0  0  0  0  0  0  0
  1  2  1  0  0  0  0
  1  6  2  0  0  0  0
  2  7  2  0  0  0  0
  3  9  2  0  0  0  0
  3 10  1  0  0  0  0
  4 11  2  0  0  0  0
  4 19  1  0  0  0  0
  5 12  1  0  0  0  0
  5 19  2  0  0  0  0
  6 21  1  0  0  0  0
  7 23  1  0  0  0  0
  8 13  2  0  0  0  0
  8 22  1  0  0  0  0
  9 25  1  0  0  0  0
 10 26  2  0  0  0  0
 11 27  1  0  0  0  0
 12 27  2  0  0  0  0
 13 28  1  0  0  0  0
 14 15  2  0  0  0  0
 14 29  1  0  0  0  0
 15 30  1  0  0  0  0
 16 24  1  0  0  0  0
 16 28  2  0  0  0  0
 17 25  2  0  0  0  0
 17 26  1  0  0  0  0
 18 30  2  0  0  0  0
 18 31  1  0  0  0  0
 19 32  1  0  0  0  0
 20 32  1  0  0  0  0
 20 33  2  0  0  0  0
 20 34  1  0  0  0  0
 21 23  2  0  0  0  0
 21 39  1  0  0  0  0
 22 24  2  0  0  0  0
 22 40  1  0  0  0  0
 23 48  1  0  0  0  0
 24 41  1  0  0  0  0
 25 59  1  0  0  0  0
 26 60  1  0  0  0  0
 27 83  1  0  0  0  0
 28 84  1  0  0  0  0
 29 31  2  0  0  0  0
 29 83  1  0  0  0  0
 30 85  1  0  0  0  0
 31 86  1  0  0  0  0
 32 68  2  0  0  0  0
 33 69  1  0  0  0  0
 33 72  1  0  0  0  0
 34 73  1  0  0  0  0
 34 78  2  0  0  0  0
 35 49  1  0  0  0  0
 35 74  1  0  0  0  0
 35 79  2  0  0  0  0
 36 63  1  0  0  0  0
 36 70  1  0  0  0  0
 36 80  2  0  0  0  0
 37 64  1  0  0  0  0
 37 75  1  0  0  0  0
 37 81  2  0  0  0  0
 38 71  1  0  0  0  0
 38 76  1  0  0  0  0
 38 82  2  0  0  0  0
 39 42  1  0  0  0  0
 40 49  1  0  0  0  0
 41 70  1  0  0  0  0
 42 44  1  0  0  0  0
 43 45  1  0  0  0  0
 43 46  1  0  0  0  0
 44 48  1  0  0  0  0
 45 50  1  0  0  0  0
 46 71  1  0  0  0  0
 47 50  1  0  0  0  0
 47 71  1  0  0  0  0
 48 74  1  0  0  0  0
 49 70  1  0  0  0  0
 50 69  1  0  0  0  0
 51 61  1  0  0  0  0
 52 64  1  0  0  0  0
 53 65  1  0  0  0  0
 54 66  1  0  0  0  0
 55 66  1  0  0  0  0
 56 66  1  0  0  0  0
 57 67  1  0  0  0  0
 58 77  1  0  0  0  0
 59 62  1  0  0  0  0
 60 76  1  0  0  0  0
 61 67  1  0  0  0  0
 62 67  1  0  0  0  0
 63 66  1  0  0  0  0
 63 75  1  0  0  0  0
 64 77  1  0  0  0  0
 65 67  1  0  0  0  0
 65 84  1  0  0  0  0
 68 69  1  0  0  0  0
M  CHG  1  77   1
M  ISO  4  38 100  65 101  76 100  84 101
M  END
> <Batch ID>
0134

> <Smiles>
CCC(C)(CCc1cccc(C[100NH:0][100C:0](=O)N2CCCC(n3nc(-c4ccc(Oc5ccc(F)cc5F)cc4)c(C(N)=O)c3N)C2)c1)[101CH:1](C)[101O:1]c1ccc2c(c1)CN(C(=O)C(NC(=O)C(C)NC)C(C)(C)C)C(C(=O)NC1CCCc3ccccc31)C2

> <Shape>
0.215

> <Color>
0.066

> <Negative vol penalty>
0.000

$$$$

  -OEChem-04052302333D

 84 92  0     1  0  0  0  0  0999 V2000
  -18.9316  -27.7503   24.2226 C   0  0  0  0  0  0  0  0  0  0  0  0
  -20.2497  -27.3245   24.0931 C   0  0  0  0  0  0  0  0  0  0  0  0
  -23.0894   -9.8474   19.9625 C   0  0  0  0  0  0  0  0  0  0  0  0
  -23.8082   -9.9207   22.2680 C   0  0  0  0  0  0  0  0  0  0  0  0
  -17.8887  -26.8332   24.0993 C   0  0  0  0  0  0  0  0  0  0  0  0
  -20.5256  -25.9810   23.8413 C   0  0  0  0  0  0  0  0  0  0  0  0
  -25.0943  -23.7367   20.4361 C   0  0  0  0  0  0  0  0  0  0  0  0
  -22.3421   -8.7009   20.2320 C   0  0  0  0  0  0  0  0  0  0  0  0
  -23.0608   -8.7742   22.5374 C   0  0  0  0  0  0  0  0  0  0  0  0
  -26.3450  -23.2181   20.7689 C   0  0  0  0  0  0  0  0  0  0  0  0
  -19.8231   -7.9897   23.1049 C   0  0  0  0  0  0  0  0  0  0  0  0
  -19.0454   -7.9822   24.2627 C   0  0  0  0  0  0  0  0  0  0  0  0
  -25.4334  -20.9860   20.6912 C   0  0  0  0  0  0  0  0  0  0  0  0
  -31.7813  -18.4690   24.1345 C   0  0  0  0  0  0  0  0  0  0  0  0
  -32.0233  -16.6722   22.5376 C   0  0  0  0  0  0  0  0  0  0  0  0
  -29.8282  -17.5341   23.0629 C   0  0  0  0  0  0  0  0  0  0  0  0
  -20.2749   -6.0682   25.0762 C   0  0  0  0  0  0  0  0  0  0  0  0
  -23.8225  -10.4573   20.9805 C   0  0  0  0  0  0  0  0  0  0  0  0
  -24.1644  -12.9784   20.7946 C   0  0  0  0  0  0  0  0  0  0  0  0
  -18.1516  -25.4796   23.8362 C   0  0  0  0  0  0  0  0  0  0  0  0
  -23.9995  -22.8831   20.2387 C   0  0  0  0  0  0  0  0  0  0  0  0
  -19.4853  -25.0448   23.7156 C   0  0  0  0  0  0  0  0  0  0  0  0
  -24.1706  -21.4961   20.3535 C   0  0  0  0  0  0  0  0  0  0  0  0
  -32.5936  -17.5828   23.4272 C   0  0  0  0  0  0  0  0  0  0  0  0
  -30.3986  -18.4446   23.9524 C   0  0  0  0  0  0  0  0  0  0  0  0
  -30.6405  -16.6479   22.3555 C   0  0  0  0  0  0  0  0  0  0  0  0
  -22.3277   -8.1643   21.5194 C   0  0  0  0  0  0  0  0  0  0  0  0
  -26.5140  -21.8428   20.8993 C   0  0  0  0  0  0  0  0  0  0  0  0
  -20.8267   -7.0364   22.9326 C   0  0  0  0  0  0  0  0  0  0  0  0
  -19.2713   -7.0215   25.2484 C   0  0  0  0  0  0  0  0  0  0  0  0
  -21.0526   -6.0757   23.9182 C   0  0  0  0  0  0  0  0  0  0  0  0
  -24.5951  -11.6413   20.7026 C   0  0  0  0  0  0  0  0  0  0  0  0
  -25.2623  -13.7186   20.4296 C   0  0  0  0  0  0  0  0  0  0  0  0
  -22.8863  -13.5043   21.1759 C   0  0  0  0  0  0  0  0  0  0  0  0
  -21.1772  -22.4923   21.6479 C   0  0  0  0  0  0  0  0  0  0  0  0
  -20.6863  -20.4082   19.2111 C   0  0  0  0  0  0  0  0  0  0  0  0
  -22.0304  -18.3407   16.8519 C   0  0  0  0  0  0  0  0  0  0  0  0
  -30.7237  -14.7758   20.6718 C   0  0  0  0  0  0  0  0  0  0  0  0
  -16.9932  -24.5169   23.7580 C   0  0  0  0  0  0  0  0  0  0  0  0
  -22.6632  -23.4565   19.8540 C   0  0  0  0  0  0  0  0  0  0  0  0
  -23.0318  -20.5356   20.1320 C   0  0  0  0  0  0  0  0  0  0  0  0
  -17.3553  -23.1789   23.1187 C   0  0  0  0  0  0  0  0  0  0  0  0
  -29.6536  -12.2940   18.3539 C   0  0  0  0  0  0  0  0  0  0  0  0
  -18.6593  -22.6441   23.7020 C   0  0  0  0  0  0  0  0  0  0  0  0
  -28.2068  -12.0130   18.7659 C   0  0  0  0  0  0  0  0  0  0  0  0
  -30.5470  -12.5582   19.5646 C   0  0  0  0  0  0  0  0  0  0  0  0
  -28.6151  -13.3193   20.8904 C   0  0  0  0  0  0  0  0  0  0  0  0
  -19.8240  -23.6002   23.4177 C   0  0  1  0  0  0  0  0  0  0  0  0
  -21.4980  -22.5274   20.1804 C   0  0  1  0  0  0  0  0  0  0  0  0
  -27.6636  -13.1112   19.7009 C   0  0  2  0  0  0  0  0  0  0  0  0
  -34.0720  -17.6088   23.6221 C   0  0  0  0  0  0  0  0  0  0  0  0
  -21.3772  -16.7406   15.0325 C   0  0  0  0  0  0  0  0  0  0  0  0
  -28.5151  -18.5961   25.5953 C   0  0  0  0  0  0  0  0  0  0  0  0
  -30.2775  -20.3344   25.7148 C   0  0  0  0  0  0  0  0  0  0  0  0
  -19.9762  -18.3128   21.3123 C   0  0  0  0  0  0  0  0  0  0  0  0
  -20.2662  -16.5533   19.5549 C   0  0  0  0  0  0  0  0  0  0  0  0
  -18.5063  -18.3011   19.2891 C   0  0  0  0  0  0  0  0  0  0  0  0
  -23.3810  -19.9650   14.7790 C   0  0  0  0  0  0  0  0  0  0  0  0
  -29.4864  -21.2484   22.8636 C   0  0  0  0  0  0  0  0  0  0  0  0
  -28.6655  -20.3207   23.7674 C   0  0  0  0  0  0  0  0  0  0  0  0
  -28.5838  -22.1498   22.0296 C   0  0  0  0  0  0  0  0  0  1  0  0
  -20.9364  -18.9348   18.9978 C   0  0  1  0  0  0  0  0  0  0  0  0
  -21.7388  -18.1784   15.3710 C   0  0  2  0  0  0  0  0  0  0  0  0
  -29.5022  -19.4229   24.7331 C   0  0  0  0  0  0  0  0  0  0  0  0
  -19.9425  -18.0435   19.7947 C   0  0  0  0  0  0  0  0  0  0  0  0
  -25.8673  -11.5352   20.3099 N   0  0  0  0  0  0  0  0  0  0  0  0
  -26.2455  -12.8151   20.1517 N   0  0  0  0  0  0  0  0  0  0  0  0
  -21.7433  -21.1452   19.7638 N   0  0  0  0  0  0  0  0  0  0  0  0
  -29.9716  -13.6129   20.4021 N   0  0  0  0  0  0  0  0  0  0  0  0
  -25.4730  -15.0477   20.3224 N   0  0  0  0  0  0  0  0  0  0  0  0
  -21.8692  -12.6038   21.5209 N   0  0  0  0  0  0  0  0  0  0  0  0
  -30.0611  -15.7230   21.4518 N   0  0  0  0  0  0  0  0  0  0  0  0
  -20.2729  -23.4570   22.0493 N   0  0  0  0  0  0  0  0  0  0  0  0
  -20.9067  -18.7204   17.5550 N   0  0  0  0  0  0  0  0  0  0  0  0
  -22.9296  -18.5662   14.5631 N   0  3  0  0  0  0  0  0  0  0  0  0
  -22.6481  -14.7358   21.1939 O   0  0  0  0  0  0  0  0  0  0  0  0
  -21.7095  -21.6513   22.3627 O   0  0  0  0  0  0  0  0  0  0  0  0
  -19.5959  -20.8888   18.8924 O   0  0  0  0  0  0  0  0  0  0  0  0
  -23.1427  -18.1463   17.3370 O   0  0  0  0  0  0  0  0  0  0  0  0
  -31.8608  -14.9326   20.2198 O   0  0  0  0  0  0  0  0  0  0  0  0
  -21.5984   -7.0457   21.7828 O   0  0  0  0  0  0  0  0  0  0  0  0
  -27.7335  -21.3341   21.2247 O   0  0  0  0  0  0  0  0  0  1  0  0
  -18.5254   -7.0154   26.3610 F   0  0  0  0  0  0  0  0  0  0  0  0
  -22.0161   -5.1580   23.7589 F   0  0  0  0  0  0  0  0  0  0  0  0
  1  2  1  0  0  0  0
  1  5  2  0  0  0  0
  2  6  2  0  0  0  0
  3  8  2  0  0  0  0
  3 18  1  0  0  0  0
  4  9  1  0  0  0  0
  4 18  2  0  0  0  0
  5 20  1  0  0  0  0
  6 22  1  0  0  0  0
  7 10  2  0  0  0  0
  7 21  1  0  0  0  0
  8 27  1  0  0  0  0
  9 27  2  0  0  0  0
 10 28  1  0  0  0  0
 11 12  2  0  0  0  0
 11 29  1  0  0  0  0
 12 30  1  0  0  0  0
 13 23  1  0  0  0  0
 13 28  2  0  0  0  0
 14 24  2  0  0  0  0
 14 25  1  0  0  0  0
 15 24  1  0  0  0  0
 15 26  2  0  0  0  0
 16 25  2  0  0  0  0
 16 26  1  0  0  0  0
 17 30  2  0  0  0  0
 17 31  1  0  0  0  0
 18 32  1  0  0  0  0
 19 32  1  0  0  0  0
 19 33  2  0  0  0  0
 19 34  1  0  0  0  0
 20 22  2  0  0  0  0
 20 39  1  0  0  0  0
 21 23  2  0  0  0  0
 21 40  1  0  0  0  0
 22 48  1  0  0  0  0
 23 41  1  0  0  0  0
 24 51  1  0  0  0  0
 25 64  1  0  0  0  0
 26 72  1  0  0  0  0
 27 81  1  0  0  0  0
 28 82  1  0  0  0  0
 29 31  2  0  0  0  0
 29 81  1  0  0  0  0
 30 83  1  0  0  0  0
 31 84  1  0  0  0  0
 32 66  2  0  0  0  0
 33 67  1  0  0  0  0
 33 70  1  0  0  0  0
 34 71  1  0  0  0  0
 34 76  2  0  0  0  0
 35 49  1  0  0  0  0
 35 73  1  0  0  0  0
 35 77  2  0  0  0  0
 36 62  1  0  0  0  0
 36 68  1  0  0  0  0
 36 78  2  0  0  0  0
 37 63  1  0  0  0  0
 37 74  1  0  0  0  0
 37 79  2  0  0  0  0
 38 69  1  0  0  0  0
 38 72  1  0  0  0  0
 38 80  2  0  0  0  0
 39 42  1  0  0  0  0
 40 49  1  0  0  0  0
 41 68  1  0  0  0  0
 42 44  1  0  0  0  0
 43 45  1  0  0  0  0
 43 46  1  0  0  0  0
 44 48  1  0  0  0  0
 45 50  1  0  0  0  0
 46 69  1  0  0  0  0
 47 50  1  0  0  0  0
 47 69  1  0  0  0  0
 48 73  1  0  0  0  0
 49 68  1  0  0  0  0
 50 67  1  0  0  0  0
 52 63  1  0  0  0  0
 53 64  1  0  0  0  0
 54 64  1  0  0  0  0
 55 65  1  0  0  0  0
 56 65  1  0  0  0  0
 57 65  1  0  0  0  0
 58 75  1  0  0  0  0
 59 60  1  0  0  0  0
 59 61  1  0  0  0  0
 60 64  1  0  0  0  0
 61 82  1  0  0  0  0
 62 65  1  0  0  0  0
 62 74  1  0  0  0  0
 63 75  1  0  0  0  0
 66 67  1  0  0  0  0
M  CHG  1  75   1
M  ISO  4  38 100  61 101  72 100  82 101
M  END
> <Batch ID>
0134

> <Smiles>
CNC(C)C(=O)NC(C(=O)N1Cc2cc([101O:1][101CH2:1]CCC(C)(C)c3cc(C)cc([100NH:0][100C:0](=O)N4CCCC(n5nc(-c6ccc(Oc7ccc(F)cc7F)cc6)c(C(N)=O)c5N)C4)c3)ccc2CC1C(=O)NC1CCCc2ccccc21)C(C)(C)C

> <Shape>
0.198

> <Color>
0.196

> <Negative vol penalty>
0.000

$$$$

  -OEChem-04052302333D

 85 93  0     1  0  0  0  0  0999 V2000
  -22.2954  -10.9546   20.9674 C   0  0  0  0  0  0  0  0  0  0  0  0
  -21.9731  -12.1090   21.6738 C   0  0  0  0  0  0  0  0  0  0  0  0
  -29.8746  -27.6979   19.6667 C   0  0  0  0  0  0  0  0  0  0  0  0
  -28.5387  -25.7247   20.0655 C   0  0  0  0  0  0  0  0  0  0  0  0
  -23.5571  -10.8221   20.3890 C   0  0  0  0  0  0  0  0  0  0  0  0
  -22.9128  -13.1311   21.8030 C   0  0  0  0  0  0  0  0  0  0  0  0
  -21.8048  -19.1522   21.9599 C   0  0  0  0  0  0  0  0  0  0  0  0
  -18.5147  -26.2982   19.5772 C   0  0  0  0  0  0  0  0  0  0  0  0
  -18.8757  -27.3563   20.4112 C   0  0  0  0  0  0  0  0  0  0  0  0
  -31.0366  -26.9480   19.8486 C   0  0  0  0  0  0  0  0  0  0  0  0
  -29.7007  -24.9748   20.2473 C   0  0  0  0  0  0  0  0  0  0  0  0
  -21.6937  -20.0583   23.0136 C   0  0  0  0  0  0  0  0  0  0  0  0
  -31.9836  -24.4704   22.6896 C   0  0  0  0  0  0  0  0  0  0  0  0
  -32.0258  -23.5929   23.7731 C   0  0  0  0  0  0  0  0  0  0  0  0
  -24.0068  -20.6759   22.7186 C   0  0  0  0  0  0  0  0  0  0  0  0
  -19.5339  -24.7382   21.1149 C   0  0  0  0  0  0  0  0  0  0  0  0
  -32.3500  -21.7385   22.2588 C   0  0  0  0  0  0  0  0  0  0  0  0
  -28.6256  -27.0863   19.7753 C   0  0  0  0  0  0  0  0  0  0  0  0
  -26.7362  -28.0825   18.3806 C   0  0  0  0  0  0  0  0  0  0  0  0
  -24.5093  -11.8472   20.5030 C   0  0  0  0  0  0  0  0  0  0  0  0
  -23.0228  -18.9930   21.2836 C   0  0  0  0  0  0  0  0  0  0  0  0
  -24.1888  -13.0116   21.2267 C   0  0  0  0  0  0  0  0  0  0  0  0
  -24.1301  -19.7690   21.6549 C   0  0  0  0  0  0  0  0  0  0  0  0
  -18.8437  -24.9891   19.9290 C   0  0  0  0  0  0  0  0  0  0  0  0
  -19.5659  -27.1054   21.5971 C   0  0  0  0  0  0  0  0  0  0  0  0
  -30.9496  -25.5865   20.1388 C   0  0  0  0  0  0  0  0  0  0  0  0
  -22.7955  -20.8183   23.3950 C   0  0  0  0  0  0  0  0  0  0  0  0
  -32.1246  -23.9819   21.3907 C   0  0  0  0  0  0  0  0  0  0  0  0
  -19.8950  -25.7963   21.9490 C   0  0  0  0  0  0  0  0  0  0  0  0
  -32.2090  -22.2270   23.5577 C   0  0  0  0  0  0  0  0  0  0  0  0
  -32.3078  -22.6160   21.1753 C   0  0  0  0  0  0  0  0  0  0  0  0
  -27.4250  -27.8605   19.5881 C   0  0  0  0  0  0  0  0  0  0  0  0
  -25.6707  -28.8741   18.7336 C   0  0  0  0  0  0  0  0  0  0  0  0
  -27.0329  -27.6149   17.0581 C   0  0  0  0  0  0  0  0  0  0  0  0
  -25.0532  -16.5849   20.8562 C   0  0  0  0  0  0  0  0  0  0  0  0
  -26.5247  -18.6898   18.8747 C   0  0  0  0  0  0  0  0  0  0  0  0
  -27.0903  -21.9413   18.0058 C   0  0  0  0  0  0  0  0  0  0  0  0
  -21.9146  -29.6387   23.0719 C   0  0  0  0  0  0  0  0  0  0  0  0
  -25.8763  -11.6385   19.9008 C   0  0  0  0  0  0  0  0  0  0  0  0
  -23.1190  -18.0306   20.1316 C   0  0  0  0  0  0  0  0  0  0  0  0
  -25.4546  -19.6503   20.9478 C   0  0  0  0  0  0  0  0  0  0  0  0
  -26.6852  -12.9259   19.7654 C   0  0  0  0  0  0  0  0  0  0  0  0
  -24.6547  -31.8509   22.5478 C   0  0  0  0  0  0  0  0  0  0  0  0
  -26.6153  -13.7384   21.0545 C   0  0  0  0  0  0  0  0  0  0  0  0
  -25.5843  -31.0681   21.6189 C   0  0  0  0  0  0  0  0  0  0  0  0
  -23.9673  -30.9368   23.5597 C   0  0  0  0  0  0  0  0  0  0  0  0
  -24.1811  -29.0065   22.0424 C   0  0  0  0  0  0  0  0  0  0  0  0
  -25.1725  -14.1529   21.3678 C   0  0  1  0  0  0  0  0  0  0  0  0
  -24.5483  -17.5785   19.8484 C   0  0  1  0  0  0  0  0  0  0  0  0
  -24.8544  -29.8777   20.9682 C   0  0  2  0  0  0  0  0  0  0  0  0
  -18.4568  -23.8580   19.0372 C   0  0  0  0  0  0  0  0  0  0  0  0
  -28.3681  -23.3489   16.3678 C   0  0  0  0  0  0  0  0  0  0  0  0
  -22.6607  -25.9541   25.1094 C   0  0  0  0  0  0  0  0  0  0  0  0
  -29.0930  -18.1756   20.4399 C   0  0  0  0  0  0  0  0  0  0  0  0
  -30.0511  -20.2484   19.4134 C   0  0  0  0  0  0  0  0  0  0  0  0
  -29.3944  -18.3288   17.9620 C   0  0  0  0  0  0  0  0  0  0  0  0
  -24.6076  -23.1051   16.8921 C   0  0  0  0  0  0  0  0  0  0  0  0
  -19.9455  -28.2503   22.4768 C   0  0  0  0  0  0  0  0  0  0  0  0
  -21.6141  -23.6822   25.2469 C   0  0  0  0  0  0  0  0  0  0  0  0
  -21.4116  -22.2997   24.6384 C   0  0  0  0  0  0  0  0  0  1  0  0
  -21.8303  -24.8842   22.9875 C   0  0  0  0  0  0  0  0  0  0  0  0
  -27.5949  -19.7422   19.0372 C   0  0  1  0  0  0  0  0  0  0  0  0
  -27.0519  -22.6461   16.6619 C   0  0  2  0  0  0  0  0  0  0  0  0
  -22.4508  -24.6292   24.3675 C   0  0  1  0  0  0  0  0  0  0  0  0
  -29.0091  -19.1248   19.2279 C   0  0  0  0  0  0  0  0  0  0  0  0
  -26.8458  -28.4626   20.6303 N   0  0  0  0  0  0  0  0  0  0  0  0
  -25.7820  -29.0708   20.0786 N   0  0  0  0  0  0  0  0  0  0  0  0
  -25.5002  -18.6911   19.8319 N   0  0  0  0  0  0  0  0  0  0  0  0
  -23.2926  -29.8295   22.8779 N   0  0  0  0  0  0  0  0  0  0  0  0
  -24.6590  -29.4143   18.0215 N   0  0  0  0  0  0  0  0  0  0  0  0
  -28.1659  -26.8111   16.8722 N   0  0  0  0  0  0  0  0  0  0  0  0
  -24.7757  -15.2694   20.5370 N   0  0  0  0  0  0  0  0  0  0  0  0
  -27.4789  -20.6242   17.8810 N   0  0  0  0  0  0  0  0  0  0  0  0
  -21.3525  -28.5704   22.3838 N   0  0  0  0  0  0  0  0  0  0  0  0
  -25.9617  -23.6619   16.6406 N   0  3  0  0  0  0  0  0  0  0  0  0
  -26.3238  -27.9148   16.0678 O   0  0  0  0  0  0  0  0  0  0  0  0
  -25.6515  -16.9822   21.8490 O   0  0  0  0  0  0  0  0  0  0  0  0
  -26.5915  -17.9005   17.9292 O   0  0  0  0  0  0  0  0  0  0  0  0
  -26.8077  -22.5039   19.0614 O   0  0  0  0  0  0  0  0  0  0  0  0
  -21.2344  -30.3698   23.7998 O   0  0  0  0  0  0  0  0  0  0  0  0
  -32.0833  -24.8543   20.3161 O   0  0  0  0  0  0  0  0  0  0  0  0
  -22.6900  -21.7030   24.4236 O   0  0  0  0  0  0  0  0  0  1  0  0
  -20.5720  -25.5320   23.1114 O   0  0  0  0  0  0  0  0  0  0  0  0
  -32.2510  -21.3848   24.5984 F   0  0  0  0  0  0  0  0  0  0  0  0
  -32.4450  -22.1409   19.9297 F   0  0  0  0  0  0  0  0  0  0  0  0
  1  2  1  0  0  0  0
  1  5  2  0  0  0  0
  2  6  2  0  0  0  0
  3 10  2  0  0  0  0
  3 18  1  0  0  0  0
  4 11  1  0  0  0  0
  4 18  2  0  0  0  0
  5 20  1  0  0  0  0
  6 22  1  0  0  0  0
  7 12  2  0  0  0  0
  7 21  1  0  0  0  0
  8  9  2  0  0  0  0
  8 24  1  0  0  0  0
  9 25  1  0  0  0  0
 10 26  1  0  0  0  0
 11 26  2  0  0  0  0
 12 27  1  0  0  0  0
 13 14  2  0  0  0  0
 13 28  1  0  0  0  0
 14 30  1  0  0  0  0
 15 23  1  0  0  0  0
 15 27  2  0  0  0  0
 16 24  2  0  0  0  0
 16 29  1  0  0  0  0
 17 30  2  0  0  0  0
 17 31  1  0  0  0  0
 18 32  1  0  0  0  0
 19 32  1  0  0  0  0
 19 33  2  0  0  0  0
 19 34  1  0  0  0  0
 20 22  2  0  0  0  0
 20 39  1  0  0  0  0
 21 23  2  0  0  0  0
 21 40  1  0  0  0  0
 22 48  1  0  0  0  0
 23 41  1  0  0  0  0
 24 51  1  0  0  0  0
 25 29  2  0  0  0  0
 25 58  1  0  0  0  0
 26 81  1  0  0  0  0
 27 82  1  0  0  0  0
 28 31  2  0  0  0  0
 28 81  1  0  0  0  0
 29 83  1  0  0  0  0
 30 84  1  0  0  0  0
 31 85  1  0  0  0  0
 32 66  2  0  0  0  0
 33 67  1  0  0  0  0
 33 70  1  0  0  0  0
 34 71  1  0  0  0  0
 34 76  2  0  0  0  0
 35 49  1  0  0  0  0
 35 72  1  0  0  0  0
 35 77  2  0  0  0  0
 36 62  1  0  0  0  0
 36 68  1  0  0  0  0
 36 78  2  0  0  0  0
 37 63  1  0  0  0  0
 37 73  1  0  0  0  0
 37 79  2  0  0  0  0
 38 69  1  0  0  0  0
 38 74  1  0  0  0  0
 38 80  2  0  0  0  0
 39 42  1  0  0  0  0
 40 49  1  0  0  0  0
 41 68  1  0  0  0  0
 42 44  1  0  0  0  0
 43 45  1  0  0  0  0
 43 46  1  0  0  0  0
 44 48  1  0  0  0  0
 45 50  1  0  0  0  0
 46 69  1  0  0  0  0
 47 50  1  0  0  0  0
 47 69  1  0  0  0  0
 48 72  1  0  0  0  0
 49 68  1  0  0  0  0
 50 67  1  0  0  0  0
 52 63  1  0  0  0  0
 53 64  1  0  0  0  0
 54 65  1  0  0  0  0
 55 65  1  0  0  0  0
 56 65  1  0  0  0  0
 57 75  1  0  0  0  0
 58 74  1  0  0  0  0
 59 60  1  0  0  0  0
 59 64  1  0  0  0  0
 60 82  1  0  0  0  0
 61 64  1  0  0  0  0
 61 83  1  0  0  0  0
 62 65  1  0  0  0  0
 62 73  1  0  0  0  0
 63 75  1  0  0  0  0
 66 67  1  0  0  0  0
M  CHG  1  75   1
M  ISO  4  38 100  60 101  74 100  82 101
M  END
> <Batch ID>
0134

> <Smiles>
CNC(C)C(=O)NC(C(=O)N1Cc2cc([101O:1][101CH2:1]CC(C)COc3cc(C)ccc3C[100NH:0][100C:0](=O)N3CCCC(n4nc(-c5ccc(Oc6ccc(F)cc6F)cc5)c(C(N)=O)c4N)C3)ccc2CC1C(=O)NC1CCCc2ccccc21)C(C)(C)C

> <Shape>
0.227

> <Color>
0.054

> <Negative vol penalty>
0.000

$$$$

  -OEChem-04052302333D

 86 95  0     1  0  0  0  0  0999 V2000
  -31.0900  -34.5395   22.4479 C   0  0  0  0  0  0  0  0  0  0  0  0
  -31.4119  -33.2731   21.9705 C   0  0  0  0  0  0  0  0  0  0  0  0
  -23.1393  -10.8567   22.7114 C   0  0  0  0  0  0  0  0  0  0  0  0
  -24.5282   -9.1193   21.7683 C   0  0  0  0  0  0  0  0  0  0  0  0
  -29.9034  -34.7367   23.1528 C   0  0  0  0  0  0  0  0  0  0  0  0
  -30.5477  -32.2028   22.1988 C   0  0  0  0  0  0  0  0  0  0  0  0
  -27.9126  -19.1552   24.1424 C   0  0  0  0  0  0  0  0  0  0  0  0
  -28.2751  -26.1195   19.1747 C   0  0  0  0  0  0  0  0  0  0  0  0
  -28.2654  -18.9943   25.4823 C   0  0  0  0  0  0  0  0  0  0  0  0
  -22.6334   -9.9479   23.6407 C   0  0  0  0  0  0  0  0  0  0  0  0
  -24.0224   -8.2105   22.6977 C   0  0  0  0  0  0  0  0  0  0  0  0
  -28.1283  -24.7631   19.4620 C   0  0  0  0  0  0  0  0  0  0  0  0
  -22.8315   -5.3448   24.5896 C   0  0  0  0  0  0  0  0  0  0  0  0
  -22.4596   -4.0828   24.1262 C   0  0  0  0  0  0  0  0  0  0  0  0
  -26.0682  -25.2383   20.6236 C   0  0  0  0  0  0  0  0  0  0  0  0
  -29.9351  -17.3676   24.8473 C   0  0  0  0  0  0  0  0  0  0  0  0
  -20.8469   -5.1022   22.6440 C   0  0  0  0  0  0  0  0  0  0  0  0
  -24.0867  -10.4424   21.7751 C   0  0  0  0  0  0  0  0  0  0  0  0
  -23.8821  -12.1027   19.8492 C   0  0  0  0  0  0  0  0  0  0  0  0
  -29.0196  -33.6703   23.3814 C   0  0  0  0  0  0  0  0  0  0  0  0
  -27.3235  -27.0483   19.6197 C   0  0  0  0  0  0  0  0  0  0  0  0
  -29.3488  -32.3856   22.9085 C   0  0  0  0  0  0  0  0  0  0  0  0
  -28.5710  -18.4223   23.1550 C   0  0  0  0  0  0  0  0  0  0  0  0
  -26.2038  -26.6055   20.3383 C   0  0  0  0  0  0  0  0  0  0  0  0
  -29.2766  -18.1005   25.8347 C   0  0  0  0  0  0  0  0  0  0  0  0
  -29.5823  -17.5286   23.5074 C   0  0  0  0  0  0  0  0  0  0  0  0
  -23.0750   -8.6248   23.6339 C   0  0  0  0  0  0  0  0  0  0  0  0
  -27.0263  -24.3227   20.1890 C   0  0  0  0  0  0  0  0  0  0  0  0
  -22.2110   -6.4855   24.0803 C   0  0  0  0  0  0  0  0  0  0  0  0
  -21.4674   -3.9615   23.1534 C   0  0  0  0  0  0  0  0  0  0  0  0
  -21.2187   -6.3642   23.1075 C   0  0  0  0  0  0  0  0  0  0  0  0
  -24.6092  -11.3806   20.8144 C   0  0  0  0  0  0  0  0  0  0  0  0
  -24.8301  -12.8485   19.1923 C   0  0  0  0  0  0  0  0  0  0  0  0
  -28.4447  -20.0170   21.2067 C   0  0  0  0  0  0  0  0  0  0  0  0
  -27.5986  -20.7128   20.4264 C   0  0  0  0  0  0  0  0  0  0  0  0
  -22.4755  -12.0997   19.5712 C   0  0  0  0  0  0  0  0  0  0  0  0
  -27.3809  -29.5614   21.5652 C   0  0  0  0  0  0  0  0  0  0  0  0
  -30.2590  -14.8095   20.8637 C   0  0  0  0  0  0  0  0  0  0  0  0
  -24.3237  -29.9298   20.5452 C   0  0  0  0  0  0  0  0  0  0  0  0
  -21.5175  -28.5033   19.2273 C   0  0  0  0  0  0  0  0  0  0  0  0
  -27.7713  -33.9224   24.1895 C   0  0  0  0  0  0  0  0  0  0  0  0
  -27.4825  -28.5046   19.2785 C   0  0  0  0  0  0  0  0  0  0  0  0
  -25.1434  -27.5597   20.8215 C   0  0  0  0  0  0  0  0  0  0  0  0
  -26.2994  -20.1268   19.9339 C   0  0  0  0  0  0  0  0  0  0  0  0
  -26.7304  -32.8129   24.0645 C   0  0  0  0  0  0  0  0  0  0  0  0
  -26.2125  -18.6087   20.1028 C   0  0  0  0  0  0  0  0  0  0  0  0
  -29.4535  -12.8242   17.9915 C   0  0  0  0  0  0  0  0  0  0  0  0
  -26.7066  -18.1809   21.4804 C   0  0  0  0  0  0  0  0  0  0  0  0
  -27.3874  -31.4448   24.2175 C   0  0  0  0  0  0  0  0  0  0  0  0
  -28.0659  -12.2717   18.3147 C   0  0  0  0  0  0  0  0  0  0  0  0
  -30.3142  -12.9406   19.2456 C   0  0  0  0  0  0  0  0  0  0  0  0
  -28.3024  -13.1962   20.6630 C   0  0  0  0  0  0  0  0  0  0  0  0
  -28.1694  -18.6150   21.7016 C   0  0  2  0  0  0  0  0  0  0  0  0
  -28.4252  -31.2046   23.1145 C   0  0  1  0  0  0  0  0  0  0  0  0
  -26.7181  -29.4266   20.2235 C   0  0  1  0  0  0  0  0  0  0  0  0
  -27.3900  -13.0915   19.4280 C   0  0  2  0  0  0  0  0  0  0  0  0
  -29.6535  -17.9282   27.2673 C   0  0  0  0  0  0  0  0  0  0  0  0
  -19.1660  -29.0495   18.5422 C   0  0  0  0  0  0  0  0  0  0  0  0
  -23.4836  -29.9801   23.4781 C   0  0  0  0  0  0  0  0  0  0  0  0
  -21.1274  -29.5694   22.7380 C   0  0  0  0  0  0  0  0  0  0  0  0
  -22.3115  -31.6472   22.0284 C   0  0  0  0  0  0  0  0  0  0  0  0
  -22.0349  -27.7360   16.4161 C   0  0  0  0  0  0  0  0  0  0  0  0
  -30.3009  -16.7327   22.4676 C   0  0  0  0  0  0  0  0  0  0  0  0
  -27.8954  -22.1178   19.9920 C   0  0  0  0  0  0  0  0  0  1  0  0
  -29.4880  -15.5509   21.9267 C   0  0  0  0  0  0  0  0  0  0  0  0
  -22.9754  -29.4319   21.0068 C   0  0  1  0  0  0  0  0  0  0  0  0
  -20.6118  -28.9297   18.0861 C   0  0  2  0  0  0  0  0  0  0  0  0
  -22.4953  -30.1391   22.3055 C   0  0  0  0  0  0  0  0  0  0  0  0
  -25.9181  -11.6438   20.7774 N   0  0  0  0  0  0  0  0  0  0  0  0
  -26.0211  -12.5396   19.7808 N   0  0  0  0  0  0  0  0  0  0  0  0
  -25.3470  -28.9744   20.4681 N   0  0  0  0  0  0  0  0  0  0  0  0
  -29.6280  -13.7071   20.2872 N   0  0  0  0  0  0  0  0  0  0  0  0
  -24.7529  -13.7318   18.1743 N   0  0  0  0  0  0  0  0  0  0  0  0
  -21.9816  -11.1817   18.6344 N   0  0  0  0  0  0  0  0  0  0  0  0
  -27.7707  -30.8509   21.8731 N   0  0  0  0  0  0  0  0  0  0  0  0
  -22.0720  -29.5887   19.8721 N   0  0  0  0  0  0  0  0  0  0  0  0
  -20.6738  -27.9365   16.9767 N   0  3  0  0  0  0  0  0  0  0  0  0
  -21.6827  -12.8987   20.1248 O   0  0  0  0  0  0  0  0  0  0  0  0
  -27.5266  -28.5693   22.2695 O   0  0  0  0  0  0  0  0  0  0  0  0
  -31.3871  -15.2018   20.5543 O   0  0  0  0  0  0  0  0  0  0  0  0
  -24.4621  -31.1211   20.2567 O   0  0  0  0  0  0  0  0  0  0  0  0
  -21.7106  -27.3254   19.5200 O   0  0  0  0  0  0  0  0  0  0  0  0
  -22.5818   -7.7378   24.5408 O   0  0  0  0  0  0  0  0  0  0  0  0
  -26.8810  -22.9994   20.4715 O   0  0  0  0  0  0  0  0  0  1  0  0
  -21.1115   -2.7497   22.7074 F   0  0  0  0  0  0  0  0  0  0  0  0
  -20.6199   -7.4566   22.6135 F   0  0  0  0  0  0  0  0  0  0  0  0
  1  2  1  0  0  0  0
  1  5  2  0  0  0  0
  2  6  2  0  0  0  0
  3 10  2  0  0  0  0
  3 18  1  0  0  0  0
  4 11  1  0  0  0  0
  4 18  2  0  0  0  0
  5 20  1  0  0  0  0
  6 22  1  0  0  0  0
  7  9  2  0  0  0  0
  7 23  1  0  0  0  0
  8 12  2  0  0  0  0
  8 21  1  0  0  0  0
  9 25  1  0  0  0  0
 10 27  1  0  0  0  0
 11 27  2  0  0  0  0
 12 28  1  0  0  0  0
 13 14  2  0  0  0  0
 13 29  1  0  0  0  0
 14 30  1  0  0  0  0
 15 24  1  0  0  0  0
 15 28  2  0  0  0  0
 16 25  2  0  0  0  0
 16 26  1  0  0  0  0
 17 30  2  0  0  0  0
 17 31  1  0  0  0  0
 18 32  1  0  0  0  0
 19 32  1  0  0  0  0
 19 33  2  0  0  0  0
 19 36  1  0  0  0  0
 20 22  2  0  0  0  0
 20 41  1  0  0  0  0
 21 24  2  0  0  0  0
 21 42  1  0  0  0  0
 22 54  1  0  0  0  0
 23 26  2  0  0  0  0
 23 53  1  0  0  0  0
 24 43  1  0  0  0  0
 25 57  1  0  0  0  0
 26 63  1  0  0  0  0
 27 83  1  0  0  0  0
 28 84  1  0  0  0  0
 29 31  2  0  0  0  0
 29 83  1  0  0  0  0
 30 85  1  0  0  0  0
 31 86  1  0  0  0  0
 32 69  2  0  0  0  0
 33 70  1  0  0  0  0
 33 73  1  0  0  0  0
 34 35  2  0  0  0  0
 34 53  1  0  0  0  0
 35 44  1  0  0  0  0
 35 64  1  0  0  0  0
 36 74  1  0  0  0  0
 36 78  2  0  0  0  0
 37 55  1  0  0  0  0
 37 75  1  0  0  0  0
 37 79  2  0  0  0  0
 38 65  1  0  0  0  0
 38 72  1  0  0  0  0
 38 80  2  0  0  0  0
 39 66  1  0  0  0  0
 39 71  1  0  0  0  0
 39 81  2  0  0  0  0
 40 67  1  0  0  0  0
 40 76  1  0  0  0  0
 40 82  2  0  0  0  0
 41 45  1  0  0  0  0
 42 55  1  0  0  0  0
 43 71  1  0  0  0  0
 44 46  1  0  0  0  0
 45 49  1  0  0  0  0
 46 48  1  0  0  0  0
 47 50  1  0  0  0  0
 47 51  1  0  0  0  0
 48 53  1  0  0  0  0
 49 54  1  0  0  0  0
 50 56  1  0  0  0  0
 51 72  1  0  0  0  0
 52 56  1  0  0  0  0
 52 72  1  0  0  0  0
 54 75  1  0  0  0  0
 55 71  1  0  0  0  0
 56 70  1  0  0  0  0
 58 67  1  0  0  0  0
 59 68  1  0  0  0  0
 60 68  1  0  0  0  0
 61 68  1  0  0  0  0
 62 77  1  0  0  0  0
 63 65  1  0  0  0  0
 64 84  1  0  0  0  0
 66 68  1  0  0  0  0
 66 76  1  0  0  0  0
 67 77  1  0  0  0  0
 69 70  1  0  0  0  0
M  CHG  1  77   1
M  ISO  4  38 100  64 101  65 100  84 101
M  END
> <Batch ID>
0134

> <Smiles>
CNC(C)C(=O)NC(C(=O)N1Cc2cc([101O:1][101CH2:1]C3=CC(c4ccc(C)cc4C[100CH2:0][100C:0](=O)N4CCCC(n5nc(-c6ccc(Oc7ccc(F)cc7F)cc6)c(C(N)=O)c5N)C4)CCC3)ccc2CC1C(=O)NC1CCCc2ccccc21)C(C)(C)C

> <Shape>
0.288

> <Color>
0.097

> <Negative vol penalty>
0.000

$$$$

  -OEChem-04052302333D

 83 91  0     1  0  0  0  0  0999 V2000
  -17.8296  -25.0313   25.1012 C   0  0  0  0  0  0  0  0  0  0  0  0
  -19.1792  -24.7901   24.8649 C   0  0  0  0  0  0  0  0  0  0  0  0
  -24.4167   -9.6254   21.5020 C   0  0  0  0  0  0  0  0  0  0  0  0
  -24.7397  -10.7221   23.6303 C   0  0  0  0  0  0  0  0  0  0  0  0
  -17.2450  -26.2147   24.6519 C   0  0  0  0  0  0  0  0  0  0  0  0
  -19.9448  -25.7316   24.1781 C   0  0  0  0  0  0  0  0  0  0  0  0
  -24.4409  -26.5454   26.3615 C   0  0  0  0  0  0  0  0  0  0  0  0
  -30.5502  -20.7685   22.0450 C   0  0  0  0  0  0  0  0  0  0  0  0
  -30.3968  -19.4750   21.5462 C   0  0  0  0  0  0  0  0  0  0  0  0
  -24.0222   -8.4615   22.1616 C   0  0  0  0  0  0  0  0  0  0  0  0
  -24.3452   -9.5581   24.2900 C   0  0  0  0  0  0  0  0  0  0  0  0
  -25.4348  -25.5915   26.1470 C   0  0  0  0  0  0  0  0  0  0  0  0
  -22.5839   -5.3153   23.2788 C   0  0  0  0  0  0  0  0  0  0  0  0
  -21.4553   -4.6497   22.8005 C   0  0  0  0  0  0  0  0  0  0  0  0
  -26.4161  -27.0031   24.4548 C   0  0  0  0  0  0  0  0  0  0  0  0
  -28.1492  -21.0024   22.1769 C   0  0  0  0  0  0  0  0  0  0  0  0
  -20.1181   -6.6186   23.2161 C   0  0  0  0  0  0  0  0  0  0  0  0
  -24.7756  -10.7558   22.2364 C   0  0  0  0  0  0  0  0  0  0  0  0
  -24.3589  -13.0186   21.1346 C   0  0  0  0  0  0  0  0  0  0  0  0
  -18.0061  -27.1756   23.9677 C   0  0  0  0  0  0  0  0  0  0  0  0
  -24.4208  -27.7325   25.6152 C   0  0  0  0  0  0  0  0  0  0  0  0
  -19.3695  -26.9284   23.7180 C   0  0  0  0  0  0  0  0  0  0  0  0
  -25.4223  -27.9716   24.6635 C   0  0  0  0  0  0  0  0  0  0  0  0
  -29.4264  -21.5322   22.3604 C   0  0  0  0  0  0  0  0  0  0  0  0
  -27.9957  -19.7089   21.6781 C   0  0  0  0  0  0  0  0  0  0  0  0
  -29.1196  -18.9451   21.3627 C   0  0  0  0  0  0  0  0  0  0  0  0
  -23.9864   -8.4278   23.5556 C   0  0  0  0  0  0  0  0  0  0  0  0
  -26.4210  -25.8190   25.1916 C   0  0  0  0  0  0  0  0  0  0  0  0
  -22.4797   -6.6325   23.7258 C   0  0  0  0  0  0  0  0  0  0  0  0
  -20.2224   -5.3013   22.7692 C   0  0  0  0  0  0  0  0  0  0  0  0
  -21.2468   -7.2842   23.6944 C   0  0  0  0  0  0  0  0  0  0  0  0
  -25.1837  -11.9583   21.5556 C   0  0  0  0  0  0  0  0  0  0  0  0
  -25.2207  -13.9108   20.5450 C   0  0  0  0  0  0  0  0  0  0  0  0
  -22.9405  -13.1823   21.2650 C   0  0  0  0  0  0  0  0  0  0  0  0
  -22.3817  -29.0634   23.5720 C   0  0  0  0  0  0  0  0  0  0  0  0
  -24.4570  -31.5518   23.7259 C   0  0  0  0  0  0  0  0  0  0  0  0
  -27.6255  -32.6466   24.3652 C   0  0  0  0  0  0  0  0  0  0  0  0
  -30.0087  -16.7526   20.4974 C   0  0  0  0  0  0  0  0  0  0  0  0
  -17.3192  -28.4185   23.4598 C   0  0  0  0  0  0  0  0  0  0  0  0
  -23.3573  -28.7633   25.8773 C   0  0  0  0  0  0  0  0  0  0  0  0
  -25.4572  -29.2389   23.8502 C   0  0  0  0  0  0  0  0  0  0  0  0
  -18.2869  -29.5323   23.0681 C   0  0  0  0  0  0  0  0  0  0  0  0
  -30.0879  -13.4208   19.2445 C   0  0  0  0  0  0  0  0  0  0  0  0
  -19.4251  -28.9762   22.2183 C   0  0  0  0  0  0  0  0  0  0  0  0
  -28.7513  -12.8305   19.6994 C   0  0  0  0  0  0  0  0  0  0  0  0
  -30.6749  -14.3677   20.2898 C   0  0  0  0  0  0  0  0  0  0  0  0
  -28.4335  -14.8428   21.1950 C   0  0  0  0  0  0  0  0  0  0  0  0
  -20.2389  -27.9366   22.9983 C   0  0  1  0  0  0  0  0  0  0  0  0
  -23.1374  -29.7078   24.6996 C   0  0  1  0  0  0  0  0  0  0  0  0
  -27.7716  -13.9329   20.1473 C   0  0  2  0  0  0  0  0  0  0  0  0
  -26.6155  -19.1680   21.4888 C   0  0  0  0  0  0  0  0  0  0  0  0
  -29.0274  -34.7279   24.3683 C   0  0  0  0  0  0  0  0  0  0  0  0
  -29.7978  -24.3437   26.5458 C   0  0  0  0  0  0  0  0  0  0  0  0
  -24.6075  -31.4521   20.6800 C   0  0  0  0  0  0  0  0  0  0  0  0
  -26.6765  -32.8562   20.8058 C   0  0  0  0  0  0  0  0  0  0  0  0
  -24.5069  -33.7572   21.6446 C   0  0  0  0  0  0  0  0  0  0  0  0
  -28.1798  -32.4082   27.2626 C   0  0  0  0  0  0  0  0  0  0  0  0
  -29.5924  -22.9318   22.8975 C   0  0  0  0  0  0  0  0  0  0  0  0
  -29.6824  -23.0062   24.4280 C   0  0  0  0  0  0  0  0  0  0  0  0
  -28.6647  -25.3667   24.5460 C   0  0  0  0  0  0  0  0  0  1  0  0
  -25.6959  -31.9592   22.9656 C   0  0  1  0  0  0  0  0  0  0  0  0
  -28.1416  -33.8085   25.1946 C   0  0  2  0  0  0  0  0  0  0  0  0
  -29.7878  -24.4315   25.0143 C   0  0  1  0  0  0  0  0  0  0  0  0
  -25.3702  -32.4813   21.5378 C   0  0  0  0  0  0  0  0  0  0  0  0
  -26.4707  -12.1569   21.2585 N   0  0  0  0  0  0  0  0  0  0  0  0
  -26.4610  -13.3523   20.6445 N   0  0  0  0  0  0  0  0  0  0  0  0
  -24.3920  -30.2134   24.1387 N   0  0  0  0  0  0  0  0  0  0  0  0
  -29.6922  -15.3876   20.6626 N   0  0  0  0  0  0  0  0  0  0  0  0
  -25.0309  -15.1108   19.9563 N   0  0  0  0  0  0  0  0  0  0  0  0
  -22.2063  -12.1697   21.8973 N   0  0  0  0  0  0  0  0  0  0  0  0
  -28.9847  -17.6292   20.8548 N   0  0  0  0  0  0  0  0  0  0  0  0
  -21.1337  -28.5900   23.9293 N   0  0  0  0  0  0  0  0  0  0  0  0
  -26.3942  -32.9229   23.8094 N   0  0  0  0  0  0  0  0  0  0  0  0
  -28.9351  -33.3067   26.3519 N   0  3  0  0  0  0  0  0  0  0  0  0
  -22.3396  -14.1890   20.8189 O   0  0  0  0  0  0  0  0  0  0  0  0
  -22.8926  -29.0016   22.4598 O   0  0  0  0  0  0  0  0  0  0  0  0
  -23.5823  -32.3919   23.9515 O   0  0  0  0  0  0  0  0  0  0  0  0
  -28.2536  -31.6000   24.2214 O   0  0  0  0  0  0  0  0  0  0  0  0
  -31.0971  -17.1163   20.0446 O   0  0  0  0  0  0  0  0  0  0  0  0
  -23.6013   -7.2922   24.1996 O   0  0  0  0  0  0  0  0  0  0  0  0
  -27.3919  -24.8893   24.9798 O   0  0  0  0  0  0  0  0  0  1  0  0
  -19.1389   -4.6625   22.3084 F   0  0  0  0  0  0  0  0  0  0  0  0
  -21.1406   -8.5499   24.1214 F   0  0  0  0  0  0  0  0  0  0  0  0
  1  2  1  0  0  0  0
  1  5  2  0  0  0  0
  2  6  2  0  0  0  0
  3 10  2  0  0  0  0
  3 18  1  0  0  0  0
  4 11  1  0  0  0  0
  4 18  2  0  0  0  0
  5 20  1  0  0  0  0
  6 22  1  0  0  0  0
  7 12  2  0  0  0  0
  7 21  1  0  0  0  0
  8  9  2  0  0  0  0
  8 24  1  0  0  0  0
  9 26  1  0  0  0  0
 10 27  1  0  0  0  0
 11 27  2  0  0  0  0
 12 28  1  0  0  0  0
 13 14  2  0  0  0  0
 13 29  1  0  0  0  0
 14 30  1  0  0  0  0
 15 23  1  0  0  0  0
 15 28  2  0  0  0  0
 16 24  2  0  0  0  0
 16 25  1  0  0  0  0
 17 30  2  0  0  0  0
 17 31  1  0  0  0  0
 18 32  1  0  0  0  0
 19 32  1  0  0  0  0
 19 33  2  0  0  0  0
 19 34  1  0  0  0  0
 20 22  2  0  0  0  0
 20 39  1  0  0  0  0
 21 23  2  0  0  0  0
 21 40  1  0  0  0  0
 22 48  1  0  0  0  0
 23 41  1  0  0  0  0
 24 58  1  0  0  0  0
 25 26  2  0  0  0  0
 25 51  1  0  0  0  0
 26 71  1  0  0  0  0
 27 80  1  0  0  0  0
 28 81  1  0  0  0  0
 29 31  2  0  0  0  0
 29 80  1  0  0  0  0
 30 82  1  0  0  0  0
 31 83  1  0  0  0  0
 32 65  2  0  0  0  0
 33 66  1  0  0  0  0
 33 69  1  0  0  0  0
 34 70  1  0  0  0  0
 34 75  2  0  0  0  0
 35 49  1  0  0  0  0
 35 72  1  0  0  0  0
 35 76  2  0  0  0  0
 36 61  1  0  0  0  0
 36 67  1  0  0  0  0
 36 77  2  0  0  0  0
 37 62  1  0  0  0  0
 37 73  1  0  0  0  0
 37 78  2  0  0  0  0
 38 68  1  0  0  0  0
 38 71  1  0  0  0  0
 38 79  2  0  0  0  0
 39 42  1  0  0  0  0
 40 49  1  0  0  0  0
 41 67  1  0  0  0  0
 42 44  1  0  0  0  0
 43 45  1  0  0  0  0
 43 46  1  0  0  0  0
 44 48  1  0  0  0  0
 45 50  1  0  0  0  0
 46 68  1  0  0  0  0
 47 50  1  0  0  0  0
 47 68  1  0  0  0  0
 48 72  1  0  0  0  0
 49 67  1  0  0  0  0
 50 66  1  0  0  0  0
 52 62  1  0  0  0  0
 53 63  1  0  0  0  0
 54 64  1  0  0  0  0
 55 64  1  0  0  0  0
 56 64  1  0  0  0  0
 57 74  1  0  0  0  0
 58 59  1  0  0  0  0
 59 63  1  0  0  0  0
 60 63  1  0  0  0  0
 60 81  1  0  0  0  0
 61 64  1  0  0  0  0
 61 73  1  0  0  0  0
 62 74  1  0  0  0  0
 65 66  1  0  0  0  0
M  CHG  1  74   1
M  ISO  4  38 100  60 101  71 100  81 101
M  END
> <Batch ID>
0134

> <Smiles>
CNC(C)C(=O)NC(C(=O)N1Cc2cc([101O:1][101CH2:1]C(C)CCc3ccc([100NH:0][100C:0](=O)N4CCCC(n5nc(-c6ccc(Oc7ccc(F)cc7F)cc6)c(C(N)=O)c5N)C4)c(C)c3)ccc2CC1C(=O)NC1CCCc2ccccc21)C(C)(C)C

> <Shape>
0.279

> <Color>
0.144

> <Negative vol penalty>
0.000

$$$$

  -OEChem-04052302333D

 84 93  0     1  0  0  0  0  0999 V2000
  -19.1885  -33.2259   16.3551 C   0  0  0  0  0  0  0  0  0  0  0  0
  -20.0583  -32.1402   16.3626 C   0  0  0  0  0  0  0  0  0  0  0  0
  -23.0309  -10.4281   19.7364 C   0  0  0  0  0  0  0  0  0  0  0  0
  -23.7346   -9.5570   21.8772 C   0  0  0  0  0  0  0  0  0  0  0  0
  -19.6047  -34.4546   16.8662 C   0  0  0  0  0  0  0  0  0  0  0  0
  -21.3452  -32.2828   16.8803 C   0  0  0  0  0  0  0  0  0  0  0  0
  -29.2807  -18.7463   21.4129 C   0  0  0  0  0  0  0  0  0  0  0  0
  -24.5798  -28.0623   19.9185 C   0  0  0  0  0  0  0  0  0  0  0  0
  -29.4626  -20.1260   21.2962 C   0  0  0  0  0  0  0  0  0  0  0  0
  -22.1335   -9.3690   19.6004 C   0  0  0  0  0  0  0  0  0  0  0  0
  -22.8372   -8.4979   21.7413 C   0  0  0  0  0  0  0  0  0  0  0  0
  -25.5832  -27.1813   19.5172 C   0  0  0  0  0  0  0  0  0  0  0  0
  -19.5187   -7.9830   22.1196 C   0  0  0  0  0  0  0  0  0  0  0  0
  -18.7379   -7.6510   23.2267 C   0  0  0  0  0  0  0  0  0  0  0  0
  -29.9259  -19.9116   18.9162 C   0  0  0  0  0  0  0  0  0  0  0  0
  -27.2534  -28.7466   20.2785 C   0  0  0  0  0  0  0  0  0  0  0  0
  -19.6912   -5.4311   23.2333 C   0  0  0  0  0  0  0  0  0  0  0  0
  -23.8316  -10.5221   20.8748 C   0  0  0  0  0  0  0  0  0  0  0  0
  -24.5123  -12.8691   21.6070 C   0  0  0  0  0  0  0  0  0  0  0  0
  -20.8940  -34.6097   17.3992 C   0  0  0  0  0  0  0  0  0  0  0  0
  -24.9064  -29.2987   20.4937 C   0  0  0  0  0  0  0  0  0  0  0  0
  -29.4275  -17.9700   20.2769 C   0  0  0  0  0  0  0  0  0  0  0  0
  -21.7795  -33.5150   17.3977 C   0  0  0  0  0  0  0  0  0  0  0  0
  -29.7460  -18.5456   19.0431 C   0  0  0  0  0  0  0  0  0  0  0  0
  -26.2523  -29.6403   20.6885 C   0  0  0  0  0  0  0  0  0  0  0  0
  -29.7822  -20.7044   20.0569 C   0  0  0  0  0  0  0  0  0  0  0  0
  -22.0366   -8.4039   20.6029 C   0  0  0  0  0  0  0  0  0  0  0  0
  -26.9202  -27.5247   19.6945 C   0  0  0  0  0  0  0  0  0  0  0  0
  -20.3857   -7.0390   21.5693 C   0  0  0  0  0  0  0  0  0  0  0  0
  -18.8241   -6.3751   23.7836 C   0  0  0  0  0  0  0  0  0  0  0  0
  -20.4720   -5.7631   22.1261 C   0  0  0  0  0  0  0  0  0  0  0  0
  -24.7592  -11.6156   21.0156 C   0  0  0  0  0  0  0  0  0  0  0  0
  -25.7030  -13.5439   21.4911 C   0  0  0  0  0  0  0  0  0  0  0  0
  -23.3139  -13.3779   22.2075 C   0  0  0  0  0  0  0  0  0  0  0  0
  -24.4127  -32.3388   19.7076 C   0  0  0  0  0  0  0  0  0  0  0  0
  -28.8728  -24.4660   19.5856 C   0  0  0  0  0  0  0  0  0  0  0  0
  -25.7264  -32.8993   22.6201 C   0  0  0  0  0  0  0  0  0  0  0  0
  -27.7382  -31.8045   25.1501 C   0  0  0  0  0  0  0  0  0  0  0  0
  -29.9996  -15.0146   18.1628 C   0  0  0  0  0  0  0  0  0  0  0  0
  -21.3149  -35.9697   17.8971 C   0  0  0  0  0  0  0  0  0  0  0  0
  -23.8120  -30.2263   20.9457 C   0  0  0  0  0  0  0  0  0  0  0  0
  -29.2644  -16.4916   20.1338 C   0  0  0  0  0  0  0  0  0  0  0  0
  -29.8500  -17.4928   17.9918 C   0  0  0  0  0  0  0  0  0  0  0  0
  -26.6555  -30.9470   21.3198 C   0  0  0  0  0  0  0  0  0  0  0  0
  -22.5670  -35.9382   18.7698 C   0  0  0  0  0  0  0  0  0  0  0  0
  -30.3007  -11.9306   20.1275 C   0  0  0  0  0  0  0  0  0  0  0  0
  -23.6462  -35.0750   18.1240 C   0  0  0  0  0  0  0  0  0  0  0  0
  -28.8534  -11.6576   20.5433 C   0  0  0  0  0  0  0  0  0  0  0  0
  -30.3849  -12.6565   18.7864 C   0  0  0  0  0  0  0  0  0  0  0  0
  -28.1337  -13.6018   19.1107 C   0  0  0  0  0  0  0  0  0  0  0  0
  -23.1748  -33.6236   17.9733 C   0  0  1  0  0  0  0  0  0  0  0  0
  -24.2653  -31.6793   21.0497 C   0  0  1  0  0  0  0  0  0  0  0  0
  -28.0055  -12.9431   20.4906 C   0  0  1  0  0  0  0  0  0  0  0  0
  -28.6497  -32.4986   27.3828 C   0  0  0  0  0  0  0  0  0  0  0  0
  -27.7025  -34.7636   21.2311 C   0  0  0  0  0  0  0  0  0  0  0  0
  -29.1292  -34.6690   23.2863 C   0  0  0  0  0  0  0  0  0  0  0  0
  -26.8237  -35.6133   23.4128 C   0  0  0  0  0  0  0  0  0  0  0  0
  -26.4400  -29.5242   26.5189 C   0  0  0  0  0  0  0  0  0  0  0  0
  -29.9704  -22.1817   19.9591 C   0  0  0  0  0  0  0  0  0  0  0  0
  -28.6828  -22.9570   19.6378 C   0  0  0  0  0  0  0  0  0  0  0  0
  -27.6161  -25.2781   19.3412 C   0  0  0  0  0  0  0  0  0  1  0  0
  -27.1280  -33.1187   23.1364 C   0  0  1  0  0  0  0  0  0  0  0  0
  -27.5345  -31.7653   26.6539 C   0  0  2  0  0  0  0  0  0  0  0  0
  -27.6886  -34.5173   22.7529 C   0  0  0  0  0  0  0  0  0  0  0  0
  -26.0085  -11.4986   20.5579 N   0  0  0  0  0  0  0  0  0  0  0  0
  -26.5573  -12.6871   20.8616 N   0  0  0  0  0  0  0  0  0  0  0  0
  -25.5490  -31.8229   21.7393 N   0  0  0  0  0  0  0  0  0  0  0  0
  -29.6112  -16.2355   18.7199 N   0  0  0  0  0  0  0  0  0  0  0  0
  -29.5417  -13.8509   18.7886 N   0  0  0  0  0  0  0  0  0  0  0  0
  -26.0920  -14.7806   21.8673 N   0  0  0  0  0  0  0  0  0  0  0  0
  -22.1818  -12.5523   22.2428 N   0  0  0  0  0  0  0  0  0  0  0  0
  -23.2547  -32.9319   19.2420 N   0  0  0  0  0  0  0  0  0  0  0  0
  -27.0777  -32.8683   24.5728 N   0  0  0  0  0  0  0  0  0  0  0  0
  -27.5054  -30.3555   27.1361 N   0  3  0  0  0  0  0  0  0  0  0  0
  -23.2440  -14.5364   22.6834 O   0  0  0  0  0  0  0  0  0  0  0  0
  -25.4971  -32.3128   19.1375 O   0  0  0  0  0  0  0  0  0  0  0  0
  -29.9646  -25.0032   19.7646 O   0  0  0  0  0  0  0  0  0  0  0  0
  -24.8210  -33.6507   22.9904 O   0  0  0  0  0  0  0  0  0  0  0  0
  -28.4186  -30.9766   24.5483 O   0  0  0  0  0  0  0  0  0  0  0  0
  -30.7623  -14.9645   17.1894 O   0  0  0  0  0  0  0  0  0  0  0  0
  -21.1608   -7.3704   20.4706 O   0  0  0  0  0  0  0  0  0  0  0  0
  -27.9118  -26.6581   19.2992 O   0  0  0  0  0  0  0  0  0  1  0  0
  -18.0754   -6.0569   24.8477 F   0  0  0  0  0  0  0  0  0  0  0  0
  -21.3040   -4.8523   21.6025 F   0  0  0  0  0  0  0  0  0  0  0  0
  1  2  1  0  0  0  0
  1  5  2  0  0  0  0
  2  6  2  0  0  0  0
  3 10  2  0  0  0  0
  3 18  1  0  0  0  0
  4 11  1  0  0  0  0
  4 18  2  0  0  0  0
  5 20  1  0  0  0  0
  6 23  1  0  0  0  0
  7  9  2  0  0  0  0
  7 22  1  0  0  0  0
  8 12  2  0  0  0  0
  8 21  1  0  0  0  0
  9 26  1  0  0  0  0
 10 27  1  0  0  0  0
 11 27  2  0  0  0  0
 12 28  1  0  0  0  0
 13 14  2  0  0  0  0
 13 29  1  0  0  0  0
 14 30  1  0  0  0  0
 15 24  1  0  0  0  0
 15 26  2  0  0  0  0
 16 25  1  0  0  0  0
 16 28  2  0  0  0  0
 17 30  2  0  0  0  0
 17 31  1  0  0  0  0
 18 32  1  0  0  0  0
 19 32  1  0  0  0  0
 19 33  2  0  0  0  0
 19 34  1  0  0  0  0
 20 23  2  0  0  0  0
 20 40  1  0  0  0  0
 21 25  2  0  0  0  0
 21 41  1  0  0  0  0
 22 24  2  0  0  0  0
 22 42  1  0  0  0  0
 23 51  1  0  0  0  0
 24 43  1  0  0  0  0
 25 44  1  0  0  0  0
 26 59  1  0  0  0  0
 27 81  1  0  0  0  0
 28 82  1  0  0  0  0
 29 31  2  0  0  0  0
 29 81  1  0  0  0  0
 30 83  1  0  0  0  0
 31 84  1  0  0  0  0
 32 65  2  0  0  0  0
 33 66  1  0  0  0  0
 33 70  1  0  0  0  0
 34 71  1  0  0  0  0
 34 75  2  0  0  0  0
 35 52  1  0  0  0  0
 35 72  1  0  0  0  0
 35 76  2  0  0  0  0
 36 60  1  0  0  0  0
 36 61  1  0  0  0  0
 36 77  2  0  0  0  0
 37 62  1  0  0  0  0
 37 67  1  0  0  0  0
 37 78  2  0  0  0  0
 38 63  1  0  0  0  0
 38 73  1  0  0  0  0
 38 79  2  0  0  0  0
 39 68  1  0  0  0  0
 39 69  1  0  0  0  0
 39 80  2  0  0  0  0
 40 45  1  0  0  0  0
 41 52  1  0  0  0  0
 42 68  1  0  0  0  0
 43 68  1  0  0  0  0
 44 67  1  0  0  0  0
 45 47  1  0  0  0  0
 46 48  1  0  0  0  0
 46 49  1  0  0  0  0
 47 51  1  0  0  0  0
 48 53  1  0  0  0  0
 49 69  1  0  0  0  0
 50 53  1  0  0  0  0
 50 69  1  0  0  0  0
 51 72  1  0  0  0  0
 52 67  1  0  0  0  0
 53 66  1  0  0  0  0
 54 63  1  0  0  0  0
 55 64  1  0  0  0  0
 56 64  1  0  0  0  0
 57 64  1  0  0  0  0
 58 74  1  0  0  0  0
 59 60  1  0  0  0  0
 61 82  1  0  0  0  0
 62 64  1  0  0  0  0
 62 73  1  0  0  0  0
 63 74  1  0  0  0  0
 65 66  1  0  0  0  0
M  CHG  1  74   1
M  ISO  4  39 100  61 101  68 100  82 101
M  END
> <Batch ID>
0134

> <Smiles>
CNC(C)C(=O)NC(C(=O)N1Cc2cc([101O:1][101CH2:1]C(=O)CCc3ccc4c(c3)C[100N:0]([100C:0](=O)N3CCCC(n5nc(-c6ccc(Oc7ccc(F)cc7F)cc6)c(C(N)=O)c5N)C3)C4)ccc2CC1C(=O)NC1CCCc2ccccc21)C(C)(C)C

> <Shape>
0.317

> <Color>
0.150

> <Negative vol penalty>
0.000

$$$$

  -OEChem-04052302333D

 85 93  0     1  0  0  0  0  0999 V2000
  -24.7111  -19.1304   26.1009 C   0  0  0  0  0  0  0  0  0  0  0  0
  -25.6438  -19.6950   25.2368 C   0  0  0  0  0  0  0  0  0  0  0  0
  -23.1777   -9.8035   20.9037 C   0  0  0  0  0  0  0  0  0  0  0  0
  -23.8487  -10.4987   23.1180 C   0  0  0  0  0  0  0  0  0  0  0  0
  -23.4121  -19.6346   26.1487 C   0  0  0  0  0  0  0  0  0  0  0  0
  -25.2777  -20.7635   24.4190 C   0  0  0  0  0  0  0  0  0  0  0  0
  -28.7455  -24.4536   24.3753 C   0  0  0  0  0  0  0  0  0  0  0  0
  -31.1209  -19.1219   19.0977 C   0  0  0  0  0  0  0  0  0  0  0  0
  -30.9801  -17.7937   19.4998 C   0  0  0  0  0  0  0  0  0  0  0  0
  -22.4610   -8.7411   21.4543 C   0  0  0  0  0  0  0  0  0  0  0  0
  -23.1320   -9.4363   23.6687 C   0  0  0  0  0  0  0  0  0  0  0  0
  -29.8804  -24.2516   23.5910 C   0  0  0  0  0  0  0  0  0  0  0  0
  -19.4856   -8.2744   22.9912 C   0  0  0  0  0  0  0  0  0  0  0  0
  -18.2003   -8.0377   22.5038 C   0  0  0  0  0  0  0  0  0  0  0  0
  -28.9242  -25.6353   21.8617 C   0  0  0  0  0  0  0  0  0  0  0  0
  -18.8704   -5.8216   21.8130 C   0  0  0  0  0  0  0  0  0  0  0  0
  -23.8715  -10.6823   21.7355 C   0  0  0  0  0  0  0  0  0  0  0  0
  -24.1389  -13.0788   20.9031 C   0  0  0  0  0  0  0  0  0  0  0  0
  -23.0326  -20.7161   25.3381 C   0  0  0  0  0  0  0  0  0  0  0  0
  -27.6850  -25.2404   23.9034 C   0  0  0  0  0  0  0  0  0  0  0  0
  -23.9720  -21.2818   24.4550 C   0  0  0  0  0  0  0  0  0  0  0  0
  -27.7781  -25.8478   22.6430 C   0  0  0  0  0  0  0  0  0  0  0  0
  -30.3419  -20.1162   19.6896 C   0  0  0  0  0  0  0  0  0  0  0  0
  -29.4221  -19.7822   20.6835 C   0  0  0  0  0  0  0  0  0  0  0  0
  -29.2812  -18.4540   21.0856 C   0  0  0  0  0  0  0  0  0  0  0  0
  -30.0602  -17.4597   20.4937 C   0  0  0  0  0  0  0  0  0  0  0  0
  -22.4381   -8.5575   22.8368 C   0  0  0  0  0  0  0  0  0  0  0  0
  -29.9686  -24.8401   22.3328 C   0  0  0  0  0  0  0  0  0  0  0  0
  -20.4634   -7.2847   22.8895 C   0  0  0  0  0  0  0  0  0  0  0  0
  -17.8927   -6.8113   21.9147 C   0  0  0  0  0  0  0  0  0  0  0  0
  -20.1558   -6.0584   22.3004 C   0  0  0  0  0  0  0  0  0  0  0  0
  -24.6125  -11.7797   21.1673 C   0  0  0  0  0  0  0  0  0  0  0  0
  -25.2203  -13.7366   20.3699 C   0  0  0  0  0  0  0  0  0  0  0  0
  -22.8379  -13.6408   21.1204 C   0  0  0  0  0  0  0  0  0  0  0  0
  -24.6197  -24.7134   23.2478 C   0  0  0  0  0  0  0  0  0  0  0  0
  -24.5690  -27.9238   22.7864 C   0  0  0  0  0  0  0  0  0  0  0  0
  -26.2967  -30.7717   22.0438 C   0  0  0  0  0  0  0  0  0  0  0  0
  -30.6406  -15.0106   20.3875 C   0  0  0  0  0  0  0  0  0  0  0  0
  -21.6038  -21.1962   25.3904 C   0  0  0  0  0  0  0  0  0  0  0  0
  -26.4792  -25.4704   24.7726 C   0  0  0  0  0  0  0  0  0  0  0  0
  -26.6758  -26.7180   22.0987 C   0  0  0  0  0  0  0  0  0  0  0  0
  -21.4003  -22.5727   24.7628 C   0  0  0  0  0  0  0  0  0  0  0  0
  -29.6933  -11.9758   18.7845 C   0  0  0  0  0  0  0  0  0  0  0  0
  -22.1071  -22.6539   23.4135 C   0  0  0  0  0  0  0  0  0  0  0  0
  -28.2481  -11.7611   19.2398 C   0  0  0  0  0  0  0  0  0  0  0  0
  -30.5542  -12.5766   19.8943 C   0  0  0  0  0  0  0  0  0  0  0  0
  -28.5742  -13.5882   20.9551 C   0  0  0  0  0  0  0  0  0  0  0  0
  -23.6198  -22.4579   23.5703 C   0  0  1  0  0  0  0  0  0  0  0  0
  -25.2387  -25.8704   23.9799 C   0  0  1  0  0  0  0  0  0  0  0  0
  -27.6530  -13.0450   19.8505 C   0  0  2  0  0  0  0  0  0  0  0  0
  -28.2935  -18.0979   22.1526 C   0  0  0  0  0  0  0  0  0  0  0  0
  -27.1589  -20.8565   20.7854 C   0  0  0  0  0  0  0  0  0  0  0  0
  -25.9770  -33.2371   21.7019 C   0  0  0  0  0  0  0  0  0  0  0  0
  -33.3341  -24.1775   19.7715 C   0  0  0  0  0  0  0  0  0  0  0  0
  -23.3633  -27.3836   20.0361 C   0  0  0  0  0  0  0  0  0  0  0  0
  -23.9469  -29.7325   19.3958 C   0  0  0  0  0  0  0  0  0  0  0  0
  -22.3450  -29.3115   21.2611 C   0  0  0  0  0  0  0  0  0  0  0  0
  -28.1057  -31.4355   24.2901 C   0  0  0  0  0  0  0  0  0  0  0  0
  -30.5144  -21.5443   19.2362 C   0  0  0  0  0  0  0  0  0  0  0  0
  -28.5881  -20.8508   21.3166 C   0  0  0  0  0  0  0  0  0  0  0  0
  -31.7308  -22.2512   19.8499 C   0  0  0  0  0  0  0  0  0  0  0  0
  -30.8953  -24.6666   20.1495 C   0  0  0  0  0  0  0  0  0  1  0  0
  -24.8042  -28.8385   21.6087 C   0  0  1  0  0  0  0  0  0  0  0  0
  -26.3127  -32.1403   22.7004 C   0  0  2  0  0  0  0  0  0  0  0  0
  -31.8993  -23.7355   19.4564 C   0  0  1  0  0  0  0  0  0  0  0  0
  -23.6350  -28.7986   20.5846 C   0  0  0  0  0  0  0  0  0  0  0  0
  -25.8948  -11.6197   20.8295 N   0  0  0  0  0  0  0  0  0  0  0  0
  -26.2362  -12.8268   20.3475 N   0  0  0  0  0  0  0  0  0  0  0  0
  -25.5146  -26.9076   22.9837 N   0  0  0  0  0  0  0  0  0  0  0  0
  -29.9303  -13.7920   20.4219 N   0  0  0  0  0  0  0  0  0  0  0  0
  -25.3918  -14.9987   19.9225 N   0  0  0  0  0  0  0  0  0  0  0  0
  -21.8426  -12.8260   21.6770 N   0  0  0  0  0  0  0  0  0  0  0  0
  -29.9339  -16.1042   20.8867 N   0  0  0  0  0  0  0  0  0  0  0  0
  -24.2375  -23.6686   24.0675 N   0  0  0  0  0  0  0  0  0  0  0  0
  -25.0663  -30.1614   22.1651 N   0  0  0  0  0  0  0  0  0  0  0  0
  -27.6584  -32.4235   23.2749 N   0  3  0  0  0  0  0  0  0  0  0  0
  -22.5614  -14.8255   20.8145 O   0  0  0  0  0  0  0  0  0  0  0  0
  -24.4965  -24.7654   22.0297 O   0  0  0  0  0  0  0  0  0  0  0  0
  -23.5866  -28.1088   23.5090 O   0  0  0  0  0  0  0  0  0  0  0  0
  -27.2766  -30.2936   21.4766 O   0  0  0  0  0  0  0  0  0  0  0  0
  -31.7810  -15.0841   19.9226 O   0  0  0  0  0  0  0  0  0  0  0  0
  -21.7388   -7.5210   23.3745 O   0  0  0  0  0  0  0  0  0  0  0  0
  -31.0749  -24.6441   21.5650 O   0  0  0  0  0  0  0  0  0  1  0  0
  -16.6580   -6.5836   21.4481 F   0  0  0  0  0  0  0  0  0  0  0  0
  -21.0906   -5.1034   22.2008 F   0  0  0  0  0  0  0  0  0  0  0  0
  1  2  1  0  0  0  0
  1  5  2  0  0  0  0
  2  6  2  0  0  0  0
  3 10  2  0  0  0  0
  3 17  1  0  0  0  0
  4 11  1  0  0  0  0
  4 17  2  0  0  0  0
  5 19  1  0  0  0  0
  6 21  1  0  0  0  0
  7 12  2  0  0  0  0
  7 20  1  0  0  0  0
  8  9  1  0  0  0  0
  8 23  2  0  0  0  0
  9 26  2  0  0  0  0
 10 27  1  0  0  0  0
 11 27  2  0  0  0  0
 12 28  1  0  0  0  0
 13 14  2  0  0  0  0
 13 29  1  0  0  0  0
 14 30  1  0  0  0  0
 15 22  1  0  0  0  0
 15 28  2  0  0  0  0
 16 30  2  0  0  0  0
 16 31  1  0  0  0  0
 17 32  1  0  0  0  0
 18 32  1  0  0  0  0
 18 33  2  0  0  0  0
 18 34  1  0  0  0  0
 19 21  2  0  0  0  0
 19 39  1  0  0  0  0
 20 22  2  0  0  0  0
 20 40  1  0  0  0  0
 21 48  1  0  0  0  0
 22 41  1  0  0  0  0
 23 24  1  0  0  0  0
 23 59  1  0  0  0  0
 24 25  2  0  0  0  0
 24 60  1  0  0  0  0
 25 26  1  0  0  0  0
 25 51  1  0  0  0  0
 26 73  1  0  0  0  0
 27 82  1  0  0  0  0
 28 83  1  0  0  0  0
 29 31  2  0  0  0  0
 29 82  1  0  0  0  0
 30 84  1  0  0  0  0
 31 85  1  0  0  0  0
 32 67  2  0  0  0  0
 33 68  1  0  0  0  0
 33 71  1  0  0  0  0
 34 72  1  0  0  0  0
 34 77  2  0  0  0  0
 35 49  1  0  0  0  0
 35 74  1  0  0  0  0
 35 78  2  0  0  0  0
 36 63  1  0  0  0  0
 36 69  1  0  0  0  0
 36 79  2  0  0  0  0
 37 64  1  0  0  0  0
 37 75  1  0  0  0  0
 37 80  2  0  0  0  0
 38 70  1  0  0  0  0
 38 73  1  0  0  0  0
 38 81  2  0  0  0  0
 39 42  1  0  0  0  0
 40 49  1  0  0  0  0
 41 69  1  0  0  0  0
 42 44  1  0  0  0  0
 43 45  1  0  0  0  0
 43 46  1  0  0  0  0
 44 48  1  0  0  0  0
 45 50  1  0  0  0  0
 46 70  1  0  0  0  0
 47 50  1  0  0  0  0
 47 70  1  0  0  0  0
 48 74  1  0  0  0  0
 49 69  1  0  0  0  0
 50 68  1  0  0  0  0
 52 60  1  0  0  0  0
 53 64  1  0  0  0  0
 54 65  1  0  0  0  0
 55 66  1  0  0  0  0
 56 66  1  0  0  0  0
 57 66  1  0  0  0  0
 58 76  1  0  0  0  0
 59 61  1  0  0  0  0
 61 65  1  0  0  0  0
 62 65  1  0  0  0  0
 62 83  1  0  0  0  0
 63 66  1  0  0  0  0
 63 75  1  0  0  0  0
 64 76  1  0  0  0  0
 67 68  1  0  0  0  0
M  CHG  1  76   1
M  ISO  4  38 100  62 101  73 100  83 101
M  END
> <Batch ID>
0134

> <Smiles>
CCc1c(CCC(C)[101CH2:1][101O:1]c2ccc3c(c2)CN(C(=O)C(NC(=O)C(C)NC)C(C)(C)C)C(C(=O)NC2CCCc4ccccc42)C3)ccc([100NH:0][100C:0](=O)N2CCCC(n3nc(-c4ccc(Oc5ccc(F)cc5F)cc4)c(C(N)=O)c3N)C2)c1C

> <Shape>
0.253

> <Color>
0.162

> <Negative vol penalty>
0.000

$$$$

  -OEChem-04052302333D

 85 93  0     1  0  0  0  0  0999 V2000
  -34.3223  -33.2525   18.7692 C   0  0  0  0  0  0  0  0  0  0  0  0
  -34.4676  -32.2597   19.7328 C   0  0  0  0  0  0  0  0  0  0  0  0
  -23.0811   -9.8957   19.9124 C   0  0  0  0  0  0  0  0  0  0  0  0
  -23.8590   -9.8518   22.1993 C   0  0  0  0  0  0  0  0  0  0  0  0
  -33.1595  -33.3132   18.0023 C   0  0  0  0  0  0  0  0  0  0  0  0
  -33.4495  -31.3276   19.9310 C   0  0  0  0  0  0  0  0  0  0  0  0
  -34.1010  -25.4327   21.4579 C   0  0  0  0  0  0  0  0  0  0  0  0
  -32.6551  -17.4740   23.5166 C   0  0  0  0  0  0  0  0  0  0  0  0
  -32.0475  -16.6153   22.6006 C   0  0  0  0  0  0  0  0  0  0  0  0
  -22.3466   -8.7320   20.1399 C   0  0  0  0  0  0  0  0  0  0  0  0
  -23.1244   -8.6881   22.4268 C   0  0  0  0  0  0  0  0  0  0  0  0
  -34.0096  -24.7642   22.6779 C   0  0  0  0  0  0  0  0  0  0  0  0
  -19.4149   -7.8812   21.5940 C   0  0  0  0  0  0  0  0  0  0  0  0
  -18.1046   -7.8383   21.1179 C   0  0  0  0  0  0  0  0  0  0  0  0
  -31.7171  -24.1956   22.1876 C   0  0  0  0  0  0  0  0  0  0  0  0
  -30.4857  -18.3157   24.1666 C   0  0  0  0  0  0  0  0  0  0  0  0
  -18.6661   -5.9316   19.7444 C   0  0  0  0  0  0  0  0  0  0  0  0
  -23.8374  -10.4555   20.9421 C   0  0  0  0  0  0  0  0  0  0  0  0
  -24.1624  -12.9850   20.8810 C   0  0  0  0  0  0  0  0  0  0  0  0
  -32.1307  -32.3756   18.1845 C   0  0  0  0  0  0  0  0  0  0  0  0
  -32.9960  -25.4972   20.5970 C   0  0  0  0  0  0  0  0  0  0  0  0
  -32.2712  -31.3767   19.1668 C   0  0  0  0  0  0  0  0  0  0  0  0
  -31.7979  -24.8634   20.9561 C   0  0  0  0  0  0  0  0  0  0  0  0
  -31.8742  -18.3242   24.2997 C   0  0  0  0  0  0  0  0  0  0  0  0
  -29.8781  -17.4570   23.2505 C   0  0  0  0  0  0  0  0  0  0  0  0
  -30.6591  -16.6068   22.4675 C   0  0  0  0  0  0  0  0  0  0  0  0
  -22.3681   -8.1282   21.3971 C   0  0  0  0  0  0  0  0  0  0  0  0
  -32.8166  -24.1480   23.0443 C   0  0  0  0  0  0  0  0  0  0  0  0
  -20.3509   -6.9494   21.1453 C   0  0  0  0  0  0  0  0  0  0  0  0
  -17.7301   -6.8635   20.1931 C   0  0  0  0  0  0  0  0  0  0  0  0
  -19.9765   -5.9746   20.2205 C   0  0  0  0  0  0  0  0  0  0  0  0
  -24.5969  -11.6573   20.7075 C   0  0  0  0  0  0  0  0  0  0  0  0
  -25.2469  -13.7502   20.5277 C   0  0  0  0  0  0  0  0  0  0  0  0
  -22.8920  -13.4822   21.3222 C   0  0  0  0  0  0  0  0  0  0  0  0
  -31.2134  -27.8445   19.4071 C   0  0  0  0  0  0  0  0  0  0  0  0
  -29.8687  -25.4339   17.7032 C   0  0  0  0  0  0  0  0  0  0  0  0
  -29.1941  -22.0990   17.4381 C   0  0  0  0  0  0  0  0  0  0  0  0
  -30.7076  -14.8267   20.6856 C   0  0  0  0  0  0  0  0  0  0  0  0
  -30.8723  -32.5102   17.3643 C   0  0  0  0  0  0  0  0  0  0  0  0
  -33.1190  -26.1994   19.2726 C   0  0  0  0  0  0  0  0  0  0  0  0
  -30.5887  -24.8862   20.0585 C   0  0  0  0  0  0  0  0  0  0  0  0
  -29.9993  -31.2579   17.3781 C   0  0  0  0  0  0  0  0  0  0  0  0
  -29.5898  -12.4641   18.2678 C   0  0  0  0  0  0  0  0  0  0  0  0
  -29.8430  -30.7319   18.8014 C   0  0  0  0  0  0  0  0  0  0  0  0
  -28.1554  -12.1528   18.7013 C   0  0  0  0  0  0  0  0  0  0  0  0
  -30.5129  -12.6695   19.4676 C   0  0  0  0  0  0  0  0  0  0  0  0
  -28.6124  -13.3477   20.8808 C   0  0  0  0  0  0  0  0  0  0  0  0
  -31.1997  -30.3326   19.3942 C   0  0  1  0  0  0  0  0  0  0  0  0
  -31.7744  -26.6413   18.7034 C   0  0  1  0  0  0  0  0  0  0  0  0
  -27.6314  -13.1969   19.7067 C   0  0  2  0  0  0  0  0  0  0  0  0
  -27.9195  -18.2229   21.8853 C   0  0  0  0  0  0  0  0  0  0  0  0
  -28.0453  -20.4336   15.9536 C   0  0  0  0  0  0  0  0  0  0  0  0
  -27.1607  -26.3721   18.7503 C   0  0  0  0  0  0  0  0  0  0  0  0
  -26.2013  -24.1719   18.0383 C   0  0  0  0  0  0  0  0  0  0  0  0
  -27.1754  -25.7149   16.3374 C   0  0  0  0  0  0  0  0  0  0  0  0
  -34.9215  -21.0242   26.0876 C   0  0  0  0  0  0  0  0  0  0  0  0
  -32.7260  -22.0327   26.7586 C   0  0  0  0  0  0  0  0  0  0  0  0
  -31.7129  -20.6246   16.9477 C   0  0  0  0  0  0  0  0  0  0  0  0
  -32.5321  -19.2552   25.2894 C   0  0  0  0  0  0  0  0  0  0  0  0
  -28.3888  -17.4713   23.1269 C   0  0  0  0  0  0  0  0  0  0  0  0
  -32.8663  -20.6086   24.6467 C   0  0  0  0  0  0  0  0  0  0  0  0
  -33.9186  -22.9041   24.7456 C   0  0  0  0  0  0  0  0  0  1  0  0
  -28.7152  -24.4848   17.9211 C   0  0  1  0  0  0  0  0  0  0  0  0
  -29.3579  -21.1268   16.2838 C   0  0  2  0  0  0  0  0  0  0  0  0
  -27.3352  -25.1870   17.7798 C   0  0  0  0  0  0  0  0  0  0  0  0
  -33.6049  -21.6263   25.5624 C   0  0  0  0  0  0  0  0  0  0  0  0
  -25.8590  -11.5799   20.2772 N   0  0  0  0  0  0  0  0  0  0  0  0
  -26.2268  -12.8686   20.1774 N   0  0  0  0  0  0  0  0  0  0  0  0
  -30.7568  -25.5908   18.7768 N   0  0  0  0  0  0  0  0  0  0  0  0
  -29.9544  -13.6750   20.3742 N   0  0  0  0  0  0  0  0  0  0  0  0
  -25.4483  -15.0844   20.4856 N   0  0  0  0  0  0  0  0  0  0  0  0
  -21.8886  -12.5586   21.6450 N   0  0  0  0  0  0  0  0  0  0  0  0
  -30.0609  -15.7273   21.5313 N   0  0  0  0  0  0  0  0  0  0  0  0
  -31.6221  -29.0509   18.8713 N   0  0  0  0  0  0  0  0  0  0  0  0
  -28.9188  -23.3756   16.9956 N   0  0  0  0  0  0  0  0  0  0  0  0
  -30.3674  -20.0845   16.6238 N   0  3  0  0  0  0  0  0  0  0  0  0
  -22.6485  -14.7095   21.4114 O   0  0  0  0  0  0  0  0  0  0  0  0
  -30.4640  -27.6899   20.3643 O   0  0  0  0  0  0  0  0  0  0  0  0
  -29.9818  -26.0093   16.6180 O   0  0  0  0  0  0  0  0  0  0  0  0
  -29.2961  -21.7592   18.6149 O   0  0  0  0  0  0  0  0  0  0  0  0
  -31.8319  -15.0141   20.2135 O   0  0  0  0  0  0  0  0  0  0  0  0
  -21.6512   -6.9928   21.6195 O   0  0  0  0  0  0  0  0  0  0  0  0
  -32.7244  -23.4953   24.2348 O   0  0  0  0  0  0  0  0  0  1  0  0
  -16.4713   -6.8215   19.7371 F   0  0  0  0  0  0  0  0  0  0  0  0
  -20.8709   -5.0760   19.7866 F   0  0  0  0  0  0  0  0  0  0  0  0
  1  2  1  0  0  0  0
  1  5  2  0  0  0  0
  2  6  2  0  0  0  0
  3 10  2  0  0  0  0
  3 18  1  0  0  0  0
  4 11  1  0  0  0  0
  4 18  2  0  0  0  0
  5 20  1  0  0  0  0
  6 22  1  0  0  0  0
  7 12  2  0  0  0  0
  7 21  1  0  0  0  0
  8  9  2  0  0  0  0
  8 24  1  0  0  0  0
  9 26  1  0  0  0  0
 10 27  1  0  0  0  0
 11 27  2  0  0  0  0
 12 28  1  0  0  0  0
 13 14  2  0  0  0  0
 13 29  1  0  0  0  0
 14 30  1  0  0  0  0
 15 23  1  0  0  0  0
 15 28  2  0  0  0  0
 16 24  2  0  0  0  0
 16 25  1  0  0  0  0
 17 30  2  0  0  0  0
 17 31  1  0  0  0  0
 18 32  1  0  0  0  0
 19 32  1  0  0  0  0
 19 33  2  0  0  0  0
 19 34  1  0  0  0  0
 20 22  2  0  0  0  0
 20 39  1  0  0  0  0
 21 23  2  0  0  0  0
 21 40  1  0  0  0  0
 22 48  1  0  0  0  0
 23 41  1  0  0  0  0
 24 59  1  0  0  0  0
 25 26  2  0  0  0  0
 25 60  1  0  0  0  0
 26 73  1  0  0  0  0
 27 82  1  0  0  0  0
 28 83  1  0  0  0  0
 29 31  2  0  0  0  0
 29 82  1  0  0  0  0
 30 84  1  0  0  0  0
 31 85  1  0  0  0  0
 32 67  2  0  0  0  0
 33 68  1  0  0  0  0
 33 71  1  0  0  0  0
 34 72  1  0  0  0  0
 34 77  2  0  0  0  0
 35 49  1  0  0  0  0
 35 74  1  0  0  0  0
 35 78  2  0  0  0  0
 36 63  1  0  0  0  0
 36 69  1  0  0  0  0
 36 79  2  0  0  0  0
 37 64  1  0  0  0  0
 37 75  1  0  0  0  0
 37 80  2  0  0  0  0
 38 70  1  0  0  0  0
 38 73  1  0  0  0  0
 38 81  2  0  0  0  0
 39 42  1  0  0  0  0
 40 49  1  0  0  0  0
 41 69  1  0  0  0  0
 42 44  1  0  0  0  0
 43 45  1  0  0  0  0
 43 46  1  0  0  0  0
 44 48  1  0  0  0  0
 45 50  1  0  0  0  0
 46 70  1  0  0  0  0
 47 50  1  0  0  0  0
 47 70  1  0  0  0  0
 48 74  1  0  0  0  0
 49 69  1  0  0  0  0
 50 68  1  0  0  0  0
 51 60  1  0  0  0  0
 52 64  1  0  0  0  0
 53 65  1  0  0  0  0
 54 65  1  0  0  0  0
 55 65  1  0  0  0  0
 56 66  1  0  0  0  0
 57 66  1  0  0  0  0
 58 76  1  0  0  0  0
 59 61  1  0  0  0  0
 61 66  1  0  0  0  0
 62 66  1  0  0  0  0
 62 83  1  0  0  0  0
 63 65  1  0  0  0  0
 63 75  1  0  0  0  0
 64 76  1  0  0  0  0
 67 68  1  0  0  0  0
M  CHG  1  76   1
M  ISO  4  38 100  62 101  73 100  83 101
M  END
> <Batch ID>
0134

> <Smiles>
CCc1cc(CCC(C)(C)[101CH2:1][101O:1]c2ccc3c(c2)CN(C(=O)C(NC(=O)C(C)NC)C(C)(C)C)C(C(=O)NC2CCCc4ccccc42)C3)ccc1[100NH:0][100C:0](=O)N1CCCC(n2nc(-c3ccc(Oc4ccc(F)cc4F)cc3)c(C(N)=O)c2N)C1

> <Shape>
0.212

> <Color>
0.196

> <Negative vol penalty>
0.000

$$$$

  -OEChem-04052302333D

 85 93  0     1  0  0  0  0  0999 V2000
  -24.6164  -24.0482   18.0256 C   0  0  0  0  0  0  0  0  0  0  0  0
  -25.5516  -23.2388   18.6626 C   0  0  0  0  0  0  0  0  0  0  0  0
  -23.2673  -30.7886   21.9155 C   0  0  0  0  0  0  0  0  0  0  0  0
  -22.7782  -28.5500   22.6814 C   0  0  0  0  0  0  0  0  0  0  0  0
  -31.0623  -21.7952   21.7712 C   0  0  0  0  0  0  0  0  0  0  0  0
  -23.2604  -23.7313   18.0937 C   0  0  0  0  0  0  0  0  0  0  0  0
  -25.1311  -22.1125   19.3690 C   0  0  0  0  0  0  0  0  0  0  0  0
  -27.9861  -18.0409   18.4117 C   0  0  0  0  0  0  0  0  0  0  0  0
  -30.6055  -22.9494   21.1351 C   0  0  0  0  0  0  0  0  0  0  0  0
  -21.9131  -30.9946   21.6525 C   0  0  0  0  0  0  0  0  0  0  0  0
  -21.4239  -28.7560   22.4185 C   0  0  0  0  0  0  0  0  0  0  0  0
  -29.2248  -17.9682   19.0473 C   0  0  0  0  0  0  0  0  0  0  0  0
  -17.7910  -28.8182   22.2877 C   0  0  0  0  0  0  0  0  0  0  0  0
  -16.8723  -28.4062   23.2529 C   0  0  0  0  0  0  0  0  0  0  0  0
  -28.2883  -16.4676   20.6875 C   0  0  0  0  0  0  0  0  0  0  0  0
  -28.3739  -22.5175   21.9541 C   0  0  0  0  0  0  0  0  0  0  0  0
  -17.8888  -29.8990   24.8577 C   0  0  0  0  0  0  0  0  0  0  0  0
  -23.6999  -29.5663   22.4298 C   0  0  0  0  0  0  0  0  0  0  0  0
  -30.1750  -21.0021   22.4987 C   0  0  0  0  0  0  0  0  0  0  0  0
  -25.7811  -29.6150   23.9042 C   0  0  0  0  0  0  0  0  0  0  0  0
  -22.8239  -22.5951   18.7932 C   0  0  0  0  0  0  0  0  0  0  0  0
  -26.8846  -17.3350   18.9164 C   0  0  0  0  0  0  0  0  0  0  0  0
  -23.7678  -21.7808   19.4476 C   0  0  0  0  0  0  0  0  0  0  0  0
  -27.0373  -16.5310   20.0550 C   0  0  0  0  0  0  0  0  0  0  0  0
  -29.2613  -23.3106   21.2266 C   0  0  0  0  0  0  0  0  0  0  0  0
  -20.9913  -29.9783   21.9040 C   0  0  0  0  0  0  0  0  0  0  0  0
  -29.3754  -17.1837   20.1870 C   0  0  0  0  0  0  0  0  0  0  0  0
  -18.7588  -29.7705   22.6074 C   0  0  0  0  0  0  0  0  0  0  0  0
  -28.8308  -21.3632   22.5902 C   0  0  0  0  0  0  0  0  0  0  0  0
  -16.9211  -28.9466   24.5379 C   0  0  0  0  0  0  0  0  0  0  0  0
  -18.8076  -30.3110   23.8924 C   0  0  0  0  0  0  0  0  0  0  0  0
  -25.0988  -29.3527   22.7011 C   0  0  0  0  0  0  0  0  0  0  0  0
  -27.0790  -29.2438   23.6508 C   0  0  0  0  0  0  0  0  0  0  0  0
  -30.6852  -19.7711   23.1715 C   0  0  0  0  0  0  0  0  0  0  0  0
  -25.2860  -30.1466   25.1403 C   0  0  0  0  0  0  0  0  0  0  0  0
  -24.0350  -18.1478   20.0666 C   0  0  0  0  0  0  0  0  0  0  0  0
  -23.5598  -14.9390   20.0840 C   0  0  0  0  0  0  0  0  0  0  0  0
  -24.9181  -11.8096   20.1746 C   0  0  0  0  0  0  0  0  0  0  0  0
  -29.5455  -25.3797   19.8179 C   0  0  0  0  0  0  0  0  0  0  0  0
  -21.3436  -22.3195   18.8786 C   0  0  0  0  0  0  0  0  0  0  0  0
  -25.5617  -17.4029   18.2037 C   0  0  0  0  0  0  0  0  0  0  0  0
  -25.8911  -15.7376   20.6252 C   0  0  0  0  0  0  0  0  0  0  0  0
  -21.0135  -20.9000   19.3331 C   0  0  0  0  0  0  0  0  0  0  0  0
  -30.2338  -28.8641   20.0679 C   0  0  0  0  0  0  0  0  0  0  0  0
  -21.8581  -20.5174   20.5444 C   0  0  0  0  0  0  0  0  0  0  0  0
  -29.0604  -29.4077   20.8862 C   0  0  0  0  0  0  0  0  0  0  0  0
  -29.7954  -27.7509   19.1180 C   0  0  0  0  0  0  0  0  0  0  0  0
  -27.8837  -27.1938   20.5685 C   0  0  0  0  0  0  0  0  0  0  0  0
  -23.3530  -20.5368   20.2029 C   0  0  1  0  0  0  0  0  0  0  0  0
  -24.3804  -17.0489   19.1018 C   0  0  1  0  0  0  0  0  0  0  0  0
  -28.2879  -28.2726   21.5866 C   0  0  2  0  0  0  0  0  0  0  0  0
  -26.3592  -18.8273   23.5388 C   0  0  0  0  0  0  0  0  0  0  0  0
  -24.2762   -9.3839   20.2157 C   0  0  0  0  0  0  0  0  0  0  0  0
  -22.7904  -15.1950   23.0255 C   0  0  0  0  0  0  0  0  0  0  0  0
  -23.0885  -12.7190   23.2469 C   0  0  0  0  0  0  0  0  0  0  0  0
  -21.3540  -13.6316   21.7037 C   0  0  0  0  0  0  0  0  0  0  0  0
  -26.3219  -11.2753   17.6245 C   0  0  0  0  0  0  0  0  0  0  0  0
  -31.8636  -19.0351   22.5519 C   0  0  0  0  0  0  0  0  0  0  0  0
  -31.8150  -17.5332   22.8251 C   0  0  0  0  0  0  0  0  0  0  0  0
  -27.2768  -19.5630   22.5858 C   0  0  0  0  0  0  0  0  0  0  0  0
  -30.5750  -16.8914   22.2196 C   0  0  0  0  0  0  0  0  0  1  0  0
  -23.7960  -13.8287   21.0792 C   0  0  1  0  0  0  0  0  0  0  0  0
  -24.6492  -10.5702   19.3402 C   0  0  2  0  0  0  0  0  0  0  0  0
  -22.7785  -13.8600   22.2545 C   0  0  0  0  0  0  0  0  0  0  0  0
  -25.8972  -28.8535   21.7538 N   0  0  0  0  0  0  0  0  0  0  0  0
  -27.0946  -28.7993   22.3615 N   0  0  0  0  0  0  0  0  0  0  0  0
  -24.6162  -15.8417   19.8963 N   0  0  0  0  0  0  0  0  0  0  0  0
  -29.0739  -26.7091   19.8521 N   0  0  0  0  0  0  0  0  0  0  0  0
  -28.1970  -29.2575   24.4073 N   0  0  0  0  0  0  0  0  0  0  0  0
  -23.9264  -30.4750   25.2295 N   0  0  0  0  0  0  0  0  0  0  0  0
  -28.7973  -24.4828   20.5798 N   0  0  0  0  0  0  0  0  0  0  0  0
  -23.7174  -19.3487   19.4612 N   0  0  0  0  0  0  0  0  0  0  0  0
  -23.7875  -12.5864   20.3144 N   0  0  0  0  0  0  0  0  0  0  0  0
  -25.8576  -10.2075   18.5471 N   0  3  0  0  0  0  0  0  0  0  0  0
  -30.1442  -19.3841   24.2049 O   0  0  0  0  0  0  0  0  0  0  0  0
  -26.0307  -30.3405   26.1310 O   0  0  0  0  0  0  0  0  0  0  0  0
  -24.0537  -17.9225   21.2710 O   0  0  0  0  0  0  0  0  0  0  0  0
  -22.4806  -14.9990   19.4896 O   0  0  0  0  0  0  0  0  0  0  0  0
  -26.0199  -12.0613   20.6575 O   0  0  0  0  0  0  0  0  0  0  0  0
  -30.5555  -25.0656   19.1831 O   0  0  0  0  0  0  0  0  0  0  0  0
  -19.6697  -30.1791   21.6478 O   0  0  0  0  0  0  0  0  0  0  0  0
  -30.5833  -17.1115   20.8097 O   0  0  0  0  0  0  0  0  0  1  0  0
  -27.9484  -20.6012   23.2960 O   0  0  0  0  0  0  0  0  0  0  0  0
  -16.0377  -28.5520   25.4642 F   0  0  0  0  0  0  0  0  0  0  0  0
  -19.7342  -31.2271   24.2052 F   0  0  0  0  0  0  0  0  0  0  0  0
  1  2  1  0  0  0  0
  1  6  2  0  0  0  0
  2  7  2  0  0  0  0
  3 10  2  0  0  0  0
  3 18  1  0  0  0  0
  4 11  1  0  0  0  0
  4 18  2  0  0  0  0
  5  9  2  0  0  0  0
  5 19  1  0  0  0  0
  6 21  1  0  0  0  0
  7 23  1  0  0  0  0
  8 12  2  0  0  0  0
  8 22  1  0  0  0  0
  9 25  1  0  0  0  0
 10 26  1  0  0  0  0
 11 26  2  0  0  0  0
 12 27  1  0  0  0  0
 13 14  2  0  0  0  0
 13 28  1  0  0  0  0
 14 30  1  0  0  0  0
 15 24  1  0  0  0  0
 15 27  2  0  0  0  0
 16 25  2  0  0  0  0
 16 29  1  0  0  0  0
 17 30  2  0  0  0  0
 17 31  1  0  0  0  0
 18 32  1  0  0  0  0
 19 29  2  0  0  0  0
 19 34  1  0  0  0  0
 20 32  1  0  0  0  0
 20 33  2  0  0  0  0
 20 35  1  0  0  0  0
 21 23  2  0  0  0  0
 21 40  1  0  0  0  0
 22 24  2  0  0  0  0
 22 41  1  0  0  0  0
 23 49  1  0  0  0  0
 24 42  1  0  0  0  0
 25 71  1  0  0  0  0
 26 81  1  0  0  0  0
 27 82  1  0  0  0  0
 28 31  2  0  0  0  0
 28 81  1  0  0  0  0
 29 83  1  0  0  0  0
 30 84  1  0  0  0  0
 31 85  1  0  0  0  0
 32 65  2  0  0  0  0
 33 66  1  0  0  0  0
 33 69  1  0  0  0  0
 34 58  1  0  0  0  0
 34 75  2  0  0  0  0
 35 70  1  0  0  0  0
 35 76  2  0  0  0  0
 36 50  1  0  0  0  0
 36 72  1  0  0  0  0
 36 77  2  0  0  0  0
 37 62  1  0  0  0  0
 37 67  1  0  0  0  0
 37 78  2  0  0  0  0
 38 63  1  0  0  0  0
 38 73  1  0  0  0  0
 38 79  2  0  0  0  0
 39 68  1  0  0  0  0
 39 71  1  0  0  0  0
 39 80  2  0  0  0  0
 40 43  1  0  0  0  0
 41 50  1  0  0  0  0
 42 67  1  0  0  0  0
 43 45  1  0  0  0  0
 44 46  1  0  0  0  0
 44 47  1  0  0  0  0
 45 49  1  0  0  0  0
 46 51  1  0  0  0  0
 47 68  1  0  0  0  0
 48 51  1  0  0  0  0
 48 68  1  0  0  0  0
 49 72  1  0  0  0  0
 50 67  1  0  0  0  0
 51 66  1  0  0  0  0
 52 60  1  0  0  0  0
 53 63  1  0  0  0  0
 54 64  1  0  0  0  0
 55 64  1  0  0  0  0
 56 64  1  0  0  0  0
 57 74  1  0  0  0  0
 58 59  1  0  0  0  0
 59 61  1  0  0  0  0
 60 83  1  0  0  0  0
 61 82  1  0  0  0  0
 62 64  1  0  0  0  0
 62 73  1  0  0  0  0
 63 74  1  0  0  0  0
 65 66  1  0  0  0  0
M  CHG  1  74   1
M  ISO  4  39 100  61 101  71 100  82 101
M  END
> <Batch ID>
0134

> <Smiles>
CCOc1cc([100NH:0][100C:0](=O)N2CCCC(n3nc(-c4ccc(Oc5ccc(F)cc5F)cc4)c(C(N)=O)c3N)C2)ccc1C(=O)CC[101CH2:1][101O:1]c1ccc2c(c1)CN(C(=O)C(NC(=O)C(C)NC)C(C)(C)C)C(C(=O)NC1CCCc3ccccc31)C2

> <Shape>
0.247

> <Color>
0.061

> <Negative vol penalty>
0.000

$$$$

  -OEChem-04052302333D

 88 96  0     1  0  0  0  0  0999 V2000
  -24.5022  -25.6799   25.5920 C   0  0  0  0  0  0  0  0  0  0  0  0
  -25.3012  -24.5647   25.8228 C   0  0  0  0  0  0  0  0  0  0  0  0
  -23.0740   -9.8681   19.9438 C   0  0  0  0  0  0  0  0  0  0  0  0
  -23.8377   -9.8770   22.2359 C   0  0  0  0  0  0  0  0  0  0  0  0
  -24.9090  -26.6501   24.6770 C   0  0  0  0  0  0  0  0  0  0  0  0
  -26.5071  -24.4186   25.1380 C   0  0  0  0  0  0  0  0  0  0  0  0
  -30.2952  -22.9569   28.1644 C   0  0  0  0  0  0  0  0  0  0  0  0
  -22.3312   -8.7147   20.1958 C   0  0  0  0  0  0  0  0  0  0  0  0
  -23.0949   -8.7236   22.4879 C   0  0  0  0  0  0  0  0  0  0  0  0
  -30.3423  -21.6097   28.5202 C   0  0  0  0  0  0  0  0  0  0  0  0
  -19.8681   -7.9244   23.0963 C   0  0  0  0  0  0  0  0  0  0  0  0
  -19.1132   -7.8848   24.2685 C   0  0  0  0  0  0  0  0  0  0  0  0
  -32.0312  -21.2312   26.8399 C   0  0  0  0  0  0  0  0  0  0  0  0
  -29.8151  -17.3721   24.1342 C   0  0  0  0  0  0  0  0  0  0  0  0
  -29.3410  -18.8778   22.3053 C   0  0  0  0  0  0  0  0  0  0  0  0
  -20.3568   -5.9485   25.0041 C   0  0  0  0  0  0  0  0  0  0  0  0
  -23.8274  -10.4492   20.9639 C   0  0  0  0  0  0  0  0  0  0  0  0
  -24.1676  -12.9744   20.8416 C   0  0  0  0  0  0  0  0  0  0  0  0
  -26.1250  -26.5206   23.9878 C   0  0  0  0  0  0  0  0  0  0  0  0
  -31.1093  -23.4500   27.1345 C   0  0  0  0  0  0  0  0  0  0  0  0
  -26.9299  -25.3873   24.2120 C   0  0  0  0  0  0  0  0  0  0  0  0
  -31.9944  -22.5856   26.4746 C   0  0  0  0  0  0  0  0  0  0  0  0
  -29.9703  -17.7338   22.7960 C   0  0  0  0  0  0  0  0  0  0  0  0
  -28.4010  -19.2983   24.4909 C   0  0  0  0  0  0  0  0  0  0  0  0
  -22.3416   -8.1424   21.4678 C   0  0  0  0  0  0  0  0  0  0  0  0
  -31.2083  -20.7460   27.8559 C   0  0  0  0  0  0  0  0  0  0  0  0
  -20.8675   -6.9760   22.8780 C   0  0  0  0  0  0  0  0  0  0  0  0
  -29.0304  -18.1543   24.9816 C   0  0  0  0  0  0  0  0  0  0  0  0
  -19.3575   -6.8969   25.2224 C   0  0  0  0  0  0  0  0  0  0  0  0
  -28.5564  -19.6601   23.1527 C   0  0  0  0  0  0  0  0  0  0  0  0
  -21.1118   -5.9881   23.8319 C   0  0  0  0  0  0  0  0  0  0  0  0
  -24.5954  -11.6403   20.7041 C   0  0  0  0  0  0  0  0  0  0  0  0
  -25.2588  -13.7243   20.4761 C   0  0  0  0  0  0  0  0  0  0  0  0
  -22.8976  -13.4898   21.2623 C   0  0  0  0  0  0  0  0  0  0  0  0
  -30.5777  -24.8068   24.3096 C   0  0  0  0  0  0  0  0  0  0  0  0
  -33.8003  -25.1770   24.3179 C   0  0  0  0  0  0  0  0  0  0  0  0
  -36.8340  -24.1286   25.4771 C   0  0  0  0  0  0  0  0  0  0  0  0
  -30.7423  -14.7464   20.6547 C   0  0  0  0  0  0  0  0  0  0  0  0
  -26.5001  -27.5718   22.9734 C   0  0  0  0  0  0  0  0  0  0  0  0
  -31.0659  -24.9113   26.7808 C   0  0  0  0  0  0  0  0  0  0  0  0
  -32.9038  -23.0693   25.3758 C   0  0  0  0  0  0  0  0  0  0  0  0
  -27.9706  -27.5280   22.5661 C   0  0  0  0  0  0  0  0  0  0  0  0
  -29.6020  -12.3597   18.2714 C   0  0  0  0  0  0  0  0  0  0  0  0
  -28.3990  -26.0951   22.2661 C   0  0  0  0  0  0  0  0  0  0  0  0
  -28.1654  -12.0655   18.7069 C   0  0  0  0  0  0  0  0  0  0  0  0
  -30.5210  -12.5818   19.4706 C   0  0  0  0  0  0  0  0  0  0  0  0
  -28.6212  -13.3128   20.8598 C   0  0  0  0  0  0  0  0  0  0  0  0
  -28.2565  -25.2055   23.5070 C   0  0  1  0  0  0  0  0  0  0  0  0
  -31.5679  -25.1995   25.3693 C   0  0  1  0  0  0  0  0  0  0  0  0
  -27.6451  -13.1369   19.6839 C   0  0  2  0  0  0  0  0  0  0  0  0
  -25.3332  -20.3606   26.5801 C   0  0  0  0  0  0  0  0  0  0  0  0
  -31.2804  -16.6913   30.5293 C   0  0  0  0  0  0  0  0  0  0  0  0
  -39.2903  -24.6011   25.2756 C   0  0  0  0  0  0  0  0  0  0  0  0
  -33.8407  -23.7938   21.5985 C   0  0  0  0  0  0  0  0  0  0  0  0
  -36.3027  -23.4448   21.8905 C   0  0  0  0  0  0  0  0  0  0  0  0
  -35.3758  -25.7587   21.7924 C   0  0  0  0  0  0  0  0  0  0  0  0
  -37.0630  -24.7801   28.3550 C   0  0  0  0  0  0  0  0  0  0  0  0
  -27.5563  -20.1440   25.3859 C   0  0  0  0  0  0  0  0  0  0  0  0
  -30.8090  -16.8978   21.8900 C   0  0  0  0  0  0  0  0  0  0  0  0
  -26.1792  -19.5147   25.6417 C   0  0  0  0  0  0  0  0  0  0  0  0
  -31.1881  -16.5638   29.0153 C   0  0  0  0  0  0  0  0  0  0  0  0
  -30.0557  -18.8482   28.7078 C   0  0  0  0  0  0  0  0  0  1  0  0
  -29.9766  -17.0852   26.8836 C   0  0  0  0  0  0  0  0  0  0  0  0
  -34.9728  -24.3483   23.8517 C   0  0  1  0  0  0  0  0  0  0  0  0
  -38.0137  -24.8946   26.0481 C   0  0  2  0  0  0  0  0  0  0  0  0
  -30.0089  -17.3424   28.3992 C   0  0  1  0  0  0  0  0  0  0  0  0
  -35.1046  -24.3266   22.3027 C   0  0  0  0  0  0  0  0  0  0  0  0
  -25.8596  -11.5449   20.2838 N   0  0  0  0  0  0  0  0  0  0  0  0
  -26.2356  -12.8286   20.1540 N   0  0  0  0  0  0  0  0  0  0  0  0
  -32.8200  -24.5053   25.0619 N   0  0  0  0  0  0  0  0  0  0  0  0
  -29.9714  -13.6106   20.3568 N   0  0  0  0  0  0  0  0  0  0  0  0
  -25.4683  -15.0558   20.4018 N   0  0  0  0  0  0  0  0  0  0  0  0
  -21.8867  -12.5804   21.6019 N   0  0  0  0  0  0  0  0  0  0  0  0
  -29.3529  -25.4364   24.4230 N   0  0  0  0  0  0  0  0  0  0  0  0
  -36.1448  -24.8736   24.5438 N   0  0  0  0  0  0  0  0  0  0  0  0
  -30.1440  -15.6755   21.4971 N   0  0  0  0  0  0  0  0  0  0  0  0
  -38.2315  -24.5224   27.4746 N   0  3  0  0  0  0  0  0  0  0  0  0
  -22.6607  -14.7204   21.3193 O   0  0  0  0  0  0  0  0  0  0  0  0
  -30.9014  -23.9939   23.4516 O   0  0  0  0  0  0  0  0  0  0  0  0
  -33.7593  -26.3778   24.0384 O   0  0  0  0  0  0  0  0  0  0  0  0
  -36.5543  -22.9825   25.8217 O   0  0  0  0  0  0  0  0  0  0  0  0
  -31.8774  -14.9222   20.1990 O   0  0  0  0  0  0  0  0  0  0  0  0
  -21.6167   -7.0171   21.7141 O   0  0  0  0  0  0  0  0  0  0  0  0
  -31.2558  -19.4305   28.2008 O   0  0  0  0  0  0  0  0  0  1  0  0
  -28.8885  -17.7845   26.2935 O   0  0  0  0  0  0  0  0  0  0  0  0
  -18.6334   -6.8600   26.3487 F   0  0  0  0  0  0  0  0  0  0  0  0
  -27.9558  -20.7576   22.6714 F   0  0  0  0  0  0  0  0  0  0  0  0
  -22.0713   -5.0750   23.6283 F   0  0  0  0  0  0  0  0  0  0  0  0
  1  2  1  0  0  0  0
  1  5  2  0  0  0  0
  2  6  2  0  0  0  0
  3  8  2  0  0  0  0
  3 17  1  0  0  0  0
  4  9  1  0  0  0  0
  4 17  2  0  0  0  0
  5 19  1  0  0  0  0
  6 21  1  0  0  0  0
  7 10  2  0  0  0  0
  7 20  1  0  0  0  0
  8 25  1  0  0  0  0
  9 25  2  0  0  0  0
 10 26  1  0  0  0  0
 11 12  2  0  0  0  0
 11 27  1  0  0  0  0
 12 29  1  0  0  0  0
 13 22  1  0  0  0  0
 13 26  2  0  0  0  0
 14 23  2  0  0  0  0
 14 28  1  0  0  0  0
 15 23  1  0  0  0  0
 15 30  2  0  0  0  0
 16 29  2  0  0  0  0
 16 31  1  0  0  0  0
 17 32  1  0  0  0  0
 18 32  1  0  0  0  0
 18 33  2  0  0  0  0
 18 34  1  0  0  0  0
 19 21  2  0  0  0  0
 19 39  1  0  0  0  0
 20 22  2  0  0  0  0
 20 40  1  0  0  0  0
 21 48  1  0  0  0  0
 22 41  1  0  0  0  0
 23 59  1  0  0  0  0
 24 28  2  0  0  0  0
 24 30  1  0  0  0  0
 24 58  1  0  0  0  0
 25 83  1  0  0  0  0
 26 84  1  0  0  0  0
 27 31  2  0  0  0  0
 27 83  1  0  0  0  0
 28 85  1  0  0  0  0
 29 86  1  0  0  0  0
 30 87  1  0  0  0  0
 31 88  1  0  0  0  0
 32 68  2  0  0  0  0
 33 69  1  0  0  0  0
 33 72  1  0  0  0  0
 34 73  1  0  0  0  0
 34 78  2  0  0  0  0
 35 49  1  0  0  0  0
 35 74  1  0  0  0  0
 35 79  2  0  0  0  0
 36 64  1  0  0  0  0
 36 70  1  0  0  0  0
 36 80  2  0  0  0  0
 37 65  1  0  0  0  0
 37 75  1  0  0  0  0
 37 81  2  0  0  0  0
 38 71  1  0  0  0  0
 38 76  1  0  0  0  0
 38 82  2  0  0  0  0
 39 42  1  0  0  0  0
 40 49  1  0  0  0  0
 41 70  1  0  0  0  0
 42 44  1  0  0  0  0
 43 45  1  0  0  0  0
 43 46  1  0  0  0  0
 44 48  1  0  0  0  0
 45 50  1  0  0  0  0
 46 71  1  0  0  0  0
 47 50  1  0  0  0  0
 47 71  1  0  0  0  0
 48 74  1  0  0  0  0
 49 70  1  0  0  0  0
 50 69  1  0  0  0  0
 51 60  1  0  0  0  0
 52 61  1  0  0  0  0
 53 65  1  0  0  0  0
 54 67  1  0  0  0  0
 55 67  1  0  0  0  0
 56 67  1  0  0  0  0
 57 77  1  0  0  0  0
 58 60  1  0  0  0  0
 59 76  1  0  0  0  0
 61 66  1  0  0  0  0
 62 66  1  0  0  0  0
 62 84  1  0  0  0  0
 63 66  1  0  0  0  0
 63 85  1  0  0  0  0
 64 67  1  0  0  0  0
 64 75  1  0  0  0  0
 65 77  1  0  0  0  0
 68 69  1  0  0  0  0
M  CHG  1  77   1
M  ISO  4  38 100  62 101  76 100  84 101
M  END
> <Batch ID>
0134

> <Smiles>
CCCc1c(F)cc(C[100NH:0][100C:0](=O)N2CCCC(n3nc(-c4ccc(Oc5ccc(F)cc5F)cc4)c(C(N)=O)c3N)C2)cc1OCC(CC)[101CH2:1][101O:1]c1ccc2c(c1)CN(C(=O)C(NC(=O)C(C)NC)C(C)(C)C)C(C(=O)NC1CCCc3ccccc31)C2

> <Shape>
0.170

> <Color>
0.187

> <Negative vol penalty>
0.000

$$$$

  -OEChem-04052302333D

 85 93  0     1  0  0  0  0  0999 V2000
  -19.8506  -27.9946   26.7049 C   0  0  0  0  0  0  0  0  0  0  0  0
  -21.0791  -27.5851   26.1962 C   0  0  0  0  0  0  0  0  0  0  0  0
  -26.4843  -10.8363   20.5942 C   0  0  0  0  0  0  0  0  0  0  0  0
  -25.7225  -12.3788   18.8979 C   0  0  0  0  0  0  0  0  0  0  0  0
  -18.8479  -28.4275   25.8382 C   0  0  0  0  0  0  0  0  0  0  0  0
  -21.3051  -27.6074   24.8204 C   0  0  0  0  0  0  0  0  0  0  0  0
  -25.8214  -29.5618   23.6251 C   0  0  0  0  0  0  0  0  0  0  0  0
  -25.2188  -10.2508   20.6302 C   0  0  0  0  0  0  0  0  0  0  0  0
  -24.4570  -11.7933   18.9338 C   0  0  0  0  0  0  0  0  0  0  0  0
  -26.9346  -28.7384   23.7875 C   0  0  0  0  0  0  0  0  0  0  0  0
  -23.4415   -8.0448   18.7843 C   0  0  0  0  0  0  0  0  0  0  0  0
  -23.3717   -6.6517   18.7906 C   0  0  0  0  0  0  0  0  0  0  0  0
  -26.9248  -28.2688   21.4213 C   0  0  0  0  0  0  0  0  0  0  0  0
  -28.2391  -20.1118   18.7274 C   0  0  0  0  0  0  0  0  0  0  0  0
  -28.8820  -21.0995   20.8365 C   0  0  0  0  0  0  0  0  0  0  0  0
  -22.2205   -6.7190   20.9137 C   0  0  0  0  0  0  0  0  0  0  0  0
  -26.7362  -11.9003   19.7281 C   0  0  0  0  0  0  0  0  0  0  0  0
  -29.1268  -12.1394   18.8706 C   0  0  0  0  0  0  0  0  0  0  0  0
  -19.0652  -28.4642   24.4518 C   0  0  0  0  0  0  0  0  0  0  0  0
  -25.2438  -29.7366   22.3593 C   0  0  0  0  0  0  0  0  0  0  0  0
  -20.3040  -28.0399   23.9343 C   0  0  0  0  0  0  0  0  0  0  0  0
  -25.8058  -29.0970   21.2452 C   0  0  0  0  0  0  0  0  0  0  0  0
  -27.6414  -21.3133   18.3469 C   0  0  0  0  0  0  0  0  0  0  0  0
  -27.6640  -22.4079   19.2112 C   0  0  0  0  0  0  0  0  0  0  0  0
  -28.8594  -20.0049   19.9723 C   0  0  0  0  0  0  0  0  0  0  0  0
  -24.2052  -10.7293   19.8000 C   0  0  0  0  0  0  0  0  0  0  0  0
  -27.4848  -28.0894   22.6860 C   0  0  0  0  0  0  0  0  0  0  0  0
  -22.9008   -8.7750   19.8428 C   0  0  0  0  0  0  0  0  0  0  0  0
  -28.2843  -22.3010   20.4560 C   0  0  0  0  0  0  0  0  0  0  0  0
  -22.7612   -5.9888   19.8552 C   0  0  0  0  0  0  0  0  0  0  0  0
  -22.2903   -8.1121   20.9074 C   0  0  0  0  0  0  0  0  0  0  0  0
  -28.0431  -12.5059   19.6909 C   0  0  0  0  0  0  0  0  0  0  0  0
  -30.1288  -13.0137   19.2144 C   0  0  0  0  0  0  0  0  0  0  0  0
  -29.2195  -11.1015   17.8858 C   0  0  0  0  0  0  0  0  0  0  0  0
  -22.3995  -29.1109   21.0857 C   0  0  0  0  0  0  0  0  0  0  0  0
  -23.6297  -30.6886   18.5323 C   0  0  0  0  0  0  0  0  0  0  0  0
  -26.3968  -31.7003   16.8100 C   0  0  0  0  0  0  0  0  0  0  0  0
  -30.1243  -18.5105   21.5575 C   0  0  0  0  0  0  0  0  0  0  0  0
  -17.9349  -28.8952   23.5511 C   0  0  0  0  0  0  0  0  0  0  0  0
  -24.0594  -30.6493   22.1966 C   0  0  0  0  0  0  0  0  0  0  0  0
  -25.2356  -29.2675   19.8616 C   0  0  0  0  0  0  0  0  0  0  0  0
  -18.3839  -29.2433   22.1342 C   0  0  0  0  0  0  0  0  0  0  0  0
  -31.7191  -15.6244   22.9007 C   0  0  0  0  0  0  0  0  0  0  0  0
  -19.3267  -28.1723   21.5948 C   0  0  0  0  0  0  0  0  0  0  0  0
  -31.0604  -14.4642   22.1510 C   0  0  0  0  0  0  0  0  0  0  0  0
  -30.7241  -16.7444   23.1995 C   0  0  0  0  0  0  0  0  0  0  0  0
  -29.3225  -16.0818   21.2849 C   0  0  0  0  0  0  0  0  0  0  0  0
  -20.5959  -28.0731   22.4498 C   0  0  1  0  0  0  0  0  0  0  0  0
  -23.2404  -30.3481   20.9452 C   0  0  1  0  0  0  0  0  0  0  0  0
  -30.3002  -14.9579   20.9045 C   0  0  2  0  0  0  0  0  0  0  0  0
  -27.9946  -21.5489   15.8758 C   0  0  0  0  0  0  0  0  0  0  0  0
  -25.6771  -23.9125   19.4847 C   0  0  0  0  0  0  0  0  0  0  0  0
  -27.0841  -32.9413   14.7400 C   0  0  0  0  0  0  0  0  0  0  0  0
  -22.8896  -28.2631   16.8354 C   0  0  0  0  0  0  0  0  0  0  0  0
  -24.4139  -29.1340   15.0505 C   0  0  0  0  0  0  0  0  0  0  0  0
  -22.4296  -30.4713   15.7554 C   0  0  0  0  0  0  0  0  0  0  0  0
  -27.8312  -33.7586   18.3800 C   0  0  0  0  0  0  0  0  0  0  0  0
  -26.9835  -21.4024   17.0089 C   0  0  0  0  0  0  0  0  0  0  0  0
  -27.0268  -23.6991   18.8076 C   0  0  0  0  0  0  0  0  0  0  0  0
  -29.4507  -25.0495   22.6139 C   0  0  0  0  0  0  0  0  0  0  0  0
  -28.7012  -26.1873   21.9388 C   0  0  0  0  0  0  0  0  0  1  0  0
  -29.5996  -23.8443   21.6986 C   0  0  0  0  0  0  0  0  0  0  0  0
  -24.4172  -30.2903   17.3075 C   0  0  1  0  0  0  0  0  0  0  0  0
  -26.7836  -33.0475   16.2269 C   0  0  2  0  0  0  0  0  0  0  0  0
  -23.5474  -29.5347   16.2634 C   0  0  0  0  0  0  0  0  0  0  0  0
  -28.3296  -13.5329   20.4954 N   0  0  0  0  0  0  0  0  0  0  0  0
  -29.6048  -13.8191   20.1823 N   0  0  0  0  0  0  0  0  0  0  0  0
  -24.0736  -30.1652   19.7549 N   0  0  0  0  0  0  0  0  0  0  0  0
  -30.0451  -17.1640   21.9716 N   0  0  0  0  0  0  0  0  0  0  0  0
  -31.3981  -13.1642   18.7802 N   0  0  0  0  0  0  0  0  0  0  0  0
  -28.0964  -10.2947   17.6576 N   0  0  0  0  0  0  0  0  0  0  0  0
  -29.4671  -18.7845   20.3585 N   0  0  0  0  0  0  0  0  0  0  0  0
  -21.5026  -29.1565   22.1359 N   0  0  0  0  0  0  0  0  0  0  0  0
  -25.0307  -31.5133   16.8011 N   0  0  0  0  0  0  0  0  0  0  0  0
  -27.9937  -33.5811   16.9140 N   0  3  0  0  0  0  0  0  0  0  0  0
  -30.2724  -10.8850   17.2393 O   0  0  0  0  0  0  0  0  0  0  0  0
  -22.5520  -28.1841   20.2986 O   0  0  0  0  0  0  0  0  0  0  0  0
  -22.6608  -31.4421   18.4096 O   0  0  0  0  0  0  0  0  0  0  0  0
  -27.2240  -30.8930   17.2278 O   0  0  0  0  0  0  0  0  0  0  0  0
  -30.7534  -19.3522   22.2038 O   0  0  0  0  0  0  0  0  0  0  0  0
  -22.9702  -10.1580   19.8347 O   0  0  0  0  0  0  0  0  0  0  0  0
  -28.5710  -27.2846   22.8417 O   0  0  0  0  0  0  0  0  0  1  0  0
  -28.3165  -23.3658   21.3185 O   0  0  0  0  0  0  0  0  0  0  0  0
  -22.6928   -4.6511   19.8604 F   0  0  0  0  0  0  0  0  0  0  0  0
  -21.7681   -8.8082   21.9265 F   0  0  0  0  0  0  0  0  0  0  0  0
  1  2  1  0  0  0  0
  1  5  2  0  0  0  0
  2  6  2  0  0  0  0
  3  8  2  0  0  0  0
  3 17  1  0  0  0  0
  4  9  1  0  0  0  0
  4 17  2  0  0  0  0
  5 19  1  0  0  0  0
  6 21  1  0  0  0  0
  7 10  2  0  0  0  0
  7 20  1  0  0  0  0
  8 26  1  0  0  0  0
  9 26  2  0  0  0  0
 10 27  1  0  0  0  0
 11 12  2  0  0  0  0
 11 28  1  0  0  0  0
 12 30  1  0  0  0  0
 13 22  1  0  0  0  0
 13 27  2  0  0  0  0
 14 23  1  0  0  0  0
 14 25  2  0  0  0  0
 15 25  1  0  0  0  0
 15 29  2  0  0  0  0
 16 30  2  0  0  0  0
 16 31  1  0  0  0  0
 17 32  1  0  0  0  0
 18 32  1  0  0  0  0
 18 33  2  0  0  0  0
 18 34  1  0  0  0  0
 19 21  2  0  0  0  0
 19 39  1  0  0  0  0
 20 22  2  0  0  0  0
 20 40  1  0  0  0  0
 21 48  1  0  0  0  0
 22 41  1  0  0  0  0
 23 24  2  0  0  0  0
 23 58  1  0  0  0  0
 24 29  1  0  0  0  0
 24 59  1  0  0  0  0
 25 72  1  0  0  0  0
 26 81  1  0  0  0  0
 27 82  1  0  0  0  0
 28 31  2  0  0  0  0
 28 81  1  0  0  0  0
 29 83  1  0  0  0  0
 30 84  1  0  0  0  0
 31 85  1  0  0  0  0
 32 66  2  0  0  0  0
 33 67  1  0  0  0  0
 33 70  1  0  0  0  0
 34 71  1  0  0  0  0
 34 76  2  0  0  0  0
 35 49  1  0  0  0  0
 35 73  1  0  0  0  0
 35 77  2  0  0  0  0
 36 63  1  0  0  0  0
 36 68  1  0  0  0  0
 36 78  2  0  0  0  0
 37 64  1  0  0  0  0
 37 74  1  0  0  0  0
 37 79  2  0  0  0  0
 38 69  1  0  0  0  0
 38 72  1  0  0  0  0
 38 80  2  0  0  0  0
 39 42  1  0  0  0  0
 40 49  1  0  0  0  0
 41 68  1  0  0  0  0
 42 44  1  0  0  0  0
 43 45  1  0  0  0  0
 43 46  1  0  0  0  0
 44 48  1  0  0  0  0
 45 50  1  0  0  0  0
 46 69  1  0  0  0  0
 47 50  1  0  0  0  0
 47 69  1  0  0  0  0
 48 73  1  0  0  0  0
 49 68  1  0  0  0  0
 50 67  1  0  0  0  0
 51 58  1  0  0  0  0
 52 59  1  0  0  0  0
 53 64  1  0  0  0  0
 54 65  1  0  0  0  0
 55 65  1  0  0  0  0
 56 65  1  0  0  0  0
 57 75  1  0  0  0  0
 60 61  1  0  0  0  0
 60 62  1  0  0  0  0
 61 82  1  0  0  0  0
 62 83  1  0  0  0  0
 63 65  1  0  0  0  0
 63 74  1  0  0  0  0
 64 75  1  0  0  0  0
 66 67  1  0  0  0  0
M  CHG  1  75   1
M  ISO  4  38 100  61 101  72 100  82 101
M  END
> <Batch ID>
0134

> <Smiles>
CCc1cc([100NH:0][100C:0](=O)N2CCCC(n3nc(-c4ccc(Oc5ccc(F)cc5F)cc4)c(C(N)=O)c3N)C2)cc(OCC[101CH2:1][101O:1]c2ccc3c(c2)CN(C(=O)C(NC(=O)C(C)NC)C(C)(C)C)C(C(=O)NC2CCCc4ccccc42)C3)c1CC

> <Shape>
0.271

> <Color>
0.062

> <Negative vol penalty>
0.000

$$$$

  -OEChem-04052302333D

 86 94  0     1  0  0  0  0  0999 V2000
  -18.2405  -31.2643   18.8603 C   0  0  0  0  0  0  0  0  0  0  0  0
  -19.3408  -31.0768   18.0299 C   0  0  0  0  0  0  0  0  0  0  0  0
  -24.3625   -9.0876   19.8960 C   0  0  0  0  0  0  0  0  0  0  0  0
  -24.4807   -9.5958   22.2550 C   0  0  0  0  0  0  0  0  0  0  0  0
  -18.4267  -31.6657   20.1824 C   0  0  0  0  0  0  0  0  0  0  0  0
  -20.6281  -31.2917   18.5211 C   0  0  0  0  0  0  0  0  0  0  0  0
  -26.7788  -26.4791   18.7063 C   0  0  0  0  0  0  0  0  0  0  0  0
  -24.1178   -7.7478   20.1969 C   0  0  0  0  0  0  0  0  0  0  0  0
  -24.2360   -8.2559   22.5559 C   0  0  0  0  0  0  0  0  0  0  0  0
  -27.8896  -25.6677   18.9385 C   0  0  0  0  0  0  0  0  0  0  0  0
  -21.5731   -6.1789   22.6803 C   0  0  0  0  0  0  0  0  0  0  0  0
  -20.6424   -5.9005   23.6812 C   0  0  0  0  0  0  0  0  0  0  0  0
  -28.5068  -27.0368   20.8339 C   0  0  0  0  0  0  0  0  0  0  0  0
  -27.6568  -20.8439   24.1997 C   0  0  0  0  0  0  0  0  0  0  0  0
  -28.9184  -19.2293   22.9197 C   0  0  0  0  0  0  0  0  0  0  0  0
  -22.3506   -4.7582   24.9518 C   0  0  0  0  0  0  0  0  0  0  0  0
  -24.5440  -10.0116   20.9251 C   0  0  0  0  0  0  0  0  0  0  0  0
  -23.8436  -12.4168   20.4431 C   0  0  0  0  0  0  0  0  0  0  0  0
  -19.7173  -31.8763   20.6928 C   0  0  0  0  0  0  0  0  0  0  0  0
  -26.5190  -27.5647   19.5474 C   0  0  0  0  0  0  0  0  0  0  0  0
  -20.8317  -31.6976   19.8509 C   0  0  0  0  0  0  0  0  0  0  0  0
  -27.3888  -27.8457   20.6138 C   0  0  0  0  0  0  0  0  0  0  0  0
  -26.4690  -20.2275   23.8066 C   0  0  0  0  0  0  0  0  0  0  0  0
  -26.5058  -19.1120   22.9700 C   0  0  0  0  0  0  0  0  0  0  0  0
  -27.7305  -18.6129   22.5265 C   0  0  0  0  0  0  0  0  0  0  0  0
  -24.0545   -7.3319   21.5268 C   0  0  0  0  0  0  0  0  0  0  0  0
  -28.7515  -25.9460   19.9995 C   0  0  0  0  0  0  0  0  0  0  0  0
  -22.8925   -5.7468   22.8150 C   0  0  0  0  0  0  0  0  0  0  0  0
  -28.8816  -20.3449   23.7562 C   0  0  0  0  0  0  0  0  0  0  0  0
  -21.0312   -5.1902   24.8170 C   0  0  0  0  0  0  0  0  0  0  0  0
  -23.2813   -5.0365   23.9508 C   0  0  0  0  0  0  0  0  0  0  0  0
  -24.7974  -11.3957   20.6150 C   0  0  0  0  0  0  0  0  0  0  0  0
  -24.5869  -13.5378   20.1652 C   0  0  0  0  0  0  0  0  0  0  0  0
  -33.3134  -21.9508   23.7551 C   0  0  0  0  0  0  0  0  0  0  0  0
  -22.4135  -12.3572   20.5271 C   0  0  0  0  0  0  0  0  0  0  0  0
  -32.0234  -22.0852   23.4076 C   0  0  0  0  0  0  0  0  0  0  0  0
  -24.2713  -30.4530   20.3731 C   0  0  0  0  0  0  0  0  0  0  0  0
  -25.0906  -29.1715   23.0371 C   0  0  0  0  0  0  0  0  0  0  0  0
  -25.8858  -27.2187   25.7188 C   0  0  0  0  0  0  0  0  0  0  0  0
  -28.9348  -16.8699   21.1633 C   0  0  0  0  0  0  0  0  0  0  0  0
  -19.8663  -32.3554   22.1151 C   0  0  0  0  0  0  0  0  0  0  0  0
  -25.3687  -28.5020   19.2979 C   0  0  0  0  0  0  0  0  0  0  0  0
  -27.0891  -29.0445   21.4717 C   0  0  0  0  0  0  0  0  0  0  0  0
  -21.2817  -32.1993   22.6653 C   0  0  0  0  0  0  0  0  0  0  0  0
  -29.5041  -14.0428   19.0752 C   0  0  0  0  0  0  0  0  0  0  0  0
  -22.3061  -32.7061   21.6550 C   0  0  0  0  0  0  0  0  0  0  0  0
  -28.2519  -13.1861   19.2755 C   0  0  0  0  0  0  0  0  0  0  0  0
  -29.9297  -14.7362   20.3682 C   0  0  0  0  0  0  0  0  0  0  0  0
  -27.6236  -14.6582   21.2313 C   0  0  0  0  0  0  0  0  0  0  0  0
  -22.2450  -31.8967   20.3540 C   0  0  1  0  0  0  0  0  0  0  0  0
  -24.7408  -29.0451   20.5941 C   0  0  1  0  0  0  0  0  0  0  0  0
  -27.1188  -13.9913   19.9413 C   0  0  2  0  0  0  0  0  0  0  0  0
  -25.1712  -20.7817   24.2963 C   0  0  0  0  0  0  0  0  0  0  0  0
  -25.2285  -18.4529   22.5531 C   0  0  0  0  0  0  0  0  0  0  0  0
  -25.5709  -27.0615   28.2034 C   0  0  0  0  0  0  0  0  0  0  0  0
  -27.1621  -31.3747   23.4353 C   0  0  0  0  0  0  0  0  0  0  0  0
  -27.5027  -30.5348   25.7691 C   0  0  0  0  0  0  0  0  0  0  0  0
  -25.2728  -31.4102   25.0735 C   0  0  0  0  0  0  0  0  0  0  0  0
  -24.4827  -24.6226   25.4935 C   0  0  0  0  0  0  0  0  0  0  0  0
  -31.4131  -23.4515   23.1889 C   0  0  0  0  0  0  0  0  0  0  0  0
  -31.1389  -20.8805   23.2333 C   0  0  0  0  0  0  0  0  0  0  0  0
  -30.9248  -23.6561   21.7541 C   0  0  0  0  0  0  0  0  0  0  0  0
  -30.2779  -25.0230   21.5730 C   0  0  0  0  0  0  0  0  0  1  0  0
  -26.0536  -29.1709   24.1972 C   0  0  1  0  0  0  0  0  0  0  0  0
  -25.0342  -26.6524   26.8406 C   0  0  2  0  0  0  0  0  0  0  0  0
  -26.5013  -30.6053   24.5965 C   0  0  0  0  0  0  0  0  0  0  0  0
  -26.0510  -11.8296   20.4592 N   0  0  0  0  0  0  0  0  0  0  0  0
  -25.8900  -13.1357   20.1864 N   0  0  0  0  0  0  0  0  0  0  0  0
  -25.6466  -29.1126   21.7534 N   0  0  0  0  0  0  0  0  0  0  0  0
  -28.8068  -15.4827   20.9396 N   0  0  0  0  0  0  0  0  0  0  0  0
  -24.2465  -14.8184   19.9072 N   0  0  0  0  0  0  0  0  0  0  0  0
  -21.8122  -11.1260   20.8217 N   0  0  0  0  0  0  0  0  0  0  0  0
  -27.7912  -17.4787   21.6793 N   0  0  0  0  0  0  0  0  0  0  0  0
  -22.9077  -30.6210   20.5208 N   0  0  0  0  0  0  0  0  0  0  0  0
  -25.4002  -28.4286   25.2698 N   0  0  0  0  0  0  0  0  0  0  0  0
  -25.0107  -25.1639   26.7723 N   0  3  0  0  0  0  0  0  0  0  0  0
  -21.6895  -13.3625   20.3301 O   0  0  0  0  0  0  0  0  0  0  0  0
  -25.0856  -31.3242   20.0907 O   0  0  0  0  0  0  0  0  0  0  0  0
  -23.8780  -29.2284   23.2599 O   0  0  0  0  0  0  0  0  0  0  0  0
  -26.8842  -26.6469   25.2867 O   0  0  0  0  0  0  0  0  0  0  0  0
  -29.9726  -17.4783   20.8898 O   0  0  0  0  0  0  0  0  0  0  0  0
  -23.8155   -6.0246   21.8207 O   0  0  0  0  0  0  0  0  0  0  0  0
  -30.0484  -20.9518   24.1420 O   0  0  0  0  0  0  0  0  0  0  0  0
  -29.8316  -25.1471   20.2233 O   0  0  0  0  0  0  0  0  0  1  0  0
  -20.1377   -4.9243   25.7789 F   0  0  0  0  0  0  0  0  0  0  0  0
  -24.5477   -4.6199   24.0864 F   0  0  0  0  0  0  0  0  0  0  0  0
  1  2  1  0  0  0  0
  1  5  2  0  0  0  0
  2  6  2  0  0  0  0
  3  8  2  0  0  0  0
  3 17  1  0  0  0  0
  4  9  1  0  0  0  0
  4 17  2  0  0  0  0
  5 19  1  0  0  0  0
  6 21  1  0  0  0  0
  7 10  2  0  0  0  0
  7 20  1  0  0  0  0
  8 26  1  0  0  0  0
  9 26  2  0  0  0  0
 10 27  1  0  0  0  0
 11 12  2  0  0  0  0
 11 28  1  0  0  0  0
 12 30  1  0  0  0  0
 13 22  1  0  0  0  0
 13 27  2  0  0  0  0
 14 23  2  0  0  0  0
 14 29  1  0  0  0  0
 15 25  1  0  0  0  0
 15 29  2  0  0  0  0
 16 30  2  0  0  0  0
 16 31  1  0  0  0  0
 17 32  1  0  0  0  0
 18 32  1  0  0  0  0
 18 33  2  0  0  0  0
 18 35  1  0  0  0  0
 19 21  2  0  0  0  0
 19 41  1  0  0  0  0
 20 22  2  0  0  0  0
 20 42  1  0  0  0  0
 21 50  1  0  0  0  0
 22 43  1  0  0  0  0
 23 24  1  0  0  0  0
 23 53  1  0  0  0  0
 24 25  2  0  0  0  0
 24 54  1  0  0  0  0
 25 73  1  0  0  0  0
 26 82  1  0  0  0  0
 27 84  1  0  0  0  0
 28 31  2  0  0  0  0
 28 82  1  0  0  0  0
 29 83  1  0  0  0  0
 30 85  1  0  0  0  0
 31 86  1  0  0  0  0
 32 67  2  0  0  0  0
 33 68  1  0  0  0  0
 33 71  1  0  0  0  0
 34 36  2  0  0  0  0
 35 72  1  0  0  0  0
 35 77  2  0  0  0  0
 36 60  1  0  0  0  0
 36 61  1  0  0  0  0
 37 51  1  0  0  0  0
 37 74  1  0  0  0  0
 37 78  2  0  0  0  0
 38 64  1  0  0  0  0
 38 69  1  0  0  0  0
 38 79  2  0  0  0  0
 39 65  1  0  0  0  0
 39 75  1  0  0  0  0
 39 80  2  0  0  0  0
 40 70  1  0  0  0  0
 40 73  1  0  0  0  0
 40 81  2  0  0  0  0
 41 44  1  0  0  0  0
 42 51  1  0  0  0  0
 43 69  1  0  0  0  0
 44 46  1  0  0  0  0
 45 47  1  0  0  0  0
 45 48  1  0  0  0  0
 46 50  1  0  0  0  0
 47 52  1  0  0  0  0
 48 70  1  0  0  0  0
 49 52  1  0  0  0  0
 49 70  1  0  0  0  0
 50 74  1  0  0  0  0
 51 69  1  0  0  0  0
 52 68  1  0  0  0  0
 55 65  1  0  0  0  0
 56 66  1  0  0  0  0
 57 66  1  0  0  0  0
 58 66  1  0  0  0  0
 59 76  1  0  0  0  0
 60 62  1  0  0  0  0
 61 83  1  0  0  0  0
 62 63  1  0  0  0  0
 63 84  1  0  0  0  0
 64 66  1  0  0  0  0
 64 75  1  0  0  0  0
 65 76  1  0  0  0  0
 67 68  1  0  0  0  0
M  CHG  1  76   1
M  ISO  4  40 100  63 101  73 100  84 101
M  END
> <Batch ID>
0134

> <Smiles>
C=C(CC[101CH2:1][101O:1]c1ccc2c(c1)CN(C(=O)C(NC(=O)C(C)NC)C(C)(C)C)C(C(=O)NC1CCCc3ccccc31)C2)COc1cc(C)c(C)c([100NH:0][100C:0](=O)N2CCCC(n3nc(-c4ccc(Oc5ccc(F)cc5F)cc4)c(C(N)=O)c3N)C2)c1

> <Shape>
0.250

> <Color>
0.119

> <Negative vol penalty>
0.000

$$$$

  -OEChem-04052302333D

 86 94  0     1  0  0  0  0  0999 V2000
  -22.5918  -17.8395   22.4725 C   0  0  0  0  0  0  0  0  0  0  0  0
  -23.6092  -18.7686   22.6645 C   0  0  0  0  0  0  0  0  0  0  0  0
  -23.6892   -9.5020   21.1529 C   0  0  0  0  0  0  0  0  0  0  0  0
  -24.2058  -10.4546   23.3122 C   0  0  0  0  0  0  0  0  0  0  0  0
  -21.4769  -18.1766   21.7060 C   0  0  0  0  0  0  0  0  0  0  0  0
  -23.5129  -20.0352   22.0891 C   0  0  0  0  0  0  0  0  0  0  0  0
  -24.7940  -23.7319   25.3044 C   0  0  0  0  0  0  0  0  0  0  0  0
  -31.4275  -19.5785   21.9682 C   0  0  0  0  0  0  0  0  0  0  0  0
  -31.0746  -18.3426   21.4263 C   0  0  0  0  0  0  0  0  0  0  0  0
  -23.1355   -8.3849   21.7782 C   0  0  0  0  0  0  0  0  0  0  0  0
  -23.6521   -9.3375   23.9375 C   0  0  0  0  0  0  0  0  0  0  0  0
  -26.1547  -23.9425   25.5229 C   0  0  0  0  0  0  0  0  0  0  0  0
  -24.2427   -5.5564   23.2607 C   0  0  0  0  0  0  0  0  0  0  0  0
  -24.5795   -4.2997   22.7579 C   0  0  0  0  0  0  0  0  0  0  0  0
  -26.1078  -25.8008   23.9854 C   0  0  0  0  0  0  0  0  0  0  0  0
  -29.0908  -20.1618   22.1597 C   0  0  0  0  0  0  0  0  0  0  0  0
  -22.2490   -3.8593   22.2976 C   0  0  0  0  0  0  0  0  0  0  0  0
  -24.2245  -10.5369   21.9199 C   0  0  0  0  0  0  0  0  0  0  0  0
  -24.1336  -12.8777   20.9100 C   0  0  0  0  0  0  0  0  0  0  0  0
  -21.3624  -19.4512   21.1290 C   0  0  0  0  0  0  0  0  0  0  0  0
  -24.0811  -24.5487   24.4149 C   0  0  0  0  0  0  0  0  0  0  0  0
  -22.3962  -20.3892   21.3131 C   0  0  0  0  0  0  0  0  0  0  0  0
  -24.7376  -25.6000   23.7593 C   0  0  0  0  0  0  0  0  0  0  0  0
  -30.4356  -20.4881   22.3350 C   0  0  0  0  0  0  0  0  0  0  0  0
  -28.7379  -18.9259   21.6177 C   0  0  0  0  0  0  0  0  0  0  0  0
  -29.7299  -18.0163   21.2510 C   0  0  0  0  0  0  0  0  0  0  0  0
  -23.1169   -8.3026   23.1705 C   0  0  0  0  0  0  0  0  0  0  0  0
  -26.8125  -24.9753   24.8611 C   0  0  0  0  0  0  0  0  0  0  0  0
  -22.9091   -5.9645   23.2821 C   0  0  0  0  0  0  0  0  0  0  0  0
  -23.5827   -3.4512   22.2763 C   0  0  0  0  0  0  0  0  0  0  0  0
  -21.9122   -5.1160   22.8005 C   0  0  0  0  0  0  0  0  0  0  0  0
  -24.7971  -11.6908   21.2746 C   0  0  0  0  0  0  0  0  0  0  0  0
  -25.1097  -13.6541   20.3349 C   0  0  0  0  0  0  0  0  0  0  0  0
  -22.7578  -13.2455   21.0764 C   0  0  0  0  0  0  0  0  0  0  0  0
  -22.4911  -24.0620   21.7059 C   0  0  0  0  0  0  0  0  0  0  0  0
  -30.3492  -24.2147   24.8698 C   0  0  0  0  0  0  0  0  0  0  0  0
  -21.6968  -27.1863   22.0664 C   0  0  0  0  0  0  0  0  0  0  0  0
  -22.4568  -30.2334   23.4022 C   0  0  0  0  0  0  0  0  0  0  0  0
  -30.2675  -15.7514   20.2881 C   0  0  0  0  0  0  0  0  0  0  0  0
  -20.1607  -19.7535   20.2694 C   0  0  0  0  0  0  0  0  0  0  0  0
  -22.6078  -24.3252   24.2105 C   0  0  0  0  0  0  0  0  0  0  0  0
  -24.0132  -26.5178   22.8098 C   0  0  0  0  0  0  0  0  0  0  0  0
  -19.9602  -21.2436   20.0051 C   0  0  0  0  0  0  0  0  0  0  0  0
  -29.8281  -12.4962   18.9140 C   0  0  0  0  0  0  0  0  0  0  0  0
  -21.2788  -21.8965   19.6028 C   0  0  0  0  0  0  0  0  0  0  0  0
  -28.4254  -12.0942   19.3756 C   0  0  0  0  0  0  0  0  0  0  0  0
  -30.5663  -13.3037   19.9802 C   0  0  0  0  0  0  0  0  0  0  0  0
  -28.4355  -14.0715   20.9496 C   0  0  0  0  0  0  0  0  0  0  0  0
  -22.3165  -21.7817   20.7259 C   0  0  1  0  0  0  0  0  0  0  0  0
  -22.0943  -24.8950   22.8918 C   0  0  1  0  0  0  0  0  0  0  0  0
  -27.6288  -13.3118   19.8839 C   0  0  2  0  0  0  0  0  0  0  0  0
  -27.2895  -18.6043   21.4385 C   0  0  0  0  0  0  0  0  0  0  0  0
  -21.6400  -32.6046   23.4908 C   0  0  0  0  0  0  0  0  0  0  0  0
  -31.5416  -22.8757   26.6434 C   0  0  0  0  0  0  0  0  0  0  0  0
  -32.7307  -23.5075   24.5511 C   0  0  0  0  0  0  0  0  0  0  0  0
  -22.7395  -27.6486   19.2364 C   0  0  0  0  0  0  0  0  0  0  0  0
  -22.7875  -30.1027   19.7298 C   0  0  0  0  0  0  0  0  0  0  0  0
  -20.6226  -28.8643   19.7798 C   0  0  0  0  0  0  0  0  0  0  0  0
  -22.1165  -30.1289   26.3403 C   0  0  0  0  0  0  0  0  0  0  0  0
  -30.8176  -21.8259   22.9190 C   0  0  0  0  0  0  0  0  0  0  0  0
  -28.9328  -24.0410   25.3972 C   0  0  0  0  0  0  0  0  0  1  0  0
  -30.9250  -21.7595   24.4492 C   0  0  0  0  0  0  0  0  0  0  0  0
  -22.3020  -28.5001   21.6342 C   0  0  1  0  0  0  0  0  0  0  0  0
  -21.6108  -31.2399   24.1611 C   0  0  2  0  0  0  0  0  0  0  0  0
  -31.3681  -23.0805   25.1258 C   0  0  0  0  0  0  0  0  0  0  0  0
  -22.1273  -28.7606   20.1114 C   0  0  0  0  0  0  0  0  0  0  0  0
  -26.0945  -11.7072   20.9575 N   0  0  0  0  0  0  0  0  0  0  0  0
  -26.2540  -12.9138   20.3875 N   0  0  0  0  0  0  0  0  0  0  0  0
  -22.5748  -26.2548   22.6384 N   0  0  0  0  0  0  0  0  0  0  0  0
  -29.7531  -14.4432   20.4105 N   0  0  0  0  0  0  0  0  0  0  0  0
  -25.0923  -14.8909   19.7942 N   0  0  0  0  0  0  0  0  0  0  0  0
  -21.8905  -12.3295   21.6872 N   0  0  0  0  0  0  0  0  0  0  0  0
  -29.3918  -16.7560   20.6988 N   0  0  0  0  0  0  0  0  0  0  0  0
  -22.0482  -22.7544   21.7634 N   0  0  0  0  0  0  0  0  0  0  0  0
  -21.7080  -29.5235   22.4875 N   0  0  0  0  0  0  0  0  0  0  0  0
  -22.1125  -31.3908   25.5563 N   0  3  0  0  0  0  0  0  0  0  0  0
  -22.3073  -14.3470   20.6799 O   0  0  0  0  0  0  0  0  0  0  0  0
  -23.1491  -24.5686   20.8047 O   0  0  0  0  0  0  0  0  0  0  0  0
  -30.6629  -25.2336   24.2492 O   0  0  0  0  0  0  0  0  0  0  0  0
  -20.4881  -26.9965   21.9091 O   0  0  0  0  0  0  0  0  0  0  0  0
  -23.6620  -30.0938   23.5984 O   0  0  0  0  0  0  0  0  0  0  0  0
  -31.3908  -15.9664   19.8257 O   0  0  0  0  0  0  0  0  0  0  0  0
  -22.5764   -7.2128   23.7810 O   0  0  0  0  0  0  0  0  0  0  0  0
  -28.1408  -25.1826   25.0721 O   0  0  0  0  0  0  0  0  0  1  0  0
  -23.9064   -2.2450   21.7919 F   0  0  0  0  0  0  0  0  0  0  0  0
  -20.6294   -5.5030   22.8174 F   0  0  0  0  0  0  0  0  0  0  0  0
  1  2  1  0  0  0  0
  1  5  2  0  0  0  0
  2  6  2  0  0  0  0
  3 10  2  0  0  0  0
  3 18  1  0  0  0  0
  4 11  1  0  0  0  0
  4 18  2  0  0  0  0
  5 20  1  0  0  0  0
  6 22  1  0  0  0  0
  7 12  2  0  0  0  0
  7 21  1  0  0  0  0
  8  9  2  0  0  0  0
  8 24  1  0  0  0  0
  9 26  1  0  0  0  0
 10 27  1  0  0  0  0
 11 27  2  0  0  0  0
 12 28  1  0  0  0  0
 13 14  2  0  0  0  0
 13 29  1  0  0  0  0
 14 30  1  0  0  0  0
 15 23  1  0  0  0  0
 15 28  2  0  0  0  0
 16 24  2  0  0  0  0
 16 25  1  0  0  0  0
 17 30  2  0  0  0  0
 17 31  1  0  0  0  0
 18 32  1  0  0  0  0
 19 32  1  0  0  0  0
 19 33  2  0  0  0  0
 19 34  1  0  0  0  0
 20 22  2  0  0  0  0
 20 40  1  0  0  0  0
 21 23  2  0  0  0  0
 21 41  1  0  0  0  0
 22 49  1  0  0  0  0
 23 42  1  0  0  0  0
 24 60  1  0  0  0  0
 25 26  2  0  0  0  0
 25 52  1  0  0  0  0
 26 73  1  0  0  0  0
 27 83  1  0  0  0  0
 28 84  1  0  0  0  0
 29 31  2  0  0  0  0
 29 83  1  0  0  0  0
 30 85  1  0  0  0  0
 31 86  1  0  0  0  0
 32 67  2  0  0  0  0
 33 68  1  0  0  0  0
 33 71  1  0  0  0  0
 34 72  1  0  0  0  0
 34 77  2  0  0  0  0
 35 50  1  0  0  0  0
 35 74  1  0  0  0  0
 35 78  2  0  0  0  0
 36 61  1  0  0  0  0
 36 65  1  0  0  0  0
 36 79  2  0  0  0  0
 37 63  1  0  0  0  0
 37 69  1  0  0  0  0
 37 80  2  0  0  0  0
 38 64  1  0  0  0  0
 38 75  1  0  0  0  0
 38 81  2  0  0  0  0
 39 70  1  0  0  0  0
 39 73  1  0  0  0  0
 39 82  2  0  0  0  0
 40 43  1  0  0  0  0
 41 50  1  0  0  0  0
 42 69  1  0  0  0  0
 43 45  1  0  0  0  0
 44 46  1  0  0  0  0
 44 47  1  0  0  0  0
 45 49  1  0  0  0  0
 46 51  1  0  0  0  0
 47 70  1  0  0  0  0
 48 51  1  0  0  0  0
 48 70  1  0  0  0  0
 49 74  1  0  0  0  0
 50 69  1  0  0  0  0
 51 68  1  0  0  0  0
 53 64  1  0  0  0  0
 54 65  1  0  0  0  0
 55 65  1  0  0  0  0
 56 66  1  0  0  0  0
 57 66  1  0  0  0  0
 58 66  1  0  0  0  0
 59 76  1  0  0  0  0
 60 62  1  0  0  0  0
 61 84  1  0  0  0  0
 62 65  1  0  0  0  0
 63 66  1  0  0  0  0
 63 75  1  0  0  0  0
 64 76  1  0  0  0  0
 67 68  1  0  0  0  0
M  CHG  1  76   1
M  ISO  4  39 100  61 101  73 100  84 101
M  END
> <Batch ID>
0134

> <Smiles>
CNC(C)C(=O)NC(C(=O)N1Cc2cc([101O:1][101CH2:1]C(=O)C(C)(C)CCc3ccc([100NH:0][100C:0](=O)N4CCCC(n5nc(-c6ccc(Oc7ccc(F)cc7F)cc6)c(C(N)=O)c5N)C4)c(C)c3)ccc2CC1C(=O)NC1CCCc2ccccc21)C(C)(C)C

> <Shape>
0.206

> <Color>
0.135

> <Negative vol penalty>
0.000

$$$$

  -OEChem-04052302333D

 83 91  0     1  0  0  0  0  0999 V2000
  -29.7705   -5.5443   29.4253 C   0  0  0  0  0  0  0  0  0  0  0  0
  -30.2478   -6.8264   29.1727 C   0  0  0  0  0  0  0  0  0  0  0  0
  -32.6755  -17.4647   23.4347 C   0  0  0  0  0  0  0  0  0  0  0  0
  -23.0752   -9.8687   19.9401 C   0  0  0  0  0  0  0  0  0  0  0  0
  -23.8350   -9.8746   22.2335 C   0  0  0  0  0  0  0  0  0  0  0  0
  -28.4059   -5.3357   29.6210 C   0  0  0  0  0  0  0  0  0  0  0  0
  -29.3605   -7.9006   29.1145 C   0  0  0  0  0  0  0  0  0  0  0  0
  -30.4179  -13.6518   30.9341 C   0  0  0  0  0  0  0  0  0  0  0  0
  -31.8965  -18.3399   24.1913 C   0  0  0  0  0  0  0  0  0  0  0  0
  -32.0670  -16.5888   22.5356 C   0  0  0  0  0  0  0  0  0  0  0  0
  -22.3308   -8.7158   20.1897 C   0  0  0  0  0  0  0  0  0  0  0  0
  -23.0906   -8.7217   22.4831 C   0  0  0  0  0  0  0  0  0  0  0  0
  -30.7793  -14.8044   30.2380 C   0  0  0  0  0  0  0  0  0  0  0  0
  -19.8621   -7.9251   23.0853 C   0  0  0  0  0  0  0  0  0  0  0  0
  -19.1051   -7.8851   24.2561 C   0  0  0  0  0  0  0  0  0  0  0  0
  -28.4599  -15.4583   30.1286 C   0  0  0  0  0  0  0  0  0  0  0  0
  -20.3457   -5.9468   24.9920 C   0  0  0  0  0  0  0  0  0  0  0  0
  -23.8274  -10.4481   20.9620 C   0  0  0  0  0  0  0  0  0  0  0  0
  -24.1703  -12.9731   20.8429 C   0  0  0  0  0  0  0  0  0  0  0  0
  -27.5026   -6.4093   29.5747 C   0  0  0  0  0  0  0  0  0  0  0  0
  -29.0714  -13.3879   31.2237 C   0  0  0  0  0  0  0  0  0  0  0  0
  -27.9824   -7.7059   29.3084 C   0  0  0  0  0  0  0  0  0  0  0  0
  -28.0842  -14.3029   30.8308 C   0  0  0  0  0  0  0  0  0  0  0  0
  -30.5089  -18.3393   24.0491 C   0  0  0  0  0  0  0  0  0  0  0  0
  -29.9003  -17.4634   23.1501 C   0  0  0  0  0  0  0  0  0  0  0  0
  -30.6794  -16.5882   22.3933 C   0  0  0  0  0  0  0  0  0  0  0  0
  -22.3385   -8.1423   21.4612 C   0  0  0  0  0  0  0  0  0  0  0  0
  -29.7999  -15.7065   29.8326 C   0  0  0  0  0  0  0  0  0  0  0  0
  -20.8608   -6.9759   22.8677 C   0  0  0  0  0  0  0  0  0  0  0  0
  -19.3469   -6.8960   25.2095 C   0  0  0  0  0  0  0  0  0  0  0  0
  -21.1026   -5.9868   23.8210 C   0  0  0  0  0  0  0  0  0  0  0  0
  -24.5970  -11.6387   20.7047 C   0  0  0  0  0  0  0  0  0  0  0  0
  -25.2628  -13.7223   20.4799 C   0  0  0  0  0  0  0  0  0  0  0  0
  -22.9000  -13.4894   21.2620 C   0  0  0  0  0  0  0  0  0  0  0  0
  -27.0206  -11.0853   30.4520 C   0  0  0  0  0  0  0  0  0  0  0  0
  -25.0835  -12.6497   32.5310 C   0  0  0  0  0  0  0  0  0  0  0  0
  -24.2900  -15.5646   34.1187 C   0  0  0  0  0  0  0  0  0  0  0  0
  -30.7295  -14.7654   20.6551 C   0  0  0  0  0  0  0  0  0  0  0  0
  -26.0309   -6.1275   29.7455 C   0  0  0  0  0  0  0  0  0  0  0  0
  -28.7006  -12.1534   31.9988 C   0  0  0  0  0  0  0  0  0  0  0  0
  -26.6266  -14.0761   31.1347 C   0  0  0  0  0  0  0  0  0  0  0  0
  -25.2020   -7.3753   30.0395 C   0  0  0  0  0  0  0  0  0  0  0  0
  -29.6141  -12.3529   18.2860 C   0  0  0  0  0  0  0  0  0  0  0  0
  -25.5828   -8.5054   29.0884 C   0  0  0  0  0  0  0  0  0  0  0  0
  -28.1743  -12.0618   18.7154 C   0  0  0  0  0  0  0  0  0  0  0  0
  -30.5292  -12.5809   19.4877 C   0  0  0  0  0  0  0  0  0  0  0  0
  -28.6226  -13.3057   20.8692 C   0  0  0  0  0  0  0  0  0  0  0  0
  -27.0543   -8.9003   29.2621 C   0  0  1  0  0  0  0  0  0  0  0  0
  -27.2500  -11.7298   31.7897 C   0  0  1  0  0  0  0  0  0  0  0  0
  -27.6497  -13.1333   19.6913 C   0  0  2  0  0  0  0  0  0  0  0  0
  -27.9614  -18.1848   21.7336 C   0  0  0  0  0  0  0  0  0  0  0  0
  -22.6323  -16.5427   35.7288 C   0  0  0  0  0  0  0  0  0  0  0  0
  -22.9898  -12.7458   30.3135 C   0  0  0  0  0  0  0  0  0  0  0  0
  -21.7877  -14.5108   31.6204 C   0  0  0  0  0  0  0  0  0  0  0  0
  -22.0804  -12.2290   32.5851 C   0  0  0  0  0  0  0  0  0  0  0  0
  -26.4072  -16.2213   36.0796 C   0  0  0  0  0  0  0  0  0  0  0  0
  -29.6906  -19.2958   24.8794 C   0  0  0  0  0  0  0  0  0  0  0  0
  -28.4112  -17.4665   23.0008 C   0  0  0  0  0  0  0  0  0  0  0  0
  -28.9765  -18.6336   26.0629 C   0  0  0  0  0  0  0  0  0  0  0  0
  -29.9426  -18.0363   27.0870 C   0  0  0  0  0  0  0  0  0  0  0  0
  -29.1978  -17.3535   28.2262 C   0  0  0  0  0  0  0  0  0  1  0  0
  -24.0778  -13.7701   32.4190 C   0  0  1  0  0  0  0  0  0  0  0  0
  -23.9866  -15.8683   35.5747 C   0  0  2  0  0  0  0  0  0  0  0  0
  -22.7611  -13.3175   31.7269 C   0  0  0  0  0  0  0  0  0  0  0  0
  -25.8618  -11.5425   20.2864 N   0  0  0  0  0  0  0  0  0  0  0  0
  -26.2393  -12.8259   20.1586 N   0  0  0  0  0  0  0  0  0  0  0  0
  -26.3138  -12.8513   31.8895 N   0  0  0  0  0  0  0  0  0  0  0  0
  -29.9707  -13.6116   20.3655 N   0  0  0  0  0  0  0  0  0  0  0  0
  -25.4738  -15.0537   20.4073 N   0  0  0  0  0  0  0  0  0  0  0  0
  -21.8877  -12.5805   21.5989 N   0  0  0  0  0  0  0  0  0  0  0  0
  -30.0825  -15.6905   21.4738 N   0  0  0  0  0  0  0  0  0  0  0  0
  -27.2220   -9.7182   30.4442 N   0  0  0  0  0  0  0  0  0  0  0  0
  -23.8946  -14.2907   33.7695 N   0  0  0  0  0  0  0  0  0  0  0  0
  -25.0280  -16.7697   36.1438 N   0  3  0  0  0  0  0  0  0  0  0  0
  -22.6643  -14.7201   21.3197 O   0  0  0  0  0  0  0  0  0  0  0  0
  -26.6843  -11.7768   29.4978 O   0  0  0  0  0  0  0  0  0  0  0  0
  -24.7909  -11.6362   33.1703 O   0  0  0  0  0  0  0  0  0  0  0  0
  -24.8210  -16.3777   33.3653 O   0  0  0  0  0  0  0  0  0  0  0  0
  -31.8586  -14.9338   20.1876 O   0  0  0  0  0  0  0  0  0  0  0  0
  -21.6121   -7.0174   21.7051 O   0  0  0  0  0  0  0  0  0  0  0  0
  -30.1499  -16.8320   29.1524 O   0  0  0  0  0  0  0  0  0  1  0  0
  -18.6209   -6.8586   26.3345 F   0  0  0  0  0  0  0  0  0  0  0  0
  -22.0616   -5.0730   23.6181 F   0  0  0  0  0  0  0  0  0  0  0  0
  1  2  1  0  0  0  0
  1  6  2  0  0  0  0
  2  7  2  0  0  0  0
  3  9  1  0  0  0  0
  3 10  2  0  0  0  0
  4 11  2  0  0  0  0
  4 18  1  0  0  0  0
  5 12  1  0  0  0  0
  5 18  2  0  0  0  0
  6 20  1  0  0  0  0
  7 22  1  0  0  0  0
  8 13  2  0  0  0  0
  8 21  1  0  0  0  0
  9 24  2  0  0  0  0
 10 26  1  0  0  0  0
 11 27  1  0  0  0  0
 12 27  2  0  0  0  0
 13 28  1  0  0  0  0
 14 15  2  0  0  0  0
 14 29  1  0  0  0  0
 15 30  1  0  0  0  0
 16 23  1  0  0  0  0
 16 28  2  0  0  0  0
 17 30  2  0  0  0  0
 17 31  1  0  0  0  0
 18 32  1  0  0  0  0
 19 32  1  0  0  0  0
 19 33  2  0  0  0  0
 19 34  1  0  0  0  0
 20 22  2  0  0  0  0
 20 39  1  0  0  0  0
 21 23  2  0  0  0  0
 21 40  1  0  0  0  0
 22 48  1  0  0  0  0
 23 41  1  0  0  0  0
 24 25  1  0  0  0  0
 24 57  1  0  0  0  0
 25 26  2  0  0  0  0
 25 58  1  0  0  0  0
 26 71  1  0  0  0  0
 27 80  1  0  0  0  0
 28 81  1  0  0  0  0
 29 31  2  0  0  0  0
 29 80  1  0  0  0  0
 30 82  1  0  0  0  0
 31 83  1  0  0  0  0
 32 65  2  0  0  0  0
 33 66  1  0  0  0  0
 33 69  1  0  0  0  0
 34 70  1  0  0  0  0
 34 75  2  0  0  0  0
 35 49  1  0  0  0  0
 35 72  1  0  0  0  0
 35 76  2  0  0  0  0
 36 62  1  0  0  0  0
 36 67  1  0  0  0  0
 36 77  2  0  0  0  0
 37 63  1  0  0  0  0
 37 73  1  0  0  0  0
 37 78  2  0  0  0  0
 38 68  1  0  0  0  0
 38 71  1  0  0  0  0
 38 79  2  0  0  0  0
 39 42  1  0  0  0  0
 40 49  1  0  0  0  0
 41 67  1  0  0  0  0
 42 44  1  0  0  0  0
 43 45  1  0  0  0  0
 43 46  1  0  0  0  0
 44 48  1  0  0  0  0
 45 50  1  0  0  0  0
 46 68  1  0  0  0  0
 47 50  1  0  0  0  0
 47 68  1  0  0  0  0
 48 72  1  0  0  0  0
 49 67  1  0  0  0  0
 50 66  1  0  0  0  0
 51 58  1  0  0  0  0
 52 63  1  0  0  0  0
 53 64  1  0  0  0  0
 54 64  1  0  0  0  0
 55 64  1  0  0  0  0
 56 74  1  0  0  0  0
 57 59  1  0  0  0  0
 59 60  1  0  0  0  0
 60 61  1  0  0  0  0
 61 81  1  0  0  0  0
 62 64  1  0  0  0  0
 62 73  1  0  0  0  0
 63 74  1  0  0  0  0
 65 66  1  0  0  0  0
M  CHG  1  74   1
M  ISO  4  38 100  61 101  71 100  81 101
M  END
> <Batch ID>
0134

> <Smiles>
CCc1c(CCC[101CH2:1][101O:1]c2ccc3c(c2)CN(C(=O)C(NC(=O)C(C)NC)C(C)(C)C)C(C(=O)NC2CCCc4ccccc42)C3)cccc1[100NH:0][100C:0](=O)N1CCCC(n2nc(-c3ccc(Oc4ccc(F)cc4F)cc3)c(C(N)=O)c2N)C1

> <Shape>
0.171

> <Color>
0.196

> <Negative vol penalty>
0.000

$$$$

  -OEChem-04052302333D

 83 91  0     1  0  0  0  0  0999 V2000
  -18.9886   -8.3973   20.9127 C   0  0  0  0  0  0  0  0  0  0  0  0
  -18.7710   -9.6263   20.2982 C   0  0  0  0  0  0  0  0  0  0  0  0
  -18.3709  -26.7205   24.0505 C   0  0  0  0  0  0  0  0  0  0  0  0
  -28.6870  -25.0793   20.3229 C   0  0  0  0  0  0  0  0  0  0  0  0
  -26.5305  -23.9935   20.2378 C   0  0  0  0  0  0  0  0  0  0  0  0
  -19.9315   -8.2871   21.9339 C   0  0  0  0  0  0  0  0  0  0  0  0
  -19.4954  -10.7461   20.7054 C   0  0  0  0  0  0  0  0  0  0  0  0
  -22.3160  -16.8084   18.1345 C   0  0  0  0  0  0  0  0  0  0  0  0
  -18.4894  -25.6859   23.1225 C   0  0  0  0  0  0  0  0  0  0  0  0
  -18.9160  -27.9737   23.7713 C   0  0  0  0  0  0  0  0  0  0  0  0
  -29.2609  -23.9021   20.8030 C   0  0  0  0  0  0  0  0  0  0  0  0
  -27.1043  -22.8162   20.7178 C   0  0  0  0  0  0  0  0  0  0  0  0
  -22.3260  -18.1807   18.3803 C   0  0  0  0  0  0  0  0  0  0  0  0
  -28.1151  -21.5706   23.6940 C   0  0  0  0  0  0  0  0  0  0  0  0
  -27.4419  -20.8876   24.7069 C   0  0  0  0  0  0  0  0  0  0  0  0
  -23.9854  -17.8543   20.1005 C   0  0  0  0  0  0  0  0  0  0  0  0
  -19.6984  -27.1578   21.6361 C   0  0  0  0  0  0  0  0  0  0  0  0
  -27.2590  -18.9483   23.2777 C   0  0  0  0  0  0  0  0  0  0  0  0
  -27.3218  -25.1251   20.0404 C   0  0  0  0  0  0  0  0  0  0  0  0
  -26.5851  -26.7304   18.1999 C   0  0  0  0  0  0  0  0  0  0  0  0
  -20.6746   -9.4040   22.3472 C   0  0  0  0  0  0  0  0  0  0  0  0
  -23.1339  -15.9460   18.8786 C   0  0  0  0  0  0  0  0  0  0  0  0
  -20.4480  -10.6510   21.7340 C   0  0  0  0  0  0  0  0  0  0  0  0
  -23.9857  -16.4717   19.8605 C   0  0  0  0  0  0  0  0  0  0  0  0
  -19.1532  -25.9046   21.9153 C   0  0  0  0  0  0  0  0  0  0  0  0
  -19.5798  -28.1924   22.5641 C   0  0  0  0  0  0  0  0  0  0  0  0
  -28.4696  -22.7706   21.0004 C   0  0  0  0  0  0  0  0  0  0  0  0
  -23.1586  -18.7035   19.3654 C   0  0  0  0  0  0  0  0  0  0  0  0
  -28.3601  -20.9424   22.4729 C   0  0  0  0  0  0  0  0  0  0  0  0
  -27.0139  -19.5764   24.4988 C   0  0  0  0  0  0  0  0  0  0  0  0
  -27.9321  -19.6313   22.2647 C   0  0  0  0  0  0  0  0  0  0  0  0
  -26.7283  -26.3410   19.5451 C   0  0  0  0  0  0  0  0  0  0  0  0
  -25.9654  -27.9546   18.2609 C   0  0  0  0  0  0  0  0  0  0  0  0
  -26.9772  -26.0467   17.0022 C   0  0  0  0  0  0  0  0  0  0  0  0
  -22.6145  -13.5128   20.8568 C   0  0  0  0  0  0  0  0  0  0  0  0
  -25.8468  -13.2549   20.7644 C   0  0  0  0  0  0  0  0  0  0  0  0
  -28.8592  -14.7641   20.2219 C   0  0  0  0  0  0  0  0  0  0  0  0
  -22.4314  -30.5364   22.3471 C   0  0  0  0  0  0  0  0  0  0  0  0
  -21.6490   -9.2461   23.4875 C   0  0  0  0  0  0  0  0  0  0  0  0
  -23.1311  -14.4712   18.5829 C   0  0  0  0  0  0  0  0  0  0  0  0
  -24.8980  -15.5909   20.6732 C   0  0  0  0  0  0  0  0  0  0  0  0
  -22.6419  -10.3997   23.6044 C   0  0  0  0  0  0  0  0  0  0  0  0
  -25.5178  -31.7881   21.0885 C   0  0  0  0  0  0  0  0  0  0  0  0
  -21.9200  -11.7388   23.4936 C   0  0  0  0  0  0  0  0  0  0  0  0
  -26.1651  -30.5691   20.4288 C   0  0  0  0  0  0  0  0  0  0  0  0
  -24.7512  -31.4052   22.3525 C   0  0  0  0  0  0  0  0  0  0  0  0
  -24.4009  -29.1152   21.5116 C   0  0  0  0  0  0  0  0  0  0  0  0
  -21.2317  -11.8833   22.1309 C   0  0  1  0  0  0  0  0  0  0  0  0
  -23.6270  -13.6264   19.7524 C   0  0  1  0  0  0  0  0  0  0  0  0
  -25.1386  -29.4430   20.2022 C   0  0  2  0  0  0  0  0  0  0  0  0
  -31.3265  -14.3074   20.2598 C   0  0  0  0  0  0  0  0  0  0  0  0
  -25.8174  -13.3632   23.8136 C   0  0  0  0  0  0  0  0  0  0  0  0
  -28.2706  -13.8595   23.7502 C   0  0  0  0  0  0  0  0  0  0  0  0
  -27.4130  -11.6993   22.8441 C   0  0  0  0  0  0  0  0  0  0  0  0
  -29.1374  -15.3921   17.3431 C   0  0  0  0  0  0  0  0  0  0  0  0
  -19.2796  -24.7859   20.9118 C   0  0  0  0  0  0  0  0  0  0  0  0
  -20.1632  -29.5323   22.2660 C   0  0  0  0  0  0  0  0  0  0  0  0
  -20.5402  -23.9324   21.0912 C   0  0  0  0  0  0  0  0  0  0  0  0
  -20.6118  -22.7561   20.1124 C   0  0  0  0  0  0  0  0  0  0  0  0
  -21.8965  -21.9525   20.3063 C   0  0  0  0  0  0  0  0  0  0  0  0
  -21.9580  -20.7564   19.3669 C   0  0  0  0  0  0  0  0  0  1  0  0
  -26.9889  -13.8367   21.5620 C   0  0  1  0  0  0  0  0  0  0  0  0
  -30.0673  -14.3376   19.4076 C   0  0  2  0  0  0  0  0  0  0  0  0
  -27.1040  -13.2063   22.9787 C   0  0  0  0  0  0  0  0  0  0  0  0
  -26.2391  -27.2446   20.3984 N   0  0  0  0  0  0  0  0  0  0  0  0
  -25.7825  -28.2141   19.5873 N   0  0  0  0  0  0  0  0  0  0  0  0
  -24.8544  -14.1550   20.3511 N   0  0  0  0  0  0  0  0  0  0  0  0
  -23.7932  -30.3338   22.0690 N   0  0  0  0  0  0  0  0  0  0  0  0
  -25.5645  -28.8237   17.3089 N   0  0  0  0  0  0  0  0  0  0  0  0
  -27.6022  -24.7978   17.1199 N   0  0  0  0  0  0  0  0  0  0  0  0
  -22.1997  -12.2190   21.1088 N   0  0  0  0  0  0  0  0  0  0  0  0
  -28.1833  -13.6793   20.7392 N   0  0  0  0  0  0  0  0  0  0  0  0
  -21.5906  -29.4729   22.0425 N   0  0  0  0  0  0  0  0  0  0  0  0
  -30.2885  -15.2815   18.2757 N   0  3  0  0  0  0  0  0  0  0  0  0
  -26.7939  -26.5364   15.8619 O   0  0  0  0  0  0  0  0  0  0  0  0
  -22.2387  -14.5239   21.4383 O   0  0  0  0  0  0  0  0  0  0  0  0
  -25.8392  -12.0477   20.5112 O   0  0  0  0  0  0  0  0  0  0  0  0
  -28.5486  -15.9418   20.3859 O   0  0  0  0  0  0  0  0  0  0  0  0
  -21.9963  -31.5891   22.8260 O   0  0  0  0  0  0  0  0  0  0  0  0
  -29.0292  -21.6216   21.4685 O   0  0  0  0  0  0  0  0  0  0  0  0
  -23.1699  -20.0425   19.6078 O   0  0  0  0  0  0  0  0  0  1  0  0
  -26.3688  -18.9202   25.4721 F   0  0  0  0  0  0  0  0  0  0  0  0
  -28.1657  -19.0222   21.0942 F   0  0  0  0  0  0  0  0  0  0  0  0
  1  2  1  0  0  0  0
  1  6  2  0  0  0  0
  2  7  2  0  0  0  0
  3  9  2  0  0  0  0
  3 10  1  0  0  0  0
  4 11  2  0  0  0  0
  4 19  1  0  0  0  0
  5 12  1  0  0  0  0
  5 19  2  0  0  0  0
  6 21  1  0  0  0  0
  7 23  1  0  0  0  0
  8 13  2  0  0  0  0
  8 22  1  0  0  0  0
  9 25  1  0  0  0  0
 10 26  2  0  0  0  0
 11 27  1  0  0  0  0
 12 27  2  0  0  0  0
 13 28  1  0  0  0  0
 14 15  2  0  0  0  0
 14 29  1  0  0  0  0
 15 30  1  0  0  0  0
 16 24  1  0  0  0  0
 16 28  2  0  0  0  0
 17 25  2  0  0  0  0
 17 26  1  0  0  0  0
 18 30  2  0  0  0  0
 18 31  1  0  0  0  0
 19 32  1  0  0  0  0
 20 32  1  0  0  0  0
 20 33  2  0  0  0  0
 20 34  1  0  0  0  0
 21 23  2  0  0  0  0
 21 39  1  0  0  0  0
 22 24  2  0  0  0  0
 22 40  1  0  0  0  0
 23 48  1  0  0  0  0
 24 41  1  0  0  0  0
 25 56  1  0  0  0  0
 26 57  1  0  0  0  0
 27 80  1  0  0  0  0
 28 81  1  0  0  0  0
 29 31  2  0  0  0  0
 29 80  1  0  0  0  0
 30 82  1  0  0  0  0
 31 83  1  0  0  0  0
 32 65  2  0  0  0  0
 33 66  1  0  0  0  0
 33 69  1  0  0  0  0
 34 70  1  0  0  0  0
 34 75  2  0  0  0  0
 35 49  1  0  0  0  0
 35 71  1  0  0  0  0
 35 76  2  0  0  0  0
 36 62  1  0  0  0  0
 36 67  1  0  0  0  0
 36 77  2  0  0  0  0
 37 63  1  0  0  0  0
 37 72  1  0  0  0  0
 37 78  2  0  0  0  0
 38 68  1  0  0  0  0
 38 73  1  0  0  0  0
 38 79  2  0  0  0  0
 39 42  1  0  0  0  0
 40 49  1  0  0  0  0
 41 67  1  0  0  0  0
 42 44  1  0  0  0  0
 43 45  1  0  0  0  0
 43 46  1  0  0  0  0
 44 48  1  0  0  0  0
 45 50  1  0  0  0  0
 46 68  1  0  0  0  0
 47 50  1  0  0  0  0
 47 68  1  0  0  0  0
 48 71  1  0  0  0  0
 49 67  1  0  0  0  0
 50 66  1  0  0  0  0
 51 63  1  0  0  0  0
 52 64  1  0  0  0  0
 53 64  1  0  0  0  0
 54 64  1  0  0  0  0
 55 74  1  0  0  0  0
 56 58  1  0  0  0  0
 57 73  1  0  0  0  0
 58 59  1  0  0  0  0
 59 60  1  0  0  0  0
 60 61  1  0  0  0  0
 61 81  1  0  0  0  0
 62 64  1  0  0  0  0
 62 72  1  0  0  0  0
 63 74  1  0  0  0  0
 65 66  1  0  0  0  0
M  CHG  1  74   1
M  ISO  4  38 100  61 101  73 100  81 101
M  END
> <Batch ID>
0134

> <Smiles>
CNC(C)C(=O)NC(C(=O)N1Cc2cc([101O:1][101CH2:1]CCCCc3cccc(C[100NH:0][100C:0](=O)N4CCCC(n5nc(-c6ccc(Oc7ccc(F)cc7F)cc6)c(C(N)=O)c5N)C4)c3)ccc2CC1C(=O)NC1CCCc2ccccc21)C(C)(C)C

> <Shape>
0.219

> <Color>
0.081

> <Negative vol penalty>
0.000

$$$$

  -OEChem-04052302333D

 86 94  0     1  0  0  0  0  0999 V2000
  -26.3536  -34.3507   25.3663 C   0  0  0  0  0  0  0  0  0  0  0  0
  -26.7014  -33.0176   25.5592 C   0  0  0  0  0  0  0  0  0  0  0  0
  -24.6867   -9.1903   21.5286 C   0  0  0  0  0  0  0  0  0  0  0  0
  -23.0180  -10.3850   20.2538 C   0  0  0  0  0  0  0  0  0  0  0  0
  -25.1400  -34.6726   24.7600 C   0  0  0  0  0  0  0  0  0  0  0  0
  -25.8353  -32.0055   25.1468 C   0  0  0  0  0  0  0  0  0  0  0  0
  -28.2350  -28.2635   22.7213 C   0  0  0  0  0  0  0  0  0  0  0  0
  -28.6301  -23.3501   19.2822 C   0  0  0  0  0  0  0  0  0  0  0  0
  -23.7784   -8.1545   21.7469 C   0  0  0  0  0  0  0  0  0  0  0  0
  -22.1096   -9.3492   20.4720 C   0  0  0  0  0  0  0  0  0  0  0  0
  -28.9296  -27.3409   23.5025 C   0  0  0  0  0  0  0  0  0  0  0  0
  -28.3109  -22.0044   19.1010 C   0  0  0  0  0  0  0  0  0  0  0  0
  -21.1434   -7.5383   23.7722 C   0  0  0  0  0  0  0  0  0  0  0  0
  -21.0498   -7.0209   25.0641 C   0  0  0  0  0  0  0  0  0  0  0  0
  -29.6699  -21.4247   21.0126 C   0  0  0  0  0  0  0  0  0  0  0  0
  -27.0899  -25.7937   23.3001 C   0  0  0  0  0  0  0  0  0  0  0  0
  -21.6899   -4.8426   24.2380 C   0  0  0  0  0  0  0  0  0  0  0  0
  -24.3065  -10.3056   20.7821 C   0  0  0  0  0  0  0  0  0  0  0  0
  -29.9891  -22.7704   21.1938 C   0  0  0  0  0  0  0  0  0  0  0  0
  -26.1506  -11.5012   19.4870 C   0  0  0  0  0  0  0  0  0  0  0  0
  -24.2630  -33.6639   24.3313 C   0  0  0  0  0  0  0  0  0  0  0  0
  -26.9560  -27.9618   22.2319 C   0  0  0  0  0  0  0  0  0  0  0  0
  -24.6083  -32.3143   24.5354 C   0  0  0  0  0  0  0  0  0  0  0  0
  -26.3823  -26.7132   22.5108 C   0  0  0  0  0  0  0  0  0  0  0  0
  -29.4693  -23.7331   20.3286 C   0  0  0  0  0  0  0  0  0  0  0  0
  -22.4899   -8.2339   21.2186 C   0  0  0  0  0  0  0  0  0  0  0  0
  -28.8308  -21.0417   19.9662 C   0  0  0  0  0  0  0  0  0  0  0  0
  -28.3558  -26.1069   23.7944 C   0  0  0  0  0  0  0  0  0  0  0  0
  -21.5101   -6.7079   22.7131 C   0  0  0  0  0  0  0  0  0  0  0  0
  -21.3231   -5.6730   25.2970 C   0  0  0  0  0  0  0  0  0  0  0  0
  -21.7834   -5.3600   22.9461 C   0  0  0  0  0  0  0  0  0  0  0  0
  -25.2441  -11.3762   20.5568 C   0  0  0  0  0  0  0  0  0  0  0  0
  -26.8086  -12.6819   19.7307 C   0  0  0  0  0  0  0  0  0  0  0  0
  -30.8892  -23.1520   22.3219 C   0  0  0  0  0  0  0  0  0  0  0  0
  -26.3775  -10.6281   18.3726 C   0  0  0  0  0  0  0  0  0  0  0  0
  -24.0558  -29.2039   22.6188 C   0  0  0  0  0  0  0  0  0  0  0  0
  -26.6475  -18.0773   21.1983 C   0  0  0  0  0  0  0  0  0  0  0  0
  -23.2508  -27.0409   20.3394 C   0  0  0  0  0  0  0  0  0  0  0  0
  -23.9561  -24.1000   18.7581 C   0  0  0  0  0  0  0  0  0  0  0  0
  -22.9410  -34.0613   23.7237 C   0  0  0  0  0  0  0  0  0  0  0  0
  -26.2310  -28.9574   21.3684 C   0  0  0  0  0  0  0  0  0  0  0  0
  -25.0202  -26.3327   21.9926 C   0  0  0  0  0  0  0  0  0  0  0  0
  -22.2479  -32.9249   22.9764 C   0  0  0  0  0  0  0  0  0  0  0  0
  -26.8674  -15.6450   23.8204 C   0  0  0  0  0  0  0  0  0  0  0  0
  -22.2686  -31.6473   23.8096 C   0  0  0  0  0  0  0  0  0  0  0  0
  -26.5097  -14.3328   23.1237 C   0  0  0  0  0  0  0  0  0  0  0  0
  -26.0755  -16.8157   23.2466 C   0  0  0  0  0  0  0  0  0  0  0  0
  -25.8548  -15.6636   21.0682 C   0  0  0  0  0  0  0  0  0  0  0  0
  -23.7065  -31.1878   24.0793 C   0  0  1  0  0  0  0  0  0  0  0  0
  -24.7203  -28.7455   21.3516 C   0  0  1  0  0  0  0  0  0  0  0  0
  -26.6550  -14.4600   21.5969 C   0  0  2  0  0  0  0  0  0  0  0  0
  -30.8333  -25.6631   19.4914 C   0  0  0  0  0  0  0  0  0  0  0  0
  -23.7486  -22.2574   17.0672 C   0  0  0  0  0  0  0  0  0  0  0  0
  -21.0800  -26.0383   22.2348 C   0  0  0  0  0  0  0  0  0  0  0  0
  -20.9069  -23.9720   20.8317 C   0  0  0  0  0  0  0  0  0  0  0  0
  -20.3804  -26.1992   19.8391 C   0  0  0  0  0  0  0  0  0  0  0  0
  -25.7501  -25.4862   16.8559 C   0  0  0  0  0  0  0  0  0  0  0  0
  -29.7948  -25.1811   20.4996 C   0  0  0  0  0  0  0  0  0  0  0  0
  -30.4587  -22.8227   23.7433 C   0  0  0  0  0  0  0  0  0  0  0  0
  -26.7775  -18.0745   19.6959 C   0  0  0  0  0  0  0  0  0  0  0  0
  -30.9903  -23.8340   24.7569 C   0  0  0  0  0  0  0  0  0  0  0  0
  -27.2481  -19.4347   19.2121 C   0  0  0  0  0  0  0  0  0  0  0  0
  -30.4563  -25.2334   24.4878 C   0  0  0  0  0  0  0  0  0  1  0  0
  -22.7851  -25.6049   20.3451 C   0  0  1  0  0  0  0  0  0  0  0  0
  -24.0186  -23.7381   17.2852 C   0  0  2  0  0  0  0  0  0  0  0  0
  -21.3130  -25.4612   20.8242 C   0  0  0  0  0  0  0  0  0  0  0  0
  -25.3170  -12.3960   21.4162 N   0  0  0  0  0  0  0  0  0  0  0  0
  -26.2772  -13.1731   20.8868 N   0  0  0  0  0  0  0  0  0  0  0  0
  -24.3485  -27.3425   21.1579 N   0  0  0  0  0  0  0  0  0  0  0  0
  -26.2215  -16.8889   21.7918 N   0  0  0  0  0  0  0  0  0  0  0  0
  -27.7842  -13.3376   19.0668 N   0  0  0  0  0  0  0  0  0  0  0  0
  -25.6142   -9.4567   18.2753 N   0  0  0  0  0  0  0  0  0  0  0  0
  -24.2580  -30.5398   22.9087 N   0  0  0  0  0  0  0  0  0  0  0  0
  -23.0291  -25.0913   19.0016 N   0  0  0  0  0  0  0  0  0  0  0  0
  -25.3643  -24.0572   16.7300 N   0  3  0  0  0  0  0  0  0  0  0  0
  -31.9511  -23.7197   22.0764 O   0  0  0  0  0  0  0  0  0  0  0  0
  -27.2433  -10.8711   17.4980 O   0  0  0  0  0  0  0  0  0  0  0  0
  -23.4063  -28.4052   23.2836 O   0  0  0  0  0  0  0  0  0  0  0  0
  -26.9198  -19.1051   21.8242 O   0  0  0  0  0  0  0  0  0  0  0  0
  -22.6668  -27.8632   19.6292 O   0  0  0  0  0  0  0  0  0  0  0  0
  -24.6566  -23.5550   19.6083 O   0  0  0  0  0  0  0  0  0  0  0  0
  -21.6033   -7.2232   21.4312 O   0  0  0  0  0  0  0  0  0  0  0  0
  -28.5198  -19.7286   19.7884 O   0  0  0  0  0  0  0  0  0  0  0  0
  -29.0313  -25.2048   24.5572 O   0  0  0  0  0  0  0  0  0  1  0  0
  -21.2347   -5.1766   26.5380 F   0  0  0  0  0  0  0  0  0  0  0  0
  -22.1373   -4.5575   21.9328 F   0  0  0  0  0  0  0  0  0  0  0  0
  1  2  1  0  0  0  0
  1  5  2  0  0  0  0
  2  6  2  0  0  0  0
  3  9  2  0  0  0  0
  3 18  1  0  0  0  0
  4 10  1  0  0  0  0
  4 18  2  0  0  0  0
  5 21  1  0  0  0  0
  6 23  1  0  0  0  0
  7 11  2  0  0  0  0
  7 22  1  0  0  0  0
  8 12  2  0  0  0  0
  8 25  1  0  0  0  0
  9 26  1  0  0  0  0
 10 26  2  0  0  0  0
 11 28  1  0  0  0  0
 12 27  1  0  0  0  0
 13 14  2  0  0  0  0
 13 29  1  0  0  0  0
 14 30  1  0  0  0  0
 15 19  1  0  0  0  0
 15 27  2  0  0  0  0
 16 24  1  0  0  0  0
 16 28  2  0  0  0  0
 17 30  2  0  0  0  0
 17 31  1  0  0  0  0
 18 32  1  0  0  0  0
 19 25  2  0  0  0  0
 19 34  1  0  0  0  0
 20 32  1  0  0  0  0
 20 33  2  0  0  0  0
 20 35  1  0  0  0  0
 21 23  2  0  0  0  0
 21 40  1  0  0  0  0
 22 24  2  0  0  0  0
 22 41  1  0  0  0  0
 23 49  1  0  0  0  0
 24 42  1  0  0  0  0
 25 58  1  0  0  0  0
 26 82  1  0  0  0  0
 27 83  1  0  0  0  0
 28 84  1  0  0  0  0
 29 31  2  0  0  0  0
 29 82  1  0  0  0  0
 30 85  1  0  0  0  0
 31 86  1  0  0  0  0
 32 67  2  0  0  0  0
 33 68  1  0  0  0  0
 33 71  1  0  0  0  0
 34 59  1  0  0  0  0
 34 76  2  0  0  0  0
 35 72  1  0  0  0  0
 35 77  2  0  0  0  0
 36 50  1  0  0  0  0
 36 73  1  0  0  0  0
 36 78  2  0  0  0  0
 37 60  1  0  0  0  0
 37 70  1  0  0  0  0
 37 79  2  0  0  0  0
 38 64  1  0  0  0  0
 38 69  1  0  0  0  0
 38 80  2  0  0  0  0
 39 65  1  0  0  0  0
 39 74  1  0  0  0  0
 39 81  2  0  0  0  0
 40 43  1  0  0  0  0
 41 50  1  0  0  0  0
 42 69  1  0  0  0  0
 43 45  1  0  0  0  0
 44 46  1  0  0  0  0
 44 47  1  0  0  0  0
 45 49  1  0  0  0  0
 46 51  1  0  0  0  0
 47 70  1  0  0  0  0
 48 51  1  0  0  0  0
 48 70  1  0  0  0  0
 49 73  1  0  0  0  0
 50 69  1  0  0  0  0
 51 68  1  0  0  0  0
 52 58  1  0  0  0  0
 53 65  1  0  0  0  0
 54 66  1  0  0  0  0
 55 66  1  0  0  0  0
 56 66  1  0  0  0  0
 57 75  1  0  0  0  0
 59 61  1  0  0  0  0
 60 62  1  0  0  0  0
 61 63  1  0  0  0  0
 62 83  1  0  0  0  0
 63 84  1  0  0  0  0
 64 66  1  0  0  0  0
 64 74  1  0  0  0  0
 65 75  1  0  0  0  0
 67 68  1  0  0  0  0
M  CHG  1  75   1
M  ISO  4  37 100  60 100  63 101  84 101
M  END
> <Batch ID>
0134

> <Smiles>
CCc1ccc(OC[100CH2:0][100C:0](=O)N2CCCC(n3nc(-c4ccc(Oc5ccc(F)cc5F)cc4)c(C(N)=O)c3N)C2)cc1C(=O)CC[101CH2:1][101O:1]c1ccc2c(c1)CN(C(=O)C(NC(=O)C(C)NC)C(C)(C)C)C(C(=O)NC1CCCc3ccccc31)C2

> <Shape>
0.261

> <Color>
0.077

> <Negative vol penalty>
0.000

$$$$

  -OEChem-04052302333D

 86 94  0     1  0  0  0  0  0999 V2000
  -27.5560  -34.4169   24.9929 C   0  0  0  0  0  0  0  0  0  0  0  0
  -27.8310  -33.1496   24.4890 C   0  0  0  0  0  0  0  0  0  0  0  0
  -22.2477  -12.4907   22.0369 C   0  0  0  0  0  0  0  0  0  0  0  0
  -22.0429  -13.3018   19.7704 C   0  0  0  0  0  0  0  0  0  0  0  0
  -26.2658  -34.7323   25.4170 C   0  0  0  0  0  0  0  0  0  0  0  0
  -26.8161  -32.1967   24.4098 C   0  0  0  0  0  0  0  0  0  0  0  0
  -26.8103  -29.7275   19.9884 C   0  0  0  0  0  0  0  0  0  0  0  0
  -20.8652  -12.5855   22.1959 C   0  0  0  0  0  0  0  0  0  0  0  0
  -20.6603  -13.3966   19.9293 C   0  0  0  0  0  0  0  0  0  0  0  0
  -27.7593  -28.7201   19.8205 C   0  0  0  0  0  0  0  0  0  0  0  0
  -17.0397  -13.5101   19.6187 C   0  0  0  0  0  0  0  0  0  0  0  0
  -16.2331  -13.0283   18.5877 C   0  0  0  0  0  0  0  0  0  0  0  0
  -26.0809  -27.0629   20.3262 C   0  0  0  0  0  0  0  0  0  0  0  0
  -28.1073  -20.5479   15.8775 C   0  0  0  0  0  0  0  0  0  0  0  0
  -27.5912  -18.2722   16.5032 C   0  0  0  0  0  0  0  0  0  0  0  0
  -28.8148  -19.6954   18.0246 C   0  0  0  0  0  0  0  0  0  0  0  0
  -17.1926  -10.8284   18.8652 C   0  0  0  0  0  0  0  0  0  0  0  0
  -22.8366  -12.8489   20.8242 C   0  0  0  0  0  0  0  0  0  0  0  0
  -24.9933  -11.6400   20.1957 C   0  0  0  0  0  0  0  0  0  0  0  0
  -25.2324  -33.7859   25.3339 C   0  0  0  0  0  0  0  0  0  0  0  0
  -25.4898  -29.4103   20.3378 C   0  0  0  0  0  0  0  0  0  0  0  0
  -25.5111  -32.4994   24.8343 C   0  0  0  0  0  0  0  0  0  0  0  0
  -25.1164  -28.0680   20.4955 C   0  0  0  0  0  0  0  0  0  0  0  0
  -27.5275  -19.3149   15.5790 C   0  0  0  0  0  0  0  0  0  0  0  0
  -28.7510  -20.7381   17.1003 C   0  0  0  0  0  0  0  0  0  0  0  0
  -28.2349  -18.4624   17.7260 C   0  0  0  0  0  0  0  0  0  0  0  0
  -20.0715  -13.0384   21.1421 C   0  0  0  0  0  0  0  0  0  0  0  0
  -27.3954  -27.3878   19.9922 C   0  0  0  0  0  0  0  0  0  0  0  0
  -17.9228  -12.6511   20.2729 C   0  0  0  0  0  0  0  0  0  0  0  0
  -16.3096  -11.6874   18.2110 C   0  0  0  0  0  0  0  0  0  0  0  0
  -17.9993  -11.3103   19.8962 C   0  0  0  0  0  0  0  0  0  0  0  0
  -24.2647  -12.7517   20.6596 C   0  0  0  0  0  0  0  0  0  0  0  0
  -26.3032  -12.0520   20.2239 C   0  0  0  0  0  0  0  0  0  0  0  0
  -24.5276  -10.3504   19.7768 C   0  0  0  0  0  0  0  0  0  0  0  0
  -23.6068  -30.0606   22.8147 C   0  0  0  0  0  0  0  0  0  0  0  0
  -21.3604  -28.5892   20.9951 C   0  0  0  0  0  0  0  0  0  0  0  0
  -20.6515  -26.3860   18.4871 C   0  0  0  0  0  0  0  0  0  0  0  0
  -28.9000  -17.4252   19.9234 C   0  0  0  0  0  0  0  0  0  0  0  0
  -23.8643  -34.1578   25.8485 C   0  0  0  0  0  0  0  0  0  0  0  0
  -24.4715  -30.5070   20.4890 C   0  0  0  0  0  0  0  0  0  0  0  0
  -23.7069  -27.6734   20.8506 C   0  0  0  0  0  0  0  0  0  0  0  0
  -22.7604  -33.2120   25.3826 C   0  0  0  0  0  0  0  0  0  0  0  0
  -29.2403  -15.0393   22.5442 C   0  0  0  0  0  0  0  0  0  0  0  0
  -23.1926  -31.7597   25.5577 C   0  0  0  0  0  0  0  0  0  0  0  0
  -28.0728  -14.0773   22.3125 C   0  0  0  0  0  0  0  0  0  0  0  0
  -28.8580  -16.4829   22.2224 C   0  0  0  0  0  0  0  0  0  0  0  0
  -27.1125  -15.7274   20.6566 C   0  0  0  0  0  0  0  0  0  0  0  0
  -24.4312  -31.4466   24.7095 C   0  0  1  0  0  0  0  0  0  0  0  0
  -23.2788  -30.1005   21.3490 C   0  0  1  0  0  0  0  0  0  0  0  0
  -27.4688  -14.2527   20.9054 C   0  0  2  0  0  0  0  0  0  0  0  0
  -25.3559  -19.4655   14.3348 C   0  0  0  0  0  0  0  0  0  0  0  0
  -28.3600  -25.5959   16.3430 C   0  0  0  0  0  0  0  0  0  0  0  0
  -18.7223  -25.3628   17.2507 C   0  0  0  0  0  0  0  0  0  0  0  0
  -20.7989  -26.7713   23.3805 C   0  0  0  0  0  0  0  0  0  0  0  0
  -19.6012  -25.2172   21.8254 C   0  0  0  0  0  0  0  0  0  0  0  0
  -18.7604  -27.5426   22.1540 C   0  0  0  0  0  0  0  0  0  0  0  0
  -30.1579  -24.1595   19.5107 C   0  0  0  0  0  0  0  0  0  0  0  0
  -21.5575  -27.5140   15.9053 C   0  0  0  0  0  0  0  0  0  0  0  0
  -26.8394  -19.1116   14.2715 C   0  0  0  0  0  0  0  0  0  0  0  0
  -29.3784  -22.0726   17.4233 C   0  0  0  0  0  0  0  0  0  0  0  0
  -29.4211  -25.2619   17.3848 C   0  0  0  0  0  0  0  0  0  0  0  0
  -28.3790  -23.0049   18.1226 C   0  0  0  0  0  0  0  0  0  0  0  0
  -27.8469  -25.1376   19.3686 C   0  0  0  0  0  0  0  0  0  1  0  0
  -20.8816  -27.1670   20.8305 C   0  0  1  0  0  0  0  0  0  0  0  0
  -19.7381  -26.4943   17.2795 C   0  0  2  0  0  0  0  0  0  0  0  0
  -20.0376  -26.6817   22.0428 C   0  0  0  0  0  0  0  0  0  0  0  0
  -28.9467  -24.3827   18.5762 C   0  0  1  0  0  0  0  0  0  0  0  0
  -25.0469  -13.7917   20.9606 N   0  0  0  0  0  0  0  0  0  0  0  0
  -26.2806  -13.3353   20.6853 N   0  0  0  0  0  0  0  0  0  0  0  0
  -22.7491  -28.7823   20.9939 N   0  0  0  0  0  0  0  0  0  0  0  0
  -28.2972  -16.5728   20.8725 N   0  0  0  0  0  0  0  0  0  0  0  0
  -27.4607  -11.4381   19.8988 N   0  0  0  0  0  0  0  0  0  0  0  0
  -23.1501  -10.0941   19.8104 N   0  0  0  0  0  0  0  0  0  0  0  0
  -28.2995  -17.4031   18.6650 N   0  0  0  0  0  0  0  0  0  0  0  0
  -24.0608  -31.2628   23.3226 N   0  0  0  0  0  0  0  0  0  0  0  0
  -20.1766  -27.1188   19.5541 N   0  0  0  0  0  0  0  0  0  0  0  0
  -20.5347  -26.4428   16.0211 N   0  3  0  0  0  0  0  0  0  0  0  0
  -25.3112   -9.4463   19.3998 O   0  0  0  0  0  0  0  0  0  0  0  0
  -23.4576  -29.0167   23.4391 O   0  0  0  0  0  0  0  0  0  0  0  0
  -20.5327  -29.4961   21.1130 O   0  0  0  0  0  0  0  0  0  0  0  0
  -21.6813  -25.7151   18.4853 O   0  0  0  0  0  0  0  0  0  0  0  0
  -29.8936  -18.1028   20.1983 O   0  0  0  0  0  0  0  0  0  0  0  0
  -18.7224  -13.1309   21.2967 O   0  0  0  0  0  0  0  0  0  0  0  0
  -28.3200  -26.4026   19.8296 O   0  0  0  0  0  0  0  0  0  1  0  0
  -15.5338  -11.2245   17.2221 F   0  0  0  0  0  0  0  0  0  0  0  0
  -18.8449  -10.4800   20.5218 F   0  0  0  0  0  0  0  0  0  0  0  0
  1  2  1  0  0  0  0
  1  5  2  0  0  0  0
  2  6  2  0  0  0  0
  3  8  2  0  0  0  0
  3 18  1  0  0  0  0
  4  9  1  0  0  0  0
  4 18  2  0  0  0  0
  5 20  1  0  0  0  0
  6 22  1  0  0  0  0
  7 10  2  0  0  0  0
  7 21  1  0  0  0  0
  8 27  1  0  0  0  0
  9 27  2  0  0  0  0
 10 28  1  0  0  0  0
 11 12  2  0  0  0  0
 11 29  1  0  0  0  0
 12 30  1  0  0  0  0
 13 23  1  0  0  0  0
 13 28  2  0  0  0  0
 14 24  1  0  0  0  0
 14 25  2  0  0  0  0
 15 24  2  0  0  0  0
 15 26  1  0  0  0  0
 16 25  1  0  0  0  0
 16 26  2  0  0  0  0
 17 30  2  0  0  0  0
 17 31  1  0  0  0  0
 18 32  1  0  0  0  0
 19 32  1  0  0  0  0
 19 33  2  0  0  0  0
 19 34  1  0  0  0  0
 20 22  2  0  0  0  0
 20 39  1  0  0  0  0
 21 23  2  0  0  0  0
 21 40  1  0  0  0  0
 22 48  1  0  0  0  0
 23 41  1  0  0  0  0
 24 59  1  0  0  0  0
 25 60  1  0  0  0  0
 26 74  1  0  0  0  0
 27 83  1  0  0  0  0
 28 84  1  0  0  0  0
 29 31  2  0  0  0  0
 29 83  1  0  0  0  0
 30 85  1  0  0  0  0
 31 86  1  0  0  0  0
 32 68  2  0  0  0  0
 33 69  1  0  0  0  0
 33 72  1  0  0  0  0
 34 73  1  0  0  0  0
 34 78  2  0  0  0  0
 35 49  1  0  0  0  0
 35 75  1  0  0  0  0
 35 79  2  0  0  0  0
 36 64  1  0  0  0  0
 36 70  1  0  0  0  0
 36 80  2  0  0  0  0
 37 65  1  0  0  0  0
 37 76  1  0  0  0  0
 37 81  2  0  0  0  0
 38 71  1  0  0  0  0
 38 74  1  0  0  0  0
 38 82  2  0  0  0  0
 39 42  1  0  0  0  0
 40 49  1  0  0  0  0
 41 70  1  0  0  0  0
 42 44  1  0  0  0  0
 43 45  1  0  0  0  0
 43 46  1  0  0  0  0
 44 48  1  0  0  0  0
 45 50  1  0  0  0  0
 46 71  1  0  0  0  0
 47 50  1  0  0  0  0
 47 71  1  0  0  0  0
 48 75  1  0  0  0  0
 49 70  1  0  0  0  0
 50 69  1  0  0  0  0
 51 59  1  0  0  0  0
 52 61  1  0  0  0  0
 53 65  1  0  0  0  0
 54 66  1  0  0  0  0
 55 66  1  0  0  0  0
 56 66  1  0  0  0  0
 57 67  1  0  0  0  0
 58 77  1  0  0  0  0
 60 62  1  0  0  0  0
 61 67  1  0  0  0  0
 62 67  1  0  0  0  0
 63 67  1  0  0  0  0
 63 84  1  0  0  0  0
 64 66  1  0  0  0  0
 64 76  1  0  0  0  0
 65 77  1  0  0  0  0
 68 69  1  0  0  0  0
M  CHG  1  77   1
M  ISO  4  38 100  63 101  74 100  84 101
M  END
> <Batch ID>
0134

> <Smiles>
CCc1cc(CCC(C)(CC)[101CH2:1][101O:1]c2ccc3c(c2)CN(C(=O)C(NC(=O)C(C)NC)C(C)(C)C)C(C(=O)NC2CCCc4ccccc42)C3)cc([100NH:0][100C:0](=O)N2CCCC(n3nc(-c4ccc(Oc5ccc(F)cc5F)cc4)c(C(N)=O)c3N)C2)c1

> <Shape>
0.275

> <Color>
0.087

> <Negative vol penalty>
0.000

$$$$

  -OEChem-04052302333D

 85 93  0     1  0  0  0  0  0999 V2000
  -29.6659  -28.8954   20.0289 C   0  0  0  0  0  0  0  0  0  0  0  0
  -29.0498  -27.8677   20.7359 C   0  0  0  0  0  0  0  0  0  0  0  0
  -28.9269  -17.1121   19.4623 C   0  0  0  0  0  0  0  0  0  0  0  0
  -27.9164  -17.6755   21.5832 C   0  0  0  0  0  0  0  0  0  0  0  0
  -29.0773  -30.1584   19.9824 C   0  0  0  0  0  0  0  0  0  0  0  0
  -27.8452  -28.1029   21.3978 C   0  0  0  0  0  0  0  0  0  0  0  0
  -24.4657  -24.4055   20.6538 C   0  0  0  0  0  0  0  0  0  0  0  0
  -29.2591  -18.4523   19.2645 C   0  0  0  0  0  0  0  0  0  0  0  0
  -28.2486  -19.0157   21.3855 C   0  0  0  0  0  0  0  0  0  0  0  0
  -24.6326  -23.2329   21.3892 C   0  0  0  0  0  0  0  0  0  0  0  0
  -30.9929  -20.9676   21.6669 C   0  0  0  0  0  0  0  0  0  0  0  0
  -31.5483  -21.6615   22.7419 C   0  0  0  0  0  0  0  0  0  0  0  0
  -22.9347  -23.9689   22.9366 C   0  0  0  0  0  0  0  0  0  0  0  0
  -21.5193  -12.9430   25.5322 C   0  0  0  0  0  0  0  0  0  0  0  0
  -21.4812  -15.0699   26.6775 C   0  0  0  0  0  0  0  0  0  0  0  0
  -20.8963  -14.9478   24.3365 C   0  0  0  0  0  0  0  0  0  0  0  0
  -29.7070  -23.2247   22.6841 C   0  0  0  0  0  0  0  0  0  0  0  0
  -28.2555  -16.7237   20.6216 C   0  0  0  0  0  0  0  0  0  0  0  0
  -28.6922  -14.3543   21.4601 C   0  0  0  0  0  0  0  0  0  0  0  0
  -27.8600  -30.4066   20.6361 C   0  0  0  0  0  0  0  0  0  0  0  0
  -23.5382  -25.3752   21.0610 C   0  0  0  0  0  0  0  0  0  0  0  0
  -27.2405  -29.3708   21.3612 C   0  0  0  0  0  0  0  0  0  0  0  0
  -22.7561  -25.1518   22.2032 C   0  0  0  0  0  0  0  0  0  0  0  0
  -21.7016  -13.6927   26.6942 C   0  0  0  0  0  0  0  0  0  0  0  0
  -21.1167  -13.5706   24.3533 C   0  0  0  0  0  0  0  0  0  0  0  0
  -21.0785  -15.6975   25.4986 C   0  0  0  0  0  0  0  0  0  0  0  0
  -28.9200  -19.4041   20.2261 C   0  0  0  0  0  0  0  0  0  0  0  0
  -23.8691  -23.0157   22.5325 C   0  0  0  0  0  0  0  0  0  0  0  0
  -29.7946  -21.4023   21.1003 C   0  0  0  0  0  0  0  0  0  0  0  0
  -30.9053  -22.7900   23.2505 C   0  0  0  0  0  0  0  0  0  0  0  0
  -29.1517  -22.5308   21.6090 C   0  0  0  0  0  0  0  0  0  0  0  0
  -27.9116  -15.3395   20.8262 C   0  0  0  0  0  0  0  0  0  0  0  0
  -27.9257  -13.2163   21.3981 C   0  0  0  0  0  0  0  0  0  0  0  0
  -29.9939  -14.4585   22.0521 C   0  0  0  0  0  0  0  0  0  0  0  0
  -23.7252  -28.4134   21.9766 C   0  0  0  0  0  0  0  0  0  0  0  0
  -22.9382  -19.8682   24.0595 C   0  0  0  0  0  0  0  0  0  0  0  0
  -20.4874  -28.2192   21.9340 C   0  0  0  0  0  0  0  0  0  0  0  0
  -17.6999  -26.2588   22.1165 C   0  0  0  0  0  0  0  0  0  0  0  0
  -22.0274  -12.2933   20.9405 C   0  0  0  0  0  0  0  0  0  0  0  0
  -27.2860  -31.8007   20.5969 C   0  0  0  0  0  0  0  0  0  0  0  0
  -23.3512  -26.6227   20.2418 C   0  0  0  0  0  0  0  0  0  0  0  0
  -21.7323  -26.1523   22.6714 C   0  0  0  0  0  0  0  0  0  0  0  0
  -25.8189  -31.8674   21.0134 C   0  0  0  0  0  0  0  0  0  0  0  0
  -24.5569  -11.1116   18.7311 C   0  0  0  0  0  0  0  0  0  0  0  0
  -25.5887  -31.0615   22.2879 C   0  0  0  0  0  0  0  0  0  0  0  0
  -25.7740  -11.9722   19.0747 C   0  0  0  0  0  0  0  0  0  0  0  0
  -23.2576  -11.9084   18.8252 C   0  0  0  0  0  0  0  0  0  0  0  0
  -24.2634  -13.4598   20.4546 C   0  0  0  0  0  0  0  0  0  0  0  0
  -25.9207  -29.5801   22.0715 C   0  0  1  0  0  0  0  0  0  0  0  0
  -22.7427  -27.7739   21.0367 C   0  0  1  0  0  0  0  0  0  0  0  0
  -25.5923  -12.6854   20.4281 C   0  0  2  0  0  0  0  0  0  0  0  0
  -22.1318  -13.0210   27.9545 C   0  0  0  0  0  0  0  0  0  0  0  0
  -15.1941  -26.3901   22.0886 C   0  0  0  0  0  0  0  0  0  0  0  0
  -20.5123  -29.2567   24.8033 C   0  0  0  0  0  0  0  0  0  0  0  0
  -18.1449  -28.4751   25.0326 C   0  0  0  0  0  0  0  0  0  0  0  0
  -18.7199  -30.2314   23.3571 C   0  0  0  0  0  0  0  0  0  0  0  0
  -17.5230  -24.5766   19.6880 C   0  0  0  0  0  0  0  0  0  0  0  0
  -20.9212  -12.7695   23.1105 C   0  0  0  0  0  0  0  0  0  0  0  0
  -20.8416  -17.1791   25.4810 C   0  0  0  0  0  0  0  0  0  0  0  0
  -22.8887  -21.3785   23.9517 C   0  0  0  0  0  0  0  0  0  1  0  0
  -21.7677  -19.2180   24.7681 C   0  0  0  0  0  0  0  0  0  0  0  0
  -19.4258  -27.8401   22.9381 C   0  0  1  0  0  0  0  0  0  0  0  0
  -16.4516  -26.2001   21.2548 C   0  0  2  0  0  0  0  0  0  0  0  0
  -19.2213  -28.9327   24.0253 C   0  0  0  0  0  0  0  0  0  0  0  0
  -26.7391  -14.8686   20.3932 N   0  0  0  0  0  0  0  0  0  0  0  0
  -26.7773  -13.5750   20.7556 N   0  0  0  0  0  0  0  0  0  0  0  0
  -21.5908  -27.3593   21.8402 N   0  0  0  0  0  0  0  0  0  0  0  0
  -23.1458  -12.5584   20.1332 N   0  0  0  0  0  0  0  0  0  0  0  0
  -28.1286  -11.9539   21.8310 N   0  0  0  0  0  0  0  0  0  0  0  0
  -30.6407  -15.7017   22.0292 N   0  0  0  0  0  0  0  0  0  0  0  0
  -24.8497  -28.9216   21.3548 N   0  0  0  0  0  0  0  0  0  0  0  0
  -18.2261  -27.5323   22.1672 N   0  0  0  0  0  0  0  0  0  0  0  0
  -22.0029  -12.9455   22.1672 N   0  0  0  0  0  0  0  0  0  0  0  0
  -16.3617  -24.8837   20.5621 N   0  3  0  0  0  0  0  0  0  0  0  0
  -30.5734  -13.4744   22.5710 O   0  0  0  0  0  0  0  0  0  0  0  0
  -23.4804  -28.4448   23.1769 O   0  0  0  0  0  0  0  0  0  0  0  0
  -23.8712  -19.2109   23.6007 O   0  0  0  0  0  0  0  0  0  0  0  0
  -20.3396  -29.2369   21.2527 O   0  0  0  0  0  0  0  0  0  0  0  0
  -18.1600  -25.2742   22.6905 O   0  0  0  0  0  0  0  0  0  0  0  0
  -21.1206  -11.5278   20.5961 O   0  0  0  0  0  0  0  0  0  0  0  0
  -29.2442  -20.7119   20.0336 O   0  0  0  0  0  0  0  0  0  0  0  0
  -24.0305  -21.8723   23.2525 O   0  0  0  0  0  0  0  0  0  1  0  0
  -21.9302  -17.8163   24.8187 O   0  0  0  0  0  0  0  0  0  0  0  0
  -31.4379  -23.4554   24.2839 F   0  0  0  0  0  0  0  0  0  0  0  0
  -27.9997  -22.9525   21.0697 F   0  0  0  0  0  0  0  0  0  0  0  0
  1  2  1  0  0  0  0
  1  5  2  0  0  0  0
  2  6  2  0  0  0  0
  3  8  2  0  0  0  0
  3 18  1  0  0  0  0
  4  9  1  0  0  0  0
  4 18  2  0  0  0  0
  5 20  1  0  0  0  0
  6 22  1  0  0  0  0
  7 10  2  0  0  0  0
  7 21  1  0  0  0  0
  8 27  1  0  0  0  0
  9 27  2  0  0  0  0
 10 28  1  0  0  0  0
 11 12  2  0  0  0  0
 11 29  1  0  0  0  0
 12 30  1  0  0  0  0
 13 23  1  0  0  0  0
 13 28  2  0  0  0  0
 14 24  1  0  0  0  0
 14 25  2  0  0  0  0
 15 24  2  0  0  0  0
 15 26  1  0  0  0  0
 16 25  1  0  0  0  0
 16 26  2  0  0  0  0
 17 30  2  0  0  0  0
 17 31  1  0  0  0  0
 18 32  1  0  0  0  0
 19 32  1  0  0  0  0
 19 33  2  0  0  0  0
 19 34  1  0  0  0  0
 20 22  2  0  0  0  0
 20 40  1  0  0  0  0
 21 23  2  0  0  0  0
 21 41  1  0  0  0  0
 22 49  1  0  0  0  0
 23 42  1  0  0  0  0
 24 52  1  0  0  0  0
 25 58  1  0  0  0  0
 26 59  1  0  0  0  0
 27 81  1  0  0  0  0
 28 82  1  0  0  0  0
 29 31  2  0  0  0  0
 29 81  1  0  0  0  0
 30 84  1  0  0  0  0
 31 85  1  0  0  0  0
 32 65  2  0  0  0  0
 33 66  1  0  0  0  0
 33 69  1  0  0  0  0
 34 70  1  0  0  0  0
 34 75  2  0  0  0  0
 35 50  1  0  0  0  0
 35 71  1  0  0  0  0
 35 76  2  0  0  0  0
 36 60  1  0  0  0  0
 36 61  1  0  0  0  0
 36 77  2  0  0  0  0
 37 62  1  0  0  0  0
 37 67  1  0  0  0  0
 37 78  2  0  0  0  0
 38 63  1  0  0  0  0
 38 72  1  0  0  0  0
 38 79  2  0  0  0  0
 39 68  1  0  0  0  0
 39 73  1  0  0  0  0
 39 80  2  0  0  0  0
 40 43  1  0  0  0  0
 41 50  1  0  0  0  0
 42 67  1  0  0  0  0
 43 45  1  0  0  0  0
 44 46  1  0  0  0  0
 44 47  1  0  0  0  0
 45 49  1  0  0  0  0
 46 51  1  0  0  0  0
 47 68  1  0  0  0  0
 48 51  1  0  0  0  0
 48 68  1  0  0  0  0
 49 71  1  0  0  0  0
 50 67  1  0  0  0  0
 51 66  1  0  0  0  0
 53 63  1  0  0  0  0
 54 64  1  0  0  0  0
 55 64  1  0  0  0  0
 56 64  1  0  0  0  0
 57 74  1  0  0  0  0
 58 73  1  0  0  0  0
 59 83  1  0  0  0  0
 60 82  1  0  0  0  0
 61 83  1  0  0  0  0
 62 64  1  0  0  0  0
 62 72  1  0  0  0  0
 63 74  1  0  0  0  0
 65 66  1  0  0  0  0
M  CHG  1  74   1
M  ISO  4  39 100  60 101  73 100  82 101
M  END
> <Batch ID>
0134

> <Smiles>
CNC(C)C(=O)NC(C(=O)N1Cc2cc([101O:1][101CH2:1]C(=O)COCc3cc(C)cc(C[100NH:0][100C:0](=O)N4CCCC(n5nc(-c6ccc(Oc7ccc(F)cc7F)cc6)c(C(N)=O)c5N)C4)c3)ccc2CC1C(=O)NC1CCCc2ccccc21)C(C)(C)C

> <Shape>
0.236

> <Color>
0.057

> <Negative vol penalty>
0.000

$$$$

  -OEChem-04052302333D

 86 94  0     1  0  0  0  0  0999 V2000
  -31.7019  -22.5629   21.6568 C   0  0  0  0  0  0  0  0  0  0  0  0
  -30.3490  -22.8248   21.8477 C   0  0  0  0  0  0  0  0  0  0  0  0
  -18.5418  -28.7766   21.6890 C   0  0  0  0  0  0  0  0  0  0  0  0
  -28.1609  -25.9550   18.6256 C   0  0  0  0  0  0  0  0  0  0  0  0
  -28.7049  -26.6518   20.8741 C   0  0  0  0  0  0  0  0  0  0  0  0
  -19.5060  -29.4600   22.4299 C   0  0  0  0  0  0  0  0  0  0  0  0
  -32.0997  -21.5841   20.7471 C   0  0  0  0  0  0  0  0  0  0  0  0
  -29.3931  -22.1088   21.1280 C   0  0  0  0  0  0  0  0  0  0  0  0
  -23.8500  -20.3811   23.0762 C   0  0  0  0  0  0  0  0  0  0  0  0
  -18.4600  -27.3862   21.7649 C   0  0  0  0  0  0  0  0  0  0  0  0
  -29.4956  -25.6125   18.4088 C   0  0  0  0  0  0  0  0  0  0  0  0
  -30.0396  -26.3092   20.6573 C   0  0  0  0  0  0  0  0  0  0  0  0
  -22.5795  -20.9248   22.8919 C   0  0  0  0  0  0  0  0  0  0  0  0
  -32.7345  -27.6429   19.1115 C   0  0  0  0  0  0  0  0  0  0  0  0
  -33.7117  -28.5447   19.5327 C   0  0  0  0  0  0  0  0  0  0  0  0
  -22.2049  -19.4100   21.0523 C   0  0  0  0  0  0  0  0  0  0  0  0
  -34.6351  -26.8599   20.9976 C   0  0  0  0  0  0  0  0  0  0  0  0
  -27.7656  -26.4748   19.8582 C   0  0  0  0  0  0  0  0  0  0  0  0
  -20.3885  -28.7530   23.2465 C   0  0  0  0  0  0  0  0  0  0  0  0
  -25.2684  -25.9775   20.0146 C   0  0  0  0  0  0  0  0  0  0  0  0
  -31.1479  -20.8490   20.0230 C   0  0  0  0  0  0  0  0  0  0  0  0
  -24.3125  -19.3536   22.2416 C   0  0  0  0  0  0  0  0  0  0  0  0
  -29.7786  -21.1202   20.2067 C   0  0  0  0  0  0  0  0  0  0  0  0
  -23.4807  -18.8533   21.2297 C   0  0  0  0  0  0  0  0  0  0  0  0
  -19.3425  -26.6792   22.5815 C   0  0  0  0  0  0  0  0  0  0  0  0
  -20.3067  -27.3625   23.3224 C   0  0  0  0  0  0  0  0  0  0  0  0
  -30.4349  -25.7896   19.4246 C   0  0  0  0  0  0  0  0  0  0  0  0
  -21.7578  -20.4412   21.8780 C   0  0  0  0  0  0  0  0  0  0  0  0
  -32.7076  -26.3496   19.6333 C   0  0  0  0  0  0  0  0  0  0  0  0
  -34.6620  -28.1532   20.4757 C   0  0  0  0  0  0  0  0  0  0  0  0
  -33.6579  -25.9581   20.5764 C   0  0  0  0  0  0  0  0  0  0  0  0
  -26.3872  -26.8293   20.0826 C   0  0  0  0  0  0  0  0  0  0  0  0
  -24.2001  -26.7899   20.3066 C   0  0  0  0  0  0  0  0  0  0  0  0
  -21.3841  -29.4943   24.0095 C   0  0  0  0  0  0  0  0  0  0  0  0
  -25.2009  -24.5772   19.7144 C   0  0  0  0  0  0  0  0  0  0  0  0
  -21.9362  -30.7756   23.5128 C   0  0  0  0  0  0  0  0  0  0  0  0
  -26.7247  -19.0401   20.1954 C   0  0  0  0  0  0  0  0  0  0  0  0
  -25.6995  -15.9655   20.0611 C   0  0  0  0  0  0  0  0  0  0  0  0
  -23.1411  -13.7441   20.4691 C   0  0  0  0  0  0  0  0  0  0  0  0
  -31.6274  -19.8337   19.0160 C   0  0  0  0  0  0  0  0  0  0  0  0
  -25.6753  -18.7596   22.4705 C   0  0  0  0  0  0  0  0  0  0  0  0
  -23.9222  -17.7374   20.3196 C   0  0  0  0  0  0  0  0  0  0  0  0
  -30.5406  -18.8598   18.5682 C   0  0  0  0  0  0  0  0  0  0  0  0
  -23.8768  -31.8154   20.6827 C   0  0  0  0  0  0  0  0  0  0  0  0
  -29.2558  -19.6108   18.2333 C   0  0  0  0  0  0  0  0  0  0  0  0
  -24.6403  -30.5498   20.2939 C   0  0  0  0  0  0  0  0  0  0  0  0
  -23.6809  -31.9076   22.1925 C   0  0  0  0  0  0  0  0  0  0  0  0
  -23.7740  -29.4385   22.4010 C   0  0  0  0  0  0  0  0  0  0  0  0
  -28.7110  -20.3474   19.4629 C   0  0  1  0  0  0  0  0  0  0  0  0
  -26.2411  -18.0680   21.2340 C   0  0  1  0  0  0  0  0  0  0  0  0
  -23.9670  -29.2965   20.8812 C   0  0  2  0  0  0  0  0  0  0  0  0
  -20.5933  -26.1445   25.4951 C   0  0  0  0  0  0  0  0  0  0  0  0
  -22.5961  -11.3046   20.2468 C   0  0  0  0  0  0  0  0  0  0  0  0
  -25.5650  -16.2744   17.0285 C   0  0  0  0  0  0  0  0  0  0  0  0
  -24.1501  -14.2104   16.9508 C   0  0  0  0  0  0  0  0  0  0  0  0
  -26.4871  -14.0865   17.8144 C   0  0  0  0  0  0  0  0  0  0  0  0
  -19.3299  -22.4958   19.7458 C   0  0  0  0  0  0  0  0  0  0  0  0
  -17.8651  -22.5579   21.7800 C   0  0  0  0  0  0  0  0  0  0  0  0
  -22.4981  -13.5064   23.3482 C   0  0  0  0  0  0  0  0  0  0  0  0
  -19.2314  -25.1750   22.6472 C   0  0  0  0  0  0  0  0  0  0  0  0
  -21.2515  -26.6009   24.1978 C   0  0  0  0  0  0  0  0  0  0  0  0
  -19.3807  -24.5422   21.2566 C   0  0  0  0  0  0  0  0  0  0  0  0
  -20.3380  -22.3415   22.0481 C   0  0  0  0  0  0  0  0  0  1  0  0
  -24.7055  -15.2059   19.2161 C   0  0  1  0  0  0  0  0  0  0  0  0
  -23.0735  -12.4052   21.1814 C   0  0  2  0  0  0  0  0  0  0  0  0
  -25.2190  -14.9667   17.7682 C   0  0  0  0  0  0  0  0  0  0  0  0
  -19.2210  -22.9959   21.1983 C   0  0  0  0  0  0  0  0  0  0  0  0
  -26.0600  -28.0865   20.3932 N   0  0  0  0  0  0  0  0  0  0  0  0
  -21.8476  -29.0910   25.1600 N   0  0  0  0  0  0  0  0  0  0  0  0
  -24.7235  -28.0307   20.5229 N   0  0  0  0  0  0  0  0  0  0  0  0
  -23.0734  -30.6883   22.7221 N   0  0  0  0  0  0  0  0  0  0  0  0
  -25.2656  -17.1939   20.5793 N   0  0  0  0  0  0  0  0  0  0  0  0
  -22.8735  -26.5569   20.3967 N   0  0  0  0  0  0  0  0  0  0  0  0
  -25.2967  -23.6619   20.7715 N   0  0  0  0  0  0  0  0  0  0  0  0
  -28.0437  -19.4212   20.3524 N   0  0  0  0  0  0  0  0  0  0  0  0
  -24.3958  -13.9836   19.9499 N   0  0  0  0  0  0  0  0  0  0  0  0
  -22.1357  -12.4801   22.3371 N   0  3  0  0  0  0  0  0  0  0  0  0
  -25.0763  -24.1498   18.5417 O   0  0  0  0  0  0  0  0  0  0  0  0
  -21.3269  -31.7805   23.8553 O   0  0  0  0  0  0  0  0  0  0  0  0
  -25.9585  -19.4155   19.3159 O   0  0  0  0  0  0  0  0  0  0  0  0
  -26.8173  -15.4832   20.2600 O   0  0  0  0  0  0  0  0  0  0  0  0
  -22.1762  -14.5000   20.3789 O   0  0  0  0  0  0  0  0  0  0  0  0
  -31.7373  -25.4552   19.2135 O   0  0  0  0  0  0  0  0  0  0  0  0
  -20.5175  -20.9704   21.6955 O   0  0  0  0  0  0  0  0  0  1  0  0
  -35.6013  -29.0188   20.8790 F   0  0  0  0  0  0  0  0  0  0  0  0
  -33.6378  -24.7166   21.0804 F   0  0  0  0  0  0  0  0  0  0  0  0
  1  2  1  0  0  0  0
  1  7  2  0  0  0  0
  2  8  2  0  0  0  0
  3  6  2  0  0  0  0
  3 10  1  0  0  0  0
  4 11  2  0  0  0  0
  4 18  1  0  0  0  0
  5 12  1  0  0  0  0
  5 18  2  0  0  0  0
  6 19  1  0  0  0  0
  7 21  1  0  0  0  0
  8 23  1  0  0  0  0
  9 13  2  0  0  0  0
  9 22  1  0  0  0  0
 10 25  2  0  0  0  0
 11 27  1  0  0  0  0
 12 27  2  0  0  0  0
 13 28  1  0  0  0  0
 14 15  2  0  0  0  0
 14 29  1  0  0  0  0
 15 30  1  0  0  0  0
 16 24  1  0  0  0  0
 16 28  2  0  0  0  0
 17 30  2  0  0  0  0
 17 31  1  0  0  0  0
 18 32  1  0  0  0  0
 19 26  2  0  0  0  0
 19 34  1  0  0  0  0
 20 32  1  0  0  0  0
 20 33  2  0  0  0  0
 20 35  1  0  0  0  0
 21 23  2  0  0  0  0
 21 40  1  0  0  0  0
 22 24  2  0  0  0  0
 22 41  1  0  0  0  0
 23 49  1  0  0  0  0
 24 42  1  0  0  0  0
 25 26  1  0  0  0  0
 25 60  1  0  0  0  0
 26 61  1  0  0  0  0
 27 83  1  0  0  0  0
 28 84  1  0  0  0  0
 29 31  2  0  0  0  0
 29 83  1  0  0  0  0
 30 85  1  0  0  0  0
 31 86  1  0  0  0  0
 32 68  2  0  0  0  0
 33 70  1  0  0  0  0
 33 73  1  0  0  0  0
 34 36  1  0  0  0  0
 34 69  2  0  0  0  0
 35 74  1  0  0  0  0
 35 78  2  0  0  0  0
 36 71  1  0  0  0  0
 36 79  2  0  0  0  0
 37 50  1  0  0  0  0
 37 75  1  0  0  0  0
 37 80  2  0  0  0  0
 38 64  1  0  0  0  0
 38 72  1  0  0  0  0
 38 81  2  0  0  0  0
 39 65  1  0  0  0  0
 39 76  1  0  0  0  0
 39 82  2  0  0  0  0
 40 43  1  0  0  0  0
 41 50  1  0  0  0  0
 42 72  1  0  0  0  0
 43 45  1  0  0  0  0
 44 46  1  0  0  0  0
 44 47  1  0  0  0  0
 45 49  1  0  0  0  0
 46 51  1  0  0  0  0
 47 71  1  0  0  0  0
 48 51  1  0  0  0  0
 48 71  1  0  0  0  0
 49 75  1  0  0  0  0
 50 72  1  0  0  0  0
 51 70  1  0  0  0  0
 52 61  1  0  0  0  0
 53 65  1  0  0  0  0
 54 66  1  0  0  0  0
 55 66  1  0  0  0  0
 56 66  1  0  0  0  0
 57 67  1  0  0  0  0
 58 67  1  0  0  0  0
 59 77  1  0  0  0  0
 60 62  1  0  0  0  0
 62 67  1  0  0  0  0
 63 67  1  0  0  0  0
 63 84  1  0  0  0  0
 64 66  1  0  0  0  0
 64 76  1  0  0  0  0
 65 77  1  0  0  0  0
 68 70  1  0  0  0  0
M  CHG  1  77   1
M  ISO  4  34 100  36 100  63 101  84 101
M  END
> <Batch ID>
0134

> <Smiles>
CCc1c(CCC(C)(C)[101CH2:1][101O:1]c2ccc3c(c2)CN(C(=O)C(NC(=O)C(C)NC)C(C)(C)C)C(C(=O)NC2CCCc4ccccc42)C3)cccc1[100C:0](=N)[100C:0](=O)N1CCCC(n2nc(-c3ccc(Oc4ccc(F)cc4F)cc3)c(C(N)=O)c2N)C1

> <Shape>
0.221

> <Color>
0.066

> <Negative vol penalty>
0.000

$$$$

  -OEChem-04052302333D

 85 94  0     1  0  0  0  0  0999 V2000
  -33.9255  -24.7834   18.1238 C   0  0  0  0  0  0  0  0  0  0  0  0
  -32.8209  -24.2419   18.7736 C   0  0  0  0  0  0  0  0  0  0  0  0
  -24.4121   -9.0728   21.5169 C   0  0  0  0  0  0  0  0  0  0  0  0
  -24.6356  -10.3575   23.5508 C   0  0  0  0  0  0  0  0  0  0  0  0
  -34.4030  -26.0403   18.4929 C   0  0  0  0  0  0  0  0  0  0  0  0
  -32.1938  -24.9566   19.7936 C   0  0  0  0  0  0  0  0  0  0  0  0
  -30.7027  -19.8542   21.4697 C   0  0  0  0  0  0  0  0  0  0  0  0
  -27.1459  -24.8857   19.3956 C   0  0  0  0  0  0  0  0  0  0  0  0
  -31.1546  -18.5587   21.7336 C   0  0  0  0  0  0  0  0  0  0  0  0
  -24.1121   -7.9362   22.2678 C   0  0  0  0  0  0  0  0  0  0  0  0
  -24.3355   -9.2210   24.3017 C   0  0  0  0  0  0  0  0  0  0  0  0
  -26.4905  -23.7283   19.8134 C   0  0  0  0  0  0  0  0  0  0  0  0
  -21.4380   -6.6624   23.8985 C   0  0  0  0  0  0  0  0  0  0  0  0
  -20.3674   -5.8725   23.4794 C   0  0  0  0  0  0  0  0  0  0  0  0
  -29.1917  -18.0988   23.1046 C   0  0  0  0  0  0  0  0  0  0  0  0
  -25.9411  -24.8011   21.9030 C   0  0  0  0  0  0  0  0  0  0  0  0
  -21.8592   -3.9904   23.2159 C   0  0  0  0  0  0  0  0  0  0  0  0
  -24.6739  -10.2834   22.1584 C   0  0  0  0  0  0  0  0  0  0  0  0
  -24.0767  -12.4098   20.8818 C   0  0  0  0  0  0  0  0  0  0  0  0
  -33.7755  -26.7749   19.5113 C   0  0  0  0  0  0  0  0  0  0  0  0
  -29.5063  -20.2302   22.0336 C   0  0  0  0  0  0  0  0  0  0  0  0
  -27.2133  -26.0076   20.2341 C   0  0  0  0  0  0  0  0  0  0  0  0
  -32.6642  -26.2239   20.1775 C   0  0  0  0  0  0  0  0  0  0  0  0
  -28.7726  -19.3787   22.8250 C   0  0  0  0  0  0  0  0  0  0  0  0
  -26.5957  -25.9724   21.4924 C   0  0  0  0  0  0  0  0  0  0  0  0
  -30.4040  -17.6866   22.5458 C   0  0  0  0  0  0  0  0  0  0  0  0
  -24.0738   -8.0103   23.6602 C   0  0  0  0  0  0  0  0  0  0  0  0
  -25.8904  -23.6848   21.0685 C   0  0  0  0  0  0  0  0  0  0  0  0
  -22.7192   -6.1163   23.9762 C   0  0  0  0  0  0  0  0  0  0  0  0
  -20.5780   -4.5365   23.1382 C   0  0  0  0  0  0  0  0  0  0  0  0
  -22.9297   -4.7803   23.6350 C   0  0  0  0  0  0  0  0  0  0  0  0
  -24.9844  -11.4577   21.3833 C   0  0  0  0  0  0  0  0  0  0  0  0
  -24.8645  -13.3204   20.2210 C   0  0  0  0  0  0  0  0  0  0  0  0
  -22.6492  -12.4661   21.0026 C   0  0  0  0  0  0  0  0  0  0  0  0
  -29.5673  -27.6410   21.6107 C   0  0  0  0  0  0  0  0  0  0  0  0
  -27.1540  -29.6223   22.4899 C   0  0  0  0  0  0  0  0  0  0  0  0
  -23.8239  -30.0330   23.1132 C   0  0  0  0  0  0  0  0  0  0  0  0
  -30.6101  -14.9087   20.7843 C   0  0  0  0  0  0  0  0  0  0  0  0
  -34.3566  -28.1091   19.9076 C   0  0  0  0  0  0  0  0  0  0  0  0
  -28.5201  -21.3550   22.1562 C   0  0  0  0  0  0  0  0  0  0  0  0
  -27.9011  -27.2577   19.7579 C   0  0  0  0  0  0  0  0  0  0  0  0
  -26.6222  -27.1569   22.4223 C   0  0  0  0  0  0  0  0  0  0  0  0
  -33.4067  -28.9631   20.7433 C   0  0  0  0  0  0  0  0  0  0  0  0
  -29.0094  -13.6666   17.8565 C   0  0  0  0  0  0  0  0  0  0  0  0
  -32.7744  -28.1286   21.8526 C   0  0  0  0  0  0  0  0  0  0  0  0
  -27.7144  -13.0456   18.3831 C   0  0  0  0  0  0  0  0  0  0  0  0
  -30.1707  -13.4570   18.8257 C   0  0  0  0  0  0  0  0  0  0  0  0
  -28.6193  -13.2868   20.7330 C   0  0  0  0  0  0  0  0  0  0  0  0
  -27.6820  -20.3882   23.0708 C   0  0  1  0  0  0  0  0  0  0  0  0
  -31.9417  -26.9792   21.2719 C   0  0  1  0  0  0  0  0  0  0  0  0
  -28.3513  -28.1639   20.8996 C   0  0  1  0  0  0  0  0  0  0  0  0
  -27.4067  -13.5209   19.8158 C   0  0  2  0  0  0  0  0  0  0  0  0
  -22.1559  -31.7562   23.8517 C   0  0  0  0  0  0  0  0  0  0  0  0
  -28.1308  -29.3318   25.3659 C   0  0  0  0  0  0  0  0  0  0  0  0
  -25.9338  -30.2562   26.1318 C   0  0  0  0  0  0  0  0  0  0  0  0
  -27.4495  -31.6511   24.7248 C   0  0  0  0  0  0  0  0  0  0  0  0
  -23.8303  -20.2398   22.5172 C   0  0  0  0  0  0  0  0  0  0  0  0
  -25.0455  -20.5481   24.6755 C   0  0  0  0  0  0  0  0  0  0  0  0
  -22.3185  -29.8327   20.5730 C   0  0  0  0  0  0  0  0  0  0  0  0
  -30.9107  -16.3082   22.8116 C   0  0  0  0  0  0  0  0  0  0  0  0
  -26.3120  -19.9765   22.5396 C   0  0  0  0  0  0  0  0  0  0  0  0
  -25.2384  -22.2900   22.8810 C   0  0  0  0  0  0  0  0  0  1  0  0
  -26.2192  -29.7094   23.6720 C   0  0  1  0  0  0  0  0  0  0  0  0
  -22.8387  -31.0967   22.6636 C   0  0  2  0  0  0  0  0  0  0  0  0
  -26.9343  -30.2140   24.9571 C   0  0  0  0  0  0  0  0  0  0  0  0
  -25.1318  -20.7743   23.1554 C   0  0  0  0  0  0  0  0  0  0  0  0
  -26.2518  -11.7374   21.0679 N   0  0  0  0  0  0  0  0  0  0  0  0
  -26.1462  -12.8756   20.3611 N   0  0  0  0  0  0  0  0  0  0  0  0
  -27.3123  -28.3539   21.9137 N   0  0  0  0  0  0  0  0  0  0  0  0
  -29.8148  -13.9300   20.1657 N   0  0  0  0  0  0  0  0  0  0  0  0
  -24.5790  -14.4503   19.5396 N   0  0  0  0  0  0  0  0  0  0  0  0
  -21.9984  -11.4497   21.7152 N   0  0  0  0  0  0  0  0  0  0  0  0
  -30.6676  -27.4703   20.7924 N   0  0  0  0  0  0  0  0  0  0  0  0
  -25.0988  -30.5411   23.2460 N   0  0  0  0  0  0  0  0  0  0  0  0
  -30.1989  -15.3055   22.0508 N   0  0  0  0  0  0  0  0  0  0  0  0
  -21.7893  -30.4958   21.7925 N   0  3  0  0  0  0  0  0  0  0  0  0
  -21.9693  -13.3814   20.4797 O   0  0  0  0  0  0  0  0  0  0  0  0
  -29.5117  -27.4109   22.8130 O   0  0  0  0  0  0  0  0  0  0  0  0
  -27.7174  -30.6434   22.0878 O   0  0  0  0  0  0  0  0  0  0  0  0
  -23.4947  -28.8686   23.3288 O   0  0  0  0  0  0  0  0  0  0  0  0
  -31.6092  -15.3968   20.2454 O   0  0  0  0  0  0  0  0  0  0  0  0
  -23.7809   -6.9015   24.3932 O   0  0  0  0  0  0  0  0  0  0  0  0
  -25.2506  -22.5562   21.4791 O   0  0  0  0  0  0  0  0  0  1  0  0
  -19.5495   -3.7778   22.7373 F   0  0  0  0  0  0  0  0  0  0  0  0
  -24.1581   -4.2497   23.7088 F   0  0  0  0  0  0  0  0  0  0  0  0
  1  2  1  0  0  0  0
  1  5  2  0  0  0  0
  2  6  2  0  0  0  0
  3 10  2  0  0  0  0
  3 18  1  0  0  0  0
  4 11  1  0  0  0  0
  4 18  2  0  0  0  0
  5 20  1  0  0  0  0
  6 23  1  0  0  0  0
  7  9  2  0  0  0  0
  7 21  1  0  0  0  0
  8 12  2  0  0  0  0
  8 22  1  0  0  0  0
  9 26  1  0  0  0  0
 10 27  1  0  0  0  0
 11 27  2  0  0  0  0
 12 28  1  0  0  0  0
 13 14  2  0  0  0  0
 13 29  1  0  0  0  0
 14 30  1  0  0  0  0
 15 24  1  0  0  0  0
 15 26  2  0  0  0  0
 16 25  1  0  0  0  0
 16 28  2  0  0  0  0
 17 30  2  0  0  0  0
 17 31  1  0  0  0  0
 18 32  1  0  0  0  0
 19 32  1  0  0  0  0
 19 33  2  0  0  0  0
 19 34  1  0  0  0  0
 20 23  2  0  0  0  0
 20 39  1  0  0  0  0
 21 24  2  0  0  0  0
 21 40  1  0  0  0  0
 22 25  2  0  0  0  0
 22 41  1  0  0  0  0
 23 50  1  0  0  0  0
 24 49  1  0  0  0  0
 25 42  1  0  0  0  0
 26 60  1  0  0  0  0
 27 82  1  0  0  0  0
 28 83  1  0  0  0  0
 29 31  2  0  0  0  0
 29 82  1  0  0  0  0
 30 84  1  0  0  0  0
 31 85  1  0  0  0  0
 32 67  2  0  0  0  0
 33 68  1  0  0  0  0
 33 71  1  0  0  0  0
 34 72  1  0  0  0  0
 34 77  2  0  0  0  0
 35 51  1  0  0  0  0
 35 73  1  0  0  0  0
 35 78  2  0  0  0  0
 36 63  1  0  0  0  0
 36 69  1  0  0  0  0
 36 79  2  0  0  0  0
 37 64  1  0  0  0  0
 37 74  1  0  0  0  0
 37 80  2  0  0  0  0
 38 70  1  0  0  0  0
 38 75  1  0  0  0  0
 38 81  2  0  0  0  0
 39 43  1  0  0  0  0
 40 49  1  0  0  0  0
 41 51  1  0  0  0  0
 42 69  1  0  0  0  0
 43 45  1  0  0  0  0
 44 46  1  0  0  0  0
 44 47  1  0  0  0  0
 45 50  1  0  0  0  0
 46 52  1  0  0  0  0
 47 70  1  0  0  0  0
 48 52  1  0  0  0  0
 48 70  1  0  0  0  0
 49 61  1  0  0  0  0
 50 73  1  0  0  0  0
 51 69  1  0  0  0  0
 52 68  1  0  0  0  0
 53 64  1  0  0  0  0
 54 65  1  0  0  0  0
 55 65  1  0  0  0  0
 56 65  1  0  0  0  0
 57 66  1  0  0  0  0
 58 66  1  0  0  0  0
 59 76  1  0  0  0  0
 60 75  1  0  0  0  0
 61 66  1  0  0  0  0
 62 66  1  0  0  0  0
 62 83  1  0  0  0  0
 63 65  1  0  0  0  0
 63 74  1  0  0  0  0
 64 76  1  0  0  0  0
 67 68  1  0  0  0  0
M  CHG  1  76   1
M  ISO  4  38 100  62 101  75 100  83 101
M  END
> <Batch ID>
0134

> <Smiles>
CNC(C)C(=O)NC(C(=O)N1Cc2cc([101O:1][101CH2:1]C(C)(C)CC3Cc4ccc(C[100NH:0][100C:0](=O)N5CCCC(n6nc(-c7ccc(Oc8ccc(F)cc8F)cc7)c(C(N)=O)c6N)C5)cc43)ccc2CC1C(=O)NC1CCCc2ccccc21)C(C)(C)C

> <Shape>
0.276

> <Color>
0.114

> <Negative vol penalty>
0.000

$$$$

  -OEChem-04052302333D

 86 94  0     1  0  0  0  0  0999 V2000
  -16.6067  -31.8319   21.0995 C   0  0  0  0  0  0  0  0  0  0  0  0
  -17.8521  -32.3365   20.7390 C   0  0  0  0  0  0  0  0  0  0  0  0
  -24.6391   -9.3692   21.5963 C   0  0  0  0  0  0  0  0  0  0  0  0
  -24.4768  -10.6808   23.6187 C   0  0  0  0  0  0  0  0  0  0  0  0
  -16.4910  -30.9864   22.2021 C   0  0  0  0  0  0  0  0  0  0  0  0
  -18.9823  -31.9967   21.4817 C   0  0  0  0  0  0  0  0  0  0  0  0
  -25.6819  -28.7088   19.1725 C   0  0  0  0  0  0  0  0  0  0  0  0
  -24.3545   -8.2132   22.3231 C   0  0  0  0  0  0  0  0  0  0  0  0
  -24.1922   -9.5248   24.3456 C   0  0  0  0  0  0  0  0  0  0  0  0
  -26.8476  -27.9879   18.9127 C   0  0  0  0  0  0  0  0  0  0  0  0
  -21.6264   -6.6965   23.6230 C   0  0  0  0  0  0  0  0  0  0  0  0
  -20.6983   -5.8048   23.0854 C   0  0  0  0  0  0  0  0  0  0  0  0
  -26.8974  -27.2214   21.2057 C   0  0  0  0  0  0  0  0  0  0  0  0
  -25.8676  -20.8820   19.4877 C   0  0  0  0  0  0  0  0  0  0  0  0
  -28.3387  -19.6805   19.0048 C   0  0  0  0  0  0  0  0  0  0  0  0
  -22.3834   -4.0739   23.0474 C   0  0  0  0  0  0  0  0  0  0  0  0
  -24.7003  -10.6030   22.2441 C   0  0  0  0  0  0  0  0  0  0  0  0
  -24.0727  -12.6548   20.8642 C   0  0  0  0  0  0  0  0  0  0  0  0
  -17.6219  -30.6284   22.9529 C   0  0  0  0  0  0  0  0  0  0  0  0
  -25.1103  -28.6764   20.4475 C   0  0  0  0  0  0  0  0  0  0  0  0
  -18.8814  -31.1468   22.5962 C   0  0  0  0  0  0  0  0  0  0  0  0
  -25.7229  -27.9315   21.4686 C   0  0  0  0  0  0  0  0  0  0  0  0
  -26.2375  -19.7387   20.1959 C   0  0  0  0  0  0  0  0  0  0  0  0
  -26.7333  -21.4246   18.5379 C   0  0  0  0  0  0  0  0  0  0  0  0
  -27.4730  -19.1380   19.9546 C   0  0  0  0  0  0  0  0  0  0  0  0
  -24.1311   -8.2910   23.6977 C   0  0  0  0  0  0  0  0  0  0  0  0
  -27.4539  -27.2462   19.9268 C   0  0  0  0  0  0  0  0  0  0  0  0
  -22.9331   -6.2769   23.8727 C   0  0  0  0  0  0  0  0  0  0  0  0
  -27.9688  -20.8238   18.2965 C   0  0  0  0  0  0  0  0  0  0  0  0
  -21.0768   -4.4935   22.7976 C   0  0  0  0  0  0  0  0  0  0  0  0
  -23.3115   -4.9656   23.5850 C   0  0  0  0  0  0  0  0  0  0  0  0
  -24.9948  -11.7974   21.4939 C   0  0  0  0  0  0  0  0  0  0  0  0
  -24.8487  -13.6334   20.2928 C   0  0  0  0  0  0  0  0  0  0  0  0
  -31.7511  -22.8189   16.3142 C   0  0  0  0  0  0  0  0  0  0  0  0
  -22.6426  -12.5738   20.8014 C   0  0  0  0  0  0  0  0  0  0  0  0
  -30.6050  -22.9084   17.0081 C   0  0  0  0  0  0  0  0  0  0  0  0
  -22.3268  -29.8151   22.6906 C   0  0  0  0  0  0  0  0  0  0  0  0
  -22.8534  -26.8660   23.3509 C   0  0  0  0  0  0  0  0  0  0  0  0
  -23.4590  -23.5114   23.4812 C   0  0  0  0  0  0  0  0  0  0  0  0
  -29.0602  -17.2680   20.5291 C   0  0  0  0  0  0  0  0  0  0  0  0
  -17.4401  -29.7494   24.1648 C   0  0  0  0  0  0  0  0  0  0  0  0
  -23.8895  -29.4869   20.7887 C   0  0  0  0  0  0  0  0  0  0  0  0
  -25.0918  -27.9537   22.8340 C   0  0  0  0  0  0  0  0  0  0  0  0
  -18.7426  -29.1381   24.6748 C   0  0  0  0  0  0  0  0  0  0  0  0
  -29.8630  -13.9102   19.6586 C   0  0  0  0  0  0  0  0  0  0  0  0
  -19.8369  -30.1983   24.7486 C   0  0  0  0  0  0  0  0  0  0  0  0
  -28.5922  -13.1317   20.0067 C   0  0  0  0  0  0  0  0  0  0  0  0
  -30.1340  -15.0308   20.6608 C   0  0  0  0  0  0  0  0  0  0  0  0
  -27.7409  -15.1737   21.2284 C   0  0  0  0  0  0  0  0  0  0  0  0
  -20.1345  -30.7814   23.3620 C   0  0  1  0  0  0  0  0  0  0  0  0
  -22.9651  -28.7883   21.8020 C   0  0  1  0  0  0  0  0  0  0  0  0
  -27.3910  -14.0758   20.2107 C   0  0  2  0  0  0  0  0  0  0  0  0
  -25.2904  -19.1794   21.2076 C   0  0  0  0  0  0  0  0  0  0  0  0
  -26.3220  -22.6487   17.7885 C   0  0  0  0  0  0  0  0  0  0  0  0
  -23.1465  -21.1132   24.1508 C   0  0  0  0  0  0  0  0  0  0  0  0
  -24.4498  -27.7227   25.8048 C   0  0  0  0  0  0  0  0  0  0  0  0
  -24.5004  -25.3244   26.5214 C   0  0  0  0  0  0  0  0  0  0  0  0
  -22.3191  -26.5168   26.3147 C   0  0  0  0  0  0  0  0  0  0  0  0
  -21.5528  -23.0218   21.2709 C   0  0  0  0  0  0  0  0  0  0  0  0
  -29.7793  -24.1752   16.9897 C   0  0  0  0  0  0  0  0  0  0  0  0
  -30.1085  -21.7537   17.8353 C   0  0  0  0  0  0  0  0  0  0  0  0
  -29.5523  -24.7513   18.3882 C   0  0  0  0  0  0  0  0  0  0  0  0
  -28.7544  -26.0475   18.3364 C   0  0  0  0  0  0  0  0  0  1  0  0
  -23.5843  -25.8758   24.2218 C   0  0  1  0  0  0  0  0  0  0  0  0
  -22.5223  -22.3170   23.4623 C   0  0  2  0  0  0  0  0  0  0  0  0
  -23.7235  -26.3676   25.6902 C   0  0  0  0  0  0  0  0  0  0  0  0
  -26.2598  -12.1963   21.3373 N   0  0  0  0  0  0  0  0  0  0  0  0
  -26.1382  -13.3150   20.6026 N   0  0  0  0  0  0  0  0  0  0  0  0
  -23.6298  -27.8415   22.7134 N   0  0  0  0  0  0  0  0  0  0  0  0
  -28.9540  -15.8872   20.7992 N   0  0  0  0  0  0  0  0  0  0  0  0
  -24.5470  -14.7266   19.5604 N   0  0  0  0  0  0  0  0  0  0  0  0
  -22.0052  -11.5034   21.4436 N   0  0  0  0  0  0  0  0  0  0  0  0
  -27.8658  -17.9752   20.6626 N   0  0  0  0  0  0  0  0  0  0  0  0
  -20.9494  -29.8656   22.5928 N   0  0  0  0  0  0  0  0  0  0  0  0
  -22.8765  -24.6079   24.0809 N   0  0  0  0  0  0  0  0  0  0  0  0
  -22.1945  -21.9380   22.0588 N   0  3  0  0  0  0  0  0  0  0  0  0
  -21.9516  -13.4163   20.1800 O   0  0  0  0  0  0  0  0  0  0  0  0
  -23.0311  -30.5102   23.4135 O   0  0  0  0  0  0  0  0  0  0  0  0
  -21.6269  -26.7828   23.2414 O   0  0  0  0  0  0  0  0  0  0  0  0
  -24.5953  -23.4742   23.0143 O   0  0  0  0  0  0  0  0  0  0  0  0
  -30.1259  -17.7802   20.1770 O   0  0  0  0  0  0  0  0  0  0  0  0
  -23.8531   -7.1632   24.4072 O   0  0  0  0  0  0  0  0  0  0  0  0
  -28.8311  -21.3433   17.3664 O   0  0  0  0  0  0  0  0  0  0  0  0
  -28.5893  -26.5411   19.6651 O   0  0  0  0  0  0  0  0  0  1  0  0
  -20.1850   -3.6368   22.2828 F   0  0  0  0  0  0  0  0  0  0  0  0
  -24.5650   -4.5564   23.8238 F   0  0  0  0  0  0  0  0  0  0  0  0
  1  2  1  0  0  0  0
  1  5  2  0  0  0  0
  2  6  2  0  0  0  0
  3  8  2  0  0  0  0
  3 17  1  0  0  0  0
  4  9  1  0  0  0  0
  4 17  2  0  0  0  0
  5 19  1  0  0  0  0
  6 21  1  0  0  0  0
  7 10  2  0  0  0  0
  7 20  1  0  0  0  0
  8 26  1  0  0  0  0
  9 26  2  0  0  0  0
 10 27  1  0  0  0  0
 11 12  2  0  0  0  0
 11 28  1  0  0  0  0
 12 30  1  0  0  0  0
 13 22  1  0  0  0  0
 13 27  2  0  0  0  0
 14 23  2  0  0  0  0
 14 24  1  0  0  0  0
 15 25  2  0  0  0  0
 15 29  1  0  0  0  0
 16 30  2  0  0  0  0
 16 31  1  0  0  0  0
 17 32  1  0  0  0  0
 18 32  1  0  0  0  0
 18 33  2  0  0  0  0
 18 35  1  0  0  0  0
 19 21  2  0  0  0  0
 19 41  1  0  0  0  0
 20 22  2  0  0  0  0
 20 42  1  0  0  0  0
 21 50  1  0  0  0  0
 22 43  1  0  0  0  0
 23 25  1  0  0  0  0
 23 53  1  0  0  0  0
 24 29  2  0  0  0  0
 24 54  1  0  0  0  0
 25 73  1  0  0  0  0
 26 82  1  0  0  0  0
 27 84  1  0  0  0  0
 28 31  2  0  0  0  0
 28 82  1  0  0  0  0
 29 83  1  0  0  0  0
 30 85  1  0  0  0  0
 31 86  1  0  0  0  0
 32 67  2  0  0  0  0
 33 68  1  0  0  0  0
 33 71  1  0  0  0  0
 34 36  2  0  0  0  0
 35 72  1  0  0  0  0
 35 77  2  0  0  0  0
 36 60  1  0  0  0  0
 36 61  1  0  0  0  0
 37 51  1  0  0  0  0
 37 74  1  0  0  0  0
 37 78  2  0  0  0  0
 38 64  1  0  0  0  0
 38 69  1  0  0  0  0
 38 79  2  0  0  0  0
 39 65  1  0  0  0  0
 39 75  1  0  0  0  0
 39 80  2  0  0  0  0
 40 70  1  0  0  0  0
 40 73  1  0  0  0  0
 40 81  2  0  0  0  0
 41 44  1  0  0  0  0
 42 51  1  0  0  0  0
 43 69  1  0  0  0  0
 44 46  1  0  0  0  0
 45 47  1  0  0  0  0
 45 48  1  0  0  0  0
 46 50  1  0  0  0  0
 47 52  1  0  0  0  0
 48 70  1  0  0  0  0
 49 52  1  0  0  0  0
 49 70  1  0  0  0  0
 50 74  1  0  0  0  0
 51 69  1  0  0  0  0
 52 68  1  0  0  0  0
 55 65  1  0  0  0  0
 56 66  1  0  0  0  0
 57 66  1  0  0  0  0
 58 66  1  0  0  0  0
 59 76  1  0  0  0  0
 60 62  1  0  0  0  0
 61 83  1  0  0  0  0
 62 63  1  0  0  0  0
 63 84  1  0  0  0  0
 64 66  1  0  0  0  0
 64 75  1  0  0  0  0
 65 76  1  0  0  0  0
 67 68  1  0  0  0  0
M  CHG  1  76   1
M  ISO  4  40 100  63 101  73 100  84 101
M  END
> <Batch ID>
0134

> <Smiles>
C=C(CC[101CH2:1][101O:1]c1ccc2c(c1)CN(C(=O)C(NC(=O)C(C)NC)C(C)(C)C)C(C(=O)NC1CCCc3ccccc31)C2)COc1cc([100NH:0][100C:0](=O)N2CCCC(n3nc(-c4ccc(Oc5ccc(F)cc5F)cc4)c(C(N)=O)c3N)C2)c(C)cc1C

> <Shape>
0.264

> <Color>
0.127

> <Negative vol penalty>
0.000

$$$$

  -OEChem-04052302333D

 85 93  0     1  0  0  0  0  0999 V2000
  -29.2334  -21.8695   18.1770 C   0  0  0  0  0  0  0  0  0  0  0  0
  -28.3404  -21.6715   19.2252 C   0  0  0  0  0  0  0  0  0  0  0  0
  -27.4389  -12.5390   19.3621 C   0  0  0  0  0  0  0  0  0  0  0  0
  -25.8239  -13.4274   20.9240 C   0  0  0  0  0  0  0  0  0  0  0  0
  -29.6888  -23.1543   17.8840 C   0  0  0  0  0  0  0  0  0  0  0  0
  -27.9032  -22.7581   19.9818 C   0  0  0  0  0  0  0  0  0  0  0  0
  -22.9096  -22.6594   20.8184 C   0  0  0  0  0  0  0  0  0  0  0  0
  -25.0567  -21.4530   25.0147 C   0  0  0  0  0  0  0  0  0  0  0  0
  -26.3897  -21.5422   24.6140 C   0  0  0  0  0  0  0  0  0  0  0  0
  -27.0723  -11.2419   19.7208 C   0  0  0  0  0  0  0  0  0  0  0  0
  -25.4572  -12.1302   21.2826 C   0  0  0  0  0  0  0  0  0  0  0  0
  -22.4468  -21.7933   21.8080 C   0  0  0  0  0  0  0  0  0  0  0  0
  -23.5410   -9.6473   20.0242 C   0  0  0  0  0  0  0  0  0  0  0  0
  -22.1788   -9.3655   20.1268 C   0  0  0  0  0  0  0  0  0  0  0  0
  -22.2946  -23.6439   23.3479 C   0  0  0  0  0  0  0  0  0  0  0  0
  -25.5797  -19.4865   26.3172 C   0  0  0  0  0  0  0  0  0  0  0  0
  -22.4767   -8.7711   22.4495 C   0  0  0  0  0  0  0  0  0  0  0  0
  -26.8148  -13.6318   19.9638 C   0  0  0  0  0  0  0  0  0  0  0  0
  -26.6365  -15.7608   18.5698 C   0  0  0  0  0  0  0  0  0  0  0  0
  -29.2495  -24.2585   18.6313 C   0  0  0  0  0  0  0  0  0  0  0  0
  -23.0790  -24.0247   21.0897 C   0  0  0  0  0  0  0  0  0  0  0  0
  -28.3542  -24.0587   19.6995 C   0  0  0  0  0  0  0  0  0  0  0  0
  -22.7572  -24.5257   22.3592 C   0  0  0  0  0  0  0  0  0  0  0  0
  -24.6516  -20.4252   25.8663 C   0  0  0  0  0  0  0  0  0  0  0  0
  -27.3178  -20.6035   25.0648 C   0  0  0  0  0  0  0  0  0  0  0  0
  -26.9128  -19.5757   25.9164 C   0  0  0  0  0  0  0  0  0  0  0  0
  -26.0814  -11.0375   20.6810 C   0  0  0  0  0  0  0  0  0  0  0  0
  -22.1420  -22.2850   23.0739 C   0  0  0  0  0  0  0  0  0  0  0  0
  -24.3711   -9.4909   21.1342 C   0  0  0  0  0  0  0  0  0  0  0  0
  -21.6466   -8.9274   21.3394 C   0  0  0  0  0  0  0  0  0  0  0  0
  -23.8390   -9.0529   22.3469 C   0  0  0  0  0  0  0  0  0  0  0  0
  -27.1935  -14.9719   19.5942 C   0  0  0  0  0  0  0  0  0  0  0  0
  -27.3377  -16.9405   18.6252 C   0  0  0  0  0  0  0  0  0  0  0  0
  -25.5797  -15.4546   17.6505 C   0  0  0  0  0  0  0  0  0  0  0  0
  -25.5545  -26.0185   21.1044 C   0  0  0  0  0  0  0  0  0  0  0  0
  -23.2578  -28.2473   21.6332 C   0  0  0  0  0  0  0  0  0  0  0  0
  -20.1254  -28.9632   22.7833 C   0  0  0  0  0  0  0  0  0  0  0  0
  -30.3328  -19.7016   23.0135 C   0  0  0  0  0  0  0  0  0  0  0  0
  -29.8062  -25.6222   18.3073 C   0  0  0  0  0  0  0  0  0  0  0  0
  -23.5538  -24.9504   20.0034 C   0  0  0  0  0  0  0  0  0  0  0  0
  -22.9024  -25.9866   22.6954 C   0  0  0  0  0  0  0  0  0  0  0  0
  -29.0045  -26.7684   18.9186 C   0  0  0  0  0  0  0  0  0  0  0  0
  -31.6159  -18.6997   19.8470 C   0  0  0  0  0  0  0  0  0  0  0  0
  -28.6930  -26.4800   20.3838 C   0  0  0  0  0  0  0  0  0  0  0  0
  -30.5778  -17.7019   19.3307 C   0  0  0  0  0  0  0  0  0  0  0  0
  -31.8023  -18.5888   21.3586 C   0  0  0  0  0  0  0  0  0  0  0  0
  -29.5211  -17.6963   21.6290 C   0  0  0  0  0  0  0  0  0  0  0  0
  -27.8377  -25.2153   20.5274 C   0  0  1  0  0  0  0  0  0  0  0  0
  -24.1777  -26.2339   20.5426 C   0  0  1  0  0  0  0  0  0  0  0  0
  -29.2577  -17.8086   20.1176 C   0  0  2  0  0  0  0  0  0  0  0  0
  -28.3087  -18.8159   27.8557 C   0  0  0  0  0  0  0  0  0  0  0  0
  -18.5412  -30.8798   23.1211 C   0  0  0  0  0  0  0  0  0  0  0  0
  -24.8610  -29.1396   24.0711 C   0  0  0  0  0  0  0  0  0  0  0  0
  -22.8255  -30.3533   24.8786 C   0  0  0  0  0  0  0  0  0  0  0  0
  -23.8909  -31.0071   22.7199 C   0  0  0  0  0  0  0  0  0  0  0  0
  -22.7300  -18.0187   25.3088 C   0  0  0  0  0  0  0  0  0  0  0  0
  -20.8635  -19.4821   26.0719 C   0  0  0  0  0  0  0  0  0  0  0  0
  -18.1168  -27.7752   20.9630 C   0  0  0  0  0  0  0  0  0  0  0  0
  -23.2075  -20.3286   26.2998 C   0  0  0  0  0  0  0  0  0  0  0  0
  -27.8886  -18.5591   26.4116 C   0  0  0  0  0  0  0  0  0  0  0  0
  -28.7393  -20.7188   24.6214 C   0  0  0  0  0  0  0  0  0  0  0  0
  -22.1408  -20.0886   23.9861 C   0  0  0  0  0  0  0  0  0  1  0  0
  -22.6018  -28.8366   22.8586 C   0  0  1  0  0  0  0  0  0  0  0  0
  -18.9917  -29.7730   22.1805 C   0  0  2  0  0  0  0  0  0  0  0  0
  -23.5438  -29.8063   23.6266 C   0  0  0  0  0  0  0  0  0  0  0  0
  -22.2567  -19.4821   25.4028 C   0  0  0  0  0  0  0  0  0  0  0  0
  -28.1732  -15.5977   20.2520 N   0  0  0  0  0  0  0  0  0  0  0  0
  -28.2373  -16.7922   19.6395 N   0  0  0  0  0  0  0  0  0  0  0  0
  -23.3761  -26.8506   21.6015 N   0  0  0  0  0  0  0  0  0  0  0  0
  -30.5134  -18.6996   22.0458 N   0  0  0  0  0  0  0  0  0  0  0  0
  -27.2664  -18.0798   17.9045 N   0  0  0  0  0  0  0  0  0  0  0  0
  -24.9672  -14.1966   17.7316 N   0  0  0  0  0  0  0  0  0  0  0  0
  -26.4575  -25.4984   20.1968 N   0  0  0  0  0  0  0  0  0  0  0  0
  -21.3585  -29.4481   22.4018 N   0  0  0  0  0  0  0  0  0  0  0  0
  -29.0794  -19.7408   23.6120 N   0  0  0  0  0  0  0  0  0  0  0  0
  -17.8224  -28.8943   21.8946 N   0  3  0  0  0  0  0  0  0  0  0  0
  -25.2011  -16.2662   16.7722 O   0  0  0  0  0  0  0  0  0  0  0  0
  -25.7813  -26.3045   22.2742 O   0  0  0  0  0  0  0  0  0  0  0  0
  -23.6442  -28.9981   20.7340 O   0  0  0  0  0  0  0  0  0  0  0  0
  -19.9361  -27.9992   23.5219 O   0  0  0  0  0  0  0  0  0  0  0  0
  -31.2208  -20.5053   23.3174 O   0  0  0  0  0  0  0  0  0  0  0  0
  -25.7232   -9.7719   21.0310 O   0  0  0  0  0  0  0  0  0  0  0  0
  -21.6907  -21.4416   24.0419 O   0  0  0  0  0  0  0  0  0  1  0  0
  -20.3382   -8.6583   21.4382 F   0  0  0  0  0  0  0  0  0  0  0  0
  -24.6312   -8.9019   23.4171 F   0  0  0  0  0  0  0  0  0  0  0  0
  1  2  1  0  0  0  0
  1  5  2  0  0  0  0
  2  6  2  0  0  0  0
  3 10  2  0  0  0  0
  3 18  1  0  0  0  0
  4 11  1  0  0  0  0
  4 18  2  0  0  0  0
  5 20  1  0  0  0  0
  6 22  1  0  0  0  0
  7 12  2  0  0  0  0
  7 21  1  0  0  0  0
  8  9  2  0  0  0  0
  8 24  1  0  0  0  0
  9 25  1  0  0  0  0
 10 27  1  0  0  0  0
 11 27  2  0  0  0  0
 12 28  1  0  0  0  0
 13 14  2  0  0  0  0
 13 29  1  0  0  0  0
 14 30  1  0  0  0  0
 15 23  1  0  0  0  0
 15 28  2  0  0  0  0
 16 24  2  0  0  0  0
 16 26  1  0  0  0  0
 17 30  2  0  0  0  0
 17 31  1  0  0  0  0
 18 32  1  0  0  0  0
 19 32  1  0  0  0  0
 19 33  2  0  0  0  0
 19 34  1  0  0  0  0
 20 22  2  0  0  0  0
 20 39  1  0  0  0  0
 21 23  2  0  0  0  0
 21 40  1  0  0  0  0
 22 48  1  0  0  0  0
 23 41  1  0  0  0  0
 24 59  1  0  0  0  0
 25 26  2  0  0  0  0
 25 61  1  0  0  0  0
 26 60  1  0  0  0  0
 27 82  1  0  0  0  0
 28 83  1  0  0  0  0
 29 31  2  0  0  0  0
 29 82  1  0  0  0  0
 30 84  1  0  0  0  0
 31 85  1  0  0  0  0
 32 67  2  0  0  0  0
 33 68  1  0  0  0  0
 33 71  1  0  0  0  0
 34 72  1  0  0  0  0
 34 77  2  0  0  0  0
 35 49  1  0  0  0  0
 35 73  1  0  0  0  0
 35 78  2  0  0  0  0
 36 63  1  0  0  0  0
 36 69  1  0  0  0  0
 36 79  2  0  0  0  0
 37 64  1  0  0  0  0
 37 74  1  0  0  0  0
 37 80  2  0  0  0  0
 38 70  1  0  0  0  0
 38 75  1  0  0  0  0
 38 81  2  0  0  0  0
 39 42  1  0  0  0  0
 40 49  1  0  0  0  0
 41 69  1  0  0  0  0
 42 44  1  0  0  0  0
 43 45  1  0  0  0  0
 43 46  1  0  0  0  0
 44 48  1  0  0  0  0
 45 50  1  0  0  0  0
 46 70  1  0  0  0  0
 47 50  1  0  0  0  0
 47 70  1  0  0  0  0
 48 73  1  0  0  0  0
 49 69  1  0  0  0  0
 50 68  1  0  0  0  0
 51 60  1  0  0  0  0
 52 64  1  0  0  0  0
 53 65  1  0  0  0  0
 54 65  1  0  0  0  0
 55 65  1  0  0  0  0
 56 66  1  0  0  0  0
 57 66  1  0  0  0  0
 58 76  1  0  0  0  0
 59 66  1  0  0  0  0
 61 75  1  0  0  0  0
 62 66  1  0  0  0  0
 62 83  1  0  0  0  0
 63 65  1  0  0  0  0
 63 74  1  0  0  0  0
 64 76  1  0  0  0  0
 67 68  1  0  0  0  0
M  CHG  1  76   1
M  ISO  4  38 100  62 101  75 100  83 101
M  END
> <Batch ID>
0134

> <Smiles>
CCc1cc(CC(C)(C)[101CH2:1][101O:1]c2ccc3c(c2)CN(C(=O)C(NC(=O)C(C)NC)C(C)(C)C)C(C(=O)NC2CCCc4ccccc42)C3)ccc1C[100NH:0][100C:0](=O)N1CCCC(n2nc(-c3ccc(Oc4ccc(F)cc4F)cc3)c(C(N)=O)c2N)C1

> <Shape>
0.213

> <Color>
0.040

> <Negative vol penalty>
0.000

$$$$

  -OEChem-04052302333D

 88 96  0     1  0  0  0  0  0999 V2000
  -26.7293  -18.3906   18.8377 C   0  0  0  0  0  0  0  0  0  0  0  0
  -25.7853  -19.2073   19.4518 C   0  0  0  0  0  0  0  0  0  0  0  0
  -26.7482  -12.2557   21.6637 C   0  0  0  0  0  0  0  0  0  0  0  0
  -25.9116  -13.7613   19.9695 C   0  0  0  0  0  0  0  0  0  0  0  0
  -28.0804  -18.7319   18.8841 C   0  0  0  0  0  0  0  0  0  0  0  0
  -26.1918  -20.3653   20.1138 C   0  0  0  0  0  0  0  0  0  0  0  0
  -23.2632  -24.3521   19.0307 C   0  0  0  0  0  0  0  0  0  0  0  0
  -21.4996  -22.6316   24.4347 C   0  0  0  0  0  0  0  0  0  0  0  0
  -22.8914  -22.5559   24.3813 C   0  0  0  0  0  0  0  0  0  0  0  0
  -25.9743  -11.2252   21.1302 C   0  0  0  0  0  0  0  0  0  0  0  0
  -25.1377  -12.7308   19.4359 C   0  0  0  0  0  0  0  0  0  0  0  0
  -22.0278  -24.4277   19.6724 C   0  0  0  0  0  0  0  0  0  0  0  0
  -23.9431   -8.2910   20.4315 C   0  0  0  0  0  0  0  0  0  0  0  0
  -23.2254   -7.4902   21.3198 C   0  0  0  0  0  0  0  0  0  0  0  0
  -22.9504  -26.0020   21.2501 C   0  0  0  0  0  0  0  0  0  0  0  0
  -21.5819  -22.4458   26.8421 C   0  0  0  0  0  0  0  0  0  0  0  0
  -22.0235   -9.4348   22.1017 C   0  0  0  0  0  0  0  0  0  0  0  0
  -26.7168  -13.5238   21.0835 C   0  0  0  0  0  0  0  0  0  0  0  0
  -28.8360  -14.9296   21.2849 C   0  0  0  0  0  0  0  0  0  0  0  0
  -28.5027  -19.8997   19.5388 C   0  0  0  0  0  0  0  0  0  0  0  0
  -24.3563  -25.0939   19.5013 C   0  0  0  0  0  0  0  0  0  0  0  0
  -27.5499  -20.7218   20.1702 C   0  0  0  0  0  0  0  0  0  0  0  0
  -24.1979  -25.9361   20.6111 C   0  0  0  0  0  0  0  0  0  0  0  0
  -20.8448  -22.5766   25.6651 C   0  0  0  0  0  0  0  0  0  0  0  0
  -23.6284  -22.4251   25.5583 C   0  0  0  0  0  0  0  0  0  0  0  0
  -22.9736  -22.3700   26.7887 C   0  0  0  0  0  0  0  0  0  0  0  0
  -25.1691  -11.4627   20.0163 C   0  0  0  0  0  0  0  0  0  0  0  0
  -21.8720  -25.2505   20.7840 C   0  0  0  0  0  0  0  0  0  0  0  0
  -23.7011   -9.6637   20.3783 C   0  0  0  0  0  0  0  0  0  0  0  0
  -22.2656   -8.0621   22.1549 C   0  0  0  0  0  0  0  0  0  0  0  0
  -22.7413  -10.2356   21.2133 C   0  0  0  0  0  0  0  0  0  0  0  0
  -27.5156  -14.5889   21.6345 C   0  0  0  0  0  0  0  0  0  0  0  0
  -29.1380  -16.0022   22.0878 C   0  0  0  0  0  0  0  0  0  0  0  0
  -29.7113  -14.3300   20.3205 C   0  0  0  0  0  0  0  0  0  0  0  0
  -27.2267  -24.3700   20.6590 C   0  0  0  0  0  0  0  0  0  0  0  0
  -19.4992  -24.9406   23.5019 C   0  0  0  0  0  0  0  0  0  0  0  0
  -27.6487  -27.5847   20.5566 C   0  0  0  0  0  0  0  0  0  0  0  0
  -26.2393  -30.6928   20.5437 C   0  0  0  0  0  0  0  0  0  0  0  0
  -25.7260  -20.0896   24.6387 C   0  0  0  0  0  0  0  0  0  0  0  0
  -29.9788  -20.2025   19.6031 C   0  0  0  0  0  0  0  0  0  0  0  0
  -25.6752  -25.0217   18.7818 C   0  0  0  0  0  0  0  0  0  0  0  0
  -25.3347  -26.7684   21.1436 C   0  0  0  0  0  0  0  0  0  0  0  0
  -30.2883  -21.6427   20.0034 C   0  0  0  0  0  0  0  0  0  0  0  0
  -28.0645  -17.9152   26.3417 C   0  0  0  0  0  0  0  0  0  0  0  0
  -29.4458  -22.0552   21.2062 C   0  0  0  0  0  0  0  0  0  0  0  0
  -28.3115  -16.8425   25.2794 C   0  0  0  0  0  0  0  0  0  0  0  0
  -26.6100  -18.3761   26.3343 C   0  0  0  0  0  0  0  0  0  0  0  0
  -26.3723  -17.7981   23.9504 C   0  0  0  0  0  0  0  0  0  0  0  0
  -27.9492  -21.9991   20.8768 C   0  0  1  0  0  0  0  0  0  0  0  0
  -26.8566  -25.4274   19.6576 C   0  0  1  0  0  0  0  0  0  0  0  0
  -27.8301  -17.3067   23.8920 C   0  0  2  0  0  0  0  0  0  0  0  0
  -23.7418  -22.2298   28.0619 C   0  0  0  0  0  0  0  0  0  0  0  0
  -16.3272  -25.1871   25.5701 C   0  0  0  0  0  0  0  0  0  0  0  0
  -26.8412  -33.1284   20.4921 C   0  0  0  0  0  0  0  0  0  0  0  0
  -28.4423  -27.4485   23.4996 C   0  0  0  0  0  0  0  0  0  0  0  0
  -28.1047  -29.9257   23.6333 C   0  0  0  0  0  0  0  0  0  0  0  0
  -29.8435  -28.9860   22.1114 C   0  0  0  0  0  0  0  0  0  0  0  0
  -18.7588  -24.5365   27.3333 C   0  0  0  0  0  0  0  0  0  0  0  0
  -24.8095  -31.1110   17.9864 C   0  0  0  0  0  0  0  0  0  0  0  0
  -19.3364  -22.6582   25.7227 C   0  0  0  0  0  0  0  0  0  0  0  0
  -25.1175  -22.3448   25.4760 C   0  0  0  0  0  0  0  0  0  0  0  0
  -19.4236  -25.1547   25.0101 C   0  0  0  0  0  0  0  0  0  0  0  0
  -20.6816  -25.5970   22.8135 C   0  0  0  0  0  0  0  0  0  1  0  0
  -17.1843  -23.9312   25.4608 C   0  0  0  0  0  0  0  0  0  0  0  0
  -27.4009  -28.7264   21.5126 C   0  0  1  0  0  0  0  0  0  0  0  0
  -26.4820  -31.9052   19.6630 C   0  0  2  0  0  0  0  0  0  0  0  0
  -28.4267  -28.7546   22.6806 C   0  0  0  0  0  0  0  0  0  0  0  0
  -18.6898  -24.0790   25.8547 C   0  0  2  0  0  0  0  0  0  0  0  0
  -27.0134  -15.3809   22.5856 N   0  0  0  0  0  0  0  0  0  0  0  0
  -28.0236  -16.2298   22.8405 N   0  0  0  0  0  0  0  0  0  0  0  0
  -26.6062  -26.6587   20.4096 N   0  0  0  0  0  0  0  0  0  0  0  0
  -26.2205  -18.8223   24.9892 N   0  0  0  0  0  0  0  0  0  0  0  0
  -30.2454  -16.7635   22.2164 N   0  0  0  0  0  0  0  0  0  0  0  0
  -29.2417  -13.2359   19.5811 N   0  0  0  0  0  0  0  0  0  0  0  0
  -27.5601  -23.1533   20.0952 N   0  0  0  0  0  0  0  0  0  0  0  0
  -27.3836  -29.9401   20.7031 N   0  0  0  0  0  0  0  0  0  0  0  0
  -25.6059  -20.9994   25.6820 N   0  0  0  0  0  0  0  0  0  0  0  0
  -25.2623  -32.2191   18.8663 N   0  3  0  0  0  0  0  0  0  0  0  0
  -30.8812  -14.7417   20.1320 O   0  0  0  0  0  0  0  0  0  0  0  0
  -27.2124  -24.6387   21.8545 O   0  0  0  0  0  0  0  0  0  0  0  0
  -18.6713  -24.2916   22.8674 O   0  0  0  0  0  0  0  0  0  0  0  0
  -28.7247  -27.5208   19.9568 O   0  0  0  0  0  0  0  0  0  0  0  0
  -25.1451  -30.4408   21.0435 O   0  0  0  0  0  0  0  0  0  0  0  0
  -25.4191  -20.3902   23.4800 O   0  0  0  0  0  0  0  0  0  0  0  0
  -24.4140  -10.4573   19.4952 O   0  0  0  0  0  0  0  0  0  0  0  0
  -20.6674  -25.3256   21.4126 O   0  0  0  0  0  0  0  0  0  1  0  0
  -21.5753   -7.2927   23.0068 F   0  0  0  0  0  0  0  0  0  0  0  0
  -22.5035  -11.5536   21.1659 F   0  0  0  0  0  0  0  0  0  0  0  0
  1  2  1  0  0  0  0
  1  5  2  0  0  0  0
  2  6  2  0  0  0  0
  3 10  2  0  0  0  0
  3 18  1  0  0  0  0
  4 11  1  0  0  0  0
  4 18  2  0  0  0  0
  5 20  1  0  0  0  0
  6 22  1  0  0  0  0
  7 12  2  0  0  0  0
  7 21  1  0  0  0  0
  8  9  2  0  0  0  0
  8 24  1  0  0  0  0
  9 25  1  0  0  0  0
 10 27  1  0  0  0  0
 11 27  2  0  0  0  0
 12 28  1  0  0  0  0
 13 14  2  0  0  0  0
 13 29  1  0  0  0  0
 14 30  1  0  0  0  0
 15 23  1  0  0  0  0
 15 28  2  0  0  0  0
 16 24  2  0  0  0  0
 16 26  1  0  0  0  0
 17 30  2  0  0  0  0
 17 31  1  0  0  0  0
 18 32  1  0  0  0  0
 19 32  1  0  0  0  0
 19 33  2  0  0  0  0
 19 34  1  0  0  0  0
 20 22  2  0  0  0  0
 20 40  1  0  0  0  0
 21 23  2  0  0  0  0
 21 41  1  0  0  0  0
 22 49  1  0  0  0  0
 23 42  1  0  0  0  0
 24 60  1  0  0  0  0
 25 26  2  0  0  0  0
 25 61  1  0  0  0  0
 26 52  1  0  0  0  0
 27 85  1  0  0  0  0
 28 86  1  0  0  0  0
 29 31  2  0  0  0  0
 29 85  1  0  0  0  0
 30 87  1  0  0  0  0
 31 88  1  0  0  0  0
 32 69  2  0  0  0  0
 33 70  1  0  0  0  0
 33 73  1  0  0  0  0
 34 74  1  0  0  0  0
 34 79  2  0  0  0  0
 35 50  1  0  0  0  0
 35 75  1  0  0  0  0
 35 80  2  0  0  0  0
 36 62  1  0  0  0  0
 36 63  1  0  0  0  0
 36 81  2  0  0  0  0
 37 65  1  0  0  0  0
 37 71  1  0  0  0  0
 37 82  2  0  0  0  0
 38 66  1  0  0  0  0
 38 76  1  0  0  0  0
 38 83  2  0  0  0  0
 39 72  1  0  0  0  0
 39 77  1  0  0  0  0
 39 84  2  0  0  0  0
 40 43  1  0  0  0  0
 41 50  1  0  0  0  0
 42 71  1  0  0  0  0
 43 45  1  0  0  0  0
 44 46  1  0  0  0  0
 44 47  1  0  0  0  0
 45 49  1  0  0  0  0
 46 51  1  0  0  0  0
 47 72  1  0  0  0  0
 48 51  1  0  0  0  0
 48 72  1  0  0  0  0
 49 75  1  0  0  0  0
 50 71  1  0  0  0  0
 51 70  1  0  0  0  0
 53 64  1  0  0  0  0
 54 66  1  0  0  0  0
 55 67  1  0  0  0  0
 56 67  1  0  0  0  0
 57 67  1  0  0  0  0
 58 68  1  0  0  0  0
 59 78  1  0  0  0  0
 60 68  1  0  0  0  0
 61 77  1  0  0  0  0
 62 68  1  0  0  0  0
 63 86  1  0  0  0  0
 64 68  1  0  0  0  0
 65 67  1  0  0  0  0
 65 76  1  0  0  0  0
 66 78  1  0  0  0  0
 69 70  1  0  0  0  0
M  CHG  1  78   1
M  ISO  4  39 100  63 101  77 100  86 101
M  END
> <Batch ID>
0134

> <Smiles>
CCC(C)(CC(=O)[101CH2:1][101O:1]c1ccc2c(c1)CN(C(=O)C(NC(=O)C(C)NC)C(C)(C)C)C(C(=O)NC1CCCc3ccccc31)C2)Cc1ccc(C[100NH:0][100C:0](=O)N2CCCC(n3nc(-c4ccc(Oc5ccc(F)cc5F)cc4)c(C(N)=O)c3N)C2)c(C)c1

> <Shape>
0.202

> <Color>
0.043

> <Negative vol penalty>
0.000

$$$$

  -OEChem-04052302333D

 87 96  0     1  0  0  0  0  0999 V2000
  -20.9952  -15.0903   18.9190 C   0  0  0  0  0  0  0  0  0  0  0  0
  -21.6243  -16.3089   18.6857 C   0  0  0  0  0  0  0  0  0  0  0  0
  -21.4404  -24.1245   22.2135 C   0  0  0  0  0  0  0  0  0  0  0  0
  -21.9272  -24.5958   24.5326 C   0  0  0  0  0  0  0  0  0  0  0  0
  -21.4617  -14.2479   19.9273 C   0  0  0  0  0  0  0  0  0  0  0  0
  -22.7198  -16.6865   19.4614 C   0  0  0  0  0  0  0  0  0  0  0  0
  -26.4411  -27.0510   26.2961 C   0  0  0  0  0  0  0  0  0  0  0  0
  -27.5961  -19.9052   17.6262 C   0  0  0  0  0  0  0  0  0  0  0  0
  -26.2888  -28.3847   25.9085 C   0  0  0  0  0  0  0  0  0  0  0  0
  -21.3670  -22.7626   22.5057 C   0  0  0  0  0  0  0  0  0  0  0  0
  -21.8537  -23.2338   24.8248 C   0  0  0  0  0  0  0  0  0  0  0  0
  -27.9254  -21.2552   17.7390 C   0  0  0  0  0  0  0  0  0  0  0  0
  -19.1331  -20.6257   23.8755 C   0  0  0  0  0  0  0  0  0  0  0  0
  -18.0677  -19.9039   23.3376 C   0  0  0  0  0  0  0  0  0  0  0  0
  -27.8649  -28.0841   24.0729 C   0  0  0  0  0  0  0  0  0  0  0  0
  -29.2185  -20.7684   19.7164 C   0  0  0  0  0  0  0  0  0  0  0  0
  -19.6261  -18.4729   22.1712 C   0  0  0  0  0  0  0  0  0  0  0  0
  -21.7206  -25.0411   23.2270 C   0  0  0  0  0  0  0  0  0  0  0  0
  -20.7448  -27.3826   22.9570 C   0  0  0  0  0  0  0  0  0  0  0  0
  -22.5695  -14.6110   20.7093 C   0  0  0  0  0  0  0  0  0  0  0  0
  -27.3027  -26.2755   25.5567 C   0  0  0  0  0  0  0  0  0  0  0  0
  -28.0673  -18.9767   18.5655 C   0  0  0  0  0  0  0  0  0  0  0  0
  -23.2008  -15.8488   20.4820 C   0  0  0  0  0  0  0  0  0  0  0  0
  -27.9920  -26.7756   24.4777 C   0  0  0  0  0  0  0  0  0  0  0  0
  -28.8958  -19.4067   19.6119 C   0  0  0  0  0  0  0  0  0  0  0  0
  -26.9961  -28.8979   24.8041 C   0  0  0  0  0  0  0  0  0  0  0  0
  -21.5736  -22.3172   23.8113 C   0  0  0  0  0  0  0  0  0  0  0  0
  -28.7344  -21.6875   18.7858 C   0  0  0  0  0  0  0  0  0  0  0  0
  -20.4451  -20.2712   23.5612 C   0  0  0  0  0  0  0  0  0  0  0  0
  -18.3142  -18.8275   22.4854 C   0  0  0  0  0  0  0  0  0  0  0  0
  -20.6916  -19.1948   22.7091 C   0  0  0  0  0  0  0  0  0  0  0  0
  -21.7971  -26.4481   22.9258 C   0  0  0  0  0  0  0  0  0  0  0  0
  -21.3299  -28.5709   22.5936 C   0  0  0  0  0  0  0  0  0  0  0  0
  -19.3619  -27.1935   23.2852 C   0  0  0  0  0  0  0  0  0  0  0  0
  -26.7014  -17.0177   20.6632 C   0  0  0  0  0  0  0  0  0  0  0  0
  -29.7461  -15.9842   21.0923 C   0  0  0  0  0  0  0  0  0  0  0  0
  -27.0057  -30.5163   22.9286 C   0  0  0  0  0  0  0  0  0  0  0  0
  -33.0873  -16.6447   20.8767 C   0  0  0  0  0  0  0  0  0  0  0  0
  -23.0083  -13.6886   21.8190 C   0  0  0  0  0  0  0  0  0  0  0  0
  -27.8856  -24.8992   25.4181 C   0  0  0  0  0  0  0  0  0  0  0  0
  -27.7249  -17.5199   18.4146 C   0  0  0  0  0  0  0  0  0  0  0  0
  -29.4442  -18.4469   20.6348 C   0  0  0  0  0  0  0  0  0  0  0  0
  -24.4069  -13.9950   22.3485 C   0  0  0  0  0  0  0  0  0  0  0  0
  -24.9357  -30.3419   20.0090 C   0  0  0  0  0  0  0  0  0  0  0  0
  -24.5701  -15.4923   22.5901 C   0  0  0  0  0  0  0  0  0  0  0  0
  -23.8161  -29.3863   20.4193 C   0  0  0  0  0  0  0  0  0  0  0  0
  -26.2672  -29.9453   20.6389 C   0  0  0  0  0  0  0  0  0  0  0  0
  -25.1045  -28.8713   22.5406 C   0  0  0  0  0  0  0  0  0  0  0  0
  -28.6845  -25.4693   24.1892 C   0  0  1  0  0  0  0  0  0  0  0  0
  -24.4074  -16.2824   21.2860 C   0  0  1  0  0  0  0  0  0  0  0  0
  -27.8389  -16.7408   19.7213 C   0  0  1  0  0  0  0  0  0  0  0  0
  -23.7357  -29.2540   21.9505 C   0  0  2  0  0  0  0  0  0  0  0  0
  -35.3315  -15.6199   21.3357 C   0  0  0  0  0  0  0  0  0  0  0  0
  -27.8478  -31.2345   25.1322 C   0  0  0  0  0  0  0  0  0  0  0  0
  -25.4094  -30.9364   24.6859 C   0  0  0  0  0  0  0  0  0  0  0  0
  -29.3653  -16.4928   24.0766 C   0  0  0  0  0  0  0  0  0  0  0  0
  -31.8520  -16.3751   24.3430 C   0  0  0  0  0  0  0  0  0  0  0  0
  -30.5912  -14.3837   23.5259 C   0  0  0  0  0  0  0  0  0  0  0  0
  -29.8574  -25.7656   19.2921 C   0  0  0  0  0  0  0  0  0  0  0  0
  -27.4887  -25.2393   19.8849 C   0  0  0  0  0  0  0  0  0  0  0  0
  -33.8734  -16.8072   18.0281 C   0  0  0  0  0  0  0  0  0  0  0  0
  -28.3486  -24.8661   22.8281 C   0  0  0  0  0  0  0  0  0  0  0  0
  -29.1419  -25.5810   21.7294 C   0  0  0  0  0  0  0  0  0  0  0  0
  -29.2833  -23.5076   20.2148 C   0  0  0  0  0  0  0  0  0  1  0  0
  -30.8902  -16.3746   21.9965 C   0  0  1  0  0  0  0  0  0  0  0  0
  -34.2383  -15.8392   20.3015 C   0  0  2  0  0  0  0  0  0  0  0  0
  -26.8148  -30.3267   24.4124 C   0  0  0  0  0  0  0  0  0  0  0  0
  -30.6629  -15.9252   23.4675 C   0  0  0  0  0  0  0  0  0  0  0  0
  -28.9609  -25.0153   20.2933 C   0  0  0  0  0  0  0  0  0  0  0  0
  -22.9625  -26.9955   22.5704 N   0  0  0  0  0  0  0  0  0  0  0  0
  -22.6459  -28.2869   22.3750 N   0  0  0  0  0  0  0  0  0  0  0  0
  -29.0759  -17.0338   20.4480 N   0  0  0  0  0  0  0  0  0  0  0  0
  -26.1437  -29.8081   22.0912 N   0  0  0  0  0  0  0  0  0  0  0  0
  -20.8420  -29.8205   22.4428 N   0  0  0  0  0  0  0  0  0  0  0  0
  -18.9284  -25.9078   23.6366 N   0  0  0  0  0  0  0  0  0  0  0  0
  -25.6095  -16.1896   20.4855 N   0  0  0  0  0  0  0  0  0  0  0  0
  -32.0977  -15.8302   21.3851 N   0  0  0  0  0  0  0  0  0  0  0  0
  -34.8325  -16.5469   19.1323 N   0  3  0  0  0  0  0  0  0  0  0  0
  -18.5319  -28.1334   23.2514 O   0  0  0  0  0  0  0  0  0  0  0  0
  -26.8071  -17.9151   21.4909 O   0  0  0  0  0  0  0  0  0  0  0  0
  -29.4621  -14.7914   20.9569 O   0  0  0  0  0  0  0  0  0  0  0  0
  -27.8931  -31.2740   22.5278 O   0  0  0  0  0  0  0  0  0  0  0  0
  -33.0697  -17.8736   20.8785 O   0  0  0  0  0  0  0  0  0  0  0  0
  -21.5018  -20.9884   24.0967 O   0  0  0  0  0  0  0  0  0  0  0  0
  -29.0568  -23.0047   18.8986 O   0  0  0  0  0  0  0  0  0  1  0  0
  -17.2910  -18.1334   21.9702 F   0  0  0  0  0  0  0  0  0  0  0  0
  -21.9499  -18.8487   22.4045 F   0  0  0  0  0  0  0  0  0  0  0  0
  1  2  1  0  0  0  0
  1  5  2  0  0  0  0
  2  6  2  0  0  0  0
  3 10  2  0  0  0  0
  3 18  1  0  0  0  0
  4 11  1  0  0  0  0
  4 18  2  0  0  0  0
  5 20  1  0  0  0  0
  6 23  1  0  0  0  0
  7  9  2  0  0  0  0
  7 21  1  0  0  0  0
  8 12  2  0  0  0  0
  8 22  1  0  0  0  0
  9 26  1  0  0  0  0
 10 27  1  0  0  0  0
 11 27  2  0  0  0  0
 12 28  1  0  0  0  0
 13 14  2  0  0  0  0
 13 29  1  0  0  0  0
 14 30  1  0  0  0  0
 15 24  1  0  0  0  0
 15 26  2  0  0  0  0
 16 25  1  0  0  0  0
 16 28  2  0  0  0  0
 17 30  2  0  0  0  0
 17 31  1  0  0  0  0
 18 32  1  0  0  0  0
 19 32  1  0  0  0  0
 19 33  2  0  0  0  0
 19 34  1  0  0  0  0
 20 23  2  0  0  0  0
 20 39  1  0  0  0  0
 21 24  2  0  0  0  0
 21 40  1  0  0  0  0
 22 25  2  0  0  0  0
 22 41  1  0  0  0  0
 23 50  1  0  0  0  0
 24 49  1  0  0  0  0
 25 42  1  0  0  0  0
 26 67  1  0  0  0  0
 27 84  1  0  0  0  0
 28 85  1  0  0  0  0
 29 31  2  0  0  0  0
 29 84  1  0  0  0  0
 30 86  1  0  0  0  0
 31 87  1  0  0  0  0
 32 70  2  0  0  0  0
 33 71  1  0  0  0  0
 33 74  1  0  0  0  0
 34 75  1  0  0  0  0
 34 79  2  0  0  0  0
 35 51  1  0  0  0  0
 35 76  1  0  0  0  0
 35 80  2  0  0  0  0
 36 65  1  0  0  0  0
 36 72  1  0  0  0  0
 36 81  2  0  0  0  0
 37 67  1  0  0  0  0
 37 73  1  0  0  0  0
 37 82  2  0  0  0  0
 38 66  1  0  0  0  0
 38 77  1  0  0  0  0
 38 83  2  0  0  0  0
 39 43  1  0  0  0  0
 40 49  1  0  0  0  0
 41 51  1  0  0  0  0
 42 72  1  0  0  0  0
 43 45  1  0  0  0  0
 44 46  1  0  0  0  0
 44 47  1  0  0  0  0
 45 50  1  0  0  0  0
 46 52  1  0  0  0  0
 47 73  1  0  0  0  0
 48 52  1  0  0  0  0
 48 73  1  0  0  0  0
 49 62  1  0  0  0  0
 50 76  1  0  0  0  0
 51 72  1  0  0  0  0
 52 71  1  0  0  0  0
 53 66  1  0  0  0  0
 54 67  1  0  0  0  0
 55 67  1  0  0  0  0
 56 68  1  0  0  0  0
 57 68  1  0  0  0  0
 58 68  1  0  0  0  0
 59 69  1  0  0  0  0
 60 69  1  0  0  0  0
 61 78  1  0  0  0  0
 62 63  1  0  0  0  0
 63 69  1  0  0  0  0
 64 69  1  0  0  0  0
 64 85  1  0  0  0  0
 65 68  1  0  0  0  0
 65 77  1  0  0  0  0
 66 78  1  0  0  0  0
 70 71  1  0  0  0  0
M  CHG  1  78   1
M  ISO  4  37 100  64 101  67 100  85 101
M  END
> <Batch ID>
0134

> <Smiles>
CNC(C)C(=O)NC(C(=O)N1Cc2cc([101O:1][101CH2:1]C(C)(C)CCC3Cc4ccc([100C:0](C)(C)[100C:0](=O)N5CCCC(n6nc(-c7ccc(Oc8ccc(F)cc8F)cc7)c(C(N)=O)c6N)C5)cc43)ccc2CC1C(=O)NC1CCCc2ccccc21)C(C)(C)C

> <Shape>
0.222

> <Color>
0.058

> <Negative vol penalty>
0.000

$$$$

  -OEChem-04052302333D

 87 95  0     1  0  0  0  0  0999 V2000
  -22.9871  -21.4654   25.4531 C   0  0  0  0  0  0  0  0  0  0  0  0
  -24.3552  -21.2128   25.4601 C   0  0  0  0  0  0  0  0  0  0  0  0
  -22.9987   -9.8936   19.9848 C   0  0  0  0  0  0  0  0  0  0  0  0
  -23.7279   -9.9479   22.2875 C   0  0  0  0  0  0  0  0  0  0  0  0
  -22.3862  -22.0118   24.3199 C   0  0  0  0  0  0  0  0  0  0  0  0
  -25.1229  -21.5054   24.3335 C   0  0  0  0  0  0  0  0  0  0  0  0
  -31.6864  -23.6807   22.4614 C   0  0  0  0  0  0  0  0  0  0  0  0
  -29.2637  -19.6324   19.8295 C   0  0  0  0  0  0  0  0  0  0  0  0
  -22.2331   -8.7591   20.2540 C   0  0  0  0  0  0  0  0  0  0  0  0
  -22.9623   -8.8134   22.5567 C   0  0  0  0  0  0  0  0  0  0  0  0
  -32.7446  -23.3184   21.6291 C   0  0  0  0  0  0  0  0  0  0  0  0
  -30.3137  -19.9491   18.9677 C   0  0  0  0  0  0  0  0  0  0  0  0
  -23.2073   -5.4740   22.0887 C   0  0  0  0  0  0  0  0  0  0  0  0
  -23.7966   -4.4580   22.8411 C   0  0  0  0  0  0  0  0  0  0  0  0
  -31.6119  -24.3337   19.7569 C   0  0  0  0  0  0  0  0  0  0  0  0
  -31.6778  -18.2451   20.0035 C   0  0  0  0  0  0  0  0  0  0  0  0
  -22.0756   -4.7024   24.5190 C   0  0  0  0  0  0  0  0  0  0  0  0
  -23.7462  -10.4880   21.0015 C   0  0  0  0  0  0  0  0  0  0  0  0
  -24.1301  -13.0035   20.8216 C   0  0  0  0  0  0  0  0  0  0  0  0
  -23.1485  -22.3203   23.1822 C   0  0  0  0  0  0  0  0  0  0  0  0
  -30.5761  -24.3638   21.9446 C   0  0  0  0  0  0  0  0  0  0  0  0
  -24.5313  -22.0552   23.1835 C   0  0  0  0  0  0  0  0  0  0  0  0
  -30.5421  -24.7058   20.5852 C   0  0  0  0  0  0  0  0  0  0  0  0
  -29.4207  -18.6221   20.7784 C   0  0  0  0  0  0  0  0  0  0  0  0
  -30.6277  -17.9284   20.8654 C   0  0  0  0  0  0  0  0  0  0  0  0
  -22.2149   -8.2191   21.5399 C   0  0  0  0  0  0  0  0  0  0  0  0
  -32.7062  -23.6423   20.2761 C   0  0  0  0  0  0  0  0  0  0  0  0
  -31.5208  -19.2554   19.0547 C   0  0  0  0  0  0  0  0  0  0  0  0
  -22.0521   -6.1042   22.5515 C   0  0  0  0  0  0  0  0  0  0  0  0
  -23.2307   -4.0722   24.0562 C   0  0  0  0  0  0  0  0  0  0  0  0
  -21.4863   -5.7184   23.7666 C   0  0  0  0  0  0  0  0  0  0  0  0
  -24.5376  -11.6596   20.7240 C   0  0  0  0  0  0  0  0  0  0  0  0
  -25.2389  -13.7261   20.4543 C   0  0  0  0  0  0  0  0  0  0  0  0
  -35.0496  -21.5338   18.5535 C   0  0  0  0  0  0  0  0  0  0  0  0
  -22.8626  -13.5499   21.2096 C   0  0  0  0  0  0  0  0  0  0  0  0
  -34.8195  -20.3177   18.0197 C   0  0  0  0  0  0  0  0  0  0  0  0
  -27.4696  -23.7359   21.7021 C   0  0  0  0  0  0  0  0  0  0  0  0
  -27.3347  -26.7891   20.6147 C   0  0  0  0  0  0  0  0  0  0  0  0
  -27.8960  -29.8871   19.2978 C   0  0  0  0  0  0  0  0  0  0  0  0
  -30.7353  -14.6634   20.6918 C   0  0  0  0  0  0  0  0  0  0  0  0
  -22.4465  -22.8657   21.9639 C   0  0  0  0  0  0  0  0  0  0  0  0
  -29.4550  -24.7711   22.8608 C   0  0  0  0  0  0  0  0  0  0  0  0
  -29.3823  -25.4564   19.9851 C   0  0  0  0  0  0  0  0  0  0  0  0
  -23.3938  -23.4953   20.9458 C   0  0  0  0  0  0  0  0  0  0  0  0
  -29.5915  -12.2362   18.3515 C   0  0  0  0  0  0  0  0  0  0  0  0
  -24.5951  -22.5874   20.7019 C   0  0  0  0  0  0  0  0  0  0  0  0
  -28.1438  -11.9763   18.7720 C   0  0  0  0  0  0  0  0  0  0  0  0
  -30.4959  -12.4735   19.5588 C   0  0  0  0  0  0  0  0  0  0  0  0
  -28.5878  -13.2699   20.9000 C   0  0  0  0  0  0  0  0  0  0  0  0
  -25.4020  -22.3820   21.9896 C   0  0  1  0  0  0  0  0  0  0  0  0
  -28.1401  -25.0121   22.1257 C   0  0  1  0  0  0  0  0  0  0  0  0
  -27.6268  -13.0803   19.7139 C   0  0  2  0  0  0  0  0  0  0  0  0
  -28.1312  -19.3259   22.8103 C   0  0  0  0  0  0  0  0  0  0  0  0
  -36.7752  -19.0943   17.0121 C   0  0  0  0  0  0  0  0  0  0  0  0
  -26.7026  -31.8207   18.2329 C   0  0  0  0  0  0  0  0  0  0  0  0
  -27.1098  -25.2134   18.0115 C   0  0  0  0  0  0  0  0  0  0  0  0
  -26.8327  -27.3874   16.8010 C   0  0  0  0  0  0  0  0  0  0  0  0
  -25.1539  -26.6903   18.5093 C   0  0  0  0  0  0  0  0  0  0  0  0
  -28.7217  -31.7357   21.4565 C   0  0  0  0  0  0  0  0  0  0  0  0
  -28.2823  -18.3011   21.6901 C   0  0  0  0  0  0  0  0  0  0  0  0
  -30.8192  -16.8439   21.8740 C   0  0  0  0  0  0  0  0  0  0  0  0
  -34.4597  -22.1070   19.8031 C   0  0  0  0  0  0  0  0  0  1  0  0
  -35.4617  -19.8156   16.7457 C   0  0  0  0  0  0  0  0  0  0  0  0
  -33.8702  -19.3630   18.7017 C   0  0  0  0  0  0  0  0  0  0  0  0
  -27.4459  -27.4477   19.2609 C   0  0  1  0  0  0  0  0  0  0  0  0
  -27.2117  -31.2213   19.5345 C   0  0  2  0  0  0  0  0  0  0  0  0
  -26.6585  -26.6800   18.1618 C   0  0  0  0  0  0  0  0  0  0  0  0
  -25.8063  -11.5331   20.3257 N   0  0  0  0  0  0  0  0  0  0  0  0
  -26.2054  -12.8068   20.1697 N   0  0  0  0  0  0  0  0  0  0  0  0
  -28.3075  -25.8269   20.9206 N   0  0  0  0  0  0  0  0  0  0  0  0
  -29.9502  -13.5331   20.4105 N   0  0  0  0  0  0  0  0  0  0  0  0
  -25.4716  -15.0518   20.3501 N   0  0  0  0  0  0  0  0  0  0  0  0
  -21.8318  -12.6657   21.5561 N   0  0  0  0  0  0  0  0  0  0  0  0
  -26.2216  -23.5430   22.2631 N   0  0  0  0  0  0  0  0  0  0  0  0
  -27.0212  -28.8314   19.4439 N   0  0  0  0  0  0  0  0  0  0  0  0
  -30.1400  -15.6229   21.5015 N   0  0  0  0  0  0  0  0  0  0  0  0
  -28.1609  -32.1870   20.1570 N   0  3  0  0  0  0  0  0  0  0  0  0
  -22.6454  -14.7851   21.2322 O   0  0  0  0  0  0  0  0  0  0  0  0
  -28.0415  -22.9828   20.9227 O   0  0  0  0  0  0  0  0  0  0  0  0
  -26.4225  -27.1214   21.3757 O   0  0  0  0  0  0  0  0  0  0  0  0
  -29.0866  -29.7912   19.0083 O   0  0  0  0  0  0  0  0  0  0  0  0
  -31.8799  -14.8092   20.2495 O   0  0  0  0  0  0  0  0  0  0  0  0
  -21.4678   -7.1122   21.8030 O   0  0  0  0  0  0  0  0  0  0  0  0
  -33.7374  -23.2893   19.4614 O   0  0  0  0  0  0  0  0  0  1  0  0
  -32.5527  -19.5667   18.2083 O   0  0  0  0  0  0  0  0  0  0  0  0
  -23.7959   -3.0955   24.7779 F   0  0  0  0  0  0  0  0  0  0  0  0
  -20.3759   -6.3194   24.2158 F   0  0  0  0  0  0  0  0  0  0  0  0
  1  2  1  0  0  0  0
  1  5  2  0  0  0  0
  2  6  2  0  0  0  0
  3  9  2  0  0  0  0
  3 18  1  0  0  0  0
  4 10  1  0  0  0  0
  4 18  2  0  0  0  0
  5 20  1  0  0  0  0
  6 22  1  0  0  0  0
  7 11  2  0  0  0  0
  7 21  1  0  0  0  0
  8 12  2  0  0  0  0
  8 24  1  0  0  0  0
  9 26  1  0  0  0  0
 10 26  2  0  0  0  0
 11 27  1  0  0  0  0
 12 28  1  0  0  0  0
 13 14  2  0  0  0  0
 13 29  1  0  0  0  0
 14 30  1  0  0  0  0
 15 23  1  0  0  0  0
 15 27  2  0  0  0  0
 16 25  1  0  0  0  0
 16 28  2  0  0  0  0
 17 30  2  0  0  0  0
 17 31  1  0  0  0  0
 18 32  1  0  0  0  0
 19 32  1  0  0  0  0
 19 33  2  0  0  0  0
 19 35  1  0  0  0  0
 20 22  2  0  0  0  0
 20 41  1  0  0  0  0
 21 23  2  0  0  0  0
 21 42  1  0  0  0  0
 22 50  1  0  0  0  0
 23 43  1  0  0  0  0
 24 25  2  0  0  0  0
 24 60  1  0  0  0  0
 25 61  1  0  0  0  0
 26 83  1  0  0  0  0
 27 84  1  0  0  0  0
 28 85  1  0  0  0  0
 29 31  2  0  0  0  0
 29 83  1  0  0  0  0
 30 86  1  0  0  0  0
 31 87  1  0  0  0  0
 32 68  2  0  0  0  0
 33 69  1  0  0  0  0
 33 72  1  0  0  0  0
 34 36  2  0  0  0  0
 34 62  1  0  0  0  0
 35 73  1  0  0  0  0
 35 78  2  0  0  0  0
 36 63  1  0  0  0  0
 36 64  1  0  0  0  0
 37 51  1  0  0  0  0
 37 74  1  0  0  0  0
 37 79  2  0  0  0  0
 38 65  1  0  0  0  0
 38 70  1  0  0  0  0
 38 80  2  0  0  0  0
 39 66  1  0  0  0  0
 39 75  1  0  0  0  0
 39 81  2  0  0  0  0
 40 71  1  0  0  0  0
 40 76  1  0  0  0  0
 40 82  2  0  0  0  0
 41 44  1  0  0  0  0
 42 51  1  0  0  0  0
 43 70  1  0  0  0  0
 44 46  1  0  0  0  0
 45 47  1  0  0  0  0
 45 48  1  0  0  0  0
 46 50  1  0  0  0  0
 47 52  1  0  0  0  0
 48 71  1  0  0  0  0
 49 52  1  0  0  0  0
 49 71  1  0  0  0  0
 50 74  1  0  0  0  0
 51 70  1  0  0  0  0
 52 69  1  0  0  0  0
 53 60  1  0  0  0  0
 54 63  1  0  0  0  0
 55 66  1  0  0  0  0
 56 67  1  0  0  0  0
 57 67  1  0  0  0  0
 58 67  1  0  0  0  0
 59 77  1  0  0  0  0
 61 76  1  0  0  0  0
 62 84  1  0  0  0  0
 64 85  1  0  0  0  0
 65 67  1  0  0  0  0
 65 75  1  0  0  0  0
 66 77  1  0  0  0  0
 68 69  1  0  0  0  0
M  CHG  1  77   1
M  ISO  4  40 100  62 101  76 100  84 101
M  END
> <Batch ID>
0134

> <Smiles>
CCC(=C[101CH2:1][101O:1]c1ccc2c(c1)CN(C(=O)C(NC(=O)C(C)NC)C(C)(C)C)C(C(=O)NC1CCCc3ccccc31)C2)COc1ccc(CC)c(C[100NH:0][100C:0](=O)N2CCCC(n3nc(-c4ccc(Oc5ccc(F)cc5F)cc4)c(C(N)=O)c3N)C2)c1

> <Shape>
0.249

> <Color>
0.193

> <Negative vol penalty>
0.000

$$$$

  -OEChem-04052302333D

 87 95  0     1  0  0  0  0  0999 V2000
  -22.8709  -23.2432   19.9108 C   0  0  0  0  0  0  0  0  0  0  0  0
  -23.6460  -22.5659   18.9749 C   0  0  0  0  0  0  0  0  0  0  0  0
  -26.7476  -27.5442   18.9863 C   0  0  0  0  0  0  0  0  0  0  0  0
  -26.0460  -26.2313   20.8892 C   0  0  0  0  0  0  0  0  0  0  0  0
  -22.7450  -22.7402   21.2050 C   0  0  0  0  0  0  0  0  0  0  0  0
  -24.2965  -21.3856   19.3331 C   0  0  0  0  0  0  0  0  0  0  0  0
  -26.3522  -15.0924   16.5971 C   0  0  0  0  0  0  0  0  0  0  0  0
  -25.6792  -28.4164   19.1941 C   0  0  0  0  0  0  0  0  0  0  0  0
  -24.9775  -27.1035   21.0971 C   0  0  0  0  0  0  0  0  0  0  0  0
  -27.4846  -14.2876   16.4789 C   0  0  0  0  0  0  0  0  0  0  0  0
  -21.9136  -27.6490   19.7760 C   0  0  0  0  0  0  0  0  0  0  0  0
  -20.6623  -27.0904   20.0366 C   0  0  0  0  0  0  0  0  0  0  0  0
  -27.1307  -13.4708   18.7210 C   0  0  0  0  0  0  0  0  0  0  0  0
  -29.7893  -16.6751   22.5115 C   0  0  0  0  0  0  0  0  0  0  0  0
  -30.5809  -16.9317   19.8488 C   0  0  0  0  0  0  0  0  0  0  0  0
  -20.6029  -28.2195   22.1717 C   0  0  0  0  0  0  0  0  0  0  0  0
  -26.9311  -26.4516   19.8338 C   0  0  0  0  0  0  0  0  0  0  0  0
  -29.3291  -25.6462   20.1634 C   0  0  0  0  0  0  0  0  0  0  0  0
  -23.3865  -21.5481   21.5765 C   0  0  0  0  0  0  0  0  0  0  0  0
  -25.6056  -15.1006   17.7841 C   0  0  0  0  0  0  0  0  0  0  0  0
  -24.1802  -20.8670   20.6339 C   0  0  0  0  0  0  0  0  0  0  0  0
  -25.9878  -14.2746   18.8508 C   0  0  0  0  0  0  0  0  0  0  0  0
  -29.3558  -17.7653   21.7571 C   0  0  0  0  0  0  0  0  0  0  0  0
  -30.6187  -15.7133   21.9347 C   0  0  0  0  0  0  0  0  0  0  0  0
  -29.7515  -17.8936   20.4257 C   0  0  0  0  0  0  0  0  0  0  0  0
  -24.7941  -28.1961   20.2495 C   0  0  0  0  0  0  0  0  0  0  0  0
  -27.8756  -13.4789   17.5420 C   0  0  0  0  0  0  0  0  0  0  0  0
  -22.5096  -28.4928   20.7133 C   0  0  0  0  0  0  0  0  0  0  0  0
  -31.0144  -15.8416   20.6033 C   0  0  0  0  0  0  0  0  0  0  0  0
  -20.0069  -27.3757   21.2344 C   0  0  0  0  0  0  0  0  0  0  0  0
  -21.8542  -28.7781   21.9111 C   0  0  0  0  0  0  0  0  0  0  0  0
  -28.0343  -25.5499   19.6193 C   0  0  0  0  0  0  0  0  0  0  0  0
  -29.9956  -24.5566   19.6585 C   0  0  0  0  0  0  0  0  0  0  0  0
  -31.1596  -12.3064   18.2846 C   0  0  0  0  0  0  0  0  0  0  0  0
  -29.8800  -26.6324   21.0464 C   0  0  0  0  0  0  0  0  0  0  0  0
  -32.0782  -13.2927   18.2682 C   0  0  0  0  0  0  0  0  0  0  0  0
  -24.8722  -17.3009   19.9577 C   0  0  0  0  0  0  0  0  0  0  0  0
  -23.0104  -14.9321   21.1596 C   0  0  0  0  0  0  0  0  0  0  0  0
  -22.3993  -11.5861   21.4376 C   0  0  0  0  0  0  0  0  0  0  0  0
  -29.1136  -19.0212   18.2652 C   0  0  0  0  0  0  0  0  0  0  0  0
  -23.2592  -21.0686   23.0008 C   0  0  0  0  0  0  0  0  0  0  0  0
  -24.3714  -15.9542   17.8861 C   0  0  0  0  0  0  0  0  0  0  0  0
  -25.2089  -14.2317   20.1391 C   0  0  0  0  0  0  0  0  0  0  0  0
  -23.6770  -19.6130   23.1930 C   0  0  0  0  0  0  0  0  0  0  0  0
  -29.3360  -21.5588   15.7776 C   0  0  0  0  0  0  0  0  0  0  0  0
  -25.0022  -19.3405   22.4886 C   0  0  0  0  0  0  0  0  0  0  0  0
  -29.1499  -22.8570   16.5663 C   0  0  0  0  0  0  0  0  0  0  0  0
  -28.4625  -20.4318   16.3258 C   0  0  0  0  0  0  0  0  0  0  0  0
  -28.4169  -21.4801   18.5548 C   0  0  0  0  0  0  0  0  0  0  0  0
  -24.8812  -19.5705   20.9773 C   0  0  1  0  0  0  0  0  0  0  0  0
  -23.9803  -16.2695   19.3265 C   0  0  1  0  0  0  0  0  0  0  0  0
  -29.3247  -22.6266   18.0802 C   0  0  2  0  0  0  0  0  0  0  0  0
  -28.4678  -18.7802   22.4008 C   0  0  0  0  0  0  0  0  0  0  0  0
  -30.3068  -13.2749   22.4281 C   0  0  0  0  0  0  0  0  0  0  0  0
  -34.3834  -12.7575   19.1263 C   0  0  0  0  0  0  0  0  0  0  0  0
  -20.8283   -9.9535   22.5165 C   0  0  0  0  0  0  0  0  0  0  0  0
  -24.3971  -15.3737   23.8414 C   0  0  0  0  0  0  0  0  0  0  0  0
  -23.5078  -13.1554   24.5875 C   0  0  0  0  0  0  0  0  0  0  0  0
  -21.9299  -14.9936   23.9928 C   0  0  0  0  0  0  0  0  0  0  0  0
  -21.5138  -10.5297   18.8187 C   0  0  0  0  0  0  0  0  0  0  0  0
  -31.0737  -14.5525   22.7563 C   0  0  0  0  0  0  0  0  0  0  0  0
  -29.7076  -12.4190   18.6266 C   0  0  0  0  0  0  0  0  0  1  0  0
  -33.5333  -13.0902   17.9085 C   0  0  0  0  0  0  0  0  0  0  0  0
  -31.6753  -14.7033   18.6226 C   0  0  0  0  0  0  0  0  0  0  0  0
  -23.2105  -13.8172   22.1576 C   0  0  1  0  0  0  0  0  0  0  0  0
  -21.1248  -10.7778   21.2734 C   0  0  2  0  0  0  0  0  0  0  0  0
  -23.2773  -14.3370   23.6214 C   0  0  0  0  0  0  0  0  0  0  0  0
  -27.8850  -24.4835   18.8291 N   0  0  0  0  0  0  0  0  0  0  0  0
  -29.0948  -23.8997   18.8729 N   0  0  0  0  0  0  0  0  0  0  0  0
  -24.0132  -15.0891   20.1925 N   0  0  0  0  0  0  0  0  0  0  0  0
  -28.6846  -20.2685   17.7642 N   0  0  0  0  0  0  0  0  0  0  0  0
  -31.2586  -24.1060   19.8141 N   0  0  0  0  0  0  0  0  0  0  0  0
  -29.0571  -27.6854   21.4686 N   0  0  0  0  0  0  0  0  0  0  0  0
  -29.3230  -18.9947   19.6436 N   0  0  0  0  0  0  0  0  0  0  0  0
  -24.2137  -18.4515   20.3476 N   0  0  0  0  0  0  0  0  0  0  0  0
  -22.1420  -12.8543   21.9136 N   0  0  0  0  0  0  0  0  0  0  0  0
  -21.2451   -9.8511   20.1126 N   0  3  0  0  0  0  0  0  0  0  0  0
  -31.0716  -26.5903   21.4360 O   0  0  0  0  0  0  0  0  0  0  0  0
  -26.0690  -17.0694   20.0830 O   0  0  0  0  0  0  0  0  0  0  0  0
  -21.9979  -15.6332   21.2311 O   0  0  0  0  0  0  0  0  0  0  0  0
  -23.5121  -11.1360   21.1739 O   0  0  0  0  0  0  0  0  0  0  0  0
  -29.3090  -18.0559   17.5222 O   0  0  0  0  0  0  0  0  0  0  0  0
  -23.7515  -29.0471   20.4527 O   0  0  0  0  0  0  0  0  0  0  0  0
  -28.9808  -12.6929   17.4295 O   0  0  0  0  0  0  0  0  0  1  0  0
  -31.8295  -14.9062   20.0210 O   0  0  0  0  0  0  0  0  0  0  0  0
  -18.8046  -26.8405   21.4838 F   0  0  0  0  0  0  0  0  0  0  0  0
  -22.4213  -29.5889   22.8148 F   0  0  0  0  0  0  0  0  0  0  0  0
  1  2  1  0  0  0  0
  1  5  2  0  0  0  0
  2  6  2  0  0  0  0
  3  8  2  0  0  0  0
  3 17  1  0  0  0  0
  4  9  1  0  0  0  0
  4 17  2  0  0  0  0
  5 19  1  0  0  0  0
  6 21  1  0  0  0  0
  7 10  2  0  0  0  0
  7 20  1  0  0  0  0
  8 26  1  0  0  0  0
  9 26  2  0  0  0  0
 10 27  1  0  0  0  0
 11 12  2  0  0  0  0
 11 28  1  0  0  0  0
 12 30  1  0  0  0  0
 13 22  1  0  0  0  0
 13 27  2  0  0  0  0
 14 23  2  0  0  0  0
 14 24  1  0  0  0  0
 15 25  2  0  0  0  0
 15 29  1  0  0  0  0
 16 30  2  0  0  0  0
 16 31  1  0  0  0  0
 17 32  1  0  0  0  0
 18 32  1  0  0  0  0
 18 33  2  0  0  0  0
 18 35  1  0  0  0  0
 19 21  2  0  0  0  0
 19 41  1  0  0  0  0
 20 22  2  0  0  0  0
 20 42  1  0  0  0  0
 21 50  1  0  0  0  0
 22 43  1  0  0  0  0
 23 25  1  0  0  0  0
 23 53  1  0  0  0  0
 24 29  2  0  0  0  0
 24 61  1  0  0  0  0
 25 74  1  0  0  0  0
 26 83  1  0  0  0  0
 27 84  1  0  0  0  0
 28 31  2  0  0  0  0
 28 83  1  0  0  0  0
 29 85  1  0  0  0  0
 30 86  1  0  0  0  0
 31 87  1  0  0  0  0
 32 68  2  0  0  0  0
 33 69  1  0  0  0  0
 33 72  1  0  0  0  0
 34 36  2  0  0  0  0
 34 62  1  0  0  0  0
 35 73  1  0  0  0  0
 35 78  2  0  0  0  0
 36 63  1  0  0  0  0
 36 64  1  0  0  0  0
 37 51  1  0  0  0  0
 37 75  1  0  0  0  0
 37 79  2  0  0  0  0
 38 65  1  0  0  0  0
 38 70  1  0  0  0  0
 38 80  2  0  0  0  0
 39 66  1  0  0  0  0
 39 76  1  0  0  0  0
 39 81  2  0  0  0  0
 40 71  1  0  0  0  0
 40 74  1  0  0  0  0
 40 82  2  0  0  0  0
 41 44  1  0  0  0  0
 42 51  1  0  0  0  0
 43 70  1  0  0  0  0
 44 46  1  0  0  0  0
 45 47  1  0  0  0  0
 45 48  1  0  0  0  0
 46 50  1  0  0  0  0
 47 52  1  0  0  0  0
 48 71  1  0  0  0  0
 49 52  1  0  0  0  0
 49 71  1  0  0  0  0
 50 75  1  0  0  0  0
 51 70  1  0  0  0  0
 52 69  1  0  0  0  0
 54 61  1  0  0  0  0
 55 63  1  0  0  0  0
 56 66  1  0  0  0  0
 57 67  1  0  0  0  0
 58 67  1  0  0  0  0
 59 67  1  0  0  0  0
 60 77  1  0  0  0  0
 62 84  1  0  0  0  0
 64 85  1  0  0  0  0
 65 67  1  0  0  0  0
 65 76  1  0  0  0  0
 66 77  1  0  0  0  0
 68 69  1  0  0  0  0
M  CHG  1  77   1
M  ISO  4  40 100  62 101  74 100  84 101
M  END
> <Batch ID>
0134

> <Smiles>
CCC(=C[101CH2:1][101O:1]c1ccc2c(c1)CN(C(=O)C(NC(=O)C(C)NC)C(C)(C)C)C(C(=O)NC1CCCc3ccccc31)C2)COc1cc([100NH:0][100C:0](=O)N2CCCC(n3nc(-c4ccc(Oc5ccc(F)cc5F)cc4)c(C(N)=O)c3N)C2)c(C)cc1CC

> <Shape>
0.257

> <Color>
0.051

> <Negative vol penalty>
0.000

$$$$

  -OEChem-04052302333D

 86 95  0     1  0  0  0  0  0999 V2000
  -30.5201  -29.8668   19.0542 C   0  0  0  0  0  0  0  0  0  0  0  0
  -29.5346  -29.1257   19.6985 C   0  0  0  0  0  0  0  0  0  0  0  0
  -22.7477  -16.8427   18.1746 C   0  0  0  0  0  0  0  0  0  0  0  0
  -21.6553  -17.7570   20.1259 C   0  0  0  0  0  0  0  0  0  0  0  0
  -31.3170  -29.2667   18.0802 C   0  0  0  0  0  0  0  0  0  0  0  0
  -29.3447  -27.7844   19.3682 C   0  0  0  0  0  0  0  0  0  0  0  0
  -28.7942  -24.8379   23.4499 C   0  0  0  0  0  0  0  0  0  0  0  0
  -22.8807  -15.6155   18.8241 C   0  0  0  0  0  0  0  0  0  0  0  0
  -21.7882  -16.5298   20.7754 C   0  0  0  0  0  0  0  0  0  0  0  0
  -27.5514  -24.8508   24.0816 C   0  0  0  0  0  0  0  0  0  0  0  0
  -24.9038  -14.2379   21.1551 C   0  0  0  0  0  0  0  0  0  0  0  0
  -26.1356  -13.5894   21.0678 C   0  0  0  0  0  0  0  0  0  0  0  0
  -26.9727  -22.7885   22.9720 C   0  0  0  0  0  0  0  0  0  0  0  0
  -19.8445  -27.0189   20.8106 C   0  0  0  0  0  0  0  0  0  0  0  0
  -19.4253  -26.6769   23.1652 C   0  0  0  0  0  0  0  0  0  0  0  0
  -21.6914  -26.6657   22.3275 C   0  0  0  0  0  0  0  0  0  0  0  0
  -25.0650  -11.6975   20.0135 C   0  0  0  0  0  0  0  0  0  0  0  0
  -22.1350  -17.9135   18.8255 C   0  0  0  0  0  0  0  0  0  0  0  0
  -20.9218  -19.6074   17.3537 C   0  0  0  0  0  0  0  0  0  0  0  0
  -31.1432  -27.9147   17.7447 C   0  0  0  0  0  0  0  0  0  0  0  0
  -29.1320  -23.8042   22.5646 C   0  0  0  0  0  0  0  0  0  0  0  0
  -30.1392  -27.1660   18.3879 C   0  0  0  0  0  0  0  0  0  0  0  0
  -28.2215  -22.7634   22.3323 C   0  0  0  0  0  0  0  0  0  0  0  0
  -18.9494  -26.9086   21.8746 C   0  0  0  0  0  0  0  0  0  0  0  0
  -21.2155  -26.8974   21.0370 C   0  0  0  0  0  0  0  0  0  0  0  0
  -20.7964  -26.5555   23.3916 C   0  0  0  0  0  0  0  0  0  0  0  0
  -22.4010  -15.4590   20.1244 C   0  0  0  0  0  0  0  0  0  0  0  0
  -26.6393  -23.8276   23.8405 C   0  0  0  0  0  0  0  0  0  0  0  0
  -23.7525  -13.6161   20.6717 C   0  0  0  0  0  0  0  0  0  0  0  0
  -26.2163  -12.3193   20.4970 C   0  0  0  0  0  0  0  0  0  0  0  0
  -23.8331  -12.3460   20.1009 C   0  0  0  0  0  0  0  0  0  0  0  0
  -21.9978  -19.1816   18.1554 C   0  0  0  0  0  0  0  0  0  0  0  0
  -21.2706  -20.8750   16.9560 C   0  0  0  0  0  0  0  0  0  0  0  0
  -19.7150  -18.9188   17.0001 C   0  0  0  0  0  0  0  0  0  0  0  0
  -29.8593  -23.6455   19.4744 C   0  0  0  0  0  0  0  0  0  0  0  0
  -30.4599  -20.5356   20.1748 C   0  0  0  0  0  0  0  0  0  0  0  0
  -29.8879  -17.8636   22.2194 C   0  0  0  0  0  0  0  0  0  0  0  0
  -23.9687  -25.5976   18.9387 C   0  0  0  0  0  0  0  0  0  0  0  0
  -31.9973  -27.3224   16.6518 C   0  0  0  0  0  0  0  0  0  0  0  0
  -30.4870  -23.7907   21.9118 C   0  0  0  0  0  0  0  0  0  0  0  0
  -28.5434  -21.6200   21.4063 C   0  0  0  0  0  0  0  0  0  0  0  0
  -31.9820  -25.7962   16.6265 C   0  0  0  0  0  0  0  0  0  0  0  0
  -25.5214  -23.3780   16.6280 C   0  0  0  0  0  0  0  0  0  0  0  0
  -21.3279  -25.9168   26.9999 C   0  0  0  0  0  0  0  0  0  0  0  0
  -30.5535  -25.2746   16.7456 C   0  0  0  0  0  0  0  0  0  0  0  0
  -24.6710  -22.1092   16.7118 C   0  0  0  0  0  0  0  0  0  0  0  0
  -22.6184  -26.5992   26.5778 C   0  0  0  0  0  0  0  0  0  0  0  0
  -20.3860  -26.1994   25.8330 C   0  0  0  0  0  0  0  0  0  0  0  0
  -25.6594  -24.0558   17.9895 C   0  0  0  0  0  0  0  0  0  0  0  0
  -23.5328  -23.0732   18.7548 C   0  0  0  0  0  0  0  0  0  0  0  0
  -29.9193  -25.7018   18.0749 C   0  0  1  0  0  0  0  0  0  0  0  0
  -30.5260  -22.9595   20.6332 C   0  0  1  0  0  0  0  0  0  0  0  0
  -23.3185  -22.3848   17.3959 C   0  0  2  0  0  0  0  0  0  0  0  0
  -22.6826  -26.3437   25.0647 C   0  0  1  0  0  0  0  0  0  0  0  0
  -17.4836  -27.0385   21.6325 C   0  0  0  0  0  0  0  0  0  0  0  0
  -30.4904  -15.4457   22.5161 C   0  0  0  0  0  0  0  0  0  0  0  0
  -28.5721  -19.7881   17.8972 C   0  0  0  0  0  0  0  0  0  0  0  0
  -28.4698  -17.4694   18.8360 C   0  0  0  0  0  0  0  0  0  0  0  0
  -30.6438  -18.3941   18.0351 C   0  0  0  0  0  0  0  0  0  0  0  0
  -31.1117  -18.3734   24.8654 C   0  0  0  0  0  0  0  0  0  0  0  0
  -22.1724  -27.0153   19.8991 C   0  0  0  0  0  0  0  0  0  0  0  0
  -23.3512  -25.0064   24.7493 C   0  0  0  0  0  0  0  0  0  0  0  0
  -24.8684  -25.1133   24.7713 C   0  0  0  0  0  0  0  0  0  1  0  0
  -29.6437  -19.2657   20.1874 C   0  0  1  0  0  0  0  0  0  0  0  0
  -30.8365  -16.8808   22.8817 C   0  0  2  0  0  0  0  0  0  0  0  0
  -29.3252  -18.7517   18.7549 C   0  0  0  0  0  0  0  0  0  0  0  0
  -22.9583  -20.1038   18.2616 N   0  0  0  0  0  0  0  0  0  0  0  0
  -22.4870  -21.1216   17.5213 N   0  0  0  0  0  0  0  0  0  0  0  0
  -21.2679  -26.3259   24.6701 N   0  0  3  0  0  0  0  0  0  0  0  0
  -29.8786  -21.6551   20.7870 N   0  0  0  0  0  0  0  0  0  0  0  0
  -24.3411  -24.2906   18.5836 N   0  0  0  0  0  0  0  0  0  0  0  0
  -20.6523  -21.7915   16.1813 N   0  0  0  0  0  0  0  0  0  0  0  0
  -19.5158  -17.6227   17.4950 N   0  0  0  0  0  0  0  0  0  0  0  0
  -30.4072  -24.8737   19.1568 N   0  0  0  0  0  0  0  0  0  0  0  0
  -30.3804  -18.3151   21.0132 N   0  0  0  0  0  0  0  0  0  0  0  0
  -22.7003  -25.7330   19.4896 N   0  0  0  0  0  0  0  0  0  0  0  0
  -30.7713  -17.0169   24.3643 N   0  3  0  0  0  0  0  0  0  0  0  0
  -18.8467  -19.4311   16.2537 O   0  0  0  0  0  0  0  0  0  0  0  0
  -28.9186  -23.1001   18.9093 O   0  0  0  0  0  0  0  0  0  0  0  0
  -31.5751  -20.5325   19.6478 O   0  0  0  0  0  0  0  0  0  0  0  0
  -28.8154  -18.1947   22.7200 O   0  0  0  0  0  0  0  0  0  0  0  0
  -24.7095  -26.5725   18.7718 O   0  0  0  0  0  0  0  0  0  0  0  0
  -22.5304  -14.2615   20.7584 O   0  0  0  0  0  0  0  0  0  0  0  0
  -25.4253  -23.8381   24.4552 O   0  0  0  0  0  0  0  0  0  1  0  0
  -27.3995  -11.6973   20.4118 F   0  0  0  0  0  0  0  0  0  0  0  0
  -22.7307  -11.7441   19.6337 F   0  0  0  0  0  0  0  0  0  0  0  0
  1  2  1  0  0  0  0
  1  5  2  0  0  0  0
  2  6  2  0  0  0  0
  3  8  2  0  0  0  0
  3 18  1  0  0  0  0
  4  9  1  0  0  0  0
  4 18  2  0  0  0  0
  5 20  1  0  0  0  0
  6 22  1  0  0  0  0
  7 10  2  0  0  0  0
  7 21  1  0  0  0  0
  8 27  1  0  0  0  0
  9 27  2  0  0  0  0
 10 28  1  0  0  0  0
 11 12  2  0  0  0  0
 11 29  1  0  0  0  0
 12 30  1  0  0  0  0
 13 23  1  0  0  0  0
 13 28  2  0  0  0  0
 14 24  1  0  0  0  0
 14 25  2  0  0  0  0
 15 24  2  0  0  0  0
 15 26  1  0  0  0  0
 16 25  1  0  0  0  0
 16 26  2  0  0  0  0
 17 30  2  0  0  0  0
 17 31  1  0  0  0  0
 18 32  1  0  0  0  0
 19 32  1  0  0  0  0
 19 33  2  0  0  0  0
 19 34  1  0  0  0  0
 20 22  2  0  0  0  0
 20 39  1  0  0  0  0
 21 23  2  0  0  0  0
 21 40  1  0  0  0  0
 22 51  1  0  0  0  0
 23 41  1  0  0  0  0
 24 55  1  0  0  0  0
 25 61  1  0  0  0  0
 26 69  1  0  0  0  0
 27 83  1  0  0  0  0
 28 84  1  0  0  0  0
 29 31  2  0  0  0  0
 29 83  1  0  0  0  0
 30 85  1  0  0  0  0
 31 86  1  0  0  0  0
 32 67  2  0  0  0  0
 33 68  1  0  0  0  0
 33 72  1  0  0  0  0
 34 73  1  0  0  0  0
 34 78  2  0  0  0  0
 35 52  1  0  0  0  0
 35 74  1  0  0  0  0
 35 79  2  0  0  0  0
 36 64  1  0  0  0  0
 36 70  1  0  0  0  0
 36 80  2  0  0  0  0
 37 65  1  0  0  0  0
 37 75  1  0  0  0  0
 37 81  2  0  0  0  0
 38 71  1  0  0  0  0
 38 76  1  0  0  0  0
 38 82  2  0  0  0  0
 39 42  1  0  0  0  0
 40 52  1  0  0  0  0
 41 70  1  0  0  0  0
 42 45  1  0  0  0  0
 43 46  1  0  0  0  0
 43 49  1  0  0  0  0
 44 47  1  0  0  0  0
 44 48  1  0  0  0  0
 45 51  1  0  0  0  0
 46 53  1  0  0  0  0
 47 54  1  0  0  0  0
 48 69  1  0  0  0  0
 49 71  1  0  0  0  0
 50 53  1  0  0  0  0
 50 71  1  0  0  0  0
 51 74  1  0  0  0  0
 52 70  1  0  0  0  0
 53 68  1  0  0  0  0
 54 62  1  0  0  0  0
 54 69  1  0  0  0  0
 56 65  1  0  0  0  0
 57 66  1  0  0  0  0
 58 66  1  0  0  0  0
 59 66  1  0  0  0  0
 60 77  1  0  0  0  0
 61 76  1  0  0  0  0
 62 63  1  0  0  0  0
 63 84  1  0  0  0  0
 64 66  1  0  0  0  0
 64 75  1  0  0  0  0
 65 77  1  0  0  0  0
 67 68  1  0  0  0  0
M  CHG  1  77   1
M  ISO  4  38 100  63 101  76 100  84 101
M  END
> <Batch ID>
0134

> <Smiles>
CNC(C)C(=O)NC(C(=O)N1Cc2cc([101O:1][101CH2:1]CC3CCCN3c3cc(C)cc(C[100NH:0][100C:0](=O)N4CCCC(n5nc(-c6ccc(Oc7ccc(F)cc7F)cc6)c(C(N)=O)c5N)C4)c3)ccc2CC1C(=O)NC1CCCc2ccccc21)C(C)(C)C

> <Shape>
0.191

> <Color>
0.055

> <Negative vol penalty>
0.000

$$$$

  -OEChem-04052302333D

 83 92  0     1  0  0  0  0  0999 V2000
  -25.3847  -35.5114   22.2887 C   0  0  0  0  0  0  0  0  0  0  0  0
  -26.0439  -34.2904   22.1890 C   0  0  0  0  0  0  0  0  0  0  0  0
  -24.0188  -13.2375   20.6672 C   0  0  0  0  0  0  0  0  0  0  0  0
  -26.4164  -13.4542   20.4636 C   0  0  0  0  0  0  0  0  0  0  0  0
  -24.0997  -35.5667   22.8268 C   0  0  0  0  0  0  0  0  0  0  0  0
  -25.4188  -33.1239   22.6285 C   0  0  0  0  0  0  0  0  0  0  0  0
  -25.9458  -29.2889   19.3635 C   0  0  0  0  0  0  0  0  0  0  0  0
  -24.1591  -11.8629   20.8578 C   0  0  0  0  0  0  0  0  0  0  0  0
  -26.5568  -12.0796   20.6542 C   0  0  0  0  0  0  0  0  0  0  0  0
  -27.1700  -28.6219   19.3571 C   0  0  0  0  0  0  0  0  0  0  0  0
  -23.9120   -8.3495   21.7577 C   0  0  0  0  0  0  0  0  0  0  0  0
  -23.1713   -7.7576   22.7808 C   0  0  0  0  0  0  0  0  0  0  0  0
  -29.1332  -23.1795   15.4824 C   0  0  0  0  0  0  0  0  0  0  0  0
  -28.6420  -22.1280   14.6558 C   0  0  0  0  0  0  0  0  0  0  0  0
  -26.2110  -26.8613   20.6987 C   0  0  0  0  0  0  0  0  0  0  0  0
  -24.2696   -9.1779   24.3975 C   0  0  0  0  0  0  0  0  0  0  0  0
  -25.1474  -14.0332   20.4700 C   0  0  0  0  0  0  0  0  0  0  0  0
  -24.9970  -16.4530   21.2635 C   0  0  0  0  0  0  0  0  0  0  0  0
  -23.4548  -34.3990   23.2642 C   0  0  0  0  0  0  0  0  0  0  0  0
  -24.8461  -28.7517   20.0479 C   0  0  0  0  0  0  0  0  0  0  0  0
  -24.1245  -33.1638   23.1742 C   0  0  0  0  0  0  0  0  0  0  0  0
  -24.9732  -27.5223   20.7101 C   0  0  0  0  0  0  0  0  0  0  0  0
  -25.4281  -11.2839   20.8513 C   0  0  0  0  0  0  0  0  0  0  0  0
  -27.3036  -27.4093   20.0271 C   0  0  0  0  0  0  0  0  0  0  0  0
  -24.8315   -9.3555   22.0545 C   0  0  0  0  0  0  0  0  0  0  0  0
  -23.3501   -8.1719   24.1007 C   0  0  0  0  0  0  0  0  0  0  0  0
  -25.0103   -9.7697   23.3743 C   0  0  0  0  0  0  0  0  0  0  0  0
  -25.0030  -15.4531   20.2725 C   0  0  0  0  0  0  0  0  0  0  0  0
  -29.7204  -22.7016   16.6333 C   0  0  0  0  0  0  0  0  0  0  0  0
  -28.8727  -20.8864   15.2064 C   0  0  0  0  0  0  0  0  0  0  0  0
  -24.8328  -17.6255   20.5673 C   0  0  0  0  0  0  0  0  0  0  0  0
  -25.1283  -16.3326   22.6862 C   0  0  0  0  0  0  0  0  0  0  0  0
  -23.0405  -29.6990   22.4864 C   0  0  0  0  0  0  0  0  0  0  0  0
  -21.3163  -27.0577   21.7297 C   0  0  0  0  0  0  0  0  0  0  0  0
  -21.2331  -23.9691   20.2803 C   0  0  0  0  0  0  0  0  0  0  0  0
  -26.0736  -19.2305   14.9339 C   0  0  0  0  0  0  0  0  0  0  0  0
  -22.0840  -34.5150   23.8825 C   0  0  0  0  0  0  0  0  0  0  0  0
  -23.5250  -29.4704   20.0228 C   0  0  0  0  0  0  0  0  0  0  0  0
  -23.8175  -26.8930   21.4428 C   0  0  0  0  0  0  0  0  0  0  0  0
  -21.3450  -33.1828   23.9798 C   0  0  0  0  0  0  0  0  0  0  0  0
  -22.9011  -19.3530   16.5455 C   0  0  0  0  0  0  0  0  0  0  0  0
  -22.2650  -32.1015   24.5378 C   0  0  0  0  0  0  0  0  0  0  0  0
  -31.5213  -24.3342   17.2413 C   0  0  0  0  0  0  0  0  0  0  0  0
  -31.0980  -25.7812   17.4732 C   0  0  0  0  0  0  0  0  0  0  0  0
  -23.0795  -18.4576   17.7728 C   0  0  0  0  0  0  0  0  0  0  0  0
  -29.3441  -24.4484   18.3760 C   0  0  0  0  0  0  0  0  0  0  0  0
  -23.6653  -18.8143   15.3380 C   0  0  0  0  0  0  0  0  0  0  0  0
  -25.2761  -17.6609   16.8038 C   0  0  0  0  0  0  0  0  0  0  0  0
  -23.4699  -31.8733   23.6173 C   0  0  1  0  0  0  0  0  0  0  0  0
  -30.3441  -23.4675   17.7358 C   0  0  1  0  0  0  0  0  0  0  0  0
  -22.6130  -29.0849   21.1834 C   0  0  1  0  0  0  0  0  0  0  0  0
  -30.1736  -25.6938   18.6826 C   0  0  2  0  0  0  0  0  0  0  0  0
  -24.5693  -18.1932   18.0622 C   0  0  2  0  0  0  0  0  0  0  0  0
  -19.6928  -22.0348   19.8523 C   0  0  0  0  0  0  0  0  0  0  0  0
  -21.5946  -26.1945   24.6430 C   0  0  0  0  0  0  0  0  0  0  0  0
  -20.8991  -23.8902   23.9540 C   0  0  0  0  0  0  0  0  0  0  0  0
  -19.3315  -25.8069   23.6518 C   0  0  0  0  0  0  0  0  0  0  0  0
  -21.5015  -24.2546   17.3468 C   0  0  0  0  0  0  0  0  0  0  0  0
  -28.5186  -19.5578   14.6618 C   0  0  0  0  0  0  0  0  0  0  0  0
  -29.3324  -26.9367   18.8798 C   0  0  0  0  0  0  0  0  0  1  0  0
  -21.3488  -25.6056   22.1412 C   0  0  1  0  0  0  0  0  0  0  0  0
  -20.2531  -23.3392   19.3071 C   0  0  2  0  0  0  0  0  0  0  0  0
  -20.8160  -25.3868   23.5854 C   0  0  0  0  0  0  0  0  0  0  0  0
  -24.8542  -15.9473   19.0406 N   0  0  0  0  0  0  0  0  0  0  0  0
  -24.7531  -17.2704   19.2528 N   0  0  0  0  0  0  0  0  0  0  0  0
  -22.5481  -27.6373   21.3946 N   0  0  0  0  0  0  0  0  0  0  0  0
  -25.0717  -18.5866   15.6786 N   0  0  0  0  0  0  0  0  0  0  0  0
  -24.7501  -18.9152   20.9574 N   0  0  0  0  0  0  0  0  0  0  0  0
  -25.2898  -15.0538   23.2365 N   0  0  0  0  0  0  0  0  0  0  0  0
  -23.0859  -31.0800   22.4694 N   0  0  0  0  0  0  0  0  0  0  0  0
  -20.6130  -24.8741   21.1157 N   0  0  0  0  0  0  0  0  0  0  0  0
  -27.3797  -18.9649   15.3267 N   0  0  0  0  0  0  0  0  0  0  0  0
  -20.9243  -23.0555   18.0070 N   0  3  0  0  0  0  0  0  0  0  0  0
  -25.0866  -17.3281   23.4483 O   0  0  0  0  0  0  0  0  0  0  0  0
  -23.3080  -28.9737   23.4372 O   0  0  0  0  0  0  0  0  0  0  0  0
  -20.2367  -27.6536   21.6996 O   0  0  0  0  0  0  0  0  0  0  0  0
  -22.4285  -23.6839   20.3003 O   0  0  0  0  0  0  0  0  0  0  0  0
  -25.8225  -19.9903   13.9923 O   0  0  0  0  0  0  0  0  0  0  0  0
  -25.5655   -9.9427   21.0375 O   0  0  0  0  0  0  0  0  0  0  0  0
  -28.4976  -26.7564   20.0230 O   0  0  0  0  0  0  0  0  0  1  0  0
  -22.6377   -7.6045   25.0829 F   0  0  0  0  0  0  0  0  0  0  0  0
  -25.8914  -10.7366   23.6655 F   0  0  0  0  0  0  0  0  0  0  0  0
  -29.6781  -20.9916   16.7139 S   0  0  0  0  0  0  0  0  0  0  0  0
  1  2  1  0  0  0  0
  1  5  2  0  0  0  0
  2  6  2  0  0  0  0
  3  8  2  0  0  0  0
  3 17  1  0  0  0  0
  4  9  1  0  0  0  0
  4 17  2  0  0  0  0
  5 19  1  0  0  0  0
  6 21  1  0  0  0  0
  7 10  2  0  0  0  0
  7 20  1  0  0  0  0
  8 23  1  0  0  0  0
  9 23  2  0  0  0  0
 10 24  1  0  0  0  0
 11 12  2  0  0  0  0
 11 25  1  0  0  0  0
 12 26  1  0  0  0  0
 13 14  1  0  0  0  0
 13 29  2  0  0  0  0
 14 30  2  0  0  0  0
 15 22  1  0  0  0  0
 15 24  2  0  0  0  0
 16 26  2  0  0  0  0
 16 27  1  0  0  0  0
 17 28  1  0  0  0  0
 18 28  1  0  0  0  0
 18 31  2  0  0  0  0
 18 32  1  0  0  0  0
 19 21  2  0  0  0  0
 19 37  1  0  0  0  0
 20 22  2  0  0  0  0
 20 38  1  0  0  0  0
 21 49  1  0  0  0  0
 22 39  1  0  0  0  0
 23 79  1  0  0  0  0
 24 80  1  0  0  0  0
 25 27  2  0  0  0  0
 25 79  1  0  0  0  0
 26 81  1  0  0  0  0
 27 82  1  0  0  0  0
 28 64  2  0  0  0  0
 29 50  1  0  0  0  0
 29 83  1  0  0  0  0
 30 59  1  0  0  0  0
 30 83  1  0  0  0  0
 31 65  1  0  0  0  0
 31 68  1  0  0  0  0
 32 69  1  0  0  0  0
 32 74  2  0  0  0  0
 33 51  1  0  0  0  0
 33 70  1  0  0  0  0
 33 75  2  0  0  0  0
 34 61  1  0  0  0  0
 34 66  1  0  0  0  0
 34 76  2  0  0  0  0
 35 62  1  0  0  0  0
 35 71  1  0  0  0  0
 35 77  2  0  0  0  0
 36 67  1  0  0  0  0
 36 72  1  0  0  0  0
 36 78  2  0  0  0  0
 37 40  1  0  0  0  0
 38 51  1  0  0  0  0
 39 66  1  0  0  0  0
 40 42  1  0  0  0  0
 41 45  1  0  0  0  0
 41 47  1  0  0  0  0
 42 49  1  0  0  0  0
 43 44  1  0  0  0  0
 43 50  1  0  0  0  0
 44 52  1  0  0  0  0
 45 53  1  0  0  0  0
 46 50  1  0  0  0  0
 46 52  1  0  0  0  0
 47 67  1  0  0  0  0
 48 53  1  0  0  0  0
 48 67  1  0  0  0  0
 49 70  1  0  0  0  0
 51 66  1  0  0  0  0
 52 60  1  0  0  0  0
 53 65  1  0  0  0  0
 54 62  1  0  0  0  0
 55 63  1  0  0  0  0
 56 63  1  0  0  0  0
 57 63  1  0  0  0  0
 58 73  1  0  0  0  0
 59 72  1  0  0  0  0
 60 80  1  0  0  0  0
 61 63  1  0  0  0  0
 61 71  1  0  0  0  0
 62 73  1  0  0  0  0
 64 65  1  0  0  0  0
M  CHG  1  73   1
M  ISO  4  36 100  60 101  72 100  80 101
M  END
> <Batch ID>
0134

> <Smiles>
CNC(C)C(=O)NC(C(=O)N1Cc2cc([101O:1][101CH2:1]C3CCC(c4ccc(C[100NH:0][100C:0](=O)N5CCCC(n6nc(-c7ccc(Oc8ccc(F)cc8F)cc7)c(C(N)=O)c6N)C5)s4)C3)ccc2CC1C(=O)NC1CCCc2ccccc21)C(C)(C)C

> <Shape>
0.215

> <Color>
0.079

> <Negative vol penalty>
0.000

$$$$

  -OEChem-04052302333D

 88 96  0     1  0  0  0  0  0999 V2000
  -28.3742  -36.9870   17.9851 C   0  0  0  0  0  0  0  0  0  0  0  0
  -28.6546  -35.6243   17.9832 C   0  0  0  0  0  0  0  0  0  0  0  0
  -24.5442   -7.4222   19.6116 C   0  0  0  0  0  0  0  0  0  0  0  0
  -23.3072   -9.4958   19.6961 C   0  0  0  0  0  0  0  0  0  0  0  0
  -27.6831  -37.5538   19.0552 C   0  0  0  0  0  0  0  0  0  0  0  0
  -28.2450  -34.8279   19.0520 C   0  0  0  0  0  0  0  0  0  0  0  0
  -26.3799  -29.0001   18.7975 C   0  0  0  0  0  0  0  0  0  0  0  0
  -29.5205  -18.2021   18.7973 C   0  0  0  0  0  0  0  0  0  0  0  0
  -29.6347  -16.8913   19.2603 C   0  0  0  0  0  0  0  0  0  0  0  0
  -23.5380   -6.7921   20.3438 C   0  0  0  0  0  0  0  0  0  0  0  0
  -22.3010   -8.8657   20.4283 C   0  0  0  0  0  0  0  0  0  0  0  0
  -27.0340  -27.7942   19.0459 C   0  0  0  0  0  0  0  0  0  0  0  0
  -21.4631   -4.7264   22.5005 C   0  0  0  0  0  0  0  0  0  0  0  0
  -21.8480   -3.8955   23.5527 C   0  0  0  0  0  0  0  0  0  0  0  0
  -26.1551  -27.7871   21.2924 C   0  0  0  0  0  0  0  0  0  0  0  0
  -22.9423   -5.7626   24.6268 C   0  0  0  0  0  0  0  0  0  0  0  0
  -24.4288   -8.7741   19.2877 C   0  0  0  0  0  0  0  0  0  0  0  0
  -25.5584   -9.5368   17.1314 C   0  0  0  0  0  0  0  0  0  0  0  0
  -27.2563  -36.7622   20.1330 C   0  0  0  0  0  0  0  0  0  0  0  0
  -25.6160  -29.6151   19.7999 C   0  0  0  0  0  0  0  0  0  0  0  0
  -27.5487  -35.3849   20.1381 C   0  0  0  0  0  0  0  0  0  0  0  0
  -25.4901  -28.9995   21.0534 C   0  0  0  0  0  0  0  0  0  0  0  0
  -28.2650  -18.8032   18.7076 C   0  0  0  0  0  0  0  0  0  0  0  0
  -27.2378  -16.7826   19.5436 C   0  0  0  0  0  0  0  0  0  0  0  0
  -28.4934  -16.1815   19.6334 C   0  0  0  0  0  0  0  0  0  0  0  0
  -22.4164   -7.5138   20.7522 C   0  0  0  0  0  0  0  0  0  0  0  0
  -26.9240  -27.1890   20.2944 C   0  0  0  0  0  0  0  0  0  0  0  0
  -21.8178   -6.0754   22.5115 C   0  0  0  0  0  0  0  0  0  0  0  0
  -27.1237  -18.0934   19.0807 C   0  0  0  0  0  0  0  0  0  0  0  0
  -22.5875   -4.4136   24.6158 C   0  0  0  0  0  0  0  0  0  0  0  0
  -22.5574   -6.5935   23.5746 C   0  0  0  0  0  0  0  0  0  0  0  0
  -25.4681   -9.4256   18.5318 C   0  0  0  0  0  0  0  0  0  0  0  0
  -26.7191  -10.2390   16.9168 C   0  0  0  0  0  0  0  0  0  0  0  0
  -24.6722   -9.0490   16.1153 C   0  0  0  0  0  0  0  0  0  0  0  0
  -25.7645  -32.3853   21.3515 C   0  0  0  0  0  0  0  0  0  0  0  0
  -22.9380  -31.3939   22.5967 C   0  0  0  0  0  0  0  0  0  0  0  0
  -20.8639  -28.7957   23.3673 C   0  0  0  0  0  0  0  0  0  0  0  0
  -29.8138  -14.1234   20.2393 C   0  0  0  0  0  0  0  0  0  0  0  0
  -26.5538  -37.4282   21.2895 C   0  0  0  0  0  0  0  0  0  0  0  0
  -24.8948  -30.9023   19.5076 C   0  0  0  0  0  0  0  0  0  0  0  0
  -24.6656  -29.6086   22.1568 C   0  0  0  0  0  0  0  0  0  0  0  0
  -25.8266  -36.4482   22.2066 C   0  0  0  0  0  0  0  0  0  0  0  0
  -31.0130  -11.0629   18.8709 C   0  0  0  0  0  0  0  0  0  0  0  0
  -26.7237  -35.2592   22.5359 C   0  0  0  0  0  0  0  0  0  0  0  0
  -29.7355  -10.3084   18.4956 C   0  0  0  0  0  0  0  0  0  0  0  0
  -30.8412  -11.8622   20.1614 C   0  0  0  0  0  0  0  0  0  0  0  0
  -28.4081  -12.0135   19.8063 C   0  0  0  0  0  0  0  0  0  0  0  0
  -27.0992  -34.4835   21.2676 C   0  0  1  0  0  0  0  0  0  0  0  0
  -24.5629  -31.7001   20.7649 C   0  0  1  0  0  0  0  0  0  0  0  0
  -28.5119  -11.2455   18.4784 C   0  0  2  0  0  0  0  0  0  0  0  0
  -24.3569  -14.2245   19.2950 C   0  0  0  0  0  0  0  0  0  0  0  0
  -24.3050  -19.7428   17.5542 C   0  0  0  0  0  0  0  0  0  0  0  0
  -18.6382  -28.2951   24.4127 C   0  0  0  0  0  0  0  0  0  0  0  0
  -24.1338  -31.8679   25.3636 C   0  0  0  0  0  0  0  0  0  0  0  0
  -22.2793  -30.4877   26.3249 C   0  0  0  0  0  0  0  0  0  0  0  0
  -21.7571  -32.6051   25.1140 C   0  0  0  0  0  0  0  0  0  0  0  0
  -19.8312  -27.5907   20.8692 C   0  0  0  0  0  0  0  0  0  0  0  0
  -28.1629  -20.2218   18.2063 C   0  0  0  0  0  0  0  0  0  0  0  0
  -26.0084  -16.0285   19.9430 C   0  0  0  0  0  0  0  0  0  0  0  0
  -25.5868  -15.0127   18.8731 C   0  0  0  0  0  0  0  0  0  0  0  0
  -27.9782  -21.2601   19.3188 C   0  0  0  0  0  0  0  0  0  0  0  0
  -27.9537  -22.7001   18.7967 C   0  0  0  0  0  0  0  0  0  0  0  0
  -27.7375  -23.6973   19.9337 C   0  0  0  0  0  0  0  0  0  0  0  0
  -25.1935  -18.5351   17.7635 C   0  0  0  0  0  0  0  0  0  0  0  0
  -27.7536  -25.1340   19.4314 C   0  0  0  0  0  0  0  0  0  1  0  0
  -22.5263  -30.5849   23.8029 C   0  0  1  0  0  0  0  0  0  0  0  0
  -19.3819  -28.5816   23.1175 C   0  0  2  0  0  0  0  0  0  0  0  0
  -22.6913  -31.3757   25.1314 C   0  0  0  0  0  0  0  0  0  0  0  0
  -26.4901  -10.0102   19.1624 N   0  0  0  0  0  0  0  0  0  0  0  0
  -27.2337  -10.4954   18.1536 N   0  0  0  0  0  0  0  0  0  0  0  0
  -23.9847  -30.8708   21.8242 N   0  0  0  0  0  0  0  0  0  0  0  0
  -29.6654  -12.7305   20.0705 N   0  0  0  0  0  0  0  0  0  0  0  0
  -27.3397  -10.6558   15.7927 N   0  0  0  0  0  0  0  0  0  0  0  0
  -23.5248   -8.3476   16.5100 N   0  0  0  0  0  0  0  0  0  0  0  0
  -28.6321  -14.8504   20.0988 N   0  0  0  0  0  0  0  0  0  0  0  0
  -25.9971  -33.6482   20.8411 N   0  0  0  0  0  0  0  0  0  0  0  0
  -21.1646  -30.1297   23.5436 N   0  0  0  0  0  0  0  0  0  0  0  0
  -19.1733  -27.4325   22.1918 N   0  3  0  0  0  0  0  0  0  0  0  0
  -24.8998   -9.2156   14.8930 O   0  0  0  0  0  0  0  0  0  0  0  0
  -26.4305  -31.8115   22.2053 O   0  0  0  0  0  0  0  0  0  0  0  0
  -22.3479  -32.4475   22.3450 O   0  0  0  0  0  0  0  0  0  0  0  0
  -21.6732  -27.8715   23.4061 O   0  0  0  0  0  0  0  0  0  0  0  0
  -30.9132  -14.6365   20.4630 O   0  0  0  0  0  0  0  0  0  0  0  0
  -21.4343   -6.8993   21.4665 O   0  0  0  0  0  0  0  0  0  0  0  0
  -27.5620  -26.0123   20.5397 O   0  0  0  0  0  0  0  0  0  1  0  0
  -25.8970  -18.6840   18.9942 O   0  0  0  0  0  0  0  0  0  0  0  0
  -22.9558   -3.6159   25.6269 F   0  0  0  0  0  0  0  0  0  0  0  0
  -22.9001   -7.8889   23.5913 F   0  0  0  0  0  0  0  0  0  0  0  0
  1  2  1  0  0  0  0
  1  5  2  0  0  0  0
  2  6  2  0  0  0  0
  3 10  2  0  0  0  0
  3 17  1  0  0  0  0
  4 11  1  0  0  0  0
  4 17  2  0  0  0  0
  5 19  1  0  0  0  0
  6 21  1  0  0  0  0
  7 12  2  0  0  0  0
  7 20  1  0  0  0  0
  8  9  1  0  0  0  0
  8 23  2  0  0  0  0
  9 25  2  0  0  0  0
 10 26  1  0  0  0  0
 11 26  2  0  0  0  0
 12 27  1  0  0  0  0
 13 14  2  0  0  0  0
 13 28  1  0  0  0  0
 14 30  1  0  0  0  0
 15 22  1  0  0  0  0
 15 27  2  0  0  0  0
 16 30  2  0  0  0  0
 16 31  1  0  0  0  0
 17 32  1  0  0  0  0
 18 32  1  0  0  0  0
 18 33  2  0  0  0  0
 18 34  1  0  0  0  0
 19 21  2  0  0  0  0
 19 39  1  0  0  0  0
 20 22  2  0  0  0  0
 20 40  1  0  0  0  0
 21 48  1  0  0  0  0
 22 41  1  0  0  0  0
 23 29  1  0  0  0  0
 23 58  1  0  0  0  0
 24 25  1  0  0  0  0
 24 29  2  0  0  0  0
 24 59  1  0  0  0  0
 25 75  1  0  0  0  0
 26 84  1  0  0  0  0
 27 85  1  0  0  0  0
 28 31  2  0  0  0  0
 28 84  1  0  0  0  0
 29 86  1  0  0  0  0
 30 87  1  0  0  0  0
 31 88  1  0  0  0  0
 32 69  2  0  0  0  0
 33 70  1  0  0  0  0
 33 73  1  0  0  0  0
 34 74  1  0  0  0  0
 34 79  2  0  0  0  0
 35 49  1  0  0  0  0
 35 76  1  0  0  0  0
 35 80  2  0  0  0  0
 36 66  1  0  0  0  0
 36 71  1  0  0  0  0
 36 81  2  0  0  0  0
 37 67  1  0  0  0  0
 37 77  1  0  0  0  0
 37 82  2  0  0  0  0
 38 72  1  0  0  0  0
 38 75  1  0  0  0  0
 38 83  2  0  0  0  0
 39 42  1  0  0  0  0
 40 49  1  0  0  0  0
 41 71  1  0  0  0  0
 42 44  1  0  0  0  0
 43 45  1  0  0  0  0
 43 46  1  0  0  0  0
 44 48  1  0  0  0  0
 45 50  1  0  0  0  0
 46 72  1  0  0  0  0
 47 50  1  0  0  0  0
 47 72  1  0  0  0  0
 48 76  1  0  0  0  0
 49 71  1  0  0  0  0
 50 70  1  0  0  0  0
 51 60  1  0  0  0  0
 52 64  1  0  0  0  0
 53 67  1  0  0  0  0
 54 68  1  0  0  0  0
 55 68  1  0  0  0  0
 56 68  1  0  0  0  0
 57 78  1  0  0  0  0
 58 61  1  0  0  0  0
 59 60  1  0  0  0  0
 61 62  1  0  0  0  0
 62 63  1  0  0  0  0
 63 65  1  0  0  0  0
 64 86  1  0  0  0  0
 65 85  1  0  0  0  0
 66 68  1  0  0  0  0
 66 77  1  0  0  0  0
 67 78  1  0  0  0  0
 69 70  1  0  0  0  0
M  CHG  1  78   1
M  ISO  4  38 100  65 101  75 100  85 101
M  END
> <Batch ID>
0134

> <Smiles>
CCCc1c([100NH:0][100C:0](=O)N2CCCC(n3nc(-c4ccc(Oc5ccc(F)cc5F)cc4)c(C(N)=O)c3N)C2)ccc(CCCC[101CH2:1][101O:1]c2ccc3c(c2)CN(C(=O)C(NC(=O)C(C)NC)C(C)(C)C)C(C(=O)NC2CCCc4ccccc42)C3)c1OCC

> <Shape>
0.266

> <Color>
0.086

> <Negative vol penalty>
0.000

$$$$

  -OEChem-04052302333D

 84 92  0     1  0  0  0  0  0999 V2000
  -25.6962  -16.5136   14.2555 C   0  0  0  0  0  0  0  0  0  0  0  0
  -26.4002  -17.1606   15.2660 C   0  0  0  0  0  0  0  0  0  0  0  0
  -23.0740   -9.8673   19.9444 C   0  0  0  0  0  0  0  0  0  0  0  0
  -23.8358   -9.8787   22.2371 C   0  0  0  0  0  0  0  0  0  0  0  0
  -26.3697  -15.6855   13.3584 C   0  0  0  0  0  0  0  0  0  0  0  0
  -27.7780  -16.9790   15.3807 C   0  0  0  0  0  0  0  0  0  0  0  0
  -30.2511  -21.3263   16.1742 C   0  0  0  0  0  0  0  0  0  0  0  0
  -28.3069  -19.4189   24.2954 C   0  0  0  0  0  0  0  0  0  0  0  0
  -28.8910  -18.2844   24.8588 C   0  0  0  0  0  0  0  0  0  0  0  0
  -22.3316   -8.7138   20.1968 C   0  0  0  0  0  0  0  0  0  0  0  0
  -23.0934   -8.7252   22.4895 C   0  0  0  0  0  0  0  0  0  0  0  0
  -30.2198  -21.8500   17.4659 C   0  0  0  0  0  0  0  0  0  0  0  0
  -19.3855   -7.9162   21.6518 C   0  0  0  0  0  0  0  0  0  0  0  0
  -18.0782   -7.8678   21.1678 C   0  0  0  0  0  0  0  0  0  0  0  0
  -32.4208  -20.9522   17.8767 C   0  0  0  0  0  0  0  0  0  0  0  0
  -29.3511  -18.9051   22.1781 C   0  0  0  0  0  0  0  0  0  0  0  0
  -18.6389   -5.9233   19.8481 C   0  0  0  0  0  0  0  0  0  0  0  0
  -23.8262  -10.4498   20.9645 C   0  0  0  0  0  0  0  0  0  0  0  0
  -24.1651  -12.9751   20.8403 C   0  0  0  0  0  0  0  0  0  0  0  0
  -27.7579  -15.5013   13.4563 C   0  0  0  0  0  0  0  0  0  0  0  0
  -31.3648  -20.6010   15.7270 C   0  0  0  0  0  0  0  0  0  0  0  0
  -28.4704  -16.1466   14.4850 C   0  0  0  0  0  0  0  0  0  0  0  0
  -32.4648  -20.4225   16.5780 C   0  0  0  0  0  0  0  0  0  0  0  0
  -28.5369  -19.7292   22.9550 C   0  0  0  0  0  0  0  0  0  0  0  0
  -29.7051  -17.4603   24.0819 C   0  0  0  0  0  0  0  0  0  0  0  0
  -29.9352  -17.7706   22.7415 C   0  0  0  0  0  0  0  0  0  0  0  0
  -22.3413   -8.1427   21.4694 C   0  0  0  0  0  0  0  0  0  0  0  0
  -31.3035  -21.6605   18.3184 C   0  0  0  0  0  0  0  0  0  0  0  0
  -20.3195   -6.9682   21.2340 C   0  0  0  0  0  0  0  0  0  0  0  0
  -17.7049   -6.8713   20.2659 C   0  0  0  0  0  0  0  0  0  0  0  0
  -19.9462   -5.9717   20.3321 C   0  0  0  0  0  0  0  0  0  0  0  0
  -24.5937  -11.6411   20.7043 C   0  0  0  0  0  0  0  0  0  0  0  0
  -25.2561  -13.7253   20.4749 C   0  0  0  0  0  0  0  0  0  0  0  0
  -22.8944  -13.4902   21.2595 C   0  0  0  0  0  0  0  0  0  0  0  0
  -31.8495  -17.6205   14.7345 C   0  0  0  0  0  0  0  0  0  0  0  0
  -34.8271  -18.7338   14.0888 C   0  0  0  0  0  0  0  0  0  0  0  0
  -37.2658  -21.0307   14.7400 C   0  0  0  0  0  0  0  0  0  0  0  0
  -30.7389  -14.7506   20.6569 C   0  0  0  0  0  0  0  0  0  0  0  0
  -28.4349  -14.5593   12.4925 C   0  0  0  0  0  0  0  0  0  0  0  0
  -31.3941  -20.0655   14.3217 C   0  0  0  0  0  0  0  0  0  0  0  0
  -33.6927  -19.6688   16.1393 C   0  0  0  0  0  0  0  0  0  0  0  0
  -29.9529  -14.7155   12.4530 C   0  0  0  0  0  0  0  0  0  0  0  0
  -29.6019  -12.3611   18.2749 C   0  0  0  0  0  0  0  0  0  0  0  0
  -30.5198  -14.7811   13.8676 C   0  0  0  0  0  0  0  0  0  0  0  0
  -28.1651  -12.0665   18.7095 C   0  0  0  0  0  0  0  0  0  0  0  0
  -30.5198  -12.5848   19.4746 C   0  0  0  0  0  0  0  0  0  0  0  0
  -28.6185  -13.3160   20.8617 C   0  0  0  0  0  0  0  0  0  0  0  0
  -29.9694  -15.9944   14.6268 C   0  0  1  0  0  0  0  0  0  0  0  0
  -32.3659  -18.9027   14.1456 C   0  0  1  0  0  0  0  0  0  0  0  0
  -27.6435  -13.1385   19.6852 C   0  0  2  0  0  0  0  0  0  0  0  0
  -30.3205  -16.2517   24.7073 C   0  0  0  0  0  0  0  0  0  0  0  0
  -39.6036  -21.6620   14.0818 C   0  0  0  0  0  0  0  0  0  0  0  0
  -31.0299  -23.2811   22.2726 C   0  0  0  0  0  0  0  0  0  0  0  0
  -35.9174  -16.4178   15.7493 C   0  0  0  0  0  0  0  0  0  0  0  0
  -38.1134  -17.6159   15.8509 C   0  0  0  0  0  0  0  0  0  0  0  0
  -37.1928  -16.8874   13.6499 C   0  0  0  0  0  0  0  0  0  0  0  0
  -36.3979  -23.6864   13.7638 C   0  0  0  0  0  0  0  0  0  0  0  0
  -27.9056  -20.9563   22.3462 C   0  0  0  0  0  0  0  0  0  0  0  0
  -30.8035  -16.9032   21.8904 C   0  0  0  0  0  0  0  0  0  0  0  0
  -28.7646  -22.2230   22.4629 C   0  0  0  0  0  0  0  0  0  0  0  0
  -29.9979  -22.2856   20.2053 C   0  0  0  0  0  0  0  0  0  1  0  0
  -36.1218  -18.8326   14.8588 C   0  0  1  0  0  0  0  0  0  0  0  0
  -38.1219  -21.8798   13.8178 C   0  0  2  0  0  0  0  0  0  0  0  0
  -30.1236  -22.1686   21.7304 C   0  0  1  0  0  0  0  0  0  0  0  0
  -36.8126  -17.4510   15.0364 C   0  0  0  0  0  0  0  0  0  0  0  0
  -25.8583  -11.5460   20.2851 N   0  0  0  0  0  0  0  0  0  0  0  0
  -26.2337  -12.8298   20.1544 N   0  0  0  0  0  0  0  0  0  0  0  0
  -33.6709  -19.1590   14.7583 N   0  0  0  0  0  0  0  0  0  0  0  0
  -29.9689  -13.6141   20.3595 N   0  0  0  0  0  0  0  0  0  0  0  0
  -25.4650  -15.0568   20.3996 N   0  0  0  0  0  0  0  0  0  0  0  0
  -21.8838  -12.5805   21.5991 N   0  0  0  0  0  0  0  0  0  0  0  0
  -30.6436  -17.2033   14.2044 N   0  0  0  0  0  0  0  0  0  0  0  0
  -36.9363  -19.8227   14.1626 N   0  0  0  0  0  0  0  0  0  0  0  0
  -30.1395  -15.6801   21.4981 N   0  0  0  0  0  0  0  0  0  0  0  0
  -37.8172  -23.3255   14.0134 N   0  3  0  0  0  0  0  0  0  0  0  0
  -22.6569  -14.7207   21.3151 O   0  0  0  0  0  0  0  0  0  0  0  0
  -32.4981  -17.0509   15.6044 O   0  0  0  0  0  0  0  0  0  0  0  0
  -34.8421  -18.3022   12.9333 O   0  0  0  0  0  0  0  0  0  0  0  0
  -36.9266  -21.4004   15.8620 O   0  0  0  0  0  0  0  0  0  0  0  0
  -31.8743  -14.9266   20.2021 O   0  0  0  0  0  0  0  0  0  0  0  0
  -21.6168   -7.0172   21.7161 O   0  0  0  0  0  0  0  0  0  0  0  0
  -31.2754  -22.1701   19.5799 O   0  0  0  0  0  0  0  0  0  1  0  0
  -16.4491   -6.8240   19.8024 F   0  0  0  0  0  0  0  0  0  0  0  0
  -20.8388   -5.0575   19.9280 F   0  0  0  0  0  0  0  0  0  0  0  0
  1  2  1  0  0  0  0
  1  5  2  0  0  0  0
  2  6  2  0  0  0  0
  3 10  2  0  0  0  0
  3 18  1  0  0  0  0
  4 11  1  0  0  0  0
  4 18  2  0  0  0  0
  5 20  1  0  0  0  0
  6 22  1  0  0  0  0
  7 12  2  0  0  0  0
  7 21  1  0  0  0  0
  8  9  2  0  0  0  0
  8 24  1  0  0  0  0
  9 25  1  0  0  0  0
 10 27  1  0  0  0  0
 11 27  2  0  0  0  0
 12 28  1  0  0  0  0
 13 14  2  0  0  0  0
 13 29  1  0  0  0  0
 14 30  1  0  0  0  0
 15 23  1  0  0  0  0
 15 28  2  0  0  0  0
 16 24  2  0  0  0  0
 16 26  1  0  0  0  0
 17 30  2  0  0  0  0
 17 31  1  0  0  0  0
 18 32  1  0  0  0  0
 19 32  1  0  0  0  0
 19 33  2  0  0  0  0
 19 34  1  0  0  0  0
 20 22  2  0  0  0  0
 20 39  1  0  0  0  0
 21 23  2  0  0  0  0
 21 40  1  0  0  0  0
 22 48  1  0  0  0  0
 23 41  1  0  0  0  0
 24 58  1  0  0  0  0
 25 26  2  0  0  0  0
 25 51  1  0  0  0  0
 26 59  1  0  0  0  0
 27 81  1  0  0  0  0
 28 82  1  0  0  0  0
 29 31  2  0  0  0  0
 29 81  1  0  0  0  0
 30 83  1  0  0  0  0
 31 84  1  0  0  0  0
 32 66  2  0  0  0  0
 33 67  1  0  0  0  0
 33 70  1  0  0  0  0
 34 71  1  0  0  0  0
 34 76  2  0  0  0  0
 35 49  1  0  0  0  0
 35 72  1  0  0  0  0
 35 77  2  0  0  0  0
 36 62  1  0  0  0  0
 36 68  1  0  0  0  0
 36 78  2  0  0  0  0
 37 63  1  0  0  0  0
 37 73  1  0  0  0  0
 37 79  2  0  0  0  0
 38 69  1  0  0  0  0
 38 74  1  0  0  0  0
 38 80  2  0  0  0  0
 39 42  1  0  0  0  0
 40 49  1  0  0  0  0
 41 68  1  0  0  0  0
 42 44  1  0  0  0  0
 43 45  1  0  0  0  0
 43 46  1  0  0  0  0
 44 48  1  0  0  0  0
 45 50  1  0  0  0  0
 46 69  1  0  0  0  0
 47 50  1  0  0  0  0
 47 69  1  0  0  0  0
 48 72  1  0  0  0  0
 49 68  1  0  0  0  0
 50 67  1  0  0  0  0
 52 63  1  0  0  0  0
 53 64  1  0  0  0  0
 54 65  1  0  0  0  0
 55 65  1  0  0  0  0
 56 65  1  0  0  0  0
 57 75  1  0  0  0  0
 58 60  1  0  0  0  0
 59 74  1  0  0  0  0
 60 64  1  0  0  0  0
 61 64  1  0  0  0  0
 61 82  1  0  0  0  0
 62 65  1  0  0  0  0
 62 73  1  0  0  0  0
 63 75  1  0  0  0  0
 66 67  1  0  0  0  0
M  CHG  1  75   1
M  ISO  4  38 100  61 101  74 100  82 101
M  END
> <Batch ID>
0134

> <Smiles>
CNC(C)C(=O)NC(C(=O)N1Cc2cc([101O:1][101CH2:1]C(C)CCc3ccc(C)c(C[100NH:0][100C:0](=O)N4CCCC(n5nc(-c6ccc(Oc7ccc(F)cc7F)cc6)c(C(N)=O)c5N)C4)c3)ccc2CC1C(=O)NC1CCCc2ccccc21)C(C)(C)C

> <Shape>
0.172

> <Color>
0.196

> <Negative vol penalty>
0.000

$$$$

  -OEChem-04052302333D

 83 91  0     1  0  0  0  0  0999 V2000
  -32.4221  -32.6594   26.1723 C   0  0  0  0  0  0  0  0  0  0  0  0
  -32.0115  -31.6647   25.2906 C   0  0  0  0  0  0  0  0  0  0  0  0
  -24.2627   -8.6903   20.3865 C   0  0  0  0  0  0  0  0  0  0  0  0
  -22.6824  -10.4286   20.9503 C   0  0  0  0  0  0  0  0  0  0  0  0
  -31.5205  -33.1860   27.0963 C   0  0  0  0  0  0  0  0  0  0  0  0
  -30.6992  -31.1952   25.3332 C   0  0  0  0  0  0  0  0  0  0  0  0
  -28.6477  -30.7421   20.7255 C   0  0  0  0  0  0  0  0  0  0  0  0
  -27.3397  -19.7997   20.2709 C   0  0  0  0  0  0  0  0  0  0  0  0
  -23.3759   -7.7277   20.8687 C   0  0  0  0  0  0  0  0  0  0  0  0
  -21.7955   -9.4659   21.4324 C   0  0  0  0  0  0  0  0  0  0  0  0
  -29.0143  -29.6278   19.9720 C   0  0  0  0  0  0  0  0  0  0  0  0
  -27.7352  -21.1149   20.0269 C   0  0  0  0  0  0  0  0  0  0  0  0
  -22.4189   -6.5045   23.8707 C   0  0  0  0  0  0  0  0  0  0  0  0
  -22.9366   -5.4977   24.6855 C   0  0  0  0  0  0  0  0  0  0  0  0
  -26.9533  -28.5382   20.5919 C   0  0  0  0  0  0  0  0  0  0  0  0
  -29.7225  -20.3106   18.9129 C   0  0  0  0  0  0  0  0  0  0  0  0
  -22.1957   -3.8329   23.0991 C   0  0  0  0  0  0  0  0  0  0  0  0
  -23.9160  -10.0408   20.4273 C   0  0  0  0  0  0  0  0  0  0  0  0
  -24.9128  -11.5356   18.6164 C   0  0  0  0  0  0  0  0  0  0  0  0
  -30.1938  -32.7295   27.1437 C   0  0  0  0  0  0  0  0  0  0  0  0
  -27.4340  -30.7585   21.4278 C   0  0  0  0  0  0  0  0  0  0  0  0
  -29.7793  -31.7152   26.2595 C   0  0  0  0  0  0  0  0  0  0  0  0
  -26.5724  -29.6549   21.3514 C   0  0  0  0  0  0  0  0  0  0  0  0
  -28.1357  -18.7400   19.8359 C   0  0  0  0  0  0  0  0  0  0  0  0
  -29.3270  -18.9954   19.1569 C   0  0  0  0  0  0  0  0  0  0  0  0
  -22.1423   -8.1154   21.3916 C   0  0  0  0  0  0  0  0  0  0  0  0
  -28.1684  -28.5244   19.9075 C   0  0  0  0  0  0  0  0  0  0  0  0
  -28.9265  -21.3703   19.3479 C   0  0  0  0  0  0  0  0  0  0  0  0
  -21.7895   -6.1756   22.6701 C   0  0  0  0  0  0  0  0  0  0  0  0
  -22.8251   -4.1619   24.2997 C   0  0  0  0  0  0  0  0  0  0  0  0
  -21.6779   -4.8398   22.2843 C   0  0  0  0  0  0  0  0  0  0  0  0
  -24.8318  -11.0357   19.9299 C   0  0  0  0  0  0  0  0  0  0  0  0
  -25.9350  -12.4519   18.6602 C   0  0  0  0  0  0  0  0  0  0  0  0
  -24.1336  -11.2016   17.4601 C   0  0  0  0  0  0  0  0  0  0  0  0
  -26.6183  -30.9833   24.4917 C   0  0  0  0  0  0  0  0  0  0  0  0
  -28.4796  -16.7174   21.2333 C   0  0  0  0  0  0  0  0  0  0  0  0
  -23.6132  -31.1236   23.2785 C   0  0  0  0  0  0  0  0  0  0  0  0
  -21.4901  -30.3979   20.7071 C   0  0  0  0  0  0  0  0  0  0  0  0
  -29.2684  -33.2955   28.1915 C   0  0  0  0  0  0  0  0  0  0  0  0
  -27.0409  -31.9788   22.2144 C   0  0  0  0  0  0  0  0  0  0  0  0
  -25.2493  -29.6306   22.0705 C   0  0  0  0  0  0  0  0  0  0  0  0
  -27.7937  -33.0082   27.9209 C   0  0  0  0  0  0  0  0  0  0  0  0
  -29.3711  -13.3958   22.2393 C   0  0  0  0  0  0  0  0  0  0  0  0
  -27.5957  -31.5436   27.5434 C   0  0  0  0  0  0  0  0  0  0  0  0
  -28.2601  -12.5306   21.6460 C   0  0  0  0  0  0  0  0  0  0  0  0
  -28.8410  -14.7530   22.6910 C   0  0  0  0  0  0  0  0  0  0  0  0
  -27.0134  -14.6488   21.0265 C   0  0  0  0  0  0  0  0  0  0  0  0
  -28.3573  -31.1974   26.2583 C   0  0  1  0  0  0  0  0  0  0  0  0
  -26.0167  -31.6821   23.3054 C   0  0  1  0  0  0  0  0  0  0  0  0
  -27.5122  -13.2805   20.5294 C   0  0  2  0  0  0  0  0  0  0  0  0
  -30.1958  -17.8770   18.6829 C   0  0  0  0  0  0  0  0  0  0  0  0
  -19.0850  -30.6025   20.0207 C   0  0  0  0  0  0  0  0  0  0  0  0
  -30.4024  -25.2843   19.8026 C   0  0  0  0  0  0  0  0  0  0  0  0
  -22.8877  -28.8192   25.1422 C   0  0  0  0  0  0  0  0  0  0  0  0
  -20.8267  -28.4499   23.7696 C   0  0  0  0  0  0  0  0  0  0  0  0
  -21.1509  -30.6106   24.9732 C   0  0  0  0  0  0  0  0  0  0  0  0
  -22.1804  -32.0685   18.3637 C   0  0  0  0  0  0  0  0  0  0  0  0
  -27.6914  -17.3405   20.1088 C   0  0  0  0  0  0  0  0  0  0  0  0
  -28.0416  -26.1675   19.6164 C   0  0  0  0  0  0  0  0  0  1  0  0
  -28.4539  -23.6893   19.5819 C   0  0  0  0  0  0  0  0  0  0  0  0
  -22.5524  -30.1076   22.9300 C   0  0  1  0  0  0  0  0  0  0  0  0
  -20.4624  -31.2457   19.9794 C   0  0  2  0  0  0  0  0  0  0  0  0
  -29.0126  -25.0614   19.1940 C   0  0  2  0  0  0  0  0  0  0  0  0
  -21.8802  -29.4962   24.1917 C   0  0  0  0  0  0  0  0  0  0  0  0
  -25.7311  -11.5885   20.7484 N   0  0  0  0  0  0  0  0  0  0  0  0
  -26.3868  -12.4452   19.9470 N   0  0  0  0  0  0  0  0  0  0  0  0
  -24.9125  -30.8451   22.8315 N   0  0  0  0  0  0  0  0  0  0  0  0
  -28.1179  -15.4235   21.6090 N   0  0  0  0  0  0  0  0  0  0  0  0
  -26.4825  -13.2547   17.7230 N   0  0  0  0  0  0  0  0  0  0  0  0
  -23.1230  -10.2394   17.5907 N   0  0  0  0  0  0  0  0  0  0  0  0
  -27.6414  -31.6859   25.0993 N   0  0  0  0  0  0  0  0  0  0  0  0
  -21.6256  -30.7791   22.0252 N   0  0  0  0  0  0  0  0  0  0  0  0
  -20.8550  -31.4247   18.5529 N   0  3  0  0  0  0  0  0  0  0  0  0
  -24.3387  -11.7285   16.3404 O   0  0  0  0  0  0  0  0  0  0  0  0
  -26.1853  -29.8885   24.8316 O   0  0  0  0  0  0  0  0  0  0  0  0
  -29.3912  -17.3617   21.7588 O   0  0  0  0  0  0  0  0  0  0  0  0
  -23.2990  -32.1310   23.9175 O   0  0  0  0  0  0  0  0  0  0  0  0
  -22.1078  -29.4860   20.1617 O   0  0  0  0  0  0  0  0  0  0  0  0
  -21.2766   -7.1764   21.8620 O   0  0  0  0  0  0  0  0  0  0  0  0
  -28.5241  -27.4352   19.1733 O   0  0  0  0  0  0  0  0  0  1  0  0
  -29.3155  -22.6625   19.1085 O   0  0  0  0  0  0  0  0  0  0  0  0
  -23.3237   -3.1953   25.0814 F   0  0  0  0  0  0  0  0  0  0  0  0
  -21.0754   -4.5177   21.1315 F   0  0  0  0  0  0  0  0  0  0  0  0
  1  2  1  0  0  0  0
  1  5  2  0  0  0  0
  2  6  2  0  0  0  0
  3  9  2  0  0  0  0
  3 18  1  0  0  0  0
  4 10  1  0  0  0  0
  4 18  2  0  0  0  0
  5 20  1  0  0  0  0
  6 22  1  0  0  0  0
  7 11  2  0  0  0  0
  7 21  1  0  0  0  0
  8 12  2  0  0  0  0
  8 24  1  0  0  0  0
  9 26  1  0  0  0  0
 10 26  2  0  0  0  0
 11 27  1  0  0  0  0
 12 28  1  0  0  0  0
 13 14  2  0  0  0  0
 13 29  1  0  0  0  0
 14 30  1  0  0  0  0
 15 23  1  0  0  0  0
 15 27  2  0  0  0  0
 16 25  1  0  0  0  0
 16 28  2  0  0  0  0
 17 30  2  0  0  0  0
 17 31  1  0  0  0  0
 18 32  1  0  0  0  0
 19 32  1  0  0  0  0
 19 33  2  0  0  0  0
 19 34  1  0  0  0  0
 20 22  2  0  0  0  0
 20 39  1  0  0  0  0
 21 23  2  0  0  0  0
 21 40  1  0  0  0  0
 22 48  1  0  0  0  0
 23 41  1  0  0  0  0
 24 25  2  0  0  0  0
 24 58  1  0  0  0  0
 25 51  1  0  0  0  0
 26 79  1  0  0  0  0
 27 80  1  0  0  0  0
 28 81  1  0  0  0  0
 29 31  2  0  0  0  0
 29 79  1  0  0  0  0
 30 82  1  0  0  0  0
 31 83  1  0  0  0  0
 32 65  2  0  0  0  0
 33 66  1  0  0  0  0
 33 69  1  0  0  0  0
 34 70  1  0  0  0  0
 34 74  2  0  0  0  0
 35 49  1  0  0  0  0
 35 71  1  0  0  0  0
 35 75  2  0  0  0  0
 36 58  1  0  0  0  0
 36 68  1  0  0  0  0
 36 76  2  0  0  0  0
 37 61  1  0  0  0  0
 37 67  1  0  0  0  0
 37 77  2  0  0  0  0
 38 62  1  0  0  0  0
 38 72  1  0  0  0  0
 38 78  2  0  0  0  0
 39 42  1  0  0  0  0
 40 49  1  0  0  0  0
 41 67  1  0  0  0  0
 42 44  1  0  0  0  0
 43 45  1  0  0  0  0
 43 46  1  0  0  0  0
 44 48  1  0  0  0  0
 45 50  1  0  0  0  0
 46 68  1  0  0  0  0
 47 50  1  0  0  0  0
 47 68  1  0  0  0  0
 48 71  1  0  0  0  0
 49 67  1  0  0  0  0
 50 66  1  0  0  0  0
 52 62  1  0  0  0  0
 53 63  1  0  0  0  0
 54 64  1  0  0  0  0
 55 64  1  0  0  0  0
 56 64  1  0  0  0  0
 57 73  1  0  0  0  0
 59 63  1  0  0  0  0
 59 80  1  0  0  0  0
 60 63  1  0  0  0  0
 60 81  1  0  0  0  0
 61 64  1  0  0  0  0
 61 72  1  0  0  0  0
 62 73  1  0  0  0  0
 65 66  1  0  0  0  0
M  CHG  1  73   1
M  ISO  4  36 100  58 100  59 101  80 101
M  END
> <Batch ID>
0134

> <Smiles>
CNC(C)C(=O)NC(C(=O)N1Cc2cc([101O:1][101CH2:1]C(C)COc3ccc([100CH2:0][100C:0](=O)N4CCCC(n5nc(-c6ccc(Oc7ccc(F)cc7F)cc6)c(C(N)=O)c5N)C4)c(C)c3)ccc2CC1C(=O)NC1CCCc2ccccc21)C(C)(C)C

> <Shape>
0.308

> <Color>
0.109

> <Negative vol penalty>
0.000

$$$$

  -OEChem-04052302333D

 86 95  0     1  0  0  0  0  0999 V2000
  -14.8349  -26.9863   20.0600 C   0  0  0  0  0  0  0  0  0  0  0  0
  -15.8206  -27.8054   19.5188 C   0  0  0  0  0  0  0  0  0  0  0  0
  -22.9686  -10.0319   20.0468 C   0  0  0  0  0  0  0  0  0  0  0  0
  -23.7346  -10.0744   22.3378 C   0  0  0  0  0  0  0  0  0  0  0  0
  -14.9321  -26.5626   21.3848 C   0  0  0  0  0  0  0  0  0  0  0  0
  -16.9036  -28.2022   20.3025 C   0  0  0  0  0  0  0  0  0  0  0  0
  -24.5659  -27.3324   19.0533 C   0  0  0  0  0  0  0  0  0  0  0  0
  -31.7610  -18.7422   20.3693 C   0  0  0  0  0  0  0  0  0  0  0  0
  -31.5071  -17.3714   20.4142 C   0  0  0  0  0  0  0  0  0  0  0  0
  -22.1568   -8.9358   20.3386 C   0  0  0  0  0  0  0  0  0  0  0  0
  -22.9228   -8.9784   22.6296 C   0  0  0  0  0  0  0  0  0  0  0  0
  -25.9407  -27.0981   19.0195 C   0  0  0  0  0  0  0  0  0  0  0  0
  -19.6540   -8.4005   23.2633 C   0  0  0  0  0  0  0  0  0  0  0  0
  -18.8997   -8.4485   24.4355 C   0  0  0  0  0  0  0  0  0  0  0  0
  -26.0258  -27.1860   21.4347 C   0  0  0  0  0  0  0  0  0  0  0  0
  -20.0233   -6.4666   25.2397 C   0  0  0  0  0  0  0  0  0  0  0  0
  -23.7576  -10.6012   21.0464 C   0  0  0  0  0  0  0  0  0  0  0  0
  -24.2519  -13.0950   20.8358 C   0  0  0  0  0  0  0  0  0  0  0  0
  -16.0218  -26.9465   22.1822 C   0  0  0  0  0  0  0  0  0  0  0  0
  -23.9124  -27.4792   20.2800 C   0  0  0  0  0  0  0  0  0  0  0  0
  -17.0148  -27.7843   21.6395 C   0  0  0  0  0  0  0  0  0  0  0  0
  -24.6468  -27.4084   21.4753 C   0  0  0  0  0  0  0  0  0  0  0  0
  -31.0830  -19.6057   21.2298 C   0  0  0  0  0  0  0  0  0  0  0  0
  -30.1509  -19.0984   22.1350 C   0  0  0  0  0  0  0  0  0  0  0  0
  -30.5750  -16.8641   21.3194 C   0  0  0  0  0  0  0  0  0  0  0  0
  -22.1339   -8.4090   21.6300 C   0  0  0  0  0  0  0  0  0  0  0  0
  -26.6688  -27.0253   20.2073 C   0  0  0  0  0  0  0  0  0  0  0  0
  -20.5930   -7.3855   23.0792 C   0  0  0  0  0  0  0  0  0  0  0  0
  -19.0843   -7.4816   25.4238 C   0  0  0  0  0  0  0  0  0  0  0  0
  -20.7776   -6.4186   24.0674 C   0  0  0  0  0  0  0  0  0  0  0  0
  -29.8969  -17.7276   22.1799 C   0  0  0  0  0  0  0  0  0  0  0  0
  -24.5968  -11.7331   20.7455 C   0  0  0  0  0  0  0  0  0  0  0  0
  -25.3865  -13.7632   20.4449 C   0  0  0  0  0  0  0  0  0  0  0  0
  -23.0164  -13.7018   21.2371 C   0  0  0  0  0  0  0  0  0  0  0  0
  -20.6731  -28.0520   22.0842 C   0  0  0  0  0  0  0  0  0  0  0  0
  -22.2203  -25.9379   23.6802 C   0  0  0  0  0  0  0  0  0  0  0  0
  -24.0557  -23.3390   24.9109 C   0  0  0  0  0  0  0  0  0  0  0  0
  -30.9066  -14.4797   20.5770 C   0  0  0  0  0  0  0  0  0  0  0  0
  -16.0593  -26.5021   23.6229 C   0  0  0  0  0  0  0  0  0  0  0  0
  -22.4434  -27.7942   20.3619 C   0  0  0  0  0  0  0  0  0  0  0  0
  -23.9076  -27.6069   22.7703 C   0  0  0  0  0  0  0  0  0  0  0  0
  -17.4309  -26.6609   24.2738 C   0  0  0  0  0  0  0  0  0  0  0  0
  -29.6402  -12.0553   18.2977 C   0  0  0  0  0  0  0  0  0  0  0  0
  -18.0152  -28.0344   23.9595 C   0  0  0  0  0  0  0  0  0  0  0  0
  -28.1868  -11.8673   18.7387 C   0  0  0  0  0  0  0  0  0  0  0  0
  -30.2398  -24.1283   21.6915 C   0  0  0  0  0  0  0  0  0  0  0  0
  -29.4792  -24.2240   19.6988 C   0  0  0  0  0  0  0  0  0  0  0  0
  -30.5713  -12.2707   19.4895 C   0  0  0  0  0  0  0  0  0  0  0  0
  -28.7162  -13.1587   20.8457 C   0  0  0  0  0  0  0  0  0  0  0  0
  -18.2175  -28.2157   22.4503 C   0  0  1  0  0  0  0  0  0  0  0  0
  -21.7535  -27.1440   21.5745 C   0  0  1  0  0  0  0  0  0  0  0  0
  -30.5437  -23.3360   20.3936 C   0  0  0  0  0  0  0  0  0  0  0  0
  -29.7666  -25.2935   20.7842 C   0  0  0  0  0  0  0  0  0  0  0  0
  -27.7309  -13.0030   19.6758 C   0  0  2  0  0  0  0  0  0  0  0  0
  -29.4152  -20.0070   23.0647 C   0  0  0  0  0  0  0  0  0  0  0  0
  -24.0685  -21.6347   26.7528 C   0  0  0  0  0  0  0  0  0  0  0  0
  -23.0767  -28.0921   25.6626 C   0  0  0  0  0  0  0  0  0  0  0  0
  -23.9690  -26.2782   27.1396 C   0  0  0  0  0  0  0  0  0  0  0  0
  -21.5344  -26.3625   26.6028 C   0  0  0  0  0  0  0  0  0  0  0  0
  -23.9858  -21.0902   22.9881 C   0  0  0  0  0  0  0  0  0  0  0  0
  -31.3746  -21.0836   21.1622 C   0  0  0  0  0  0  0  0  0  0  0  0
  -30.2677  -21.8472   20.4274 C   0  0  0  0  0  0  0  0  0  0  0  0
  -28.5807  -26.0971   21.2754 C   0  0  0  0  0  0  0  0  0  1  0  0
  -23.1745  -25.6560   24.8131 C   0  0  1  0  0  0  0  0  0  0  0  0
  -23.6614  -21.9307   25.3178 C   0  0  2  0  0  0  0  0  0  0  0  0
  -22.9478  -26.5998   26.0277 C   0  0  0  0  0  0  0  0  0  0  0  0
  -25.8522  -11.5456   20.3297 N   0  0  0  0  0  0  0  0  0  0  0  0
  -26.3061  -12.7985   20.1552 N   0  0  0  0  0  0  0  0  0  0  0  0
  -22.6258  -26.8857   22.7327 N   0  0  0  0  0  0  0  0  0  0  0  0
  -30.0787  -13.3643   20.3299 N   0  0  0  0  0  0  0  0  0  0  0  0
  -25.6772  -15.0759   20.3240 N   0  0  0  0  0  0  0  0  0  0  0  0
  -21.9522  -12.8685   21.6077 N   0  0  0  0  0  0  0  0  0  0  0  0
  -30.3192  -15.4711   21.3624 N   0  0  0  0  0  0  0  0  0  0  0  0
  -19.4034  -27.5118   22.0113 N   0  0  0  0  0  0  0  0  0  0  0  0
  -23.0318  -24.2377   25.1237 N   0  0  0  0  0  0  0  0  0  0  0  0
  -24.3172  -20.9315   24.4276 N   0  3  0  0  0  0  0  0  0  0  0  0
  -22.8556  -14.9457   21.2506 O   0  0  0  0  0  0  0  0  0  0  0  0
  -20.9687  -29.1609   22.5138 O   0  0  0  0  0  0  0  0  0  0  0  0
  -21.1417  -25.3396   23.6372 O   0  0  0  0  0  0  0  0  0  0  0  0
  -25.1627  -23.6150   24.4538 O   0  0  0  0  0  0  0  0  0  0  0  0
  -32.0424  -14.5626   20.1026 O   0  0  0  0  0  0  0  0  0  0  0  0
  -21.3416   -7.3396   21.9151 O   0  0  0  0  0  0  0  0  0  0  0  0
  -28.0100  -26.7919   20.1673 O   0  0  0  0  0  0  0  0  0  1  0  0
  -18.3609   -7.5287   26.5501 F   0  0  0  0  0  0  0  0  0  0  0  0
  -21.6790   -5.4418   23.8967 F   0  0  0  0  0  0  0  0  0  0  0  0
  -29.0000  -17.2407   23.0509 F   0  0  0  0  0  0  0  0  0  0  0  0
  1  2  1  0  0  0  0
  1  5  2  0  0  0  0
  2  6  2  0  0  0  0
  3 10  2  0  0  0  0
  3 17  1  0  0  0  0
  4 11  1  0  0  0  0
  4 17  2  0  0  0  0
  5 19  1  0  0  0  0
  6 21  1  0  0  0  0
  7 12  2  0  0  0  0
  7 20  1  0  0  0  0
  8  9  2  0  0  0  0
  8 23  1  0  0  0  0
  9 25  1  0  0  0  0
 10 26  1  0  0  0  0
 11 26  2  0  0  0  0
 12 27  1  0  0  0  0
 13 14  2  0  0  0  0
 13 28  1  0  0  0  0
 14 29  1  0  0  0  0
 15 22  1  0  0  0  0
 15 27  2  0  0  0  0
 16 29  2  0  0  0  0
 16 30  1  0  0  0  0
 17 32  1  0  0  0  0
 18 32  1  0  0  0  0
 18 33  2  0  0  0  0
 18 34  1  0  0  0  0
 19 21  2  0  0  0  0
 19 39  1  0  0  0  0
 20 22  2  0  0  0  0
 20 40  1  0  0  0  0
 21 50  1  0  0  0  0
 22 41  1  0  0  0  0
 23 24  2  0  0  0  0
 23 61  1  0  0  0  0
 24 31  1  0  0  0  0
 24 55  1  0  0  0  0
 25 31  2  0  0  0  0
 25 73  1  0  0  0  0
 26 82  1  0  0  0  0
 27 83  1  0  0  0  0
 28 30  2  0  0  0  0
 28 82  1  0  0  0  0
 29 84  1  0  0  0  0
 30 85  1  0  0  0  0
 31 86  1  0  0  0  0
 32 67  2  0  0  0  0
 33 68  1  0  0  0  0
 33 71  1  0  0  0  0
 34 72  1  0  0  0  0
 34 77  2  0  0  0  0
 35 51  1  0  0  0  0
 35 74  1  0  0  0  0
 35 78  2  0  0  0  0
 36 64  1  0  0  0  0
 36 69  1  0  0  0  0
 36 79  2  0  0  0  0
 37 65  1  0  0  0  0
 37 75  1  0  0  0  0
 37 80  2  0  0  0  0
 38 70  1  0  0  0  0
 38 73  1  0  0  0  0
 38 81  2  0  0  0  0
 39 42  1  0  0  0  0
 40 51  1  0  0  0  0
 41 69  1  0  0  0  0
 42 44  1  0  0  0  0
 43 45  1  0  0  0  0
 43 48  1  0  0  0  0
 44 50  1  0  0  0  0
 45 54  1  0  0  0  0
 46 52  1  0  0  0  0
 46 53  1  0  0  0  0
 47 52  1  0  0  0  0
 47 53  1  0  0  0  0
 48 70  1  0  0  0  0
 49 54  1  0  0  0  0
 49 70  1  0  0  0  0
 50 74  1  0  0  0  0
 51 69  1  0  0  0  0
 52 62  1  0  0  0  0
 53 63  1  0  0  0  0
 54 68  1  0  0  0  0
 56 65  1  0  0  0  0
 57 66  1  0  0  0  0
 58 66  1  0  0  0  0
 59 66  1  0  0  0  0
 60 76  1  0  0  0  0
 61 62  1  0  0  0  0
 63 83  1  0  0  0  0
 64 66  1  0  0  0  0
 64 75  1  0  0  0  0
 65 76  1  0  0  0  0
 67 68  1  0  0  0  0
M  CHG  1  76   1
M  ISO  4  38 100  63 101  73 100  83 101
M  END
> <Batch ID>
0134

> <Smiles>
CNC(C)C(=O)NC(C(=O)N1Cc2cc([101O:1][101CH2:1]C3CC(CCc4ccc([100NH:0][100C:0](=O)N5CCCC(n6nc(-c7ccc(Oc8ccc(F)cc8F)cc7)c(C(N)=O)c6N)C5)c(F)c4C)C3)ccc2CC1C(=O)NC1CCCc2ccccc21)C(C)(C)C

> <Shape>
0.296

> <Color>
0.208

> <Negative vol penalty>
0.000

$$$$

  -OEChem-04052302333D

 84 92  0     1  0  0  0  0  0999 V2000
  -21.0697  -29.0239   25.6339 C   0  0  0  0  0  0  0  0  0  0  0  0
  -22.2143  -28.4954   25.0457 C   0  0  0  0  0  0  0  0  0  0  0  0
  -25.1219  -11.3468   20.9889 C   0  0  0  0  0  0  0  0  0  0  0  0
  -25.2097  -12.2934   23.2100 C   0  0  0  0  0  0  0  0  0  0  0  0
  -19.8198  -28.7818   25.0653 C   0  0  0  0  0  0  0  0  0  0  0  0
  -22.1096  -27.7235   23.8892 C   0  0  0  0  0  0  0  0  0  0  0  0
  -25.5712  -28.9624   20.4067 C   0  0  0  0  0  0  0  0  0  0  0  0
  -25.0873  -23.1876   22.7342 C   0  0  0  0  0  0  0  0  0  0  0  0
  -25.3400  -21.9679   22.1066 C   0  0  0  0  0  0  0  0  0  0  0  0
  -25.1542  -10.0635   21.5345 C   0  0  0  0  0  0  0  0  0  0  0  0
  -25.2420  -11.0101   23.7557 C   0  0  0  0  0  0  0  0  0  0  0  0
  -26.8670  -28.4853   20.5992 C   0  0  0  0  0  0  0  0  0  0  0  0
  -24.8494   -6.5359   22.3579 C   0  0  0  0  0  0  0  0  0  0  0  0
  -23.9614   -5.5905   21.8448 C   0  0  0  0  0  0  0  0  0  0  0  0
  -26.4447  -26.7164   19.0143 C   0  0  0  0  0  0  0  0  0  0  0  0
  -27.6736  -22.5581   21.8993 C   0  0  0  0  0  0  0  0  0  0  0  0
  -22.0995   -6.9836   22.5007 C   0  0  0  0  0  0  0  0  0  0  0  0
  -25.1497  -12.4618   21.8267 C   0  0  0  0  0  0  0  0  0  0  0  0
  -23.9765  -14.5624   20.9788 C   0  0  0  0  0  0  0  0  0  0  0  0
  -19.7007  -28.0146   23.8958 C   0  0  0  0  0  0  0  0  0  0  0  0
  -24.6973  -28.3125   19.5233 C   0  0  0  0  0  0  0  0  0  0  0  0
  -20.8569  -27.4698   23.3052 C   0  0  0  0  0  0  0  0  0  0  0  0
  -25.1391  -27.1887   18.8105 C   0  0  0  0  0  0  0  0  0  0  0  0
  -26.1277  -24.0927   22.9443 C   0  0  0  0  0  0  0  0  0  0  0  0
  -26.6332  -21.6531   21.6892 C   0  0  0  0  0  0  0  0  0  0  0  0
  -25.2142   -9.8951   22.9179 C   0  0  0  0  0  0  0  0  0  0  0  0
  -27.3030  -27.3605   19.9051 C   0  0  0  0  0  0  0  0  0  0  0  0
  -24.3626   -7.7051   22.9424 C   0  0  0  0  0  0  0  0  0  0  0  0
  -27.4208  -23.7779   22.5269 C   0  0  0  0  0  0  0  0  0  0  0  0
  -22.5865   -5.8144   21.9162 C   0  0  0  0  0  0  0  0  0  0  0  0
  -22.9876   -7.9289   23.0138 C   0  0  0  0  0  0  0  0  0  0  0  0
  -25.1169  -13.7877   21.2637 C   0  0  0  0  0  0  0  0  0  0  0  0
  -24.4766  -15.7323   20.4614 C   0  0  0  0  0  0  0  0  0  0  0  0
  -22.5892  -14.2522   21.1654 C   0  0  0  0  0  0  0  0  0  0  0  0
  -21.9017  -26.8291   19.8194 C   0  0  0  0  0  0  0  0  0  0  0  0
  -22.0691  -26.6995   16.5825 C   0  0  0  0  0  0  0  0  0  0  0  0
  -24.0145  -26.7275   13.7786 C   0  0  0  0  0  0  0  0  0  0  0  0
  -28.1141  -19.9464   20.5755 C   0  0  0  0  0  0  0  0  0  0  0  0
  -18.3239  -27.7405   23.3445 C   0  0  0  0  0  0  0  0  0  0  0  0
  -23.3114  -28.8554   19.3068 C   0  0  0  0  0  0  0  0  0  0  0  0
  -24.2467  -26.4669   17.8354 C   0  0  0  0  0  0  0  0  0  0  0  0
  -18.3346  -27.2249   21.9077 C   0  0  0  0  0  0  0  0  0  0  0  0
  -29.1636  -16.9410   18.9806 C   0  0  0  0  0  0  0  0  0  0  0  0
  -19.3760  -26.1225   21.7439 C   0  0  0  0  0  0  0  0  0  0  0  0
  -28.1105  -15.9165   19.4090 C   0  0  0  0  0  0  0  0  0  0  0  0
  -29.4839  -17.9278   20.1019 C   0  0  0  0  0  0  0  0  0  0  0  0
  -27.2652  -17.5790   21.1144 C   0  0  0  0  0  0  0  0  0  0  0  0
  -20.7866  -26.6482   22.0363 C   0  0  1  0  0  0  0  0  0  0  0  0
  -22.3378  -27.8112   18.7691 C   0  0  1  0  0  0  0  0  0  0  0  0
  -26.8622  -16.6034   19.9965 C   0  0  2  0  0  0  0  0  0  0  0  0
  -25.8386  -25.3936   23.6174 C   0  0  0  0  0  0  0  0  0  0  0  0
  -32.1166  -27.2418   20.5441 C   0  0  0  0  0  0  0  0  0  0  0  0
  -23.8692  -26.5665   11.2785 C   0  0  0  0  0  0  0  0  0  0  0  0
  -21.6209  -23.6895   16.8048 C   0  0  0  0  0  0  0  0  0  0  0  0
  -22.4219  -23.4662   14.4433 C   0  0  0  0  0  0  0  0  0  0  0  0
  -20.3710  -24.7956   14.9423 C   0  0  0  0  0  0  0  0  0  0  0  0
  -25.1813  -29.4237   13.4211 C   0  0  0  0  0  0  0  0  0  0  0  0
  -31.3335  -25.9423   20.6660 C   0  0  0  0  0  0  0  0  0  0  0  0
  -29.1563  -27.1059   21.3736 C   0  0  0  0  0  0  0  0  0  1  0  0
  -29.5124  -24.6254   21.7765 C   0  0  0  0  0  0  0  0  0  0  0  0
  -22.6350  -25.7233   15.5795 C   0  0  1  0  0  0  0  0  0  0  0  0
  -23.8957  -27.5011   12.4779 C   0  0  2  0  0  0  0  0  0  0  0  0
  -30.1834  -26.0062   21.6904 C   0  0  1  0  0  0  0  0  0  0  0  0
  -21.7786  -24.4309   15.4622 C   0  0  0  0  0  0  0  0  0  0  0  0
  -26.2557  -14.4127   20.9528 N   0  0  0  0  0  0  0  0  0  0  0  0
  -25.8333  -15.5925   20.4672 N   0  0  0  0  0  0  0  0  0  0  0  0
  -22.8983  -27.0325   17.6629 N   0  0  0  0  0  0  0  0  0  0  0  0
  -28.2541  -18.5427   20.6064 N   0  0  0  0  0  0  0  0  0  0  0  0
  -23.8838  -16.8565   20.0065 N   0  0  0  0  0  0  0  0  0  0  0  0
  -22.2505  -13.0057   21.7092 N   0  0  0  0  0  0  0  0  0  0  0  0
  -26.8895  -20.4143   21.0510 N   0  0  0  0  0  0  0  0  0  0  0  0
  -21.2853  -27.4098   20.9113 N   0  0  0  0  0  0  0  0  0  0  0  0
  -22.7786  -26.4605   14.3287 N   0  0  0  0  0  0  0  0  0  0  0  0
  -25.0484  -28.4328   12.3223 N   0  3  0  0  0  0  0  0  0  0  0  0
  -21.6763  -15.0501   20.8437 O   0  0  0  0  0  0  0  0  0  0  0  0
  -22.1077  -25.6329   19.6508 O   0  0  0  0  0  0  0  0  0  0  0  0
  -20.9360  -27.1553   16.4098 O   0  0  0  0  0  0  0  0  0  0  0  0
  -25.0953  -26.3902   14.2567 O   0  0  0  0  0  0  0  0  0  0  0  0
  -29.0035  -20.6777   20.1326 O   0  0  0  0  0  0  0  0  0  0  0  0
  -25.2455   -8.6430   23.4506 O   0  0  0  0  0  0  0  0  0  0  0  0
  -28.5671  -26.8924   20.0916 O   0  0  0  0  0  0  0  0  0  1  0  0
  -28.4541  -24.6560   22.7253 O   0  0  0  0  0  0  0  0  0  0  0  0
  -21.7338   -4.9072   21.4221 F   0  0  0  0  0  0  0  0  0  0  0  0
  -22.5140   -9.0508   23.5731 F   0  0  0  0  0  0  0  0  0  0  0  0
  1  2  1  0  0  0  0
  1  5  2  0  0  0  0
  2  6  2  0  0  0  0
  3 10  2  0  0  0  0
  3 18  1  0  0  0  0
  4 11  1  0  0  0  0
  4 18  2  0  0  0  0
  5 20  1  0  0  0  0
  6 22  1  0  0  0  0
  7 12  2  0  0  0  0
  7 21  1  0  0  0  0
  8  9  2  0  0  0  0
  8 24  1  0  0  0  0
  9 25  1  0  0  0  0
 10 26  1  0  0  0  0
 11 26  2  0  0  0  0
 12 27  1  0  0  0  0
 13 14  2  0  0  0  0
 13 28  1  0  0  0  0
 14 30  1  0  0  0  0
 15 23  1  0  0  0  0
 15 27  2  0  0  0  0
 16 25  2  0  0  0  0
 16 29  1  0  0  0  0
 17 30  2  0  0  0  0
 17 31  1  0  0  0  0
 18 32  1  0  0  0  0
 19 32  1  0  0  0  0
 19 33  2  0  0  0  0
 19 34  1  0  0  0  0
 20 22  2  0  0  0  0
 20 39  1  0  0  0  0
 21 23  2  0  0  0  0
 21 40  1  0  0  0  0
 22 48  1  0  0  0  0
 23 41  1  0  0  0  0
 24 29  2  0  0  0  0
 24 51  1  0  0  0  0
 25 71  1  0  0  0  0
 26 80  1  0  0  0  0
 27 81  1  0  0  0  0
 28 31  2  0  0  0  0
 28 80  1  0  0  0  0
 29 82  1  0  0  0  0
 30 83  1  0  0  0  0
 31 84  1  0  0  0  0
 32 65  2  0  0  0  0
 33 66  1  0  0  0  0
 33 69  1  0  0  0  0
 34 70  1  0  0  0  0
 34 75  2  0  0  0  0
 35 49  1  0  0  0  0
 35 72  1  0  0  0  0
 35 76  2  0  0  0  0
 36 61  1  0  0  0  0
 36 67  1  0  0  0  0
 36 77  2  0  0  0  0
 37 62  1  0  0  0  0
 37 73  1  0  0  0  0
 37 78  2  0  0  0  0
 38 68  1  0  0  0  0
 38 71  1  0  0  0  0
 38 79  2  0  0  0  0
 39 42  1  0  0  0  0
 40 49  1  0  0  0  0
 41 67  1  0  0  0  0
 42 44  1  0  0  0  0
 43 45  1  0  0  0  0
 43 46  1  0  0  0  0
 44 48  1  0  0  0  0
 45 50  1  0  0  0  0
 46 68  1  0  0  0  0
 47 50  1  0  0  0  0
 47 68  1  0  0  0  0
 48 72  1  0  0  0  0
 49 67  1  0  0  0  0
 50 66  1  0  0  0  0
 52 58  1  0  0  0  0
 53 62  1  0  0  0  0
 54 64  1  0  0  0  0
 55 64  1  0  0  0  0
 56 64  1  0  0  0  0
 57 74  1  0  0  0  0
 58 63  1  0  0  0  0
 59 63  1  0  0  0  0
 59 81  1  0  0  0  0
 60 63  1  0  0  0  0
 60 82  1  0  0  0  0
 61 64  1  0  0  0  0
 61 73  1  0  0  0  0
 62 74  1  0  0  0  0
 65 66  1  0  0  0  0
M  CHG  1  74   1
M  ISO  4  38 100  59 101  71 100  81 101
M  END
> <Batch ID>
0134

> <Smiles>
CCC(COc1cc([100NH:0][100C:0](=O)N2CCCC(n3nc(-c4ccc(Oc5ccc(F)cc5F)cc4)c(C(N)=O)c3N)C2)ccc1C)[101CH2:1][101O:1]c1ccc2c(c1)CN(C(=O)C(NC(=O)C(C)NC)C(C)(C)C)C(C(=O)NC1CCCc3ccccc31)C2

> <Shape>
0.235

> <Color>
0.093

> <Negative vol penalty>
0.000

$$$$

  -OEChem-04052302333D

 82 90  0     1  0  0  0  0  0999 V2000
  -21.6084  -11.7654   20.5111 C   0  0  0  0  0  0  0  0  0  0  0  0
  -21.5866  -12.9235   21.2816 C   0  0  0  0  0  0  0  0  0  0  0  0
  -23.1430  -26.3831   19.2261 C   0  0  0  0  0  0  0  0  0  0  0  0
  -22.8999  -27.4902   21.3597 C   0  0  0  0  0  0  0  0  0  0  0  0
  -22.8174  -11.2870   20.0077 C   0  0  0  0  0  0  0  0  0  0  0  0
  -22.7741  -13.6034   21.5501 C   0  0  0  0  0  0  0  0  0  0  0  0
  -23.5064  -19.6590   22.0970 C   0  0  0  0  0  0  0  0  0  0  0  0
  -21.8292  -25.9231   19.3151 C   0  0  0  0  0  0  0  0  0  0  0  0
  -21.5860  -27.0303   21.4487 C   0  0  0  0  0  0  0  0  0  0  0  0
  -23.5815  -20.4982   23.2078 C   0  0  0  0  0  0  0  0  0  0  0  0
  -20.0027  -24.1537   22.2546 C   0  0  0  0  0  0  0  0  0  0  0  0
  -19.5848  -23.6178   23.4726 C   0  0  0  0  0  0  0  0  0  0  0  0
  -25.9899  -20.3987   23.1127 C   0  0  0  0  0  0  0  0  0  0  0  0
  -17.8672  -25.3099   23.6278 C   0  0  0  0  0  0  0  0  0  0  0  0
  -23.6784  -27.1666   20.2485 C   0  0  0  0  0  0  0  0  0  0  0  0
  -25.4773  -28.8481   19.5820 C   0  0  0  0  0  0  0  0  0  0  0  0
  -24.0191  -11.9667   20.2621 C   0  0  0  0  0  0  0  0  0  0  0  0
  -24.6744  -19.1737   21.4914 C   0  0  0  0  0  0  0  0  0  0  0  0
  -24.0005  -13.1329   21.0508 C   0  0  0  0  0  0  0  0  0  0  0  0
  -25.9270  -19.5555   21.9928 C   0  0  0  0  0  0  0  0  0  0  0  0
  -21.0507  -26.2467   20.4263 C   0  0  0  0  0  0  0  0  0  0  0  0
  -24.8233  -20.8659   23.7176 C   0  0  0  0  0  0  0  0  0  0  0  0
  -19.3530  -25.2678   21.7231 C   0  0  0  0  0  0  0  0  0  0  0  0
  -18.5170  -24.1959   24.1592 C   0  0  0  0  0  0  0  0  0  0  0  0
  -18.2852  -25.8458   22.4097 C   0  0  0  0  0  0  0  0  0  0  0  0
  -25.0356  -27.6416   20.1575 C   0  0  0  0  0  0  0  0  0  0  0  0
  -26.8405  -28.8290   19.7482 C   0  0  0  0  0  0  0  0  0  0  0  0
  -28.5017  -26.8109   27.2714 C   0  0  0  0  0  0  0  0  0  0  0  0
  -29.6144  -27.5124   27.0254 C   0  0  0  0  0  0  0  0  0  0  0  0
  -28.7225  -25.6269   25.1795 C   0  0  0  0  0  0  0  0  0  0  0  0
  -28.0759  -25.7854   26.3466 C   0  0  0  0  0  0  0  0  0  0  0  0
  -25.6217  -21.8686   27.0587 C   0  0  0  0  0  0  0  0  0  0  0  0
  -24.7227  -29.8927   18.9534 C   0  0  0  0  0  0  0  0  0  0  0  0
  -26.1619  -22.8104   27.8562 C   0  0  0  0  0  0  0  0  0  0  0  0
  -25.9213  -16.2892   21.0134 C   0  0  0  0  0  0  0  0  0  0  0  0
  -28.1182  -17.9506   19.3000 C   0  0  0  0  0  0  0  0  0  0  0  0
  -29.7014  -20.9182   18.7225 C   0  0  0  0  0  0  0  0  0  0  0  0
  -30.4879  -26.2527   23.5700 C   0  0  0  0  0  0  0  0  0  0  0  0
  -25.3074  -11.3852   19.7362 C   0  0  0  0  0  0  0  0  0  0  0  0
  -24.5767  -18.2908   20.2775 C   0  0  0  0  0  0  0  0  0  0  0  0
  -27.2109  -19.0782   21.3666 C   0  0  0  0  0  0  0  0  0  0  0  0
  -30.4494  -27.2828   25.8039 C   0  0  0  0  0  0  0  0  0  0  0  0
  -26.4725  -12.3713   19.7532 C   0  0  0  0  0  0  0  0  0  0  0  0
  -30.5335  -25.8245   20.1374 C   0  0  0  0  0  0  0  0  0  0  0  0
  -26.5387  -13.0963   21.0937 C   0  0  0  0  0  0  0  0  0  0  0  0
  -29.1746  -26.3554   19.6830 C   0  0  0  0  0  0  0  0  0  0  0  0
  -30.4014  -25.0207   21.4257 C   0  0  0  0  0  0  0  0  0  0  0  0
  -28.4106  -26.3207   22.1100 C   0  0  0  0  0  0  0  0  0  0  0  0
  -25.2644  -13.9121   21.3432 C   0  0  1  0  0  0  0  0  0  0  0  0
  -25.8244  -17.4418   20.0543 C   0  0  1  0  0  0  0  0  0  0  0  0
  -28.4871  -27.1466   20.8096 C   0  0  2  0  0  0  0  0  0  0  0  0
  -25.6115  -23.0439   29.2388 C   0  0  0  0  0  0  0  0  0  0  0  0
  -31.4765  -21.9567   17.2845 C   0  0  0  0  0  0  0  0  0  0  0  0
  -30.2719  -16.5972   20.9852 C   0  0  0  0  0  0  0  0  0  0  0  0
  -31.8896  -18.3328   20.1859 C   0  0  0  0  0  0  0  0  0  0  0  0
  -30.8159  -16.7843   18.5514 C   0  0  0  0  0  0  0  0  0  0  0  0
  -27.7845  -22.8393   17.5420 C   0  0  0  0  0  0  0  0  0  0  0  0
  -26.9026  -24.9464   26.7485 C   0  0  0  0  0  0  0  0  0  0  0  0
  -26.0269  -21.5214   25.6612 C   0  0  0  0  0  0  0  0  0  1  0  0
  -27.3417  -23.6769   27.4769 C   0  0  0  0  0  0  0  0  0  0  0  0
  -29.4359  -18.6178   19.6124 C   0  0  1  0  0  0  0  0  0  0  0  0
  -29.9903  -21.6723   17.4371 C   0  0  2  0  0  0  0  0  0  0  0  0
  -30.5793  -17.5906   19.8469 C   0  0  0  0  0  0  0  0  0  0  0  0
  -26.0372  -26.9093   20.6522 N   0  0  0  0  0  0  0  0  0  0  0  0
  -27.1217  -27.6577   20.3879 N   0  0  0  0  0  0  0  0  0  0  0  0
  -29.8141  -26.4043   24.8017 N   0  0  0  0  0  0  0  0  0  0  0  0
  -27.0630  -18.2117   20.1855 N   0  0  0  0  0  0  0  0  0  0  0  0
  -29.7395  -25.8008   22.4715 N   0  0  0  0  0  0  0  0  0  0  0  0
  -27.8143  -29.6999   19.4080 N   0  0  0  0  0  0  0  0  0  0  0  0
  -23.3309  -29.7522   18.8668 N   0  0  0  0  0  0  0  0  0  0  0  0
  -25.2918  -15.1393   20.5765 N   0  0  0  0  0  0  0  0  0  0  0  0
  -29.6879  -19.5540   18.5223 N   0  0  0  0  0  0  0  0  0  0  0  0
  -29.2594  -22.9710   17.4230 N   0  3  0  0  0  0  0  0  0  0  0  0
  -25.2682  -30.9125   18.4678 O   0  0  0  0  0  0  0  0  0  0  0  0
  -26.5239  -16.4321   22.0708 O   0  0  0  0  0  0  0  0  0  0  0  0
  -28.0266  -17.2301   18.3029 O   0  0  0  0  0  0  0  0  0  0  0  0
  -29.5108  -21.4827   19.7975 O   0  0  0  0  0  0  0  0  0  0  0  0
  -31.6943  -26.5113   23.4645 O   0  0  0  0  0  0  0  0  0  0  0  0
  -19.7686  -25.7982   20.5133 O   0  0  0  0  0  0  0  0  0  0  0  0
  -24.8999  -21.6899   24.8094 O   0  0  0  0  0  0  0  0  0  1  0  0
  -18.1148  -23.6802   25.3282 F   0  0  0  0  0  0  0  0  0  0  0  0
  -17.6563  -26.9155   21.9035 F   0  0  0  0  0  0  0  0  0  0  0  0
  1  2  1  0  0  0  0
  1  5  2  0  0  0  0
  2  6  2  0  0  0  0
  3  8  2  0  0  0  0
  3 15  1  0  0  0  0
  4  9  1  0  0  0  0
  4 15  2  0  0  0  0
  5 17  1  0  0  0  0
  6 19  1  0  0  0  0
  7 10  2  0  0  0  0
  7 18  1  0  0  0  0
  8 21  1  0  0  0  0
  9 21  2  0  0  0  0
 10 22  1  0  0  0  0
 11 12  2  0  0  0  0
 11 23  1  0  0  0  0
 12 24  1  0  0  0  0
 13 20  1  0  0  0  0
 13 22  2  0  0  0  0
 14 24  2  0  0  0  0
 14 25  1  0  0  0  0
 15 26  1  0  0  0  0
 16 26  1  0  0  0  0
 16 27  2  0  0  0  0
 16 33  1  0  0  0  0
 17 19  2  0  0  0  0
 17 39  1  0  0  0  0
 18 20  2  0  0  0  0
 18 40  1  0  0  0  0
 19 49  1  0  0  0  0
 20 41  1  0  0  0  0
 21 79  1  0  0  0  0
 22 80  1  0  0  0  0
 23 25  2  0  0  0  0
 23 79  1  0  0  0  0
 24 81  1  0  0  0  0
 25 82  1  0  0  0  0
 26 64  2  0  0  0  0
 27 65  1  0  0  0  0
 27 69  1  0  0  0  0
 28 29  2  0  0  0  0
 28 31  1  0  0  0  0
 29 42  1  0  0  0  0
 30 31  2  0  0  0  0
 30 66  1  0  0  0  0
 31 58  1  0  0  0  0
 32 34  2  0  0  0  0
 32 59  1  0  0  0  0
 33 70  1  0  0  0  0
 33 74  2  0  0  0  0
 34 52  1  0  0  0  0
 34 60  1  0  0  0  0
 35 50  1  0  0  0  0
 35 71  1  0  0  0  0
 35 75  2  0  0  0  0
 36 61  1  0  0  0  0
 36 67  1  0  0  0  0
 36 76  2  0  0  0  0
 37 62  1  0  0  0  0
 37 72  1  0  0  0  0
 37 77  2  0  0  0  0
 38 66  1  0  0  0  0
 38 68  1  0  0  0  0
 38 78  2  0  0  0  0
 39 43  1  0  0  0  0
 40 50  1  0  0  0  0
 41 67  1  0  0  0  0
 42 66  1  0  0  0  0
 43 45  1  0  0  0  0
 44 46  1  0  0  0  0
 44 47  1  0  0  0  0
 45 49  1  0  0  0  0
 46 51  1  0  0  0  0
 47 68  1  0  0  0  0
 48 51  1  0  0  0  0
 48 68  1  0  0  0  0
 49 71  1  0  0  0  0
 50 67  1  0  0  0  0
 51 65  1  0  0  0  0
 53 62  1  0  0  0  0
 54 63  1  0  0  0  0
 55 63  1  0  0  0  0
 56 63  1  0  0  0  0
 57 73  1  0  0  0  0
 58 60  1  0  0  0  0
 59 80  1  0  0  0  0
 61 63  1  0  0  0  0
 61 72  1  0  0  0  0
 62 73  1  0  0  0  0
 64 65  1  0  0  0  0
M  CHG  1  73   1
M  ISO  4  38 100  59 101  66 100  80 101
M  END
> <Batch ID>
0134

> <Smiles>
CNC(C)C(=O)NC(C(=O)N1Cc2cc([101O:1][101CH2:1]C=C(C)CCC3=C[100N:0]([100C:0](=O)N4CCCC(n5nc(-c6ccc(Oc7ccc(F)cc7F)cc6)c(C(N)=O)c5N)C4)CC=C3)ccc2CC1C(=O)NC1CCCc2ccccc21)C(C)(C)C

> <Shape>
0.201

> <Color>
0.063

> <Negative vol penalty>
0.000

$$$$

  -OEChem-04052302333D

 86 95  0     1  0  0  0  0  0999 V2000
  -16.6791  -29.3269   24.2129 C   0  0  0  0  0  0  0  0  0  0  0  0
  -17.0217  -28.4771   23.1661 C   0  0  0  0  0  0  0  0  0  0  0  0
  -27.3271  -13.3982   22.9179 C   0  0  0  0  0  0  0  0  0  0  0  0
  -26.4802  -13.5936   20.6636 C   0  0  0  0  0  0  0  0  0  0  0  0
  -17.5003  -30.4084   24.5287 C   0  0  0  0  0  0  0  0  0  0  0  0
  -18.1854  -28.7090   22.4336 C   0  0  0  0  0  0  0  0  0  0  0  0
  -26.1645  -17.2547   16.0641 C   0  0  0  0  0  0  0  0  0  0  0  0
  -21.8921  -24.4966   19.9798 C   0  0  0  0  0  0  0  0  0  0  0  0
  -27.0040  -17.7524   17.0640 C   0  0  0  0  0  0  0  0  0  0  0  0
  -26.1080  -12.8596   23.3292 C   0  0  0  0  0  0  0  0  0  0  0  0
  -25.2611  -13.0549   21.0750 C   0  0  0  0  0  0  0  0  0  0  0  0
  -22.0043  -23.9841   18.6881 C   0  0  0  0  0  0  0  0  0  0  0  0
  -23.9961   -9.9976   21.7629 C   0  0  0  0  0  0  0  0  0  0  0  0
  -23.4191   -9.0149   20.9586 C   0  0  0  0  0  0  0  0  0  0  0  0
  -26.3756  -20.0447   16.5209 C   0  0  0  0  0  0  0  0  0  0  0  0
  -23.7794  -25.5512   18.2272 C   0  0  0  0  0  0  0  0  0  0  0  0
  -21.4718  -10.4112   20.6495 C   0  0  0  0  0  0  0  0  0  0  0  0
  -27.5132  -13.7653   21.5851 C   0  0  0  0  0  0  0  0  0  0  0  0
  -29.8929  -13.6200   20.6775 C   0  0  0  0  0  0  0  0  0  0  0  0
  -18.6796  -30.6481   23.8059 C   0  0  0  0  0  0  0  0  0  0  0  0
  -25.4559  -18.1713   15.3236 C   0  0  0  0  0  0  0  0  0  0  0  0
  -22.7166  -25.5493   20.4021 C   0  0  0  0  0  0  0  0  0  0  0  0
  -19.0225  -29.7956   22.7391 C   0  0  0  0  0  0  0  0  0  0  0  0
  -25.5568  -19.5240   15.5460 C   0  0  0  0  0  0  0  0  0  0  0  0
  -23.6774  -26.0735   19.5256 C   0  0  0  0  0  0  0  0  0  0  0  0
  -27.1089  -19.1384   17.2909 C   0  0  0  0  0  0  0  0  0  0  0  0
  -25.0750  -12.6879   22.4078 C   0  0  0  0  0  0  0  0  0  0  0  0
  -22.9461  -24.5134   17.8106 C   0  0  0  0  0  0  0  0  0  0  0  0
  -23.3109  -11.1871   22.0107 C   0  0  0  0  0  0  0  0  0  0  0  0
  -22.1570   -9.2217   20.4018 C   0  0  0  0  0  0  0  0  0  0  0  0
  -22.0488  -11.3939   21.4539 C   0  0  0  0  0  0  0  0  0  0  0  0
  -28.7722  -14.3223   21.1596 C   0  0  0  0  0  0  0  0  0  0  0  0
  -30.8219  -14.5963   20.4122 C   0  0  0  0  0  0  0  0  0  0  0  0
  -30.0777  -12.2110   20.4864 C   0  0  0  0  0  0  0  0  0  0  0  0
  -22.2207  -28.5298   21.3892 C   0  0  0  0  0  0  0  0  0  0  0  0
  -23.5483  -22.0452   15.2346 C   0  0  0  0  0  0  0  0  0  0  0  0
  -25.4127  -28.4572   21.9618 C   0  0  0  0  0  0  0  0  0  0  0  0
  -30.2492  -20.4451   19.1573 C   0  0  0  0  0  0  0  0  0  0  0  0
  -28.4537  -27.0825   21.2481 C   0  0  0  0  0  0  0  0  0  0  0  0
  -19.5111  -31.8575   24.1537 C   0  0  0  0  0  0  0  0  0  0  0  0
  -24.4648  -18.3274   14.2073 C   0  0  0  0  0  0  0  0  0  0  0  0
  -22.6012  -26.0729   21.8074 C   0  0  0  0  0  0  0  0  0  0  0  0
  -24.6004  -27.1904   19.9368 C   0  0  0  0  0  0  0  0  0  0  0  0
  -20.9209  -31.8158   23.5697 C   0  0  0  0  0  0  0  0  0  0  0  0
  -32.1728  -18.9650   21.7934 C   0  0  0  0  0  0  0  0  0  0  0  0
  -20.8784  -31.4062   22.1009 C   0  0  0  0  0  0  0  0  0  0  0  0
  -31.6013  -17.5521   21.9051 C   0  0  0  0  0  0  0  0  0  0  0  0
  -31.0903  -19.9784   21.4352 C   0  0  0  0  0  0  0  0  0  0  0  0
  -29.7562  -18.2285   20.3040 C   0  0  0  0  0  0  0  0  0  0  0  0
  -24.5846  -19.8765   14.4507 C   0  0  1  0  0  0  0  0  0  0  0  0
  -20.2895  -29.9998   21.9372 C   0  0  1  0  0  0  0  0  0  0  0  0
  -23.1421  -27.4908   21.9630 C   0  0  1  0  0  0  0  0  0  0  0  0
  -30.8223  -17.1689   20.6343 C   0  0  2  0  0  0  0  0  0  0  0  0
  -30.8839  -27.2558   21.8493 C   0  0  0  0  0  0  0  0  0  0  0  0
  -29.5019  -21.0748   16.9092 C   0  0  0  0  0  0  0  0  0  0  0  0
  -30.1985  -18.7208   17.3801 C   0  0  0  0  0  0  0  0  0  0  0  0
  -25.6452  -30.9931   20.2810 C   0  0  0  0  0  0  0  0  0  0  0  0
  -28.1096  -30.5802   20.1248 C   0  0  0  0  0  0  0  0  0  0  0  0
  -27.0521  -30.9793   22.3486 C   0  0  0  0  0  0  0  0  0  0  0  0
  -28.5268  -24.2947   22.2388 C   0  0  0  0  0  0  0  0  0  0  0  0
  -28.0138  -19.6426   18.3654 C   0  0  0  0  0  0  0  0  0  0  0  0
  -23.3263  -20.5799   14.9320 C   0  0  0  0  0  0  0  0  0  0  0  0
  -22.7303  -22.6391   16.3628 C   0  0  0  0  0  0  0  0  0  1  0  0
  -26.6502  -28.7837   21.1612 C   0  0  1  0  0  0  0  0  0  0  0  0
  -29.5619  -26.5660   22.1479 C   0  0  2  0  0  0  0  0  0  0  0  0
  -29.4841  -19.9492   17.9562 C   0  0  0  0  0  0  0  0  0  0  0  0
  -26.8457  -30.3143   20.9702 C   0  0  0  0  0  0  0  0  0  0  0  0
  -28.9691  -15.6427   21.1996 N   0  0  0  0  0  0  0  0  0  0  0  0
  -30.2244  -15.7779   20.7392 N   0  0  0  0  0  0  0  0  0  0  0  0
  -24.4446  -27.6728   21.3190 N   0  0  0  0  0  0  0  0  0  0  0  0
  -30.3586  -19.5671   20.2358 N   0  0  0  0  0  0  0  0  0  0  0  0
  -32.0833  -14.5506   19.9336 N   0  0  0  0  0  0  0  0  0  0  0  0
  -29.0211  -11.3487   20.8095 N   0  0  0  0  0  0  0  0  0  0  0  0
  -21.2740  -28.9964   22.2811 N   0  0  0  0  0  0  0  0  0  0  0  0
  -27.7600  -28.1192   21.8357 N   0  0  0  0  0  0  0  0  0  0  0  0
  -29.7433  -25.0993   21.9564 N   0  3  0  0  0  0  0  0  0  0  0  0
  -31.1539  -11.7297   20.0579 O   0  0  0  0  0  0  0  0  0  0  0  0
  -22.3593  -28.8830   20.2240 O   0  0  0  0  0  0  0  0  0  0  0  0
  -24.3338  -22.7189   14.5685 O   0  0  0  0  0  0  0  0  0  0  0  0
  -25.3121  -28.8765   23.1175 O   0  0  0  0  0  0  0  0  0  0  0  0
  -30.7369  -21.5782   19.1346 O   0  0  0  0  0  0  0  0  0  0  0  0
  -28.2285  -26.6157   20.1336 O   0  0  0  0  0  0  0  0  0  0  0  0
  -23.8854  -12.1621   22.8088 O   0  0  0  0  0  0  0  0  0  0  0  0
  -23.0574  -24.0155   16.5490 O   0  0  0  0  0  0  0  0  0  1  0  0
  -21.6038   -8.2786   19.6282 F   0  0  0  0  0  0  0  0  0  0  0  0
  -21.3862  -12.5351   21.6873 F   0  0  0  0  0  0  0  0  0  0  0  0
  1  2  1  0  0  0  0
  1  5  2  0  0  0  0
  2  6  2  0  0  0  0
  3 10  2  0  0  0  0
  3 18  1  0  0  0  0
  4 11  1  0  0  0  0
  4 18  2  0  0  0  0
  5 20  1  0  0  0  0
  6 23  1  0  0  0  0
  7  9  2  0  0  0  0
  7 21  1  0  0  0  0
  8 12  2  0  0  0  0
  8 22  1  0  0  0  0
  9 26  1  0  0  0  0
 10 27  1  0  0  0  0
 11 27  2  0  0  0  0
 12 28  1  0  0  0  0
 13 14  2  0  0  0  0
 13 29  1  0  0  0  0
 14 30  1  0  0  0  0
 15 24  1  0  0  0  0
 15 26  2  0  0  0  0
 16 25  1  0  0  0  0
 16 28  2  0  0  0  0
 17 30  2  0  0  0  0
 17 31  1  0  0  0  0
 18 32  1  0  0  0  0
 19 32  1  0  0  0  0
 19 33  2  0  0  0  0
 19 34  1  0  0  0  0
 20 23  2  0  0  0  0
 20 40  1  0  0  0  0
 21 24  2  0  0  0  0
 21 41  1  0  0  0  0
 22 25  2  0  0  0  0
 22 42  1  0  0  0  0
 23 51  1  0  0  0  0
 24 50  1  0  0  0  0
 25 43  1  0  0  0  0
 26 61  1  0  0  0  0
 27 83  1  0  0  0  0
 28 84  1  0  0  0  0
 29 31  2  0  0  0  0
 29 83  1  0  0  0  0
 30 85  1  0  0  0  0
 31 86  1  0  0  0  0
 32 68  2  0  0  0  0
 33 69  1  0  0  0  0
 33 72  1  0  0  0  0
 34 73  1  0  0  0  0
 34 77  2  0  0  0  0
 35 52  1  0  0  0  0
 35 74  1  0  0  0  0
 35 78  2  0  0  0  0
 36 62  1  0  0  0  0
 36 63  1  0  0  0  0
 36 79  2  0  0  0  0
 37 64  1  0  0  0  0
 37 70  1  0  0  0  0
 37 80  2  0  0  0  0
 38 66  1  0  0  0  0
 38 71  1  0  0  0  0
 38 81  2  0  0  0  0
 39 65  1  0  0  0  0
 39 75  1  0  0  0  0
 39 82  2  0  0  0  0
 40 44  1  0  0  0  0
 41 50  1  0  0  0  0
 42 52  1  0  0  0  0
 43 70  1  0  0  0  0
 44 46  1  0  0  0  0
 45 47  1  0  0  0  0
 45 48  1  0  0  0  0
 46 51  1  0  0  0  0
 47 53  1  0  0  0  0
 48 71  1  0  0  0  0
 49 53  1  0  0  0  0
 49 71  1  0  0  0  0
 50 62  1  0  0  0  0
 51 74  1  0  0  0  0
 52 70  1  0  0  0  0
 53 69  1  0  0  0  0
 54 65  1  0  0  0  0
 55 66  1  0  0  0  0
 56 66  1  0  0  0  0
 57 67  1  0  0  0  0
 58 67  1  0  0  0  0
 59 67  1  0  0  0  0
 60 76  1  0  0  0  0
 61 66  1  0  0  0  0
 63 84  1  0  0  0  0
 64 67  1  0  0  0  0
 64 75  1  0  0  0  0
 65 76  1  0  0  0  0
 68 69  1  0  0  0  0
M  CHG  1  76   1
M  ISO  4  38 100  63 101  66 100  84 101
M  END
> <Batch ID>
0134

> <Smiles>
CNC(C)C(=O)NC(C(=O)N1Cc2cc([101O:1][101CH2:1]C(=O)CC3Cc4ccc(C[100C:0](C)(C)[100C:0](=O)N5CCCC(n6nc(-c7ccc(Oc8ccc(F)cc8F)cc7)c(C(N)=O)c6N)C5)cc43)ccc2CC1C(=O)NC1CCCc2ccccc21)C(C)(C)C

> <Shape>
0.254

> <Color>
0.079

> <Negative vol penalty>
0.000

$$$$

  -OEChem-04052302333D

 87 95  0     1  0  0  0  0  0999 V2000
  -19.3212  -29.9068   14.9879 C   0  0  0  0  0  0  0  0  0  0  0  0
  -20.2437  -29.1607   15.7144 C   0  0  0  0  0  0  0  0  0  0  0  0
  -22.9775   -9.9431   19.9928 C   0  0  0  0  0  0  0  0  0  0  0  0
  -23.7175   -9.9742   22.2924 C   0  0  0  0  0  0  0  0  0  0  0  0
  -18.3283  -30.6247   15.6531 C   0  0  0  0  0  0  0  0  0  0  0  0
  -20.1743  -29.1329   17.1068 C   0  0  0  0  0  0  0  0  0  0  0  0
  -20.7223  -24.4626   18.9864 C   0  0  0  0  0  0  0  0  0  0  0  0
  -22.1954   -8.8194   20.2596 C   0  0  0  0  0  0  0  0  0  0  0  0
  -22.9353   -8.8505   22.5593 C   0  0  0  0  0  0  0  0  0  0  0  0
  -22.0169  -23.9488   19.0478 C   0  0  0  0  0  0  0  0  0  0  0  0
  -23.1257   -5.5100   22.0735 C   0  0  0  0  0  0  0  0  0  0  0  0
  -23.7022   -4.4811   22.8181 C   0  0  0  0  0  0  0  0  0  0  0  0
  -22.1199  -24.5052   21.3929 C   0  0  0  0  0  0  0  0  0  0  0  0
  -31.6801  -18.2284   20.0098 C   0  0  0  0  0  0  0  0  0  0  0  0
  -29.4680  -18.5596   20.9229 C   0  0  0  0  0  0  0  0  0  0  0  0
  -21.9925   -4.7439   24.5049 C   0  0  0  0  0  0  0  0  0  0  0  0
  -23.7386  -10.5204   21.0092 C   0  0  0  0  0  0  0  0  0  0  0  0
  -24.1612  -13.0305   20.8401 C   0  0  0  0  0  0  0  0  0  0  0  0
  -18.2408  -30.5979   17.0540 C   0  0  0  0  0  0  0  0  0  0  0  0
  -20.1198  -25.0123   20.1271 C   0  0  0  0  0  0  0  0  0  0  0  0
  -19.1800  -29.8521   17.7915 C   0  0  0  0  0  0  0  0  0  0  0  0
  -20.8166  -25.0229   21.3438 C   0  0  0  0  0  0  0  0  0  0  0  0
  -30.6823  -17.8731   20.9173 C   0  0  0  0  0  0  0  0  0  0  0  0
  -31.4638  -19.2703   19.1079 C   0  0  0  0  0  0  0  0  0  0  0  0
  -30.2495  -19.9568   19.1135 C   0  0  0  0  0  0  0  0  0  0  0  0
  -22.1742   -8.2731   21.5429 C   0  0  0  0  0  0  0  0  0  0  0  0
  -22.7170  -23.9727   20.2505 C   0  0  0  0  0  0  0  0  0  0  0  0
  -21.9826   -6.1560   22.5445 C   0  0  0  0  0  0  0  0  0  0  0  0
  -29.2516  -19.6014   20.0210 C   0  0  0  0  0  0  0  0  0  0  0  0
  -23.1356   -4.0980   24.0338 C   0  0  0  0  0  0  0  0  0  0  0  0
  -21.4160   -5.7729   23.7602 C   0  0  0  0  0  0  0  0  0  0  0  0
  -24.5472  -11.6808   20.7340 C   0  0  0  0  0  0  0  0  0  0  0  0
  -25.2797  -13.7375   20.4716 C   0  0  0  0  0  0  0  0  0  0  0  0
  -22.9042  -13.5947   21.2365 C   0  0  0  0  0  0  0  0  0  0  0  0
  -19.0154  -27.8866   20.9160 C   0  0  0  0  0  0  0  0  0  0  0  0
  -25.3693  -21.5086   20.0175 C   0  0  0  0  0  0  0  0  0  0  0  0
  -18.0086  -26.3384   23.5828 C   0  0  0  0  0  0  0  0  0  0  0  0
  -18.3805  -23.7005   25.7159 C   0  0  0  0  0  0  0  0  0  0  0  0
  -30.7911  -14.5871   20.6896 C   0  0  0  0  0  0  0  0  0  0  0  0
  -17.1789  -31.4279   17.7310 C   0  0  0  0  0  0  0  0  0  0  0  0
  -18.7127  -25.5382   20.0505 C   0  0  0  0  0  0  0  0  0  0  0  0
  -20.2071  -25.5835   22.6019 C   0  0  0  0  0  0  0  0  0  0  0  0
  -16.9449  -31.0451   19.1901 C   0  0  0  0  0  0  0  0  0  0  0  0
  -29.5991  -12.1901   18.3422 C   0  0  0  0  0  0  0  0  0  0  0  0
  -18.2746  -30.8942   19.9223 C   0  0  0  0  0  0  0  0  0  0  0  0
  -28.1494  -11.9509   18.7678 C   0  0  0  0  0  0  0  0  0  0  0  0
  -30.5124  -12.4071   19.5467 C   0  0  0  0  0  0  0  0  0  0  0  0
  -28.6229  -13.2265   20.9002 C   0  0  0  0  0  0  0  0  0  0  0  0
  -19.1223  -29.7771   19.3019 C   0  0  1  0  0  0  0  0  0  0  0  0
  -18.3889  -26.5416   21.1531 C   0  0  1  0  0  0  0  0  0  0  0  0
  -27.6539  -13.0580   19.7175 C   0  0  2  0  0  0  0  0  0  0  0  0
  -32.5486  -19.6323   18.1471 C   0  0  0  0  0  0  0  0  0  0  0  0
  -30.7217  -22.3575   18.5656 C   0  0  0  0  0  0  0  0  0  0  0  0
  -17.4354  -22.7250   27.8260 C   0  0  0  0  0  0  0  0  0  0  0  0
  -19.4678  -28.4632   25.2156 C   0  0  0  0  0  0  0  0  0  0  0  0
  -19.3054  -26.9483   27.2024 C   0  0  0  0  0  0  0  0  0  0  0  0
  -17.2295  -27.8082   26.1188 C   0  0  0  0  0  0  0  0  0  0  0  0
  -17.5771  -21.2061   24.3405 C   0  0  0  0  0  0  0  0  0  0  0  0
  -30.0120  -21.0739   18.1482 C   0  0  0  0  0  0  0  0  0  0  0  0
  -30.9144  -16.7599   21.8823 C   0  0  0  0  0  0  0  0  0  0  0  0
  -25.8056  -20.3385   19.1481 C   0  0  0  0  0  0  0  0  0  0  0  0
  -24.3023  -22.4059   19.4212 C   0  0  0  0  0  0  0  0  0  1  0  0
  -26.8869  -19.4858   19.7959 C   0  0  0  0  0  0  0  0  0  0  0  0
  -18.6050  -26.0456   24.9384 C   0  0  1  0  0  0  0  0  0  0  0  0
  -17.3711  -22.7327   26.3066 C   0  0  2  0  0  0  0  0  0  0  0  0
  -18.6644  -27.3075   25.8448 C   0  0  0  0  0  0  0  0  0  0  0  0
  -25.8119  -11.5365   20.3295 N   0  0  0  0  0  0  0  0  0  0  0  0
  -26.2304  -12.8046   20.1782 N   0  0  0  0  0  0  0  0  0  0  0  0
  -18.8311  -26.0916   22.4745 N   0  0  0  0  0  0  0  0  0  0  0  0
  -29.9871  -13.4707   20.4061 N   0  0  0  0  0  0  0  0  0  0  0  0
  -25.5327  -15.0598   20.3730 N   0  0  0  0  0  0  0  0  0  0  0  0
  -21.8611  -12.7251   21.5832 N   0  0  0  0  0  0  0  0  0  0  0  0
  -18.6390  -28.4808   19.7266 N   0  0  0  0  0  0  0  0  0  0  0  0
  -17.8277  -24.9446   25.4971 N   0  0  0  0  0  0  0  0  0  0  0  0
  -30.2144  -15.5517   21.5067 N   0  0  0  0  0  0  0  0  0  0  0  0
  -17.6326  -21.3493   25.8182 N   0  3  0  0  0  0  0  0  0  0  0  0
  -22.7065  -14.8331   21.2663 O   0  0  0  0  0  0  0  0  0  0  0  0
  -19.7822  -28.3517   21.7512 O   0  0  0  0  0  0  0  0  0  0  0  0
  -25.8430  -21.7195   21.1328 O   0  0  0  0  0  0  0  0  0  0  0  0
  -16.8529  -26.7635   23.5096 O   0  0  0  0  0  0  0  0  0  0  0  0
  -19.5440  -23.3854   25.4761 O   0  0  0  0  0  0  0  0  0  0  0  0
  -31.9359  -14.7172   20.2430 O   0  0  0  0  0  0  0  0  0  0  0  0
  -21.4109   -7.1768   21.8037 O   0  0  0  0  0  0  0  0  0  0  0  0
  -23.9810  -23.4724   20.3131 O   0  0  0  0  0  0  0  0  0  1  0  0
  -28.0523  -20.2636   20.0406 O   0  0  0  0  0  0  0  0  0  0  0  0
  -23.6884   -3.1089   24.7480 F   0  0  0  0  0  0  0  0  0  0  0  0
  -20.3172   -6.3889   24.2173 F   0  0  0  0  0  0  0  0  0  0  0  0
  1  2  1  0  0  0  0
  1  5  2  0  0  0  0
  2  6  2  0  0  0  0
  3  8  2  0  0  0  0
  3 17  1  0  0  0  0
  4  9  1  0  0  0  0
  4 17  2  0  0  0  0
  5 19  1  0  0  0  0
  6 21  1  0  0  0  0
  7 10  2  0  0  0  0
  7 20  1  0  0  0  0
  8 26  1  0  0  0  0
  9 26  2  0  0  0  0
 10 27  1  0  0  0  0
 11 12  2  0  0  0  0
 11 28  1  0  0  0  0
 12 30  1  0  0  0  0
 13 22  1  0  0  0  0
 13 27  2  0  0  0  0
 14 23  1  0  0  0  0
 14 24  2  0  0  0  0
 15 23  2  0  0  0  0
 15 29  1  0  0  0  0
 16 30  2  0  0  0  0
 16 31  1  0  0  0  0
 17 32  1  0  0  0  0
 18 32  1  0  0  0  0
 18 33  2  0  0  0  0
 18 34  1  0  0  0  0
 19 21  2  0  0  0  0
 19 40  1  0  0  0  0
 20 22  2  0  0  0  0
 20 41  1  0  0  0  0
 21 49  1  0  0  0  0
 22 42  1  0  0  0  0
 23 60  1  0  0  0  0
 24 25  1  0  0  0  0
 24 52  1  0  0  0  0
 25 29  2  0  0  0  0
 25 59  1  0  0  0  0
 26 83  1  0  0  0  0
 27 84  1  0  0  0  0
 28 31  2  0  0  0  0
 28 83  1  0  0  0  0
 29 85  1  0  0  0  0
 30 86  1  0  0  0  0
 31 87  1  0  0  0  0
 32 67  2  0  0  0  0
 33 68  1  0  0  0  0
 33 71  1  0  0  0  0
 34 72  1  0  0  0  0
 34 77  2  0  0  0  0
 35 50  1  0  0  0  0
 35 73  1  0  0  0  0
 35 78  2  0  0  0  0
 36 61  1  0  0  0  0
 36 62  1  0  0  0  0
 36 79  2  0  0  0  0
 37 64  1  0  0  0  0
 37 69  1  0  0  0  0
 37 80  2  0  0  0  0
 38 65  1  0  0  0  0
 38 74  1  0  0  0  0
 38 81  2  0  0  0  0
 39 70  1  0  0  0  0
 39 75  1  0  0  0  0
 39 82  2  0  0  0  0
 40 43  1  0  0  0  0
 41 50  1  0  0  0  0
 42 69  1  0  0  0  0
 43 45  1  0  0  0  0
 44 46  1  0  0  0  0
 44 47  1  0  0  0  0
 45 49  1  0  0  0  0
 46 51  1  0  0  0  0
 47 70  1  0  0  0  0
 48 51  1  0  0  0  0
 48 70  1  0  0  0  0
 49 73  1  0  0  0  0
 50 69  1  0  0  0  0
 51 68  1  0  0  0  0
 53 59  1  0  0  0  0
 54 65  1  0  0  0  0
 55 66  1  0  0  0  0
 56 66  1  0  0  0  0
 57 66  1  0  0  0  0
 58 76  1  0  0  0  0
 60 75  1  0  0  0  0
 61 63  1  0  0  0  0
 62 84  1  0  0  0  0
 63 85  1  0  0  0  0
 64 66  1  0  0  0  0
 64 74  1  0  0  0  0
 65 76  1  0  0  0  0
 67 68  1  0  0  0  0
M  CHG  1  76   1
M  ISO  4  39 100  62 101  75 100  84 101
M  END
> <Batch ID>
0134

> <Smiles>
CCc1c(C)cc(C[100NH:0][100C:0](=O)N2CCCC(n3nc(-c4ccc(Oc5ccc(F)cc5F)cc4)c(C(N)=O)c3N)C2)cc1OCCC(=O)[101CH2:1][101O:1]c1ccc2c(c1)CN(C(=O)C(NC(=O)C(C)NC)C(C)(C)C)C(C(=O)NC1CCCc3ccccc31)C2

> <Shape>
0.256

> <Color>
0.197

> <Negative vol penalty>
0.000

$$$$

  -OEChem-04052302333D

 87 95  0     1  0  0  0  0  0999 V2000
  -28.7523  -24.0448   17.7942 C   0  0  0  0  0  0  0  0  0  0  0  0
  -27.5537  -24.2374   18.4737 C   0  0  0  0  0  0  0  0  0  0  0  0
  -24.4490  -13.2129   21.3809 C   0  0  0  0  0  0  0  0  0  0  0  0
  -25.8444  -13.1504   19.4096 C   0  0  0  0  0  0  0  0  0  0  0  0
  -29.9036  -24.7115   18.2113 C   0  0  0  0  0  0  0  0  0  0  0  0
  -27.5060  -25.0959   19.5715 C   0  0  0  0  0  0  0  0  0  0  0  0
  -23.4723  -28.1559   19.4707 C   0  0  0  0  0  0  0  0  0  0  0  0
  -24.5853  -11.8319   21.5212 C   0  0  0  0  0  0  0  0  0  0  0  0
  -25.9808  -11.7693   19.5500 C   0  0  0  0  0  0  0  0  0  0  0  0
  -22.2485  -27.6091   19.8544 C   0  0  0  0  0  0  0  0  0  0  0  0
  -23.2702   -9.0456   20.1314 C   0  0  0  0  0  0  0  0  0  0  0  0
  -22.1206   -8.3068   20.4109 C   0  0  0  0  0  0  0  0  0  0  0  0
  -22.4914  -28.6108   22.0354 C   0  0  0  0  0  0  0  0  0  0  0  0
  -26.3508  -23.6381   23.6871 C   0  0  0  0  0  0  0  0  0  0  0  0
  -24.0958  -22.8123   23.4229 C   0  0  0  0  0  0  0  0  0  0  0  0
  -23.1191   -7.5323   22.4702 C   0  0  0  0  0  0  0  0  0  0  0  0
  -25.0785  -13.8722   20.3250 C   0  0  0  0  0  0  0  0  0  0  0  0
  -23.7429  -16.0208   19.9974 C   0  0  0  0  0  0  0  0  0  0  0  0
  -29.8679  -25.5861   19.3088 C   0  0  0  0  0  0  0  0  0  0  0  0
  -24.2212  -28.9265   20.3716 C   0  0  0  0  0  0  0  0  0  0  0  0
  -28.6582  -25.7739   20.0045 C   0  0  0  0  0  0  0  0  0  0  0  0
  -23.7232  -29.1684   21.6599 C   0  0  0  0  0  0  0  0  0  0  0  0
  -25.8980  -24.5786   24.6123 C   0  0  0  0  0  0  0  0  0  0  0  0
  -24.5441  -24.6359   24.9429 C   0  0  0  0  0  0  0  0  0  0  0  0
  -25.4497  -22.7550   23.0923 C   0  0  0  0  0  0  0  0  0  0  0  0
  -25.3512  -11.1101   20.6058 C   0  0  0  0  0  0  0  0  0  0  0  0
  -21.7593  -27.8341   21.1378 C   0  0  0  0  0  0  0  0  0  0  0  0
  -24.3443   -9.0278   21.0212 C   0  0  0  0  0  0  0  0  0  0  0  0
  -22.0450   -7.5502   21.5803 C   0  0  0  0  0  0  0  0  0  0  0  0
  -24.2687   -8.2712   22.1906 C   0  0  0  0  0  0  0  0  0  0  0  0
  -23.6430  -23.7527   24.3481 C   0  0  0  0  0  0  0  0  0  0  0  0
  -24.9377  -15.2987   20.1792 C   0  0  0  0  0  0  0  0  0  0  0  0
  -24.1434  -17.3320   19.9145 C   0  0  0  0  0  0  0  0  0  0  0  0
  -22.3919  -15.5485   19.9114 C   0  0  0  0  0  0  0  0  0  0  0  0
  -27.0945  -28.6580   21.7043 C   0  0  0  0  0  0  0  0  0  0  0  0
  -26.4117  -31.6163   22.8464 C   0  0  0  0  0  0  0  0  0  0  0  0
  -24.0392  -33.9195   23.6909 C   0  0  0  0  0  0  0  0  0  0  0  0
  -27.2208  -21.6083   21.7158 C   0  0  0  0  0  0  0  0  0  0  0  0
  -31.1487  -26.2480   19.7516 C   0  0  0  0  0  0  0  0  0  0  0  0
  -25.5268  -29.5316   19.9337 C   0  0  0  0  0  0  0  0  0  0  0  0
  -24.4790  -30.0056   22.6580 C   0  0  0  0  0  0  0  0  0  0  0  0
  -30.9298  -27.4290   20.6937 C   0  0  0  0  0  0  0  0  0  0  0  0
  -28.7659  -19.3409   19.4467 C   0  0  0  0  0  0  0  0  0  0  0  0
  -29.9286  -27.0632   21.7848 C   0  0  0  0  0  0  0  0  0  0  0  0
  -27.8094  -18.1466   19.4200 C   0  0  0  0  0  0  0  0  0  0  0  0
  -28.8613  -19.9601   20.8400 C   0  0  0  0  0  0  0  0  0  0  0  0
  -26.6179  -19.1252   21.4225 C   0  0  0  0  0  0  0  0  0  0  0  0
  -28.5608  -26.7162   21.1846 C   0  0  1  0  0  0  0  0  0  0  0  0
  -26.4485  -29.8728   21.1005 C   0  0  1  0  0  0  0  0  0  0  0  0
  -26.4390  -18.5084   20.0256 C   0  0  2  0  0  0  0  0  0  0  0  0
  -26.8869  -25.5108   25.2336 C   0  0  0  0  0  0  0  0  0  0  0  0
  -23.3974  -26.8412   25.2715 C   0  0  0  0  0  0  0  0  0  0  0  0
  -23.0911  -36.1248   24.4226 C   0  0  0  0  0  0  0  0  0  0  0  0
  -27.0309  -30.5457   25.6357 C   0  0  0  0  0  0  0  0  0  0  0  0
  -25.8697  -32.5495   26.5867 C   0  0  0  0  0  0  0  0  0  0  0  0
  -27.9096  -32.8425   25.1812 C   0  0  0  0  0  0  0  0  0  0  0  0
  -17.9922  -26.0921   22.1423 C   0  0  0  0  0  0  0  0  0  0  0  0
  -18.8161  -23.9776   21.0983 C   0  0  0  0  0  0  0  0  0  0  0  0
  -23.9550  -34.9366   20.9129 C   0  0  0  0  0  0  0  0  0  0  0  0
  -24.0832  -25.6551   25.9390 C   0  0  0  0  0  0  0  0  0  0  0  0
  -19.9341  -24.9116   23.1900 C   0  0  0  0  0  0  0  0  0  0  0  0
  -20.1821  -26.0694   20.9045 C   0  0  0  0  0  0  0  0  0  1  0  0
  -21.2424  -24.1259   23.0788 C   0  0  0  0  0  0  0  0  0  0  0  0
  -25.7375  -32.1547   24.0852 C   0  0  1  0  0  0  0  0  0  0  0  0
  -23.9095  -35.3970   23.3674 C   0  0  2  0  0  0  0  0  0  0  0  0
  -26.6234  -32.0057   25.3543 C   0  0  0  0  0  0  0  0  0  0  0  0
  -19.2539  -25.2572   21.8333 C   0  0  0  0  0  0  0  0  0  0  0  0
  -26.0163  -16.0859   20.2098 N   0  0  0  0  0  0  0  0  0  0  0  0
  -25.5008  -17.3161   20.0460 N   0  0  0  0  0  0  0  0  0  0  0  0
  -25.7536  -30.5701   22.1845 N   0  0  0  0  0  0  0  0  0  0  0  0
  -27.5256  -20.2808   21.3479 N   0  0  0  0  0  0  0  0  0  0  0  0
  -23.4634  -18.4854   19.7424 N   0  0  0  0  0  0  0  0  0  0  0  0
  -21.8797  -15.2152   18.6501 N   0  0  0  0  0  0  0  0  0  0  0  0
  -25.9106  -21.7990   22.1534 N   0  0  0  0  0  0  0  0  0  0  0  0
  -27.8514  -27.9216   20.8130 N   0  0  0  0  0  0  0  0  0  0  0  0
  -25.3590  -33.5299   23.7789 N   0  0  0  0  0  0  0  0  0  0  0  0
  -23.2442  -35.5817   22.0467 N   0  3  0  0  0  0  0  0  0  0  0  0
  -21.6553  -15.4413   20.9211 O   0  0  0  0  0  0  0  0  0  0  0  0
  -26.9203  -28.4080   22.8913 O   0  0  0  0  0  0  0  0  0  0  0  0
  -27.4793  -32.1107   22.4756 O   0  0  0  0  0  0  0  0  0  0  0  0
  -23.0671  -33.1853   23.8532 O   0  0  0  0  0  0  0  0  0  0  0  0
  -28.0523  -22.5149   21.6220 O   0  0  0  0  0  0  0  0  0  0  0  0
  -25.4846   -9.7624   20.7426 O   0  0  0  0  0  0  0  0  0  0  0  0
  -20.5654  -27.3010   21.5150 O   0  0  0  0  0  0  0  0  0  1  0  0
  -20.9404   -6.8419   21.8494 F   0  0  0  0  0  0  0  0  0  0  0  0
  -25.2969   -8.2510   23.0498 F   0  0  0  0  0  0  0  0  0  0  0  0
  -21.9197  -23.7823   24.7320 S   0  0  0  0  0  0  0  0  0  0  0  0
  1  2  1  0  0  0  0
  1  5  2  0  0  0  0
  2  6  2  0  0  0  0
  3  8  2  0  0  0  0
  3 17  1  0  0  0  0
  4  9  1  0  0  0  0
  4 17  2  0  0  0  0
  5 19  1  0  0  0  0
  6 21  1  0  0  0  0
  7 10  2  0  0  0  0
  7 20  1  0  0  0  0
  8 26  1  0  0  0  0
  9 26  2  0  0  0  0
 10 27  1  0  0  0  0
 11 12  2  0  0  0  0
 11 28  1  0  0  0  0
 12 29  1  0  0  0  0
 13 22  1  0  0  0  0
 13 27  2  0  0  0  0
 14 23  2  0  0  0  0
 14 25  1  0  0  0  0
 15 25  2  0  0  0  0
 15 31  1  0  0  0  0
 16 29  2  0  0  0  0
 16 30  1  0  0  0  0
 17 32  1  0  0  0  0
 18 32  1  0  0  0  0
 18 33  2  0  0  0  0
 18 34  1  0  0  0  0
 19 21  2  0  0  0  0
 19 39  1  0  0  0  0
 20 22  2  0  0  0  0
 20 40  1  0  0  0  0
 21 48  1  0  0  0  0
 22 41  1  0  0  0  0
 23 24  1  0  0  0  0
 23 51  1  0  0  0  0
 24 31  2  0  0  0  0
 24 60  1  0  0  0  0
 25 74  1  0  0  0  0
 26 83  1  0  0  0  0
 27 84  1  0  0  0  0
 28 30  2  0  0  0  0
 28 83  1  0  0  0  0
 29 85  1  0  0  0  0
 30 86  1  0  0  0  0
 31 87  1  0  0  0  0
 32 68  2  0  0  0  0
 33 69  1  0  0  0  0
 33 72  1  0  0  0  0
 34 73  1  0  0  0  0
 34 78  2  0  0  0  0
 35 49  1  0  0  0  0
 35 75  1  0  0  0  0
 35 79  2  0  0  0  0
 36 64  1  0  0  0  0
 36 70  1  0  0  0  0
 36 80  2  0  0  0  0
 37 65  1  0  0  0  0
 37 76  1  0  0  0  0
 37 81  2  0  0  0  0
 38 71  1  0  0  0  0
 38 74  1  0  0  0  0
 38 82  2  0  0  0  0
 39 42  1  0  0  0  0
 40 49  1  0  0  0  0
 41 70  1  0  0  0  0
 42 44  1  0  0  0  0
 43 45  1  0  0  0  0
 43 46  1  0  0  0  0
 44 48  1  0  0  0  0
 45 50  1  0  0  0  0
 46 71  1  0  0  0  0
 47 50  1  0  0  0  0
 47 71  1  0  0  0  0
 48 75  1  0  0  0  0
 49 70  1  0  0  0  0
 50 69  1  0  0  0  0
 52 60  1  0  0  0  0
 53 65  1  0  0  0  0
 54 66  1  0  0  0  0
 55 66  1  0  0  0  0
 56 66  1  0  0  0  0
 57 67  1  0  0  0  0
 58 67  1  0  0  0  0
 59 77  1  0  0  0  0
 61 63  1  0  0  0  0
 61 67  1  0  0  0  0
 62 67  1  0  0  0  0
 62 84  1  0  0  0  0
 63 87  1  0  0  0  0
 64 66  1  0  0  0  0
 64 76  1  0  0  0  0
 65 77  1  0  0  0  0
 68 69  1  0  0  0  0
M  CHG  1  77   1
M  ISO  4  38 100  62 101  74 100  84 101
M  END
> <Batch ID>
0134

> <Smiles>
CCc1c(C)cc([100NH:0][100C:0](=O)N2CCCC(n3nc(-c4ccc(Oc5ccc(F)cc5F)cc4)c(C(N)=O)c3N)C2)cc1SCCC(C)(C)[101CH2:1][101O:1]c1ccc2c(c1)CN(C(=O)C(NC(=O)C(C)NC)C(C)(C)C)C(C(=O)NC1CCCc3ccccc31)C2

> <Shape>
0.318

> <Color>
0.080

> <Negative vol penalty>
0.000

$$$$

  -OEChem-04052302333D

 84 92  0     1  0  0  0  0  0999 V2000
  -15.7134  -26.5417   20.8655 C   0  0  0  0  0  0  0  0  0  0  0  0
  -15.8453  -25.2095   20.4869 C   0  0  0  0  0  0  0  0  0  0  0  0
  -29.1375  -11.1067   20.3722 C   0  0  0  0  0  0  0  0  0  0  0  0
  -27.7751  -23.6649   20.8233 C   0  0  0  0  0  0  0  0  0  0  0  0
  -28.6554  -23.4800   18.5810 C   0  0  0  0  0  0  0  0  0  0  0  0
  -16.8386  -27.2716   21.2463 C   0  0  0  0  0  0  0  0  0  0  0  0
  -17.1027  -24.6068   20.4879 C   0  0  0  0  0  0  0  0  0  0  0  0
  -20.2593  -18.2778   21.6270 C   0  0  0  0  0  0  0  0  0  0  0  0
  -30.0302  -11.9186   19.6725 C   0  0  0  0  0  0  0  0  0  0  0  0
  -27.7630  -11.2758   20.2052 C   0  0  0  0  0  0  0  0  0  0  0  0
  -27.8258  -25.0555   20.7286 C   0  0  0  0  0  0  0  0  0  0  0  0
  -28.7061  -24.8708   18.4863 C   0  0  0  0  0  0  0  0  0  0  0  0
  -21.1408  -17.3882   21.0145 C   0  0  0  0  0  0  0  0  0  0  0  0
  -25.9932  -27.5250   19.3229 C   0  0  0  0  0  0  0  0  0  0  0  0
  -24.8850  -28.2458   19.7677 C   0  0  0  0  0  0  0  0  0  0  0  0
  -23.0028  -18.7243   21.7673 C   0  0  0  0  0  0  0  0  0  0  0  0
  -28.1738  -13.0688   18.6389 C   0  0  0  0  0  0  0  0  0  0  0  0
  -26.2730  -29.3797   21.3879 C   0  0  0  0  0  0  0  0  0  0  0  0
  -28.1900  -22.8771   19.7495 C   0  0  0  0  0  0  0  0  0  0  0  0
  -27.0637  -20.6025   19.4939 C   0  0  0  0  0  0  0  0  0  0  0  0
  -18.1091  -26.6748   21.2612 C   0  0  0  0  0  0  0  0  0  0  0  0
  -20.7432  -19.4052   22.3061 C   0  0  0  0  0  0  0  0  0  0  0  0
  -18.2462  -25.3298   20.8680 C   0  0  0  0  0  0  0  0  0  0  0  0
  -22.1255  -19.6254   22.3898 C   0  0  0  0  0  0  0  0  0  0  0  0
  -29.5484  -12.8996   18.8059 C   0  0  0  0  0  0  0  0  0  0  0  0
  -28.2913  -25.6585   19.5601 C   0  0  0  0  0  0  0  0  0  0  0  0
  -22.5127  -17.6129   21.0821 C   0  0  0  0  0  0  0  0  0  0  0  0
  -27.2812  -12.2568   19.3386 C   0  0  0  0  0  0  0  0  0  0  0  0
  -27.2413  -27.7314   19.9106 C   0  0  0  0  0  0  0  0  0  0  0  0
  -25.0249  -29.1732   20.8002 C   0  0  0  0  0  0  0  0  0  0  0  0
  -27.3812  -28.6588   20.9430 C   0  0  0  0  0  0  0  0  0  0  0  0
  -28.1384  -21.4404   19.8470 C   0  0  0  0  0  0  0  0  0  0  0  0
  -27.5110  -19.3343   19.7731 C   0  0  0  0  0  0  0  0  0  0  0  0
  -25.7762  -20.9403   18.9611 C   0  0  0  0  0  0  0  0  0  0  0  0
  -20.4242  -22.5476   21.9488 C   0  0  0  0  0  0  0  0  0  0  0  0
  -24.1694  -14.4587   20.3984 C   0  0  0  0  0  0  0  0  0  0  0  0
  -22.0685  -22.6396   24.7434 C   0  0  0  0  0  0  0  0  0  0  0  0
  -24.2298  -21.0945   26.8855 C   0  0  0  0  0  0  0  0  0  0  0  0
  -31.4984  -15.4332   19.6059 C   0  0  0  0  0  0  0  0  0  0  0  0
  -19.3027  -27.5176   21.6350 C   0  0  0  0  0  0  0  0  0  0  0  0
  -19.7805  -20.3409   22.9843 C   0  0  0  0  0  0  0  0  0  0  0  0
  -22.6969  -20.8098   23.1241 C   0  0  0  0  0  0  0  0  0  0  0  0
  -20.5467  -26.6980   21.9682 C   0  0  0  0  0  0  0  0  0  0  0  0
  -31.6093  -17.7687   22.2910 C   0  0  0  0  0  0  0  0  0  0  0  0
  -20.7686  -25.6138   20.9184 C   0  0  0  0  0  0  0  0  0  0  0  0
  -30.6327  -18.8654   21.8625 C   0  0  0  0  0  0  0  0  0  0  0  0
  -32.3791  -17.2017   21.1002 C   0  0  0  0  0  0  0  0  0  0  0  0
  -30.5595  -17.8233   19.5587 C   0  0  0  0  0  0  0  0  0  0  0  0
  -19.5898  -24.6337   20.8799 C   0  0  1  0  0  0  0  0  0  0  0  0
  -20.3600  -21.7339   23.2103 C   0  0  1  0  0  0  0  0  0  0  0  0
  -29.7197  -18.3870   20.7176 C   0  0  2  0  0  0  0  0  0  0  0  0
  -25.4173  -21.4332   29.0701 C   0  0  0  0  0  0  0  0  0  0  0  0
  -24.0401  -24.5249   23.3766 C   0  0  0  0  0  0  0  0  0  0  0  0
  -25.6554  -24.0705   25.2348 C   0  0  0  0  0  0  0  0  0  0  0  0
  -23.4603  -25.1478   25.7283 C   0  0  0  0  0  0  0  0  0  0  0  0
  -22.8940  -18.7533   28.1074 C   0  0  0  0  0  0  0  0  0  0  0  0
  -30.5029  -13.7680   18.0582 C   0  0  0  0  0  0  0  0  0  0  0  0
  -23.8582  -12.9731   20.2919 C   0  0  0  0  0  0  0  0  0  0  0  0
  -22.9667  -15.3821   20.3939 C   0  0  0  0  0  0  0  0  0  1  0  0
  -25.1060  -12.1020   20.2874 C   0  0  0  0  0  0  0  0  0  0  0  0
  -23.5285  -22.6939   25.1235 C   0  0  1  0  0  0  0  0  0  0  0  0
  -24.1772  -20.8778   28.3871 C   0  0  2  0  0  0  0  0  0  0  0  0
  -24.1605  -24.0879   24.8502 C   0  0  0  0  0  0  0  0  0  0  0  0
  -29.1893  -20.7617   20.3149 N   0  0  0  0  0  0  0  0  0  0  0  0
  -28.7770  -19.4839   20.2579 N   0  0  0  0  0  0  0  0  0  0  0  0
  -21.7146  -21.6993   23.7655 N   0  0  0  0  0  0  0  0  0  0  0  0
  -31.4552  -16.7648   20.0507 N   0  0  0  0  0  0  0  0  0  0  0  0
  -26.9410  -18.1169   19.6489 N   0  0  0  0  0  0  0  0  0  0  0  0
  -25.4804  -22.2914   18.7344 N   0  0  0  0  0  0  0  0  0  0  0  0
  -19.6690  -23.7042   21.9863 N   0  0  0  0  0  0  0  0  0  0  0  0
  -23.6039  -22.2663   26.5163 N   0  0  0  0  0  0  0  0  0  0  0  0
  -30.5845  -15.1006   18.6134 N   0  0  0  0  0  0  0  0  0  0  0  0
  -24.0813  -19.4234   28.6975 N   0  3  0  0  0  0  0  0  0  0  0  0
  -24.9075  -20.0711   18.7093 O   0  0  0  0  0  0  0  0  0  0  0  0
  -21.1093  -22.1558   21.0114 O   0  0  0  0  0  0  0  0  0  0  0  0
  -25.3173  -14.8916   20.4855 O   0  0  0  0  0  0  0  0  0  0  0  0
  -21.2703  -23.3983   25.2991 O   0  0  0  0  0  0  0  0  0  0  0  0
  -24.7751  -20.3052   26.1173 O   0  0  0  0  0  0  0  0  0  0  0  0
  -32.2889  -14.6009   20.0633 O   0  0  0  0  0  0  0  0  0  0  0  0
  -28.3406  -27.0155   19.4672 O   0  0  0  0  0  0  0  0  0  0  0  0
  -23.3753  -16.7464   20.4846 O   0  0  0  0  0  0  0  0  0  1  0  0
  -25.9310  -12.4224   19.1742 O   0  0  0  0  0  0  0  0  0  0  0  0
  -23.9609  -29.8665   21.2263 F   0  0  0  0  0  0  0  0  0  0  0  0
  -28.5779  -28.8623   21.5107 F   0  0  0  0  0  0  0  0  0  0  0  0
  1  2  1  0  0  0  0
  1  6  2  0  0  0  0
  2  7  2  0  0  0  0
  3  9  1  0  0  0  0
  3 10  2  0  0  0  0
  4 11  2  0  0  0  0
  4 19  1  0  0  0  0
  5 12  1  0  0  0  0
  5 19  2  0  0  0  0
  6 21  1  0  0  0  0
  7 23  1  0  0  0  0
  8 13  2  0  0  0  0
  8 22  1  0  0  0  0
  9 25  2  0  0  0  0
 10 28  1  0  0  0  0
 11 26  1  0  0  0  0
 12 26  2  0  0  0  0
 13 27  1  0  0  0  0
 14 15  2  0  0  0  0
 14 29  1  0  0  0  0
 15 30  1  0  0  0  0
 16 24  1  0  0  0  0
 16 27  2  0  0  0  0
 17 25  1  0  0  0  0
 17 28  2  0  0  0  0
 18 30  2  0  0  0  0
 18 31  1  0  0  0  0
 19 32  1  0  0  0  0
 20 32  1  0  0  0  0
 20 33  2  0  0  0  0
 20 34  1  0  0  0  0
 21 23  2  0  0  0  0
 21 40  1  0  0  0  0
 22 24  2  0  0  0  0
 22 41  1  0  0  0  0
 23 49  1  0  0  0  0
 24 42  1  0  0  0  0
 25 57  1  0  0  0  0
 26 80  1  0  0  0  0
 27 81  1  0  0  0  0
 28 82  1  0  0  0  0
 29 31  2  0  0  0  0
 29 80  1  0  0  0  0
 30 83  1  0  0  0  0
 31 84  1  0  0  0  0
 32 64  2  0  0  0  0
 33 65  1  0  0  0  0
 33 68  1  0  0  0  0
 34 69  1  0  0  0  0
 34 74  2  0  0  0  0
 35 50  1  0  0  0  0
 35 70  1  0  0  0  0
 35 75  2  0  0  0  0
 36 58  1  0  0  0  0
 36 59  1  0  0  0  0
 36 76  2  0  0  0  0
 37 61  1  0  0  0  0
 37 66  1  0  0  0  0
 37 77  2  0  0  0  0
 38 62  1  0  0  0  0
 38 71  1  0  0  0  0
 38 78  2  0  0  0  0
 39 67  1  0  0  0  0
 39 72  1  0  0  0  0
 39 79  2  0  0  0  0
 40 43  1  0  0  0  0
 41 50  1  0  0  0  0
 42 66  1  0  0  0  0
 43 45  1  0  0  0  0
 44 46  1  0  0  0  0
 44 47  1  0  0  0  0
 45 49  1  0  0  0  0
 46 51  1  0  0  0  0
 47 67  1  0  0  0  0
 48 51  1  0  0  0  0
 48 67  1  0  0  0  0
 49 70  1  0  0  0  0
 50 66  1  0  0  0  0
 51 65  1  0  0  0  0
 52 62  1  0  0  0  0
 53 63  1  0  0  0  0
 54 63  1  0  0  0  0
 55 63  1  0  0  0  0
 56 73  1  0  0  0  0
 57 72  1  0  0  0  0
 58 60  1  0  0  0  0
 59 81  1  0  0  0  0
 60 82  1  0  0  0  0
 61 63  1  0  0  0  0
 61 71  1  0  0  0  0
 62 73  1  0  0  0  0
 64 65  1  0  0  0  0
M  CHG  1  73   1
M  ISO  4  39 100  59 101  72 100  81 101
M  END
> <Batch ID>
0134

> <Smiles>
CNC(C)C(=O)NC(C(=O)N1Cc2cc([101O:1][101CH2:1]C(=O)CCOc3cccc(C[100NH:0][100C:0](=O)N4CCCC(n5nc(-c6ccc(Oc7ccc(F)cc7F)cc6)c(C(N)=O)c5N)C4)c3)ccc2CC1C(=O)NC1CCCc2ccccc21)C(C)(C)C

> <Shape>
0.222

> <Color>
0.091

> <Negative vol penalty>
0.000

$$$$

  -OEChem-04052302333D

 86 94  0     1  0  0  0  0  0999 V2000
  -29.6951  -23.6864   25.0744 C   0  0  0  0  0  0  0  0  0  0  0  0
  -28.4441  -23.5606   24.4790 C   0  0  0  0  0  0  0  0  0  0  0  0
  -27.5590  -26.3003   18.6548 C   0  0  0  0  0  0  0  0  0  0  0  0
  -28.4226  -25.8554   20.8668 C   0  0  0  0  0  0  0  0  0  0  0  0
  -30.7351  -22.8391   24.6943 C   0  0  0  0  0  0  0  0  0  0  0  0
  -28.2326  -22.5881   23.5023 C   0  0  0  0  0  0  0  0  0  0  0  0
  -23.8862  -20.0766   24.1705 C   0  0  0  0  0  0  0  0  0  0  0  0
  -27.9254  -25.0157   18.2533 C   0  0  0  0  0  0  0  0  0  0  0  0
  -28.7890  -24.5708   20.4654 C   0  0  0  0  0  0  0  0  0  0  0  0
  -22.7130  -20.7180   23.7756 C   0  0  0  0  0  0  0  0  0  0  0  0
  -26.7304  -21.8692   18.5764 C   0  0  0  0  0  0  0  0  0  0  0  0
  -25.8049  -21.1324   17.8374 C   0  0  0  0  0  0  0  0  0  0  0  0
  -22.7089  -19.4383   21.7307 C   0  0  0  0  0  0  0  0  0  0  0  0
  -17.5389  -27.0209   23.0098 C   0  0  0  0  0  0  0  0  0  0  0  0
  -18.2202  -29.3130   23.3549 C   0  0  0  0  0  0  0  0  0  0  0  0
  -19.4344  -27.9121   21.8056 C   0  0  0  0  0  0  0  0  0  0  0  0
  -27.3784  -20.9895   16.0096 C   0  0  0  0  0  0  0  0  0  0  0  0
  -27.8077  -26.7202   19.9615 C   0  0  0  0  0  0  0  0  0  0  0  0
  -27.8776  -29.2671   19.8350 C   0  0  0  0  0  0  0  0  0  0  0  0
  -30.5336  -21.8494   23.7193 C   0  0  0  0  0  0  0  0  0  0  0  0
  -24.4865  -19.1175   23.3421 C   0  0  0  0  0  0  0  0  0  0  0  0
  -29.2712  -21.7277   23.1078 C   0  0  0  0  0  0  0  0  0  0  0  0
  -23.8882  -18.7843   22.1185 C   0  0  0  0  0  0  0  0  0  0  0  0
  -17.3614  -28.2519   23.6413 C   0  0  0  0  0  0  0  0  0  0  0  0
  -18.5755  -26.8510   22.0920 C   0  0  0  0  0  0  0  0  0  0  0  0
  -19.2568  -29.1431   22.4370 C   0  0  0  0  0  0  0  0  0  0  0  0
  -28.5403  -24.1510   19.1586 C   0  0  0  0  0  0  0  0  0  0  0  0
  -22.1257  -20.4010   22.5542 C   0  0  0  0  0  0  0  0  0  0  0  0
  -27.9798  -22.1663   18.0320 C   0  0  0  0  0  0  0  0  0  0  0  0
  -26.1289  -20.6925   16.5540 C   0  0  0  0  0  0  0  0  0  0  0  0
  -28.3038  -21.7264   16.7486 C   0  0  0  0  0  0  0  0  0  0  0  0
  -27.4299  -28.0473   20.3766 C   0  0  0  0  0  0  0  0  0  0  0  0
  -27.2290  -30.2283   20.5711 C   0  0  0  0  0  0  0  0  0  0  0  0
  -28.7976  -29.5097   18.7624 C   0  0  0  0  0  0  0  0  0  0  0  0
  -27.2873  -18.8715   21.8592 C   0  0  0  0  0  0  0  0  0  0  0  0
  -26.2015  -15.9022   21.1334 C   0  0  0  0  0  0  0  0  0  0  0  0
  -23.5334  -13.8200   20.6948 C   0  0  0  0  0  0  0  0  0  0  0  0
  -22.1124  -30.2199   23.6810 C   0  0  0  0  0  0  0  0  0  0  0  0
  -31.7010  -20.9880   23.3074 C   0  0  0  0  0  0  0  0  0  0  0  0
  -25.7374  -18.4153   23.7946 C   0  0  0  0  0  0  0  0  0  0  0  0
  -24.4819  -17.7471   21.2019 C   0  0  0  0  0  0  0  0  0  0  0  0
  -31.2920  -19.7373   22.5335 C   0  0  0  0  0  0  0  0  0  0  0  0
  -25.3627  -30.9974   24.9089 C   0  0  0  0  0  0  0  0  0  0  0  0
  -30.2765  -20.0880   21.4506 C   0  0  0  0  0  0  0  0  0  0  0  0
  -26.3015  -30.4396   23.8377 C   0  0  0  0  0  0  0  0  0  0  0  0
  -24.1370  -30.1077   25.1040 C   0  0  0  0  0  0  0  0  0  0  0  0
  -24.3228  -29.2538   22.7996 C   0  0  0  0  0  0  0  0  0  0  0  0
  -28.9959  -20.6688   22.0624 C   0  0  1  0  0  0  0  0  0  0  0  0
  -26.5426  -17.8262   22.6406 C   0  0  1  0  0  0  0  0  0  0  0  0
  -25.5459  -30.1462   22.5276 C   0  0  2  0  0  0  0  0  0  0  0  0
  -16.2526  -28.4330   24.6223 C   0  0  0  0  0  0  0  0  0  0  0  0
  -21.9659  -23.8285   20.1699 C   0  0  0  0  0  0  0  0  0  0  0  0
  -22.9594  -11.4593   20.0664 C   0  0  0  0  0  0  0  0  0  0  0  0
  -26.7731  -16.5451   18.2059 C   0  0  0  0  0  0  0  0  0  0  0  0
  -25.3343  -14.5974   17.5697 C   0  0  0  0  0  0  0  0  0  0  0  0
  -27.4067  -14.2301   18.9086 C   0  0  0  0  0  0  0  0  0  0  0  0
  -18.5395  -22.4761   21.4968 C   0  0  0  0  0  0  0  0  0  0  0  0
  -22.2431  -13.3148   23.3099 C   0  0  0  0  0  0  0  0  0  0  0  0
  -18.7680  -25.5191   21.4080 C   0  0  0  0  0  0  0  0  0  0  0  0
  -20.1750  -30.2780   22.1311 C   0  0  0  0  0  0  0  0  0  0  0  0
  -20.5901  -23.1765   20.2389 C   0  0  0  0  0  0  0  0  0  0  0  0
  -19.7073  -24.6090   22.2119 C   0  0  0  0  0  0  0  0  0  0  0  0
  -20.7791  -22.3597   22.6319 C   0  0  0  0  0  0  0  0  0  1  0  0
  -25.3974  -15.3044   20.0043 C   0  0  1  0  0  0  0  0  0  0  0  0
  -23.2538  -12.4192   21.2086 C   0  0  2  0  0  0  0  0  0  0  0  0
  -26.2175  -15.1902   18.6883 C   0  0  0  0  0  0  0  0  0  0  0  0
  -19.9111  -23.1755   21.6376 C   0  0  1  0  0  0  0  0  0  0  0  0
  -26.5639  -28.2153   21.3795 N   0  0  0  0  0  0  0  0  0  0  0  0
  -26.4623  -29.5521   21.4740 N   0  0  0  0  0  0  0  0  0  0  0  0
  -25.7088  -17.0929   21.6859 N   0  0  0  0  0  0  0  0  0  0  0  0
  -23.4650  -29.8693   23.8243 N   0  0  0  0  0  0  0  0  0  0  0  0
  -27.2453  -31.5775   20.5278 N   0  0  0  0  0  0  0  0  0  0  0  0
  -30.1598  -29.6371   19.0664 N   0  0  0  0  0  0  0  0  0  0  0  0
  -28.1756  -19.6123   22.6152 N   0  0  0  0  0  0  0  0  0  0  0  0
  -24.8817  -14.0325   20.4992 N   0  0  0  0  0  0  0  0  0  0  0  0
  -21.5540  -29.9663   22.4342 N   0  0  0  0  0  0  0  0  0  0  0  0
  -22.0810  -12.4293   22.1281 N   0  3  0  0  0  0  0  0  0  0  0  0
  -28.4207  -29.6269   17.5717 O   0  0  0  0  0  0  0  0  0  0  0  0
  -27.0729  -18.9957   20.6591 O   0  0  0  0  0  0  0  0  0  0  0  0
  -27.2252  -15.3300   21.5159 O   0  0  0  0  0  0  0  0  0  0  0  0
  -22.6444  -14.6421   20.4841 O   0  0  0  0  0  0  0  0  0  0  0  0
  -21.4527  -30.7268   24.5948 O   0  0  0  0  0  0  0  0  0  0  0  0
  -28.8978  -22.8973   18.7673 O   0  0  0  0  0  0  0  0  0  0  0  0
  -20.9809  -21.0261   22.1661 O   0  0  0  0  0  0  0  0  0  1  0  0
  -25.2407  -19.9836   15.8450 F   0  0  0  0  0  0  0  0  0  0  0  0
  -29.5030  -22.0077   16.2208 F   0  0  0  0  0  0  0  0  0  0  0  0
  1  2  1  0  0  0  0
  1  5  2  0  0  0  0
  2  6  2  0  0  0  0
  3  8  2  0  0  0  0
  3 18  1  0  0  0  0
  4  9  1  0  0  0  0
  4 18  2  0  0  0  0
  5 20  1  0  0  0  0
  6 22  1  0  0  0  0
  7 10  2  0  0  0  0
  7 21  1  0  0  0  0
  8 27  1  0  0  0  0
  9 27  2  0  0  0  0
 10 28  1  0  0  0  0
 11 12  2  0  0  0  0
 11 29  1  0  0  0  0
 12 30  1  0  0  0  0
 13 23  1  0  0  0  0
 13 28  2  0  0  0  0
 14 24  2  0  0  0  0
 14 25  1  0  0  0  0
 15 24  1  0  0  0  0
 15 26  2  0  0  0  0
 16 25  2  0  0  0  0
 16 26  1  0  0  0  0
 17 30  2  0  0  0  0
 17 31  1  0  0  0  0
 18 32  1  0  0  0  0
 19 32  1  0  0  0  0
 19 33  2  0  0  0  0
 19 34  1  0  0  0  0
 20 22  2  0  0  0  0
 20 39  1  0  0  0  0
 21 23  2  0  0  0  0
 21 40  1  0  0  0  0
 22 48  1  0  0  0  0
 23 41  1  0  0  0  0
 24 51  1  0  0  0  0
 25 59  1  0  0  0  0
 26 60  1  0  0  0  0
 27 83  1  0  0  0  0
 28 84  1  0  0  0  0
 29 31  2  0  0  0  0
 29 83  1  0  0  0  0
 30 85  1  0  0  0  0
 31 86  1  0  0  0  0
 32 68  2  0  0  0  0
 33 69  1  0  0  0  0
 33 72  1  0  0  0  0
 34 73  1  0  0  0  0
 34 78  2  0  0  0  0
 35 49  1  0  0  0  0
 35 74  1  0  0  0  0
 35 79  2  0  0  0  0
 36 64  1  0  0  0  0
 36 70  1  0  0  0  0
 36 80  2  0  0  0  0
 37 65  1  0  0  0  0
 37 75  1  0  0  0  0
 37 81  2  0  0  0  0
 38 71  1  0  0  0  0
 38 76  1  0  0  0  0
 38 82  2  0  0  0  0
 39 42  1  0  0  0  0
 40 49  1  0  0  0  0
 41 70  1  0  0  0  0
 42 44  1  0  0  0  0
 43 45  1  0  0  0  0
 43 46  1  0  0  0  0
 44 48  1  0  0  0  0
 45 50  1  0  0  0  0
 46 71  1  0  0  0  0
 47 50  1  0  0  0  0
 47 71  1  0  0  0  0
 48 74  1  0  0  0  0
 49 70  1  0  0  0  0
 50 69  1  0  0  0  0
 52 61  1  0  0  0  0
 53 65  1  0  0  0  0
 54 66  1  0  0  0  0
 55 66  1  0  0  0  0
 56 66  1  0  0  0  0
 57 67  1  0  0  0  0
 58 77  1  0  0  0  0
 59 62  1  0  0  0  0
 60 76  1  0  0  0  0
 61 67  1  0  0  0  0
 62 67  1  0  0  0  0
 63 67  1  0  0  0  0
 63 84  1  0  0  0  0
 64 66  1  0  0  0  0
 64 75  1  0  0  0  0
 65 77  1  0  0  0  0
 68 69  1  0  0  0  0
M  CHG  1  77   1
M  ISO  4  38 100  63 101  76 100  84 101
M  END
> <Batch ID>
0134

> <Smiles>
CCC(C)(CCc1cc(C)cc(C[100NH:0][100C:0](=O)N2CCCC(n3nc(-c4ccc(Oc5ccc(F)cc5F)cc4)c(C(N)=O)c3N)C2)c1)[101CH2:1][101O:1]c1ccc2c(c1)CN(C(=O)C(NC(=O)C(C)NC)C(C)(C)C)C(C(=O)NC1CCCc3ccccc31)C2

> <Shape>
0.197

> <Color>
0.078

> <Negative vol penalty>
0.000

$$$$

  -OEChem-04052302333D

 87 96  0     1  0  0  0  0  0999 V2000
  -27.9771  -11.0329   21.9216 C   0  0  0  0  0  0  0  0  0  0  0  0
  -28.6241  -12.1904   21.5011 C   0  0  0  0  0  0  0  0  0  0  0  0
  -20.1335  -26.7559   23.2027 C   0  0  0  0  0  0  0  0  0  0  0  0
  -20.0574  -28.8260   21.9592 C   0  0  0  0  0  0  0  0  0  0  0  0
  -26.6097  -10.8792   21.6971 C   0  0  0  0  0  0  0  0  0  0  0  0
  -27.9042  -13.1947   20.8548 C   0  0  0  0  0  0  0  0  0  0  0  0
  -28.8305  -19.2345   21.2648 C   0  0  0  0  0  0  0  0  0  0  0  0
  -18.7622  -26.8483   23.4404 C   0  0  0  0  0  0  0  0  0  0  0  0
  -18.6860  -28.9183   22.1969 C   0  0  0  0  0  0  0  0  0  0  0  0
  -29.5001  -20.1387   20.4415 C   0  0  0  0  0  0  0  0  0  0  0  0
  -15.2161  -26.3525   24.0684 C   0  0  0  0  0  0  0  0  0  0  0  0
  -14.4490  -25.2004   23.8961 C   0  0  0  0  0  0  0  0  0  0  0  0
  -32.1657  -27.1756   20.2168 C   0  0  0  0  0  0  0  0  0  0  0  0
  -30.2056  -28.4530   19.6142 C   0  0  0  0  0  0  0  0  0  0  0  0
  -27.4098  -20.7148   19.3842 C   0  0  0  0  0  0  0  0  0  0  0  0
  -31.7233  -29.2909   21.2970 C   0  0  0  0  0  0  0  0  0  0  0  0
  -15.1269  -25.0954   21.5795 C   0  0  0  0  0  0  0  0  0  0  0  0
  -20.7811  -27.7448   22.4621 C   0  0  0  0  0  0  0  0  0  0  0  0
  -22.8320  -27.0205   21.1290 C   0  0  0  0  0  0  0  0  0  0  0  0
  -25.8707  -11.8863   21.0565 C   0  0  0  0  0  0  0  0  0  0  0  0
  -27.4448  -19.0553   21.1462 C   0  0  0  0  0  0  0  0  0  0  0  0
  -26.5258  -13.0538   20.6204 C   0  0  0  0  0  0  0  0  0  0  0  0
  -31.0065  -27.3221   19.4550 C   0  0  0  0  0  0  0  0  0  0  0  0
  -26.7246  -19.8095   20.2088 C   0  0  0  0  0  0  0  0  0  0  0  0
  -32.5241  -28.1600   21.1378 C   0  0  0  0  0  0  0  0  0  0  0  0
  -30.5640  -29.4374   20.5352 C   0  0  0  0  0  0  0  0  0  0  0  0
  -18.0384  -27.9294   22.9375 C   0  0  0  0  0  0  0  0  0  0  0  0
  -28.7902  -20.8769   19.4991 C   0  0  0  0  0  0  0  0  0  0  0  0
  -15.9385  -26.8762   22.9962 C   0  0  0  0  0  0  0  0  0  0  0  0
  -14.4044  -24.5718   22.6517 C   0  0  0  0  0  0  0  0  0  0  0  0
  -15.8939  -26.2477   21.7518 C   0  0  0  0  0  0  0  0  0  0  0  0
  -22.1978  -27.6503   22.2167 C   0  0  0  0  0  0  0  0  0  0  0  0
  -24.1732  -27.2083   21.3579 C   0  0  0  0  0  0  0  0  0  0  0  0
  -30.8063  -23.7340   18.5934 C   0  0  0  0  0  0  0  0  0  0  0  0
  -30.3037  -24.8892   19.0890 C   0  0  0  0  0  0  0  0  0  0  0  0
  -22.2599  -26.3277   20.0117 C   0  0  0  0  0  0  0  0  0  0  0  0
  -25.5549  -16.6119   20.3968 C   0  0  0  0  0  0  0  0  0  0  0  0
  -23.1989  -18.6965   21.1882 C   0  0  0  0  0  0  0  0  0  0  0  0
  -22.2011  -21.9401   21.5490 C   0  0  0  0  0  0  0  0  0  0  0  0
  -28.4469  -30.4786   22.8363 C   0  0  0  0  0  0  0  0  0  0  0  0
  -24.4037  -11.6546   20.7938 C   0  0  0  0  0  0  0  0  0  0  0  0
  -26.7333  -18.0955   22.0600 C   0  0  0  0  0  0  0  0  0  0  0  0
  -25.2329  -19.6691   20.0557 C   0  0  0  0  0  0  0  0  0  0  0  0
  -31.6285  -23.6937   17.3238 C   0  0  0  0  0  0  0  0  0  0  0  0
  -23.6405  -12.9274   20.4366 C   0  0  0  0  0  0  0  0  0  0  0  0
  -31.5039  -24.9523   16.4719 C   0  0  0  0  0  0  0  0  0  0  0  0
  -26.6076  -28.9120   25.4515 C   0  0  0  0  0  0  0  0  0  0  0  0
  -31.6829  -26.1883   17.3362 C   0  0  0  0  0  0  0  0  0  0  0  0
  -24.4088  -13.7365   19.3965 C   0  0  0  0  0  0  0  0  0  0  0  0
  -25.3465  -28.3980   24.7547 C   0  0  0  0  0  0  0  0  0  0  0  0
  -27.0627  -30.2522   24.8782 C   0  0  0  0  0  0  0  0  0  0  0  0
  -25.9852  -29.7556   22.7180 C   0  0  0  0  0  0  0  0  0  0  0  0
  -30.6155  -26.2460   18.4484 C   0  0  2  0  0  0  0  0  0  0  0  0
  -25.7743  -14.1763   19.9382 C   0  0  1  0  0  0  0  0  0  0  0  0
  -25.3964  -17.6182   21.5013 C   0  0  1  0  0  0  0  0  0  0  0  0
  -25.5197  -28.3795   23.2240 C   0  0  2  0  0  0  0  0  0  0  0  0
  -33.7638  -28.0041   21.9523 C   0  0  0  0  0  0  0  0  0  0  0  0
  -29.3506  -24.9357   20.2604 C   0  0  0  0  0  0  0  0  0  0  0  0
  -20.2071  -23.3298   22.1735 C   0  0  0  0  0  0  0  0  0  0  0  0
  -21.9529  -18.1296   18.4613 C   0  0  0  0  0  0  0  0  0  0  0  0
  -20.5571  -20.1880   18.7488 C   0  0  0  0  0  0  0  0  0  0  0  0
  -20.3148  -18.2861   20.3446 C   0  0  0  0  0  0  0  0  0  0  0  0
  -23.6203  -23.1533   23.8453 C   0  0  0  0  0  0  0  0  0  0  0  0
  -29.7074  -30.6466   20.7051 C   0  0  0  0  0  0  0  0  0  0  0  0
  -30.6132  -22.3791   19.2229 C   0  0  0  0  0  0  0  0  0  1  0  0
  -22.3890  -19.7284   20.4411 C   0  0  1  0  0  0  0  0  0  0  0  0
  -21.4717  -22.6503   22.6751 C   0  0  2  0  0  0  0  0  0  0  0  0
  -21.3318  -19.0845   19.5003 C   0  0  0  0  0  0  0  0  0  0  0  0
  -23.0648  -28.1971   23.0730 N   0  0  0  0  0  0  0  0  0  0  0  0
  -24.2575  -27.9114   22.5235 N   0  0  0  0  0  0  0  0  0  0  0  0
  -24.5835  -18.7132   20.9679 N   0  0  0  0  0  0  0  0  0  0  0  0
  -27.2095  -30.1665   23.4232 N   0  0  0  0  0  0  0  0  0  0  0  0
  -25.2768  -26.8388   20.6739 N   0  0  0  0  0  0  0  0  0  0  0  0
  -20.8642  -26.2272   19.9313 N   0  0  0  0  0  0  0  0  0  0  0  0
  -25.6237  -15.3029   20.8340 N   0  0  0  0  0  0  0  0  0  0  0  0
  -21.8266  -20.6166   21.4527 N   0  0  0  0  0  0  0  0  0  0  0  0
  -28.5019  -30.3655   21.4525 N   0  0  0  0  0  0  0  0  0  0  0  0
  -22.3499  -23.6860   23.2890 N   0  3  0  0  0  0  0  0  0  0  0  0
  -22.9659  -25.7989   19.1198 O   0  0  0  0  0  0  0  0  0  0  0  0
  -25.6091  -16.9946   19.2339 O   0  0  0  0  0  0  0  0  0  0  0  0
  -22.6251  -17.9094   21.9451 O   0  0  0  0  0  0  0  0  0  0  0  0
  -23.0183  -22.5041   20.8248 O   0  0  0  0  0  0  0  0  0  0  0  0
  -29.4313  -30.8268   23.4971 O   0  0  0  0  0  0  0  0  0  0  0  0
  -16.7002  -28.0197   23.1690 O   0  0  0  0  0  0  0  0  0  0  0  0
  -29.4415  -21.7598   18.6939 O   0  0  0  0  0  0  0  0  0  1  0  0
  -13.6690  -23.4645   22.4867 F   0  0  0  0  0  0  0  0  0  0  0  0
  -16.5868  -26.7454   20.7183 F   0  0  0  0  0  0  0  0  0  0  0  0
  1  2  1  0  0  0  0
  1  5  2  0  0  0  0
  2  6  2  0  0  0  0
  3  8  2  0  0  0  0
  3 18  1  0  0  0  0
  4  9  1  0  0  0  0
  4 18  2  0  0  0  0
  5 20  1  0  0  0  0
  6 22  1  0  0  0  0
  7 10  2  0  0  0  0
  7 21  1  0  0  0  0
  8 27  1  0  0  0  0
  9 27  2  0  0  0  0
 10 28  1  0  0  0  0
 11 12  2  0  0  0  0
 11 29  1  0  0  0  0
 12 30  1  0  0  0  0
 13 23  1  0  0  0  0
 13 25  2  0  0  0  0
 14 23  2  0  0  0  0
 14 26  1  0  0  0  0
 15 24  1  0  0  0  0
 15 28  2  0  0  0  0
 16 25  1  0  0  0  0
 16 26  2  0  0  0  0
 17 30  2  0  0  0  0
 17 31  1  0  0  0  0
 18 32  1  0  0  0  0
 19 32  1  0  0  0  0
 19 33  2  0  0  0  0
 19 36  1  0  0  0  0
 20 22  2  0  0  0  0
 20 41  1  0  0  0  0
 21 24  2  0  0  0  0
 21 42  1  0  0  0  0
 22 54  1  0  0  0  0
 23 53  1  0  0  0  0
 24 43  1  0  0  0  0
 25 57  1  0  0  0  0
 26 64  1  0  0  0  0
 27 84  1  0  0  0  0
 28 85  1  0  0  0  0
 29 31  2  0  0  0  0
 29 84  1  0  0  0  0
 30 86  1  0  0  0  0
 31 87  1  0  0  0  0
 32 69  2  0  0  0  0
 33 70  1  0  0  0  0
 33 73  1  0  0  0  0
 34 35  2  0  0  0  0
 34 44  1  0  0  0  0
 34 65  1  0  0  0  0
 35 53  1  0  0  0  0
 35 58  1  0  0  0  0
 36 74  1  0  0  0  0
 36 79  2  0  0  0  0
 37 55  1  0  0  0  0
 37 75  1  0  0  0  0
 37 80  2  0  0  0  0
 38 66  1  0  0  0  0
 38 71  1  0  0  0  0
 38 81  2  0  0  0  0
 39 67  1  0  0  0  0
 39 76  1  0  0  0  0
 39 82  2  0  0  0  0
 40 72  1  0  0  0  0
 40 77  1  0  0  0  0
 40 83  2  0  0  0  0
 41 45  1  0  0  0  0
 42 55  1  0  0  0  0
 43 71  1  0  0  0  0
 44 46  1  0  0  0  0
 45 49  1  0  0  0  0
 46 48  1  0  0  0  0
 47 50  1  0  0  0  0
 47 51  1  0  0  0  0
 48 53  1  0  0  0  0
 49 54  1  0  0  0  0
 50 56  1  0  0  0  0
 51 72  1  0  0  0  0
 52 56  1  0  0  0  0
 52 72  1  0  0  0  0
 54 75  1  0  0  0  0
 55 71  1  0  0  0  0
 56 70  1  0  0  0  0
 59 67  1  0  0  0  0
 60 68  1  0  0  0  0
 61 68  1  0  0  0  0
 62 68  1  0  0  0  0
 63 78  1  0  0  0  0
 64 77  1  0  0  0  0
 65 85  1  0  0  0  0
 66 68  1  0  0  0  0
 66 76  1  0  0  0  0
 67 78  1  0  0  0  0
 69 70  1  0  0  0  0
M  CHG  1  78   1
M  ISO  4  40 100  65 101  77 100  85 101
M  END
> <Batch ID>
0134

> <Smiles>
CNC(C)C(=O)NC(C(=O)N1Cc2cc([101O:1][101CH2:1]C3=C(C)C(c4cc(C)cc(C[100NH:0][100C:0](=O)N5CCCC(n6nc(-c7ccc(Oc8ccc(F)cc8F)cc7)c(C(N)=O)c6N)C5)c4)CCC3)ccc2CC1C(=O)NC1CCCc2ccccc21)C(C)(C)C

> <Shape>
0.217

> <Color>
0.065

> <Negative vol penalty>
0.000

$$$$

  -OEChem-04052302333D

 85 94  0     1  0  0  0  0  0999 V2000
  -18.7635  -23.3829   17.1140 C   0  0  0  0  0  0  0  0  0  0  0  0
  -19.2722  -22.0881   17.1260 C   0  0  0  0  0  0  0  0  0  0  0  0
  -26.7090  -28.3774   21.2060 C   0  0  0  0  0  0  0  0  0  0  0  0
  -25.9102  -28.2434   18.9298 C   0  0  0  0  0  0  0  0  0  0  0  0
  -19.4682  -24.4132   17.7350 C   0  0  0  0  0  0  0  0  0  0  0  0
  -20.4865  -21.8231   17.7581 C   0  0  0  0  0  0  0  0  0  0  0  0
  -30.4819  -14.5813   17.9519 C   0  0  0  0  0  0  0  0  0  0  0  0
  -22.0264  -16.7266   20.7846 C   0  0  0  0  0  0  0  0  0  0  0  0
  -30.5926  -15.9137   18.3524 C   0  0  0  0  0  0  0  0  0  0  0  0
  -25.7851  -29.3883   21.4707 C   0  0  0  0  0  0  0  0  0  0  0  0
  -24.9862  -29.2543   19.1945 C   0  0  0  0  0  0  0  0  0  0  0  0
  -22.7627  -15.6020   20.4143 C   0  0  0  0  0  0  0  0  0  0  0  0
  -22.4797  -29.6289   22.1409 C   0  0  0  0  0  0  0  0  0  0  0  0
  -21.7504  -29.5462   23.3271 C   0  0  0  0  0  0  0  0  0  0  0  0
  -29.2058  -15.4868   20.3052 C   0  0  0  0  0  0  0  0  0  0  0  0
  -24.7338  -16.5718   21.4110 C   0  0  0  0  0  0  0  0  0  0  0  0
  -22.6599  -31.6699   24.0342 C   0  0  0  0  0  0  0  0  0  0  0  0
  -26.7716  -27.8050   19.9355 C   0  0  0  0  0  0  0  0  0  0  0  0
  -29.1280  -26.8439   19.7593 C   0  0  0  0  0  0  0  0  0  0  0  0
  -20.6870  -24.1590   18.3834 C   0  0  0  0  0  0  0  0  0  0  0  0
  -29.7428  -13.7157   18.7419 C   0  0  0  0  0  0  0  0  0  0  0  0
  -22.6419  -17.7887   21.4624 C   0  0  0  0  0  0  0  0  0  0  0  0
  -21.2088  -22.8513   18.3872 C   0  0  0  0  0  0  0  0  0  0  0  0
  -29.1041  -14.1610   19.9087 C   0  0  0  0  0  0  0  0  0  0  0  0
  -24.0026  -17.7076   21.7910 C   0  0  0  0  0  0  0  0  0  0  0  0
  -29.9595  -16.3632   19.5210 C   0  0  0  0  0  0  0  0  0  0  0  0
  -24.9237  -29.8268   20.4650 C   0  0  0  0  0  0  0  0  0  0  0  0
  -24.1172  -15.5258   20.7249 C   0  0  0  0  0  0  0  0  0  0  0  0
  -23.2991  -30.7320   21.9014 C   0  0  0  0  0  0  0  0  0  0  0  0
  -21.8405  -30.5667   24.2737 C   0  0  0  0  0  0  0  0  0  0  0  0
  -23.3892  -31.7525   22.8481 C   0  0  0  0  0  0  0  0  0  0  0  0
  -27.7261  -26.7611   19.6612 C   0  0  0  0  0  0  0  0  0  0  0  0
  -29.5720  -25.5960   19.3956 C   0  0  0  0  0  0  0  0  0  0  0  0
  -29.9550  -27.9499   20.1447 C   0  0  0  0  0  0  0  0  0  0  0  0
  -23.1399  -20.8641   20.8316 C   0  0  0  0  0  0  0  0  0  0  0  0
  -29.1947  -20.1245   19.8410 C   0  0  0  0  0  0  0  0  0  0  0  0
  -24.2647  -20.9047   23.8739 C   0  0  0  0  0  0  0  0  0  0  0  0
  -25.6068  -19.1721   26.4899 C   0  0  0  0  0  0  0  0  0  0  0  0
  -21.4359  -25.3138   19.0001 C   0  0  0  0  0  0  0  0  0  0  0  0
  -29.4626  -12.2681   18.4900 C   0  0  0  0  0  0  0  0  0  0  0  0
  -21.8277  -18.9831   21.8784 C   0  0  0  0  0  0  0  0  0  0  0  0
  -24.7058  -18.8120   22.5354 C   0  0  0  0  0  0  0  0  0  0  0  0
  -22.5310  -24.8804   19.9713 C   0  0  0  0  0  0  0  0  0  0  0  0
  -29.0029  -11.8102   19.8825 C   0  0  0  0  0  0  0  0  0  0  0  0
  -27.1314  -21.7045   17.2967 C   0  0  0  0  0  0  0  0  0  0  0  0
  -23.3688  -23.7589   19.3654 C   0  0  0  0  0  0  0  0  0  0  0  0
  -27.1970  -23.1720   17.7179 C   0  0  0  0  0  0  0  0  0  0  0  0
  -27.1309  -20.7730   18.5060 C   0  0  0  0  0  0  0  0  0  0  0  0
  -28.3537  -22.4513   19.8523 C   0  0  0  0  0  0  0  0  0  0  0  0
  -22.5106  -22.5196   19.0840 C   0  0  1  0  0  0  0  0  0  0  0  0
  -22.6737  -20.2309   22.1120 C   0  0  1  0  0  0  0  0  0  0  0  0
  -28.3869  -23.4229   18.6607 C   0  0  2  0  0  0  0  0  0  0  0  0
  -28.3363  -13.0358   20.5633 C   0  0  1  0  0  0  0  0  0  0  0  0
  -27.7406  -11.8551   22.6809 C   0  0  0  0  0  0  0  0  0  0  0  0
  -26.4554  -19.4839   28.8308 C   0  0  0  0  0  0  0  0  0  0  0  0
  -26.8274  -22.1453   22.7770 C   0  0  0  0  0  0  0  0  0  0  0  0
  -27.9528  -21.5579   24.9349 C   0  0  0  0  0  0  0  0  0  0  0  0
  -26.0239  -23.1397   24.9264 C   0  0  0  0  0  0  0  0  0  0  0  0
  -23.5691  -17.3337   27.5974 C   0  0  0  0  0  0  0  0  0  0  0  0
  -30.0995  -17.7908   19.9330 C   0  0  0  0  0  0  0  0  0  0  0  0
  -29.0089  -18.7062   19.3638 C   0  0  0  0  0  0  0  0  0  0  0  0
  -28.5159  -12.9792   22.0824 C   0  0  0  0  0  0  0  0  0  0  0  0
  -26.8463  -13.1267   20.2081 C   0  0  0  0  0  0  0  0  0  0  0  0
  -26.2217  -14.4180   20.7144 C   0  0  0  0  0  0  0  0  0  1  0  0
  -25.6106  -20.6790   24.5192 C   0  0  1  0  0  0  0  0  0  0  0  0
  -25.2524  -19.1418   27.9657 C   0  0  2  0  0  0  0  0  0  0  0  0
  -26.5912  -21.8603   24.2736 C   0  0  0  0  0  0  0  0  0  0  0  0
  -27.3072  -25.5560   19.2661 N   0  0  0  0  0  0  0  0  0  0  0  0
  -28.4526  -24.8701   19.1125 N   0  0  0  0  0  0  0  0  0  0  0  0
  -23.8683  -19.9618   22.9149 N   0  0  0  0  0  0  0  0  0  0  0  0
  -28.2640  -21.0623   19.3930 N   0  0  0  0  0  0  0  0  0  0  0  0
  -30.8067  -25.0600   19.2935 N   0  0  0  0  0  0  0  0  0  0  0  0
  -30.4011  -28.8295   19.1489 N   0  0  0  0  0  0  0  0  0  0  0  0
  -22.2584  -21.7908   20.3086 N   0  0  0  0  0  0  0  0  0  0  0  0
  -25.3471  -20.4040   25.9275 N   0  0  0  0  0  0  0  0  0  0  0  0
  -24.7644  -17.7881   28.3535 N   0  3  0  0  0  0  0  0  0  0  0  0
  -30.3021  -28.1428   21.3346 O   0  0  0  0  0  0  0  0  0  0  0  0
  -24.2202  -20.5372   20.3543 O   0  0  0  0  0  0  0  0  0  0  0  0
  -30.1407  -20.3895   20.5872 O   0  0  0  0  0  0  0  0  0  0  0  0
  -23.5868  -21.8777   24.2135 O   0  0  0  0  0  0  0  0  0  0  0  0
  -26.0713  -18.2013   25.8963 O   0  0  0  0  0  0  0  0  0  0  0  0
  -24.0219  -30.8130   20.7230 O   0  0  0  0  0  0  0  0  0  0  0  0
  -24.8384  -14.4296   20.3641 O   0  0  0  0  0  0  0  0  0  1  0  0
  -21.1389  -30.4879   25.4120 F   0  0  0  0  0  0  0  0  0  0  0  0
  -24.1738  -32.8154   22.6230 F   0  0  0  0  0  0  0  0  0  0  0  0
  1  2  1  0  0  0  0
  1  5  2  0  0  0  0
  2  6  2  0  0  0  0
  3 10  2  0  0  0  0
  3 18  1  0  0  0  0
  4 11  1  0  0  0  0
  4 18  2  0  0  0  0
  5 20  1  0  0  0  0
  6 23  1  0  0  0  0
  7  9  2  0  0  0  0
  7 21  1  0  0  0  0
  8 12  2  0  0  0  0
  8 22  1  0  0  0  0
  9 26  1  0  0  0  0
 10 27  1  0  0  0  0
 11 27  2  0  0  0  0
 12 28  1  0  0  0  0
 13 14  2  0  0  0  0
 13 29  1  0  0  0  0
 14 30  1  0  0  0  0
 15 24  1  0  0  0  0
 15 26  2  0  0  0  0
 16 25  1  0  0  0  0
 16 28  2  0  0  0  0
 17 30  2  0  0  0  0
 17 31  1  0  0  0  0
 18 32  1  0  0  0  0
 19 32  1  0  0  0  0
 19 33  2  0  0  0  0
 19 34  1  0  0  0  0
 20 23  2  0  0  0  0
 20 39  1  0  0  0  0
 21 24  2  0  0  0  0
 21 40  1  0  0  0  0
 22 25  2  0  0  0  0
 22 41  1  0  0  0  0
 23 50  1  0  0  0  0
 24 53  1  0  0  0  0
 25 42  1  0  0  0  0
 26 60  1  0  0  0  0
 27 82  1  0  0  0  0
 28 83  1  0  0  0  0
 29 31  2  0  0  0  0
 29 82  1  0  0  0  0
 30 84  1  0  0  0  0
 31 85  1  0  0  0  0
 32 68  2  0  0  0  0
 33 69  1  0  0  0  0
 33 72  1  0  0  0  0
 34 73  1  0  0  0  0
 34 77  2  0  0  0  0
 35 51  1  0  0  0  0
 35 74  1  0  0  0  0
 35 78  2  0  0  0  0
 36 61  1  0  0  0  0
 36 71  1  0  0  0  0
 36 79  2  0  0  0  0
 37 65  1  0  0  0  0
 37 70  1  0  0  0  0
 37 80  2  0  0  0  0
 38 66  1  0  0  0  0
 38 75  1  0  0  0  0
 38 81  2  0  0  0  0
 39 43  1  0  0  0  0
 40 44  1  0  0  0  0
 41 51  1  0  0  0  0
 42 70  1  0  0  0  0
 43 46  1  0  0  0  0
 44 53  1  0  0  0  0
 45 47  1  0  0  0  0
 45 48  1  0  0  0  0
 46 50  1  0  0  0  0
 47 52  1  0  0  0  0
 48 71  1  0  0  0  0
 49 52  1  0  0  0  0
 49 71  1  0  0  0  0
 50 74  1  0  0  0  0
 51 70  1  0  0  0  0
 52 69  1  0  0  0  0
 53 62  1  0  0  0  0
 53 63  1  0  0  0  0
 54 62  1  0  0  0  0
 55 66  1  0  0  0  0
 56 67  1  0  0  0  0
 57 67  1  0  0  0  0
 58 67  1  0  0  0  0
 59 76  1  0  0  0  0
 60 61  1  0  0  0  0
 63 64  1  0  0  0  0
 64 83  1  0  0  0  0
 65 67  1  0  0  0  0
 65 75  1  0  0  0  0
 66 76  1  0  0  0  0
 68 69  1  0  0  0  0
M  CHG  1  76   1
M  ISO  4  36 100  61 100  64 101  83 101
M  END
> <Batch ID>
0134

> <Smiles>
CCC1(C[101CH2:1][101O:1]c2ccc3c(c2)CN(C(=O)C(NC(=O)C(C)NC)C(C)(C)C)C(C(=O)NC2CCCc4ccccc42)C3)CCc2ccc(C[100CH2:0][100C:0](=O)N3CCCC(n4nc(-c5ccc(Oc6ccc(F)cc6F)cc5)c(C(N)=O)c4N)C3)cc21

> <Shape>
0.211

> <Color>
0.065

> <Negative vol penalty>
0.000

$$$$

  -OEChem-04052302333D

 84 92  0     1  0  0  0  0  0999 V2000
  -27.1451  -34.1304   25.9238 C   0  0  0  0  0  0  0  0  0  0  0  0
  -27.4898  -32.8206   25.6061 C   0  0  0  0  0  0  0  0  0  0  0  0
  -23.3392  -12.0402   23.3405 C   0  0  0  0  0  0  0  0  0  0  0  0
  -22.2543  -13.6112   21.8600 C   0  0  0  0  0  0  0  0  0  0  0  0
  -26.1386  -20.7346   17.6202 C   0  0  0  0  0  0  0  0  0  0  0  0
  -25.8207  -34.5498   25.8051 C   0  0  0  0  0  0  0  0  0  0  0  0
  -26.5101  -31.9291   25.1704 C   0  0  0  0  0  0  0  0  0  0  0  0
  -28.0034  -29.2032   21.1723 C   0  0  0  0  0  0  0  0  0  0  0  0
  -26.4373  -19.4297   18.0120 C   0  0  0  0  0  0  0  0  0  0  0  0
  -22.2296  -12.0700   24.1852 C   0  0  0  0  0  0  0  0  0  0  0  0
  -21.1447  -13.6410   22.7047 C   0  0  0  0  0  0  0  0  0  0  0  0
  -28.8602  -28.1309   21.4170 C   0  0  0  0  0  0  0  0  0  0  0  0
  -18.4525  -11.7019   23.3471 C   0  0  0  0  0  0  0  0  0  0  0  0
  -17.1902  -11.6194   22.7595 C   0  0  0  0  0  0  0  0  0  0  0  0
  -26.9892  -26.6138   21.2858 C   0  0  0  0  0  0  0  0  0  0  0  0
  -28.4577  -20.2130   19.0804 C   0  0  0  0  0  0  0  0  0  0  0  0
  -16.6137  -13.7706   23.6959 C   0  0  0  0  0  0  0  0  0  0  0  0
  -23.3515  -12.8109   22.1779 C   0  0  0  0  0  0  0  0  0  0  0  0
  -26.9994  -21.7787   17.9584 C   0  0  0  0  0  0  0  0  0  0  0  0
  -24.7177  -11.9110   20.2204 C   0  0  0  0  0  0  0  0  0  0  0  0
  -24.8260  -33.6657   25.3585 C   0  0  0  0  0  0  0  0  0  0  0  0
  -26.6291  -28.9897   20.9931 C   0  0  0  0  0  0  0  0  0  0  0  0
  -25.1710  -32.3367   25.0469 C   0  0  0  0  0  0  0  0  0  0  0  0
  -26.1175  -27.6849   21.0365 C   0  0  0  0  0  0  0  0  0  0  0  0
  -27.5969  -19.1689   18.7421 C   0  0  0  0  0  0  0  0  0  0  0  0
  -21.1324  -12.8704   23.8673 C   0  0  0  0  0  0  0  0  0  0  0  0
  -28.3527  -26.8363   21.4766 C   0  0  0  0  0  0  0  0  0  0  0  0
  -18.7955  -12.8187   24.1092 C   0  0  0  0  0  0  0  0  0  0  0  0
  -28.1590  -21.5180   18.6886 C   0  0  0  0  0  0  0  0  0  0  0  0
  -16.2708  -12.6537   22.9339 C   0  0  0  0  0  0  0  0  0  0  0  0
  -17.8761  -13.8531   24.2836 C   0  0  0  0  0  0  0  0  0  0  0  0
  -24.4976  -12.7810   21.3051 C   0  0  0  0  0  0  0  0  0  0  0  0
  -25.9409  -12.2869   19.7215 C   0  0  0  0  0  0  0  0  0  0  0  0
  -26.6688  -23.1335   17.5394 C   0  0  0  0  0  0  0  0  0  0  0  0
  -23.8903  -10.8574   19.7094 C   0  0  0  0  0  0  0  0  0  0  0  0
  -23.9985  -29.9028   22.5260 C   0  0  0  0  0  0  0  0  0  0  0  0
  -22.5122  -28.4659   20.0263 C   0  0  0  0  0  0  0  0  0  0  0  0
  -22.6458  -26.1636   17.5107 C   0  0  0  0  0  0  0  0  0  0  0  0
  -29.0091  -17.4123   19.8674 C   0  0  0  0  0  0  0  0  0  0  0  0
  -23.3998  -34.1516   25.2913 C   0  0  0  0  0  0  0  0  0  0  0  0
  -25.7223  -30.1542   20.7035 C   0  0  0  0  0  0  0  0  0  0  0  0
  -24.6529  -27.4001   20.8306 C   0  0  0  0  0  0  0  0  0  0  0  0
  -22.4872  -33.2494   24.4646 C   0  0  0  0  0  0  0  0  0  0  0  0
  -30.0964  -14.2445   21.0757 C   0  0  0  0  0  0  0  0  0  0  0  0
  -22.7012  -31.7863   24.8393 C   0  0  0  0  0  0  0  0  0  0  0  0
  -28.8049  -13.4286   21.1671 C   0  0  0  0  0  0  0  0  0  0  0  0
  -29.8715  -15.7069   21.4558 C   0  0  0  0  0  0  0  0  0  0  0  0
  -27.4962  -15.5623   20.8184 C   0  0  0  0  0  0  0  0  0  0  0  0
  -24.1410  -31.3469   24.5472 C   0  0  1  0  0  0  0  0  0  0  0  0
  -24.2624  -29.8746   21.0471 C   0  0  1  0  0  0  0  0  0  0  0  0
  -27.6592  -14.0971   20.3822 C   0  0  2  0  0  0  0  0  0  0  0  0
  -25.8875  -23.2932   16.2686 C   0  0  0  0  0  0  0  0  0  0  0  0
  -21.2634  -25.1889   15.6570 C   0  0  0  0  0  0  0  0  0  0  0  0
  -20.9346  -26.8331   22.0647 C   0  0  0  0  0  0  0  0  0  0  0  0
  -20.3049  -25.2650   20.2174 C   0  0  0  0  0  0  0  0  0  0  0  0
  -19.5917  -27.6535   20.1209 C   0  0  0  0  0  0  0  0  0  0  0  0
  -24.5604  -27.0761   15.4465 C   0  0  0  0  0  0  0  0  0  0  0  0
  -30.0806  -23.7306   20.8270 C   0  0  0  0  0  0  0  0  0  0  0  0
  -28.8270  -24.5291   21.1481 C   0  0  0  0  0  0  0  0  0  1  0  0
  -29.7518  -22.3685   20.2362 C   0  0  0  0  0  0  0  0  0  0  0  0
  -22.0209  -27.0687   19.7343 C   0  0  1  0  0  0  0  0  0  0  0  0
  -22.2775  -26.2552   16.0408 C   0  0  2  0  0  0  0  0  0  0  0  0
  -20.7404  -26.7103   20.5402 C   0  0  0  0  0  0  0  0  0  0  0  0
  -25.5007  -13.6443   21.4854 N   0  0  0  0  0  0  0  0  0  0  0  0
  -26.3629  -13.3187   20.5073 N   0  0  0  0  0  0  0  0  0  0  0  0
  -23.8057  -28.5726   20.5567 N   0  0  0  0  0  0  0  0  0  0  0  0
  -28.7747  -16.2751   20.6691 N   0  0  0  0  0  0  0  0  0  0  0  0
  -26.6860  -11.8321   18.6917 N   0  0  0  0  0  0  0  0  0  0  0  0
  -22.6647  -10.6046   20.3405 N   0  0  0  0  0  0  0  0  0  0  0  0
  -27.9004  -17.8431   19.1395 N   0  0  0  0  0  0  0  0  0  0  0  0
  -24.3177  -31.1032   23.1316 N   0  0  0  0  0  0  0  0  0  0  0  0
  -21.8582  -26.9873   18.2868 N   0  0  0  0  0  0  0  0  0  0  0  0
  -23.4892  -26.0789   15.1913 N   0  3  0  0  0  0  0  0  0  0  0  0
  -26.9866  -24.1565   18.1475 O   0  0  0  0  0  0  0  0  0  0  0  0
  -24.2353  -10.1501   18.7326 O   0  0  0  0  0  0  0  0  0  0  0  0
  -23.5380  -28.9096   23.0767 O   0  0  0  0  0  0  0  0  0  0  0  0
  -21.7782  -29.4277   19.7858 O   0  0  0  0  0  0  0  0  0  0  0  0
  -23.5401  -25.4316   17.9289 O   0  0  0  0  0  0  0  0  0  0  0  0
  -30.1193  -17.9471   19.8085 O   0  0  0  0  0  0  0  0  0  0  0  0
  -20.0494  -12.8995   24.6913 O   0  0  0  0  0  0  0  0  0  0  0  0
  -29.1867  -25.7879   21.7159 O   0  0  0  0  0  0  0  0  0  1  0  0
  -29.0175  -22.5303   19.0303 O   0  0  0  0  0  0  0  0  0  0  0  0
  -15.0592  -12.5751   22.3683 F   0  0  0  0  0  0  0  0  0  0  0  0
  -18.2002  -14.9291   25.0137 F   0  0  0  0  0  0  0  0  0  0  0  0
  1  2  1  0  0  0  0
  1  6  2  0  0  0  0
  2  7  2  0  0  0  0
  3 10  2  0  0  0  0
  3 18  1  0  0  0  0
  4 11  1  0  0  0  0
  4 18  2  0  0  0  0
  5  9  2  0  0  0  0
  5 19  1  0  0  0  0
  6 21  1  0  0  0  0
  7 23  1  0  0  0  0
  8 12  2  0  0  0  0
  8 22  1  0  0  0  0
  9 25  1  0  0  0  0
 10 26  1  0  0  0  0
 11 26  2  0  0  0  0
 12 27  1  0  0  0  0
 13 14  2  0  0  0  0
 13 28  1  0  0  0  0
 14 30  1  0  0  0  0
 15 24  1  0  0  0  0
 15 27  2  0  0  0  0
 16 25  2  0  0  0  0
 16 29  1  0  0  0  0
 17 30  2  0  0  0  0
 17 31  1  0  0  0  0
 18 32  1  0  0  0  0
 19 29  2  0  0  0  0
 19 34  1  0  0  0  0
 20 32  1  0  0  0  0
 20 33  2  0  0  0  0
 20 35  1  0  0  0  0
 21 23  2  0  0  0  0
 21 40  1  0  0  0  0
 22 24  2  0  0  0  0
 22 41  1  0  0  0  0
 23 49  1  0  0  0  0
 24 42  1  0  0  0  0
 25 70  1  0  0  0  0
 26 80  1  0  0  0  0
 27 81  1  0  0  0  0
 28 31  2  0  0  0  0
 28 80  1  0  0  0  0
 29 82  1  0  0  0  0
 30 83  1  0  0  0  0
 31 84  1  0  0  0  0
 32 64  2  0  0  0  0
 33 65  1  0  0  0  0
 33 68  1  0  0  0  0
 34 52  1  0  0  0  0
 34 74  2  0  0  0  0
 35 69  1  0  0  0  0
 35 75  2  0  0  0  0
 36 50  1  0  0  0  0
 36 71  1  0  0  0  0
 36 76  2  0  0  0  0
 37 61  1  0  0  0  0
 37 66  1  0  0  0  0
 37 77  2  0  0  0  0
 38 62  1  0  0  0  0
 38 72  1  0  0  0  0
 38 78  2  0  0  0  0
 39 67  1  0  0  0  0
 39 70  1  0  0  0  0
 39 79  2  0  0  0  0
 40 43  1  0  0  0  0
 41 50  1  0  0  0  0
 42 66  1  0  0  0  0
 43 45  1  0  0  0  0
 44 46  1  0  0  0  0
 44 47  1  0  0  0  0
 45 49  1  0  0  0  0
 46 51  1  0  0  0  0
 47 67  1  0  0  0  0
 48 51  1  0  0  0  0
 48 67  1  0  0  0  0
 49 71  1  0  0  0  0
 50 66  1  0  0  0  0
 51 65  1  0  0  0  0
 53 62  1  0  0  0  0
 54 63  1  0  0  0  0
 55 63  1  0  0  0  0
 56 63  1  0  0  0  0
 57 73  1  0  0  0  0
 58 59  1  0  0  0  0
 58 60  1  0  0  0  0
 59 81  1  0  0  0  0
 60 82  1  0  0  0  0
 61 63  1  0  0  0  0
 61 72  1  0  0  0  0
 62 73  1  0  0  0  0
 64 65  1  0  0  0  0
M  CHG  1  73   1
M  ISO  4  39 100  59 101  70 100  81 101
M  END
> <Batch ID>
0134

> <Smiles>
CNC(C)C(=O)NC(C(=O)N1Cc2cc([101O:1][101CH2:1]CCOc3cc([100NH:0][100C:0](=O)N4CCCC(n5nc(-c6ccc(Oc7ccc(F)cc7F)cc6)c(C(N)=O)c5N)C4)ccc3C(C)=O)ccc2CC1C(=O)NC1CCCc2ccccc21)C(C)(C)C

> <Shape>
0.265

> <Color>
0.077

> <Negative vol penalty>
0.000

$$$$

  -OEChem-04052302333D

 84 92  0     1  0  0  0  0  0999 V2000
  -20.3472  -28.2657   15.0677 C   0  0  0  0  0  0  0  0  0  0  0  0
  -21.6437  -28.0519   15.5245 C   0  0  0  0  0  0  0  0  0  0  0  0
  -24.2992   -9.2793   21.5927 C   0  0  0  0  0  0  0  0  0  0  0  0
  -24.6740  -10.7644   23.4612 C   0  0  0  0  0  0  0  0  0  0  0  0
  -19.7472  -29.5131   15.2350 C   0  0  0  0  0  0  0  0  0  0  0  0
  -22.3415  -29.0858   16.1480 C   0  0  0  0  0  0  0  0  0  0  0  0
  -24.7448  -27.5586   20.3357 C   0  0  0  0  0  0  0  0  0  0  0  0
  -29.8628  -19.1636   19.5026 C   0  0  0  0  0  0  0  0  0  0  0  0
  -23.9826   -8.2475   22.4763 C   0  0  0  0  0  0  0  0  0  0  0  0
  -24.3572   -9.7326   24.3448 C   0  0  0  0  0  0  0  0  0  0  0  0
  -25.9412  -26.8634   20.1655 C   0  0  0  0  0  0  0  0  0  0  0  0
  -29.9660  -20.5331   19.7461 C   0  0  0  0  0  0  0  0  0  0  0  0
  -22.7250   -5.3225   24.2306 C   0  0  0  0  0  0  0  0  0  0  0  0
  -21.6037   -4.5442   23.9436 C   0  0  0  0  0  0  0  0  0  0  0  0
  -27.1743  -28.8819   20.6394 C   0  0  0  0  0  0  0  0  0  0  0  0
  -27.4599  -19.3081   19.7080 C   0  0  0  0  0  0  0  0  0  0  0  0
  -20.2082   -6.5132   24.0564 C   0  0  0  0  0  0  0  0  0  0  0  0
  -24.6450  -10.5378   22.0851 C   0  0  0  0  0  0  0  0  0  0  0  0
  -24.0874  -12.5403   20.6065 C   0  0  0  0  0  0  0  0  0  0  0  0
  -20.4344  -30.5599   15.8695 C   0  0  0  0  0  0  0  0  0  0  0  0
  -24.7541  -28.9254   20.6489 C   0  0  0  0  0  0  0  0  0  0  0  0
  -21.7506  -30.3487   16.3228 C   0  0  0  0  0  0  0  0  0  0  0  0
  -25.9766  -29.5915   20.8156 C   0  0  0  0  0  0  0  0  0  0  0  0
  -27.5630  -20.6776   19.9516 C   0  0  0  0  0  0  0  0  0  0  0  0
  -28.6097  -18.5510   19.4835 C   0  0  0  0  0  0  0  0  0  0  0  0
  -24.0115   -8.4741   23.8523 C   0  0  0  0  0  0  0  0  0  0  0  0
  -27.1563  -27.5257   20.3145 C   0  0  0  0  0  0  0  0  0  0  0  0
  -28.8161  -21.2901   19.9706 C   0  0  0  0  0  0  0  0  0  0  0  0
  -22.5880   -6.6962   24.4306 C   0  0  0  0  0  0  0  0  0  0  0  0
  -20.3453   -5.1395   23.8565 C   0  0  0  0  0  0  0  0  0  0  0  0
  -21.3296   -7.2915   24.3435 C   0  0  0  0  0  0  0  0  0  0  0  0
  -24.9728  -11.6039   21.1729 C   0  0  0  0  0  0  0  0  0  0  0  0
  -24.8847  -13.3331   19.8176 C   0  0  0  0  0  0  0  0  0  0  0  0
  -22.6709  -12.6811   20.7781 C   0  0  0  0  0  0  0  0  0  0  0  0
  -23.6936  -31.5607   19.2225 C   0  0  0  0  0  0  0  0  0  0  0  0
  -24.6168  -32.9655   21.9968 C   0  0  0  0  0  0  0  0  0  0  0  0
  -26.6015  -32.8715   24.7715 C   0  0  0  0  0  0  0  0  0  0  0  0
  -29.5466  -16.2643   18.9942 C   0  0  0  0  0  0  0  0  0  0  0  0
  -19.7618  -31.9048   15.9852 C   0  0  0  0  0  0  0  0  0  0  0  0
  -23.4549  -29.6548   20.8555 C   0  0  0  0  0  0  0  0  0  0  0  0
  -26.0411  -31.0536   21.1715 C   0  0  0  0  0  0  0  0  0  0  0  0
  -20.4323  -32.8367   16.9914 C   0  0  0  0  0  0  0  0  0  0  0  0
  -29.7036  -12.7610   18.3781 C   0  0  0  0  0  0  0  0  0  0  0  0
  -21.9449  -32.8359   16.7939 C   0  0  0  0  0  0  0  0  0  0  0  0
  -28.4140  -12.2247   19.0037 C   0  0  0  0  0  0  0  0  0  0  0  0
  -30.2987  -13.9046   19.1977 C   0  0  0  0  0  0  0  0  0  0  0  0
  -28.0833  -14.4703   20.1150 C   0  0  0  0  0  0  0  0  0  0  0  0
  -22.5309  -31.4380   17.0262 C   0  0  1  0  0  0  0  0  0  0  0  0
  -23.5802  -31.1635   20.6672 C   0  0  1  0  0  0  0  0  0  0  0  0
  -27.4119  -13.3602   19.2900 C   0  0  2  0  0  0  0  0  0  0  0  0
  -26.1162  -21.7964   21.6667 C   0  0  0  0  0  0  0  0  0  0  0  0
  -27.1601  -34.1792   26.8391 C   0  0  0  0  0  0  0  0  0  0  0  0
  -30.4710  -25.0141   20.9086 C   0  0  0  0  0  0  0  0  0  0  0  0
  -26.2599  -34.9129   20.3182 C   0  0  0  0  0  0  0  0  0  0  0  0
  -27.5016  -35.5485   22.3973 C   0  0  0  0  0  0  0  0  0  0  0  0
  -25.0460  -35.9580   22.2389 C   0  0  0  0  0  0  0  0  0  0  0  0
  -25.7084  -30.6749   26.5424 C   0  0  0  0  0  0  0  0  0  0  0  0
  -26.3218  -21.4727   20.1898 C   0  0  0  0  0  0  0  0  0  0  0  0
  -28.2337  -25.4636   19.8221 C   0  0  0  0  0  0  0  0  0  1  0  0
  -29.5415  -23.4147   19.1860 C   0  0  0  0  0  0  0  0  0  0  0  0
  -25.8932  -33.5909   22.5054 C   0  0  1  0  0  0  0  0  0  0  0  0
  -26.2887  -33.0856   26.2414 C   0  0  2  0  0  0  0  0  0  0  0  0
  -29.6353  -24.8773   19.6302 C   0  0  2  0  0  0  0  0  0  0  0  0
  -26.1743  -34.9755   21.8563 C   0  0  0  0  0  0  0  0  0  0  0  0
  -26.2358  -11.7836   20.7774 N   0  0  0  0  0  0  0  0  0  0  0  0
  -26.1498  -12.8421   19.9539 N   0  0  0  0  0  0  0  0  0  0  0  0
  -24.7438  -31.7245   21.3568 N   0  0  0  0  0  0  0  0  0  0  0  0
  -29.2935  -14.9450   19.4258 N   0  0  0  0  0  0  0  0  0  0  0  0
  -24.6199  -14.3951   19.0274 N   0  0  0  0  0  0  0  0  0  0  0  0
  -22.0079  -11.7821   21.6246 N   0  0  0  0  0  0  0  0  0  0  0  0
  -28.5053  -17.1598   19.2360 N   0  0  0  0  0  0  0  0  0  0  0  0
  -22.6257  -31.1588   18.4431 N   0  0  0  0  0  0  0  0  0  0  0  0
  -25.7800  -33.6246   23.9596 N   0  0  0  0  0  0  0  0  0  0  0  0
  -26.5196  -31.8289   27.0085 N   0  3  0  0  0  0  0  0  0  0  0  0
  -22.0101  -13.5673   20.1852 O   0  0  0  0  0  0  0  0  0  0  0  0
  -24.6763  -32.1869   18.8434 O   0  0  0  0  0  0  0  0  0  0  0  0
  -23.5456  -33.5529   22.1676 O   0  0  0  0  0  0  0  0  0  0  0  0
  -27.4886  -32.1149   24.3826 O   0  0  0  0  0  0  0  0  0  0  0  0
  -30.5977  -16.5707   18.4257 O   0  0  0  0  0  0  0  0  0  0  0  0
  -23.7023   -7.4676   24.7148 O   0  0  0  0  0  0  0  0  0  0  0  0
  -28.3256  -26.8497   20.1483 O   0  0  0  0  0  0  0  0  0  1  0  0
  -28.9357  -22.6345   20.2083 O   0  0  0  0  0  0  0  0  0  0  0  0
  -19.2688   -4.3922   23.5793 F   0  0  0  0  0  0  0  0  0  0  0  0
  -21.1918   -8.6108   24.5334 F   0  0  0  0  0  0  0  0  0  0  0  0
  1  2  1  0  0  0  0
  1  5  2  0  0  0  0
  2  6  2  0  0  0  0
  3  9  2  0  0  0  0
  3 18  1  0  0  0  0
  4 10  1  0  0  0  0
  4 18  2  0  0  0  0
  5 20  1  0  0  0  0
  6 22  1  0  0  0  0
  7 11  2  0  0  0  0
  7 21  1  0  0  0  0
  8 12  2  0  0  0  0
  8 25  1  0  0  0  0
  9 26  1  0  0  0  0
 10 26  2  0  0  0  0
 11 27  1  0  0  0  0
 12 28  1  0  0  0  0
 13 14  2  0  0  0  0
 13 29  1  0  0  0  0
 14 30  1  0  0  0  0
 15 23  1  0  0  0  0
 15 27  2  0  0  0  0
 16 24  1  0  0  0  0
 16 25  2  0  0  0  0
 17 30  2  0  0  0  0
 17 31  1  0  0  0  0
 18 32  1  0  0  0  0
 19 32  1  0  0  0  0
 19 33  2  0  0  0  0
 19 34  1  0  0  0  0
 20 22  2  0  0  0  0
 20 39  1  0  0  0  0
 21 23  2  0  0  0  0
 21 40  1  0  0  0  0
 22 48  1  0  0  0  0
 23 41  1  0  0  0  0
 24 28  2  0  0  0  0
 24 58  1  0  0  0  0
 25 71  1  0  0  0  0
 26 80  1  0  0  0  0
 27 81  1  0  0  0  0
 28 82  1  0  0  0  0
 29 31  2  0  0  0  0
 29 80  1  0  0  0  0
 30 83  1  0  0  0  0
 31 84  1  0  0  0  0
 32 65  2  0  0  0  0
 33 66  1  0  0  0  0
 33 69  1  0  0  0  0
 34 70  1  0  0  0  0
 34 75  2  0  0  0  0
 35 49  1  0  0  0  0
 35 72  1  0  0  0  0
 35 76  2  0  0  0  0
 36 61  1  0  0  0  0
 36 67  1  0  0  0  0
 36 77  2  0  0  0  0
 37 62  1  0  0  0  0
 37 73  1  0  0  0  0
 37 78  2  0  0  0  0
 38 68  1  0  0  0  0
 38 71  1  0  0  0  0
 38 79  2  0  0  0  0
 39 42  1  0  0  0  0
 40 49  1  0  0  0  0
 41 67  1  0  0  0  0
 42 44  1  0  0  0  0
 43 45  1  0  0  0  0
 43 46  1  0  0  0  0
 44 48  1  0  0  0  0
 45 50  1  0  0  0  0
 46 68  1  0  0  0  0
 47 50  1  0  0  0  0
 47 68  1  0  0  0  0
 48 72  1  0  0  0  0
 49 67  1  0  0  0  0
 50 66  1  0  0  0  0
 51 58  1  0  0  0  0
 52 62  1  0  0  0  0
 53 63  1  0  0  0  0
 54 64  1  0  0  0  0
 55 64  1  0  0  0  0
 56 64  1  0  0  0  0
 57 74  1  0  0  0  0
 59 63  1  0  0  0  0
 59 81  1  0  0  0  0
 60 63  1  0  0  0  0
 60 82  1  0  0  0  0
 61 64  1  0  0  0  0
 61 73  1  0  0  0  0
 62 74  1  0  0  0  0
 65 66  1  0  0  0  0
M  CHG  1  74   1
M  ISO  4  38 100  59 101  71 100  81 101
M  END
> <Batch ID>
0134

> <Smiles>
CCc1cc([100NH:0][100C:0](=O)N2CCCC(n3nc(-c4ccc(Oc5ccc(F)cc5F)cc4)c(C(N)=O)c3N)C2)ccc1OCC(C)[101CH2:1][101O:1]c1ccc2c(c1)CN(C(=O)C(NC(=O)C(C)NC)C(C)(C)C)C(C(=O)NC1CCCc3ccccc31)C2

> <Shape>
0.326

> <Color>
0.142

> <Negative vol penalty>
0.000

$$$$

  -OEChem-04052302333D

 85 93  0     1  0  0  0  0  0999 V2000
  -18.6628  -33.8284   22.3903 C   0  0  0  0  0  0  0  0  0  0  0  0
  -19.9572  -33.6765   21.9034 C   0  0  0  0  0  0  0  0  0  0  0  0
  -32.7511  -23.8352   22.3324 C   0  0  0  0  0  0  0  0  0  0  0  0
  -25.9264  -12.3130   21.8144 C   0  0  0  0  0  0  0  0  0  0  0  0
  -25.4243  -13.4973   19.7693 C   0  0  0  0  0  0  0  0  0  0  0  0
  -18.1605  -32.9244   23.3254 C   0  0  0  0  0  0  0  0  0  0  0  0
  -20.7504  -32.6211   22.3522 C   0  0  0  0  0  0  0  0  0  0  0  0
  -24.8934  -29.4904   19.1058 C   0  0  0  0  0  0  0  0  0  0  0  0
  -31.7529  -22.9955   22.8266 C   0  0  0  0  0  0  0  0  0  0  0  0
  -32.5478  -24.5356   21.1433 C   0  0  0  0  0  0  0  0  0  0  0  0
  -24.8621  -11.4444   21.5727 C   0  0  0  0  0  0  0  0  0  0  0  0
  -24.3600  -12.6286   19.5276 C   0  0  0  0  0  0  0  0  0  0  0  0
  -26.2812  -29.5869   19.0144 C   0  0  0  0  0  0  0  0  0  0  0  0
  -24.2406   -8.7454   19.6331 C   0  0  0  0  0  0  0  0  0  0  0  0
  -24.4626   -7.3809   19.8184 C   0  0  0  0  0  0  0  0  0  0  0  0
  -26.5052  -27.8303   20.6526 C   0  0  0  0  0  0  0  0  0  0  0  0
  -22.7236   -7.3256   21.4947 C   0  0  0  0  0  0  0  0  0  0  0  0
  -26.2075  -13.3395   20.9127 C   0  0  0  0  0  0  0  0  0  0  0  0
  -28.6419  -14.0830   20.7445 C   0  0  0  0  0  0  0  0  0  0  0  0
  -18.9446  -31.8518   23.7786 C   0  0  0  0  0  0  0  0  0  0  0  0
  -24.3001  -28.5691   19.9808 C   0  0  0  0  0  0  0  0  0  0  0  0
  -20.2585  -31.7027   23.2952 C   0  0  0  0  0  0  0  0  0  0  0  0
  -25.1096  -27.7223   20.7513 C   0  0  0  0  0  0  0  0  0  0  0  0
  -30.5515  -22.8561   22.1316 C   0  0  0  0  0  0  0  0  0  0  0  0
  -30.3483  -23.5564   20.9425 C   0  0  0  0  0  0  0  0  0  0  0  0
  -24.0789  -11.6022   20.4293 C   0  0  0  0  0  0  0  0  0  0  0  0
  -27.0874  -28.7588   19.7900 C   0  0  0  0  0  0  0  0  0  0  0  0
  -31.3465  -24.3962   20.4484 C   0  0  0  0  0  0  0  0  0  0  0  0
  -23.2601   -9.4001   20.3787 C   0  0  0  0  0  0  0  0  0  0  0  0
  -23.7041   -6.6709   20.7491 C   0  0  0  0  0  0  0  0  0  0  0  0
  -22.5016   -8.6901   21.3094 C   0  0  0  0  0  0  0  0  0  0  0  0
  -27.3064  -14.2374   21.1620 C   0  0  0  0  0  0  0  0  0  0  0  0
  -29.2843  -15.1956   21.2301 C   0  0  0  0  0  0  0  0  0  0  0  0
  -29.2476  -13.0281   19.9855 C   0  0  0  0  0  0  0  0  0  0  0  0
  -22.3922  -28.7891   22.5136 C   0  0  0  0  0  0  0  0  0  0  0  0
  -30.3668  -27.1374   18.2787 C   0  0  0  0  0  0  0  0  0  0  0  0
  -29.4277  -20.6532   21.9174 C   0  0  0  0  0  0  0  0  0  0  0  0
  -22.3537  -25.5540   22.2784 C   0  0  0  0  0  0  0  0  0  0  0  0
  -23.8983  -22.7092   21.1977 C   0  0  0  0  0  0  0  0  0  0  0  0
  -18.3748  -30.9276   24.8255 C   0  0  0  0  0  0  0  0  0  0  0  0
  -22.8015  -28.4588   20.0480 C   0  0  0  0  0  0  0  0  0  0  0  0
  -24.5220  -26.7025   21.6911 C   0  0  0  0  0  0  0  0  0  0  0  0
  -19.1482  -29.6194   24.9690 C   0  0  0  0  0  0  0  0  0  0  0  0
  -27.7597  -18.7217   24.5085 C   0  0  0  0  0  0  0  0  0  0  0  0
  -20.6482  -29.8898   25.0294 C   0  0  0  0  0  0  0  0  0  0  0  0
  -27.5775  -17.3725   23.8146 C   0  0  0  0  0  0  0  0  0  0  0  0
  -27.6174  -19.8817   23.5266 C   0  0  0  0  0  0  0  0  0  0  0  0
  -28.3516  -18.4411   21.6531 C   0  0  0  0  0  0  0  0  0  0  0  0
  -21.1410  -30.5563   23.7392 C   0  0  1  0  0  0  0  0  0  0  0  0
  -22.3057  -27.8405   21.3515 C   0  0  1  0  0  0  0  0  0  0  0  0
  -28.5178  -17.2435   22.6034 C   0  0  2  0  0  0  0  0  0  0  0  0
  -28.1388  -24.6059   20.3919 C   0  0  0  0  0  0  0  0  0  0  0  0
  -23.6441  -20.2127   21.1855 C   0  0  0  0  0  0  0  0  0  0  0  0
  -23.2004  -25.4559   25.2081 C   0  0  0  0  0  0  0  0  0  0  0  0
  -23.8420  -23.0596   24.8702 C   0  0  0  0  0  0  0  0  0  0  0  0
  -21.4699  -23.7687   24.5653 C   0  0  0  0  0  0  0  0  0  0  0  0
  -23.8233  -22.6151   18.2406 C   0  0  0  0  0  0  0  0  0  0  0  0
  -29.4988  -21.9508   22.6822 C   0  0  0  0  0  0  0  0  0  0  0  0
  -29.0631  -23.4095   20.1922 C   0  0  0  0  0  0  0  0  0  0  0  0
  -30.3694  -28.6587   18.2481 C   0  0  0  0  0  0  0  0  0  0  0  0
  -31.2325  -26.5020   19.3492 C   0  0  0  0  0  0  0  0  0  0  0  0
  -28.9863  -29.2609   18.4492 C   0  0  0  0  0  0  0  0  0  1  0  0
  -23.1934  -24.4313   22.8383 C   0  0  1  0  0  0  0  0  0  0  0  0
  -23.3744  -21.5067   20.4334 C   0  0  2  0  0  0  0  0  0  0  0  0
  -22.9378  -24.1993   24.3543 C   0  0  0  0  0  0  0  0  0  0  0  0
  -27.1106  -15.3596   21.8594 N   0  0  0  0  0  0  0  0  0  0  0  0
  -28.3317  -15.9204   21.8838 N   0  0  0  0  0  0  0  0  0  0  0  0
  -23.0516  -26.6374   21.7260 N   0  0  0  0  0  0  0  0  0  0  0  0
  -28.5094  -19.7074   22.3740 N   0  0  0  0  0  0  0  0  0  0  0  0
  -30.5655  -15.6149   21.1575 N   0  0  0  0  0  0  0  0  0  0  0  0
  -28.4430  -11.9602   19.5655 N   0  0  0  0  0  0  0  0  0  0  0  0
  -21.2694  -29.5769   22.6816 N   0  0  0  0  0  0  0  0  0  0  0  0
  -22.9267  -23.2659   22.0022 N   0  0  0  0  0  0  0  0  0  0  0  0
  -24.0270  -21.4181   19.0966 N   0  3  0  0  0  0  0  0  0  0  0  0
  -30.4697  -13.0243   19.7026 O   0  0  0  0  0  0  0  0  0  0  0  0
  -23.4021  -28.8040   23.2075 O   0  0  0  0  0  0  0  0  0  0  0  0
  -29.7072  -26.4591   17.4928 O   0  0  0  0  0  0  0  0  0  0  0  0
  -30.1687  -20.4860   20.9452 O   0  0  0  0  0  0  0  0  0  0  0  0
  -21.1239  -25.4695   22.3229 O   0  0  0  0  0  0  0  0  0  0  0  0
  -25.0549  -23.1119   21.0943 O   0  0  0  0  0  0  0  0  0  0  0  0
  -23.0404  -10.7547   20.1931 O   0  0  0  0  0  0  0  0  0  0  0  0
  -31.1651  -25.0935   19.2775 O   0  0  0  0  0  0  0  0  0  0  0  0
  -28.4423  -28.8514   19.7032 O   0  0  0  0  0  0  0  0  0  1  0  0
  -23.9163   -5.3602   20.9258 F   0  0  0  0  0  0  0  0  0  0  0  0
  -21.5575   -9.3134   22.0278 F   0  0  0  0  0  0  0  0  0  0  0  0
  1  2  1  0  0  0  0
  1  6  2  0  0  0  0
  2  7  2  0  0  0  0
  3  9  1  0  0  0  0
  3 10  2  0  0  0  0
  4 11  2  0  0  0  0
  4 18  1  0  0  0  0
  5 12  1  0  0  0  0
  5 18  2  0  0  0  0
  6 20  1  0  0  0  0
  7 22  1  0  0  0  0
  8 13  2  0  0  0  0
  8 21  1  0  0  0  0
  9 24  2  0  0  0  0
 10 28  1  0  0  0  0
 11 26  1  0  0  0  0
 12 26  2  0  0  0  0
 13 27  1  0  0  0  0
 14 15  2  0  0  0  0
 14 29  1  0  0  0  0
 15 30  1  0  0  0  0
 16 23  1  0  0  0  0
 16 27  2  0  0  0  0
 17 30  2  0  0  0  0
 17 31  1  0  0  0  0
 18 32  1  0  0  0  0
 19 32  1  0  0  0  0
 19 33  2  0  0  0  0
 19 34  1  0  0  0  0
 20 22  2  0  0  0  0
 20 40  1  0  0  0  0
 21 23  2  0  0  0  0
 21 41  1  0  0  0  0
 22 49  1  0  0  0  0
 23 42  1  0  0  0  0
 24 25  1  0  0  0  0
 24 58  1  0  0  0  0
 25 28  2  0  0  0  0
 25 59  1  0  0  0  0
 26 81  1  0  0  0  0
 27 83  1  0  0  0  0
 28 82  1  0  0  0  0
 29 31  2  0  0  0  0
 29 81  1  0  0  0  0
 30 84  1  0  0  0  0
 31 85  1  0  0  0  0
 32 66  2  0  0  0  0
 33 67  1  0  0  0  0
 33 70  1  0  0  0  0
 34 71  1  0  0  0  0
 34 75  2  0  0  0  0
 35 50  1  0  0  0  0
 35 72  1  0  0  0  0
 35 76  2  0  0  0  0
 36 60  1  0  0  0  0
 36 61  1  0  0  0  0
 36 77  2  0  0  0  0
 37 58  1  0  0  0  0
 37 69  1  0  0  0  0
 37 78  2  0  0  0  0
 38 63  1  0  0  0  0
 38 68  1  0  0  0  0
 38 79  2  0  0  0  0
 39 64  1  0  0  0  0
 39 73  1  0  0  0  0
 39 80  2  0  0  0  0
 40 43  1  0  0  0  0
 41 50  1  0  0  0  0
 42 68  1  0  0  0  0
 43 45  1  0  0  0  0
 44 46  1  0  0  0  0
 44 47  1  0  0  0  0
 45 49  1  0  0  0  0
 46 51  1  0  0  0  0
 47 69  1  0  0  0  0
 48 51  1  0  0  0  0
 48 69  1  0  0  0  0
 49 72  1  0  0  0  0
 50 68  1  0  0  0  0
 51 67  1  0  0  0  0
 52 59  1  0  0  0  0
 53 64  1  0  0  0  0
 54 65  1  0  0  0  0
 55 65  1  0  0  0  0
 56 65  1  0  0  0  0
 57 74  1  0  0  0  0
 60 62  1  0  0  0  0
 61 82  1  0  0  0  0
 62 83  1  0  0  0  0
 63 65  1  0  0  0  0
 63 73  1  0  0  0  0
 64 74  1  0  0  0  0
 66 67  1  0  0  0  0
M  CHG  1  74   1
M  ISO  4  37 100  58 100  62 101  83 101
M  END
> <Batch ID>
0134

> <Smiles>
CCc1c([100CH2:0][100C:0](=O)N2CCCC(n3nc(-c4ccc(Oc5ccc(F)cc5F)cc4)c(C(N)=O)c3N)C2)cccc1OCC(=O)C[101CH2:1][101O:1]c1ccc2c(c1)CN(C(=O)C(NC(=O)C(C)NC)C(C)(C)C)C(C(=O)NC1CCCc3ccccc31)C2

> <Shape>
0.221

> <Color>
0.092

> <Negative vol penalty>
0.000

$$$$

  -OEChem-04052302333D

 85 93  0     1  0  0  0  0  0999 V2000
  -19.3605  -32.0487   15.0379 C   0  0  0  0  0  0  0  0  0  0  0  0
  -20.2355  -31.0073   15.3299 C   0  0  0  0  0  0  0  0  0  0  0  0
  -24.2569   -8.9566   20.3768 C   0  0  0  0  0  0  0  0  0  0  0  0
  -23.1051  -10.9560   21.0931 C   0  0  0  0  0  0  0  0  0  0  0  0
  -19.6900  -33.3555   15.3954 C   0  0  0  0  0  0  0  0  0  0  0  0
  -21.4411  -31.2723   15.9786 C   0  0  0  0  0  0  0  0  0  0  0  0
  -24.3009  -27.6904   20.0403 C   0  0  0  0  0  0  0  0  0  0  0  0
  -23.2206   -8.1761   20.8889 C   0  0  0  0  0  0  0  0  0  0  0  0
  -22.0687  -10.1754   21.6052 C   0  0  0  0  0  0  0  0  0  0  0  0
  -25.3596  -26.7917   19.9167 C   0  0  0  0  0  0  0  0  0  0  0  0
  -21.0473   -5.6408   22.3286 C   0  0  0  0  0  0  0  0  0  0  0  0
  -21.3902   -4.5148   23.0770 C   0  0  0  0  0  0  0  0  0  0  0  0
  -26.8949  -28.5119   20.6258 C   0  0  0  0  0  0  0  0  0  0  0  0
  -30.2968  -18.7670   20.6156 C   0  0  0  0  0  0  0  0  0  0  0  0
  -28.8767  -19.8596   18.4774 C   0  0  0  0  0  0  0  0  0  0  0  0
  -22.5520   -5.9214   24.6609 C   0  0  0  0  0  0  0  0  0  0  0  0
  -24.1992  -10.3466   20.4790 C   0  0  0  0  0  0  0  0  0  0  0  0
  -25.3747  -11.6803   18.6495 C   0  0  0  0  0  0  0  0  0  0  0  0
  -20.8958  -33.6353   16.0574 C   0  0  0  0  0  0  0  0  0  0  0  0
  -24.5331  -29.0119   20.4479 C   0  0  0  0  0  0  0  0  0  0  0  0
  -21.7876  -32.5842   16.3440 C   0  0  0  0  0  0  0  0  0  0  0  0
  -25.8371  -29.4247   20.7563 C   0  0  0  0  0  0  0  0  0  0  0  0
  -30.3396  -20.1410   20.3794 C   0  0  0  0  0  0  0  0  0  0  0  0
  -28.8339  -18.4856   18.7135 C   0  0  0  0  0  0  0  0  0  0  0  0
  -29.5440  -17.9392   19.7826 C   0  0  0  0  0  0  0  0  0  0  0  0
  -22.1264   -8.7854   21.5031 C   0  0  0  0  0  0  0  0  0  0  0  0
  -26.6572  -27.2032   20.2066 C   0  0  0  0  0  0  0  0  0  0  0  0
  -21.4568   -6.9071   22.7463 C   0  0  0  0  0  0  0  0  0  0  0  0
  -29.6295  -20.6873   19.3104 C   0  0  0  0  0  0  0  0  0  0  0  0
  -22.1425   -4.6551   24.2432 C   0  0  0  0  0  0  0  0  0  0  0  0
  -22.2091   -7.0474   23.9125 C   0  0  0  0  0  0  0  0  0  0  0  0
  -25.2698  -11.1534   19.9507 C   0  0  0  0  0  0  0  0  0  0  0  0
  -26.5648  -12.3661   18.6517 C   0  0  0  0  0  0  0  0  0  0  0  0
  -24.4768  -11.5606   17.5382 C   0  0  0  0  0  0  0  0  0  0  0  0
  -24.1084  -31.8732   19.1300 C   0  0  0  0  0  0  0  0  0  0  0  0
  -28.6306  -24.1585   19.5634 C   0  0  0  0  0  0  0  0  0  0  0  0
  -25.0198  -32.9265   22.0595 C   0  0  0  0  0  0  0  0  0  0  0  0
  -26.6946  -32.3095   24.9683 C   0  0  0  0  0  0  0  0  0  0  0  0
  -30.1683  -15.8605   21.0614 C   0  0  0  0  0  0  0  0  0  0  0  0
  -21.2300  -35.0699   16.3816 C   0  0  0  0  0  0  0  0  0  0  0  0
  -23.3769  -29.9617   20.6021 C   0  0  0  0  0  0  0  0  0  0  0  0
  -26.1369  -30.8269   21.2173 C   0  0  0  0  0  0  0  0  0  0  0  0
  -22.3566  -35.2174   17.4011 C   0  0  0  0  0  0  0  0  0  0  0  0
  -30.3159  -12.4430   22.0494 C   0  0  0  0  0  0  0  0  0  0  0  0
  -23.5224  -34.3004   17.0449 C   0  0  0  0  0  0  0  0  0  0  0  0
  -29.0249  -11.8462   21.4845 C   0  0  0  0  0  0  0  0  0  0  0  0
  -30.1089  -13.8714   22.5498 C   0  0  0  0  0  0  0  0  0  0  0  0
  -28.2117  -14.1918   21.0113 C   0  0  0  0  0  0  0  0  0  0  0  0
  -23.0935  -32.8283   17.0688 C   0  0  1  0  0  0  0  0  0  0  0  0
  -23.7940  -31.4274   20.5300 C   0  0  1  0  0  0  0  0  0  0  0  0
  -28.3857  -12.7770   20.4353 C   0  0  2  0  0  0  0  0  0  0  0  0
  -28.0195  -17.6224   17.8054 C   0  0  0  0  0  0  0  0  0  0  0  0
  -32.4742  -21.4294   20.6440 C   0  0  0  0  0  0  0  0  0  0  0  0
  -27.2951  -33.3747   27.1597 C   0  0  0  0  0  0  0  0  0  0  0  0
  -27.1377  -34.6155   20.6553 C   0  0  0  0  0  0  0  0  0  0  0  0
  -28.2823  -34.8918   22.8648 C   0  0  0  0  0  0  0  0  0  0  0  0
  -25.9684  -35.7664   22.5428 C   0  0  0  0  0  0  0  0  0  0  0  0
  -25.2567  -30.2293   26.5059 C   0  0  0  0  0  0  0  0  0  0  0  0
  -31.1521  -21.0112   21.2806 C   0  0  0  0  0  0  0  0  0  0  0  0
  -27.3771  -25.0040   19.6577 C   0  0  0  0  0  0  0  0  0  1  0  0
  -28.4306  -22.7303   19.0993 C   0  0  0  0  0  0  0  0  0  0  0  0
  -26.3382  -33.2709   22.7093 C   0  0  1  0  0  0  0  0  0  0  0  0
  -26.2951  -32.4994   26.4204 C   0  0  2  0  0  0  0  0  0  0  0  0
  -26.9266  -34.6102   22.1825 C   0  0  0  0  0  0  0  0  0  0  0  0
  -26.3102  -11.4766   20.7234 N   0  0  0  0  0  0  0  0  0  0  0  0
  -27.0803  -12.2140   19.9052 N   0  0  0  0  0  0  0  0  0  0  0  0
  -24.9737  -31.7201   21.3464 N   0  0  0  0  0  0  0  0  0  0  0  0
  -29.5040  -14.6961   21.5015 N   0  0  0  0  0  0  0  0  0  0  0  0
  -27.2100  -13.0784   17.7037 N   0  0  0  0  0  0  0  0  0  0  0  0
  -23.2988  -10.8203   17.7077 N   0  0  0  0  0  0  0  0  0  0  0  0
  -29.5138  -16.5459   20.0385 N   0  0  0  0  0  0  0  0  0  0  0  0
  -23.0144  -32.3469   18.4313 N   0  0  0  0  0  0  0  0  0  0  0  0
  -26.1024  -33.2470   24.1488 N   0  0  0  0  0  0  0  0  0  0  0  0
  -26.2207  -31.1823   27.1137 N   0  3  0  0  0  0  0  0  0  0  0  0
  -24.7199  -12.0805   16.4228 O   0  0  0  0  0  0  0  0  0  0  0  0
  -25.2587  -31.7946   18.7149 O   0  0  0  0  0  0  0  0  0  0  0  0
  -29.7417  -24.6039   19.8466 O   0  0  0  0  0  0  0  0  0  0  0  0
  -24.0640  -33.6959   22.1861 O   0  0  0  0  0  0  0  0  0  0  0  0
  -27.4589  -31.4208   24.5985 O   0  0  0  0  0  0  0  0  0  0  0  0
  -31.2524  -16.2080   21.5368 O   0  0  0  0  0  0  0  0  0  0  0  0
  -21.1148   -8.0241   22.0026 O   0  0  0  0  0  0  0  0  0  0  0  0
  -27.6924  -26.3281   20.0861 O   0  0  0  0  0  0  0  0  0  1  0  0
  -29.6614  -22.0394   19.0635 O   0  0  0  0  0  0  0  0  0  0  0  0
  -22.4705   -3.5738   24.9626 F   0  0  0  0  0  0  0  0  0  0  0  0
  -22.6043   -8.2615   24.3194 F   0  0  0  0  0  0  0  0  0  0  0  0
  1  2  1  0  0  0  0
  1  5  2  0  0  0  0
  2  6  2  0  0  0  0
  3  8  2  0  0  0  0
  3 17  1  0  0  0  0
  4  9  1  0  0  0  0
  4 17  2  0  0  0  0
  5 19  1  0  0  0  0
  6 21  1  0  0  0  0
  7 10  2  0  0  0  0
  7 20  1  0  0  0  0
  8 26  1  0  0  0  0
  9 26  2  0  0  0  0
 10 27  1  0  0  0  0
 11 12  2  0  0  0  0
 11 28  1  0  0  0  0
 12 30  1  0  0  0  0
 13 22  1  0  0  0  0
 13 27  2  0  0  0  0
 14 23  1  0  0  0  0
 14 25  2  0  0  0  0
 15 24  2  0  0  0  0
 15 29  1  0  0  0  0
 16 30  2  0  0  0  0
 16 31  1  0  0  0  0
 17 32  1  0  0  0  0
 18 32  1  0  0  0  0
 18 33  2  0  0  0  0
 18 34  1  0  0  0  0
 19 21  2  0  0  0  0
 19 40  1  0  0  0  0
 20 22  2  0  0  0  0
 20 41  1  0  0  0  0
 21 49  1  0  0  0  0
 22 42  1  0  0  0  0
 23 29  2  0  0  0  0
 23 59  1  0  0  0  0
 24 25  1  0  0  0  0
 24 52  1  0  0  0  0
 25 71  1  0  0  0  0
 26 81  1  0  0  0  0
 27 82  1  0  0  0  0
 28 31  2  0  0  0  0
 28 81  1  0  0  0  0
 29 83  1  0  0  0  0
 30 84  1  0  0  0  0
 31 85  1  0  0  0  0
 32 65  2  0  0  0  0
 33 66  1  0  0  0  0
 33 69  1  0  0  0  0
 34 70  1  0  0  0  0
 34 75  2  0  0  0  0
 35 50  1  0  0  0  0
 35 72  1  0  0  0  0
 35 76  2  0  0  0  0
 36 60  1  0  0  0  0
 36 61  1  0  0  0  0
 36 77  2  0  0  0  0
 37 62  1  0  0  0  0
 37 67  1  0  0  0  0
 37 78  2  0  0  0  0
 38 63  1  0  0  0  0
 38 73  1  0  0  0  0
 38 79  2  0  0  0  0
 39 68  1  0  0  0  0
 39 71  1  0  0  0  0
 39 80  2  0  0  0  0
 40 43  1  0  0  0  0
 41 50  1  0  0  0  0
 42 67  1  0  0  0  0
 43 45  1  0  0  0  0
 44 46  1  0  0  0  0
 44 47  1  0  0  0  0
 45 49  1  0  0  0  0
 46 51  1  0  0  0  0
 47 68  1  0  0  0  0
 48 51  1  0  0  0  0
 48 68  1  0  0  0  0
 49 72  1  0  0  0  0
 50 67  1  0  0  0  0
 51 66  1  0  0  0  0
 53 59  1  0  0  0  0
 54 63  1  0  0  0  0
 55 64  1  0  0  0  0
 56 64  1  0  0  0  0
 57 64  1  0  0  0  0
 58 74  1  0  0  0  0
 60 82  1  0  0  0  0
 61 83  1  0  0  0  0
 62 64  1  0  0  0  0
 62 73  1  0  0  0  0
 63 74  1  0  0  0  0
 65 66  1  0  0  0  0
M  CHG  1  74   1
M  ISO  4  39 100  60 101  71 100  82 101
M  END
> <Batch ID>
0134

> <Smiles>
CCc1cc([100NH:0][100C:0](=O)N2CCCC(n3nc(-c4ccc(Oc5ccc(F)cc5F)cc4)c(C(N)=O)c3N)C2)c(C)cc1OCC(=O)[101CH2:1][101O:1]c1ccc2c(c1)CN(C(=O)C(NC(=O)C(C)NC)C(C)(C)C)C(C(=O)NC1CCCc3ccccc31)C2

> <Shape>
0.318

> <Color>
0.112

> <Negative vol penalty>
0.000

$$$$

  -OEChem-04052302333D

 87 95  0     1  0  0  0  0  0999 V2000
  -32.6261  -24.2198   12.2146 C   0  0  0  0  0  0  0  0  0  0  0  0
  -33.2523  -23.9104   13.4177 C   0  0  0  0  0  0  0  0  0  0  0  0
  -23.1307   -9.7203   20.0192 C   0  0  0  0  0  0  0  0  0  0  0  0
  -23.8227   -9.8924   22.3276 C   0  0  0  0  0  0  0  0  0  0  0  0
  -31.8208  -25.3541   12.1207 C   0  0  0  0  0  0  0  0  0  0  0  0
  -33.0746  -24.7359   14.5275 C   0  0  0  0  0  0  0  0  0  0  0  0
  -32.1818  -22.1205   18.7710 C   0  0  0  0  0  0  0  0  0  0  0  0
  -22.4094   -8.5653   20.3215 C   0  0  0  0  0  0  0  0  0  0  0  0
  -23.1013   -8.7375   22.6299 C   0  0  0  0  0  0  0  0  0  0  0  0
  -33.2781  -21.5281   19.3964 C   0  0  0  0  0  0  0  0  0  0  0  0
  -19.4411   -7.7819   21.7387 C   0  0  0  0  0  0  0  0  0  0  0  0
  -18.1506   -7.6696   21.2215 C   0  0  0  0  0  0  0  0  0  0  0  0
  -33.3546  -23.3504   20.9752 C   0  0  0  0  0  0  0  0  0  0  0  0
  -30.2150  -18.6375   23.7775 C   0  0  0  0  0  0  0  0  0  0  0  0
  -31.8659  -16.8394   22.4270 C   0  0  0  0  0  0  0  0  0  0  0  0
  -18.7979   -5.6630   20.0418 C   0  0  0  0  0  0  0  0  0  0  0  0
  -23.8374  -10.3838   21.0222 C   0  0  0  0  0  0  0  0  0  0  0  0
  -24.1184  -12.9047   20.7509 C   0  0  0  0  0  0  0  0  0  0  0  0
  -31.6254  -26.1886   13.2325 C   0  0  0  0  0  0  0  0  0  0  0  0
  -31.6697  -23.3399   19.2372 C   0  0  0  0  0  0  0  0  0  0  0  0
  -32.2671  -25.8832   14.4480 C   0  0  0  0  0  0  0  0  0  0  0  0
  -32.2502  -23.9549   20.3556 C   0  0  0  0  0  0  0  0  0  0  0  0
  -29.6584  -17.6883   22.9204 C   0  0  0  0  0  0  0  0  0  0  0  0
  -31.5971  -18.6878   23.9594 C   0  0  0  0  0  0  0  0  0  0  0  0
  -30.4838  -16.7892   22.2451 C   0  0  0  0  0  0  0  0  0  0  0  0
  -22.3947   -8.0740   21.6269 C   0  0  0  0  0  0  0  0  0  0  0  0
  -33.8664  -22.1444   20.4968 C   0  0  0  0  0  0  0  0  0  0  0  0
  -20.4101   -6.8347   21.4074 C   0  0  0  0  0  0  0  0  0  0  0  0
  -32.4225  -17.7887   23.2841 C   0  0  0  0  0  0  0  0  0  0  0  0
  -17.8290   -6.6102   20.3731 C   0  0  0  0  0  0  0  0  0  0  0  0
  -20.0885   -5.7753   20.5590 C   0  0  0  0  0  0  0  0  0  0  0  0
  -24.5832  -11.5765   20.7104 C   0  0  0  0  0  0  0  0  0  0  0  0
  -25.2013  -13.6592   20.3709 C   0  0  0  0  0  0  0  0  0  0  0  0
  -22.8235  -13.4111   21.1009 C   0  0  0  0  0  0  0  0  0  0  0  0
  -31.3386  -26.2514   18.0054 C   0  0  0  0  0  0  0  0  0  0  0  0
  -35.7609  -19.6174   22.2833 C   0  0  0  0  0  0  0  0  0  0  0  0
  -29.7510  -26.8194   20.7765 C   0  0  0  0  0  0  0  0  0  0  0  0
  -29.2268  -25.9736   24.0410 C   0  0  0  0  0  0  0  0  0  0  0  0
  -30.6317  -14.8621   20.6294 C   0  0  0  0  0  0  0  0  0  0  0  0
  -30.7840  -27.4297   13.0697 C   0  0  0  0  0  0  0  0  0  0  0  0
  -30.4700  -23.9525   18.5680 C   0  0  0  0  0  0  0  0  0  0  0  0
  -31.7255  -25.2544   20.9076 C   0  0  0  0  0  0  0  0  0  0  0  0
  -30.3462  -28.0471   14.3954 C   0  0  0  0  0  0  0  0  0  0  0  0
  -29.6488  -12.2744   18.3900 C   0  0  0  0  0  0  0  0  0  0  0  0
  -31.5255  -28.1339   15.3590 C   0  0  0  0  0  0  0  0  0  0  0  0
  -28.2051  -11.9714   18.7973 C   0  0  0  0  0  0  0  0  0  0  0  0
  -30.5222  -12.6033   19.5994 C   0  0  0  0  0  0  0  0  0  0  0  0
  -28.5579  -13.3612   20.8785 C   0  0  0  0  0  0  0  0  0  0  0  0
  -32.0788  -26.7404   15.6808 C   0  0  1  0  0  0  0  0  0  0  0  0
  -30.3521  -25.4541   18.8108 C   0  0  1  0  0  0  0  0  0  0  0  0
  -27.6247  -13.0877   19.6877 C   0  0  2  0  0  0  0  0  0  0  0  0
  -28.1747  -17.6573   22.7448 C   0  0  0  0  0  0  0  0  0  0  0  0
  -32.2152  -21.1000   24.2521 C   0  0  0  0  0  0  0  0  0  0  0  0
  -36.7612  -17.7190   23.5953 C   0  0  0  0  0  0  0  0  0  0  0  0
  -27.8966  -26.6441   26.0605 C   0  0  0  0  0  0  0  0  0  0  0  0
  -31.6104  -29.1999   21.2080 C   0  0  0  0  0  0  0  0  0  0  0  0
  -30.8921  -29.2373   23.6061 C   0  0  0  0  0  0  0  0  0  0  0  0
  -29.2175  -29.6247   21.7982 C   0  0  0  0  0  0  0  0  0  0  0  0
  -27.8761  -23.3434   24.1681 C   0  0  0  0  0  0  0  0  0  0  0  0
  -32.1767  -19.7101   24.8805 C   0  0  0  0  0  0  0  0  0  0  0  0
  -35.0195  -20.1446   21.0687 C   0  0  0  0  0  0  0  0  0  1  0  0
  -34.5742  -17.4082   22.3454 C   0  0  0  0  0  0  0  0  0  0  0  0
  -35.9370  -18.1011   22.3668 C   0  0  1  0  0  0  0  0  0  0  0  0
  -30.1419  -27.2985   22.1537 C   0  0  1  0  0  0  0  0  0  0  0  0
  -27.9500  -25.7504   24.8312 C   0  0  2  0  0  0  0  0  0  0  0  0
  -30.4768  -28.8166   22.1802 C   0  0  0  0  0  0  0  0  0  0  0  0
  -25.8618  -11.4890   20.3341 N   0  0  0  0  0  0  0  0  0  0  0  0
  -26.2096  -12.7717   20.1347 N   0  0  0  0  0  0  0  0  0  0  0  0
  -30.5547  -25.8172   20.2149 N   0  0  0  0  0  0  0  0  0  0  0  0
  -29.9118  -13.6718   20.3935 N   0  0  0  0  0  0  0  0  0  0  0  0
  -25.3799  -14.9887   20.2190 N   0  0  0  0  0  0  0  0  0  0  0  0
  -21.8256  -12.4978   21.4674 N   0  0  0  0  0  0  0  0  0  0  0  0
  -29.9374  -15.8189   21.3690 N   0  0  0  0  0  0  0  0  0  0  0  0
  -31.2289  -26.0683   16.6402 N   0  0  0  0  0  0  0  0  0  0  0  0
  -29.0536  -26.9111   23.0448 N   0  0  0  0  0  0  0  0  0  0  0  0
  -27.8585  -24.3314   25.2774 N   0  3  0  0  0  0  0  0  0  0  0  0
  -22.5545  -14.6360   21.0731 O   0  0  0  0  0  0  0  0  0  0  0  0
  -32.1391  -26.9800   18.5800 O   0  0  0  0  0  0  0  0  0  0  0  0
  -36.1807  -20.3728   23.1601 O   0  0  0  0  0  0  0  0  0  0  0  0
  -28.7646  -27.3111   20.2226 O   0  0  0  0  0  0  0  0  0  0  0  0
  -30.2742  -25.3788   24.2856 O   0  0  0  0  0  0  0  0  0  0  0  0
  -31.7694  -15.0317   20.1833 O   0  0  0  0  0  0  0  0  0  0  0  0
  -21.6907   -6.9471   21.9223 O   0  0  0  0  0  0  0  0  0  0  0  0
  -34.9370  -21.5687   21.1087 O   0  0  0  0  0  0  0  0  0  1  0  0
  -33.7821  -17.8245   23.4506 O   0  0  0  0  0  0  0  0  0  0  0  0
  -16.5892   -6.5017   19.8777 F   0  0  0  0  0  0  0  0  0  0  0  0
  -21.0148   -4.8617   20.2380 F   0  0  0  0  0  0  0  0  0  0  0  0
  1  2  1  0  0  0  0
  1  5  2  0  0  0  0
  2  6  2  0  0  0  0
  3  8  2  0  0  0  0
  3 17  1  0  0  0  0
  4  9  1  0  0  0  0
  4 17  2  0  0  0  0
  5 19  1  0  0  0  0
  6 21  1  0  0  0  0
  7 10  2  0  0  0  0
  7 20  1  0  0  0  0
  8 26  1  0  0  0  0
  9 26  2  0  0  0  0
 10 27  1  0  0  0  0
 11 12  2  0  0  0  0
 11 28  1  0  0  0  0
 12 30  1  0  0  0  0
 13 22  1  0  0  0  0
 13 27  2  0  0  0  0
 14 23  2  0  0  0  0
 14 24  1  0  0  0  0
 15 25  2  0  0  0  0
 15 29  1  0  0  0  0
 16 30  2  0  0  0  0
 16 31  1  0  0  0  0
 17 32  1  0  0  0  0
 18 32  1  0  0  0  0
 18 33  2  0  0  0  0
 18 34  1  0  0  0  0
 19 21  2  0  0  0  0
 19 40  1  0  0  0  0
 20 22  2  0  0  0  0
 20 41  1  0  0  0  0
 21 49  1  0  0  0  0
 22 42  1  0  0  0  0
 23 25  1  0  0  0  0
 23 52  1  0  0  0  0
 24 29  2  0  0  0  0
 24 60  1  0  0  0  0
 25 73  1  0  0  0  0
 26 83  1  0  0  0  0
 27 84  1  0  0  0  0
 28 31  2  0  0  0  0
 28 83  1  0  0  0  0
 29 85  1  0  0  0  0
 30 86  1  0  0  0  0
 31 87  1  0  0  0  0
 32 67  2  0  0  0  0
 33 68  1  0  0  0  0
 33 71  1  0  0  0  0
 34 72  1  0  0  0  0
 34 77  2  0  0  0  0
 35 50  1  0  0  0  0
 35 74  1  0  0  0  0
 35 78  2  0  0  0  0
 36 61  1  0  0  0  0
 36 63  1  0  0  0  0
 36 79  2  0  0  0  0
 37 64  1  0  0  0  0
 37 69  1  0  0  0  0
 37 80  2  0  0  0  0
 38 65  1  0  0  0  0
 38 75  1  0  0  0  0
 38 81  2  0  0  0  0
 39 70  1  0  0  0  0
 39 73  1  0  0  0  0
 39 82  2  0  0  0  0
 40 43  1  0  0  0  0
 41 50  1  0  0  0  0
 42 69  1  0  0  0  0
 43 45  1  0  0  0  0
 44 46  1  0  0  0  0
 44 47  1  0  0  0  0
 45 49  1  0  0  0  0
 46 51  1  0  0  0  0
 47 70  1  0  0  0  0
 48 51  1  0  0  0  0
 48 70  1  0  0  0  0
 49 74  1  0  0  0  0
 50 69  1  0  0  0  0
 51 68  1  0  0  0  0
 53 60  1  0  0  0  0
 54 63  1  0  0  0  0
 55 65  1  0  0  0  0
 56 66  1  0  0  0  0
 57 66  1  0  0  0  0
 58 66  1  0  0  0  0
 59 76  1  0  0  0  0
 61 84  1  0  0  0  0
 62 63  1  0  0  0  0
 62 85  1  0  0  0  0
 64 66  1  0  0  0  0
 64 75  1  0  0  0  0
 65 76  1  0  0  0  0
 67 68  1  0  0  0  0
M  CHG  1  76   1
M  ISO  4  39 100  61 101  73 100  84 101
M  END
> <Batch ID>
0134

> <Smiles>
CCc1cc(C)c([100NH:0][100C:0](=O)N2CCCC(n3nc(-c4ccc(Oc5ccc(F)cc5F)cc4)c(C(N)=O)c3N)C2)cc1OCC(C)C(=O)[101CH2:1][101O:1]c1ccc2c(c1)CN(C(=O)C(NC(=O)C(C)NC)C(C)(C)C)C(C(=O)NC1CCCc3ccccc31)C2

> <Shape>
0.207

> <Color>
0.193

> <Negative vol penalty>
0.000

$$$$
