
  -OEChem-04052302363D

 87 95  0     1  0  0  0  0  0999 V2000
  -21.7485  -11.4563   20.6090 C   0  0  0  0  0  0  0  0  0  0  0  0
  -21.6442  -12.7270   21.1658 C   0  0  0  0  0  0  0  0  0  0  0  0
  -24.9891  -28.7278   19.2590 C   0  0  0  0  0  0  0  0  0  0  0  0
  -25.9621  -27.8058   21.2690 C   0  0  0  0  0  0  0  0  0  0  0  0
  -19.3245  -24.9190   26.1974 C   0  0  0  0  0  0  0  0  0  0  0  0
  -23.0009  -10.9451   20.2713 C   0  0  0  0  0  0  0  0  0  0  0  0
  -22.7925  -13.4868   21.3861 C   0  0  0  0  0  0  0  0  0  0  0  0
  -22.2482  -18.3016   19.9145 C   0  0  0  0  0  0  0  0  0  0  0  0
  -19.4815  -23.5389   26.3252 C   0  0  0  0  0  0  0  0  0  0  0  0
  -26.1475  -29.4734   19.0402 C   0  0  0  0  0  0  0  0  0  0  0  0
  -27.1206  -28.5513   21.0502 C   0  0  0  0  0  0  0  0  0  0  0  0
  -21.5339  -19.1491   20.7603 C   0  0  0  0  0  0  0  0  0  0  0  0
  -30.4744  -29.9370   20.8274 C   0  0  0  0  0  0  0  0  0  0  0  0
  -31.7012  -29.2929   20.9884 C   0  0  0  0  0  0  0  0  0  0  0  0
  -23.6086  -20.0329   21.6170 C   0  0  0  0  0  0  0  0  0  0  0  0
  -21.8731  -23.8282   26.5087 C   0  0  0  0  0  0  0  0  0  0  0  0
  -31.1011  -27.7175   19.2577 C   0  0  0  0  0  0  0  0  0  0  0  0
  -24.8964  -27.8940   20.3734 C   0  0  0  0  0  0  0  0  0  0  0  0
  -20.4417  -25.7536   26.2251 C   0  0  0  0  0  0  0  0  0  0  0  0
  -23.4253  -25.8235   20.1368 C   0  0  0  0  0  0  0  0  0  0  0  0
  -24.1643  -11.7028   20.4788 C   0  0  0  0  0  0  0  0  0  0  0  0
  -23.6505  -18.3057   19.9214 C   0  0  0  0  0  0  0  0  0  0  0  0
  -24.0618  -12.9847   21.0521 C   0  0  0  0  0  0  0  0  0  0  0  0
  -24.3383  -19.1864   20.7685 C   0  0  0  0  0  0  0  0  0  0  0  0
  -20.7559  -22.9935   26.4810 C   0  0  0  0  0  0  0  0  0  0  0  0
  -21.7160  -25.2082   26.3808 C   0  0  0  0  0  0  0  0  0  0  0  0
  -27.2133  -29.3851   19.9358 C   0  0  0  0  0  0  0  0  0  0  0  0
  -22.2141  -20.0128   21.6138 C   0  0  0  0  0  0  0  0  0  0  0  0
  -29.5610  -29.4713   19.8816 C   0  0  0  0  0  0  0  0  0  0  0  0
  -32.0145  -28.1832   20.2036 C   0  0  0  0  0  0  0  0  0  0  0  0
  -29.8743  -28.3616   19.0968 C   0  0  0  0  0  0  0  0  0  0  0  0
  -23.6998  -27.1241   20.6002 C   0  0  0  0  0  0  0  0  0  0  0  0
  -22.1693  -25.5454   20.6182 C   0  0  0  0  0  0  0  0  0  0  0  0
  -20.2491  -27.1911   26.0892 C   0  0  0  0  0  0  0  0  0  0  0  0
  -24.2333  -24.9451   19.3422 C   0  0  0  0  0  0  0  0  0  0  0  0
  -19.1196  -27.7456   25.3081 C   0  0  0  0  0  0  0  0  0  0  0  0
  -25.8967  -16.1585   20.5907 C   0  0  0  0  0  0  0  0  0  0  0  0
  -27.8900  -18.4886   19.5327 C   0  0  0  0  0  0  0  0  0  0  0  0
  -28.4242  -21.8135   18.9791 C   0  0  0  0  0  0  0  0  0  0  0  0
  -25.5001  -11.0891   20.1415 C   0  0  0  0  0  0  0  0  0  0  0  0
  -24.4062  -17.4045   18.9838 C   0  0  0  0  0  0  0  0  0  0  0  0
  -25.8430  -19.2439   20.7995 C   0  0  0  0  0  0  0  0  0  0  0  0
  -26.6349  -12.1069   20.0606 C   0  0  0  0  0  0  0  0  0  0  0  0
  -18.0771  -27.6607   21.8785 C   0  0  0  0  0  0  0  0  0  0  0  0
  -26.5914  -13.0513   21.2576 C   0  0  0  0  0  0  0  0  0  0  0  0
  -19.3832  -27.4334   21.1180 C   0  0  0  0  0  0  0  0  0  0  0  0
  -18.2959  -28.5200   23.1194 C   0  0  0  0  0  0  0  0  0  0  0  0
  -20.6477  -27.7530   23.2915 C   0  0  0  0  0  0  0  0  0  0  0  0
  -25.2821  -13.8491   21.2836 C   0  0  1  0  0  0  0  0  0  0  0  0
  -25.8342  -17.1266   19.4433 C   0  0  1  0  0  0  0  0  0  0  0  0
  -20.4714  -26.8660   22.0467 C   0  0  2  0  0  0  0  0  0  0  0  0
  -23.4634  -26.2719   27.8306 C   0  0  0  0  0  0  0  0  0  0  0  0
  -22.5617  -18.9586   26.4494 C   0  0  0  0  0  0  0  0  0  0  0  0
  -29.5977  -23.8813   18.1763 C   0  0  0  0  0  0  0  0  0  0  0  0
  -18.5875  -20.4786   24.7908 C   0  0  0  0  0  0  0  0  0  0  0  0
  -29.4122  -18.2068   22.1620 C   0  0  0  0  0  0  0  0  0  0  0  0
  -30.5001  -20.4113   21.6879 C   0  0  0  0  0  0  0  0  0  0  0  0
  -30.8609  -18.4865   20.1428 C   0  0  0  0  0  0  0  0  0  0  0  0
  -27.1671  -21.6295   16.3061 C   0  0  0  0  0  0  0  0  0  0  0  0
  -20.9259  -21.4989   26.6205 C   0  0  0  0  0  0  0  0  0  0  0  0
  -22.9296  -26.0789   26.4146 C   0  0  0  0  0  0  0  0  0  0  0  0
  -21.3704  -19.2353   25.5393 C   0  0  0  0  0  0  0  0  0  0  0  0
  -20.2446  -20.3861   22.8936 C   0  0  0  0  0  0  0  0  0  1  0  0
  -28.6151  -19.6474   20.1732 C   0  0  1  0  0  0  0  0  0  0  0  0
  -28.9628  -22.5599   17.7719 C   0  0  2  0  0  0  0  0  0  0  0  0
  -19.9434  -20.9837   24.2792 C   0  0  2  0  0  0  0  0  0  0  0  0
  -21.1209  -20.7416   25.2793 C   0  0  1  0  0  0  0  0  0  0  0  0
  -29.8187  -19.1858   21.0425 C   0  0  0  0  0  0  0  0  0  0  0  0
  -22.6988  -27.6368   21.3206 N   0  0  0  0  0  0  0  0  0  0  0  0
  -21.0399  -28.0726   26.6362 N   0  0  0  0  0  0  0  0  0  0  0  0
  -21.7829  -26.6534   21.3134 N   0  0  0  0  0  0  0  0  0  0  0  0
  -19.3591  -27.9734   23.9602 N   0  0  0  0  0  0  0  0  0  0  0  0
  -26.5370  -18.3388   19.8686 N   0  0  0  0  0  0  0  0  0  0  0  0
  -21.3688  -24.4638   20.5104 N   0  0  0  0  0  0  0  0  0  0  0  0
  -25.4981  -25.3887   18.9325 N   0  0  0  0  0  0  0  0  0  0  0  0
  -25.3286  -14.9282   20.3203 N   0  0  0  0  0  0  0  0  0  0  0  0
  -28.9746  -20.5540   19.0882 N   0  0  0  0  0  0  0  0  0  0  0  0
  -27.8644  -22.8426   16.8052 N   0  3  0  0  0  0  0  0  0  0  0  0
  -23.8385  -23.8072   18.9917 O   0  0  0  0  0  0  0  0  0  0  0  0
  -18.0898  -27.9452   25.9390 O   0  0  0  0  0  0  0  0  0  0  0  0
  -26.4227  -16.5018   21.6429 O   0  0  0  0  0  0  0  0  0  0  0  0
  -28.4996  -17.7481   18.7571 O   0  0  0  0  0  0  0  0  0  0  0  0
  -27.6005  -22.3006   19.7503 O   0  0  0  0  0  0  0  0  0  0  0  0
  -28.3439  -30.1123   19.7225 O   0  0  0  0  0  0  0  0  0  0  0  0
  -21.5193  -20.8406   22.4409 O   0  0  0  0  0  0  0  0  0  1  0  0
  -33.1932  -27.5657   20.3572 F   0  0  0  0  0  0  0  0  0  0  0  0
  -29.0014  -27.9103   18.1857 F   0  0  0  0  0  0  0  0  0  0  0  0
  1  2  1  0  0  0  0
  1  6  2  0  0  0  0
  2  7  2  0  0  0  0
  3 10  2  0  0  0  0
  3 18  1  0  0  0  0
  4 11  1  0  0  0  0
  4 18  2  0  0  0  0
  5  9  2  0  0  0  0
  5 19  1  0  0  0  0
  6 21  1  0  0  0  0
  7 23  1  0  0  0  0
  8 12  2  0  0  0  0
  8 22  1  0  0  0  0
  9 25  1  0  0  0  0
 10 27  1  0  0  0  0
 11 27  2  0  0  0  0
 12 28  1  0  0  0  0
 13 14  2  0  0  0  0
 13 29  1  0  0  0  0
 14 30  1  0  0  0  0
 15 24  1  0  0  0  0
 15 28  2  0  0  0  0
 16 25  2  0  0  0  0
 16 26  1  0  0  0  0
 17 30  2  0  0  0  0
 17 31  1  0  0  0  0
 18 32  1  0  0  0  0
 19 26  2  0  0  0  0
 19 34  1  0  0  0  0
 20 32  1  0  0  0  0
 20 33  2  0  0  0  0
 20 35  1  0  0  0  0
 21 23  2  0  0  0  0
 21 40  1  0  0  0  0
 22 24  2  0  0  0  0
 22 41  1  0  0  0  0
 23 49  1  0  0  0  0
 24 42  1  0  0  0  0
 25 60  1  0  0  0  0
 26 61  1  0  0  0  0
 27 84  1  0  0  0  0
 28 85  1  0  0  0  0
 29 31  2  0  0  0  0
 29 84  1  0  0  0  0
 30 86  1  0  0  0  0
 31 87  1  0  0  0  0
 32 69  2  0  0  0  0
 33 71  1  0  0  0  0
 33 74  1  0  0  0  0
 34 36  1  0  0  0  0
 34 70  2  0  0  0  0
 35 75  1  0  0  0  0
 35 79  2  0  0  0  0
 36 72  1  0  0  0  0
 36 80  2  0  0  0  0
 37 50  1  0  0  0  0
 37 76  1  0  0  0  0
 37 81  2  0  0  0  0
 38 64  1  0  0  0  0
 38 73  1  0  0  0  0
 38 82  2  0  0  0  0
 39 65  1  0  0  0  0
 39 77  1  0  0  0  0
 39 83  2  0  0  0  0
 40 43  1  0  0  0  0
 41 50  1  0  0  0  0
 42 73  1  0  0  0  0
 43 45  1  0  0  0  0
 44 46  1  0  0  0  0
 44 47  1  0  0  0  0
 45 49  1  0  0  0  0
 46 51  1  0  0  0  0
 47 72  1  0  0  0  0
 48 51  1  0  0  0  0
 48 72  1  0  0  0  0
 49 76  1  0  0  0  0
 50 73  1  0  0  0  0
 51 71  1  0  0  0  0
 52 61  1  0  0  0  0
 53 62  1  0  0  0  0
 54 65  1  0  0  0  0
 55 66  1  0  0  0  0
 56 68  1  0  0  0  0
 57 68  1  0  0  0  0
 58 68  1  0  0  0  0
 59 78  1  0  0  0  0
 60 67  1  0  0  0  0
 62 67  1  0  0  0  0
 63 66  1  0  0  0  0
 63 85  1  0  0  0  0
 64 68  1  0  0  0  0
 64 77  1  0  0  0  0
 65 78  1  0  0  0  0
 66 67  1  0  0  0  0
 69 71  1  0  0  0  0
M  CHG  1  78   1
M  ISO  4  34 100  36 100  63 101  85 101
M  END
> <Batch ID>
0135

> <Smiles>
CCc1cc(CC(CC)C(C)[101CH2:1][101O:1]c2ccc3c(c2)CN(C(=O)C(NC(=O)C(C)NC)C(C)(C)C)C(C(=O)NC2CCCc4ccccc42)C3)ccc1[100C:0](=N)[100C:0](=O)N1CCCC(n2nc(-c3ccc(Oc4ccc(F)cc4F)cc3)c(C(N)=O)c2N)C1

> <Shape>
0.201

> <Color>
0.069

> <Negative vol penalty>
0.000

$$$$

  -OEChem-04052302363D

 87 95  0     1  0  0  0  0  0999 V2000
  -30.9260  -25.7964   17.3200 C   0  0  0  0  0  0  0  0  0  0  0  0
  -29.5510  -25.6334   17.4544 C   0  0  0  0  0  0  0  0  0  0  0  0
  -27.8871  -15.7383   19.2955 C   0  0  0  0  0  0  0  0  0  0  0  0
  -25.6325  -16.4628   19.7737 C   0  0  0  0  0  0  0  0  0  0  0  0
  -31.6608  -26.3852   18.3482 C   0  0  0  0  0  0  0  0  0  0  0  0
  -28.9101  -26.0583   18.6177 C   0  0  0  0  0  0  0  0  0  0  0  0
  -23.2784  -28.4229   19.0643 C   0  0  0  0  0  0  0  0  0  0  0  0
  -27.5572  -14.4447   19.6997 C   0  0  0  0  0  0  0  0  0  0  0  0
  -25.3025  -15.1692   20.1779 C   0  0  0  0  0  0  0  0  0  0  0  0
  -22.0511  -27.8628   19.4162 C   0  0  0  0  0  0  0  0  0  0  0  0
  -24.5233  -12.2258   18.7116 C   0  0  0  0  0  0  0  0  0  0  0  0
  -23.3189  -11.6925   18.2528 C   0  0  0  0  0  0  0  0  0  0  0  0
  -22.3567  -28.6318   21.6821 C   0  0  0  0  0  0  0  0  0  0  0  0
  -25.8256  -24.8015   24.2697 C   0  0  0  0  0  0  0  0  0  0  0  0
  -24.0899  -23.8043   22.9169 C   0  0  0  0  0  0  0  0  0  0  0  0
  -22.5609  -11.4428   20.5332 C   0  0  0  0  0  0  0  0  0  0  0  0
  -26.9247  -16.7474   19.3326 C   0  0  0  0  0  0  0  0  0  0  0  0
  -27.1627  -18.6220   17.6189 C   0  0  0  0  0  0  0  0  0  0  0  0
  -31.0272  -26.8263   19.5207 C   0  0  0  0  0  0  0  0  0  0  0  0
  -24.0604  -29.0833   20.0228 C   0  0  0  0  0  0  0  0  0  0  0  0
  -29.6373  -26.6524   19.6631 C   0  0  0  0  0  0  0  0  0  0  0  0
  -23.5924  -29.2016   21.3392 C   0  0  0  0  0  0  0  0  0  0  0  0
  -24.8594  -25.2910   25.1485 C   0  0  0  0  0  0  0  0  0  0  0  0
  -23.5084  -25.0371   24.9116 C   0  0  0  0  0  0  0  0  0  0  0  0
  -25.4409  -24.0582   23.1538 C   0  0  0  0  0  0  0  0  0  0  0  0
  -26.2649  -14.1601   20.1408 C   0  0  0  0  0  0  0  0  0  0  0  0
  -21.5914  -27.9646   20.7259 C   0  0  0  0  0  0  0  0  0  0  0  0
  -24.7466  -12.3675   20.0812 C   0  0  0  0  0  0  0  0  0  0  0  0
  -23.1237  -24.2937   23.7958 C   0  0  0  0  0  0  0  0  0  0  0  0
  -22.3377  -11.3010   19.1636 C   0  0  0  0  0  0  0  0  0  0  0  0
  -23.7654  -11.9760   20.9920 C   0  0  0  0  0  0  0  0  0  0  0  0
  -27.2651  -18.0840   18.9157 C   0  0  0  0  0  0  0  0  0  0  0  0
  -27.6049  -19.9160   17.7481 C   0  0  0  0  0  0  0  0  0  0  0  0
  -26.7083  -18.0072   16.4059 C   0  0  0  0  0  0  0  0  0  0  0  0
  -26.9526  -28.6261   21.2599 C   0  0  0  0  0  0  0  0  0  0  0  0
  -26.3537  -31.4645   22.7113 C   0  0  0  0  0  0  0  0  0  0  0  0
  -24.0464  -33.7136   23.8360 C   0  0  0  0  0  0  0  0  0  0  0  0
  -27.8047  -23.7214   22.3507 C   0  0  0  0  0  0  0  0  0  0  0  0
  -31.8704  -27.4140   20.6245 C   0  0  0  0  0  0  0  0  0  0  0  0
  -25.3697  -29.7053   19.6210 C   0  0  0  0  0  0  0  0  0  0  0  0
  -24.3845  -29.9181   22.4011 C   0  0  0  0  0  0  0  0  0  0  0  0
  -31.0603  -28.1777   21.6689 C   0  0  0  0  0  0  0  0  0  0  0  0
  -30.5561  -22.6198   20.3775 C   0  0  0  0  0  0  0  0  0  0  0  0
  -29.8364  -27.3706   22.0901 C   0  0  0  0  0  0  0  0  0  0  0  0
  -30.0132  -21.3841   19.6561 C   0  0  0  0  0  0  0  0  0  0  0  0
  -30.0155  -22.7280   21.8022 C   0  0  0  0  0  0  0  0  0  0  0  0
  -28.0098  -21.4323   21.1959 C   0  0  0  0  0  0  0  0  0  0  0  0
  -28.9023  -27.1230   20.8994 C   0  0  1  0  0  0  0  0  0  0  0  0
  -26.3205  -29.9081   20.7967 C   0  0  1  0  0  0  0  0  0  0  0  0
  -28.4755  -21.3155   19.7354 C   0  0  2  0  0  0  0  0  0  0  0  0
  -25.2968  -26.0845   26.3361 C   0  0  0  0  0  0  0  0  0  0  0  0
  -22.3829  -24.7324   27.1313 C   0  0  0  0  0  0  0  0  0  0  0  0
  -23.8590  -35.9219   25.0132 C   0  0  0  0  0  0  0  0  0  0  0  0
  -27.0039  -30.1031   25.3635 C   0  0  0  0  0  0  0  0  0  0  0  0
  -25.9032  -32.0208   26.5379 C   0  0  0  0  0  0  0  0  0  0  0  0
  -27.9214  -32.4175   25.1264 C   0  0  0  0  0  0  0  0  0  0  0  0
  -18.6425  -24.1287   20.3968 C   0  0  0  0  0  0  0  0  0  0  0  0
  -17.8026  -26.1539   21.5940 C   0  0  0  0  0  0  0  0  0  0  0  0
  -22.6855  -34.9623   21.5235 C   0  0  0  0  0  0  0  0  0  0  0  0
  -22.4684  -25.5575   25.8516 C   0  0  0  0  0  0  0  0  0  0  0  0
  -19.7984  -24.8563   22.4898 C   0  0  0  0  0  0  0  0  0  0  0  0
  -21.2766  -24.5162   22.3144 C   0  0  0  0  0  0  0  0  0  0  0  0
  -19.9736  -26.2630   20.3478 C   0  0  0  0  0  0  0  0  0  1  0  0
  -25.7148  -31.8861   24.0125 C   0  0  1  0  0  0  0  0  0  0  0  0
  -23.9413  -35.2186   23.6673 C   0  0  2  0  0  0  0  0  0  0  0  0
  -26.6215  -31.5916   25.2407 C   0  0  0  0  0  0  0  0  0  0  0  0
  -19.0688  -25.3644   21.2179 C   0  0  0  0  0  0  0  0  0  0  0  0
  -27.7356  -18.9641   19.8035 N   0  0  0  0  0  0  0  0  0  0  0  0
  -27.9329  -20.0682   19.0632 N   0  0  0  0  0  0  0  0  0  0  0  0
  -25.6613  -30.5040   21.9605 N   0  0  0  0  0  0  0  0  0  0  0  0
  -28.5525  -22.6598   21.7987 N   0  0  0  0  0  0  0  0  0  0  0  0
  -27.7414  -20.9269   16.8639 N   0  0  0  0  0  0  0  0  0  0  0  0
  -26.2891  -16.6706   16.4507 N   0  0  0  0  0  0  0  0  0  0  0  0
  -26.4224  -23.5604   22.2613 N   0  0  0  0  0  0  0  0  0  0  0  0
  -28.1294  -28.3112   20.6077 N   0  0  0  0  0  0  0  0  0  0  0  0
  -25.3592  -33.2923   23.8558 N   0  0  0  0  0  0  0  0  0  0  0  0
  -22.7255  -35.5678   22.8794 N   0  3  0  0  0  0  0  0  0  0  0  0
  -26.6905  -18.6199   15.3115 O   0  0  0  0  0  0  0  0  0  0  0  0
  -26.4132  -27.9717   22.1446 O   0  0  0  0  0  0  0  0  0  0  0  0
  -27.4240  -31.9741   22.3702 O   0  0  0  0  0  0  0  0  0  0  0  0
  -23.0624  -32.9850   23.9434 O   0  0  0  0  0  0  0  0  0  0  0  0
  -28.3503  -24.7136   22.8403 O   0  0  0  0  0  0  0  0  0  0  0  0
  -25.9426  -12.8979   20.5351 O   0  0  0  0  0  0  0  0  0  0  0  0
  -20.3942  -27.4183   21.0722 O   0  0  0  0  0  0  0  0  0  1  0  0
  -21.8023  -24.0343   23.5469 O   0  0  0  0  0  0  0  0  0  0  0  0
  -21.1805  -10.7903   18.7228 F   0  0  0  0  0  0  0  0  0  0  0  0
  -23.9736  -12.1109   22.3089 F   0  0  0  0  0  0  0  0  0  0  0  0
  1  2  1  0  0  0  0
  1  5  2  0  0  0  0
  2  6  2  0  0  0  0
  3  8  2  0  0  0  0
  3 17  1  0  0  0  0
  4  9  1  0  0  0  0
  4 17  2  0  0  0  0
  5 19  1  0  0  0  0
  6 21  1  0  0  0  0
  7 10  2  0  0  0  0
  7 20  1  0  0  0  0
  8 26  1  0  0  0  0
  9 26  2  0  0  0  0
 10 27  1  0  0  0  0
 11 12  2  0  0  0  0
 11 28  1  0  0  0  0
 12 30  1  0  0  0  0
 13 22  1  0  0  0  0
 13 27  2  0  0  0  0
 14 23  2  0  0  0  0
 14 25  1  0  0  0  0
 15 25  2  0  0  0  0
 15 29  1  0  0  0  0
 16 30  2  0  0  0  0
 16 31  1  0  0  0  0
 17 32  1  0  0  0  0
 18 32  1  0  0  0  0
 18 33  2  0  0  0  0
 18 34  1  0  0  0  0
 19 21  2  0  0  0  0
 19 39  1  0  0  0  0
 20 22  2  0  0  0  0
 20 40  1  0  0  0  0
 21 48  1  0  0  0  0
 22 41  1  0  0  0  0
 23 24  1  0  0  0  0
 23 51  1  0  0  0  0
 24 29  2  0  0  0  0
 24 60  1  0  0  0  0
 25 74  1  0  0  0  0
 26 83  1  0  0  0  0
 27 84  1  0  0  0  0
 28 31  2  0  0  0  0
 28 83  1  0  0  0  0
 29 85  1  0  0  0  0
 30 86  1  0  0  0  0
 31 87  1  0  0  0  0
 32 68  2  0  0  0  0
 33 69  1  0  0  0  0
 33 72  1  0  0  0  0
 34 73  1  0  0  0  0
 34 78  2  0  0  0  0
 35 49  1  0  0  0  0
 35 75  1  0  0  0  0
 35 79  2  0  0  0  0
 36 64  1  0  0  0  0
 36 70  1  0  0  0  0
 36 80  2  0  0  0  0
 37 65  1  0  0  0  0
 37 76  1  0  0  0  0
 37 81  2  0  0  0  0
 38 71  1  0  0  0  0
 38 74  1  0  0  0  0
 38 82  2  0  0  0  0
 39 42  1  0  0  0  0
 40 49  1  0  0  0  0
 41 70  1  0  0  0  0
 42 44  1  0  0  0  0
 43 45  1  0  0  0  0
 43 46  1  0  0  0  0
 44 48  1  0  0  0  0
 45 50  1  0  0  0  0
 46 71  1  0  0  0  0
 47 50  1  0  0  0  0
 47 71  1  0  0  0  0
 48 75  1  0  0  0  0
 49 70  1  0  0  0  0
 50 69  1  0  0  0  0
 52 60  1  0  0  0  0
 53 65  1  0  0  0  0
 54 66  1  0  0  0  0
 55 66  1  0  0  0  0
 56 66  1  0  0  0  0
 57 67  1  0  0  0  0
 58 67  1  0  0  0  0
 59 77  1  0  0  0  0
 61 62  1  0  0  0  0
 61 67  1  0  0  0  0
 62 85  1  0  0  0  0
 63 67  1  0  0  0  0
 63 84  1  0  0  0  0
 64 66  1  0  0  0  0
 64 76  1  0  0  0  0
 65 77  1  0  0  0  0
 68 69  1  0  0  0  0
M  CHG  1  77   1
M  ISO  4  38 100  63 101  74 100  84 101
M  END
> <Batch ID>
0135

> <Smiles>
CCc1c(C)cc([100NH:0][100C:0](=O)N2CCCC(n3nc(-c4ccc(Oc5ccc(F)cc5F)cc4)c(C(N)=O)c3N)C2)cc1OCCC(C)(C)[101CH2:1][101O:1]c1ccc2c(c1)CN(C(=O)C(NC(=O)C(C)NC)C(C)(C)C)C(C(=O)NC1CCCc3ccccc31)C2

> <Shape>
0.295

> <Color>
0.055

> <Negative vol penalty>
0.000

$$$$

  -OEChem-04052302363D

 84 93  0     1  0  0  0  0  0999 V2000
  -20.0739  -28.2216   15.2889 C   0  0  0  0  0  0  0  0  0  0  0  0
  -21.4050  -28.0705   15.6640 C   0  0  0  0  0  0  0  0  0  0  0  0
  -23.2842  -10.1246   22.2851 C   0  0  0  0  0  0  0  0  0  0  0  0
  -24.0783  -11.5925   24.0321 C   0  0  0  0  0  0  0  0  0  0  0  0
  -19.3992  -29.4066   15.5793 C   0  0  0  0  0  0  0  0  0  0  0  0
  -22.0626  -29.1050   16.3287 C   0  0  0  0  0  0  0  0  0  0  0  0
  -32.4416  -18.6164   19.7952 C   0  0  0  0  0  0  0  0  0  0  0  0
  -30.2203  -19.5656   19.8337 C   0  0  0  0  0  0  0  0  0  0  0  0
  -24.7900  -27.4600   20.2658 C   0  0  0  0  0  0  0  0  0  0  0  0
  -31.8940  -17.3397   19.6699 C   0  0  0  0  0  0  0  0  0  0  0  0
  -29.6726  -18.2889   19.7084 C   0  0  0  0  0  0  0  0  0  0  0  0
  -22.6144   -9.3551   23.2362 C   0  0  0  0  0  0  0  0  0  0  0  0
  -23.4084  -10.8230   24.9832 C   0  0  0  0  0  0  0  0  0  0  0  0
  -26.0206  -26.8679   19.9849 C   0  0  0  0  0  0  0  0  0  0  0  0
  -19.7419   -9.5341   25.0111 C   0  0  0  0  0  0  0  0  0  0  0  0
  -18.4327   -9.1467   24.7261 C   0  0  0  0  0  0  0  0  0  0  0  0
  -27.1353  -28.9316   20.5488 C   0  0  0  0  0  0  0  0  0  0  0  0
  -19.0862   -6.8257   24.8790 C   0  0  0  0  0  0  0  0  0  0  0  0
  -24.0163  -11.2433   22.6830 C   0  0  0  0  0  0  0  0  0  0  0  0
  -24.2053  -13.1487   20.9974 C   0  0  0  0  0  0  0  0  0  0  0  0
  -31.6048  -19.7294   19.8771 C   0  0  0  0  0  0  0  0  0  0  0  0
  -20.0460  -30.4524   16.2566 C   0  0  0  0  0  0  0  0  0  0  0  0
  -24.7219  -28.7978   20.6805 C   0  0  0  0  0  0  0  0  0  0  0  0
  -21.3963  -30.3057   16.6273 C   0  0  0  0  0  0  0  0  0  0  0  0
  -25.9028  -29.5375   20.8368 C   0  0  0  0  0  0  0  0  0  0  0  0
  -30.5094  -17.1760   19.6265 C   0  0  0  0  0  0  0  0  0  0  0  0
  -22.6764   -9.7042   24.5852 C   0  0  0  0  0  0  0  0  0  0  0  0
  -27.1933  -27.6046   20.1236 C   0  0  0  0  0  0  0  0  0  0  0  0
  -20.7234   -8.5674   25.2300 C   0  0  0  0  0  0  0  0  0  0  0  0
  -18.1048   -7.7925   24.6601 C   0  0  0  0  0  0  0  0  0  0  0  0
  -20.3955   -7.2132   25.1640 C   0  0  0  0  0  0  0  0  0  0  0  0
  -24.7090  -12.0384   21.7011 C   0  0  0  0  0  0  0  0  0  0  0  0
  -25.2450  -13.5456   20.1924 C   0  0  0  0  0  0  0  0  0  0  0  0
  -22.9131  -13.7662   21.0653 C   0  0  0  0  0  0  0  0  0  0  0  0
  -23.4059  -31.4445   19.5114 C   0  0  0  0  0  0  0  0  0  0  0  0
  -24.3795  -32.7097   22.3351 C   0  0  0  0  0  0  0  0  0  0  0  0
  -26.5141  -32.5614   24.9938 C   0  0  0  0  0  0  0  0  0  0  0  0
  -30.6413  -14.6699   19.4059 C   0  0  0  0  0  0  0  0  0  0  0  0
  -19.2893  -31.7329   16.5066 C   0  0  0  0  0  0  0  0  0  0  0  0
  -23.3887  -29.4138   21.0053 C   0  0  0  0  0  0  0  0  0  0  0  0
  -25.8854  -30.9710   21.2985 C   0  0  0  0  0  0  0  0  0  0  0  0
  -19.9477  -32.6364   17.5461 C   0  0  0  0  0  0  0  0  0  0  0  0
  -29.6355  -11.2665   19.1195 C   0  0  0  0  0  0  0  0  0  0  0  0
  -21.4437  -32.7601   17.2750 C   0  0  0  0  0  0  0  0  0  0  0  0
  -28.2227  -11.2552   19.7077 C   0  0  0  0  0  0  0  0  0  0  0  0
  -33.1597  -21.3679   21.1351 C   0  0  0  0  0  0  0  0  0  0  0  0
  -30.5541  -12.2300   19.8688 C   0  0  0  0  0  0  0  0  0  0  0  0
  -28.6294  -13.5888   20.5887 C   0  0  0  0  0  0  0  0  0  0  0  0
  -32.1869  -21.0866   20.0104 C   0  0  2  0  0  0  0  0  0  0  0  0
  -22.1366  -31.3955   17.3719 C   0  0  1  0  0  0  0  0  0  0  0  0
  -23.3990  -30.9372   20.9257 C   0  0  1  0  0  0  0  0  0  0  0  0
  -31.7798  -21.9532   21.1839 C   0  0  2  0  0  0  0  0  0  0  0  0
  -27.6502  -12.6814   19.8262 C   0  0  2  0  0  0  0  0  0  0  0  0
  -27.0927  -33.7544   27.1243 C   0  0  0  0  0  0  0  0  0  0  0  0
  -25.7903  -34.8874   20.7297 C   0  0  0  0  0  0  0  0  0  0  0  0
  -27.0966  -35.4607   22.7873 C   0  0  0  0  0  0  0  0  0  0  0  0
  -24.6136  -35.7004   22.7812 C   0  0  0  0  0  0  0  0  0  0  0  0
  -25.8726  -30.1839   26.6354 C   0  0  0  0  0  0  0  0  0  0  0  0
  -31.5805  -23.4258   20.9979 C   0  0  0  0  0  0  0  0  0  0  0  0
  -30.1335  -23.7610   20.6340 C   0  0  0  0  0  0  0  0  0  0  0  0
  -29.9512  -25.2630   20.4002 C   0  0  0  0  0  0  0  0  0  0  0  0
  -28.5082  -25.6237   20.0684 C   0  0  0  0  0  0  0  0  0  1  0  0
  -25.6354  -33.3883   22.8261 C   0  0  1  0  0  0  0  0  0  0  0  0
  -26.2677  -32.6459   26.4893 C   0  0  2  0  0  0  0  0  0  0  0  0
  -25.7845  -34.8328   22.2705 C   0  0  0  0  0  0  0  0  0  0  0  0
  -25.9706  -11.7484   21.3720 N   0  0  0  0  0  0  0  0  0  0  0  0
  -26.2683  -12.6822   20.4526 N   0  0  0  0  0  0  0  0  0  0  0  0
  -24.5569  -31.5305   21.5977 N   0  0  0  0  0  0  0  0  0  0  0  0
  -29.9487  -13.5617   19.9378 N   0  0  0  0  0  0  0  0  0  0  0  0
  -25.3746  -14.5452   19.2945 N   0  0  0  0  0  0  0  0  0  0  0  0
  -21.9625  -13.2316   21.9455 N   0  0  0  0  0  0  0  0  0  0  0  0
  -29.9530  -15.8791   19.4993 N   0  0  0  0  0  0  0  0  0  0  0  0
  -22.3275  -31.0228   18.7572 N   0  0  0  0  0  0  0  0  0  0  0  0
  -25.5996  -33.3090   24.2824 N   0  0  0  0  0  0  0  0  0  0  0  0
  -26.6262  -31.3575   27.1469 N   0  3  0  0  0  0  0  0  0  0  0  0
  -22.6049  -14.7525   20.3540 O   0  0  0  0  0  0  0  0  0  0  0  0
  -24.3210  -32.1663   19.1328 O   0  0  0  0  0  0  0  0  0  0  0  0
  -23.2812  -33.2037   22.6023 O   0  0  0  0  0  0  0  0  0  0  0  0
  -27.4288  -31.9014   24.5056 O   0  0  0  0  0  0  0  0  0  0  0  0
  -31.7509  -14.5502   18.8801 O   0  0  0  0  0  0  0  0  0  0  0  0
  -22.0227   -8.9537   25.5136 O   0  0  0  0  0  0  0  0  0  0  0  0
  -28.3957  -27.0293   19.8495 O   0  0  0  0  0  0  0  0  0  1  0  0
  -16.8471   -7.4206   24.3879 F   0  0  0  0  0  0  0  0  0  0  0  0
  -21.3338   -6.2799   25.3746 F   0  0  0  0  0  0  0  0  0  0  0  0
  1  2  1  0  0  0  0
  1  5  2  0  0  0  0
  2  6  2  0  0  0  0
  3 12  2  0  0  0  0
  3 19  1  0  0  0  0
  4 13  1  0  0  0  0
  4 19  2  0  0  0  0
  5 22  1  0  0  0  0
  6 24  1  0  0  0  0
  7 10  2  0  0  0  0
  7 21  1  0  0  0  0
  8 11  1  0  0  0  0
  8 21  2  0  0  0  0
  9 14  2  0  0  0  0
  9 23  1  0  0  0  0
 10 26  1  0  0  0  0
 11 26  2  0  0  0  0
 12 27  1  0  0  0  0
 13 27  2  0  0  0  0
 14 28  1  0  0  0  0
 15 16  2  0  0  0  0
 15 29  1  0  0  0  0
 16 30  1  0  0  0  0
 17 25  1  0  0  0  0
 17 28  2  0  0  0  0
 18 30  2  0  0  0  0
 18 31  1  0  0  0  0
 19 32  1  0  0  0  0
 20 32  1  0  0  0  0
 20 33  2  0  0  0  0
 20 34  1  0  0  0  0
 21 49  1  0  0  0  0
 22 24  2  0  0  0  0
 22 39  1  0  0  0  0
 23 25  2  0  0  0  0
 23 40  1  0  0  0  0
 24 50  1  0  0  0  0
 25 41  1  0  0  0  0
 26 72  1  0  0  0  0
 27 81  1  0  0  0  0
 28 82  1  0  0  0  0
 29 31  2  0  0  0  0
 29 81  1  0  0  0  0
 30 83  1  0  0  0  0
 31 84  1  0  0  0  0
 32 66  2  0  0  0  0
 33 67  1  0  0  0  0
 33 70  1  0  0  0  0
 34 71  1  0  0  0  0
 34 76  2  0  0  0  0
 35 51  1  0  0  0  0
 35 73  1  0  0  0  0
 35 77  2  0  0  0  0
 36 63  1  0  0  0  0
 36 68  1  0  0  0  0
 36 78  2  0  0  0  0
 37 64  1  0  0  0  0
 37 74  1  0  0  0  0
 37 79  2  0  0  0  0
 38 69  1  0  0  0  0
 38 72  1  0  0  0  0
 38 80  2  0  0  0  0
 39 42  1  0  0  0  0
 40 51  1  0  0  0  0
 41 68  1  0  0  0  0
 42 44  1  0  0  0  0
 43 45  1  0  0  0  0
 43 47  1  0  0  0  0
 44 50  1  0  0  0  0
 45 53  1  0  0  0  0
 46 49  1  0  0  0  0
 46 52  1  0  0  0  0
 47 69  1  0  0  0  0
 48 53  1  0  0  0  0
 48 69  1  0  0  0  0
 49 52  1  0  0  0  0
 50 73  1  0  0  0  0
 51 68  1  0  0  0  0
 52 59  1  0  0  0  0
 53 67  1  0  0  0  0
 54 64  1  0  0  0  0
 55 65  1  0  0  0  0
 56 65  1  0  0  0  0
 57 65  1  0  0  0  0
 58 75  1  0  0  0  0
 59 60  1  0  0  0  0
 60 61  1  0  0  0  0
 61 62  1  0  0  0  0
 62 82  1  0  0  0  0
 63 65  1  0  0  0  0
 63 74  1  0  0  0  0
 64 75  1  0  0  0  0
 66 67  1  0  0  0  0
M  CHG  1  75   1
M  ISO  4  38 100  62 101  72 100  82 101
M  END
> <Batch ID>
0135

> <Smiles>
CNC(C)C(=O)NC(C(=O)N1Cc2cc([101O:1][101CH2:1]CCCC3CC3c3ccc([100NH:0][100C:0](=O)N4CCCC(n5nc(-c6ccc(Oc7ccc(F)cc7F)cc6)c(C(N)=O)c5N)C4)cc3)ccc2CC1C(=O)NC1CCCc2ccccc21)C(C)(C)C

> <Shape>
0.271

> <Color>
0.178

> <Negative vol penalty>
0.000

$$$$

  -OEChem-04052302363D

 84 92  0     1  0  0  0  0  0999 V2000
  -29.3060  -31.2483   26.6057 C   0  0  0  0  0  0  0  0  0  0  0  0
  -29.1303  -30.3214   25.5832 C   0  0  0  0  0  0  0  0  0  0  0  0
  -23.8501   -9.1541   21.3159 C   0  0  0  0  0  0  0  0  0  0  0  0
  -22.8095  -11.2257   20.6355 C   0  0  0  0  0  0  0  0  0  0  0  0
  -28.1990  -31.7445   27.2930 C   0  0  0  0  0  0  0  0  0  0  0  0
  -27.8476  -29.8892   25.2482 C   0  0  0  0  0  0  0  0  0  0  0  0
  -27.0805  -29.7768   20.2439 C   0  0  0  0  0  0  0  0  0  0  0  0
  -26.9562  -19.2858   19.3553 C   0  0  0  0  0  0  0  0  0  0  0  0
  -27.1925  -17.9222   19.1812 C   0  0  0  0  0  0  0  0  0  0  0  0
  -22.7724   -8.8904   22.1613 C   0  0  0  0  0  0  0  0  0  0  0  0
  -21.7318  -10.9620   21.4809 C   0  0  0  0  0  0  0  0  0  0  0  0
  -27.6190  -28.6997   19.5412 C   0  0  0  0  0  0  0  0  0  0  0  0
  -19.6091   -7.7306   21.8770 C   0  0  0  0  0  0  0  0  0  0  0  0
  -19.0757   -6.4418   21.8646 C   0  0  0  0  0  0  0  0  0  0  0  0
  -25.4539  -27.6361   19.5241 C   0  0  0  0  0  0  0  0  0  0  0  0
  -29.2877  -18.1341   20.3655 C   0  0  0  0  0  0  0  0  0  0  0  0
  -19.5898   -6.2065   24.2135 C   0  0  0  0  0  0  0  0  0  0  0  0
  -23.8686  -10.3218   20.5530 C   0  0  0  0  0  0  0  0  0  0  0  0
  -25.1156  -10.2191   18.3299 C   0  0  0  0  0  0  0  0  0  0  0  0
  -26.9013  -31.3255   26.9598 C   0  0  0  0  0  0  0  0  0  0  0  0
  -25.7248  -29.7866   20.6020 C   0  0  0  0  0  0  0  0  0  0  0  0
  -26.7223  -30.3793   25.9326 C   0  0  0  0  0  0  0  0  0  0  0  0
  -24.9001  -28.7156   20.2291 C   0  0  0  0  0  0  0  0  0  0  0  0
  -27.8856  -20.0736   20.0344 C   0  0  0  0  0  0  0  0  0  0  0  0
  -29.0513  -19.4978   20.5395 C   0  0  0  0  0  0  0  0  0  0  0  0
  -28.3582  -17.3463   19.6863 C   0  0  0  0  0  0  0  0  0  0  0  0
  -21.7133   -9.7943   22.2438 C   0  0  0  0  0  0  0  0  0  0  0  0
  -26.8064  -27.6278   19.1838 C   0  0  0  0  0  0  0  0  0  0  0  0
  -20.1329   -8.2573   23.0576 C   0  0  0  0  0  0  0  0  0  0  0  0
  -19.0660   -5.6797   23.0328 C   0  0  0  0  0  0  0  0  0  0  0  0
  -20.1233   -7.4952   24.2259 C   0  0  0  0  0  0  0  0  0  0  0  0
  -24.9818  -10.5951   19.6800 C   0  0  0  0  0  0  0  0  0  0  0  0
  -26.3414  -10.7130   17.9559 C   0  0  0  0  0  0  0  0  0  0  0  0
  -24.2126   -9.4888   17.4892 C   0  0  0  0  0  0  0  0  0  0  0  0
  -24.1316  -29.8496   23.3519 C   0  0  0  0  0  0  0  0  0  0  0  0
  -28.1622  -23.8823   19.3982 C   0  0  0  0  0  0  0  0  0  0  0  0
  -21.5557  -30.1521   21.4037 C   0  0  0  0  0  0  0  0  0  0  0  0
  -20.1782  -29.6465   18.3225 C   0  0  0  0  0  0  0  0  0  0  0  0
  -29.7031  -15.2326   19.9503 C   0  0  0  0  0  0  0  0  0  0  0  0
  -25.7392  -31.8543   27.7626 C   0  0  0  0  0  0  0  0  0  0  0  0
  -25.1533  -30.9682   21.3367 C   0  0  0  0  0  0  0  0  0  0  0  0
  -23.4338  -28.6871   20.5719 C   0  0  0  0  0  0  0  0  0  0  0  0
  -24.3849  -31.6277   27.0957 C   0  0  0  0  0  0  0  0  0  0  0  0
  -30.6451  -11.8048   19.7505 C   0  0  0  0  0  0  0  0  0  0  0  0
  -24.2752  -30.1951   26.5833 C   0  0  0  0  0  0  0  0  0  0  0  0
  -29.3124  -11.0718   19.5808 C   0  0  0  0  0  0  0  0  0  0  0  0
  -30.5175  -13.0039   20.6884 C   0  0  0  0  0  0  0  0  0  0  0  0
  -28.1181  -13.2191   20.1725 C   0  0  0  0  0  0  0  0  0  0  0  0
  -25.3448  -29.9048   25.5235 C   0  0  1  0  0  0  0  0  0  0  0  0
  -23.8736  -30.6364   22.0981 C   0  0  1  0  0  0  0  0  0  0  0  0
  -28.1820  -12.0421   19.1854 C   0  0  2  0  0  0  0  0  0  0  0  0
  -30.0596  -20.3211   21.2717 C   0  0  0  0  0  0  0  0  0  0  0  0
  -18.0426  -29.9634   17.0433 C   0  0  0  0  0  0  0  0  0  0  0  0
  -20.3347  -27.7616   22.8544 C   0  0  0  0  0  0  0  0  0  0  0  0
  -18.7050  -27.5372   20.9672 C   0  0  0  0  0  0  0  0  0  0  0  0
  -18.7269  -29.6106   22.3540 C   0  0  0  0  0  0  0  0  0  0  0  0
  -21.4840  -31.4347   16.3588 C   0  0  0  0  0  0  0  0  0  0  0  0
  -27.6086  -21.5444   20.2093 C   0  0  0  0  0  0  0  0  0  0  0  0
  -28.4204  -22.3925   19.2320 C   0  0  0  0  0  0  0  0  0  0  0  0
  -28.9698  -24.7921   18.4823 C   0  0  0  0  0  0  0  0  0  0  0  0
  -28.7051  -26.2708   18.7262 C   0  0  0  0  0  0  0  0  0  1  0  0
  -20.6119  -29.1909   20.7222 C   0  0  1  0  0  0  0  0  0  0  0  0
  -19.3901  -30.5669   17.4081 C   0  0  2  0  0  0  0  0  0  0  0  0
  -19.6226  -28.5244   21.7195 C   0  0  0  0  0  0  0  0  0  0  0  0
  -26.0384  -11.2752   20.1330 N   0  0  0  0  0  0  0  0  0  0  0  0
  -26.8478  -11.3304   19.0616 N   0  0  0  0  0  0  0  0  0  0  0  0
  -22.9233  -29.8627   21.2964 N   0  0  0  0  0  0  0  0  0  0  0  0
  -29.4299  -13.8810   20.2492 N   0  0  0  0  0  0  0  0  0  0  0  0
  -27.0249  -10.6750   16.7923 N   0  0  0  0  0  0  0  0  0  0  0  0
  -22.9958   -9.0554   18.0332 N   0  0  0  0  0  0  0  0  0  0  0  0
  -28.5978  -15.9608   19.5114 N   0  0  0  0  0  0  0  0  0  0  0  0
  -24.9666  -30.4835   24.2520 N   0  0  0  0  0  0  0  0  0  0  0  0
  -19.9656  -29.9430   19.6522 N   0  0  0  0  0  0  0  0  0  0  0  0
  -20.1477  -30.8201   16.1500 N   0  3  0  0  0  0  0  0  0  0  0  0
  -24.4840   -9.2141   16.2957 O   0  0  0  0  0  0  0  0  0  0  0  0
  -23.6104  -28.7495   23.4928 O   0  0  0  0  0  0  0  0  0  0  0  0
  -27.3559  -24.3205   20.2170 O   0  0  0  0  0  0  0  0  0  0  0  0
  -21.0966  -31.1278   22.0029 O   0  0  0  0  0  0  0  0  0  0  0  0
  -20.9065  -28.7514   17.8995 O   0  0  0  0  0  0  0  0  0  0  0  0
  -30.8397  -15.7020   20.0485 O   0  0  0  0  0  0  0  0  0  0  0  0
  -20.6614   -9.5372   23.0684 O   0  0  0  0  0  0  0  0  0  0  0  0
  -27.3296  -26.5750   18.4985 O   0  0  0  0  0  0  0  0  0  1  0  0
  -18.5524   -4.4427   23.0212 F   0  0  0  0  0  0  0  0  0  0  0  0
  -20.6240   -7.9963   25.3634 F   0  0  0  0  0  0  0  0  0  0  0  0
  1  2  1  0  0  0  0
  1  5  2  0  0  0  0
  2  6  2  0  0  0  0
  3 10  2  0  0  0  0
  3 18  1  0  0  0  0
  4 11  1  0  0  0  0
  4 18  2  0  0  0  0
  5 20  1  0  0  0  0
  6 22  1  0  0  0  0
  7 12  2  0  0  0  0
  7 21  1  0  0  0  0
  8  9  2  0  0  0  0
  8 24  1  0  0  0  0
  9 26  1  0  0  0  0
 10 27  1  0  0  0  0
 11 27  2  0  0  0  0
 12 28  1  0  0  0  0
 13 14  2  0  0  0  0
 13 29  1  0  0  0  0
 14 30  1  0  0  0  0
 15 23  1  0  0  0  0
 15 28  2  0  0  0  0
 16 25  1  0  0  0  0
 16 26  2  0  0  0  0
 17 30  2  0  0  0  0
 17 31  1  0  0  0  0
 18 32  1  0  0  0  0
 19 32  1  0  0  0  0
 19 33  2  0  0  0  0
 19 34  1  0  0  0  0
 20 22  2  0  0  0  0
 20 40  1  0  0  0  0
 21 23  2  0  0  0  0
 21 41  1  0  0  0  0
 22 49  1  0  0  0  0
 23 42  1  0  0  0  0
 24 25  2  0  0  0  0
 24 58  1  0  0  0  0
 25 52  1  0  0  0  0
 26 71  1  0  0  0  0
 27 81  1  0  0  0  0
 28 82  1  0  0  0  0
 29 31  2  0  0  0  0
 29 81  1  0  0  0  0
 30 83  1  0  0  0  0
 31 84  1  0  0  0  0
 32 65  2  0  0  0  0
 33 66  1  0  0  0  0
 33 69  1  0  0  0  0
 34 70  1  0  0  0  0
 34 75  2  0  0  0  0
 35 50  1  0  0  0  0
 35 72  1  0  0  0  0
 35 76  2  0  0  0  0
 36 59  1  0  0  0  0
 36 60  1  0  0  0  0
 36 77  2  0  0  0  0
 37 62  1  0  0  0  0
 37 67  1  0  0  0  0
 37 78  2  0  0  0  0
 38 63  1  0  0  0  0
 38 73  1  0  0  0  0
 38 79  2  0  0  0  0
 39 68  1  0  0  0  0
 39 71  1  0  0  0  0
 39 80  2  0  0  0  0
 40 43  1  0  0  0  0
 41 50  1  0  0  0  0
 42 67  1  0  0  0  0
 43 45  1  0  0  0  0
 44 46  1  0  0  0  0
 44 47  1  0  0  0  0
 45 49  1  0  0  0  0
 46 51  1  0  0  0  0
 47 68  1  0  0  0  0
 48 51  1  0  0  0  0
 48 68  1  0  0  0  0
 49 72  1  0  0  0  0
 50 67  1  0  0  0  0
 51 66  1  0  0  0  0
 53 63  1  0  0  0  0
 54 64  1  0  0  0  0
 55 64  1  0  0  0  0
 56 64  1  0  0  0  0
 57 74  1  0  0  0  0
 58 59  1  0  0  0  0
 60 61  1  0  0  0  0
 61 82  1  0  0  0  0
 62 64  1  0  0  0  0
 62 73  1  0  0  0  0
 63 74  1  0  0  0  0
 65 66  1  0  0  0  0
M  CHG  1  74   1
M  ISO  4  39 100  61 101  71 100  82 101
M  END
> <Batch ID>
0135

> <Smiles>
CNC(C)C(=O)NC(C(=O)N1Cc2cc([101O:1][101CH2:1]CC(=O)CCc3ccc([100NH:0][100C:0](=O)N4CCCC(n5nc(-c6ccc(Oc7ccc(F)cc7F)cc6)c(C(N)=O)c5N)C4)cc3C)ccc2CC1C(=O)NC1CCCc2ccccc21)C(C)(C)C

> <Shape>
0.290

> <Color>
0.088

> <Negative vol penalty>
0.000

$$$$

  -OEChem-04052302363D

 87 95  0     1  0  0  0  0  0999 V2000
  -21.7204  -23.2504   18.3192 C   0  0  0  0  0  0  0  0  0  0  0  0
  -22.8148  -22.4798   17.9399 C   0  0  0  0  0  0  0  0  0  0  0  0
  -27.0387  -29.8238   20.1068 C   0  0  0  0  0  0  0  0  0  0  0  0
  -26.5922  -28.4564   22.0480 C   0  0  0  0  0  0  0  0  0  0  0  0
  -21.0592  -22.9787   19.5163 C   0  0  0  0  0  0  0  0  0  0  0  0
  -23.2493  -21.4376   18.7581 C   0  0  0  0  0  0  0  0  0  0  0  0
  -25.6423  -16.0957   16.9570 C   0  0  0  0  0  0  0  0  0  0  0  0
  -25.9454  -30.6301   20.4233 C   0  0  0  0  0  0  0  0  0  0  0  0
  -25.4989  -29.2627   22.3645 C   0  0  0  0  0  0  0  0  0  0  0  0
  -26.9573  -15.6441   16.8542 C   0  0  0  0  0  0  0  0  0  0  0  0
  -22.2999  -29.6383   21.3367 C   0  0  0  0  0  0  0  0  0  0  0  0
  -21.1123  -29.0051   21.7030 C   0  0  0  0  0  0  0  0  0  0  0  0
  -26.7688  -14.6186   19.0295 C   0  0  0  0  0  0  0  0  0  0  0  0
  -29.8711  -18.3901   22.4553 C   0  0  0  0  0  0  0  0  0  0  0  0
  -29.7986  -19.4288   20.2751 C   0  0  0  0  0  0  0  0  0  0  0  0
  -21.1847  -30.1113   23.8497 C   0  0  0  0  0  0  0  0  0  0  0  0
  -27.3621  -28.7369   20.9191 C   0  0  0  0  0  0  0  0  0  0  0  0
  -29.8227  -28.0709   21.0171 C   0  0  0  0  0  0  0  0  0  0  0  0
  -21.4799  -21.9265   20.3449 C   0  0  0  0  0  0  0  0  0  0  0  0
  -24.8830  -15.8210   18.1035 C   0  0  0  0  0  0  0  0  0  0  0  0
  -22.5940  -21.1524   19.9680 C   0  0  0  0  0  0  0  0  0  0  0  0
  -25.4436  -15.0656   19.1434 C   0  0  0  0  0  0  0  0  0  0  0  0
  -29.0531  -19.3992   22.9633 C   0  0  0  0  0  0  0  0  0  0  0  0
  -28.6077  -20.4231   22.1272 C   0  0  0  0  0  0  0  0  0  0  0  0
  -28.9805  -20.4379   20.7831 C   0  0  0  0  0  0  0  0  0  0  0  0
  -25.1755  -30.3495   21.5521 C   0  0  0  0  0  0  0  0  0  0  0  0
  -27.5217  -14.9079   17.8918 C   0  0  0  0  0  0  0  0  0  0  0  0
  -22.9301  -30.5079   22.2269 C   0  0  0  0  0  0  0  0  0  0  0  0
  -30.2439  -18.4049   21.1112 C   0  0  0  0  0  0  0  0  0  0  0  0
  -20.5546  -29.2417   22.9595 C   0  0  0  0  0  0  0  0  0  0  0  0
  -22.3725  -30.7444   23.4834 C   0  0  0  0  0  0  0  0  0  0  0  0
  -28.4910  -27.9033   20.5924 C   0  0  0  0  0  0  0  0  0  0  0  0
  -30.5016  -27.0265   20.4385 C   0  0  0  0  0  0  0  0  0  0  0  0
  -30.3948  -29.0804   21.8592 C   0  0  0  0  0  0  0  0  0  0  0  0
  -23.4923  -17.5886   20.3497 C   0  0  0  0  0  0  0  0  0  0  0  0
  -31.2458  -15.6175   19.0115 C   0  0  0  0  0  0  0  0  0  0  0  0
  -22.3240  -14.7257   21.3300 C   0  0  0  0  0  0  0  0  0  0  0  0
  -22.6599  -11.3302   21.4007 C   0  0  0  0  0  0  0  0  0  0  0  0
  -28.8232  -21.6087   18.5581 C   0  0  0  0  0  0  0  0  0  0  0  0
  -20.7629  -21.7009   21.6524 C   0  0  0  0  0  0  0  0  0  0  0  0
  -23.4571  -16.2924   18.1876 C   0  0  0  0  0  0  0  0  0  0  0  0
  -24.6640  -14.7265   20.3866 C   0  0  0  0  0  0  0  0  0  0  0  0
  -21.0551  -20.3407   22.2805 C   0  0  0  0  0  0  0  0  0  0  0  0
  -30.3886  -24.1473   16.6134 C   0  0  0  0  0  0  0  0  0  0  0  0
  -22.5526  -20.0517   22.2555 C   0  0  0  0  0  0  0  0  0  0  0  0
  -30.2062  -25.4127   17.4545 C   0  0  0  0  0  0  0  0  0  0  0  0
  -29.1736  -23.2259   16.7041 C   0  0  0  0  0  0  0  0  0  0  0  0
  -28.5755  -24.1445   18.9104 C   0  0  0  0  0  0  0  0  0  0  0  0
  -23.0801  -19.9975   20.8167 C   0  0  1  0  0  0  0  0  0  0  0  0
  -22.9449  -16.3940   19.6210 C   0  0  1  0  0  0  0  0  0  0  0  0
  -29.8006  -25.0734   18.9023 C   0  0  2  0  0  0  0  0  0  0  0  0
  -27.5736  -18.3337   24.6844 C   0  0  0  0  0  0  0  0  0  0  0  0
  -28.4921  -22.7988   22.9206 C   0  0  0  0  0  0  0  0  0  0  0  0
  -21.5700   -9.2615   22.3116 C   0  0  0  0  0  0  0  0  0  0  0  0
  -23.4408  -15.3590   24.0980 C   0  0  0  0  0  0  0  0  0  0  0  0
  -23.1797  -12.9382   24.6807 C   0  0  0  0  0  0  0  0  0  0  0  0
  -21.1734  -14.3038   24.1042 C   0  0  0  0  0  0  0  0  0  0  0  0
  -22.1933  -10.2416   18.6885 C   0  0  0  0  0  0  0  0  0  0  0  0
  -28.6682  -19.3593   24.4060 C   0  0  0  0  0  0  0  0  0  0  0  0
  -27.7283  -21.5022   22.6768 C   0  0  0  0  0  0  0  0  0  0  0  0
  -31.1222  -15.1379   17.5729 C   0  0  0  0  0  0  0  0  0  0  0  0
  -30.8888  -17.0717   19.2504 C   0  0  0  0  0  0  0  0  0  0  0  0
  -29.7079  -15.2591   17.0240 C   0  0  0  0  0  0  0  0  0  1  0  0
  -22.7927  -13.6474   22.2769 C   0  0  1  0  0  0  0  0  0  0  0  0
  -21.6673  -10.2140   21.1301 C   0  0  2  0  0  0  0  0  0  0  0  0
  -22.6622  -14.0700   23.7675 C   0  0  0  0  0  0  0  0  0  0  0  0
  -28.3313  -26.8364   19.8048 N   0  0  0  0  0  0  0  0  0  0  0  0
  -29.5716  -26.3243   19.7299 N   0  0  0  0  0  0  0  0  0  0  0  0
  -23.2758  -15.2153   20.4243 N   0  0  0  0  0  0  0  0  0  0  0  0
  -28.8507  -22.9446   18.1047 N   0  0  0  0  0  0  0  0  0  0  0  0
  -31.7974  -26.6495   20.4719 N   0  0  0  0  0  0  0  0  0  0  0  0
  -29.5549  -30.0799   22.3692 N   0  0  0  0  0  0  0  0  0  0  0  0
  -28.5366  -21.4664   19.9154 N   0  0  0  0  0  0  0  0  0  0  0  0
  -22.7353  -18.7349   20.1992 N   0  0  0  0  0  0  0  0  0  0  0  0
  -22.0435  -12.4448   21.9290 N   0  0  0  0  0  0  0  0  0  0  0  0
  -22.0805   -9.4332   19.9298 N   0  3  0  0  0  0  0  0  0  0  0  0
  -31.6177  -29.1051   22.1376 O   0  0  0  0  0  0  0  0  0  0  0  0
  -24.5241  -17.4782   21.0014 O   0  0  0  0  0  0  0  0  0  0  0  0
  -31.6081  -14.8812   19.9277 O   0  0  0  0  0  0  0  0  0  0  0  0
  -21.1546  -15.1140   21.3868 O   0  0  0  0  0  0  0  0  0  0  0  0
  -23.8624  -11.2228   21.1703 O   0  0  0  0  0  0  0  0  0  0  0  0
  -29.0648  -20.6625   17.8043 O   0  0  0  0  0  0  0  0  0  0  0  0
  -24.1087  -31.1363   21.8614 O   0  0  0  0  0  0  0  0  0  0  0  0
  -31.0512  -17.4106   20.6114 O   0  0  0  0  0  0  0  0  0  0  0  0
  -28.8052  -14.4664   17.7942 O   0  0  0  0  0  0  0  0  0  1  0  0
  -19.4133  -28.6348   23.3106 F   0  0  0  0  0  0  0  0  0  0  0  0
  -22.9726  -31.5797   24.3424 F   0  0  0  0  0  0  0  0  0  0  0  0
  1  2  1  0  0  0  0
  1  5  2  0  0  0  0
  2  6  2  0  0  0  0
  3  8  2  0  0  0  0
  3 17  1  0  0  0  0
  4  9  1  0  0  0  0
  4 17  2  0  0  0  0
  5 19  1  0  0  0  0
  6 21  1  0  0  0  0
  7 10  2  0  0  0  0
  7 20  1  0  0  0  0
  8 26  1  0  0  0  0
  9 26  2  0  0  0  0
 10 27  1  0  0  0  0
 11 12  2  0  0  0  0
 11 28  1  0  0  0  0
 12 30  1  0  0  0  0
 13 22  1  0  0  0  0
 13 27  2  0  0  0  0
 14 23  1  0  0  0  0
 14 29  2  0  0  0  0
 15 25  2  0  0  0  0
 15 29  1  0  0  0  0
 16 30  2  0  0  0  0
 16 31  1  0  0  0  0
 17 32  1  0  0  0  0
 18 32  1  0  0  0  0
 18 33  2  0  0  0  0
 18 34  1  0  0  0  0
 19 21  2  0  0  0  0
 19 40  1  0  0  0  0
 20 22  2  0  0  0  0
 20 41  1  0  0  0  0
 21 49  1  0  0  0  0
 22 42  1  0  0  0  0
 23 24  2  0  0  0  0
 23 59  1  0  0  0  0
 24 25  1  0  0  0  0
 24 60  1  0  0  0  0
 25 73  1  0  0  0  0
 26 83  1  0  0  0  0
 27 85  1  0  0  0  0
 28 31  2  0  0  0  0
 28 83  1  0  0  0  0
 29 84  1  0  0  0  0
 30 86  1  0  0  0  0
 31 87  1  0  0  0  0
 32 67  2  0  0  0  0
 33 68  1  0  0  0  0
 33 71  1  0  0  0  0
 34 72  1  0  0  0  0
 34 77  2  0  0  0  0
 35 50  1  0  0  0  0
 35 74  1  0  0  0  0
 35 78  2  0  0  0  0
 36 61  1  0  0  0  0
 36 62  1  0  0  0  0
 36 79  2  0  0  0  0
 37 64  1  0  0  0  0
 37 69  1  0  0  0  0
 37 80  2  0  0  0  0
 38 65  1  0  0  0  0
 38 75  1  0  0  0  0
 38 81  2  0  0  0  0
 39 70  1  0  0  0  0
 39 73  1  0  0  0  0
 39 82  2  0  0  0  0
 40 43  1  0  0  0  0
 41 50  1  0  0  0  0
 42 69  1  0  0  0  0
 43 45  1  0  0  0  0
 44 46  1  0  0  0  0
 44 47  1  0  0  0  0
 45 49  1  0  0  0  0
 46 51  1  0  0  0  0
 47 70  1  0  0  0  0
 48 51  1  0  0  0  0
 48 70  1  0  0  0  0
 49 74  1  0  0  0  0
 50 69  1  0  0  0  0
 51 68  1  0  0  0  0
 52 59  1  0  0  0  0
 53 60  1  0  0  0  0
 54 65  1  0  0  0  0
 55 66  1  0  0  0  0
 56 66  1  0  0  0  0
 57 66  1  0  0  0  0
 58 76  1  0  0  0  0
 61 63  1  0  0  0  0
 62 84  1  0  0  0  0
 63 85  1  0  0  0  0
 64 66  1  0  0  0  0
 64 75  1  0  0  0  0
 65 76  1  0  0  0  0
 67 68  1  0  0  0  0
M  CHG  1  76   1
M  ISO  4  39 100  63 101  73 100  85 101
M  END
> <Batch ID>
0135

> <Smiles>
CCc1cc(OCC(=O)C[101CH2:1][101O:1]c2ccc3c(c2)CN(C(=O)C(NC(=O)C(C)NC)C(C)(C)C)C(C(=O)NC2CCCc4ccccc42)C3)cc([100NH:0][100C:0](=O)N2CCCC(n3nc(-c4ccc(Oc5ccc(F)cc5F)cc4)c(C(N)=O)c3N)C2)c1CC

> <Shape>
0.245

> <Color>
0.062

> <Negative vol penalty>
0.000

$$$$

  -OEChem-04052302363D

 86 95  0     1  0  0  0  0  0999 V2000
  -28.6400  -36.9085   25.2161 C   0  0  0  0  0  0  0  0  0  0  0  0
  -28.7212  -35.6826   24.5633 C   0  0  0  0  0  0  0  0  0  0  0  0
  -22.7222  -10.7392   21.2844 C   0  0  0  0  0  0  0  0  0  0  0  0
  -24.3651   -9.0970   20.6200 C   0  0  0  0  0  0  0  0  0  0  0  0
  -27.4991  -37.2323   25.9492 C   0  0  0  0  0  0  0  0  0  0  0  0
  -27.6619  -34.7794   24.6442 C   0  0  0  0  0  0  0  0  0  0  0  0
  -27.0952  -20.5963   19.2214 C   0  0  0  0  0  0  0  0  0  0  0  0
  -25.7662  -30.9280   20.2763 C   0  0  0  0  0  0  0  0  0  0  0  0
  -27.2010  -19.2088   19.1262 C   0  0  0  0  0  0  0  0  0  0  0  0
  -22.0108   -9.7519   21.9659 C   0  0  0  0  0  0  0  0  0  0  0  0
  -23.6537   -8.1096   21.3017 C   0  0  0  0  0  0  0  0  0  0  0  0
  -26.0014  -29.5717   20.0550 C   0  0  0  0  0  0  0  0  0  0  0  0
  -20.8982   -6.2196   20.7860 C   0  0  0  0  0  0  0  0  0  0  0  0
  -20.7000   -5.0000   20.1387 C   0  0  0  0  0  0  0  0  0  0  0  0
  -23.9310  -29.0366   21.1713 C   0  0  0  0  0  0  0  0  0  0  0  0
  -29.3171  -19.2903   20.2894 C   0  0  0  0  0  0  0  0  0  0  0  0
  -21.8800   -3.8652   21.9154 C   0  0  0  0  0  0  0  0  0  0  0  0
  -23.8993  -10.4118   20.6113 C   0  0  0  0  0  0  0  0  0  0  0  0
  -24.1746  -12.2272   18.8404 C   0  0  0  0  0  0  0  0  0  0  0  0
  -26.4213  -36.3366   26.0311 C   0  0  0  0  0  0  0  0  0  0  0  0
  -24.6151  -31.3488   20.9576 C   0  0  0  0  0  0  0  0  0  0  0  0
  -26.5061  -35.0910   25.3802 C   0  0  0  0  0  0  0  0  0  0  0  0
  -28.1003  -21.3309   19.8506 C   0  0  0  0  0  0  0  0  0  0  0  0
  -23.6823  -30.3990   21.3978 C   0  0  0  0  0  0  0  0  0  0  0  0
  -29.2112  -20.6779   20.3845 C   0  0  0  0  0  0  0  0  0  0  0  0
  -28.3119  -18.5558   19.6602 C   0  0  0  0  0  0  0  0  0  0  0  0
  -22.4765   -8.4371   21.9746 C   0  0  0  0  0  0  0  0  0  0  0  0
  -25.0852  -28.6256   20.5050 C   0  0  0  0  0  0  0  0  0  0  0  0
  -21.5874   -6.2620   21.9980 C   0  0  0  0  0  0  0  0  0  0  0  0
  -21.1909   -3.8228   20.7034 C   0  0  0  0  0  0  0  0  0  0  0  0
  -22.0783   -5.0848   22.5627 C   0  0  0  0  0  0  0  0  0  0  0  0
  -24.6344  -11.4312   19.9066 C   0  0  0  0  0  0  0  0  0  0  0  0
  -25.2426  -13.0322   18.5274 C   0  0  0  0  0  0  0  0  0  0  0  0
  -22.8964  -12.2380   18.1909 C   0  0  0  0  0  0  0  0  0  0  0  0
  -24.0587  -32.9177   23.6655 C   0  0  0  0  0  0  0  0  0  0  0  0
  -20.9823  -32.8047   22.6431 C   0  0  0  0  0  0  0  0  0  0  0  0
  -18.6219  -31.2576   20.7244 C   0  0  0  0  0  0  0  0  0  0  0  0
  -29.4548  -16.3435   20.0423 C   0  0  0  0  0  0  0  0  0  0  0  0
  -25.2284  -36.7114   26.8745 C   0  0  0  0  0  0  0  0  0  0  0  0
  -24.3628  -32.8171   21.1648 C   0  0  0  0  0  0  0  0  0  0  0  0
  -22.4209  -30.8001   22.1164 C   0  0  0  0  0  0  0  0  0  0  0  0
  -23.9956  -35.8535   26.6012 C   0  0  0  0  0  0  0  0  0  0  0  0
  -30.0693  -12.8364   20.0392 C   0  0  0  0  0  0  0  0  0  0  0  0
  -26.7319  -23.2544   20.7643 C   0  0  0  0  0  0  0  0  0  0  0  0
  -27.9404  -23.4968   18.5507 C   0  0  0  0  0  0  0  0  0  0  0  0
  -24.3726  -34.3762   26.5562 C   0  0  0  0  0  0  0  0  0  0  0  0
  -26.6097  -24.7749   20.8605 C   0  0  0  0  0  0  0  0  0  0  0  0
  -27.8152  -25.0167   18.6524 C   0  0  0  0  0  0  0  0  0  0  0  0
  -28.6723  -12.2237   19.9168 C   0  0  0  0  0  0  0  0  0  0  0  0
  -30.0629  -14.0943   20.9062 C   0  0  0  0  0  0  0  0  0  0  0  0
  -27.6900  -14.5043   20.3864 C   0  0  0  0  0  0  0  0  0  0  0  0
  -27.9631  -22.8399   19.9411 C   0  0  0  0  0  0  0  0  0  0  0  0
  -25.3676  -34.0949   25.4238 C   0  0  1  0  0  0  0  0  0  0  0  0
  -23.4109  -33.1023   22.3224 C   0  0  1  0  0  0  0  0  0  0  0  0
  -26.5872  -25.4309   19.4737 C   0  0  0  0  0  0  0  0  0  0  0  0
  -27.6345  -13.2717   19.4693 C   0  0  2  0  0  0  0  0  0  0  0  0
  -31.2210  -22.1439   20.0712 C   0  0  0  0  0  0  0  0  0  0  0  0
  -16.1880  -31.3704   20.1238 C   0  0  0  0  0  0  0  0  0  0  0  0
  -20.2619  -31.5774   25.3421 C   0  0  0  0  0  0  0  0  0  0  0  0
  -18.0801  -30.8519   24.3514 C   0  0  0  0  0  0  0  0  0  0  0  0
  -18.6336  -33.2795   24.5022 C   0  0  0  0  0  0  0  0  0  0  0  0
  -19.2296  -31.7140   17.8641 C   0  0  0  0  0  0  0  0  0  0  0  0
  -30.2986  -21.4435   21.0643 C   0  0  0  0  0  0  0  0  0  0  0  0
  -26.5104  -26.9515   19.5984 C   0  0  0  0  0  0  0  0  0  1  0  0
  -19.8355  -31.8371   22.8090 C   0  0  1  0  0  0  0  0  0  0  0  0
  -17.5957  -31.8086   19.7509 C   0  0  2  0  0  0  0  0  0  0  0  0
  -19.2274  -31.8785   24.2394 C   0  0  0  0  0  0  0  0  0  0  0  0
  -25.8962  -11.7055   20.2481 N   0  0  0  0  0  0  0  0  0  0  0  0
  -26.2384  -12.6828   19.3914 N   0  0  0  0  0  0  0  0  0  0  0  0
  -22.2223  -32.2473   22.3005 N   0  0  0  0  0  0  0  0  0  0  0  0
  -29.0587  -15.0431   20.4202 N   0  0  0  0  0  0  0  0  0  0  0  0
  -25.4176  -13.9976   17.6002 N   0  0  0  0  0  0  0  0  0  0  0  0
  -22.7016  -11.3989   17.0853 N   0  0  0  0  0  0  0  0  0  0  0  0
  -28.4189  -17.1460   19.5654 N   0  0  0  0  0  0  0  0  0  0  0  0
  -24.6836  -34.0513   24.1492 N   0  0  0  0  0  0  0  0  0  0  0  0
  -18.8845  -32.1452   21.7464 N   0  0  0  0  0  0  0  0  0  0  0  0
  -17.8853  -31.3329   18.3686 N   0  3  0  0  0  0  0  0  0  0  0  0
  -21.9601  -12.9821   18.5694 O   0  0  0  0  0  0  0  0  0  0  0  0
  -23.9951  -31.8280   24.2224 O   0  0  0  0  0  0  0  0  0  0  0  0
  -20.7836  -34.0114   22.8044 O   0  0  0  0  0  0  0  0  0  0  0  0
  -19.1361  -30.1490   20.5935 O   0  0  0  0  0  0  0  0  0  0  0  0
  -30.6313  -16.7087   20.1094 O   0  0  0  0  0  0  0  0  0  0  0  0
  -21.7827   -7.4734   22.6398 O   0  0  0  0  0  0  0  0  0  0  0  0
  -25.3127  -27.3011   20.2909 O   0  0  0  0  0  0  0  0  0  1  0  0
  -20.9991   -2.6516   20.0824 F   0  0  0  0  0  0  0  0  0  0  0  0
  -22.7402   -5.1190   23.7274 F   0  0  0  0  0  0  0  0  0  0  0  0
  1  2  1  0  0  0  0
  1  5  2  0  0  0  0
  2  6  2  0  0  0  0
  3 10  2  0  0  0  0
  3 18  1  0  0  0  0
  4 11  1  0  0  0  0
  4 18  2  0  0  0  0
  5 20  1  0  0  0  0
  6 22  1  0  0  0  0
  7  9  2  0  0  0  0
  7 23  1  0  0  0  0
  8 12  2  0  0  0  0
  8 21  1  0  0  0  0
  9 26  1  0  0  0  0
 10 27  1  0  0  0  0
 11 27  2  0  0  0  0
 12 28  1  0  0  0  0
 13 14  2  0  0  0  0
 13 29  1  0  0  0  0
 14 30  1  0  0  0  0
 15 24  1  0  0  0  0
 15 28  2  0  0  0  0
 16 25  1  0  0  0  0
 16 26  2  0  0  0  0
 17 30  2  0  0  0  0
 17 31  1  0  0  0  0
 18 32  1  0  0  0  0
 19 32  1  0  0  0  0
 19 33  2  0  0  0  0
 19 34  1  0  0  0  0
 20 22  2  0  0  0  0
 20 39  1  0  0  0  0
 21 24  2  0  0  0  0
 21 40  1  0  0  0  0
 22 53  1  0  0  0  0
 23 25  2  0  0  0  0
 23 52  1  0  0  0  0
 24 41  1  0  0  0  0
 25 63  1  0  0  0  0
 26 74  1  0  0  0  0
 27 83  1  0  0  0  0
 28 84  1  0  0  0  0
 29 31  2  0  0  0  0
 29 83  1  0  0  0  0
 30 85  1  0  0  0  0
 31 86  1  0  0  0  0
 32 68  2  0  0  0  0
 33 69  1  0  0  0  0
 33 72  1  0  0  0  0
 34 73  1  0  0  0  0
 34 78  2  0  0  0  0
 35 54  1  0  0  0  0
 35 75  1  0  0  0  0
 35 79  2  0  0  0  0
 36 65  1  0  0  0  0
 36 70  1  0  0  0  0
 36 80  2  0  0  0  0
 37 66  1  0  0  0  0
 37 76  1  0  0  0  0
 37 81  2  0  0  0  0
 38 71  1  0  0  0  0
 38 74  1  0  0  0  0
 38 82  2  0  0  0  0
 39 42  1  0  0  0  0
 40 54  1  0  0  0  0
 41 70  1  0  0  0  0
 42 46  1  0  0  0  0
 43 49  1  0  0  0  0
 43 50  1  0  0  0  0
 44 47  1  0  0  0  0
 44 52  1  0  0  0  0
 45 48  1  0  0  0  0
 45 52  1  0  0  0  0
 46 53  1  0  0  0  0
 47 55  1  0  0  0  0
 48 55  1  0  0  0  0
 49 56  1  0  0  0  0
 50 71  1  0  0  0  0
 51 56  1  0  0  0  0
 51 71  1  0  0  0  0
 53 75  1  0  0  0  0
 54 70  1  0  0  0  0
 55 64  1  0  0  0  0
 56 69  1  0  0  0  0
 57 63  1  0  0  0  0
 58 66  1  0  0  0  0
 59 67  1  0  0  0  0
 60 67  1  0  0  0  0
 61 67  1  0  0  0  0
 62 77  1  0  0  0  0
 64 84  1  0  0  0  0
 65 67  1  0  0  0  0
 65 76  1  0  0  0  0
 66 77  1  0  0  0  0
 68 69  1  0  0  0  0
M  CHG  1  77   1
M  ISO  4  38 100  64 101  74 100  84 101
M  END
> <Batch ID>
0135

> <Smiles>
CCc1cc([100NH:0][100C:0](=O)N2CCCC(n3nc(-c4ccc(Oc5ccc(F)cc5F)cc4)c(C(N)=O)c3N)C2)ccc1C1CCC([101CH2:1][101O:1]c2ccc3c(c2)CN(C(=O)C(NC(=O)C(C)NC)C(C)(C)C)C(C(=O)NC2CCCc4ccccc42)C3)CC1

> <Shape>
0.284

> <Color>
0.094

> <Negative vol penalty>
0.000

$$$$

  -OEChem-04052302363D

 85 93  0     1  0  0  0  0  0999 V2000
  -20.8033  -23.6004   22.1400 C   0  0  0  0  0  0  0  0  0  0  0  0
  -22.1373  -23.3321   21.8502 C   0  0  0  0  0  0  0  0  0  0  0  0
  -34.0254  -25.5890   20.0866 C   0  0  0  0  0  0  0  0  0  0  0  0
  -22.6146  -29.0939   20.9573 C   0  0  0  0  0  0  0  0  0  0  0  0
  -23.9927  -28.7898   22.9183 C   0  0  0  0  0  0  0  0  0  0  0  0
  -34.6150  -24.3300   20.1994 C   0  0  0  0  0  0  0  0  0  0  0  0
  -20.0303  -22.6487   22.8037 C   0  0  0  0  0  0  0  0  0  0  0  0
  -22.6993  -22.1122   22.2248 C   0  0  0  0  0  0  0  0  0  0  0  0
  -26.9606  -18.9336   19.1845 C   0  0  0  0  0  0  0  0  0  0  0  0
  -32.6725  -25.6994   19.7653 C   0  0  0  0  0  0  0  0  0  0  0  0
  -21.5434  -29.4685   21.7682 C   0  0  0  0  0  0  0  0  0  0  0  0
  -22.9214  -29.1645   23.7292 C   0  0  0  0  0  0  0  0  0  0  0  0
  -28.3426  -18.8322   19.3382 C   0  0  0  0  0  0  0  0  0  0  0  0
  -18.3396  -30.1584   23.3441 C   0  0  0  0  0  0  0  0  0  0  0  0
  -17.0883  -29.6103   23.0624 C   0  0  0  0  0  0  0  0  0  0  0  0
  -32.4989  -23.2916   19.6694 C   0  0  0  0  0  0  0  0  0  0  0  0
  -28.0438  -16.8291   20.6487 C   0  0  0  0  0  0  0  0  0  0  0  0
  -17.9780  -27.3933   23.4236 C   0  0  0  0  0  0  0  0  0  0  0  0
  -23.8393  -28.7545   21.5323 C   0  0  0  0  0  0  0  0  0  0  0  0
  -33.8518  -23.1812   19.9908 C   0  0  0  0  0  0  0  0  0  0  0  0
  -25.9262  -29.2096   20.1375 C   0  0  0  0  0  0  0  0  0  0  0  0
  -20.5804  -21.4126   23.1780 C   0  0  0  0  0  0  0  0  0  0  0  0
  -26.1079  -17.9881   19.7719 C   0  0  0  0  0  0  0  0  0  0  0  0
  -21.9332  -21.1435   22.8952 C   0  0  0  0  0  0  0  0  0  0  0  0
  -26.6515  -16.9193   20.4988 C   0  0  0  0  0  0  0  0  0  0  0  0
  -31.9093  -24.5507   19.5566 C   0  0  0  0  0  0  0  0  0  0  0  0
  -21.6968  -29.5039   23.1541 C   0  0  0  0  0  0  0  0  0  0  0  0
  -28.8843  -17.7815   20.0728 C   0  0  0  0  0  0  0  0  0  0  0  0
  -19.4102  -29.3239   23.6655 C   0  0  0  0  0  0  0  0  0  0  0  0
  -16.9075  -28.2278   23.1022 C   0  0  0  0  0  0  0  0  0  0  0  0
  -19.2294  -27.9414   23.7053 C   0  0  0  0  0  0  0  0  0  0  0  0
  -24.9462  -28.3668   20.6952 C   0  0  0  0  0  0  0  0  0  0  0  0
  -26.7456  -28.3631   19.4314 C   0  0  0  0  0  0  0  0  0  0  0  0
  -34.4832  -21.8363   20.1117 C   0  0  0  0  0  0  0  0  0  0  0  0
  -26.0819  -30.6306   20.2478 C   0  0  0  0  0  0  0  0  0  0  0  0
  -23.8046  -18.0979   21.9597 C   0  0  0  0  0  0  0  0  0  0  0  0
  -23.4175  -14.9821   21.1446 C   0  0  0  0  0  0  0  0  0  0  0  0
  -24.7783  -12.1392   19.8358 C   0  0  0  0  0  0  0  0  0  0  0  0
  -29.6358  -23.6243   18.9917 C   0  0  0  0  0  0  0  0  0  0  0  0
  -19.7185  -20.4340   23.9356 C   0  0  0  0  0  0  0  0  0  0  0  0
  -24.6207  -18.0966   19.5744 C   0  0  0  0  0  0  0  0  0  0  0  0
  -25.7803  -15.8667   21.1324 C   0  0  0  0  0  0  0  0  0  0  0  0
  -20.2870  -19.0176   23.9654 C   0  0  0  0  0  0  0  0  0  0  0  0
  -26.1676  -23.4881   18.1978 C   0  0  0  0  0  0  0  0  0  0  0  0
  -21.7714  -19.0454   24.3157 C   0  0  0  0  0  0  0  0  0  0  0  0
  -25.6213  -24.8145   18.7308 C   0  0  0  0  0  0  0  0  0  0  0  0
  -27.2561  -22.9174   19.1050 C   0  0  0  0  0  0  0  0  0  0  0  0
  -27.8106  -25.1667   19.9432 C   0  0  0  0  0  0  0  0  0  0  0  0
  -22.5721  -19.8220   23.2633 C   0  0  1  0  0  0  0  0  0  0  0  0
  -23.8204  -17.3655   20.6479 C   0  0  1  0  0  0  0  0  0  0  0  0
  -26.7571  -25.8128   19.0286 C   0  0  2  0  0  0  0  0  0  0  0  0
  -24.2293   -9.7424   19.3346 C   0  0  0  0  0  0  0  0  0  0  0  0
  -23.6880  -14.3033   24.1070 C   0  0  0  0  0  0  0  0  0  0  0  0
  -24.0851  -11.9194   23.4530 C   0  0  0  0  0  0  0  0  0  0  0  0
  -21.9147  -13.0177   22.8999 C   0  0  0  0  0  0  0  0  0  0  0  0
  -33.1163  -17.6393   20.5908 C   0  0  0  0  0  0  0  0  0  0  0  0
  -31.7867  -18.4153   22.5583 C   0  0  0  0  0  0  0  0  0  0  0  0
  -25.2420  -12.5180   16.9374 C   0  0  0  0  0  0  0  0  0  0  0  0
  -33.6604  -20.5755   19.8862 C   0  0  0  0  0  0  0  0  0  0  0  0
  -33.0253  -20.1104   21.2003 C   0  0  0  0  0  0  0  0  0  0  0  0
  -30.9792  -18.8967   20.2255 C   0  0  0  0  0  0  0  0  0  1  0  0
  -23.9961  -13.6722   21.6225 C   0  0  1  0  0  0  0  0  0  0  0  0
  -24.2630  -11.1633   18.7935 C   0  0  2  0  0  0  0  0  0  0  0  0
  -23.4376  -13.2489   23.0104 C   0  0  0  0  0  0  0  0  0  0  0  0
  -32.2291  -18.7781   21.1242 C   0  0  0  0  0  0  0  0  0  0  0  0
  -25.1248  -27.0834   20.3713 N   0  0  0  0  0  0  0  0  0  0  0  0
  -35.7394  -21.7303   20.4135 N   0  0  0  0  0  0  0  0  0  0  0  0
  -26.2266  -27.1134   19.6023 N   0  0  0  0  0  0  0  0  0  0  0  0
  -24.3321  -16.0200   20.9162 N   0  0  0  0  0  0  0  0  0  0  0  0
  -28.3001  -23.9174   19.3396 N   0  0  0  0  0  0  0  0  0  0  0  0
  -27.8521  -28.5732   18.6873 N   0  0  0  0  0  0  0  0  0  0  0  0
  -25.1512  -31.3474   21.0121 N   0  0  0  0  0  0  0  0  0  0  0  0
  -30.5350  -24.6630   19.2304 N   0  0  0  0  0  0  0  0  0  0  0  0
  -22.7744  -19.0107   22.0821 N   0  0  0  0  0  0  0  0  0  0  0  0
  -23.7494  -12.7047   20.5588 N   0  0  0  0  0  0  0  0  0  0  0  0
  -25.1365  -11.1857   17.5862 N   0  3  0  0  0  0  0  0  0  0  0  0
  -27.0093  -31.2485   19.6718 O   0  0  0  0  0  0  0  0  0  0  0  0
  -24.6626  -17.8520   22.7994 O   0  0  0  0  0  0  0  0  0  0  0  0
  -22.1998  -15.0787   20.9732 O   0  0  0  0  0  0  0  0  0  0  0  0
  -25.9742  -12.3735   19.9953 O   0  0  0  0  0  0  0  0  0  0  0  0
  -29.9536  -22.5421   18.4918 O   0  0  0  0  0  0  0  0  0  0  0  0
  -20.6517  -29.8697   23.9457 O   0  0  0  0  0  0  0  0  0  0  0  0
  -30.2328  -17.6805   20.2248 O   0  0  0  0  0  0  0  0  0  1  0  0
  -15.7054  -27.7017   22.8331 F   0  0  0  0  0  0  0  0  0  0  0  0
  -20.2538  -27.1348   24.0146 F   0  0  0  0  0  0  0  0  0  0  0  0
  1  2  1  0  0  0  0
  1  7  2  0  0  0  0
  2  8  2  0  0  0  0
  3  6  2  0  0  0  0
  3 10  1  0  0  0  0
  4 11  2  0  0  0  0
  4 19  1  0  0  0  0
  5 12  1  0  0  0  0
  5 19  2  0  0  0  0
  6 20  1  0  0  0  0
  7 22  1  0  0  0  0
  8 24  1  0  0  0  0
  9 13  2  0  0  0  0
  9 23  1  0  0  0  0
 10 26  2  0  0  0  0
 11 27  1  0  0  0  0
 12 27  2  0  0  0  0
 13 28  1  0  0  0  0
 14 15  2  0  0  0  0
 14 29  1  0  0  0  0
 15 30  1  0  0  0  0
 16 20  2  0  0  0  0
 16 26  1  0  0  0  0
 17 25  1  0  0  0  0
 17 28  2  0  0  0  0
 18 30  2  0  0  0  0
 18 31  1  0  0  0  0
 19 32  1  0  0  0  0
 20 34  1  0  0  0  0
 21 32  1  0  0  0  0
 21 33  2  0  0  0  0
 21 35  1  0  0  0  0
 22 24  2  0  0  0  0
 22 40  1  0  0  0  0
 23 25  2  0  0  0  0
 23 41  1  0  0  0  0
 24 49  1  0  0  0  0
 25 42  1  0  0  0  0
 26 73  1  0  0  0  0
 27 82  1  0  0  0  0
 28 83  1  0  0  0  0
 29 31  2  0  0  0  0
 29 82  1  0  0  0  0
 30 84  1  0  0  0  0
 31 85  1  0  0  0  0
 32 66  2  0  0  0  0
 33 68  1  0  0  0  0
 33 71  1  0  0  0  0
 34 59  1  0  0  0  0
 34 67  2  0  0  0  0
 35 72  1  0  0  0  0
 35 77  2  0  0  0  0
 36 50  1  0  0  0  0
 36 74  1  0  0  0  0
 36 78  2  0  0  0  0
 37 62  1  0  0  0  0
 37 69  1  0  0  0  0
 37 79  2  0  0  0  0
 38 63  1  0  0  0  0
 38 75  1  0  0  0  0
 38 80  2  0  0  0  0
 39 70  1  0  0  0  0
 39 73  1  0  0  0  0
 39 81  2  0  0  0  0
 40 43  1  0  0  0  0
 41 50  1  0  0  0  0
 42 69  1  0  0  0  0
 43 45  1  0  0  0  0
 44 46  1  0  0  0  0
 44 47  1  0  0  0  0
 45 49  1  0  0  0  0
 46 51  1  0  0  0  0
 47 70  1  0  0  0  0
 48 51  1  0  0  0  0
 48 70  1  0  0  0  0
 49 74  1  0  0  0  0
 50 69  1  0  0  0  0
 51 68  1  0  0  0  0
 52 63  1  0  0  0  0
 53 64  1  0  0  0  0
 54 64  1  0  0  0  0
 55 64  1  0  0  0  0
 56 65  1  0  0  0  0
 57 65  1  0  0  0  0
 58 76  1  0  0  0  0
 59 60  1  0  0  0  0
 60 65  1  0  0  0  0
 61 65  1  0  0  0  0
 61 83  1  0  0  0  0
 62 64  1  0  0  0  0
 62 75  1  0  0  0  0
 63 76  1  0  0  0  0
 66 68  1  0  0  0  0
M  CHG  1  76   1
M  ISO  4  39 100  61 101  73 100  83 101
M  END
> <Batch ID>
0135

> <Smiles>
CNC(C)C(=O)NC(C(=O)N1Cc2cc([101O:1][101CH2:1]C(C)(C)CCC(=N)c3cccc([100NH:0][100C:0](=O)N4CCCC(n5nc(-c6ccc(Oc7ccc(F)cc7F)cc6)c(C(N)=O)c5N)C4)c3)ccc2CC1C(=O)NC1CCCc2ccccc21)C(C)(C)C

> <Shape>
0.217

> <Color>
0.072

> <Negative vol penalty>
0.000

$$$$

  -OEChem-04052302363D

 85 93  0     1  0  0  0  0  0999 V2000
  -29.9646  -31.7906   25.7814 C   0  0  0  0  0  0  0  0  0  0  0  0
  -29.7301  -30.8089   24.8240 C   0  0  0  0  0  0  0  0  0  0  0  0
  -23.0720  -14.7095   24.2364 C   0  0  0  0  0  0  0  0  0  0  0  0
  -22.8593  -15.9262   22.1600 C   0  0  0  0  0  0  0  0  0  0  0  0
  -30.2187  -18.4471   20.2361 C   0  0  0  0  0  0  0  0  0  0  0  0
  -28.9293  -32.2106   26.6155 C   0  0  0  0  0  0  0  0  0  0  0  0
  -28.4604  -30.2458   24.7008 C   0  0  0  0  0  0  0  0  0  0  0  0
  -26.9701  -29.8509   19.8771 C   0  0  0  0  0  0  0  0  0  0  0  0
  -29.8576  -19.7848   20.3964 C   0  0  0  0  0  0  0  0  0  0  0  0
  -22.1046  -15.5301   24.8164 C   0  0  0  0  0  0  0  0  0  0  0  0
  -21.8919  -16.7468   22.7399 C   0  0  0  0  0  0  0  0  0  0  0  0
  -27.5007  -28.7997   19.1307 C   0  0  0  0  0  0  0  0  0  0  0  0
  -21.9405  -18.6381   26.1347 C   0  0  0  0  0  0  0  0  0  0  0  0
  -22.1936  -19.1325   27.4141 C   0  0  0  0  0  0  0  0  0  0  0  0
  -25.4722  -27.5401   19.4738 C   0  0  0  0  0  0  0  0  0  0  0  0
  -27.8687  -19.4057   19.0781 C   0  0  0  0  0  0  0  0  0  0  0  0
  -20.2052  -18.0312   28.2330 C   0  0  0  0  0  0  0  0  0  0  0  0
  -23.4494  -14.9076   22.9082 C   0  0  0  0  0  0  0  0  0  0  0  0
  -29.4050  -17.5887   19.4968 C   0  0  0  0  0  0  0  0  0  0  0  0
  -24.2369  -12.8505   21.6213 C   0  0  0  0  0  0  0  0  0  0  0  0
  -27.6438  -31.6594   26.4960 C   0  0  0  0  0  0  0  0  0  0  0  0
  -25.6886  -29.7501   20.4375 C   0  0  0  0  0  0  0  0  0  0  0  0
  -27.4073  -30.6580   25.5349 C   0  0  0  0  0  0  0  0  0  0  0  0
  -24.9265  -28.5925   20.2247 C   0  0  0  0  0  0  0  0  0  0  0  0
  -28.6825  -20.2641   19.8174 C   0  0  0  0  0  0  0  0  0  0  0  0
  -28.2299  -18.0680   18.9178 C   0  0  0  0  0  0  0  0  0  0  0  0
  -21.5145  -16.5487   24.0681 C   0  0  0  0  0  0  0  0  0  0  0  0
  -26.7529  -27.6429   18.9314 C   0  0  0  0  0  0  0  0  0  0  0  0
  -20.8197  -17.8403   25.9043 C   0  0  0  0  0  0  0  0  0  0  0  0
  -21.3259  -18.8291   28.4633 C   0  0  0  0  0  0  0  0  0  0  0  0
  -19.9521  -17.5368   26.9534 C   0  0  0  0  0  0  0  0  0  0  0  0
  -24.4491  -14.0606   22.3088 C   0  0  0  0  0  0  0  0  0  0  0  0
  -25.4945  -12.4407   21.2514 C   0  0  0  0  0  0  0  0  0  0  0  0
  -29.8059  -16.1965   19.3451 C   0  0  0  0  0  0  0  0  0  0  0  0
  -23.0124  -12.1589   21.3420 C   0  0  0  0  0  0  0  0  0  0  0  0
  -30.5943  -15.5047   20.3906 C   0  0  0  0  0  0  0  0  0  0  0  0
  -24.5251  -29.7816   23.3954 C   0  0  0  0  0  0  0  0  0  0  0  0
  -28.4862  -24.0517   19.0406 C   0  0  0  0  0  0  0  0  0  0  0  0
  -21.6702  -29.7611   21.8553 C   0  0  0  0  0  0  0  0  0  0  0  0
  -19.9048  -28.9999   19.0356 C   0  0  0  0  0  0  0  0  0  0  0  0
  -26.5683  -32.1116   27.4517 C   0  0  0  0  0  0  0  0  0  0  0  0
  -25.1200  -30.9037   21.2175 C   0  0  0  0  0  0  0  0  0  0  0  0
  -23.5377  -28.4427   20.7879 C   0  0  0  0  0  0  0  0  0  0  0  0
  -25.1585  -31.7324   27.0057 C   0  0  0  0  0  0  0  0  0  0  0  0
  -30.0744  -12.7115   22.5780 C   0  0  0  0  0  0  0  0  0  0  0  0
  -25.1146  -30.2754   26.5562 C   0  0  0  0  0  0  0  0  0  0  0  0
  -28.5541  -12.6559   22.7243 C   0  0  0  0  0  0  0  0  0  0  0  0
  -30.5704  -14.1479   22.4466 C   0  0  0  0  0  0  0  0  0  0  0  0
  -28.4020  -14.8558   21.4742 C   0  0  0  0  0  0  0  0  0  0  0  0
  -26.0373  -30.0409   25.3541 C   0  0  1  0  0  0  0  0  0  0  0  0
  -24.0070  -30.4873   22.1742 C   0  0  1  0  0  0  0  0  0  0  0  0
  -27.8611  -13.4193   21.5817 C   0  0  2  0  0  0  0  0  0  0  0  0
  -27.3397  -17.1705   18.1217 C   0  0  0  0  0  0  0  0  0  0  0  0
  -17.5816  -29.0630   18.0889 C   0  0  0  0  0  0  0  0  0  0  0  0
  -20.9197  -27.3313   23.5413 C   0  0  0  0  0  0  0  0  0  0  0  0
  -19.0566  -26.8770   21.9318 C   0  0  0  0  0  0  0  0  0  0  0  0
  -19.0818  -29.0004   23.2408 C   0  0  0  0  0  0  0  0  0  0  0  0
  -20.7213  -30.8167   16.8467 C   0  0  0  0  0  0  0  0  0  0  0  0
  -28.2919  -21.7089   19.9914 C   0  0  0  0  0  0  0  0  0  0  0  0
  -28.8616  -22.5865   18.8785 C   0  0  0  0  0  0  0  0  0  0  0  0
  -29.0551  -24.9928   17.9873 C   0  0  0  0  0  0  0  0  0  0  0  0
  -28.6860  -26.4496   18.2275 C   0  0  0  0  0  0  0  0  0  1  0  0
  -20.7342  -28.6885   21.3529 C   0  0  1  0  0  0  0  0  0  0  0  0
  -18.9026  -29.8037   18.2269 C   0  0  2  0  0  0  0  0  0  0  0  0
  -19.9750  -27.9760   22.5076 C   0  0  0  0  0  0  0  0  0  0  0  0
  -25.7400  -14.3974   22.3734 N   0  0  0  0  0  0  0  0  0  0  0  0
  -29.5035  -15.4758   18.3008 N   0  0  0  0  0  0  0  0  0  0  0  0
  -26.3503  -13.3929   21.7218 N   0  0  0  0  0  0  0  0  0  0  0  0
  -29.8672  -14.8542   21.3777 N   0  0  0  0  0  0  0  0  0  0  0  0
  -23.0283  -29.5955   21.5487 N   0  0  0  0  0  0  0  0  0  0  0  0
  -25.9409  -11.3623   20.5730 N   0  0  0  0  0  0  0  0  0  0  0  0
  -21.8102  -12.7195   21.7944 N   0  0  0  0  0  0  0  0  0  0  0  0
  -25.4188  -30.5277   24.1396 N   0  0  0  0  0  0  0  0  0  0  0  0
  -19.8649  -29.3315   20.3734 N   0  0  0  0  0  0  0  0  0  0  0  0
  -19.4356  -30.0726   16.8614 N   0  3  0  0  0  0  0  0  0  0  0  0
  -22.9867  -11.0675   20.7241 O   0  0  0  0  0  0  0  0  0  0  0  0
  -31.8102  -15.5816   20.2717 O   0  0  0  0  0  0  0  0  0  0  0  0
  -24.1412  -28.6449   23.6447 O   0  0  0  0  0  0  0  0  0  0  0  0
  -27.7721  -24.4475   19.9604 O   0  0  0  0  0  0  0  0  0  0  0  0
  -21.2123  -30.7145   22.4901 O   0  0  0  0  0  0  0  0  0  0  0  0
  -20.6461  -28.1591   18.5316 O   0  0  0  0  0  0  0  0  0  0  0  0
  -20.5703  -17.3495   24.6336 O   0  0  0  0  0  0  0  0  0  0  0  0
  -27.2688  -26.6150   18.2039 O   0  0  0  0  0  0  0  0  0  1  0  0
  -21.5699  -19.3026   29.6923 F   0  0  0  0  0  0  0  0  0  0  0  0
  -18.8744  -16.7698   26.7385 F   0  0  0  0  0  0  0  0  0  0  0  0
  1  2  1  0  0  0  0
  1  6  2  0  0  0  0
  2  7  2  0  0  0  0
  3 10  2  0  0  0  0
  3 18  1  0  0  0  0
  4 11  1  0  0  0  0
  4 18  2  0  0  0  0
  5  9  2  0  0  0  0
  5 19  1  0  0  0  0
  6 21  1  0  0  0  0
  7 23  1  0  0  0  0
  8 12  2  0  0  0  0
  8 22  1  0  0  0  0
  9 25  1  0  0  0  0
 10 27  1  0  0  0  0
 11 27  2  0  0  0  0
 12 28  1  0  0  0  0
 13 14  2  0  0  0  0
 13 29  1  0  0  0  0
 14 30  1  0  0  0  0
 15 24  1  0  0  0  0
 15 28  2  0  0  0  0
 16 25  2  0  0  0  0
 16 26  1  0  0  0  0
 17 30  2  0  0  0  0
 17 31  1  0  0  0  0
 18 32  1  0  0  0  0
 19 26  2  0  0  0  0
 19 34  1  0  0  0  0
 20 32  1  0  0  0  0
 20 33  2  0  0  0  0
 20 35  1  0  0  0  0
 21 23  2  0  0  0  0
 21 41  1  0  0  0  0
 22 24  2  0  0  0  0
 22 42  1  0  0  0  0
 23 50  1  0  0  0  0
 24 43  1  0  0  0  0
 25 59  1  0  0  0  0
 26 53  1  0  0  0  0
 27 82  1  0  0  0  0
 28 83  1  0  0  0  0
 29 31  2  0  0  0  0
 29 82  1  0  0  0  0
 30 84  1  0  0  0  0
 31 85  1  0  0  0  0
 32 66  2  0  0  0  0
 33 68  1  0  0  0  0
 33 71  1  0  0  0  0
 34 36  1  0  0  0  0
 34 67  2  0  0  0  0
 35 72  1  0  0  0  0
 35 76  2  0  0  0  0
 36 69  1  0  0  0  0
 36 77  2  0  0  0  0
 37 51  1  0  0  0  0
 37 73  1  0  0  0  0
 37 78  2  0  0  0  0
 38 60  1  0  0  0  0
 38 61  1  0  0  0  0
 38 79  2  0  0  0  0
 39 63  1  0  0  0  0
 39 70  1  0  0  0  0
 39 80  2  0  0  0  0
 40 64  1  0  0  0  0
 40 74  1  0  0  0  0
 40 81  2  0  0  0  0
 41 44  1  0  0  0  0
 42 51  1  0  0  0  0
 43 70  1  0  0  0  0
 44 46  1  0  0  0  0
 45 47  1  0  0  0  0
 45 48  1  0  0  0  0
 46 50  1  0  0  0  0
 47 52  1  0  0  0  0
 48 69  1  0  0  0  0
 49 52  1  0  0  0  0
 49 69  1  0  0  0  0
 50 73  1  0  0  0  0
 51 70  1  0  0  0  0
 52 68  1  0  0  0  0
 54 64  1  0  0  0  0
 55 65  1  0  0  0  0
 56 65  1  0  0  0  0
 57 65  1  0  0  0  0
 58 75  1  0  0  0  0
 59 60  1  0  0  0  0
 61 62  1  0  0  0  0
 62 83  1  0  0  0  0
 63 65  1  0  0  0  0
 63 74  1  0  0  0  0
 64 75  1  0  0  0  0
 66 68  1  0  0  0  0
M  CHG  1  75   1
M  ISO  4  34 100  36 100  62 101  83 101
M  END
> <Batch ID>
0135

> <Smiles>
CNC(C)C(=O)NC(C(=O)N1Cc2cc([101O:1][101CH2:1]CC(=O)CCc3ccc([100C:0](=N)[100C:0](=O)N4CCCC(n5nc(-c6ccc(Oc7ccc(F)cc7F)cc6)c(C(N)=O)c5N)C4)c(C)c3)ccc2CC1C(=O)NC1CCCc2ccccc21)C(C)(C)C

> <Shape>
0.282

> <Color>
0.082

> <Negative vol penalty>
0.000

$$$$

  -OEChem-04052302363D

 89 97  0     1  0  0  0  0  0999 V2000
  -27.4209   -9.8347   19.8737 C   0  0  0  0  0  0  0  0  0  0  0  0
  -28.2759  -10.8723   19.5160 C   0  0  0  0  0  0  0  0  0  0  0  0
  -18.6707  -21.7986   26.0556 C   0  0  0  0  0  0  0  0  0  0  0  0
  -19.8043  -21.0857   24.0447 C   0  0  0  0  0  0  0  0  0  0  0  0
  -26.1386  -10.1194   20.3412 C   0  0  0  0  0  0  0  0  0  0  0  0
  -27.8486  -12.1952   19.6246 C   0  0  0  0  0  0  0  0  0  0  0  0
  -30.3247  -18.7618   21.0615 C   0  0  0  0  0  0  0  0  0  0  0  0
  -18.0607  -20.5481   26.1551 C   0  0  0  0  0  0  0  0  0  0  0  0
  -19.1944  -19.8352   24.1442 C   0  0  0  0  0  0  0  0  0  0  0  0
  -30.3317  -20.0505   20.5296 C   0  0  0  0  0  0  0  0  0  0  0  0
  -16.1756  -18.4745   23.4618 C   0  0  0  0  0  0  0  0  0  0  0  0
  -15.6304  -17.9252   22.3013 C   0  0  0  0  0  0  0  0  0  0  0  0
  -28.1231  -20.4254   21.4246 C   0  0  0  0  0  0  0  0  0  0  0  0
  -25.9824  -28.9502   21.3998 C   0  0  0  0  0  0  0  0  0  0  0  0
  -26.1730  -27.5531   18.9926 C   0  0  0  0  0  0  0  0  0  0  0  0
  -17.1104  -16.0264   22.5049 C   0  0  0  0  0  0  0  0  0  0  0  0
  -19.5424  -22.0674   25.0004 C   0  0  0  0  0  0  0  0  0  0  0  0
  -21.4050  -23.7509   25.4527 C   0  0  0  0  0  0  0  0  0  0  0  0
  -25.6988  -11.4467   20.4647 C   0  0  0  0  0  0  0  0  0  0  0  0
  -29.2106  -18.2906   21.7708 C   0  0  0  0  0  0  0  0  0  0  0  0
  -26.5587  -12.4978   20.0930 C   0  0  0  0  0  0  0  0  0  0  0  0
  -28.1056  -19.1312   21.9667 C   0  0  0  0  0  0  0  0  0  0  0  0
  -24.8985  -28.9217   20.5223 C   0  0  0  0  0  0  0  0  0  0  0  0
  -27.1616  -28.2803   21.0737 C   0  0  0  0  0  0  0  0  0  0  0  0
  -24.9938  -28.2231   19.3187 C   0  0  0  0  0  0  0  0  0  0  0  0
  -18.3226  -19.5664   25.1994 C   0  0  0  0  0  0  0  0  0  0  0  0
  -29.2296  -20.8815   20.7086 C   0  0  0  0  0  0  0  0  0  0  0  0
  -17.1882  -17.7998   24.1438 C   0  0  0  0  0  0  0  0  0  0  0  0
  -27.2569  -27.5817   19.8701 C   0  0  0  0  0  0  0  0  0  0  0  0
  -16.0978  -16.7012   21.8229 C   0  0  0  0  0  0  0  0  0  0  0  0
  -17.6555  -16.5757   23.6654 C   0  0  0  0  0  0  0  0  0  0  0  0
  -20.1724  -23.3591   24.8969 C   0  0  0  0  0  0  0  0  0  0  0  0
  -21.5529  -25.0618   25.0704 C   0  0  0  0  0  0  0  0  0  0  0  0
  -22.3333  -22.9971   26.2438 C   0  0  0  0  0  0  0  0  0  0  0  0
  -27.1343  -15.9178   21.3678 C   0  0  0  0  0  0  0  0  0  0  0  0
  -29.4069  -24.7882   18.9976 C   0  0  0  0  0  0  0  0  0  0  0  0
  -26.0833  -16.8617   24.2879 C   0  0  0  0  0  0  0  0  0  0  0  0
  -25.8292  -19.3488   26.6109 C   0  0  0  0  0  0  0  0  0  0  0  0
  -21.2533  -29.0637   21.1923 C   0  0  0  0  0  0  0  0  0  0  0  0
  -24.2873  -11.7034   20.9302 C   0  0  0  0  0  0  0  0  0  0  0  0
  -29.2295  -16.9073   22.3612 C   0  0  0  0  0  0  0  0  0  0  0  0
  -26.8930  -18.6802   22.7379 C   0  0  0  0  0  0  0  0  0  0  0  0
  -24.0437  -13.1447   21.3701 C   0  0  0  0  0  0  0  0  0  0  0  0
  -18.2617  -28.2641   22.9493 C   0  0  0  0  0  0  0  0  0  0  0  0
  -24.6221  -14.1195   20.3493 C   0  0  0  0  0  0  0  0  0  0  0  0
  -18.5917  -26.9466   23.6529 C   0  0  0  0  0  0  0  0  0  0  0  0
  -18.9127  -28.3461   21.5704 C   0  0  0  0  0  0  0  0  0  0  0  0
  -20.6991  -26.7954   22.2619 C   0  0  0  0  0  0  0  0  0  0  0  0
  -26.1403  -13.9466   20.2201 C   0  0  1  0  0  0  0  0  0  0  0  0
  -27.8337  -16.3511   22.6251 C   0  0  1  0  0  0  0  0  0  0  0  0
  -20.1106  -26.6901   23.6793 C   0  0  2  0  0  0  0  0  0  0  0  0
  -28.3116  -28.3207   22.0252 C   0  0  0  0  0  0  0  0  0  0  0  0
  -22.9023  -29.0478   16.1802 C   0  0  0  0  0  0  0  0  0  0  0  0
  -30.1287  -23.6947   16.8507 C   0  0  0  0  0  0  0  0  0  0  0  0
  -24.8815  -19.8322   28.8837 C   0  0  0  0  0  0  0  0  0  0  0  0
  -23.2910  -17.0733   23.0760 C   0  0  0  0  0  0  0  0  0  0  0  0
  -22.6071  -18.4329   25.0639 C   0  0  0  0  0  0  0  0  0  0  0  0
  -23.3607  -16.0744   25.3677 C   0  0  0  0  0  0  0  0  0  0  0  0
  -28.5073  -19.9196   27.7338 C   0  0  0  0  0  0  0  0  0  0  0  0
  -23.8468  -28.1781   18.3633 C   0  0  0  0  0  0  0  0  0  0  0  0
  -23.6466  -29.6476   20.8916 C   0  0  0  0  0  0  0  0  0  0  0  0
  -28.2807  -25.7675   18.7229 C   0  0  0  0  0  0  0  0  0  0  0  0
  -24.0553  -29.1201   17.1687 C   0  0  0  0  0  0  0  0  0  0  0  0
  -29.9895  -22.3483   18.9977 C   0  0  0  0  0  0  0  0  0  1  0  0
  -29.3999  -23.4971   18.1790 C   0  0  1  0  0  0  0  0  0  0  0  0
  -25.0604  -17.8536   24.7867 C   0  0  1  0  0  0  0  0  0  0  0  0
  -26.1006  -19.3637   28.1044 C   0  0  2  0  0  0  0  0  0  0  0  0
  -23.6017  -17.3667   24.5574 C   0  0  0  0  0  0  0  0  0  0  0  0
  -19.5793  -24.3417   24.2136 N   0  0  0  0  0  0  0  0  0  0  0  0
  -20.4430  -25.3639   24.3377 N   0  0  0  0  0  0  0  0  0  0  0  0
  -26.9568  -17.3170   23.2902 N   0  0  0  0  0  0  0  0  0  0  0  0
  -20.3528  -28.0950   21.6653 N   0  0  0  0  0  0  0  0  0  0  0  0
  -22.5228  -25.9740   25.2930 N   0  0  0  0  0  0  0  0  0  0  0  0
  -22.0260  -21.6631   26.5443 N   0  0  0  0  0  0  0  0  0  0  0  0
  -26.8171  -14.5732   21.3354 N   0  0  0  0  0  0  0  0  0  0  0  0
  -25.3910  -18.1132   26.1838 N   0  0  0  0  0  0  0  0  0  0  0  0
  -22.6002  -28.7492   21.3260 N   0  0  0  0  0  0  0  0  0  0  0  0
  -27.2366  -20.2768   28.4154 N   0  3  0  0  0  0  0  0  0  0  0  0
  -23.3958  -23.4968   26.6853 O   0  0  0  0  0  0  0  0  0  0  0  0
  -26.8985  -16.7425   20.4927 O   0  0  0  0  0  0  0  0  0  0  0  0
  -30.2677  -25.0180   19.8472 O   0  0  0  0  0  0  0  0  0  0  0  0
  -26.1109  -15.7270   24.7709 O   0  0  0  0  0  0  0  0  0  0  0  0
  -25.9864  -20.3357   25.8954 O   0  0  0  0  0  0  0  0  0  0  0  0
  -20.8844  -30.1322   20.6931 O   0  0  0  0  0  0  0  0  0  0  0  0
  -17.7278  -18.3460   25.2962 O   0  0  0  0  0  0  0  0  0  0  0  0
  -28.4119  -26.9173   19.5326 O   0  0  0  0  0  0  0  0  0  0  0  0
  -29.2336  -22.1396   20.1899 O   0  0  0  0  0  0  0  0  0  1  0  0
  -15.5731  -16.1731   20.7093 F   0  0  0  0  0  0  0  0  0  0  0  0
  -18.6273  -15.9223   24.3169 F   0  0  0  0  0  0  0  0  0  0  0  0
  1  2  1  0  0  0  0
  1  5  2  0  0  0  0
  2  6  2  0  0  0  0
  3  8  2  0  0  0  0
  3 17  1  0  0  0  0
  4  9  1  0  0  0  0
  4 17  2  0  0  0  0
  5 19  1  0  0  0  0
  6 21  1  0  0  0  0
  7 10  2  0  0  0  0
  7 20  1  0  0  0  0
  8 26  1  0  0  0  0
  9 26  2  0  0  0  0
 10 27  1  0  0  0  0
 11 12  2  0  0  0  0
 11 28  1  0  0  0  0
 12 30  1  0  0  0  0
 13 22  1  0  0  0  0
 13 27  2  0  0  0  0
 14 23  1  0  0  0  0
 14 24  2  0  0  0  0
 15 25  1  0  0  0  0
 15 29  2  0  0  0  0
 16 30  2  0  0  0  0
 16 31  1  0  0  0  0
 17 32  1  0  0  0  0
 18 32  1  0  0  0  0
 18 33  2  0  0  0  0
 18 34  1  0  0  0  0
 19 21  2  0  0  0  0
 19 40  1  0  0  0  0
 20 22  2  0  0  0  0
 20 41  1  0  0  0  0
 21 49  1  0  0  0  0
 22 42  1  0  0  0  0
 23 25  2  0  0  0  0
 23 61  1  0  0  0  0
 24 29  1  0  0  0  0
 24 52  1  0  0  0  0
 25 60  1  0  0  0  0
 26 85  1  0  0  0  0
 27 87  1  0  0  0  0
 28 31  2  0  0  0  0
 28 85  1  0  0  0  0
 29 86  1  0  0  0  0
 30 88  1  0  0  0  0
 31 89  1  0  0  0  0
 32 69  2  0  0  0  0
 33 70  1  0  0  0  0
 33 73  1  0  0  0  0
 34 74  1  0  0  0  0
 34 79  2  0  0  0  0
 35 50  1  0  0  0  0
 35 75  1  0  0  0  0
 35 80  2  0  0  0  0
 36 62  1  0  0  0  0
 36 65  1  0  0  0  0
 36 81  2  0  0  0  0
 37 66  1  0  0  0  0
 37 71  1  0  0  0  0
 37 82  2  0  0  0  0
 38 67  1  0  0  0  0
 38 76  1  0  0  0  0
 38 83  2  0  0  0  0
 39 72  1  0  0  0  0
 39 77  1  0  0  0  0
 39 84  2  0  0  0  0
 40 43  1  0  0  0  0
 41 50  1  0  0  0  0
 42 71  1  0  0  0  0
 43 45  1  0  0  0  0
 44 46  1  0  0  0  0
 44 47  1  0  0  0  0
 45 49  1  0  0  0  0
 46 51  1  0  0  0  0
 47 72  1  0  0  0  0
 48 51  1  0  0  0  0
 48 72  1  0  0  0  0
 49 75  1  0  0  0  0
 50 71  1  0  0  0  0
 51 70  1  0  0  0  0
 53 63  1  0  0  0  0
 54 65  1  0  0  0  0
 55 67  1  0  0  0  0
 56 68  1  0  0  0  0
 57 68  1  0  0  0  0
 58 68  1  0  0  0  0
 59 78  1  0  0  0  0
 60 63  1  0  0  0  0
 61 77  1  0  0  0  0
 62 86  1  0  0  0  0
 64 65  1  0  0  0  0
 64 87  1  0  0  0  0
 66 68  1  0  0  0  0
 66 76  1  0  0  0  0
 67 78  1  0  0  0  0
 69 70  1  0  0  0  0
M  CHG  1  78   1
M  ISO  4  39 100  64 101  77 100  87 101
M  END
> <Batch ID>
0135

> <Smiles>
CCCc1cc(OCC(=O)C(C)[101CH2:1][101O:1]c2ccc3c(c2)CN(C(=O)C(NC(=O)C(C)NC)C(C)(C)C)C(C(=O)NC2CCCc4ccccc42)C3)c(C)cc1C[100NH:0][100C:0](=O)N1CCCC(n2nc(-c3ccc(Oc4ccc(F)cc4F)cc3)c(C(N)=O)c2N)C1

> <Shape>
0.204

> <Color>
0.085

> <Negative vol penalty>
0.000

$$$$

  -OEChem-04052302363D

 87 95  0     1  0  0  0  0  0999 V2000
  -21.5192  -33.5284   20.0417 C   0  0  0  0  0  0  0  0  0  0  0  0
  -22.7175  -32.8393   20.1984 C   0  0  0  0  0  0  0  0  0  0  0  0
  -23.7405   -9.6728   20.7768 C   0  0  0  0  0  0  0  0  0  0  0  0
  -24.3335  -10.3742   23.0114 C   0  0  0  0  0  0  0  0  0  0  0  0
  -29.8889  -20.3185   19.3138 C   0  0  0  0  0  0  0  0  0  0  0  0
  -20.4054  -33.1690   20.7995 C   0  0  0  0  0  0  0  0  0  0  0  0
  -22.8030  -31.7909   21.1139 C   0  0  0  0  0  0  0  0  0  0  0  0
  -25.1952  -27.7488   19.2208 C   0  0  0  0  0  0  0  0  0  0  0  0
  -30.0038  -18.9674   19.6406 C   0  0  0  0  0  0  0  0  0  0  0  0
  -23.2310   -8.4787   21.2868 C   0  0  0  0  0  0  0  0  0  0  0  0
  -23.8240   -9.1801   23.5214 C   0  0  0  0  0  0  0  0  0  0  0  0
  -26.5872  -27.8021   19.1627 C   0  0  0  0  0  0  0  0  0  0  0  0
  -20.4178   -7.4349   22.8454 C   0  0  0  0  0  0  0  0  0  0  0  0
  -19.1815   -7.0009   22.3671 C   0  0  0  0  0  0  0  0  0  0  0  0
  -28.1417  -20.5691   20.9635 C   0  0  0  0  0  0  0  0  0  0  0  0
  -26.7158  -26.4751   21.1731 C   0  0  0  0  0  0  0  0  0  0  0  0
  -20.2073   -4.9678   21.5602 C   0  0  0  0  0  0  0  0  0  0  0  0
  -24.2918  -10.6206   21.6391 C   0  0  0  0  0  0  0  0  0  0  0  0
  -28.9579  -21.1194   19.9753 C   0  0  0  0  0  0  0  0  0  0  0  0
  -24.1221  -13.0619   20.9188 C   0  0  0  0  0  0  0  0  0  0  0  0
  -20.4746  -32.1095   21.7178 C   0  0  0  0  0  0  0  0  0  0  0  0
  -24.5519  -27.0663   20.2633 C   0  0  0  0  0  0  0  0  0  0  0  0
  -21.6895  -31.4179   21.8857 C   0  0  0  0  0  0  0  0  0  0  0  0
  -25.3156  -26.4125   21.2407 C   0  0  0  0  0  0  0  0  0  0  0  0
  -29.1876  -18.4171   20.6289 C   0  0  0  0  0  0  0  0  0  0  0  0
  -23.2727   -8.2323   22.6591 C   0  0  0  0  0  0  0  0  0  0  0  0
  -27.3477  -27.1676   20.1406 C   0  0  0  0  0  0  0  0  0  0  0  0
  -21.5489   -6.6354   22.6810 C   0  0  0  0  0  0  0  0  0  0  0  0
  -19.0762   -5.7673   21.7246 C   0  0  0  0  0  0  0  0  0  0  0  0
  -28.2565  -19.2179   21.2903 C   0  0  0  0  0  0  0  0  0  0  0  0
  -21.4437   -5.4018   22.0385 C   0  0  0  0  0  0  0  0  0  0  0  0
  -24.8187  -11.8541   21.1128 C   0  0  0  0  0  0  0  0  0  0  0  0
  -25.0609  -13.9204   20.4011 C   0  0  0  0  0  0  0  0  0  0  0  0
  -28.8358  -22.5546   19.6279 C   0  0  0  0  0  0  0  0  0  0  0  0
  -22.7491  -13.3795   21.1830 C   0  0  0  0  0  0  0  0  0  0  0  0
  -22.5642  -27.8996   22.5996 C   0  0  0  0  0  0  0  0  0  0  0  0
  -22.4614  -24.7003   23.1250 C   0  0  0  0  0  0  0  0  0  0  0  0
  -23.9779  -21.6605   22.7986 C   0  0  0  0  0  0  0  0  0  0  0  0
  -30.1791  -16.1129   20.3961 C   0  0  0  0  0  0  0  0  0  0  0  0
  -19.2576  -31.7882   22.5486 C   0  0  0  0  0  0  0  0  0  0  0  0
  -23.0498  -26.9956   20.2968 C   0  0  0  0  0  0  0  0  0  0  0  0
  -24.6736  -25.6493   22.3694 C   0  0  0  0  0  0  0  0  0  0  0  0
  -19.3262  -30.4222   23.2266 C   0  0  0  0  0  0  0  0  0  0  0  0
  -29.7320  -13.0345   18.6639 C   0  0  0  0  0  0  0  0  0  0  0  0
  -20.6861  -30.2223   23.8880 C   0  0  0  0  0  0  0  0  0  0  0  0
  -28.3566  -12.5523   19.1307 C   0  0  0  0  0  0  0  0  0  0  0  0
  -30.5023  -13.7253   19.7878 C   0  0  0  0  0  0  0  0  0  0  0  0
  -28.4030  -14.3298   20.9266 C   0  0  0  0  0  0  0  0  0  0  0  0
  -21.8148  -30.2589   22.8506 C   0  0  1  0  0  0  0  0  0  0  0  0
  -22.4962  -26.7066   21.6887 C   0  0  1  0  0  0  0  0  0  0  0  0
  -27.5635  -13.6850   19.8116 C   0  0  2  0  0  0  0  0  0  0  0  0
  -23.6684  -19.2343   23.3599 C   0  0  0  0  0  0  0  0  0  0  0  0
  -23.2053  -25.2794   26.0269 C   0  0  0  0  0  0  0  0  0  0  0  0
  -23.8043  -22.8619   26.2828 C   0  0  0  0  0  0  0  0  0  0  0  0
  -21.4604  -23.5125   25.7299 C   0  0  0  0  0  0  0  0  0  0  0  0
  -31.6083  -27.2805   19.7981 C   0  0  0  0  0  0  0  0  0  0  0  0
  -31.2958  -26.7965   17.3673 C   0  0  0  0  0  0  0  0  0  0  0  0
  -24.0016  -20.8775   19.9445 C   0  0  0  0  0  0  0  0  0  0  0  0
  -30.5719  -25.1078   19.1262 C   0  0  0  0  0  0  0  0  0  0  0  0
  -29.7439  -24.2523   18.1700 C   0  0  0  0  0  0  0  0  0  0  0  0
  -29.3020  -27.3156   18.7934 C   0  0  0  0  0  0  0  0  0  1  0  0
  -23.2562  -23.7285   23.9634 C   0  0  1  0  0  0  0  0  0  0  0  0
  -23.4536  -20.3198   22.3167 C   0  0  2  0  0  0  0  0  0  0  0  0
  -22.9439  -23.8615   25.4807 C   0  0  0  0  0  0  0  0  0  0  0  0
  -30.6764  -26.6131   18.7641 C   0  0  0  0  0  0  0  0  0  0  0  0
  -26.1011  -11.9341   20.7480 N   0  0  0  0  0  0  0  0  0  0  0  0
  -27.9965  -23.3521   20.1995 N   0  0  0  0  0  0  0  0  0  0  0  0
  -26.2177  -13.2025   20.3194 N   0  0  0  0  0  0  0  0  0  0  0  0
  -23.2018  -25.6144   22.3621 N   0  0  0  0  0  0  0  0  0  0  0  0
  -29.6906  -14.7893   20.3828 N   0  0  0  0  0  0  0  0  0  0  0  0
  -25.0016  -15.2118   20.0123 N   0  0  0  0  0  0  0  0  0  0  0  0
  -21.9227  -12.3804   21.7151 N   0  0  0  0  0  0  0  0  0  0  0  0
  -29.3063  -17.0440   20.9581 N   0  0  0  0  0  0  0  0  0  0  0  0
  -21.8805  -29.0052   22.1307 N   0  0  0  0  0  0  0  0  0  0  0  0
  -22.9921  -22.4035   23.4129 N   0  0  0  0  0  0  0  0  0  0  0  0
  -24.1492  -19.9116   21.0636 N   0  3  0  0  0  0  0  0  0  0  0  0
  -22.2653  -14.5107   20.9387 O   0  0  0  0  0  0  0  0  0  0  0  0
  -23.1894  -27.8224   23.6507 O   0  0  0  0  0  0  0  0  0  0  0  0
  -21.2292  -24.6455   23.1407 O   0  0  0  0  0  0  0  0  0  0  0  0
  -25.1460  -22.0118   22.6485 O   0  0  0  0  0  0  0  0  0  0  0  0
  -31.2784  -16.4038   19.9176 O   0  0  0  0  0  0  0  0  0  0  0  0
  -22.7755   -7.0673   23.1571 O   0  0  0  0  0  0  0  0  0  0  0  0
  -28.7065  -27.2186   20.0866 O   0  0  0  0  0  0  0  0  0  1  0  0
  -29.7084  -22.9099   18.6438 O   0  0  0  0  0  0  0  0  0  0  0  0
  -17.8886   -5.3500   21.2667 F   0  0  0  0  0  0  0  0  0  0  0  0
  -27.4662  -18.6998   22.2415 F   0  0  0  0  0  0  0  0  0  0  0  0
  -22.5266   -4.6288   21.8787 F   0  0  0  0  0  0  0  0  0  0  0  0
  1  2  1  0  0  0  0
  1  6  2  0  0  0  0
  2  7  2  0  0  0  0
  3 10  2  0  0  0  0
  3 18  1  0  0  0  0
  4 11  1  0  0  0  0
  4 18  2  0  0  0  0
  5  9  2  0  0  0  0
  5 19  1  0  0  0  0
  6 21  1  0  0  0  0
  7 23  1  0  0  0  0
  8 12  2  0  0  0  0
  8 22  1  0  0  0  0
  9 25  1  0  0  0  0
 10 26  1  0  0  0  0
 11 26  2  0  0  0  0
 12 27  1  0  0  0  0
 13 14  2  0  0  0  0
 13 28  1  0  0  0  0
 14 29  1  0  0  0  0
 15 19  2  0  0  0  0
 15 30  1  0  0  0  0
 16 24  1  0  0  0  0
 16 27  2  0  0  0  0
 17 29  2  0  0  0  0
 17 31  1  0  0  0  0
 18 32  1  0  0  0  0
 19 34  1  0  0  0  0
 20 32  1  0  0  0  0
 20 33  2  0  0  0  0
 20 35  1  0  0  0  0
 21 23  2  0  0  0  0
 21 40  1  0  0  0  0
 22 24  2  0  0  0  0
 22 41  1  0  0  0  0
 23 49  1  0  0  0  0
 24 42  1  0  0  0  0
 25 30  2  0  0  0  0
 25 73  1  0  0  0  0
 26 82  1  0  0  0  0
 27 83  1  0  0  0  0
 28 31  2  0  0  0  0
 28 82  1  0  0  0  0
 29 85  1  0  0  0  0
 30 86  1  0  0  0  0
 31 87  1  0  0  0  0
 32 66  2  0  0  0  0
 33 68  1  0  0  0  0
 33 71  1  0  0  0  0
 34 67  2  0  0  0  0
 34 84  1  0  0  0  0
 35 72  1  0  0  0  0
 35 77  2  0  0  0  0
 36 50  1  0  0  0  0
 36 74  1  0  0  0  0
 36 78  2  0  0  0  0
 37 62  1  0  0  0  0
 37 69  1  0  0  0  0
 37 79  2  0  0  0  0
 38 63  1  0  0  0  0
 38 75  1  0  0  0  0
 38 80  2  0  0  0  0
 39 70  1  0  0  0  0
 39 73  1  0  0  0  0
 39 81  2  0  0  0  0
 40 43  1  0  0  0  0
 41 50  1  0  0  0  0
 42 69  1  0  0  0  0
 43 45  1  0  0  0  0
 44 46  1  0  0  0  0
 44 47  1  0  0  0  0
 45 49  1  0  0  0  0
 46 51  1  0  0  0  0
 47 70  1  0  0  0  0
 48 51  1  0  0  0  0
 48 70  1  0  0  0  0
 49 74  1  0  0  0  0
 50 69  1  0  0  0  0
 51 68  1  0  0  0  0
 52 63  1  0  0  0  0
 53 64  1  0  0  0  0
 54 64  1  0  0  0  0
 55 64  1  0  0  0  0
 56 65  1  0  0  0  0
 57 65  1  0  0  0  0
 58 76  1  0  0  0  0
 59 60  1  0  0  0  0
 59 65  1  0  0  0  0
 60 84  1  0  0  0  0
 61 65  1  0  0  0  0
 61 83  1  0  0  0  0
 62 64  1  0  0  0  0
 62 75  1  0  0  0  0
 63 76  1  0  0  0  0
 66 68  1  0  0  0  0
M  CHG  1  76   1
M  ISO  4  39 100  61 101  73 100  83 101
M  END
> <Batch ID>
0135

> <Smiles>
CNC(C)C(=O)NC(C(=O)N1Cc2cc([101O:1][101CH2:1]C(C)(C)CCOC(=N)c3ccc([100NH:0][100C:0](=O)N4CCCC(n5nc(-c6ccc(Oc7ccc(F)cc7F)cc6)c(C(N)=O)c5N)C4)c(F)c3)ccc2CC1C(=O)NC1CCCc2ccccc21)C(C)(C)C

> <Shape>
0.304

> <Color>
0.161

> <Negative vol penalty>
0.000

$$$$

  -OEChem-04052302363D

 87 95  0     1  0  0  0  0  0999 V2000
  -29.3635  -25.5194   16.6234 C   0  0  0  0  0  0  0  0  0  0  0  0
  -27.9892  -25.6804   16.7680 C   0  0  0  0  0  0  0  0  0  0  0  0
  -28.2560  -18.6931   23.4819 C   0  0  0  0  0  0  0  0  0  0  0  0
  -27.8817  -20.7425   22.2584 C   0  0  0  0  0  0  0  0  0  0  0  0
  -30.2134  -25.7992   17.6926 C   0  0  0  0  0  0  0  0  0  0  0  0
  -27.4640  -26.1204   17.9825 C   0  0  0  0  0  0  0  0  0  0  0  0
  -22.5722  -29.7151   18.7915 C   0  0  0  0  0  0  0  0  0  0  0  0
  -17.9293  -23.4327   21.1233 C   0  0  0  0  0  0  0  0  0  0  0  0
  -18.6194  -22.7116   22.0976 C   0  0  0  0  0  0  0  0  0  0  0  0
  -29.1602  -18.2753   22.5055 C   0  0  0  0  0  0  0  0  0  0  0  0
  -28.7860  -20.3247   21.2820 C   0  0  0  0  0  0  0  0  0  0  0  0
  -21.2436  -29.4341   19.1075 C   0  0  0  0  0  0  0  0  0  0  0  0
  -29.0345  -16.9294   19.4075 C   0  0  0  0  0  0  0  0  0  0  0  0
  -28.9375  -15.6132   18.9562 C   0  0  0  0  0  0  0  0  0  0  0  0
  -19.8175  -24.9215   20.8877 C   0  0  0  0  0  0  0  0  0  0  0  0
  -21.7138  -29.8586   21.4351 C   0  0  0  0  0  0  0  0  0  0  0  0
  -31.1977  -15.1920   19.6986 C   0  0  0  0  0  0  0  0  0  0  0  0
  -27.6167  -19.9267   23.3584 C   0  0  0  0  0  0  0  0  0  0  0  0
  -20.5076  -24.2003   21.8621 C   0  0  0  0  0  0  0  0  0  0  0  0
  -26.9671  -21.1035   25.5265 C   0  0  0  0  0  0  0  0  0  0  0  0
  -29.6990  -26.2520   18.9178 C   0  0  0  0  0  0  0  0  0  0  0  0
  -23.4856  -30.0599   19.7981 C   0  0  0  0  0  0  0  0  0  0  0  0
  -28.3077  -26.4052   19.0696 C   0  0  0  0  0  0  0  0  0  0  0  0
  -23.0527  -30.1460   21.1290 C   0  0  0  0  0  0  0  0  0  0  0  0
  -18.5283  -24.5377   20.5183 C   0  0  0  0  0  0  0  0  0  0  0  0
  -19.9085  -23.0954   22.4670 C   0  0  0  0  0  0  0  0  0  0  0  0
  -29.4252  -19.0911   21.4055 C   0  0  0  0  0  0  0  0  0  0  0  0
  -20.8149  -29.5030   20.4298 C   0  0  0  0  0  0  0  0  0  0  0  0
  -30.2132  -17.3770   20.0044 C   0  0  0  0  0  0  0  0  0  0  0  0
  -30.0191  -14.7445   19.1018 C   0  0  0  0  0  0  0  0  0  0  0  0
  -31.2947  -16.5083   20.1499 C   0  0  0  0  0  0  0  0  0  0  0  0
  -26.6821  -20.3586   24.3664 C   0  0  0  0  0  0  0  0  0  0  0  0
  -25.7505  -21.2523   26.1464 C   0  0  0  0  0  0  0  0  0  0  0  0
  -21.8534  -24.6274   22.2253 C   0  0  0  0  0  0  0  0  0  0  0  0
  -28.2194  -21.6151   26.0013 C   0  0  0  0  0  0  0  0  0  0  0  0
  -26.1731  -28.7867   20.9204 C   0  0  0  0  0  0  0  0  0  0  0  0
  -17.7802  -27.5450   20.7077 C   0  0  0  0  0  0  0  0  0  0  0  0
  -26.2728  -31.5131   22.6751 C   0  0  0  0  0  0  0  0  0  0  0  0
  -24.5740  -34.1195   24.0778 C   0  0  0  0  0  0  0  0  0  0  0  0
  -20.1199  -21.2293   24.1461 C   0  0  0  0  0  0  0  0  0  0  0  0
  -30.6533  -26.4964   20.0599 C   0  0  0  0  0  0  0  0  0  0  0  0
  -24.9089  -30.3861   19.4373 C   0  0  0  0  0  0  0  0  0  0  0  0
  -23.9890  -30.5314   22.2440 C   0  0  0  0  0  0  0  0  0  0  0  0
  -30.0468  -27.3168   21.1954 C   0  0  0  0  0  0  0  0  0  0  0  0
  -21.5054  -19.0894   26.6317 C   0  0  0  0  0  0  0  0  0  0  0  0
  -28.6613  -26.7893   21.5542 C   0  0  0  0  0  0  0  0  0  0  0  0
  -23.0161  -19.2445   26.4424 C   0  0  0  0  0  0  0  0  0  0  0  0
  -20.7604  -19.1229   25.2984 C   0  0  0  0  0  0  0  0  0  0  0  0
  -22.5655  -20.4412   24.2626 C   0  0  0  0  0  0  0  0  0  0  0  0
  -27.7018  -26.9042   20.3635 C   0  0  1  0  0  0  0  0  0  0  0  0
  -25.8738  -30.2256   20.6081 C   0  0  1  0  0  0  0  0  0  0  0  0
  -23.3526  -20.4787   25.5827 C   0  0  2  0  0  0  0  0  0  0  0  0
  -22.6744  -25.2974   21.1645 C   0  0  0  0  0  0  0  0  0  0  0  0
  -24.9214  -36.1680   25.4849 C   0  0  0  0  0  0  0  0  0  0  0  0
  -16.1637  -27.1873   18.8103 C   0  0  0  0  0  0  0  0  0  0  0  0
  -15.8426  -25.9471   20.9346 C   0  0  0  0  0  0  0  0  0  0  0  0
  -26.5580  -29.7584   25.1549 C   0  0  0  0  0  0  0  0  0  0  0  0
  -25.9489  -31.7480   26.5474 C   0  0  0  0  0  0  0  0  0  0  0  0
  -28.0111  -31.7938   25.1445 C   0  0  0  0  0  0  0  0  0  0  0  0
  -23.5701  -35.9010   21.9383 C   0  0  0  0  0  0  0  0  0  0  0  0
  -17.7795  -25.3190   19.4623 C   0  0  0  0  0  0  0  0  0  0  0  0
  -18.8347  -28.2939   19.9076 C   0  0  0  0  0  0  0  0  0  1  0  0
  -25.7479  -31.9346   24.0263 C   0  0  1  0  0  0  0  0  0  0  0  0
  -24.8382  -35.6143   24.0710 C   0  0  2  0  0  0  0  0  0  0  0  0
  -16.9107  -26.5005   19.9711 C   0  0  0  0  0  0  0  0  0  0  0  0
  -26.5490  -31.2995   25.1977 C   0  0  0  0  0  0  0  0  0  0  0  0
  -25.3863  -20.0553   24.2537 N   0  0  0  0  0  0  0  0  0  0  0  0
  -24.8461  -20.6122   25.3510 N   0  0  0  0  0  0  0  0  0  0  0  0
  -25.3723  -30.8349   21.8415 N   0  0  0  0  0  0  0  0  0  0  0  0
  -21.1256  -20.3217   24.5405 N   0  0  0  0  0  0  0  0  0  0  0  0
  -25.3768  -21.8669   27.2888 N   0  0  0  0  0  0  0  0  0  0  0  0
  -29.3719  -21.3713   25.2419 N   0  0  0  0  0  0  0  0  0  0  0  0
  -20.5901  -22.3482   23.4595 N   0  0  0  0  0  0  0  0  0  0  0  0
  -27.2421  -28.2684   20.2147 N   0  0  0  0  0  0  0  0  0  0  0  0
  -25.7451  -33.3935   24.0261 N   0  0  0  0  0  0  0  0  0  0  0  0
  -23.7481  -36.3298   23.3494 N   0  3  0  0  0  0  0  0  0  0  0  0
  -22.3642  -24.4738   23.3345 O   0  0  0  0  0  0  0  0  0  0  0  0
  -28.3163  -22.2550   27.0759 O   0  0  0  0  0  0  0  0  0  0  0  0
  -25.4861  -28.1912   21.7420 O   0  0  0  0  0  0  0  0  0  0  0  0
  -17.6120  -27.7927   21.9044 O   0  0  0  0  0  0  0  0  0  0  0  0
  -27.4367  -31.7822   22.3676 O   0  0  0  0  0  0  0  0  0  0  0  0
  -23.4420  -33.6434   24.1279 O   0  0  0  0  0  0  0  0  0  0  0  0
  -18.9322  -21.0422   24.4226 O   0  0  0  0  0  0  0  0  0  0  0  0
  -30.3076  -18.6838   20.4526 O   0  0  0  0  0  0  0  0  0  0  0  0
  -19.5189  -29.2286   20.7411 O   0  0  0  0  0  0  0  0  0  1  0  0
  -29.9253  -13.4801   18.6697 F   0  0  0  0  0  0  0  0  0  0  0  0
  -32.4292  -16.9322   20.7236 F   0  0  0  0  0  0  0  0  0  0  0  0
  1  2  1  0  0  0  0
  1  5  2  0  0  0  0
  2  6  2  0  0  0  0
  3 10  2  0  0  0  0
  3 18  1  0  0  0  0
  4 11  1  0  0  0  0
  4 18  2  0  0  0  0
  5 21  1  0  0  0  0
  6 23  1  0  0  0  0
  7 12  2  0  0  0  0
  7 22  1  0  0  0  0
  8  9  2  0  0  0  0
  8 25  1  0  0  0  0
  9 26  1  0  0  0  0
 10 27  1  0  0  0  0
 11 27  2  0  0  0  0
 12 28  1  0  0  0  0
 13 14  2  0  0  0  0
 13 29  1  0  0  0  0
 14 30  1  0  0  0  0
 15 19  1  0  0  0  0
 15 25  2  0  0  0  0
 16 24  1  0  0  0  0
 16 28  2  0  0  0  0
 17 30  2  0  0  0  0
 17 31  1  0  0  0  0
 18 32  1  0  0  0  0
 19 26  2  0  0  0  0
 19 34  1  0  0  0  0
 20 32  1  0  0  0  0
 20 33  2  0  0  0  0
 20 35  1  0  0  0  0
 21 23  2  0  0  0  0
 21 41  1  0  0  0  0
 22 24  2  0  0  0  0
 22 42  1  0  0  0  0
 23 50  1  0  0  0  0
 24 43  1  0  0  0  0
 25 61  1  0  0  0  0
 26 73  1  0  0  0  0
 27 84  1  0  0  0  0
 28 85  1  0  0  0  0
 29 31  2  0  0  0  0
 29 84  1  0  0  0  0
 30 86  1  0  0  0  0
 31 87  1  0  0  0  0
 32 67  2  0  0  0  0
 33 68  1  0  0  0  0
 33 71  1  0  0  0  0
 34 53  1  0  0  0  0
 34 77  2  0  0  0  0
 35 72  1  0  0  0  0
 35 78  2  0  0  0  0
 36 51  1  0  0  0  0
 36 74  1  0  0  0  0
 36 79  2  0  0  0  0
 37 62  1  0  0  0  0
 37 65  1  0  0  0  0
 37 80  2  0  0  0  0
 38 63  1  0  0  0  0
 38 69  1  0  0  0  0
 38 81  2  0  0  0  0
 39 64  1  0  0  0  0
 39 75  1  0  0  0  0
 39 82  2  0  0  0  0
 40 70  1  0  0  0  0
 40 73  1  0  0  0  0
 40 83  2  0  0  0  0
 41 44  1  0  0  0  0
 42 51  1  0  0  0  0
 43 69  1  0  0  0  0
 44 46  1  0  0  0  0
 45 47  1  0  0  0  0
 45 48  1  0  0  0  0
 46 50  1  0  0  0  0
 47 52  1  0  0  0  0
 48 70  1  0  0  0  0
 49 52  1  0  0  0  0
 49 70  1  0  0  0  0
 50 74  1  0  0  0  0
 51 69  1  0  0  0  0
 52 68  1  0  0  0  0
 54 64  1  0  0  0  0
 55 65  1  0  0  0  0
 56 65  1  0  0  0  0
 57 66  1  0  0  0  0
 58 66  1  0  0  0  0
 59 66  1  0  0  0  0
 60 76  1  0  0  0  0
 61 65  1  0  0  0  0
 62 85  1  0  0  0  0
 63 66  1  0  0  0  0
 63 75  1  0  0  0  0
 64 76  1  0  0  0  0
 67 68  1  0  0  0  0
M  CHG  1  76   1
M  ISO  4  40 100  62 101  73 100  85 101
M  END
> <Batch ID>
0135

> <Smiles>
CNC(C)C(=O)NC(C(=O)N1Cc2cc([101O:1][101CH2:1]C(=O)C(C)(C)Cc3ccc([100NH:0][100C:0](=O)N4CCCC(n5nc(-c6ccc(Oc7ccc(F)cc7F)cc6)c(C(N)=O)c5N)C4)c(C(C)=O)c3)ccc2CC1C(=O)NC1CCCc2ccccc21)C(C)(C)C

> <Shape>
0.243

> <Color>
0.053

> <Negative vol penalty>
0.000

$$$$

  -OEChem-04052302363D

 87 95  0     1  0  0  0  0  0999 V2000
  -26.0673  -31.1320   28.8469 C   0  0  0  0  0  0  0  0  0  0  0  0
  -26.7030  -30.8716   27.6372 C   0  0  0  0  0  0  0  0  0  0  0  0
  -27.4580  -11.1929   20.5678 C   0  0  0  0  0  0  0  0  0  0  0  0
  -26.7831  -12.7504   18.8486 C   0  0  0  0  0  0  0  0  0  0  0  0
  -24.9638  -30.3713   29.2311 C   0  0  0  0  0  0  0  0  0  0  0  0
  -26.2362  -29.8495   26.8114 C   0  0  0  0  0  0  0  0  0  0  0  0
  -26.2241  -29.7801   20.6876 C   0  0  0  0  0  0  0  0  0  0  0  0
  -26.3319  -10.4133   20.3036 C   0  0  0  0  0  0  0  0  0  0  0  0
  -25.6571  -11.9708   18.5843 C   0  0  0  0  0  0  0  0  0  0  0  0
  -27.0847  -29.2038   19.7544 C   0  0  0  0  0  0  0  0  0  0  0  0
  -23.4449   -8.2024   20.3265 C   0  0  0  0  0  0  0  0  0  0  0  0
  -22.7108   -7.7308   21.4147 C   0  0  0  0  0  0  0  0  0  0  0  0
  -25.6239  -27.2905   19.5978 C   0  0  0  0  0  0  0  0  0  0  0  0
  -29.1453  -21.8706   18.5888 C   0  0  0  0  0  0  0  0  0  0  0  0
  -30.2078  -21.5765   21.1515 C   0  0  0  0  0  0  0  0  0  0  0  0
  -22.2956  -10.0040   22.1198 C   0  0  0  0  0  0  0  0  0  0  0  0
  -27.6836  -12.3615   19.8403 C   0  0  0  0  0  0  0  0  0  0  0  0
  -30.1160  -13.0580   19.5153 C   0  0  0  0  0  0  0  0  0  0  0  0
  -24.4774  -29.3457   28.4052 C   0  0  0  0  0  0  0  0  0  0  0  0
  -25.0605  -29.1099   21.0918 C   0  0  0  0  0  0  0  0  0  0  0  0
  -25.1260  -29.0735   27.1855 C   0  0  0  0  0  0  0  0  0  0  0  0
  -24.7489  -27.8616   20.5344 C   0  0  0  0  0  0  0  0  0  0  0  0
  -28.8000  -20.7637   19.3642 C   0  0  0  0  0  0  0  0  0  0  0  0
  -30.0220  -22.8304   19.0948 C   0  0  0  0  0  0  0  0  0  0  0  0
  -29.3312  -20.6166   20.6455 C   0  0  0  0  0  0  0  0  0  0  0  0
  -25.4315  -10.8022   19.3118 C   0  0  0  0  0  0  0  0  0  0  0  0
  -26.7862  -27.9575   19.2115 C   0  0  0  0  0  0  0  0  0  0  0  0
  -23.6043   -9.5749   20.1349 C   0  0  0  0  0  0  0  0  0  0  0  0
  -22.1362   -8.6315   22.3114 C   0  0  0  0  0  0  0  0  0  0  0  0
  -30.5532  -22.6834   20.3761 C   0  0  0  0  0  0  0  0  0  0  0  0
  -23.0297  -10.4756   21.0316 C   0  0  0  0  0  0  0  0  0  0  0  0
  -28.8463  -13.1675   20.1132 C   0  0  0  0  0  0  0  0  0  0  0  0
  -30.8633  -14.0431   20.1132 C   0  0  0  0  0  0  0  0  0  0  0  0
  -30.5786  -12.1472   18.5092 C   0  0  0  0  0  0  0  0  0  0  0  0
  -23.9716  -27.9721   23.8528 C   0  0  0  0  0  0  0  0  0  0  0  0
  -21.2964  -27.3929   22.1121 C   0  0  0  0  0  0  0  0  0  0  0  0
  -19.8951  -26.8462   19.0487 C   0  0  0  0  0  0  0  0  0  0  0  0
  -29.4419  -19.2192   22.7386 C   0  0  0  0  0  0  0  0  0  0  0  0
  -23.3105  -28.5193   28.8848 C   0  0  0  0  0  0  0  0  0  0  0  0
  -24.1288  -29.7571   22.0794 C   0  0  0  0  0  0  0  0  0  0  0  0
  -23.5018  -27.1101   20.9198 C   0  0  0  0  0  0  0  0  0  0  0  0
  -22.6487  -27.7005   27.7794 C   0  0  0  0  0  0  0  0  0  0  0  0
  -31.2244  -16.5074   24.2036 C   0  0  0  0  0  0  0  0  0  0  0  0
  -23.7032  -26.9851   26.9408 C   0  0  0  0  0  0  0  0  0  0  0  0
  -30.9373  -15.3347   23.2631 C   0  0  0  0  0  0  0  0  0  0  0  0
  -30.0100  -17.4214   24.3574 C   0  0  0  0  0  0  0  0  0  0  0  0
  -29.1457  -16.7316   22.1560 C   0  0  0  0  0  0  0  0  0  0  0  0
  -24.6342  -27.9896   26.2510 C   0  0  1  0  0  0  0  0  0  0  0  0
  -23.2348  -28.7548   22.8029 C   0  0  1  0  0  0  0  0  0  0  0  0
  -30.3599  -15.8188   21.9186 C   0  0  2  0  0  0  0  0  0  0  0  0
  -27.6277  -17.4442   17.7793 C   0  0  0  0  0  0  0  0  0  0  0  0
  -17.6916  -26.3668   17.9477 C   0  0  0  0  0  0  0  0  0  0  0  0
  -21.4471  -24.5014   23.0747 C   0  0  0  0  0  0  0  0  0  0  0  0
  -19.8524  -23.8829   21.2466 C   0  0  0  0  0  0  0  0  0  0  0  0
  -19.1414  -25.4691   23.0357 C   0  0  0  0  0  0  0  0  0  0  0  0
  -29.5527  -26.3212   16.3806 C   0  0  0  0  0  0  0  0  0  0  0  0
  -31.3657  -27.0085   17.9707 C   0  0  0  0  0  0  0  0  0  0  0  0
  -20.0177  -29.3371   17.4552 C   0  0  0  0  0  0  0  0  0  0  0  0
  -27.8587  -19.7510   18.7968 C   0  0  0  0  0  0  0  0  0  0  0  0
  -30.3937  -24.0275   18.2534 C   0  0  0  0  0  0  0  0  0  0  0  0
  -28.5905  -18.4866   18.3253 C   0  0  0  0  0  0  0  0  0  0  0  0
  -29.6341  -25.2838   18.7022 C   0  0  0  0  0  0  0  0  0  0  0  0
  -29.0109  -27.7149   18.4067 C   0  0  0  0  0  0  0  0  0  1  0  0
  -20.7908  -26.2385   21.2809 C   0  0  1  0  0  0  0  0  0  0  0  0
  -18.6721  -27.4464   18.3789 C   0  0  2  0  0  0  0  0  0  0  0  0
  -20.3325  -25.0360   22.1535 C   0  0  0  0  0  0  0  0  0  0  0  0
  -29.8955  -26.5665   17.8619 C   0  0  0  0  0  0  0  0  0  0  0  0
  -28.7867  -14.1451   21.0215 N   0  0  0  0  0  0  0  0  0  0  0  0
  -30.0284  -14.6587   20.9988 N   0  0  0  0  0  0  0  0  0  0  0  0
  -22.6257  -27.7817   21.8939 N   0  0  0  0  0  0  0  0  0  0  0  0
  -29.5203  -17.8438   23.0434 N   0  0  0  0  0  0  0  0  0  0  0  0
  -32.1466  -14.4342   19.9627 N   0  0  0  0  0  0  0  0  0  0  0  0
  -29.6801  -11.1981   18.0031 N   0  0  0  0  0  0  0  0  0  0  0  0
  -28.9929  -19.4992   21.4484 N   0  0  0  0  0  0  0  0  0  0  0  0
  -23.9831  -28.5724   25.0974 N   0  0  0  0  0  0  0  0  0  0  0  0
  -19.7477  -26.7827   20.4182 N   0  0  0  0  0  0  0  0  0  0  0  0
  -19.0721  -28.2265   17.1737 N   0  3  0  0  0  0  0  0  0  0  0  0
  -31.7585  -12.1635   18.0838 O   0  0  0  0  0  0  0  0  0  0  0  0
  -24.4899  -26.9021   23.5561 O   0  0  0  0  0  0  0  0  0  0  0  0
  -20.5376  -27.9345   22.9199 O   0  0  0  0  0  0  0  0  0  0  0  0
  -20.8808  -26.4679   18.4196 O   0  0  0  0  0  0  0  0  0  0  0  0
  -29.7761  -20.0842   23.5523 O   0  0  0  0  0  0  0  0  0  0  0  0
  -24.3327  -10.0416   19.0536 O   0  0  0  0  0  0  0  0  0  0  0  0
  -27.6249  -27.3924   18.3009 O   0  0  0  0  0  0  0  0  0  1  0  0
  -21.4300   -8.1785   23.3555 F   0  0  0  0  0  0  0  0  0  0  0  0
  -31.3963  -23.6004   20.8708 F   0  0  0  0  0  0  0  0  0  0  0  0
  -23.1784  -11.7953   20.8521 F   0  0  0  0  0  0  0  0  0  0  0  0
  1  2  1  0  0  0  0
  1  5  2  0  0  0  0
  2  6  2  0  0  0  0
  3  8  2  0  0  0  0
  3 17  1  0  0  0  0
  4  9  1  0  0  0  0
  4 17  2  0  0  0  0
  5 19  1  0  0  0  0
  6 21  1  0  0  0  0
  7 10  2  0  0  0  0
  7 20  1  0  0  0  0
  8 26  1  0  0  0  0
  9 26  2  0  0  0  0
 10 27  1  0  0  0  0
 11 12  2  0  0  0  0
 11 28  1  0  0  0  0
 12 29  1  0  0  0  0
 13 22  1  0  0  0  0
 13 27  2  0  0  0  0
 14 23  1  0  0  0  0
 14 24  2  0  0  0  0
 15 25  1  0  0  0  0
 15 30  2  0  0  0  0
 16 29  2  0  0  0  0
 16 31  1  0  0  0  0
 17 32  1  0  0  0  0
 18 32  1  0  0  0  0
 18 33  2  0  0  0  0
 18 34  1  0  0  0  0
 19 21  2  0  0  0  0
 19 39  1  0  0  0  0
 20 22  2  0  0  0  0
 20 40  1  0  0  0  0
 21 48  1  0  0  0  0
 22 41  1  0  0  0  0
 23 25  2  0  0  0  0
 23 59  1  0  0  0  0
 24 30  1  0  0  0  0
 24 60  1  0  0  0  0
 25 74  1  0  0  0  0
 26 83  1  0  0  0  0
 27 84  1  0  0  0  0
 28 31  2  0  0  0  0
 28 83  1  0  0  0  0
 29 85  1  0  0  0  0
 30 86  1  0  0  0  0
 31 87  1  0  0  0  0
 32 68  2  0  0  0  0
 33 69  1  0  0  0  0
 33 72  1  0  0  0  0
 34 73  1  0  0  0  0
 34 78  2  0  0  0  0
 35 49  1  0  0  0  0
 35 75  1  0  0  0  0
 35 79  2  0  0  0  0
 36 64  1  0  0  0  0
 36 70  1  0  0  0  0
 36 80  2  0  0  0  0
 37 65  1  0  0  0  0
 37 76  1  0  0  0  0
 37 81  2  0  0  0  0
 38 71  1  0  0  0  0
 38 74  1  0  0  0  0
 38 82  2  0  0  0  0
 39 42  1  0  0  0  0
 40 49  1  0  0  0  0
 41 70  1  0  0  0  0
 42 44  1  0  0  0  0
 43 45  1  0  0  0  0
 43 46  1  0  0  0  0
 44 48  1  0  0  0  0
 45 50  1  0  0  0  0
 46 71  1  0  0  0  0
 47 50  1  0  0  0  0
 47 71  1  0  0  0  0
 48 75  1  0  0  0  0
 49 70  1  0  0  0  0
 50 69  1  0  0  0  0
 51 61  1  0  0  0  0
 52 65  1  0  0  0  0
 53 66  1  0  0  0  0
 54 66  1  0  0  0  0
 55 66  1  0  0  0  0
 56 67  1  0  0  0  0
 57 67  1  0  0  0  0
 58 77  1  0  0  0  0
 59 61  1  0  0  0  0
 60 62  1  0  0  0  0
 62 67  1  0  0  0  0
 63 67  1  0  0  0  0
 63 84  1  0  0  0  0
 64 66  1  0  0  0  0
 64 76  1  0  0  0  0
 65 77  1  0  0  0  0
 68 69  1  0  0  0  0
M  CHG  1  77   1
M  ISO  4  38 100  63 101  74 100  84 101
M  END
> <Batch ID>
0135

> <Smiles>
CCCc1cc(CCC(C)(C)[101CH2:1][101O:1]c2ccc3c(c2)CN(C(=O)C(NC(=O)C(C)NC)C(C)(C)C)C(C(=O)NC2CCCc4ccccc42)C3)c(F)cc1[100NH:0][100C:0](=O)N1CCCC(n2nc(-c3ccc(Oc4ccc(F)cc4F)cc3)c(C(N)=O)c2N)C1

> <Shape>
0.286

> <Color>
0.053

> <Negative vol penalty>
0.000

$$$$

  -OEChem-04052302363D

 84 92  0     1  0  0  0  0  0999 V2000
  -19.5685  -25.0201   25.1434 C   0  0  0  0  0  0  0  0  0  0  0  0
  -20.8404  -24.8934   24.5941 C   0  0  0  0  0  0  0  0  0  0  0  0
  -22.4532  -15.4305   22.9681 C   0  0  0  0  0  0  0  0  0  0  0  0
  -23.1476  -17.6791   22.4218 C   0  0  0  0  0  0  0  0  0  0  0  0
  -18.6456  -25.8924   24.5679 C   0  0  0  0  0  0  0  0  0  0  0  0
  -21.1897  -25.6381   23.4682 C   0  0  0  0  0  0  0  0  0  0  0  0
  -26.6954  -27.9847   22.1692 C   0  0  0  0  0  0  0  0  0  0  0  0
  -30.0588  -20.9333   17.5866 C   0  0  0  0  0  0  0  0  0  0  0  0
  -30.5306  -19.6367   17.7909 C   0  0  0  0  0  0  0  0  0  0  0  0
  -21.7339  -15.9177   24.0594 C   0  0  0  0  0  0  0  0  0  0  0  0
  -22.4283  -18.1664   23.5130 C   0  0  0  0  0  0  0  0  0  0  0  0
  -27.7330  -27.5441   21.3488 C   0  0  0  0  0  0  0  0  0  0  0  0
  -19.2071  -18.8638   24.2601 C   0  0  0  0  0  0  0  0  0  0  0  0
  -18.4187  -19.9971   24.0608 C   0  0  0  0  0  0  0  0  0  0  0  0
  -26.9147  -28.9510   19.5683 C   0  0  0  0  0  0  0  0  0  0  0  0
  -29.9935  -21.2861   19.9758 C   0  0  0  0  0  0  0  0  0  0  0  0
  -19.6906  -21.1774   25.7419 C   0  0  0  0  0  0  0  0  0  0  0  0
  -23.1601  -16.3112   22.1493 C   0  0  0  0  0  0  0  0  0  0  0  0
  -23.4370  -15.6329   19.7058 C   0  0  0  0  0  0  0  0  0  0  0  0
  -18.9870  -26.6554   23.4401 C   0  0  0  0  0  0  0  0  0  0  0  0
  -25.7517  -28.9051   21.6909 C   0  0  0  0  0  0  0  0  0  0  0  0
  -20.2701  -26.5204   22.8762 C   0  0  0  0  0  0  0  0  0  0  0  0
  -25.8676  -29.4037   20.3855 C   0  0  0  0  0  0  0  0  0  0  0  0
  -29.7902  -21.7580   18.6790 C   0  0  0  0  0  0  0  0  0  0  0  0
  -30.7339  -19.1648   19.0877 C   0  0  0  0  0  0  0  0  0  0  0  0
  -30.4653  -19.9895   20.1802 C   0  0  0  0  0  0  0  0  0  0  0  0
  -21.7214  -17.2857   24.3318 C   0  0  0  0  0  0  0  0  0  0  0  0
  -27.8411  -28.0250   20.0473 C   0  0  0  0  0  0  0  0  0  0  0  0
  -20.2372  -18.8872   25.2003 C   0  0  0  0  0  0  0  0  0  0  0  0
  -18.6605  -21.1539   24.8017 C   0  0  0  0  0  0  0  0  0  0  0  0
  -20.4790  -20.0440   25.9412 C   0  0  0  0  0  0  0  0  0  0  0  0
  -23.9038  -15.8084   21.0223 C   0  0  0  0  0  0  0  0  0  0  0  0
  -24.5183  -15.1337   19.0218 C   0  0  0  0  0  0  0  0  0  0  0  0
  -22.1417  -15.8975   19.1508 C   0  0  0  0  0  0  0  0  0  0  0  0
  -22.6079  -28.8568   21.2242 C   0  0  0  0  0  0  0  0  0  0  0  0
  -23.0559  -31.9927   20.5260 C   0  0  0  0  0  0  0  0  0  0  0  0
  -25.1790  -34.4556   19.4898 C   0  0  0  0  0  0  0  0  0  0  0  0
  -30.4287  -15.5105   19.9031 C   0  0  0  0  0  0  0  0  0  0  0  0
  -17.9401  -27.5498   22.8247 C   0  0  0  0  0  0  0  0  0  0  0  0
  -24.6539  -29.3908   22.5971 C   0  0  0  0  0  0  0  0  0  0  0  0
  -24.8921  -30.4083   19.8308 C   0  0  0  0  0  0  0  0  0  0  0  0
  -18.5132  -28.5817   21.8568 C   0  0  0  0  0  0  0  0  0  0  0  0
  -28.4845  -12.5370   19.6683 C   0  0  0  0  0  0  0  0  0  0  0  0
  -19.5075  -27.9256   20.9040 C   0  0  0  0  0  0  0  0  0  0  0  0
  -27.0479  -13.0224   19.8699 C   0  0  0  0  0  0  0  0  0  0  0  0
  -29.4704  -13.3158   20.5364 C   0  0  0  0  0  0  0  0  0  0  0  0
  -27.9658  -15.2670   20.5897 C   0  0  0  0  0  0  0  0  0  0  0  0
  -20.6947  -27.3297   21.6700 C   0  0  1  0  0  0  0  0  0  0  0  0
  -23.4505  -29.9396   21.8369 C   0  0  1  0  0  0  0  0  0  0  0  0
  -26.9420  -14.5492   19.6937 C   0  0  2  0  0  0  0  0  0  0  0  0
  -30.6750  -19.5058   21.5776 C   0  0  0  0  0  0  0  0  0  0  0  0
  -25.2474  -36.9116   18.9794 C   0  0  0  0  0  0  0  0  0  0  0  0
  -31.0489  -26.5310   17.6357 C   0  0  0  0  0  0  0  0  0  0  0  0
  -21.6161  -31.4815   17.8849 C   0  0  0  0  0  0  0  0  0  0  0  0
  -22.5371  -33.6519   17.0428 C   0  0  0  0  0  0  0  0  0  0  0  0
  -21.0021  -33.6294   19.0090 C   0  0  0  0  0  0  0  0  0  0  0  0
  -27.2030  -34.9540   21.5907 C   0  0  0  0  0  0  0  0  0  0  0  0
  -29.2795  -23.1598   18.4577 C   0  0  0  0  0  0  0  0  0  0  0  0
  -31.2387  -17.7726   19.2817 C   0  0  0  0  0  0  0  0  0  0  0  0
  -30.3873  -24.2150   18.3324 C   0  0  0  0  0  0  0  0  0  0  0  0
  -29.3436  -26.2750   19.4677 C   0  0  0  0  0  0  0  0  0  1  0  0
  -23.3669  -32.7752   19.2730 C   0  0  1  0  0  0  0  0  0  0  0  0
  -25.4580  -35.8425   20.0402 C   0  0  2  0  0  0  0  0  0  0  0  0
  -29.8966  -25.6707   18.1699 C   0  0  1  0  0  0  0  0  0  0  0  0
  -22.1480  -32.8641   18.3119 C   0  0  0  0  0  0  0  0  0  0  0  0
  -25.1820  -15.4497   21.1682 N   0  0  0  0  0  0  0  0  0  0  0  0
  -25.5277  -15.0437   19.9346 N   0  0  0  0  0  0  0  0  0  0  0  0
  -23.8325  -30.8477   20.7536 N   0  0  0  0  0  0  0  0  0  0  0  0
  -29.3194  -14.7568   20.3208 N   0  0  0  0  0  0  0  0  0  0  0  0
  -24.6948  -14.7672   17.7345 N   0  0  0  0  0  0  0  0  0  0  0  0
  -21.1456  -16.4091   19.9936 N   0  0  0  0  0  0  0  0  0  0  0  0
  -21.6195  -28.3725   22.0597 N   0  0  0  0  0  0  0  0  0  0  0  0
  -23.8747  -34.0693   19.7153 N   0  0  0  0  0  0  0  0  0  0  0  0
  -30.1977  -16.8679   19.7160 N   0  0  0  0  0  0  0  0  0  0  0  0
  -26.8636  -35.9337   20.5268 N   0  3  0  0  0  0  0  0  0  0  0  0
  -21.8709  -15.6712   17.9471 O   0  0  0  0  0  0  0  0  0  0  0  0
  -22.8365  -28.4891   20.0779 O   0  0  0  0  0  0  0  0  0  0  0  0
  -22.1619  -32.3870   21.2789 O   0  0  0  0  0  0  0  0  0  0  0  0
  -26.0318  -33.7836   18.9138 O   0  0  0  0  0  0  0  0  0  0  0  0
  -31.5411  -15.0099   19.7060 O   0  0  0  0  0  0  0  0  0  0  0  0
  -21.0195  -17.7615   25.3964 O   0  0  0  0  0  0  0  0  0  0  0  0
  -28.8526  -27.5961   19.2442 O   0  0  0  0  0  0  0  0  0  1  0  0
  -17.9044  -22.2426   24.6092 F   0  0  0  0  0  0  0  0  0  0  0  0
  -21.4679  -20.0730   26.8451 F   0  0  0  0  0  0  0  0  0  0  0  0
  1  2  1  0  0  0  0
  1  5  2  0  0  0  0
  2  6  2  0  0  0  0
  3 10  2  0  0  0  0
  3 18  1  0  0  0  0
  4 11  1  0  0  0  0
  4 18  2  0  0  0  0
  5 20  1  0  0  0  0
  6 22  1  0  0  0  0
  7 12  2  0  0  0  0
  7 21  1  0  0  0  0
  8  9  2  0  0  0  0
  8 24  1  0  0  0  0
  9 25  1  0  0  0  0
 10 27  1  0  0  0  0
 11 27  2  0  0  0  0
 12 28  1  0  0  0  0
 13 14  2  0  0  0  0
 13 29  1  0  0  0  0
 14 30  1  0  0  0  0
 15 23  1  0  0  0  0
 15 28  2  0  0  0  0
 16 24  2  0  0  0  0
 16 26  1  0  0  0  0
 17 30  2  0  0  0  0
 17 31  1  0  0  0  0
 18 32  1  0  0  0  0
 19 32  1  0  0  0  0
 19 33  2  0  0  0  0
 19 34  1  0  0  0  0
 20 22  2  0  0  0  0
 20 39  1  0  0  0  0
 21 23  2  0  0  0  0
 21 40  1  0  0  0  0
 22 48  1  0  0  0  0
 23 41  1  0  0  0  0
 24 58  1  0  0  0  0
 25 26  2  0  0  0  0
 25 59  1  0  0  0  0
 26 51  1  0  0  0  0
 27 81  1  0  0  0  0
 28 82  1  0  0  0  0
 29 31  2  0  0  0  0
 29 81  1  0  0  0  0
 30 83  1  0  0  0  0
 31 84  1  0  0  0  0
 32 66  2  0  0  0  0
 33 67  1  0  0  0  0
 33 70  1  0  0  0  0
 34 71  1  0  0  0  0
 34 76  2  0  0  0  0
 35 49  1  0  0  0  0
 35 72  1  0  0  0  0
 35 77  2  0  0  0  0
 36 62  1  0  0  0  0
 36 68  1  0  0  0  0
 36 78  2  0  0  0  0
 37 63  1  0  0  0  0
 37 73  1  0  0  0  0
 37 79  2  0  0  0  0
 38 69  1  0  0  0  0
 38 74  1  0  0  0  0
 38 80  2  0  0  0  0
 39 42  1  0  0  0  0
 40 49  1  0  0  0  0
 41 68  1  0  0  0  0
 42 44  1  0  0  0  0
 43 45  1  0  0  0  0
 43 46  1  0  0  0  0
 44 48  1  0  0  0  0
 45 50  1  0  0  0  0
 46 69  1  0  0  0  0
 47 50  1  0  0  0  0
 47 69  1  0  0  0  0
 48 72  1  0  0  0  0
 49 68  1  0  0  0  0
 50 67  1  0  0  0  0
 52 63  1  0  0  0  0
 53 64  1  0  0  0  0
 54 65  1  0  0  0  0
 55 65  1  0  0  0  0
 56 65  1  0  0  0  0
 57 75  1  0  0  0  0
 58 60  1  0  0  0  0
 59 74  1  0  0  0  0
 60 64  1  0  0  0  0
 61 64  1  0  0  0  0
 61 82  1  0  0  0  0
 62 65  1  0  0  0  0
 62 73  1  0  0  0  0
 63 75  1  0  0  0  0
 66 67  1  0  0  0  0
M  CHG  1  75   1
M  ISO  4  38 100  61 101  74 100  82 101
M  END
> <Batch ID>
0135

> <Smiles>
CNC(C)C(=O)NC(C(=O)N1Cc2cc([101O:1][101CH2:1]C(C)CCc3ccc(C[100NH:0][100C:0](=O)N4CCCC(n5nc(-c6ccc(Oc7ccc(F)cc7F)cc6)c(C(N)=O)c5N)C4)c(C)c3)ccc2CC1C(=O)NC1CCCc2ccccc21)C(C)(C)C

> <Shape>
0.214

> <Color>
0.078

> <Negative vol penalty>
0.000

$$$$

  -OEChem-04052302363D

 84 92  0     1  0  0  0  0  0999 V2000
  -27.0803  -32.2210   27.8617 C   0  0  0  0  0  0  0  0  0  0  0  0
  -27.4641  -31.3323   26.8625 C   0  0  0  0  0  0  0  0  0  0  0  0
  -24.6033  -12.5097   19.7569 C   0  0  0  0  0  0  0  0  0  0  0  0
  -25.4700  -13.3101   21.8653 C   0  0  0  0  0  0  0  0  0  0  0  0
  -25.7294  -32.3881   28.1632 C   0  0  0  0  0  0  0  0  0  0  0  0
  -26.4972  -30.6093   26.1650 C   0  0  0  0  0  0  0  0  0  0  0  0
  -27.3354  -30.5598   21.1710 C   0  0  0  0  0  0  0  0  0  0  0  0
  -29.7277  -22.5571   22.9674 C   0  0  0  0  0  0  0  0  0  0  0  0
  -28.8498  -21.6703   23.5907 C   0  0  0  0  0  0  0  0  0  0  0  0
  -25.2461  -11.2880   19.9565 C   0  0  0  0  0  0  0  0  0  0  0  0
  -26.1128  -12.0884   22.0649 C   0  0  0  0  0  0  0  0  0  0  0  0
  -28.3166  -29.6892   20.6987 C   0  0  0  0  0  0  0  0  0  0  0  0
  -26.3629   -7.8308   20.0809 C   0  0  0  0  0  0  0  0  0  0  0  0
  -25.6402   -6.6671   19.8179 C   0  0  0  0  0  0  0  0  0  0  0  0
  -26.6036  -28.1182   20.0531 C   0  0  0  0  0  0  0  0  0  0  0  0
  -28.6008  -22.1927   20.8616 C   0  0  0  0  0  0  0  0  0  0  0  0
  -24.0112   -7.3020   21.4853 C   0  0  0  0  0  0  0  0  0  0  0  0
  -24.7153  -13.5208   20.7113 C   0  0  0  0  0  0  0  0  0  0  0  0
  -22.7495  -15.1347   20.9076 C   0  0  0  0  0  0  0  0  0  0  0  0
  -24.7447  -31.6739   27.4623 C   0  0  0  0  0  0  0  0  0  0  0  0
  -25.9792  -30.2107   21.0977 C   0  0  0  0  0  0  0  0  0  0  0  0
  -25.1318  -30.7660   26.4582 C   0  0  0  0  0  0  0  0  0  0  0  0
  -25.6070  -28.9872   20.5229 C   0  0  0  0  0  0  0  0  0  0  0  0
  -29.6032  -22.8183   21.6029 C   0  0  0  0  0  0  0  0  0  0  0  0
  -27.8474  -21.0447   22.8495 C   0  0  0  0  0  0  0  0  0  0  0  0
  -27.7229  -21.3059   21.4849 C   0  0  0  0  0  0  0  0  0  0  0  0
  -26.0008  -11.0773   21.1104 C   0  0  0  0  0  0  0  0  0  0  0  0
  -27.9510  -28.4670   20.1423 C   0  0  0  0  0  0  0  0  0  0  0  0
  -25.9098   -8.7300   21.0462 C   0  0  0  0  0  0  0  0  0  0  0  0
  -24.4643   -6.4027   20.5200 C   0  0  0  0  0  0  0  0  0  0  0  0
  -24.7339   -8.4656   21.7484 C   0  0  0  0  0  0  0  0  0  0  0  0
  -24.0520  -14.7832   20.5054 C   0  0  0  0  0  0  0  0  0  0  0  0
  -22.5959  -16.4307   20.4796 C   0  0  0  0  0  0  0  0  0  0  0  0
  -21.7663  -14.3590   21.6058 C   0  0  0  0  0  0  0  0  0  0  0  0
  -23.6677  -29.7332   23.2267 C   0  0  0  0  0  0  0  0  0  0  0  0
  -21.8141  -29.4767   20.5771 C   0  0  0  0  0  0  0  0  0  0  0  0
  -21.6098  -28.7970   17.2389 C   0  0  0  0  0  0  0  0  0  0  0  0
  -26.4647  -20.8428   19.3521 C   0  0  0  0  0  0  0  0  0  0  0  0
  -23.2998  -31.8528   27.8560 C   0  0  0  0  0  0  0  0  0  0  0  0
  -24.9314  -31.1724   21.5873 C   0  0  0  0  0  0  0  0  0  0  0  0
  -24.1636  -28.5741   20.4024 C   0  0  0  0  0  0  0  0  0  0  0  0
  -22.3153  -31.3272   26.8145 C   0  0  0  0  0  0  0  0  0  0  0  0
  -24.0966  -19.4557   17.0838 C   0  0  0  0  0  0  0  0  0  0  0  0
  -22.7340  -29.9406   26.3359 C   0  0  0  0  0  0  0  0  0  0  0  0
  -23.6934  -18.1349   17.7434 C   0  0  0  0  0  0  0  0  0  0  0  0
  -25.5772  -19.7665   17.2956 C   0  0  0  0  0  0  0  0  0  0  0  0
  -25.6214  -18.4129   19.3535 C   0  0  0  0  0  0  0  0  0  0  0  0
  -24.1110  -29.9820   25.6624 C   0  0  1  0  0  0  0  0  0  0  0  0
  -23.6099  -30.4921   21.9312 C   0  0  1  0  0  0  0  0  0  0  0  0
  -24.1242  -18.0891   19.2225 C   0  0  2  0  0  0  0  0  0  0  0  0
  -26.9217  -20.0987   23.5433 C   0  0  0  0  0  0  0  0  0  0  0  0
  -19.9546  -28.6314   15.3600 C   0  0  0  0  0  0  0  0  0  0  0  0
  -20.8618  -26.7863   21.6563 C   0  0  0  0  0  0  0  0  0  0  0  0
  -19.9929  -26.2551   19.3692 C   0  0  0  0  0  0  0  0  0  0  0  0
  -19.0660  -28.1950   20.6341 C   0  0  0  0  0  0  0  0  0  0  0  0
  -31.0940  -25.9024   18.7675 C   0  0  0  0  0  0  0  0  0  0  0  0
  -32.2654  -26.4205   20.9232 C   0  0  0  0  0  0  0  0  0  0  0  0
  -22.9485  -30.9523   15.7153 C   0  0  0  0  0  0  0  0  0  0  0  0
  -30.5538  -23.7784   20.9291 C   0  0  0  0  0  0  0  0  0  0  0  0
  -30.0170  -25.2161   20.9680 C   0  0  0  0  0  0  0  0  0  0  0  0
  -30.1787  -27.6551   20.3268 C   0  0  0  0  0  0  0  0  0  1  0  0
  -21.3979  -28.3448   19.6690 C   0  0  1  0  0  0  0  0  0  0  0  0
  -20.9283  -29.5348   16.1006 C   0  0  2  0  0  0  0  0  0  0  0  0
  -20.3570  -27.4020   20.3360 C   0  0  0  0  0  0  0  0  0  0  0  0
  -30.8902  -26.2820   20.2462 C   0  0  0  0  0  0  0  0  0  0  0  0
  -24.6810  -15.7758   19.8706 N   0  0  0  0  0  0  0  0  0  0  0  0
  -23.7699  -16.7637   19.8705 N   0  0  0  0  0  0  0  0  0  0  0  0
  -23.1765  -29.5459   20.9011 N   0  0  0  0  0  0  0  0  0  0  0  0
  -25.9114  -19.7090   18.7204 N   0  0  0  0  0  0  0  0  0  0  0  0
  -21.5725  -17.3066   20.5686 N   0  0  0  0  0  0  0  0  0  0  0  0
  -22.0884  -13.0449   21.9714 N   0  0  0  0  0  0  0  0  0  0  0  0
  -26.7107  -20.6808   20.7151 N   0  0  0  0  0  0  0  0  0  0  0  0
  -24.0011  -30.5104   24.3196 N   0  0  0  0  0  0  0  0  0  0  0  0
  -20.9367  -28.9634   18.4308 N   0  0  0  0  0  0  0  0  0  0  0  0
  -21.9405  -30.0332   15.1269 N   0  3  0  0  0  0  0  0  0  0  0  0
  -20.6297  -14.8121   21.8822 O   0  0  0  0  0  0  0  0  0  0  0  0
  -23.4262  -28.5319   23.2345 O   0  0  0  0  0  0  0  0  0  0  0  0
  -20.9630  -30.2744   20.9782 O   0  0  0  0  0  0  0  0  0  0  0  0
  -22.6345  -28.1360   17.0854 O   0  0  0  0  0  0  0  0  0  0  0  0
  -26.6774  -21.8901   18.7356 O   0  0  0  0  0  0  0  0  0  0  0  0
  -26.6280   -9.8852   21.3056 O   0  0  0  0  0  0  0  0  0  0  0  0
  -28.9068  -27.6152   19.6811 O   0  0  0  0  0  0  0  0  0  1  0  0
  -23.7696   -5.2860   20.2663 F   0  0  0  0  0  0  0  0  0  0  0  0
  -24.2930   -9.3264   22.6760 F   0  0  0  0  0  0  0  0  0  0  0  0
  1  2  1  0  0  0  0
  1  5  2  0  0  0  0
  2  6  2  0  0  0  0
  3 10  2  0  0  0  0
  3 18  1  0  0  0  0
  4 11  1  0  0  0  0
  4 18  2  0  0  0  0
  5 20  1  0  0  0  0
  6 22  1  0  0  0  0
  7 12  2  0  0  0  0
  7 21  1  0  0  0  0
  8  9  2  0  0  0  0
  8 24  1  0  0  0  0
  9 25  1  0  0  0  0
 10 27  1  0  0  0  0
 11 27  2  0  0  0  0
 12 28  1  0  0  0  0
 13 14  2  0  0  0  0
 13 29  1  0  0  0  0
 14 30  1  0  0  0  0
 15 23  1  0  0  0  0
 15 28  2  0  0  0  0
 16 24  2  0  0  0  0
 16 26  1  0  0  0  0
 17 30  2  0  0  0  0
 17 31  1  0  0  0  0
 18 32  1  0  0  0  0
 19 32  1  0  0  0  0
 19 33  2  0  0  0  0
 19 34  1  0  0  0  0
 20 22  2  0  0  0  0
 20 39  1  0  0  0  0
 21 23  2  0  0  0  0
 21 40  1  0  0  0  0
 22 48  1  0  0  0  0
 23 41  1  0  0  0  0
 24 59  1  0  0  0  0
 25 26  2  0  0  0  0
 25 51  1  0  0  0  0
 26 72  1  0  0  0  0
 27 81  1  0  0  0  0
 28 82  1  0  0  0  0
 29 31  2  0  0  0  0
 29 81  1  0  0  0  0
 30 83  1  0  0  0  0
 31 84  1  0  0  0  0
 32 66  2  0  0  0  0
 33 67  1  0  0  0  0
 33 70  1  0  0  0  0
 34 71  1  0  0  0  0
 34 76  2  0  0  0  0
 35 49  1  0  0  0  0
 35 73  1  0  0  0  0
 35 77  2  0  0  0  0
 36 62  1  0  0  0  0
 36 68  1  0  0  0  0
 36 78  2  0  0  0  0
 37 63  1  0  0  0  0
 37 74  1  0  0  0  0
 37 79  2  0  0  0  0
 38 69  1  0  0  0  0
 38 72  1  0  0  0  0
 38 80  2  0  0  0  0
 39 42  1  0  0  0  0
 40 49  1  0  0  0  0
 41 68  1  0  0  0  0
 42 44  1  0  0  0  0
 43 45  1  0  0  0  0
 43 46  1  0  0  0  0
 44 48  1  0  0  0  0
 45 50  1  0  0  0  0
 46 69  1  0  0  0  0
 47 50  1  0  0  0  0
 47 69  1  0  0  0  0
 48 73  1  0  0  0  0
 49 68  1  0  0  0  0
 50 67  1  0  0  0  0
 52 63  1  0  0  0  0
 53 64  1  0  0  0  0
 54 64  1  0  0  0  0
 55 64  1  0  0  0  0
 56 65  1  0  0  0  0
 57 65  1  0  0  0  0
 58 75  1  0  0  0  0
 59 60  1  0  0  0  0
 60 65  1  0  0  0  0
 61 65  1  0  0  0  0
 61 82  1  0  0  0  0
 62 64  1  0  0  0  0
 62 74  1  0  0  0  0
 63 75  1  0  0  0  0
 66 67  1  0  0  0  0
M  CHG  1  75   1
M  ISO  4  38 100  61 101  72 100  82 101
M  END
> <Batch ID>
0135

> <Smiles>
CNC(C)C(=O)NC(C(=O)N1Cc2cc([101O:1][101CH2:1]C(C)(C)CCc3ccc(C)c([100NH:0][100C:0](=O)N4CCCC(n5nc(-c6ccc(Oc7ccc(F)cc7F)cc6)c(C(N)=O)c5N)C4)c3)ccc2CC1C(=O)NC1CCCc2ccccc21)C(C)(C)C

> <Shape>
0.231

> <Color>
0.086

> <Negative vol penalty>
0.000

$$$$

  -OEChem-04052302363D

 86 94  0     1  0  0  0  0  0999 V2000
  -21.2989  -18.6075   20.2089 C   0  0  0  0  0  0  0  0  0  0  0  0
  -22.5114  -19.2854   20.1326 C   0  0  0  0  0  0  0  0  0  0  0  0
  -25.4825  -13.4026   21.2654 C   0  0  0  0  0  0  0  0  0  0  0  0
  -25.7451  -13.4236   18.8638 C   0  0  0  0  0  0  0  0  0  0  0  0
  -20.1065  -19.2834   19.9533 C   0  0  0  0  0  0  0  0  0  0  0  0
  -22.5322  -20.6393   19.7996 C   0  0  0  0  0  0  0  0  0  0  0  0
  -26.4073  -24.8890   21.9044 C   0  0  0  0  0  0  0  0  0  0  0  0
  -24.5439  -12.3768   21.1538 C   0  0  0  0  0  0  0  0  0  0  0  0
  -24.8065  -12.3978   18.7522 C   0  0  0  0  0  0  0  0  0  0  0  0
  -27.5677  -25.4473   21.3700 C   0  0  0  0  0  0  0  0  0  0  0  0
  -24.5571   -9.0296   20.6753 C   0  0  0  0  0  0  0  0  0  0  0  0
  -24.6663   -7.9526   21.5549 C   0  0  0  0  0  0  0  0  0  0  0  0
  -34.0700  -22.1683   18.3914 C   0  0  0  0  0  0  0  0  0  0  0  0
  -31.7114  -22.4677   18.8207 C   0  0  0  0  0  0  0  0  0  0  0  0
  -26.2785  -27.3026   20.5246 C   0  0  0  0  0  0  0  0  0  0  0  0
  -32.4932  -20.4684   17.7122 C   0  0  0  0  0  0  0  0  0  0  0  0
  -22.4562   -8.4257   22.4086 C   0  0  0  0  0  0  0  0  0  0  0  0
  -26.0830  -13.9260   20.1203 C   0  0  0  0  0  0  0  0  0  0  0  0
  -33.0232  -22.9345   18.9039 C   0  0  0  0  0  0  0  0  0  0  0  0
  -28.4454  -14.8515   20.3858 C   0  0  0  0  0  0  0  0  0  0  0  0
  -20.1120  -20.6486   19.6265 C   0  0  0  0  0  0  0  0  0  0  0  0
  -25.1700  -25.5289   21.7432 C   0  0  0  0  0  0  0  0  0  0  0  0
  -21.3388  -21.3337   19.5382 C   0  0  0  0  0  0  0  0  0  0  0  0
  -25.1043  -26.7517   21.0601 C   0  0  0  0  0  0  0  0  0  0  0  0
  -33.8050  -20.9353   17.7954 C   0  0  0  0  0  0  0  0  0  0  0  0
  -31.4464  -21.2346   18.2248 C   0  0  0  0  0  0  0  0  0  0  0  0
  -24.2059  -11.8744   19.8973 C   0  0  0  0  0  0  0  0  0  0  0  0
  -27.5030  -26.6528   20.6775 C   0  0  0  0  0  0  0  0  0  0  0  0
  -23.3975   -9.8048   20.6624 C   0  0  0  0  0  0  0  0  0  0  0  0
  -23.6159   -7.6506   22.4215 C   0  0  0  0  0  0  0  0  0  0  0  0
  -22.3470   -9.5028   21.5290 C   0  0  0  0  0  0  0  0  0  0  0  0
  -27.0522  -14.9860   20.2349 C   0  0  0  0  0  0  0  0  0  0  0  0
  -28.9104  -16.1424   20.4471 C   0  0  0  0  0  0  0  0  0  0  0  0
  -33.3048  -24.2443   19.5368 C   0  0  0  0  0  0  0  0  0  0  0  0
  -29.2474  -13.6656   20.4636 C   0  0  0  0  0  0  0  0  0  0  0  0
  -22.4214  -24.7754   20.3358 C   0  0  0  0  0  0  0  0  0  0  0  0
  -21.4166  -27.5455   21.6918 C   0  0  0  0  0  0  0  0  0  0  0  0
  -22.2226  -30.6094   22.9606 C   0  0  0  0  0  0  0  0  0  0  0  0
  -28.9603  -21.3945   18.5990 C   0  0  0  0  0  0  0  0  0  0  0  0
  -18.8011  -21.3251   19.3125 C   0  0  0  0  0  0  0  0  0  0  0  0
  -23.9316  -24.9271   22.3487 C   0  0  0  0  0  0  0  0  0  0  0  0
  -23.8037  -27.4888   20.8770 C   0  0  0  0  0  0  0  0  0  0  0  0
  -18.8821  -22.8493   19.3329 C   0  0  0  0  0  0  0  0  0  0  0  0
  -26.4188  -20.5214   20.9347 C   0  0  0  0  0  0  0  0  0  0  0  0
  -20.1086  -23.3292   18.5633 C   0  0  0  0  0  0  0  0  0  0  0  0
  -26.4716  -18.9924   20.9733 C   0  0  0  0  0  0  0  0  0  0  0  0
  -26.6805  -21.0627   19.5303 C   0  0  0  0  0  0  0  0  0  0  0  0
  -27.9654  -19.0467   18.9355 C   0  0  0  0  0  0  0  0  0  0  0  0
  -21.4007  -22.8085   19.2043 C   0  0  1  0  0  0  0  0  0  0  0  0
  -22.6465  -25.4062   21.6808 C   0  0  1  0  0  0  0  0  0  0  0  0
  -27.7720  -18.4574   20.3422 C   0  0  2  0  0  0  0  0  0  0  0  0
  -34.9242  -20.1158   17.2471 C   0  0  0  0  0  0  0  0  0  0  0  0
  -21.1830  -32.6638   23.9586 C   0  0  0  0  0  0  0  0  0  0  0  0
  -20.4919  -28.4215   18.9191 C   0  0  0  0  0  0  0  0  0  0  0  0
  -20.3553  -30.7677   19.7823 C   0  0  0  0  0  0  0  0  0  0  0  0
  -18.9129  -28.9900   20.7733 C   0  0  0  0  0  0  0  0  0  0  0  0
  -30.7775  -27.3207   18.1599 C   0  0  0  0  0  0  0  0  0  0  0  0
  -31.1924  -28.6258   20.2543 C   0  0  0  0  0  0  0  0  0  0  0  0
  -23.6964  -30.2612   25.5034 C   0  0  0  0  0  0  0  0  0  0  0  0
  -29.8529  -26.4844   20.3524 C   0  0  0  0  0  0  0  0  0  1  0  0
  -32.3424  -26.4243   19.9284 C   0  0  0  0  0  0  0  0  0  0  0  0
  -21.3919  -28.9949   21.2702 C   0  0  1  0  0  0  0  0  0  0  0  0
  -21.8108  -31.3083   24.2437 C   0  0  2  0  0  0  0  0  0  0  0  0
  -20.3124  -29.2789   20.1878 C   0  0  0  0  0  0  0  0  0  0  0  0
  -31.0373  -27.2082   19.6744 C   0  0  0  0  0  0  0  0  0  0  0  0
  -26.6579  -16.2618   20.2024 N   0  0  0  0  0  0  0  0  0  0  0  0
  -34.4087  -24.5104   20.1516 N   0  0  0  0  0  0  0  0  0  0  0  0
  -27.8103  -16.9406   20.3339 N   0  0  0  0  0  0  0  0  0  0  0  0
  -22.6196  -26.8567   21.4820 N   0  0  0  0  0  0  0  0  0  0  0  0
  -27.9308  -20.5162   18.9983 N   0  0  0  0  0  0  0  0  0  0  0  0
  -30.1489  -16.6612   20.5864 N   0  0  0  0  0  0  0  0  0  0  0  0
  -28.6088  -12.4206   20.3837 N   0  0  0  0  0  0  0  0  0  0  0  0
  -30.1141  -20.7598   18.1403 N   0  0  0  0  0  0  0  0  0  0  0  0
  -21.7271  -23.5815   20.3834 N   0  0  0  0  0  0  0  0  0  0  0  0
  -21.2307  -29.7732   22.4935 N   0  0  0  0  0  0  0  0  0  0  0  0
  -22.9953  -31.5149   25.1242 N   0  3  0  0  0  0  0  0  0  0  0  0
  -30.4917  -13.7085   20.6165 O   0  0  0  0  0  0  0  0  0  0  0  0
  -22.8449  -25.3314   19.3292 O   0  0  0  0  0  0  0  0  0  0  0  0
  -20.4079  -27.0450   22.1956 O   0  0  0  0  0  0  0  0  0  0  0  0
  -23.3135  -30.7901   22.4242 O   0  0  0  0  0  0  0  0  0  0  0  0
  -28.8384  -22.6192   18.6852 O   0  0  0  0  0  0  0  0  0  0  0  0
  -23.2903  -10.8733   19.7880 O   0  0  0  0  0  0  0  0  0  0  0  0
  -28.6340  -27.1996   20.1543 O   0  0  0  0  0  0  0  0  0  1  0  0
  -32.2633  -25.1114   19.3880 O   0  0  0  0  0  0  0  0  0  0  0  0
  -23.7202   -6.6153   23.2650 F   0  0  0  0  0  0  0  0  0  0  0  0
  -21.2300  -10.2431   21.5204 F   0  0  0  0  0  0  0  0  0  0  0  0
  1  2  1  0  0  0  0
  1  5  2  0  0  0  0
  2  6  2  0  0  0  0
  3  8  2  0  0  0  0
  3 18  1  0  0  0  0
  4  9  1  0  0  0  0
  4 18  2  0  0  0  0
  5 21  1  0  0  0  0
  6 23  1  0  0  0  0
  7 10  2  0  0  0  0
  7 22  1  0  0  0  0
  8 27  1  0  0  0  0
  9 27  2  0  0  0  0
 10 28  1  0  0  0  0
 11 12  2  0  0  0  0
 11 29  1  0  0  0  0
 12 30  1  0  0  0  0
 13 19  1  0  0  0  0
 13 25  2  0  0  0  0
 14 19  2  0  0  0  0
 14 26  1  0  0  0  0
 15 24  1  0  0  0  0
 15 28  2  0  0  0  0
 16 25  1  0  0  0  0
 16 26  2  0  0  0  0
 17 30  2  0  0  0  0
 17 31  1  0  0  0  0
 18 32  1  0  0  0  0
 19 34  1  0  0  0  0
 20 32  1  0  0  0  0
 20 33  2  0  0  0  0
 20 35  1  0  0  0  0
 21 23  2  0  0  0  0
 21 40  1  0  0  0  0
 22 24  2  0  0  0  0
 22 41  1  0  0  0  0
 23 49  1  0  0  0  0
 24 42  1  0  0  0  0
 25 52  1  0  0  0  0
 26 73  1  0  0  0  0
 27 82  1  0  0  0  0
 28 83  1  0  0  0  0
 29 31  2  0  0  0  0
 29 82  1  0  0  0  0
 30 85  1  0  0  0  0
 31 86  1  0  0  0  0
 32 66  2  0  0  0  0
 33 68  1  0  0  0  0
 33 71  1  0  0  0  0
 34 67  2  0  0  0  0
 34 84  1  0  0  0  0
 35 72  1  0  0  0  0
 35 77  2  0  0  0  0
 36 50  1  0  0  0  0
 36 74  1  0  0  0  0
 36 78  2  0  0  0  0
 37 62  1  0  0  0  0
 37 69  1  0  0  0  0
 37 79  2  0  0  0  0
 38 63  1  0  0  0  0
 38 75  1  0  0  0  0
 38 80  2  0  0  0  0
 39 70  1  0  0  0  0
 39 73  1  0  0  0  0
 39 81  2  0  0  0  0
 40 43  1  0  0  0  0
 41 50  1  0  0  0  0
 42 69  1  0  0  0  0
 43 45  1  0  0  0  0
 44 46  1  0  0  0  0
 44 47  1  0  0  0  0
 45 49  1  0  0  0  0
 46 51  1  0  0  0  0
 47 70  1  0  0  0  0
 48 51  1  0  0  0  0
 48 70  1  0  0  0  0
 49 74  1  0  0  0  0
 50 69  1  0  0  0  0
 51 68  1  0  0  0  0
 53 63  1  0  0  0  0
 54 64  1  0  0  0  0
 55 64  1  0  0  0  0
 56 64  1  0  0  0  0
 57 65  1  0  0  0  0
 58 65  1  0  0  0  0
 59 76  1  0  0  0  0
 60 65  1  0  0  0  0
 60 83  1  0  0  0  0
 61 65  1  0  0  0  0
 61 84  1  0  0  0  0
 62 64  1  0  0  0  0
 62 75  1  0  0  0  0
 63 76  1  0  0  0  0
 66 68  1  0  0  0  0
M  CHG  1  76   1
M  ISO  4  39 100  60 101  73 100  83 101
M  END
> <Batch ID>
0135

> <Smiles>
CNC(C)C(=O)NC(C(=O)N1Cc2cc([101O:1][101CH2:1]C(C)(C)COC(=N)c3cc(C)cc([100NH:0][100C:0](=O)N4CCCC(n5nc(-c6ccc(Oc7ccc(F)cc7F)cc6)c(C(N)=O)c5N)C4)c3)ccc2CC1C(=O)NC1CCCc2ccccc21)C(C)(C)C

> <Shape>
0.216

> <Color>
0.076

> <Negative vol penalty>
0.000

$$$$

  -OEChem-04052302363D

 86 94  0     1  0  0  0  0  0999 V2000
  -37.5428  -23.5513   17.0415 C   0  0  0  0  0  0  0  0  0  0  0  0
  -37.9228  -22.7995   18.1487 C   0  0  0  0  0  0  0  0  0  0  0  0
  -23.2888   -9.7992   19.9150 C   0  0  0  0  0  0  0  0  0  0  0  0
  -23.7437   -9.9408   22.2835 C   0  0  0  0  0  0  0  0  0  0  0  0
  -32.6954  -15.3715   24.6177 C   0  0  0  0  0  0  0  0  0  0  0  0
  -36.4105  -24.3622   17.1063 C   0  0  0  0  0  0  0  0  0  0  0  0
  -37.1712  -22.8592   19.3218 C   0  0  0  0  0  0  0  0  0  0  0  0
  -36.1475  -18.2944   23.2741 C   0  0  0  0  0  0  0  0  0  0  0  0
  -32.2045  -14.6121   23.5557 C   0  0  0  0  0  0  0  0  0  0  0  0
  -22.5638   -8.6261   20.1243 C   0  0  0  0  0  0  0  0  0  0  0  0
  -23.0187   -8.7677   22.4929 C   0  0  0  0  0  0  0  0  0  0  0  0
  -36.7416  -17.9544   24.4887 C   0  0  0  0  0  0  0  0  0  0  0  0
  -20.9842   -6.0060   23.6981 C   0  0  0  0  0  0  0  0  0  0  0  0
  -20.0846   -5.9802   24.7637 C   0  0  0  0  0  0  0  0  0  0  0  0
  -34.9902  -19.1233   25.6657 C   0  0  0  0  0  0  0  0  0  0  0  0
  -30.6524  -13.5223   25.0525 C   0  0  0  0  0  0  0  0  0  0  0  0
  -18.8717   -7.8260   23.7844 C   0  0  0  0  0  0  0  0  0  0  0  0
  -23.8788  -10.4565   20.9946 C   0  0  0  0  0  0  0  0  0  0  0  0
  -32.1649  -15.2062   25.8971 C   0  0  0  0  0  0  0  0  0  0  0  0
  -24.1356  -12.9867   20.7949 C   0  0  0  0  0  0  0  0  0  0  0  0
  -35.6392  -24.4244   18.2775 C   0  0  0  0  0  0  0  0  0  0  0  0
  -34.9742  -19.0620   23.2459 C   0  0  0  0  0  0  0  0  0  0  0  0
  -36.0283  -23.6727   19.4027 C   0  0  0  0  0  0  0  0  0  0  0  0
  -34.3817  -19.4696   24.4496 C   0  0  0  0  0  0  0  0  0  0  0  0
  -31.1434  -14.2817   26.1145 C   0  0  0  0  0  0  0  0  0  0  0  0
  -31.1830  -13.6875   23.7730 C   0  0  0  0  0  0  0  0  0  0  0  0
  -22.4288   -8.1103   21.4132 C   0  0  0  0  0  0  0  0  0  0  0  0
  -36.1645  -18.3713   25.6847 C   0  0  0  0  0  0  0  0  0  0  0  0
  -20.8277   -6.9419   22.6756 C   0  0  0  0  0  0  0  0  0  0  0  0
  -19.0283   -6.8901   24.8068 C   0  0  0  0  0  0  0  0  0  0  0  0
  -19.7714   -7.8518   22.7188 C   0  0  0  0  0  0  0  0  0  0  0  0
  -24.6282  -11.6681   20.7789 C   0  0  0  0  0  0  0  0  0  0  0  0
  -25.2359  -13.7675   20.5377 C   0  0  0  0  0  0  0  0  0  0  0  0
  -32.6985  -16.0209   27.0072 C   0  0  0  0  0  0  0  0  0  0  0  0
  -22.8025  -13.4632   21.0220 C   0  0  0  0  0  0  0  0  0  0  0  0
  -34.1848  -21.9103   22.0763 C   0  0  0  0  0  0  0  0  0  0  0  0
  -31.2035  -21.0322   23.0055 C   0  0  0  0  0  0  0  0  0  0  0  0
  -29.2516  -19.1124   25.0429 C   0  0  0  0  0  0  0  0  0  0  0  0
  -31.0984  -12.9586   21.3631 C   0  0  0  0  0  0  0  0  0  0  0  0
  -34.4503  -25.3516   18.3154 C   0  0  0  0  0  0  0  0  0  0  0  0
  -34.3311  -19.3978   21.9283 C   0  0  0  0  0  0  0  0  0  0  0  0
  -33.1113  -20.2781   24.4742 C   0  0  0  0  0  0  0  0  0  0  0  0
  -33.4954  -25.0707   19.4728 C   0  0  0  0  0  0  0  0  0  0  0  0
  -29.4588  -13.6608   18.2816 C   0  0  0  0  0  0  0  0  0  0  0  0
  -34.2716  -24.8897   20.7734 C   0  0  0  0  0  0  0  0  0  0  0  0
  -27.9882  -13.3553   18.5755 C   0  0  0  0  0  0  0  0  0  0  0  0
  -30.3941  -12.6866   18.9956 C   0  0  0  0  0  0  0  0  0  0  0  0
  -28.7044  -12.2575   20.7363 C   0  0  0  0  0  0  0  0  0  0  0  0
  -35.2247  -23.6917   20.6849 C   0  0  1  0  0  0  0  0  0  0  0  0
  -33.4199  -20.6191   22.0022 C   0  0  1  0  0  0  0  0  0  0  0  0
  -27.7260  -13.2524   20.0909 C   0  0  2  0  0  0  0  0  0  0  0  0
  -29.1987  -14.7674   27.6208 C   0  0  0  0  0  0  0  0  0  0  0  0
  -27.1569  -18.0928   25.9756 C   0  0  0  0  0  0  0  0  0  0  0  0
  -38.3648  -16.3255   27.2866 C   0  0  0  0  0  0  0  0  0  0  0  0
  -31.0491  -23.6562   24.5548 C   0  0  0  0  0  0  0  0  0  0  0  0
  -29.0994  -22.7174   25.8139 C   0  0  0  0  0  0  0  0  0  0  0  0
  -28.9510  -23.0347   23.3440 C   0  0  0  0  0  0  0  0  0  0  0  0
  -29.3482  -16.8676   23.1167 C   0  0  0  0  0  0  0  0  0  0  0  0
  -30.5573  -14.0887   27.4747 C   0  0  0  0  0  0  0  0  0  0  0  0
  -36.1214  -16.3017   28.4468 C   0  0  0  0  0  0  0  0  0  0  0  0
  -34.6421  -16.6653   28.3870 C   0  0  0  0  0  0  0  0  0  0  0  0
  -30.3923  -21.1756   24.2705 C   0  0  1  0  0  0  0  0  0  0  0  0
  -28.0465  -18.2368   24.7506 C   0  0  2  0  0  0  0  0  0  0  0  0
  -36.8821  -16.6511   27.1618 C   0  0  1  0  0  0  0  0  0  1  0  0
  -29.8980  -22.6324   24.4956 C   0  0  0  0  0  0  0  0  0  0  0  0
  -25.9394  -11.6105   20.5310 N   0  0  0  0  0  0  0  0  0  0  0  0
  -26.2800  -12.9028   20.3887 N   0  0  0  0  0  0  0  0  0  0  0  0
  -32.5239  -20.5866   23.1599 N   0  0  0  0  0  0  0  0  0  0  0  0
  -30.0899  -12.6448   20.4276 N   0  0  0  0  0  0  0  0  0  0  0  0
  -25.4024  -15.1026   20.4266 N   0  0  0  0  0  0  0  0  0  0  0  0
  -31.8576  -16.8266   27.6557 N   0  0  0  0  0  0  0  0  0  0  0  0
  -21.7912  -12.5255   21.2715 N   0  0  0  0  0  0  0  0  0  0  0  0
  -30.6836  -12.9170   22.6938 N   0  0  0  0  0  0  0  0  0  0  0  0
  -34.4946  -22.4522   20.8435 N   0  0  0  0  0  0  0  0  0  0  0  0
  -29.3219  -20.1881   24.1832 N   0  0  0  0  0  0  0  0  0  0  0  0
  -33.9992  -15.9142   27.3082 N   0  3  0  0  0  0  0  0  0  0  0  0
  -28.4849  -16.8773   24.3257 N   0  3  0  0  0  0  0  0  0  0  0  0
  -22.5135  -14.6834   20.9879 O   0  0  0  0  0  0  0  0  0  0  0  0
  -34.4713  -22.3808   23.1709 O   0  0  0  0  0  0  0  0  0  0  0  0
  -30.6825  -21.2987   21.9196 O   0  0  0  0  0  0  0  0  0  0  0  0
  -30.0486  -18.8687   25.9462 O   0  0  0  0  0  0  0  0  0  0  0  0
  -32.2383  -13.2698   21.0085 O   0  0  0  0  0  0  0  0  0  0  0  0
  -21.7212   -6.9657   21.6179 O   0  0  0  0  0  0  0  0  0  0  0  0
  -36.7427  -18.0413   26.8716 O   0  0  0  0  0  0  0  0  0  1  0  0
  -18.1635   -6.8642   25.8294 F   0  0  0  0  0  0  0  0  0  0  0  0
  -19.6151   -8.7525   21.7388 F   0  0  0  0  0  0  0  0  0  0  0  0
  1  2  1  0  0  0  0
  1  6  2  0  0  0  0
  2  7  2  0  0  0  0
  3 10  2  0  0  0  0
  3 18  1  0  0  0  0
  4 11  1  0  0  0  0
  4 18  2  0  0  0  0
  5  9  2  0  0  0  0
  5 19  1  0  0  0  0
  6 21  1  0  0  0  0
  7 23  1  0  0  0  0
  8 12  2  0  0  0  0
  8 22  1  0  0  0  0
  9 26  1  0  0  0  0
 10 27  1  0  0  0  0
 11 27  2  0  0  0  0
 12 28  1  0  0  0  0
 13 14  2  0  0  0  0
 13 29  1  0  0  0  0
 14 30  1  0  0  0  0
 15 24  1  0  0  0  0
 15 28  2  0  0  0  0
 16 25  1  0  0  0  0
 16 26  2  0  0  0  0
 17 30  2  0  0  0  0
 17 31  1  0  0  0  0
 18 32  1  0  0  0  0
 19 25  2  0  0  0  0
 19 34  1  0  0  0  0
 20 32  1  0  0  0  0
 20 33  2  0  0  0  0
 20 35  1  0  0  0  0
 21 23  2  0  0  0  0
 21 40  1  0  0  0  0
 22 24  2  0  0  0  0
 22 41  1  0  0  0  0
 23 49  1  0  0  0  0
 24 42  1  0  0  0  0
 25 59  1  0  0  0  0
 26 73  1  0  0  0  0
 27 83  1  0  0  0  0
 28 84  1  0  0  0  0
 29 31  2  0  0  0  0
 29 83  1  0  0  0  0
 30 85  1  0  0  0  0
 31 86  1  0  0  0  0
 32 66  2  0  0  0  0
 33 67  1  0  0  0  0
 33 70  1  0  0  0  0
 34 71  1  0  0  0  0
 34 76  2  0  0  0  0
 35 72  1  0  0  0  0
 35 78  2  0  0  0  0
 36 50  1  0  0  0  0
 36 74  1  0  0  0  0
 36 79  2  0  0  0  0
 37 62  1  0  0  0  0
 37 68  1  0  0  0  0
 37 80  2  0  0  0  0
 38 63  1  0  0  0  0
 38 75  1  0  0  0  0
 38 81  2  0  0  0  0
 39 69  1  0  0  0  0
 39 73  1  0  0  0  0
 39 82  2  0  0  0  0
 40 43  1  0  0  0  0
 41 50  1  0  0  0  0
 42 68  1  0  0  0  0
 43 45  1  0  0  0  0
 44 46  1  0  0  0  0
 44 47  1  0  0  0  0
 45 49  1  0  0  0  0
 46 51  1  0  0  0  0
 47 69  1  0  0  0  0
 48 51  1  0  0  0  0
 48 69  1  0  0  0  0
 49 74  1  0  0  0  0
 50 68  1  0  0  0  0
 51 67  1  0  0  0  0
 52 59  1  0  0  0  0
 53 63  1  0  0  0  0
 54 64  1  0  0  0  0
 55 65  1  0  0  0  0
 56 65  1  0  0  0  0
 57 65  1  0  0  0  0
 58 77  1  0  0  0  0
 60 61  1  0  0  0  0
 60 64  1  0  0  0  0
 61 76  1  0  0  0  0
 62 65  1  0  0  0  0
 62 75  1  0  0  0  0
 63 77  1  0  0  0  0
 64 84  1  0  0  0  0
 66 67  1  0  0  0  0
M  CHG  2  76   1  77   1
M  ISO  4  39 100  64 101  73 100  84 101
M  END
> <Batch ID>
0135

> <Smiles>
CCc1cc([100NH:0][100C:0](=O)N2CCCC(n3nc(-c4ccc(Oc5ccc(F)cc5F)cc4)c(C(N)=O)c3N)C2)ccc1C(=N)NCC[101CH:1](C)[101O:1]c1ccc2c(c1)CN(C(=O)C(NC(=O)C(C)NC)C(C)(C)C)C(C(=O)NC1CCCc3ccccc31)C2

> <Shape>
0.134

> <Color>
0.167

> <Negative vol penalty>
0.000

$$$$

  -OEChem-04052302363D

 81 89  0     1  0  0  0  0  0999 V2000
  -32.3962  -29.2692   23.7363 C   0  0  0  0  0  0  0  0  0  0  0  0
  -31.3975  -28.4877   23.1643 C   0  0  0  0  0  0  0  0  0  0  0  0
  -23.2059   -9.8788   22.5116 C   0  0  0  0  0  0  0  0  0  0  0  0
  -23.4967   -9.7543   20.1164 C   0  0  0  0  0  0  0  0  0  0  0  0
  -32.0666  -30.2305   24.6909 C   0  0  0  0  0  0  0  0  0  0  0  0
  -30.0687  -28.6662   23.5474 C   0  0  0  0  0  0  0  0  0  0  0  0
  -26.9024  -28.7516   19.5961 C   0  0  0  0  0  0  0  0  0  0  0  0
  -22.5022   -8.6748   22.4888 C   0  0  0  0  0  0  0  0  0  0  0  0
  -22.7930   -8.5502   20.0936 C   0  0  0  0  0  0  0  0  0  0  0  0
  -26.5652  -27.5259   19.0238 C   0  0  0  0  0  0  0  0  0  0  0  0
  -23.2163   -5.3755   22.2951 C   0  0  0  0  0  0  0  0  0  0  0  0
  -23.5323   -4.4215   23.2625 C   0  0  0  0  0  0  0  0  0  0  0  0
  -24.4746  -27.5459   20.2273 C   0  0  0  0  0  0  0  0  0  0  0  0
  -21.2588   -4.4943   24.0768 C   0  0  0  0  0  0  0  0  0  0  0  0
  -23.7032  -10.4187   21.3254 C   0  0  0  0  0  0  0  0  0  0  0  0
  -25.8179  -11.8336   21.5077 C   0  0  0  0  0  0  0  0  0  0  0  0
  -30.7319  -30.4275   25.0789 C   0  0  0  0  0  0  0  0  0  0  0  0
  -26.0316  -29.3796   20.4983 C   0  0  0  0  0  0  0  0  0  0  0  0
  -29.7211  -29.6300   24.5091 C   0  0  0  0  0  0  0  0  0  0  0  0
  -24.8020  -28.7808   20.8077 C   0  0  0  0  0  0  0  0  0  0  0  0
  -27.3064  -18.5586   18.2514 C   0  0  0  0  0  0  0  0  0  0  0  0
  -22.2957   -8.0104   21.2798 C   0  0  0  0  0  0  0  0  0  0  0  0
  -25.3524  -26.9214   19.3416 C   0  0  0  0  0  0  0  0  0  0  0  0
  -21.9216   -5.8889   22.2186 C   0  0  0  0  0  0  0  0  0  0  0  0
  -22.5536   -3.9809   24.1533 C   0  0  0  0  0  0  0  0  0  0  0  0
  -20.9429   -5.4483   23.1095 C   0  0  0  0  0  0  0  0  0  0  0  0
  -24.4297  -11.6627   21.3482 C   0  0  0  0  0  0  0  0  0  0  0  0
  -27.3317  -19.9451   18.0220 C   0  0  0  0  0  0  0  0  0  0  0  0
  -28.5496  -18.1405   17.8568 C   0  0  0  0  0  0  0  0  0  0  0  0
  -26.0043  -13.1936   21.4588 C   0  0  0  0  0  0  0  0  0  0  0  0
  -26.8470  -10.8510   21.6842 C   0  0  0  0  0  0  0  0  0  0  0  0
  -26.2036  -30.2370   23.5542 C   0  0  0  0  0  0  0  0  0  0  0  0
  -23.3273  -31.6006   22.9297 C   0  0  0  0  0  0  0  0  0  0  0  0
  -20.5105  -31.6692   21.0041 C   0  0  0  0  0  0  0  0  0  0  0  0
  -24.9944  -18.1693   19.1730 C   0  0  0  0  0  0  0  0  0  0  0  0
  -30.4299  -31.4462   26.1492 C   0  0  0  0  0  0  0  0  0  0  0  0
  -26.3982  -30.7145   21.0864 C   0  0  0  0  0  0  0  0  0  0  0  0
  -23.8231  -29.4236   21.7548 C   0  0  0  0  0  0  0  0  0  0  0  0
  -28.9543  -31.8299   26.2258 C   0  0  0  0  0  0  0  0  0  0  0  0
  -22.6518  -16.9842   21.5782 C   0  0  0  0  0  0  0  0  0  0  0  0
  -28.0761  -30.5832   26.1917 C   0  0  0  0  0  0  0  0  0  0  0  0
  -23.0197  -15.5081   21.7459 C   0  0  0  0  0  0  0  0  0  0  0  0
  -22.8182  -17.4494   20.1327 C   0  0  0  0  0  0  0  0  0  0  0  0
  -24.5023  -15.7022   19.7085 C   0  0  0  0  0  0  0  0  0  0  0  0
  -28.2652  -29.8109   24.8805 C   0  0  1  0  0  0  0  0  0  0  0  0
  -25.6629  -31.0160   22.3886 C   0  0  1  0  0  0  0  0  0  0  0  0
  -24.4128  -15.2045   21.1603 C   0  0  2  0  0  0  0  0  0  0  0  0
  -29.2240  -16.8356   17.8148 C   0  0  0  0  0  0  0  0  0  0  0  0
  -18.3203  -32.8694   20.7595 C   0  0  0  0  0  0  0  0  0  0  0  0
  -22.2182  -30.0584   25.3174 C   0  0  0  0  0  0  0  0  0  0  0  0
  -19.9129  -30.5291   24.4619 C   0  0  0  0  0  0  0  0  0  0  0  0
  -21.4033  -32.4152   25.1281 C   0  0  0  0  0  0  0  0  0  0  0  0
  -21.2020  -32.6192   18.2878 C   0  0  0  0  0  0  0  0  0  0  0  0
  -26.2345  -20.9496   18.2693 C   0  0  0  0  0  0  0  0  0  0  0  0
  -26.7070  -22.4069   18.2211 C   0  0  0  0  0  0  0  0  0  0  0  0
  -25.5977  -23.4070   18.5500 C   0  0  0  0  0  0  0  0  0  0  0  0
  -26.0934  -24.8435   18.4533 C   0  0  0  0  0  0  0  0  0  1  0  0
  -21.8902  -31.1436   22.9978 C   0  0  1  0  0  0  0  0  0  0  0  0
  -19.7784  -32.8159   20.3307 C   0  0  2  0  0  0  0  0  0  0  0  0
  -21.3752  -31.0232   24.4599 C   0  0  0  0  0  0  0  0  0  0  0  0
  -23.7802  -12.8215   21.2086 N   0  0  0  0  0  0  0  0  0  0  0  0
  -28.5012  -20.3555   17.5233 N   0  0  0  0  0  0  0  0  0  0  0  0
  -24.7646  -13.7335   21.2803 N   0  0  0  0  0  0  0  0  0  0  0  0
  -24.2299  -30.7255   22.3088 N   0  0  0  0  0  0  0  0  0  0  0  0
  -24.1629  -17.1325   19.6468 N   0  0  0  0  0  0  0  0  0  0  0  0
  -27.1060  -13.9682   21.5515 N   0  0  0  0  0  0  0  0  0  0  0  0
  -26.4815   -9.4982   21.7109 N   0  0  0  0  0  0  0  0  0  0  0  0
  -26.2619  -17.7523   18.7678 N   0  0  0  0  0  0  0  0  0  0  0  0
  -27.5445  -30.4573   23.8047 N   0  0  0  0  0  0  0  0  0  0  0  0
  -21.1271  -32.0714   22.1700 N   0  0  0  0  0  0  0  0  0  0  0  0
  -19.8273  -32.6627   18.8491 N   0  3  0  0  0  0  0  0  0  0  0  0
  -28.0528  -11.1642   21.8308 O   0  0  0  0  0  0  0  0  0  0  0  0
  -25.4589  -29.4924   24.1809 O   0  0  0  0  0  0  0  0  0  0  0  0
  -23.6364  -32.6969   23.4033 O   0  0  0  0  0  0  0  0  0  0  0  0
  -20.5302  -30.5297   20.5440 O   0  0  0  0  0  0  0  0  0  0  0  0
  -24.6200  -19.3447   19.1555 O   0  0  0  0  0  0  0  0  0  0  0  0
  -29.2721  -19.2038   17.4203 O   0  0  0  0  0  0  0  0  0  0  0  0
  -21.6093   -6.8353   21.2572 O   0  0  0  0  0  0  0  0  0  0  0  0
  -25.0211  -25.7247   18.7848 O   0  0  0  0  0  0  0  0  0  1  0  0
  -22.8568   -3.0637   25.0812 F   0  0  0  0  0  0  0  0  0  0  0  0
  -19.6970   -5.9369   23.0401 F   0  0  0  0  0  0  0  0  0  0  0  0
  1  2  1  0  0  0  0
  1  5  2  0  0  0  0
  2  6  2  0  0  0  0
  3  8  2  0  0  0  0
  3 15  1  0  0  0  0
  4  9  1  0  0  0  0
  4 15  2  0  0  0  0
  5 17  1  0  0  0  0
  6 19  1  0  0  0  0
  7 10  2  0  0  0  0
  7 18  1  0  0  0  0
  8 22  1  0  0  0  0
  9 22  2  0  0  0  0
 10 23  1  0  0  0  0
 11 12  2  0  0  0  0
 11 24  1  0  0  0  0
 12 25  1  0  0  0  0
 13 20  1  0  0  0  0
 13 23  2  0  0  0  0
 14 25  2  0  0  0  0
 14 26  1  0  0  0  0
 15 27  1  0  0  0  0
 16 27  1  0  0  0  0
 16 30  2  0  0  0  0
 16 31  1  0  0  0  0
 17 19  2  0  0  0  0
 17 36  1  0  0  0  0
 18 20  2  0  0  0  0
 18 37  1  0  0  0  0
 19 45  1  0  0  0  0
 20 38  1  0  0  0  0
 21 28  1  0  0  0  0
 21 29  2  0  0  0  0
 21 68  1  0  0  0  0
 22 78  1  0  0  0  0
 23 79  1  0  0  0  0
 24 26  2  0  0  0  0
 24 78  1  0  0  0  0
 25 80  1  0  0  0  0
 26 81  1  0  0  0  0
 27 61  2  0  0  0  0
 28 54  1  0  0  0  0
 28 62  2  0  0  0  0
 29 48  1  0  0  0  0
 29 77  1  0  0  0  0
 30 63  1  0  0  0  0
 30 66  1  0  0  0  0
 31 67  1  0  0  0  0
 31 72  2  0  0  0  0
 32 46  1  0  0  0  0
 32 69  1  0  0  0  0
 32 73  2  0  0  0  0
 33 58  1  0  0  0  0
 33 64  1  0  0  0  0
 33 74  2  0  0  0  0
 34 59  1  0  0  0  0
 34 70  1  0  0  0  0
 34 75  2  0  0  0  0
 35 65  1  0  0  0  0
 35 68  1  0  0  0  0
 35 76  2  0  0  0  0
 36 39  1  0  0  0  0
 37 46  1  0  0  0  0
 38 64  1  0  0  0  0
 39 41  1  0  0  0  0
 40 42  1  0  0  0  0
 40 43  1  0  0  0  0
 41 45  1  0  0  0  0
 42 47  1  0  0  0  0
 43 65  1  0  0  0  0
 44 47  1  0  0  0  0
 44 65  1  0  0  0  0
 45 69  1  0  0  0  0
 46 64  1  0  0  0  0
 47 63  1  0  0  0  0
 49 59  1  0  0  0  0
 50 60  1  0  0  0  0
 51 60  1  0  0  0  0
 52 60  1  0  0  0  0
 53 71  1  0  0  0  0
 54 55  1  0  0  0  0
 55 56  1  0  0  0  0
 56 57  1  0  0  0  0
 57 79  1  0  0  0  0
 58 60  1  0  0  0  0
 58 70  1  0  0  0  0
 59 71  1  0  0  0  0
 61 63  1  0  0  0  0
 62 77  1  0  0  0  0
M  CHG  1  71   1
M  ISO  4  35 100  57 101  68 100  79 101
M  END
> <Batch ID>
0135

> <Smiles>
CNC(C)C(=O)NC(C(=O)N1Cc2cc([101O:1][101CH2:1]CCCc3noc(C)c3[100NH:0][100C:0](=O)N3CCCC(n4nc(-c5ccc(Oc6ccc(F)cc6F)cc5)c(C(N)=O)c4N)C3)ccc2CC1C(=O)NC1CCCc2ccccc21)C(C)(C)C

> <Shape>
0.223

> <Color>
0.104

> <Negative vol penalty>
0.000

$$$$

  -OEChem-04052302363D

 84 92  0     1  0  0  0  0  0999 V2000
  -28.7930  -25.9288   27.8032 C   0  0  0  0  0  0  0  0  0  0  0  0
  -29.8384  -25.0826   27.4474 C   0  0  0  0  0  0  0  0  0  0  0  0
  -22.9761   -9.9355   19.9809 C   0  0  0  0  0  0  0  0  0  0  0  0
  -23.7108   -9.9581   22.2824 C   0  0  0  0  0  0  0  0  0  0  0  0
  -27.6553  -26.0046   27.0009 C   0  0  0  0  0  0  0  0  0  0  0  0
  -29.7462  -24.3110   26.2896 C   0  0  0  0  0  0  0  0  0  0  0  0
  -34.3171  -22.7789   22.5126 C   0  0  0  0  0  0  0  0  0  0  0  0
  -30.6040  -18.2547   24.0334 C   0  0  0  0  0  0  0  0  0  0  0  0
  -22.1958   -8.8090   20.2411 C   0  0  0  0  0  0  0  0  0  0  0  0
  -22.9304   -8.8316   22.5426 C   0  0  0  0  0  0  0  0  0  0  0  0
  -35.0884  -21.6236   22.3938 C   0  0  0  0  0  0  0  0  0  0  0  0
  -31.9892  -18.2194   24.1931 C   0  0  0  0  0  0  0  0  0  0  0  0
  -23.1290   -5.4937   22.0426 C   0  0  0  0  0  0  0  0  0  0  0  0
  -23.7060   -4.4628   22.7841 C   0  0  0  0  0  0  0  0  0  0  0  0
  -33.6235  -20.8325   20.6482 C   0  0  0  0  0  0  0  0  0  0  0  0
  -32.1312  -16.4370   22.5683 C   0  0  0  0  0  0  0  0  0  0  0  0
  -21.9919   -4.7146   24.4680 C   0  0  0  0  0  0  0  0  0  0  0  0
  -23.7337  -10.5100   21.0016 C   0  0  0  0  0  0  0  0  0  0  0  0
  -24.1514  -13.0217   20.8445 C   0  0  0  0  0  0  0  0  0  0  0  0
  -27.5531  -25.2407   25.8276 C   0  0  0  0  0  0  0  0  0  0  0  0
  -33.1850  -22.9650   21.7063 C   0  0  0  0  0  0  0  0  0  0  0  0
  -28.6054  -24.3757   25.4716 C   0  0  0  0  0  0  0  0  0  0  0  0
  -32.8409  -21.9922   20.7570 C   0  0  0  0  0  0  0  0  0  0  0  0
  -29.9823  -17.3811   23.1412 C   0  0  0  0  0  0  0  0  0  0  0  0
  -30.7459  -16.4723   22.4086 C   0  0  0  0  0  0  0  0  0  0  0  0
  -22.1729   -8.2571   21.5219 C   0  0  0  0  0  0  0  0  0  0  0  0
  -34.7400  -20.6489   21.4635 C   0  0  0  0  0  0  0  0  0  0  0  0
  -32.7528  -17.3106   23.4606 C   0  0  0  0  0  0  0  0  0  0  0  0
  -21.9835   -6.1352   22.5138 C   0  0  0  0  0  0  0  0  0  0  0  0
  -23.1374   -4.0732   23.9968 C   0  0  0  0  0  0  0  0  0  0  0  0
  -21.4149   -5.7456   23.7265 C   0  0  0  0  0  0  0  0  0  0  0  0
  -24.5405  -11.6733   20.7333 C   0  0  0  0  0  0  0  0  0  0  0  0
  -25.2692  -13.7326   20.4816 C   0  0  0  0  0  0  0  0  0  0  0  0
  -22.8922  -13.5815   21.2405 C   0  0  0  0  0  0  0  0  0  0  0  0
  -30.0723  -23.3045   22.2539 C   0  0  0  0  0  0  0  0  0  0  0  0
  -29.9676  -23.8610   19.0599 C   0  0  0  0  0  0  0  0  0  0  0  0
  -31.4094  -23.4354   15.9961 C   0  0  0  0  0  0  0  0  0  0  0  0
  -30.7617  -14.6197   20.7016 C   0  0  0  0  0  0  0  0  0  0  0  0
  -26.2835  -25.3209   25.0174 C   0  0  0  0  0  0  0  0  0  0  0  0
  -32.3788  -24.2290   21.8283 C   0  0  0  0  0  0  0  0  0  0  0  0
  -31.6467  -22.1533   19.8534 C   0  0  0  0  0  0  0  0  0  0  0  0
  -26.4232  -24.7507   23.6083 C   0  0  0  0  0  0  0  0  0  0  0  0
  -29.6022  -12.2008   18.3603 C   0  0  0  0  0  0  0  0  0  0  0  0
  -27.1340  -23.4015   23.6463 C   0  0  0  0  0  0  0  0  0  0  0  0
  -28.1500  -11.9589   18.7781 C   0  0  0  0  0  0  0  0  0  0  0  0
  -30.5105  -12.4225   19.5684 C   0  0  0  0  0  0  0  0  0  0  0  0
  -28.6109  -13.2255   20.9159 C   0  0  0  0  0  0  0  0  0  0  0  0
  -28.5532  -23.5414   24.2101 C   0  0  1  0  0  0  0  0  0  0  0  0
  -30.9509  -24.0790   21.3127 C   0  0  1  0  0  0  0  0  0  0  0  0
  -27.6463  -13.0614   19.7300 C   0  0  2  0  0  0  0  0  0  0  0  0
  -28.4969  -17.4413   22.9906 C   0  0  0  0  0  0  0  0  0  0  0  0
  -31.0715  -23.9725   13.5682 C   0  0  0  0  0  0  0  0  0  0  0  0
  -27.8396  -21.6820   18.8766 C   0  0  0  0  0  0  0  0  0  0  0  0
  -28.2338  -21.6021   16.4055 C   0  0  0  0  0  0  0  0  0  0  0  0
  -27.3929  -23.6978   17.4654 C   0  0  0  0  0  0  0  0  0  0  0  0
  -37.0905  -17.0684   21.2821 C   0  0  0  0  0  0  0  0  0  0  0  0
  -37.0170  -17.0437   23.7832 C   0  0  0  0  0  0  0  0  0  0  0  0
  -33.9240  -24.9912   15.8707 C   0  0  0  0  0  0  0  0  0  0  0  0
  -36.1558  -19.0570   22.5204 C   0  0  0  0  0  0  0  0  0  1  0  0
  -34.8793  -16.8774   22.4878 C   0  0  0  0  0  0  0  0  0  0  0  0
  -29.7961  -23.0023   17.8302 C   0  0  1  0  0  0  0  0  0  0  0  0
  -31.7054  -24.4175   14.8770 C   0  0  2  0  0  0  0  0  0  0  0  0
  -28.3370  -22.4918   17.6626 C   0  0  0  0  0  0  0  0  0  0  0  0
  -36.2836  -17.5174   22.5153 C   0  0  0  0  0  0  0  0  0  0  0  0
  -25.8064  -11.5334   20.3311 N   0  0  0  0  0  0  0  0  0  0  0  0
  -26.2225  -12.8030   20.1863 N   0  0  0  0  0  0  0  0  0  0  0  0
  -30.8865  -23.4036   20.0151 N   0  0  0  0  0  0  0  0  0  0  0  0
  -29.9728  -13.4837   20.4225 N   0  0  0  0  0  0  0  0  0  0  0  0
  -25.5197  -15.0559   20.3893 N   0  0  0  0  0  0  0  0  0  0  0  0
  -21.8502  -12.7082   21.5809 N   0  0  0  0  0  0  0  0  0  0  0  0
  -30.1331  -15.5768   21.4974 N   0  0  0  0  0  0  0  0  0  0  0  0
  -29.4444  -24.0834   23.2070 N   0  0  0  0  0  0  0  0  0  0  0  0
  -30.2843  -23.7954   16.7072 N   0  0  0  0  0  0  0  0  0  0  0  0
  -33.1762  -24.5385   14.6695 N   0  3  0  0  0  0  0  0  0  0  0  0
  -22.6919  -14.8193   21.2751 O   0  0  0  0  0  0  0  0  0  0  0  0
  -29.9705  -22.0902   22.1241 O   0  0  0  0  0  0  0  0  0  0  0  0
  -29.3158  -24.9029   19.1657 O   0  0  0  0  0  0  0  0  0  0  0  0
  -32.1046  -22.4458   16.2151 O   0  0  0  0  0  0  0  0  0  0  0  0
  -31.9003  -14.7474   20.2442 O   0  0  0  0  0  0  0  0  0  0  0  0
  -21.4113   -7.1580   21.7762 O   0  0  0  0  0  0  0  0  0  0  0  0
  -35.4907  -19.5200   21.3459 O   0  0  0  0  0  0  0  0  0  1  0  0
  -34.1137  -17.2763   23.6177 O   0  0  0  0  0  0  0  0  0  0  0  0
  -23.6908   -3.0821   24.7080 F   0  0  0  0  0  0  0  0  0  0  0  0
  -20.3138   -6.3573   24.1838 F   0  0  0  0  0  0  0  0  0  0  0  0
  1  2  1  0  0  0  0
  1  5  2  0  0  0  0
  2  6  2  0  0  0  0
  3  9  2  0  0  0  0
  3 18  1  0  0  0  0
  4 10  1  0  0  0  0
  4 18  2  0  0  0  0
  5 20  1  0  0  0  0
  6 22  1  0  0  0  0
  7 11  2  0  0  0  0
  7 21  1  0  0  0  0
  8 12  2  0  0  0  0
  8 24  1  0  0  0  0
  9 26  1  0  0  0  0
 10 26  2  0  0  0  0
 11 27  1  0  0  0  0
 12 28  1  0  0  0  0
 13 14  2  0  0  0  0
 13 29  1  0  0  0  0
 14 30  1  0  0  0  0
 15 23  1  0  0  0  0
 15 27  2  0  0  0  0
 16 25  1  0  0  0  0
 16 28  2  0  0  0  0
 17 30  2  0  0  0  0
 17 31  1  0  0  0  0
 18 32  1  0  0  0  0
 19 32  1  0  0  0  0
 19 33  2  0  0  0  0
 19 34  1  0  0  0  0
 20 22  2  0  0  0  0
 20 39  1  0  0  0  0
 21 23  2  0  0  0  0
 21 40  1  0  0  0  0
 22 48  1  0  0  0  0
 23 41  1  0  0  0  0
 24 25  2  0  0  0  0
 24 51  1  0  0  0  0
 25 71  1  0  0  0  0
 26 80  1  0  0  0  0
 27 81  1  0  0  0  0
 28 82  1  0  0  0  0
 29 31  2  0  0  0  0
 29 80  1  0  0  0  0
 30 83  1  0  0  0  0
 31 84  1  0  0  0  0
 32 65  2  0  0  0  0
 33 66  1  0  0  0  0
 33 69  1  0  0  0  0
 34 70  1  0  0  0  0
 34 75  2  0  0  0  0
 35 49  1  0  0  0  0
 35 72  1  0  0  0  0
 35 76  2  0  0  0  0
 36 61  1  0  0  0  0
 36 67  1  0  0  0  0
 36 77  2  0  0  0  0
 37 62  1  0  0  0  0
 37 73  1  0  0  0  0
 37 78  2  0  0  0  0
 38 68  1  0  0  0  0
 38 71  1  0  0  0  0
 38 79  2  0  0  0  0
 39 42  1  0  0  0  0
 40 49  1  0  0  0  0
 41 67  1  0  0  0  0
 42 44  1  0  0  0  0
 43 45  1  0  0  0  0
 43 46  1  0  0  0  0
 44 48  1  0  0  0  0
 45 50  1  0  0  0  0
 46 68  1  0  0  0  0
 47 50  1  0  0  0  0
 47 68  1  0  0  0  0
 48 72  1  0  0  0  0
 49 67  1  0  0  0  0
 50 66  1  0  0  0  0
 52 62  1  0  0  0  0
 53 63  1  0  0  0  0
 54 63  1  0  0  0  0
 55 63  1  0  0  0  0
 56 64  1  0  0  0  0
 57 64  1  0  0  0  0
 58 74  1  0  0  0  0
 59 64  1  0  0  0  0
 59 81  1  0  0  0  0
 60 64  1  0  0  0  0
 60 82  1  0  0  0  0
 61 63  1  0  0  0  0
 61 73  1  0  0  0  0
 62 74  1  0  0  0  0
 65 66  1  0  0  0  0
M  CHG  1  74   1
M  ISO  4  38 100  59 101  71 100  81 101
M  END
> <Batch ID>
0135

> <Smiles>
CNC(C)C(=O)NC(C(=O)N1Cc2cc([101O:1][101CH2:1]C(C)(C)COc3ccc(C)c([100NH:0][100C:0](=O)N4CCCC(n5nc(-c6ccc(Oc7ccc(F)cc7F)cc6)c(C(N)=O)c5N)C4)c3)ccc2CC1C(=O)NC1CCCc2ccccc21)C(C)(C)C

> <Shape>
0.220

> <Color>
0.200

> <Negative vol penalty>
0.000

$$$$

  -OEChem-04052302363D

 85 93  0     1  0  0  0  0  0999 V2000
  -32.1604  -13.0992   21.4450 C   0  0  0  0  0  0  0  0  0  0  0  0
  -31.4414  -14.1957   21.9098 C   0  0  0  0  0  0  0  0  0  0  0  0
  -24.2536  -30.5835   20.7255 C   0  0  0  0  0  0  0  0  0  0  0  0
  -24.3558  -28.9583   22.5102 C   0  0  0  0  0  0  0  0  0  0  0  0
  -31.5912  -12.2416   20.5045 C   0  0  0  0  0  0  0  0  0  0  0  0
  -30.1531  -14.4360   21.4334 C   0  0  0  0  0  0  0  0  0  0  0  0
  -26.9038  -15.6218   25.1322 C   0  0  0  0  0  0  0  0  0  0  0  0
  -22.8822  -30.7277   20.9353 C   0  0  0  0  0  0  0  0  0  0  0  0
  -22.9844  -29.1024   22.7200 C   0  0  0  0  0  0  0  0  0  0  0  0
  -26.9541  -16.9227   25.6311 C   0  0  0  0  0  0  0  0  0  0  0  0
  -20.1181  -28.0184   21.2917 C   0  0  0  0  0  0  0  0  0  0  0  0
  -19.3625  -26.8579   21.4587 C   0  0  0  0  0  0  0  0  0  0  0  0
  -25.0489  -17.5107   24.2733 C   0  0  0  0  0  0  0  0  0  0  0  0
  -29.7718  -21.6408   19.8818 C   0  0  0  0  0  0  0  0  0  0  0  0
  -29.2365  -22.4654   22.0888 C   0  0  0  0  0  0  0  0  0  0  0  0
  -18.6895  -27.6120   23.6532 C   0  0  0  0  0  0  0  0  0  0  0  0
  -24.9904  -29.6988   21.5129 C   0  0  0  0  0  0  0  0  0  0  0  0
  -27.4424  -30.2829   21.9056 C   0  0  0  0  0  0  0  0  0  0  0  0
  -30.2916  -12.4660   20.0236 C   0  0  0  0  0  0  0  0  0  0  0  0
  -25.9307  -15.2579   24.1903 C   0  0  0  0  0  0  0  0  0  0  0  0
  -29.5665  -13.5814   20.4846 C   0  0  0  0  0  0  0  0  0  0  0  0
  -24.9867  -16.2038   23.7659 C   0  0  0  0  0  0  0  0  0  0  0  0
  -29.6756  -20.3298   20.3483 C   0  0  0  0  0  0  0  0  0  0  0  0
  -29.3599  -20.0866   21.6850 C   0  0  0  0  0  0  0  0  0  0  0  0
  -29.5523  -22.7086   20.7521 C   0  0  0  0  0  0  0  0  0  0  0  0
  -22.2476  -29.9871   21.9325 C   0  0  0  0  0  0  0  0  0  0  0  0
  -26.0284  -17.8681   25.1995 C   0  0  0  0  0  0  0  0  0  0  0  0
  -20.1594  -28.9757   22.3054 C   0  0  0  0  0  0  0  0  0  0  0  0
  -29.1403  -21.1544   22.5553 C   0  0  0  0  0  0  0  0  0  0  0  0
  -18.6482  -26.6547   22.6395 C   0  0  0  0  0  0  0  0  0  0  0  0
  -19.4452  -28.7725   23.4861 C   0  0  0  0  0  0  0  0  0  0  0  0
  -26.4070  -29.5490   21.2963 C   0  0  0  0  0  0  0  0  0  0  0  0
  -28.5943  -29.7632   21.3674 C   0  0  0  0  0  0  0  0  0  0  0  0
  -27.3695  -31.3398   22.8717 C   0  0  0  0  0  0  0  0  0  0  0  0
  -25.9942  -14.2089   21.1904 C   0  0  0  0  0  0  0  0  0  0  0  0
  -22.7978  -13.8940   21.6443 C   0  0  0  0  0  0  0  0  0  0  0  0
  -20.0047  -14.8603   23.3507 C   0  0  0  0  0  0  0  0  0  0  0  0
  -29.9527  -24.4557   18.9819 C   0  0  0  0  0  0  0  0  0  0  0  0
  -29.7365  -11.5382   18.9721 C   0  0  0  0  0  0  0  0  0  0  0  0
  -25.8733  -13.8434   23.6820 C   0  0  0  0  0  0  0  0  0  0  0  0
  -23.9096  -15.8583   22.7716 C   0  0  0  0  0  0  0  0  0  0  0  0
  -28.2241  -11.6509   18.7975 C   0  0  0  0  0  0  0  0  0  0  0  0
  -30.2507  -27.6362   17.4093 C   0  0  0  0  0  0  0  0  0  0  0  0
  -27.8035  -13.1150   18.7182 C   0  0  0  0  0  0  0  0  0  0  0  0
  -29.3980  -28.5557   18.2866 C   0  0  0  0  0  0  0  0  0  0  0  0
  -29.6373  -26.2428   17.2842 C   0  0  0  0  0  0  0  0  0  0  0  0
  -28.4682  -26.5064   19.4367 C   0  0  0  0  0  0  0  0  0  0  0  0
  -28.1569  -13.8613   20.0103 C   0  0  1  0  0  0  0  0  0  0  0  0
  -25.1590  -13.7195   22.3396 C   0  0  1  0  0  0  0  0  0  0  0  0
  -29.0791  -27.9017   19.6453 C   0  0  2  0  0  0  0  0  0  0  0  0
  -29.9154  -19.2037   19.3967 C   0  0  0  0  0  0  0  0  0  0  0  0
  -27.9442  -18.0192   21.7764 C   0  0  0  0  0  0  0  0  0  0  0  0
  -17.5314  -14.4539   23.4722 C   0  0  0  0  0  0  0  0  0  0  0  0
  -28.5403  -21.7983   26.6433 C   0  0  0  0  0  0  0  0  0  0  0  0
  -22.4016  -15.5664   19.1231 C   0  0  0  0  0  0  0  0  0  0  0  0
  -20.0226  -15.9226   19.8173 C   0  0  0  0  0  0  0  0  0  0  0  0
  -20.8482  -13.6181   19.3375 C   0  0  0  0  0  0  0  0  0  0  0  0
  -20.1822  -13.9024   26.1453 C   0  0  0  0  0  0  0  0  0  0  0  0
  -29.2533  -18.6831   22.1901 C   0  0  0  0  0  0  0  0  0  0  0  0
  -27.3560  -19.6420   26.0636 C   0  0  0  0  0  0  0  0  0  1  0  0
  -27.5843  -21.4462   24.3300 C   0  0  0  0  0  0  0  0  0  0  0  0
  -21.5972  -14.7882   21.4498 C   0  0  1  0  0  0  0  0  0  0  0  0
  -18.8978  -14.0564   24.0086 C   0  0  2  0  0  0  0  0  0  0  0  0
  -27.4162  -21.1532   25.8237 C   0  0  2  0  0  0  0  0  0  0  0  0
  -21.2388  -14.9812   19.9492 C   0  0  0  0  0  0  0  0  0  0  0  0
  -26.8610  -28.6330   20.4368 N   0  0  0  0  0  0  0  0  0  0  0  0
  -28.1944  -28.7879   20.5020 N   0  0  0  0  0  0  0  0  0  0  0  0
  -23.8988  -14.4640   22.2991 N   0  0  0  0  0  0  0  0  0  0  0  0
  -29.3663  -25.6842   18.6107 N   0  0  0  0  0  0  0  0  0  0  0  0
  -29.9001  -30.0500   21.5548 N   0  0  0  0  0  0  0  0  0  0  0  0
  -26.1062  -31.7513   23.3177 N   0  0  0  0  0  0  0  0  0  0  0  0
  -29.6493  -24.0404   20.2781 N   0  0  0  0  0  0  0  0  0  0  0  0
  -27.2010  -13.5502   21.0513 N   0  0  0  0  0  0  0  0  0  0  0  0
  -20.5236  -14.2102   22.2510 N   0  0  0  0  0  0  0  0  0  0  0  0
  -18.9055  -14.2743   25.4829 N   0  3  0  0  0  0  0  0  0  0  0  0
  -28.3936  -31.9138   23.3136 O   0  0  0  0  0  0  0  0  0  0  0  0
  -25.5742  -15.1159   20.4815 O   0  0  0  0  0  0  0  0  0  0  0  0
  -22.7575  -12.7304   21.2368 O   0  0  0  0  0  0  0  0  0  0  0  0
  -20.3699  -15.9571   23.7682 O   0  0  0  0  0  0  0  0  0  0  0  0
  -30.6931  -23.8326   18.2167 O   0  0  0  0  0  0  0  0  0  0  0  0
  -20.9094  -30.1277   22.1377 O   0  0  0  0  0  0  0  0  0  0  0  0
  -26.0757  -19.1388   25.6843 O   0  0  0  0  0  0  0  0  0  1  0  0
  -28.8290  -20.9349   23.8718 O   0  0  0  0  0  0  0  0  0  0  0  0
  -17.9215  -25.5409   22.7991 F   0  0  0  0  0  0  0  0  0  0  0  0
  -19.4801  -29.6891   24.4630 F   0  0  0  0  0  0  0  0  0  0  0  0
  1  2  1  0  0  0  0
  1  5  2  0  0  0  0
  2  6  2  0  0  0  0
  3  8  2  0  0  0  0
  3 17  1  0  0  0  0
  4  9  1  0  0  0  0
  4 17  2  0  0  0  0
  5 19  1  0  0  0  0
  6 21  1  0  0  0  0
  7 10  2  0  0  0  0
  7 20  1  0  0  0  0
  8 26  1  0  0  0  0
  9 26  2  0  0  0  0
 10 27  1  0  0  0  0
 11 12  2  0  0  0  0
 11 28  1  0  0  0  0
 12 30  1  0  0  0  0
 13 22  1  0  0  0  0
 13 27  2  0  0  0  0
 14 23  2  0  0  0  0
 14 25  1  0  0  0  0
 15 25  2  0  0  0  0
 15 29  1  0  0  0  0
 16 30  2  0  0  0  0
 16 31  1  0  0  0  0
 17 32  1  0  0  0  0
 18 32  1  0  0  0  0
 18 33  2  0  0  0  0
 18 34  1  0  0  0  0
 19 21  2  0  0  0  0
 19 39  1  0  0  0  0
 20 22  2  0  0  0  0
 20 40  1  0  0  0  0
 21 48  1  0  0  0  0
 22 41  1  0  0  0  0
 23 24  1  0  0  0  0
 23 51  1  0  0  0  0
 24 29  2  0  0  0  0
 24 59  1  0  0  0  0
 25 72  1  0  0  0  0
 26 81  1  0  0  0  0
 27 82  1  0  0  0  0
 28 31  2  0  0  0  0
 28 81  1  0  0  0  0
 29 83  1  0  0  0  0
 30 84  1  0  0  0  0
 31 85  1  0  0  0  0
 32 66  2  0  0  0  0
 33 67  1  0  0  0  0
 33 70  1  0  0  0  0
 34 71  1  0  0  0  0
 34 76  2  0  0  0  0
 35 49  1  0  0  0  0
 35 73  1  0  0  0  0
 35 77  2  0  0  0  0
 36 62  1  0  0  0  0
 36 68  1  0  0  0  0
 36 78  2  0  0  0  0
 37 63  1  0  0  0  0
 37 74  1  0  0  0  0
 37 79  2  0  0  0  0
 38 69  1  0  0  0  0
 38 72  1  0  0  0  0
 38 80  2  0  0  0  0
 39 42  1  0  0  0  0
 40 49  1  0  0  0  0
 41 68  1  0  0  0  0
 42 44  1  0  0  0  0
 43 45  1  0  0  0  0
 43 46  1  0  0  0  0
 44 48  1  0  0  0  0
 45 50  1  0  0  0  0
 46 69  1  0  0  0  0
 47 50  1  0  0  0  0
 47 69  1  0  0  0  0
 48 73  1  0  0  0  0
 49 68  1  0  0  0  0
 50 67  1  0  0  0  0
 52 59  1  0  0  0  0
 53 63  1  0  0  0  0
 54 64  1  0  0  0  0
 55 65  1  0  0  0  0
 56 65  1  0  0  0  0
 57 65  1  0  0  0  0
 58 75  1  0  0  0  0
 60 64  1  0  0  0  0
 60 82  1  0  0  0  0
 61 64  1  0  0  0  0
 61 83  1  0  0  0  0
 62 65  1  0  0  0  0
 62 74  1  0  0  0  0
 63 75  1  0  0  0  0
 66 67  1  0  0  0  0
M  CHG  1  75   1
M  ISO  4  38 100  60 101  72 100  82 101
M  END
> <Batch ID>
0135

> <Smiles>
CCc1c(C)cc([100NH:0][100C:0](=O)N2CCCC(n3nc(-c4ccc(Oc5ccc(F)cc5F)cc4)c(C(N)=O)c3N)C2)cc1OCC(C)[101CH2:1][101O:1]c1ccc2c(c1)CN(C(=O)C(NC(=O)C(C)NC)C(C)(C)C)C(C(=O)NC1CCCc3ccccc31)C2

> <Shape>
0.289

> <Color>
0.059

> <Negative vol penalty>
0.000

$$$$

  -OEChem-04052302363D

 85 93  0     1  0  0  0  0  0999 V2000
  -32.4930  -32.3610   21.6097 C   0  0  0  0  0  0  0  0  0  0  0  0
  -31.1655  -32.0529   21.8893 C   0  0  0  0  0  0  0  0  0  0  0  0
  -23.0381   -9.9531   19.8859 C   0  0  0  0  0  0  0  0  0  0  0  0
  -23.8930   -9.7782   22.1388 C   0  0  0  0  0  0  0  0  0  0  0  0
  -33.1974  -31.6130   20.6672 C   0  0  0  0  0  0  0  0  0  0  0  0
  -30.5413  -30.9972   21.2257 C   0  0  0  0  0  0  0  0  0  0  0  0
  -27.7373  -25.4593   24.8809 C   0  0  0  0  0  0  0  0  0  0  0  0
  -22.2949   -8.7884   20.0775 C   0  0  0  0  0  0  0  0  0  0  0  0
  -23.1498   -8.6134   22.3304 C   0  0  0  0  0  0  0  0  0  0  0  0
  -26.9913  -24.4684   25.5195 C   0  0  0  0  0  0  0  0  0  0  0  0
  -19.9426   -7.7900   23.0056 C   0  0  0  0  0  0  0  0  0  0  0  0
  -19.2348   -7.6639   24.2009 C   0  0  0  0  0  0  0  0  0  0  0  0
  -26.4536  -23.4789   23.3794 C   0  0  0  0  0  0  0  0  0  0  0  0
  -32.1865  -16.4211   22.6245 C   0  0  0  0  0  0  0  0  0  0  0  0
  -32.0595  -18.0399   24.4135 C   0  0  0  0  0  0  0  0  0  0  0  0
  -30.0361  -17.2333   23.3683 C   0  0  0  0  0  0  0  0  0  0  0  0
  -20.4883   -5.6681   24.7327 C   0  0  0  0  0  0  0  0  0  0  0  0
  -23.8372  -10.4480   20.9166 C   0  0  0  0  0  0  0  0  0  0  0  0
  -24.1964  -12.9729   20.9772 C   0  0  0  0  0  0  0  0  0  0  0  0
  -32.5844  -30.5416   19.9987 C   0  0  0  0  0  0  0  0  0  0  0  0
  -27.8570  -25.4548   23.4884 C   0  0  0  0  0  0  0  0  0  0  0  0
  -31.2377  -30.2351   20.2724 C   0  0  0  0  0  0  0  0  0  0  0  0
  -27.2097  -24.4617   22.7350 C   0  0  0  0  0  0  0  0  0  0  0  0
  -32.8186  -17.2296   23.5692 C   0  0  0  0  0  0  0  0  0  0  0  0
  -30.7952  -16.4230   22.5240 C   0  0  0  0  0  0  0  0  0  0  0  0
  -22.3508   -8.1185   21.2997 C   0  0  0  0  0  0  0  0  0  0  0  0
  -26.3509  -23.4808   24.7706 C   0  0  0  0  0  0  0  0  0  0  0  0
  -20.9232   -6.8551   22.6738 C   0  0  0  0  0  0  0  0  0  0  0  0
  -30.6682  -18.0418   24.3130 C   0  0  0  0  0  0  0  0  0  0  0  0
  -19.5077   -6.6030   25.0645 C   0  0  0  0  0  0  0  0  0  0  0  0
  -21.1961   -5.7942   23.5373 C   0  0  0  0  0  0  0  0  0  0  0  0
  -24.6055  -11.6508   20.7191 C   0  0  0  0  0  0  0  0  0  0  0  0
  -25.2791  -13.7419   20.6270 C   0  0  0  0  0  0  0  0  0  0  0  0
  -22.9492  -13.4620   21.4880 C   0  0  0  0  0  0  0  0  0  0  0  0
  -29.3017  -27.0923   20.4375 C   0  0  0  0  0  0  0  0  0  0  0  0
  -27.8373  -19.7104   25.9918 C   0  0  0  0  0  0  0  0  0  0  0  0
  -29.5160  -24.0623   20.0086 C   0  0  0  0  0  0  0  0  0  0  0  0
  -30.3200  -21.0475   20.4177 C   0  0  0  0  0  0  0  0  0  0  0  0
  -30.7570  -14.7394   20.6505 C   0  0  0  0  0  0  0  0  0  0  0  0
  -33.3721  -29.7918   18.9537 C   0  0  0  0  0  0  0  0  0  0  0  0
  -28.5995  -26.5380   22.7541 C   0  0  0  0  0  0  0  0  0  0  0  0
  -27.3378  -24.5165   21.2372 C   0  0  0  0  0  0  0  0  0  0  0  0
  -32.7505  -28.4522   18.5673 C   0  0  0  0  0  0  0  0  0  0  0  0
  -29.5231  -12.5226   18.1524 C   0  0  0  0  0  0  0  0  0  0  0  0
  -31.2531  -28.6091   18.3226 C   0  0  0  0  0  0  0  0  0  0  0  0
  -28.1001  -12.2069   18.6187 C   0  0  0  0  0  0  0  0  0  0  0  0
  -30.4896  -12.6524   19.3283 C   0  0  0  0  0  0  0  0  0  0  0  0
  -28.6485  -13.2788   20.8407 C   0  0  0  0  0  0  0  0  0  0  0  0
  -30.5333  -29.0818   19.5914 C   0  0  1  0  0  0  0  0  0  0  0  0
  -29.3217  -26.0273   21.4944 C   0  0  1  0  0  0  0  0  0  0  0  0
  -27.6259  -13.2028   19.6953 C   0  0  2  0  0  0  0  0  0  0  0  0
  -34.3060  -17.2279   23.6767 C   0  0  0  0  0  0  0  0  0  0  0  0
  -30.9065  -18.7421   19.6187 C   0  0  0  0  0  0  0  0  0  0  0  0
  -27.0443  -24.1617   18.2240 C   0  0  0  0  0  0  0  0  0  0  0  0
  -27.5012  -21.7860   17.5797 C   0  0  0  0  0  0  0  0  0  0  0  0
  -29.1640  -23.5650   17.0386 C   0  0  0  0  0  0  0  0  0  0  0  0
  -32.9554  -21.1262   21.7620 C   0  0  0  0  0  0  0  0  0  0  0  0
  -26.3180  -19.7367   25.9326 C   0  0  0  0  0  0  0  0  0  0  0  0
  -28.5173  -18.7959   24.9917 C   0  0  0  0  0  0  0  0  0  0  0  0
  -25.6783  -20.6795   26.9469 C   0  0  0  0  0  0  0  0  0  0  0  0
  -26.0504  -22.1387   26.7112 C   0  0  0  0  0  0  0  0  0  1  0  0
  -28.8846  -22.8178   19.4377 C   0  0  1  0  0  0  0  0  0  0  0  0
  -31.4457  -20.0935   20.0612 C   0  0  2  0  0  0  0  0  0  0  0  0
  -28.1452  -23.0898   18.0973 C   0  0  0  0  0  0  0  0  0  0  0  0
  -25.8509  -11.5804   20.2416 N   0  0  0  0  0  0  0  0  0  0  0  0
  -26.2337  -12.8678   20.1968 N   0  0  0  0  0  0  0  0  0  0  0  0
  -28.7237  -24.8387   20.8630 N   0  0  0  0  0  0  0  0  0  0  0  0
  -29.9770  -13.6155   20.3054 N   0  0  0  0  0  0  0  0  0  0  0  0
  -25.4983  -15.0738   20.6480 N   0  0  0  0  0  0  0  0  0  0  0  0
  -21.9441  -12.5353   21.7967 N   0  0  0  0  0  0  0  0  0  0  0  0
  -30.1527  -15.6021   21.5644 N   0  0  0  0  0  0  0  0  0  0  0  0
  -30.3580  -27.9799   20.5132 N   0  0  0  0  0  0  0  0  0  0  0  0
  -29.9507  -21.8265   19.3415 N   0  0  0  0  0  0  0  0  0  0  0  0
  -32.3370  -19.8818   21.2366 N   0  3  0  0  0  0  0  0  0  0  0  0
  -22.7266  -14.6858   21.6500 O   0  0  0  0  0  0  0  0  0  0  0  0
  -28.3958  -27.1077   19.6124 O   0  0  0  0  0  0  0  0  0  0  0  0
  -28.4801  -20.3649   26.8110 O   0  0  0  0  0  0  0  0  0  0  0  0
  -30.6781  -24.3439   19.7025 O   0  0  0  0  0  0  0  0  0  0  0  0
  -29.8159  -21.0942   21.5376 O   0  0  0  0  0  0  0  0  0  0  0  0
  -31.8671  -14.9373   20.1499 O   0  0  0  0  0  0  0  0  0  0  0  0
  -21.6256   -6.9821   21.4871 O   0  0  0  0  0  0  0  0  0  0  0  0
  -29.9201  -18.8408   25.1450 O   0  0  0  0  0  0  0  0  0  0  0  0
  -25.6280  -22.5138   25.4007 O   0  0  0  0  0  0  0  0  0  1  0  0
  -18.8290   -6.4829   26.2130 F   0  0  0  0  0  0  0  0  0  0  0  0
  -22.1379   -4.8936   23.2245 F   0  0  0  0  0  0  0  0  0  0  0  0
  1  2  1  0  0  0  0
  1  5  2  0  0  0  0
  2  6  2  0  0  0  0
  3  8  2  0  0  0  0
  3 18  1  0  0  0  0
  4  9  1  0  0  0  0
  4 18  2  0  0  0  0
  5 20  1  0  0  0  0
  6 22  1  0  0  0  0
  7 10  2  0  0  0  0
  7 21  1  0  0  0  0
  8 26  1  0  0  0  0
  9 26  2  0  0  0  0
 10 27  1  0  0  0  0
 11 12  2  0  0  0  0
 11 28  1  0  0  0  0
 12 30  1  0  0  0  0
 13 23  1  0  0  0  0
 13 27  2  0  0  0  0
 14 24  1  0  0  0  0
 14 25  2  0  0  0  0
 15 24  2  0  0  0  0
 15 29  1  0  0  0  0
 16 25  1  0  0  0  0
 16 29  2  0  0  0  0
 17 30  2  0  0  0  0
 17 31  1  0  0  0  0
 18 32  1  0  0  0  0
 19 32  1  0  0  0  0
 19 33  2  0  0  0  0
 19 34  1  0  0  0  0
 20 22  2  0  0  0  0
 20 40  1  0  0  0  0
 21 23  2  0  0  0  0
 21 41  1  0  0  0  0
 22 49  1  0  0  0  0
 23 42  1  0  0  0  0
 24 52  1  0  0  0  0
 25 71  1  0  0  0  0
 26 81  1  0  0  0  0
 27 83  1  0  0  0  0
 28 31  2  0  0  0  0
 28 81  1  0  0  0  0
 29 82  1  0  0  0  0
 30 84  1  0  0  0  0
 31 85  1  0  0  0  0
 32 65  2  0  0  0  0
 33 66  1  0  0  0  0
 33 69  1  0  0  0  0
 34 70  1  0  0  0  0
 34 75  2  0  0  0  0
 35 50  1  0  0  0  0
 35 72  1  0  0  0  0
 35 76  2  0  0  0  0
 36 58  1  0  0  0  0
 36 59  1  0  0  0  0
 36 77  2  0  0  0  0
 37 62  1  0  0  0  0
 37 67  1  0  0  0  0
 37 78  2  0  0  0  0
 38 63  1  0  0  0  0
 38 73  1  0  0  0  0
 38 79  2  0  0  0  0
 39 68  1  0  0  0  0
 39 71  1  0  0  0  0
 39 80  2  0  0  0  0
 40 43  1  0  0  0  0
 41 50  1  0  0  0  0
 42 67  1  0  0  0  0
 43 45  1  0  0  0  0
 44 46  1  0  0  0  0
 44 47  1  0  0  0  0
 45 49  1  0  0  0  0
 46 51  1  0  0  0  0
 47 68  1  0  0  0  0
 48 51  1  0  0  0  0
 48 68  1  0  0  0  0
 49 72  1  0  0  0  0
 50 67  1  0  0  0  0
 51 66  1  0  0  0  0
 53 63  1  0  0  0  0
 54 64  1  0  0  0  0
 55 64  1  0  0  0  0
 56 64  1  0  0  0  0
 57 74  1  0  0  0  0
 58 60  1  0  0  0  0
 59 82  1  0  0  0  0
 60 61  1  0  0  0  0
 61 83  1  0  0  0  0
 62 64  1  0  0  0  0
 62 73  1  0  0  0  0
 63 74  1  0  0  0  0
 65 66  1  0  0  0  0
M  CHG  1  74   1
M  ISO  4  39 100  61 101  71 100  83 101
M  END
> <Batch ID>
0135

> <Smiles>
CNC(C)C(=O)NC(C(=O)N1Cc2cc([101O:1][101CH2:1]CCC(=O)COc3cc(C)cc([100NH:0][100C:0](=O)N4CCCC(n5nc(-c6ccc(Oc7ccc(F)cc7F)cc6)c(C(N)=O)c5N)C4)c3)ccc2CC1C(=O)NC1CCCc2ccccc21)C(C)(C)C

> <Shape>
0.245

> <Color>
0.216

> <Negative vol penalty>
0.000

$$$$

  -OEChem-04052302363D

 87 95  0     1  0  0  0  0  0999 V2000
  -26.0791  -30.9569   24.6471 C   0  0  0  0  0  0  0  0  0  0  0  0
  -26.5776  -29.6730   24.4513 C   0  0  0  0  0  0  0  0  0  0  0  0
  -20.2595  -23.9290   18.1923 C   0  0  0  0  0  0  0  0  0  0  0  0
  -21.6469  -24.0152   20.1683 C   0  0  0  0  0  0  0  0  0  0  0  0
  -25.4357  -31.6204   23.6032 C   0  0  0  0  0  0  0  0  0  0  0  0
  -26.4319  -29.0512   23.2117 C   0  0  0  0  0  0  0  0  0  0  0  0
  -30.3820  -25.2159   20.5298 C   0  0  0  0  0  0  0  0  0  0  0  0
  -19.7278  -25.1785   18.5111 C   0  0  0  0  0  0  0  0  0  0  0  0
  -21.1153  -25.2647   20.4871 C   0  0  0  0  0  0  0  0  0  0  0  0
  -30.4308  -23.8249   20.4490 C   0  0  0  0  0  0  0  0  0  0  0  0
  -18.2849  -26.4875   21.8745 C   0  0  0  0  0  0  0  0  0  0  0  0
  -17.9051  -26.7117   23.1977 C   0  0  0  0  0  0  0  0  0  0  0  0
  -29.3417  -23.9177   18.2985 C   0  0  0  0  0  0  0  0  0  0  0  0
  -27.5894  -13.8952   21.8331 C   0  0  0  0  0  0  0  0  0  0  0  0
  -25.1896  -14.1059   21.6490 C   0  0  0  0  0  0  0  0  0  0  0  0
  -19.4790  -28.5392   23.3398 C   0  0  0  0  0  0  0  0  0  0  0  0
  -21.2190  -23.3473   19.0210 C   0  0  0  0  0  0  0  0  0  0  0  0
  -22.9052  -21.7914   17.9059 C   0  0  0  0  0  0  0  0  0  0  0  0
  -25.2906  -31.0102   22.3473 C   0  0  0  0  0  0  0  0  0  0  0  0
  -29.8020  -25.9689   19.4988 C   0  0  0  0  0  0  0  0  0  0  0  0
  -25.7847  -29.7066   22.1504 C   0  0  0  0  0  0  0  0  0  0  0  0
  -29.2892  -25.3183   18.3675 C   0  0  0  0  0  0  0  0  0  0  0  0
  -27.7508  -14.9819   20.9737 C   0  0  0  0  0  0  0  0  0  0  0  0
  -26.6316  -15.6306   20.4520 C   0  0  0  0  0  0  0  0  0  0  0  0
  -25.3510  -15.1926   20.7896 C   0  0  0  0  0  0  0  0  0  0  0  0
  -20.1557  -25.8464   19.6585 C   0  0  0  0  0  0  0  0  0  0  0  0
  -29.9080  -23.1754   19.3345 C   0  0  0  0  0  0  0  0  0  0  0  0
  -19.2618  -27.2891   21.2839 C   0  0  0  0  0  0  0  0  0  0  0  0
  -18.5021  -27.7376   23.9304 C   0  0  0  0  0  0  0  0  0  0  0  0
  -26.3088  -13.4571   22.1707 C   0  0  0  0  0  0  0  0  0  0  0  0
  -19.8588  -28.3150   22.0165 C   0  0  0  0  0  0  0  0  0  0  0  0
  -21.7682  -22.0563   18.6925 C   0  0  0  0  0  0  0  0  0  0  0  0
  -23.0048  -20.4215   17.8967 C   0  0  0  0  0  0  0  0  0  0  0  0
  -23.7922  -22.7021   17.2428 C   0  0  0  0  0  0  0  0  0  0  0  0
  -27.3243  -27.9489   19.2880 C   0  0  0  0  0  0  0  0  0  0  0  0
  -30.5063  -19.6234   20.1187 C   0  0  0  0  0  0  0  0  0  0  0  0
  -28.4472  -28.4105   16.2800 C   0  0  0  0  0  0  0  0  0  0  0  0
  -30.2604  -27.2123   13.6487 C   0  0  0  0  0  0  0  0  0  0  0  0
  -22.8669  -15.5102   20.5164 C   0  0  0  0  0  0  0  0  0  0  0  0
  -24.5459  -31.7484   21.2632 C   0  0  0  0  0  0  0  0  0  0  0  0
  -29.7812  -27.4701   19.5890 C   0  0  0  0  0  0  0  0  0  0  0  0
  -28.6740  -26.0819   17.2243 C   0  0  0  0  0  0  0  0  0  0  0  0
  -24.7638  -31.1657   19.8692 C   0  0  0  0  0  0  0  0  0  0  0  0
  -19.7518  -16.8719   19.4586 C   0  0  0  0  0  0  0  0  0  0  0  0
  -24.6176  -29.6475   19.8965 C   0  0  0  0  0  0  0  0  0  0  0  0
  -20.0922  -18.3203   19.1003 C   0  0  0  0  0  0  0  0  0  0  0  0
  -20.5462  -16.3854   20.6694 C   0  0  0  0  0  0  0  0  0  0  0  0
  -22.3411  -18.0093   20.2105 C   0  0  0  0  0  0  0  0  0  0  0  0
  -25.6680  -29.0085   20.8128 C   0  0  1  0  0  0  0  0  0  0  0  0
  -28.7045  -28.1064   18.7153 C   0  0  1  0  0  0  0  0  0  0  0  0
  -21.6134  -18.5228   18.9574 C   0  0  2  0  0  0  0  0  0  0  0  0
  -26.8093  -16.7964   19.5302 C   0  0  0  0  0  0  0  0  0  0  0  0
  -30.9663  -27.7988   11.3131 C   0  0  0  0  0  0  0  0  0  0  0  0
  -32.0389  -16.4924   21.7880 C   0  0  0  0  0  0  0  0  0  0  0  0
  -25.6521  -27.7260   15.2659 C   0  0  0  0  0  0  0  0  0  0  0  0
  -26.6352  -27.3968   12.9870 C   0  0  0  0  0  0  0  0  0  0  0  0
  -26.7526  -29.6347   14.0827 C   0  0  0  0  0  0  0  0  0  0  0  0
  -33.1283  -27.1576   14.3775 C   0  0  0  0  0  0  0  0  0  0  0  0
  -29.1460  -15.4358   20.6267 C   0  0  0  0  0  0  0  0  0  0  0  0
  -31.1053  -18.7688   21.2274 C   0  0  0  0  0  0  0  0  0  0  0  0
  -30.5516  -21.1216   20.3462 C   0  0  0  0  0  0  0  0  0  1  0  0
  -29.5823  -16.7177   21.3505 C   0  0  0  0  0  0  0  0  0  0  0  0
  -28.2130  -27.7571   14.9394 C   0  0  1  0  0  0  0  0  0  0  0  0
  -31.3325  -27.8558   12.7880 C   0  0  2  0  0  0  0  0  0  0  0  0
  -30.9820  -17.2560   20.9761 C   0  0  2  0  0  0  0  0  0  0  0  0
  -26.8230  -28.1138   14.3410 C   0  0  0  0  0  0  0  0  0  0  0  0
  -21.1870  -20.9441   19.1498 N   0  0  0  0  0  0  0  0  0  0  0  0
  -21.9618  -19.9669   18.6488 N   0  0  0  0  0  0  0  0  0  0  0  0
  -28.6716  -27.5477   17.3622 N   0  0  0  0  0  0  0  0  0  0  0  0
  -21.9790  -16.6053   20.4607 N   0  0  0  0  0  0  0  0  0  0  0  0
  -23.8819  -19.5735   17.3188 N   0  0  0  0  0  0  0  0  0  0  0  0
  -23.5448  -24.0770   17.3556 N   0  0  0  0  0  0  0  0  0  0  0  0
  -24.2003  -15.8358   20.2701 N   0  0  0  0  0  0  0  0  0  0  0  0
  -26.9545  -28.9624   20.1515 N   0  0  0  0  0  0  0  0  0  0  0  0
  -29.3417  -28.1377   14.0970 N   0  0  0  0  0  0  0  0  0  0  0  0
  -32.6358  -27.1578   12.9759 N   0  3  0  0  0  0  0  0  0  0  0  0
  -24.7654  -22.3077   16.5567 O   0  0  0  0  0  0  0  0  0  0  0  0
  -26.6446  -26.9805   18.9689 O   0  0  0  0  0  0  0  0  0  0  0  0
  -29.9819  -19.1367   19.1181 O   0  0  0  0  0  0  0  0  0  0  0  0
  -28.4388  -29.6412   16.3626 O   0  0  0  0  0  0  0  0  0  0  0  0
  -30.2378  -26.0085   13.8953 O   0  0  0  0  0  0  0  0  0  0  0  0
  -22.4696  -14.3633   20.7375 O   0  0  0  0  0  0  0  0  0  0  0  0
  -19.6373  -27.0657   19.9698 O   0  0  0  0  0  0  0  0  0  0  0  0
  -29.9538  -21.8178   19.2534 O   0  0  0  0  0  0  0  0  0  1  0  0
  -18.1362  -27.9538   25.2007 F   0  0  0  0  0  0  0  0  0  0  0  0
  -26.1537  -12.4121   22.9943 F   0  0  0  0  0  0  0  0  0  0  0  0
  -20.7971  -29.0891   21.4542 F   0  0  0  0  0  0  0  0  0  0  0  0
  1  2  1  0  0  0  0
  1  5  2  0  0  0  0
  2  6  2  0  0  0  0
  3  8  2  0  0  0  0
  3 17  1  0  0  0  0
  4  9  1  0  0  0  0
  4 17  2  0  0  0  0
  5 19  1  0  0  0  0
  6 21  1  0  0  0  0
  7 10  2  0  0  0  0
  7 20  1  0  0  0  0
  8 26  1  0  0  0  0
  9 26  2  0  0  0  0
 10 27  1  0  0  0  0
 11 12  2  0  0  0  0
 11 28  1  0  0  0  0
 12 29  1  0  0  0  0
 13 22  1  0  0  0  0
 13 27  2  0  0  0  0
 14 23  1  0  0  0  0
 14 30  2  0  0  0  0
 15 25  2  0  0  0  0
 15 30  1  0  0  0  0
 16 29  2  0  0  0  0
 16 31  1  0  0  0  0
 17 32  1  0  0  0  0
 18 32  1  0  0  0  0
 18 33  2  0  0  0  0
 18 34  1  0  0  0  0
 19 21  2  0  0  0  0
 19 40  1  0  0  0  0
 20 22  2  0  0  0  0
 20 41  1  0  0  0  0
 21 49  1  0  0  0  0
 22 42  1  0  0  0  0
 23 24  2  0  0  0  0
 23 59  1  0  0  0  0
 24 25  1  0  0  0  0
 24 52  1  0  0  0  0
 25 73  1  0  0  0  0
 26 83  1  0  0  0  0
 27 84  1  0  0  0  0
 28 31  2  0  0  0  0
 28 83  1  0  0  0  0
 29 85  1  0  0  0  0
 30 86  1  0  0  0  0
 31 87  1  0  0  0  0
 32 67  2  0  0  0  0
 33 68  1  0  0  0  0
 33 71  1  0  0  0  0
 34 72  1  0  0  0  0
 34 77  2  0  0  0  0
 35 50  1  0  0  0  0
 35 74  1  0  0  0  0
 35 78  2  0  0  0  0
 36 60  1  0  0  0  0
 36 61  1  0  0  0  0
 36 79  2  0  0  0  0
 37 63  1  0  0  0  0
 37 69  1  0  0  0  0
 37 80  2  0  0  0  0
 38 64  1  0  0  0  0
 38 75  1  0  0  0  0
 38 81  2  0  0  0  0
 39 70  1  0  0  0  0
 39 73  1  0  0  0  0
 39 82  2  0  0  0  0
 40 43  1  0  0  0  0
 41 50  1  0  0  0  0
 42 69  1  0  0  0  0
 43 45  1  0  0  0  0
 44 46  1  0  0  0  0
 44 47  1  0  0  0  0
 45 49  1  0  0  0  0
 46 51  1  0  0  0  0
 47 70  1  0  0  0  0
 48 51  1  0  0  0  0
 48 70  1  0  0  0  0
 49 74  1  0  0  0  0
 50 69  1  0  0  0  0
 51 68  1  0  0  0  0
 53 64  1  0  0  0  0
 54 65  1  0  0  0  0
 55 66  1  0  0  0  0
 56 66  1  0  0  0  0
 57 66  1  0  0  0  0
 58 76  1  0  0  0  0
 59 62  1  0  0  0  0
 60 65  1  0  0  0  0
 61 84  1  0  0  0  0
 62 65  1  0  0  0  0
 63 66  1  0  0  0  0
 63 75  1  0  0  0  0
 64 76  1  0  0  0  0
 67 68  1  0  0  0  0
M  CHG  1  76   1
M  ISO  4  39 100  61 101  73 100  84 101
M  END
> <Batch ID>
0135

> <Smiles>
CNC(C)C(=O)NC(C(=O)N1Cc2cc([101O:1][101CH2:1]C(=O)CC(C)CCc3cc(F)cc([100NH:0][100C:0](=O)N4CCCC(n5nc(-c6ccc(Oc7ccc(F)cc7F)cc6)c(C(N)=O)c5N)C4)c3C)ccc2CC1C(=O)NC1CCCc2ccccc21)C(C)(C)C

> <Shape>
0.219

> <Color>
0.055

> <Negative vol penalty>
0.000

$$$$

  -OEChem-04052302363D

 86 95  0     1  0  0  0  0  0999 V2000
  -29.4700  -23.2950   18.5711 C   0  0  0  0  0  0  0  0  0  0  0  0
  -28.2356  -23.4764   19.1866 C   0  0  0  0  0  0  0  0  0  0  0  0
  -28.3164  -14.5841   20.9077 C   0  0  0  0  0  0  0  0  0  0  0  0
  -26.1499  -15.5405   20.4294 C   0  0  0  0  0  0  0  0  0  0  0  0
  -30.5693  -24.0485   18.9806 C   0  0  0  0  0  0  0  0  0  0  0  0
  -28.1001  -24.4109   20.2127 C   0  0  0  0  0  0  0  0  0  0  0  0
  -23.9329  -27.2459   19.7206 C   0  0  0  0  0  0  0  0  0  0  0  0
  -27.7579  -13.3063   20.8823 C   0  0  0  0  0  0  0  0  0  0  0  0
  -25.5914  -14.2626   20.4040 C   0  0  0  0  0  0  0  0  0  0  0  0
  -22.7213  -26.6677   20.0970 C   0  0  0  0  0  0  0  0  0  0  0  0
  -24.5721  -11.9442   22.6439 C   0  0  0  0  0  0  0  0  0  0  0  0
  -23.3656  -11.7508   23.3165 C   0  0  0  0  0  0  0  0  0  0  0  0
  -24.7092  -23.1302   25.9163 C   0  0  0  0  0  0  0  0  0  0  0  0
  -22.3823  -23.5975   25.4649 C   0  0  0  0  0  0  0  0  0  0  0  0
  -22.8227  -27.8403   22.2027 C   0  0  0  0  0  0  0  0  0  0  0  0
  -23.7572  -22.5613   23.7699 C   0  0  0  0  0  0  0  0  0  0  0  0
  -22.3177  -11.0824   21.2448 C   0  0  0  0  0  0  0  0  0  0  0  0
  -27.5124  -15.7013   20.6813 C   0  0  0  0  0  0  0  0  0  0  0  0
  -28.6405  -17.7304   19.6240 C   0  0  0  0  0  0  0  0  0  0  0  0
  -30.4449  -24.9995   20.0057 C   0  0  0  0  0  0  0  0  0  0  0  0
  -24.6050  -28.1186   20.5884 C   0  0  0  0  0  0  0  0  0  0  0  0
  -29.1991  -25.1769   20.6372 C   0  0  0  0  0  0  0  0  0  0  0  0
  -23.4753  -23.6314   26.3308 C   0  0  0  0  0  0  0  0  0  0  0  0
  -24.0413  -28.4302   21.8339 C   0  0  0  0  0  0  0  0  0  0  0  0
  -24.8502  -22.5952   24.6358 C   0  0  0  0  0  0  0  0  0  0  0  0
  -26.3954  -13.1455   20.6304 C   0  0  0  0  0  0  0  0  0  0  0  0
  -22.1675  -26.9626   21.3393 C   0  0  0  0  0  0  0  0  0  0  0  0
  -24.6514  -11.7069   21.2716 C   0  0  0  0  0  0  0  0  0  0  0  0
  -22.5232  -23.0624   24.1845 C   0  0  0  0  0  0  0  0  0  0  0  0
  -22.2384  -11.3199   22.6170 C   0  0  0  0  0  0  0  0  0  0  0  0
  -23.5242  -11.2759   20.5721 C   0  0  0  0  0  0  0  0  0  0  0  0
  -28.0886  -17.0217   20.7079 C   0  0  0  0  0  0  0  0  0  0  0  0
  -29.0473  -18.9250   20.1662 C   0  0  0  0  0  0  0  0  0  0  0  0
  -28.7736  -17.3435   18.2498 C   0  0  0  0  0  0  0  0  0  0  0  0
  -27.4282  -28.0965   22.0488 C   0  0  0  0  0  0  0  0  0  0  0  0
  -26.5568  -31.0932   22.9336 C   0  0  0  0  0  0  0  0  0  0  0  0
  -24.0431  -33.3294   23.5060 C   0  0  0  0  0  0  0  0  0  0  0  0
  -27.2889  -22.0465   24.9484 C   0  0  0  0  0  0  0  0  0  0  0  0
  -31.6726  -25.7568   20.4462 C   0  0  0  0  0  0  0  0  0  0  0  0
  -25.8977  -28.7549   20.1567 C   0  0  0  0  0  0  0  0  0  0  0  0
  -24.7130  -29.3768   22.7938 C   0  0  0  0  0  0  0  0  0  0  0  0
  -31.3575  -26.9922   21.2858 C   0  0  0  0  0  0  0  0  0  0  0  0
  -30.5729  -20.8438   24.2802 C   0  0  0  0  0  0  0  0  0  0  0  0
  -22.7987  -25.6073   27.8514 C   0  0  0  0  0  0  0  0  0  0  0  0
  -24.2400  -25.3182   28.1331 C   0  0  0  0  0  0  0  0  0  0  0  0
  -30.3292  -26.6583   22.3618 C   0  0  0  0  0  0  0  0  0  0  0  0
  -30.3594  -19.7960   23.1854 C   0  0  0  0  0  0  0  0  0  0  0  0
  -29.4336  -20.8408   25.2979 C   0  0  0  0  0  0  0  0  0  0  0  0
  -27.8743  -19.9178   23.6288 C   0  0  0  0  0  0  0  0  0  0  0  0
  -23.3242  -24.2034   27.6985 C   0  0  0  0  0  0  0  0  0  0  0  0
  -29.0064  -26.1984   21.7369 C   0  0  1  0  0  0  0  0  0  0  0  0
  -26.7513  -29.2285   21.3291 C   0  0  1  0  0  0  0  0  0  0  0  0
  -28.9640  -19.9271   22.5442 C   0  0  2  0  0  0  0  0  0  0  0  0
  -17.6153  -25.2789   21.1493 C   0  0  0  0  0  0  0  0  0  0  0  0
  -23.6393  -35.6895   24.2573 C   0  0  0  0  0  0  0  0  0  0  0  0
  -27.1065  -30.2663   25.8187 C   0  0  0  0  0  0  0  0  0  0  0  0
  -25.8114  -32.2738   26.5675 C   0  0  0  0  0  0  0  0  0  0  0  0
  -27.8932  -32.5646   25.2243 C   0  0  0  0  0  0  0  0  0  0  0  0
  -22.7695  -34.0530   20.9344 C   0  0  0  0  0  0  0  0  0  0  0  0
  -18.4334  -25.0261   22.4078 C   0  0  0  0  0  0  0  0  0  0  0  0
  -20.6877  -25.1076   21.1804 C   0  0  0  0  0  0  0  0  0  1  0  0
  -20.4814  -24.0598   23.4830 C   0  0  0  0  0  0  0  0  0  0  0  0
  -25.8054  -31.6875   24.1003 C   0  0  1  0  0  0  0  0  0  0  0  0
  -23.8570  -34.7702   23.0655 C   0  0  2  0  0  0  0  0  0  0  0  0
  -19.7788  -24.3225   22.1407 C   0  0  1  0  0  0  0  0  0  0  0  0
  -26.6422  -31.6787   25.4106 C   0  0  0  0  0  0  0  0  0  0  0  0
  -28.1387  -17.7087   21.8523 N   0  0  0  0  0  0  0  0  0  0  0  0
  -28.7270  -18.8615   21.4904 N   0  0  0  0  0  0  0  0  0  0  0  0
  -25.9782  -29.9685   22.3285 N   0  0  0  0  0  0  0  0  0  0  0  0
  -28.1429  -20.9728   24.6185 N   0  0  0  0  0  0  0  0  0  0  0  0
  -29.6441  -20.0129   19.6347 N   0  0  0  0  0  0  0  0  0  0  0  0
  -28.3029  -16.0815   17.8625 N   0  0  0  0  0  0  0  0  0  0  0  0
  -26.1041  -22.0874   24.2143 N   0  0  0  0  0  0  0  0  0  0  0  0
  -28.2568  -27.3352   21.2468 N   0  0  0  0  0  0  0  0  0  0  0  0
  -25.3750  -33.0150   23.6750 N   0  0  0  0  0  0  0  0  0  0  0  0
  -22.6788  -34.8870   22.1604 N   0  3  0  0  0  0  0  0  0  0  0  0
  -29.3094  -18.0881   17.3942 O   0  0  0  0  0  0  0  0  0  0  0  0
  -27.2156  -27.9272   23.2438 O   0  0  0  0  0  0  0  0  0  0  0  0
  -27.6145  -31.6122   22.5680 O   0  0  0  0  0  0  0  0  0  0  0  0
  -23.1011  -32.5609   23.6860 O   0  0  0  0  0  0  0  0  0  0  0  0
  -27.5990  -22.8845   25.7990 O   0  0  0  0  0  0  0  0  0  0  0  0
  -25.8501  -11.8986   20.6053 O   0  0  0  0  0  0  0  0  0  0  0  0
  -20.9854  -26.3990   21.7093 O   0  0  0  0  0  0  0  0  0  1  0  0
  -21.4501  -23.0301   23.3327 O   0  0  0  0  0  0  0  0  0  0  0  0
  -21.0803  -11.1327   23.2634 F   0  0  0  0  0  0  0  0  0  0  0  0
  -23.5945  -11.0451   19.2539 F   0  0  0  0  0  0  0  0  0  0  0  0
  1  2  1  0  0  0  0
  1  5  2  0  0  0  0
  2  6  2  0  0  0  0
  3  8  2  0  0  0  0
  3 18  1  0  0  0  0
  4  9  1  0  0  0  0
  4 18  2  0  0  0  0
  5 20  1  0  0  0  0
  6 22  1  0  0  0  0
  7 10  2  0  0  0  0
  7 21  1  0  0  0  0
  8 26  1  0  0  0  0
  9 26  2  0  0  0  0
 10 27  1  0  0  0  0
 11 12  2  0  0  0  0
 11 28  1  0  0  0  0
 12 30  1  0  0  0  0
 13 23  2  0  0  0  0
 13 25  1  0  0  0  0
 14 23  1  0  0  0  0
 14 29  2  0  0  0  0
 15 24  1  0  0  0  0
 15 27  2  0  0  0  0
 16 25  2  0  0  0  0
 16 29  1  0  0  0  0
 17 30  2  0  0  0  0
 17 31  1  0  0  0  0
 18 32  1  0  0  0  0
 19 32  1  0  0  0  0
 19 33  2  0  0  0  0
 19 34  1  0  0  0  0
 20 22  2  0  0  0  0
 20 39  1  0  0  0  0
 21 24  2  0  0  0  0
 21 40  1  0  0  0  0
 22 51  1  0  0  0  0
 23 50  1  0  0  0  0
 24 41  1  0  0  0  0
 25 73  1  0  0  0  0
 26 82  1  0  0  0  0
 27 83  1  0  0  0  0
 28 31  2  0  0  0  0
 28 82  1  0  0  0  0
 29 84  1  0  0  0  0
 30 85  1  0  0  0  0
 31 86  1  0  0  0  0
 32 67  2  0  0  0  0
 33 68  1  0  0  0  0
 33 71  1  0  0  0  0
 34 72  1  0  0  0  0
 34 77  2  0  0  0  0
 35 52  1  0  0  0  0
 35 74  1  0  0  0  0
 35 78  2  0  0  0  0
 36 63  1  0  0  0  0
 36 69  1  0  0  0  0
 36 79  2  0  0  0  0
 37 64  1  0  0  0  0
 37 75  1  0  0  0  0
 37 80  2  0  0  0  0
 38 70  1  0  0  0  0
 38 73  1  0  0  0  0
 38 81  2  0  0  0  0
 39 42  1  0  0  0  0
 40 52  1  0  0  0  0
 41 69  1  0  0  0  0
 42 46  1  0  0  0  0
 43 47  1  0  0  0  0
 43 48  1  0  0  0  0
 44 45  1  0  0  0  0
 44 50  1  0  0  0  0
 45 50  1  0  0  0  0
 46 51  1  0  0  0  0
 47 53  1  0  0  0  0
 48 70  1  0  0  0  0
 49 53  1  0  0  0  0
 49 70  1  0  0  0  0
 51 74  1  0  0  0  0
 52 69  1  0  0  0  0
 53 68  1  0  0  0  0
 54 60  1  0  0  0  0
 55 64  1  0  0  0  0
 56 66  1  0  0  0  0
 57 66  1  0  0  0  0
 58 66  1  0  0  0  0
 59 76  1  0  0  0  0
 60 65  1  0  0  0  0
 61 65  1  0  0  0  0
 61 83  1  0  0  0  0
 62 65  1  0  0  0  0
 62 84  1  0  0  0  0
 63 66  1  0  0  0  0
 63 75  1  0  0  0  0
 64 76  1  0  0  0  0
 67 68  1  0  0  0  0
M  CHG  1  76   1
M  ISO  4  38 100  61 101  73 100  83 101
M  END
> <Batch ID>
0135

> <Smiles>
CCC(COc1cc([100NH:0][100C:0](=O)N2CCCC(n3nc(-c4ccc(Oc5ccc(F)cc5F)cc4)c(C(N)=O)c3N)C2)cc(C2CC2)c1)[101CH2:1][101O:1]c1ccc2c(c1)CN(C(=O)C(NC(=O)C(C)NC)C(C)(C)C)C(C(=O)NC1CCCc3ccccc31)C2

> <Shape>
0.262

> <Color>
0.070

> <Negative vol penalty>
0.000

$$$$

  -OEChem-04052302363D

 84 92  0     1  0  0  0  0  0999 V2000
  -19.2211  -27.0120   26.2442 C   0  0  0  0  0  0  0  0  0  0  0  0
  -20.6074  -27.0705   26.1430 C   0  0  0  0  0  0  0  0  0  0  0  0
  -26.6754  -12.8957   20.7957 C   0  0  0  0  0  0  0  0  0  0  0  0
  -25.3433  -14.6532   19.8088 C   0  0  0  0  0  0  0  0  0  0  0  0
  -18.4394  -26.9889   25.0899 C   0  0  0  0  0  0  0  0  0  0  0  0
  -21.2128  -27.1047   24.8873 C   0  0  0  0  0  0  0  0  0  0  0  0
  -26.3253  -30.1034   23.3460 C   0  0  0  0  0  0  0  0  0  0  0  0
  -25.5204  -12.3134   21.3178 C   0  0  0  0  0  0  0  0  0  0  0  0
  -24.1883  -14.0708   20.3308 C   0  0  0  0  0  0  0  0  0  0  0  0
  -27.6502  -29.6908   23.2106 C   0  0  0  0  0  0  0  0  0  0  0  0
  -22.9827  -10.3783   20.2005 C   0  0  0  0  0  0  0  0  0  0  0  0
  -22.8377   -8.9971   20.0710 C   0  0  0  0  0  0  0  0  0  0  0  0
  -27.3148  -29.4129   20.8380 C   0  0  0  0  0  0  0  0  0  0  0  0
  -27.8342  -24.5453   20.4245 C   0  0  0  0  0  0  0  0  0  0  0  0
  -27.9985  -22.3340   19.4654 C   0  0  0  0  0  0  0  0  0  0  0  0
  -29.5590  -23.0286   21.1739 C   0  0  0  0  0  0  0  0  0  0  0  0
  -22.7397   -8.7819   22.4754 C   0  0  0  0  0  0  0  0  0  0  0  0
  -26.5868  -14.0656   20.0412 C   0  0  0  0  0  0  0  0  0  0  0  0
  -28.3696  -14.4122   18.2498 C   0  0  0  0  0  0  0  0  0  0  0  0
  -19.0352  -27.0327   23.8196 C   0  0  0  0  0  0  0  0  0  0  0  0
  -25.4808  -30.1636   22.2281 C   0  0  0  0  0  0  0  0  0  0  0  0
  -20.4384  -27.0808   23.7150 C   0  0  0  0  0  0  0  0  0  0  0  0
  -25.9804  -29.8291   20.9614 C   0  0  0  0  0  0  0  0  0  0  0  0
  -27.3688  -23.5767   19.5353 C   0  0  0  0  0  0  0  0  0  0  0  0
  -28.9294  -24.2712   21.2439 C   0  0  0  0  0  0  0  0  0  0  0  0
  -29.0936  -22.0599   20.2847 C   0  0  0  0  0  0  0  0  0  0  0  0
  -24.2769  -12.9009   21.0853 C   0  0  0  0  0  0  0  0  0  0  0  0
  -28.1443  -29.3426   21.9569 C   0  0  0  0  0  0  0  0  0  0  0  0
  -23.0063  -10.9614   21.4675 C   0  0  0  0  0  0  0  0  0  0  0  0
  -22.7161   -8.1989   21.2084 C   0  0  0  0  0  0  0  0  0  0  0  0
  -22.8848  -10.1631   22.6049 C   0  0  0  0  0  0  0  0  0  0  0  0
  -27.7796  -14.6680   19.5021 C   0  0  0  0  0  0  0  0  0  0  0  0
  -29.4723  -15.2304   18.2163 C   0  0  0  0  0  0  0  0  0  0  0  0
  -27.9577  -13.5154   17.2098 C   0  0  0  0  0  0  0  0  0  0  0  0
  -22.7845  -28.7135   21.3733 C   0  0  0  0  0  0  0  0  0  0  0  0
  -22.9163  -30.7876   18.8827 C   0  0  0  0  0  0  0  0  0  0  0  0
  -24.8188  -32.7857   16.8740 C   0  0  0  0  0  0  0  0  0  0  0  0
  -30.8312  -20.3639   20.9560 C   0  0  0  0  0  0  0  0  0  0  0  0
  -18.1509  -26.9578   22.6001 C   0  0  0  0  0  0  0  0  0  0  0  0
  -24.0617  -30.6363   22.3868 C   0  0  0  0  0  0  0  0  0  0  0  0
  -25.1204  -29.8960   19.7267 C   0  0  0  0  0  0  0  0  0  0  0  0
  -18.8542  -27.3753   21.3112 C   0  0  0  0  0  0  0  0  0  0  0  0
  -32.6735  -17.3205   21.1004 C   0  0  0  0  0  0  0  0  0  0  0  0
  -20.2246  -26.7127   21.2121 C   0  0  0  0  0  0  0  0  0  0  0  0
  -31.6833  -16.2726   20.5872 C   0  0  0  0  0  0  0  0  0  0  0  0
  -31.9806  -18.3925   21.9397 C   0  0  0  0  0  0  0  0  0  0  0  0
  -29.8442  -17.9953   20.7790 C   0  0  0  0  0  0  0  0  0  0  0  0
  -21.1312  -27.1444   22.3710 C   0  0  1  0  0  0  0  0  0  0  0  0
  -23.1462  -30.1674   21.2601 C   0  0  1  0  0  0  0  0  0  0  0  0
  -30.4855  -16.9305   19.8744 C   0  0  2  0  0  0  0  0  0  0  0  0
  -26.1980  -23.8698   18.6592 C   0  0  0  0  0  0  0  0  0  0  0  0
  -24.6502  -34.3277   14.9014 C   0  0  0  0  0  0  0  0  0  0  0  0
  -22.6545  -28.3802   17.0264 C   0  0  0  0  0  0  0  0  0  0  0  0
  -23.4360  -29.8345   15.1443 C   0  0  0  0  0  0  0  0  0  0  0  0
  -21.3151  -30.3775   16.3399 C   0  0  0  0  0  0  0  0  0  0  0  0
  -32.2275  -28.0702   21.7259 C   0  0  0  0  0  0  0  0  0  0  0  0
  -31.7488  -26.6488   23.7353 C   0  0  0  0  0  0  0  0  0  0  0  0
  -25.8151  -35.0893   18.4425 C   0  0  0  0  0  0  0  0  0  0  0  0
  -29.4329  -25.3197   22.2064 C   0  0  0  0  0  0  0  0  0  0  0  0
  -30.4996  -26.2106   21.5546 C   0  0  0  0  0  0  0  0  0  0  0  0
  -30.0290  -28.2732   22.9368 C   0  0  0  0  0  0  0  0  0  1  0  0
  -23.5269  -30.7632   17.5023 C   0  0  1  0  0  0  0  0  0  0  0  0
  -24.6360  -34.2222   16.4184 C   0  0  2  0  0  0  0  0  0  0  0  0
  -22.7490  -29.8356   16.5266 C   0  0  0  0  0  0  0  0  0  0  0  0
  -31.1338  -27.2896   22.4785 C   0  0  0  0  0  0  0  0  0  0  0  0
  -28.4518  -15.5773   20.2128 N   0  0  0  0  0  0  0  0  0  0  0  0
  -29.4758  -15.9001   19.4044 N   0  0  0  0  0  0  0  0  0  0  0  0
  -23.7381  -30.3582   19.9344 N   0  0  0  0  0  0  0  0  0  0  0  0
  -30.8593  -18.9742   21.1987 N   0  0  0  0  0  0  0  0  0  0  0  0
  -30.4296  -15.4351   17.2868 N   0  0  0  0  0  0  0  0  0  0  0  0
  -26.8012  -12.7488   17.4078 N   0  0  0  0  0  0  0  0  0  0  0  0
  -29.7332  -20.7975   20.2138 N   0  0  0  0  0  0  0  0  0  0  0  0
  -21.6566  -28.4719   22.1343 N   0  0  0  0  0  0  0  0  0  0  0  0
  -23.6089  -32.1534   17.0676 N   0  0  0  0  0  0  0  0  0  0  0  0
  -25.7279  -35.0801   16.9595 N   0  3  0  0  0  0  0  0  0  0  0  0
  -28.6055  -13.3852   16.1435 O   0  0  0  0  0  0  0  0  0  0  0  0
  -23.4765  -27.8731   20.8106 O   0  0  0  0  0  0  0  0  0  0  0  0
  -21.7554  -31.1801   19.0237 O   0  0  0  0  0  0  0  0  0  0  0  0
  -25.9244  -32.2745   17.0380 O   0  0  0  0  0  0  0  0  0  0  0  0
  -31.7300  -21.1102   21.3525 O   0  0  0  0  0  0  0  0  0  0  0  0
  -23.1496  -12.3329   21.5944 O   0  0  0  0  0  0  0  0  0  0  0  0
  -29.4368  -28.9389   21.8221 O   0  0  0  0  0  0  0  0  0  1  0  0
  -22.5753   -6.8727   21.0838 F   0  0  0  0  0  0  0  0  0  0  0  0
  -22.9056  -10.7176   23.8247 F   0  0  0  0  0  0  0  0  0  0  0  0
  1  2  1  0  0  0  0
  1  5  2  0  0  0  0
  2  6  2  0  0  0  0
  3  8  2  0  0  0  0
  3 18  1  0  0  0  0
  4  9  1  0  0  0  0
  4 18  2  0  0  0  0
  5 20  1  0  0  0  0
  6 22  1  0  0  0  0
  7 10  2  0  0  0  0
  7 21  1  0  0  0  0
  8 27  1  0  0  0  0
  9 27  2  0  0  0  0
 10 28  1  0  0  0  0
 11 12  2  0  0  0  0
 11 29  1  0  0  0  0
 12 30  1  0  0  0  0
 13 23  1  0  0  0  0
 13 28  2  0  0  0  0
 14 24  2  0  0  0  0
 14 25  1  0  0  0  0
 15 24  1  0  0  0  0
 15 26  2  0  0  0  0
 16 25  2  0  0  0  0
 16 26  1  0  0  0  0
 17 30  2  0  0  0  0
 17 31  1  0  0  0  0
 18 32  1  0  0  0  0
 19 32  1  0  0  0  0
 19 33  2  0  0  0  0
 19 34  1  0  0  0  0
 20 22  2  0  0  0  0
 20 39  1  0  0  0  0
 21 23  2  0  0  0  0
 21 40  1  0  0  0  0
 22 48  1  0  0  0  0
 23 41  1  0  0  0  0
 24 51  1  0  0  0  0
 25 59  1  0  0  0  0
 26 72  1  0  0  0  0
 27 81  1  0  0  0  0
 28 82  1  0  0  0  0
 29 31  2  0  0  0  0
 29 81  1  0  0  0  0
 30 83  1  0  0  0  0
 31 84  1  0  0  0  0
 32 66  2  0  0  0  0
 33 67  1  0  0  0  0
 33 70  1  0  0  0  0
 34 71  1  0  0  0  0
 34 76  2  0  0  0  0
 35 49  1  0  0  0  0
 35 73  1  0  0  0  0
 35 77  2  0  0  0  0
 36 62  1  0  0  0  0
 36 68  1  0  0  0  0
 36 78  2  0  0  0  0
 37 63  1  0  0  0  0
 37 74  1  0  0  0  0
 37 79  2  0  0  0  0
 38 69  1  0  0  0  0
 38 72  1  0  0  0  0
 38 80  2  0  0  0  0
 39 42  1  0  0  0  0
 40 49  1  0  0  0  0
 41 68  1  0  0  0  0
 42 44  1  0  0  0  0
 43 45  1  0  0  0  0
 43 46  1  0  0  0  0
 44 48  1  0  0  0  0
 45 50  1  0  0  0  0
 46 69  1  0  0  0  0
 47 50  1  0  0  0  0
 47 69  1  0  0  0  0
 48 73  1  0  0  0  0
 49 68  1  0  0  0  0
 50 67  1  0  0  0  0
 52 63  1  0  0  0  0
 53 64  1  0  0  0  0
 54 64  1  0  0  0  0
 55 64  1  0  0  0  0
 56 65  1  0  0  0  0
 57 65  1  0  0  0  0
 58 75  1  0  0  0  0
 59 60  1  0  0  0  0
 60 65  1  0  0  0  0
 61 65  1  0  0  0  0
 61 82  1  0  0  0  0
 62 64  1  0  0  0  0
 62 74  1  0  0  0  0
 63 75  1  0  0  0  0
 66 67  1  0  0  0  0
M  CHG  1  75   1
M  ISO  4  38 100  61 101  72 100  82 101
M  END
> <Batch ID>
0135

> <Smiles>
CNC(C)C(=O)NC(C(=O)N1Cc2cc([101O:1][101CH2:1]C(C)(C)CCc3cc(C)cc([100NH:0][100C:0](=O)N4CCCC(n5nc(-c6ccc(Oc7ccc(F)cc7F)cc6)c(C(N)=O)c5N)C4)c3)ccc2CC1C(=O)NC1CCCc2ccccc21)C(C)(C)C

> <Shape>
0.264

> <Color>
0.064

> <Negative vol penalty>
0.000

$$$$

  -OEChem-04052302363D

 85 93  0     1  0  0  0  0  0999 V2000
  -27.6902  -25.4333   15.6094 C   0  0  0  0  0  0  0  0  0  0  0  0
  -26.5457  -25.5278   16.3947 C   0  0  0  0  0  0  0  0  0  0  0  0
  -26.9359  -14.5261   18.8681 C   0  0  0  0  0  0  0  0  0  0  0  0
  -24.6214  -14.8779   19.4650 C   0  0  0  0  0  0  0  0  0  0  0  0
  -28.9159  -25.8701   16.1102 C   0  0  0  0  0  0  0  0  0  0  0  0
  -26.6265  -26.0582   17.6818 C   0  0  0  0  0  0  0  0  0  0  0  0
  -22.8956  -29.3368   18.6696 C   0  0  0  0  0  0  0  0  0  0  0  0
  -21.8709  -25.2666   21.1288 C   0  0  0  0  0  0  0  0  0  0  0  0
  -22.9777  -24.5024   20.7595 C   0  0  0  0  0  0  0  0  0  0  0  0
  -26.9446  -13.3395   19.6013 C   0  0  0  0  0  0  0  0  0  0  0  0
  -24.6301  -13.6913   20.1981 C   0  0  0  0  0  0  0  0  0  0  0  0
  -21.6441  -28.8039   18.9756 C   0  0  0  0  0  0  0  0  0  0  0  0
  -24.4298  -10.3765   19.5714 C   0  0  0  0  0  0  0  0  0  0  0  0
  -23.3465   -9.5119   19.4150 C   0  0  0  0  0  0  0  0  0  0  0  0
  -22.0748  -29.1559   21.3229 C   0  0  0  0  0  0  0  0  0  0  0  0
  -20.4622  -23.3117   20.9524 C   0  0  0  0  0  0  0  0  0  0  0  0
  -22.8522   -9.7050   21.7720 C   0  0  0  0  0  0  0  0  0  0  0  0
  -25.7743  -15.2953   18.8000 C   0  0  0  0  0  0  0  0  0  0  0  0
  -25.4377  -16.6784   16.6830 C   0  0  0  0  0  0  0  0  0  0  0  0
  -29.0100  -26.4151   17.4004 C   0  0  0  0  0  0  0  0  0  0  0  0
  -23.7519  -29.7739   19.6904 C   0  0  0  0  0  0  0  0  0  0  0  0
  -27.8549  -26.5015   18.2008 C   0  0  0  0  0  0  0  0  0  0  0  0
  -23.3356  -29.6963   21.0271 C   0  0  0  0  0  0  0  0  0  0  0  0
  -20.6131  -24.6713   21.2253 C   0  0  0  0  0  0  0  0  0  0  0  0
  -21.5690  -22.5474   20.5830 C   0  0  0  0  0  0  0  0  0  0  0  0
  -22.8268  -23.1428   20.4866 C   0  0  0  0  0  0  0  0  0  0  0  0
  -25.7917  -12.9221   20.2663 C   0  0  0  0  0  0  0  0  0  0  0  0
  -21.2347  -28.7107   20.3026 C   0  0  0  0  0  0  0  0  0  0  0  0
  -24.7244  -10.9053   20.8281 C   0  0  0  0  0  0  0  0  0  0  0  0
  -22.5577   -9.1762   20.5153 C   0  0  0  0  0  0  0  0  0  0  0  0
  -23.9356  -10.5695   21.9284 C   0  0  0  0  0  0  0  0  0  0  0  0
  -25.7648  -16.5214   18.0432 C   0  0  0  0  0  0  0  0  0  0  0  0
  -25.5809  -18.0241   16.4485 C   0  0  0  0  0  0  0  0  0  0  0  0
  -25.0399  -15.6956   15.7178 C   0  0  0  0  0  0  0  0  0  0  0  0
  -26.6432  -28.9310   20.7072 C   0  0  0  0  0  0  0  0  0  0  0  0
  -26.2904  -31.5138   22.6378 C   0  0  0  0  0  0  0  0  0  0  0  0
  -24.1826  -33.6806   24.2217 C   0  0  0  0  0  0  0  0  0  0  0  0
  -25.2747  -22.8377   19.9756 C   0  0  0  0  0  0  0  0  0  0  0  0
  -30.3652  -26.8302   17.9160 C   0  0  0  0  0  0  0  0  0  0  0  0
  -25.0878  -30.3709   19.3421 C   0  0  0  0  0  0  0  0  0  0  0  0
  -24.2093  -30.1703   22.1586 C   0  0  0  0  0  0  0  0  0  0  0  0
  -30.2991  -27.7256   19.1506 C   0  0  0  0  0  0  0  0  0  0  0  0
  -28.0369  -21.8479   17.9587 C   0  0  0  0  0  0  0  0  0  0  0  0
  -29.3169  -27.1576   20.1700 C   0  0  0  0  0  0  0  0  0  0  0  0
  -27.7349  -20.3857   17.6227 C   0  0  0  0  0  0  0  0  0  0  0  0
  -27.6025  -22.2048   19.3792 C   0  0  0  0  0  0  0  0  0  0  0  0
  -25.9046  -20.4199   19.3650 C   0  0  0  0  0  0  0  0  0  0  0  0
  -27.8977  -27.0939   19.5927 C   0  0  1  0  0  0  0  0  0  0  0  0
  -26.0876  -30.3105   20.4929 C   0  0  1  0  0  0  0  0  0  0  0  0
  -26.2653  -20.0306   17.9221 C   0  0  2  0  0  0  0  0  0  0  0  0
  -21.2180  -19.3194   18.4946 C   0  0  0  0  0  0  0  0  0  0  0  0
  -24.1873  -35.6642   25.7588 C   0  0  0  0  0  0  0  0  0  0  0  0
  -26.9285  -29.6833   24.9940 C   0  0  0  0  0  0  0  0  0  0  0  0
  -26.0023  -31.4393   26.5193 C   0  0  0  0  0  0  0  0  0  0  0  0
  -27.9970  -31.9415   25.1081 C   0  0  0  0  0  0  0  0  0  0  0  0
  -18.0534  -25.1394   19.4863 C   0  0  0  0  0  0  0  0  0  0  0  0
  -17.4140  -26.9152   21.1129 C   0  0  0  0  0  0  0  0  0  0  0  0
  -22.8389  -35.3876   22.2118 C   0  0  0  0  0  0  0  0  0  0  0  0
  -19.4138  -25.4997   21.6230 C   0  0  0  0  0  0  0  0  0  0  0  0
  -21.3775  -21.0938   20.2935 C   0  0  0  0  0  0  0  0  0  0  0  0
  -21.3794  -20.8028   18.7862 C   0  0  0  0  0  0  0  0  0  0  0  0
  -19.4909  -27.2039   19.7154 C   0  0  0  0  0  0  0  0  0  1  0  0
  -25.7243  -31.7479   24.0175 C   0  0  1  0  0  0  0  0  0  0  0  0
  -24.1773  -35.1960   24.3120 C   0  0  2  0  0  0  0  0  0  0  0  0
  -26.6471  -31.1922   25.1388 C   0  0  0  0  0  0  0  0  0  0  0  0
  -18.6145  -26.1812   20.4734 C   0  0  0  0  0  0  0  0  0  0  0  0
  -26.0914  -17.6752   18.6315 N   0  0  0  0  0  0  0  0  0  0  0  0
  -25.9703  -18.5701   17.6361 N   0  0  0  0  0  0  0  0  0  0  0  0
  -25.5090  -30.7406   21.7674 N   0  0  0  0  0  0  0  0  0  0  0  0
  -26.1987  -21.8440   19.5887 N   0  0  0  0  0  0  0  0  0  0  0  0
  -25.4106  -18.7818   15.3443 N   0  0  0  0  0  0  0  0  0  0  0  0
  -24.9429  -14.3585   16.1267 N   0  0  0  0  0  0  0  0  0  0  0  0
  -23.9634  -22.3836   20.1129 N   0  0  0  0  0  0  0  0  0  0  0  0
  -27.2883  -28.4065   19.6035 N   0  0  0  0  0  0  0  0  0  0  0  0
  -25.4627  -33.1799   24.1139 N   0  0  0  0  0  0  0  0  0  0  0  0
  -22.9642  -35.7503   23.6470 N   0  3  0  0  0  0  0  0  0  0  0  0
  -24.7941  -15.9919   14.5239 O   0  0  0  0  0  0  0  0  0  0  0  0
  -26.4987  -28.3836   21.7940 O   0  0  0  0  0  0  0  0  0  0  0  0
  -27.3822  -32.0051   22.3407 O   0  0  0  0  0  0  0  0  0  0  0  0
  -23.1541  -33.0082   24.2481 O   0  0  0  0  0  0  0  0  0  0  0  0
  -25.6163  -24.0111   20.1442 O   0  0  0  0  0  0  0  0  0  0  0  0
  -25.7998  -11.7642   20.9816 O   0  0  0  0  0  0  0  0  0  0  0  0
  -20.0140  -28.1904   20.6041 O   0  0  0  0  0  0  0  0  0  1  0  0
  -21.5165   -8.3471   20.3647 F   0  0  0  0  0  0  0  0  0  0  0  0
  -24.2129  -11.0753   23.1380 F   0  0  0  0  0  0  0  0  0  0  0  0
  1  2  1  0  0  0  0
  1  5  2  0  0  0  0
  2  6  2  0  0  0  0
  3 10  2  0  0  0  0
  3 18  1  0  0  0  0
  4 11  1  0  0  0  0
  4 18  2  0  0  0  0
  5 20  1  0  0  0  0
  6 22  1  0  0  0  0
  7 12  2  0  0  0  0
  7 21  1  0  0  0  0
  8  9  2  0  0  0  0
  8 24  1  0  0  0  0
  9 26  1  0  0  0  0
 10 27  1  0  0  0  0
 11 27  2  0  0  0  0
 12 28  1  0  0  0  0
 13 14  2  0  0  0  0
 13 29  1  0  0  0  0
 14 30  1  0  0  0  0
 15 23  1  0  0  0  0
 15 28  2  0  0  0  0
 16 24  2  0  0  0  0
 16 25  1  0  0  0  0
 17 30  2  0  0  0  0
 17 31  1  0  0  0  0
 18 32  1  0  0  0  0
 19 32  1  0  0  0  0
 19 33  2  0  0  0  0
 19 34  1  0  0  0  0
 20 22  2  0  0  0  0
 20 39  1  0  0  0  0
 21 23  2  0  0  0  0
 21 40  1  0  0  0  0
 22 48  1  0  0  0  0
 23 41  1  0  0  0  0
 24 59  1  0  0  0  0
 25 26  2  0  0  0  0
 25 60  1  0  0  0  0
 26 73  1  0  0  0  0
 27 82  1  0  0  0  0
 28 83  1  0  0  0  0
 29 31  2  0  0  0  0
 29 82  1  0  0  0  0
 30 84  1  0  0  0  0
 31 85  1  0  0  0  0
 32 67  2  0  0  0  0
 33 68  1  0  0  0  0
 33 71  1  0  0  0  0
 34 72  1  0  0  0  0
 34 77  2  0  0  0  0
 35 49  1  0  0  0  0
 35 74  1  0  0  0  0
 35 78  2  0  0  0  0
 36 63  1  0  0  0  0
 36 69  1  0  0  0  0
 36 79  2  0  0  0  0
 37 64  1  0  0  0  0
 37 75  1  0  0  0  0
 37 80  2  0  0  0  0
 38 70  1  0  0  0  0
 38 73  1  0  0  0  0
 38 81  2  0  0  0  0
 39 42  1  0  0  0  0
 40 49  1  0  0  0  0
 41 69  1  0  0  0  0
 42 44  1  0  0  0  0
 43 45  1  0  0  0  0
 43 46  1  0  0  0  0
 44 48  1  0  0  0  0
 45 50  1  0  0  0  0
 46 70  1  0  0  0  0
 47 50  1  0  0  0  0
 47 70  1  0  0  0  0
 48 74  1  0  0  0  0
 49 69  1  0  0  0  0
 50 68  1  0  0  0  0
 51 61  1  0  0  0  0
 52 64  1  0  0  0  0
 53 65  1  0  0  0  0
 54 65  1  0  0  0  0
 55 65  1  0  0  0  0
 56 66  1  0  0  0  0
 57 66  1  0  0  0  0
 58 76  1  0  0  0  0
 59 66  1  0  0  0  0
 60 61  1  0  0  0  0
 62 66  1  0  0  0  0
 62 83  1  0  0  0  0
 63 65  1  0  0  0  0
 63 75  1  0  0  0  0
 64 76  1  0  0  0  0
 67 68  1  0  0  0  0
M  CHG  1  76   1
M  ISO  4  38 100  62 101  73 100  83 101
M  END
> <Batch ID>
0135

> <Smiles>
CCCc1cc(CC(C)(C)[101CH2:1][101O:1]c2ccc3c(c2)CN(C(=O)C(NC(=O)C(C)NC)C(C)(C)C)C(C(=O)NC2CCCc4ccccc42)C3)ccc1[100NH:0][100C:0](=O)N1CCCC(n2nc(-c3ccc(Oc4ccc(F)cc4F)cc3)c(C(N)=O)c2N)C1

> <Shape>
0.247

> <Color>
0.074

> <Negative vol penalty>
0.000

$$$$

  -OEChem-04052302363D

 83 91  0     1  0  0  0  0  0999 V2000
  -27.8473  -36.4125   19.4461 C   0  0  0  0  0  0  0  0  0  0  0  0
  -28.1994  -35.0906   19.6992 C   0  0  0  0  0  0  0  0  0  0  0  0
  -24.0239  -13.4585   21.2110 C   0  0  0  0  0  0  0  0  0  0  0  0
  -26.3257  -13.3555   20.4839 C   0  0  0  0  0  0  0  0  0  0  0  0
  -26.7698  -36.9868   20.1191 C   0  0  0  0  0  0  0  0  0  0  0  0
  -27.4746  -34.3425   20.6264 C   0  0  0  0  0  0  0  0  0  0  0  0
  -26.4023  -29.6850   18.9523 C   0  0  0  0  0  0  0  0  0  0  0  0
  -31.7514  -22.2083   18.4014 C   0  0  0  0  0  0  0  0  0  0  0  0
  -31.6382  -20.8229   18.2860 C   0  0  0  0  0  0  0  0  0  0  0  0
  -23.8137  -12.1669   20.7282 C   0  0  0  0  0  0  0  0  0  0  0  0
  -26.1154  -12.0638   20.0012 C   0  0  0  0  0  0  0  0  0  0  0  0
  -27.4259  -28.7397   19.0006 C   0  0  0  0  0  0  0  0  0  0  0  0
  -22.7670   -8.7602   20.0113 C   0  0  0  0  0  0  0  0  0  0  0  0
  -22.0664   -7.8698   20.8249 C   0  0  0  0  0  0  0  0  0  0  0  0
  -26.4813  -27.8290   21.0248 C   0  0  0  0  0  0  0  0  0  0  0  0
  -29.3440  -22.3990   18.4747 C   0  0  0  0  0  0  0  0  0  0  0  0
  -23.7530   -8.1084   22.5383 C   0  0  0  0  0  0  0  0  0  0  0  0
  -25.2799  -14.0529   21.0888 C   0  0  0  0  0  0  0  0  0  0  0  0
  -25.9221  -15.7541   22.8779 C   0  0  0  0  0  0  0  0  0  0  0  0
  -26.0255  -36.2425   21.0479 C   0  0  0  0  0  0  0  0  0  0  0  0
  -25.4150  -29.7164   19.9476 C   0  0  0  0  0  0  0  0  0  0  0  0
  -26.3870  -34.9079   21.3135 C   0  0  0  0  0  0  0  0  0  0  0  0
  -25.4448  -28.7741   20.9855 C   0  0  0  0  0  0  0  0  0  0  0  0
  -30.6043  -22.9964   18.4958 C   0  0  0  0  0  0  0  0  0  0  0  0
  -30.3779  -20.2255   18.2649 C   0  0  0  0  0  0  0  0  0  0  0  0
  -29.2308  -21.0135   18.3593 C   0  0  0  0  0  0  0  0  0  0  0  0
  -24.8594  -11.4695   20.1234 C   0  0  0  0  0  0  0  0  0  0  0  0
  -27.4672  -27.8133   20.0385 C   0  0  0  0  0  0  0  0  0  0  0  0
  -23.9606   -9.3246   20.4611 C   0  0  0  0  0  0  0  0  0  0  0  0
  -22.5594   -7.5439   22.0884 C   0  0  0  0  0  0  0  0  0  0  0  0
  -24.4536   -8.9988   21.7246 C   0  0  0  0  0  0  0  0  0  0  0  0
  -25.4976  -15.3873   21.5867 C   0  0  0  0  0  0  0  0  0  0  0  0
  -25.9741  -17.1263   22.8453 C   0  0  0  0  0  0  0  0  0  0  0  0
  -26.2409  -14.9284   24.0058 C   0  0  0  0  0  0  0  0  0  0  0  0
  -24.4852  -31.8439   22.1186 C   0  0  0  0  0  0  0  0  0  0  0  0
  -22.1275  -29.6824   22.6586 C   0  0  0  0  0  0  0  0  0  0  0  0
  -21.0678  -26.4437   22.4720 C   0  0  0  0  0  0  0  0  0  0  0  0
  -26.7133  -21.0796   18.4261 C   0  0  0  0  0  0  0  0  0  0  0  0
  -24.8984  -36.9209   21.7855 C   0  0  0  0  0  0  0  0  0  0  0  0
  -24.3024  -30.7254   19.8666 C   0  0  0  0  0  0  0  0  0  0  0  0
  -24.3972  -28.7526   22.0674 C   0  0  0  0  0  0  0  0  0  0  0  0
  -23.9490  -35.9458   22.4770 C   0  0  0  0  0  0  0  0  0  0  0  0
  -23.9669  -20.8995   20.6847 C   0  0  0  0  0  0  0  0  0  0  0  0
  -24.7359  -34.8864   23.2421 C   0  0  0  0  0  0  0  0  0  0  0  0
  -24.0899  -19.5012   21.2944 C   0  0  0  0  0  0  0  0  0  0  0  0
  -24.3609  -20.9114   19.2088 C   0  0  0  0  0  0  0  0  0  0  0  0
  -25.8029  -18.9389   19.5233 C   0  0  0  0  0  0  0  0  0  0  0  0
  -25.6098  -34.0564   22.2939 C   0  0  1  0  0  0  0  0  0  0  0  0
  -23.6392  -30.9931   21.2141 C   0  0  1  0  0  0  0  0  0  0  0  0
  -25.4788  -18.8893   21.0254 C   0  0  2  0  0  0  0  0  0  0  0  0
  -30.2867  -18.7392   18.1395 C   0  0  0  0  0  0  0  0  0  0  0  0
  -19.1084  -24.9771   23.0262 C   0  0  0  0  0  0  0  0  0  0  0  0
  -30.8829  -26.8723   21.7300 C   0  0  0  0  0  0  0  0  0  0  0  0
  -22.9199  -29.7411   25.6045 C   0  0  0  0  0  0  0  0  0  0  0  0
  -21.6233  -27.6233   25.9236 C   0  0  0  0  0  0  0  0  0  0  0  0
  -20.4543  -29.7006   25.1881 C   0  0  0  0  0  0  0  0  0  0  0  0
  -20.6713  -25.7033   19.6341 C   0  0  0  0  0  0  0  0  0  0  0  0
  -30.7278  -24.4944   18.6207 C   0  0  0  0  0  0  0  0  0  0  0  0
  -30.8120  -24.9949   20.0694 C   0  0  0  0  0  0  0  0  0  0  0  0
  -29.7249  -27.2643   19.5311 C   0  0  0  0  0  0  0  0  0  1  0  0
  -21.9616  -28.4848   23.5626 C   0  0  1  0  0  0  0  0  0  0  0  0
  -19.7743  -25.8349   21.9615 C   0  0  2  0  0  0  0  0  0  0  0  0
  -30.8739  -26.5295   20.2348 C   0  0  1  0  0  0  0  0  0  0  0  0
  -21.7607  -28.8888   25.0505 C   0  0  0  0  0  0  0  0  0  0  0  0
  -25.2943  -16.4413   20.7919 N   0  0  0  0  0  0  0  0  0  0  0  0
  -25.5921  -17.4840   21.5858 N   0  0  0  0  0  0  0  0  0  0  0  0
  -23.3334  -29.7632   21.9478 N   0  0  0  0  0  0  0  0  0  0  0  0
  -25.6892  -20.3208   19.0311 N   0  0  0  0  0  0  0  0  0  0  0  0
  -26.3087  -18.0496   23.7715 N   0  0  0  0  0  0  0  0  0  0  0  0
  -26.1342  -13.5378   23.8673 N   0  0  0  0  0  0  0  0  0  0  0  0
  -27.9418  -20.4253   18.3404 N   0  0  0  0  0  0  0  0  0  0  0  0
  -24.8060  -33.0799   21.5905 N   0  0  0  0  0  0  0  0  0  0  0  0
  -20.8663  -27.6999   23.0035 N   0  0  0  0  0  0  0  0  0  0  0  0
  -20.0386  -24.9820   20.7684 N   0  3  0  0  0  0  0  0  0  0  0  0
  -26.5938  -15.4102   25.1089 O   0  0  0  0  0  0  0  0  0  0  0  0
  -24.8208  -31.4116   23.2150 O   0  0  0  0  0  0  0  0  0  0  0  0
  -21.2177  -30.5117   22.5804 O   0  0  0  0  0  0  0  0  0  0  0  0
  -22.1484  -25.8614   22.4092 O   0  0  0  0  0  0  0  0  0  0  0  0
  -26.5224  -22.2353   18.0389 O   0  0  0  0  0  0  0  0  0  0  0  0
  -24.6546  -10.2090   19.6524 O   0  0  0  0  0  0  0  0  0  0  0  0
  -28.4656  -26.8900   20.0884 O   0  0  0  0  0  0  0  0  0  1  0  0
  -21.8857   -6.6901   22.8703 F   0  0  0  0  0  0  0  0  0  0  0  0
  -25.5992   -9.5388   22.1626 F   0  0  0  0  0  0  0  0  0  0  0  0
  1  2  1  0  0  0  0
  1  5  2  0  0  0  0
  2  6  2  0  0  0  0
  3 10  2  0  0  0  0
  3 18  1  0  0  0  0
  4 11  1  0  0  0  0
  4 18  2  0  0  0  0
  5 20  1  0  0  0  0
  6 22  1  0  0  0  0
  7 12  2  0  0  0  0
  7 21  1  0  0  0  0
  8  9  2  0  0  0  0
  8 24  1  0  0  0  0
  9 25  1  0  0  0  0
 10 27  1  0  0  0  0
 11 27  2  0  0  0  0
 12 28  1  0  0  0  0
 13 14  2  0  0  0  0
 13 29  1  0  0  0  0
 14 30  1  0  0  0  0
 15 23  1  0  0  0  0
 15 28  2  0  0  0  0
 16 24  2  0  0  0  0
 16 26  1  0  0  0  0
 17 30  2  0  0  0  0
 17 31  1  0  0  0  0
 18 32  1  0  0  0  0
 19 32  1  0  0  0  0
 19 33  2  0  0  0  0
 19 34  1  0  0  0  0
 20 22  2  0  0  0  0
 20 39  1  0  0  0  0
 21 23  2  0  0  0  0
 21 40  1  0  0  0  0
 22 48  1  0  0  0  0
 23 41  1  0  0  0  0
 24 58  1  0  0  0  0
 25 26  2  0  0  0  0
 25 51  1  0  0  0  0
 26 71  1  0  0  0  0
 27 80  1  0  0  0  0
 28 81  1  0  0  0  0
 29 31  2  0  0  0  0
 29 80  1  0  0  0  0
 30 82  1  0  0  0  0
 31 83  1  0  0  0  0
 32 65  2  0  0  0  0
 33 66  1  0  0  0  0
 33 69  1  0  0  0  0
 34 70  1  0  0  0  0
 34 75  2  0  0  0  0
 35 49  1  0  0  0  0
 35 72  1  0  0  0  0
 35 76  2  0  0  0  0
 36 61  1  0  0  0  0
 36 67  1  0  0  0  0
 36 77  2  0  0  0  0
 37 62  1  0  0  0  0
 37 73  1  0  0  0  0
 37 78  2  0  0  0  0
 38 68  1  0  0  0  0
 38 71  1  0  0  0  0
 38 79  2  0  0  0  0
 39 42  1  0  0  0  0
 40 49  1  0  0  0  0
 41 67  1  0  0  0  0
 42 44  1  0  0  0  0
 43 45  1  0  0  0  0
 43 46  1  0  0  0  0
 44 48  1  0  0  0  0
 45 50  1  0  0  0  0
 46 68  1  0  0  0  0
 47 50  1  0  0  0  0
 47 68  1  0  0  0  0
 48 72  1  0  0  0  0
 49 67  1  0  0  0  0
 50 66  1  0  0  0  0
 52 62  1  0  0  0  0
 53 63  1  0  0  0  0
 54 64  1  0  0  0  0
 55 64  1  0  0  0  0
 56 64  1  0  0  0  0
 57 74  1  0  0  0  0
 58 59  1  0  0  0  0
 59 63  1  0  0  0  0
 60 63  1  0  0  0  0
 60 81  1  0  0  0  0
 61 64  1  0  0  0  0
 61 73  1  0  0  0  0
 62 74  1  0  0  0  0
 65 66  1  0  0  0  0
M  CHG  1  74   1
M  ISO  4  38 100  60 101  71 100  81 101
M  END
> <Batch ID>
0135

> <Smiles>
CNC(C)C(=O)NC(C(=O)N1Cc2cc([101O:1][101CH2:1]C(C)CCc3ccc(C)c([100NH:0][100C:0](=O)N4CCCC(n5nc(-c6ccc(Oc7ccc(F)cc7F)cc6)c(C(N)=O)c5N)C4)c3)ccc2CC1C(=O)NC1CCCc2ccccc21)C(C)(C)C

> <Shape>
0.269

> <Color>
0.083

> <Negative vol penalty>
0.000

$$$$

  -OEChem-04052302363D

 94103  0     1  0  0  0  0  0999 V2000
  -27.6272  -23.1620   39.7071 C   0  0  0  0  0  0  0  0  0  0  0  0
  -27.7252  -24.1672   38.7504 C   0  0  0  0  0  0  0  0  0  0  0  0
  -23.0659   -9.8720   19.9514 C   0  0  0  0  0  0  0  0  0  0  0  0
  -23.8576   -9.8761   22.2341 C   0  0  0  0  0  0  0  0  0  0  0  0
  -28.1789  -21.9063   39.4564 C   0  0  0  0  0  0  0  0  0  0  0  0
  -28.3759  -23.9175   37.5426 C   0  0  0  0  0  0  0  0  0  0  0  0
  -24.9458  -24.6843   31.2547 C   0  0  0  0  0  0  0  0  0  0  0  0
  -25.3561  -23.4480   19.9128 C   0  0  0  0  0  0  0  0  0  0  0  0
  -25.3977  -22.1352   19.4434 C   0  0  0  0  0  0  0  0  0  0  0  0
  -22.3280   -8.7168   20.2095 C   0  0  0  0  0  0  0  0  0  0  0  0
  -23.1195   -8.7210   22.4921 C   0  0  0  0  0  0  0  0  0  0  0  0
  -24.4217  -25.0114   30.0039 C   0  0  0  0  0  0  0  0  0  0  0  0
  -19.9017   -7.9154   23.1378 C   0  0  0  0  0  0  0  0  0  0  0  0
  -19.1611   -7.8717   24.3190 C   0  0  0  0  0  0  0  0  0  0  0  0
  -30.0205  -19.2504   24.4942 C   0  0  0  0  0  0  0  0  0  0  0  0
  -30.8209  -18.1240   24.1879 C   0  0  0  0  0  0  0  0  0  0  0  0
  -26.4420  -24.2178   28.9378 C   0  0  0  0  0  0  0  0  0  0  0  0
  -27.0456  -22.9143   21.5554 C   0  0  0  0  0  0  0  0  0  0  0  0
  -20.4165   -5.9354   25.0344 C   0  0  0  0  0  0  0  0  0  0  0  0
  -23.8308  -10.4516   20.9637 C   0  0  0  0  0  0  0  0  0  0  0  0
  -24.1658  -12.9777   20.8439 C   0  0  0  0  0  0  0  0  0  0  0  0
  -28.8282  -21.6382   38.2410 C   0  0  0  0  0  0  0  0  0  0  0  0
  -26.2154  -24.1078   31.3507 C   0  0  0  0  0  0  0  0  0  0  0  0
  -28.9379  -22.6575   37.2759 C   0  0  0  0  0  0  0  0  0  0  0  0
  -26.9672  -23.8765   30.1870 C   0  0  0  0  0  0  0  0  0  0  0  0
  -26.1801  -23.8376   20.9688 C   0  0  0  0  0  0  0  0  0  0  0  0
  -26.2633  -21.2119   20.0300 C   0  0  0  0  0  0  0  0  0  0  0  0
  -27.0872  -21.6014   21.0860 C   0  0  0  0  0  0  0  0  0  0  0  0
  -22.3547   -8.1413   21.4798 C   0  0  0  0  0  0  0  0  0  0  0  0
  -25.1680  -24.7789   28.8484 C   0  0  0  0  0  0  0  0  0  0  0  0
  -20.8996   -6.9690   22.9048 C   0  0  0  0  0  0  0  0  0  0  0  0
  -19.4185   -6.8817   25.2673 C   0  0  0  0  0  0  0  0  0  0  0  0
  -21.1571   -5.9791   23.8531 C   0  0  0  0  0  0  0  0  0  0  0  0
  -24.5938  -11.6446   20.6977 C   0  0  0  0  0  0  0  0  0  0  0  0
  -29.3736  -19.5878   23.3282 C   0  0  0  0  0  0  0  0  0  0  0  0
  -30.6058  -17.8532   22.8565 C   0  0  0  0  0  0  0  0  0  0  0  0
  -25.2513  -13.7301   20.4670 C   0  0  0  0  0  0  0  0  0  0  0  0
  -22.9002  -13.4901   21.2814 C   0  0  0  0  0  0  0  0  0  0  0  0
  -28.4157  -20.6630   23.0187 C   0  0  0  0  0  0  0  0  0  0  0  0
  -28.8896  -22.7120   33.5816 C   0  0  0  0  0  0  0  0  0  0  0  0
  -30.7574  -14.6935   20.6778 C   0  0  0  0  0  0  0  0  0  0  0  0
  -28.7548  -20.8993   31.1105 C   0  0  0  0  0  0  0  0  0  0  0  0
  -28.0017  -18.9186   28.4371 C   0  0  0  0  0  0  0  0  0  0  0  0
  -29.4502  -20.2799   38.0345 C   0  0  0  0  0  0  0  0  0  0  0  0
  -26.8448  -23.7961   32.6813 C   0  0  0  0  0  0  0  0  0  0  0  0
  -28.3423  -23.2864   30.3410 C   0  0  0  0  0  0  0  0  0  0  0  0
  -29.7957  -19.9833   36.5774 C   0  0  0  0  0  0  0  0  0  0  0  0
  -29.5628  -12.3992   18.1980 C   0  0  0  0  0  0  0  0  0  0  0  0
  -30.5105  -21.1734   35.9453 C   0  0  0  0  0  0  0  0  0  0  0  0
  -28.1392  -12.0847   18.6560 C   0  0  0  0  0  0  0  0  0  0  0  0
  -30.4994  -12.6015   19.3849 C   0  0  0  0  0  0  0  0  0  0  0  0
  -28.6142  -13.3297   20.8123 C   0  0  0  0  0  0  0  0  0  0  0  0
  -29.6144  -22.4178   35.9436 C   0  0  1  0  0  0  0  0  0  0  0  0
  -27.7256  -22.5342   32.6515 C   0  0  1  0  0  0  0  0  0  0  0  0
  -27.6288  -13.1484   19.6442 C   0  0  2  0  0  0  0  0  0  0  0  0
  -26.2861  -19.8121   19.5072 C   0  0  0  0  0  0  0  0  0  0  0  0
  -28.6965  -16.7893   27.3055 C   0  0  0  0  0  0  0  0  0  0  0  0
  -24.7326  -26.9796   22.6380 C   0  0  0  0  0  0  0  0  0  0  0  0
  -23.4377  -24.4059   25.0530 C   0  0  0  0  0  0  0  0  0  0  0  0
  -31.2058  -22.3105   29.9682 C   0  0  0  0  0  0  0  0  0  0  0  0
  -31.3004  -20.5526   28.1881 C   0  0  0  0  0  0  0  0  0  0  0  0
  -31.5736  -19.9148   30.5842 C   0  0  0  0  0  0  0  0  0  0  0  0
  -25.3354  -17.6987   28.8391 C   0  0  0  0  0  0  0  0  0  0  0  0
  -26.1345  -25.2588   21.4761 C   0  0  0  0  0  0  0  0  0  0  0  0
  -31.1285  -16.8282   21.9420 C   0  0  0  0  0  0  0  0  0  0  0  0
  -30.1405  -15.6844   21.6324 C   0  0  0  0  0  0  0  0  0  0  0  0
  -25.6623  -25.0155   23.9716 C   0  0  0  0  0  0  0  0  0  0  0  0
  -25.4636  -24.8333   26.4889 C   0  0  0  0  0  0  0  0  0  1  0  0
  -29.2913  -20.5942   29.7348 C   0  0  1  0  0  0  0  0  0  0  0  0
  -27.7643  -17.4234   28.3262 C   0  0  2  0  0  0  0  0  0  0  0  0
  -25.1068  -25.4936   22.6089 C   0  0  1  0  0  0  0  0  0  0  0  0
  -24.7325  -25.2119   25.1904 C   0  0  2  0  0  0  0  0  0  0  0  0
  -30.8193  -20.8586   29.6225 C   0  0  0  0  0  0  0  0  0  0  0  0
  -25.8529  -11.5521   20.2617 N   0  0  0  0  0  0  0  0  0  0  0  0
  -26.2254  -12.8367   20.1306 N   0  0  0  0  0  0  0  0  0  0  0  0
  -28.3173  -22.2090   31.3426 N   0  0  0  0  0  0  0  0  0  0  0  0
  -29.9684  -13.6030   20.3114 N   0  0  0  0  0  0  0  0  0  0  0  0
  -25.4580  -15.0621   20.3936 N   0  0  0  0  0  0  0  0  0  0  0  0
  -21.8949  -12.5782   21.6309 N   0  0  0  0  0  0  0  0  0  0  0  0
  -27.9613  -20.6913   21.6859 N   0  0  0  0  0  0  0  0  0  0  0  0
  -28.6317  -22.3314   34.8847 N   0  0  0  0  0  0  0  0  0  0  0  0
  -28.8993  -19.2203   29.4394 N   0  0  0  0  0  0  0  0  0  0  0  0
  -26.3589  -17.1513   27.9119 N   0  3  0  0  0  0  0  0  0  0  0  0
  -22.6623  -14.7201   21.3444 O   0  0  0  0  0  0  0  0  0  0  0  0
  -28.0840  -21.4805   23.8745 O   0  0  0  0  0  0  0  0  0  0  0  0
  -29.9452  -23.1601   33.1496 O   0  0  0  0  0  0  0  0  0  0  0  0
  -31.9053  -14.8861   20.2687 O   0  0  0  0  0  0  0  0  0  0  0  0
  -28.7285  -20.0042   31.9598 O   0  0  0  0  0  0  0  0  0  0  0  0
  -27.4491  -19.7369   27.7053 O   0  0  0  0  0  0  0  0  0  0  0  0
  -29.7248  -18.7409   22.3252 O   0  0  0  0  0  0  0  0  0  0  0  0
  -21.6345   -7.0143   21.7320 O   0  0  0  0  0  0  0  0  0  0  0  0
  -24.6484  -25.0965   27.6302 O   0  0  0  0  0  0  0  0  0  1  0  0
  -18.7084   -6.8408   26.4023 F   0  0  0  0  0  0  0  0  0  0  0  0
  -22.1153   -5.0680   23.6355 F   0  0  0  0  0  0  0  0  0  0  0  0
  1  2  1  0  0  0  0
  1  5  2  0  0  0  0
  2  6  2  0  0  0  0
  3 10  2  0  0  0  0
  3 20  1  0  0  0  0
  4 11  1  0  0  0  0
  4 20  2  0  0  0  0
  5 22  1  0  0  0  0
  6 24  1  0  0  0  0
  7 12  2  0  0  0  0
  7 23  1  0  0  0  0
  8  9  2  0  0  0  0
  8 26  1  0  0  0  0
  9 27  1  0  0  0  0
 10 29  1  0  0  0  0
 11 29  2  0  0  0  0
 12 30  1  0  0  0  0
 13 14  2  0  0  0  0
 13 31  1  0  0  0  0
 14 32  1  0  0  0  0
 15 16  1  0  0  0  0
 15 35  2  0  0  0  0
 16 36  2  0  0  0  0
 17 25  1  0  0  0  0
 17 30  2  0  0  0  0
 18 26  2  0  0  0  0
 18 28  1  0  0  0  0
 19 32  2  0  0  0  0
 19 33  1  0  0  0  0
 20 34  1  0  0  0  0
 21 34  1  0  0  0  0
 21 37  2  0  0  0  0
 21 38  1  0  0  0  0
 22 24  2  0  0  0  0
 22 44  1  0  0  0  0
 23 25  2  0  0  0  0
 23 45  1  0  0  0  0
 24 53  1  0  0  0  0
 25 46  1  0  0  0  0
 26 64  1  0  0  0  0
 27 28  2  0  0  0  0
 27 56  1  0  0  0  0
 28 80  1  0  0  0  0
 29 91  1  0  0  0  0
 30 92  1  0  0  0  0
 31 33  2  0  0  0  0
 31 91  1  0  0  0  0
 32 93  1  0  0  0  0
 33 94  1  0  0  0  0
 34 74  2  0  0  0  0
 35 39  1  0  0  0  0
 35 90  1  0  0  0  0
 36 65  1  0  0  0  0
 36 90  1  0  0  0  0
 37 75  1  0  0  0  0
 37 78  1  0  0  0  0
 38 79  1  0  0  0  0
 38 84  2  0  0  0  0
 39 80  1  0  0  0  0
 39 85  2  0  0  0  0
 40 54  1  0  0  0  0
 40 81  1  0  0  0  0
 40 86  2  0  0  0  0
 41 66  1  0  0  0  0
 41 77  1  0  0  0  0
 41 87  2  0  0  0  0
 42 69  1  0  0  0  0
 42 76  1  0  0  0  0
 42 88  2  0  0  0  0
 43 70  1  0  0  0  0
 43 82  1  0  0  0  0
 43 89  2  0  0  0  0
 44 47  1  0  0  0  0
 45 54  1  0  0  0  0
 46 76  1  0  0  0  0
 47 49  1  0  0  0  0
 48 50  1  0  0  0  0
 48 51  1  0  0  0  0
 49 53  1  0  0  0  0
 50 55  1  0  0  0  0
 51 77  1  0  0  0  0
 52 55  1  0  0  0  0
 52 77  1  0  0  0  0
 53 81  1  0  0  0  0
 54 76  1  0  0  0  0
 55 75  1  0  0  0  0
 57 70  1  0  0  0  0
 58 71  1  0  0  0  0
 59 72  1  0  0  0  0
 60 73  1  0  0  0  0
 61 73  1  0  0  0  0
 62 73  1  0  0  0  0
 63 83  1  0  0  0  0
 64 71  1  0  0  0  0
 65 66  1  0  0  0  0
 67 71  1  0  0  0  0
 67 72  1  0  0  0  0
 68 72  1  0  0  0  0
 68 92  1  0  0  0  0
 69 73  1  0  0  0  0
 69 82  1  0  0  0  0
 70 83  1  0  0  0  0
 74 75  1  0  0  0  0
M  CHG  1  83   1
M  ISO  4  41 100  66 100  68 101  92 101
M  END
> <Batch ID>
0135

> <Smiles>
CNC(C)C(=O)NC(C(=O)N1Cc2cc([101O:1][101CH2:1]C(C)CC(C)Cc3ccc(C)c(NC(=O)c4ccc(C[100CH2:0][100C:0](=O)N5CCCC(n6nc(-c7ccc(Oc8ccc(F)cc8F)cc7)c(C(N)=O)c6N)C5)o4)c3)ccc2CC1C(=O)NC1CCCc2ccccc21)C(C)(C)C

> <Shape>
0.175

> <Color>
0.175

> <Negative vol penalty>
0.000

$$$$

  -OEChem-04052302363D

 85 93  0     1  0  0  0  0  0999 V2000
  -30.1668  -24.3671   12.8569 C   0  0  0  0  0  0  0  0  0  0  0  0
  -30.8198  -24.2692   14.0814 C   0  0  0  0  0  0  0  0  0  0  0  0
  -22.9618  -10.1089   19.8693 C   0  0  0  0  0  0  0  0  0  0  0  0
  -23.9048   -9.7131   22.0582 C   0  0  0  0  0  0  0  0  0  0  0  0
  -28.9767  -25.0867   12.7584 C   0  0  0  0  0  0  0  0  0  0  0  0
  -30.2837  -24.8920   15.2080 C   0  0  0  0  0  0  0  0  0  0  0  0
  -30.3651  -21.9096   19.2999 C   0  0  0  0  0  0  0  0  0  0  0  0
  -32.2444  -16.6585   22.4470 C   0  0  0  0  0  0  0  0  0  0  0  0
  -22.1999   -8.9465   19.9873 C   0  0  0  0  0  0  0  0  0  0  0  0
  -23.1429   -8.5506   22.1762 C   0  0  0  0  0  0  0  0  0  0  0  0
  -31.5833  -21.7730   19.9641 C   0  0  0  0  0  0  0  0  0  0  0  0
  -32.8382  -17.7704   23.0442 C   0  0  0  0  0  0  0  0  0  0  0  0
  -21.7168   -5.2878   22.9044 C   0  0  0  0  0  0  0  0  0  0  0  0
  -22.3502   -4.1440   23.3901 C   0  0  0  0  0  0  0  0  0  0  0  0
  -30.8606  -23.3835   21.6082 C   0  0  0  0  0  0  0  0  0  0  0  0
  -30.6536  -18.7188   23.4506 C   0  0  0  0  0  0  0  0  0  0  0  0
  -23.9031   -4.2187   21.5407 C   0  0  0  0  0  0  0  0  0  0  0  0
  -23.8143  -10.4922   20.9047 C   0  0  0  0  0  0  0  0  0  0  0  0
  -24.2352  -12.9935   21.1766 C   0  0  0  0  0  0  0  0  0  0  0  0
  -28.4206  -25.7105   13.8864 C   0  0  0  0  0  0  0  0  0  0  0  0
  -29.3881  -22.7938   19.7796 C   0  0  0  0  0  0  0  0  0  0  0  0
  -29.0857  -25.6218   15.1242 C   0  0  0  0  0  0  0  0  0  0  0  0
  -29.6299  -23.5276   20.9497 C   0  0  0  0  0  0  0  0  0  0  0  0
  -30.0598  -17.6069   22.8533 C   0  0  0  0  0  0  0  0  0  0  0  0
  -30.8552  -16.5768   22.3514 C   0  0  0  0  0  0  0  0  0  0  0  0
  -22.2904   -8.1674   21.1407 C   0  0  0  0  0  0  0  0  0  0  0  0
  -31.8324  -22.5122   21.1168 C   0  0  0  0  0  0  0  0  0  0  0  0
  -32.0429  -18.8005   23.5461 C   0  0  0  0  0  0  0  0  0  0  0  0
  -22.1764   -5.8971   21.7368 C   0  0  0  0  0  0  0  0  0  0  0  0
  -23.4434   -3.6094   22.7083 C   0  0  0  0  0  0  0  0  0  0  0  0
  -23.2696   -5.3626   21.0550 C   0  0  0  0  0  0  0  0  0  0  0  0
  -24.6020  -11.6925   20.7832 C   0  0  0  0  0  0  0  0  0  0  0  0
  -25.3204  -13.7696   20.8504 C   0  0  0  0  0  0  0  0  0  0  0  0
  -23.0221  -13.4587   21.7829 C   0  0  0  0  0  0  0  0  0  0  0  0
  -27.9572  -25.3912   18.6351 C   0  0  0  0  0  0  0  0  0  0  0  0
  -26.1744  -25.1221   21.3316 C   0  0  0  0  0  0  0  0  0  0  0  0
  -25.9157  -23.9595   24.5298 C   0  0  0  0  0  0  0  0  0  0  0  0
  -30.8166  -14.6523   20.7262 C   0  0  0  0  0  0  0  0  0  0  0  0
  -27.1570  -26.5170   13.7208 C   0  0  0  0  0  0  0  0  0  0  0  0
  -28.0688  -22.9098   19.0666 C   0  0  0  0  0  0  0  0  0  0  0  0
  -28.6060  -24.4753   21.5172 C   0  0  0  0  0  0  0  0  0  0  0  0
  -26.4590  -26.8334   15.0410 C   0  0  0  0  0  0  0  0  0  0  0  0
  -29.4285  -12.6966   18.0947 C   0  0  0  0  0  0  0  0  0  0  0  0
  -27.4668  -27.3327   16.0715 C   0  0  0  0  0  0  0  0  0  0  0  0
  -28.0189  -12.3680   18.5919 C   0  0  0  0  0  0  0  0  0  0  0  0
  -30.4456  -12.6999   19.2346 C   0  0  0  0  0  0  0  0  0  0  0  0
  -28.6839  -13.2224   20.8755 C   0  0  0  0  0  0  0  0  0  0  0  0
  -28.5226  -26.2626   16.3741 C   0  0  1  0  0  0  0  0  0  0  0  0
  -27.3469  -24.2223   19.3555 C   0  0  1  0  0  0  0  0  0  0  0  0
  -27.6133  -13.2711   19.7732 C   0  0  2  0  0  0  0  0  0  0  0  0
  -28.0601  -17.8721   21.3642 C   0  0  0  0  0  0  0  0  0  0  0  0
  -35.8935  -23.6122   23.5437 C   0  0  0  0  0  0  0  0  0  0  0  0
  -24.3547  -23.9285   26.4943 C   0  0  0  0  0  0  0  0  0  0  0  0
  -26.8992  -28.0207   21.9501 C   0  0  0  0  0  0  0  0  0  0  0  0
  -26.1390  -27.6355   24.3042 C   0  0  0  0  0  0  0  0  0  0  0  0
  -24.5182  -27.4176   22.4206 C   0  0  0  0  0  0  0  0  0  0  0  0
  -25.7361  -21.0057   24.4882 C   0  0  0  0  0  0  0  0  0  0  0  0
  -28.5694  -17.5467   22.7648 C   0  0  0  0  0  0  0  0  0  0  0  0
  -35.5395  -22.1454   23.3433 C   0  0  0  0  0  0  0  0  0  0  0  0
  -33.0150  -22.5870   23.1787 C   0  0  0  0  0  0  0  0  0  1  0  0
  -33.9147  -20.2630   23.6602 C   0  0  0  0  0  0  0  0  0  0  0  0
  -26.2880  -25.6414   22.7446 C   0  0  1  0  0  0  0  0  0  0  0  0
  -24.8091  -23.2001   25.2391 C   0  0  2  0  0  0  0  0  0  0  0  0
  -34.1327  -21.7730   23.8517 C   0  0  1  0  0  0  0  0  0  0  0  0
  -25.9813  -27.1625   22.8434 C   0  0  0  0  0  0  0  0  0  0  0  0
  -25.8246  -11.6411   20.2477 N   0  0  0  0  0  0  0  0  0  0  0  0
  -26.2354  -12.9195   20.3024 N   0  0  0  0  0  0  0  0  0  0  0  0
  -27.3340  -24.5586   20.7806 N   0  0  0  0  0  0  0  0  0  0  0  0
  -29.9967  -13.5800   20.3156 N   0  0  0  0  0  0  0  0  0  0  0  0
  -25.5716  -15.0895   20.9816 N   0  0  0  0  0  0  0  0  0  0  0  0
  -22.0090  -12.5278   22.0502 N   0  0  0  0  0  0  0  0  0  0  0  0
  -30.2712  -15.4401   21.7394 N   0  0  0  0  0  0  0  0  0  0  0  0
  -27.9810  -25.2546   17.2602 N   0  0  0  0  0  0  0  0  0  0  0  0
  -25.4162  -24.8020   23.5593 N   0  0  0  0  0  0  0  0  0  0  0  0
  -25.2808  -21.8413   25.6290 N   0  3  0  0  0  0  0  0  0  0  0  0
  -22.8354  -14.6669   22.0638 O   0  0  0  0  0  0  0  0  0  0  0  0
  -28.3743  -26.3469   19.2788 O   0  0  0  0  0  0  0  0  0  0  0  0
  -25.0946  -25.2067   20.7412 O   0  0  0  0  0  0  0  0  0  0  0  0
  -27.1042  -23.8220   24.8112 O   0  0  0  0  0  0  0  0  0  0  0  0
  -31.9094  -14.8730   20.1979 O   0  0  0  0  0  0  0  0  0  0  0  0
  -21.5470   -7.0331   21.2563 O   0  0  0  0  0  0  0  0  0  0  0  0
  -33.0208  -22.3813   21.7666 O   0  0  0  0  0  0  0  0  0  1  0  0
  -32.6263  -19.8926   24.1334 O   0  0  0  0  0  0  0  0  0  0  0  0
  -24.0526   -2.5119   23.1757 F   0  0  0  0  0  0  0  0  0  0  0  0
  -23.7165   -5.9442   19.9335 F   0  0  0  0  0  0  0  0  0  0  0  0
  1  2  1  0  0  0  0
  1  5  2  0  0  0  0
  2  6  2  0  0  0  0
  3  9  2  0  0  0  0
  3 18  1  0  0  0  0
  4 10  1  0  0  0  0
  4 18  2  0  0  0  0
  5 20  1  0  0  0  0
  6 22  1  0  0  0  0
  7 11  2  0  0  0  0
  7 21  1  0  0  0  0
  8 12  2  0  0  0  0
  8 25  1  0  0  0  0
  9 26  1  0  0  0  0
 10 26  2  0  0  0  0
 11 27  1  0  0  0  0
 12 28  1  0  0  0  0
 13 14  2  0  0  0  0
 13 29  1  0  0  0  0
 14 30  1  0  0  0  0
 15 23  1  0  0  0  0
 15 27  2  0  0  0  0
 16 24  1  0  0  0  0
 16 28  2  0  0  0  0
 17 30  2  0  0  0  0
 17 31  1  0  0  0  0
 18 32  1  0  0  0  0
 19 32  1  0  0  0  0
 19 33  2  0  0  0  0
 19 34  1  0  0  0  0
 20 22  2  0  0  0  0
 20 39  1  0  0  0  0
 21 23  2  0  0  0  0
 21 40  1  0  0  0  0
 22 48  1  0  0  0  0
 23 41  1  0  0  0  0
 24 25  2  0  0  0  0
 24 58  1  0  0  0  0
 25 72  1  0  0  0  0
 26 81  1  0  0  0  0
 27 82  1  0  0  0  0
 28 83  1  0  0  0  0
 29 31  2  0  0  0  0
 29 81  1  0  0  0  0
 30 84  1  0  0  0  0
 31 85  1  0  0  0  0
 32 66  2  0  0  0  0
 33 67  1  0  0  0  0
 33 70  1  0  0  0  0
 34 71  1  0  0  0  0
 34 76  2  0  0  0  0
 35 49  1  0  0  0  0
 35 73  1  0  0  0  0
 35 77  2  0  0  0  0
 36 62  1  0  0  0  0
 36 68  1  0  0  0  0
 36 78  2  0  0  0  0
 37 63  1  0  0  0  0
 37 74  1  0  0  0  0
 37 79  2  0  0  0  0
 38 69  1  0  0  0  0
 38 72  1  0  0  0  0
 38 80  2  0  0  0  0
 39 42  1  0  0  0  0
 40 49  1  0  0  0  0
 41 68  1  0  0  0  0
 42 44  1  0  0  0  0
 43 45  1  0  0  0  0
 43 46  1  0  0  0  0
 44 48  1  0  0  0  0
 45 50  1  0  0  0  0
 46 69  1  0  0  0  0
 47 50  1  0  0  0  0
 47 69  1  0  0  0  0
 48 73  1  0  0  0  0
 49 68  1  0  0  0  0
 50 67  1  0  0  0  0
 51 58  1  0  0  0  0
 52 59  1  0  0  0  0
 53 63  1  0  0  0  0
 54 65  1  0  0  0  0
 55 65  1  0  0  0  0
 56 65  1  0  0  0  0
 57 75  1  0  0  0  0
 59 64  1  0  0  0  0
 60 64  1  0  0  0  0
 60 82  1  0  0  0  0
 61 64  1  0  0  0  0
 61 83  1  0  0  0  0
 62 65  1  0  0  0  0
 62 74  1  0  0  0  0
 63 75  1  0  0  0  0
 66 67  1  0  0  0  0
M  CHG  1  75   1
M  ISO  4  38 100  60 101  72 100  82 101
M  END
> <Batch ID>
0135

> <Smiles>
CCc1cc(OCC(CC)[101CH2:1][101O:1]c2ccc3c(c2)CN(C(=O)C(NC(=O)C(C)NC)C(C)(C)C)C(C(=O)NC2CCCc4ccccc42)C3)ccc1[100NH:0][100C:0](=O)N1CCCC(n2nc(-c3ccc(Oc4ccc(F)cc4F)cc3)c(C(N)=O)c2N)C1

> <Shape>
0.219

> <Color>
0.178

> <Negative vol penalty>
0.000

$$$$

  -OEChem-04052302363D

 88 96  0     1  0  0  0  0  0999 V2000
  -32.9963  -31.5451   19.6741 C   0  0  0  0  0  0  0  0  0  0  0  0
  -32.4512  -30.2657   19.6373 C   0  0  0  0  0  0  0  0  0  0  0  0
  -22.9493  -10.1207   20.2169 C   0  0  0  0  0  0  0  0  0  0  0  0
  -24.3234   -9.3437   22.0460 C   0  0  0  0  0  0  0  0  0  0  0  0
  -32.4439  -32.5132   20.5117 C   0  0  0  0  0  0  0  0  0  0  0  0
  -31.3538  -29.9533   20.4389 C   0  0  0  0  0  0  0  0  0  0  0  0
  -27.7988  -27.3541   17.9387 C   0  0  0  0  0  0  0  0  0  0  0  0
  -22.2421   -8.9186   20.2376 C   0  0  0  0  0  0  0  0  0  0  0  0
  -23.6161   -8.1417   22.0667 C   0  0  0  0  0  0  0  0  0  0  0  0
  -28.0287  -25.9940   17.7360 C   0  0  0  0  0  0  0  0  0  0  0  0
  -20.6486   -7.0195   23.2306 C   0  0  0  0  0  0  0  0  0  0  0  0
  -20.2510   -6.5246   24.4726 C   0  0  0  0  0  0  0  0  0  0  0  0
  -29.8195  -17.3874   21.0768 C   0  0  0  0  0  0  0  0  0  0  0  0
  -26.5762  -25.4781   19.5915 C   0  0  0  0  0  0  0  0  0  0  0  0
  -28.3079  -18.7505   22.3783 C   0  0  0  0  0  0  0  0  0  0  0  0
  -21.5380   -4.5170   24.0848 C   0  0  0  0  0  0  0  0  0  0  0  0
  -23.9901  -10.3332   21.1211 C   0  0  0  0  0  0  0  0  0  0  0  0
  -29.7725  -16.3977   22.0586 C   0  0  0  0  0  0  0  0  0  0  0  0
  -24.4263  -12.7475   21.8200 C   0  0  0  0  0  0  0  0  0  0  0  0
  -31.3331  -32.2153   21.3168 C   0  0  0  0  0  0  0  0  0  0  0  0
  -26.9630  -27.7875   18.9779 C   0  0  0  0  0  0  0  0  0  0  0  0
  -30.7868  -30.9179   21.2890 C   0  0  0  0  0  0  0  0  0  0  0  0
  -26.3352  -26.8441   19.8037 C   0  0  0  0  0  0  0  0  0  0  0  0
  -28.2608  -17.7608   23.3601 C   0  0  0  0  0  0  0  0  0  0  0  0
  -28.9931  -16.5844   23.2002 C   0  0  0  0  0  0  0  0  0  0  0  0
  -22.5754   -7.9291   21.1625 C   0  0  0  0  0  0  0  0  0  0  0  0
  -27.4197  -25.0559   18.5643 C   0  0  0  0  0  0  0  0  0  0  0  0
  -21.4908   -6.2631   22.4156 C   0  0  0  0  0  0  0  0  0  0  0  0
  -29.0873  -18.5639   21.2367 C   0  0  0  0  0  0  0  0  0  0  0  0
  -20.6957   -5.2734   24.8997 C   0  0  0  0  0  0  0  0  0  0  0  0
  -21.9356   -5.0119   22.8427 C   0  0  0  0  0  0  0  0  0  0  0  0
  -24.7214  -11.5745   21.0998 C   0  0  0  0  0  0  0  0  0  0  0  0
  -25.4125  -13.6314   21.4557 C   0  0  0  0  0  0  0  0  0  0  0  0
  -30.5495  -15.1805   21.8639 C   0  0  0  0  0  0  0  0  0  0  0  0
  -23.3564  -13.0143   22.7365 C   0  0  0  0  0  0  0  0  0  0  0  0
  -30.8295  -14.6555   20.5078 C   0  0  0  0  0  0  0  0  0  0  0  0
  -27.3596  -29.5680   21.5811 C   0  0  0  0  0  0  0  0  0  0  0  0
  -24.1412  -29.2411   21.8209 C   0  0  0  0  0  0  0  0  0  0  0  0
  -21.3476  -27.4357   21.0574 C   0  0  0  0  0  0  0  0  0  0  0  0
  -30.7999  -33.2810   22.2412 C   0  0  0  0  0  0  0  0  0  0  0  0
  -26.7040  -29.2571   19.1666 C   0  0  0  0  0  0  0  0  0  0  0  0
  -25.4131  -27.2568   20.9208 C   0  0  0  0  0  0  0  0  0  0  0  0
  -29.4046  -32.9769   22.7807 C   0  0  0  0  0  0  0  0  0  0  0  0
  -28.8700  -13.3938   17.7828 C   0  0  0  0  0  0  0  0  0  0  0  0
  -29.3243  -31.5346   23.2706 C   0  0  0  0  0  0  0  0  0  0  0  0
  -27.6087  -12.8691   18.4682 C   0  0  0  0  0  0  0  0  0  0  0  0
  -30.1035  -13.1988   18.6586 C   0  0  0  0  0  0  0  0  0  0  0  0
  -28.7150  -13.2811   20.7114 C   0  0  0  0  0  0  0  0  0  0  0  0
  -29.5810  -30.5478   22.1253 C   0  0  1  0  0  0  0  0  0  0  0  0
  -26.2416  -29.6060   20.5779 C   0  0  1  0  0  0  0  0  0  0  0  0
  -27.4440  -13.4859   19.8686 C   0  0  2  0  0  0  0  0  0  0  0  0
  -29.7925  -15.8782   25.4693 C   0  0  0  0  0  0  0  0  0  0  0  0
  -25.0845  -18.4283   25.4508 C   0  0  0  0  0  0  0  0  0  0  0  0
  -18.8656  -27.3969   21.4255 C   0  0  0  0  0  0  0  0  0  0  0  0
  -29.9493  -22.0880   19.1056 C   0  0  0  0  0  0  0  0  0  0  0  0
  -24.5815  -28.2314   24.6664 C   0  0  0  0  0  0  0  0  0  0  0  0
  -22.2446  -27.3336   24.6349 C   0  0  0  0  0  0  0  0  0  0  0  0
  -22.6402  -29.7852   24.3995 C   0  0  0  0  0  0  0  0  0  0  0  0
  -20.7972  -27.6593   18.1581 C   0  0  0  0  0  0  0  0  0  0  0  0
  -27.4182  -17.9852   24.5731 C   0  0  0  0  0  0  0  0  0  0  0  0
  -28.9399  -15.5251   24.2556 C   0  0  0  0  0  0  0  0  0  0  0  0
  -25.9464  -18.2335   24.2135 C   0  0  0  0  0  0  0  0  0  0  0  0
  -27.5861  -22.8838   19.5183 C   0  0  0  0  0  0  0  0  0  1  0  0
  -28.3608  -20.7070   20.5053 C   0  0  0  0  0  0  0  0  0  0  0  0
  -23.2135  -28.2470   22.4767 C   0  0  1  0  0  0  0  0  0  0  0  0
  -19.9936  -27.8562   20.5148 C   0  0  2  0  0  0  0  0  0  0  0  0
  -28.4906  -21.6646   19.3173 C   0  0  2  0  0  0  0  0  0  0  0  0
  -23.1888  -28.3913   24.0246 C   0  0  0  0  0  0  0  0  0  0  0  0
  -25.8098  -11.6987   20.3356 N   0  0  0  0  0  0  0  0  0  0  0  0
  -31.0441  -14.4841   22.8495 N   0  0  0  0  0  0  0  0  0  0  0  0
  -26.2072  -12.9603   20.5735 N   0  0  0  0  0  0  0  0  0  0  0  0
  -29.9002  -13.7634   19.9912 N   0  0  0  0  0  0  0  0  0  0  0  0
  -25.1965  -28.7055   21.0691 N   0  0  0  0  0  0  0  0  0  0  0  0
  -25.6687  -14.9094   21.8071 N   0  0  0  0  0  0  0  0  0  0  0  0
  -22.4308  -11.9949   22.9979 N   0  0  0  0  0  0  0  0  0  0  0  0
  -28.4047  -30.4243   21.2913 N   0  0  0  0  0  0  0  0  0  0  0  0
  -21.9127  -28.4207   21.8395 N   0  0  0  0  0  0  0  0  0  0  0  0
  -19.7733  -27.2711   19.1620 N   0  3  0  0  0  0  0  0  0  0  0  0
  -23.2158  -14.1291   23.2942 O   0  0  0  0  0  0  0  0  0  0  0  0
  -31.8569  -15.0668   19.9848 O   0  0  0  0  0  0  0  0  0  0  0  0
  -27.2793  -28.8185   22.5472 O   0  0  0  0  0  0  0  0  0  0  0  0
  -23.9329  -30.4485   21.9644 O   0  0  0  0  0  0  0  0  0  0  0  0
  -21.8517  -26.3414   20.8149 O   0  0  0  0  0  0  0  0  0  0  0  0
  -21.8853   -6.7562   21.1832 O   0  0  0  0  0  0  0  0  0  0  0  0
  -27.6430  -23.7278   18.3690 O   0  0  0  0  0  0  0  0  0  1  0  0
  -29.1332  -19.5366   20.2724 O   0  0  0  0  0  0  0  0  0  0  0  0
  -20.3150   -4.7990   26.0931 F   0  0  0  0  0  0  0  0  0  0  0  0
  -22.7458   -4.2813   22.0646 F   0  0  0  0  0  0  0  0  0  0  0  0
  1  2  1  0  0  0  0
  1  5  2  0  0  0  0
  2  6  2  0  0  0  0
  3  8  2  0  0  0  0
  3 17  1  0  0  0  0
  4  9  1  0  0  0  0
  4 17  2  0  0  0  0
  5 20  1  0  0  0  0
  6 22  1  0  0  0  0
  7 10  2  0  0  0  0
  7 21  1  0  0  0  0
  8 26  1  0  0  0  0
  9 26  2  0  0  0  0
 10 27  1  0  0  0  0
 11 12  2  0  0  0  0
 11 28  1  0  0  0  0
 12 30  1  0  0  0  0
 13 18  2  0  0  0  0
 13 29  1  0  0  0  0
 14 23  1  0  0  0  0
 14 27  2  0  0  0  0
 15 24  1  0  0  0  0
 15 29  2  0  0  0  0
 16 30  2  0  0  0  0
 16 31  1  0  0  0  0
 17 32  1  0  0  0  0
 18 25  1  0  0  0  0
 18 34  1  0  0  0  0
 19 32  1  0  0  0  0
 19 33  2  0  0  0  0
 19 35  1  0  0  0  0
 20 22  2  0  0  0  0
 20 40  1  0  0  0  0
 21 23  2  0  0  0  0
 21 41  1  0  0  0  0
 22 49  1  0  0  0  0
 23 42  1  0  0  0  0
 24 25  2  0  0  0  0
 24 60  1  0  0  0  0
 25 61  1  0  0  0  0
 26 84  1  0  0  0  0
 27 85  1  0  0  0  0
 28 31  2  0  0  0  0
 28 84  1  0  0  0  0
 29 86  1  0  0  0  0
 30 87  1  0  0  0  0
 31 88  1  0  0  0  0
 32 69  2  0  0  0  0
 33 71  1  0  0  0  0
 33 74  1  0  0  0  0
 34 36  1  0  0  0  0
 34 70  2  0  0  0  0
 35 75  1  0  0  0  0
 35 79  2  0  0  0  0
 36 72  1  0  0  0  0
 36 80  2  0  0  0  0
 37 50  1  0  0  0  0
 37 76  1  0  0  0  0
 37 81  2  0  0  0  0
 38 65  1  0  0  0  0
 38 73  1  0  0  0  0
 38 82  2  0  0  0  0
 39 66  1  0  0  0  0
 39 77  1  0  0  0  0
 39 83  2  0  0  0  0
 40 43  1  0  0  0  0
 41 50  1  0  0  0  0
 42 73  1  0  0  0  0
 43 45  1  0  0  0  0
 44 46  1  0  0  0  0
 44 47  1  0  0  0  0
 45 49  1  0  0  0  0
 46 51  1  0  0  0  0
 47 72  1  0  0  0  0
 48 51  1  0  0  0  0
 48 72  1  0  0  0  0
 49 76  1  0  0  0  0
 50 73  1  0  0  0  0
 51 71  1  0  0  0  0
 52 61  1  0  0  0  0
 53 62  1  0  0  0  0
 54 66  1  0  0  0  0
 55 67  1  0  0  0  0
 56 68  1  0  0  0  0
 57 68  1  0  0  0  0
 58 68  1  0  0  0  0
 59 78  1  0  0  0  0
 60 62  1  0  0  0  0
 63 67  1  0  0  0  0
 63 85  1  0  0  0  0
 64 67  1  0  0  0  0
 64 86  1  0  0  0  0
 65 68  1  0  0  0  0
 65 77  1  0  0  0  0
 66 78  1  0  0  0  0
 69 71  1  0  0  0  0
M  CHG  1  78   1
M  ISO  4  34 100  36 100  63 101  85 101
M  END
> <Batch ID>
0135

> <Smiles>
CCCc1cc(OCC(C)[101CH2:1][101O:1]c2ccc3c(c2)CN(C(=O)C(NC(=O)C(C)NC)C(C)(C)C)C(C(=O)NC2CCCc4ccccc42)C3)cc([100C:0](=N)[100C:0](=O)N2CCCC(n3nc(-c4ccc(Oc5ccc(F)cc5F)cc4)c(C(N)=O)c3N)C2)c1CC

> <Shape>
0.311

> <Color>
0.151

> <Negative vol penalty>
0.000

$$$$

  -OEChem-04052302363D

 87 95  0     1  0  0  0  0  0999 V2000
  -28.1776  -35.5617   22.1681 C   0  0  0  0  0  0  0  0  0  0  0  0
  -28.2602  -34.1798   22.3052 C   0  0  0  0  0  0  0  0  0  0  0  0
  -24.3023   -9.6625   21.2406 C   0  0  0  0  0  0  0  0  0  0  0  0
  -24.8957  -10.5998   23.3869 C   0  0  0  0  0  0  0  0  0  0  0  0
  -26.9372  -36.1948   22.2353 C   0  0  0  0  0  0  0  0  0  0  0  0
  -27.1025  -33.4302   22.5107 C   0  0  0  0  0  0  0  0  0  0  0  0
  -26.9524  -29.2611   19.6399 C   0  0  0  0  0  0  0  0  0  0  0  0
  -23.9525   -8.4632   21.8611 C   0  0  0  0  0  0  0  0  0  0  0  0
  -24.5459   -9.4005   24.0073 C   0  0  0  0  0  0  0  0  0  0  0  0
  -27.7210  -28.1744   20.0548 C   0  0  0  0  0  0  0  0  0  0  0  0
  -21.3384   -7.2398   23.6225 C   0  0  0  0  0  0  0  0  0  0  0  0
  -20.1426   -6.6347   23.2361 C   0  0  0  0  0  0  0  0  0  0  0  0
  -25.7514  -27.1488   20.9972 C   0  0  0  0  0  0  0  0  0  0  0  0
  -28.4068  -20.8856   22.2483 C   0  0  0  0  0  0  0  0  0  0  0  0
  -30.5245  -19.3611   21.2615 C   0  0  0  0  0  0  0  0  0  0  0  0
  -21.3628   -4.6707   22.5353 C   0  0  0  0  0  0  0  0  0  0  0  0
  -24.7739  -10.7308   22.0035 C   0  0  0  0  0  0  0  0  0  0  0  0
  -24.2989  -13.0735   21.1127 C   0  0  0  0  0  0  0  0  0  0  0  0
  -25.7626  -35.4516   22.4321 C   0  0  0  0  0  0  0  0  0  0  0  0
  -25.5772  -29.3050   19.9107 C   0  0  0  0  0  0  0  0  0  0  0  0
  -25.8454  -34.0541   22.5819 C   0  0  0  0  0  0  0  0  0  0  0  0
  -24.9671  -28.2360   20.5825 C   0  0  0  0  0  0  0  0  0  0  0  0
  -28.1614  -19.6337   21.6844 C   0  0  0  0  0  0  0  0  0  0  0  0
  -29.7110  -21.3753   22.3188 C   0  0  0  0  0  0  0  0  0  0  0  0
  -29.2203  -18.8714   21.1910 C   0  0  0  0  0  0  0  0  0  0  0  0
  -24.0743   -8.3322   23.2444 C   0  0  0  0  0  0  0  0  0  0  0  0
  -27.1211  -27.1194   20.7360 C   0  0  0  0  0  0  0  0  0  0  0  0
  -22.5465   -6.5604   23.4653 C   0  0  0  0  0  0  0  0  0  0  0  0
  -20.1547   -5.3502   22.6925 C   0  0  0  0  0  0  0  0  0  0  0  0
  -30.7698  -20.6130   21.8254 C   0  0  0  0  0  0  0  0  0  0  0  0
  -22.5586   -5.2759   22.9217 C   0  0  0  0  0  0  0  0  0  0  0  0
  -25.1360  -11.9697   21.3631 C   0  0  0  0  0  0  0  0  0  0  0  0
  -25.1131  -13.9874   20.4894 C   0  0  0  0  0  0  0  0  0  0  0  0
  -22.9097  -13.2565   21.4165 C   0  0  0  0  0  0  0  0  0  0  0  0
  -23.6804  -31.2315   21.5823 C   0  0  0  0  0  0  0  0  0  0  0  0
  -21.3344  -29.3977   20.2955 C   0  0  0  0  0  0  0  0  0  0  0  0
  -20.4165  -26.4125   18.9197 C   0  0  0  0  0  0  0  0  0  0  0  0
  -29.9430  -16.7277   20.0826 C   0  0  0  0  0  0  0  0  0  0  0  0
  -24.4497  -36.1852   22.5451 C   0  0  0  0  0  0  0  0  0  0  0  0
  -24.7572  -30.4719   19.4330 C   0  0  0  0  0  0  0  0  0  0  0  0
  -23.4907  -28.2254   20.8799 C   0  0  0  0  0  0  0  0  0  0  0  0
  -23.2307  -35.2795   22.3909 C   0  0  0  0  0  0  0  0  0  0  0  0
  -29.7854  -13.4914   18.6065 C   0  0  0  0  0  0  0  0  0  0  0  0
  -23.3921  -34.0189   23.2345 C   0  0  0  0  0  0  0  0  0  0  0  0
  -28.4928  -12.8978   19.1715 C   0  0  0  0  0  0  0  0  0  0  0  0
  -30.5137  -14.3502   19.6388 C   0  0  0  0  0  0  0  0  0  0  0  0
  -28.4039  -14.8058   20.8264 C   0  0  0  0  0  0  0  0  0  0  0  0
  -24.6094  -33.2039   22.7813 C   0  0  1  0  0  0  0  0  0  0  0  0
  -23.4592  -30.6500   20.2146 C   0  0  1  0  0  0  0  0  0  0  0  0
  -27.6019  -13.9857   19.8028 C   0  0  2  0  0  0  0  0  0  0  0  0
  -26.1582  -19.2599   20.2236 C   0  0  0  0  0  0  0  0  0  0  0  0
  -32.2383  -25.5705   21.7370 C   0  0  0  0  0  0  0  0  0  0  0  0
  -18.4225  -25.1970   18.0012 C   0  0  0  0  0  0  0  0  0  0  0  0
  -20.3138  -28.9329   23.1332 C   0  0  0  0  0  0  0  0  0  0  0  0
  -18.9669  -27.0117   22.2594 C   0  0  0  0  0  0  0  0  0  0  0  0
  -18.5232  -29.3226   21.4313 C   0  0  0  0  0  0  0  0  0  0  0  0
  -28.9118  -25.4576   23.7991 C   0  0  0  0  0  0  0  0  0  0  0  0
  -21.6686  -26.1354   16.2524 C   0  0  0  0  0  0  0  0  0  0  0  0
  -26.7543  -19.1340   21.6219 C   0  0  0  0  0  0  0  0  0  0  0  0
  -29.9735  -22.7305   22.9300 C   0  0  0  0  0  0  0  0  0  0  0  0
  -31.2337  -25.6603   22.8797 C   0  0  0  0  0  0  0  0  0  0  0  0
  -29.6093  -23.8615   21.9578 C   0  0  0  0  0  0  0  0  0  0  0  0
  -29.2379  -26.3101   21.4572 C   0  0  0  0  0  0  0  0  0  1  0  0
  -20.6275  -28.1268   20.7005 C   0  0  1  0  0  0  0  0  0  0  0  0
  -19.6152  -26.0817   17.6735 C   0  0  2  0  0  0  0  0  0  0  0  0
  -19.6361  -28.3493   21.8773 C   0  0  0  0  0  0  0  0  0  0  0  0
  -29.7636  -25.3069   22.5177 C   0  0  1  0  0  0  0  0  0  0  0  0
  -26.3860  -12.1626   20.9338 N   0  0  0  0  0  0  0  0  0  0  0  0
  -26.3404  -13.3982   20.4073 N   0  0  0  0  0  0  0  0  0  0  0  0
  -22.7327  -29.3919   20.3980 N   0  0  0  0  0  0  0  0  0  0  0  0
  -29.6090  -15.3611   20.1905 N   0  0  0  0  0  0  0  0  0  0  0  0
  -24.8917  -15.2294   20.0091 N   0  0  0  0  0  0  0  0  0  0  0  0
  -22.2238  -12.2169   22.0593 N   0  0  0  0  0  0  0  0  0  0  0  0
  -28.9915  -17.5975   20.6142 N   0  0  0  0  0  0  0  0  0  0  0  0
  -24.3026  -32.4654   21.5751 N   0  0  0  0  0  0  0  0  0  0  0  0
  -20.0084  -27.6002   19.4890 N   0  0  0  0  0  0  0  0  0  0  0  0
  -20.4701  -25.3698   16.6819 N   0  3  0  0  0  0  0  0  0  0  0  0
  -22.2907  -14.3041   21.1117 O   0  0  0  0  0  0  0  0  0  0  0  0
  -23.3125  -30.6078   22.5708 O   0  0  0  0  0  0  0  0  0  0  0  0
  -20.6709  -30.3578   19.8961 O   0  0  0  0  0  0  0  0  0  0  0  0
  -21.3122  -25.6878   19.3476 O   0  0  0  0  0  0  0  0  0  0  0  0
  -30.9829  -17.1001   19.5331 O   0  0  0  0  0  0  0  0  0  0  0  0
  -23.7328   -7.1622   23.8502 O   0  0  0  0  0  0  0  0  0  0  0  0
  -27.8691  -26.0578   21.1426 O   0  0  0  0  0  0  0  0  0  1  0  0
  -19.0061   -4.7686   22.3228 F   0  0  0  0  0  0  0  0  0  0  0  0
  -32.0263  -21.0753   21.8888 F   0  0  0  0  0  0  0  0  0  0  0  0
  -23.7160   -4.6177   22.7694 F   0  0  0  0  0  0  0  0  0  0  0  0
  1  2  1  0  0  0  0
  1  5  2  0  0  0  0
  2  6  2  0  0  0  0
  3  8  2  0  0  0  0
  3 17  1  0  0  0  0
  4  9  1  0  0  0  0
  4 17  2  0  0  0  0
  5 19  1  0  0  0  0
  6 21  1  0  0  0  0
  7 10  2  0  0  0  0
  7 20  1  0  0  0  0
  8 26  1  0  0  0  0
  9 26  2  0  0  0  0
 10 27  1  0  0  0  0
 11 12  2  0  0  0  0
 11 28  1  0  0  0  0
 12 29  1  0  0  0  0
 13 22  1  0  0  0  0
 13 27  2  0  0  0  0
 14 23  1  0  0  0  0
 14 24  2  0  0  0  0
 15 25  1  0  0  0  0
 15 30  2  0  0  0  0
 16 29  2  0  0  0  0
 16 31  1  0  0  0  0
 17 32  1  0  0  0  0
 18 32  1  0  0  0  0
 18 33  2  0  0  0  0
 18 34  1  0  0  0  0
 19 21  2  0  0  0  0
 19 39  1  0  0  0  0
 20 22  2  0  0  0  0
 20 40  1  0  0  0  0
 21 48  1  0  0  0  0
 22 41  1  0  0  0  0
 23 25  2  0  0  0  0
 23 59  1  0  0  0  0
 24 30  1  0  0  0  0
 24 60  1  0  0  0  0
 25 74  1  0  0  0  0
 26 83  1  0  0  0  0
 27 84  1  0  0  0  0
 28 31  2  0  0  0  0
 28 83  1  0  0  0  0
 29 85  1  0  0  0  0
 30 86  1  0  0  0  0
 31 87  1  0  0  0  0
 32 68  2  0  0  0  0
 33 69  1  0  0  0  0
 33 72  1  0  0  0  0
 34 73  1  0  0  0  0
 34 78  2  0  0  0  0
 35 49  1  0  0  0  0
 35 75  1  0  0  0  0
 35 79  2  0  0  0  0
 36 64  1  0  0  0  0
 36 70  1  0  0  0  0
 36 80  2  0  0  0  0
 37 65  1  0  0  0  0
 37 76  1  0  0  0  0
 37 81  2  0  0  0  0
 38 71  1  0  0  0  0
 38 74  1  0  0  0  0
 38 82  2  0  0  0  0
 39 42  1  0  0  0  0
 40 49  1  0  0  0  0
 41 70  1  0  0  0  0
 42 44  1  0  0  0  0
 43 45  1  0  0  0  0
 43 46  1  0  0  0  0
 44 48  1  0  0  0  0
 45 50  1  0  0  0  0
 46 71  1  0  0  0  0
 47 50  1  0  0  0  0
 47 71  1  0  0  0  0
 48 75  1  0  0  0  0
 49 70  1  0  0  0  0
 50 69  1  0  0  0  0
 51 59  1  0  0  0  0
 52 61  1  0  0  0  0
 53 65  1  0  0  0  0
 54 66  1  0  0  0  0
 55 66  1  0  0  0  0
 56 66  1  0  0  0  0
 57 67  1  0  0  0  0
 58 77  1  0  0  0  0
 60 62  1  0  0  0  0
 61 67  1  0  0  0  0
 62 67  1  0  0  0  0
 63 67  1  0  0  0  0
 63 84  1  0  0  0  0
 64 66  1  0  0  0  0
 64 76  1  0  0  0  0
 65 77  1  0  0  0  0
 68 69  1  0  0  0  0
M  CHG  1  77   1
M  ISO  4  38 100  63 101  74 100  84 101
M  END
> <Batch ID>
0135

> <Smiles>
CCc1cc(CCC(C)(CC)[101CH2:1][101O:1]c2ccc3c(c2)CN(C(=O)C(NC(=O)C(C)NC)C(C)(C)C)C(C(=O)NC2CCCc4ccccc42)C3)c(F)cc1[100NH:0][100C:0](=O)N1CCCC(n2nc(-c3ccc(Oc4ccc(F)cc4F)cc3)c(C(N)=O)c2N)C1

> <Shape>
0.304

> <Color>
0.124

> <Negative vol penalty>
0.000

$$$$

  -OEChem-04052302363D

 85 93  0     1  0  0  0  0  0999 V2000
  -26.9188  -30.6350   23.5437 C   0  0  0  0  0  0  0  0  0  0  0  0
  -27.1283  -29.2873   23.8183 C   0  0  0  0  0  0  0  0  0  0  0  0
  -29.2642  -12.3583   18.4184 C   0  0  0  0  0  0  0  0  0  0  0  0
  -19.9987  -16.4535   21.1303 C   0  0  0  0  0  0  0  0  0  0  0  0
  -20.7704  -15.8281   23.3326 C   0  0  0  0  0  0  0  0  0  0  0  0
  -28.4939  -11.4773   19.1774 C   0  0  0  0  0  0  0  0  0  0  0  0
  -26.4942  -31.0290   22.2755 C   0  0  0  0  0  0  0  0  0  0  0  0
  -26.9122  -28.3328   22.8251 C   0  0  0  0  0  0  0  0  0  0  0  0
  -30.0426  -23.1396   21.9664 C   0  0  0  0  0  0  0  0  0  0  0  0
  -29.7323  -13.5430   18.9869 C   0  0  0  0  0  0  0  0  0  0  0  0
  -18.8194  -16.9510   21.6847 C   0  0  0  0  0  0  0  0  0  0  0  0
  -19.5912  -16.3256   23.8871 C   0  0  0  0  0  0  0  0  0  0  0  0
  -29.7846  -21.8181   22.3281 C   0  0  0  0  0  0  0  0  0  0  0  0
  -15.7619  -18.7127   22.5585 C   0  0  0  0  0  0  0  0  0  0  0  0
  -15.3076  -19.9531   22.1108 C   0  0  0  0  0  0  0  0  0  0  0  0
  -28.8564  -21.4068   20.1399 C   0  0  0  0  0  0  0  0  0  0  0  0
  -17.3599  -20.9782   22.8686 C   0  0  0  0  0  0  0  0  0  0  0  0
  -20.9742  -15.8920   21.9542 C   0  0  0  0  0  0  0  0  0  0  0  0
  -28.1916  -11.7809   20.5048 C   0  0  0  0  0  0  0  0  0  0  0  0
  -23.3916  -16.0811   21.1617 C   0  0  0  0  0  0  0  0  0  0  0  0
  -26.2821  -30.0797   21.2634 C   0  0  0  0  0  0  0  0  0  0  0  0
  -29.6989  -23.6083   20.6903 C   0  0  0  0  0  0  0  0  0  0  0  0
  -26.4830  -28.7143   21.5425 C   0  0  0  0  0  0  0  0  0  0  0  0
  -29.1134  -22.7340   19.7636 C   0  0  0  0  0  0  0  0  0  0  0  0
  -28.6597  -12.9656   21.0733 C   0  0  0  0  0  0  0  0  0  0  0  0
  -18.6157  -16.8871   23.0631 C   0  0  0  0  0  0  0  0  0  0  0  0
  -29.1887  -20.9522   21.4158 C   0  0  0  0  0  0  0  0  0  0  0  0
  -29.4300  -13.8466   20.3143 C   0  0  0  0  0  0  0  0  0  0  0  0
  -17.0152  -18.6050   23.1613 C   0  0  0  0  0  0  0  0  0  0  0  0
  -16.1066  -21.0859   22.2658 C   0  0  0  0  0  0  0  0  0  0  0  0
  -17.8142  -19.7378   23.3164 C   0  0  0  0  0  0  0  0  0  0  0  0
  -22.1923  -15.3775   21.3819 C   0  0  0  0  0  0  0  0  0  0  0  0
  -24.2364  -15.1533   20.6031 C   0  0  0  0  0  0  0  0  0  0  0  0
  -27.3853  -10.8415   21.2728 C   0  0  0  0  0  0  0  0  0  0  0  0
  -23.7132  -17.4508   21.4374 C   0  0  0  0  0  0  0  0  0  0  0  0
  -26.3717   -9.9831   20.6178 C   0  0  0  0  0  0  0  0  0  0  0  0
  -27.7387  -25.8490   19.5764 C   0  0  0  0  0  0  0  0  0  0  0  0
  -29.4049  -17.3419   21.2592 C   0  0  0  0  0  0  0  0  0  0  0  0
  -29.0904  -25.0672   16.7331 C   0  0  0  0  0  0  0  0  0  0  0  0
  -30.7249  -22.7419   14.8442 C   0  0  0  0  0  0  0  0  0  0  0  0
  -25.7776  -30.5492   19.9219 C   0  0  0  0  0  0  0  0  0  0  0  0
  -30.0083  -25.0294   20.3065 C   0  0  0  0  0  0  0  0  0  0  0  0
  -28.7438  -23.1824   18.3741 C   0  0  0  0  0  0  0  0  0  0  0  0
  -25.9321  -29.5093   18.8150 C   0  0  0  0  0  0  0  0  0  0  0  0
  -23.3308  -10.5252   18.7969 C   0  0  0  0  0  0  0  0  0  0  0  0
  -25.4503  -28.1437   19.2945 C   0  0  0  0  0  0  0  0  0  0  0  0
  -22.8428  -11.8762   19.3189 C   0  0  0  0  0  0  0  0  0  0  0  0
  -24.0326   -9.7250   19.8894 C   0  0  0  0  0  0  0  0  0  0  0  0
  -24.6799  -11.8106   21.0643 C   0  0  0  0  0  0  0  0  0  0  0  0
  -26.2833  -27.6513   20.4841 C   0  0  1  0  0  0  0  0  0  0  0  0
  -29.1470  -25.5383   19.1547 C   0  0  1  0  0  0  0  0  0  0  0  0
  -23.9901  -12.6591   19.9819 C   0  0  2  0  0  0  0  0  0  0  0  0
  -29.5222  -13.0521   23.4260 C   0  0  0  0  0  0  0  0  0  0  0  0
  -31.6636  -22.3779   12.5455 C   0  0  0  0  0  0  0  0  0  0  0  0
  -26.2693  -24.6425   15.6510 C   0  0  0  0  0  0  0  0  0  0  0  0
  -27.2711  -23.3972   13.7238 C   0  0  0  0  0  0  0  0  0  0  0  0
  -27.8270  -25.8033   14.0760 C   0  0  0  0  0  0  0  0  0  0  0  0
  -33.4670  -22.3755   15.8957 C   0  0  0  0  0  0  0  0  0  0  0  0
  -28.3396  -13.2998   22.4959 C   0  0  0  0  0  0  0  0  0  0  0  0
  -28.9623  -18.6882   20.7238 C   0  0  0  0  0  0  0  0  0  1  0  0
  -29.4924  -16.2229   20.2418 C   0  0  0  0  0  0  0  0  0  0  0  0
  -28.7863  -24.0673   15.6438 C   0  0  1  0  0  0  0  0  0  0  0  0
  -31.9565  -22.8453   13.9627 C   0  0  2  0  0  0  0  0  0  0  0  0
  -27.5435  -24.4693   14.8004 C   0  0  0  0  0  0  0  0  0  0  0  0
  -22.2647  -14.1012   20.9947 N   0  0  0  0  0  0  0  0  0  0  0  0
  -27.4985  -10.6922   22.5636 N   0  0  0  0  0  0  0  0  0  0  0  0
  -23.5196  -13.9955   20.5254 N   0  0  0  0  0  0  0  0  0  0  0  0
  -25.0912  -10.5095   20.5220 N   0  0  0  0  0  0  0  0  0  0  0  0
  -29.0606  -24.5828   18.0485 N   0  0  0  0  0  0  0  0  0  0  0  0
  -25.5150  -15.2230   20.1756 N   0  0  0  0  0  0  0  0  0  0  0  0
  -22.7287  -18.2655   22.0130 N   0  0  0  0  0  0  0  0  0  0  0  0
  -27.5597  -27.1416   20.0309 N   0  0  0  0  0  0  0  0  0  0  0  0
  -30.0134  -23.9228   14.8681 N   0  0  0  0  0  0  0  0  0  0  0  0
  -33.0601  -22.0096   14.5146 N   0  3  0  0  0  0  0  0  0  0  0  0
  -24.8350  -17.9422   21.1659 O   0  0  0  0  0  0  0  0  0  0  0  0
  -26.7744   -8.8944   20.2292 O   0  0  0  0  0  0  0  0  0  0  0  0
  -26.8779  -24.9807   19.4939 O   0  0  0  0  0  0  0  0  0  0  0  0
  -29.6758  -17.1682   22.4464 O   0  0  0  0  0  0  0  0  0  0  0  0
  -29.3519  -26.2334   16.4277 O   0  0  0  0  0  0  0  0  0  0  0  0
  -30.4222  -21.7150   15.4478 O   0  0  0  0  0  0  0  0  0  0  0  0
  -17.4652  -17.3726   23.6046 O   0  0  0  0  0  0  0  0  0  0  0  0
  -28.9352  -19.6621   21.7665 O   0  0  0  0  0  0  0  0  0  1  0  0
  -29.9003  -15.0191   20.8568 O   0  0  0  0  0  0  0  0  0  0  0  0
  -15.6709  -22.2768   21.8344 F   0  0  0  0  0  0  0  0  0  0  0  0
  -19.0196  -19.6404   23.8937 F   0  0  0  0  0  0  0  0  0  0  0  0
  1  2  1  0  0  0  0
  1  7  2  0  0  0  0
  2  8  2  0  0  0  0
  3  6  2  0  0  0  0
  3 10  1  0  0  0  0
  4 11  2  0  0  0  0
  4 18  1  0  0  0  0
  5 12  1  0  0  0  0
  5 18  2  0  0  0  0
  6 19  1  0  0  0  0
  7 21  1  0  0  0  0
  8 23  1  0  0  0  0
  9 13  2  0  0  0  0
  9 22  1  0  0  0  0
 10 28  2  0  0  0  0
 11 26  1  0  0  0  0
 12 26  2  0  0  0  0
 13 27  1  0  0  0  0
 14 15  2  0  0  0  0
 14 29  1  0  0  0  0
 15 30  1  0  0  0  0
 16 24  1  0  0  0  0
 16 27  2  0  0  0  0
 17 30  2  0  0  0  0
 17 31  1  0  0  0  0
 18 32  1  0  0  0  0
 19 25  2  0  0  0  0
 19 34  1  0  0  0  0
 20 32  1  0  0  0  0
 20 33  2  0  0  0  0
 20 35  1  0  0  0  0
 21 23  2  0  0  0  0
 21 41  1  0  0  0  0
 22 24  2  0  0  0  0
 22 42  1  0  0  0  0
 23 50  1  0  0  0  0
 24 43  1  0  0  0  0
 25 28  1  0  0  0  0
 25 59  1  0  0  0  0
 26 81  1  0  0  0  0
 27 82  1  0  0  0  0
 28 83  1  0  0  0  0
 29 31  2  0  0  0  0
 29 81  1  0  0  0  0
 30 84  1  0  0  0  0
 31 85  1  0  0  0  0
 32 65  2  0  0  0  0
 33 67  1  0  0  0  0
 33 70  1  0  0  0  0
 34 36  1  0  0  0  0
 34 66  2  0  0  0  0
 35 71  1  0  0  0  0
 35 75  2  0  0  0  0
 36 68  1  0  0  0  0
 36 76  2  0  0  0  0
 37 51  1  0  0  0  0
 37 72  1  0  0  0  0
 37 77  2  0  0  0  0
 38 60  1  0  0  0  0
 38 61  1  0  0  0  0
 38 78  2  0  0  0  0
 39 62  1  0  0  0  0
 39 69  1  0  0  0  0
 39 79  2  0  0  0  0
 40 63  1  0  0  0  0
 40 73  1  0  0  0  0
 40 80  2  0  0  0  0
 41 44  1  0  0  0  0
 42 51  1  0  0  0  0
 43 69  1  0  0  0  0
 44 46  1  0  0  0  0
 45 47  1  0  0  0  0
 45 48  1  0  0  0  0
 46 50  1  0  0  0  0
 47 52  1  0  0  0  0
 48 68  1  0  0  0  0
 49 52  1  0  0  0  0
 49 68  1  0  0  0  0
 50 72  1  0  0  0  0
 51 69  1  0  0  0  0
 52 67  1  0  0  0  0
 53 59  1  0  0  0  0
 54 63  1  0  0  0  0
 55 64  1  0  0  0  0
 56 64  1  0  0  0  0
 57 64  1  0  0  0  0
 58 74  1  0  0  0  0
 60 82  1  0  0  0  0
 61 83  1  0  0  0  0
 62 64  1  0  0  0  0
 62 73  1  0  0  0  0
 63 74  1  0  0  0  0
 65 67  1  0  0  0  0
M  CHG  1  74   1
M  ISO  4  34 100  36 100  60 101  82 101
M  END
> <Batch ID>
0135

> <Smiles>
CCc1c(OCC(=O)[101CH2:1][101O:1]c2ccc3c(c2)CN(C(=O)C(NC(=O)C(C)NC)C(C)(C)C)C(C(=O)NC2CCCc4ccccc42)C3)cccc1[100C:0](=N)[100C:0](=O)N1CCCC(n2nc(-c3ccc(Oc4ccc(F)cc4F)cc3)c(C(N)=O)c2N)C1

> <Shape>
0.222

> <Color>
0.076

> <Negative vol penalty>
0.000

$$$$

  -OEChem-04052302363D

 86 94  0     1  0  0  0  0  0999 V2000
  -31.2920  -30.9608   27.7068 C   0  0  0  0  0  0  0  0  0  0  0  0
  -31.0007  -29.9463   26.8005 C   0  0  0  0  0  0  0  0  0  0  0  0
  -23.0011   -9.8878   19.9838 C   0  0  0  0  0  0  0  0  0  0  0  0
  -23.7233   -9.9467   22.2885 C   0  0  0  0  0  0  0  0  0  0  0  0
  -31.0982  -30.7517   29.0715 C   0  0  0  0  0  0  0  0  0  0  0  0
  -30.5163  -28.7216   27.2587 C   0  0  0  0  0  0  0  0  0  0  0  0
  -26.6211  -27.0205   24.5057 C   0  0  0  0  0  0  0  0  0  0  0  0
  -31.1859  -17.6091   20.5610 C   0  0  0  0  0  0  0  0  0  0  0  0
  -22.2352   -8.7535   20.2527 C   0  0  0  0  0  0  0  0  0  0  0  0
  -22.9574   -8.8124   22.5575 C   0  0  0  0  0  0  0  0  0  0  0  0
  -26.9182  -26.4348   23.2760 C   0  0  0  0  0  0  0  0  0  0  0  0
  -31.3756  -18.9906   20.5330 C   0  0  0  0  0  0  0  0  0  0  0  0
  -23.2053   -5.4722   22.0964 C   0  0  0  0  0  0  0  0  0  0  0  0
  -23.7928   -4.4579   22.8524 C   0  0  0  0  0  0  0  0  0  0  0  0
  -26.6919  -24.2483   24.2696 C   0  0  0  0  0  0  0  0  0  0  0  0
  -29.5293  -17.8717   22.2999 C   0  0  0  0  0  0  0  0  0  0  0  0
  -22.0666   -4.7045   24.5247 C   0  0  0  0  0  0  0  0  0  0  0  0
  -23.7452  -10.4844   21.0017 C   0  0  0  0  0  0  0  0  0  0  0  0
  -24.1285  -12.9998   20.8182 C   0  0  0  0  0  0  0  0  0  0  0  0
  -30.6020  -29.5272   29.5459 C   0  0  0  0  0  0  0  0  0  0  0  0
  -26.3674  -26.2233   25.6311 C   0  0  0  0  0  0  0  0  0  0  0  0
  -30.3168  -28.4955   28.6312 C   0  0  0  0  0  0  0  0  0  0  0  0
  -26.3892  -24.8264   25.5119 C   0  0  0  0  0  0  0  0  0  0  0  0
  -29.7190  -19.2533   22.2719 C   0  0  0  0  0  0  0  0  0  0  0  0
  -30.2627  -17.0496   21.4444 C   0  0  0  0  0  0  0  0  0  0  0  0
  -22.2134   -8.2158   21.5396 C   0  0  0  0  0  0  0  0  0  0  0  0
  -26.9565  -25.0485   23.1584 C   0  0  0  0  0  0  0  0  0  0  0  0
  -30.6422  -19.8128   21.3884 C   0  0  0  0  0  0  0  0  0  0  0  0
  -22.0485   -6.1027   22.5546 C   0  0  0  0  0  0  0  0  0  0  0  0
  -23.2235   -4.0740   24.0666 C   0  0  0  0  0  0  0  0  0  0  0  0
  -21.4792   -5.7189   23.7687 C   0  0  0  0  0  0  0  0  0  0  0  0
  -24.5370  -11.6559   20.7243 C   0  0  0  0  0  0  0  0  0  0  0  0
  -25.2380  -13.7222   20.4530 C   0  0  0  0  0  0  0  0  0  0  0  0
  -22.8595  -13.5463   21.2015 C   0  0  0  0  0  0  0  0  0  0  0  0
  -27.7479  -25.8446   28.4691 C   0  0  0  0  0  0  0  0  0  0  0  0
  -29.7866  -23.3015   21.0277 C   0  0  0  0  0  0  0  0  0  0  0  0
  -25.1775  -23.9474   29.0315 C   0  0  0  0  0  0  0  0  0  0  0  0
  -22.6852  -21.9935   27.7597 C   0  0  0  0  0  0  0  0  0  0  0  0
  -30.7164  -14.6890   20.6908 C   0  0  0  0  0  0  0  0  0  0  0  0
  -30.4536  -29.3315   31.0339 C   0  0  0  0  0  0  0  0  0  0  0  0
  -26.0220  -26.8704   26.9443 C   0  0  0  0  0  0  0  0  0  0  0  0
  -26.1043  -23.9258   26.6850 C   0  0  0  0  0  0  0  0  0  0  0  0
  -29.5825  -28.1347   31.4070 C   0  0  0  0  0  0  0  0  0  0  0  0
  -29.6032  -12.2278   18.3711 C   0  0  0  0  0  0  0  0  0  0  0  0
  -29.9762  -26.9112   30.5856 C   0  0  0  0  0  0  0  0  0  0  0  0
  -28.1523  -11.9701   18.7843 C   0  0  0  0  0  0  0  0  0  0  0  0
  -30.5020  -12.4758   19.5813 C   0  0  0  0  0  0  0  0  0  0  0  0
  -28.5842  -13.2671   20.9099 C   0  0  0  0  0  0  0  0  0  0  0  0
  -29.7663  -27.1617   29.0874 C   0  0  1  0  0  0  0  0  0  0  0  0
  -26.2859  -25.9656   28.1439 C   0  0  1  0  0  0  0  0  0  0  0  0
  -27.6282  -13.0762   19.7211 C   0  0  2  0  0  0  0  0  0  0  0  0
  -29.7455  -20.5959   24.3893 C   0  0  0  0  0  0  0  0  0  0  0  0
  -30.7453  -21.9795   19.1138 C   0  0  0  0  0  0  0  0  0  0  0  0
  -20.7631  -20.5438   28.4677 C   0  0  0  0  0  0  0  0  0  0  0  0
  -27.1342  -21.7443   29.8236 C   0  0  0  0  0  0  0  0  0  0  0  0
  -25.2631  -20.0965   29.5952 C   0  0  0  0  0  0  0  0  0  0  0  0
  -25.1150  -21.9224   31.2884 C   0  0  0  0  0  0  0  0  0  0  0  0
  -20.7251  -23.7011   26.3450 C   0  0  0  0  0  0  0  0  0  0  0  0
  -28.9253  -20.1184   23.1945 C   0  0  0  0  0  0  0  0  0  0  0  0
  -28.8882  -24.2265   20.2160 C   0  0  0  0  0  0  0  0  0  0  0  0
  -28.1044  -25.2021   21.0812 C   0  0  0  0  0  0  0  0  0  1  0  0
  -30.0296  -21.9107   20.4507 C   0  0  1  0  0  0  0  0  0  0  0  0
  -24.8662  -22.4833   28.8357 C   0  0  1  0  0  0  0  0  0  0  0  0
  -21.1968  -21.9414   28.0537 C   0  0  2  0  0  0  0  0  0  0  0  0
  -25.6019  -21.5783   29.8639 C   0  0  0  0  0  0  0  0  0  0  0  0
  -25.8068  -11.5293   20.3302 N   0  0  0  0  0  0  0  0  0  0  0  0
  -26.2059  -12.8029   20.1730 N   0  0  0  0  0  0  0  0  0  0  0  0
  -25.7779  -24.6062   27.9491 N   0  0  0  0  0  0  0  0  0  0  0  0
  -29.9449  -13.5389   20.4206 N   0  0  0  0  0  0  0  0  0  0  0  0
  -25.4705  -15.0478   20.3470 N   0  0  0  0  0  0  0  0  0  0  0  0
  -21.8281  -12.6623   21.5465 N   0  0  0  0  0  0  0  0  0  0  0  0
  -30.0703  -15.6460   21.4725 N   0  0  0  0  0  0  0  0  0  0  0  0
  -28.3639  -27.0497   28.7478 N   0  0  0  0  0  0  0  0  0  0  0  0
  -23.4123  -22.3670   28.8702 N   0  0  0  0  0  0  0  0  0  0  0  0
  -20.4163  -22.3376   26.8475 N   0  3  0  0  0  0  0  0  0  0  0  0
  -22.6417  -14.7815   21.2211 O   0  0  0  0  0  0  0  0  0  0  0  0
  -28.2774  -24.7395   28.4688 O   0  0  0  0  0  0  0  0  0  0  0  0
  -30.2877  -23.6492   22.0972 O   0  0  0  0  0  0  0  0  0  0  0  0
  -24.8918  -24.4885   30.1026 O   0  0  0  0  0  0  0  0  0  0  0  0
  -23.1560  -21.7259   26.6565 O   0  0  0  0  0  0  0  0  0  0  0  0
  -31.8555  -14.8275   20.2377 O   0  0  0  0  0  0  0  0  0  0  0  0
  -21.4660   -7.1090   21.8024 O   0  0  0  0  0  0  0  0  0  0  0  0
  -27.2470  -24.4741   21.9594 O   0  0  0  0  0  0  0  0  0  1  0  0
  -30.8412  -21.1694   21.3477 O   0  0  0  0  0  0  0  0  0  0  0  0
  -23.7869   -3.0989   24.7918 F   0  0  0  0  0  0  0  0  0  0  0  0
  -20.3672   -6.3202   24.2134 F   0  0  0  0  0  0  0  0  0  0  0  0
  1  2  1  0  0  0  0
  1  5  2  0  0  0  0
  2  6  2  0  0  0  0
  3  9  2  0  0  0  0
  3 18  1  0  0  0  0
  4 10  1  0  0  0  0
  4 18  2  0  0  0  0
  5 20  1  0  0  0  0
  6 22  1  0  0  0  0
  7 11  2  0  0  0  0
  7 21  1  0  0  0  0
  8 12  2  0  0  0  0
  8 25  1  0  0  0  0
  9 26  1  0  0  0  0
 10 26  2  0  0  0  0
 11 27  1  0  0  0  0
 12 28  1  0  0  0  0
 13 14  2  0  0  0  0
 13 29  1  0  0  0  0
 14 30  1  0  0  0  0
 15 23  1  0  0  0  0
 15 27  2  0  0  0  0
 16 24  1  0  0  0  0
 16 25  2  0  0  0  0
 17 30  2  0  0  0  0
 17 31  1  0  0  0  0
 18 32  1  0  0  0  0
 19 32  1  0  0  0  0
 19 33  2  0  0  0  0
 19 34  1  0  0  0  0
 20 22  2  0  0  0  0
 20 40  1  0  0  0  0
 21 23  2  0  0  0  0
 21 41  1  0  0  0  0
 22 49  1  0  0  0  0
 23 42  1  0  0  0  0
 24 28  2  0  0  0  0
 24 59  1  0  0  0  0
 25 72  1  0  0  0  0
 26 82  1  0  0  0  0
 27 83  1  0  0  0  0
 28 84  1  0  0  0  0
 29 31  2  0  0  0  0
 29 82  1  0  0  0  0
 30 85  1  0  0  0  0
 31 86  1  0  0  0  0
 32 66  2  0  0  0  0
 33 67  1  0  0  0  0
 33 70  1  0  0  0  0
 34 71  1  0  0  0  0
 34 76  2  0  0  0  0
 35 50  1  0  0  0  0
 35 73  1  0  0  0  0
 35 77  2  0  0  0  0
 36 60  1  0  0  0  0
 36 62  1  0  0  0  0
 36 78  2  0  0  0  0
 37 63  1  0  0  0  0
 37 68  1  0  0  0  0
 37 79  2  0  0  0  0
 38 64  1  0  0  0  0
 38 74  1  0  0  0  0
 38 80  2  0  0  0  0
 39 69  1  0  0  0  0
 39 72  1  0  0  0  0
 39 81  2  0  0  0  0
 40 43  1  0  0  0  0
 41 50  1  0  0  0  0
 42 68  1  0  0  0  0
 43 45  1  0  0  0  0
 44 46  1  0  0  0  0
 44 47  1  0  0  0  0
 45 49  1  0  0  0  0
 46 51  1  0  0  0  0
 47 69  1  0  0  0  0
 48 51  1  0  0  0  0
 48 69  1  0  0  0  0
 49 73  1  0  0  0  0
 50 68  1  0  0  0  0
 51 67  1  0  0  0  0
 52 59  1  0  0  0  0
 53 62  1  0  0  0  0
 54 64  1  0  0  0  0
 55 65  1  0  0  0  0
 56 65  1  0  0  0  0
 57 65  1  0  0  0  0
 58 75  1  0  0  0  0
 60 61  1  0  0  0  0
 61 83  1  0  0  0  0
 62 84  1  0  0  0  0
 63 65  1  0  0  0  0
 63 74  1  0  0  0  0
 64 75  1  0  0  0  0
 66 67  1  0  0  0  0
M  CHG  1  75   1
M  ISO  4  39 100  61 101  72 100  83 101
M  END
> <Batch ID>
0135

> <Smiles>
CCc1cc([100NH:0][100C:0](=O)N2CCCC(n3nc(-c4ccc(Oc5ccc(F)cc5F)cc4)c(C(N)=O)c3N)C2)ccc1OC(C)C(=O)C[101CH2:1][101O:1]c1ccc2c(c1)CN(C(=O)C(NC(=O)C(C)NC)C(C)(C)C)C(C(=O)NC1CCCc3ccccc31)C2

> <Shape>
0.205

> <Color>
0.194

> <Negative vol penalty>
0.000

$$$$

  -OEChem-04052302363D

 82 90  0     1  0  0  0  0  0999 V2000
  -18.5816  -25.5629   20.0592 C   0  0  0  0  0  0  0  0  0  0  0  0
  -19.6751  -26.1944   19.4753 C   0  0  0  0  0  0  0  0  0  0  0  0
  -31.9984  -23.7692   16.1199 C   0  0  0  0  0  0  0  0  0  0  0  0
  -25.2581  -15.5084   21.5576 C   0  0  0  0  0  0  0  0  0  0  0  0
  -24.7578  -16.2695   19.3199 C   0  0  0  0  0  0  0  0  0  0  0  0
  -18.2583  -25.8206   21.3907 C   0  0  0  0  0  0  0  0  0  0  0  0
  -20.4453  -27.0849   20.2224 C   0  0  0  0  0  0  0  0  0  0  0  0
  -25.4168  -26.3645   19.5815 C   0  0  0  0  0  0  0  0  0  0  0  0
  -31.8413  -25.1491   15.9910 C   0  0  0  0  0  0  0  0  0  0  0  0
  -31.3651  -23.0893   17.1603 C   0  0  0  0  0  0  0  0  0  0  0  0
  -24.1627  -14.6462   21.5093 C   0  0  0  0  0  0  0  0  0  0  0  0
  -23.6624  -15.4073   19.2715 C   0  0  0  0  0  0  0  0  0  0  0  0
  -25.9869  -26.8642   18.4114 C   0  0  0  0  0  0  0  0  0  0  0  0
  -23.4220  -11.6328   20.1662 C   0  0  0  0  0  0  0  0  0  0  0  0
  -23.6040  -10.3274   20.6228 C   0  0  0  0  0  0  0  0  0  0  0  0
  -26.7973  -28.7807   19.6320 C   0  0  0  0  0  0  0  0  0  0  0  0
  -30.4177  -25.1694   17.9429 C   0  0  0  0  0  0  0  0  0  0  0  0
  -21.8939  -10.6737   22.2940 C   0  0  0  0  0  0  0  0  0  0  0  0
  -25.5556  -16.3201   20.4630 C   0  0  0  0  0  0  0  0  0  0  0  0
  -28.0090  -16.9294   20.1207 C   0  0  0  0  0  0  0  0  0  0  0  0
  -19.0307  -26.7073   22.1573 C   0  0  0  0  0  0  0  0  0  0  0  0
  -25.5234  -27.0757   20.7853 C   0  0  0  0  0  0  0  0  0  0  0  0
  -20.1313  -27.3557   21.5650 C   0  0  0  0  0  0  0  0  0  0  0  0
  -26.2298  -28.2866   20.8164 C   0  0  0  0  0  0  0  0  0  0  0  0
  -31.0510  -25.8493   16.9025 C   0  0  0  0  0  0  0  0  0  0  0  0
  -30.5748  -23.7894   18.0718 C   0  0  0  0  0  0  0  0  0  0  0  0
  -23.3649  -14.5956   20.3662 C   0  0  0  0  0  0  0  0  0  0  0  0
  -26.6748  -28.0739   18.4360 C   0  0  0  0  0  0  0  0  0  0  0  0
  -22.4761  -12.4587   20.7736 C   0  0  0  0  0  0  0  0  0  0  0  0
  -22.8399   -9.8478   21.6866 C   0  0  0  0  0  0  0  0  0  0  0  0
  -21.7120  -11.9791   21.8374 C   0  0  0  0  0  0  0  0  0  0  0  0
  -26.6866  -17.2114   20.5125 C   0  0  0  0  0  0  0  0  0  0  0  0
  -28.6948  -18.0946   20.3628 C   0  0  0  0  0  0  0  0  0  0  0  0
  -28.5676  -15.7222   19.5857 C   0  0  0  0  0  0  0  0  0  0  0  0
  -23.4523  -28.4147   22.7907 C   0  0  0  0  0  0  0  0  0  0  0  0
  -26.1071  -28.9067   24.5885 C   0  0  0  0  0  0  0  0  0  0  0  0
  -29.4994  -29.2591   24.7102 C   0  0  0  0  0  0  0  0  0  0  0  0
  -29.1123  -23.6415   20.1177 C   0  0  0  0  0  0  0  0  0  0  0  0
  -18.6142  -26.9903   23.5790 C   0  0  0  0  0  0  0  0  0  0  0  0
  -24.9257  -26.5099   22.0443 C   0  0  0  0  0  0  0  0  0  0  0  0
  -26.3902  -29.0787   22.0874 C   0  0  0  0  0  0  0  0  0  0  0  0
  -19.7041  -27.6613   24.4109 C   0  0  0  0  0  0  0  0  0  0  0  0
  -27.3125  -22.2707   22.8670 C   0  0  0  0  0  0  0  0  0  0  0  0
  -20.3359  -28.8123   23.6344 C   0  0  0  0  0  0  0  0  0  0  0  0
  -27.0980  -20.8091   22.4673 C   0  0  0  0  0  0  0  0  0  0  0  0
  -27.2162  -23.2076   21.6642 C   0  0  0  0  0  0  0  0  0  0  0  0
  -27.8657  -21.3918   20.1310 C   0  0  0  0  0  0  0  0  0  0  0  0
  -21.0058  -28.3092   22.3500 C   0  0  1  0  0  0  0  0  0  0  0  0
  -24.6549  -27.5710   23.1064 C   0  0  1  0  0  0  0  0  0  0  0  0
  -28.0177  -20.4035   21.2989 C   0  0  2  0  0  0  0  0  0  0  0  0
  -31.3789  -29.6895   26.3164 C   0  0  0  0  0  0  0  0  0  0  0  0
  -30.0556  -27.5749   14.4082 C   0  0  0  0  0  0  0  0  0  0  0  0
  -25.3312  -31.8554   24.7024 C   0  0  0  0  0  0  0  0  0  0  0  0
  -27.6600  -32.3670   25.4660 C   0  0  0  0  0  0  0  0  0  0  0  0
  -26.1831  -30.9169   26.8583 C   0  0  0  0  0  0  0  0  0  0  0  0
  -30.7782  -26.6630   24.0904 C   0  0  0  0  0  0  0  0  0  0  0  0
  -30.8814  -27.3429   16.7625 C   0  0  0  0  0  0  0  0  0  0  0  0
  -29.2529  -29.2151   16.1787 C   0  0  0  0  0  0  0  0  0  0  0  0
  -28.4047  -29.3644   17.4370 C   0  0  0  0  0  0  0  0  0  1  0  0
  -27.1342  -30.0075   24.6995 C   0  0  1  0  0  0  0  0  0  0  0  0
  -30.5458  -28.6299   25.6123 C   0  0  2  0  0  0  0  0  0  0  0  0
  -29.6818  -27.7639   15.8830 C   0  0  1  0  0  0  0  0  0  0  0  0
  -26.5726  -31.2730   25.4070 C   0  0  0  0  0  0  0  0  0  0  0  0
  -26.5388  -18.4580   20.9690 N   0  0  0  0  0  0  0  0  0  0  0  0
  -27.7773  -18.9695   20.8657 N   0  0  0  0  0  0  0  0  0  0  0  0
  -25.7825  -28.4869   23.2908 N   0  0  0  0  0  0  0  0  0  0  0  0
  -28.1180  -22.7637   20.5990 N   0  0  0  0  0  0  0  0  0  0  0  0
  -29.9871  -18.4458   20.1926 N   0  0  0  0  0  0  0  0  0  0  0  0
  -27.7223  -14.6197   19.4005 N   0  0  0  0  0  0  0  0  0  0  0  0
  -29.9310  -23.0984   19.1281 N   0  0  0  0  0  0  0  0  0  0  0  0
  -22.2809  -27.6950   22.6522 N   0  0  0  0  0  0  0  0  0  0  0  0
  -28.2939  -29.4186   25.3603 N   0  0  0  0  0  0  0  0  0  0  0  0
  -31.4616  -27.7636   24.8174 N   0  3  0  0  0  0  0  0  0  0  0  0
  -29.7838  -15.6188   19.2963 O   0  0  0  0  0  0  0  0  0  0  0  0
  -23.5777  -29.6289   22.6822 O   0  0  0  0  0  0  0  0  0  0  0  0
  -25.6163  -28.4318   25.6158 O   0  0  0  0  0  0  0  0  0  0  0  0
  -29.7296  -29.5806   23.5465 O   0  0  0  0  0  0  0  0  0  0  0  0
  -29.2464  -24.7812   20.5707 O   0  0  0  0  0  0  0  0  0  0  0  0
  -22.2961  -13.7542   20.3186 O   0  0  0  0  0  0  0  0  0  0  0  0
  -27.2317  -28.5642   17.2952 O   0  0  0  0  0  0  0  0  0  1  0  0
  -23.0136   -8.5938   22.1240 F   0  0  0  0  0  0  0  0  0  0  0  0
  -20.8009  -12.7674   22.4241 F   0  0  0  0  0  0  0  0  0  0  0  0
  1  2  1  0  0  0  0
  1  6  2  0  0  0  0
  2  7  2  0  0  0  0
  3  9  2  0  0  0  0
  3 10  1  0  0  0  0
  4 11  2  0  0  0  0
  4 19  1  0  0  0  0
  5 12  1  0  0  0  0
  5 19  2  0  0  0  0
  6 21  1  0  0  0  0
  7 23  1  0  0  0  0
  8 13  2  0  0  0  0
  8 22  1  0  0  0  0
  9 25  1  0  0  0  0
 10 26  2  0  0  0  0
 11 27  1  0  0  0  0
 12 27  2  0  0  0  0
 13 28  1  0  0  0  0
 14 15  2  0  0  0  0
 14 29  1  0  0  0  0
 15 30  1  0  0  0  0
 16 24  1  0  0  0  0
 16 28  2  0  0  0  0
 17 25  2  0  0  0  0
 17 26  1  0  0  0  0
 18 30  2  0  0  0  0
 18 31  1  0  0  0  0
 19 32  1  0  0  0  0
 20 32  1  0  0  0  0
 20 33  2  0  0  0  0
 20 34  1  0  0  0  0
 21 23  2  0  0  0  0
 21 39  1  0  0  0  0
 22 24  2  0  0  0  0
 22 40  1  0  0  0  0
 23 48  1  0  0  0  0
 24 41  1  0  0  0  0
 25 57  1  0  0  0  0
 26 70  1  0  0  0  0
 27 79  1  0  0  0  0
 28 80  1  0  0  0  0
 29 31  2  0  0  0  0
 29 79  1  0  0  0  0
 30 81  1  0  0  0  0
 31 82  1  0  0  0  0
 32 64  2  0  0  0  0
 33 65  1  0  0  0  0
 33 68  1  0  0  0  0
 34 69  1  0  0  0  0
 34 74  2  0  0  0  0
 35 49  1  0  0  0  0
 35 71  1  0  0  0  0
 35 75  2  0  0  0  0
 36 60  1  0  0  0  0
 36 66  1  0  0  0  0
 36 76  2  0  0  0  0
 37 61  1  0  0  0  0
 37 72  1  0  0  0  0
 37 77  2  0  0  0  0
 38 67  1  0  0  0  0
 38 70  1  0  0  0  0
 38 78  2  0  0  0  0
 39 42  1  0  0  0  0
 40 49  1  0  0  0  0
 41 66  1  0  0  0  0
 42 44  1  0  0  0  0
 43 45  1  0  0  0  0
 43 46  1  0  0  0  0
 44 48  1  0  0  0  0
 45 50  1  0  0  0  0
 46 67  1  0  0  0  0
 47 50  1  0  0  0  0
 47 67  1  0  0  0  0
 48 71  1  0  0  0  0
 49 66  1  0  0  0  0
 50 65  1  0  0  0  0
 51 61  1  0  0  0  0
 52 62  1  0  0  0  0
 53 63  1  0  0  0  0
 54 63  1  0  0  0  0
 55 63  1  0  0  0  0
 56 73  1  0  0  0  0
 57 62  1  0  0  0  0
 58 59  1  0  0  0  0
 58 62  1  0  0  0  0
 59 80  1  0  0  0  0
 60 63  1  0  0  0  0
 60 72  1  0  0  0  0
 61 73  1  0  0  0  0
 64 65  1  0  0  0  0
M  CHG  1  73   1
M  ISO  4  38 100  59 101  70 100  80 101
M  END
> <Batch ID>
0135

> <Smiles>
CNC(C)C(=O)NC(C(=O)N1Cc2cc([101O:1][101CH2:1]CC(C)Cc3cccc([100NH:0][100C:0](=O)N4CCCC(n5nc(-c6ccc(Oc7ccc(F)cc7F)cc6)c(C(N)=O)c5N)C4)c3)ccc2CC1C(=O)NC1CCCc2ccccc21)C(C)(C)C

> <Shape>
0.280

> <Color>
0.068

> <Negative vol penalty>
0.000

$$$$

  -OEChem-04052302363D

 89 97  0     1  0  0  0  0  0999 V2000
  -20.0492  -26.1190   25.6988 C   0  0  0  0  0  0  0  0  0  0  0  0
  -21.1034  -25.8474   24.8326 C   0  0  0  0  0  0  0  0  0  0  0  0
  -23.3553   -9.6895   20.8459 C   0  0  0  0  0  0  0  0  0  0  0  0
  -23.3389  -11.5084   22.4360 C   0  0  0  0  0  0  0  0  0  0  0  0
  -19.1030  -27.0859   25.3618 C   0  0  0  0  0  0  0  0  0  0  0  0
  -21.2114  -26.5419   23.6283 C   0  0  0  0  0  0  0  0  0  0  0  0
  -25.9377  -28.1092   22.7064 C   0  0  0  0  0  0  0  0  0  0  0  0
  -22.5754   -8.9244   21.7130 C   0  0  0  0  0  0  0  0  0  0  0  0
  -22.5589  -10.7433   23.3031 C   0  0  0  0  0  0  0  0  0  0  0  0
  -26.8421  -27.1602   22.2318 C   0  0  0  0  0  0  0  0  0  0  0  0
  -23.0378   -7.0793   24.5070 C   0  0  0  0  0  0  0  0  0  0  0  0
  -23.4066   -5.7490   24.7062 C   0  0  0  0  0  0  0  0  0  0  0  0
  -26.5247  -27.9883   19.9884 C   0  0  0  0  0  0  0  0  0  0  0  0
  -26.8062  -17.0666   19.6218 C   0  0  0  0  0  0  0  0  0  0  0  0
  -28.2826  -18.9153   20.1113 C   0  0  0  0  0  0  0  0  0  0  0  0
  -21.2605   -5.0277   23.8631 C   0  0  0  0  0  0  0  0  0  0  0  0
  -23.7371  -10.9815   21.2074 C   0  0  0  0  0  0  0  0  0  0  0  0
  -25.8885  -19.2175   20.2290 C   0  0  0  0  0  0  0  0  0  0  0  0
  -24.0889  -12.6469   19.3073 C   0  0  0  0  0  0  0  0  0  0  0  0
  -19.2047  -27.7994   24.1572 C   0  0  0  0  0  0  0  0  0  0  0  0
  -25.3107  -28.9993   21.8226 C   0  0  0  0  0  0  0  0  0  0  0  0
  -20.2648  -27.5183   23.2742 C   0  0  0  0  0  0  0  0  0  0  0  0
  -25.6147  -28.9494   20.4546 C   0  0  0  0  0  0  0  0  0  0  0  0
  -28.0964  -17.5821   19.7457 C   0  0  0  0  0  0  0  0  0  0  0  0
  -25.7023  -17.8843   19.8634 C   0  0  0  0  0  0  0  0  0  0  0  0
  -22.1771   -9.4513   22.9416 C   0  0  0  0  0  0  0  0  0  0  0  0
  -27.1335  -27.0977   20.8723 C   0  0  0  0  0  0  0  0  0  0  0  0
  -21.7802   -7.3839   23.9859 C   0  0  0  0  0  0  0  0  0  0  0  0
  -27.1786  -19.7330   20.3529 C   0  0  0  0  0  0  0  0  0  0  0  0
  -22.5180   -4.7232   24.3843 C   0  0  0  0  0  0  0  0  0  0  0  0
  -20.8916   -6.3581   23.6639 C   0  0  0  0  0  0  0  0  0  0  0  0
  -24.5433  -11.7721   20.3123 C   0  0  0  0  0  0  0  0  0  0  0  0
  -25.2368  -13.1498   18.7451 C   0  0  0  0  0  0  0  0  0  0  0  0
  -24.2731  -20.1186   21.7376 C   0  0  0  0  0  0  0  0  0  0  0  0
  -24.7369  -20.0774   20.4828 C   0  0  0  0  0  0  0  0  0  0  0  0
  -22.7491  -12.9755   18.9168 C   0  0  0  0  0  0  0  0  0  0  0  0
  -22.3015  -29.5686   20.9718 C   0  0  0  0  0  0  0  0  0  0  0  0
  -27.6426  -23.2965   19.8933 C   0  0  0  0  0  0  0  0  0  0  0  0
  -30.5871  -14.7587   20.3364 C   0  0  0  0  0  0  0  0  0  0  0  0
  -23.6402  -32.0267   19.3322 C   0  0  0  0  0  0  0  0  0  0  0  0
  -26.4097  -33.3419   17.8332 C   0  0  0  0  0  0  0  0  0  0  0  0
  -18.1314  -28.8019   23.8143 C   0  0  0  0  0  0  0  0  0  0  0  0
  -24.3578  -30.0347   22.3539 C   0  0  0  0  0  0  0  0  0  0  0  0
  -24.9839  -29.8956   19.4671 C   0  0  0  0  0  0  0  0  0  0  0  0
  -18.5268  -29.7576   22.6916 C   0  0  0  0  0  0  0  0  0  0  0  0
  -29.9549  -11.7130   18.5577 C   0  0  0  0  0  0  0  0  0  0  0  0
  -19.1497  -28.9888   21.5307 C   0  0  0  0  0  0  0  0  0  0  0  0
  -28.4571  -11.4850   18.7573 C   0  0  0  0  0  0  0  0  0  0  0  0
  -30.5923  -12.3471   19.7900 C   0  0  0  0  0  0  0  0  0  0  0  0
  -28.4422  -13.3939   20.4250 C   0  0  0  0  0  0  0  0  0  0  0  0
  -20.4299  -28.2681   21.9701 C   0  0  1  0  0  0  0  0  0  0  0  0
  -23.3888  -30.5537   21.2960 C   0  0  1  0  0  0  0  0  0  0  0  0
  -27.7535  -12.7829   19.1918 C   0  0  2  0  0  0  0  0  0  0  0  0
  -24.3352  -17.2953   19.7204 C   0  0  0  0  0  0  0  0  0  0  0  0
  -24.0745  -20.8817   19.4024 C   0  0  0  0  0  0  0  0  0  0  0  0
  -30.6703  -16.8694   21.5986 C   0  0  0  0  0  0  0  0  0  0  0  0
  -27.1857  -35.3503   16.5443 C   0  0  0  0  0  0  0  0  0  0  0  0
  -22.2227  -30.9743   16.8436 C   0  0  0  0  0  0  0  0  0  0  0  0
  -23.7495  -32.3948   15.4583 C   0  0  0  0  0  0  0  0  0  0  0  0
  -22.1918  -33.4631   17.0878 C   0  0  0  0  0  0  0  0  0  0  0  0
  -28.4055  -34.0434   19.9029 C   0  0  0  0  0  0  0  0  0  0  0  0
  -29.2768  -16.7085   19.4851 C   0  0  0  0  0  0  0  0  0  0  0  0
  -28.3261  -24.2674   18.9419 C   0  0  0  0  0  0  0  0  0  0  0  0
  -28.1000  -21.8540   19.7977 C   0  0  0  0  0  0  0  0  0  0  0  0
  -27.8135  -25.6940   19.0770 C   0  0  0  0  0  0  0  0  0  1  0  0
  -29.7862  -15.9710   20.7401 C   0  0  1  0  0  0  0  0  0  0  0  0
  -24.2089  -32.2025   17.9449 C   0  0  1  0  0  0  0  0  0  0  0  0
  -27.0445  -34.7181   17.9202 C   0  0  2  0  0  0  0  0  0  0  0  0
  -23.1038  -32.2394   16.8517 C   0  0  0  0  0  0  0  0  0  0  0  0
  -25.8759  -11.7199   20.3866 N   0  0  0  0  0  0  0  0  0  0  0  0
  -26.2687  -12.5681   19.4211 N   0  0  0  0  0  0  0  0  0  0  0  0
  -24.0540  -30.8859   20.0345 N   0  0  0  0  0  0  0  0  0  0  0  0
  -29.8817  -13.5649   20.1840 N   0  0  0  0  0  0  0  0  0  0  0  0
  -25.4540  -14.0283   17.7434 N   0  0  0  0  0  0  0  0  0  0  0  0
  -21.6862  -12.3683   19.5994 N   0  0  0  0  0  0  0  0  0  0  0  0
  -21.5311  -29.2029   22.0591 N   0  0  0  0  0  0  0  0  0  0  0  0
  -25.0414  -33.3995   17.9936 N   0  0  0  0  0  0  0  0  0  0  0  0
  -28.3983  -34.6261   18.5364 N   0  3  0  0  0  0  0  0  0  0  0  0
  -22.5018  -13.7713   17.9792 O   0  0  0  0  0  0  0  0  0  0  0  0
  -22.1702  -29.1711   19.8201 O   0  0  0  0  0  0  0  0  0  0  0  0
  -26.7768  -23.6492   20.6926 O   0  0  0  0  0  0  0  0  0  0  0  0
  -31.8029  -14.8720   20.1593 O   0  0  0  0  0  0  0  0  0  0  0  0
  -22.8632  -32.8742   19.7791 O   0  0  0  0  0  0  0  0  0  0  0  0
  -27.0620  -32.3186   17.6385 O   0  0  0  0  0  0  0  0  0  0  0  0
  -21.4158   -8.7051   23.7879 O   0  0  0  0  0  0  0  0  0  0  0  0
  -27.3936  -21.0426   20.7121 O   0  0  0  0  0  0  0  0  0  0  0  0
  -28.0154  -26.1719   20.4064 O   0  0  0  0  0  0  0  0  0  1  0  0
  -22.8729   -3.4456   24.5742 F   0  0  0  0  0  0  0  0  0  0  0  0
  -19.6826   -6.6444   23.1618 F   0  0  0  0  0  0  0  0  0  0  0  0
  1  2  1  0  0  0  0
  1  5  2  0  0  0  0
  2  6  2  0  0  0  0
  3  8  2  0  0  0  0
  3 17  1  0  0  0  0
  4  9  1  0  0  0  0
  4 17  2  0  0  0  0
  5 20  1  0  0  0  0
  6 22  1  0  0  0  0
  7 10  2  0  0  0  0
  7 21  1  0  0  0  0
  8 26  1  0  0  0  0
  9 26  2  0  0  0  0
 10 27  1  0  0  0  0
 11 12  2  0  0  0  0
 11 28  1  0  0  0  0
 12 30  1  0  0  0  0
 13 23  1  0  0  0  0
 13 27  2  0  0  0  0
 14 24  1  0  0  0  0
 14 25  2  0  0  0  0
 15 24  2  0  0  0  0
 15 29  1  0  0  0  0
 16 30  2  0  0  0  0
 16 31  1  0  0  0  0
 17 32  1  0  0  0  0
 18 25  1  0  0  0  0
 18 29  2  0  0  0  0
 18 35  1  0  0  0  0
 19 32  1  0  0  0  0
 19 33  2  0  0  0  0
 19 36  1  0  0  0  0
 20 22  2  0  0  0  0
 20 42  1  0  0  0  0
 21 23  2  0  0  0  0
 21 43  1  0  0  0  0
 22 51  1  0  0  0  0
 23 44  1  0  0  0  0
 24 62  1  0  0  0  0
 25 54  1  0  0  0  0
 26 85  1  0  0  0  0
 27 87  1  0  0  0  0
 28 31  2  0  0  0  0
 28 85  1  0  0  0  0
 29 86  1  0  0  0  0
 30 88  1  0  0  0  0
 31 89  1  0  0  0  0
 32 70  2  0  0  0  0
 33 71  1  0  0  0  0
 33 74  1  0  0  0  0
 34 35  2  0  0  0  0
 35 55  1  0  0  0  0
 36 75  1  0  0  0  0
 36 79  2  0  0  0  0
 37 52  1  0  0  0  0
 37 76  1  0  0  0  0
 37 80  2  0  0  0  0
 38 63  1  0  0  0  0
 38 64  1  0  0  0  0
 38 81  2  0  0  0  0
 39 66  1  0  0  0  0
 39 73  1  0  0  0  0
 39 82  2  0  0  0  0
 40 67  1  0  0  0  0
 40 72  1  0  0  0  0
 40 83  2  0  0  0  0
 41 68  1  0  0  0  0
 41 77  1  0  0  0  0
 41 84  2  0  0  0  0
 42 45  1  0  0  0  0
 43 52  1  0  0  0  0
 44 72  1  0  0  0  0
 45 47  1  0  0  0  0
 46 48  1  0  0  0  0
 46 49  1  0  0  0  0
 47 51  1  0  0  0  0
 48 53  1  0  0  0  0
 49 73  1  0  0  0  0
 50 53  1  0  0  0  0
 50 73  1  0  0  0  0
 51 76  1  0  0  0  0
 52 72  1  0  0  0  0
 53 71  1  0  0  0  0
 56 66  1  0  0  0  0
 57 68  1  0  0  0  0
 58 69  1  0  0  0  0
 59 69  1  0  0  0  0
 60 69  1  0  0  0  0
 61 78  1  0  0  0  0
 62 66  1  0  0  0  0
 63 65  1  0  0  0  0
 64 86  1  0  0  0  0
 65 87  1  0  0  0  0
 67 69  1  0  0  0  0
 67 77  1  0  0  0  0
 68 78  1  0  0  0  0
 70 71  1  0  0  0  0
M  CHG  1  78   1
M  ISO  4  39 100  65 101  66 100  87 101
M  END
> <Batch ID>
0135

> <Smiles>
C=C(C)c1c(C)cc(C[100CH:0](C)[100C:0](=O)N2CCCC(n3nc(-c4ccc(Oc5ccc(F)cc5F)cc4)c(C(N)=O)c3N)C2)cc1OCC(=O)C[101CH2:1][101O:1]c1ccc2c(c1)CN(C(=O)C(NC(=O)C(C)NC)C(C)(C)C)C(C(=O)NC1CCCc3ccccc31)C2

> <Shape>
0.277

> <Color>
0.134

> <Negative vol penalty>
0.000

$$$$

  -OEChem-04052302363D

 86 94  0     1  0  0  0  0  0999 V2000
  -29.7630  -24.0165   17.3002 C   0  0  0  0  0  0  0  0  0  0  0  0
  -28.5309  -24.0756   17.9434 C   0  0  0  0  0  0  0  0  0  0  0  0
  -28.5141  -14.5379   19.8324 C   0  0  0  0  0  0  0  0  0  0  0  0
  -26.4274  -15.6218   20.3872 C   0  0  0  0  0  0  0  0  0  0  0  0
  -24.0839  -22.8055   25.3256 C   0  0  0  0  0  0  0  0  0  0  0  0
  -30.8428  -24.7457   17.7964 C   0  0  0  0  0  0  0  0  0  0  0  0
  -28.3781  -24.8630   19.0840 C   0  0  0  0  0  0  0  0  0  0  0  0
  -24.1182  -27.6000   18.9988 C   0  0  0  0  0  0  0  0  0  0  0  0
  -25.4611  -22.8518   25.5418 C   0  0  0  0  0  0  0  0  0  0  0  0
  -27.9195  -13.2918   20.0304 C   0  0  0  0  0  0  0  0  0  0  0  0
  -25.8328  -14.3757   20.5851 C   0  0  0  0  0  0  0  0  0  0  0  0
  -22.9300  -26.9383   19.3053 C   0  0  0  0  0  0  0  0  0  0  0  0
  -24.5539  -11.8967   18.6774 C   0  0  0  0  0  0  0  0  0  0  0  0
  -23.2889  -11.6892   18.1275 C   0  0  0  0  0  0  0  0  0  0  0  0
  -23.0192  -27.8285   21.5456 C   0  0  0  0  0  0  0  0  0  0  0  0
  -25.8274  -23.0637   23.1631 C   0  0  0  0  0  0  0  0  0  0  0  0
  -22.3997  -11.2644   20.3335 C   0  0  0  0  0  0  0  0  0  0  0  0
  -27.7681  -15.7029   20.0109 C   0  0  0  0  0  0  0  0  0  0  0  0
  -23.5784  -22.8882   24.0281 C   0  0  0  0  0  0  0  0  0  0  0  0
  -28.4428  -17.7227   18.6063 C   0  0  0  0  0  0  0  0  0  0  0  0
  -30.7006  -25.5501   18.9381 C   0  0  0  0  0  0  0  0  0  0  0  0
  -24.7727  -28.3735   19.9682 C   0  0  0  0  0  0  0  0  0  0  0  0
  -29.4573  -25.6026   19.5968 C   0  0  0  0  0  0  0  0  0  0  0  0
  -24.2142  -28.5012   21.2480 C   0  0  0  0  0  0  0  0  0  0  0  0
  -26.3329  -22.9809   24.4606 C   0  0  0  0  0  0  0  0  0  0  0  0
  -24.4502  -23.0173   22.9469 C   0  0  0  0  0  0  0  0  0  0  0  0
  -26.5788  -13.2106   20.4067 C   0  0  0  0  0  0  0  0  0  0  0  0
  -22.3818  -27.0501   20.5797 C   0  0  0  0  0  0  0  0  0  0  0  0
  -24.7419  -11.7879   20.0553 C   0  0  0  0  0  0  0  0  0  0  0  0
  -22.2118  -11.3732   18.9556 C   0  0  0  0  0  0  0  0  0  0  0  0
  -23.6648  -11.4718   20.8833 C   0  0  0  0  0  0  0  0  0  0  0  0
  -28.3819  -16.9905   19.8071 C   0  0  0  0  0  0  0  0  0  0  0  0
  -29.1248  -18.8682   18.9369 C   0  0  0  0  0  0  0  0  0  0  0  0
  -22.1003  -22.8359   23.8259 C   0  0  0  0  0  0  0  0  0  0  0  0
  -27.9288  -17.3967   17.3082 C   0  0  0  0  0  0  0  0  0  0  0  0
  -27.6122  -28.2533   21.3918 C   0  0  0  0  0  0  0  0  0  0  0  0
  -20.1951  -24.7371   22.3077 C   0  0  0  0  0  0  0  0  0  0  0  0
  -26.6574  -31.0787   22.6678 C   0  0  0  0  0  0  0  0  0  0  0  0
  -24.0815  -33.1375   23.5470 C   0  0  0  0  0  0  0  0  0  0  0  0
  -29.8849  -21.8168   24.0923 C   0  0  0  0  0  0  0  0  0  0  0  0
  -31.9089  -26.2832   19.4646 C   0  0  0  0  0  0  0  0  0  0  0  0
  -26.0396  -29.1027   19.6138 C   0  0  0  0  0  0  0  0  0  0  0  0
  -24.8670  -29.3357   22.3185 C   0  0  0  0  0  0  0  0  0  0  0  0
  -31.5651  -27.3873   20.4611 C   0  0  0  0  0  0  0  0  0  0  0  0
  -32.4338  -20.5106   21.9772 C   0  0  0  0  0  0  0  0  0  0  0  0
  -30.5605  -26.8823   21.4918 C   0  0  0  0  0  0  0  0  0  0  0  0
  -31.6899  -19.5264   21.0729 C   0  0  0  0  0  0  0  0  0  0  0  0
  -31.8705  -20.5092   23.3966 C   0  0  0  0  0  0  0  0  0  0  0  0
  -29.6719  -19.7508   22.5815 C   0  0  0  0  0  0  0  0  0  0  0  0
  -29.2456  -26.4649   20.8222 C   0  0  1  0  0  0  0  0  0  0  0  0
  -26.8916  -29.4469   20.8315 C   0  0  1  0  0  0  0  0  0  0  0  0
  -30.1676  -19.7573   21.1253 C   0  0  2  0  0  0  0  0  0  0  0  0
  -23.9359  -23.1087   21.5473 C   0  0  0  0  0  0  0  0  0  0  0  0
  -23.6125  -35.3647   24.6038 C   0  0  0  0  0  0  0  0  0  0  0  0
  -27.2668  -29.9005   25.4156 C   0  0  0  0  0  0  0  0  0  0  0  0
  -25.9181  -31.7496   26.4305 C   0  0  0  0  0  0  0  0  0  0  0  0
  -27.9738  -32.2813   25.1212 C   0  0  0  0  0  0  0  0  0  0  0  0
  -22.7555  -34.1486   21.1019 C   0  0  0  0  0  0  0  0  0  0  0  0
  -27.8055  -23.0316   24.6919 C   0  0  0  0  0  0  0  0  0  0  0  0
  -21.2344  -23.9045   24.4810 C   0  0  0  0  0  0  0  0  0  0  0  0
  -19.9486  -24.1889   23.7059 C   0  0  0  0  0  0  0  0  0  0  0  0
  -21.0424  -25.9923   22.2359 C   0  0  0  0  0  0  0  0  0  1  0  0
  -25.9014  -31.4906   23.9079 C   0  0  1  0  0  0  0  0  0  0  0  0
  -23.8450  -34.6165   23.3003 C   0  0  2  0  0  0  0  0  0  0  0  0
  -26.7535  -31.3381   25.1994 C   0  0  0  0  0  0  0  0  0  0  0  0
  -28.9778  -17.6180   20.8245 N   0  0  0  0  0  0  0  0  0  0  0  0
  -29.4197  -18.7567   20.2638 N   0  0  0  0  0  0  0  0  0  0  0  0
  -26.1074  -30.0243   21.9251 N   0  0  0  0  0  0  0  0  0  0  0  0
  -30.4233  -20.7349   23.3764 N   0  0  0  0  0  0  0  0  0  0  0  0
  -29.4949  -19.9499   18.2190 N   0  0  0  0  0  0  0  0  0  0  0  0
  -27.2537  -16.1796   17.1433 N   0  0  0  0  0  0  0  0  0  0  0  0
  -28.4549  -27.6308   20.4908 N   0  0  0  0  0  0  0  0  0  0  0  0
  -25.4245  -32.8475   23.6633 N   0  0  0  0  0  0  0  0  0  0  0  0
  -28.5053  -21.9627   24.0148 N   0  0  0  0  0  0  0  0  0  0  0  0
  -22.6531  -34.8119   22.4273 N   0  3  0  0  0  0  0  0  0  0  0  0
  -21.6220  -21.9381   23.1366 O   0  0  0  0  0  0  0  0  0  0  0  0
  -28.0786  -18.1545   16.3198 O   0  0  0  0  0  0  0  0  0  0  0  0
  -27.4191  -27.9226   22.5559 O   0  0  0  0  0  0  0  0  0  0  0  0
  -19.7371  -24.2072   21.2967 O   0  0  0  0  0  0  0  0  0  0  0  0
  -27.6938  -31.6753   22.3653 O   0  0  0  0  0  0  0  0  0  0  0  0
  -23.1663  -32.3216   23.6320 O   0  0  0  0  0  0  0  0  0  0  0  0
  -30.5828  -22.5984   24.7475 O   0  0  0  0  0  0  0  0  0  0  0  0
  -25.9982  -11.9948   20.5997 O   0  0  0  0  0  0  0  0  0  0  0  0
  -21.2224  -26.4047   20.8817 O   0  0  0  0  0  0  0  0  0  1  0  0
  -20.9968  -11.1755   18.4276 F   0  0  0  0  0  0  0  0  0  0  0  0
  -23.8390  -11.3671   22.2079 F   0  0  0  0  0  0  0  0  0  0  0  0
  1  2  1  0  0  0  0
  1  6  2  0  0  0  0
  2  7  2  0  0  0  0
  3 10  2  0  0  0  0
  3 18  1  0  0  0  0
  4 11  1  0  0  0  0
  4 18  2  0  0  0  0
  5  9  2  0  0  0  0
  5 19  1  0  0  0  0
  6 21  1  0  0  0  0
  7 23  1  0  0  0  0
  8 12  2  0  0  0  0
  8 22  1  0  0  0  0
  9 25  1  0  0  0  0
 10 27  1  0  0  0  0
 11 27  2  0  0  0  0
 12 28  1  0  0  0  0
 13 14  2  0  0  0  0
 13 29  1  0  0  0  0
 14 30  1  0  0  0  0
 15 24  1  0  0  0  0
 15 28  2  0  0  0  0
 16 25  2  0  0  0  0
 16 26  1  0  0  0  0
 17 30  2  0  0  0  0
 17 31  1  0  0  0  0
 18 32  1  0  0  0  0
 19 26  2  0  0  0  0
 19 34  1  0  0  0  0
 20 32  1  0  0  0  0
 20 33  2  0  0  0  0
 20 35  1  0  0  0  0
 21 23  2  0  0  0  0
 21 41  1  0  0  0  0
 22 24  2  0  0  0  0
 22 42  1  0  0  0  0
 23 50  1  0  0  0  0
 24 43  1  0  0  0  0
 25 59  1  0  0  0  0
 26 53  1  0  0  0  0
 27 83  1  0  0  0  0
 28 84  1  0  0  0  0
 29 31  2  0  0  0  0
 29 83  1  0  0  0  0
 30 85  1  0  0  0  0
 31 86  1  0  0  0  0
 32 66  2  0  0  0  0
 33 67  1  0  0  0  0
 33 70  1  0  0  0  0
 34 60  1  0  0  0  0
 34 76  2  0  0  0  0
 35 71  1  0  0  0  0
 35 77  2  0  0  0  0
 36 51  1  0  0  0  0
 36 72  1  0  0  0  0
 36 78  2  0  0  0  0
 37 61  1  0  0  0  0
 37 62  1  0  0  0  0
 37 79  2  0  0  0  0
 38 63  1  0  0  0  0
 38 68  1  0  0  0  0
 38 80  2  0  0  0  0
 39 64  1  0  0  0  0
 39 73  1  0  0  0  0
 39 81  2  0  0  0  0
 40 69  1  0  0  0  0
 40 74  1  0  0  0  0
 40 82  2  0  0  0  0
 41 44  1  0  0  0  0
 42 51  1  0  0  0  0
 43 68  1  0  0  0  0
 44 46  1  0  0  0  0
 45 47  1  0  0  0  0
 45 48  1  0  0  0  0
 46 50  1  0  0  0  0
 47 52  1  0  0  0  0
 48 69  1  0  0  0  0
 49 52  1  0  0  0  0
 49 69  1  0  0  0  0
 50 72  1  0  0  0  0
 51 68  1  0  0  0  0
 52 67  1  0  0  0  0
 54 64  1  0  0  0  0
 55 65  1  0  0  0  0
 56 65  1  0  0  0  0
 57 65  1  0  0  0  0
 58 75  1  0  0  0  0
 59 74  1  0  0  0  0
 60 61  1  0  0  0  0
 62 84  1  0  0  0  0
 63 65  1  0  0  0  0
 63 73  1  0  0  0  0
 64 75  1  0  0  0  0
 66 67  1  0  0  0  0
M  CHG  1  75   1
M  ISO  4  40 100  62 101  74 100  84 101
M  END
> <Batch ID>
0135

> <Smiles>
CNC(C)C(=O)NC(C(=O)N1Cc2cc([101O:1][101CH2:1]C(=O)CCC(=O)c3ccc(C[100NH:0][100C:0](=O)N4CCCC(n5nc(-c6ccc(Oc7ccc(F)cc7F)cc6)c(C(N)=O)c5N)C4)cc3C)ccc2CC1C(=O)NC1CCCc2ccccc21)C(C)(C)C

> <Shape>
0.275

> <Color>
0.063

> <Negative vol penalty>
0.000

$$$$

  -OEChem-04052302363D

 91 99  0     1  0  0  0  0  0999 V2000
  -19.5158  -31.4270   14.8445 C   0  0  0  0  0  0  0  0  0  0  0  0
  -20.3570  -30.4072   15.2779 C   0  0  0  0  0  0  0  0  0  0  0  0
  -25.8761  -19.4846   22.8344 C   0  0  0  0  0  0  0  0  0  0  0  0
  -24.6466   -8.8821   21.3476 C   0  0  0  0  0  0  0  0  0  0  0  0
  -23.2830  -10.7385   22.0765 C   0  0  0  0  0  0  0  0  0  0  0  0
  -19.9666  -32.7463   14.8398 C   0  0  0  0  0  0  0  0  0  0  0  0
  -21.6500  -30.7060   15.7058 C   0  0  0  0  0  0  0  0  0  0  0  0
  -24.7906  -27.9157   20.1619 C   0  0  0  0  0  0  0  0  0  0  0  0
  -26.9611  -20.1853   23.3611 C   0  0  0  0  0  0  0  0  0  0  0  0
  -26.0927  -18.3714   22.0222 C   0  0  0  0  0  0  0  0  0  0  0  0
  -24.0916   -8.0822   22.3465 C   0  0  0  0  0  0  0  0  0  0  0  0
  -22.7280   -9.9387   23.0754 C   0  0  0  0  0  0  0  0  0  0  0  0
  -25.7684  -26.9221   20.1397 C   0  0  0  0  0  0  0  0  0  0  0  0
  -21.2259   -6.3610   22.8545 C   0  0  0  0  0  0  0  0  0  0  0  0
  -20.8273   -5.0708   22.5051 C   0  0  0  0  0  0  0  0  0  0  0  0
  -27.4831  -28.6159   20.2408 C   0  0  0  0  0  0  0  0  0  0  0  0
  -28.4792  -18.6597   22.2635 C   0  0  0  0  0  0  0  0  0  0  0  0
  -22.3692   -4.1559   24.1246 C   0  0  0  0  0  0  0  0  0  0  0  0
  -24.2423  -10.2103   21.2126 C   0  0  0  0  0  0  0  0  0  0  0  0
  -24.3426  -11.2062   18.8662 C   0  0  0  0  0  0  0  0  0  0  0  0
  -21.2626  -33.0626   15.2769 C   0  0  0  0  0  0  0  0  0  0  0  0
  -25.1525  -29.2695   20.2127 C   0  0  0  0  0  0  0  0  0  0  0  0
  -22.1192  -32.0307   15.7056 C   0  0  0  0  0  0  0  0  0  0  0  0
  -26.5079  -29.6246   20.2661 C   0  0  0  0  0  0  0  0  0  0  0  0
  -28.2626  -19.7729   23.0757 C   0  0  0  0  0  0  0  0  0  0  0  0
  -27.3942  -17.9589   21.7368 C   0  0  0  0  0  0  0  0  0  0  0  0
  -23.1323   -8.6105   23.2104 C   0  0  0  0  0  0  0  0  0  0  0  0
  -27.1149  -27.2722   20.1762 C   0  0  0  0  0  0  0  0  0  0  0  0
  -22.1963   -6.5487   23.8389 C   0  0  0  0  0  0  0  0  0  0  0  0
  -21.3989   -3.9682   23.1402 C   0  0  0  0  0  0  0  0  0  0  0  0
  -22.7679   -5.4461   24.4739 C   0  0  0  0  0  0  0  0  0  0  0  0
  -24.8157  -11.0371   20.1813 C   0  0  0  0  0  0  0  0  0  0  0  0
  -25.2296  -12.0841   18.2925 C   0  0  0  0  0  0  0  0  0  0  0  0
  -29.5683  -21.5802   20.2407 C   0  0  0  0  0  0  0  0  0  0  0  0
  -23.2032  -10.6221   18.2210 C   0  0  0  0  0  0  0  0  0  0  0  0
  -30.2723  -21.1856   21.3234 C   0  0  0  0  0  0  0  0  0  0  0  0
  -24.7337  -31.7766   18.3041 C   0  0  0  0  0  0  0  0  0  0  0  0
  -26.0780  -33.3907   20.7760 C   0  0  0  0  0  0  0  0  0  0  0  0
  -28.0747  -33.3134   23.5425 C   0  0  0  0  0  0  0  0  0  0  0  0
  -28.8408  -16.2856   20.5311 C   0  0  0  0  0  0  0  0  0  0  0  0
  -21.7215  -34.4977   15.2090 C   0  0  0  0  0  0  0  0  0  0  0  0
  -24.0852  -30.3282   20.2630 C   0  0  0  0  0  0  0  0  0  0  0  0
  -26.9485  -31.0628   20.3416 C   0  0  0  0  0  0  0  0  0  0  0  0
  -22.9773  -34.7752   16.0314 C   0  0  0  0  0  0  0  0  0  0  0  0
  -29.8004  -13.4902   18.5456 C   0  0  0  0  0  0  0  0  0  0  0  0
  -24.0299  -33.7009   15.7774 C   0  0  0  0  0  0  0  0  0  0  0  0
  -28.5856  -12.5621   18.6151 C   0  0  0  0  0  0  0  0  0  0  0  0
  -30.0396  -14.2115   19.8709 C   0  0  0  0  0  0  0  0  0  0  0  0
  -27.6607  -14.0008   20.4756 C   0  0  0  0  0  0  0  0  0  0  0  0
  -23.5201  -32.3179   16.2006 C   0  0  1  0  0  0  0  0  0  0  0  0
  -24.5767  -31.6948   19.7962 C   0  0  1  0  0  0  0  0  0  0  0  0
  -27.3411  -13.3014   19.1443 C   0  0  2  0  0  0  0  0  0  0  0  0
  -32.7653  -20.9863   21.0363 C   0  0  0  0  0  0  0  0  0  0  0  0
  -27.4092  -22.0523   19.1067 C   0  0  0  0  0  0  0  0  0  0  0  0
  -29.0165  -34.7968   25.3342 C   0  0  0  0  0  0  0  0  0  0  0  0
  -31.4702  -23.8031   22.6196 C   0  0  0  0  0  0  0  0  0  0  0  0
  -30.7342  -22.9359   24.8431 C   0  0  0  0  0  0  0  0  0  0  0  0
  -29.6846  -24.2670   18.8128 C   0  0  0  0  0  0  0  0  0  0  0  0
  -28.0942  -34.5158   18.7812 C   0  0  0  0  0  0  0  0  0  0  0  0
  -29.5294  -35.1905   20.7186 C   0  0  0  0  0  0  0  0  0  0  0  0
  -27.2500  -36.1696   20.4566 C   0  0  0  0  0  0  0  0  0  0  0  0
  -26.7252  -31.7795   25.6838 C   0  0  0  0  0  0  0  0  0  0  0  0
  -29.4377  -20.5323   23.6466 C   0  0  0  0  0  0  0  0  0  0  0  0
  -31.4538  -20.2390   21.2340 C   0  0  0  0  0  0  0  0  0  0  0  0
  -27.6243  -24.9507   20.0929 C   0  0  0  0  0  0  0  0  0  1  0  0
  -28.3764  -22.5160   20.2029 C   0  0  2  0  0  0  0  0  0  0  0  0
  -29.9437  -21.6890   22.7392 C   0  0  1  0  0  0  0  0  0  0  0  0
  -27.4876  -33.7568   21.1733 C   0  0  1  0  0  0  0  0  0  0  0  0
  -27.8784  -33.8673   24.9422 C   0  0  2  0  0  0  0  0  0  0  0  0
  -31.0740  -22.5459   23.3991 C   0  0  0  0  0  0  0  0  0  0  0  0
  -28.8289  -23.9959   20.0594 C   0  0  1  0  0  0  0  0  0  0  0  0
  -28.0823  -34.8811   20.2791 C   0  0  0  0  0  0  0  0  0  0  0  0
  -25.9177  -11.7502   20.4285 N   0  0  0  0  0  0  0  0  0  0  0  0
  -26.1445  -12.3758   19.2609 N   0  0  0  0  0  0  0  0  0  0  0  0
  -25.8676  -32.0616   20.3821 N   0  0  0  0  0  0  0  0  0  0  0  0
  -28.8190  -14.8925   20.3081 N   0  0  0  0  0  0  0  0  0  0  0  0
  -25.3083  -12.6271   17.0591 N   0  0  0  0  0  0  0  0  0  0  0  0
  -22.3980   -9.7412   18.9558 N   0  0  0  0  0  0  0  0  0  0  0  0
  -27.6138  -16.8277   20.9123 N   0  0  0  0  0  0  0  0  0  0  0  0
  -23.5890  -32.1721   17.6388 N   0  0  0  0  0  0  0  0  0  0  0  0
  -27.4389  -34.0860   22.5937 N   0  0  0  0  0  0  0  0  0  0  0  0
  -27.8153  -32.7572   25.9344 N   0  3  0  0  0  0  0  0  0  0  0  0
  -22.9173  -10.8611   17.0232 O   0  0  0  0  0  0  0  0  0  0  0  0
  -25.8139  -31.5026   17.7943 O   0  0  0  0  0  0  0  0  0  0  0  0
  -25.1945  -34.2504   20.8205 O   0  0  0  0  0  0  0  0  0  0  0  0
  -28.7299  -32.2992   23.3133 O   0  0  0  0  0  0  0  0  0  0  0  0
  -29.8654  -16.9530   20.3677 O   0  0  0  0  0  0  0  0  0  0  0  0
  -22.5904   -7.8302   24.1851 O   0  0  0  0  0  0  0  0  0  0  0  0
  -28.0778  -26.2980   20.1539 O   0  0  0  0  0  0  0  0  0  1  0  0
  -21.0149   -2.7294   22.8057 F   0  0  0  0  0  0  0  0  0  0  0  0
  -23.6997   -5.6202   25.4212 F   0  0  0  0  0  0  0  0  0  0  0  0
  1  2  1  0  0  0  0
  1  6  2  0  0  0  0
  2  7  2  0  0  0  0
  3  9  2  0  0  0  0
  3 10  1  0  0  0  0
  4 11  2  0  0  0  0
  4 19  1  0  0  0  0
  5 12  1  0  0  0  0
  5 19  2  0  0  0  0
  6 21  1  0  0  0  0
  7 23  1  0  0  0  0
  8 13  2  0  0  0  0
  8 22  1  0  0  0  0
  9 25  1  0  0  0  0
 10 26  2  0  0  0  0
 11 27  1  0  0  0  0
 12 27  2  0  0  0  0
 13 28  1  0  0  0  0
 14 15  2  0  0  0  0
 14 29  1  0  0  0  0
 15 30  1  0  0  0  0
 16 24  1  0  0  0  0
 16 28  2  0  0  0  0
 17 25  2  0  0  0  0
 17 26  1  0  0  0  0
 18 30  2  0  0  0  0
 18 31  1  0  0  0  0
 19 32  1  0  0  0  0
 20 32  1  0  0  0  0
 20 33  2  0  0  0  0
 20 35  1  0  0  0  0
 21 23  2  0  0  0  0
 21 41  1  0  0  0  0
 22 24  2  0  0  0  0
 22 42  1  0  0  0  0
 23 50  1  0  0  0  0
 24 43  1  0  0  0  0
 25 63  1  0  0  0  0
 26 79  1  0  0  0  0
 27 88  1  0  0  0  0
 28 89  1  0  0  0  0
 29 31  2  0  0  0  0
 29 88  1  0  0  0  0
 30 90  1  0  0  0  0
 31 91  1  0  0  0  0
 32 73  2  0  0  0  0
 33 74  1  0  0  0  0
 33 77  1  0  0  0  0
 34 36  2  0  0  0  0
 34 66  1  0  0  0  0
 35 78  1  0  0  0  0
 35 83  2  0  0  0  0
 36 64  1  0  0  0  0
 36 67  1  0  0  0  0
 37 51  1  0  0  0  0
 37 80  1  0  0  0  0
 37 84  2  0  0  0  0
 38 68  1  0  0  0  0
 38 75  1  0  0  0  0
 38 85  2  0  0  0  0
 39 69  1  0  0  0  0
 39 81  1  0  0  0  0
 39 86  2  0  0  0  0
 40 76  1  0  0  0  0
 40 79  1  0  0  0  0
 40 87  2  0  0  0  0
 41 44  1  0  0  0  0
 42 51  1  0  0  0  0
 43 75  1  0  0  0  0
 44 46  1  0  0  0  0
 45 47  1  0  0  0  0
 45 48  1  0  0  0  0
 46 50  1  0  0  0  0
 47 52  1  0  0  0  0
 48 76  1  0  0  0  0
 49 52  1  0  0  0  0
 49 76  1  0  0  0  0
 50 80  1  0  0  0  0
 51 75  1  0  0  0  0
 52 74  1  0  0  0  0
 53 64  1  0  0  0  0
 54 66  1  0  0  0  0
 55 69  1  0  0  0  0
 56 70  1  0  0  0  0
 57 70  1  0  0  0  0
 58 71  1  0  0  0  0
 59 72  1  0  0  0  0
 60 72  1  0  0  0  0
 61 72  1  0  0  0  0
 62 82  1  0  0  0  0
 63 67  1  0  0  0  0
 65 71  1  0  0  0  0
 65 89  1  0  0  0  0
 66 71  1  0  0  0  0
 67 70  1  0  0  0  0
 68 72  1  0  0  0  0
 68 81  1  0  0  0  0
 69 82  1  0  0  0  0
 73 74  1  0  0  0  0
M  CHG  1  82   1
M  ISO  4  40 100  65 101  79 100  89 101
M  END
> <Batch ID>
0135

> <Smiles>
CCC(=CC(C)C(C)[101CH2:1][101O:1]c1ccc2c(c1)CN(C(=O)C(NC(=O)C(C)NC)C(C)(C)C)C(C(=O)NC1CCCc3ccccc31)C2)C(Cc1cccc([100NH:0][100C:0](=O)N2CCCC(n3nc(-c4ccc(Oc5ccc(F)cc5F)cc4)c(C(N)=O)c3N)C2)c1)C(C)C

> <Shape>
0.234

> <Color>
0.085

> <Negative vol penalty>
0.000

$$$$

  -OEChem-04052302363D

 88 96  0     1  0  0  0  0  0999 V2000
  -32.9163  -27.5670   17.6527 C   0  0  0  0  0  0  0  0  0  0  0  0
  -31.7066  -27.1745   18.2166 C   0  0  0  0  0  0  0  0  0  0  0  0
  -24.5394   -8.7525   21.4774 C   0  0  0  0  0  0  0  0  0  0  0  0
  -22.7523   -9.8850   20.3109 C   0  0  0  0  0  0  0  0  0  0  0  0
  -33.6667  -28.5790   18.2500 C   0  0  0  0  0  0  0  0  0  0  0  0
  -31.2471  -27.7930   19.3788 C   0  0  0  0  0  0  0  0  0  0  0  0
  -26.3270  -28.9679   19.1391 C   0  0  0  0  0  0  0  0  0  0  0  0
  -25.5145  -21.1484   17.8717 C   0  0  0  0  0  0  0  0  0  0  0  0
  -25.8739  -19.9205   17.3161 C   0  0  0  0  0  0  0  0  0  0  0  0
  -23.7264   -7.6298   21.6331 C   0  0  0  0  0  0  0  0  0  0  0  0
  -21.9393   -8.7622   20.4665 C   0  0  0  0  0  0  0  0  0  0  0  0
  -25.4148  -27.9325   19.3381 C   0  0  0  0  0  0  0  0  0  0  0  0
  -21.1908   -6.6505   23.6420 C   0  0  0  0  0  0  0  0  0  0  0  0
  -21.1652   -6.0385   24.8952 C   0  0  0  0  0  0  0  0  0  0  0  0
  -25.0977  -28.6579   21.6168 C   0  0  0  0  0  0  0  0  0  0  0  0
  -25.5007  -20.1490   20.0713 C   0  0  0  0  0  0  0  0  0  0  0  0
  -21.9725   -3.9859   23.9094 C   0  0  0  0  0  0  0  0  0  0  0  0
  -24.0523   -9.8801   20.8164 C   0  0  0  0  0  0  0  0  0  0  0  0
  -25.7643  -11.3167   19.5864 C   0  0  0  0  0  0  0  0  0  0  0  0
  -33.2115  -29.2169   19.4147 C   0  0  0  0  0  0  0  0  0  0  0  0
  -26.6402  -29.8509   20.1824 C   0  0  0  0  0  0  0  0  0  0  0  0
  -31.9928  -28.8136   19.9929 C   0  0  0  0  0  0  0  0  0  0  0  0
  -26.0124  -29.7052   21.4277 C   0  0  0  0  0  0  0  0  0  0  0  0
  -25.3279  -21.2627   19.2494 C   0  0  0  0  0  0  0  0  0  0  0  0
  -26.0467  -18.8069   18.1381 C   0  0  0  0  0  0  0  0  0  0  0  0
  -25.8601  -18.9211   19.5157 C   0  0  0  0  0  0  0  0  0  0  0  0
  -22.4264   -7.6347   21.1276 C   0  0  0  0  0  0  0  0  0  0  0  0
  -24.8021  -27.7757   20.5779 C   0  0  0  0  0  0  0  0  0  0  0  0
  -21.6072   -5.9301   22.5225 C   0  0  0  0  0  0  0  0  0  0  0  0
  -21.5560   -4.7063   25.0289 C   0  0  0  0  0  0  0  0  0  0  0  0
  -21.9981   -4.5978   22.6562 C   0  0  0  0  0  0  0  0  0  0  0  0
  -24.8915  -11.0404   20.6557 C   0  0  0  0  0  0  0  0  0  0  0  0
  -26.3241  -12.5299   19.9048 C   0  0  0  0  0  0  0  0  0  0  0  0
  -26.0441  -10.5458   18.4103 C   0  0  0  0  0  0  0  0  0  0  0  0
  -29.2878  -30.5857   21.7806 C   0  0  0  0  0  0  0  0  0  0  0  0
  -27.3870  -32.8496   23.1164 C   0  0  0  0  0  0  0  0  0  0  0  0
  -24.2340  -33.8810   23.9172 C   0  0  0  0  0  0  0  0  0  0  0  0
  -25.8815  -17.7636   21.7531 C   0  0  0  0  0  0  0  0  0  0  0  0
  -34.0802  -30.2731   20.0506 C   0  0  0  0  0  0  0  0  0  0  0  0
  -27.6063  -30.9788   19.9438 C   0  0  0  0  0  0  0  0  0  0  0  0
  -26.2989  -30.6388   22.5743 C   0  0  0  0  0  0  0  0  0  0  0  0
  -33.3419  -31.1359   21.0708 C   0  0  0  0  0  0  0  0  0  0  0  0
  -26.1784  -15.1979   24.2039 C   0  0  0  0  0  0  0  0  0  0  0  0
  -32.5166  -30.2627   22.0107 C   0  0  0  0  0  0  0  0  0  0  0  0
  -25.9419  -13.9103   23.4113 C   0  0  0  0  0  0  0  0  0  0  0  0
  -25.2965  -16.3412   23.7049 C   0  0  0  0  0  0  0  0  0  0  0  0
  -25.1416  -15.3165   21.4699 C   0  0  0  0  0  0  0  0  0  0  0  0
  -31.4488  -29.4777   21.2392 C   0  0  1  0  0  0  0  0  0  0  0  0
  -28.2372  -31.5071   21.2284 C   0  0  1  0  0  0  0  0  0  0  0  0
  -26.0542  -14.1541   21.8936 C   0  0  2  0  0  0  0  0  0  0  0  0
  -27.9088  -17.1822   17.7142 C   0  0  0  0  0  0  0  0  0  0  0  0
  -27.8251  -23.9318   22.2260 C   0  0  0  0  0  0  0  0  0  0  0  0
  -23.0003  -35.7562   25.0394 C   0  0  0  0  0  0  0  0  0  0  0  0
  -28.2263  -31.7669   25.8428 C   0  0  0  0  0  0  0  0  0  0  0  0
  -26.2924  -32.9979   26.8493 C   0  0  0  0  0  0  0  0  0  0  0  0
  -28.1114  -34.2611   25.7012 C   0  0  0  0  0  0  0  0  0  0  0  0
  -27.2337  -23.5046   19.2438 C   0  0  0  0  0  0  0  0  0  0  0  0
  -23.2761  -24.5503   21.3885 C   0  0  0  0  0  0  0  0  0  0  0  0
  -25.0379  -25.7922   22.6348 C   0  0  0  0  0  0  0  0  0  0  0  0
  -22.7617  -34.5503   21.4387 C   0  0  0  0  0  0  0  0  0  0  0  0
  -24.9380  -22.5954   19.8514 C   0  0  0  0  0  0  0  0  0  0  0  0
  -26.4311  -17.5040   17.5153 C   0  0  0  0  0  0  0  0  0  0  0  0
  -26.6767  -23.0992   21.6649 C   0  0  0  0  0  0  0  0  0  0  0  0
  -25.5816  -25.0438   20.2996 C   0  0  0  0  0  0  0  0  0  0  0  0
  -26.4802  -32.9088   24.3218 C   0  0  1  0  0  0  0  0  0  0  0  0
  -23.5293  -35.2113   23.7218 C   0  0  2  0  0  0  0  0  0  0  0  0
  -27.2734  -32.9647   25.6579 C   0  0  0  0  0  0  0  0  0  0  0  0
  -26.0899  -23.5550   20.2941 C   0  0  1  0  0  0  0  0  0  0  0  0
  -24.4441  -25.5204   21.2423 C   0  0  0  0  0  0  0  0  0  1  0  0
  -24.8932  -12.0006   21.5842 N   0  0  0  0  0  0  0  0  0  0  0  0
  -25.7741  -12.8922   21.0992 N   0  0  0  0  0  0  0  0  0  0  0  0
  -27.2554  -31.7221   22.2933 N   0  0  0  0  0  0  0  0  0  0  0  0
  -25.4586  -16.5166   22.2600 N   0  0  0  0  0  0  0  0  0  0  0  0
  -27.2282  -13.3114   19.2769 N   0  0  0  0  0  0  0  0  0  0  0  0
  -25.3813   -9.3227   18.2399 N   0  0  0  0  0  0  0  0  0  0  0  0
  -26.0317  -17.8017   20.3672 N   0  0  0  0  0  0  0  0  0  0  0  0
  -30.3307  -30.3353   20.9094 N   0  0  0  0  0  0  0  0  0  0  0  0
  -25.5899  -34.0444   24.1075 N   0  0  0  0  0  0  0  0  0  0  0  0
  -22.3824  -35.0569   22.7827 N   0  3  0  0  0  0  0  0  0  0  0  0
  -26.8700  -10.9224   17.5445 O   0  0  0  0  0  0  0  0  0  0  0  0
  -29.1623  -30.1364   22.9138 O   0  0  0  0  0  0  0  0  0  0  0  0
  -28.1779  -33.7732   22.9086 O   0  0  0  0  0  0  0  0  0  0  0  0
  -23.6405  -32.8049   23.9062 O   0  0  0  0  0  0  0  0  0  0  0  0
  -26.1210  -18.7187   22.4963 O   0  0  0  0  0  0  0  0  0  0  0  0
  -21.6329   -6.5393   21.2791 O   0  0  0  0  0  0  0  0  0  0  0  0
  -23.9079  -26.7611   20.7759 O   0  0  0  0  0  0  0  0  0  1  0  0
  -21.5328   -4.1192   26.2327 F   0  0  0  0  0  0  0  0  0  0  0  0
  -22.4003   -3.9010   21.5845 F   0  0  0  0  0  0  0  0  0  0  0  0
  1  2  1  0  0  0  0
  1  5  2  0  0  0  0
  2  6  2  0  0  0  0
  3 10  2  0  0  0  0
  3 18  1  0  0  0  0
  4 11  1  0  0  0  0
  4 18  2  0  0  0  0
  5 20  1  0  0  0  0
  6 22  1  0  0  0  0
  7 12  2  0  0  0  0
  7 21  1  0  0  0  0
  8  9  2  0  0  0  0
  8 24  1  0  0  0  0
  9 25  1  0  0  0  0
 10 27  1  0  0  0  0
 11 27  2  0  0  0  0
 12 28  1  0  0  0  0
 13 14  2  0  0  0  0
 13 29  1  0  0  0  0
 14 30  1  0  0  0  0
 15 23  1  0  0  0  0
 15 28  2  0  0  0  0
 16 24  2  0  0  0  0
 16 26  1  0  0  0  0
 17 30  2  0  0  0  0
 17 31  1  0  0  0  0
 18 32  1  0  0  0  0
 19 32  1  0  0  0  0
 19 33  2  0  0  0  0
 19 34  1  0  0  0  0
 20 22  2  0  0  0  0
 20 39  1  0  0  0  0
 21 23  2  0  0  0  0
 21 40  1  0  0  0  0
 22 48  1  0  0  0  0
 23 41  1  0  0  0  0
 24 61  1  0  0  0  0
 25 26  2  0  0  0  0
 25 62  1  0  0  0  0
 26 76  1  0  0  0  0
 27 85  1  0  0  0  0
 28 86  1  0  0  0  0
 29 31  2  0  0  0  0
 29 85  1  0  0  0  0
 30 87  1  0  0  0  0
 31 88  1  0  0  0  0
 32 70  2  0  0  0  0
 33 71  1  0  0  0  0
 33 74  1  0  0  0  0
 34 75  1  0  0  0  0
 34 80  2  0  0  0  0
 35 49  1  0  0  0  0
 35 77  1  0  0  0  0
 35 81  2  0  0  0  0
 36 65  1  0  0  0  0
 36 72  1  0  0  0  0
 36 82  2  0  0  0  0
 37 66  1  0  0  0  0
 37 78  1  0  0  0  0
 37 83  2  0  0  0  0
 38 73  1  0  0  0  0
 38 76  1  0  0  0  0
 38 84  2  0  0  0  0
 39 42  1  0  0  0  0
 40 49  1  0  0  0  0
 41 72  1  0  0  0  0
 42 44  1  0  0  0  0
 43 45  1  0  0  0  0
 43 46  1  0  0  0  0
 44 48  1  0  0  0  0
 45 50  1  0  0  0  0
 46 73  1  0  0  0  0
 47 50  1  0  0  0  0
 47 73  1  0  0  0  0
 48 77  1  0  0  0  0
 49 72  1  0  0  0  0
 50 71  1  0  0  0  0
 51 62  1  0  0  0  0
 52 63  1  0  0  0  0
 53 66  1  0  0  0  0
 54 67  1  0  0  0  0
 55 67  1  0  0  0  0
 56 67  1  0  0  0  0
 57 68  1  0  0  0  0
 58 69  1  0  0  0  0
 59 69  1  0  0  0  0
 60 79  1  0  0  0  0
 61 68  1  0  0  0  0
 63 68  1  0  0  0  0
 64 68  1  0  0  0  0
 64 69  1  0  0  0  0
 65 67  1  0  0  0  0
 65 78  1  0  0  0  0
 66 79  1  0  0  0  0
 69 86  1  0  0  0  0
 70 71  1  0  0  0  0
M  CHG  1  79   1
M  ISO  4  38 100  69 101  76 100  86 101
M  END
> <Batch ID>
0135

> <Smiles>
CCc1ccc(CC(C)(CC)C[101C:1](C)(C)[101O:1]c2ccc3c(c2)CN(C(=O)C(NC(=O)C(C)NC)C(C)(C)C)C(C(=O)NC2CCCc4ccccc42)C3)cc1[100NH:0][100C:0](=O)N1CCCC(n2nc(-c3ccc(Oc4ccc(F)cc4F)cc3)c(C(N)=O)c2N)C1

> <Shape>
0.222

> <Color>
0.104

> <Negative vol penalty>
0.000

$$$$

  -OEChem-04052302363D

 87 95  0     1  0  0  0  0  0999 V2000
  -21.5115  -34.2560   22.3876 C   0  0  0  0  0  0  0  0  0  0  0  0
  -22.6793  -33.5003   22.3591 C   0  0  0  0  0  0  0  0  0  0  0  0
  -29.4355  -26.0440   16.5679 C   0  0  0  0  0  0  0  0  0  0  0  0
  -25.6457  -13.4305   21.5819 C   0  0  0  0  0  0  0  0  0  0  0  0
  -26.7312  -13.0725   19.4534 C   0  0  0  0  0  0  0  0  0  0  0  0
  -30.6030  -26.6458   17.0373 C   0  0  0  0  0  0  0  0  0  0  0  0
  -20.3097  -33.6653   22.7757 C   0  0  0  0  0  0  0  0  0  0  0  0
  -22.6460  -32.1537   22.7198 C   0  0  0  0  0  0  0  0  0  0  0  0
  -25.2563  -29.2208   19.5215 C   0  0  0  0  0  0  0  0  0  0  0  0
  -29.2735  -24.6623   16.6698 C   0  0  0  0  0  0  0  0  0  0  0  0
  -24.6247  -12.5568   21.2083 C   0  0  0  0  0  0  0  0  0  0  0  0
  -25.7102  -12.1986   19.0797 C   0  0  0  0  0  0  0  0  0  0  0  0
  -26.6443  -29.2141   19.6523 C   0  0  0  0  0  0  0  0  0  0  0  0
  -24.1511   -9.2141   21.0205 C   0  0  0  0  0  0  0  0  0  0  0  0
  -23.7330   -8.2678   21.9560 C   0  0  0  0  0  0  0  0  0  0  0  0
  -31.4467  -24.4843   17.7103 C   0  0  0  0  0  0  0  0  0  0  0  0
  -26.5136  -27.1351   20.8687 C   0  0  0  0  0  0  0  0  0  0  0  0
  -21.5017   -9.1921   21.8938 C   0  0  0  0  0  0  0  0  0  0  0  0
  -26.6990  -13.6885   20.7045 C   0  0  0  0  0  0  0  0  0  0  0  0
  -31.6086  -25.8660   17.6084 C   0  0  0  0  0  0  0  0  0  0  0  0
  -28.9509  -14.2658   21.7548 C   0  0  0  0  0  0  0  0  0  0  0  0
  -20.2599  -32.3084   23.1320 C   0  0  0  0  0  0  0  0  0  0  0  0
  -24.4843  -28.1885   20.0737 C   0  0  0  0  0  0  0  0  0  0  0  0
  -21.4426  -31.5447   23.1143 C   0  0  0  0  0  0  0  0  0  0  0  0
  -25.1161  -27.1297   20.7413 C   0  0  0  0  0  0  0  0  0  0  0  0
  -30.2791  -23.8824   17.2409 C   0  0  0  0  0  0  0  0  0  0  0  0
  -24.6570  -11.9408   19.9572 C   0  0  0  0  0  0  0  0  0  0  0  0
  -27.2729  -28.1726   20.3285 C   0  0  0  0  0  0  0  0  0  0  0  0
  -23.2445  -10.1495   20.5217 C   0  0  0  0  0  0  0  0  0  0  0  0
  -22.4083   -8.2567   22.3927 C   0  0  0  0  0  0  0  0  0  0  0  0
  -21.9198  -10.1385   20.9583 C   0  0  0  0  0  0  0  0  0  0  0  0
  -27.7537  -14.5914   21.0897 C   0  0  0  0  0  0  0  0  0  0  0  0
  -29.6074  -15.4649   21.8869 C   0  0  0  0  0  0  0  0  0  0  0  0
  -32.8355  -26.4981   18.1009 C   0  0  0  0  0  0  0  0  0  0  0  0
  -29.4270  -12.9931   22.2122 C   0  0  0  0  0  0  0  0  0  0  0  0
  -33.0236  -26.9609   19.3524 C   0  0  0  0  0  0  0  0  0  0  0  0
  -22.2152  -28.0259   22.2937 C   0  0  0  0  0  0  0  0  0  0  0  0
  -29.2722  -20.4595   18.6904 C   0  0  0  0  0  0  0  0  0  0  0  0
  -22.0428  -24.9318   21.3347 C   0  0  0  0  0  0  0  0  0  0  0  0
  -23.5853  -22.2613   19.8734 C   0  0  0  0  0  0  0  0  0  0  0  0
  -18.9463  -31.7260   23.5901 C   0  0  0  0  0  0  0  0  0  0  0  0
  -22.9902  -28.1967   19.9007 C   0  0  0  0  0  0  0  0  0  0  0  0
  -24.3344  -25.9872   21.3347 C   0  0  0  0  0  0  0  0  0  0  0  0
  -18.9262  -30.1996   23.5972 C   0  0  0  0  0  0  0  0  0  0  0  0
  -28.8057  -20.1578   22.2846 C   0  0  0  0  0  0  0  0  0  0  0  0
  -20.1903  -29.6521   24.2525 C   0  0  0  0  0  0  0  0  0  0  0  0
  -28.5630  -18.6568   22.4364 C   0  0  0  0  0  0  0  0  0  0  0  0
  -28.2078  -20.6947   20.9868 C   0  0  0  0  0  0  0  0  0  0  0  0
  -28.4388  -18.4768   19.9135 C   0  0  0  0  0  0  0  0  0  0  0  0
  -21.4423  -30.0750   23.4746 C   0  0  1  0  0  0  0  0  0  0  0  0
  -22.2629  -27.3591   20.9480 C   0  0  1  0  0  0  0  0  0  0  0  0
  -29.0530  -17.8902   21.1955 C   0  0  2  0  0  0  0  0  0  0  0  0
  -34.3383  -27.5899   19.7330 C   0  0  0  0  0  0  0  0  0  0  0  0
  -23.2041  -19.8568   19.2647 C   0  0  0  0  0  0  0  0  0  0  0  0
  -22.4103  -24.1362   24.2574 C   0  0  0  0  0  0  0  0  0  0  0  0
  -22.9691  -21.8214   23.4845 C   0  0  0  0  0  0  0  0  0  0  0  0
  -20.7158  -22.7820   23.0127 C   0  0  0  0  0  0  0  0  0  0  0  0
  -30.9821  -27.5268   23.3473 C   0  0  0  0  0  0  0  0  0  0  0  0
  -30.1498  -29.7004   22.4394 C   0  0  0  0  0  0  0  0  0  0  0  0
  -23.9728  -22.8089   16.9909 C   0  0  0  0  0  0  0  0  0  0  0  0
  -30.1050  -22.4054   17.3508 C   0  0  0  0  0  0  0  0  0  0  0  0
  -31.9996  -26.8624   20.4672 C   0  0  0  0  0  0  0  0  0  0  0  0
  -29.4409  -21.9576   18.6590 C   0  0  0  0  0  0  0  0  0  0  0  0
  -31.5550  -28.2437   20.9701 C   0  0  0  0  0  0  0  0  0  0  0  0
  -29.1659  -27.5369   21.6202 C   0  0  0  0  0  0  0  0  0  1  0  0
  -22.7229  -23.6470   21.7417 C   0  0  1  0  0  0  0  0  0  0  0  0
  -23.1255  -21.3002   18.7921 C   0  0  2  0  0  0  0  0  0  0  0  0
  -22.2194  -23.1190   23.1147 C   0  0  0  0  0  0  0  0  0  0  0  0
  -30.4658  -28.2320   22.0810 C   0  0  0  0  0  0  0  0  0  0  0  0
  -27.6528  -15.8953   20.8183 N   0  0  0  0  0  0  0  0  0  0  0  0
  -28.7950  -16.3996   21.3155 N   0  0  0  0  0  0  0  0  0  0  0  0
  -22.8755  -26.0437   21.1448 N   0  0  0  0  0  0  0  0  0  0  0  0
  -28.6776  -19.9206   19.8316 N   0  0  0  0  0  0  0  0  0  0  0  0
  -30.7945  -15.8005   22.4351 N   0  0  0  0  0  0  0  0  0  0  0  0
  -28.6269  -11.8630   21.9951 N   0  0  0  0  0  0  0  0  0  0  0  0
  -21.5982  -29.2623   22.2873 N   0  0  0  0  0  0  0  0  0  0  0  0
  -22.5299  -22.7150   20.6359 N   0  0  0  0  0  0  0  0  0  0  0  0
  -23.9751  -21.4435   17.5761 N   0  3  0  0  0  0  0  0  0  0  0  0
  -30.5219  -12.8643   22.8107 O   0  0  0  0  0  0  0  0  0  0  0  0
  -22.7009  -27.4598   23.2660 O   0  0  0  0  0  0  0  0  0  0  0  0
  -29.6603  -19.7897   17.7297 O   0  0  0  0  0  0  0  0  0  0  0  0
  -20.8186  -24.9466   21.1838 O   0  0  0  0  0  0  0  0  0  0  0  0
  -24.7634  -22.5751   20.0286 O   0  0  0  0  0  0  0  0  0  0  0  0
  -23.6610  -11.0879   19.5923 O   0  0  0  0  0  0  0  0  0  0  0  0
  -28.6373  -28.1639   20.4592 O   0  0  0  0  0  0  0  0  0  1  0  0
  -22.0066   -7.3469   23.2899 F   0  0  0  0  0  0  0  0  0  0  0  0
  -21.0440  -11.0338   20.4818 F   0  0  0  0  0  0  0  0  0  0  0  0
  1  2  1  0  0  0  0
  1  7  2  0  0  0  0
  2  8  2  0  0  0  0
  3  6  2  0  0  0  0
  3 10  1  0  0  0  0
  4 11  2  0  0  0  0
  4 19  1  0  0  0  0
  5 12  1  0  0  0  0
  5 19  2  0  0  0  0
  6 20  1  0  0  0  0
  7 22  1  0  0  0  0
  8 24  1  0  0  0  0
  9 13  2  0  0  0  0
  9 23  1  0  0  0  0
 10 26  2  0  0  0  0
 11 27  1  0  0  0  0
 12 27  2  0  0  0  0
 13 28  1  0  0  0  0
 14 15  2  0  0  0  0
 14 29  1  0  0  0  0
 15 30  1  0  0  0  0
 16 20  2  0  0  0  0
 16 26  1  0  0  0  0
 17 25  1  0  0  0  0
 17 28  2  0  0  0  0
 18 30  2  0  0  0  0
 18 31  1  0  0  0  0
 19 32  1  0  0  0  0
 20 34  1  0  0  0  0
 21 32  1  0  0  0  0
 21 33  2  0  0  0  0
 21 35  1  0  0  0  0
 22 24  2  0  0  0  0
 22 41  1  0  0  0  0
 23 25  2  0  0  0  0
 23 42  1  0  0  0  0
 24 50  1  0  0  0  0
 25 43  1  0  0  0  0
 26 61  1  0  0  0  0
 27 84  1  0  0  0  0
 28 85  1  0  0  0  0
 29 31  2  0  0  0  0
 29 84  1  0  0  0  0
 30 86  1  0  0  0  0
 31 87  1  0  0  0  0
 32 70  2  0  0  0  0
 33 71  1  0  0  0  0
 33 74  1  0  0  0  0
 34 36  2  0  0  0  0
 35 75  1  0  0  0  0
 35 79  2  0  0  0  0
 36 53  1  0  0  0  0
 36 62  1  0  0  0  0
 37 51  1  0  0  0  0
 37 76  1  0  0  0  0
 37 80  2  0  0  0  0
 38 63  1  0  0  0  0
 38 73  1  0  0  0  0
 38 81  2  0  0  0  0
 39 66  1  0  0  0  0
 39 72  1  0  0  0  0
 39 82  2  0  0  0  0
 40 67  1  0  0  0  0
 40 77  1  0  0  0  0
 40 83  2  0  0  0  0
 41 44  1  0  0  0  0
 42 51  1  0  0  0  0
 43 72  1  0  0  0  0
 44 46  1  0  0  0  0
 45 47  1  0  0  0  0
 45 48  1  0  0  0  0
 46 50  1  0  0  0  0
 47 52  1  0  0  0  0
 48 73  1  0  0  0  0
 49 52  1  0  0  0  0
 49 73  1  0  0  0  0
 50 76  1  0  0  0  0
 51 72  1  0  0  0  0
 52 71  1  0  0  0  0
 54 67  1  0  0  0  0
 55 68  1  0  0  0  0
 56 68  1  0  0  0  0
 57 68  1  0  0  0  0
 58 69  1  0  0  0  0
 59 69  1  0  0  0  0
 60 78  1  0  0  0  0
 61 63  1  0  0  0  0
 62 64  1  0  0  0  0
 64 69  1  0  0  0  0
 65 69  1  0  0  0  0
 65 85  1  0  0  0  0
 66 68  1  0  0  0  0
 66 77  1  0  0  0  0
 67 78  1  0  0  0  0
 70 71  1  0  0  0  0
M  CHG  1  78   1
M  ISO  4  38 100  63 100  65 101  85 101
M  END
> <Batch ID>
0135

> <Smiles>
CNC(C)C(=O)NC(C(=O)N1Cc2cc([101O:1][101CH2:1]C(C)(C)CCC(C)=Cc3cccc(C[100CH2:0][100C:0](=O)N4CCCC(n5nc(-c6ccc(Oc7ccc(F)cc7F)cc6)c(C(N)=O)c5N)C4)c3)ccc2CC1C(=O)NC1CCCc2ccccc21)C(C)(C)C

> <Shape>
0.256

> <Color>
0.070

> <Negative vol penalty>
0.000

$$$$

  -OEChem-04052302363D

 87 95  0     1  0  0  0  0  0999 V2000
  -19.5062  -24.0002   23.0274 C   0  0  0  0  0  0  0  0  0  0  0  0
  -20.7632  -24.2610   22.4913 C   0  0  0  0  0  0  0  0  0  0  0  0
  -26.0658  -11.3955   20.8620 C   0  0  0  0  0  0  0  0  0  0  0  0
  -25.7785  -12.0192   18.5457 C   0  0  0  0  0  0  0  0  0  0  0  0
  -18.6000  -25.0429   23.2158 C   0  0  0  0  0  0  0  0  0  0  0  0
  -21.1144  -25.5646   22.1424 C   0  0  0  0  0  0  0  0  0  0  0  0
  -25.7768  -26.7997   23.6856 C   0  0  0  0  0  0  0  0  0  0  0  0
  -24.8205  -10.7674   20.8474 C   0  0  0  0  0  0  0  0  0  0  0  0
  -24.5332  -11.3910   18.5310 C   0  0  0  0  0  0  0  0  0  0  0  0
  -26.8457  -26.3176   22.9314 C   0  0  0  0  0  0  0  0  0  0  0  0
  -23.5174   -7.8448   19.7548 C   0  0  0  0  0  0  0  0  0  0  0  0
  -23.4225   -6.5801   20.3354 C   0  0  0  0  0  0  0  0  0  0  0  0
  -27.0377  -28.4622   21.8437 C   0  0  0  0  0  0  0  0  0  0  0  0
  -28.4013  -19.1739   15.6999 C   0  0  0  0  0  0  0  0  0  0  0  0
  -28.5182  -21.0012   17.2760 C   0  0  0  0  0  0  0  0  0  0  0  0
  -21.7809   -7.4200   21.8965 C   0  0  0  0  0  0  0  0  0  0  0  0
  -26.5448  -12.0215   19.7112 C   0  0  0  0  0  0  0  0  0  0  0  0
  -29.0776  -12.0953   19.4160 C   0  0  0  0  0  0  0  0  0  0  0  0
  -18.9438  -26.3614   22.8780 C   0  0  0  0  0  0  0  0  0  0  0  0
  -25.3226  -28.1155   23.5164 C   0  0  0  0  0  0  0  0  0  0  0  0
  -20.2115  -26.6257   22.3253 C   0  0  0  0  0  0  0  0  0  0  0  0
  -25.9645  -28.9594   22.5988 C   0  0  0  0  0  0  0  0  0  0  0  0
  -27.9398  -20.0503   14.7179 C   0  0  0  0  0  0  0  0  0  0  0  0
  -28.0567  -21.8777   16.2940 C   0  0  0  0  0  0  0  0  0  0  0  0
  -27.7676  -21.4023   15.0149 C   0  0  0  0  0  0  0  0  0  0  0  0
  -28.6904  -19.6492   16.9790 C   0  0  0  0  0  0  0  0  0  0  0  0
  -24.0542  -10.7651   19.6819 C   0  0  0  0  0  0  0  0  0  0  0  0
  -27.4745  -27.1479   22.0082 C   0  0  0  0  0  0  0  0  0  0  0  0
  -22.7442   -8.8972   20.2451 C   0  0  0  0  0  0  0  0  0  0  0  0
  -22.5542   -6.3677   21.4062 C   0  0  0  0  0  0  0  0  0  0  0  0
  -21.8759   -8.6848   21.3159 C   0  0  0  0  0  0  0  0  0  0  0  0
  -27.8309  -12.6710   19.7258 C   0  0  0  0  0  0  0  0  0  0  0  0
  -29.9786  -13.1190   19.5790 C   0  0  0  0  0  0  0  0  0  0  0  0
  -29.3930  -10.7549   19.0165 C   0  0  0  0  0  0  0  0  0  0  0  0
  -22.5889  -29.4424   22.5834 C   0  0  0  0  0  0  0  0  0  0  0  0
  -24.0931  -32.1942   23.4124 C   0  0  0  0  0  0  0  0  0  0  0  0
  -27.0346  -33.8507   23.9132 C   0  0  0  0  0  0  0  0  0  0  0  0
  -29.4934  -19.0679   19.2949 C   0  0  0  0  0  0  0  0  0  0  0  0
  -17.9136  -27.4485   23.0560 C   0  0  0  0  0  0  0  0  0  0  0  0
  -24.1855  -28.6287   24.3567 C   0  0  0  0  0  0  0  0  0  0  0  0
  -25.5283  -30.3863   22.3940 C   0  0  0  0  0  0  0  0  0  0  0  0
  -18.5002  -28.8570   23.0090 C   0  0  0  0  0  0  0  0  0  0  0  0
  -30.6503  -17.1557   22.0666 C   0  0  0  0  0  0  0  0  0  0  0  0
  -19.4560  -28.9981   21.8286 C   0  0  0  0  0  0  0  0  0  0  0  0
  -30.1773  -15.7352   21.7497 C   0  0  0  0  0  0  0  0  0  0  0  0
  -29.6331  -18.2048   21.6210 C   0  0  0  0  0  0  0  0  0  0  0  0
  -28.7397  -16.6845   19.9006 C   0  0  0  0  0  0  0  0  0  0  0  0
  -20.6384  -28.0302   21.9575 C   0  0  1  0  0  0  0  0  0  0  0  0
  -23.4755  -29.8268   23.7340 C   0  0  1  0  0  0  0  0  0  0  0  0
  -29.7603  -15.5964   20.2724 C   0  0  2  0  0  0  0  0  0  0  0  0
  -27.6368  -19.5160   13.3563 C   0  0  0  0  0  0  0  0  0  0  0  0
  -27.2733  -22.3422   13.9616 C   0  0  0  0  0  0  0  0  0  0  0  0
  -27.9444  -36.1011   24.5499 C   0  0  0  0  0  0  0  0  0  0  0  0
  -23.4392  -33.2450   20.6235 C   0  0  0  0  0  0  0  0  0  0  0  0
  -25.1452  -35.0430   20.9769 C   0  0  0  0  0  0  0  0  0  0  0  0
  -23.1455  -34.9141   22.4625 C   0  0  0  0  0  0  0  0  0  0  0  0
  -28.3188  -26.3605   16.0489 C   0  0  0  0  0  0  0  0  0  0  0  0
  -30.5979  -26.1376   17.0252 C   0  0  0  0  0  0  0  0  0  0  0  0
  -28.3803  -32.7570   26.3115 C   0  0  0  0  0  0  0  0  0  0  0  0
  -27.8791  -23.3358   16.6414 C   0  0  0  0  0  0  0  0  0  0  0  0
  -29.2257  -24.0716   16.6668 C   0  0  0  0  0  0  0  0  0  0  0  0
  -29.2281  -25.0461   19.6340 C   0  0  0  0  0  0  0  0  0  0  0  0
  -28.5454  -25.7976   18.4813 C   0  0  0  0  0  0  0  0  0  0  0  0
  -28.5241  -25.2854   20.9665 C   0  0  0  0  0  0  0  0  0  1  0  0
  -24.9769  -33.1870   22.6967 C   0  0  1  0  0  0  0  0  0  0  0  0
  -27.5128  -34.7323   25.0527 C   0  0  2  0  0  0  0  0  0  0  0  0
  -24.1839  -34.0698   21.6921 C   0  0  0  0  0  0  0  0  0  0  0  0
  -29.1627  -25.5707   17.0724 C   0  0  0  0  0  0  0  0  0  0  0  0
  -27.9273  -13.9605   20.0605 N   0  0  0  0  0  0  0  0  0  0  0  0
  -29.2454  -14.2034   19.9620 N   0  0  0  0  0  0  0  0  0  0  0  0
  -24.4079  -30.8395   23.2348 N   0  0  0  0  0  0  0  0  0  0  0  0
  -29.2888  -18.0139   20.2104 N   0  0  0  0  0  0  0  0  0  0  0  0
  -31.3186  -13.1884   19.4308 N   0  0  0  0  0  0  0  0  0  0  0  0
  -28.3472   -9.8295   18.8978 N   0  0  0  0  0  0  0  0  0  0  0  0
  -29.1602  -18.7593   17.9765 N   0  0  0  0  0  0  0  0  0  0  0  0
  -21.6018  -28.5334   22.9130 N   0  0  0  0  0  0  0  0  0  0  0  0
  -25.6701  -33.9401   23.7362 N   0  0  0  0  0  0  0  0  0  0  0  0
  -28.6704  -34.0999   25.7462 N   0  3  0  0  0  0  0  0  0  0  0  0
  -30.5695  -10.3845   18.7878 O   0  0  0  0  0  0  0  0  0  0  0  0
  -22.7850  -29.9352   21.4787 O   0  0  0  0  0  0  0  0  0  0  0  0
  -23.1623  -32.6058   24.1094 O   0  0  0  0  0  0  0  0  0  0  0  0
  -27.7959  -33.1553   23.2443 O   0  0  0  0  0  0  0  0  0  0  0  0
  -29.9575  -20.1546   19.6496 O   0  0  0  0  0  0  0  0  0  0  0  0
  -22.8391  -10.1520   19.6671 O   0  0  0  0  0  0  0  0  0  0  0  0
  -28.5176  -26.6797   21.2703 O   0  0  0  0  0  0  0  0  0  1  0  0
  -22.4620   -5.1528   21.9626 F   0  0  0  0  0  0  0  0  0  0  0  0
  -21.1297   -9.6916   21.7905 F   0  0  0  0  0  0  0  0  0  0  0  0
  1  2  1  0  0  0  0
  1  5  2  0  0  0  0
  2  6  2  0  0  0  0
  3  8  2  0  0  0  0
  3 17  1  0  0  0  0
  4  9  1  0  0  0  0
  4 17  2  0  0  0  0
  5 19  1  0  0  0  0
  6 21  1  0  0  0  0
  7 10  2  0  0  0  0
  7 20  1  0  0  0  0
  8 27  1  0  0  0  0
  9 27  2  0  0  0  0
 10 28  1  0  0  0  0
 11 12  2  0  0  0  0
 11 29  1  0  0  0  0
 12 30  1  0  0  0  0
 13 22  1  0  0  0  0
 13 28  2  0  0  0  0
 14 23  2  0  0  0  0
 14 26  1  0  0  0  0
 15 24  1  0  0  0  0
 15 26  2  0  0  0  0
 16 30  2  0  0  0  0
 16 31  1  0  0  0  0
 17 32  1  0  0  0  0
 18 32  1  0  0  0  0
 18 33  2  0  0  0  0
 18 34  1  0  0  0  0
 19 21  2  0  0  0  0
 19 39  1  0  0  0  0
 20 22  2  0  0  0  0
 20 40  1  0  0  0  0
 21 48  1  0  0  0  0
 22 41  1  0  0  0  0
 23 25  1  0  0  0  0
 23 51  1  0  0  0  0
 24 25  2  0  0  0  0
 24 60  1  0  0  0  0
 25 52  1  0  0  0  0
 26 75  1  0  0  0  0
 27 84  1  0  0  0  0
 28 85  1  0  0  0  0
 29 31  2  0  0  0  0
 29 84  1  0  0  0  0
 30 86  1  0  0  0  0
 31 87  1  0  0  0  0
 32 69  2  0  0  0  0
 33 70  1  0  0  0  0
 33 73  1  0  0  0  0
 34 74  1  0  0  0  0
 34 79  2  0  0  0  0
 35 49  1  0  0  0  0
 35 76  1  0  0  0  0
 35 80  2  0  0  0  0
 36 65  1  0  0  0  0
 36 71  1  0  0  0  0
 36 81  2  0  0  0  0
 37 66  1  0  0  0  0
 37 77  1  0  0  0  0
 37 82  2  0  0  0  0
 38 72  1  0  0  0  0
 38 75  1  0  0  0  0
 38 83  2  0  0  0  0
 39 42  1  0  0  0  0
 40 49  1  0  0  0  0
 41 71  1  0  0  0  0
 42 44  1  0  0  0  0
 43 45  1  0  0  0  0
 43 46  1  0  0  0  0
 44 48  1  0  0  0  0
 45 50  1  0  0  0  0
 46 72  1  0  0  0  0
 47 50  1  0  0  0  0
 47 72  1  0  0  0  0
 48 76  1  0  0  0  0
 49 71  1  0  0  0  0
 50 70  1  0  0  0  0
 53 66  1  0  0  0  0
 54 67  1  0  0  0  0
 55 67  1  0  0  0  0
 56 67  1  0  0  0  0
 57 68  1  0  0  0  0
 58 68  1  0  0  0  0
 59 78  1  0  0  0  0
 60 61  1  0  0  0  0
 61 68  1  0  0  0  0
 62 63  1  0  0  0  0
 62 64  1  0  0  0  0
 63 68  1  0  0  0  0
 64 85  1  0  0  0  0
 65 67  1  0  0  0  0
 65 77  1  0  0  0  0
 66 78  1  0  0  0  0
 69 70  1  0  0  0  0
M  CHG  1  78   1
M  ISO  4  38 100  64 101  75 100  85 101
M  END
> <Batch ID>
0135

> <Smiles>
CNC(C)C(=O)NC(C(=O)N1Cc2cc([101O:1][101CH2:1]CCC(C)(C)CCc3cc([100NH:0][100C:0](=O)N4CCCC(n5nc(-c6ccc(Oc7ccc(F)cc7F)cc6)c(C(N)=O)c5N)C4)cc(C)c3C)ccc2CC1C(=O)NC1CCCc2ccccc21)C(C)(C)C

> <Shape>
0.312

> <Color>
0.088

> <Negative vol penalty>
0.000

$$$$

  -OEChem-04052302363D

 85 93  0     1  0  0  0  0  0999 V2000
  -22.3184  -32.0043   25.9272 C   0  0  0  0  0  0  0  0  0  0  0  0
  -23.3769  -31.3292   25.3277 C   0  0  0  0  0  0  0  0  0  0  0  0
  -23.0391  -12.6579   20.1426 C   0  0  0  0  0  0  0  0  0  0  0  0
  -23.1320  -13.5352   22.3917 C   0  0  0  0  0  0  0  0  0  0  0  0
  -21.0333  -31.4657   25.8797 C   0  0  0  0  0  0  0  0  0  0  0  0
  -23.1510  -30.1145   24.6812 C   0  0  0  0  0  0  0  0  0  0  0  0
  -25.4935  -29.8335   20.2003 C   0  0  0  0  0  0  0  0  0  0  0  0
  -26.2791  -22.7219   21.6653 C   0  0  0  0  0  0  0  0  0  0  0  0
  -22.6195  -11.4246   20.6409 C   0  0  0  0  0  0  0  0  0  0  0  0
  -22.7124  -12.3019   22.8901 C   0  0  0  0  0  0  0  0  0  0  0  0
  -26.8614  -29.5642   20.2127 C   0  0  0  0  0  0  0  0  0  0  0  0
  -21.8697   -7.9376   21.3498 C   0  0  0  0  0  0  0  0  0  0  0  0
  -26.3267  -23.9607   22.3045 C   0  0  0  0  0  0  0  0  0  0  0  0
  -22.4714   -6.7896   20.8345 C   0  0  0  0  0  0  0  0  0  0  0  0
  -26.4046  -27.2511   19.7026 C   0  0  0  0  0  0  0  0  0  0  0  0
  -28.6894  -22.5824   21.7563 C   0  0  0  0  0  0  0  0  0  0  0  0
  -24.6245   -7.5749   21.5991 C   0  0  0  0  0  0  0  0  0  0  0  0
  -23.2954  -13.7133   21.0180 C   0  0  0  0  0  0  0  0  0  0  0  0
  -22.9163  -16.0691   20.1157 C   0  0  0  0  0  0  0  0  0  0  0  0
  -20.7898  -30.2485   25.2239 C   0  0  0  0  0  0  0  0  0  0  0  0
  -24.5688  -28.8096   19.9493 C   0  0  0  0  0  0  0  0  0  0  0  0
  -21.8616  -29.5585   24.6260 C   0  0  0  0  0  0  0  0  0  0  0  0
  -25.0256  -27.5105   19.6850 C   0  0  0  0  0  0  0  0  0  0  0  0
  -28.7370  -23.8213   22.3954 C   0  0  0  0  0  0  0  0  0  0  0  0
  -27.4605  -22.0327   21.3912 C   0  0  0  0  0  0  0  0  0  0  0  0
  -22.4561  -11.2465   22.0147 C   0  0  0  0  0  0  0  0  0  0  0  0
  -27.3170  -28.2723   19.9667 C   0  0  0  0  0  0  0  0  0  0  0  0
  -22.6454   -8.9044   21.9896 C   0  0  0  0  0  0  0  0  0  0  0  0
  -23.8488   -6.6081   20.9592 C   0  0  0  0  0  0  0  0  0  0  0  0
  -27.5556  -24.5104   22.6695 C   0  0  0  0  0  0  0  0  0  0  0  0
  -24.0228   -8.7230   22.1143 C   0  0  0  0  0  0  0  0  0  0  0  0
  -23.7294  -14.9874   20.5038 C   0  0  0  0  0  0  0  0  0  0  0  0
  -23.8024  -17.0342   19.7036 C   0  0  0  0  0  0  0  0  0  0  0  0
  -30.2519  -26.7860   22.0895 C   0  0  0  0  0  0  0  0  0  0  0  0
  -21.4877  -16.1906   20.1268 C   0  0  0  0  0  0  0  0  0  0  0  0
  -30.5572  -25.4954   21.8445 C   0  0  0  0  0  0  0  0  0  0  0  0
  -22.2012  -27.4722   21.5953 C   0  0  0  0  0  0  0  0  0  0  0  0
  -21.6668  -25.9067   18.8050 C   0  0  0  0  0  0  0  0  0  0  0  0
  -22.9089  -24.7716   15.8359 C   0  0  0  0  0  0  0  0  0  0  0  0
  -28.4893  -19.9590   20.3973 C   0  0  0  0  0  0  0  0  0  0  0  0
  -19.3920  -29.6825   25.2396 C   0  0  0  0  0  0  0  0  0  0  0  0
  -23.0979  -29.1219   19.9130 C   0  0  0  0  0  0  0  0  0  0  0  0
  -24.0749  -26.3802   19.3900 C   0  0  0  0  0  0  0  0  0  0  0  0
  -19.1713  -28.5760   24.2113 C   0  0  0  0  0  0  0  0  0  0  0  0
  -28.7812  -16.7765   18.8277 C   0  0  0  0  0  0  0  0  0  0  0  0
  -20.3220  -27.5753   24.2486 C   0  0  0  0  0  0  0  0  0  0  0  0
  -27.4261  -16.1163   19.0919 C   0  0  0  0  0  0  0  0  0  0  0  0
  -29.2412  -17.6218   20.0142 C   0  0  0  0  0  0  0  0  0  0  0  0
  -26.9129  -17.9569   20.7460 C   0  0  0  0  0  0  0  0  0  0  0  0
  -21.6522  -28.2507   23.8939 C   0  0  1  0  0  0  0  0  0  0  0  0
  -22.2209  -27.8972   20.1543 C   0  0  1  0  0  0  0  0  0  0  0  0
  -26.3775  -17.1472   19.5538 C   0  0  2  0  0  0  0  0  0  0  0  0
  -32.8697  -24.9902   20.9826 C   0  0  0  0  0  0  0  0  0  0  0  0
  -22.2427  -23.4937   13.7815 C   0  0  0  0  0  0  0  0  0  0  0  0
  -21.7958  -23.3009   20.3871 C   0  0  0  0  0  0  0  0  0  0  0  0
  -22.0796  -22.0803   18.2197 C   0  0  0  0  0  0  0  0  0  0  0  0
  -19.9954  -23.3805   18.6532 C   0  0  0  0  0  0  0  0  0  0  0  0
  -23.4932  -27.0753   14.0721 C   0  0  0  0  0  0  0  0  0  0  0  0
  -30.0689  -24.4141   22.7910 C   0  0  0  0  0  0  0  0  0  0  0  0
  -30.6700  -27.9969   21.3009 C   0  0  0  0  0  0  0  0  0  0  0  0
  -31.3823  -25.0337   20.6630 C   0  0  0  0  0  0  0  0  0  0  0  0
  -29.4652  -28.8061   20.8363 C   0  0  0  0  0  0  0  0  0  1  0  0
  -22.1534  -24.6150   18.1937 C   0  0  1  0  0  0  0  0  0  0  0  0
  -22.3755  -24.8685   14.4179 C   0  0  2  0  0  0  0  0  0  0  0  0
  -21.5241  -23.3649   18.8709 C   0  0  0  0  0  0  0  0  0  0  0  0
  -25.0319  -15.2408   20.3517 N   0  0  0  0  0  0  0  0  0  0  0  0
  -25.0441  -16.4928   19.8633 N   0  0  0  0  0  0  0  0  0  0  0  0
  -22.6460  -26.7346   19.3720 N   0  0  0  0  0  0  0  0  0  0  0  0
  -28.1990  -18.5783   20.3931 N   0  0  0  0  0  0  0  0  0  0  0  0
  -23.6329  -18.2845   19.2236 N   0  0  0  0  0  0  0  0  0  0  0  0
  -20.7282  -15.1039   20.5812 N   0  0  0  0  0  0  0  0  0  0  0  0
  -27.4116  -20.7738   20.7426 N   0  0  0  0  0  0  0  0  0  0  0  0
  -21.7528  -28.4490   22.4639 N   0  0  0  0  0  0  0  0  0  0  0  0
  -21.8892  -24.7158   16.7624 N   0  0  0  0  0  0  0  0  0  0  0  0
  -23.2900  -25.6900   13.5755 N   0  3  0  0  0  0  0  0  0  0  0  0
  -20.9015  -17.2261   19.7296 O   0  0  0  0  0  0  0  0  0  0  0  0
  -22.5644  -26.3413   21.8968 O   0  0  0  0  0  0  0  0  0  0  0  0
  -20.4631  -26.1747   18.7740 O   0  0  0  0  0  0  0  0  0  0  0  0
  -24.1099  -24.7442   16.0954 O   0  0  0  0  0  0  0  0  0  0  0  0
  -29.6039  -20.3888   20.0888 O   0  0  0  0  0  0  0  0  0  0  0  0
  -22.0465  -10.0432   22.5013 O   0  0  0  0  0  0  0  0  0  0  0  0
  -28.6516  -28.0065   19.9789 O   0  0  0  0  0  0  0  0  0  1  0  0
  -24.4263   -5.5049   20.4657 F   0  0  0  0  0  0  0  0  0  0  0  0
  -27.5912  -25.7020   23.2822 F   0  0  0  0  0  0  0  0  0  0  0  0
  -24.7731   -9.6476   22.7290 F   0  0  0  0  0  0  0  0  0  0  0  0
  1  2  1  0  0  0  0
  1  5  2  0  0  0  0
  2  6  2  0  0  0  0
  3  9  2  0  0  0  0
  3 18  1  0  0  0  0
  4 10  1  0  0  0  0
  4 18  2  0  0  0  0
  5 20  1  0  0  0  0
  6 22  1  0  0  0  0
  7 11  2  0  0  0  0
  7 21  1  0  0  0  0
  8 13  2  0  0  0  0
  8 25  1  0  0  0  0
  9 26  1  0  0  0  0
 10 26  2  0  0  0  0
 11 27  1  0  0  0  0
 12 14  2  0  0  0  0
 12 28  1  0  0  0  0
 13 30  1  0  0  0  0
 14 29  1  0  0  0  0
 15 23  1  0  0  0  0
 15 27  2  0  0  0  0
 16 24  1  0  0  0  0
 16 25  2  0  0  0  0
 17 29  2  0  0  0  0
 17 31  1  0  0  0  0
 18 32  1  0  0  0  0
 19 32  1  0  0  0  0
 19 33  2  0  0  0  0
 19 35  1  0  0  0  0
 20 22  2  0  0  0  0
 20 41  1  0  0  0  0
 21 23  2  0  0  0  0
 21 42  1  0  0  0  0
 22 50  1  0  0  0  0
 23 43  1  0  0  0  0
 24 30  2  0  0  0  0
 24 59  1  0  0  0  0
 25 72  1  0  0  0  0
 26 81  1  0  0  0  0
 27 82  1  0  0  0  0
 28 31  2  0  0  0  0
 28 81  1  0  0  0  0
 29 83  1  0  0  0  0
 30 84  1  0  0  0  0
 31 85  1  0  0  0  0
 32 66  2  0  0  0  0
 33 67  1  0  0  0  0
 33 70  1  0  0  0  0
 34 36  2  0  0  0  0
 34 60  1  0  0  0  0
 35 71  1  0  0  0  0
 35 76  2  0  0  0  0
 36 59  1  0  0  0  0
 36 61  1  0  0  0  0
 37 51  1  0  0  0  0
 37 73  1  0  0  0  0
 37 77  2  0  0  0  0
 38 63  1  0  0  0  0
 38 68  1  0  0  0  0
 38 78  2  0  0  0  0
 39 64  1  0  0  0  0
 39 74  1  0  0  0  0
 39 79  2  0  0  0  0
 40 69  1  0  0  0  0
 40 72  1  0  0  0  0
 40 80  2  0  0  0  0
 41 44  1  0  0  0  0
 42 51  1  0  0  0  0
 43 68  1  0  0  0  0
 44 46  1  0  0  0  0
 45 47  1  0  0  0  0
 45 48  1  0  0  0  0
 46 50  1  0  0  0  0
 47 52  1  0  0  0  0
 48 69  1  0  0  0  0
 49 52  1  0  0  0  0
 49 69  1  0  0  0  0
 50 73  1  0  0  0  0
 51 68  1  0  0  0  0
 52 67  1  0  0  0  0
 53 61  1  0  0  0  0
 54 64  1  0  0  0  0
 55 65  1  0  0  0  0
 56 65  1  0  0  0  0
 57 65  1  0  0  0  0
 58 75  1  0  0  0  0
 60 62  1  0  0  0  0
 62 82  1  0  0  0  0
 63 65  1  0  0  0  0
 63 74  1  0  0  0  0
 64 75  1  0  0  0  0
 66 67  1  0  0  0  0
M  CHG  1  75   1
M  ISO  4  40 100  62 101  72 100  82 101
M  END
> <Batch ID>
0135

> <Smiles>
CCC(=CC[101CH2:1][101O:1]c1ccc2c(c1)CN(C(=O)C(NC(=O)C(C)NC)C(C)(C)C)C(C(=O)NC1CCCc3ccccc31)C2)Cc1cc([100NH:0][100C:0](=O)N2CCCC(n3nc(-c4ccc(Oc5ccc(F)cc5F)cc4)c(C(N)=O)c3N)C2)ccc1F

> <Shape>
0.210

> <Color>
0.065

> <Negative vol penalty>
0.000

$$$$

  -OEChem-04052302363D

 85 93  0     1  0  0  0  0  0999 V2000
  -32.4042  -13.6229   21.3580 C   0  0  0  0  0  0  0  0  0  0  0  0
  -31.8886  -14.9133   21.4247 C   0  0  0  0  0  0  0  0  0  0  0  0
  -28.4986  -26.0254   19.2091 C   0  0  0  0  0  0  0  0  0  0  0  0
  -26.6042  -24.6182   19.7266 C   0  0  0  0  0  0  0  0  0  0  0  0
  -31.6776  -12.6148   20.7258 C   0  0  0  0  0  0  0  0  0  0  0  0
  -30.6463  -15.1966   20.8582 C   0  0  0  0  0  0  0  0  0  0  0  0
  -24.9046  -19.3760   21.7974 C   0  0  0  0  0  0  0  0  0  0  0  0
  -29.2529  -24.8948   18.8957 C   0  0  0  0  0  0  0  0  0  0  0  0
  -27.3585  -23.4875   19.4131 C   0  0  0  0  0  0  0  0  0  0  0  0
  -24.1055  -20.2810   21.1001 C   0  0  0  0  0  0  0  0  0  0  0  0
  -28.8941  -20.2087   19.0953 C   0  0  0  0  0  0  0  0  0  0  0  0
  -28.8243  -19.1210   19.9658 C   0  0  0  0  0  0  0  0  0  0  0  0
  -22.9038  -18.4423   20.1030 C   0  0  0  0  0  0  0  0  0  0  0  0
  -19.3875  -25.2695   22.2063 C   0  0  0  0  0  0  0  0  0  0  0  0
  -29.6675  -20.5025   21.7596 C   0  0  0  0  0  0  0  0  0  0  0  0
  -27.1742  -25.8871   19.6246 C   0  0  0  0  0  0  0  0  0  0  0  0
  -26.0786  -28.1296   19.0968 C   0  0  0  0  0  0  0  0  0  0  0  0
  -30.4214  -12.8837   20.1598 C   0  0  0  0  0  0  0  0  0  0  0  0
  -24.7161  -17.9949   21.6441 C   0  0  0  0  0  0  0  0  0  0  0  0
  -29.9027  -14.1914   20.2167 C   0  0  0  0  0  0  0  0  0  0  0  0
  -23.7001  -17.5219   20.8014 C   0  0  0  0  0  0  0  0  0  0  0  0
  -18.9514  -23.9197   22.0724 C   0  0  0  0  0  0  0  0  0  0  0  0
  -28.6829  -23.6258   18.9977 C   0  0  0  0  0  0  0  0  0  0  0  0
  -23.1068  -19.8142   20.2506 C   0  0  0  0  0  0  0  0  0  0  0  0
  -29.3506  -21.4433   19.5569 C   0  0  0  0  0  0  0  0  0  0  0  0
  -29.2110  -19.2679   21.2979 C   0  0  0  0  0  0  0  0  0  0  0  0
  -29.7373  -21.5902   20.8891 C   0  0  0  0  0  0  0  0  0  0  0  0
  -26.3947  -27.0547   19.9491 C   0  0  0  0  0  0  0  0  0  0  0  0
  -19.3967  -25.6824   23.5204 C   0  0  0  0  0  0  0  0  0  0  0  0
  -18.6440  -23.3522   23.2896 C   0  0  0  0  0  0  0  0  0  0  0  0
  -25.3250  -28.9743   19.8745 C   0  0  0  0  0  0  0  0  0  0  0  0
  -26.4344  -28.3452   17.7247 C   0  0  0  0  0  0  0  0  0  0  0  0
  -26.5025  -15.5920   20.5770 C   0  0  0  0  0  0  0  0  0  0  0  0
  -24.0040  -13.7938   21.6000 C   0  0  0  0  0  0  0  0  0  0  0  0
  -20.6803  -13.6143   22.3537 C   0  0  0  0  0  0  0  0  0  0  0  0
  -21.9107  -28.1011   24.7151 C   0  0  0  0  0  0  0  0  0  0  0  0
  -29.6941  -11.7723   19.4454 C   0  0  0  0  0  0  0  0  0  0  0  0
  -25.5689  -17.0320   22.4238 C   0  0  0  0  0  0  0  0  0  0  0  0
  -23.4438  -16.0491   20.6176 C   0  0  0  0  0  0  0  0  0  0  0  0
  -28.2175  -12.0704   19.1989 C   0  0  0  0  0  0  0  0  0  0  0  0
  -24.6909  -30.3065   24.4258 C   0  0  0  0  0  0  0  0  0  0  0  0
  -28.0432  -13.4796   18.6415 C   0  0  0  0  0  0  0  0  0  0  0  0
  -25.4143  -29.8202   23.1688 C   0  0  0  0  0  0  0  0  0  0  0  0
  -24.0994  -29.1450   25.2215 C   0  0  0  0  0  0  0  0  0  0  0  0
  -23.9483  -27.7588   23.1895 C   0  0  0  0  0  0  0  0  0  0  0  0
  -28.5476  -14.5324   19.6358 C   0  0  1  0  0  0  0  0  0  0  0  0
  -25.6268  -15.6423   21.7970 C   0  0  1  0  0  0  0  0  0  0  0  0
  -24.5136  -28.8985   22.3247 C   0  0  2  0  0  0  0  0  0  0  0  0
  -18.1597  -21.9841   23.5813 C   0  0  0  0  0  0  0  0  0  0  0  0
  -18.9160  -28.1584   23.5341 C   0  0  0  0  0  0  0  0  0  0  0  0
  -18.9203  -12.0017   23.1277 C   0  0  0  0  0  0  0  0  0  0  0  0
  -23.9137  -12.5579   18.8118 C   0  0  0  0  0  0  0  0  0  0  0  0
  -21.6206  -11.7033   19.3408 C   0  0  0  0  0  0  0  0  0  0  0  0
  -23.5770  -10.9343   20.6839 C   0  0  0  0  0  0  0  0  0  0  0  0
  -20.5384  -22.4387   18.0460 C   0  0  0  0  0  0  0  0  0  0  0  0
  -18.6417  -20.9803   18.7964 C   0  0  0  0  0  0  0  0  0  0  0  0
  -20.1418  -15.1949   24.7972 C   0  0  0  0  0  0  0  0  0  0  0  0
  -18.8427  -23.2068   20.7461 C   0  0  0  0  0  0  0  0  0  0  0  0
  -20.0205  -22.2464   20.5295 C   0  0  0  0  0  0  0  0  0  0  0  0
  -20.9927  -20.2844   19.2680 C   0  0  0  0  0  0  0  0  0  1  0  0
  -19.7822  -27.0016   24.0674 C   0  0  2  0  0  0  0  0  0  0  0  0
  -22.7212  -13.2949   20.9799 C   0  0  1  0  0  0  0  0  0  0  0  0
  -19.9491  -13.0379   23.5527 C   0  0  2  0  0  0  0  0  0  0  0  0
  -22.9640  -12.1504   19.9559 C   0  0  0  0  0  0  0  0  0  0  0  0
  -20.0421  -21.5024   19.1636 C   0  0  0  0  0  0  0  0  0  0  0  0
  -25.8837  -27.2008   21.1745 N   0  0  0  0  0  0  0  0  0  0  0  0
  -25.2390  -28.3775   21.0979 N   0  0  0  0  0  0  0  0  0  0  0  0
  -24.3081  -15.1474   21.3968 N   0  0  0  0  0  0  0  0  0  0  0  0
  -23.2544  -28.3107   24.3637 N   0  0  0  0  0  0  0  0  0  0  0  0
  -24.7340  -30.1621   19.6245 N   0  0  0  0  0  0  0  0  0  0  0  0
  -25.5762  -27.8612   16.7279 N   0  0  0  0  0  0  0  0  0  0  0  0
  -27.5796  -14.7342   20.6927 N   0  0  0  0  0  0  0  0  0  0  0  0
  -21.8471  -12.9287   22.0891 N   0  0  0  0  0  0  0  0  0  0  0  0
  -21.1786  -27.3033   23.8444 N   0  0  0  0  0  0  0  0  0  0  0  0
  -19.2462  -14.1191   24.2996 N   0  3  0  0  0  0  0  0  0  0  0  0
  -27.4906  -28.9348   17.3923 O   0  0  0  0  0  0  0  0  0  0  0  0
  -26.2208  -16.2793   19.6024 O   0  0  0  0  0  0  0  0  0  0  0  0
  -24.7065  -13.0132   22.2470 O   0  0  0  0  0  0  0  0  0  0  0  0
  -20.2569  -14.5742   21.7135 O   0  0  0  0  0  0  0  0  0  0  0  0
  -21.3998  -28.5932   25.7270 O   0  0  0  0  0  0  0  0  0  0  0  0
  -29.4186  -22.5223   18.6917 O   0  0  0  0  0  0  0  0  0  0  0  0
  -22.3259  -20.6953   19.5683 O   0  0  0  0  0  0  0  0  0  1  0  0
  -29.1425  -18.2237   22.1341 F   0  0  0  0  0  0  0  0  0  0  0  0
  -30.1755  -22.7741   21.3386 F   0  0  0  0  0  0  0  0  0  0  0  0
  -18.8812  -24.4453   24.5862 S   0  0  0  0  0  0  0  0  0  0  0  0
  1  2  1  0  0  0  0
  1  5  2  0  0  0  0
  2  6  2  0  0  0  0
  3  8  2  0  0  0  0
  3 16  1  0  0  0  0
  4  9  1  0  0  0  0
  4 16  2  0  0  0  0
  5 18  1  0  0  0  0
  6 20  1  0  0  0  0
  7 10  2  0  0  0  0
  7 19  1  0  0  0  0
  8 23  1  0  0  0  0
  9 23  2  0  0  0  0
 10 24  1  0  0  0  0
 11 12  2  0  0  0  0
 11 25  1  0  0  0  0
 12 26  1  0  0  0  0
 13 21  1  0  0  0  0
 13 24  2  0  0  0  0
 14 22  1  0  0  0  0
 14 29  2  0  0  0  0
 15 26  2  0  0  0  0
 15 27  1  0  0  0  0
 16 28  1  0  0  0  0
 17 28  1  0  0  0  0
 17 31  2  0  0  0  0
 17 32  1  0  0  0  0
 18 20  2  0  0  0  0
 18 37  1  0  0  0  0
 19 21  2  0  0  0  0
 19 38  1  0  0  0  0
 20 46  1  0  0  0  0
 21 39  1  0  0  0  0
 22 30  2  0  0  0  0
 22 58  1  0  0  0  0
 23 81  1  0  0  0  0
 24 82  1  0  0  0  0
 25 27  2  0  0  0  0
 25 81  1  0  0  0  0
 26 83  1  0  0  0  0
 27 84  1  0  0  0  0
 28 66  2  0  0  0  0
 29 61  1  0  0  0  0
 29 85  1  0  0  0  0
 30 49  1  0  0  0  0
 30 85  1  0  0  0  0
 31 67  1  0  0  0  0
 31 70  1  0  0  0  0
 32 71  1  0  0  0  0
 32 76  2  0  0  0  0
 33 47  1  0  0  0  0
 33 72  1  0  0  0  0
 33 77  2  0  0  0  0
 34 62  1  0  0  0  0
 34 68  1  0  0  0  0
 34 78  2  0  0  0  0
 35 63  1  0  0  0  0
 35 73  1  0  0  0  0
 35 79  2  0  0  0  0
 36 69  1  0  0  0  0
 36 74  1  0  0  0  0
 36 80  2  0  0  0  0
 37 40  1  0  0  0  0
 38 47  1  0  0  0  0
 39 68  1  0  0  0  0
 40 42  1  0  0  0  0
 41 43  1  0  0  0  0
 41 44  1  0  0  0  0
 42 46  1  0  0  0  0
 43 48  1  0  0  0  0
 44 69  1  0  0  0  0
 45 48  1  0  0  0  0
 45 69  1  0  0  0  0
 46 72  1  0  0  0  0
 47 68  1  0  0  0  0
 48 67  1  0  0  0  0
 50 61  1  0  0  0  0
 51 63  1  0  0  0  0
 52 64  1  0  0  0  0
 53 64  1  0  0  0  0
 54 64  1  0  0  0  0
 55 65  1  0  0  0  0
 56 65  1  0  0  0  0
 57 75  1  0  0  0  0
 58 59  1  0  0  0  0
 59 65  1  0  0  0  0
 60 65  1  0  0  0  0
 60 82  1  0  0  0  0
 61 74  1  0  0  0  0
 62 64  1  0  0  0  0
 62 73  1  0  0  0  0
 63 75  1  0  0  0  0
 66 67  1  0  0  0  0
M  CHG  1  75   1
M  ISO  4  36 100  60 101  74 100  82 101
M  END
> <Batch ID>
0135

> <Smiles>
CNC(C)C(=O)NC(C(=O)N1Cc2cc([101O:1][101CH2:1]C(C)(C)CCc3cc(C(C)[100NH:0][100C:0](=O)N4CCCC(n5nc(-c6ccc(Oc7ccc(F)cc7F)cc6)c(C(N)=O)c5N)C4)sc3C)ccc2CC1C(=O)NC1CCCc2ccccc21)C(C)(C)C

> <Shape>
0.232

> <Color>
0.065

> <Negative vol penalty>
0.000

$$$$

  -OEChem-04052302363D

 83 92  0     1  0  0  0  0  0999 V2000
  -21.9400  -12.1519   26.1733 C   0  0  0  0  0  0  0  0  0  0  0  0
  -22.8954  -13.1626   26.2049 C   0  0  0  0  0  0  0  0  0  0  0  0
  -23.0757   -9.8657   19.9422 C   0  0  0  0  0  0  0  0  0  0  0  0
  -23.8292   -9.8797   22.2377 C   0  0  0  0  0  0  0  0  0  0  0  0
  -20.6443  -12.4324   25.7413 C   0  0  0  0  0  0  0  0  0  0  0  0
  -22.5561  -14.4541   25.8034 C   0  0  0  0  0  0  0  0  0  0  0  0
  -24.6861  -19.7083   28.1191 C   0  0  0  0  0  0  0  0  0  0  0  0
  -22.3312   -8.7133   20.1936 C   0  0  0  0  0  0  0  0  0  0  0  0
  -23.0846   -8.7273   22.4891 C   0  0  0  0  0  0  0  0  0  0  0  0
  -25.6873  -20.5819   27.6968 C   0  0  0  0  0  0  0  0  0  0  0  0
  -19.9459   -5.9731   20.3236 C   0  0  0  0  0  0  0  0  0  0  0  0
  -18.6416   -5.9235   19.8318 C   0  0  0  0  0  0  0  0  0  0  0  0
  -30.9122  -19.2895   21.0593 C   0  0  0  0  0  0  0  0  0  0  0  0
  -31.0605  -17.9136   20.7199 C   0  0  0  0  0  0  0  0  0  0  0  0
  -24.0262  -21.9479   26.6042 C   0  0  0  0  0  0  0  0  0  0  0  0
  -18.0726   -7.8704   21.1445 C   0  0  0  0  0  0  0  0  0  0  0  0
  -23.8248  -10.4489   20.9643 C   0  0  0  0  0  0  0  0  0  0  0  0
  -24.1668  -12.9737   20.8375 C   0  0  0  0  0  0  0  0  0  0  0  0
  -20.2863  -13.7301   25.3435 C   0  0  0  0  0  0  0  0  0  0  0  0
  -23.3464  -19.9426   27.7773 C   0  0  0  0  0  0  0  0  0  0  0  0
  -21.2548  -14.7519   25.3644 C   0  0  0  0  0  0  0  0  0  0  0  0
  -23.0096  -21.0773   27.0255 C   0  0  0  0  0  0  0  0  0  0  0  0
  -22.3357   -8.1440   21.4670 C   0  0  0  0  0  0  0  0  0  0  0  0
  -25.3577  -21.7003   26.9368 C   0  0  0  0  0  0  0  0  0  0  0  0
  -20.3136   -6.9713   21.2260 C   0  0  0  0  0  0  0  0  0  0  0  0
  -17.7050   -6.8722   20.2422 C   0  0  0  0  0  0  0  0  0  0  0  0
  -19.3769   -7.9199   21.6364 C   0  0  0  0  0  0  0  0  0  0  0  0
  -24.5945  -11.6390   20.7051 C   0  0  0  0  0  0  0  0  0  0  0  0
  -25.2599  -13.7221   20.4751 C   0  0  0  0  0  0  0  0  0  0  0  0
  -29.9903  -19.4778   22.0654 C   0  0  0  0  0  0  0  0  0  0  0  0
  -30.2463  -17.1026   21.4798 C   0  0  0  0  0  0  0  0  0  0  0  0
  -28.6947  -22.2629   24.0494 C   0  0  0  0  0  0  0  0  0  0  0  0
  -28.3026  -22.7830   25.2173 C   0  0  0  0  0  0  0  0  0  0  0  0
  -22.8951  -13.4907   21.2513 C   0  0  0  0  0  0  0  0  0  0  0  0
  -21.1528  -18.3723   26.0962 C   0  0  0  0  0  0  0  0  0  0  0  0
  -19.2032  -20.7320   27.1701 C   0  0  0  0  0  0  0  0  0  0  0  0
  -18.8908  -23.9165   28.3567 C   0  0  0  0  0  0  0  0  0  0  0  0
  -30.7255  -14.7685   20.6621 C   0  0  0  0  0  0  0  0  0  0  0  0
  -18.8860  -13.9746   24.8394 C   0  0  0  0  0  0  0  0  0  0  0  0
  -22.2751  -19.0052   28.2632 C   0  0  0  0  0  0  0  0  0  0  0  0
  -21.5840  -21.3847   26.6491 C   0  0  0  0  0  0  0  0  0  0  0  0
  -29.3723  -23.0228   22.9533 C   0  0  0  0  0  0  0  0  0  0  0  0
  -28.6287  -20.8089   23.6901 C   0  0  0  0  0  0  0  0  0  0  0  0
  -18.5071  -15.4523   24.7862 C   0  0  0  0  0  0  0  0  0  0  0  0
  -29.6179  -12.3476   18.2979 C   0  0  0  0  0  0  0  0  0  0  0  0
  -19.6246  -16.2672   24.1429 C   0  0  0  0  0  0  0  0  0  0  0  0
  -28.1771  -12.0572   18.7243 C   0  0  0  0  0  0  0  0  0  0  0  0
  -30.2508  -21.9614   22.2971 C   0  0  0  0  0  0  0  0  0  0  0  0
  -30.5296  -12.5801   19.5014 C   0  0  0  0  0  0  0  0  0  0  0  0
  -28.6188  -13.3085   20.8751 C   0  0  0  0  0  0  0  0  0  0  0  0
  -20.9184  -16.1710   24.9604 C   0  0  1  0  0  0  0  0  0  0  0  0
  -21.0037  -19.0634   27.4220 C   0  0  1  0  0  0  0  0  0  0  0  0
  -27.6493  -13.1317   19.6951 C   0  0  2  0  0  0  0  0  0  0  0  0
  -17.1674  -25.5776   29.1104 C   0  0  0  0  0  0  0  0  0  0  0  0
  -18.4282  -21.2430   24.2635 C   0  0  0  0  0  0  0  0  0  0  0  0
  -17.4899  -23.4524   24.9750 C   0  0  0  0  0  0  0  0  0  0  0  0
  -16.5249  -21.3389   25.8830 C   0  0  0  0  0  0  0  0  0  0  0  0
  -20.0584  -24.0705   31.0718 C   0  0  0  0  0  0  0  0  0  0  0  0
  -27.6278  -21.9995   26.2939 C   0  0  0  0  0  0  0  0  0  1  0  0
  -18.8040  -22.0993   26.6701 C   0  0  1  0  0  0  0  0  0  0  0  0
  -18.1270  -24.4795   29.5417 C   0  0  2  0  0  0  0  0  0  0  0  0
  -17.8389  -22.0269   25.4532 C   0  0  0  0  0  0  0  0  0  0  0  0
  -25.8605  -11.5420   20.2907 N   0  0  0  0  0  0  0  0  0  0  0  0
  -26.2377  -12.8252   20.1595 N   0  0  0  0  0  0  0  0  0  0  0  0
  -29.6172  -20.6856   22.6217 N   0  0  3  0  0  0  0  0  0  0  0  0
  -20.5732  -20.4348   27.1426 N   0  0  0  0  0  0  0  0  0  0  0  0
  -29.9681  -13.6135   20.3741 N   0  0  0  0  0  0  0  0  0  0  0  0
  -25.4704  -15.0534   20.3986 N   0  0  0  0  0  0  0  0  0  0  0  0
  -21.8823  -12.5825   21.5885 N   0  0  0  0  0  0  0  0  0  0  0  0
  -30.0758  -15.6960   21.4759 N   0  0  0  0  0  0  0  0  0  0  0  0
  -20.8446  -17.0256   26.1259 N   0  0  0  0  0  0  0  0  0  0  0  0
  -18.2615  -22.8126   27.8213 N   0  0  0  0  0  0  0  0  0  0  0  0
  -19.0719  -25.0480   30.5442 N   0  3  0  0  0  0  0  0  0  0  0  0
  -22.6586  -14.7215   21.3042 O   0  0  0  0  0  0  0  0  0  0  0  0
  -21.5189  -19.0136   25.1183 O   0  0  0  0  0  0  0  0  0  0  0  0
  -18.3324  -19.9588   27.5769 O   0  0  0  0  0  0  0  0  0  0  0  0
  -19.9387  -24.4091   27.9447 O   0  0  0  0  0  0  0  0  0  0  0  0
  -31.8559  -14.9359   20.1971 O   0  0  0  0  0  0  0  0  0  0  0  0
  -21.6091   -7.0196   21.7127 O   0  0  0  0  0  0  0  0  0  0  0  0
  -26.3331  -22.5542   26.5227 O   0  0  0  0  0  0  0  0  0  1  0  0
  -16.4529   -6.8254   19.7686 F   0  0  0  0  0  0  0  0  0  0  0  0
  -19.7246   -8.8819   22.5021 F   0  0  0  0  0  0  0  0  0  0  0  0
  -29.3081  -17.9997   22.5966 S   0  0  0  0  0  0  0  0  0  0  0  0
  1  2  1  0  0  0  0
  1  5  2  0  0  0  0
  2  6  2  0  0  0  0
  3  8  2  0  0  0  0
  3 17  1  0  0  0  0
  4  9  1  0  0  0  0
  4 17  2  0  0  0  0
  5 19  1  0  0  0  0
  6 21  1  0  0  0  0
  7 10  2  0  0  0  0
  7 20  1  0  0  0  0
  8 23  1  0  0  0  0
  9 23  2  0  0  0  0
 10 24  1  0  0  0  0
 11 12  2  0  0  0  0
 11 25  1  0  0  0  0
 12 26  1  0  0  0  0
 13 14  1  0  0  0  0
 13 30  2  0  0  0  0
 14 31  2  0  0  0  0
 15 22  1  0  0  0  0
 15 24  2  0  0  0  0
 16 26  2  0  0  0  0
 16 27  1  0  0  0  0
 17 28  1  0  0  0  0
 18 28  1  0  0  0  0
 18 29  2  0  0  0  0
 18 34  1  0  0  0  0
 19 21  2  0  0  0  0
 19 39  1  0  0  0  0
 20 22  2  0  0  0  0
 20 40  1  0  0  0  0
 21 51  1  0  0  0  0
 22 41  1  0  0  0  0
 23 79  1  0  0  0  0
 24 80  1  0  0  0  0
 25 27  2  0  0  0  0
 25 79  1  0  0  0  0
 26 81  1  0  0  0  0
 27 82  1  0  0  0  0
 28 63  2  0  0  0  0
 29 64  1  0  0  0  0
 29 68  1  0  0  0  0
 30 65  1  0  0  0  0
 30 83  1  0  0  0  0
 31 70  1  0  0  0  0
 31 83  1  0  0  0  0
 32 33  2  0  0  0  0
 32 42  1  0  0  0  0
 32 43  1  0  0  0  0
 33 59  1  0  0  0  0
 34 69  1  0  0  0  0
 34 74  2  0  0  0  0
 35 52  1  0  0  0  0
 35 71  1  0  0  0  0
 35 75  2  0  0  0  0
 36 60  1  0  0  0  0
 36 66  1  0  0  0  0
 36 76  2  0  0  0  0
 37 61  1  0  0  0  0
 37 72  1  0  0  0  0
 37 77  2  0  0  0  0
 38 67  1  0  0  0  0
 38 70  1  0  0  0  0
 38 78  2  0  0  0  0
 39 44  1  0  0  0  0
 40 52  1  0  0  0  0
 41 66  1  0  0  0  0
 42 48  1  0  0  0  0
 43 65  1  0  0  0  0
 44 46  1  0  0  0  0
 45 47  1  0  0  0  0
 45 49  1  0  0  0  0
 46 51  1  0  0  0  0
 47 53  1  0  0  0  0
 48 65  1  0  0  0  0
 49 67  1  0  0  0  0
 50 53  1  0  0  0  0
 50 67  1  0  0  0  0
 51 71  1  0  0  0  0
 52 66  1  0  0  0  0
 53 64  1  0  0  0  0
 54 61  1  0  0  0  0
 55 62  1  0  0  0  0
 56 62  1  0  0  0  0
 57 62  1  0  0  0  0
 58 73  1  0  0  0  0
 59 80  1  0  0  0  0
 60 62  1  0  0  0  0
 60 72  1  0  0  0  0
 61 73  1  0  0  0  0
 63 64  1  0  0  0  0
M  CHG  1  73   1
M  ISO  4  38 100  59 101  70 100  80 101
M  END
> <Batch ID>
0135

> <Smiles>
CNC(C)C(=O)NC(C(=O)N1Cc2cc([101O:1][101CH2:1]C=C3CCN(c4ccc([100NH:0][100C:0](=O)N5CCCC(n6nc(-c7ccc(Oc8ccc(F)cc8F)cc7)c(C(N)=O)c6N)C5)s4)C3)ccc2CC1C(=O)NC1CCCc2ccccc21)C(C)(C)C

> <Shape>
0.157

> <Color>
0.196

> <Negative vol penalty>
0.000

$$$$

  -OEChem-04052302363D

 85 94  0     1  0  0  0  0  0999 V2000
  -26.5006   -9.2091   21.1788 C   0  0  0  0  0  0  0  0  0  0  0  0
  -25.6627  -10.2707   20.8526 C   0  0  0  0  0  0  0  0  0  0  0  0
  -20.7454  -21.3629   23.1813 C   0  0  0  0  0  0  0  0  0  0  0  0
  -24.8060  -30.7760   21.0431 C   0  0  0  0  0  0  0  0  0  0  0  0
  -24.8425  -29.4730   23.0773 C   0  0  0  0  0  0  0  0  0  0  0  0
  -27.7160   -9.4526   21.8173 C   0  0  0  0  0  0  0  0  0  0  0  0
  -26.0392  -11.5763   21.1658 C   0  0  0  0  0  0  0  0  0  0  0  0
  -20.0470  -20.2539   22.7042 C   0  0  0  0  0  0  0  0  0  0  0  0
  -25.2206  -14.8026   17.3493 C   0  0  0  0  0  0  0  0  0  0  0  0
  -22.0486  -21.6061   22.7474 C   0  0  0  0  0  0  0  0  0  0  0  0
  -24.1195  -31.7928   21.7067 C   0  0  0  0  0  0  0  0  0  0  0  0
  -24.1560  -30.4898   23.7410 C   0  0  0  0  0  0  0  0  0  0  0  0
  -23.9102  -15.2356   17.1515 C   0  0  0  0  0  0  0  0  0  0  0  0
  -22.6747  -34.8851   22.9578 C   0  0  0  0  0  0  0  0  0  0  0  0
  -23.1013  -36.1971   22.7520 C   0  0  0  0  0  0  0  0  0  0  0  0
  -21.9549  -19.6309   21.3592 C   0  0  0  0  0  0  0  0  0  0  0  0
  -24.4250  -17.2966   18.2944 C   0  0  0  0  0  0  0  0  0  0  0  0
  -25.2781  -35.6271   23.6319 C   0  0  0  0  0  0  0  0  0  0  0  0
  -25.1675  -29.6160   21.7284 C   0  0  0  0  0  0  0  0  0  0  0  0
  -27.2711  -28.4179   20.9242 C   0  0  0  0  0  0  0  0  0  0  0  0
  -20.6516  -19.3879   21.7931 C   0  0  0  0  0  0  0  0  0  0  0  0
  -28.1119  -10.7626   22.1297 C   0  0  0  0  0  0  0  0  0  0  0  0
  -26.1417  -15.6102   18.0318 C   0  0  0  0  0  0  0  0  0  0  0  0
  -27.2603  -11.8374   21.8103 C   0  0  0  0  0  0  0  0  0  0  0  0
  -25.7472  -16.8727   18.4973 C   0  0  0  0  0  0  0  0  0  0  0  0
  -22.6533  -20.7401   21.8363 C   0  0  0  0  0  0  0  0  0  0  0  0
  -23.7945  -31.6498   23.0557 C   0  0  0  0  0  0  0  0  0  0  0  0
  -23.5114  -16.4815   17.6266 C   0  0  0  0  0  0  0  0  0  0  0  0
  -23.5497  -33.9442   23.5007 C   0  0  0  0  0  0  0  0  0  0  0  0
  -24.4030  -36.5681   23.0890 C   0  0  0  0  0  0  0  0  0  0  0  0
  -24.8514  -34.3152   23.8377 C   0  0  0  0  0  0  0  0  0  0  0  0
  -25.8762  -28.5651   21.0433 C   0  0  0  0  0  0  0  0  0  0  0  0
  -27.4336  -27.2703   20.1872 C   0  0  0  0  0  0  0  0  0  0  0  0
  -19.7512  -18.1353   19.7822 C   0  0  0  0  0  0  0  0  0  0  0  0
  -19.9856  -16.9088   19.3008 C   0  0  0  0  0  0  0  0  0  0  0  0
  -28.3257  -29.2445   21.4342 C   0  0  0  0  0  0  0  0  0  0  0  0
  -27.8223  -15.3211   20.7143 C   0  0  0  0  0  0  0  0  0  0  0  0
  -29.1552  -18.1060   19.7193 C   0  0  0  0  0  0  0  0  0  0  0  0
  -28.8744  -20.9468   17.8490 C   0  0  0  0  0  0  0  0  0  0  0  0
  -23.9957  -22.4397   19.3522 C   0  0  0  0  0  0  0  0  0  0  0  0
  -29.4132  -10.9724   22.8627 C   0  0  0  0  0  0  0  0  0  0  0  0
  -27.5588  -15.1399   18.2136 C   0  0  0  0  0  0  0  0  0  0  0  0
  -26.7032  -17.7862   19.2185 C   0  0  0  0  0  0  0  0  0  0  0  0
  -20.3238  -15.9402   20.3890 C   0  0  0  0  0  0  0  0  0  0  0  0
  -29.9088  -12.4157   22.8231 C   0  0  0  0  0  0  0  0  0  0  0  0
  -20.5844  -16.8486   21.5924 C   0  0  0  0  0  0  0  0  0  0  0  0
  -25.2587  -24.6280   16.8437 C   0  0  0  0  0  0  0  0  0  0  0  0
  -28.7715  -13.3796   23.1458 C   0  0  0  0  0  0  0  0  0  0  0  0
  -25.6860  -25.8719   17.6248 C   0  0  0  0  0  0  0  0  0  0  0  0
  -23.9953  -24.0007   17.4287 C   0  0  0  0  0  0  0  0  0  0  0  0
  -24.4921  -24.9418   19.6516 C   0  0  0  0  0  0  0  0  0  0  0  0
  -19.8935  -18.1871   21.2754 C   0  0  1  0  0  0  0  0  0  0  0  0
  -27.6449  -13.2697   22.1112 C   0  0  1  0  0  0  0  0  0  0  0  0
  -28.2725  -15.8277   19.3733 C   0  0  1  0  0  0  0  0  0  0  0  0
  -25.7934  -25.5775   19.1331 C   0  0  2  0  0  0  0  0  0  0  0  0
  -30.1101  -23.0517   17.2663 C   0  0  0  0  0  0  0  0  0  0  0  0
  -28.4447  -19.2752   22.4466 C   0  0  0  0  0  0  0  0  0  0  0  0
  -28.8170  -21.5577   21.4873 C   0  0  0  0  0  0  0  0  0  0  0  0
  -30.7016  -19.9264   21.5882 C   0  0  0  0  0  0  0  0  0  0  0  0
  -28.9553  -20.2416   14.9759 C   0  0  0  0  0  0  0  0  0  0  0  0
  -24.0471  -20.9997   21.3729 C   0  0  0  0  0  0  0  0  0  0  0  0
  -19.9019  -16.4756   17.8826 C   0  0  0  0  0  0  0  0  0  0  0  0
  -21.2182  -15.9047   17.3726 C   0  0  0  0  0  0  0  0  0  1  0  0
  -28.8422  -19.5701   19.9126 C   0  0  1  0  0  0  0  0  0  0  0  0
  -29.8306  -21.6093   16.8738 C   0  0  2  0  0  0  0  0  0  0  0  0
  -29.1826  -20.0646   21.3468 C   0  0  0  0  0  0  0  0  0  0  0  0
  -25.2005  -27.5891   20.4309 N   0  0  0  0  0  0  0  0  0  0  0  0
  -26.1751  -26.8177   19.9198 N   0  0  0  0  0  0  0  0  0  0  0  0
  -28.0761  -17.2787   19.3771 N   0  0  0  0  0  0  0  0  0  0  0  0
  -24.1634  -23.7451   18.8613 N   0  0  0  0  0  0  0  0  0  0  0  0
  -28.5288  -26.6144   19.7483 N   0  0  0  0  0  0  0  0  0  0  0  0
  -27.9827  -30.3864   22.1709 N   0  0  0  0  0  0  0  0  0  0  0  0
  -28.0072  -13.9635   20.8939 N   0  0  0  0  0  0  0  0  0  0  0  0
  -29.5474  -20.2817   18.8521 N   0  0  0  0  0  0  0  0  0  0  0  0
  -24.1792  -22.2835   20.7207 N   0  0  0  0  0  0  0  0  0  0  0  0
  -29.2571  -21.5992   15.4983 N   0  3  0  0  0  0  0  0  0  0  0  0
  -29.5361  -28.9874   21.2284 O   0  0  0  0  0  0  0  0  0  0  0  0
  -27.3440  -16.1042   21.5265 O   0  0  0  0  0  0  0  0  0  0  0  0
  -30.3157  -17.7120   19.8595 O   0  0  0  0  0  0  0  0  0  0  0  0
  -27.6526  -21.0157   17.7348 O   0  0  0  0  0  0  0  0  0  0  0  0
  -23.7094  -21.4833   18.6241 O   0  0  0  0  0  0  0  0  0  0  0  0
  -23.1248  -32.6419   23.7036 O   0  0  0  0  0  0  0  0  0  0  0  0
  -22.2328  -16.9063   17.4355 O   0  0  0  0  0  0  0  0  0  1  0  0
  -24.8131  -37.8276   22.8900 F   0  0  0  0  0  0  0  0  0  0  0  0
  -25.6969  -33.4154   24.3584 F   0  0  0  0  0  0  0  0  0  0  0  0
  1  2  1  0  0  0  0
  1  6  2  0  0  0  0
  2  7  2  0  0  0  0
  3  8  2  0  0  0  0
  3 10  1  0  0  0  0
  4 11  2  0  0  0  0
  4 19  1  0  0  0  0
  5 12  1  0  0  0  0
  5 19  2  0  0  0  0
  6 22  1  0  0  0  0
  7 24  1  0  0  0  0
  8 21  1  0  0  0  0
  9 13  2  0  0  0  0
  9 23  1  0  0  0  0
 10 26  2  0  0  0  0
 11 27  1  0  0  0  0
 12 27  2  0  0  0  0
 13 28  1  0  0  0  0
 14 15  2  0  0  0  0
 14 29  1  0  0  0  0
 15 30  1  0  0  0  0
 16 21  2  0  0  0  0
 16 26  1  0  0  0  0
 17 25  1  0  0  0  0
 17 28  2  0  0  0  0
 18 30  2  0  0  0  0
 18 31  1  0  0  0  0
 19 32  1  0  0  0  0
 20 32  1  0  0  0  0
 20 33  2  0  0  0  0
 20 36  1  0  0  0  0
 21 52  1  0  0  0  0
 22 24  2  0  0  0  0
 22 41  1  0  0  0  0
 23 25  2  0  0  0  0
 23 42  1  0  0  0  0
 24 53  1  0  0  0  0
 25 43  1  0  0  0  0
 26 61  1  0  0  0  0
 27 82  1  0  0  0  0
 28 83  1  0  0  0  0
 29 31  2  0  0  0  0
 29 82  1  0  0  0  0
 30 84  1  0  0  0  0
 31 85  1  0  0  0  0
 32 67  2  0  0  0  0
 33 68  1  0  0  0  0
 33 71  1  0  0  0  0
 34 35  2  0  0  0  0
 34 52  1  0  0  0  0
 35 44  1  0  0  0  0
 35 62  1  0  0  0  0
 36 72  1  0  0  0  0
 36 77  2  0  0  0  0
 37 54  1  0  0  0  0
 37 73  1  0  0  0  0
 37 78  2  0  0  0  0
 38 64  1  0  0  0  0
 38 69  1  0  0  0  0
 38 79  2  0  0  0  0
 39 65  1  0  0  0  0
 39 74  1  0  0  0  0
 39 80  2  0  0  0  0
 40 70  1  0  0  0  0
 40 75  1  0  0  0  0
 40 81  2  0  0  0  0
 41 45  1  0  0  0  0
 42 54  1  0  0  0  0
 43 69  1  0  0  0  0
 44 46  1  0  0  0  0
 45 48  1  0  0  0  0
 46 52  1  0  0  0  0
 47 49  1  0  0  0  0
 47 50  1  0  0  0  0
 48 53  1  0  0  0  0
 49 55  1  0  0  0  0
 50 70  1  0  0  0  0
 51 55  1  0  0  0  0
 51 70  1  0  0  0  0
 53 73  1  0  0  0  0
 54 69  1  0  0  0  0
 55 68  1  0  0  0  0
 56 65  1  0  0  0  0
 57 66  1  0  0  0  0
 58 66  1  0  0  0  0
 59 66  1  0  0  0  0
 60 76  1  0  0  0  0
 61 75  1  0  0  0  0
 62 63  1  0  0  0  0
 63 83  1  0  0  0  0
 64 66  1  0  0  0  0
 64 74  1  0  0  0  0
 65 76  1  0  0  0  0
 67 68  1  0  0  0  0
M  CHG  1  76   1
M  ISO  4  40 100  63 101  75 100  83 101
M  END
> <Batch ID>
0135

> <Smiles>
CNC(C)C(=O)NC(C(=O)N1Cc2cc([101O:1][101CH2:1]CC3=CC(c4cccc(C[100NH:0][100C:0](=O)N5CCCC(n6nc(-c7ccc(Oc8ccc(F)cc8F)cc7)c(C(N)=O)c6N)C5)c4)CC3)ccc2CC1C(=O)NC1CCCc2ccccc21)C(C)(C)C

> <Shape>
0.190

> <Color>
0.063

> <Negative vol penalty>
0.000

$$$$

  -OEChem-04052302363D

 83 91  0     1  0  0  0  0  0999 V2000
  -30.7885  -11.4821   19.0297 C   0  0  0  0  0  0  0  0  0  0  0  0
  -30.5335  -12.2899   20.1332 C   0  0  0  0  0  0  0  0  0  0  0  0
  -26.4359  -28.4736   18.7851 C   0  0  0  0  0  0  0  0  0  0  0  0
  -26.2771  -27.9246   21.1325 C   0  0  0  0  0  0  0  0  0  0  0  0
  -29.9290  -11.5113   17.9323 C   0  0  0  0  0  0  0  0  0  0  0  0
  -29.4193  -13.1284   20.1394 C   0  0  0  0  0  0  0  0  0  0  0  0
  -26.8928  -12.9692   24.5253 C   0  0  0  0  0  0  0  0  0  0  0  0
  -28.0783  -20.3268   23.8265 C   0  0  0  0  0  0  0  0  0  0  0  0
  -28.9419  -18.6263   22.3434 C   0  0  0  0  0  0  0  0  0  0  0  0
  -25.4277  -29.4251   18.9394 C   0  0  0  0  0  0  0  0  0  0  0  0
  -25.2690  -28.8762   21.2869 C   0  0  0  0  0  0  0  0  0  0  0  0
  -27.4285  -13.6851   25.5951 C   0  0  0  0  0  0  0  0  0  0  0  0
  -28.6235  -19.6515   24.9184 C   0  0  0  0  0  0  0  0  0  0  0  0
  -29.4873  -17.9510   23.4353 C   0  0  0  0  0  0  0  0  0  0  0  0
  -25.0417  -32.2336   21.5979 C   0  0  0  0  0  0  0  0  0  0  0  0
  -25.1187  -33.0840   22.7008 C   0  0  0  0  0  0  0  0  0  0  0  0
  -25.8578  -15.4684   25.1804 C   0  0  0  0  0  0  0  0  0  0  0  0
  -22.9833  -32.2661   23.4807 C   0  0  0  0  0  0  0  0  0  0  0  0
  -26.8605  -27.7232   19.8816 C   0  0  0  0  0  0  0  0  0  0  0  0
  -29.2879  -26.9390   19.8633 C   0  0  0  0  0  0  0  0  0  0  0  0
  -28.7984  -12.3434   17.9290 C   0  0  0  0  0  0  0  0  0  0  0  0
  -25.8410  -13.5033   23.7670 C   0  0  0  0  0  0  0  0  0  0  0  0
  -28.5446  -13.1698   19.0404 C   0  0  0  0  0  0  0  0  0  0  0  0
  -25.3088  -14.7562   24.1032 C   0  0  0  0  0  0  0  0  0  0  0  0
  -28.2374  -19.8142   22.5390 C   0  0  0  0  0  0  0  0  0  0  0  0
  -24.8443  -29.6264   20.1903 C   0  0  0  0  0  0  0  0  0  0  0  0
  -29.3281  -18.4636   24.7228 C   0  0  0  0  0  0  0  0  0  0  0  0
  -26.9129  -14.9361   25.9210 C   0  0  0  0  0  0  0  0  0  0  0  0
  -23.9354  -31.3994   21.4363 C   0  0  0  0  0  0  0  0  0  0  0  0
  -24.0896  -33.1003   23.6422 C   0  0  0  0  0  0  0  0  0  0  0  0
  -22.9062  -31.4157   22.3777 C   0  0  0  0  0  0  0  0  0  0  0  0
  -27.9015  -26.7397   19.7227 C   0  0  0  0  0  0  0  0  0  0  0  0
  -29.8392  -25.7061   19.6131 C   0  0  0  0  0  0  0  0  0  0  0  0
  -30.0127  -28.1320   20.1908 C   0  0  0  0  0  0  0  0  0  0  0  0
  -25.4693  -14.3383   20.7226 C   0  0  0  0  0  0  0  0  0  0  0  0
  -22.3904  -14.8035   21.6315 C   0  0  0  0  0  0  0  0  0  0  0  0
  -20.1783  -15.4443   24.1501 C   0  0  0  0  0  0  0  0  0  0  0  0
  -27.7499  -20.1281   20.0875 C   0  0  0  0  0  0  0  0  0  0  0  0
  -27.9243  -12.3757   16.7004 C   0  0  0  0  0  0  0  0  0  0  0  0
  -25.2565  -12.7068   22.6328 C   0  0  0  0  0  0  0  0  0  0  0  0
  -24.1665  -15.3650   23.3332 C   0  0  0  0  0  0  0  0  0  0  0  0
  -26.5591  -13.0150   16.9407 C   0  0  0  0  0  0  0  0  0  0  0  0
  -29.0398  -21.6763   17.1522 C   0  0  0  0  0  0  0  0  0  0  0  0
  -26.7098  -14.3203   17.7155 C   0  0  0  0  0  0  0  0  0  0  0  0
  -29.0262  -23.1682   17.4933 C   0  0  0  0  0  0  0  0  0  0  0  0
  -27.8339  -20.9483   17.7433 C   0  0  0  0  0  0  0  0  0  0  0  0
  -27.6230  -22.6350   19.5265 C   0  0  0  0  0  0  0  0  0  0  0  0
  -27.3326  -14.0743   19.0950 C   0  0  1  0  0  0  0  0  0  0  0  0
  -24.5284  -13.5716   21.6084 C   0  0  1  0  0  0  0  0  0  0  0  0
  -28.8523  -23.3985   19.0074 C   0  0  2  0  0  0  0  0  0  0  0  0
  -31.5719  -17.5976   28.9492 C   0  0  0  0  0  0  0  0  0  0  0  0
  -17.7324  -15.8057   24.5791 C   0  0  0  0  0  0  0  0  0  0  0  0
  -22.6067  -17.6200   20.4778 C   0  0  0  0  0  0  0  0  0  0  0  0
  -20.5390  -18.2259   21.7529 C   0  0  0  0  0  0  0  0  0  0  0  0
  -20.4453  -16.4581   19.9954 C   0  0  0  0  0  0  0  0  0  0  0  0
  -20.0273  -13.0954   25.9442 C   0  0  0  0  0  0  0  0  0  0  0  0
  -30.8942  -16.4370   28.2347 C   0  0  0  0  0  0  0  0  0  0  0  0
  -29.1846  -17.9326   27.0365 C   0  0  0  0  0  0  0  0  0  0  0  0
  -28.8153  -15.4314   27.2596 C   0  0  0  0  0  0  0  0  0  1  0  0
  -21.6039  -15.9658   22.1879 C   0  0  1  0  0  0  0  0  0  0  0  0
  -18.8616  -14.7886   24.5254 C   0  0  2  0  0  0  0  0  0  0  0  0
  -29.4076  -16.6900   27.9146 C   0  0  1  0  0  0  0  0  0  0  0  0
  -21.3215  -17.0571   21.1170 C   0  0  0  0  0  0  0  0  0  0  0  0
  -27.5910  -25.4795   19.4075 N   0  0  0  0  0  0  0  0  0  0  0  0
  -28.7902  -24.8757   19.3479 N   0  0  0  0  0  0  0  0  0  0  0  0
  -23.6333  -14.5502   22.2290 N   0  0  0  0  0  0  0  0  0  0  0  0
  -27.7354  -21.2093   19.1810 N   0  0  0  0  0  0  0  0  0  0  0  0
  -31.1139  -25.2622   19.5962 N   0  0  0  0  0  0  0  0  0  0  0  0
  -29.2906  -29.3116   20.4171 N   0  0  0  0  0  0  0  0  0  0  0  0
  -27.6835  -20.5001   21.4298 N   0  0  0  0  0  0  0  0  0  0  0  0
  -26.3441  -13.5422   20.0082 N   0  0  0  0  0  0  0  0  0  0  0  0
  -20.4040  -15.3955   22.7907 N   0  0  0  0  0  0  0  0  0  0  0  0
  -18.9701  -14.1358   25.8607 N   0  3  0  0  0  0  0  0  0  0  0  0
  -31.2648  -28.1550   20.2641 O   0  0  0  0  0  0  0  0  0  0  0  0
  -25.4054  -15.5616   20.6887 O   0  0  0  0  0  0  0  0  0  0  0  0
  -21.9162  -14.1403   20.7059 O   0  0  0  0  0  0  0  0  0  0  0  0
  -20.9296  -15.9525   24.9794 O   0  0  0  0  0  0  0  0  0  0  0  0
  -27.8436  -18.9597   19.7026 O   0  0  0  0  0  0  0  0  0  0  0  0
  -23.8607  -30.5551   20.3413 O   0  0  0  0  0  0  0  0  0  0  0  0
  -29.8640  -17.7999   25.7959 O   0  0  0  0  0  0  0  0  0  0  0  0
  -27.4344  -15.6372   26.9642 O   0  0  0  0  0  0  0  0  0  1  0  0
  -24.1644  -33.9159   24.7021 F   0  0  0  0  0  0  0  0  0  0  0  0
  -21.8415  -30.6157   22.2285 F   0  0  0  0  0  0  0  0  0  0  0  0
  1  2  1  0  0  0  0
  1  5  2  0  0  0  0
  2  6  2  0  0  0  0
  3 10  2  0  0  0  0
  3 19  1  0  0  0  0
  4 11  1  0  0  0  0
  4 19  2  0  0  0  0
  5 21  1  0  0  0  0
  6 23  1  0  0  0  0
  7 12  2  0  0  0  0
  7 22  1  0  0  0  0
  8 13  2  0  0  0  0
  8 25  1  0  0  0  0
  9 14  1  0  0  0  0
  9 25  2  0  0  0  0
 10 26  1  0  0  0  0
 11 26  2  0  0  0  0
 12 28  1  0  0  0  0
 13 27  1  0  0  0  0
 14 27  2  0  0  0  0
 15 16  2  0  0  0  0
 15 29  1  0  0  0  0
 16 30  1  0  0  0  0
 17 24  1  0  0  0  0
 17 28  2  0  0  0  0
 18 30  2  0  0  0  0
 18 31  1  0  0  0  0
 19 32  1  0  0  0  0
 20 32  1  0  0  0  0
 20 33  2  0  0  0  0
 20 34  1  0  0  0  0
 21 23  2  0  0  0  0
 21 39  1  0  0  0  0
 22 24  2  0  0  0  0
 22 40  1  0  0  0  0
 23 48  1  0  0  0  0
 24 41  1  0  0  0  0
 25 70  1  0  0  0  0
 26 79  1  0  0  0  0
 27 80  1  0  0  0  0
 28 81  1  0  0  0  0
 29 31  2  0  0  0  0
 29 79  1  0  0  0  0
 30 82  1  0  0  0  0
 31 83  1  0  0  0  0
 32 64  2  0  0  0  0
 33 65  1  0  0  0  0
 33 68  1  0  0  0  0
 34 69  1  0  0  0  0
 34 74  2  0  0  0  0
 35 49  1  0  0  0  0
 35 71  1  0  0  0  0
 35 75  2  0  0  0  0
 36 60  1  0  0  0  0
 36 66  1  0  0  0  0
 36 76  2  0  0  0  0
 37 61  1  0  0  0  0
 37 72  1  0  0  0  0
 37 77  2  0  0  0  0
 38 67  1  0  0  0  0
 38 70  1  0  0  0  0
 38 78  2  0  0  0  0
 39 42  1  0  0  0  0
 40 49  1  0  0  0  0
 41 66  1  0  0  0  0
 42 44  1  0  0  0  0
 43 45  1  0  0  0  0
 43 46  1  0  0  0  0
 44 48  1  0  0  0  0
 45 50  1  0  0  0  0
 46 67  1  0  0  0  0
 47 50  1  0  0  0  0
 47 67  1  0  0  0  0
 48 71  1  0  0  0  0
 49 66  1  0  0  0  0
 50 65  1  0  0  0  0
 51 57  1  0  0  0  0
 52 61  1  0  0  0  0
 53 63  1  0  0  0  0
 54 63  1  0  0  0  0
 55 63  1  0  0  0  0
 56 73  1  0  0  0  0
 57 62  1  0  0  0  0
 58 62  1  0  0  0  0
 58 80  1  0  0  0  0
 59 62  1  0  0  0  0
 59 81  1  0  0  0  0
 60 63  1  0  0  0  0
 60 72  1  0  0  0  0
 61 73  1  0  0  0  0
 64 65  1  0  0  0  0
M  CHG  1  73   1
M  ISO  4  38 100  59 101  70 100  81 101
M  END
> <Batch ID>
0135

> <Smiles>
CCC(COc1ccc([100NH:0][100C:0](=O)N2CCCC(n3nc(-c4ccc(Oc5ccc(F)cc5F)cc4)c(C(N)=O)c3N)C2)cc1)[101CH2:1][101O:1]c1ccc2c(c1)CN(C(=O)C(NC(=O)C(C)NC)C(C)(C)C)C(C(=O)NC1CCCc3ccccc31)C2

> <Shape>
0.221

> <Color>
0.070

> <Negative vol penalty>
0.000

$$$$

  -OEChem-04052302363D

 88 96  0     1  0  0  0  0  0999 V2000
  -20.7053  -32.6039   27.7754 C   0  0  0  0  0  0  0  0  0  0  0  0
  -20.6230  -31.8940   26.5818 C   0  0  0  0  0  0  0  0  0  0  0  0
  -26.7190  -11.7965   21.4707 C   0  0  0  0  0  0  0  0  0  0  0  0
  -26.1346  -12.7079   19.3109 C   0  0  0  0  0  0  0  0  0  0  0  0
  -21.8156  -33.4072   28.0322 C   0  0  0  0  0  0  0  0  0  0  0  0
  -21.6505  -31.9878   25.6438 C   0  0  0  0  0  0  0  0  0  0  0  0
  -22.9668  -27.4807   23.7469 C   0  0  0  0  0  0  0  0  0  0  0  0
  -26.8493  -21.4435   16.6672 C   0  0  0  0  0  0  0  0  0  0  0  0
  -26.8724  -23.0146   18.5024 C   0  0  0  0  0  0  0  0  0  0  0  0
  -27.5138  -20.5078   17.4598 C   0  0  0  0  0  0  0  0  0  0  0  0
  -27.5370  -22.0789   19.2951 C   0  0  0  0  0  0  0  0  0  0  0  0
  -25.5713  -11.0043   21.4470 C   0  0  0  0  0  0  0  0  0  0  0  0
  -24.9868  -11.9156   19.2872 C   0  0  0  0  0  0  0  0  0  0  0  0
  -22.1354  -26.9333   22.7707 C   0  0  0  0  0  0  0  0  0  0  0  0
  -22.2616  -11.3977   22.0091 C   0  0  0  0  0  0  0  0  0  0  0  0
  -21.4906  -11.3404   23.1700 C   0  0  0  0  0  0  0  0  0  0  0  0
  -23.6602  -27.6850   21.0592 C   0  0  0  0  0  0  0  0  0  0  0  0
  -21.8349   -8.9516   23.2807 C   0  0  0  0  0  0  0  0  0  0  0  0
  -27.0007  -12.6484   20.4027 C   0  0  0  0  0  0  0  0  0  0  0  0
  -29.4625  -13.1300   19.9387 C   0  0  0  0  0  0  0  0  0  0  0  0
  -22.8618  -33.5033   27.1011 C   0  0  0  0  0  0  0  0  0  0  0  0
  -24.1477  -28.1449   23.3852 C   0  0  0  0  0  0  0  0  0  0  0  0
  -22.7752  -32.7941   25.8878 C   0  0  0  0  0  0  0  0  0  0  0  0
  -24.5061  -28.2376   22.0328 C   0  0  0  0  0  0  0  0  0  0  0  0
  -26.5286  -22.6970   17.1884 C   0  0  0  0  0  0  0  0  0  0  0  0
  -27.8577  -20.8254   18.7738 C   0  0  0  0  0  0  0  0  0  0  0  0
  -24.7052  -11.0638   20.3553 C   0  0  0  0  0  0  0  0  0  0  0  0
  -22.4805  -27.0379   21.4264 C   0  0  0  0  0  0  0  0  0  0  0  0
  -22.8193  -10.2320   21.4839 C   0  0  0  0  0  0  0  0  0  0  0  0
  -21.2772  -10.1174   23.8059 C   0  0  0  0  0  0  0  0  0  0  0  0
  -22.6059   -9.0090   22.1198 C   0  0  0  0  0  0  0  0  0  0  0  0
  -28.1859  -13.4675   20.4268 C   0  0  0  0  0  0  0  0  0  0  0  0
  -30.2325  -14.2377   20.1968 C   0  0  0  0  0  0  0  0  0  0  0  0
  -29.9120  -11.9233   19.3084 C   0  0  0  0  0  0  0  0  0  0  0  0
  -25.2449  -31.1098   23.7161 C   0  0  0  0  0  0  0  0  0  0  0  0
  -22.0380  -23.9473   19.0553 C   0  0  0  0  0  0  0  0  0  0  0  0
  -27.9557  -29.8284   22.4783 C   0  0  0  0  0  0  0  0  0  0  0  0
  -29.4060  -27.3725   20.6043 C   0  0  0  0  0  0  0  0  0  0  0  0
  -28.9454  -20.0300   20.9023 C   0  0  0  0  0  0  0  0  0  0  0  0
  -24.0197  -34.4215   27.4024 C   0  0  0  0  0  0  0  0  0  0  0  0
  -25.0472  -28.7066   24.4519 C   0  0  0  0  0  0  0  0  0  0  0  0
  -25.7733  -28.9230   21.5935 C   0  0  0  0  0  0  0  0  0  0  0  0
  -25.2400  -34.1727   26.5196 C   0  0  0  0  0  0  0  0  0  0  0  0
  -30.6003  -17.9162   23.2411 C   0  0  0  0  0  0  0  0  0  0  0  0
  -24.8239  -34.0431   25.0578 C   0  0  0  0  0  0  0  0  0  0  0  0
  -30.2902  -16.5049   22.7369 C   0  0  0  0  0  0  0  0  0  0  0  0
  -29.4167  -18.8616   23.0442 C   0  0  0  0  0  0  0  0  0  0  0  0
  -28.5720  -17.4996   21.1732 C   0  0  0  0  0  0  0  0  0  0  0  0
  -23.8811  -32.8506   24.8563 C   0  0  1  0  0  0  0  0  0  0  0  0
  -25.9662  -29.8105   23.9382 C   0  0  1  0  0  0  0  0  0  0  0  0
  -29.7573  -16.5275   21.2909 C   0  0  2  0  0  0  0  0  0  0  0  0
  -22.7606  -23.0522   14.5495 C   0  0  0  0  0  0  0  0  0  0  0  0
  -26.6970  -24.9428   16.0900 C   0  0  0  0  0  0  0  0  0  0  0  0
  -31.6354  -26.6119   19.7391 C   0  0  0  0  0  0  0  0  0  0  0  0
  -27.8906  -32.0380   20.3751 C   0  0  0  0  0  0  0  0  0  0  0  0
  -29.5238  -30.7048   19.0246 C   0  0  0  0  0  0  0  0  0  0  0  0
  -30.1634  -31.5340   21.2887 C   0  0  0  0  0  0  0  0  0  0  0  0
  -29.2176  -24.7961   22.0485 C   0  0  0  0  0  0  0  0  0  0  0  0
  -20.7193  -24.4366   19.6371 C   0  0  0  0  0  0  0  0  0  0  0  0
  -22.0480  -23.6335   17.5675 C   0  0  0  0  0  0  0  0  0  0  0  0
  -23.2251  -22.2285   15.7433 C   0  0  0  0  0  0  0  0  0  0  0  0
  -24.4427  -24.1562   16.9105 C   0  0  0  0  0  0  0  0  0  0  0  0
  -20.9060  -25.3567   20.8347 C   0  0  0  0  0  0  0  0  0  1  0  0
  -25.8051  -23.7157   16.3253 C   0  0  2  0  0  0  0  0  0  0  0  0
  -28.5077  -29.6341   21.0867 C   0  0  1  0  0  0  0  0  0  0  0  0
  -30.6153  -26.4914   20.8605 C   0  0  2  0  0  0  0  0  0  0  0  0
  -23.3737  -23.0411   17.0473 C   0  0  1  0  0  0  0  0  0  0  0  0
  -28.9965  -30.9664   20.4516 C   0  0  0  0  0  0  0  0  0  0  0  0
  -28.1433  -14.6935   20.9551 N   0  0  0  0  0  0  0  0  0  0  0  0
  -29.4027  -15.1361   20.8006 N   0  0  0  0  0  0  0  0  0  0  0  0
  -26.6166  -29.4616   22.6734 N   0  0  0  0  0  0  0  0  0  0  0  0
  -28.9685  -18.8338   21.6502 N   0  0  0  0  0  0  0  0  0  0  0  0
  -31.5317  -14.5210   19.9640 N   0  0  0  0  0  0  0  0  0  0  0  0
  -28.9903  -10.8844   19.1203 N   0  0  0  0  0  0  0  0  0  0  0  0
  -28.5325  -19.8750   19.5794 N   0  0  0  0  0  0  0  0  0  0  0  0
  -24.6285  -31.6114   24.8465 N   0  0  0  0  0  0  0  0  0  0  0  0
  -29.5411  -28.6102   21.1968 N   0  0  0  0  0  0  0  0  0  0  0  0
  -30.2023  -25.0635   20.9687 N   0  3  0  0  0  0  0  0  0  0  0  0
  -31.1000  -11.7646   18.9382 O   0  0  0  0  0  0  0  0  0  0  0  0
  -25.2486  -31.6201   22.6020 O   0  0  0  0  0  0  0  0  0  0  0  0
  -23.0550  -23.8267   19.7376 O   0  0  0  0  0  0  0  0  0  0  0  0
  -28.6878  -30.2820   23.3614 O   0  0  0  0  0  0  0  0  0  0  0  0
  -28.4399  -27.0013   19.9414 O   0  0  0  0  0  0  0  0  0  0  0  0
  -29.2942  -21.1078   21.3910 O   0  0  0  0  0  0  0  0  0  0  0  0
  -23.5852  -10.2907   20.3317 O   0  0  0  0  0  0  0  0  0  0  0  0
  -21.6649  -26.5015   20.4650 O   0  0  0  0  0  0  0  0  0  1  0  0
  -20.5380  -10.0627   24.9216 F   0  0  0  0  0  0  0  0  0  0  0  0
  -23.1401   -7.8859   21.6206 F   0  0  0  0  0  0  0  0  0  0  0  0
  1  2  1  0  0  0  0
  1  5  2  0  0  0  0
  2  6  2  0  0  0  0
  3 12  2  0  0  0  0
  3 19  1  0  0  0  0
  4 13  1  0  0  0  0
  4 19  2  0  0  0  0
  5 21  1  0  0  0  0
  6 23  1  0  0  0  0
  7 14  2  0  0  0  0
  7 22  1  0  0  0  0
  8 10  2  0  0  0  0
  8 25  1  0  0  0  0
  9 11  1  0  0  0  0
  9 25  2  0  0  0  0
 10 26  1  0  0  0  0
 11 26  2  0  0  0  0
 12 27  1  0  0  0  0
 13 27  2  0  0  0  0
 14 28  1  0  0  0  0
 15 16  2  0  0  0  0
 15 29  1  0  0  0  0
 16 30  1  0  0  0  0
 17 24  1  0  0  0  0
 17 28  2  0  0  0  0
 18 30  2  0  0  0  0
 18 31  1  0  0  0  0
 19 32  1  0  0  0  0
 20 32  1  0  0  0  0
 20 33  2  0  0  0  0
 20 34  1  0  0  0  0
 21 23  2  0  0  0  0
 21 40  1  0  0  0  0
 22 24  2  0  0  0  0
 22 41  1  0  0  0  0
 23 49  1  0  0  0  0
 24 42  1  0  0  0  0
 25 64  1  0  0  0  0
 26 75  1  0  0  0  0
 27 85  1  0  0  0  0
 28 86  1  0  0  0  0
 29 31  2  0  0  0  0
 29 85  1  0  0  0  0
 30 87  1  0  0  0  0
 31 88  1  0  0  0  0
 32 69  2  0  0  0  0
 33 70  1  0  0  0  0
 33 73  1  0  0  0  0
 34 74  1  0  0  0  0
 34 79  2  0  0  0  0
 35 50  1  0  0  0  0
 35 76  1  0  0  0  0
 35 80  2  0  0  0  0
 36 59  1  0  0  0  0
 36 60  1  0  0  0  0
 36 81  2  0  0  0  0
 37 65  1  0  0  0  0
 37 71  1  0  0  0  0
 37 82  2  0  0  0  0
 38 66  1  0  0  0  0
 38 77  1  0  0  0  0
 38 83  2  0  0  0  0
 39 72  1  0  0  0  0
 39 75  1  0  0  0  0
 39 84  2  0  0  0  0
 40 43  1  0  0  0  0
 41 50  1  0  0  0  0
 42 71  1  0  0  0  0
 43 45  1  0  0  0  0
 44 46  1  0  0  0  0
 44 47  1  0  0  0  0
 45 49  1  0  0  0  0
 46 51  1  0  0  0  0
 47 72  1  0  0  0  0
 48 51  1  0  0  0  0
 48 72  1  0  0  0  0
 49 76  1  0  0  0  0
 50 71  1  0  0  0  0
 51 70  1  0  0  0  0
 52 61  1  0  0  0  0
 53 64  1  0  0  0  0
 54 66  1  0  0  0  0
 55 68  1  0  0  0  0
 56 68  1  0  0  0  0
 57 68  1  0  0  0  0
 58 78  1  0  0  0  0
 59 63  1  0  0  0  0
 60 67  1  0  0  0  0
 61 67  1  0  0  0  0
 62 64  1  0  0  0  0
 62 67  1  0  0  0  0
 63 86  1  0  0  0  0
 65 68  1  0  0  0  0
 65 77  1  0  0  0  0
 66 78  1  0  0  0  0
 69 70  1  0  0  0  0
M  CHG  1  78   1
M  ISO  4  39 100  63 101  75 100  86 101
M  END
> <Batch ID>
0135

> <Smiles>
CCC(CC(=O)C[101CH2:1][101O:1]c1ccc2c(c1)CN(C(=O)C(NC(=O)C(C)NC)C(C)(C)C)C(C(=O)NC1CCCc3ccccc31)C2)CC(C)c1ccc([100NH:0][100C:0](=O)N2CCCC(n3nc(-c4ccc(Oc5ccc(F)cc5F)cc4)c(C(N)=O)c3N)C2)cc1

> <Shape>
0.252

> <Color>
0.040

> <Negative vol penalty>
0.000

$$$$

  -OEChem-04052302363D

 86 94  0     1  0  0  0  0  0999 V2000
  -37.0091  -26.2998   19.7611 C   0  0  0  0  0  0  0  0  0  0  0  0
  -35.7505  -25.7192   19.8808 C   0  0  0  0  0  0  0  0  0  0  0  0
  -23.0304   -9.9064   19.9565 C   0  0  0  0  0  0  0  0  0  0  0  0
  -23.8641   -9.8696   22.2238 C   0  0  0  0  0  0  0  0  0  0  0  0
  -29.7868  -17.3292   19.9600 C   0  0  0  0  0  0  0  0  0  0  0  0
  -37.9288  -26.1886   20.8030 C   0  0  0  0  0  0  0  0  0  0  0  0
  -35.4114  -25.0260   21.0423 C   0  0  0  0  0  0  0  0  0  0  0  0
  -30.7772  -26.1928   22.7179 C   0  0  0  0  0  0  0  0  0  0  0  0
  -29.0895  -18.4534   19.5180 C   0  0  0  0  0  0  0  0  0  0  0  0
  -22.2865   -8.7543   20.2113 C   0  0  0  0  0  0  0  0  0  0  0  0
  -23.1201   -8.7175   22.4787 C   0  0  0  0  0  0  0  0  0  0  0  0
  -29.6962  -25.6065   22.0610 C   0  0  0  0  0  0  0  0  0  0  0  0
  -19.3808   -7.9539   21.7441 C   0  0  0  0  0  0  0  0  0  0  0  0
  -18.0586   -7.9248   21.3008 C   0  0  0  0  0  0  0  0  0  0  0  0
  -29.5195  -23.9704   23.8248 C   0  0  0  0  0  0  0  0  0  0  0  0
  -27.7226  -18.3885   21.5091 C   0  0  0  0  0  0  0  0  0  0  0  0
  -18.5608   -6.0004   19.9290 C   0  0  0  0  0  0  0  0  0  0  0  0
  -23.8193  -10.4640   20.9628 C   0  0  0  0  0  0  0  0  0  0  0  0
  -29.4520  -16.7345   21.1766 C   0  0  0  0  0  0  0  0  0  0  0  0
  -24.1759  -12.9883   20.8736 C   0  0  0  0  0  0  0  0  0  0  0  0
  -37.5974  -25.5020   21.9817 C   0  0  0  0  0  0  0  0  0  0  0  0
  -31.2451  -25.6648   23.9298 C   0  0  0  0  0  0  0  0  0  0  0  0
  -36.3280  -24.9043   22.1004 C   0  0  0  0  0  0  0  0  0  0  0  0
  -30.6049  -24.5534   24.4964 C   0  0  0  0  0  0  0  0  0  0  0  0
  -28.0574  -18.9831   20.2925 C   0  0  0  0  0  0  0  0  0  0  0  0
  -28.4199  -17.2642   21.9511 C   0  0  0  0  0  0  0  0  0  0  0  0
  -22.3313   -8.1599   21.4724 C   0  0  0  0  0  0  0  0  0  0  0  0
  -29.0690  -24.4933   22.6129 C   0  0  0  0  0  0  0  0  0  0  0  0
  -20.2931   -7.0062   21.2798 C   0  0  0  0  0  0  0  0  0  0  0  0
  -17.6486   -6.9481   20.3933 C   0  0  0  0  0  0  0  0  0  0  0  0
  -19.8831   -6.0295   20.3723 C   0  0  0  0  0  0  0  0  0  0  0  0
  -24.5885  -11.6537   20.7000 C   0  0  0  0  0  0  0  0  0  0  0  0
  -25.2613  -13.7363   20.4875 C   0  0  0  0  0  0  0  0  0  0  0  0
  -30.1964  -15.5613   21.6143 C   0  0  0  0  0  0  0  0  0  0  0  0
  -22.9235  -13.5058   21.3420 C   0  0  0  0  0  0  0  0  0  0  0  0
  -30.7837  -14.6147   20.6385 C   0  0  0  0  0  0  0  0  0  0  0  0
  -33.9856  -24.3877   24.9109 C   0  0  0  0  0  0  0  0  0  0  0  0
  -32.5205  -24.4333   27.8046 C   0  0  0  0  0  0  0  0  0  0  0  0
  -29.6029  -24.4729   29.5745 C   0  0  0  0  0  0  0  0  0  0  0  0
  -38.6415  -25.3677   23.0617 C   0  0  0  0  0  0  0  0  0  0  0  0
  -32.3953  -26.3251   24.6394 C   0  0  0  0  0  0  0  0  0  0  0  0
  -31.0558  -23.9606   25.8055 C   0  0  0  0  0  0  0  0  0  0  0  0
  -38.0709  -24.9370   24.4104 C   0  0  0  0  0  0  0  0  0  0  0  0
  -29.5159  -12.4048   18.1155 C   0  0  0  0  0  0  0  0  0  0  0  0
  -37.1064  -23.7685   24.2334 C   0  0  0  0  0  0  0  0  0  0  0  0
  -28.1003  -12.0918   18.5992 C   0  0  0  0  0  0  0  0  0  0  0  0
  -30.4796  -12.5791   19.2848 C   0  0  0  0  0  0  0  0  0  0  0  0
  -28.6253  -13.3005   20.7645 C   0  0  0  0  0  0  0  0  0  0  0  0
  -35.9141  -24.1656   23.3546 C   0  0  1  0  0  0  0  0  0  0  0  0
  -33.1136  -25.3922   25.6096 C   0  0  1  0  0  0  0  0  0  0  0  0
  -27.6175  -13.1450   19.6123 C   0  0  2  0  0  0  0  0  0  0  0  0
  -28.5708  -17.4428   24.4475 C   0  0  0  0  0  0  0  0  0  0  0  0
  -28.7247  -24.4688   31.9253 C   0  0  0  0  0  0  0  0  0  0  0  0
  -33.1621  -21.4593   28.0366 C   0  0  0  0  0  0  0  0  0  0  0  0
  -31.4802  -21.3118   29.8852 C   0  0  0  0  0  0  0  0  0  0  0  0
  -33.4912  -22.7649   30.1440 C   0  0  0  0  0  0  0  0  0  0  0  0
  -25.7831  -22.8010   20.4488 C   0  0  0  0  0  0  0  0  0  0  0  0
  -27.2112  -23.0107   18.3985 C   0  0  0  0  0  0  0  0  0  0  0  0
  -28.2656  -27.0868   29.2030 C   0  0  0  0  0  0  0  0  0  0  0  0
  -27.3034  -20.2006   19.8145 C   0  0  0  0  0  0  0  0  0  0  0  0
  -28.0411  -16.6477   23.2582 C   0  0  0  0  0  0  0  0  0  0  0  0
  -27.9626  -21.4959   20.3086 C   0  0  0  0  0  0  0  0  0  0  0  0
  -27.9889  -24.0113   20.5497 C   0  0  0  0  0  0  0  0  0  1  0  0
  -31.6420  -23.4760   28.5734 C   0  0  1  0  0  0  0  0  0  0  0  0
  -29.1448  -25.3275   30.7426 C   0  0  2  0  0  0  0  0  0  0  0  0
  -32.4364  -22.2628   29.1341 C   0  0  0  0  0  0  0  0  0  0  0  0
  -27.2312  -22.8141   19.9247 C   0  0  0  0  0  0  0  0  0  0  0  0
  -25.8384  -11.5561   20.2394 N   0  0  0  0  0  0  0  0  0  0  0  0
  -30.3956  -15.2693   22.8699 N   0  0  0  0  0  0  0  0  0  0  0  0
  -26.2206  -12.8390   20.1202 N   0  0  0  0  0  0  0  0  0  0  0  0
  -29.9742  -13.5583   20.2449 N   0  0  0  0  0  0  0  0  0  0  0  0
  -32.1886  -24.6379   26.4579 N   0  0  0  0  0  0  0  0  0  0  0  0
  -25.4791  -15.0673   20.4298 N   0  0  0  0  0  0  0  0  0  0  0  0
  -21.9162  -12.5981   21.6968 N   0  0  0  0  0  0  0  0  0  0  0  0
  -34.9650  -24.9502   24.1148 N   0  0  0  0  0  0  0  0  0  0  0  0
  -30.9667  -24.2711   29.5933 N   0  0  0  0  0  0  0  0  0  0  0  0
  -27.9861  -26.1746   30.3416 N   0  3  0  0  0  0  0  0  0  0  0  0
  -22.6984  -14.7369   21.4273 O   0  0  0  0  0  0  0  0  0  0  0  0
  -31.9272  -14.8666   20.2820 O   0  0  0  0  0  0  0  0  0  0  0  0
  -33.7856  -23.1910   25.0825 O   0  0  0  0  0  0  0  0  0  0  0  0
  -33.4621  -24.9848   28.3799 O   0  0  0  0  0  0  0  0  0  0  0  0
  -28.8278  -24.0258   28.7320 O   0  0  0  0  0  0  0  0  0  0  0  0
  -21.6052   -7.0359   21.7215 O   0  0  0  0  0  0  0  0  0  0  0  0
  -28.0142  -23.9187   21.9735 O   0  0  0  0  0  0  0  0  0  1  0  0
  -16.3785   -6.9194   19.9688 F   0  0  0  0  0  0  0  0  0  0  0  0
  -20.7546   -5.1158   19.9237 F   0  0  0  0  0  0  0  0  0  0  0  0
  1  2  1  0  0  0  0
  1  6  2  0  0  0  0
  2  7  2  0  0  0  0
  3 10  2  0  0  0  0
  3 18  1  0  0  0  0
  4 11  1  0  0  0  0
  4 18  2  0  0  0  0
  5  9  2  0  0  0  0
  5 19  1  0  0  0  0
  6 21  1  0  0  0  0
  7 23  1  0  0  0  0
  8 12  2  0  0  0  0
  8 22  1  0  0  0  0
  9 25  1  0  0  0  0
 10 27  1  0  0  0  0
 11 27  2  0  0  0  0
 12 28  1  0  0  0  0
 13 14  2  0  0  0  0
 13 29  1  0  0  0  0
 14 30  1  0  0  0  0
 15 24  1  0  0  0  0
 15 28  2  0  0  0  0
 16 25  2  0  0  0  0
 16 26  1  0  0  0  0
 17 30  2  0  0  0  0
 17 31  1  0  0  0  0
 18 32  1  0  0  0  0
 19 26  2  0  0  0  0
 19 34  1  0  0  0  0
 20 32  1  0  0  0  0
 20 33  2  0  0  0  0
 20 35  1  0  0  0  0
 21 23  2  0  0  0  0
 21 40  1  0  0  0  0
 22 24  2  0  0  0  0
 22 41  1  0  0  0  0
 23 49  1  0  0  0  0
 24 42  1  0  0  0  0
 25 60  1  0  0  0  0
 26 61  1  0  0  0  0
 27 83  1  0  0  0  0
 28 84  1  0  0  0  0
 29 31  2  0  0  0  0
 29 83  1  0  0  0  0
 30 85  1  0  0  0  0
 31 86  1  0  0  0  0
 32 68  2  0  0  0  0
 33 70  1  0  0  0  0
 33 73  1  0  0  0  0
 34 36  1  0  0  0  0
 34 69  2  0  0  0  0
 35 74  1  0  0  0  0
 35 78  2  0  0  0  0
 36 71  1  0  0  0  0
 36 79  2  0  0  0  0
 37 50  1  0  0  0  0
 37 75  1  0  0  0  0
 37 80  2  0  0  0  0
 38 64  1  0  0  0  0
 38 72  1  0  0  0  0
 38 81  2  0  0  0  0
 39 65  1  0  0  0  0
 39 76  1  0  0  0  0
 39 82  2  0  0  0  0
 40 43  1  0  0  0  0
 41 50  1  0  0  0  0
 42 72  1  0  0  0  0
 43 45  1  0  0  0  0
 44 46  1  0  0  0  0
 44 47  1  0  0  0  0
 45 49  1  0  0  0  0
 46 51  1  0  0  0  0
 47 71  1  0  0  0  0
 48 51  1  0  0  0  0
 48 71  1  0  0  0  0
 49 75  1  0  0  0  0
 50 72  1  0  0  0  0
 51 70  1  0  0  0  0
 52 61  1  0  0  0  0
 53 65  1  0  0  0  0
 54 66  1  0  0  0  0
 55 66  1  0  0  0  0
 56 66  1  0  0  0  0
 57 67  1  0  0  0  0
 58 67  1  0  0  0  0
 59 77  1  0  0  0  0
 60 62  1  0  0  0  0
 62 67  1  0  0  0  0
 63 67  1  0  0  0  0
 63 84  1  0  0  0  0
 64 66  1  0  0  0  0
 64 76  1  0  0  0  0
 65 77  1  0  0  0  0
 68 70  1  0  0  0  0
M  CHG  1  77   1
M  ISO  4  34 100  36 100  63 101  84 101
M  END
> <Batch ID>
0135

> <Smiles>
CCc1cc(CCC(C)(C)[101CH2:1][101O:1]c2ccc3c(c2)CN(C(=O)C(NC(=O)C(C)NC)C(C)(C)C)C(C(=O)NC2CCCc4ccccc42)C3)ccc1[100C:0](=N)[100C:0](=O)N1CCCC(n2nc(-c3ccc(Oc4ccc(F)cc4F)cc3)c(C(N)=O)c2N)C1

> <Shape>
0.190

> <Color>
0.185

> <Negative vol penalty>
0.000

$$$$

  -OEChem-04052302363D

 83 91  0     1  0  0  0  0  0999 V2000
  -17.7895  -25.6713   25.1787 C   0  0  0  0  0  0  0  0  0  0  0  0
  -19.1244  -25.3154   25.3422 C   0  0  0  0  0  0  0  0  0  0  0  0
  -33.0764  -16.9412   23.4961 C   0  0  0  0  0  0  0  0  0  0  0  0
  -22.9506  -10.0924   19.9275 C   0  0  0  0  0  0  0  0  0  0  0  0
  -23.9200   -9.7652   22.1162 C   0  0  0  0  0  0  0  0  0  0  0  0
  -17.4158  -26.5076   24.1276 C   0  0  0  0  0  0  0  0  0  0  0  0
  -20.0864  -25.7948   24.4538 C   0  0  0  0  0  0  0  0  0  0  0  0
  -24.2517  -27.4521   26.8093 C   0  0  0  0  0  0  0  0  0  0  0  0
  -32.3826  -17.7144   24.4268 C   0  0  0  0  0  0  0  0  0  0  0  0
  -32.3761  -16.2035   22.5415 C   0  0  0  0  0  0  0  0  0  0  0  0
  -22.1925   -8.9329   20.0899 C   0  0  0  0  0  0  0  0  0  0  0  0
  -23.1618   -8.6057   22.2786 C   0  0  0  0  0  0  0  0  0  0  0  0
  -25.1554  -26.4897   27.2572 C   0  0  0  0  0  0  0  0  0  0  0  0
  -19.9772   -7.8055   23.0775 C   0  0  0  0  0  0  0  0  0  0  0  0
  -19.3313   -7.6213   24.3000 C   0  0  0  0  0  0  0  0  0  0  0  0
  -26.5369  -26.8946   25.3216 C   0  0  0  0  0  0  0  0  0  0  0  0
  -30.2880  -17.0123   23.4486 C   0  0  0  0  0  0  0  0  0  0  0  0
  -20.5658   -5.5730   24.6435 C   0  0  0  0  0  0  0  0  0  0  0  0
  -23.8144  -10.5085   20.9406 C   0  0  0  0  0  0  0  0  0  0  0  0
  -24.2335  -13.0176   21.1311 C   0  0  0  0  0  0  0  0  0  0  0  0
  -18.3751  -27.0053   23.2316 C   0  0  0  0  0  0  0  0  0  0  0  0
  -24.4786  -28.1365   25.6065 C   0  0  0  0  0  0  0  0  0  0  0  0
  -19.7250  -26.6375   23.3889 C   0  0  0  0  0  0  0  0  0  0  0  0
  -25.6358  -27.8671   24.8618 C   0  0  0  0  0  0  0  0  0  0  0  0
  -30.9884  -17.7500   24.4031 C   0  0  0  0  0  0  0  0  0  0  0  0
  -30.9819  -16.2391   22.5178 C   0  0  0  0  0  0  0  0  0  0  0  0
  -22.2980   -8.1895   21.2655 C   0  0  0  0  0  0  0  0  0  0  0  0
  -26.2968  -26.2087   26.5119 C   0  0  0  0  0  0  0  0  0  0  0  0
  -20.9173   -6.8735   22.6379 C   0  0  0  0  0  0  0  0  0  0  0  0
  -19.6256   -6.5051   25.0830 C   0  0  0  0  0  0  0  0  0  0  0  0
  -21.2116   -5.7573   23.4210 C   0  0  0  0  0  0  0  0  0  0  0  0
  -24.5983  -11.7059   20.7732 C   0  0  0  0  0  0  0  0  0  0  0  0
  -25.3133  -13.7852   20.7685 C   0  0  0  0  0  0  0  0  0  0  0  0
  -23.0267  -13.4992   21.7371 C   0  0  0  0  0  0  0  0  0  0  0  0
  -22.9404  -28.3716   22.8348 C   0  0  0  0  0  0  0  0  0  0  0  0
  -25.2284  -30.5810   22.1978 C   0  0  0  0  0  0  0  0  0  0  0  0
  -28.3607  -31.7753   22.8373 C   0  0  0  0  0  0  0  0  0  0  0  0
  -30.8059  -14.6727   20.5527 C   0  0  0  0  0  0  0  0  0  0  0  0
  -17.9166  -27.8682   22.0828 C   0  0  0  0  0  0  0  0  0  0  0  0
  -23.5076  -29.1909   25.1507 C   0  0  0  0  0  0  0  0  0  0  0  0
  -25.9359  -28.5884   23.5741 C   0  0  0  0  0  0  0  0  0  0  0  0
  -19.0502  -28.6354   21.4071 C   0  0  0  0  0  0  0  0  0  0  0  0
  -29.3909  -12.6352   17.9986 C   0  0  0  0  0  0  0  0  0  0  0  0
  -20.2380  -27.7142   21.1476 C   0  0  0  0  0  0  0  0  0  0  0  0
  -27.9879  -12.3197   18.5222 C   0  0  0  0  0  0  0  0  0  0  0  0
  -30.4212  -12.6750   19.1258 C   0  0  0  0  0  0  0  0  0  0  0  0
  -28.6779  -13.2445   20.7707 C   0  0  0  0  0  0  0  0  0  0  0  0
  -20.8013  -27.1572   22.4606 C   0  0  1  0  0  0  0  0  0  0  0  0
  -23.5786  -29.4601   23.6507 C   0  0  1  0  0  0  0  0  0  0  0  0
  -27.5943  -13.2578   19.6801 C   0  0  2  0  0  0  0  0  0  0  0  0
  -29.9662  -33.5708   22.1330 C   0  0  0  0  0  0  0  0  0  0  0  0
  -25.8374  -29.0303   19.6415 C   0  0  0  0  0  0  0  0  0  0  0  0
  -28.0040  -30.2751   19.4854 C   0  0  0  0  0  0  0  0  0  0  0  0
  -25.8434  -31.5174   19.3794 C   0  0  0  0  0  0  0  0  0  0  0  0
  -28.4294  -32.9421   25.5563 C   0  0  0  0  0  0  0  0  0  0  0  0
  -30.2388  -18.5861   25.4096 C   0  0  0  0  0  0  0  0  0  0  0  0
  -29.9737  -20.0231   24.9464 C   0  0  0  0  0  0  0  0  0  0  0  0
  -29.2231  -20.8601   25.9883 C   0  0  0  0  0  0  0  0  0  0  0  0
  -29.0080  -22.2931   25.4946 C   0  0  0  0  0  0  0  0  0  0  0  0
  -28.2023  -23.1538   26.4681 C   0  0  0  0  0  0  0  0  0  0  0  0
  -27.9124  -24.5563   25.9506 C   0  0  0  0  0  0  0  0  0  1  0  0
  -26.6076  -30.5457   21.5848 C   0  0  1  0  0  0  0  0  0  0  0  0
  -28.8670  -33.1805   23.1088 C   0  0  2  0  0  0  0  0  0  0  0  0
  -26.5668  -30.3270   20.0460 C   0  0  0  0  0  0  0  0  0  0  0  0
  -25.8146  -11.6402   20.2252 N   0  0  0  0  0  0  0  0  0  0  0  0
  -26.2235  -12.9203   20.2360 N   0  0  0  0  0  0  0  0  0  0  0  0
  -24.9530  -29.6062   23.1671 N   0  0  0  0  0  0  0  0  0  0  0  0
  -29.9833  -13.5870   20.1847 N   0  0  0  0  0  0  0  0  0  0  0  0
  -25.5634  -15.1089   20.8564 N   0  0  0  0  0  0  0  0  0  0  0  0
  -22.0187  -12.5753   22.0446 N   0  0  0  0  0  0  0  0  0  0  0  0
  -30.2708  -15.4902   21.5477 N   0  0  0  0  0  0  0  0  0  0  0  0
  -21.6075  -28.1562   23.1288 N   0  0  0  0  0  0  0  0  0  0  0  0
  -27.2686  -31.7797   21.9957 N   0  0  0  0  0  0  0  0  0  0  0  0
  -29.4113  -33.2766   24.4928 N   0  3  0  0  0  0  0  0  0  0  0  0
  -22.8409  -14.7151   21.9832 O   0  0  0  0  0  0  0  0  0  0  0  0
  -23.6075  -27.7727   21.9994 O   0  0  0  0  0  0  0  0  0  0  0  0
  -24.4275  -31.4463   21.8352 O   0  0  0  0  0  0  0  0  0  0  0  0
  -28.8842  -30.7738   23.3205 O   0  0  0  0  0  0  0  0  0  0  0  0
  -31.8920  -14.8789   20.0050 O   0  0  0  0  0  0  0  0  0  0  0  0
  -21.5582   -7.0582   21.4244 O   0  0  0  0  0  0  0  0  0  0  0  0
  -27.1802  -25.2693   26.9465 O   0  0  0  0  0  0  0  0  0  1  0  0
  -19.0065   -6.3291   26.2577 F   0  0  0  0  0  0  0  0  0  0  0  0
  -22.1148   -4.8591   23.0045 F   0  0  0  0  0  0  0  0  0  0  0  0
  1  2  1  0  0  0  0
  1  6  2  0  0  0  0
  2  7  2  0  0  0  0
  3  9  2  0  0  0  0
  3 10  1  0  0  0  0
  4 11  2  0  0  0  0
  4 19  1  0  0  0  0
  5 12  1  0  0  0  0
  5 19  2  0  0  0  0
  6 21  1  0  0  0  0
  7 23  1  0  0  0  0
  8 13  2  0  0  0  0
  8 22  1  0  0  0  0
  9 25  1  0  0  0  0
 10 26  2  0  0  0  0
 11 27  1  0  0  0  0
 12 27  2  0  0  0  0
 13 28  1  0  0  0  0
 14 15  2  0  0  0  0
 14 29  1  0  0  0  0
 15 30  1  0  0  0  0
 16 24  1  0  0  0  0
 16 28  2  0  0  0  0
 17 25  2  0  0  0  0
 17 26  1  0  0  0  0
 18 30  2  0  0  0  0
 18 31  1  0  0  0  0
 19 32  1  0  0  0  0
 20 32  1  0  0  0  0
 20 33  2  0  0  0  0
 20 34  1  0  0  0  0
 21 23  2  0  0  0  0
 21 39  1  0  0  0  0
 22 24  2  0  0  0  0
 22 40  1  0  0  0  0
 23 48  1  0  0  0  0
 24 41  1  0  0  0  0
 25 56  1  0  0  0  0
 26 71  1  0  0  0  0
 27 80  1  0  0  0  0
 28 81  1  0  0  0  0
 29 31  2  0  0  0  0
 29 80  1  0  0  0  0
 30 82  1  0  0  0  0
 31 83  1  0  0  0  0
 32 65  2  0  0  0  0
 33 66  1  0  0  0  0
 33 69  1  0  0  0  0
 34 70  1  0  0  0  0
 34 75  2  0  0  0  0
 35 49  1  0  0  0  0
 35 72  1  0  0  0  0
 35 76  2  0  0  0  0
 36 62  1  0  0  0  0
 36 67  1  0  0  0  0
 36 77  2  0  0  0  0
 37 63  1  0  0  0  0
 37 73  1  0  0  0  0
 37 78  2  0  0  0  0
 38 68  1  0  0  0  0
 38 71  1  0  0  0  0
 38 79  2  0  0  0  0
 39 42  1  0  0  0  0
 40 49  1  0  0  0  0
 41 67  1  0  0  0  0
 42 44  1  0  0  0  0
 43 45  1  0  0  0  0
 43 46  1  0  0  0  0
 44 48  1  0  0  0  0
 45 50  1  0  0  0  0
 46 68  1  0  0  0  0
 47 50  1  0  0  0  0
 47 68  1  0  0  0  0
 48 72  1  0  0  0  0
 49 67  1  0  0  0  0
 50 66  1  0  0  0  0
 51 63  1  0  0  0  0
 52 64  1  0  0  0  0
 53 64  1  0  0  0  0
 54 64  1  0  0  0  0
 55 74  1  0  0  0  0
 56 57  1  0  0  0  0
 57 58  1  0  0  0  0
 58 59  1  0  0  0  0
 59 60  1  0  0  0  0
 60 61  1  0  0  0  0
 61 81  1  0  0  0  0
 62 64  1  0  0  0  0
 62 73  1  0  0  0  0
 63 74  1  0  0  0  0
 65 66  1  0  0  0  0
M  CHG  1  74   1
M  ISO  4  38 100  61 101  71 100  81 101
M  END
> <Batch ID>
0135

> <Smiles>
CNC(C)C(=O)NC(C(=O)N1Cc2cc([101O:1][101CH2:1]CCCCCc3cccc([100NH:0][100C:0](=O)N4CCCC(n5nc(-c6ccc(Oc7ccc(F)cc7F)cc6)c(C(N)=O)c5N)C4)c3)ccc2CC1C(=O)NC1CCCc2ccccc21)C(C)(C)C

> <Shape>
0.292

> <Color>
0.208

> <Negative vol penalty>
0.000

$$$$

  -OEChem-04052302363D

 85 93  0     1  0  0  0  0  0999 V2000
  -41.3629  -28.0422   18.2448 C   0  0  0  0  0  0  0  0  0  0  0  0
  -40.8245  -27.0908   19.1053 C   0  0  0  0  0  0  0  0  0  0  0  0
  -23.0795   -9.8638   19.9470 C   0  0  0  0  0  0  0  0  0  0  0  0
  -23.8354   -9.8798   22.2416 C   0  0  0  0  0  0  0  0  0  0  0  0
  -40.6618  -29.2182   17.9812 C   0  0  0  0  0  0  0  0  0  0  0  0
  -39.5851  -27.3153   19.7036 C   0  0  0  0  0  0  0  0  0  0  0  0
  -36.5838  -23.2396   19.5433 C   0  0  0  0  0  0  0  0  0  0  0  0
  -22.3362   -8.7109   20.1998 C   0  0  0  0  0  0  0  0  0  0  0  0
  -23.0921   -8.7269   22.4945 C   0  0  0  0  0  0  0  0  0  0  0  0
  -36.8373  -22.2255   20.4659 C   0  0  0  0  0  0  0  0  0  0  0  0
  -19.8636   -7.9284   23.0943 C   0  0  0  0  0  0  0  0  0  0  0  0
  -19.1046   -7.8920   24.2640 C   0  0  0  0  0  0  0  0  0  0  0  0
  -35.0355  -23.0403   21.8475 C   0  0  0  0  0  0  0  0  0  0  0  0
  -30.4902  -18.3600   24.0351 C   0  0  0  0  0  0  0  0  0  0  0  0
  -32.0577  -16.6082   22.5329 C   0  0  0  0  0  0  0  0  0  0  0  0
  -20.3465   -5.9583   25.0097 C   0  0  0  0  0  0  0  0  0  0  0  0
  -23.8291  -10.4483   20.9679 C   0  0  0  0  0  0  0  0  0  0  0  0
  -24.1689  -12.9733   20.8393 C   0  0  0  0  0  0  0  0  0  0  0  0
  -39.4087  -29.4529   18.5690 C   0  0  0  0  0  0  0  0  0  0  0  0
  -35.5596  -24.1698   19.7717 C   0  0  0  0  0  0  0  0  0  0  0  0
  -38.8672  -28.4961   19.4486 C   0  0  0  0  0  0  0  0  0  0  0  0
  -34.7694  -24.0637   20.9251 C   0  0  0  0  0  0  0  0  0  0  0  0
  -31.8773  -18.3650   24.1816 C   0  0  0  0  0  0  0  0  0  0  0  0
  -29.8867  -17.4790   23.1376 C   0  0  0  0  0  0  0  0  0  0  0  0
  -32.6610  -17.4891   23.4305 C   0  0  0  0  0  0  0  0  0  0  0  0
  -30.6705  -16.6031   22.3865 C   0  0  0  0  0  0  0  0  0  0  0  0
  -22.3425   -8.1425   21.4736 C   0  0  0  0  0  0  0  0  0  0  0  0
  -36.0650  -22.1275   21.6196 C   0  0  0  0  0  0  0  0  0  0  0  0
  -20.8640   -6.9797   22.8822 C   0  0  0  0  0  0  0  0  0  0  0  0
  -19.3461   -6.9070   25.2217 C   0  0  0  0  0  0  0  0  0  0  0  0
  -21.1054   -5.9947   23.8399 C   0  0  0  0  0  0  0  0  0  0  0  0
  -24.5976  -11.6389   20.7071 C   0  0  0  0  0  0  0  0  0  0  0  0
  -25.2610  -13.7224   20.4752 C   0  0  0  0  0  0  0  0  0  0  0  0
  -22.8972  -13.4894   21.2541 C   0  0  0  0  0  0  0  0  0  0  0  0
  -35.4393  -27.3210   20.1706 C   0  0  0  0  0  0  0  0  0  0  0  0
  -32.2358  -26.8135   20.1201 C   0  0  0  0  0  0  0  0  0  0  0  0
  -29.6371  -24.6522   20.5915 C   0  0  0  0  0  0  0  0  0  0  0  0
  -30.7259  -14.7736   20.6556 C   0  0  0  0  0  0  0  0  0  0  0  0
  -38.7098  -30.7601   18.2909 C   0  0  0  0  0  0  0  0  0  0  0  0
  -35.2814  -25.2417   18.7538 C   0  0  0  0  0  0  0  0  0  0  0  0
  -33.6447  -25.0250   21.2071 C   0  0  0  0  0  0  0  0  0  0  0  0
  -37.2317  -30.7537   18.6719 C   0  0  0  0  0  0  0  0  0  0  0  0
  -29.6178  -12.3502   18.2942 C   0  0  0  0  0  0  0  0  0  0  0  0
  -37.0408  -30.1503   20.0599 C   0  0  0  0  0  0  0  0  0  0  0  0
  -28.1777  -12.0589   18.7223 C   0  0  0  0  0  0  0  0  0  0  0  0
  -30.5306  -12.5842   19.4966 C   0  0  0  0  0  0  0  0  0  0  0  0
  -28.6206  -13.3119   20.8719 C   0  0  0  0  0  0  0  0  0  0  0  0
  -37.5142  -28.6922   20.0974 C   0  0  1  0  0  0  0  0  0  0  0  0
  -34.5470  -26.4445   19.3380 C   0  0  1  0  0  0  0  0  0  0  0  0
  -27.6500  -13.1335   19.6930 C   0  0  2  0  0  0  0  0  0  0  0  0
  -32.5009  -19.3168   25.1489 C   0  0  0  0  0  0  0  0  0  0  0  0
  -28.3988  -17.4955   23.0010 C   0  0  0  0  0  0  0  0  0  0  0  0
  -27.1316  -24.5366   20.5106 C   0  0  0  0  0  0  0  0  0  0  0  0
  -32.0835  -28.3068   22.7766 C   0  0  0  0  0  0  0  0  0  0  0  0
  -29.7928  -27.3506   23.1031 C   0  0  0  0  0  0  0  0  0  0  0  0
  -30.2505  -28.8539   21.1657 C   0  0  0  0  0  0  0  0  0  0  0  0
  -36.9534  -17.4120   22.2717 C   0  0  0  0  0  0  0  0  0  0  0  0
  -36.8811  -18.8930   24.2938 C   0  0  0  0  0  0  0  0  0  0  0  0
  -29.6851  -22.5840   18.4751 C   0  0  0  0  0  0  0  0  0  0  0  0
  -34.1641  -17.4762   23.5721 C   0  0  0  0  0  0  0  0  0  0  0  0
  -34.8056  -18.6566   22.8294 C   0  0  0  0  0  0  0  0  0  0  0  0
  -36.8408  -19.9145   22.0159 C   0  0  0  0  0  0  0  0  0  1  0  0
  -31.1857  -26.5050   21.1599 C   0  0  1  0  0  0  0  0  0  0  0  0
  -28.4244  -24.3332   19.7359 C   0  0  2  0  0  0  0  0  0  0  0  0
  -30.8505  -27.7370   22.0472 C   0  0  0  0  0  0  0  0  0  0  0  0
  -36.3601  -18.7068   22.8577 C   0  0  0  0  0  0  0  0  0  0  0  0
  -25.8633  -11.5427   20.2914 N   0  0  0  0  0  0  0  0  0  0  0  0
  -26.2392  -12.8261   20.1591 N   0  0  0  0  0  0  0  0  0  0  0  0
  -33.4161  -26.0595   20.1848 N   0  0  0  0  0  0  0  0  0  0  0  0
  -29.9692  -13.6177   20.3692 N   0  0  0  0  0  0  0  0  0  0  0  0
  -25.4703  -15.0538   20.3977 N   0  0  0  0  0  0  0  0  0  0  0  0
  -21.8855  -12.5806   21.5929 N   0  0  0  0  0  0  0  0  0  0  0  0
  -30.0763  -15.7010   21.4695 N   0  0  0  0  0  0  0  0  0  0  0  0
  -36.5292  -27.8252   19.4871 N   0  0  0  0  0  0  0  0  0  0  0  0
  -30.0418  -25.9611   20.4360 N   0  0  0  0  0  0  0  0  0  0  0  0
  -28.4761  -22.9182   19.2711 N   0  3  0  0  0  0  0  0  0  0  0  0
  -22.6598  -14.7200   21.3066 O   0  0  0  0  0  0  0  0  0  0  0  0
  -35.1588  -27.5260   21.3458 O   0  0  0  0  0  0  0  0  0  0  0  0
  -32.0140  -27.6862   19.2770 O   0  0  0  0  0  0  0  0  0  0  0  0
  -30.1696  -23.8242   21.3273 O   0  0  0  0  0  0  0  0  0  0  0  0
  -31.8557  -14.9416   20.1893 O   0  0  0  0  0  0  0  0  0  0  0  0
  -21.6171   -7.0176   21.7207 O   0  0  0  0  0  0  0  0  0  0  0  0
  -36.3108  -21.1390   22.5220 O   0  0  0  0  0  0  0  0  0  1  0  0
  -18.6182   -6.8731   26.3456 F   0  0  0  0  0  0  0  0  0  0  0  0
  -22.0659   -5.0813   23.6422 F   0  0  0  0  0  0  0  0  0  0  0  0
  1  2  1  0  0  0  0
  1  5  2  0  0  0  0
  2  6  2  0  0  0  0
  3  8  2  0  0  0  0
  3 17  1  0  0  0  0
  4  9  1  0  0  0  0
  4 17  2  0  0  0  0
  5 19  1  0  0  0  0
  6 21  1  0  0  0  0
  7 10  2  0  0  0  0
  7 20  1  0  0  0  0
  8 27  1  0  0  0  0
  9 27  2  0  0  0  0
 10 28  1  0  0  0  0
 11 12  2  0  0  0  0
 11 29  1  0  0  0  0
 12 30  1  0  0  0  0
 13 22  1  0  0  0  0
 13 28  2  0  0  0  0
 14 23  1  0  0  0  0
 14 24  2  0  0  0  0
 15 25  1  0  0  0  0
 15 26  2  0  0  0  0
 16 30  2  0  0  0  0
 16 31  1  0  0  0  0
 17 32  1  0  0  0  0
 18 32  1  0  0  0  0
 18 33  2  0  0  0  0
 18 34  1  0  0  0  0
 19 21  2  0  0  0  0
 19 39  1  0  0  0  0
 20 22  2  0  0  0  0
 20 40  1  0  0  0  0
 21 48  1  0  0  0  0
 22 41  1  0  0  0  0
 23 25  2  0  0  0  0
 23 51  1  0  0  0  0
 24 26  1  0  0  0  0
 24 52  1  0  0  0  0
 25 60  1  0  0  0  0
 26 73  1  0  0  0  0
 27 82  1  0  0  0  0
 28 83  1  0  0  0  0
 29 31  2  0  0  0  0
 29 82  1  0  0  0  0
 30 84  1  0  0  0  0
 31 85  1  0  0  0  0
 32 67  2  0  0  0  0
 33 68  1  0  0  0  0
 33 71  1  0  0  0  0
 34 72  1  0  0  0  0
 34 77  2  0  0  0  0
 35 49  1  0  0  0  0
 35 74  1  0  0  0  0
 35 78  2  0  0  0  0
 36 63  1  0  0  0  0
 36 69  1  0  0  0  0
 36 79  2  0  0  0  0
 37 64  1  0  0  0  0
 37 75  1  0  0  0  0
 37 80  2  0  0  0  0
 38 70  1  0  0  0  0
 38 73  1  0  0  0  0
 38 81  2  0  0  0  0
 39 42  1  0  0  0  0
 40 49  1  0  0  0  0
 41 69  1  0  0  0  0
 42 44  1  0  0  0  0
 43 45  1  0  0  0  0
 43 46  1  0  0  0  0
 44 48  1  0  0  0  0
 45 50  1  0  0  0  0
 46 70  1  0  0  0  0
 47 50  1  0  0  0  0
 47 70  1  0  0  0  0
 48 74  1  0  0  0  0
 49 69  1  0  0  0  0
 50 68  1  0  0  0  0
 53 64  1  0  0  0  0
 54 65  1  0  0  0  0
 55 65  1  0  0  0  0
 56 65  1  0  0  0  0
 57 66  1  0  0  0  0
 58 66  1  0  0  0  0
 59 76  1  0  0  0  0
 60 61  1  0  0  0  0
 61 66  1  0  0  0  0
 62 66  1  0  0  0  0
 62 83  1  0  0  0  0
 63 65  1  0  0  0  0
 63 75  1  0  0  0  0
 64 76  1  0  0  0  0
 67 68  1  0  0  0  0
M  CHG  1  76   1
M  ISO  4  38 100  62 101  73 100  83 101
M  END
> <Batch ID>
0135

> <Smiles>
CNC(C)C(=O)NC(C(=O)N1Cc2cc([101O:1][101CH2:1]C(C)(C)CCc3cc([100NH:0][100C:0](=O)N4CCCC(n5nc(-c6ccc(Oc7ccc(F)cc7F)cc6)c(C(N)=O)c5N)C4)c(C)cc3C)ccc2CC1C(=O)NC1CCCc2ccccc21)C(C)(C)C

> <Shape>
0.216

> <Color>
0.196

> <Negative vol penalty>
0.000

$$$$

  -OEChem-04052302363D

 83 91  0     1  0  0  0  0  0999 V2000
  -28.6404  -11.1460   19.2780 C   0  0  0  0  0  0  0  0  0  0  0  0
  -28.7466  -12.5173   19.0690 C   0  0  0  0  0  0  0  0  0  0  0  0
  -20.8068  -26.0275   23.3829 C   0  0  0  0  0  0  0  0  0  0  0  0
  -19.3508  -26.7765   21.6063 C   0  0  0  0  0  0  0  0  0  0  0  0
  -28.2864  -28.8303   19.3186 C   0  0  0  0  0  0  0  0  0  0  0  0
  -27.4537  -10.6073   19.7736 C   0  0  0  0  0  0  0  0  0  0  0  0
  -27.6656  -13.3507   19.3545 C   0  0  0  0  0  0  0  0  0  0  0  0
  -29.0439  -17.5310   21.8585 C   0  0  0  0  0  0  0  0  0  0  0  0
  -28.9422  -27.6207   19.0900 C   0  0  0  0  0  0  0  0  0  0  0  0
  -19.6940  -25.6721   24.1451 C   0  0  0  0  0  0  0  0  0  0  0  0
  -18.2380  -26.4210   22.3685 C   0  0  0  0  0  0  0  0  0  0  0  0
  -29.6279  -18.5554   21.1147 C   0  0  0  0  0  0  0  0  0  0  0  0
  -17.2434  -24.2336   26.4123 C   0  0  0  0  0  0  0  0  0  0  0  0
  -17.2686  -22.9985   27.0599 C   0  0  0  0  0  0  0  0  0  0  0  0
  -27.5167  -19.7218   21.0746 C   0  0  0  0  0  0  0  0  0  0  0  0
  -29.5239  -27.4936   21.4314 C   0  0  0  0  0  0  0  0  0  0  0  0
  -17.5032  -21.8856   24.9283 C   0  0  0  0  0  0  0  0  0  0  0  0
  -20.6352  -26.5798   22.1135 C   0  0  0  0  0  0  0  0  0  0  0  0
  -28.2494  -29.3717   20.6035 C   0  0  0  0  0  0  0  0  0  0  0  0
  -22.4830  -26.1371   20.4113 C   0  0  0  0  0  0  0  0  0  0  0  0
  -26.3610  -11.4357   20.0744 C   0  0  0  0  0  0  0  0  0  0  0  0
  -27.6869  -17.5892   22.2073 C   0  0  0  0  0  0  0  0  0  0  0  0
  -26.4628  -12.8225   19.8534 C   0  0  0  0  0  0  0  0  0  0  0  0
  -26.9185  -18.6981   21.8251 C   0  0  0  0  0  0  0  0  0  0  0  0
  -29.5609  -26.9523   20.1465 C   0  0  0  0  0  0  0  0  0  0  0  0
  -28.8681  -28.7033   21.6600 C   0  0  0  0  0  0  0  0  0  0  0  0
  -18.4096  -25.8688   23.6379 C   0  0  0  0  0  0  0  0  0  0  0  0
  -28.8636  -19.6496   20.7201 C   0  0  0  0  0  0  0  0  0  0  0  0
  -17.3480  -24.2947   25.0227 C   0  0  0  0  0  0  0  0  0  0  0  0
  -17.3986  -21.8245   26.3180 C   0  0  0  0  0  0  0  0  0  0  0  0
  -17.4779  -23.1207   24.2807 C   0  0  0  0  0  0  0  0  0  0  0  0
  -21.7843  -26.9478   21.3260 C   0  0  0  0  0  0  0  0  0  0  0  0
  -23.4839  -26.9457   19.9308 C   0  0  0  0  0  0  0  0  0  0  0  0
  -27.5504  -30.6457   20.8157 C   0  0  0  0  0  0  0  0  0  0  0  0
  -22.2482  -24.7750   20.0302 C   0  0  0  0  0  0  0  0  0  0  0  0
  -25.1322  -15.8033   21.5845 C   0  0  0  0  0  0  0  0  0  0  0  0
  -23.6975  -17.8130   23.6881 C   0  0  0  0  0  0  0  0  0  0  0  0
  -23.6619  -20.8642   25.2164 C   0  0  0  0  0  0  0  0  0  0  0  0
  -25.0828  -10.8020   20.5636 C   0  0  0  0  0  0  0  0  0  0  0  0
  -27.0785  -16.4889   23.0329 C   0  0  0  0  0  0  0  0  0  0  0  0
  -25.4625  -18.8181   22.1914 C   0  0  0  0  0  0  0  0  0  0  0  0
  -24.1122  -11.7972   21.1943 C   0  0  0  0  0  0  0  0  0  0  0  0
  -24.2394  -31.9216   20.4267 C   0  0  0  0  0  0  0  0  0  0  0  0
  -23.9763  -13.0387   20.3185 C   0  0  0  0  0  0  0  0  0  0  0  0
  -23.3586  -30.6791   20.5700 C   0  0  0  0  0  0  0  0  0  0  0  0
  -25.4600  -31.8557   21.3412 C   0  0  0  0  0  0  0  0  0  0  0  0
  -25.3954  -29.3858   21.3313 C   0  0  0  0  0  0  0  0  0  0  0  0
  -25.3207  -13.7620   20.1744 C   0  0  1  0  0  0  0  0  0  0  0  0
  -25.5617  -16.4054   22.8924 C   0  0  1  0  0  0  0  0  0  0  0  0
  -24.1804  -29.3890   20.3891 C   0  0  1  0  0  0  0  0  0  0  0  0
  -28.8422  -29.2600   23.0461 C   0  0  0  0  0  0  0  0  0  0  0  0
  -22.3443  -22.2296   26.8587 C   0  0  0  0  0  0  0  0  0  0  0  0
  -21.5853  -18.3414   21.5505 C   0  0  0  0  0  0  0  0  0  0  0  0
  -20.8771  -20.3617   22.8487 C   0  0  0  0  0  0  0  0  0  0  0  0
  -20.6832  -18.0940   23.8698 C   0  0  0  0  0  0  0  0  0  0  0  0
  -31.1316  -22.8589   20.8886 C   0  0  0  0  0  0  0  0  0  0  0  0
  -30.4925  -22.8502   18.4639 C   0  0  0  0  0  0  0  0  0  0  0  0
  -25.9577  -21.0577   27.0741 C   0  0  0  0  0  0  0  0  0  0  0  0
  -30.2723  -25.6440   19.8982 C   0  0  0  0  0  0  0  0  0  0  0  0
  -29.3228  -24.4501   20.0702 C   0  0  0  0  0  0  0  0  0  0  0  0
  -28.8934  -21.9614   20.1630 C   0  0  0  0  0  0  0  0  0  1  0  0
  -22.9705  -19.1317   23.5810 C   0  0  1  0  0  0  0  0  0  0  0  0
  -23.5006  -21.2593   26.6732 C   0  0  2  0  0  0  0  0  0  0  0  0
  -21.5559  -18.9793   22.9538 C   0  0  0  0  0  0  0  0  0  0  0  0
  -29.9675  -23.0450   19.8975 C   0  0  0  0  0  0  0  0  0  0  0  0
  -22.2980  -28.1769   21.4225 N   0  0  0  0  0  0  0  0  0  0  0  0
  -23.3301  -28.1446   20.5624 N   0  0  0  0  0  0  0  0  0  0  0  0
  -26.1918  -30.6059   21.1382 N   0  0  0  0  0  0  0  0  0  0  0  0
  -24.9118  -17.7137   22.9941 N   0  0  0  0  0  0  0  0  0  0  0  0
  -24.4718  -26.7409   19.0338 N   0  0  0  0  0  0  0  0  0  0  0  0
  -21.1769  -24.0911   20.6209 N   0  0  0  0  0  0  0  0  0  0  0  0
  -25.6138  -14.5264   21.3678 N   0  0  0  0  0  0  0  0  0  0  0  0
  -22.9709  -19.7081   24.9212 N   0  0  0  0  0  0  0  0  0  0  0  0
  -24.7445  -21.9092   27.1745 N   0  3  0  0  0  0  0  0  0  0  0  0
  -28.2250  -31.6651   20.6786 O   0  0  0  0  0  0  0  0  0  0  0  0
  -22.9770  -24.1769   19.2029 O   0  0  0  0  0  0  0  0  0  0  0  0
  -24.4156  -16.4489   20.8285 O   0  0  0  0  0  0  0  0  0  0  0  0
  -23.2097  -16.9070   24.3684 O   0  0  0  0  0  0  0  0  0  0  0  0
  -24.3308  -21.5180   24.4191 O   0  0  0  0  0  0  0  0  0  0  0  0
  -17.3235  -25.5218   24.3812 O   0  0  0  0  0  0  0  0  0  0  0  0
  -29.4310  -20.6505   19.9934 O   0  0  0  0  0  0  0  0  0  1  0  0
  -17.4244  -20.6386   26.9402 F   0  0  0  0  0  0  0  0  0  0  0  0
  -17.5800  -23.1732   22.9456 F   0  0  0  0  0  0  0  0  0  0  0  0
  1  2  1  0  0  0  0
  1  6  2  0  0  0  0
  2  7  2  0  0  0  0
  3 10  2  0  0  0  0
  3 18  1  0  0  0  0
  4 11  1  0  0  0  0
  4 18  2  0  0  0  0
  5  9  2  0  0  0  0
  5 19  1  0  0  0  0
  6 21  1  0  0  0  0
  7 23  1  0  0  0  0
  8 12  2  0  0  0  0
  8 22  1  0  0  0  0
  9 25  1  0  0  0  0
 10 27  1  0  0  0  0
 11 27  2  0  0  0  0
 12 28  1  0  0  0  0
 13 14  2  0  0  0  0
 13 29  1  0  0  0  0
 14 30  1  0  0  0  0
 15 24  1  0  0  0  0
 15 28  2  0  0  0  0
 16 25  2  0  0  0  0
 16 26  1  0  0  0  0
 17 30  2  0  0  0  0
 17 31  1  0  0  0  0
 18 32  1  0  0  0  0
 19 26  2  0  0  0  0
 19 34  1  0  0  0  0
 20 32  1  0  0  0  0
 20 33  2  0  0  0  0
 20 35  1  0  0  0  0
 21 23  2  0  0  0  0
 21 39  1  0  0  0  0
 22 24  2  0  0  0  0
 22 40  1  0  0  0  0
 23 48  1  0  0  0  0
 24 41  1  0  0  0  0
 25 59  1  0  0  0  0
 26 51  1  0  0  0  0
 27 80  1  0  0  0  0
 28 81  1  0  0  0  0
 29 31  2  0  0  0  0
 29 80  1  0  0  0  0
 30 82  1  0  0  0  0
 31 83  1  0  0  0  0
 32 66  2  0  0  0  0
 33 67  1  0  0  0  0
 33 70  1  0  0  0  0
 34 68  1  0  0  0  0
 34 75  2  0  0  0  0
 35 71  1  0  0  0  0
 35 76  2  0  0  0  0
 36 49  1  0  0  0  0
 36 72  1  0  0  0  0
 36 77  2  0  0  0  0
 37 62  1  0  0  0  0
 37 69  1  0  0  0  0
 37 78  2  0  0  0  0
 38 63  1  0  0  0  0
 38 73  1  0  0  0  0
 38 79  2  0  0  0  0
 39 42  1  0  0  0  0
 40 49  1  0  0  0  0
 41 69  1  0  0  0  0
 42 44  1  0  0  0  0
 43 45  1  0  0  0  0
 43 46  1  0  0  0  0
 44 48  1  0  0  0  0
 45 50  1  0  0  0  0
 46 68  1  0  0  0  0
 47 50  1  0  0  0  0
 47 68  1  0  0  0  0
 48 72  1  0  0  0  0
 49 69  1  0  0  0  0
 50 67  1  0  0  0  0
 52 63  1  0  0  0  0
 53 64  1  0  0  0  0
 54 64  1  0  0  0  0
 55 64  1  0  0  0  0
 56 65  1  0  0  0  0
 57 65  1  0  0  0  0
 58 74  1  0  0  0  0
 59 60  1  0  0  0  0
 60 65  1  0  0  0  0
 61 65  1  0  0  0  0
 61 81  1  0  0  0  0
 62 64  1  0  0  0  0
 62 73  1  0  0  0  0
 63 74  1  0  0  0  0
 66 67  1  0  0  0  0
M  CHG  1  74   1
M  ISO  4  19 100  34 100  61 101  81 101
M  END
> <Batch ID>
0135

> <Smiles>
CNC(C)C(=O)NC(C(=O)N1Cc2cc([101O:1][101CH2:1]C(C)(C)CCc3cc[100c:0]([100C:0](=O)N4CCCC(n5nc(-c6ccc(Oc7ccc(F)cc7F)cc6)c(C(N)=O)c5N)C4)c(C)c3)ccc2CC1C(=O)NC1CCCc2ccccc21)C(C)(C)C

> <Shape>
0.233

> <Color>
0.059

> <Negative vol penalty>
0.000

$$$$

  -OEChem-04052302363D

 83 91  0     1  0  0  0  0  0999 V2000
  -19.5637  -25.3207   24.1118 C   0  0  0  0  0  0  0  0  0  0  0  0
  -20.4412  -25.3462   23.0325 C   0  0  0  0  0  0  0  0  0  0  0  0
  -24.0550  -16.6320   22.4556 C   0  0  0  0  0  0  0  0  0  0  0  0
  -23.9842  -17.0528   20.0776 C   0  0  0  0  0  0  0  0  0  0  0  0
  -18.8903  -26.4818   24.4888 C   0  0  0  0  0  0  0  0  0  0  0  0
  -20.6449  -26.5327   22.3289 C   0  0  0  0  0  0  0  0  0  0  0  0
  -25.5396  -27.4049   21.3668 C   0  0  0  0  0  0  0  0  0  0  0  0
  -27.8473  -19.8648   17.3366 C   0  0  0  0  0  0  0  0  0  0  0  0
  -28.2091  -20.6307   19.5992 C   0  0  0  0  0  0  0  0  0  0  0  0
  -28.3489  -18.6098   17.6812 C   0  0  0  0  0  0  0  0  0  0  0  0
  -28.7108  -19.3756   19.9439 C   0  0  0  0  0  0  0  0  0  0  0  0
  -23.3806  -17.8307   22.6878 C   0  0  0  0  0  0  0  0  0  0  0  0
  -23.3098  -18.2515   20.3098 C   0  0  0  0  0  0  0  0  0  0  0  0
  -26.1193  -26.6921   20.3182 C   0  0  0  0  0  0  0  0  0  0  0  0
  -21.8881  -21.5964   20.2961 C   0  0  0  0  0  0  0  0  0  0  0  0
  -22.3118  -22.7251   19.5946 C   0  0  0  0  0  0  0  0  0  0  0  0
  -25.8756  -28.6160   18.8836 C   0  0  0  0  0  0  0  0  0  0  0  0
  -24.5028  -22.5228   20.5925 C   0  0  0  0  0  0  0  0  0  0  0  0
  -24.3568  -16.2430   21.1505 C   0  0  0  0  0  0  0  0  0  0  0  0
  -24.4837  -13.7350   20.7020 C   0  0  0  0  0  0  0  0  0  0  0  0
  -19.0932  -27.6855   23.7955 C   0  0  0  0  0  0  0  0  0  0  0  0
  -25.1130  -28.7274   21.1783 C   0  0  0  0  0  0  0  0  0  0  0  0
  -19.9725  -27.7108   22.6962 C   0  0  0  0  0  0  0  0  0  0  0  0
  -25.2932  -29.3443   19.9321 C   0  0  0  0  0  0  0  0  0  0  0  0
  -27.7774  -20.8753   18.2956 C   0  0  0  0  0  0  0  0  0  0  0  0
  -28.7807  -18.3652   18.9848 C   0  0  0  0  0  0  0  0  0  0  0  0
  -23.0080  -18.6405   21.6149 C   0  0  0  0  0  0  0  0  0  0  0  0
  -26.2847  -27.2966   19.0755 C   0  0  0  0  0  0  0  0  0  0  0  0
  -22.7717  -20.9310   21.1459 C   0  0  0  0  0  0  0  0  0  0  0  0
  -23.6192  -23.1883   19.7428 C   0  0  0  0  0  0  0  0  0  0  0  0
  -24.0791  -21.3942   21.2941 C   0  0  0  0  0  0  0  0  0  0  0  0
  -25.0539  -15.0052   20.9100 C   0  0  0  0  0  0  0  0  0  0  0  0
  -25.5598  -12.9009   20.5215 C   0  0  0  0  0  0  0  0  0  0  0  0
  -23.1045  -13.3440   20.6743 C   0  0  0  0  0  0  0  0  0  0  0  0
  -22.3142  -30.2257   21.3381 C   0  0  0  0  0  0  0  0  0  0  0  0
  -24.1426  -32.8660   20.8820 C   0  0  0  0  0  0  0  0  0  0  0  0
  -27.0485  -34.2087   19.6989 C   0  0  0  0  0  0  0  0  0  0  0  0
  -29.7599  -16.6832   20.5841 C   0  0  0  0  0  0  0  0  0  0  0  0
  -18.3068  -28.9037   24.2106 C   0  0  0  0  0  0  0  0  0  0  0  0
  -24.5139  -29.4915   22.3270 C   0  0  0  0  0  0  0  0  0  0  0  0
  -24.8706  -30.7685   19.6838 C   0  0  0  0  0  0  0  0  0  0  0  0
  -18.8627  -30.2088   23.6465 C   0  0  0  0  0  0  0  0  0  0  0  0
  -29.0644  -13.8408   22.7931 C   0  0  0  0  0  0  0  0  0  0  0  0
  -19.1712  -30.0594   22.1601 C   0  0  0  0  0  0  0  0  0  0  0  0
  -28.6597  -12.7205   21.8430 C   0  0  0  0  0  0  0  0  0  0  0  0
  -30.0657  -14.7768   22.1334 C   0  0  0  0  0  0  0  0  0  0  0  0
  -29.0760  -14.3077   19.8931 C   0  0  0  0  0  0  0  0  0  0  0  0
  -20.2388  -28.9844   21.9235 C   0  0  1  0  0  0  0  0  0  0  0  0
  -23.6465  -30.6633   21.8776 C   0  0  1  0  0  0  0  0  0  0  0  0
  -28.1232  -13.2596   20.5081 C   0  0  2  0  0  0  0  0  0  0  0  0
  -28.2409  -36.4008   19.4330 C   0  0  0  0  0  0  0  0  0  0  0  0
  -22.3195  -33.5707   18.5390 C   0  0  0  0  0  0  0  0  0  0  0  0
  -24.0682  -35.1808   17.7529 C   0  0  0  0  0  0  0  0  0  0  0  0
  -22.9760  -35.5131   19.9709 C   0  0  0  0  0  0  0  0  0  0  0  0
  -26.9021  -24.6050   15.9110 C   0  0  0  0  0  0  0  0  0  0  0  0
  -29.1227  -25.4787   16.6811 C   0  0  0  0  0  0  0  0  0  0  0  0
  -29.3028  -33.3211   21.3987 C   0  0  0  0  0  0  0  0  0  0  0  0
  -27.2344  -22.2337   17.9225 C   0  0  0  0  0  0  0  0  0  0  0  0
  -28.3501  -23.1653   17.4287 C   0  0  0  0  0  0  0  0  0  0  0  0
  -27.2498  -25.2595   18.3176 C   0  0  0  0  0  0  0  0  0  1  0  0
  -24.6364  -33.6293   19.6768 C   0  0  1  0  0  0  0  0  0  0  0  0
  -28.0342  -35.1824   20.3193 C   0  0  2  0  0  0  0  0  0  0  0  0
  -23.5064  -34.4460   18.9887 C   0  0  0  0  0  0  0  0  0  0  0  0
  -27.9112  -24.6150   17.0744 C   0  0  0  0  0  0  0  0  0  0  0  0
  -26.3887  -14.9846   20.8661 N   0  0  0  0  0  0  0  0  0  0  0  0
  -26.6662  -13.6913   20.6286 N   0  0  0  0  0  0  0  0  0  0  0  0
  -24.2841  -31.4718   20.8365 N   0  0  0  0  0  0  0  0  0  0  0  0
  -29.5813  -15.3041   20.8555 N   0  0  0  0  0  0  0  0  0  0  0  0
  -25.6583  -11.5757   20.2834 N   0  0  0  0  0  0  0  0  0  0  0  0
  -22.1270  -14.3276   20.8782 N   0  0  0  0  0  0  0  0  0  0  0  0
  -29.2900  -17.0903   19.3352 N   0  0  0  0  0  0  0  0  0  0  0  0
  -21.5541  -29.5010   22.2361 N   0  0  0  0  0  0  0  0  0  0  0  0
  -25.7612  -34.4363   20.1374 N   0  0  0  0  0  0  0  0  0  0  0  0
  -29.3542  -34.5221   20.5258 N   0  3  0  0  0  0  0  0  0  0  0  0
  -22.7500  -12.1548   20.4910 O   0  0  0  0  0  0  0  0  0  0  0  0
  -21.9985  -30.5249   20.1924 O   0  0  0  0  0  0  0  0  0  0  0  0
  -23.6560  -33.4846   21.8319 O   0  0  0  0  0  0  0  0  0  0  0  0
  -27.3862  -33.3362   18.9019 O   0  0  0  0  0  0  0  0  0  0  0  0
  -30.3073  -17.4398   21.3903 O   0  0  0  0  0  0  0  0  0  0  0  0
  -22.3498  -19.8101   21.8411 O   0  0  0  0  0  0  0  0  0  0  0  0
  -26.8496  -26.6028   18.0501 O   0  0  0  0  0  0  0  0  0  1  0  0
  -24.0264  -24.2713   19.0678 F   0  0  0  0  0  0  0  0  0  0  0  0
  -24.9328  -20.7583   22.1081 F   0  0  0  0  0  0  0  0  0  0  0  0
  1  2  1  0  0  0  0
  1  5  2  0  0  0  0
  2  6  2  0  0  0  0
  3 12  2  0  0  0  0
  3 19  1  0  0  0  0
  4 13  1  0  0  0  0
  4 19  2  0  0  0  0
  5 21  1  0  0  0  0
  6 23  1  0  0  0  0
  7 14  2  0  0  0  0
  7 22  1  0  0  0  0
  8 10  2  0  0  0  0
  8 25  1  0  0  0  0
  9 11  1  0  0  0  0
  9 25  2  0  0  0  0
 10 26  1  0  0  0  0
 11 26  2  0  0  0  0
 12 27  1  0  0  0  0
 13 27  2  0  0  0  0
 14 28  1  0  0  0  0
 15 16  2  0  0  0  0
 15 29  1  0  0  0  0
 16 30  1  0  0  0  0
 17 24  1  0  0  0  0
 17 28  2  0  0  0  0
 18 30  2  0  0  0  0
 18 31  1  0  0  0  0
 19 32  1  0  0  0  0
 20 32  1  0  0  0  0
 20 33  2  0  0  0  0
 20 34  1  0  0  0  0
 21 23  2  0  0  0  0
 21 39  1  0  0  0  0
 22 24  2  0  0  0  0
 22 40  1  0  0  0  0
 23 48  1  0  0  0  0
 24 41  1  0  0  0  0
 25 58  1  0  0  0  0
 26 71  1  0  0  0  0
 27 80  1  0  0  0  0
 28 81  1  0  0  0  0
 29 31  2  0  0  0  0
 29 80  1  0  0  0  0
 30 82  1  0  0  0  0
 31 83  1  0  0  0  0
 32 65  2  0  0  0  0
 33 66  1  0  0  0  0
 33 69  1  0  0  0  0
 34 70  1  0  0  0  0
 34 75  2  0  0  0  0
 35 49  1  0  0  0  0
 35 72  1  0  0  0  0
 35 76  2  0  0  0  0
 36 61  1  0  0  0  0
 36 67  1  0  0  0  0
 36 77  2  0  0  0  0
 37 62  1  0  0  0  0
 37 73  1  0  0  0  0
 37 78  2  0  0  0  0
 38 68  1  0  0  0  0
 38 71  1  0  0  0  0
 38 79  2  0  0  0  0
 39 42  1  0  0  0  0
 40 49  1  0  0  0  0
 41 67  1  0  0  0  0
 42 44  1  0  0  0  0
 43 45  1  0  0  0  0
 43 46  1  0  0  0  0
 44 48  1  0  0  0  0
 45 50  1  0  0  0  0
 46 68  1  0  0  0  0
 47 50  1  0  0  0  0
 47 68  1  0  0  0  0
 48 72  1  0  0  0  0
 49 67  1  0  0  0  0
 50 66  1  0  0  0  0
 51 62  1  0  0  0  0
 52 63  1  0  0  0  0
 53 63  1  0  0  0  0
 54 63  1  0  0  0  0
 55 64  1  0  0  0  0
 56 64  1  0  0  0  0
 57 74  1  0  0  0  0
 58 59  1  0  0  0  0
 59 64  1  0  0  0  0
 60 64  1  0  0  0  0
 60 81  1  0  0  0  0
 61 63  1  0  0  0  0
 61 73  1  0  0  0  0
 62 74  1  0  0  0  0
 65 66  1  0  0  0  0
M  CHG  1  74   1
M  ISO  4  38 100  60 101  71 100  81 101
M  END
> <Batch ID>
0135

> <Smiles>
CNC(C)C(=O)NC(C(=O)N1Cc2cc([101O:1][101CH2:1]C(C)(C)CCc3ccc([100NH:0][100C:0](=O)N4CCCC(n5nc(-c6ccc(Oc7ccc(F)cc7F)cc6)c(C(N)=O)c5N)C4)cc3)ccc2CC1C(=O)NC1CCCc2ccccc21)C(C)(C)C

> <Shape>
0.236

> <Color>
0.090

> <Negative vol penalty>
0.000

$$$$

  -OEChem-04052302363D

 83 91  0     1  0  0  0  0  0999 V2000
  -26.7748  -33.6816   20.8292 C   0  0  0  0  0  0  0  0  0  0  0  0
  -27.4304  -32.4583   20.9243 C   0  0  0  0  0  0  0  0  0  0  0  0
  -23.0914   -9.8404   20.0160 C   0  0  0  0  0  0  0  0  0  0  0  0
  -23.8419   -9.9535   22.3097 C   0  0  0  0  0  0  0  0  0  0  0  0
  -25.4171  -33.7211   20.5146 C   0  0  0  0  0  0  0  0  0  0  0  0
  -26.7283  -31.2735   20.7059 C   0  0  0  0  0  0  0  0  0  0  0  0
  -28.8644  -26.1527   18.1136 C   0  0  0  0  0  0  0  0  0  0  0  0
  -22.3520   -8.6959   20.3143 C   0  0  0  0  0  0  0  0  0  0  0  0
  -23.1025   -8.8090   22.6081 C   0  0  0  0  0  0  0  0  0  0  0  0
  -29.3459  -24.9597   18.6510 C   0  0  0  0  0  0  0  0  0  0  0  0
  -19.8757   -8.0229   23.2332 C   0  0  0  0  0  0  0  0  0  0  0  0
  -19.1142   -8.0315   24.4017 C   0  0  0  0  0  0  0  0  0  0  0  0
  -27.1635  -23.9666   18.3863 C   0  0  0  0  0  0  0  0  0  0  0  0
  -20.3619   -6.1350   25.2287 C   0  0  0  0  0  0  0  0  0  0  0  0
  -32.0573  -18.6057   21.8234 C   0  0  0  0  0  0  0  0  0  0  0  0
  -23.8364  -10.4692   21.0137 C   0  0  0  0  0  0  0  0  0  0  0  0
  -24.1666  -12.9881   20.7823 C   0  0  0  0  0  0  0  0  0  0  0  0
  -24.7002  -32.5366   20.2827 C   0  0  0  0  0  0  0  0  0  0  0  0
  -27.5238  -26.2652   17.7180 C   0  0  0  0  0  0  0  0  0  0  0  0
  -25.3594  -31.2970   20.3892 C   0  0  0  0  0  0  0  0  0  0  0  0
  -26.6681  -25.1613   17.8419 C   0  0  0  0  0  0  0  0  0  0  0  0
  -30.9738  -19.0583   22.5396 C   0  0  0  0  0  0  0  0  0  0  0  0
  -30.0006  -18.0330   22.4702 C   0  0  0  0  0  0  0  0  0  0  0  0
  -22.3575   -8.1802   21.6104 C   0  0  0  0  0  0  0  0  0  0  0  0
  -28.4948  -23.8674   18.7901 C   0  0  0  0  0  0  0  0  0  0  0  0
  -20.8803   -7.0703   23.0623 C   0  0  0  0  0  0  0  0  0  0  0  0
  -19.3573   -7.0876   25.3995 C   0  0  0  0  0  0  0  0  0  0  0  0
  -21.1234   -6.1264   24.0601 C   0  0  0  0  0  0  0  0  0  0  0  0
  -24.6008  -11.6512   20.7060 C   0  0  0  0  0  0  0  0  0  0  0  0
  -25.2566  -13.7260   20.3902 C   0  0  0  0  0  0  0  0  0  0  0  0
  -30.5588  -17.0270   21.7162 C   0  0  0  0  0  0  0  0  0  0  0  0
  -22.8920  -13.5158   21.1729 C   0  0  0  0  0  0  0  0  0  0  0  0
  -25.0654  -28.0712   18.6115 C   0  0  0  0  0  0  0  0  0  0  0  0
  -23.5999  -26.6360   16.0985 C   0  0  0  0  0  0  0  0  0  0  0  0
  -23.4349  -23.9656   13.9800 C   0  0  0  0  0  0  0  0  0  0  0  0
  -30.7171  -14.8054   20.5391 C   0  0  0  0  0  0  0  0  0  0  0  0
  -23.2231  -32.6272   19.9920 C   0  0  0  0  0  0  0  0  0  0  0  0
  -27.0267  -27.5505   17.1154 C   0  0  0  0  0  0  0  0  0  0  0  0
  -25.2256  -25.2242   17.4134 C   0  0  0  0  0  0  0  0  0  0  0  0
  -22.6376  -31.3445   19.4071 C   0  0  0  0  0  0  0  0  0  0  0  0
  -29.6238  -12.2829   18.2766 C   0  0  0  0  0  0  0  0  0  0  0  0
  -23.1121  -30.1309   20.2002 C   0  0  0  0  0  0  0  0  0  0  0  0
  -28.1838  -12.0037   18.7132 C   0  0  0  0  0  0  0  0  0  0  0  0
  -30.5329  -12.5696   19.4704 C   0  0  0  0  0  0  0  0  0  0  0  0
  -28.6169  -13.3455   20.8106 C   0  0  0  0  0  0  0  0  0  0  0  0
  -24.6378  -29.9913   20.1349 C   0  0  1  0  0  0  0  0  0  0  0  0
  -25.5137  -27.7147   17.2224 C   0  0  1  0  0  0  0  0  0  0  0  0
  -27.6497  -13.1151   19.6379 C   0  0  2  0  0  0  0  0  0  0  0  0
  -27.5422  -18.3230   22.0721 C   0  0  0  0  0  0  0  0  0  0  0  0
  -22.1071  -23.0585   12.0534 C   0  0  0  0  0  0  0  0  0  0  0  0
  -30.9412  -22.8877   23.1786 C   0  0  0  0  0  0  0  0  0  0  0  0
  -21.3626  -25.8443   18.0163 C   0  0  0  0  0  0  0  0  0  0  0  0
  -20.5839  -24.1838   16.3120 C   0  0  0  0  0  0  0  0  0  0  0  0
  -20.5850  -26.6186   15.7690 C   0  0  0  0  0  0  0  0  0  0  0  0
  -25.7952  -23.9824   12.1947 C   0  0  0  0  0  0  0  0  0  0  0  0
  -30.8591  -20.3844   23.2521 C   0  0  0  0  0  0  0  0  0  0  0  0
  -28.6583  -18.0406   23.0836 C   0  0  0  0  0  0  0  0  0  0  0  0
  -29.9242  -21.6154   21.2251 C   0  0  0  0  0  0  0  0  0  0  0  0
  -30.0217  -22.7967   20.2660 C   0  0  0  0  0  0  0  0  0  1  0  0
  -22.7842  -25.3795   15.9117 C   0  0  1  0  0  0  0  0  0  0  0  0
  -23.3145  -23.8845   12.4689 C   0  0  2  0  0  0  0  0  0  0  0  0
  -31.0029  -21.6145   22.3269 C   0  0  1  0  0  0  0  0  0  0  0  0
  -21.3556  -25.5057   16.5122 C   0  0  0  0  0  0  0  0  0  0  0  0
  -25.8678  -11.5430   20.2973 N   0  0  0  0  0  0  0  0  0  0  0  0
  -26.2391  -12.8214   20.1132 N   0  0  0  0  0  0  0  0  0  0  0  0
  -24.7852  -26.5048   16.8358 N   0  0  0  0  0  0  0  0  0  0  0  0
  -29.9655  -13.6357   20.2987 N   0  0  0  0  0  0  0  0  0  0  0  0
  -25.4610  -15.0540   20.2586 N   0  0  0  0  0  0  0  0  0  0  0  0
  -21.8831  -12.6176   21.5465 N   0  0  0  0  0  0  0  0  0  0  0  0
  -30.0620  -15.7628   21.3130 N   0  0  0  0  0  0  0  0  0  0  0  0
  -25.0400  -29.4296   18.8632 N   0  0  0  0  0  0  0  0  0  0  0  0
  -22.8080  -25.0860   14.4829 N   0  0  0  0  0  0  0  0  0  0  0  0
  -24.5349  -23.2596   11.8849 N   0  3  0  0  0  0  0  0  0  0  0  0
  -22.6496  -14.7466   21.1743 O   0  0  0  0  0  0  0  0  0  0  0  0
  -24.7634  -27.1798   19.3963 O   0  0  0  0  0  0  0  0  0  0  0  0
  -23.2037  -27.6936   15.6022 O   0  0  0  0  0  0  0  0  0  0  0  0
  -24.0227  -23.1176   14.6478 O   0  0  0  0  0  0  0  0  0  0  0  0
  -31.8472  -14.9586   20.0688 O   0  0  0  0  0  0  0  0  0  0  0  0
  -31.8124  -17.3683   21.3180 O   0  0  0  0  0  0  0  0  0  0  0  0
  -21.6360   -7.0635   21.9019 O   0  0  0  0  0  0  0  0  0  0  0  0
  -28.9620  -22.7020   19.3150 O   0  0  0  0  0  0  0  0  0  1  0  0
  -18.6270   -7.0970   26.5224 F   0  0  0  0  0  0  0  0  0  0  0  0
  -22.0879   -5.2095   23.9022 F   0  0  0  0  0  0  0  0  0  0  0  0
  1  2  1  0  0  0  0
  1  5  2  0  0  0  0
  2  6  2  0  0  0  0
  3  8  2  0  0  0  0
  3 16  1  0  0  0  0
  4  9  1  0  0  0  0
  4 16  2  0  0  0  0
  5 18  1  0  0  0  0
  6 20  1  0  0  0  0
  7 10  2  0  0  0  0
  7 19  1  0  0  0  0
  8 24  1  0  0  0  0
  9 24  2  0  0  0  0
 10 25  1  0  0  0  0
 11 12  2  0  0  0  0
 11 26  1  0  0  0  0
 12 27  1  0  0  0  0
 13 21  1  0  0  0  0
 13 25  2  0  0  0  0
 14 27  2  0  0  0  0
 14 28  1  0  0  0  0
 15 22  2  0  0  0  0
 15 79  1  0  0  0  0
 16 29  1  0  0  0  0
 17 29  1  0  0  0  0
 17 30  2  0  0  0  0
 17 32  1  0  0  0  0
 18 20  2  0  0  0  0
 18 37  1  0  0  0  0
 19 21  2  0  0  0  0
 19 38  1  0  0  0  0
 20 46  1  0  0  0  0
 21 39  1  0  0  0  0
 22 23  1  0  0  0  0
 22 56  1  0  0  0  0
 23 31  2  0  0  0  0
 23 57  1  0  0  0  0
 24 80  1  0  0  0  0
 25 81  1  0  0  0  0
 26 28  2  0  0  0  0
 26 80  1  0  0  0  0
 27 82  1  0  0  0  0
 28 83  1  0  0  0  0
 29 64  2  0  0  0  0
 30 65  1  0  0  0  0
 30 68  1  0  0  0  0
 31 70  1  0  0  0  0
 31 79  1  0  0  0  0
 32 69  1  0  0  0  0
 32 74  2  0  0  0  0
 33 47  1  0  0  0  0
 33 71  1  0  0  0  0
 33 75  2  0  0  0  0
 34 60  1  0  0  0  0
 34 66  1  0  0  0  0
 34 76  2  0  0  0  0
 35 61  1  0  0  0  0
 35 72  1  0  0  0  0
 35 77  2  0  0  0  0
 36 67  1  0  0  0  0
 36 70  1  0  0  0  0
 36 78  2  0  0  0  0
 37 40  1  0  0  0  0
 38 47  1  0  0  0  0
 39 66  1  0  0  0  0
 40 42  1  0  0  0  0
 41 43  1  0  0  0  0
 41 44  1  0  0  0  0
 42 46  1  0  0  0  0
 43 48  1  0  0  0  0
 44 67  1  0  0  0  0
 45 48  1  0  0  0  0
 45 67  1  0  0  0  0
 46 71  1  0  0  0  0
 47 66  1  0  0  0  0
 48 65  1  0  0  0  0
 49 57  1  0  0  0  0
 50 61  1  0  0  0  0
 51 62  1  0  0  0  0
 52 63  1  0  0  0  0
 53 63  1  0  0  0  0
 54 63  1  0  0  0  0
 55 73  1  0  0  0  0
 56 62  1  0  0  0  0
 58 59  1  0  0  0  0
 58 62  1  0  0  0  0
 59 81  1  0  0  0  0
 60 63  1  0  0  0  0
 60 72  1  0  0  0  0
 61 73  1  0  0  0  0
 64 65  1  0  0  0  0
M  CHG  1  73   1
M  ISO  4  36 100  59 101  70 100  81 101
M  END
> <Batch ID>
0135

> <Smiles>
CCc1c(CC(C)C[101CH2:1][101O:1]c2ccc3c(c2)CN(C(=O)C(NC(=O)C(C)NC)C(C)(C)C)C(C(=O)NC2CCCc4ccccc42)C3)coc1[100NH:0][100C:0](=O)N1CCCC(n2nc(-c3ccc(Oc4ccc(F)cc4F)cc3)c(C(N)=O)c2N)C1

> <Shape>
0.264

> <Color>
0.205

> <Negative vol penalty>
0.000

$$$$

  -OEChem-04052302363D

 84 92  0     1  0  0  0  0  0999 V2000
  -17.7724  -33.2439   22.4791 C   0  0  0  0  0  0  0  0  0  0  0  0
  -19.1433  -33.0386   22.3612 C   0  0  0  0  0  0  0  0  0  0  0  0
  -27.7868  -12.8176   22.5714 C   0  0  0  0  0  0  0  0  0  0  0  0
  -26.8662  -12.7847   20.3379 C   0  0  0  0  0  0  0  0  0  0  0  0
  -16.9382  -32.1849   22.8353 C   0  0  0  0  0  0  0  0  0  0  0  0
  -19.6810  -31.7745   22.6005 C   0  0  0  0  0  0  0  0  0  0  0  0
  -24.4646  -29.2113   19.7627 C   0  0  0  0  0  0  0  0  0  0  0  0
  -31.0932  -21.9798   17.8463 C   0  0  0  0  0  0  0  0  0  0  0  0
  -32.2703  -22.5430   18.3391 C   0  0  0  0  0  0  0  0  0  0  0  0
  -27.2282  -11.5639   22.8201 C   0  0  0  0  0  0  0  0  0  0  0  0
  -26.3076  -11.5310   20.5865 C   0  0  0  0  0  0  0  0  0  0  0  0
  -25.8088  -29.0915   20.1126 C   0  0  0  0  0  0  0  0  0  0  0  0
  -23.6124  -10.2800   22.1995 C   0  0  0  0  0  0  0  0  0  0  0  0
  -22.2917  -10.0688   21.8036 C   0  0  0  0  0  0  0  0  0  0  0  0
  -25.3781  -26.8854   20.9882 C   0  0  0  0  0  0  0  0  0  0  0  0
  -29.8654  -23.9432   18.5352 C   0  0  0  0  0  0  0  0  0  0  0  0
  -23.0122   -8.2712   20.3590 C   0  0  0  0  0  0  0  0  0  0  0  0
  -27.6057  -13.4280   21.3303 C   0  0  0  0  0  0  0  0  0  0  0  0
  -29.4573  -14.9963   20.5431 C   0  0  0  0  0  0  0  0  0  0  0  0
  -17.4648  -30.9049   23.0695 C   0  0  0  0  0  0  0  0  0  0  0  0
  -23.5633  -28.1717   20.0332 C   0  0  0  0  0  0  0  0  0  0  0  0
  -18.8533  -30.6978   22.9614 C   0  0  0  0  0  0  0  0  0  0  0  0
  -24.0234  -26.9934   20.6384 C   0  0  0  0  0  0  0  0  0  0  0  0
  -29.8907  -22.6799   17.9443 C   0  0  0  0  0  0  0  0  0  0  0  0
  -32.2450  -23.8063   18.9299 C   0  0  0  0  0  0  0  0  0  0  0  0
  -26.4886  -10.9206   21.8277 C   0  0  0  0  0  0  0  0  0  0  0  0
  -26.2652  -27.9296   20.7281 C   0  0  0  0  0  0  0  0  0  0  0  0
  -24.6330   -9.4868   21.6752 C   0  0  0  0  0  0  0  0  0  0  0  0
  -31.0426  -24.5064   19.0279 C   0  0  0  0  0  0  0  0  0  0  0  0
  -21.9916   -9.0644   20.8834 C   0  0  0  0  0  0  0  0  0  0  0  0
  -24.3329   -8.4824   20.7550 C   0  0  0  0  0  0  0  0  0  0  0  0
  -28.1820  -14.7233   21.0730 C   0  0  0  0  0  0  0  0  0  0  0  0
  -29.5229  -16.3674   20.4950 C   0  0  0  0  0  0  0  0  0  0  0  0
  -30.4903  -14.0914   20.1311 C   0  0  0  0  0  0  0  0  0  0  0  0
  -20.9472  -27.8776   21.8146 C   0  0  0  0  0  0  0  0  0  0  0  0
  -20.7949  -24.9549   20.4158 C   0  0  0  0  0  0  0  0  0  0  0  0
  -22.4357  -22.3980   18.8611 C   0  0  0  0  0  0  0  0  0  0  0  0
  -27.2213  -21.3111   19.3088 C   0  0  0  0  0  0  0  0  0  0  0  0
  -16.5293  -29.8024   23.4982 C   0  0  0  0  0  0  0  0  0  0  0  0
  -22.1218  -28.3057   19.6253 C   0  0  0  0  0  0  0  0  0  0  0  0
  -23.1004  -25.8401   20.9321 C   0  0  0  0  0  0  0  0  0  0  0  0
  -17.1333  -28.4064   23.3690 C   0  0  0  0  0  0  0  0  0  0  0  0
  -26.4748  -19.8809   22.4827 C   0  0  0  0  0  0  0  0  0  0  0  0
  -18.5439  -28.3793   23.9488 C   0  0  0  0  0  0  0  0  0  0  0  0
  -26.9517  -18.4333   22.3529 C   0  0  0  0  0  0  0  0  0  0  0  0
  -25.8751  -20.3968   21.1765 C   0  0  0  0  0  0  0  0  0  0  0  0
  -27.2230  -18.8038   19.8653 C   0  0  0  0  0  0  0  0  0  0  0  0
  -19.4713  -29.3352   23.1886 C   0  0  1  0  0  0  0  0  0  0  0  0
  -21.1900  -27.3907   20.4140 C   0  0  1  0  0  0  0  0  0  0  0  0
  -27.8865  -18.2574   21.1411 C   0  0  2  0  0  0  0  0  0  0  0  0
  -33.5143  -24.3928   19.4530 C   0  0  0  0  0  0  0  0  0  0  0  0
  -22.0509  -20.1259   17.8676 C   0  0  0  0  0  0  0  0  0  0  0  0
  -30.4209  -27.6817   21.7178 C   0  0  0  0  0  0  0  0  0  0  0  0
  -20.6268  -23.7606   23.2185 C   0  0  0  0  0  0  0  0  0  0  0  0
  -21.1995  -21.5335   22.2283 C   0  0  0  0  0  0  0  0  0  0  0  0
  -19.1053  -22.7012   21.5401 C   0  0  0  0  0  0  0  0  0  0  0  0
  -23.3288  -23.2896   16.1840 C   0  0  0  0  0  0  0  0  0  0  0  0
  -28.6325  -22.0776   17.4167 C   0  0  0  0  0  0  0  0  0  0  0  0
  -28.5252  -28.5068   20.2640 C   0  0  0  0  0  0  0  0  0  1  0  0
  -29.7312  -26.3873   19.6591 C   0  0  0  0  0  0  0  0  0  0  0  0
  -21.3360  -23.5839   20.7423 C   0  0  1  0  0  0  0  0  0  0  0  0
  -22.1205  -21.6206   17.5959 C   0  0  2  0  0  0  0  0  0  0  0  0
  -29.8706  -27.7759   20.2896 C   0  0  2  0  0  0  0  0  0  0  0  0
  -20.5842  -22.9171   21.9286 C   0  0  0  0  0  0  0  0  0  0  0  0
  -27.4875  -15.8320   21.3424 N   0  0  0  0  0  0  0  0  0  0  0  0
  -28.3295  -16.8149   20.9805 N   0  0  0  0  0  0  0  0  0  0  0  0
  -21.6987  -26.0217   20.5201 N   0  0  0  0  0  0  0  0  0  0  0  0
  -26.8122  -20.2021   20.0675 N   0  0  0  0  0  0  0  0  0  0  0  0
  -30.4844  -17.2218   20.0854 N   0  0  0  0  0  0  0  0  0  0  0  0
  -30.2579  -12.7142   20.2480 N   0  0  0  0  0  0  0  0  0  0  0  0
  -19.8806  -28.7484   21.9306 N   0  0  0  0  0  0  0  0  0  0  0  0
  -21.2891  -22.8201   19.5001 N   0  0  0  0  0  0  0  0  0  0  0  0
  -28.1155  -21.0397   18.2805 N   0  0  0  0  0  0  0  0  0  0  0  0
  -23.1687  -21.8625   16.5646 N   0  3  0  0  0  0  0  0  0  0  0  0
  -31.5933  -14.4924   19.6883 O   0  0  0  0  0  0  0  0  0  0  0  0
  -21.6729  -27.4906   22.7231 O   0  0  0  0  0  0  0  0  0  0  0  0
  -19.6158  -25.0739   20.0737 O   0  0  0  0  0  0  0  0  0  0  0  0
  -23.5841  -22.6065   19.2460 O   0  0  0  0  0  0  0  0  0  0  0  0
  -26.8234  -22.4590   19.5346 O   0  0  0  0  0  0  0  0  0  0  0  0
  -25.9436   -9.6971   22.0699 O   0  0  0  0  0  0  0  0  0  0  0  0
  -27.5766  -27.8103   21.0712 O   0  0  0  0  0  0  0  0  0  1  0  0
  -31.0002  -25.7491   19.6044 O   0  0  0  0  0  0  0  0  0  0  0  0
  -20.7231   -8.8607   20.5044 F   0  0  0  0  0  0  0  0  0  0  0  0
  -25.3090   -7.7164   20.2487 F   0  0  0  0  0  0  0  0  0  0  0  0
  1  2  1  0  0  0  0
  1  5  2  0  0  0  0
  2  6  2  0  0  0  0
  3 10  2  0  0  0  0
  3 18  1  0  0  0  0
  4 11  1  0  0  0  0
  4 18  2  0  0  0  0
  5 20  1  0  0  0  0
  6 22  1  0  0  0  0
  7 12  2  0  0  0  0
  7 21  1  0  0  0  0
  8  9  2  0  0  0  0
  8 24  1  0  0  0  0
  9 25  1  0  0  0  0
 10 26  1  0  0  0  0
 11 26  2  0  0  0  0
 12 27  1  0  0  0  0
 13 14  2  0  0  0  0
 13 28  1  0  0  0  0
 14 30  1  0  0  0  0
 15 23  1  0  0  0  0
 15 27  2  0  0  0  0
 16 24  2  0  0  0  0
 16 29  1  0  0  0  0
 17 30  2  0  0  0  0
 17 31  1  0  0  0  0
 18 32  1  0  0  0  0
 19 32  1  0  0  0  0
 19 33  2  0  0  0  0
 19 34  1  0  0  0  0
 20 22  2  0  0  0  0
 20 39  1  0  0  0  0
 21 23  2  0  0  0  0
 21 40  1  0  0  0  0
 22 48  1  0  0  0  0
 23 41  1  0  0  0  0
 24 58  1  0  0  0  0
 25 29  2  0  0  0  0
 25 51  1  0  0  0  0
 26 80  1  0  0  0  0
 27 81  1  0  0  0  0
 28 31  2  0  0  0  0
 28 80  1  0  0  0  0
 29 82  1  0  0  0  0
 30 83  1  0  0  0  0
 31 84  1  0  0  0  0
 32 65  2  0  0  0  0
 33 66  1  0  0  0  0
 33 69  1  0  0  0  0
 34 70  1  0  0  0  0
 34 75  2  0  0  0  0
 35 49  1  0  0  0  0
 35 71  1  0  0  0  0
 35 76  2  0  0  0  0
 36 61  1  0  0  0  0
 36 67  1  0  0  0  0
 36 77  2  0  0  0  0
 37 62  1  0  0  0  0
 37 72  1  0  0  0  0
 37 78  2  0  0  0  0
 38 68  1  0  0  0  0
 38 73  1  0  0  0  0
 38 79  2  0  0  0  0
 39 42  1  0  0  0  0
 40 49  1  0  0  0  0
 41 67  1  0  0  0  0
 42 44  1  0  0  0  0
 43 45  1  0  0  0  0
 43 46  1  0  0  0  0
 44 48  1  0  0  0  0
 45 50  1  0  0  0  0
 46 68  1  0  0  0  0
 47 50  1  0  0  0  0
 47 68  1  0  0  0  0
 48 71  1  0  0  0  0
 49 67  1  0  0  0  0
 50 66  1  0  0  0  0
 52 62  1  0  0  0  0
 53 63  1  0  0  0  0
 54 64  1  0  0  0  0
 55 64  1  0  0  0  0
 56 64  1  0  0  0  0
 57 74  1  0  0  0  0
 58 73  1  0  0  0  0
 59 63  1  0  0  0  0
 59 81  1  0  0  0  0
 60 63  1  0  0  0  0
 60 82  1  0  0  0  0
 61 64  1  0  0  0  0
 61 72  1  0  0  0  0
 62 74  1  0  0  0  0
 65 66  1  0  0  0  0
M  CHG  1  74   1
M  ISO  4  38 100  59 101  73 100  81 101
M  END
> <Batch ID>
0135

> <Smiles>
CNC(C)C(=O)NC(C(=O)N1Cc2cc([101O:1][101CH2:1]C(C)COc3cc(C[100NH:0][100C:0](=O)N4CCCC(n5nc(-c6ccc(Oc7ccc(F)cc7F)cc6)c(C(N)=O)c5N)C4)ccc3C)ccc2CC1C(=O)NC1CCCc2ccccc21)C(C)(C)C

> <Shape>
0.251

> <Color>
0.091

> <Negative vol penalty>
0.000

$$$$

  -OEChem-04052302363D

 83 91  0     1  0  0  0  0  0999 V2000
  -37.4182  -22.4437    9.8757 C   0  0  0  0  0  0  0  0  0  0  0  0
  -38.0946  -21.8587   10.9413 C   0  0  0  0  0  0  0  0  0  0  0  0
  -23.0617   -9.8680   19.9293 C   0  0  0  0  0  0  0  0  0  0  0  0
  -23.8206   -9.8519   22.2230 C   0  0  0  0  0  0  0  0  0  0  0  0
  -36.2499  -23.1687   10.1067 C   0  0  0  0  0  0  0  0  0  0  0  0
  -37.6037  -21.9993   12.2389 C   0  0  0  0  0  0  0  0  0  0  0  0
  -37.1941  -18.4799   18.4648 C   0  0  0  0  0  0  0  0  0  0  0  0
  -31.9037  -18.2764   24.2567 C   0  0  0  0  0  0  0  0  0  0  0  0
  -30.5164  -18.2795   24.1120 C   0  0  0  0  0  0  0  0  0  0  0  0
  -22.3135   -8.7154   20.1688 C   0  0  0  0  0  0  0  0  0  0  0  0
  -23.0724   -8.6993   22.4625 C   0  0  0  0  0  0  0  0  0  0  0  0
  -37.4751  -18.6516   19.8196 C   0  0  0  0  0  0  0  0  0  0  0  0
  -19.8411   -7.9081   23.0567 C   0  0  0  0  0  0  0  0  0  0  0  0
  -19.0835   -7.8606   24.2269 C   0  0  0  0  0  0  0  0  0  0  0  0
  -35.4046  -19.8596   20.0898 C   0  0  0  0  0  0  0  0  0  0  0  0
  -32.0739  -16.5387   22.5868 C   0  0  0  0  0  0  0  0  0  0  0  0
  -20.3175   -5.9122   24.9467 C   0  0  0  0  0  0  0  0  0  0  0  0
  -23.8153  -10.4362   20.9564 C   0  0  0  0  0  0  0  0  0  0  0  0
  -24.1664  -12.9611   20.8588 C   0  0  0  0  0  0  0  0  0  0  0  0
  -35.7392  -23.3102   11.4067 C   0  0  0  0  0  0  0  0  0  0  0  0
  -36.0195  -19.0072   17.9092 C   0  0  0  0  0  0  0  0  0  0  0  0
  -36.4282  -22.7280   12.4877 C   0  0  0  0  0  0  0  0  0  0  0  0
  -35.1098  -19.6911   18.7283 C   0  0  0  0  0  0  0  0  0  0  0  0
  -32.6825  -17.4060   23.4940 C   0  0  0  0  0  0  0  0  0  0  0  0
  -29.9078  -17.4122   23.2048 C   0  0  0  0  0  0  0  0  0  0  0  0
  -30.6866  -16.5418   22.4422 C   0  0  0  0  0  0  0  0  0  0  0  0
  -22.3188   -8.1311   21.4354 C   0  0  0  0  0  0  0  0  0  0  0  0
  -36.5817  -19.3440   20.6317 C   0  0  0  0  0  0  0  0  0  0  0  0
  -20.8369   -6.9576   22.8314 C   0  0  0  0  0  0  0  0  0  0  0  0
  -19.3217   -6.8627   25.1719 C   0  0  0  0  0  0  0  0  0  0  0  0
  -21.0751   -5.9597   23.7764 C   0  0  0  0  0  0  0  0  0  0  0  0
  -24.5889  -11.6265   20.7095 C   0  0  0  0  0  0  0  0  0  0  0  0
  -25.2615  -13.7097   20.5026 C   0  0  0  0  0  0  0  0  0  0  0  0
  -22.8977  -13.4778   21.2818 C   0  0  0  0  0  0  0  0  0  0  0  0
  -35.3707  -21.1591   15.6615 C   0  0  0  0  0  0  0  0  0  0  0  0
  -32.3163  -20.1895   16.1639 C   0  0  0  0  0  0  0  0  0  0  0  0
  -30.0367  -18.7690   18.2692 C   0  0  0  0  0  0  0  0  0  0  0  0
  -30.7314  -14.7337   20.6886 C   0  0  0  0  0  0  0  0  0  0  0  0
  -34.4987  -24.1430   11.6126 C   0  0  0  0  0  0  0  0  0  0  0  0
  -35.7182  -18.7903   16.4516 C   0  0  0  0  0  0  0  0  0  0  0  0
  -33.8251  -20.2590   18.1848 C   0  0  0  0  0  0  0  0  0  0  0  0
  -33.8405  -23.9292   12.9733 C   0  0  0  0  0  0  0  0  0  0  0  0
  -29.6091  -12.3450   18.2987 C   0  0  0  0  0  0  0  0  0  0  0  0
  -34.8864  -23.9620   14.0832 C   0  0  0  0  0  0  0  0  0  0  0  0
  -28.1682  -12.0549   18.7251 C   0  0  0  0  0  0  0  0  0  0  0  0
  -30.5246  -12.5598   19.5026 C   0  0  0  0  0  0  0  0  0  0  0  0
  -28.6197  -13.2790   20.8895 C   0  0  0  0  0  0  0  0  0  0  0  0
  -35.9137  -22.8373   13.9067 C   0  0  1  0  0  0  0  0  0  0  0  0
  -34.7392  -19.8141   15.8851 C   0  0  1  0  0  0  0  0  0  0  0  0
  -27.6467  -13.1197   19.7098 C   0  0  2  0  0  0  0  0  0  0  0  0
  -28.4196  -17.4367   23.0714 C   0  0  0  0  0  0  0  0  0  0  0  0
  -27.8451  -17.8039   19.0195 C   0  0  0  0  0  0  0  0  0  0  0  0
  -31.5910  -23.1201   16.6058 C   0  0  0  0  0  0  0  0  0  0  0  0
  -29.4492  -22.3595   17.6557 C   0  0  0  0  0  0  0  0  0  0  0  0
  -29.9241  -21.8235   15.2662 C   0  0  0  0  0  0  0  0  0  0  0  0
  -36.7917  -18.8912   24.2720 C   0  0  0  0  0  0  0  0  0  0  0  0
  -37.0380  -17.1805   22.4548 C   0  0  0  0  0  0  0  0  0  0  0  0
  -30.7783  -16.0596   17.3374 C   0  0  0  0  0  0  0  0  0  0  0  0
  -34.1833  -17.4035   23.6511 C   0  0  0  0  0  0  0  0  0  0  0  0
  -34.8511  -18.3951   22.6878 C   0  0  0  0  0  0  0  0  0  0  0  0
  -31.1977  -20.6137   17.0846 C   0  0  1  0  0  0  0  0  0  0  0  0
  -29.0096  -17.6727   18.0503 C   0  0  2  0  0  0  0  0  0  0  0  0
  -30.5655  -21.9703   16.6632 C   0  0  0  0  0  0  0  0  0  0  0  0
  -36.3807  -18.5074   22.8488 C   0  0  0  0  0  0  0  0  0  1  0  0
  -25.8535  -11.5297   20.2908 N   0  0  0  0  0  0  0  0  0  0  0  0
  -26.2352  -12.8130   20.1740 N   0  0  0  0  0  0  0  0  0  0  0  0
  -33.5785  -20.0263   16.7521 N   0  0  0  0  0  0  0  0  0  0  0  0
  -29.9690  -13.5849   20.3889 N   0  0  0  0  0  0  0  0  0  0  0  0
  -25.4768  -15.0410   20.4414 N   0  0  0  0  0  0  0  0  0  0  0  0
  -21.8823  -12.5694   21.6106 N   0  0  0  0  0  0  0  0  0  0  0  0
  -30.0871  -15.6538   21.5149 N   0  0  0  0  0  0  0  0  0  0  0  0
  -35.3597  -21.5737   14.3434 N   0  0  0  0  0  0  0  0  0  0  0  0
  -30.2549  -19.5010   17.1213 N   0  0  0  0  0  0  0  0  0  0  0  0
  -29.6330  -16.3329   18.2432 N   0  3  0  0  0  0  0  0  0  0  0  0
  -22.6659  -14.7087   21.3499 O   0  0  0  0  0  0  0  0  0  0  0  0
  -35.8324  -21.7757   16.6146 O   0  0  0  0  0  0  0  0  0  0  0  0
  -32.0774  -20.0026   14.9682 O   0  0  0  0  0  0  0  0  0  0  0  0
  -30.5873  -18.9594   19.3513 O   0  0  0  0  0  0  0  0  0  0  0  0
  -31.8613  -14.9024   20.2229 O   0  0  0  0  0  0  0  0  0  0  0  0
  -21.5887   -7.0065   21.6695 O   0  0  0  0  0  0  0  0  0  0  0  0
  -36.8538  -19.5135   21.9542 O   0  0  0  0  0  0  0  0  0  1  0  0
  -18.5952   -6.8181   26.2963 F   0  0  0  0  0  0  0  0  0  0  0  0
  -22.0311   -5.0445   23.5661 F   0  0  0  0  0  0  0  0  0  0  0  0
  1  2  1  0  0  0  0
  1  5  2  0  0  0  0
  2  6  2  0  0  0  0
  3 10  2  0  0  0  0
  3 18  1  0  0  0  0
  4 11  1  0  0  0  0
  4 18  2  0  0  0  0
  5 20  1  0  0  0  0
  6 22  1  0  0  0  0
  7 12  2  0  0  0  0
  7 21  1  0  0  0  0
  8  9  2  0  0  0  0
  8 24  1  0  0  0  0
  9 25  1  0  0  0  0
 10 27  1  0  0  0  0
 11 27  2  0  0  0  0
 12 28  1  0  0  0  0
 13 14  2  0  0  0  0
 13 29  1  0  0  0  0
 14 30  1  0  0  0  0
 15 23  1  0  0  0  0
 15 28  2  0  0  0  0
 16 24  2  0  0  0  0
 16 26  1  0  0  0  0
 17 30  2  0  0  0  0
 17 31  1  0  0  0  0
 18 32  1  0  0  0  0
 19 32  1  0  0  0  0
 19 33  2  0  0  0  0
 19 34  1  0  0  0  0
 20 22  2  0  0  0  0
 20 39  1  0  0  0  0
 21 23  2  0  0  0  0
 21 40  1  0  0  0  0
 22 48  1  0  0  0  0
 23 41  1  0  0  0  0
 24 59  1  0  0  0  0
 25 26  2  0  0  0  0
 25 51  1  0  0  0  0
 26 71  1  0  0  0  0
 27 80  1  0  0  0  0
 28 81  1  0  0  0  0
 29 31  2  0  0  0  0
 29 80  1  0  0  0  0
 30 82  1  0  0  0  0
 31 83  1  0  0  0  0
 32 65  2  0  0  0  0
 33 66  1  0  0  0  0
 33 69  1  0  0  0  0
 34 70  1  0  0  0  0
 34 75  2  0  0  0  0
 35 49  1  0  0  0  0
 35 72  1  0  0  0  0
 35 76  2  0  0  0  0
 36 61  1  0  0  0  0
 36 67  1  0  0  0  0
 36 77  2  0  0  0  0
 37 62  1  0  0  0  0
 37 73  1  0  0  0  0
 37 78  2  0  0  0  0
 38 68  1  0  0  0  0
 38 71  1  0  0  0  0
 38 79  2  0  0  0  0
 39 42  1  0  0  0  0
 40 49  1  0  0  0  0
 41 67  1  0  0  0  0
 42 44  1  0  0  0  0
 43 45  1  0  0  0  0
 43 46  1  0  0  0  0
 44 48  1  0  0  0  0
 45 50  1  0  0  0  0
 46 68  1  0  0  0  0
 47 50  1  0  0  0  0
 47 68  1  0  0  0  0
 48 72  1  0  0  0  0
 49 67  1  0  0  0  0
 50 66  1  0  0  0  0
 52 62  1  0  0  0  0
 53 63  1  0  0  0  0
 54 63  1  0  0  0  0
 55 63  1  0  0  0  0
 56 64  1  0  0  0  0
 57 64  1  0  0  0  0
 58 74  1  0  0  0  0
 59 60  1  0  0  0  0
 60 64  1  0  0  0  0
 61 63  1  0  0  0  0
 61 73  1  0  0  0  0
 62 74  1  0  0  0  0
 64 81  1  0  0  0  0
 65 66  1  0  0  0  0
M  CHG  1  74   1
M  ISO  4  38 100  64 101  71 100  81 101
M  END
> <Batch ID>
0135

> <Smiles>
CNC(C)C(=O)NC(C(=O)N1Cc2cc([101O:1][101C:1](C)(C)CCc3ccc(C)c([100NH:0][100C:0](=O)N4CCCC(n5nc(-c6ccc(Oc7ccc(F)cc7F)cc6)c(C(N)=O)c5N)C4)c3)ccc2CC1C(=O)NC1CCCc2ccccc21)C(C)(C)C

> <Shape>
0.197

> <Color>
0.199

> <Negative vol penalty>
0.000

$$$$

  -OEChem-04052302363D

 85 93  0     1  0  0  0  0  0999 V2000
  -37.3459  -30.7711   18.9356 C   0  0  0  0  0  0  0  0  0  0  0  0
  -36.2813  -29.8858   19.0705 C   0  0  0  0  0  0  0  0  0  0  0  0
  -23.1187   -9.8067   19.9677 C   0  0  0  0  0  0  0  0  0  0  0  0
  -23.8099   -9.9208   22.2799 C   0  0  0  0  0  0  0  0  0  0  0  0
  -37.7481  -31.5467   20.0222 C   0  0  0  0  0  0  0  0  0  0  0  0
  -35.6188  -29.7749   20.2925 C   0  0  0  0  0  0  0  0  0  0  0  0
  -30.5820  -29.7034   19.7721 C   0  0  0  0  0  0  0  0  0  0  0  0
  -31.0355  -19.3088   20.5265 C   0  0  0  0  0  0  0  0  0  0  0  0
  -30.9143  -17.9198   20.5660 C   0  0  0  0  0  0  0  0  0  0  0  0
  -22.4053   -8.6392   20.2386 C   0  0  0  0  0  0  0  0  0  0  0  0
  -23.0964   -8.7532   22.5508 C   0  0  0  0  0  0  0  0  0  0  0  0
  -30.0017  -28.5057   19.3570 C   0  0  0  0  0  0  0  0  0  0  0  0
  -23.5104   -5.4250   22.1240 C   0  0  0  0  0  0  0  0  0  0  0  0
  -24.1371   -4.4470   22.8962 C   0  0  0  0  0  0  0  0  0  0  0  0
  -29.4023  -28.0114   21.6408 C   0  0  0  0  0  0  0  0  0  0  0  0
  -29.2249  -18.1161   22.2820 C   0  0  0  0  0  0  0  0  0  0  0  0
  -22.3814   -4.6247   24.5463 C   0  0  0  0  0  0  0  0  0  0  0  0
  -23.8211  -10.4475   20.9884 C   0  0  0  0  0  0  0  0  0  0  0  0
  -24.0849  -12.9768   20.7857 C   0  0  0  0  0  0  0  0  0  0  0  0
  -37.0840  -31.4522   21.2554 C   0  0  0  0  0  0  0  0  0  0  0  0
  -30.5864  -30.0596   21.1284 C   0  0  0  0  0  0  0  0  0  0  0  0
  -36.0132  -30.5489   21.3970 C   0  0  0  0  0  0  0  0  0  0  0  0
  -29.9811  -29.2155   22.0702 C   0  0  0  0  0  0  0  0  0  0  0  0
  -30.2515  -20.1015   21.3647 C   0  0  0  0  0  0  0  0  0  0  0  0
  -29.3461  -19.5051   22.2424 C   0  0  0  0  0  0  0  0  0  0  0  0
  -30.0090  -17.3234   21.4437 C   0  0  0  0  0  0  0  0  0  0  0  0
  -22.3941   -8.1124   21.5301 C   0  0  0  0  0  0  0  0  0  0  0  0
  -29.4143  -27.6581   20.2917 C   0  0  0  0  0  0  0  0  0  0  0  0
  -22.3192   -6.0030   22.5630 C   0  0  0  0  0  0  0  0  0  0  0  0
  -23.5726   -4.0468   24.1074 C   0  0  0  0  0  0  0  0  0  0  0  0
  -21.7547   -5.6028   23.7741 C   0  0  0  0  0  0  0  0  0  0  0  0
  -24.5587  -11.6534   20.7091 C   0  0  0  0  0  0  0  0  0  0  0  0
  -25.1626  -13.7487   20.4263 C   0  0  0  0  0  0  0  0  0  0  0  0
  -22.7866  -13.4647   21.1492 C   0  0  0  0  0  0  0  0  0  0  0  0
  -32.8455  -30.5991   23.2985 C   0  0  0  0  0  0  0  0  0  0  0  0
  -29.8360  -23.7018   20.0036 C   0  0  0  0  0  0  0  0  0  0  0  0
  -30.3217  -31.4706   25.1405 C   0  0  0  0  0  0  0  0  0  0  0  0
  -26.9771  -31.2282   25.7747 C   0  0  0  0  0  0  0  0  0  0  0  0
  -30.5848  -14.9809   20.7176 C   0  0  0  0  0  0  0  0  0  0  0  0
  -37.5850  -32.2765   22.4147 C   0  0  0  0  0  0  0  0  0  0  0  0
  -31.1929  -31.3678   21.5567 C   0  0  0  0  0  0  0  0  0  0  0  0
  -29.9415  -29.5614   23.5356 C   0  0  0  0  0  0  0  0  0  0  0  0
  -36.5905  -32.3722   23.5689 C   0  0  0  0  0  0  0  0  0  0  0  0
  -29.6191  -12.4484   18.4087 C   0  0  0  0  0  0  0  0  0  0  0  0
  -36.0184  -30.9965   23.8960 C   0  0  0  0  0  0  0  0  0  0  0  0
  -28.1775  -12.1247   18.8076 C   0  0  0  0  0  0  0  0  0  0  0  0
  -30.4904  -12.7502   19.6266 C   0  0  0  0  0  0  0  0  0  0  0  0
  -28.5212  -13.4598   20.9258 C   0  0  0  0  0  0  0  0  0  0  0  0
  -35.2536  -30.4182   22.6993 C   0  0  1  0  0  0  0  0  0  0  0  0
  -31.5948  -31.3867   23.0283 C   0  0  1  0  0  0  0  0  0  0  0  0
  -27.5897  -13.2123   19.7280 C   0  0  2  0  0  0  0  0  0  0  0  0
  -29.2719  -20.8614   24.3499 C   0  0  0  0  0  0  0  0  0  0  0  0
  -25.2119  -32.0251   27.3704 C   0  0  0  0  0  0  0  0  0  0  0  0
  -31.3348  -29.5024   27.2404 C   0  0  0  0  0  0  0  0  0  0  0  0
  -29.0907  -29.6312   28.3430 C   0  0  0  0  0  0  0  0  0  0  0  0
  -30.5081  -31.6759   28.1607 C   0  0  0  0  0  0  0  0  0  0  0  0
  -25.4689  -32.5766   23.6146 C   0  0  0  0  0  0  0  0  0  0  0  0
  -30.4008  -21.5996   21.3045 C   0  0  0  0  0  0  0  0  0  0  0  0
  -28.4949  -20.3337   23.1476 C   0  0  0  0  0  0  0  0  0  0  0  0
  -29.6896  -22.1901   20.0883 C   0  0  0  0  0  0  0  0  0  0  0  0
  -29.1853  -24.3549   18.7916 C   0  0  0  0  0  0  0  0  0  0  0  0
  -29.4049  -25.8598   18.7354 C   0  0  0  0  0  0  0  0  0  1  0  0
  -29.3916  -30.7528   26.0886 C   0  0  1  0  0  0  0  0  0  0  0  0
  -25.9254  -32.2869   26.0531 C   0  0  2  0  0  0  0  0  0  0  0  0
  -30.0836  -30.3828   27.4309 C   0  0  0  0  0  0  0  0  0  0  0  0
  -25.8378  -11.5847   20.3307 N   0  0  0  0  0  0  0  0  0  0  0  0
  -26.1769  -12.8747   20.1662 N   0  0  0  0  0  0  0  0  0  0  0  0
  -30.5533  -30.8484   23.9056 N   0  0  0  0  0  0  0  0  0  0  0  0
  -29.8729  -13.7926   20.4494 N   0  0  0  0  0  0  0  0  0  0  0  0
  -25.3321  -15.0829   20.3106 N   0  0  0  0  0  0  0  0  0  0  0  0
  -21.7950  -12.5350   21.4908 N   0  0  0  0  0  0  0  0  0  0  0  0
  -29.8841  -15.9125   21.4828 N   0  0  0  0  0  0  0  0  0  0  0  0
  -33.9484  -31.0335   22.5884 N   0  0  0  0  0  0  0  0  0  0  0  0
  -28.2194  -31.6086   26.2366 N   0  0  0  0  0  0  0  0  0  0  0  0
  -24.9087  -32.3061   24.9637 N   0  3  0  0  0  0  0  0  0  0  0  0
  -22.5093  -14.6880   21.1547 O   0  0  0  0  0  0  0  0  0  0  0  0
  -32.8127  -29.6672   24.0936 O   0  0  0  0  0  0  0  0  0  0  0  0
  -30.4393  -24.3508   20.8566 O   0  0  0  0  0  0  0  0  0  0  0  0
  -30.8185  -32.5474   25.4802 O   0  0  0  0  0  0  0  0  0  0  0  0
  -26.7215  -30.1682   25.2077 O   0  0  0  0  0  0  0  0  0  0  0  0
  -31.7212  -15.1702   20.2763 O   0  0  0  0  0  0  0  0  0  0  0  0
  -21.6978   -6.9732   21.7948 O   0  0  0  0  0  0  0  0  0  0  0  0
  -28.8478  -26.4881   19.8892 O   0  0  0  0  0  0  0  0  0  1  0  0
  -24.1737   -3.1065   24.8481 F   0  0  0  0  0  0  0  0  0  0  0  0
  -20.6098   -6.1536   24.2004 F   0  0  0  0  0  0  0  0  0  0  0  0
  1  2  1  0  0  0  0
  1  5  2  0  0  0  0
  2  6  2  0  0  0  0
  3 10  2  0  0  0  0
  3 18  1  0  0  0  0
  4 11  1  0  0  0  0
  4 18  2  0  0  0  0
  5 20  1  0  0  0  0
  6 22  1  0  0  0  0
  7 12  2  0  0  0  0
  7 21  1  0  0  0  0
  8  9  2  0  0  0  0
  8 24  1  0  0  0  0
  9 26  1  0  0  0  0
 10 27  1  0  0  0  0
 11 27  2  0  0  0  0
 12 28  1  0  0  0  0
 13 14  2  0  0  0  0
 13 29  1  0  0  0  0
 14 30  1  0  0  0  0
 15 23  1  0  0  0  0
 15 28  2  0  0  0  0
 16 25  1  0  0  0  0
 16 26  2  0  0  0  0
 17 30  2  0  0  0  0
 17 31  1  0  0  0  0
 18 32  1  0  0  0  0
 19 32  1  0  0  0  0
 19 33  2  0  0  0  0
 19 34  1  0  0  0  0
 20 22  2  0  0  0  0
 20 40  1  0  0  0  0
 21 23  2  0  0  0  0
 21 41  1  0  0  0  0
 22 49  1  0  0  0  0
 23 42  1  0  0  0  0
 24 25  2  0  0  0  0
 24 58  1  0  0  0  0
 25 59  1  0  0  0  0
 26 72  1  0  0  0  0
 27 82  1  0  0  0  0
 28 83  1  0  0  0  0
 29 31  2  0  0  0  0
 29 82  1  0  0  0  0
 30 84  1  0  0  0  0
 31 85  1  0  0  0  0
 32 66  2  0  0  0  0
 33 67  1  0  0  0  0
 33 70  1  0  0  0  0
 34 71  1  0  0  0  0
 34 76  2  0  0  0  0
 35 50  1  0  0  0  0
 35 73  1  0  0  0  0
 35 77  2  0  0  0  0
 36 60  1  0  0  0  0
 36 61  1  0  0  0  0
 36 78  2  0  0  0  0
 37 63  1  0  0  0  0
 37 68  1  0  0  0  0
 37 79  2  0  0  0  0
 38 64  1  0  0  0  0
 38 74  1  0  0  0  0
 38 80  2  0  0  0  0
 39 69  1  0  0  0  0
 39 72  1  0  0  0  0
 39 81  2  0  0  0  0
 40 43  1  0  0  0  0
 41 50  1  0  0  0  0
 42 68  1  0  0  0  0
 43 45  1  0  0  0  0
 44 46  1  0  0  0  0
 44 47  1  0  0  0  0
 45 49  1  0  0  0  0
 46 51  1  0  0  0  0
 47 69  1  0  0  0  0
 48 51  1  0  0  0  0
 48 69  1  0  0  0  0
 49 73  1  0  0  0  0
 50 68  1  0  0  0  0
 51 67  1  0  0  0  0
 52 59  1  0  0  0  0
 53 64  1  0  0  0  0
 54 65  1  0  0  0  0
 55 65  1  0  0  0  0
 56 65  1  0  0  0  0
 57 75  1  0  0  0  0
 58 60  1  0  0  0  0
 61 62  1  0  0  0  0
 62 83  1  0  0  0  0
 63 65  1  0  0  0  0
 63 74  1  0  0  0  0
 64 75  1  0  0  0  0
 66 67  1  0  0  0  0
M  CHG  1  75   1
M  ISO  4  39 100  62 101  72 100  83 101
M  END
> <Batch ID>
0135

> <Smiles>
CCc1cc([100NH:0][100C:0](=O)N2CCCC(n3nc(-c4ccc(Oc5ccc(F)cc5F)cc4)c(C(N)=O)c3N)C2)ccc1CCC(=O)C[101CH2:1][101O:1]c1ccc2c(c1)CN(C(=O)C(NC(=O)C(C)NC)C(C)(C)C)C(C(=O)NC1CCCc3ccccc31)C2

> <Shape>
0.290

> <Color>
0.213

> <Negative vol penalty>
0.000

$$$$

  -OEChem-04052302363D

 89 97  0     1  0  0  0  0  0999 V2000
  -23.6728  -18.2365   22.7747 C   0  0  0  0  0  0  0  0  0  0  0  0
  -24.6696  -18.7155   23.6173 C   0  0  0  0  0  0  0  0  0  0  0  0
  -23.0769   -9.8675   19.9411 C   0  0  0  0  0  0  0  0  0  0  0  0
  -23.8350   -9.8760   22.2350 C   0  0  0  0  0  0  0  0  0  0  0  0
  -23.0006  -19.1145   21.9271 C   0  0  0  0  0  0  0  0  0  0  0  0
  -24.9863  -20.0743   23.6213 C   0  0  0  0  0  0  0  0  0  0  0  0
  -28.1642  -21.6186   27.0446 C   0  0  0  0  0  0  0  0  0  0  0  0
  -22.3329   -8.7144   20.1912 C   0  0  0  0  0  0  0  0  0  0  0  0
  -23.0910   -8.7229   22.4852 C   0  0  0  0  0  0  0  0  0  0  0  0
  -29.5258  -21.3224   26.9974 C   0  0  0  0  0  0  0  0  0  0  0  0
  -21.1053   -5.9865   23.8220 C   0  0  0  0  0  0  0  0  0  0  0  0
  -20.3481   -5.9435   24.9926 C   0  0  0  0  0  0  0  0  0  0  0  0
  -29.9810  -23.5646   26.2329 C   0  0  0  0  0  0  0  0  0  0  0  0
  -30.3262  -18.9855   23.1869 C   0  0  0  0  0  0  0  0  0  0  0  0
  -31.8671  -17.3315   21.5520 C   0  0  0  0  0  0  0  0  0  0  0  0
  -19.1039   -7.8802   24.2588 C   0  0  0  0  0  0  0  0  0  0  0  0
  -23.8279  -10.4483   20.9630 C   0  0  0  0  0  0  0  0  0  0  0  0
  -24.1696  -12.9734   20.8417 C   0  0  0  0  0  0  0  0  0  0  0  0
  -23.3184  -20.4827   21.9124 C   0  0  0  0  0  0  0  0  0  0  0  0
  -27.6990  -22.8889   26.6752 C   0  0  0  0  0  0  0  0  0  0  0  0
  -24.3026  -20.9804   22.7904 C   0  0  0  0  0  0  0  0  0  0  0  0
  -28.6133  -23.8752   26.2787 C   0  0  0  0  0  0  0  0  0  0  0  0
  -29.8134  -17.7646   22.7486 C   0  0  0  0  0  0  0  0  0  0  0  0
  -31.6095  -19.3794   22.8076 C   0  0  0  0  0  0  0  0  0  0  0  0
  -30.5838  -16.9376   21.9312 C   0  0  0  0  0  0  0  0  0  0  0  0
  -22.3400   -8.1422   21.4632 C   0  0  0  0  0  0  0  0  0  0  0  0
  -30.4341  -22.2945   26.5888 C   0  0  0  0  0  0  0  0  0  0  0  0
  -20.8619   -6.9763   22.8698 C   0  0  0  0  0  0  0  0  0  0  0  0
  -32.3799  -18.5524   21.9903 C   0  0  0  0  0  0  0  0  0  0  0  0
  -19.3474   -6.8903   25.2110 C   0  0  0  0  0  0  0  0  0  0  0  0
  -19.8612   -7.9231   23.0882 C   0  0  0  0  0  0  0  0  0  0  0  0
  -24.5971  -11.6391   20.7051 C   0  0  0  0  0  0  0  0  0  0  0  0
  -25.2619  -13.7228   20.4788 C   0  0  0  0  0  0  0  0  0  0  0  0
  -22.8987  -13.4893   21.2593 C   0  0  0  0  0  0  0  0  0  0  0  0
  -25.7627  -23.9976   24.4113 C   0  0  0  0  0  0  0  0  0  0  0  0
  -26.1755  -26.8071   25.9793 C   0  0  0  0  0  0  0  0  0  0  0  0
  -28.1073  -28.7137   28.0481 C   0  0  0  0  0  0  0  0  0  0  0  0
  -30.7278  -14.7691   20.6571 C   0  0  0  0  0  0  0  0  0  0  0  0
  -22.5539  -21.3897   20.9807 C   0  0  0  0  0  0  0  0  0  0  0  0
  -26.2298  -23.2008   26.7572 C   0  0  0  0  0  0  0  0  0  0  0  0
  -28.1670  -25.2606   25.8914 C   0  0  0  0  0  0  0  0  0  0  0  0
  -23.2580  -22.7204   20.7360 C   0  0  0  0  0  0  0  0  0  0  0  0
  -29.6156  -12.3537   18.2895 C   0  0  0  0  0  0  0  0  0  0  0  0
  -23.6715  -23.3412   22.0619 C   0  0  0  0  0  0  0  0  0  0  0  0
  -28.1756  -12.0622   18.7181 C   0  0  0  0  0  0  0  0  0  0  0  0
  -30.5297  -12.5834   19.4917 C   0  0  0  0  0  0  0  0  0  0  0  0
  -28.6216  -13.3085   20.8710 C   0  0  0  0  0  0  0  0  0  0  0  0
  -24.6852  -22.4494   22.7900 C   0  0  1  0  0  0  0  0  0  0  0  0
  -25.8163  -24.3683   25.8664 C   0  0  1  0  0  0  0  0  0  0  0  0
  -27.6497  -13.1344   19.6925 C   0  0  2  0  0  0  0  0  0  0  0  0
  -28.4358  -17.3680   23.1706 C   0  0  0  0  0  0  0  0  0  0  0  0
  -28.2025  -30.9811   29.1192 C   0  0  0  0  0  0  0  0  0  0  0  0
  -36.2779  -19.7120   20.6429 C   0  0  0  0  0  0  0  0  0  0  0  0
  -35.1795  -20.3013   18.4648 C   0  0  0  0  0  0  0  0  0  0  0  0
  -27.0086  -28.0300   23.3109 C   0  0  0  0  0  0  0  0  0  0  0  0
  -27.9791  -29.9594   24.5774 C   0  0  0  0  0  0  0  0  0  0  0  0
  -25.5335  -29.4860   24.7104 C   0  0  0  0  0  0  0  0  0  0  0  0
  -34.5226  -22.6081   24.0127 C   0  0  0  0  0  0  0  0  0  0  0  0
  -34.6251  -21.5132   26.2661 C   0  0  0  0  0  0  0  0  0  0  0  0
  -28.0652  -27.5568   30.7718 C   0  0  0  0  0  0  0  0  0  0  0  0
  -32.1493  -20.7040   23.2908 C   0  0  0  0  0  0  0  0  0  0  0  0
  -33.1428  -20.5149   24.4457 C   0  0  0  0  0  0  0  0  0  0  0  0
  -33.8760  -19.0514   20.2102 C   0  0  0  0  0  0  0  0  0  0  0  0
  -32.5426  -22.6992   25.5658 C   0  0  0  0  0  0  0  0  0  1  0  0
  -27.1594  -27.9484   25.8870 C   0  0  1  0  0  0  0  0  0  0  0  0
  -27.7605  -29.5346   29.2771 C   0  0  2  0  0  0  0  0  0  0  0  0
  -34.9633  -20.1008   19.9631 C   0  0  0  0  0  0  0  0  0  0  0  0
  -26.9287  -28.8293   24.6268 C   0  0  0  0  0  0  0  0  0  0  0  0
  -33.7160  -21.8224   25.0634 C   0  0  0  0  0  0  0  0  0  0  0  0
  -25.8623  -11.5431   20.2879 N   0  0  0  0  0  0  0  0  0  0  0  0
  -26.2391  -12.8267   20.1590 N   0  0  0  0  0  0  0  0  0  0  0  0
  -26.7197  -25.5150   25.9819 N   0  0  0  0  0  0  0  0  0  0  0  0
  -29.9699  -13.6147   20.3680 N   0  0  0  0  0  0  0  0  0  0  0  0
  -25.4722  -15.0542   20.4051 N   0  0  0  0  0  0  0  0  0  0  0  0
  -21.8866  -12.5803   21.5963 N   0  0  0  0  0  0  0  0  0  0  0  0
  -30.0797  -15.6946   21.4744 N   0  0  0  0  0  0  0  0  0  0  0  0
  -24.8920  -22.9632   24.1260 N   0  0  0  0  0  0  0  0  0  0  0  0
  -27.0626  -28.6738   27.1491 N   0  0  0  0  0  0  0  0  0  0  0  0
  -28.4277  -28.9683   30.4834 N   0  3  0  0  0  0  0  0  0  0  0  0
  -22.6623  -14.7200   21.3156 O   0  0  0  0  0  0  0  0  0  0  0  0
  -26.4585  -24.6061   23.6068 O   0  0  0  0  0  0  0  0  0  0  0  0
  -24.9691  -27.0533   26.0537 O   0  0  0  0  0  0  0  0  0  0  0  0
  -29.1974  -28.1661   27.8987 O   0  0  0  0  0  0  0  0  0  0  0  0
  -31.8573  -14.9377   20.1903 O   0  0  0  0  0  0  0  0  0  0  0  0
  -21.6139   -7.0171   21.7077 O   0  0  0  0  0  0  0  0  0  0  0  0
  -31.7635  -22.0078   26.5412 O   0  0  0  0  0  0  0  0  0  1  0  0
  -33.6348  -18.9220   21.6099 O   0  0  0  0  0  0  0  0  0  0  0  0
  -18.6193   -6.8480   26.3346 F   0  0  0  0  0  0  0  0  0  0  0  0
  -19.6219   -8.8757   22.1765 F   0  0  0  0  0  0  0  0  0  0  0  0
  1  2  1  0  0  0  0
  1  5  2  0  0  0  0
  2  6  2  0  0  0  0
  3  8  2  0  0  0  0
  3 17  1  0  0  0  0
  4  9  1  0  0  0  0
  4 17  2  0  0  0  0
  5 19  1  0  0  0  0
  6 21  1  0  0  0  0
  7 10  2  0  0  0  0
  7 20  1  0  0  0  0
  8 26  1  0  0  0  0
  9 26  2  0  0  0  0
 10 27  1  0  0  0  0
 11 12  2  0  0  0  0
 11 28  1  0  0  0  0
 12 30  1  0  0  0  0
 13 22  1  0  0  0  0
 13 27  2  0  0  0  0
 14 23  2  0  0  0  0
 14 24  1  0  0  0  0
 15 25  2  0  0  0  0
 15 29  1  0  0  0  0
 16 30  2  0  0  0  0
 16 31  1  0  0  0  0
 17 32  1  0  0  0  0
 18 32  1  0  0  0  0
 18 33  2  0  0  0  0
 18 34  1  0  0  0  0
 19 21  2  0  0  0  0
 19 39  1  0  0  0  0
 20 22  2  0  0  0  0
 20 40  1  0  0  0  0
 21 48  1  0  0  0  0
 22 41  1  0  0  0  0
 23 25  1  0  0  0  0
 23 51  1  0  0  0  0
 24 29  2  0  0  0  0
 24 61  1  0  0  0  0
 25 76  1  0  0  0  0
 26 85  1  0  0  0  0
 27 86  1  0  0  0  0
 28 31  2  0  0  0  0
 28 85  1  0  0  0  0
 29 87  1  0  0  0  0
 30 88  1  0  0  0  0
 31 89  1  0  0  0  0
 32 70  2  0  0  0  0
 33 71  1  0  0  0  0
 33 74  1  0  0  0  0
 34 75  1  0  0  0  0
 34 80  2  0  0  0  0
 35 49  1  0  0  0  0
 35 77  1  0  0  0  0
 35 81  2  0  0  0  0
 36 65  1  0  0  0  0
 36 72  1  0  0  0  0
 36 82  2  0  0  0  0
 37 66  1  0  0  0  0
 37 78  1  0  0  0  0
 37 83  2  0  0  0  0
 38 73  1  0  0  0  0
 38 76  1  0  0  0  0
 38 84  2  0  0  0  0
 39 42  1  0  0  0  0
 40 49  1  0  0  0  0
 41 72  1  0  0  0  0
 42 44  1  0  0  0  0
 43 45  1  0  0  0  0
 43 46  1  0  0  0  0
 44 48  1  0  0  0  0
 45 50  1  0  0  0  0
 46 73  1  0  0  0  0
 47 50  1  0  0  0  0
 47 73  1  0  0  0  0
 48 77  1  0  0  0  0
 49 72  1  0  0  0  0
 50 71  1  0  0  0  0
 52 66  1  0  0  0  0
 53 67  1  0  0  0  0
 54 67  1  0  0  0  0
 55 68  1  0  0  0  0
 56 68  1  0  0  0  0
 57 68  1  0  0  0  0
 58 69  1  0  0  0  0
 59 69  1  0  0  0  0
 60 79  1  0  0  0  0
 61 62  1  0  0  0  0
 62 69  1  0  0  0  0
 63 67  1  0  0  0  0
 63 87  1  0  0  0  0
 64 69  1  0  0  0  0
 64 86  1  0  0  0  0
 65 68  1  0  0  0  0
 65 78  1  0  0  0  0
 66 79  1  0  0  0  0
 70 71  1  0  0  0  0
M  CHG  1  79   1
M  ISO  4  38 100  64 101  76 100  86 101
M  END
> <Batch ID>
0135

> <Smiles>
CNC(C)C(=O)NC(C(=O)N1Cc2cc([101O:1][101CH2:1]C(C)(C)CCc3cc(C)c([100NH:0][100C:0](=O)N4CCCC(n5nc(-c6ccc(Oc7ccc(F)cc7F)cc6)c(C(N)=O)c5N)C4)cc3OCC(C)C)ccc2CC1C(=O)NC1CCCc2ccccc21)C(C)(C)C

> <Shape>
0.177

> <Color>
0.188

> <Negative vol penalty>
0.000

$$$$

  -OEChem-04052302363D

 83 91  0     1  0  0  0  0  0999 V2000
  -18.1180  -26.9619   23.6419 C   0  0  0  0  0  0  0  0  0  0  0  0
  -19.4388  -27.0015   24.0771 C   0  0  0  0  0  0  0  0  0  0  0  0
  -28.1245  -23.1907   20.6687 C   0  0  0  0  0  0  0  0  0  0  0  0
  -26.7369  -12.5738   21.8906 C   0  0  0  0  0  0  0  0  0  0  0  0
  -25.9268  -14.3082   20.4166 C   0  0  0  0  0  0  0  0  0  0  0  0
  -17.8362  -26.9040   22.2777 C   0  0  0  0  0  0  0  0  0  0  0  0
  -20.4786  -26.9822   23.1482 C   0  0  0  0  0  0  0  0  0  0  0  0
  -25.8634  -29.8658   23.5896 C   0  0  0  0  0  0  0  0  0  0  0  0
  -28.2384  -24.1865   21.6387 C   0  0  0  0  0  0  0  0  0  0  0  0
  -28.7026  -21.9393   20.8826 C   0  0  0  0  0  0  0  0  0  0  0  0
  -25.4560  -12.0247   21.9487 C   0  0  0  0  0  0  0  0  0  0  0  0
  -24.6458  -13.7591   20.4746 C   0  0  0  0  0  0  0  0  0  0  0  0
  -27.1290  -29.4341   23.9840 C   0  0  0  0  0  0  0  0  0  0  0  0
  -23.4897  -10.0784   20.0049 C   0  0  0  0  0  0  0  0  0  0  0  0
  -23.3707   -8.6950   19.8715 C   0  0  0  0  0  0  0  0  0  0  0  0
  -27.7188  -29.0711   21.6732 C   0  0  0  0  0  0  0  0  0  0  0  0
  -29.5086  -22.6799   23.0364 C   0  0  0  0  0  0  0  0  0  0  0  0
  -22.3568   -8.5712   22.0610 C   0  0  0  0  0  0  0  0  0  0  0  0
  -26.9723  -13.7155   21.1246 C   0  0  0  0  0  0  0  0  0  0  0  0
  -29.3121  -13.9743   20.1417 C   0  0  0  0  0  0  0  0  0  0  0  0
  -18.8729  -26.8937   21.3312 C   0  0  0  0  0  0  0  0  0  0  0  0
  -25.5117  -29.8931   22.2324 C   0  0  0  0  0  0  0  0  0  0  0  0
  -20.2104  -26.9228   21.7701 C   0  0  0  0  0  0  0  0  0  0  0  0
  -26.4490  -29.5060   21.2640 C   0  0  0  0  0  0  0  0  0  0  0  0
  -28.9305  -23.9312   22.8225 C   0  0  0  0  0  0  0  0  0  0  0  0
  -29.3947  -21.6840   22.0665 C   0  0  0  0  0  0  0  0  0  0  0  0
  -24.4104  -12.6174   21.2407 C   0  0  0  0  0  0  0  0  0  0  0  0
  -28.0560  -29.0339   23.0260 C   0  0  0  0  0  0  0  0  0  0  0  0
  -23.0423  -10.7082   21.1663 C   0  0  0  0  0  0  0  0  0  0  0  0
  -22.8043   -7.9415   20.8996 C   0  0  0  0  0  0  0  0  0  0  0  0
  -22.4759   -9.9546   22.1944 C   0  0  0  0  0  0  0  0  0  0  0  0
  -28.2952  -14.2835   21.0647 C   0  0  0  0  0  0  0  0  0  0  0  0
  -30.3640  -14.7779   20.5077 C   0  0  0  0  0  0  0  0  0  0  0  0
  -29.3062  -13.0438   19.0508 C   0  0  0  0  0  0  0  0  0  0  0  0
  -23.3120  -28.4412   20.4556 C   0  0  0  0  0  0  0  0  0  0  0  0
  -24.4355  -30.4190   18.1430 C   0  0  0  0  0  0  0  0  0  0  0  0
  -27.0089  -32.3199   16.9551 C   0  0  0  0  0  0  0  0  0  0  0  0
  -30.7015  -19.9945   23.4023 C   0  0  0  0  0  0  0  0  0  0  0  0
  -18.5199  -26.7828   19.8691 C   0  0  0  0  0  0  0  0  0  0  0  0
  -24.1515  -30.3868   21.8215 C   0  0  0  0  0  0  0  0  0  0  0  0
  -26.1277  -29.5360   19.7928 C   0  0  0  0  0  0  0  0  0  0  0  0
  -19.6722  -27.1441   18.9353 C   0  0  0  0  0  0  0  0  0  0  0  0
  -32.2726  -16.9377   24.3322 C   0  0  0  0  0  0  0  0  0  0  0  0
  -20.9600  -26.4635   19.3883 C   0  0  0  0  0  0  0  0  0  0  0  0
  -31.5275  -15.8827   23.5113 C   0  0  0  0  0  0  0  0  0  0  0  0
  -31.3387  -18.0483   24.8099 C   0  0  0  0  0  0  0  0  0  0  0  0
  -29.7981  -17.6325   22.9329 C   0  0  0  0  0  0  0  0  0  0  0  0
  -21.3653  -26.9285   20.7922 C   0  0  1  0  0  0  0  0  0  0  0  0
  -23.7247  -29.8859   20.4452 C   0  0  1  0  0  0  0  0  0  0  0  0
  -30.7095  -16.5272   22.3750 C   0  0  2  0  0  0  0  0  0  0  0  0
  -27.6441  -33.7886   15.0221 C   0  0  0  0  0  0  0  0  0  0  0  0
  -24.8442  -27.9468   16.4020 C   0  0  0  0  0  0  0  0  0  0  0  0
  -26.3205  -29.3210   14.9187 C   0  0  0  0  0  0  0  0  0  0  0  0
  -23.9176  -29.9313   15.1947 C   0  0  0  0  0  0  0  0  0  0  0  0
  -31.8856  -27.7098   24.4137 C   0  0  0  0  0  0  0  0  0  0  0  0
  -30.6412  -26.3699   26.1294 C   0  0  0  0  0  0  0  0  0  0  0  0
  -27.3862  -34.6697   18.7144 C   0  0  0  0  0  0  0  0  0  0  0  0
  -29.0535  -25.0095   23.8720 C   0  0  0  0  0  0  0  0  0  0  0  0
  -30.3095  -25.8638   23.6512 C   0  0  0  0  0  0  0  0  0  0  0  0
  -29.3969  -27.9817   24.6845 C   0  0  0  0  0  0  0  0  0  1  0  0
  -25.5263  -30.3363   17.1026 C   0  0  1  0  0  0  0  0  0  0  0  0
  -27.0490  -33.7402   16.4207 C   0  0  2  0  0  0  0  0  0  0  0  0
  -25.1578  -29.3813   15.9323 C   0  0  0  0  0  0  0  0  0  0  0  0
  -30.5688  -26.9698   24.7139 C   0  0  0  0  0  0  0  0  0  0  0  0
  -28.6676  -15.2111   21.9507 N   0  0  0  0  0  0  0  0  0  0  0  0
  -29.9303  -15.4916   21.5860 N   0  0  0  0  0  0  0  0  0  0  0  0
  -24.7826  -30.0205   19.4417 N   0  0  0  0  0  0  0  0  0  0  0  0
  -30.6001  -18.6147   23.6791 N   0  0  0  0  0  0  0  0  0  0  0  0
  -31.6085  -14.9366   20.0092 N   0  0  0  0  0  0  0  0  0  0  0  0
  -28.1430  -12.2986   18.8145 N   0  0  0  0  0  0  0  0  0  0  0  0
  -29.9812  -20.4126   22.2837 N   0  0  0  0  0  0  0  0  0  0  0  0
  -21.9735  -28.2405   20.7341 N   0  0  0  0  0  0  0  0  0  0  0  0
  -25.8018  -31.7083   16.6902 N   0  0  0  0  0  0  0  0  0  0  0  0
  -27.8719  -34.6059   17.3119 N   0  3  0  0  0  0  0  0  0  0  0  0
  -30.3086  -12.8663   18.3178 O   0  0  0  0  0  0  0  0  0  0  0  0
  -24.1458  -27.5729   20.2264 O   0  0  0  0  0  0  0  0  0  0  0  0
  -23.3187  -30.8291   17.8170 O   0  0  0  0  0  0  0  0  0  0  0  0
  -27.9553  -31.8032   17.5451 O   0  0  0  0  0  0  0  0  0  0  0  0
  -31.3991  -20.7447   24.0895 O   0  0  0  0  0  0  0  0  0  0  0  0
  -23.1604  -12.0817   21.2969 O   0  0  0  0  0  0  0  0  0  0  0  0
  -29.2918  -28.6115   23.4083 O   0  0  0  0  0  0  0  0  0  1  0  0
  -22.6887   -6.6132   20.7708 F   0  0  0  0  0  0  0  0  0  0  0  0
  -22.0432  -10.5541   23.3120 F   0  0  0  0  0  0  0  0  0  0  0  0
  1  2  1  0  0  0  0
  1  6  2  0  0  0  0
  2  7  2  0  0  0  0
  3  9  2  0  0  0  0
  3 10  1  0  0  0  0
  4 11  2  0  0  0  0
  4 19  1  0  0  0  0
  5 12  1  0  0  0  0
  5 19  2  0  0  0  0
  6 21  1  0  0  0  0
  7 23  1  0  0  0  0
  8 13  2  0  0  0  0
  8 22  1  0  0  0  0
  9 25  1  0  0  0  0
 10 26  2  0  0  0  0
 11 27  1  0  0  0  0
 12 27  2  0  0  0  0
 13 28  1  0  0  0  0
 14 15  2  0  0  0  0
 14 29  1  0  0  0  0
 15 30  1  0  0  0  0
 16 24  1  0  0  0  0
 16 28  2  0  0  0  0
 17 25  2  0  0  0  0
 17 26  1  0  0  0  0
 18 30  2  0  0  0  0
 18 31  1  0  0  0  0
 19 32  1  0  0  0  0
 20 32  1  0  0  0  0
 20 33  2  0  0  0  0
 20 34  1  0  0  0  0
 21 23  2  0  0  0  0
 21 39  1  0  0  0  0
 22 24  2  0  0  0  0
 22 40  1  0  0  0  0
 23 48  1  0  0  0  0
 24 41  1  0  0  0  0
 25 58  1  0  0  0  0
 26 71  1  0  0  0  0
 27 80  1  0  0  0  0
 28 81  1  0  0  0  0
 29 31  2  0  0  0  0
 29 80  1  0  0  0  0
 30 82  1  0  0  0  0
 31 83  1  0  0  0  0
 32 65  2  0  0  0  0
 33 66  1  0  0  0  0
 33 69  1  0  0  0  0
 34 70  1  0  0  0  0
 34 75  2  0  0  0  0
 35 49  1  0  0  0  0
 35 72  1  0  0  0  0
 35 76  2  0  0  0  0
 36 61  1  0  0  0  0
 36 67  1  0  0  0  0
 36 77  2  0  0  0  0
 37 62  1  0  0  0  0
 37 73  1  0  0  0  0
 37 78  2  0  0  0  0
 38 68  1  0  0  0  0
 38 71  1  0  0  0  0
 38 79  2  0  0  0  0
 39 42  1  0  0  0  0
 40 49  1  0  0  0  0
 41 67  1  0  0  0  0
 42 44  1  0  0  0  0
 43 45  1  0  0  0  0
 43 46  1  0  0  0  0
 44 48  1  0  0  0  0
 45 50  1  0  0  0  0
 46 68  1  0  0  0  0
 47 50  1  0  0  0  0
 47 68  1  0  0  0  0
 48 72  1  0  0  0  0
 49 67  1  0  0  0  0
 50 66  1  0  0  0  0
 51 62  1  0  0  0  0
 52 63  1  0  0  0  0
 53 63  1  0  0  0  0
 54 63  1  0  0  0  0
 55 64  1  0  0  0  0
 56 64  1  0  0  0  0
 57 74  1  0  0  0  0
 58 59  1  0  0  0  0
 59 64  1  0  0  0  0
 60 64  1  0  0  0  0
 60 81  1  0  0  0  0
 61 63  1  0  0  0  0
 61 73  1  0  0  0  0
 62 74  1  0  0  0  0
 65 66  1  0  0  0  0
M  CHG  1  74   1
M  ISO  4  38 100  60 101  71 100  81 101
M  END
> <Batch ID>
0135

> <Smiles>
CNC(C)C(=O)NC(C(=O)N1Cc2cc([101O:1][101CH2:1]C(C)(C)CCc3cccc([100NH:0][100C:0](=O)N4CCCC(n5nc(-c6ccc(Oc7ccc(F)cc7F)cc6)c(C(N)=O)c5N)C4)c3)ccc2CC1C(=O)NC1CCCc2ccccc21)C(C)(C)C

> <Shape>
0.251

> <Color>
0.072

> <Negative vol penalty>
0.000

$$$$

  -OEChem-04052302363D

 86 94  0     1  0  0  0  0  0999 V2000
  -24.8693  -22.9365   18.1422 C   0  0  0  0  0  0  0  0  0  0  0  0
  -25.1888  -21.7216   17.5465 C   0  0  0  0  0  0  0  0  0  0  0  0
  -33.0182  -17.7052   22.0469 C   0  0  0  0  0  0  0  0  0  0  0  0
  -24.6452  -28.4165   21.3555 C   0  0  0  0  0  0  0  0  0  0  0  0
  -26.2233  -30.0147   20.4655 C   0  0  0  0  0  0  0  0  0  0  0  0
  -32.0825  -18.6845   21.7137 C   0  0  0  0  0  0  0  0  0  0  0  0
  -24.6632  -23.0006   19.5186 C   0  0  0  0  0  0  0  0  0  0  0  0
  -25.2906  -20.5683   18.3252 C   0  0  0  0  0  0  0  0  0  0  0  0
  -26.9332  -14.8991   16.8120 C   0  0  0  0  0  0  0  0  0  0  0  0
  -32.9008  -16.4197   21.5183 C   0  0  0  0  0  0  0  0  0  0  0  0
  -24.0522  -29.4249   22.1151 C   0  0  0  0  0  0  0  0  0  0  0  0
  -25.6304  -31.0232   21.2252 C   0  0  0  0  0  0  0  0  0  0  0  0
  -28.1037  -14.1426   16.7730 C   0  0  0  0  0  0  0  0  0  0  0  0
  -22.8764  -32.9744   21.0557 C   0  0  0  0  0  0  0  0  0  0  0  0
  -22.6239  -34.1938   20.4272 C   0  0  0  0  0  0  0  0  0  0  0  0
  -27.5707  -13.2175   18.9362 C   0  0  0  0  0  0  0  0  0  0  0  0
  -24.0509  -35.3123   22.0239 C   0  0  0  0  0  0  0  0  0  0  0  0
  -25.7308  -28.7114   20.5307 C   0  0  0  0  0  0  0  0  0  0  0  0
  -31.0294  -18.3783   20.8518 C   0  0  0  0  0  0  0  0  0  0  0  0
  -26.0029  -27.2786   18.4377 C   0  0  0  0  0  0  0  0  0  0  0  0
  -24.7750  -21.8494   20.3156 C   0  0  0  0  0  0  0  0  0  0  0  0
  -26.0767  -14.8286   17.9202 C   0  0  0  0  0  0  0  0  0  0  0  0
  -25.0627  -20.6080   19.7127 C   0  0  0  0  0  0  0  0  0  0  0  0
  -26.3887  -13.9721   18.9857 C   0  0  0  0  0  0  0  0  0  0  0  0
  -30.9119  -17.0928   20.3232 C   0  0  0  0  0  0  0  0  0  0  0  0
  -24.5448  -30.7283   22.0500 C   0  0  0  0  0  0  0  0  0  0  0  0
  -28.4240  -13.3038   17.8365 C   0  0  0  0  0  0  0  0  0  0  0  0
  -31.8476  -16.1135   20.6565 C   0  0  0  0  0  0  0  0  0  0  0  0
  -23.7160  -32.9240   22.1685 C   0  0  0  0  0  0  0  0  0  0  0  0
  -23.2112  -35.3627   20.9112 C   0  0  0  0  0  0  0  0  0  0  0  0
  -24.3033  -34.0929   22.6525 C   0  0  0  0  0  0  0  0  0  0  0  0
  -26.3441  -27.6700   19.7462 C   0  0  0  0  0  0  0  0  0  0  0  0
  -26.8741  -26.2575   18.1465 C   0  0  0  0  0  0  0  0  0  0  0  0
  -32.5195  -13.6017   17.0363 C   0  0  0  0  0  0  0  0  0  0  0  0
  -30.0681  -19.4240   20.5264 C   0  0  0  0  0  0  0  0  0  0  0  0
  -30.3589  -20.5867   19.9082 C   0  0  0  0  0  0  0  0  0  0  0  0
  -24.9891  -27.7922   17.5635 C   0  0  0  0  0  0  0  0  0  0  0  0
  -32.3577  -13.3837   18.3514 C   0  0  0  0  0  0  0  0  0  0  0  0
  -29.2681  -21.5448   19.6381 C   0  0  0  0  0  0  0  0  0  0  0  0
  -25.0493  -16.9046   20.0968 C   0  0  0  0  0  0  0  0  0  0  0  0
  -23.1796  -14.4191   21.0180 C   0  0  0  0  0  0  0  0  0  0  0  0
  -22.6822  -11.0439   21.1035 C   0  0  0  0  0  0  0  0  0  0  0  0
  -24.5340  -21.9744   21.7994 C   0  0  0  0  0  0  0  0  0  0  0  0
  -24.8045  -15.6308   17.9350 C   0  0  0  0  0  0  0  0  0  0  0  0
  -25.4924  -13.8450   20.1894 C   0  0  0  0  0  0  0  0  0  0  0  0
  -25.0963  -20.8002   22.5940 C   0  0  0  0  0  0  0  0  0  0  0  0
  -30.9981  -24.6421   20.5578 C   0  0  0  0  0  0  0  0  0  0  0  0
  -24.6520  -19.4875   21.9663 C   0  0  0  0  0  0  0  0  0  0  0  0
  -29.8856  -25.6688   20.3628 C   0  0  0  0  0  0  0  0  0  0  0  0
  -30.4586  -23.3022   21.0560 C   0  0  0  0  0  0  0  0  0  0  0  0
  -28.2643  -23.7658   20.0021 C   0  0  0  0  0  0  0  0  0  0  0  0
  -25.2088  -19.3463   20.5439 C   0  0  1  0  0  0  0  0  0  0  0  0
  -24.2648  -15.8691   19.3419 C   0  0  1  0  0  0  0  0  0  0  0  0
  -28.7790  -25.1068   19.4563 C   0  0  1  0  0  0  0  0  0  0  0  0
  -30.2369  -16.6884   17.9426 C   0  0  0  0  0  0  0  0  0  0  0  0
  -21.0834   -9.3094   21.9594 C   0  0  0  0  0  0  0  0  0  0  0  0
  -24.2841  -14.7957   23.8372 C   0  0  0  0  0  0  0  0  0  0  0  0
  -23.4192  -12.5160   24.4055 C   0  0  0  0  0  0  0  0  0  0  0  0
  -21.8314  -14.3185   23.7329 C   0  0  0  0  0  0  0  0  0  0  0  0
  -22.0954  -10.0693   18.3713 C   0  0  0  0  0  0  0  0  0  0  0  0
  -29.7872  -16.7463   19.3980 C   0  0  0  0  0  0  0  0  0  0  0  0
  -31.6923  -12.1212   18.8581 C   0  0  0  0  0  0  0  0  0  0  0  0
  -32.8448  -14.3825   19.3661 C   0  0  0  0  0  0  0  0  0  0  0  0
  -30.1857  -12.2667   19.0517 C   0  0  0  0  0  0  0  0  0  1  0  0
  -23.3288  -13.2704   21.9861 C   0  0  1  0  0  0  0  0  0  0  0  0
  -21.4635  -10.1969   20.7845 C   0  0  2  0  0  0  0  0  0  0  0  0
  -23.2339  -13.7288   23.4688 C   0  0  0  0  0  0  0  0  0  0  0  0
  -27.3533  -26.9556   20.2515 N   0  0  0  0  0  0  0  0  0  0  0  0
  -27.6536  -26.1050   19.2553 N   0  0  0  0  0  0  0  0  0  0  0  0
  -29.3620  -22.8139   20.2063 N   0  0  0  0  0  0  0  0  0  0  0  0
  -24.2631  -14.6545   20.1599 N   0  0  0  0  0  0  0  0  0  0  0  0
  -27.0418  -25.4841   17.0529 N   0  0  0  0  0  0  0  0  0  0  0  0
  -24.1820  -28.8427   18.0209 N   0  0  0  0  0  0  0  0  0  0  0  0
  -24.5994  -18.1978   19.9103 N   0  0  0  0  0  0  0  0  0  0  0  0
  -22.3288  -12.2801   21.6017 N   0  0  0  0  0  0  0  0  0  0  0  0
  -21.7322   -9.3261   19.6053 N   0  3  0  0  0  0  0  0  0  0  0  0
  -24.7937  -27.3221   16.4171 O   0  0  0  0  0  0  0  0  0  0  0  0
  -28.3366  -21.1606   18.9286 O   0  0  0  0  0  0  0  0  0  0  0  0
  -25.9920  -16.5560   20.7979 O   0  0  0  0  0  0  0  0  0  0  0  0
  -22.1371  -15.0785   21.0181 O   0  0  0  0  0  0  0  0  0  0  0  0
  -23.8327  -10.6470   20.9317 O   0  0  0  0  0  0  0  0  0  0  0  0
  -23.9663  -31.7126   22.7909 O   0  0  0  0  0  0  0  0  0  0  0  0
  -31.7507  -14.8450   20.1465 O   0  0  0  0  0  0  0  0  0  0  0  0
  -29.5662  -12.5648   17.8012 O   0  0  0  0  0  0  0  0  0  1  0  0
  -22.9700  -36.5333   20.3066 F   0  0  0  0  0  0  0  0  0  0  0  0
  -25.1118  -34.0506   23.7204 F   0  0  0  0  0  0  0  0  0  0  0  0
  1  2  1  0  0  0  0
  1  7  2  0  0  0  0
  2  8  2  0  0  0  0
  3  6  1  0  0  0  0
  3 10  2  0  0  0  0
  4 11  2  0  0  0  0
  4 18  1  0  0  0  0
  5 12  1  0  0  0  0
  5 18  2  0  0  0  0
  6 19  2  0  0  0  0
  7 21  1  0  0  0  0
  8 23  1  0  0  0  0
  9 13  2  0  0  0  0
  9 22  1  0  0  0  0
 10 28  1  0  0  0  0
 11 26  1  0  0  0  0
 12 26  2  0  0  0  0
 13 27  1  0  0  0  0
 14 15  2  0  0  0  0
 14 29  1  0  0  0  0
 15 30  1  0  0  0  0
 16 24  1  0  0  0  0
 16 27  2  0  0  0  0
 17 30  2  0  0  0  0
 17 31  1  0  0  0  0
 18 32  1  0  0  0  0
 19 25  1  0  0  0  0
 19 35  1  0  0  0  0
 20 32  1  0  0  0  0
 20 33  2  0  0  0  0
 20 37  1  0  0  0  0
 21 23  2  0  0  0  0
 21 43  1  0  0  0  0
 22 24  2  0  0  0  0
 22 44  1  0  0  0  0
 23 52  1  0  0  0  0
 24 45  1  0  0  0  0
 25 28  2  0  0  0  0
 25 61  1  0  0  0  0
 26 82  1  0  0  0  0
 27 84  1  0  0  0  0
 28 83  1  0  0  0  0
 29 31  2  0  0  0  0
 29 82  1  0  0  0  0
 30 85  1  0  0  0  0
 31 86  1  0  0  0  0
 32 68  2  0  0  0  0
 33 69  1  0  0  0  0
 33 72  1  0  0  0  0
 34 38  2  0  0  0  0
 35 36  2  0  0  0  0
 36 39  1  0  0  0  0
 37 73  1  0  0  0  0
 37 77  2  0  0  0  0
 38 62  1  0  0  0  0
 38 63  1  0  0  0  0
 39 70  1  0  0  0  0
 39 78  2  0  0  0  0
 40 53  1  0  0  0  0
 40 74  1  0  0  0  0
 40 79  2  0  0  0  0
 41 65  1  0  0  0  0
 41 71  1  0  0  0  0
 41 80  2  0  0  0  0
 42 66  1  0  0  0  0
 42 75  1  0  0  0  0
 42 81  2  0  0  0  0
 43 46  1  0  0  0  0
 44 53  1  0  0  0  0
 45 71  1  0  0  0  0
 46 48  1  0  0  0  0
 47 49  1  0  0  0  0
 47 50  1  0  0  0  0
 48 52  1  0  0  0  0
 49 54  1  0  0  0  0
 50 70  1  0  0  0  0
 51 54  1  0  0  0  0
 51 70  1  0  0  0  0
 52 74  1  0  0  0  0
 53 71  1  0  0  0  0
 54 69  1  0  0  0  0
 55 61  1  0  0  0  0
 56 66  1  0  0  0  0
 57 67  1  0  0  0  0
 58 67  1  0  0  0  0
 59 67  1  0  0  0  0
 60 76  1  0  0  0  0
 62 64  1  0  0  0  0
 63 83  1  0  0  0  0
 64 84  1  0  0  0  0
 65 67  1  0  0  0  0
 65 75  1  0  0  0  0
 66 76  1  0  0  0  0
 68 69  1  0  0  0  0
M  CHG  1  76   1
M  ISO  4  36 100  39 100  64 101  84 101
M  END
> <Batch ID>
0135

> <Smiles>
C=C(COc1cccc(C=[100CH:0][100C:0](=O)N2CCCC(n3nc(-c4ccc(Oc5ccc(F)cc5F)cc4)c(C(N)=O)c3N)C2)c1CC)C[101CH2:1][101O:1]c1ccc2c(c1)CN(C(=O)C(NC(=O)C(C)NC)C(C)(C)C)C(C(=O)NC1CCCc3ccccc31)C2

> <Shape>
0.240

> <Color>
0.070

> <Negative vol penalty>
0.000

$$$$

  -OEChem-04052302363D

 83 91  0     1  0  0  0  0  0999 V2000
  -17.8296  -25.0313   25.1012 C   0  0  0  0  0  0  0  0  0  0  0  0
  -19.1792  -24.7901   24.8649 C   0  0  0  0  0  0  0  0  0  0  0  0
  -24.4167   -9.6254   21.5020 C   0  0  0  0  0  0  0  0  0  0  0  0
  -24.7397  -10.7221   23.6303 C   0  0  0  0  0  0  0  0  0  0  0  0
  -17.2450  -26.2147   24.6519 C   0  0  0  0  0  0  0  0  0  0  0  0
  -19.9448  -25.7316   24.1781 C   0  0  0  0  0  0  0  0  0  0  0  0
  -24.4409  -26.5454   26.3615 C   0  0  0  0  0  0  0  0  0  0  0  0
  -30.5502  -20.7685   22.0450 C   0  0  0  0  0  0  0  0  0  0  0  0
  -30.3968  -19.4750   21.5462 C   0  0  0  0  0  0  0  0  0  0  0  0
  -24.0222   -8.4615   22.1616 C   0  0  0  0  0  0  0  0  0  0  0  0
  -24.3452   -9.5581   24.2900 C   0  0  0  0  0  0  0  0  0  0  0  0
  -25.4348  -25.5915   26.1470 C   0  0  0  0  0  0  0  0  0  0  0  0
  -22.5839   -5.3153   23.2788 C   0  0  0  0  0  0  0  0  0  0  0  0
  -21.4553   -4.6497   22.8005 C   0  0  0  0  0  0  0  0  0  0  0  0
  -26.4161  -27.0031   24.4548 C   0  0  0  0  0  0  0  0  0  0  0  0
  -28.1492  -21.0024   22.1769 C   0  0  0  0  0  0  0  0  0  0  0  0
  -20.1181   -6.6186   23.2161 C   0  0  0  0  0  0  0  0  0  0  0  0
  -24.7756  -10.7558   22.2364 C   0  0  0  0  0  0  0  0  0  0  0  0
  -24.3589  -13.0186   21.1346 C   0  0  0  0  0  0  0  0  0  0  0  0
  -18.0061  -27.1756   23.9677 C   0  0  0  0  0  0  0  0  0  0  0  0
  -24.4208  -27.7325   25.6152 C   0  0  0  0  0  0  0  0  0  0  0  0
  -19.3695  -26.9284   23.7180 C   0  0  0  0  0  0  0  0  0  0  0  0
  -25.4223  -27.9716   24.6635 C   0  0  0  0  0  0  0  0  0  0  0  0
  -29.4264  -21.5322   22.3604 C   0  0  0  0  0  0  0  0  0  0  0  0
  -27.9957  -19.7089   21.6781 C   0  0  0  0  0  0  0  0  0  0  0  0
  -29.1196  -18.9451   21.3627 C   0  0  0  0  0  0  0  0  0  0  0  0
  -23.9864   -8.4278   23.5556 C   0  0  0  0  0  0  0  0  0  0  0  0
  -26.4210  -25.8190   25.1916 C   0  0  0  0  0  0  0  0  0  0  0  0
  -22.4797   -6.6325   23.7258 C   0  0  0  0  0  0  0  0  0  0  0  0
  -20.2224   -5.3013   22.7692 C   0  0  0  0  0  0  0  0  0  0  0  0
  -21.2468   -7.2842   23.6944 C   0  0  0  0  0  0  0  0  0  0  0  0
  -25.1837  -11.9583   21.5556 C   0  0  0  0  0  0  0  0  0  0  0  0
  -25.2207  -13.9108   20.5450 C   0  0  0  0  0  0  0  0  0  0  0  0
  -22.9405  -13.1823   21.2650 C   0  0  0  0  0  0  0  0  0  0  0  0
  -22.3817  -29.0634   23.5720 C   0  0  0  0  0  0  0  0  0  0  0  0
  -24.4570  -31.5518   23.7259 C   0  0  0  0  0  0  0  0  0  0  0  0
  -27.6255  -32.6466   24.3652 C   0  0  0  0  0  0  0  0  0  0  0  0
  -30.0087  -16.7526   20.4974 C   0  0  0  0  0  0  0  0  0  0  0  0
  -17.3192  -28.4185   23.4598 C   0  0  0  0  0  0  0  0  0  0  0  0
  -23.3573  -28.7633   25.8773 C   0  0  0  0  0  0  0  0  0  0  0  0
  -25.4572  -29.2389   23.8502 C   0  0  0  0  0  0  0  0  0  0  0  0
  -18.2869  -29.5323   23.0681 C   0  0  0  0  0  0  0  0  0  0  0  0
  -30.0879  -13.4208   19.2445 C   0  0  0  0  0  0  0  0  0  0  0  0
  -19.4251  -28.9762   22.2183 C   0  0  0  0  0  0  0  0  0  0  0  0
  -28.7513  -12.8305   19.6994 C   0  0  0  0  0  0  0  0  0  0  0  0
  -30.6749  -14.3677   20.2898 C   0  0  0  0  0  0  0  0  0  0  0  0
  -28.4335  -14.8428   21.1950 C   0  0  0  0  0  0  0  0  0  0  0  0
  -20.2389  -27.9366   22.9983 C   0  0  1  0  0  0  0  0  0  0  0  0
  -23.1374  -29.7078   24.6996 C   0  0  1  0  0  0  0  0  0  0  0  0
  -27.7716  -13.9329   20.1473 C   0  0  2  0  0  0  0  0  0  0  0  0
  -26.6155  -19.1680   21.4888 C   0  0  0  0  0  0  0  0  0  0  0  0
  -29.0274  -34.7279   24.3683 C   0  0  0  0  0  0  0  0  0  0  0  0
  -29.7978  -24.3437   26.5458 C   0  0  0  0  0  0  0  0  0  0  0  0
  -24.6075  -31.4521   20.6800 C   0  0  0  0  0  0  0  0  0  0  0  0
  -26.6765  -32.8562   20.8058 C   0  0  0  0  0  0  0  0  0  0  0  0
  -24.5069  -33.7572   21.6446 C   0  0  0  0  0  0  0  0  0  0  0  0
  -28.1798  -32.4082   27.2626 C   0  0  0  0  0  0  0  0  0  0  0  0
  -29.5924  -22.9318   22.8975 C   0  0  0  0  0  0  0  0  0  0  0  0
  -29.6824  -23.0062   24.4280 C   0  0  0  0  0  0  0  0  0  0  0  0
  -28.6647  -25.3667   24.5460 C   0  0  0  0  0  0  0  0  0  1  0  0
  -25.6959  -31.9592   22.9656 C   0  0  1  0  0  0  0  0  0  0  0  0
  -28.1416  -33.8085   25.1946 C   0  0  2  0  0  0  0  0  0  0  0  0
  -29.7878  -24.4315   25.0143 C   0  0  1  0  0  0  0  0  0  0  0  0
  -25.3702  -32.4813   21.5378 C   0  0  0  0  0  0  0  0  0  0  0  0
  -26.4707  -12.1569   21.2585 N   0  0  0  0  0  0  0  0  0  0  0  0
  -26.4610  -13.3523   20.6445 N   0  0  0  0  0  0  0  0  0  0  0  0
  -24.3920  -30.2134   24.1387 N   0  0  0  0  0  0  0  0  0  0  0  0
  -29.6922  -15.3876   20.6626 N   0  0  0  0  0  0  0  0  0  0  0  0
  -25.0309  -15.1108   19.9563 N   0  0  0  0  0  0  0  0  0  0  0  0
  -22.2063  -12.1697   21.8973 N   0  0  0  0  0  0  0  0  0  0  0  0
  -28.9847  -17.6292   20.8548 N   0  0  0  0  0  0  0  0  0  0  0  0
  -21.1337  -28.5900   23.9293 N   0  0  0  0  0  0  0  0  0  0  0  0
  -26.3942  -32.9229   23.8094 N   0  0  0  0  0  0  0  0  0  0  0  0
  -28.9351  -33.3067   26.3519 N   0  3  0  0  0  0  0  0  0  0  0  0
  -22.3396  -14.1890   20.8189 O   0  0  0  0  0  0  0  0  0  0  0  0
  -22.8926  -29.0016   22.4598 O   0  0  0  0  0  0  0  0  0  0  0  0
  -23.5823  -32.3919   23.9515 O   0  0  0  0  0  0  0  0  0  0  0  0
  -28.2536  -31.6000   24.2214 O   0  0  0  0  0  0  0  0  0  0  0  0
  -31.0971  -17.1163   20.0446 O   0  0  0  0  0  0  0  0  0  0  0  0
  -23.6013   -7.2922   24.1996 O   0  0  0  0  0  0  0  0  0  0  0  0
  -27.3919  -24.8893   24.9798 O   0  0  0  0  0  0  0  0  0  1  0  0
  -19.1389   -4.6625   22.3084 F   0  0  0  0  0  0  0  0  0  0  0  0
  -21.1406   -8.5499   24.1214 F   0  0  0  0  0  0  0  0  0  0  0  0
  1  2  1  0  0  0  0
  1  5  2  0  0  0  0
  2  6  2  0  0  0  0
  3 10  2  0  0  0  0
  3 18  1  0  0  0  0
  4 11  1  0  0  0  0
  4 18  2  0  0  0  0
  5 20  1  0  0  0  0
  6 22  1  0  0  0  0
  7 12  2  0  0  0  0
  7 21  1  0  0  0  0
  8  9  2  0  0  0  0
  8 24  1  0  0  0  0
  9 26  1  0  0  0  0
 10 27  1  0  0  0  0
 11 27  2  0  0  0  0
 12 28  1  0  0  0  0
 13 14  2  0  0  0  0
 13 29  1  0  0  0  0
 14 30  1  0  0  0  0
 15 23  1  0  0  0  0
 15 28  2  0  0  0  0
 16 24  2  0  0  0  0
 16 25  1  0  0  0  0
 17 30  2  0  0  0  0
 17 31  1  0  0  0  0
 18 32  1  0  0  0  0
 19 32  1  0  0  0  0
 19 33  2  0  0  0  0
 19 34  1  0  0  0  0
 20 22  2  0  0  0  0
 20 39  1  0  0  0  0
 21 23  2  0  0  0  0
 21 40  1  0  0  0  0
 22 48  1  0  0  0  0
 23 41  1  0  0  0  0
 24 58  1  0  0  0  0
 25 26  2  0  0  0  0
 25 51  1  0  0  0  0
 26 71  1  0  0  0  0
 27 80  1  0  0  0  0
 28 81  1  0  0  0  0
 29 31  2  0  0  0  0
 29 80  1  0  0  0  0
 30 82  1  0  0  0  0
 31 83  1  0  0  0  0
 32 65  2  0  0  0  0
 33 66  1  0  0  0  0
 33 69  1  0  0  0  0
 34 70  1  0  0  0  0
 34 75  2  0  0  0  0
 35 49  1  0  0  0  0
 35 72  1  0  0  0  0
 35 76  2  0  0  0  0
 36 61  1  0  0  0  0
 36 67  1  0  0  0  0
 36 77  2  0  0  0  0
 37 62  1  0  0  0  0
 37 73  1  0  0  0  0
 37 78  2  0  0  0  0
 38 68  1  0  0  0  0
 38 71  1  0  0  0  0
 38 79  2  0  0  0  0
 39 42  1  0  0  0  0
 40 49  1  0  0  0  0
 41 67  1  0  0  0  0
 42 44  1  0  0  0  0
 43 45  1  0  0  0  0
 43 46  1  0  0  0  0
 44 48  1  0  0  0  0
 45 50  1  0  0  0  0
 46 68  1  0  0  0  0
 47 50  1  0  0  0  0
 47 68  1  0  0  0  0
 48 72  1  0  0  0  0
 49 67  1  0  0  0  0
 50 66  1  0  0  0  0
 52 62  1  0  0  0  0
 53 63  1  0  0  0  0
 54 64  1  0  0  0  0
 55 64  1  0  0  0  0
 56 64  1  0  0  0  0
 57 74  1  0  0  0  0
 58 59  1  0  0  0  0
 59 63  1  0  0  0  0
 60 63  1  0  0  0  0
 60 81  1  0  0  0  0
 61 64  1  0  0  0  0
 61 73  1  0  0  0  0
 62 74  1  0  0  0  0
 65 66  1  0  0  0  0
M  CHG  1  74   1
M  ISO  4  38 100  60 101  71 100  81 101
M  END
> <Batch ID>
0135

> <Smiles>
CNC(C)C(=O)NC(C(=O)N1Cc2cc([101O:1][101CH2:1]C(C)CCc3ccc([100NH:0][100C:0](=O)N4CCCC(n5nc(-c6ccc(Oc7ccc(F)cc7F)cc6)c(C(N)=O)c5N)C4)c(C)c3)ccc2CC1C(=O)NC1CCCc2ccccc21)C(C)(C)C

> <Shape>
0.279

> <Color>
0.144

> <Negative vol penalty>
0.000

$$$$

  -OEChem-04052302363D

 85 93  0     1  0  0  0  0  0999 V2000
  -17.7394  -29.3023   25.9756 C   0  0  0  0  0  0  0  0  0  0  0  0
  -18.8888  -28.7240   26.5047 C   0  0  0  0  0  0  0  0  0  0  0  0
  -23.4434   -9.6447   20.0239 C   0  0  0  0  0  0  0  0  0  0  0  0
  -23.4451  -10.1876   22.3781 C   0  0  0  0  0  0  0  0  0  0  0  0
  -17.4366  -29.1385   24.6245 C   0  0  0  0  0  0  0  0  0  0  0  0
  -19.7355  -27.9806   25.6831 C   0  0  0  0  0  0  0  0  0  0  0  0
  -25.8378  -27.6178   26.0518 C   0  0  0  0  0  0  0  0  0  0  0  0
  -29.0443  -19.3700   24.1844 C   0  0  0  0  0  0  0  0  0  0  0  0
  -31.3154  -18.6039   24.4880 C   0  0  0  0  0  0  0  0  0  0  0  0
  -28.7838  -18.2726   23.3638 C   0  0  0  0  0  0  0  0  0  0  0  0
  -31.0549  -17.5065   23.6674 C   0  0  0  0  0  0  0  0  0  0  0  0
  -22.6762   -8.5097   20.2861 C   0  0  0  0  0  0  0  0  0  0  0  0
  -22.6779   -9.0526   22.6404 C   0  0  0  0  0  0  0  0  0  0  0  0
  -26.6885  -26.6704   26.6198 C   0  0  0  0  0  0  0  0  0  0  0  0
  -23.1786   -5.3821   21.4653 C   0  0  0  0  0  0  0  0  0  0  0  0
  -23.5522   -4.1905   20.8440 C   0  0  0  0  0  0  0  0  0  0  0  0
  -26.9374  -25.6119   24.4665 C   0  0  0  0  0  0  0  0  0  0  0  0
  -21.3962   -4.0802   19.7592 C   0  0  0  0  0  0  0  0  0  0  0  0
  -23.8279  -10.4836   21.0699 C   0  0  0  0  0  0  0  0  0  0  0  0
  -24.1518  -12.9494   20.5019 C   0  0  0  0  0  0  0  0  0  0  0  0
  -18.2850  -28.4009   23.7839 C   0  0  0  0  0  0  0  0  0  0  0  0
  -25.5213  -27.5628   24.6868 C   0  0  0  0  0  0  0  0  0  0  0  0
  -19.4430  -27.8057   24.3198 C   0  0  0  0  0  0  0  0  0  0  0  0
  -26.0845  -26.5613   23.8831 C   0  0  0  0  0  0  0  0  0  0  0  0
  -30.3101  -19.5357   24.7465 C   0  0  0  0  0  0  0  0  0  0  0  0
  -29.7891  -17.3408   23.1053 C   0  0  0  0  0  0  0  0  0  0  0  0
  -22.2934   -8.2136   21.5944 C   0  0  0  0  0  0  0  0  0  0  0  0
  -27.2362  -25.6656   25.8277 C   0  0  0  0  0  0  0  0  0  0  0  0
  -21.9138   -5.9228   21.2337 C   0  0  0  0  0  0  0  0  0  0  0  0
  -22.6610   -3.5395   19.9909 C   0  0  0  0  0  0  0  0  0  0  0  0
  -21.0226   -5.2718   20.3806 C   0  0  0  0  0  0  0  0  0  0  0  0
  -24.6209  -11.6559   20.7996 C   0  0  0  0  0  0  0  0  0  0  0  0
  -25.2913  -13.6966   20.3296 C   0  0  0  0  0  0  0  0  0  0  0  0
  -22.8064  -13.4323   20.3910 C   0  0  0  0  0  0  0  0  0  0  0  0
  -22.8434  -27.1749   23.0189 C   0  0  0  0  0  0  0  0  0  0  0  0
  -24.7903  -27.7727   20.4941 C   0  0  0  0  0  0  0  0  0  0  0  0
  -27.9505  -27.7612   19.2060 C   0  0  0  0  0  0  0  0  0  0  0  0
  -30.4101  -15.2094   21.9147 C   0  0  0  0  0  0  0  0  0  0  0  0
  -17.8914  -28.2117   22.3403 C   0  0  0  0  0  0  0  0  0  0  0  0
  -24.6232  -28.6080   24.0840 C   0  0  0  0  0  0  0  0  0  0  0  0
  -25.7925  -26.4703   22.4084 C   0  0  0  0  0  0  0  0  0  0  0  0
  -19.0357  -27.7232   21.4559 C   0  0  0  0  0  0  0  0  0  0  0  0
  -30.1318  -12.2748   19.9177 C   0  0  0  0  0  0  0  0  0  0  0  0
  -19.7742  -26.5695   22.1271 C   0  0  0  0  0  0  0  0  0  0  0  0
  -28.6347  -11.9586   19.9446 C   0  0  0  0  0  0  0  0  0  0  0  0
  -30.6201  -12.8220   21.2578 C   0  0  0  0  0  0  0  0  0  0  0  0
  -28.3653  -13.6534   21.7999 C   0  0  0  0  0  0  0  0  0  0  0  0
  -20.3992  -27.0129   23.4553 C   0  0  1  0  0  0  0  0  0  0  0  0
  -23.9616  -28.1515   22.7874 C   0  0  1  0  0  0  0  0  0  0  0  0
  -27.8139  -13.1604   20.4521 C   0  0  2  0  0  0  0  0  0  0  0  0
  -32.5857  -25.5456   25.3258 C   0  0  0  0  0  0  0  0  0  0  0  0
  -29.2225  -28.2682   17.1030 C   0  0  0  0  0  0  0  0  0  0  0  0
  -23.7770  -25.1738   19.2576 C   0  0  0  0  0  0  0  0  0  0  0  0
  -25.7214  -25.2468   17.6820 C   0  0  0  0  0  0  0  0  0  0  0  0
  -24.0199  -27.0707   17.6459 C   0  0  0  0  0  0  0  0  0  0  0  0
  -32.5658  -22.7579   26.6653 C   0  0  0  0  0  0  0  0  0  0  0  0
  -29.5641  -29.8485   20.5471 C   0  0  0  0  0  0  0  0  0  0  0  0
  -30.5919  -20.7235   25.6345 C   0  0  0  0  0  0  0  0  0  0  0  0
  -32.0820  -24.2595   24.6786 C   0  0  0  0  0  0  0  0  0  0  0  0
  -31.1043  -21.9198   24.8202 C   0  0  0  0  0  0  0  0  0  0  0  0
  -30.2674  -23.7876   26.4010 C   0  0  0  0  0  0  0  0  0  0  0  0
  -29.0737  -24.1846   25.5349 C   0  0  0  0  0  0  0  0  0  1  0  0
  -25.6436  -26.9285   19.5786 C   0  0  1  0  0  0  0  0  0  0  0  0
  -28.7275  -28.8123   18.4340 C   0  0  2  0  0  0  0  0  0  0  0  0
  -24.7946  -26.1052   18.5692 C   0  0  0  0  0  0  0  0  0  0  0  0
  -31.4870  -23.1888   25.6453 C   0  0  1  0  0  0  0  0  0  0  0  0
  -25.9544  -11.5821   20.8162 N   0  0  0  0  0  0  0  0  0  0  0  0
  -26.3330  -12.8386   20.5266 N   0  0  0  0  0  0  0  0  0  0  0  0
  -24.9037  -27.5116   21.8669 N   0  0  0  0  0  0  0  0  0  0  0  0
  -29.7985  -13.9610   21.6731 N   0  0  0  0  0  0  0  0  0  0  0  0
  -25.4938  -14.9973   20.0302 N   0  0  0  0  0  0  0  0  0  0  0  0
  -21.7536  -12.5308   20.5989 N   0  0  0  0  0  0  0  0  0  0  0  0
  -29.5247  -16.2257   22.2720 N   0  0  0  0  0  0  0  0  0  0  0  0
  -21.6108  -27.7675   23.2168 N   0  0  0  0  0  0  0  0  0  0  0  0
  -26.5971  -27.8392   18.9543 N   0  0  0  0  0  0  0  0  0  0  0  0
  -29.9066  -29.2683   19.2231 N   0  3  0  0  0  0  0  0  0  0  0  0
  -22.5454  -14.6242   20.0996 O   0  0  0  0  0  0  0  0  0  0  0  0
  -23.0810  -25.9728   23.0166 O   0  0  0  0  0  0  0  0  0  0  0  0
  -24.0556  -28.6371   20.0094 O   0  0  0  0  0  0  0  0  0  0  0  0
  -28.4907  -26.9495   19.9542 O   0  0  0  0  0  0  0  0  0  0  0  0
  -31.6262  -15.3720   21.7857 O   0  0  0  0  0  0  0  0  0  0  0  0
  -21.5446   -7.1063   21.8507 O   0  0  0  0  0  0  0  0  0  0  0  0
  -28.0663  -24.7393   26.3797 O   0  0  0  0  0  0  0  0  0  1  0  0
  -23.0205   -2.3960   19.3932 F   0  0  0  0  0  0  0  0  0  0  0  0
  -19.8066   -5.7870   20.1532 F   0  0  0  0  0  0  0  0  0  0  0  0
  1  2  1  0  0  0  0
  1  5  2  0  0  0  0
  2  6  2  0  0  0  0
  3 12  2  0  0  0  0
  3 19  1  0  0  0  0
  4 13  1  0  0  0  0
  4 19  2  0  0  0  0
  5 21  1  0  0  0  0
  6 23  1  0  0  0  0
  7 14  2  0  0  0  0
  7 22  1  0  0  0  0
  8 10  2  0  0  0  0
  8 25  1  0  0  0  0
  9 11  1  0  0  0  0
  9 25  2  0  0  0  0
 10 26  1  0  0  0  0
 11 26  2  0  0  0  0
 12 27  1  0  0  0  0
 13 27  2  0  0  0  0
 14 28  1  0  0  0  0
 15 16  2  0  0  0  0
 15 29  1  0  0  0  0
 16 30  1  0  0  0  0
 17 24  1  0  0  0  0
 17 28  2  0  0  0  0
 18 30  2  0  0  0  0
 18 31  1  0  0  0  0
 19 32  1  0  0  0  0
 20 32  1  0  0  0  0
 20 33  2  0  0  0  0
 20 34  1  0  0  0  0
 21 23  2  0  0  0  0
 21 39  1  0  0  0  0
 22 24  2  0  0  0  0
 22 40  1  0  0  0  0
 23 48  1  0  0  0  0
 24 41  1  0  0  0  0
 25 58  1  0  0  0  0
 26 73  1  0  0  0  0
 27 82  1  0  0  0  0
 28 83  1  0  0  0  0
 29 31  2  0  0  0  0
 29 82  1  0  0  0  0
 30 84  1  0  0  0  0
 31 85  1  0  0  0  0
 32 67  2  0  0  0  0
 33 68  1  0  0  0  0
 33 71  1  0  0  0  0
 34 72  1  0  0  0  0
 34 77  2  0  0  0  0
 35 49  1  0  0  0  0
 35 74  1  0  0  0  0
 35 78  2  0  0  0  0
 36 63  1  0  0  0  0
 36 69  1  0  0  0  0
 36 79  2  0  0  0  0
 37 64  1  0  0  0  0
 37 75  1  0  0  0  0
 37 80  2  0  0  0  0
 38 70  1  0  0  0  0
 38 73  1  0  0  0  0
 38 81  2  0  0  0  0
 39 42  1  0  0  0  0
 40 49  1  0  0  0  0
 41 69  1  0  0  0  0
 42 44  1  0  0  0  0
 43 45  1  0  0  0  0
 43 46  1  0  0  0  0
 44 48  1  0  0  0  0
 45 50  1  0  0  0  0
 46 70  1  0  0  0  0
 47 50  1  0  0  0  0
 47 70  1  0  0  0  0
 48 74  1  0  0  0  0
 49 69  1  0  0  0  0
 50 68  1  0  0  0  0
 51 59  1  0  0  0  0
 52 64  1  0  0  0  0
 53 65  1  0  0  0  0
 54 65  1  0  0  0  0
 55 65  1  0  0  0  0
 56 66  1  0  0  0  0
 57 76  1  0  0  0  0
 58 60  1  0  0  0  0
 59 66  1  0  0  0  0
 60 66  1  0  0  0  0
 61 62  1  0  0  0  0
 61 66  1  0  0  0  0
 62 83  1  0  0  0  0
 63 65  1  0  0  0  0
 63 75  1  0  0  0  0
 64 76  1  0  0  0  0
 67 68  1  0  0  0  0
M  CHG  1  76   1
M  ISO  4  38 100  62 101  73 100  83 101
M  END
> <Batch ID>
0135

> <Smiles>
CCC(C)(CCc1ccc([100NH:0][100C:0](=O)N2CCCC(n3nc(-c4ccc(Oc5ccc(F)cc5F)cc4)c(C(N)=O)c3N)C2)cc1)C[101CH2:1][101O:1]c1ccc2c(c1)CN(C(=O)C(NC(=O)C(C)NC)C(C)(C)C)C(C(=O)NC1CCCc3ccccc31)C2

> <Shape>
0.228

> <Color>
0.156

> <Negative vol penalty>
0.000

$$$$

  -OEChem-04052302363D

 90 98  0     1  0  0  0  0  0999 V2000
  -28.5424  -24.3966   14.9332 C   0  0  0  0  0  0  0  0  0  0  0  0
  -27.3931  -24.4497   15.7152 C   0  0  0  0  0  0  0  0  0  0  0  0
  -28.0626  -15.4521   19.2073 C   0  0  0  0  0  0  0  0  0  0  0  0
  -27.8338  -16.1342   21.5137 C   0  0  0  0  0  0  0  0  0  0  0  0
  -29.7568  -24.8470   15.4494 C   0  0  0  0  0  0  0  0  0  0  0  0
  -27.4576  -24.9522   17.0143 C   0  0  0  0  0  0  0  0  0  0  0  0
  -23.6557  -28.1301   18.0591 C   0  0  0  0  0  0  0  0  0  0  0  0
  -29.1940  -16.2581   19.0812 C   0  0  0  0  0  0  0  0  0  0  0  0
  -28.9653  -16.9401   21.3876 C   0  0  0  0  0  0  0  0  0  0  0  0
  -22.4142  -27.5647   18.3472 C   0  0  0  0  0  0  0  0  0  0  0  0
  -31.5825  -19.4552   21.5715 C   0  0  0  0  0  0  0  0  0  0  0  0
  -31.5224  -20.7445   22.1005 C   0  0  0  0  0  0  0  0  0  0  0  0
  -22.8279  -27.8720   20.7038 C   0  0  0  0  0  0  0  0  0  0  0  0
  -17.4801  -18.2737   23.4401 C   0  0  0  0  0  0  0  0  0  0  0  0
  -17.7282  -20.6393   23.0167 C   0  0  0  0  0  0  0  0  0  0  0  0
  -19.6848  -19.2543   23.3179 C   0  0  0  0  0  0  0  0  0  0  0  0
  -29.6753  -21.2612   20.6314 C   0  0  0  0  0  0  0  0  0  0  0  0
  -27.3824  -15.3902   20.4236 C   0  0  0  0  0  0  0  0  0  0  0  0
  -26.1707  -13.2078   20.9497 C   0  0  0  0  0  0  0  0  0  0  0  0
  -29.8344  -25.3643   16.7521 C   0  0  0  0  0  0  0  0  0  0  0  0
  -24.4986  -28.5613   19.0934 C   0  0  0  0  0  0  0  0  0  0  0  0
  -28.6744  -25.4087   17.5489 C   0  0  0  0  0  0  0  0  0  0  0  0
  -24.0785  -28.4448   20.4261 C   0  0  0  0  0  0  0  0  0  0  0  0
  -16.9106  -19.5239   23.1986 C   0  0  0  0  0  0  0  0  0  0  0  0
  -18.8672  -18.1389   23.4998 C   0  0  0  0  0  0  0  0  0  0  0  0
  -19.1153  -20.5045   23.0764 C   0  0  0  0  0  0  0  0  0  0  0  0
  -29.6454  -17.0020   20.1713 C   0  0  0  0  0  0  0  0  0  0  0  0
  -22.0014  -27.4330   19.6698 C   0  0  0  0  0  0  0  0  0  0  0  0
  -30.6891  -19.0690   20.5723 C   0  0  0  0  0  0  0  0  0  0  0  0
  -30.5688  -21.6474   21.6305 C   0  0  0  0  0  0  0  0  0  0  0  0
  -29.7354  -19.9719   20.1024 C   0  0  0  0  0  0  0  0  0  0  0  0
  -26.2133  -14.5583   20.5543 C   0  0  0  0  0  0  0  0  0  0  0  0
  -24.8370  -12.8817   20.9147 C   0  0  0  0  0  0  0  0  0  0  0  0
  -20.7652  -21.5635   21.9006 C   0  0  0  0  0  0  0  0  0  0  0  0
  -27.2411  -12.3270   21.3159 C   0  0  0  0  0  0  0  0  0  0  0  0
  -27.4025  -27.7552   20.1041 C   0  0  0  0  0  0  0  0  0  0  0  0
  -26.9884  -30.2856   22.0910 C   0  0  0  0  0  0  0  0  0  0  0  0
  -24.8298  -32.3720   23.7140 C   0  0  0  0  0  0  0  0  0  0  0  0
  -19.8308  -16.1311   21.3952 C   0  0  0  0  0  0  0  0  0  0  0  0
  -31.1785  -25.7954   17.2831 C   0  0  0  0  0  0  0  0  0  0  0  0
  -25.8234  -29.1935   18.7649 C   0  0  0  0  0  0  0  0  0  0  0  0
  -24.9375  -28.9108   21.5721 C   0  0  0  0  0  0  0  0  0  0  0  0
  -31.0889  -26.6609   18.5374 C   0  0  0  0  0  0  0  0  0  0  0  0
  -20.7610  -14.0204   18.6829 C   0  0  0  0  0  0  0  0  0  0  0  0
  -30.1144  -26.0497   19.5392 C   0  0  0  0  0  0  0  0  0  0  0  0
  -22.2600  -13.7971   18.8907 C   0  0  0  0  0  0  0  0  0  0  0  0
  -20.3420  -15.4361   19.0731 C   0  0  0  0  0  0  0  0  0  0  0  0
  -22.2330  -15.6215   20.6426 C   0  0  0  0  0  0  0  0  0  0  0  0
  -28.6992  -25.9701   18.9540 C   0  0  1  0  0  0  0  0  0  0  0  0
  -26.8194  -29.1275   19.9186 C   0  0  1  0  0  0  0  0  0  0  0  0
  -22.6934  -14.1906   20.3156 C   0  0  2  0  0  0  0  0  0  0  0  0
  -15.4276  -19.6679   23.1349 C   0  0  0  0  0  0  0  0  0  0  0  0
  -24.7873  -34.3198   25.2957 C   0  0  0  0  0  0  0  0  0  0  0  0
  -21.7742  -22.3507   19.1128 C   0  0  0  0  0  0  0  0  0  0  0  0
  -18.2784  -25.5803   20.6886 C   0  0  0  0  0  0  0  0  0  0  0  0
  -18.4712  -15.6264   23.9461 C   0  0  0  0  0  0  0  0  0  0  0  0
  -20.3496  -16.8399   25.0443 C   0  0  0  0  0  0  0  0  0  0  0  0
  -27.6545  -28.4154   24.4081 C   0  0  0  0  0  0  0  0  0  0  0  0
  -26.6859  -30.1169   25.9685 C   0  0  0  0  0  0  0  0  0  0  0  0
  -28.6757  -30.6920   24.5783 C   0  0  0  0  0  0  0  0  0  0  0  0
  -23.4594  -34.0964   21.7372 C   0  0  0  0  0  0  0  0  0  0  0  0
  -21.7134  -22.6995   21.6177 C   0  0  0  0  0  0  0  0  0  0  0  0
  -20.0751  -23.9531   20.0486 C   0  0  0  0  0  0  0  0  0  0  0  0
  -20.6702  -26.1801   21.1910 C   0  0  0  0  0  0  0  0  0  1  0  0
  -26.4120  -30.4765   23.4732 C   0  0  1  0  0  0  0  0  0  0  0  0
  -24.7929  -33.8845   23.8385 C   0  0  2  0  0  0  0  0  0  0  0  0
  -21.4818  -23.3466   20.2426 C   0  0  2  0  0  0  0  0  0  0  0  0
  -19.6592  -25.0322   21.0719 C   0  0  1  0  0  0  0  0  0  0  0  0
  -19.4761  -16.8022   23.7580 C   0  0  0  0  0  0  0  0  0  0  0  0
  -27.3415  -29.9145   24.5857 C   0  0  0  0  0  0  0  0  0  0  0  0
  -25.0028  -15.0558   20.2876 N   0  0  0  0  0  0  0  0  0  0  0  0
  -19.9390  -21.6279   22.8933 N   0  0  0  0  0  0  0  0  0  0  0  0
  -24.1871  -14.0124   20.5157 N   0  0  0  0  0  0  0  0  0  0  0  0
  -26.2268  -29.5165   21.1999 N   0  0  0  0  0  0  0  0  0  0  0  0
  -20.7817  -15.7460   20.4357 N   0  0  0  0  0  0  0  0  0  0  0  0
  -24.1685  -11.7408   21.1865 N   0  0  0  0  0  0  0  0  0  0  0  0
  -28.5514  -12.8243   21.2980 N   0  0  0  0  0  0  0  0  0  0  0  0
  -28.0628  -27.2693   18.9918 N   0  0  0  0  0  0  0  0  0  0  0  0
  -26.1205  -31.9003   23.6008 N   0  0  0  0  0  0  0  0  0  0  0  0
  -20.3310  -16.4007   22.6632 N   0  0  0  0  0  0  0  0  0  0  0  0
  -23.5714  -34.4288   23.1808 N   0  3  0  0  0  0  0  0  0  0  0  0
  -27.0432  -11.1297   21.6332 O   0  0  0  0  0  0  0  0  0  0  0  0
  -27.2648  -27.1803   21.1776 O   0  0  0  0  0  0  0  0  0  0  0  0
  -28.0710  -30.8059   21.8102 O   0  0  0  0  0  0  0  0  0  0  0  0
  -23.8154  -31.6782   23.7204 O   0  0  0  0  0  0  0  0  0  0  0  0
  -18.6248  -16.2223   21.1421 O   0  0  0  0  0  0  0  0  0  0  0  0
  -30.7495  -17.7884   20.0487 O   0  0  0  0  0  0  0  0  0  0  0  0
  -20.7904  -26.8810   19.9538 O   0  0  0  0  0  0  0  0  0  1  0  0
  -30.5102  -22.8849   22.1397 F   0  0  0  0  0  0  0  0  0  0  0  0
  -28.8736  -19.6062   19.1435 F   0  0  0  0  0  0  0  0  0  0  0  0
  1  2  1  0  0  0  0
  1  5  2  0  0  0  0
  2  6  2  0  0  0  0
  3  8  2  0  0  0  0
  3 18  1  0  0  0  0
  4  9  1  0  0  0  0
  4 18  2  0  0  0  0
  5 20  1  0  0  0  0
  6 22  1  0  0  0  0
  7 10  2  0  0  0  0
  7 21  1  0  0  0  0
  8 27  1  0  0  0  0
  9 27  2  0  0  0  0
 10 28  1  0  0  0  0
 11 12  2  0  0  0  0
 11 29  1  0  0  0  0
 12 30  1  0  0  0  0
 13 23  1  0  0  0  0
 13 28  2  0  0  0  0
 14 24  1  0  0  0  0
 14 25  2  0  0  0  0
 15 24  2  0  0  0  0
 15 26  1  0  0  0  0
 16 25  1  0  0  0  0
 16 26  2  0  0  0  0
 17 30  2  0  0  0  0
 17 31  1  0  0  0  0
 18 32  1  0  0  0  0
 19 32  1  0  0  0  0
 19 33  2  0  0  0  0
 19 35  1  0  0  0  0
 20 22  2  0  0  0  0
 20 40  1  0  0  0  0
 21 23  2  0  0  0  0
 21 41  1  0  0  0  0
 22 49  1  0  0  0  0
 23 42  1  0  0  0  0
 24 52  1  0  0  0  0
 25 69  1  0  0  0  0
 26 72  1  0  0  0  0
 27 87  1  0  0  0  0
 28 88  1  0  0  0  0
 29 31  2  0  0  0  0
 29 87  1  0  0  0  0
 30 89  1  0  0  0  0
 31 90  1  0  0  0  0
 32 71  2  0  0  0  0
 33 73  1  0  0  0  0
 33 76  1  0  0  0  0
 34 62  1  0  0  0  0
 34 72  2  0  0  0  0
 35 77  1  0  0  0  0
 35 82  2  0  0  0  0
 36 50  1  0  0  0  0
 36 78  1  0  0  0  0
 36 83  2  0  0  0  0
 37 65  1  0  0  0  0
 37 74  1  0  0  0  0
 37 84  2  0  0  0  0
 38 66  1  0  0  0  0
 38 79  1  0  0  0  0
 38 85  2  0  0  0  0
 39 75  1  0  0  0  0
 39 80  1  0  0  0  0
 39 86  2  0  0  0  0
 40 43  1  0  0  0  0
 41 50  1  0  0  0  0
 42 74  1  0  0  0  0
 43 45  1  0  0  0  0
 44 46  1  0  0  0  0
 44 47  1  0  0  0  0
 45 49  1  0  0  0  0
 46 51  1  0  0  0  0
 47 75  1  0  0  0  0
 48 51  1  0  0  0  0
 48 75  1  0  0  0  0
 49 78  1  0  0  0  0
 50 74  1  0  0  0  0
 51 73  1  0  0  0  0
 53 66  1  0  0  0  0
 54 67  1  0  0  0  0
 55 68  1  0  0  0  0
 56 69  1  0  0  0  0
 57 69  1  0  0  0  0
 58 70  1  0  0  0  0
 59 70  1  0  0  0  0
 60 70  1  0  0  0  0
 61 81  1  0  0  0  0
 62 67  1  0  0  0  0
 63 67  1  0  0  0  0
 63 68  1  0  0  0  0
 64 68  1  0  0  0  0
 64 88  1  0  0  0  0
 65 70  1  0  0  0  0
 65 79  1  0  0  0  0
 66 81  1  0  0  0  0
 69 80  1  0  0  0  0
 71 73  1  0  0  0  0
M  CHG  1  81   1
M  ISO  4  39 100  64 101  80 100  88 101
M  END
> <Batch ID>
0135

> <Smiles>
CNC(C)C(=O)NC(C(=O)N1Cc2cc([101O:1][101CH2:1]C(C)CC(C)C=CNc3cc(C)cc(C(C)(C)[100NH:0][100C:0](=O)N4CCCC(n5nc(-c6ccc(Oc7ccc(F)cc7F)cc6)c(C(N)=O)c5N)C4)c3)ccc2CC1C(=O)NC1CCCc2ccccc21)C(C)(C)C

> <Shape>
0.244

> <Color>
0.059

> <Negative vol penalty>
0.000

$$$$

  -OEChem-04052302363D

 86 94  0     1  0  0  0  0  0999 V2000
  -27.6335  -17.5316   16.7912 C   0  0  0  0  0  0  0  0  0  0  0  0
  -28.7436  -18.2340   17.2493 C   0  0  0  0  0  0  0  0  0  0  0  0
  -23.0014   -9.8939   19.9794 C   0  0  0  0  0  0  0  0  0  0  0  0
  -23.7270   -9.9419   22.2833 C   0  0  0  0  0  0  0  0  0  0  0  0
  -27.0836  -17.8343   15.5462 C   0  0  0  0  0  0  0  0  0  0  0  0
  -29.3052  -19.2386   16.4621 C   0  0  0  0  0  0  0  0  0  0  0  0
  -30.3940  -23.4091   19.1204 C   0  0  0  0  0  0  0  0  0  0  0  0
  -22.2353   -8.7588   20.2443 C   0  0  0  0  0  0  0  0  0  0  0  0
  -22.9609   -8.8068   22.5483 C   0  0  0  0  0  0  0  0  0  0  0  0
  -31.5498  -23.3837   19.8998 C   0  0  0  0  0  0  0  0  0  0  0  0
  -23.2062   -5.4686   22.0718 C   0  0  0  0  0  0  0  0  0  0  0  0
  -23.7942   -4.4506   22.8224 C   0  0  0  0  0  0  0  0  0  0  0  0
  -32.7231  -24.6151   18.1892 C   0  0  0  0  0  0  0  0  0  0  0  0
  -30.6498  -19.8082   21.4184 C   0  0  0  0  0  0  0  0  0  0  0  0
  -29.5373  -17.8633   22.3220 C   0  0  0  0  0  0  0  0  0  0  0  0
  -31.1914  -17.6081   20.5797 C   0  0  0  0  0  0  0  0  0  0  0  0
  -22.0706   -4.6907   24.4983 C   0  0  0  0  0  0  0  0  0  0  0  0
  -23.7473  -10.4854   20.9989 C   0  0  0  0  0  0  0  0  0  0  0  0
  -24.1318  -13.0014   20.8262 C   0  0  0  0  0  0  0  0  0  0  0  0
  -27.6329  -18.8497   14.7475 C   0  0  0  0  0  0  0  0  0  0  0  0
  -30.3972  -24.0292   17.8627 C   0  0  0  0  0  0  0  0  0  0  0  0
  -28.7630  -19.5542   15.2047 C   0  0  0  0  0  0  0  0  0  0  0  0
  -31.5654  -24.6492   17.3970 C   0  0  0  0  0  0  0  0  0  0  0  0
  -29.7275  -19.2449   22.3003 C   0  0  0  0  0  0  0  0  0  0  0  0
  -31.3817  -18.9898   20.5580 C   0  0  0  0  0  0  0  0  0  0  0  0
  -30.2692  -17.0448   21.4617 C   0  0  0  0  0  0  0  0  0  0  0  0
  -22.2150   -8.2153   21.5288 C   0  0  0  0  0  0  0  0  0  0  0  0
  -32.7153  -23.9842   19.4330 C   0  0  0  0  0  0  0  0  0  0  0  0
  -22.0504   -6.0978   22.5345 C   0  0  0  0  0  0  0  0  0  0  0  0
  -23.2264   -4.0616   24.0356 C   0  0  0  0  0  0  0  0  0  0  0  0
  -21.4826   -5.7088   23.7477 C   0  0  0  0  0  0  0  0  0  0  0  0
  -24.5394  -11.6577   20.7257 C   0  0  0  0  0  0  0  0  0  0  0  0
  -25.2412  -13.7248   20.4626 C   0  0  0  0  0  0  0  0  0  0  0  0
  -22.8637  -13.5469   21.2137 C   0  0  0  0  0  0  0  0  0  0  0  0
  -29.9159  -23.0494   14.8774 C   0  0  0  0  0  0  0  0  0  0  0  0
  -30.1339  -26.2176   14.2159 C   0  0  0  0  0  0  0  0  0  0  0  0
  -31.2855  -29.2964   15.1335 C   0  0  0  0  0  0  0  0  0  0  0  0
  -30.7204  -14.6874   20.6967 C   0  0  0  0  0  0  0  0  0  0  0  0
  -27.0328  -19.1089   13.3884 C   0  0  0  0  0  0  0  0  0  0  0  0
  -29.1349  -24.0713   17.0458 C   0  0  0  0  0  0  0  0  0  0  0  0
  -31.6156  -25.3458   16.0625 C   0  0  0  0  0  0  0  0  0  0  0  0
  -27.4589  -20.4419   12.7785 C   0  0  0  0  0  0  0  0  0  0  0  0
  -29.6025  -12.2373   18.3677 C   0  0  0  0  0  0  0  0  0  0  0  0
  -28.9659  -20.6344   12.9161 C   0  0  0  0  0  0  0  0  0  0  0  0
  -28.1521  -11.9786   18.7818 C   0  0  0  0  0  0  0  0  0  0  0  0
  -30.5032  -12.4793   19.5776 C   0  0  0  0  0  0  0  0  0  0  0  0
  -28.5878  -13.2658   20.9126 C   0  0  0  0  0  0  0  0  0  0  0  0
  -29.3854  -20.6678   14.3906 C   0  0  1  0  0  0  0  0  0  0  0  0
  -29.3933  -24.2833   15.5573 C   0  0  1  0  0  0  0  0  0  0  0  0
  -27.6300  -13.0807   19.7243 C   0  0  2  0  0  0  0  0  0  0  0  0
  -28.9449  -20.1201   23.2201 C   0  0  0  0  0  0  0  0  0  0  0  0
  -31.3386  -31.6870   14.3722 C   0  0  0  0  0  0  0  0  0  0  0  0
  -35.5918  -22.8911   21.4230 C   0  0  0  0  0  0  0  0  0  0  0  0
  -32.2793  -25.5138   12.1636 C   0  0  0  0  0  0  0  0  0  0  0  0
  -32.9471  -27.9266   12.1374 C   0  0  0  0  0  0  0  0  0  0  0  0
  -30.6538  -27.2611   11.4160 C   0  0  0  0  0  0  0  0  0  0  0  0
  -36.2451  -19.9657   19.9460 C   0  0  0  0  0  0  0  0  0  0  0  0
  -34.8006  -19.7867   17.9273 C   0  0  0  0  0  0  0  0  0  0  0  0
  -29.8215  -30.2153   17.5358 C   0  0  0  0  0  0  0  0  0  0  0  0
  -32.3799  -19.5995   19.6037 C   0  0  0  0  0  0  0  0  0  0  0  0
  -33.7726  -19.6997   20.2409 C   0  0  0  0  0  0  0  0  0  0  0  0
  -34.7607  -21.9110   19.2560 C   0  0  0  0  0  0  0  0  0  0  0  0
  -31.2591  -27.1623   13.8687 C   0  0  1  0  0  0  0  0  0  0  0  0
  -30.5997  -30.6489   15.2023 C   0  0  2  0  0  0  0  0  0  0  0  0
  -34.3727  -22.6785   20.5304 C   0  0  2  0  0  0  0  0  0  1  0  0
  -31.7847  -26.9512   12.4208 C   0  0  0  0  0  0  0  0  0  0  0  0
  -34.8709  -20.3590   19.3615 C   0  0  0  0  0  0  0  0  0  0  0  0
  -25.8086  -11.5321   20.3291 N   0  0  0  0  0  0  0  0  0  0  0  0
  -26.2081  -12.8062   20.1771 N   0  0  0  0  0  0  0  0  0  0  0  0
  -30.3574  -25.3545   15.2980 N   0  0  0  0  0  0  0  0  0  0  0  0
  -29.9480  -13.5390   20.4225 N   0  0  0  0  0  0  0  0  0  0  0  0
  -25.4743  -15.0507   20.3622 N   0  0  0  0  0  0  0  0  0  0  0  0
  -21.8323  -12.6619   21.5562 N   0  0  0  0  0  0  0  0  0  0  0  0
  -30.0760  -15.6413   21.4837 N   0  0  0  0  0  0  0  0  0  0  0  0
  -29.0773  -21.9555   14.9748 N   0  0  0  0  0  0  0  0  0  0  0  0
  -30.7591  -28.5072   14.1328 N   0  0  0  0  0  0  0  0  0  0  0  0
  -30.5416  -31.1291   16.6119 N   0  3  0  0  0  0  0  0  0  0  0  0
  -22.6466  -14.7821   21.2392 O   0  0  0  0  0  0  0  0  0  0  0  0
  -30.9990  -23.0875   14.3055 O   0  0  0  0  0  0  0  0  0  0  0  0
  -29.0923  -26.2494   13.5559 O   0  0  0  0  0  0  0  0  0  0  0  0
  -32.1994  -28.9737   15.8892 O   0  0  0  0  0  0  0  0  0  0  0  0
  -31.8590  -14.8273   20.2427 O   0  0  0  0  0  0  0  0  0  0  0  0
  -21.4673   -7.1078   21.7877 O   0  0  0  0  0  0  0  0  0  0  0  0
  -33.8450  -23.9603   20.1915 O   0  0  0  0  0  0  0  0  0  1  0  0
  -23.7903   -3.0829   24.7556 F   0  0  0  0  0  0  0  0  0  0  0  0
  -20.3716   -6.3087   24.1967 F   0  0  0  0  0  0  0  0  0  0  0  0
  1  2  1  0  0  0  0
  1  5  2  0  0  0  0
  2  6  2  0  0  0  0
  3  8  2  0  0  0  0
  3 18  1  0  0  0  0
  4  9  1  0  0  0  0
  4 18  2  0  0  0  0
  5 20  1  0  0  0  0
  6 22  1  0  0  0  0
  7 10  2  0  0  0  0
  7 21  1  0  0  0  0
  8 27  1  0  0  0  0
  9 27  2  0  0  0  0
 10 28  1  0  0  0  0
 11 12  2  0  0  0  0
 11 29  1  0  0  0  0
 12 30  1  0  0  0  0
 13 23  1  0  0  0  0
 13 28  2  0  0  0  0
 14 24  2  0  0  0  0
 14 25  1  0  0  0  0
 15 24  1  0  0  0  0
 15 26  2  0  0  0  0
 16 25  2  0  0  0  0
 16 26  1  0  0  0  0
 17 30  2  0  0  0  0
 17 31  1  0  0  0  0
 18 32  1  0  0  0  0
 19 32  1  0  0  0  0
 19 33  2  0  0  0  0
 19 34  1  0  0  0  0
 20 22  2  0  0  0  0
 20 39  1  0  0  0  0
 21 23  2  0  0  0  0
 21 40  1  0  0  0  0
 22 48  1  0  0  0  0
 23 41  1  0  0  0  0
 24 51  1  0  0  0  0
 25 60  1  0  0  0  0
 26 74  1  0  0  0  0
 27 83  1  0  0  0  0
 28 84  1  0  0  0  0
 29 31  2  0  0  0  0
 29 83  1  0  0  0  0
 30 85  1  0  0  0  0
 31 86  1  0  0  0  0
 32 68  2  0  0  0  0
 33 69  1  0  0  0  0
 33 72  1  0  0  0  0
 34 73  1  0  0  0  0
 34 78  2  0  0  0  0
 35 49  1  0  0  0  0
 35 75  1  0  0  0  0
 35 79  2  0  0  0  0
 36 63  1  0  0  0  0
 36 70  1  0  0  0  0
 36 80  2  0  0  0  0
 37 64  1  0  0  0  0
 37 76  1  0  0  0  0
 37 81  2  0  0  0  0
 38 71  1  0  0  0  0
 38 74  1  0  0  0  0
 38 82  2  0  0  0  0
 39 42  1  0  0  0  0
 40 49  1  0  0  0  0
 41 70  1  0  0  0  0
 42 44  1  0  0  0  0
 43 45  1  0  0  0  0
 43 46  1  0  0  0  0
 44 48  1  0  0  0  0
 45 50  1  0  0  0  0
 46 71  1  0  0  0  0
 47 50  1  0  0  0  0
 47 71  1  0  0  0  0
 48 75  1  0  0  0  0
 49 70  1  0  0  0  0
 50 69  1  0  0  0  0
 52 64  1  0  0  0  0
 53 65  1  0  0  0  0
 54 66  1  0  0  0  0
 55 66  1  0  0  0  0
 56 66  1  0  0  0  0
 57 67  1  0  0  0  0
 58 67  1  0  0  0  0
 59 77  1  0  0  0  0
 60 61  1  0  0  0  0
 61 67  1  0  0  0  0
 62 65  1  0  0  0  0
 62 67  1  0  0  0  0
 63 66  1  0  0  0  0
 63 76  1  0  0  0  0
 64 77  1  0  0  0  0
 65 84  1  0  0  0  0
 68 69  1  0  0  0  0
M  CHG  1  77   1
M  ISO  4  38 100  65 101  74 100  84 101
M  END
> <Batch ID>
0135

> <Smiles>
CNC(C)C(=O)NC(C(=O)N1Cc2cc([101O:1][101CH:1](C)CC(C)(C)CCc3cc(C)cc([100NH:0][100C:0](=O)N4CCCC(n5nc(-c6ccc(Oc7ccc(F)cc7F)cc6)c(C(N)=O)c5N)C4)c3)ccc2CC1C(=O)NC1CCCc2ccccc21)C(C)(C)C

> <Shape>
0.214

> <Color>
0.197

> <Negative vol penalty>
0.000

$$$$

  -OEChem-04052302363D

 84 92  0     1  0  0  0  0  0999 V2000
  -28.3462  -13.0152   18.3748 C   0  0  0  0  0  0  0  0  0  0  0  0
  -27.6431  -14.1576   18.0059 C   0  0  0  0  0  0  0  0  0  0  0  0
  -28.9170  -26.3893   18.5623 C   0  0  0  0  0  0  0  0  0  0  0  0
  -26.9178  -25.0838   18.1935 C   0  0  0  0  0  0  0  0  0  0  0  0
  -27.8140  -12.1481   19.3282 C   0  0  0  0  0  0  0  0  0  0  0  0
  -26.4070  -14.4330   18.5895 C   0  0  0  0  0  0  0  0  0  0  0  0
  -24.1181  -19.9521   19.9333 C   0  0  0  0  0  0  0  0  0  0  0  0
  -29.6740  -25.2185   18.6031 C   0  0  0  0  0  0  0  0  0  0  0  0
  -27.6749  -23.9129   18.2343 C   0  0  0  0  0  0  0  0  0  0  0  0
  -23.2139  -20.7797   19.2690 C   0  0  0  0  0  0  0  0  0  0  0  0
  -29.0745  -21.9319   20.5897 C   0  0  0  0  0  0  0  0  0  0  0  0
  -28.5787  -20.8654   21.3395 C   0  0  0  0  0  0  0  0  0  0  0  0
  -19.7866  -27.1803   21.4979 C   0  0  0  0  0  0  0  0  0  0  0  0
  -18.1866  -26.7176   23.2479 C   0  0  0  0  0  0  0  0  0  0  0  0
  -21.4240  -19.9069   20.6304 C   0  0  0  0  0  0  0  0  0  0  0  0
  -19.8647  -28.4263   23.5663 C   0  0  0  0  0  0  0  0  0  0  0  0
  -28.5311  -19.4910   19.3530 C   0  0  0  0  0  0  0  0  0  0  0  0
  -27.5388  -26.3219   18.3576 C   0  0  0  0  0  0  0  0  0  0  0  0
  -18.6940  -26.4565   21.9751 C   0  0  0  0  0  0  0  0  0  0  0  0
  -26.4558  -28.3106   17.1828 C   0  0  0  0  0  0  0  0  0  0  0  0
  -26.5752  -12.4180   19.9307 C   0  0  0  0  0  0  0  0  0  0  0  0
  -23.6795  -19.0863   20.9454 C   0  0  0  0  0  0  0  0  0  0  0  0
  -25.8572  -13.5680   19.5508 C   0  0  0  0  0  0  0  0  0  0  0  0
  -22.3251  -19.0712   21.3078 C   0  0  0  0  0  0  0  0  0  0  0  0
  -20.3721  -28.1652   22.2935 C   0  0  0  0  0  0  0  0  0  0  0  0
  -29.0530  -23.9804   18.4391 C   0  0  0  0  0  0  0  0  0  0  0  0
  -21.8662  -20.7551   19.6155 C   0  0  0  0  0  0  0  0  0  0  0  0
  -29.2985  -21.7781   19.2215 C   0  0  0  0  0  0  0  0  0  0  0  0
  -28.3070  -19.6449   20.7212 C   0  0  0  0  0  0  0  0  0  0  0  0
  -18.7720  -27.7025   24.0435 C   0  0  0  0  0  0  0  0  0  0  0  0
  -29.0269  -20.5576   18.6032 C   0  0  0  0  0  0  0  0  0  0  0  0
  -26.7561  -27.5310   18.3159 C   0  0  0  0  0  0  0  0  0  0  0  0
  -25.6910  -29.3427   17.6691 C   0  0  0  0  0  0  0  0  0  0  0  0
  -18.0698  -25.4022   21.1265 C   0  0  0  0  0  0  0  0  0  0  0  0
  -26.8341  -28.1189   15.8132 C   0  0  0  0  0  0  0  0  0  0  0  0
  -23.6592  -15.9333   21.3473 C   0  0  0  0  0  0  0  0  0  0  0  0
  -22.5763  -16.7086   24.3050 C   0  0  0  0  0  0  0  0  0  0  0  0
  -21.0009  -18.9756   26.3113 C   0  0  0  0  0  0  0  0  0  0  0  0
  -22.1794  -29.9112   22.4702 C   0  0  0  0  0  0  0  0  0  0  0  0
  -26.0187  -11.4266   20.9218 C   0  0  0  0  0  0  0  0  0  0  0  0
  -24.6718  -18.2193   21.6707 C   0  0  0  0  0  0  0  0  0  0  0  0
  -21.8067  -18.1746   22.4013 C   0  0  0  0  0  0  0  0  0  0  0  0
  -24.8767  -11.9856   21.7666 C   0  0  0  0  0  0  0  0  0  0  0  0
  -24.9858  -31.9361   21.6328 C   0  0  0  0  0  0  0  0  0  0  0  0
  -23.8710  -12.7201   20.8857 C   0  0  0  0  0  0  0  0  0  0  0  0
  -25.7276  -31.1099   20.5796 C   0  0  0  0  0  0  0  0  0  0  0  0
  -24.3727  -31.0528   22.7180 C   0  0  0  0  0  0  0  0  0  0  0  0
  -24.2605  -29.1389   21.1709 C   0  0  0  0  0  0  0  0  0  0  0  0
  -24.5248  -13.9139   20.1794 C   0  0  1  0  0  0  0  0  0  0  0  0
  -24.0310  -17.0039   22.3337 C   0  0  1  0  0  0  0  0  0  0  0  0
  -24.8400  -29.9800   20.0219 C   0  0  2  0  0  0  0  0  0  0  0  0
  -20.2276  -19.3120   28.6749 C   0  0  0  0  0  0  0  0  0  0  0  0
  -20.2288  -14.8253   23.8025 C   0  0  0  0  0  0  0  0  0  0  0  0
  -19.0416  -15.9048   25.7243 C   0  0  0  0  0  0  0  0  0  0  0  0
  -21.1920  -14.6998   26.1070 C   0  0  0  0  0  0  0  0  0  0  0  0
  -22.7372  -21.3461   26.6648 C   0  0  0  0  0  0  0  0  0  0  0  0
  -18.6169  -25.1081   19.7386 C   0  0  0  0  0  0  0  0  0  0  0  0
  -19.7617  -24.0989   19.8119 C   0  0  0  0  0  0  0  0  0  0  0  0
  -20.3560  -23.8323   18.4266 C   0  0  0  0  0  0  0  0  0  0  0  0
  -21.4784  -22.8026   18.4696 C   0  0  0  0  0  0  0  0  0  1  0  0
  -21.2163  -16.9324   24.9209 C   0  0  1  0  0  0  0  0  0  0  0  0
  -21.3569  -19.5285   27.6796 C   0  0  2  0  0  0  0  0  0  0  0  0
  -20.4288  -15.6062   25.1167 C   0  0  0  0  0  0  0  0  0  0  0  0
  -26.2256  -28.0256   19.4375 N   0  0  0  0  0  0  0  0  0  0  0  0
  -17.0516  -24.7303   21.5643 N   0  0  0  0  0  0  0  0  0  0  0  0
  -25.5843  -29.1271   19.0116 N   0  0  0  0  0  0  0  0  0  0  0  0
  -22.8149  -17.3409   23.0766 N   0  0  0  0  0  0  0  0  0  0  0  0
  -23.5416  -30.0081   22.1156 N   0  0  0  0  0  0  0  0  0  0  0  0
  -25.1063  -30.4045   17.0750 N   0  0  0  0  0  0  0  0  0  0  0  0
  -27.6217  -27.0064   15.4871 N   0  0  0  0  0  0  0  0  0  0  0  0
  -21.4820  -28.9007   21.8090 N   0  0  0  0  0  0  0  0  0  0  0  0
  -24.6699  -15.0253   21.0949 N   0  0  0  0  0  0  0  0  0  0  0  0
  -21.4441  -17.6796   26.1531 N   0  0  0  0  0  0  0  0  0  0  0  0
  -21.6322  -20.9905   27.5919 N   0  3  0  0  0  0  0  0  0  0  0  0
  -26.4979  -28.9196   14.9081 O   0  0  0  0  0  0  0  0  0  0  0  0
  -22.5380  -15.9302   20.8529 O   0  0  0  0  0  0  0  0  0  0  0  0
  -23.3991  -16.0046   24.8957 O   0  0  0  0  0  0  0  0  0  0  0  0
  -20.3874  -19.6269   25.4687 O   0  0  0  0  0  0  0  0  0  0  0  0
  -21.6626  -30.6863   23.2790 O   0  0  0  0  0  0  0  0  0  0  0  0
  -29.7915  -22.8377   18.4786 O   0  0  0  0  0  0  0  0  0  0  0  0
  -20.9814  -21.5614   18.9682 O   0  0  0  0  0  0  0  0  0  1  0  0
  -27.8324  -18.6203   21.4416 F   0  0  0  0  0  0  0  0  0  0  0  0
  -18.2867  -27.9513   25.2669 F   0  0  0  0  0  0  0  0  0  0  0  0
  -29.2412  -20.4035   17.2894 F   0  0  0  0  0  0  0  0  0  0  0  0
  1  2  1  0  0  0  0
  1  5  2  0  0  0  0
  2  6  2  0  0  0  0
  3  8  2  0  0  0  0
  3 18  1  0  0  0  0
  4  9  1  0  0  0  0
  4 18  2  0  0  0  0
  5 21  1  0  0  0  0
  6 23  1  0  0  0  0
  7 10  2  0  0  0  0
  7 22  1  0  0  0  0
  8 26  1  0  0  0  0
  9 26  2  0  0  0  0
 10 27  1  0  0  0  0
 11 12  2  0  0  0  0
 11 28  1  0  0  0  0
 12 29  1  0  0  0  0
 13 19  2  0  0  0  0
 13 25  1  0  0  0  0
 14 19  1  0  0  0  0
 14 30  2  0  0  0  0
 15 24  1  0  0  0  0
 15 27  2  0  0  0  0
 16 25  2  0  0  0  0
 16 30  1  0  0  0  0
 17 29  2  0  0  0  0
 17 31  1  0  0  0  0
 18 32  1  0  0  0  0
 19 34  1  0  0  0  0
 20 32  1  0  0  0  0
 20 33  2  0  0  0  0
 20 35  1  0  0  0  0
 21 23  2  0  0  0  0
 21 40  1  0  0  0  0
 22 24  2  0  0  0  0
 22 41  1  0  0  0  0
 23 49  1  0  0  0  0
 24 42  1  0  0  0  0
 25 71  1  0  0  0  0
 26 80  1  0  0  0  0
 27 81  1  0  0  0  0
 28 31  2  0  0  0  0
 28 80  1  0  0  0  0
 29 82  1  0  0  0  0
 30 83  1  0  0  0  0
 31 84  1  0  0  0  0
 32 64  2  0  0  0  0
 33 66  1  0  0  0  0
 33 69  1  0  0  0  0
 34 57  1  0  0  0  0
 34 65  2  0  0  0  0
 35 70  1  0  0  0  0
 35 75  2  0  0  0  0
 36 50  1  0  0  0  0
 36 72  1  0  0  0  0
 36 76  2  0  0  0  0
 37 61  1  0  0  0  0
 37 67  1  0  0  0  0
 37 77  2  0  0  0  0
 38 62  1  0  0  0  0
 38 73  1  0  0  0  0
 38 78  2  0  0  0  0
 39 68  1  0  0  0  0
 39 71  1  0  0  0  0
 39 79  2  0  0  0  0
 40 43  1  0  0  0  0
 41 50  1  0  0  0  0
 42 67  1  0  0  0  0
 43 45  1  0  0  0  0
 44 46  1  0  0  0  0
 44 47  1  0  0  0  0
 45 49  1  0  0  0  0
 46 51  1  0  0  0  0
 47 68  1  0  0  0  0
 48 51  1  0  0  0  0
 48 68  1  0  0  0  0
 49 72  1  0  0  0  0
 50 67  1  0  0  0  0
 51 66  1  0  0  0  0
 52 62  1  0  0  0  0
 53 63  1  0  0  0  0
 54 63  1  0  0  0  0
 55 63  1  0  0  0  0
 56 74  1  0  0  0  0
 57 58  1  0  0  0  0
 58 59  1  0  0  0  0
 59 60  1  0  0  0  0
 60 81  1  0  0  0  0
 61 63  1  0  0  0  0
 61 73  1  0  0  0  0
 62 74  1  0  0  0  0
 64 66  1  0  0  0  0
M  CHG  1  74   1
M  ISO  4  39 100  60 101  71 100  81 101
M  END
> <Batch ID>
0135

> <Smiles>
CNC(C)C(=O)NC(C(=O)N1Cc2cc([101O:1][101CH2:1]CCCC(=N)c3cc(F)cc([100NH:0][100C:0](=O)N4CCCC(n5nc(-c6ccc(Oc7ccc(F)cc7F)cc6)c(C(N)=O)c5N)C4)c3)ccc2CC1C(=O)NC1CCCc2ccccc21)C(C)(C)C

> <Shape>
0.217

> <Color>
0.082

> <Negative vol penalty>
0.000

$$$$

  -OEChem-04052302363D

 85 93  0     1  0  0  0  0  0999 V2000
  -22.9674  -24.3209   20.9252 C   0  0  0  0  0  0  0  0  0  0  0  0
  -23.9357  -23.3649   20.6356 C   0  0  0  0  0  0  0  0  0  0  0  0
  -22.9304  -30.9329   21.2218 C   0  0  0  0  0  0  0  0  0  0  0  0
  -22.6283  -28.9326   22.5427 C   0  0  0  0  0  0  0  0  0  0  0  0
  -22.0070  -24.0647   21.9030 C   0  0  0  0  0  0  0  0  0  0  0  0
  -23.9448  -22.1525   21.3243 C   0  0  0  0  0  0  0  0  0  0  0  0
  -24.6385  -18.1819   18.2588 C   0  0  0  0  0  0  0  0  0  0  0  0
  -21.5570  -30.9830   20.9835 C   0  0  0  0  0  0  0  0  0  0  0  0
  -21.2548  -28.9827   22.3044 C   0  0  0  0  0  0  0  0  0  0  0  0
  -25.9390  -17.9348   17.8212 C   0  0  0  0  0  0  0  0  0  0  0  0
  -18.5867  -30.6959   23.4733 C   0  0  0  0  0  0  0  0  0  0  0  0
  -17.7344  -30.4856   24.5573 C   0  0  0  0  0  0  0  0  0  0  0  0
  -26.1686  -16.2129   19.4949 C   0  0  0  0  0  0  0  0  0  0  0  0
  -28.0514  -22.8713   22.4024 C   0  0  0  0  0  0  0  0  0  0  0  0
  -28.5516  -20.6623   21.5617 C   0  0  0  0  0  0  0  0  0  0  0  0
  -29.3500  -22.6134   20.3815 C   0  0  0  0  0  0  0  0  0  0  0  0
  -16.7718  -28.5776   23.4303 C   0  0  0  0  0  0  0  0  0  0  0  0
  -23.4661  -29.9076   22.0013 C   0  0  0  0  0  0  0  0  0  0  0  0
  -25.5857  -30.4520   23.3122 C   0  0  0  0  0  0  0  0  0  0  0  0
  -21.9986  -22.8447   22.5973 C   0  0  0  0  0  0  0  0  0  0  0  0
  -24.0962  -17.4525   19.3267 C   0  0  0  0  0  0  0  0  0  0  0  0
  -22.9843  -21.8803   22.3132 C   0  0  0  0  0  0  0  0  0  0  0  0
  -24.8601  -16.4508   19.9425 C   0  0  0  0  0  0  0  0  0  0  0  0
  -27.9520  -21.4846   22.5156 C   0  0  0  0  0  0  0  0  0  0  0  0
  -28.7503  -23.4357   21.3353 C   0  0  0  0  0  0  0  0  0  0  0  0
  -20.7192  -30.0080   21.5249 C   0  0  0  0  0  0  0  0  0  0  0  0
  -26.7053  -16.9522   18.4412 C   0  0  0  0  0  0  0  0  0  0  0  0
  -18.5316  -29.8471   22.3678 C   0  0  0  0  0  0  0  0  0  0  0  0
  -29.2506  -21.2267   20.4946 C   0  0  0  0  0  0  0  0  0  0  0  0
  -16.8270  -29.4265   24.5358 C   0  0  0  0  0  0  0  0  0  0  0  0
  -17.6242  -28.7879   22.3463 C   0  0  0  0  0  0  0  0  0  0  0  0
  -24.8848  -29.8549   22.2473 C   0  0  0  0  0  0  0  0  0  0  0  0
  -26.8978  -30.1092   23.0948 C   0  0  0  0  0  0  0  0  0  0  0  0
  -25.0946  -31.2455   24.4007 C   0  0  0  0  0  0  0  0  0  0  0  0
  -23.0126  -18.1865   22.2233 C   0  0  0  0  0  0  0  0  0  0  0  0
  -22.1708  -15.0543   22.2761 C   0  0  0  0  0  0  0  0  0  0  0  0
  -22.6850  -11.8957   21.0905 C   0  0  0  0  0  0  0  0  0  0  0  0
  -29.5079  -25.5654   20.2232 C   0  0  0  0  0  0  0  0  0  0  0  0
  -20.9692  -22.6321   23.6789 C   0  0  0  0  0  0  0  0  0  0  0  0
  -22.6824  -17.7127   19.7693 C   0  0  0  0  0  0  0  0  0  0  0  0
  -24.3173  -15.6260   21.0798 C   0  0  0  0  0  0  0  0  0  0  0  0
  -20.8208  -21.1724   24.1002 C   0  0  0  0  0  0  0  0  0  0  0  0
  -29.9526  -29.0364   19.5661 C   0  0  0  0  0  0  0  0  0  0  0  0
  -22.1908  -20.5373   24.3163 C   0  0  0  0  0  0  0  0  0  0  0  0
  -28.7707  -29.6950   20.2811 C   0  0  0  0  0  0  0  0  0  0  0  0
  -29.5642  -27.6957   18.9451 C   0  0  0  0  0  0  0  0  0  0  0  0
  -27.7459  -27.4045   20.5816 C   0  0  0  0  0  0  0  0  0  0  0  0
  -23.0121  -20.5432   23.0214 C   0  0  1  0  0  0  0  0  0  0  0  0
  -22.4123  -17.2626   21.2017 C   0  0  1  0  0  0  0  0  0  0  0  0
  -28.1050  -28.7269   21.2787 C   0  0  2  0  0  0  0  0  0  0  0  0
  -27.2046  -20.8810   23.6561 C   0  0  0  0  0  0  0  0  0  0  0  0
  -21.8686   -9.5370   21.3500 C   0  0  0  0  0  0  0  0  0  0  0  0
  -23.7006  -14.8165   24.9054 C   0  0  0  0  0  0  0  0  0  0  0  0
  -23.6633  -12.3293   24.6216 C   0  0  0  0  0  0  0  0  0  0  0  0
  -21.5225  -13.5889   24.8511 C   0  0  0  0  0  0  0  0  0  0  0  0
  -30.7498  -16.1970   17.2777 C   0  0  0  0  0  0  0  0  0  0  0  0
  -31.3046  -16.1494   19.7130 C   0  0  0  0  0  0  0  0  0  0  0  0
  -21.8277  -11.7582   18.2612 C   0  0  0  0  0  0  0  0  0  0  0  0
  -30.4307  -18.2767   18.6265 C   0  0  0  0  0  0  0  0  0  0  0  0
  -29.6934  -19.0148   19.7415 C   0  0  0  0  0  0  0  0  0  0  0  0
  -28.9072  -16.2409   18.9901 C   0  0  0  0  0  0  0  0  0  1  0  0
  -22.8449  -13.7732   22.7042 C   0  0  1  0  0  0  0  0  0  0  0  0
  -21.7189  -10.8410   20.5819 C   0  0  2  0  0  0  0  0  0  0  0  0
  -22.9440  -13.6437   24.2504 C   0  0  0  0  0  0  0  0  0  0  0  0
  -30.3359  -16.7283   18.6667 C   0  0  0  0  0  0  0  0  0  0  0  0
  -25.6855  -29.1838   21.4151 N   0  0  0  0  0  0  0  0  0  0  0  0
  -26.9030  -29.3572   21.9570 N   0  0  0  0  0  0  0  0  0  0  0  0
  -22.9319  -15.9223   21.4805 N   0  0  0  0  0  0  0  0  0  0  0  0
  -28.9437  -26.8294   19.9497 N   0  0  0  0  0  0  0  0  0  0  0  0
  -28.0362  -30.3808   23.7677 N   0  0  0  0  0  0  0  0  0  0  0  0
  -23.7186  -31.5020   24.4730 N   0  0  0  0  0  0  0  0  0  0  0  0
  -28.8513  -24.8444   21.2200 N   0  0  0  0  0  0  0  0  0  0  0  0
  -22.5648  -19.4908   22.1344 N   0  0  0  0  0  0  0  0  0  0  0  0
  -22.1100  -12.6901   22.0598 N   0  0  0  0  0  0  0  0  0  0  0  0
  -21.9647  -10.5667   19.1378 N   0  3  0  0  0  0  0  0  0  0  0  0
  -25.8555  -31.7270   25.2741 O   0  0  0  0  0  0  0  0  0  0  0  0
  -23.8209  -17.7482   23.0333 O   0  0  0  0  0  0  0  0  0  0  0  0
  -21.0091  -15.2734   22.6285 O   0  0  0  0  0  0  0  0  0  0  0  0
  -23.8360  -12.0017   20.6727 O   0  0  0  0  0  0  0  0  0  0  0  0
  -30.5165  -25.1644   19.6368 O   0  0  0  0  0  0  0  0  0  0  0  0
  -19.3789  -30.0567   21.2928 O   0  0  0  0  0  0  0  0  0  0  0  0
  -27.9751  -16.7095   18.0165 O   0  0  0  0  0  0  0  0  0  1  0  0
  -29.8389  -20.4193   19.5580 O   0  0  0  0  0  0  0  0  0  0  0  0
  -16.0096  -29.2237   25.5774 F   0  0  0  0  0  0  0  0  0  0  0  0
  -17.5674  -27.9684   21.2875 F   0  0  0  0  0  0  0  0  0  0  0  0
  1  2  1  0  0  0  0
  1  5  2  0  0  0  0
  2  6  2  0  0  0  0
  3  8  2  0  0  0  0
  3 18  1  0  0  0  0
  4  9  1  0  0  0  0
  4 18  2  0  0  0  0
  5 20  1  0  0  0  0
  6 22  1  0  0  0  0
  7 10  2  0  0  0  0
  7 21  1  0  0  0  0
  8 26  1  0  0  0  0
  9 26  2  0  0  0  0
 10 27  1  0  0  0  0
 11 12  2  0  0  0  0
 11 28  1  0  0  0  0
 12 30  1  0  0  0  0
 13 23  1  0  0  0  0
 13 27  2  0  0  0  0
 14 24  1  0  0  0  0
 14 25  2  0  0  0  0
 15 24  2  0  0  0  0
 15 29  1  0  0  0  0
 16 25  1  0  0  0  0
 16 29  2  0  0  0  0
 17 30  2  0  0  0  0
 17 31  1  0  0  0  0
 18 32  1  0  0  0  0
 19 32  1  0  0  0  0
 19 33  2  0  0  0  0
 19 34  1  0  0  0  0
 20 22  2  0  0  0  0
 20 39  1  0  0  0  0
 21 23  2  0  0  0  0
 21 40  1  0  0  0  0
 22 48  1  0  0  0  0
 23 41  1  0  0  0  0
 24 51  1  0  0  0  0
 25 72  1  0  0  0  0
 26 81  1  0  0  0  0
 27 82  1  0  0  0  0
 28 31  2  0  0  0  0
 28 81  1  0  0  0  0
 29 83  1  0  0  0  0
 30 84  1  0  0  0  0
 31 85  1  0  0  0  0
 32 66  2  0  0  0  0
 33 67  1  0  0  0  0
 33 70  1  0  0  0  0
 34 71  1  0  0  0  0
 34 76  2  0  0  0  0
 35 49  1  0  0  0  0
 35 73  1  0  0  0  0
 35 77  2  0  0  0  0
 36 62  1  0  0  0  0
 36 68  1  0  0  0  0
 36 78  2  0  0  0  0
 37 63  1  0  0  0  0
 37 74  1  0  0  0  0
 37 79  2  0  0  0  0
 38 69  1  0  0  0  0
 38 72  1  0  0  0  0
 38 80  2  0  0  0  0
 39 42  1  0  0  0  0
 40 49  1  0  0  0  0
 41 68  1  0  0  0  0
 42 44  1  0  0  0  0
 43 45  1  0  0  0  0
 43 46  1  0  0  0  0
 44 48  1  0  0  0  0
 45 50  1  0  0  0  0
 46 69  1  0  0  0  0
 47 50  1  0  0  0  0
 47 69  1  0  0  0  0
 48 73  1  0  0  0  0
 49 68  1  0  0  0  0
 50 67  1  0  0  0  0
 52 63  1  0  0  0  0
 53 64  1  0  0  0  0
 54 64  1  0  0  0  0
 55 64  1  0  0  0  0
 56 65  1  0  0  0  0
 57 65  1  0  0  0  0
 58 75  1  0  0  0  0
 59 60  1  0  0  0  0
 59 65  1  0  0  0  0
 60 83  1  0  0  0  0
 61 65  1  0  0  0  0
 61 82  1  0  0  0  0
 62 64  1  0  0  0  0
 62 74  1  0  0  0  0
 63 75  1  0  0  0  0
 66 67  1  0  0  0  0
M  CHG  1  75   1
M  ISO  4  38 100  61 101  72 100  82 101
M  END
> <Batch ID>
0135

> <Smiles>
CNC(C)C(=O)NC(C(=O)N1Cc2cc([101O:1][101CH2:1]C(C)(C)CCOc3cc(C)cc([100NH:0][100C:0](=O)N4CCCC(n5nc(-c6ccc(Oc7ccc(F)cc7F)cc6)c(C(N)=O)c5N)C4)c3)ccc2CC1C(=O)NC1CCCc2ccccc21)C(C)(C)C

> <Shape>
0.239

> <Color>
0.067

> <Negative vol penalty>
0.000

$$$$

  -OEChem-04052302363D

 81 89  0     1  0  0  0  0  0999 V2000
  -20.2839  -34.7522   21.8265 C   0  0  0  0  0  0  0  0  0  0  0  0
  -21.5197  -34.2352   21.4512 C   0  0  0  0  0  0  0  0  0  0  0  0
  -26.0219  -22.7170   17.5877 C   0  0  0  0  0  0  0  0  0  0  0  0
  -26.4309  -12.2361   20.7809 C   0  0  0  0  0  0  0  0  0  0  0  0
  -24.7691  -13.6634   19.7618 C   0  0  0  0  0  0  0  0  0  0  0  0
  -19.4932  -34.0662   22.7474 C   0  0  0  0  0  0  0  0  0  0  0  0
  -21.9660  -33.0322   21.9973 C   0  0  0  0  0  0  0  0  0  0  0  0
  -25.3247  -28.7415   19.2020 C   0  0  0  0  0  0  0  0  0  0  0  0
  -26.2981  -21.6776   18.4758 C   0  0  0  0  0  0  0  0  0  0  0  0
  -26.9659  -23.7216   17.3744 C   0  0  0  0  0  0  0  0  0  0  0  0
  -25.4186  -11.4380   21.3138 C   0  0  0  0  0  0  0  0  0  0  0  0
  -23.7569  -12.8653   20.2947 C   0  0  0  0  0  0  0  0  0  0  0  0
  -26.6900  -28.4597   19.2199 C   0  0  0  0  0  0  0  0  0  0  0  0
  -23.2780   -8.8176   22.6428 C   0  0  0  0  0  0  0  0  0  0  0  0
  -23.4223   -7.4339   22.5422 C   0  0  0  0  0  0  0  0  0  0  0  0
  -26.3184  -26.7974   20.9281 C   0  0  0  0  0  0  0  0  0  0  0  0
  -28.4623  -22.6471   18.9375 C   0  0  0  0  0  0  0  0  0  0  0  0
  -23.4834   -7.6153   20.1338 C   0  0  0  0  0  0  0  0  0  0  0  0
  -26.1061  -13.3488   20.0049 C   0  0  0  0  0  0  0  0  0  0  0  0
  -27.7860  -14.0226   18.2072 C   0  0  0  0  0  0  0  0  0  0  0  0
  -19.9257  -32.8494   23.2978 C   0  0  0  0  0  0  0  0  0  0  0  0
  -24.4460  -28.0598   20.0562 C   0  0  0  0  0  0  0  0  0  0  0  0
  -21.1808  -32.3300   22.9274 C   0  0  0  0  0  0  0  0  0  0  0  0
  -24.9420  -27.0706   20.9172 C   0  0  0  0  0  0  0  0  0  0  0  0
  -27.5183  -21.6426   19.1507 C   0  0  0  0  0  0  0  0  0  0  0  0
  -24.0816  -11.7526   21.0707 C   0  0  0  0  0  0  0  0  0  0  0  0
  -27.1874  -27.4896   20.0851 C   0  0  0  0  0  0  0  0  0  0  0  0
  -28.1861  -23.6866   18.0493 C   0  0  0  0  0  0  0  0  0  0  0  0
  -23.2362   -9.6002   21.4888 C   0  0  0  0  0  0  0  0  0  0  0  0
  -23.5251   -6.8328   21.2877 C   0  0  0  0  0  0  0  0  0  0  0  0
  -23.3389   -8.9990   20.2344 C   0  0  0  0  0  0  0  0  0  0  0  0
  -27.1513  -14.1740   19.4546 C   0  0  0  0  0  0  0  0  0  0  0  0
  -28.6968  -15.0495   18.1585 C   0  0  0  0  0  0  0  0  0  0  0  0
  -27.5714  -13.0414   17.1840 C   0  0  0  0  0  0  0  0  0  0  0  0
  -22.4982  -28.9156   22.4178 C   0  0  0  0  0  0  0  0  0  0  0  0
  -21.6049  -25.7999   22.2876 C   0  0  0  0  0  0  0  0  0  0  0  0
  -22.3957  -22.5927   21.4301 C   0  0  0  0  0  0  0  0  0  0  0  0
  -28.9596  -20.4016   20.8026 C   0  0  0  0  0  0  0  0  0  0  0  0
  -19.0570  -32.1679   24.3253 C   0  0  0  0  0  0  0  0  0  0  0  0
  -22.9723  -28.3566   20.0056 C   0  0  0  0  0  0  0  0  0  0  0  0
  -24.0377  -26.2961   21.8397 C   0  0  0  0  0  0  0  0  0  0  0  0
  -19.4370  -30.7106   24.5741 C   0  0  0  0  0  0  0  0  0  0  0  0
  -31.3884  -17.8059   21.0031 C   0  0  0  0  0  0  0  0  0  0  0  0
  -20.9465  -30.5745   24.7465 C   0  0  0  0  0  0  0  0  0  0  0  0
  -30.6370  -16.5674   20.5095 C   0  0  0  0  0  0  0  0  0  0  0  0
  -30.4866  -18.7272   21.8225 C   0  0  0  0  0  0  0  0  0  0  0  0
  -28.4820  -17.8777   20.6696 C   0  0  0  0  0  0  0  0  0  0  0  0
  -21.6886  -31.0154   23.4790 C   0  0  1  0  0  0  0  0  0  0  0  0
  -22.2394  -27.9635   21.2846 C   0  0  1  0  0  0  0  0  0  0  0  0
  -29.3322  -16.9515   19.7847 C   0  0  2  0  0  0  0  0  0  0  0  0
  -21.4790  -20.2572   21.4801 C   0  0  0  0  0  0  0  0  0  0  0  0
  -22.1896  -25.6371   25.2778 C   0  0  0  0  0  0  0  0  0  0  0  0
  -22.1828  -23.1419   25.0724 C   0  0  0  0  0  0  0  0  0  0  0  0
  -20.1168  -24.4399   24.5534 C   0  0  0  0  0  0  0  0  0  0  0  0
  -22.5022  -22.3636   18.4813 C   0  0  0  0  0  0  0  0  0  0  0  0
  -30.4184  -26.4363   18.8350 C   0  0  0  0  0  0  0  0  0  0  0  0
  -29.2392  -27.3951   18.8863 C   0  0  0  0  0  0  0  0  0  1  0  0
  -29.9755  -24.9845   18.9264 C   0  0  0  0  0  0  0  0  0  0  0  0
  -22.0700  -24.5258   22.9504 C   0  0  1  0  0  0  0  0  0  0  0  0
  -21.6209  -21.5341   20.6663 C   0  0  2  0  0  0  0  0  0  0  0  0
  -21.6573  -24.4520   24.4476 C   0  0  0  0  0  0  0  0  0  0  0  0
  -27.6194  -15.2150   20.1483 N   0  0  0  0  0  0  0  0  0  0  0  0
  -28.5579  -15.7270   19.3340 N   0  0  0  0  0  0  0  0  0  0  0  0
  -22.6055  -26.6270   21.7578 N   0  0  0  0  0  0  0  0  0  0  0  0
  -29.2723  -19.0521   21.0709 N   0  0  0  0  0  0  0  0  0  0  0  0
  -29.5949  -15.4300   17.2252 N   0  0  0  0  0  0  0  0  0  0  0  0
  -26.5968  -12.0569   17.3962 N   0  0  0  0  0  0  0  0  0  0  0  0
  -27.7986  -20.5863   20.0526 N   0  0  0  0  0  0  0  0  0  0  0  0
  -21.6207  -29.9819   22.4683 N   0  0  0  0  0  0  0  0  0  0  0  0
  -21.5571  -23.4305   22.1345 N   0  0  0  0  0  0  0  0  0  0  0  0
  -22.3159  -21.2033   19.3902 N   0  3  0  0  0  0  0  0  0  0  0  0
  -28.2361  -13.0281   16.1202 O   0  0  0  0  0  0  0  0  0  0  0  0
  -23.4244  -28.6981   23.1901 O   0  0  0  0  0  0  0  0  0  0  0  0
  -20.3978  -26.0486   22.2352 O   0  0  0  0  0  0  0  0  0  0  0  0
  -23.6223  -22.6666   21.4073 O   0  0  0  0  0  0  0  0  0  0  0  0
  -29.6841  -21.3240   21.1851 O   0  0  0  0  0  0  0  0  0  0  0  0
  -23.0936  -10.9739   21.5903 O   0  0  0  0  0  0  0  0  0  0  0  0
  -28.5197  -27.2131   20.1052 O   0  0  0  0  0  0  0  0  0  1  0  0
  -29.1137  -24.6737   17.8399 O   0  0  0  0  0  0  0  0  0  0  0  0
  -23.6653   -5.5042   21.1914 F   0  0  0  0  0  0  0  0  0  0  0  0
  -23.3007   -9.7458   19.1223 F   0  0  0  0  0  0  0  0  0  0  0  0
  1  2  1  0  0  0  0
  1  6  2  0  0  0  0
  2  7  2  0  0  0  0
  3  9  1  0  0  0  0
  3 10  2  0  0  0  0
  4 11  2  0  0  0  0
  4 19  1  0  0  0  0
  5 12  1  0  0  0  0
  5 19  2  0  0  0  0
  6 21  1  0  0  0  0
  7 23  1  0  0  0  0
  8 13  2  0  0  0  0
  8 22  1  0  0  0  0
  9 25  2  0  0  0  0
 10 28  1  0  0  0  0
 11 26  1  0  0  0  0
 12 26  2  0  0  0  0
 13 27  1  0  0  0  0
 14 15  2  0  0  0  0
 14 29  1  0  0  0  0
 15 30  1  0  0  0  0
 16 24  1  0  0  0  0
 16 27  2  0  0  0  0
 17 25  1  0  0  0  0
 17 28  2  0  0  0  0
 18 30  2  0  0  0  0
 18 31  1  0  0  0  0
 19 32  1  0  0  0  0
 20 32  1  0  0  0  0
 20 33  2  0  0  0  0
 20 34  1  0  0  0  0
 21 23  2  0  0  0  0
 21 39  1  0  0  0  0
 22 24  2  0  0  0  0
 22 40  1  0  0  0  0
 23 48  1  0  0  0  0
 24 41  1  0  0  0  0
 25 68  1  0  0  0  0
 26 77  1  0  0  0  0
 27 78  1  0  0  0  0
 28 79  1  0  0  0  0
 29 31  2  0  0  0  0
 29 77  1  0  0  0  0
 30 80  1  0  0  0  0
 31 81  1  0  0  0  0
 32 62  2  0  0  0  0
 33 63  1  0  0  0  0
 33 66  1  0  0  0  0
 34 67  1  0  0  0  0
 34 72  2  0  0  0  0
 35 49  1  0  0  0  0
 35 69  1  0  0  0  0
 35 73  2  0  0  0  0
 36 59  1  0  0  0  0
 36 64  1  0  0  0  0
 36 74  2  0  0  0  0
 37 60  1  0  0  0  0
 37 70  1  0  0  0  0
 37 75  2  0  0  0  0
 38 65  1  0  0  0  0
 38 68  1  0  0  0  0
 38 76  2  0  0  0  0
 39 42  1  0  0  0  0
 40 49  1  0  0  0  0
 41 64  1  0  0  0  0
 42 44  1  0  0  0  0
 43 45  1  0  0  0  0
 43 46  1  0  0  0  0
 44 48  1  0  0  0  0
 45 50  1  0  0  0  0
 46 65  1  0  0  0  0
 47 50  1  0  0  0  0
 47 65  1  0  0  0  0
 48 69  1  0  0  0  0
 49 64  1  0  0  0  0
 50 63  1  0  0  0  0
 51 60  1  0  0  0  0
 52 61  1  0  0  0  0
 53 61  1  0  0  0  0
 54 61  1  0  0  0  0
 55 71  1  0  0  0  0
 56 57  1  0  0  0  0
 56 58  1  0  0  0  0
 57 78  1  0  0  0  0
 58 79  1  0  0  0  0
 59 61  1  0  0  0  0
 59 70  1  0  0  0  0
 60 71  1  0  0  0  0
 62 63  1  0  0  0  0
M  CHG  1  71   1
M  ISO  4  38 100  57 101  68 100  78 101
M  END
> <Batch ID>
0135

> <Smiles>
CNC(C)C(=O)NC(C(=O)N1Cc2cc([101O:1][101CH2:1]CCOc3cccc([100NH:0][100C:0](=O)N4CCCC(n5nc(-c6ccc(Oc7ccc(F)cc7F)cc6)c(C(N)=O)c5N)C4)c3)ccc2CC1C(=O)NC1CCCc2ccccc21)C(C)(C)C

> <Shape>
0.241

> <Color>
0.090

> <Negative vol penalty>
0.000

$$$$

  -OEChem-04052302363D

 90 99  0     1  0  0  0  0  0999 V2000
  -30.5783  -15.2367   15.1752 C   0  0  0  0  0  0  0  0  0  0  0  0
  -30.3752  -14.5564   16.3706 C   0  0  0  0  0  0  0  0  0  0  0  0
  -26.6764  -18.6048   23.1028 C   0  0  0  0  0  0  0  0  0  0  0  0
  -27.0546  -28.5613   19.5549 C   0  0  0  0  0  0  0  0  0  0  0  0
  -26.0430  -26.9589   21.0535 C   0  0  0  0  0  0  0  0  0  0  0  0
  -29.6287  -16.1535   14.7294 C   0  0  0  0  0  0  0  0  0  0  0  0
  -29.2168  -14.7838   17.1145 C   0  0  0  0  0  0  0  0  0  0  0  0
  -28.4668  -11.8915   21.0228 C   0  0  0  0  0  0  0  0  0  0  0  0
  -28.0581  -18.4200   23.1501 C   0  0  0  0  0  0  0  0  0  0  0  0
  -26.0534  -18.9013   21.8905 C   0  0  0  0  0  0  0  0  0  0  0  0
  -25.8568  -29.2746   19.5091 C   0  0  0  0  0  0  0  0  0  0  0  0
  -24.8452  -27.6722   21.0078 C   0  0  0  0  0  0  0  0  0  0  0  0
  -29.2154  -11.9981   22.1941 C   0  0  0  0  0  0  0  0  0  0  0  0
  -21.6285  -29.2700   21.5713 C   0  0  0  0  0  0  0  0  0  0  0  0
  -20.9628  -29.4990   22.7754 C   0  0  0  0  0  0  0  0  0  0  0  0
  -30.9220  -16.1520   20.7457 C   0  0  0  0  0  0  0  0  0  0  0  0
  -31.3805  -14.8956   21.2087 C   0  0  0  0  0  0  0  0  0  0  0  0
  -27.3713  -13.1279   23.2628 C   0  0  0  0  0  0  0  0  0  0  0  0
  -22.8879  -30.6952   23.6123 C   0  0  0  0  0  0  0  0  0  0  0  0
  -27.1477  -27.4034   20.3271 C   0  0  0  0  0  0  0  0  0  0  0  0
  -29.4463  -26.8437   21.2815 C   0  0  0  0  0  0  0  0  0  0  0  0
  -28.4643  -16.4009   15.4751 C   0  0  0  0  0  0  0  0  0  0  0  0
  -27.1666  -12.4129   20.9592 C   0  0  0  0  0  0  0  0  0  0  0  0
  -28.2352  -15.6876   16.6693 C   0  0  0  0  0  0  0  0  0  0  0  0
  -26.6074  -13.0244   22.0903 C   0  0  0  0  0  0  0  0  0  0  0  0
  -28.8169  -18.5318   21.9850 C   0  0  0  0  0  0  0  0  0  0  0  0
  -28.1940  -18.8283   20.7727 C   0  0  0  0  0  0  0  0  0  0  0  0
  -26.8122  -19.0130   20.7254 C   0  0  0  0  0  0  0  0  0  0  0  0
  -24.7521  -28.8301   20.2355 C   0  0  0  0  0  0  0  0  0  0  0  0
  -28.6688  -12.6189   23.3135 C   0  0  0  0  0  0  0  0  0  0  0  0
  -22.9240  -29.7535   21.3876 C   0  0  0  0  0  0  0  0  0  0  0  0
  -21.5924  -30.2116   23.7959 C   0  0  0  0  0  0  0  0  0  0  0  0
  -23.5536  -30.4661   22.4081 C   0  0  0  0  0  0  0  0  0  0  0  0
  -28.3845  -26.6658   20.3743 C   0  0  0  0  0  0  0  0  0  0  0  0
  -30.7658  -16.9374   21.8641 C   0  0  0  0  0  0  0  0  0  0  0  0
  -31.4721  -15.0029   22.5770 C   0  0  0  0  0  0  0  0  0  0  0  0
  -30.3775  -25.9056   20.9083 C   0  0  0  0  0  0  0  0  0  0  0  0
  -29.5788  -27.7737   22.3647 C   0  0  0  0  0  0  0  0  0  0  0  0
  -25.7341  -14.6627   19.2300 C   0  0  0  0  0  0  0  0  0  0  0  0
  -23.0737  -13.5774   20.7354 C   0  0  0  0  0  0  0  0  0  0  0  0
  -21.7171  -11.9785   23.4280 C   0  0  0  0  0  0  0  0  0  0  0  0
  -29.9665  -20.6759   18.0217 C   0  0  0  0  0  0  0  0  0  0  0  0
  -27.4658  -17.3979   14.9420 C   0  0  0  0  0  0  0  0  0  0  0  0
  -26.3623  -12.2661   19.6967 C   0  0  0  0  0  0  0  0  0  0  0  0
  -25.2085  -13.5825   22.0801 C   0  0  0  0  0  0  0  0  0  0  0  0
  -26.4958  -17.8960   16.0084 C   0  0  0  0  0  0  0  0  0  0  0  0
  -31.9345  -23.4905   17.0829 C   0  0  0  0  0  0  0  0  0  0  0  0
  -25.9037  -16.7160   16.7645 C   0  0  0  0  0  0  0  0  0  0  0  0
  -31.3437  -24.6395   17.9018 C   0  0  0  0  0  0  0  0  0  0  0  0
  -30.8553  -22.5145   16.6195 C   0  0  0  0  0  0  0  0  0  0  0  0
  -29.4057  -23.1335   18.5141 C   0  0  0  0  0  0  0  0  0  0  0  0
  -26.9974  -15.9412   17.5105 C   0  0  1  0  0  0  0  0  0  0  0  0
  -25.2367  -13.2895   19.5829 C   0  0  1  0  0  0  0  0  0  0  0  0
  -30.4625  -24.1139   19.0510 C   0  0  2  0  0  0  0  0  0  0  0  0
  -19.5111  -11.2757   24.3960 C   0  0  0  0  0  0  0  0  0  0  0  0
  -29.0287  -14.1905   26.3221 C   0  0  0  0  0  0  0  0  0  0  0  0
  -22.5322  -16.4572   21.5860 C   0  0  0  0  0  0  0  0  0  0  0  0
  -20.9186  -15.5780   23.2864 C   0  0  0  0  0  0  0  0  0  0  0  0
  -20.5054  -15.1858   20.8578 C   0  0  0  0  0  0  0  0  0  0  0  0
  -24.9653  -20.0909   19.4398 C   0  0  0  0  0  0  0  0  0  0  0  0
  -22.4620   -9.1154   23.3465 C   0  0  0  0  0  0  0  0  0  0  0  0
  -30.3252  -18.3250   22.0653 C   0  0  0  0  0  0  0  0  0  0  0  0
  -29.0119  -18.9474   19.5251 C   0  0  0  0  0  0  0  0  0  0  0  0
  -31.8907  -14.0421   23.6611 C   0  0  0  0  0  0  0  0  0  0  0  0
  -31.1734  -14.2683   24.9999 C   0  0  0  0  0  0  0  0  0  0  0  0
  -22.3583  -13.9180   22.0204 C   0  0  1  0  0  0  0  0  0  0  0  0
  -20.6892  -10.8657   23.5261 C   0  0  2  0  0  0  0  0  0  0  0  0
  -29.6576  -14.0416   24.9426 C   0  0  1  0  0  0  0  0  0  1  0  0
  -21.6057  -15.2761   21.9376 C   0  0  0  0  0  0  0  0  0  0  0  0
  -28.6186  -25.6914   19.4913 N   0  0  0  0  0  0  0  0  0  0  0  0
  -29.8381  -25.2487   19.8417 N   0  0  0  0  0  0  0  0  0  0  0  0
  -24.4643  -13.4201   20.8201 N   0  0  0  0  0  0  0  0  0  0  0  0
  -30.0563  -22.0525   17.7571 N   0  0  0  0  0  0  0  0  0  0  0  0
  -31.5970  -25.5868   21.3918 N   0  0  0  0  0  0  0  0  0  0  0  0
  -28.5278  -28.6677   22.6100 N   0  0  0  0  0  0  0  0  0  0  0  0
  -26.1625  -19.3133   19.5080 N   0  0  0  0  0  0  0  0  0  0  0  0
  -26.4330  -14.7190   18.0392 N   0  0  0  0  0  0  0  0  0  0  0  0
  -21.5012  -12.7775   22.3252 N   0  0  0  0  0  0  0  0  0  0  0  0
  -29.1944  -20.3240   19.1221 N   0  0  0  0  0  0  0  0  0  0  0  0
  -21.3046   -9.6425   24.1143 N   0  3  0  0  0  0  0  0  0  0  0  0
  -30.6060  -27.8217   23.0830 O   0  0  0  0  0  0  0  0  0  0  0  0
  -25.5000  -15.6018   19.9815 O   0  0  0  0  0  0  0  0  0  0  0  0
  -22.4217  -13.4482   19.6962 O   0  0  0  0  0  0  0  0  0  0  0  0
  -22.6189  -12.1266   24.2498 O   0  0  0  0  0  0  0  0  0  0  0  0
  -30.5367  -19.8240   17.3318 O   0  0  0  0  0  0  0  0  0  0  0  0
  -31.0992  -16.2445   22.9844 O   0  0  0  0  0  0  0  0  0  0  0  0
  -23.5833  -29.5260   20.1913 O   0  0  0  0  0  0  0  0  0  0  0  0
  -29.3976  -12.7249   24.4578 O   0  0  0  0  0  0  0  0  0  1  0  0
  -20.9525  -30.4328   24.9516 F   0  0  0  0  0  0  0  0  0  0  0  0
  -24.7977  -30.9341   22.2371 F   0  0  0  0  0  0  0  0  0  0  0  0
  1  2  1  0  0  0  0
  1  6  2  0  0  0  0
  2  7  2  0  0  0  0
  3  9  1  0  0  0  0
  3 10  2  0  0  0  0
  4 11  2  0  0  0  0
  4 20  1  0  0  0  0
  5 12  1  0  0  0  0
  5 20  2  0  0  0  0
  6 22  1  0  0  0  0
  7 24  1  0  0  0  0
  8 13  2  0  0  0  0
  8 23  1  0  0  0  0
  9 26  2  0  0  0  0
 10 28  1  0  0  0  0
 11 29  1  0  0  0  0
 12 29  2  0  0  0  0
 13 30  1  0  0  0  0
 14 15  2  0  0  0  0
 14 31  1  0  0  0  0
 15 32  1  0  0  0  0
 16 17  1  0  0  0  0
 16 35  2  0  0  0  0
 17 36  2  0  0  0  0
 18 25  1  0  0  0  0
 18 30  2  0  0  0  0
 19 32  2  0  0  0  0
 19 33  1  0  0  0  0
 20 34  1  0  0  0  0
 21 34  1  0  0  0  0
 21 37  2  0  0  0  0
 21 38  1  0  0  0  0
 22 24  2  0  0  0  0
 22 43  1  0  0  0  0
 23 25  2  0  0  0  0
 23 44  1  0  0  0  0
 24 52  1  0  0  0  0
 25 45  1  0  0  0  0
 26 27  1  0  0  0  0
 26 62  1  0  0  0  0
 27 28  2  0  0  0  0
 27 63  1  0  0  0  0
 28 76  1  0  0  0  0
 29 87  1  0  0  0  0
 30 88  1  0  0  0  0
 31 33  2  0  0  0  0
 31 87  1  0  0  0  0
 32 89  1  0  0  0  0
 33 90  1  0  0  0  0
 34 70  2  0  0  0  0
 35 62  1  0  0  0  0
 35 86  1  0  0  0  0
 36 64  1  0  0  0  0
 36 86  1  0  0  0  0
 37 71  1  0  0  0  0
 37 74  1  0  0  0  0
 38 75  1  0  0  0  0
 38 81  2  0  0  0  0
 39 53  1  0  0  0  0
 39 77  1  0  0  0  0
 39 82  2  0  0  0  0
 40 66  1  0  0  0  0
 40 72  1  0  0  0  0
 40 83  2  0  0  0  0
 41 67  1  0  0  0  0
 41 78  1  0  0  0  0
 41 84  2  0  0  0  0
 42 73  1  0  0  0  0
 42 79  1  0  0  0  0
 42 85  2  0  0  0  0
 43 46  1  0  0  0  0
 44 53  1  0  0  0  0
 45 72  1  0  0  0  0
 46 48  1  0  0  0  0
 47 49  1  0  0  0  0
 47 50  1  0  0  0  0
 48 52  1  0  0  0  0
 49 54  1  0  0  0  0
 50 73  1  0  0  0  0
 51 54  1  0  0  0  0
 51 73  1  0  0  0  0
 52 77  1  0  0  0  0
 53 72  1  0  0  0  0
 54 71  1  0  0  0  0
 55 67  1  0  0  0  0
 56 68  1  0  0  0  0
 57 69  1  0  0  0  0
 58 69  1  0  0  0  0
 59 69  1  0  0  0  0
 60 76  1  0  0  0  0
 61 80  1  0  0  0  0
 63 79  1  0  0  0  0
 64 65  1  0  0  0  0
 65 68  1  0  0  0  0
 66 69  1  0  0  0  0
 66 78  1  0  0  0  0
 67 80  1  0  0  0  0
 68 88  1  0  0  0  0
 70 71  1  0  0  0  0
M  CHG  1  80   1
M  ISO  4  42 100  68 101  79 100  88 101
M  END
> <Batch ID>
0135

> <Smiles>
CNc1cccc(Cc2ccc(CC[101CH:1](C)[101O:1]c3ccc4c(c3)CN(C(=O)C(NC(=O)C(C)NC)C(C)(C)C)C(C(=O)NC3CCCc5ccccc53)C4)o2)c1C[100NH:0][100C:0](=O)N1CCCC(n2nc(-c3ccc(Oc4ccc(F)cc4F)cc3)c(C(N)=O)c2N)C1

> <Shape>
0.250

> <Color>
0.061

> <Negative vol penalty>
0.000

$$$$

  -OEChem-04052302363D

 93102  0     1  0  0  0  0  0999 V2000
  -28.9425  -33.1802   24.7246 C   0  0  0  0  0  0  0  0  0  0  0  0
  -28.5927  -31.8353   24.7912 C   0  0  0  0  0  0  0  0  0  0  0  0
  -22.8083  -10.1223   20.0939 C   0  0  0  0  0  0  0  0  0  0  0  0
  -24.2479   -9.5008   21.9320 C   0  0  0  0  0  0  0  0  0  0  0  0
  -27.9999  -17.4543   24.0637 C   0  0  0  0  0  0  0  0  0  0  0  0
  -27.9570  -34.1467   24.5285 C   0  0  0  0  0  0  0  0  0  0  0  0
  -27.2570  -31.4563   24.6629 C   0  0  0  0  0  0  0  0  0  0  0  0
  -26.6531  -27.4788   21.5872 C   0  0  0  0  0  0  0  0  0  0  0  0
  -22.0733   -8.9505   20.2733 C   0  0  0  0  0  0  0  0  0  0  0  0
  -23.5129   -8.3290   22.1114 C   0  0  0  0  0  0  0  0  0  0  0  0
  -28.6003  -16.1989   24.1577 C   0  0  0  0  0  0  0  0  0  0  0  0
  -26.9527  -26.2204   22.1074 C   0  0  0  0  0  0  0  0  0  0  0  0
  -20.5770   -7.4230   23.5187 C   0  0  0  0  0  0  0  0  0  0  0  0
  -20.2266   -7.0729   24.8226 C   0  0  0  0  0  0  0  0  0  0  0  0
  -25.8244  -16.4325   24.3085 C   0  0  0  0  0  0  0  0  0  0  0  0
  -24.6028  -25.8211   22.4785 C   0  0  0  0  0  0  0  0  0  0  0  0
  -21.4438   -4.9986   24.5926 C   0  0  0  0  0  0  0  0  0  0  0  0
  -23.8956  -10.3975   20.9232 C   0  0  0  0  0  0  0  0  0  0  0  0
  -26.6119  -17.5712   24.1391 C   0  0  0  0  0  0  0  0  0  0  0  0
  -24.1810  -12.9303   20.8198 C   0  0  0  0  0  0  0  0  0  0  0  0
  -26.6096  -33.7785   24.3880 C   0  0  0  0  0  0  0  0  0  0  0  0
  -25.3248  -27.9228   21.5187 C   0  0  0  0  0  0  0  0  0  0  0  0
  -26.2523  -32.4189   24.4660 C   0  0  0  0  0  0  0  0  0  0  0  0
  -24.2888  -27.0845   21.9547 C   0  0  0  0  0  0  0  0  0  0  0  0
  -26.4247  -15.1769   24.4026 C   0  0  0  0  0  0  0  0  0  0  0  0
  -22.4256   -8.0538   21.2821 C   0  0  0  0  0  0  0  0  0  0  0  0
  -25.9277  -25.3925   22.5558 C   0  0  0  0  0  0  0  0  0  0  0  0
  -27.8127  -15.0601   24.3271 C   0  0  0  0  0  0  0  0  0  0  0  0
  -21.3607   -6.5609   22.7517 C   0  0  0  0  0  0  0  0  0  0  0  0
  -20.6600   -5.8607   25.3596 C   0  0  0  0  0  0  0  0  0  0  0  0
  -21.7942   -5.3487   23.2887 C   0  0  0  0  0  0  0  0  0  0  0  0
  -24.6556  -11.6075   20.7380 C   0  0  0  0  0  0  0  0  0  0  0  0
  -25.2850  -13.7074   20.5669 C   0  0  0  0  0  0  0  0  0  0  0  0
  -25.9782  -18.8980   24.0390 C   0  0  0  0  0  0  0  0  0  0  0  0
  -22.8604  -13.4135   21.0994 C   0  0  0  0  0  0  0  0  0  0  0  0
  -23.6974  -30.3353   22.7975 C   0  0  0  0  0  0  0  0  0  0  0  0
  -29.7992  -12.2350   23.2523 C   0  0  0  0  0  0  0  0  0  0  0  0
  -21.3271  -29.2472   20.8688 C   0  0  0  0  0  0  0  0  0  0  0  0
  -31.1670  -12.6462   21.1896 C   0  0  0  0  0  0  0  0  0  0  0  0
  -19.9746  -26.6419   19.1282 C   0  0  0  0  0  0  0  0  0  0  0  0
  -25.5740  -34.8628   24.2249 C   0  0  0  0  0  0  0  0  0  0  0  0
  -25.0161  -29.2722   20.9303 C   0  0  0  0  0  0  0  0  0  0  0  0
  -22.8446  -27.5060   21.8841 C   0  0  0  0  0  0  0  0  0  0  0  0
  -24.2271  -34.3482   23.7237 C   0  0  0  0  0  0  0  0  0  0  0  0
  -29.4441  -13.6665   18.2179 C   0  0  0  0  0  0  0  0  0  0  0  0
  -25.4921  -19.6309   20.5264 C   0  0  0  0  0  0  0  0  0  0  0  0
  -23.8080  -33.1044   24.5010 C   0  0  0  0  0  0  0  0  0  0  0  0
  -27.9812  -13.3480   18.5238 C   0  0  0  0  0  0  0  0  0  0  0  0
  -24.4517  -20.5237   21.1945 C   0  0  0  0  0  0  0  0  0  0  0  0
  -25.8384  -18.6103   21.6031 C   0  0  0  0  0  0  0  0  0  0  0  0
  -30.3821  -12.6396   18.8447 C   0  0  0  0  0  0  0  0  0  0  0  0
  -28.7363  -12.1502   20.6262 C   0  0  0  0  0  0  0  0  0  0  0  0
  -24.8171  -31.9663   24.3065 C   0  0  1  0  0  0  0  0  0  0  0  0
  -23.6696  -29.8279   21.3835 C   0  0  1  0  0  0  0  0  0  0  0  0
  -27.7567  -13.1805   20.0371 C   0  0  2  0  0  0  0  0  0  0  0  0
  -24.9427  -20.6541   22.6395 C   0  0  2  0  0  0  0  0  0  0  0  0
  -25.5671  -13.9684   24.5849 C   0  0  0  0  0  0  0  0  0  0  0  0
  -18.0134  -26.0472   17.6798 C   0  0  0  0  0  0  0  0  0  0  0  0
  -31.0152  -10.3725   22.0973 C   0  0  0  0  0  0  0  0  0  0  0  0
  -32.3266  -12.1589   23.2891 C   0  0  0  0  0  0  0  0  0  0  0  0
  -19.5409  -29.1299   23.3398 C   0  0  0  0  0  0  0  0  0  0  0  0
  -17.9676  -27.6728   22.0476 C   0  0  0  0  0  0  0  0  0  0  0  0
  -18.4193  -30.0037   21.2823 C   0  0  0  0  0  0  0  0  0  0  0  0
  -21.7220  -25.9839   16.8320 C   0  0  0  0  0  0  0  0  0  0  0  0
  -29.6463  -13.6741   23.7166 C   0  0  0  0  0  0  0  0  0  0  0  0
  -25.9317  -21.7938   22.8328 C   0  0  0  0  0  0  0  0  0  0  0  0
  -25.2338  -23.1437   22.8982 C   0  0  0  0  0  0  0  0  0  1  0  0
  -20.2109  -28.2406   21.0103 C   0  0  1  0  0  0  0  0  0  0  0  0
  -19.4505  -26.5441   17.7068 C   0  0  2  0  0  0  0  0  0  0  0  0
  -31.0679  -11.8569   22.4707 C   0  0  0  0  0  0  0  0  0  0  0  0
  -19.0619  -28.7543   21.9233 C   0  0  0  0  0  0  0  0  0  0  0  0
  -25.9594  -11.5440   20.4551 N   0  0  0  0  0  0  0  0  0  0  0  0
  -26.3135  -12.8367   20.3569 N   0  0  0  0  0  0  0  0  0  0  0  0
  -25.6268  -19.3619   22.8523 N   0  0  0  0  0  0  0  0  0  0  0  0
  -22.5943  -28.8369   21.3065 N   0  0  0  0  0  0  0  0  0  0  0  0
  -30.1221  -12.4934   20.2780 N   0  0  0  0  0  0  0  0  0  0  0  0
  -25.4665  -15.0437   20.5059 N   0  0  0  0  0  0  0  0  0  0  0  0
  -22.5070  -13.6582   22.4334 N   0  0  0  0  0  0  0  0  0  0  0  0
  -24.6252  -31.3353   23.0183 N   0  0  0  0  0  0  0  0  0  0  0  0
  -19.7913  -27.9031   19.6545 N   0  0  0  0  0  0  0  0  0  0  0  0
  -25.7684  -19.6069   25.1444 N   0  3  0  0  0  0  0  0  0  0  0  0
  -20.2879  -25.6038   16.9095 N   0  3  0  0  0  0  0  0  0  0  0  0
  -22.0133  -13.6064   20.1946 O   0  0  0  0  0  0  0  0  0  0  0  0
  -22.9327  -29.8561   23.6265 O   0  0  0  0  0  0  0  0  0  0  0  0
  -28.9376  -11.3926   23.5152 O   0  0  0  0  0  0  0  0  0  0  0  0
  -21.0850  -30.3540   20.3810 O   0  0  0  0  0  0  0  0  0  0  0  0
  -32.1432  -13.3784   21.0075 O   0  0  0  0  0  0  0  0  0  0  0  0
  -20.4912  -25.6932   19.7144 O   0  0  0  0  0  0  0  0  0  0  0  0
  -21.7084   -6.9104   21.4576 O   0  0  0  0  0  0  0  0  0  0  0  0
  -28.4152  -13.8416   24.4169 O   0  0  0  0  0  0  0  0  0  0  0  0
  -26.2174  -24.1640   23.0646 O   0  0  0  0  0  0  0  0  0  1  0  0
  -20.3247   -5.5253   26.6123 F   0  0  0  0  0  0  0  0  0  0  0  0
  -22.5484   -4.5170   22.5571 F   0  0  0  0  0  0  0  0  0  0  0  0
  1  2  1  0  0  0  0
  1  6  2  0  0  0  0
  2  7  2  0  0  0  0
  3  9  2  0  0  0  0
  3 18  1  0  0  0  0
  4 10  1  0  0  0  0
  4 18  2  0  0  0  0
  5 11  2  0  0  0  0
  5 19  1  0  0  0  0
  6 21  1  0  0  0  0
  7 23  1  0  0  0  0
  8 12  2  0  0  0  0
  8 22  1  0  0  0  0
  9 26  1  0  0  0  0
 10 26  2  0  0  0  0
 11 28  1  0  0  0  0
 12 27  1  0  0  0  0
 13 14  2  0  0  0  0
 13 29  1  0  0  0  0
 14 30  1  0  0  0  0
 15 19  2  0  0  0  0
 15 25  1  0  0  0  0
 16 24  1  0  0  0  0
 16 27  2  0  0  0  0
 17 30  2  0  0  0  0
 17 31  1  0  0  0  0
 18 32  1  0  0  0  0
 19 34  1  0  0  0  0
 20 32  1  0  0  0  0
 20 33  2  0  0  0  0
 20 35  1  0  0  0  0
 21 23  2  0  0  0  0
 21 41  1  0  0  0  0
 22 24  2  0  0  0  0
 22 42  1  0  0  0  0
 23 53  1  0  0  0  0
 24 43  1  0  0  0  0
 25 28  2  0  0  0  0
 25 57  1  0  0  0  0
 26 89  1  0  0  0  0
 27 91  1  0  0  0  0
 28 90  1  0  0  0  0
 29 31  2  0  0  0  0
 29 89  1  0  0  0  0
 30 92  1  0  0  0  0
 31 93  1  0  0  0  0
 32 72  2  0  0  0  0
 33 73  1  0  0  0  0
 33 77  1  0  0  0  0
 34 74  1  0  0  0  0
 34 81  2  0  0  0  0
 35 78  1  0  0  0  0
 35 83  2  0  0  0  0
 36 54  1  0  0  0  0
 36 79  1  0  0  0  0
 36 84  2  0  0  0  0
 37 65  1  0  0  0  0
 37 70  1  0  0  0  0
 37 85  2  0  0  0  0
 38 68  1  0  0  0  0
 38 75  1  0  0  0  0
 38 86  2  0  0  0  0
 39 70  1  0  0  0  0
 39 76  1  0  0  0  0
 39 87  2  0  0  0  0
 40 69  1  0  0  0  0
 40 80  1  0  0  0  0
 40 88  2  0  0  0  0
 41 44  1  0  0  0  0
 42 54  1  0  0  0  0
 43 75  1  0  0  0  0
 44 47  1  0  0  0  0
 45 48  1  0  0  0  0
 45 51  1  0  0  0  0
 46 49  1  0  0  0  0
 46 50  1  0  0  0  0
 47 53  1  0  0  0  0
 48 55  1  0  0  0  0
 49 56  1  0  0  0  0
 50 74  1  0  0  0  0
 51 76  1  0  0  0  0
 52 55  1  0  0  0  0
 52 76  1  0  0  0  0
 53 79  1  0  0  0  0
 54 75  1  0  0  0  0
 55 73  1  0  0  0  0
 56 66  1  0  0  0  0
 56 74  1  0  0  0  0
 58 69  1  0  0  0  0
 59 70  1  0  0  0  0
 60 70  1  0  0  0  0
 61 71  1  0  0  0  0
 62 71  1  0  0  0  0
 63 71  1  0  0  0  0
 64 82  1  0  0  0  0
 65 90  1  0  0  0  0
 66 67  1  0  0  0  0
 67 91  1  0  0  0  0
 68 71  1  0  0  0  0
 68 80  1  0  0  0  0
 69 82  1  0  0  0  0
 72 73  1  0  0  0  0
M  CHG  2  81   1  82   1
M  ISO  4  39 100  67 101  70 100  91 101
M  END
> <Batch ID>
0135

> <Smiles>
CNC(C)C(=O)NC(C(=O)N1Cc2cc([101O:1][101CH2:1]CC3CCCN3C(=N)c3ccc(OCC(=O)[100C:0](C)(C)[100C:0](=O)N4CCCC(n5nc(-c6ccc(Oc7ccc(F)cc7F)cc6)c(C(N)=O)c5N)C4)c(C)c3)ccc2CC1C(=O)NC1CCCc2ccccc21)C(C)(C)C

> <Shape>
0.286

> <Color>
0.156

> <Negative vol penalty>
0.000

$$$$

  -OEChem-04052302363D

 84 92  0     1  0  0  0  0  0999 V2000
  -28.1211  -33.3144   26.4111 C   0  0  0  0  0  0  0  0  0  0  0  0
  -28.1874  -32.0873   25.7590 C   0  0  0  0  0  0  0  0  0  0  0  0
  -32.2801  -19.0010   19.3107 C   0  0  0  0  0  0  0  0  0  0  0  0
  -24.5477  -11.7596   24.0505 C   0  0  0  0  0  0  0  0  0  0  0  0
  -24.3637  -14.1658   23.9357 C   0  0  0  0  0  0  0  0  0  0  0  0
  -26.8842  -33.9171   26.6359 C   0  0  0  0  0  0  0  0  0  0  0  0
  -27.0165  -31.4617   25.3323 C   0  0  0  0  0  0  0  0  0  0  0  0
  -27.4021  -29.6156   20.6324 C   0  0  0  0  0  0  0  0  0  0  0  0
  -31.4449  -20.0914   19.5534 C   0  0  0  0  0  0  0  0  0  0  0  0
  -31.7361  -17.7248   19.1645 C   0  0  0  0  0  0  0  0  0  0  0  0
  -24.1748  -11.7951   25.3941 C   0  0  0  0  0  0  0  0  0  0  0  0
  -23.9907  -14.2014   25.2793 C   0  0  0  0  0  0  0  0  0  0  0  0
  -28.0926  -28.4148   20.4747 C   0  0  0  0  0  0  0  0  0  0  0  0
  -21.2055  -13.6280   27.1054 C   0  0  0  0  0  0  0  0  0  0  0  0
  -20.1260  -14.4390   27.4554 C   0  0  0  0  0  0  0  0  0  0  0  0
  -25.9945  -27.2288   20.3714 C   0  0  0  0  0  0  0  0  0  0  0  0
  -29.5219  -18.6297   19.5039 C   0  0  0  0  0  0  0  0  0  0  0  0
  -21.5574  -15.7072   28.9318 C   0  0  0  0  0  0  0  0  0  0  0  0
  -24.6423  -12.9449   23.3213 C   0  0  0  0  0  0  0  0  0  0  0  0
  -24.1780  -12.7908   20.8176 C   0  0  0  0  0  0  0  0  0  0  0  0
  -25.6982  -33.3032   26.2031 C   0  0  0  0  0  0  0  0  0  0  0  0
  -26.0004  -29.6308   20.6718 C   0  0  0  0  0  0  0  0  0  0  0  0
  -25.7624  -32.0562   25.5527 C   0  0  0  0  0  0  0  0  0  0  0  0
  -25.2885  -28.4315   20.5271 C   0  0  0  0  0  0  0  0  0  0  0  0
  -30.0658  -19.9058   19.6500 C   0  0  0  0  0  0  0  0  0  0  0  0
  -30.3571  -17.5392   19.2611 C   0  0  0  0  0  0  0  0  0  0  0  0
  -23.8962  -13.0160   26.0085 C   0  0  0  0  0  0  0  0  0  0  0  0
  -27.3889  -27.2208   20.3470 C   0  0  0  0  0  0  0  0  0  0  0  0
  -22.4610  -13.8566   27.6686 C   0  0  0  0  0  0  0  0  0  0  0  0
  -20.3019  -15.4786   28.3686 C   0  0  0  0  0  0  0  0  0  0  0  0
  -22.6370  -14.8962   28.5817 C   0  0  0  0  0  0  0  0  0  0  0  0
  -25.0281  -12.9089   21.9335 C   0  0  0  0  0  0  0  0  0  0  0  0
  -25.0257  -12.8049   19.7371 C   0  0  0  0  0  0  0  0  0  0  0  0
  -22.7497  -12.6785   20.7627 C   0  0  0  0  0  0  0  0  0  0  0  0
  -23.8261  -30.4770   22.8305 C   0  0  0  0  0  0  0  0  0  0  0  0
  -28.4798  -23.8537   21.1303 C   0  0  0  0  0  0  0  0  0  0  0  0
  -21.7558  -29.8918   20.4029 C   0  0  0  0  0  0  0  0  0  0  0  0
  -21.1143  -28.2696   17.4697 C   0  0  0  0  0  0  0  0  0  0  0  0
  -30.4925  -15.0548   18.8668 C   0  0  0  0  0  0  0  0  0  0  0  0
  -24.3812  -33.9706   26.5107 C   0  0  0  0  0  0  0  0  0  0  0  0
  -25.2699  -30.9377   20.8158 C   0  0  0  0  0  0  0  0  0  0  0  0
  -23.7829  -28.3963   20.5425 C   0  0  0  0  0  0  0  0  0  0  0  0
  -23.2144  -33.4208   25.6944 C   0  0  0  0  0  0  0  0  0  0  0  0
  -29.5002  -11.6581   18.4727 C   0  0  0  0  0  0  0  0  0  0  0  0
  -23.2328  -31.8955   25.6972 C   0  0  0  0  0  0  0  0  0  0  0  0
  -28.1604  -11.5841   19.2087 C   0  0  0  0  0  0  0  0  0  0  0  0
  -30.4843  -12.5894   19.1784 C   0  0  0  0  0  0  0  0  0  0  0  0
  -28.6345  -13.8649   20.1887 C   0  0  0  0  0  0  0  0  0  0  0  0
  -24.5163  -31.3581   25.0528 C   0  0  1  0  0  0  0  0  0  0  0  0
  -23.8533  -30.7738   21.3578 C   0  0  1  0  0  0  0  0  0  0  0  0
  -27.5882  -12.9893   19.4801 C   0  0  2  0  0  0  0  0  0  0  0  0
  -27.7184  -22.6907   23.1812 C   0  0  0  0  0  0  0  0  0  0  0  0
  -19.3215  -27.9591   15.7415 C   0  0  0  0  0  0  0  0  0  0  0  0
  -20.2539  -28.0316   22.2986 C   0  0  0  0  0  0  0  0  0  0  0  0
  -19.0948  -27.0519   20.3074 C   0  0  0  0  0  0  0  0  0  0  0  0
  -18.7889  -29.4641   20.8647 C   0  0  0  0  0  0  0  0  0  0  0  0
  -22.8188  -29.3999   15.3305 C   0  0  0  0  0  0  0  0  0  0  0  0
  -29.1634  -21.0850   19.9124 C   0  0  0  0  0  0  0  0  0  0  0  0
  -27.4371  -24.8704   20.7063 C   0  0  0  0  0  0  0  0  0  1  0  0
  -28.9134  -21.3638   21.4023 C   0  0  0  0  0  0  0  0  0  0  0  0
  -27.9498  -22.5313   21.6799 C   0  0  2  0  0  0  0  0  0  0  0  0
  -20.9969  -28.6822   19.9131 C   0  0  1  0  0  0  0  0  0  0  0  0
  -20.5475  -28.7609   16.1500 C   0  0  2  0  0  0  0  0  0  0  0  0
  -19.8121  -28.3075   20.8476 C   0  0  0  0  0  0  0  0  0  0  0  0
  -26.3170  -12.9917   21.5933 N   0  0  0  0  0  0  0  0  0  0  0  0
  -26.2832  -12.9255   20.2514 N   0  0  0  0  0  0  0  0  0  0  0  0
  -23.1141  -29.6993   20.6920 N   0  0  0  0  0  0  0  0  0  0  0  0
  -29.8749  -13.9029   19.3982 N   0  0  0  0  0  0  0  0  0  0  0  0
  -24.8109  -12.7257   18.4067 N   0  0  0  0  0  0  0  0  0  0  0  0
  -22.0325  -12.6803   21.9669 N   0  0  0  0  0  0  0  0  0  0  0  0
  -29.8048  -16.2429   19.1119 N   0  0  0  0  0  0  0  0  0  0  0  0
  -24.4317  -31.4436   23.6105 N   0  0  0  0  0  0  0  0  0  0  0  0
  -20.6045  -28.9753   18.5389 N   0  0  0  0  0  0  0  0  0  0  0  0
  -21.5684  -28.6409   15.0709 N   0  3  0  0  0  0  0  0  0  0  0  0
  -22.1290  -12.5629   19.6788 O   0  0  0  0  0  0  0  0  0  0  0  0
  -23.2938  -29.4479   23.2298 O   0  0  0  0  0  0  0  0  0  0  0  0
  -29.6848  -24.0958   21.0628 O   0  0  0  0  0  0  0  0  0  0  0  0
  -21.1667  -30.9696   20.5177 O   0  0  0  0  0  0  0  0  0  0  0  0
  -21.9253  -27.3491   17.5449 O   0  0  0  0  0  0  0  0  0  0  0  0
  -31.5392  -14.9887   18.2171 O   0  0  0  0  0  0  0  0  0  0  0  0
  -23.5320  -13.0511   27.3194 O   0  0  0  0  0  0  0  0  0  0  0  0
  -28.0605  -26.0472   20.1936 O   0  0  0  0  0  0  0  0  0  1  0  0
  -19.2655  -16.2582   28.7035 F   0  0  0  0  0  0  0  0  0  0  0  0
  -23.8410  -15.1214   29.1252 F   0  0  0  0  0  0  0  0  0  0  0  0
  1  2  1  0  0  0  0
  1  6  2  0  0  0  0
  2  7  2  0  0  0  0
  3  9  2  0  0  0  0
  3 10  1  0  0  0  0
  4 11  2  0  0  0  0
  4 19  1  0  0  0  0
  5 12  1  0  0  0  0
  5 19  2  0  0  0  0
  6 21  1  0  0  0  0
  7 23  1  0  0  0  0
  8 13  2  0  0  0  0
  8 22  1  0  0  0  0
  9 25  1  0  0  0  0
 10 26  2  0  0  0  0
 11 27  1  0  0  0  0
 12 27  2  0  0  0  0
 13 28  1  0  0  0  0
 14 15  2  0  0  0  0
 14 29  1  0  0  0  0
 15 30  1  0  0  0  0
 16 24  1  0  0  0  0
 16 28  2  0  0  0  0
 17 25  2  0  0  0  0
 17 26  1  0  0  0  0
 18 30  2  0  0  0  0
 18 31  1  0  0  0  0
 19 32  1  0  0  0  0
 20 32  1  0  0  0  0
 20 33  2  0  0  0  0
 20 34  1  0  0  0  0
 21 23  2  0  0  0  0
 21 40  1  0  0  0  0
 22 24  2  0  0  0  0
 22 41  1  0  0  0  0
 23 49  1  0  0  0  0
 24 42  1  0  0  0  0
 25 58  1  0  0  0  0
 26 71  1  0  0  0  0
 27 81  1  0  0  0  0
 28 82  1  0  0  0  0
 29 31  2  0  0  0  0
 29 81  1  0  0  0  0
 30 83  1  0  0  0  0
 31 84  1  0  0  0  0
 32 65  2  0  0  0  0
 33 66  1  0  0  0  0
 33 69  1  0  0  0  0
 34 70  1  0  0  0  0
 34 75  2  0  0  0  0
 35 50  1  0  0  0  0
 35 72  1  0  0  0  0
 35 76  2  0  0  0  0
 36 59  1  0  0  0  0
 36 61  1  0  0  0  0
 36 77  2  0  0  0  0
 37 62  1  0  0  0  0
 37 67  1  0  0  0  0
 37 78  2  0  0  0  0
 38 63  1  0  0  0  0
 38 73  1  0  0  0  0
 38 79  2  0  0  0  0
 39 68  1  0  0  0  0
 39 71  1  0  0  0  0
 39 80  2  0  0  0  0
 40 43  1  0  0  0  0
 41 50  1  0  0  0  0
 42 67  1  0  0  0  0
 43 45  1  0  0  0  0
 44 46  1  0  0  0  0
 44 47  1  0  0  0  0
 45 49  1  0  0  0  0
 46 51  1  0  0  0  0
 47 68  1  0  0  0  0
 48 51  1  0  0  0  0
 48 68  1  0  0  0  0
 49 72  1  0  0  0  0
 50 67  1  0  0  0  0
 51 66  1  0  0  0  0
 52 61  1  0  0  0  0
 53 63  1  0  0  0  0
 54 64  1  0  0  0  0
 55 64  1  0  0  0  0
 56 64  1  0  0  0  0
 57 74  1  0  0  0  0
 58 60  1  0  0  0  0
 59 82  1  0  0  0  0
 60 61  1  0  0  0  0
 62 64  1  0  0  0  0
 62 73  1  0  0  0  0
 63 74  1  0  0  0  0
 65 66  1  0  0  0  0
M  CHG  1  74   1
M  ISO  4  39 100  59 101  71 100  82 101
M  END
> <Batch ID>
0135

> <Smiles>
CNC(C)C(=O)NC(C(=O)N1Cc2cc([101O:1][101CH2:1]C(=O)C(C)CCc3cccc([100NH:0][100C:0](=O)N4CCCC(n5nc(-c6ccc(Oc7ccc(F)cc7F)cc6)c(C(N)=O)c5N)C4)c3)ccc2CC1C(=O)NC1CCCc2ccccc21)C(C)(C)C

> <Shape>
0.265

> <Color>
0.107

> <Negative vol penalty>
0.000

$$$$

  -OEChem-04052302363D

 85 93  0     1  0  0  0  0  0999 V2000
  -23.6294  -18.3138   22.8406 C   0  0  0  0  0  0  0  0  0  0  0  0
  -24.6347  -18.7855   23.6772 C   0  0  0  0  0  0  0  0  0  0  0  0
  -23.0768   -9.8674   19.9415 C   0  0  0  0  0  0  0  0  0  0  0  0
  -23.8345   -9.8765   22.2355 C   0  0  0  0  0  0  0  0  0  0  0  0
  -22.9608  -19.1961   21.9946 C   0  0  0  0  0  0  0  0  0  0  0  0
  -24.9636  -20.1415   23.6766 C   0  0  0  0  0  0  0  0  0  0  0  0
  -28.1726  -21.6644   27.0804 C   0  0  0  0  0  0  0  0  0  0  0  0
  -32.3605  -18.5725   22.0124 C   0  0  0  0  0  0  0  0  0  0  0  0
  -31.8639  -17.3492   21.5625 C   0  0  0  0  0  0  0  0  0  0  0  0
  -22.3329   -8.7143   20.1917 C   0  0  0  0  0  0  0  0  0  0  0  0
  -23.0906   -8.7234   22.4858 C   0  0  0  0  0  0  0  0  0  0  0  0
  -29.5312  -21.3558   27.0271 C   0  0  0  0  0  0  0  0  0  0  0  0
  -19.8620   -7.9255   23.0860 C   0  0  0  0  0  0  0  0  0  0  0  0
  -19.1039   -7.8865   24.2562 C   0  0  0  0  0  0  0  0  0  0  0  0
  -30.0027  -23.5922   26.2553 C   0  0  0  0  0  0  0  0  0  0  0  0
  -29.7984  -17.7510   22.7497 C   0  0  0  0  0  0  0  0  0  0  0  0
  -20.3450   -5.9499   24.9955 C   0  0  0  0  0  0  0  0  0  0  0  0
  -23.8276  -10.4485   20.9634 C   0  0  0  0  0  0  0  0  0  0  0  0
  -24.1691  -12.9736   20.8415 C   0  0  0  0  0  0  0  0  0  0  0  0
  -23.2909  -20.5612   21.9752 C   0  0  0  0  0  0  0  0  0  0  0  0
  -27.7170  -22.9380   26.7106 C   0  0  0  0  0  0  0  0  0  0  0  0
  -24.2840  -21.0519   22.8472 C   0  0  0  0  0  0  0  0  0  0  0  0
  -28.6382  -23.9152   26.3074 C   0  0  0  0  0  0  0  0  0  0  0  0
  -31.5761  -19.3851   22.8311 C   0  0  0  0  0  0  0  0  0  0  0  0
  -30.5829  -16.9384   21.9311 C   0  0  0  0  0  0  0  0  0  0  0  0
  -22.3397   -8.1423   21.4639 C   0  0  0  0  0  0  0  0  0  0  0  0
  -30.4462  -22.3188   26.6117 C   0  0  0  0  0  0  0  0  0  0  0  0
  -20.8615   -6.9767   22.8705 C   0  0  0  0  0  0  0  0  0  0  0  0
  -30.2951  -18.9744   23.1997 C   0  0  0  0  0  0  0  0  0  0  0  0
  -19.3455   -6.8987   25.2110 C   0  0  0  0  0  0  0  0  0  0  0  0
  -21.1030   -5.9889   23.8252 C   0  0  0  0  0  0  0  0  0  0  0  0
  -24.5967  -11.6393   20.7053 C   0  0  0  0  0  0  0  0  0  0  0  0
  -25.2615  -13.7229   20.4786 C   0  0  0  0  0  0  0  0  0  0  0  0
  -22.8982  -13.4895   21.2588 C   0  0  0  0  0  0  0  0  0  0  0  0
  -25.7793  -24.0593   24.4541 C   0  0  0  0  0  0  0  0  0  0  0  0
  -26.2254  -26.8683   26.0138 C   0  0  0  0  0  0  0  0  0  0  0  0
  -28.1847  -28.7619   28.0687 C   0  0  0  0  0  0  0  0  0  0  0  0
  -30.7273  -14.7697   20.6576 C   0  0  0  0  0  0  0  0  0  0  0  0
  -22.5299  -21.4731   21.0454 C   0  0  0  0  0  0  0  0  0  0  0  0
  -26.2511  -23.2634   26.7993 C   0  0  0  0  0  0  0  0  0  0  0  0
  -28.2024  -25.3037   25.9192 C   0  0  0  0  0  0  0  0  0  0  0  0
  -23.2446  -22.7969   20.7942 C   0  0  0  0  0  0  0  0  0  0  0  0
  -29.6156  -12.3536   18.2903 C   0  0  0  0  0  0  0  0  0  0  0  0
  -23.6704  -23.4168   22.1167 C   0  0  0  0  0  0  0  0  0  0  0  0
  -28.1756  -12.0622   18.7188 C   0  0  0  0  0  0  0  0  0  0  0  0
  -30.5295  -12.5836   19.4926 C   0  0  0  0  0  0  0  0  0  0  0  0
  -28.6211  -13.3089   20.8715 C   0  0  0  0  0  0  0  0  0  0  0  0
  -24.6797  -22.5174   22.8416 C   0  0  1  0  0  0  0  0  0  0  0  0
  -25.8437  -24.4327   25.9081 C   0  0  1  0  0  0  0  0  0  0  0  0
  -27.6494  -13.1345   19.6929 C   0  0  2  0  0  0  0  0  0  0  0  0
  -28.3057  -31.0306   29.1343 C   0  0  0  0  0  0  0  0  0  0  0  0
  -27.0560  -28.0780   23.3386 C   0  0  0  0  0  0  0  0  0  0  0  0
  -28.0502  -30.0012   24.5960 C   0  0  0  0  0  0  0  0  0  0  0  0
  -25.6011  -29.5501   24.7424 C   0  0  0  0  0  0  0  0  0  0  0  0
  -34.5242  -22.5900   24.0143 C   0  0  0  0  0  0  0  0  0  0  0  0
  -34.6283  -21.4990   26.2696 C   0  0  0  0  0  0  0  0  0  0  0  0
  -28.1460  -27.6112   30.7951 C   0  0  0  0  0  0  0  0  0  0  0  0
  -28.6664  -20.7007   23.3514 C   0  0  0  0  0  0  0  0  0  0  0  0
  -32.1302  -20.7058   23.3086 C   0  0  0  0  0  0  0  0  0  0  0  0
  -33.1278  -20.5103   24.4589 C   0  0  0  0  0  0  0  0  0  0  0  0
  -32.5530  -22.7023   25.5772 C   0  0  0  0  0  0  0  0  0  1  0  0
  -27.2190  -28.0005   25.9141 C   0  0  1  0  0  0  0  0  0  0  0  0
  -27.8516  -29.5884   29.2976 C   0  0  2  0  0  0  0  0  0  0  0  0
  -26.9899  -28.8808   24.6532 C   0  0  0  0  0  0  0  0  0  0  0  0
  -33.7159  -21.8139   25.0708 C   0  0  0  0  0  0  0  0  0  0  0  0
  -25.8620  -11.5433   20.2883 N   0  0  0  0  0  0  0  0  0  0  0  0
  -26.2388  -12.8268   20.1592 N   0  0  0  0  0  0  0  0  0  0  0  0
  -26.7579  -25.5713   26.0165 N   0  0  0  0  0  0  0  0  0  0  0  0
  -29.9695  -13.6151   20.3686 N   0  0  0  0  0  0  0  0  0  0  0  0
  -25.4717  -15.0544   20.4046 N   0  0  0  0  0  0  0  0  0  0  0  0
  -21.8861  -12.5804   21.5959 N   0  0  0  0  0  0  0  0  0  0  0  0
  -30.0790  -15.6953   21.4746 N   0  0  0  0  0  0  0  0  0  0  0  0
  -24.8979  -23.0322   24.1754 N   0  0  0  0  0  0  0  0  0  0  0  0
  -27.1352  -28.7295   27.1751 N   0  0  0  0  0  0  0  0  0  0  0  0
  -28.5197  -29.0188   30.5018 N   0  3  0  0  0  0  0  0  0  0  0  0
  -22.6616  -14.7201   21.3148 O   0  0  0  0  0  0  0  0  0  0  0  0
  -26.4765  -24.6597   23.6447 O   0  0  0  0  0  0  0  0  0  0  0  0
  -25.0216  -27.1255   26.0938 O   0  0  0  0  0  0  0  0  0  0  0  0
  -29.2691  -28.2040   27.9150 O   0  0  0  0  0  0  0  0  0  0  0  0
  -31.8568  -14.9382   20.1909 O   0  0  0  0  0  0  0  0  0  0  0  0
  -21.6138   -7.0173   21.7085 O   0  0  0  0  0  0  0  0  0  0  0  0
  -29.5162  -19.7560   23.9989 O   0  0  0  0  0  0  0  0  0  0  0  0
  -31.7727  -22.0201   26.5581 O   0  0  0  0  0  0  0  0  0  1  0  0
  -18.6185   -6.8622   26.3354 F   0  0  0  0  0  0  0  0  0  0  0  0
  -22.0627   -5.0755   23.6243 F   0  0  0  0  0  0  0  0  0  0  0  0
  1  2  1  0  0  0  0
  1  5  2  0  0  0  0
  2  6  2  0  0  0  0
  3 10  2  0  0  0  0
  3 18  1  0  0  0  0
  4 11  1  0  0  0  0
  4 18  2  0  0  0  0
  5 20  1  0  0  0  0
  6 22  1  0  0  0  0
  7 12  2  0  0  0  0
  7 21  1  0  0  0  0
  8  9  2  0  0  0  0
  8 24  1  0  0  0  0
  9 25  1  0  0  0  0
 10 26  1  0  0  0  0
 11 26  2  0  0  0  0
 12 27  1  0  0  0  0
 13 14  2  0  0  0  0
 13 28  1  0  0  0  0
 14 30  1  0  0  0  0
 15 23  1  0  0  0  0
 15 27  2  0  0  0  0
 16 25  2  0  0  0  0
 16 29  1  0  0  0  0
 17 30  2  0  0  0  0
 17 31  1  0  0  0  0
 18 32  1  0  0  0  0
 19 32  1  0  0  0  0
 19 33  2  0  0  0  0
 19 34  1  0  0  0  0
 20 22  2  0  0  0  0
 20 39  1  0  0  0  0
 21 23  2  0  0  0  0
 21 40  1  0  0  0  0
 22 48  1  0  0  0  0
 23 41  1  0  0  0  0
 24 29  2  0  0  0  0
 24 59  1  0  0  0  0
 25 72  1  0  0  0  0
 26 81  1  0  0  0  0
 27 83  1  0  0  0  0
 28 31  2  0  0  0  0
 28 81  1  0  0  0  0
 29 82  1  0  0  0  0
 30 84  1  0  0  0  0
 31 85  1  0  0  0  0
 32 66  2  0  0  0  0
 33 67  1  0  0  0  0
 33 70  1  0  0  0  0
 34 71  1  0  0  0  0
 34 76  2  0  0  0  0
 35 49  1  0  0  0  0
 35 73  1  0  0  0  0
 35 77  2  0  0  0  0
 36 62  1  0  0  0  0
 36 68  1  0  0  0  0
 36 78  2  0  0  0  0
 37 63  1  0  0  0  0
 37 74  1  0  0  0  0
 37 79  2  0  0  0  0
 38 69  1  0  0  0  0
 38 72  1  0  0  0  0
 38 80  2  0  0  0  0
 39 42  1  0  0  0  0
 40 49  1  0  0  0  0
 41 68  1  0  0  0  0
 42 44  1  0  0  0  0
 43 45  1  0  0  0  0
 43 46  1  0  0  0  0
 44 48  1  0  0  0  0
 45 50  1  0  0  0  0
 46 69  1  0  0  0  0
 47 50  1  0  0  0  0
 47 69  1  0  0  0  0
 48 73  1  0  0  0  0
 49 68  1  0  0  0  0
 50 67  1  0  0  0  0
 51 63  1  0  0  0  0
 52 64  1  0  0  0  0
 53 64  1  0  0  0  0
 54 64  1  0  0  0  0
 55 65  1  0  0  0  0
 56 65  1  0  0  0  0
 57 75  1  0  0  0  0
 58 82  1  0  0  0  0
 59 60  1  0  0  0  0
 60 65  1  0  0  0  0
 61 65  1  0  0  0  0
 61 83  1  0  0  0  0
 62 64  1  0  0  0  0
 62 74  1  0  0  0  0
 63 75  1  0  0  0  0
 66 67  1  0  0  0  0
M  CHG  1  75   1
M  ISO  4  38 100  61 101  72 100  83 101
M  END
> <Batch ID>
0135

> <Smiles>
CNC(C)C(=O)NC(C(=O)N1Cc2cc([101O:1][101CH2:1]C(C)(C)CCc3ccc([100NH:0][100C:0](=O)N4CCCC(n5nc(-c6ccc(Oc7ccc(F)cc7F)cc6)c(C(N)=O)c5N)C4)cc3OC)ccc2CC1C(=O)NC1CCCc2ccccc21)C(C)(C)C

> <Shape>
0.186

> <Color>
0.192

> <Negative vol penalty>
0.000

$$$$

  -OEChem-04052302363D

 87 96  0     1  0  0  0  0  0999 V2000
  -28.2596  -34.5886   25.9579 C   0  0  0  0  0  0  0  0  0  0  0  0
  -28.2497  -33.2494   25.5812 C   0  0  0  0  0  0  0  0  0  0  0  0
  -23.4440   -9.8683   21.9564 C   0  0  0  0  0  0  0  0  0  0  0  0
  -24.2060  -11.1676   23.8455 C   0  0  0  0  0  0  0  0  0  0  0  0
  -27.0730  -35.3206   25.9571 C   0  0  0  0  0  0  0  0  0  0  0  0
  -27.0528  -32.6411   25.2045 C   0  0  0  0  0  0  0  0  0  0  0  0
  -27.5400  -29.8118   21.0329 C   0  0  0  0  0  0  0  0  0  0  0  0
  -22.8336   -8.9635   22.8249 C   0  0  0  0  0  0  0  0  0  0  0  0
  -23.5956  -10.2627   24.7140 C   0  0  0  0  0  0  0  0  0  0  0  0
  -28.1240  -28.5545   21.1809 C   0  0  0  0  0  0  0  0  0  0  0  0
  -19.9969   -8.7960   24.6574 C   0  0  0  0  0  0  0  0  0  0  0  0
  -18.7017   -8.3778   24.3526 C   0  0  0  0  0  0  0  0  0  0  0  0
  -31.2359  -20.0897   20.5209 C   0  0  0  0  0  0  0  0  0  0  0  0
  -29.3721  -18.5826   20.2181 C   0  0  0  0  0  0  0  0  0  0  0  0
  -25.9345  -27.5422   21.1644 C   0  0  0  0  0  0  0  0  0  0  0  0
  -31.6352  -17.7568   20.0360 C   0  0  0  0  0  0  0  0  0  0  0  0
  -19.4693   -6.0903   24.2288 C   0  0  0  0  0  0  0  0  0  0  0  0
  -24.1302  -10.9704   22.4667 C   0  0  0  0  0  0  0  0  0  0  0  0
  -29.8602  -19.8626   20.4806 C   0  0  0  0  0  0  0  0  0  0  0  0
  -24.1891  -13.0611   21.0062 C   0  0  0  0  0  0  0  0  0  0  0  0
  -25.8626  -34.7236   25.5710 C   0  0  0  0  0  0  0  0  0  0  0  0
  -26.1460  -29.9450   20.9604 C   0  0  0  0  0  0  0  0  0  0  0  0
  -25.8486  -33.3655   25.1999 C   0  0  0  0  0  0  0  0  0  0  0  0
  -25.3354  -28.8021   21.0129 C   0  0  0  0  0  0  0  0  0  0  0  0
  -32.1234  -19.0368   20.2986 C   0  0  0  0  0  0  0  0  0  0  0  0
  -30.2596  -17.5297   19.9958 C   0  0  0  0  0  0  0  0  0  0  0  0
  -22.9094   -9.1607   24.2037 C   0  0  0  0  0  0  0  0  0  0  0  0
  -27.3211  -27.4198   21.2496 C   0  0  0  0  0  0  0  0  0  0  0  0
  -21.0285   -7.8614   24.7479 C   0  0  0  0  0  0  0  0  0  0  0  0
  -18.4378   -7.0250   24.1383 C   0  0  0  0  0  0  0  0  0  0  0  0
  -20.7646   -6.5086   24.5337 C   0  0  0  0  0  0  0  0  0  0  0  0
  -24.7614  -11.9051   21.5701 C   0  0  0  0  0  0  0  0  0  0  0  0
  -25.1900  -13.5982   20.2341 C   0  0  0  0  0  0  0  0  0  0  0  0
  -28.9229  -20.9754   20.7160 C   0  0  0  0  0  0  0  0  0  0  0  0
  -22.8705  -13.6011   21.1661 C   0  0  0  0  0  0  0  0  0  0  0  0
  -23.9369  -31.3996   22.7233 C   0  0  0  0  0  0  0  0  0  0  0  0
  -21.9670  -30.4751   20.3176 C   0  0  0  0  0  0  0  0  0  0  0  0
  -21.3507  -28.3207   17.7436 C   0  0  0  0  0  0  0  0  0  0  0  0
  -30.5068  -15.0745   19.4888 C   0  0  0  0  0  0  0  0  0  0  0  0
  -24.5975  -35.5425   25.6315 C   0  0  0  0  0  0  0  0  0  0  0  0
  -25.5328  -31.3058   20.7739 C   0  0  0  0  0  0  0  0  0  0  0  0
  -23.8347  -28.8892   20.9194 C   0  0  0  0  0  0  0  0  0  0  0  0
  -23.4345  -34.9247   24.8595 C   0  0  0  0  0  0  0  0  0  0  0  0
  -29.6595  -11.6789   18.8336 C   0  0  0  0  0  0  0  0  0  0  0  0
  -28.3785  -22.6527   17.5534 C   0  0  0  0  0  0  0  0  0  0  0  0
  -23.3109  -33.4384   25.1796 C   0  0  0  0  0  0  0  0  0  0  0  0
  -28.2626  -11.5301   19.4407 C   0  0  0  0  0  0  0  0  0  0  0  0
  -27.1306  -23.0312   18.3443 C   0  0  0  0  0  0  0  0  0  0  0  0
  -28.9323  -21.4491   18.3053 C   0  0  0  0  0  0  0  0  0  0  0  0
  -30.5475  -12.5966   19.6720 C   0  0  0  0  0  0  0  0  0  0  0  0
  -28.5765  -13.7667   20.5748 C   0  0  0  0  0  0  0  0  0  0  0  0
  -24.5744  -32.6769   24.7611 C   0  0  1  0  0  0  0  0  0  0  0  0
  -24.0778  -31.3728   21.2276 C   0  0  1  0  0  0  0  0  0  0  0  0
  -27.6250  -12.9031   19.7307 C   0  0  2  0  0  0  0  0  0  0  0  0
  -27.5302  -22.8045   19.8054 C   0  0  2  0  0  0  0  0  0  0  0  0
  -33.5944  -19.2795   20.3426 C   0  0  0  0  0  0  0  0  0  0  0  0
  -19.6412  -27.7909   15.9846 C   0  0  0  0  0  0  0  0  0  0  0  0
  -20.1902  -29.1852   22.4364 C   0  0  0  0  0  0  0  0  0  0  0  0
  -19.0639  -27.8979   20.6081 C   0  0  0  0  0  0  0  0  0  0  0  0
  -18.9513  -30.3898   20.6285 C   0  0  0  0  0  0  0  0  0  0  0  0
  -23.2753  -28.8320   15.5542 C   0  0  0  0  0  0  0  0  0  0  0  0
  -28.2020  -24.0157   20.4348 C   0  0  0  0  0  0  0  0  0  0  0  0
  -27.1917  -25.0829   20.8272 C   0  0  0  0  0  0  0  0  0  1  0  0
  -21.1291  -29.2523   20.0322 C   0  0  1  0  0  0  0  0  0  0  0  0
  -20.9103  -28.5625   16.3111 C   0  0  2  0  0  0  0  0  0  0  0  0
  -19.8618  -29.1795   20.9300 C   0  0  0  0  0  0  0  0  0  0  0  0
  -26.0277  -11.7180   21.1886 N   0  0  0  0  0  0  0  0  0  0  0  0
  -26.2593  -12.7636   20.3766 N   0  0  0  0  0  0  0  0  0  0  0  0
  -28.5044  -21.6994   19.6925 N   0  0  0  0  0  0  0  0  0  0  0  0
  -23.2823  -30.2426   20.7439 N   0  0  0  0  0  0  0  0  0  0  0  0
  -29.8804  -13.8798   19.9027 N   0  0  0  0  0  0  0  0  0  0  0  0
  -25.2510  -14.6981   19.4539 N   0  0  0  0  0  0  0  0  0  0  0  0
  -21.9670  -12.9232   21.9958 N   0  0  0  0  0  0  0  0  0  0  0  0
  -29.7634  -16.2291   19.7312 N   0  0  0  0  0  0  0  0  0  0  0  0
  -24.5829  -32.4596   23.3303 N   0  0  0  0  0  0  0  0  0  0  0  0
  -20.8469  -29.2758   18.6010 N   0  0  0  0  0  0  0  0  0  0  0  0
  -28.5115  -21.2322   21.9542 N   0  3  0  0  0  0  0  0  0  0  0  0
  -21.9772  -28.1357   15.3622 N   0  3  0  0  0  0  0  0  0  0  0  0
  -22.4993  -14.6446   20.5773 O   0  0  0  0  0  0  0  0  0  0  0  0
  -23.2887  -30.5243   23.2848 O   0  0  0  0  0  0  0  0  0  0  0  0
  -21.4750  -31.5954   20.1610 O   0  0  0  0  0  0  0  0  0  0  0  0
  -22.0668  -27.3766   18.0700 O   0  0  0  0  0  0  0  0  0  0  0  0
  -31.6086  -15.0710   18.9339 O   0  0  0  0  0  0  0  0  0  0  0  0
  -22.3137   -8.2781   25.0515 O   0  0  0  0  0  0  0  0  0  0  0  0
  -27.8885  -26.1914   21.3947 O   0  0  0  0  0  0  0  0  0  1  0  0
  -17.1936   -6.6233   23.8470 F   0  0  0  0  0  0  0  0  0  0  0  0
  -21.7513   -5.6059   24.6204 F   0  0  0  0  0  0  0  0  0  0  0  0
  1  2  1  0  0  0  0
  1  5  2  0  0  0  0
  2  6  2  0  0  0  0
  3  8  2  0  0  0  0
  3 18  1  0  0  0  0
  4  9  1  0  0  0  0
  4 18  2  0  0  0  0
  5 21  1  0  0  0  0
  6 23  1  0  0  0  0
  7 10  2  0  0  0  0
  7 22  1  0  0  0  0
  8 27  1  0  0  0  0
  9 27  2  0  0  0  0
 10 28  1  0  0  0  0
 11 12  2  0  0  0  0
 11 29  1  0  0  0  0
 12 30  1  0  0  0  0
 13 19  1  0  0  0  0
 13 25  2  0  0  0  0
 14 19  2  0  0  0  0
 14 26  1  0  0  0  0
 15 24  1  0  0  0  0
 15 28  2  0  0  0  0
 16 25  1  0  0  0  0
 16 26  2  0  0  0  0
 17 30  2  0  0  0  0
 17 31  1  0  0  0  0
 18 32  1  0  0  0  0
 19 34  1  0  0  0  0
 20 32  1  0  0  0  0
 20 33  2  0  0  0  0
 20 35  1  0  0  0  0
 21 23  2  0  0  0  0
 21 40  1  0  0  0  0
 22 24  2  0  0  0  0
 22 41  1  0  0  0  0
 23 52  1  0  0  0  0
 24 42  1  0  0  0  0
 25 56  1  0  0  0  0
 26 74  1  0  0  0  0
 27 84  1  0  0  0  0
 28 85  1  0  0  0  0
 29 31  2  0  0  0  0
 29 84  1  0  0  0  0
 30 86  1  0  0  0  0
 31 87  1  0  0  0  0
 32 67  2  0  0  0  0
 33 68  1  0  0  0  0
 33 72  1  0  0  0  0
 34 69  1  0  0  0  0
 34 77  2  0  0  0  0
 35 73  1  0  0  0  0
 35 79  2  0  0  0  0
 36 53  1  0  0  0  0
 36 75  1  0  0  0  0
 36 80  2  0  0  0  0
 37 64  1  0  0  0  0
 37 70  1  0  0  0  0
 37 81  2  0  0  0  0
 38 65  1  0  0  0  0
 38 76  1  0  0  0  0
 38 82  2  0  0  0  0
 39 71  1  0  0  0  0
 39 74  1  0  0  0  0
 39 83  2  0  0  0  0
 40 43  1  0  0  0  0
 41 53  1  0  0  0  0
 42 70  1  0  0  0  0
 43 46  1  0  0  0  0
 44 47  1  0  0  0  0
 44 50  1  0  0  0  0
 45 48  1  0  0  0  0
 45 49  1  0  0  0  0
 46 52  1  0  0  0  0
 47 54  1  0  0  0  0
 48 55  1  0  0  0  0
 49 69  1  0  0  0  0
 50 71  1  0  0  0  0
 51 54  1  0  0  0  0
 51 71  1  0  0  0  0
 52 75  1  0  0  0  0
 53 70  1  0  0  0  0
 54 68  1  0  0  0  0
 55 62  1  0  0  0  0
 55 69  1  0  0  0  0
 57 65  1  0  0  0  0
 58 66  1  0  0  0  0
 59 66  1  0  0  0  0
 60 66  1  0  0  0  0
 61 78  1  0  0  0  0
 62 63  1  0  0  0  0
 63 85  1  0  0  0  0
 64 66  1  0  0  0  0
 64 76  1  0  0  0  0
 65 78  1  0  0  0  0
 67 68  1  0  0  0  0
M  CHG  2  77   1  78   1
M  ISO  4  39 100  63 101  74 100  85 101
M  END
> <Batch ID>
0135

> <Smiles>
CNC(C)C(=O)NC(C(=O)N1Cc2cc([101O:1][101CH2:1]CC3CCCN3C(=N)c3cc(C)cc([100NH:0][100C:0](=O)N4CCCC(n5nc(-c6ccc(Oc7ccc(F)cc7F)cc6)c(C(N)=O)c5N)C4)c3)ccc2CC1C(=O)NC1CCCc2ccccc21)C(C)(C)C

> <Shape>
0.307

> <Color>
0.137

> <Negative vol penalty>
0.000

$$$$

  -OEChem-04052302363D

 87 95  0     1  0  0  0  0  0999 V2000
  -27.6374  -17.5005   16.7836 C   0  0  0  0  0  0  0  0  0  0  0  0
  -28.7547  -18.1971   17.2329 C   0  0  0  0  0  0  0  0  0  0  0  0
  -23.0031   -9.8926   19.9791 C   0  0  0  0  0  0  0  0  0  0  0  0
  -23.7282   -9.9415   22.2832 C   0  0  0  0  0  0  0  0  0  0  0  0
  -27.0908  -17.7928   15.5348 C   0  0  0  0  0  0  0  0  0  0  0  0
  -29.3267  -19.1858   16.4331 C   0  0  0  0  0  0  0  0  0  0  0  0
  -30.4585  -23.3783   19.0381 C   0  0  0  0  0  0  0  0  0  0  0  0
  -22.2372   -8.7574   20.2442 C   0  0  0  0  0  0  0  0  0  0  0  0
  -22.9623   -8.8063   22.5484 C   0  0  0  0  0  0  0  0  0  0  0  0
  -31.6139  -23.3509   19.8179 C   0  0  0  0  0  0  0  0  0  0  0  0
  -23.2085   -5.4680   22.0729 C   0  0  0  0  0  0  0  0  0  0  0  0
  -23.7966   -4.4504   22.8239 C   0  0  0  0  0  0  0  0  0  0  0  0
  -32.8000  -24.5482   18.0919 C   0  0  0  0  0  0  0  0  0  0  0  0
  -30.6777  -19.8043   21.3826 C   0  0  0  0  0  0  0  0  0  0  0  0
  -31.1961  -17.5885   20.5712 C   0  0  0  0  0  0  0  0  0  0  0  0
  -22.0726   -4.6905   24.4993 C   0  0  0  0  0  0  0  0  0  0  0  0
  -23.7487  -10.4847   20.9986 C   0  0  0  0  0  0  0  0  0  0  0  0
  -24.1326  -13.0007   20.8253 C   0  0  0  0  0  0  0  0  0  0  0  0
  -27.6505  -18.7923   14.7233 C   0  0  0  0  0  0  0  0  0  0  0  0
  -30.4681  -23.9823   17.7726 C   0  0  0  0  0  0  0  0  0  0  0  0
  -28.7878  -19.4909   15.1716 C   0  0  0  0  0  0  0  0  0  0  0  0
  -31.6427  -24.5842   17.2991 C   0  0  0  0  0  0  0  0  0  0  0  0
  -31.4005  -18.9677   20.5321 C   0  0  0  0  0  0  0  0  0  0  0  0
  -29.7506  -19.2616   22.2724 C   0  0  0  0  0  0  0  0  0  0  0  0
  -29.5462  -17.8823   22.3115 C   0  0  0  0  0  0  0  0  0  0  0  0
  -30.2689  -17.0458   21.4610 C   0  0  0  0  0  0  0  0  0  0  0  0
  -22.2168   -8.2143   21.5288 C   0  0  0  0  0  0  0  0  0  0  0  0
  -32.7857  -23.9334   19.3436 C   0  0  0  0  0  0  0  0  0  0  0  0
  -22.0525   -6.0970   22.5351 C   0  0  0  0  0  0  0  0  0  0  0  0
  -23.2287   -4.0616   24.0371 C   0  0  0  0  0  0  0  0  0  0  0  0
  -21.4845   -5.7083   23.7483 C   0  0  0  0  0  0  0  0  0  0  0  0
  -24.5405  -11.6570   20.7253 C   0  0  0  0  0  0  0  0  0  0  0  0
  -25.2419  -13.7243   20.4617 C   0  0  0  0  0  0  0  0  0  0  0  0
  -22.8643  -13.5460   21.2124 C   0  0  0  0  0  0  0  0  0  0  0  0
  -29.9768  -22.9695   14.7999 C   0  0  0  0  0  0  0  0  0  0  0  0
  -30.2276  -26.1265   14.0980 C   0  0  0  0  0  0  0  0  0  0  0  0
  -31.4108  -29.2047   14.9764 C   0  0  0  0  0  0  0  0  0  0  0  0
  -30.7209  -14.6882   20.6968 C   0  0  0  0  0  0  0  0  0  0  0  0
  -27.0531  -19.0403   13.3609 C   0  0  0  0  0  0  0  0  0  0  0  0
  -29.2064  -24.0269   16.9550 C   0  0  0  0  0  0  0  0  0  0  0  0
  -31.7001  -25.2631   15.9559 C   0  0  0  0  0  0  0  0  0  0  0  0
  -27.4930  -20.3609   12.7341 C   0  0  0  0  0  0  0  0  0  0  0  0
  -29.6040  -12.2372   18.3682 C   0  0  0  0  0  0  0  0  0  0  0  0
  -29.0019  -20.5396   12.8694 C   0  0  0  0  0  0  0  0  0  0  0  0
  -28.1535  -11.9783   18.7821 C   0  0  0  0  0  0  0  0  0  0  0  0
  -30.5044  -12.4798   19.5783 C   0  0  0  0  0  0  0  0  0  0  0  0
  -28.5886  -13.2661   20.9126 C   0  0  0  0  0  0  0  0  0  0  0  0
  -29.4217  -20.5874   14.3435 C   0  0  1  0  0  0  0  0  0  0  0  0
  -29.4670  -24.2173   15.4639 C   0  0  1  0  0  0  0  0  0  0  0  0
  -27.6310  -13.0805   19.7242 C   0  0  2  0  0  0  0  0  0  0  0  0
  -28.9913  -20.1795   23.1736 C   0  0  0  0  0  0  0  0  0  0  0  0
  -28.5509  -17.3051   23.2687 C   0  0  0  0  0  0  0  0  0  0  0  0
  -31.4887  -31.5847   14.1847 C   0  0  0  0  0  0  0  0  0  0  0  0
  -35.6506  -22.8361   21.3478 C   0  0  0  0  0  0  0  0  0  0  0  0
  -32.3656  -25.3744   12.0552 C   0  0  0  0  0  0  0  0  0  0  0  0
  -33.0583  -27.7797   11.9983 C   0  0  0  0  0  0  0  0  0  0  0  0
  -30.7582  -27.1288   11.2852 C   0  0  0  0  0  0  0  0  0  0  0  0
  -36.2737  -19.8854   19.9084 C   0  0  0  0  0  0  0  0  0  0  0  0
  -34.8275  -19.6957   17.8919 C   0  0  0  0  0  0  0  0  0  0  0  0
  -29.9564  -30.1693   17.3666 C   0  0  0  0  0  0  0  0  0  0  0  0
  -32.4050  -19.5549   19.5702 C   0  0  0  0  0  0  0  0  0  0  0  0
  -33.7985  -19.6488   20.2063 C   0  0  0  0  0  0  0  0  0  0  0  0
  -34.8095  -21.8370   19.1934 C   0  0  0  0  0  0  0  0  0  0  0  0
  -31.3624  -27.0550   13.7390 C   0  0  1  0  0  0  0  0  0  0  0  0
  -30.7391  -30.5650   15.0279 C   0  0  2  0  0  0  0  0  0  0  0  0
  -34.4294  -22.6247   20.4578 C   0  0  2  0  0  0  0  0  0  1  0  0
  -31.8859  -26.8201   12.2940 C   0  0  0  0  0  0  0  0  0  0  0  0
  -34.9036  -20.2854   19.3188 C   0  0  0  0  0  0  0  0  0  0  0  0
  -25.8099  -11.5317   20.3290 N   0  0  0  0  0  0  0  0  0  0  0  0
  -26.2091  -12.8058   20.1767 N   0  0  0  0  0  0  0  0  0  0  0  0
  -30.4421  -25.2750   15.1911 N   0  0  0  0  0  0  0  0  0  0  0  0
  -29.9487  -13.5395   20.4227 N   0  0  0  0  0  0  0  0  0  0  0  0
  -25.4747  -15.0502   20.3611 N   0  0  0  0  0  0  0  0  0  0  0  0
  -21.8330  -12.6609   21.5550 N   0  0  0  0  0  0  0  0  0  0  0  0
  -30.0760  -15.6422   21.4834 N   0  0  0  0  0  0  0  0  0  0  0  0
  -29.1269  -21.8856   14.9111 N   0  0  0  0  0  0  0  0  0  0  0  0
  -30.8763  -28.4083   13.9858 N   0  0  0  0  0  0  0  0  0  0  0  0
  -30.6859  -31.0637   16.4312 N   0  3  0  0  0  0  0  0  0  0  0  0
  -22.6469  -14.7811   21.2375 O   0  0  0  0  0  0  0  0  0  0  0  0
  -31.0603  -22.9891   14.2278 O   0  0  0  0  0  0  0  0  0  0  0  0
  -29.1863  -26.1606   13.4375 O   0  0  0  0  0  0  0  0  0  0  0  0
  -32.3214  -28.8823   15.7363 O   0  0  0  0  0  0  0  0  0  0  0  0
  -31.8595  -14.8282   20.2429 O   0  0  0  0  0  0  0  0  0  0  0  0
  -21.4693   -7.1067   21.7880 O   0  0  0  0  0  0  0  0  0  0  0  0
  -33.9150  -23.9075   20.1025 O   0  0  0  0  0  0  0  0  0  1  0  0
  -23.7927   -3.0832   24.7575 F   0  0  0  0  0  0  0  0  0  0  0  0
  -20.3733   -6.3080   24.1970 F   0  0  0  0  0  0  0  0  0  0  0  0
  1  2  1  0  0  0  0
  1  5  2  0  0  0  0
  2  6  2  0  0  0  0
  3  8  2  0  0  0  0
  3 17  1  0  0  0  0
  4  9  1  0  0  0  0
  4 17  2  0  0  0  0
  5 19  1  0  0  0  0
  6 21  1  0  0  0  0
  7 10  2  0  0  0  0
  7 20  1  0  0  0  0
  8 27  1  0  0  0  0
  9 27  2  0  0  0  0
 10 28  1  0  0  0  0
 11 12  2  0  0  0  0
 11 29  1  0  0  0  0
 12 30  1  0  0  0  0
 13 22  1  0  0  0  0
 13 28  2  0  0  0  0
 14 23  1  0  0  0  0
 14 24  2  0  0  0  0
 15 23  2  0  0  0  0
 15 26  1  0  0  0  0
 16 30  2  0  0  0  0
 16 31  1  0  0  0  0
 17 32  1  0  0  0  0
 18 32  1  0  0  0  0
 18 33  2  0  0  0  0
 18 34  1  0  0  0  0
 19 21  2  0  0  0  0
 19 39  1  0  0  0  0
 20 22  2  0  0  0  0
 20 40  1  0  0  0  0
 21 48  1  0  0  0  0
 22 41  1  0  0  0  0
 23 61  1  0  0  0  0
 24 25  1  0  0  0  0
 24 51  1  0  0  0  0
 25 26  2  0  0  0  0
 25 52  1  0  0  0  0
 26 75  1  0  0  0  0
 27 84  1  0  0  0  0
 28 85  1  0  0  0  0
 29 31  2  0  0  0  0
 29 84  1  0  0  0  0
 30 86  1  0  0  0  0
 31 87  1  0  0  0  0
 32 69  2  0  0  0  0
 33 70  1  0  0  0  0
 33 73  1  0  0  0  0
 34 74  1  0  0  0  0
 34 79  2  0  0  0  0
 35 49  1  0  0  0  0
 35 76  1  0  0  0  0
 35 80  2  0  0  0  0
 36 64  1  0  0  0  0
 36 71  1  0  0  0  0
 36 81  2  0  0  0  0
 37 65  1  0  0  0  0
 37 77  1  0  0  0  0
 37 82  2  0  0  0  0
 38 72  1  0  0  0  0
 38 75  1  0  0  0  0
 38 83  2  0  0  0  0
 39 42  1  0  0  0  0
 40 49  1  0  0  0  0
 41 71  1  0  0  0  0
 42 44  1  0  0  0  0
 43 45  1  0  0  0  0
 43 46  1  0  0  0  0
 44 48  1  0  0  0  0
 45 50  1  0  0  0  0
 46 72  1  0  0  0  0
 47 50  1  0  0  0  0
 47 72  1  0  0  0  0
 48 76  1  0  0  0  0
 49 71  1  0  0  0  0
 50 70  1  0  0  0  0
 53 65  1  0  0  0  0
 54 66  1  0  0  0  0
 55 67  1  0  0  0  0
 56 67  1  0  0  0  0
 57 67  1  0  0  0  0
 58 68  1  0  0  0  0
 59 68  1  0  0  0  0
 60 78  1  0  0  0  0
 61 62  1  0  0  0  0
 62 68  1  0  0  0  0
 63 66  1  0  0  0  0
 63 68  1  0  0  0  0
 64 67  1  0  0  0  0
 64 77  1  0  0  0  0
 65 78  1  0  0  0  0
 66 85  1  0  0  0  0
 69 70  1  0  0  0  0
M  CHG  1  78   1
M  ISO  4  38 100  66 101  75 100  85 101
M  END
> <Batch ID>
0135

> <Smiles>
CNC(C)C(=O)NC(C(=O)N1Cc2cc([101O:1][101CH:1](C)CC(C)(C)CCc3cc(C)c(C)c([100NH:0][100C:0](=O)N4CCCC(n5nc(-c6ccc(Oc7ccc(F)cc7F)cc6)c(C(N)=O)c5N)C4)c3)ccc2CC1C(=O)NC1CCCc2ccccc21)C(C)(C)C

> <Shape>
0.213

> <Color>
0.197

> <Negative vol penalty>
0.000

$$$$

  -OEChem-04052302363D

 89 99  0     1  0  0  0  0  0999 V2000
  -20.0900  -28.4128   24.4301 C   0  0  0  0  0  0  0  0  0  0  0  0
  -21.1223  -27.8613   23.6781 C   0  0  0  0  0  0  0  0  0  0  0  0
  -23.0778   -9.8649   19.9422 C   0  0  0  0  0  0  0  0  0  0  0  0
  -23.8329   -9.8783   22.2371 C   0  0  0  0  0  0  0  0  0  0  0  0
  -20.2730  -28.6556   25.7908 C   0  0  0  0  0  0  0  0  0  0  0  0
  -22.3388  -27.5532   24.2862 C   0  0  0  0  0  0  0  0  0  0  0  0
  -30.4796  -18.3457   24.0281 C   0  0  0  0  0  0  0  0  0  0  0  0
  -27.7171  -22.8342   23.9387 C   0  0  0  0  0  0  0  0  0  0  0  0
  -29.8816  -17.4617   23.1309 C   0  0  0  0  0  0  0  0  0  0  0  0
  -22.3338   -8.7122   20.1937 C   0  0  0  0  0  0  0  0  0  0  0  0
  -23.0888   -8.7256   22.4887 C   0  0  0  0  0  0  0  0  0  0  0  0
  -29.1071  -22.7906   23.8398 C   0  0  0  0  0  0  0  0  0  0  0  0
  -19.8597   -7.9285   23.0866 C   0  0  0  0  0  0  0  0  0  0  0  0
  -19.1003   -7.8915   24.2561 C   0  0  0  0  0  0  0  0  0  0  0  0
  -32.0555  -16.6233   22.5508 C   0  0  0  0  0  0  0  0  0  0  0  0
  -29.2822  -23.1801   26.2140 C   0  0  0  0  0  0  0  0  0  0  0  0
  -20.3408   -5.9564   25.0003 C   0  0  0  0  0  0  0  0  0  0  0  0
  -23.8275  -10.4480   20.9639 C   0  0  0  0  0  0  0  0  0  0  0  0
  -24.1688  -12.9729   20.8378 C   0  0  0  0  0  0  0  0  0  0  0  0
  -21.4890  -28.3414   26.4179 C   0  0  0  0  0  0  0  0  0  0  0  0
  -27.0984  -23.0622   25.1763 C   0  0  0  0  0  0  0  0  0  0  0  0
  -31.8802  -18.3849   24.2154 C   0  0  0  0  0  0  0  0  0  0  0  0
  -22.5387  -27.7933   25.6563 C   0  0  0  0  0  0  0  0  0  0  0  0
  -32.6765  -17.5070   23.4585 C   0  0  0  0  0  0  0  0  0  0  0  0
  -27.8842  -23.2235   26.3264 C   0  0  0  0  0  0  0  0  0  0  0  0
  -30.6721  -16.5974   22.3905 C   0  0  0  0  0  0  0  0  0  0  0  0
  -22.3392   -8.1426   21.4669 C   0  0  0  0  0  0  0  0  0  0  0  0
  -29.8899  -22.9665   24.9770 C   0  0  0  0  0  0  0  0  0  0  0  0
  -20.8596   -6.9794   22.8740 C   0  0  0  0  0  0  0  0  0  0  0  0
  -19.3409   -6.9055   25.2129 C   0  0  0  0  0  0  0  0  0  0  0  0
  -21.1001   -5.9934   23.8308 C   0  0  0  0  0  0  0  0  0  0  0  0
  -24.5967  -11.6384   20.7045 C   0  0  0  0  0  0  0  0  0  0  0  0
  -25.2615  -13.7217   20.4747 C   0  0  0  0  0  0  0  0  0  0  0  0
  -22.8973  -13.4894   21.2527 C   0  0  0  0  0  0  0  0  0  0  0  0
  -25.1966  -25.3222   26.3507 C   0  0  0  0  0  0  0  0  0  0  0  0
  -25.0693  -23.3373   28.9132 C   0  0  0  0  0  0  0  0  0  0  0  0
  -26.5354  -20.8404   30.7195 C   0  0  0  0  0  0  0  0  0  0  0  0
  -30.7270  -14.7694   20.6579 C   0  0  0  0  0  0  0  0  0  0  0  0
  -21.6561  -28.6658   27.8813 C   0  0  0  0  0  0  0  0  0  0  0  0
  -25.5973  -23.0797   25.2707 C   0  0  0  0  0  0  0  0  0  0  0  0
  -34.1790  -17.4698   23.5448 C   0  0  0  0  0  0  0  0  0  0  0  0
  -27.2685  -23.4510   27.6820 C   0  0  0  0  0  0  0  0  0  0  0  0
  -22.8469  -27.9636   28.5287 C   0  0  0  0  0  0  0  0  0  0  0  0
  -34.6914  -17.1487   24.9415 C   0  0  0  0  0  0  0  0  0  0  0  0
  -29.6182  -12.3489   18.2939 C   0  0  0  0  0  0  0  0  0  0  0  0
  -24.0854  -28.0909   27.6475 C   0  0  0  0  0  0  0  0  0  0  0  0
  -34.7334  -18.3694   25.8498 C   0  0  0  0  0  0  0  0  0  0  0  0
  -33.5612  -20.0144   27.3437 C   0  0  0  0  0  0  0  0  0  0  0  0
  -28.1777  -12.0580   18.7212 C   0  0  0  0  0  0  0  0  0  0  0  0
  -34.1070  -21.3031   26.7168 C   0  0  0  0  0  0  0  0  0  0  0  0
  -32.9749  -20.6680   24.5160 C   0  0  0  0  0  0  0  0  0  0  0  0
  -30.5307  -12.5812   19.4968 C   0  0  0  0  0  0  0  0  0  0  0  0
  -28.6207  -13.3088   20.8722 C   0  0  0  0  0  0  0  0  0  0  0  0
  -32.4147  -19.4091   25.2053 C   0  0  2  0  0  0  0  0  0  0  0  0
  -23.8643  -27.4226   26.2852 C   0  0  1  0  0  0  0  0  0  0  0  0
  -25.0844  -23.8308   26.4955 C   0  0  1  0  0  0  0  0  0  0  0  0
  -33.3580  -18.8824   26.3107 C   0  0  1  0  0  0  0  0  0  0  0  0
  -27.6504  -13.1321   19.6928 C   0  0  2  0  0  0  0  0  0  0  0  0
  -33.2817  -21.8165   25.5131 C   0  0  2  0  0  0  0  0  0  0  0  0
  -34.3904  -24.0507   25.6827 C   0  0  0  0  0  0  0  0  0  0  0  0
  -26.2126  -19.4531   32.7855 C   0  0  0  0  0  0  0  0  0  0  0  0
  -25.9121  -25.7107   30.6357 C   0  0  0  0  0  0  0  0  0  0  0  0
  -26.4877  -24.0941   32.4587 C   0  0  0  0  0  0  0  0  0  0  0  0
  -24.1361  -24.2679   31.6448 C   0  0  0  0  0  0  0  0  0  0  0  0
  -26.4586  -18.3264   29.1598 C   0  0  0  0  0  0  0  0  0  0  0  0
  -34.0901  -22.9054   24.7807 C   0  0  0  0  0  0  0  0  0  0  0  0
  -31.9724  -22.4643   26.0100 C   0  0  0  0  0  0  0  0  0  1  0  0
  -25.8776  -23.1701   30.1772 C   0  0  1  0  0  0  0  0  0  0  0  0
  -25.9788  -19.5465   31.2857 C   0  0  2  0  0  0  0  0  0  0  0  0
  -25.6153  -24.3084   31.2034 C   0  0  0  0  0  0  0  0  0  0  0  0
  -25.8625  -11.5418   20.2891 N   0  0  0  0  0  0  0  0  0  0  0  0
  -26.2393  -12.8251   20.1581 N   0  0  0  0  0  0  0  0  0  0  0  0
  -25.7968  -23.4660   27.7216 N   0  0  0  0  0  0  0  0  0  0  0  0
  -29.9697  -13.6142   20.3702 N   0  0  0  0  0  0  0  0  0  0  0  0
  -25.4716  -15.0530   20.3986 N   0  0  0  0  0  0  0  0  0  0  0  0
  -21.8849  -12.5809   21.5903 N   0  0  0  0  0  0  0  0  0  0  0  0
  -30.0777  -15.6964   21.4725 N   0  0  0  0  0  0  0  0  0  0  0  0
  -23.9852  -25.9851   26.4019 N   0  0  0  0  0  0  0  0  0  0  0  0
  -25.5792  -21.8330   30.6787 N   0  0  0  0  0  0  0  0  0  0  0  0
  -26.6291  -18.3742   30.6348 N   0  3  0  0  0  0  0  0  0  0  0  0
  -22.6606  -14.7201   21.3062 O   0  0  0  0  0  0  0  0  0  0  0  0
  -26.3006  -25.8337   26.2050 O   0  0  0  0  0  0  0  0  0  0  0  0
  -23.8376  -23.3461   28.9799 O   0  0  0  0  0  0  0  0  0  0  0  0
  -27.7026  -20.9597   30.3537 O   0  0  0  0  0  0  0  0  0  0  0  0
  -31.8570  -14.9372   20.1922 O   0  0  0  0  0  0  0  0  0  0  0  0
  -21.6131   -7.0179   21.7128 O   0  0  0  0  0  0  0  0  0  0  0  0
  -31.2616  -22.9247   24.8821 O   0  0  0  0  0  0  0  0  0  1  0  0
  -18.6126   -6.8710   26.3366 F   0  0  0  0  0  0  0  0  0  0  0  0
  -22.0601   -5.0796   23.6326 F   0  0  0  0  0  0  0  0  0  0  0  0
  1  2  1  0  0  0  0
  1  5  2  0  0  0  0
  2  6  2  0  0  0  0
  3 10  2  0  0  0  0
  3 18  1  0  0  0  0
  4 11  1  0  0  0  0
  4 18  2  0  0  0  0
  5 20  1  0  0  0  0
  6 23  1  0  0  0  0
  7  9  2  0  0  0  0
  7 22  1  0  0  0  0
  8 12  2  0  0  0  0
  8 21  1  0  0  0  0
  9 26  1  0  0  0  0
 10 27  1  0  0  0  0
 11 27  2  0  0  0  0
 12 28  1  0  0  0  0
 13 14  2  0  0  0  0
 13 29  1  0  0  0  0
 14 30  1  0  0  0  0
 15 24  1  0  0  0  0
 15 26  2  0  0  0  0
 16 25  1  0  0  0  0
 16 28  2  0  0  0  0
 17 30  2  0  0  0  0
 17 31  1  0  0  0  0
 18 32  1  0  0  0  0
 19 32  1  0  0  0  0
 19 33  2  0  0  0  0
 19 34  1  0  0  0  0
 20 23  2  0  0  0  0
 20 39  1  0  0  0  0
 21 25  2  0  0  0  0
 21 40  1  0  0  0  0
 22 24  2  0  0  0  0
 22 54  1  0  0  0  0
 23 55  1  0  0  0  0
 24 41  1  0  0  0  0
 25 42  1  0  0  0  0
 26 77  1  0  0  0  0
 27 86  1  0  0  0  0
 28 87  1  0  0  0  0
 29 31  2  0  0  0  0
 29 86  1  0  0  0  0
 30 88  1  0  0  0  0
 31 89  1  0  0  0  0
 32 71  2  0  0  0  0
 33 72  1  0  0  0  0
 33 75  1  0  0  0  0
 34 76  1  0  0  0  0
 34 81  2  0  0  0  0
 35 56  1  0  0  0  0
 35 78  1  0  0  0  0
 35 82  2  0  0  0  0
 36 68  1  0  0  0  0
 36 73  1  0  0  0  0
 36 83  2  0  0  0  0
 37 69  1  0  0  0  0
 37 79  1  0  0  0  0
 37 84  2  0  0  0  0
 38 74  1  0  0  0  0
 38 77  1  0  0  0  0
 38 85  2  0  0  0  0
 39 43  1  0  0  0  0
 40 56  1  0  0  0  0
 41 44  1  0  0  0  0
 42 73  1  0  0  0  0
 43 46  1  0  0  0  0
 44 47  1  0  0  0  0
 45 49  1  0  0  0  0
 45 52  1  0  0  0  0
 46 55  1  0  0  0  0
 47 57  1  0  0  0  0
 48 50  1  0  0  0  0
 48 57  1  0  0  0  0
 49 58  1  0  0  0  0
 50 59  1  0  0  0  0
 51 54  1  0  0  0  0
 51 59  1  0  0  0  0
 52 74  1  0  0  0  0
 53 58  1  0  0  0  0
 53 74  1  0  0  0  0
 54 57  1  0  0  0  0
 55 78  1  0  0  0  0
 56 73  1  0  0  0  0
 58 72  1  0  0  0  0
 59 66  1  0  0  0  0
 59 67  1  0  0  0  0
 60 66  1  0  0  0  0
 61 69  1  0  0  0  0
 62 70  1  0  0  0  0
 63 70  1  0  0  0  0
 64 70  1  0  0  0  0
 65 80  1  0  0  0  0
 67 87  1  0  0  0  0
 68 70  1  0  0  0  0
 68 79  1  0  0  0  0
 69 80  1  0  0  0  0
 71 72  1  0  0  0  0
M  CHG  1  80   1
M  ISO  4  38 100  67 101  77 100  87 101
M  END
> <Batch ID>
0135

> <Smiles>
CCC1([101CH2:1][101O:1]c2ccc3c(c2)CN(C(=O)C(NC(=O)C(C)NC)C(C)(C)C)C(C(=O)NC2CCCc4ccccc42)C3)CCC2CCCc3cc([100NH:0][100C:0](=O)N4CCCC(n5nc(-c6ccc(Oc7ccc(F)cc7F)cc6)c(C(N)=O)c5N)C4)ccc3C2C1

> <Shape>
0.177

> <Color>
0.187

> <Negative vol penalty>
0.000

$$$$

  -OEChem-04052302363D

 85 93  0     1  0  0  0  0  0999 V2000
  -29.9478  -24.3769   16.9585 C   0  0  0  0  0  0  0  0  0  0  0  0
  -28.7235  -24.3651   17.6191 C   0  0  0  0  0  0  0  0  0  0  0  0
  -25.7936  -13.6790   20.1295 C   0  0  0  0  0  0  0  0  0  0  0  0
  -24.0041  -15.1985   20.7004 C   0  0  0  0  0  0  0  0  0  0  0  0
  -31.0053  -25.1305   17.4661 C   0  0  0  0  0  0  0  0  0  0  0  0
  -28.5564  -25.1061   18.7884 C   0  0  0  0  0  0  0  0  0  0  0  0
  -24.1924  -27.6745   18.8536 C   0  0  0  0  0  0  0  0  0  0  0  0
  -25.1906  -12.6812   20.8953 C   0  0  0  0  0  0  0  0  0  0  0  0
  -23.4011  -14.2006   21.4661 C   0  0  0  0  0  0  0  0  0  0  0  0
  -23.0353  -26.9562   19.1519 C   0  0  0  0  0  0  0  0  0  0  0  0
  -22.6288  -10.4983   20.5711 C   0  0  0  0  0  0  0  0  0  0  0  0
  -22.5444   -9.2199   20.0196 C   0  0  0  0  0  0  0  0  0  0  0  0
  -25.6204  -24.8421   23.6754 C   0  0  0  0  0  0  0  0  0  0  0  0
  -25.3817  -23.1073   22.0110 C   0  0  0  0  0  0  0  0  0  0  0  0
  -23.1214  -27.7715   21.4207 C   0  0  0  0  0  0  0  0  0  0  0  0
  -27.5772  -23.7165   22.8144 C   0  0  0  0  0  0  0  0  0  0  0  0
  -23.8490   -8.3424   21.8540 C   0  0  0  0  0  0  0  0  0  0  0  0
  -25.2003  -14.9377   20.0321 C   0  0  0  0  0  0  0  0  0  0  0  0
  -24.8090  -24.0608   22.8528 C   0  0  0  0  0  0  0  0  0  0  0  0
  -25.6135  -16.2360   17.8754 C   0  0  0  0  0  0  0  0  0  0  0  0
  -30.8481  -25.8888   18.6370 C   0  0  0  0  0  0  0  0  0  0  0  0
  -24.8299  -28.4392   19.8411 C   0  0  0  0  0  0  0  0  0  0  0  0
  -29.6131  -25.8695   19.3129 C   0  0  0  0  0  0  0  0  0  0  0  0
  -24.2850  -28.5005   21.1317 C   0  0  0  0  0  0  0  0  0  0  0  0
  -27.0046  -24.6700   23.6562 C   0  0  0  0  0  0  0  0  0  0  0  0
  -26.7658  -22.9352   21.9918 C   0  0  0  0  0  0  0  0  0  0  0  0
  -23.9944  -12.9420   21.5636 C   0  0  0  0  0  0  0  0  0  0  0  0
  -22.5012  -27.0023   20.4363 C   0  0  0  0  0  0  0  0  0  0  0  0
  -23.3234  -10.6988   21.7640 C   0  0  0  0  0  0  0  0  0  0  0  0
  -23.1545   -8.1419   20.6610 C   0  0  0  0  0  0  0  0  0  0  0  0
  -23.9334   -9.6208   22.4055 C   0  0  0  0  0  0  0  0  0  0  0  0
  -25.8229  -15.9690   19.2417 C   0  0  0  0  0  0  0  0  0  0  0  0
  -26.4332  -17.3043   17.6047 C   0  0  0  0  0  0  0  0  0  0  0  0
  -23.3485  -24.2424   22.8722 C   0  0  0  0  0  0  0  0  0  0  0  0
  -22.4748  -23.5486   22.1257 C   0  0  0  0  0  0  0  0  0  0  0  0
  -24.7548  -15.5772   16.9350 C   0  0  0  0  0  0  0  0  0  0  0  0
  -27.6918  -28.3819   21.2232 C   0  0  0  0  0  0  0  0  0  0  0  0
  -26.6459  -31.1217   22.6096 C   0  0  0  0  0  0  0  0  0  0  0  0
  -24.0045  -33.0458   23.5932 C   0  0  0  0  0  0  0  0  0  0  0  0
  -28.7029  -21.6700   20.9951 C   0  0  0  0  0  0  0  0  0  0  0  0
  -32.0343  -26.6502   19.1734 C   0  0  0  0  0  0  0  0  0  0  0  0
  -26.0623  -29.2295   19.4963 C   0  0  0  0  0  0  0  0  0  0  0  0
  -24.9199  -29.3227   22.2223 C   0  0  0  0  0  0  0  0  0  0  0  0
  -31.6618  -27.7049   20.2123 C   0  0  0  0  0  0  0  0  0  0  0  0
  -30.5313  -19.3344   19.0255 C   0  0  0  0  0  0  0  0  0  0  0  0
  -30.6923  -27.1254   21.2375 C   0  0  0  0  0  0  0  0  0  0  0  0
  -29.5106  -18.2336   18.7280 C   0  0  0  0  0  0  0  0  0  0  0  0
  -30.3577  -19.9036   20.4325 C   0  0  0  0  0  0  0  0  0  0  0  0
  -27.9794  -19.2614   20.4560 C   0  0  0  0  0  0  0  0  0  0  0  0
  -29.3853  -26.6799   20.5705 C   0  0  1  0  0  0  0  0  0  0  0  0
  -26.9174  -29.5647   20.7144 C   0  0  1  0  0  0  0  0  0  0  0  0
  -28.0730  -18.7023   19.0270 C   0  0  2  0  0  0  0  0  0  0  0  0
  -27.8727  -25.5055   24.5352 C   0  0  0  0  0  0  0  0  0  0  0  0
  -23.4641  -35.2151   24.7333 C   0  0  0  0  0  0  0  0  0  0  0  0
  -27.3395  -29.8743   25.3064 C   0  0  0  0  0  0  0  0  0  0  0  0
  -25.9343  -31.6327   26.4026 C   0  0  0  0  0  0  0  0  0  0  0  0
  -27.9490  -32.2898   25.0866 C   0  0  0  0  0  0  0  0  0  0  0  0
  -20.0865  -22.8240   19.9889 C   0  0  0  0  0  0  0  0  0  0  0  0
  -18.9290  -24.7201   21.1320 C   0  0  0  0  0  0  0  0  0  0  0  0
  -22.6057  -34.0877   21.2022 C   0  0  0  0  0  0  0  0  0  0  0  0
  -20.9847  -23.7576   22.1871 C   0  0  0  0  0  0  0  0  0  0  0  0
  -21.1471  -25.0965   20.0002 C   0  0  0  0  0  0  0  0  0  1  0  0
  -25.8920  -31.4604   23.8729 C   0  0  1  0  0  0  0  0  0  0  0  0
  -23.7071  -34.5221   23.4016 C   0  0  2  0  0  0  0  0  0  0  0  0
  -26.7676  -31.2972   25.1473 C   0  0  0  0  0  0  0  0  0  0  0  0
  -20.3081  -24.0967   20.8277 C   0  0  0  0  0  0  0  0  0  0  0  0
  -26.7065  -16.8006   19.8000 N   0  0  0  0  0  0  0  0  0  0  0  0
  -27.0596  -17.6006   18.7795 N   0  0  0  0  0  0  0  0  0  0  0  0
  -26.1269  -30.0727   21.8374 N   0  0  0  0  0  0  0  0  0  0  0  0
  -28.9726  -20.3308   20.6422 N   0  0  0  0  0  0  0  0  0  0  0  0
  -26.6721  -18.0098   16.4788 N   0  0  0  0  0  0  0  0  0  0  0  0
  -23.9805  -14.4970   17.3801 N   0  0  0  0  0  0  0  0  0  0  0  0
  -27.3478  -21.9674   21.1359 N   0  0  0  0  0  0  0  0  0  0  0  0
  -28.5452  -27.8245   20.2902 N   0  0  0  0  0  0  0  0  0  0  0  0
  -25.3593  -32.8051   23.6821 N   0  0  0  0  0  0  0  0  0  0  0  0
  -22.4963  -34.7004   22.5512 N   0  3  0  0  0  0  0  0  0  0  0  0
  -24.6886  -15.9254   15.7317 O   0  0  0  0  0  0  0  0  0  0  0  0
  -27.5282  -28.0038   22.3774 O   0  0  0  0  0  0  0  0  0  0  0  0
  -27.6539  -31.7688   22.3149 O   0  0  0  0  0  0  0  0  0  0  0  0
  -23.1230  -32.1921   23.6612 O   0  0  0  0  0  0  0  0  0  0  0  0
  -29.6059  -22.4991   21.1336 O   0  0  0  0  0  0  0  0  0  0  0  0
  -23.4056  -11.9684   22.3107 O   0  0  0  0  0  0  0  0  0  0  0  0
  -21.3722  -26.3017   20.7304 O   0  0  0  0  0  0  0  0  0  1  0  0
  -23.0720   -6.9141   20.1321 F   0  0  0  0  0  0  0  0  0  0  0  0
  -24.6011   -9.8070   23.5524 F   0  0  0  0  0  0  0  0  0  0  0  0
  1  2  1  0  0  0  0
  1  5  2  0  0  0  0
  2  6  2  0  0  0  0
  3  8  2  0  0  0  0
  3 18  1  0  0  0  0
  4  9  1  0  0  0  0
  4 18  2  0  0  0  0
  5 21  1  0  0  0  0
  6 23  1  0  0  0  0
  7 10  2  0  0  0  0
  7 22  1  0  0  0  0
  8 27  1  0  0  0  0
  9 27  2  0  0  0  0
 10 28  1  0  0  0  0
 11 12  2  0  0  0  0
 11 29  1  0  0  0  0
 12 30  1  0  0  0  0
 13 19  1  0  0  0  0
 13 25  2  0  0  0  0
 14 19  2  0  0  0  0
 14 26  1  0  0  0  0
 15 24  1  0  0  0  0
 15 28  2  0  0  0  0
 16 25  1  0  0  0  0
 16 26  2  0  0  0  0
 17 30  2  0  0  0  0
 17 31  1  0  0  0  0
 18 32  1  0  0  0  0
 19 34  1  0  0  0  0
 20 32  1  0  0  0  0
 20 33  2  0  0  0  0
 20 36  1  0  0  0  0
 21 23  2  0  0  0  0
 21 41  1  0  0  0  0
 22 24  2  0  0  0  0
 22 42  1  0  0  0  0
 23 50  1  0  0  0  0
 24 43  1  0  0  0  0
 25 53  1  0  0  0  0
 26 73  1  0  0  0  0
 27 82  1  0  0  0  0
 28 83  1  0  0  0  0
 29 31  2  0  0  0  0
 29 82  1  0  0  0  0
 30 84  1  0  0  0  0
 31 85  1  0  0  0  0
 32 67  2  0  0  0  0
 33 68  1  0  0  0  0
 33 71  1  0  0  0  0
 34 35  2  0  0  0  0
 35 61  1  0  0  0  0
 36 72  1  0  0  0  0
 36 77  2  0  0  0  0
 37 51  1  0  0  0  0
 37 74  1  0  0  0  0
 37 78  2  0  0  0  0
 38 63  1  0  0  0  0
 38 69  1  0  0  0  0
 38 79  2  0  0  0  0
 39 64  1  0  0  0  0
 39 75  1  0  0  0  0
 39 80  2  0  0  0  0
 40 70  1  0  0  0  0
 40 73  1  0  0  0  0
 40 81  2  0  0  0  0
 41 44  1  0  0  0  0
 42 51  1  0  0  0  0
 43 69  1  0  0  0  0
 44 46  1  0  0  0  0
 45 47  1  0  0  0  0
 45 48  1  0  0  0  0
 46 50  1  0  0  0  0
 47 52  1  0  0  0  0
 48 70  1  0  0  0  0
 49 52  1  0  0  0  0
 49 70  1  0  0  0  0
 50 74  1  0  0  0  0
 51 69  1  0  0  0  0
 52 68  1  0  0  0  0
 54 64  1  0  0  0  0
 55 65  1  0  0  0  0
 56 65  1  0  0  0  0
 57 65  1  0  0  0  0
 58 66  1  0  0  0  0
 59 66  1  0  0  0  0
 60 76  1  0  0  0  0
 61 66  1  0  0  0  0
 62 66  1  0  0  0  0
 62 83  1  0  0  0  0
 63 65  1  0  0  0  0
 63 75  1  0  0  0  0
 64 76  1  0  0  0  0
 67 68  1  0  0  0  0
M  CHG  1  76   1
M  ISO  4  40 100  62 101  73 100  83 101
M  END
> <Batch ID>
0135

> <Smiles>
CNC(C)C(=O)NC(C(=O)N1Cc2cc([101O:1][101CH2:1]C(C)(C)CC=Cc3cc(C)cc([100NH:0][100C:0](=O)N4CCCC(n5nc(-c6ccc(Oc7ccc(F)cc7F)cc6)c(C(N)=O)c5N)C4)c3)ccc2CC1C(=O)NC1CCCc2ccccc21)C(C)(C)C

> <Shape>
0.299

> <Color>
0.066

> <Negative vol penalty>
0.000

$$$$

  -OEChem-04052302363D

 85 93  0     1  0  0  0  0  0999 V2000
  -29.8868  -32.2630   24.6954 C   0  0  0  0  0  0  0  0  0  0  0  0
  -29.7828  -31.0191   25.3097 C   0  0  0  0  0  0  0  0  0  0  0  0
  -23.0386   -9.9328   19.9533 C   0  0  0  0  0  0  0  0  0  0  0  0
  -23.7729   -9.9511   22.2550 C   0  0  0  0  0  0  0  0  0  0  0  0
  -32.6459  -17.4962   23.5105 C   0  0  0  0  0  0  0  0  0  0  0  0
  -29.5485  -32.4055   23.3504 C   0  0  0  0  0  0  0  0  0  0  0  0
  -29.3392  -29.9171   24.5795 C   0  0  0  0  0  0  0  0  0  0  0  0
  -32.1463  -25.7835   25.4030 C   0  0  0  0  0  0  0  0  0  0  0  0
  -32.0576  -16.6109   22.6074 C   0  0  0  0  0  0  0  0  0  0  0  0
  -22.2815   -8.7885   20.2040 C   0  0  0  0  0  0  0  0  0  0  0  0
  -23.0158   -8.8068   22.5056 C   0  0  0  0  0  0  0  0  0  0  0  0
  -31.9162  -25.0829   26.5863 C   0  0  0  0  0  0  0  0  0  0  0  0
  -23.2825   -5.4780   21.9777 C   0  0  0  0  0  0  0  0  0  0  0  0
  -23.8806   -4.4529   22.7105 C   0  0  0  0  0  0  0  0  0  0  0  0
  -30.4656  -18.3728   24.0716 C   0  0  0  0  0  0  0  0  0  0  0  0
  -30.5805  -23.4826   25.3721 C   0  0  0  0  0  0  0  0  0  0  0  0
  -22.1619   -4.6554   24.3964 C   0  0  0  0  0  0  0  0  0  0  0  0
  -23.7844  -10.5141   20.9788 C   0  0  0  0  0  0  0  0  0  0  0  0
  -31.8499  -18.3771   24.2427 C   0  0  0  0  0  0  0  0  0  0  0  0
  -24.1506  -13.0351   20.8428 C   0  0  0  0  0  0  0  0  0  0  0  0
  -29.1097  -31.3026   22.6008 C   0  0  0  0  0  0  0  0  0  0  0  0
  -31.5853  -25.3442   24.1952 C   0  0  0  0  0  0  0  0  0  0  0  0
  -28.9934  -30.0452   23.2235 C   0  0  0  0  0  0  0  0  0  0  0  0
  -30.8071  -24.1779   24.1744 C   0  0  0  0  0  0  0  0  0  0  0  0
  -30.6733  -16.6066   22.4362 C   0  0  0  0  0  0  0  0  0  0  0  0
  -22.2700   -8.2255   21.4801 C   0  0  0  0  0  0  0  0  0  0  0  0
  -31.1309  -23.9340   26.5714 C   0  0  0  0  0  0  0  0  0  0  0  0
  -22.1242   -6.0919   22.4542 C   0  0  0  0  0  0  0  0  0  0  0  0
  -23.3203   -4.0416   23.9199 C   0  0  0  0  0  0  0  0  0  0  0  0
  -29.8773  -17.4876   23.1684 C   0  0  0  0  0  0  0  0  0  0  0  0
  -21.5639   -5.6806   23.6636 C   0  0  0  0  0  0  0  0  0  0  0  0
  -24.5671  -11.6959   20.7204 C   0  0  0  0  0  0  0  0  0  0  0  0
  -25.2535  -13.7717   20.4859 C   0  0  0  0  0  0  0  0  0  0  0  0
  -32.4786  -19.3230   25.2074 C   0  0  0  0  0  0  0  0  0  0  0  0
  -22.8803  -13.5657   21.2434 C   0  0  0  0  0  0  0  0  0  0  0  0
  -29.5276  -26.5651   22.1026 C   0  0  0  0  0  0  0  0  0  0  0  0
  -30.2947  -23.9171   20.3932 C   0  0  0  0  0  0  0  0  0  0  0  0
  -31.4663  -20.7118   20.3864 C   0  0  0  0  0  0  0  0  0  0  0  0
  -30.7267  -14.7692   20.7137 C   0  0  0  0  0  0  0  0  0  0  0  0
  -28.7102  -31.5154   21.1621 C   0  0  0  0  0  0  0  0  0  0  0  0
  -31.8650  -26.0961   22.9229 C   0  0  0  0  0  0  0  0  0  0  0  0
  -30.1987  -23.6532   22.9005 C   0  0  0  0  0  0  0  0  0  0  0  0
  -28.6061  -30.2201   20.3610 C   0  0  0  0  0  0  0  0  0  0  0  0
  -29.6167  -12.3468   18.3521 C   0  0  0  0  0  0  0  0  0  0  0  0
  -27.8280  -29.1684   21.1453 C   0  0  0  0  0  0  0  0  0  0  0  0
  -28.1698  -12.0717   18.7678 C   0  0  0  0  0  0  0  0  0  0  0  0
  -30.5205  -12.5768   19.5621 C   0  0  0  0  0  0  0  0  0  0  0  0
  -28.6050  -13.3295   20.9162 C   0  0  0  0  0  0  0  0  0  0  0  0
  -28.5398  -28.8209   22.4584 C   0  0  1  0  0  0  0  0  0  0  0  0
  -30.8205  -25.8463   21.8393 C   0  0  1  0  0  0  0  0  0  0  0  0
  -27.6438  -13.1557   19.7289 C   0  0  2  0  0  0  0  0  0  0  0  0
  -31.9442  -18.7924   18.8421 C   0  0  0  0  0  0  0  0  0  0  0  0
  -27.3079  -23.3185   20.2169 C   0  0  0  0  0  0  0  0  0  0  0  0
  -27.8877  -20.9819   19.5295 C   0  0  0  0  0  0  0  0  0  0  0  0
  -28.5807  -22.9079   18.1036 C   0  0  0  0  0  0  0  0  0  0  0  0
  -29.2031  -21.6056   27.4270 C   0  0  0  0  0  0  0  0  0  0  0  0
  -31.1669  -21.1950   28.9243 C   0  0  0  0  0  0  0  0  0  0  0  0
  -34.3430  -20.7174   21.0818 C   0  0  0  0  0  0  0  0  0  0  0  0
  -31.7188  -19.7751   26.4455 C   0  0  0  0  0  0  0  0  0  0  0  0
  -31.5338  -21.2959   26.4361 C   0  0  0  0  0  0  0  0  0  0  0  0
  -29.7580  -22.5088   20.3052 C   0  0  1  0  0  0  0  0  0  0  0  0
  -32.5134  -20.0239   19.5292 C   0  0  2  0  0  0  0  0  0  0  0  0
  -28.3933  -22.4400   19.5633 C   0  0  0  0  0  0  0  0  0  0  0  0
  -30.7023  -21.8403   27.6149 C   0  0  0  0  0  0  0  0  0  1  0  0
  -25.8356  -11.5853   20.3171 N   0  0  0  0  0  0  0  0  0  0  0  0
  -33.6768  -19.7699   24.9969 N   0  0  0  0  0  0  0  0  0  0  0  0
  -26.2256  -12.8644   20.1829 N   0  0  0  0  0  0  0  0  0  0  0  0
  -30.4959  -24.4269   21.6837 N   0  0  0  0  0  0  0  0  0  0  0  0
  -29.9612  -13.6196   20.4250 N   0  0  0  0  0  0  0  0  0  0  0  0
  -25.4769  -15.1006   20.4049 N   0  0  0  0  0  0  0  0  0  0  0  0
  -21.8564  -12.6684   21.5765 N   0  0  0  0  0  0  0  0  0  0  0  0
  -30.0788  -15.7065   21.5175 N   0  0  0  0  0  0  0  0  0  0  0  0
  -29.6580  -27.9367   22.2084 N   0  0  0  0  0  0  0  0  0  0  0  0
  -30.8122  -21.7078   19.6926 N   0  0  0  0  0  0  0  0  0  0  0  0
  -33.6721  -19.6018   20.3660 N   0  3  0  0  0  0  0  0  0  0  0  0
  -22.6546  -14.7988   21.2885 O   0  0  0  0  0  0  0  0  0  0  0  0
  -28.4885  -25.9231   22.2009 O   0  0  0  0  0  0  0  0  0  0  0  0
  -30.5335  -24.5392   19.3552 O   0  0  0  0  0  0  0  0  0  0  0  0
  -31.2477  -20.3946   21.5535 O   0  0  0  0  0  0  0  0  0  0  0  0
  -31.8624  -14.9239   20.2574 O   0  0  0  0  0  0  0  0  0  0  0  0
  -21.5312   -7.1089   21.7251 O   0  0  0  0  0  0  0  0  0  0  0  0
  -30.9042  -23.2487   27.7251 O   0  0  0  0  0  0  0  0  0  1  0  0
  -23.8939   -3.0561   24.6227 F   0  0  0  0  0  0  0  0  0  0  0  0
  -28.5456  -17.4929   23.0118 F   0  0  0  0  0  0  0  0  0  0  0  0
  -20.4505   -6.2658   24.1259 F   0  0  0  0  0  0  0  0  0  0  0  0
  1  2  1  0  0  0  0
  1  6  2  0  0  0  0
  2  7  2  0  0  0  0
  3 10  2  0  0  0  0
  3 18  1  0  0  0  0
  4 11  1  0  0  0  0
  4 18  2  0  0  0  0
  5  9  2  0  0  0  0
  5 19  1  0  0  0  0
  6 21  1  0  0  0  0
  7 23  1  0  0  0  0
  8 12  2  0  0  0  0
  8 22  1  0  0  0  0
  9 25  1  0  0  0  0
 10 26  1  0  0  0  0
 11 26  2  0  0  0  0
 12 27  1  0  0  0  0
 13 14  2  0  0  0  0
 13 28  1  0  0  0  0
 14 29  1  0  0  0  0
 15 19  2  0  0  0  0
 15 30  1  0  0  0  0
 16 24  1  0  0  0  0
 16 27  2  0  0  0  0
 17 29  2  0  0  0  0
 17 31  1  0  0  0  0
 18 32  1  0  0  0  0
 19 34  1  0  0  0  0
 20 32  1  0  0  0  0
 20 33  2  0  0  0  0
 20 35  1  0  0  0  0
 21 23  2  0  0  0  0
 21 40  1  0  0  0  0
 22 24  2  0  0  0  0
 22 41  1  0  0  0  0
 23 49  1  0  0  0  0
 24 42  1  0  0  0  0
 25 30  2  0  0  0  0
 25 72  1  0  0  0  0
 26 81  1  0  0  0  0
 27 82  1  0  0  0  0
 28 31  2  0  0  0  0
 28 81  1  0  0  0  0
 29 83  1  0  0  0  0
 30 84  1  0  0  0  0
 31 85  1  0  0  0  0
 32 65  2  0  0  0  0
 33 67  1  0  0  0  0
 33 70  1  0  0  0  0
 34 59  1  0  0  0  0
 34 66  2  0  0  0  0
 35 71  1  0  0  0  0
 35 76  2  0  0  0  0
 36 50  1  0  0  0  0
 36 73  1  0  0  0  0
 36 77  2  0  0  0  0
 37 61  1  0  0  0  0
 37 68  1  0  0  0  0
 37 78  2  0  0  0  0
 38 62  1  0  0  0  0
 38 74  1  0  0  0  0
 38 79  2  0  0  0  0
 39 69  1  0  0  0  0
 39 72  1  0  0  0  0
 39 80  2  0  0  0  0
 40 43  1  0  0  0  0
 41 50  1  0  0  0  0
 42 68  1  0  0  0  0
 43 45  1  0  0  0  0
 44 46  1  0  0  0  0
 44 47  1  0  0  0  0
 45 49  1  0  0  0  0
 46 51  1  0  0  0  0
 47 69  1  0  0  0  0
 48 51  1  0  0  0  0
 48 69  1  0  0  0  0
 49 73  1  0  0  0  0
 50 68  1  0  0  0  0
 51 67  1  0  0  0  0
 52 62  1  0  0  0  0
 53 63  1  0  0  0  0
 54 63  1  0  0  0  0
 55 63  1  0  0  0  0
 56 64  1  0  0  0  0
 57 64  1  0  0  0  0
 58 75  1  0  0  0  0
 59 60  1  0  0  0  0
 60 64  1  0  0  0  0
 61 63  1  0  0  0  0
 61 74  1  0  0  0  0
 62 75  1  0  0  0  0
 64 82  1  0  0  0  0
 65 67  1  0  0  0  0
M  CHG  1  75   1
M  ISO  4  39 100  64 101  72 100  82 101
M  END
> <Batch ID>
0135

> <Smiles>
CNC(C)C(=O)NC(C(=O)N1Cc2cc([101O:1][101C:1](C)(C)CCC(=N)c3ccc([100NH:0][100C:0](=O)N4CCCC(n5nc(-c6ccc(Oc7ccc(F)cc7F)cc6)c(C(N)=O)c5N)C4)c(F)c3)ccc2CC1C(=O)NC1CCCc2ccccc21)C(C)(C)C

> <Shape>
0.247

> <Color>
0.206

> <Negative vol penalty>
0.000

$$$$

  -OEChem-04052302363D

 83 91  0     1  0  0  0  0  0999 V2000
  -18.1180  -26.9619   23.6419 C   0  0  0  0  0  0  0  0  0  0  0  0
  -19.4388  -27.0015   24.0771 C   0  0  0  0  0  0  0  0  0  0  0  0
  -28.1245  -23.1907   20.6687 C   0  0  0  0  0  0  0  0  0  0  0  0
  -26.7369  -12.5738   21.8906 C   0  0  0  0  0  0  0  0  0  0  0  0
  -25.9268  -14.3082   20.4166 C   0  0  0  0  0  0  0  0  0  0  0  0
  -17.8362  -26.9040   22.2777 C   0  0  0  0  0  0  0  0  0  0  0  0
  -20.4786  -26.9822   23.1482 C   0  0  0  0  0  0  0  0  0  0  0  0
  -25.8634  -29.8658   23.5896 C   0  0  0  0  0  0  0  0  0  0  0  0
  -28.2384  -24.1865   21.6387 C   0  0  0  0  0  0  0  0  0  0  0  0
  -28.7026  -21.9393   20.8826 C   0  0  0  0  0  0  0  0  0  0  0  0
  -25.4560  -12.0247   21.9487 C   0  0  0  0  0  0  0  0  0  0  0  0
  -24.6458  -13.7591   20.4746 C   0  0  0  0  0  0  0  0  0  0  0  0
  -27.1290  -29.4341   23.9840 C   0  0  0  0  0  0  0  0  0  0  0  0
  -23.4897  -10.0784   20.0049 C   0  0  0  0  0  0  0  0  0  0  0  0
  -23.3707   -8.6950   19.8715 C   0  0  0  0  0  0  0  0  0  0  0  0
  -27.7188  -29.0711   21.6732 C   0  0  0  0  0  0  0  0  0  0  0  0
  -29.5086  -22.6799   23.0364 C   0  0  0  0  0  0  0  0  0  0  0  0
  -22.3568   -8.5712   22.0610 C   0  0  0  0  0  0  0  0  0  0  0  0
  -26.9723  -13.7155   21.1246 C   0  0  0  0  0  0  0  0  0  0  0  0
  -29.3121  -13.9743   20.1417 C   0  0  0  0  0  0  0  0  0  0  0  0
  -18.8729  -26.8937   21.3312 C   0  0  0  0  0  0  0  0  0  0  0  0
  -25.5117  -29.8931   22.2324 C   0  0  0  0  0  0  0  0  0  0  0  0
  -20.2104  -26.9228   21.7701 C   0  0  0  0  0  0  0  0  0  0  0  0
  -26.4490  -29.5060   21.2640 C   0  0  0  0  0  0  0  0  0  0  0  0
  -28.9305  -23.9312   22.8225 C   0  0  0  0  0  0  0  0  0  0  0  0
  -29.3947  -21.6840   22.0665 C   0  0  0  0  0  0  0  0  0  0  0  0
  -24.4104  -12.6174   21.2407 C   0  0  0  0  0  0  0  0  0  0  0  0
  -28.0560  -29.0339   23.0260 C   0  0  0  0  0  0  0  0  0  0  0  0
  -23.0423  -10.7082   21.1663 C   0  0  0  0  0  0  0  0  0  0  0  0
  -22.8043   -7.9415   20.8996 C   0  0  0  0  0  0  0  0  0  0  0  0
  -22.4759   -9.9546   22.1944 C   0  0  0  0  0  0  0  0  0  0  0  0
  -28.2952  -14.2835   21.0647 C   0  0  0  0  0  0  0  0  0  0  0  0
  -30.3640  -14.7779   20.5077 C   0  0  0  0  0  0  0  0  0  0  0  0
  -29.3062  -13.0438   19.0508 C   0  0  0  0  0  0  0  0  0  0  0  0
  -23.3120  -28.4412   20.4556 C   0  0  0  0  0  0  0  0  0  0  0  0
  -24.4355  -30.4190   18.1430 C   0  0  0  0  0  0  0  0  0  0  0  0
  -27.0089  -32.3199   16.9551 C   0  0  0  0  0  0  0  0  0  0  0  0
  -30.7015  -19.9945   23.4023 C   0  0  0  0  0  0  0  0  0  0  0  0
  -18.5199  -26.7828   19.8691 C   0  0  0  0  0  0  0  0  0  0  0  0
  -24.1515  -30.3868   21.8215 C   0  0  0  0  0  0  0  0  0  0  0  0
  -26.1277  -29.5360   19.7928 C   0  0  0  0  0  0  0  0  0  0  0  0
  -19.6722  -27.1441   18.9353 C   0  0  0  0  0  0  0  0  0  0  0  0
  -32.2726  -16.9377   24.3322 C   0  0  0  0  0  0  0  0  0  0  0  0
  -20.9600  -26.4635   19.3883 C   0  0  0  0  0  0  0  0  0  0  0  0
  -31.5275  -15.8827   23.5113 C   0  0  0  0  0  0  0  0  0  0  0  0
  -31.3387  -18.0483   24.8099 C   0  0  0  0  0  0  0  0  0  0  0  0
  -29.7981  -17.6325   22.9329 C   0  0  0  0  0  0  0  0  0  0  0  0
  -21.3653  -26.9285   20.7922 C   0  0  1  0  0  0  0  0  0  0  0  0
  -23.7247  -29.8859   20.4452 C   0  0  1  0  0  0  0  0  0  0  0  0
  -30.7095  -16.5272   22.3750 C   0  0  2  0  0  0  0  0  0  0  0  0
  -27.6441  -33.7886   15.0221 C   0  0  0  0  0  0  0  0  0  0  0  0
  -24.8442  -27.9468   16.4020 C   0  0  0  0  0  0  0  0  0  0  0  0
  -26.3205  -29.3210   14.9187 C   0  0  0  0  0  0  0  0  0  0  0  0
  -23.9176  -29.9313   15.1947 C   0  0  0  0  0  0  0  0  0  0  0  0
  -31.8856  -27.7098   24.4137 C   0  0  0  0  0  0  0  0  0  0  0  0
  -30.6412  -26.3699   26.1294 C   0  0  0  0  0  0  0  0  0  0  0  0
  -27.3862  -34.6697   18.7144 C   0  0  0  0  0  0  0  0  0  0  0  0
  -29.0535  -25.0095   23.8720 C   0  0  0  0  0  0  0  0  0  0  0  0
  -30.3095  -25.8638   23.6512 C   0  0  0  0  0  0  0  0  0  0  0  0
  -29.3969  -27.9817   24.6845 C   0  0  0  0  0  0  0  0  0  1  0  0
  -25.5263  -30.3363   17.1026 C   0  0  1  0  0  0  0  0  0  0  0  0
  -27.0490  -33.7402   16.4207 C   0  0  2  0  0  0  0  0  0  0  0  0
  -25.1578  -29.3813   15.9323 C   0  0  0  0  0  0  0  0  0  0  0  0
  -30.5688  -26.9698   24.7139 C   0  0  0  0  0  0  0  0  0  0  0  0
  -28.6676  -15.2111   21.9507 N   0  0  0  0  0  0  0  0  0  0  0  0
  -29.9303  -15.4916   21.5860 N   0  0  0  0  0  0  0  0  0  0  0  0
  -24.7826  -30.0205   19.4417 N   0  0  0  0  0  0  0  0  0  0  0  0
  -30.6001  -18.6147   23.6791 N   0  0  0  0  0  0  0  0  0  0  0  0
  -31.6085  -14.9366   20.0092 N   0  0  0  0  0  0  0  0  0  0  0  0
  -28.1430  -12.2986   18.8145 N   0  0  0  0  0  0  0  0  0  0  0  0
  -29.9812  -20.4126   22.2837 N   0  0  0  0  0  0  0  0  0  0  0  0
  -21.9735  -28.2405   20.7341 N   0  0  0  0  0  0  0  0  0  0  0  0
  -25.8018  -31.7083   16.6902 N   0  0  0  0  0  0  0  0  0  0  0  0
  -27.8719  -34.6059   17.3119 N   0  3  0  0  0  0  0  0  0  0  0  0
  -30.3086  -12.8663   18.3178 O   0  0  0  0  0  0  0  0  0  0  0  0
  -24.1458  -27.5729   20.2264 O   0  0  0  0  0  0  0  0  0  0  0  0
  -23.3187  -30.8291   17.8170 O   0  0  0  0  0  0  0  0  0  0  0  0
  -27.9553  -31.8032   17.5451 O   0  0  0  0  0  0  0  0  0  0  0  0
  -31.3991  -20.7447   24.0895 O   0  0  0  0  0  0  0  0  0  0  0  0
  -23.1604  -12.0817   21.2969 O   0  0  0  0  0  0  0  0  0  0  0  0
  -29.2918  -28.6115   23.4083 O   0  0  0  0  0  0  0  0  0  1  0  0
  -22.6887   -6.6132   20.7708 F   0  0  0  0  0  0  0  0  0  0  0  0
  -22.0432  -10.5541   23.3120 F   0  0  0  0  0  0  0  0  0  0  0  0
  1  2  1  0  0  0  0
  1  6  2  0  0  0  0
  2  7  2  0  0  0  0
  3  9  2  0  0  0  0
  3 10  1  0  0  0  0
  4 11  2  0  0  0  0
  4 19  1  0  0  0  0
  5 12  1  0  0  0  0
  5 19  2  0  0  0  0
  6 21  1  0  0  0  0
  7 23  1  0  0  0  0
  8 13  2  0  0  0  0
  8 22  1  0  0  0  0
  9 25  1  0  0  0  0
 10 26  2  0  0  0  0
 11 27  1  0  0  0  0
 12 27  2  0  0  0  0
 13 28  1  0  0  0  0
 14 15  2  0  0  0  0
 14 29  1  0  0  0  0
 15 30  1  0  0  0  0
 16 24  1  0  0  0  0
 16 28  2  0  0  0  0
 17 25  2  0  0  0  0
 17 26  1  0  0  0  0
 18 30  2  0  0  0  0
 18 31  1  0  0  0  0
 19 32  1  0  0  0  0
 20 32  1  0  0  0  0
 20 33  2  0  0  0  0
 20 34  1  0  0  0  0
 21 23  2  0  0  0  0
 21 39  1  0  0  0  0
 22 24  2  0  0  0  0
 22 40  1  0  0  0  0
 23 48  1  0  0  0  0
 24 41  1  0  0  0  0
 25 58  1  0  0  0  0
 26 71  1  0  0  0  0
 27 80  1  0  0  0  0
 28 81  1  0  0  0  0
 29 31  2  0  0  0  0
 29 80  1  0  0  0  0
 30 82  1  0  0  0  0
 31 83  1  0  0  0  0
 32 65  2  0  0  0  0
 33 66  1  0  0  0  0
 33 69  1  0  0  0  0
 34 70  1  0  0  0  0
 34 75  2  0  0  0  0
 35 49  1  0  0  0  0
 35 72  1  0  0  0  0
 35 76  2  0  0  0  0
 36 61  1  0  0  0  0
 36 67  1  0  0  0  0
 36 77  2  0  0  0  0
 37 62  1  0  0  0  0
 37 73  1  0  0  0  0
 37 78  2  0  0  0  0
 38 68  1  0  0  0  0
 38 71  1  0  0  0  0
 38 79  2  0  0  0  0
 39 42  1  0  0  0  0
 40 49  1  0  0  0  0
 41 67  1  0  0  0  0
 42 44  1  0  0  0  0
 43 45  1  0  0  0  0
 43 46  1  0  0  0  0
 44 48  1  0  0  0  0
 45 50  1  0  0  0  0
 46 68  1  0  0  0  0
 47 50  1  0  0  0  0
 47 68  1  0  0  0  0
 48 72  1  0  0  0  0
 49 67  1  0  0  0  0
 50 66  1  0  0  0  0
 51 62  1  0  0  0  0
 52 63  1  0  0  0  0
 53 63  1  0  0  0  0
 54 63  1  0  0  0  0
 55 64  1  0  0  0  0
 56 64  1  0  0  0  0
 57 74  1  0  0  0  0
 58 59  1  0  0  0  0
 59 64  1  0  0  0  0
 60 64  1  0  0  0  0
 60 81  1  0  0  0  0
 61 63  1  0  0  0  0
 61 73  1  0  0  0  0
 62 74  1  0  0  0  0
 65 66  1  0  0  0  0
M  CHG  1  74   1
M  ISO  4  38 100  60 101  71 100  81 101
M  END
> <Batch ID>
0135

> <Smiles>
CNC(C)C(=O)NC(C(=O)N1Cc2cc([101O:1][101CH2:1]C(C)(C)CCc3cccc([100NH:0][100C:0](=O)N4CCCC(n5nc(-c6ccc(Oc7ccc(F)cc7F)cc6)c(C(N)=O)c5N)C4)c3)ccc2CC1C(=O)NC1CCCc2ccccc21)C(C)(C)C

> <Shape>
0.251

> <Color>
0.072

> <Negative vol penalty>
0.000

$$$$

  -OEChem-04052302363D

 88 96  0     1  0  0  0  0  0999 V2000
  -37.1853  -20.9032    9.8641 C   0  0  0  0  0  0  0  0  0  0  0  0
  -37.0521  -21.1020   11.2346 C   0  0  0  0  0  0  0  0  0  0  0  0
  -23.0702   -9.8914   19.9277 C   0  0  0  0  0  0  0  0  0  0  0  0
  -23.8393   -9.8689   22.2179 C   0  0  0  0  0  0  0  0  0  0  0  0
  -36.2104  -21.3870    8.9927 C   0  0  0  0  0  0  0  0  0  0  0  0
  -35.9443  -21.7856   11.7344 C   0  0  0  0  0  0  0  0  0  0  0  0
  -33.9155  -19.5059   15.7756 C   0  0  0  0  0  0  0  0  0  0  0  0
  -22.3231   -8.7382   20.1672 C   0  0  0  0  0  0  0  0  0  0  0  0
  -23.0921   -8.7157   22.4575 C   0  0  0  0  0  0  0  0  0  0  0  0
  -34.5646  -19.6794   16.9972 C   0  0  0  0  0  0  0  0  0  0  0  0
  -21.1023   -5.9705   23.7702 C   0  0  0  0  0  0  0  0  0  0  0  0
  -20.3506   -5.9161   24.9438 C   0  0  0  0  0  0  0  0  0  0  0  0
  -32.9556  -21.3707   17.6052 C   0  0  0  0  0  0  0  0  0  0  0  0
  -31.9350  -18.2799   24.2445 C   0  0  0  0  0  0  0  0  0  0  0  0
  -32.0943  -16.5529   22.5624 C   0  0  0  0  0  0  0  0  0  0  0  0
  -19.1103   -7.8663   24.2399 C   0  0  0  0  0  0  0  0  0  0  0  0
  -23.8284  -10.4568   20.9530 C   0  0  0  0  0  0  0  0  0  0  0  0
  -24.1791  -12.9819   20.8609 C   0  0  0  0  0  0  0  0  0  0  0  0
  -35.0852  -22.0685    9.4828 C   0  0  0  0  0  0  0  0  0  0  0  0
  -32.7860  -20.2726   15.4546 C   0  0  0  0  0  0  0  0  0  0  0  0
  -34.9541  -22.2801   10.8686 C   0  0  0  0  0  0  0  0  0  0  0  0
  -32.2924  -21.2033   16.3799 C   0  0  0  0  0  0  0  0  0  0  0  0
  -30.5469  -18.2851   24.1076 C   0  0  0  0  0  0  0  0  0  0  0  0
  -29.9325  -17.4242   23.1982 C   0  0  0  0  0  0  0  0  0  0  0  0
  -30.7062  -16.5581   22.4256 C   0  0  0  0  0  0  0  0  0  0  0  0
  -22.3340   -8.1503   21.4321 C   0  0  0  0  0  0  0  0  0  0  0  0
  -34.0864  -20.6139   17.9110 C   0  0  0  0  0  0  0  0  0  0  0  0
  -20.8581   -6.9729   22.8314 C   0  0  0  0  0  0  0  0  0  0  0  0
  -32.7087  -17.4138   23.4719 C   0  0  0  0  0  0  0  0  0  0  0  0
  -19.3546   -6.8640   25.1787 C   0  0  0  0  0  0  0  0  0  0  0  0
  -19.8621   -7.9208   23.0662 C   0  0  0  0  0  0  0  0  0  0  0  0
  -24.6008  -11.6477   20.7060 C   0  0  0  0  0  0  0  0  0  0  0  0
  -25.2726  -13.7315   20.5020 C   0  0  0  0  0  0  0  0  0  0  0  0
  -22.9122  -13.4974   21.2909 C   0  0  0  0  0  0  0  0  0  0  0  0
  -32.0808  -22.3880   13.1893 C   0  0  0  0  0  0  0  0  0  0  0  0
  -35.4061  -19.7256   21.1712 C   0  0  0  0  0  0  0  0  0  0  0  0
  -29.1199  -22.2255   14.5041 C   0  0  0  0  0  0  0  0  0  0  0  0
  -27.1973  -21.5268   17.2358 C   0  0  0  0  0  0  0  0  0  0  0  0
  -30.7433  -14.7549   20.6667 C   0  0  0  0  0  0  0  0  0  0  0  0
  -34.0813  -22.6143    8.4985 C   0  0  0  0  0  0  0  0  0  0  0  0
  -32.0814  -20.0546   14.1437 C   0  0  0  0  0  0  0  0  0  0  0  0
  -31.0716  -22.0369   16.0918 C   0  0  0  0  0  0  0  0  0  0  0  0
  -32.7500  -23.0010    9.1374 C   0  0  0  0  0  0  0  0  0  0  0  0
  -29.6105  -12.3729   18.2751 C   0  0  0  0  0  0  0  0  0  0  0  0
  -32.9832  -23.8127   10.4076 C   0  0  0  0  0  0  0  0  0  0  0  0
  -28.1715  -12.0816   18.7071 C   0  0  0  0  0  0  0  0  0  0  0  0
  -30.5312  -12.5844   19.4756 C   0  0  0  0  0  0  0  0  0  0  0  0
  -28.6325  -13.2997   20.8729 C   0  0  0  0  0  0  0  0  0  0  0  0
  -33.7542  -22.9952   11.4510 C   0  0  1  0  0  0  0  0  0  0  0  0
  -31.2440  -21.2533   13.7089 C   0  0  1  0  0  0  0  0  0  0  0  0
  -27.6543  -13.1437   19.6971 C   0  0  2  0  0  0  0  0  0  0  0  0
  -29.5969  -18.7310   26.3847 C   0  0  0  0  0  0  0  0  0  0  0  0
  -27.9873  -18.1709   21.8035 C   0  0  0  0  0  0  0  0  0  0  0  0
  -24.8128  -21.5246   18.0181 C   0  0  0  0  0  0  0  0  0  0  0  0
  -29.2044  -25.2645   14.7627 C   0  0  0  0  0  0  0  0  0  0  0  0
  -27.2886  -25.1116   16.3673 C   0  0  0  0  0  0  0  0  0  0  0  0
  -27.0045  -24.3422   14.0114 C   0  0  0  0  0  0  0  0  0  0  0  0
  -27.2475  -18.6130   17.7514 C   0  0  0  0  0  0  0  0  0  0  0  0
  -29.7418  -19.2220   24.9475 C   0  0  0  0  0  0  0  0  0  0  0  0
  -28.4426  -17.4322   23.0570 C   0  0  0  0  0  0  0  0  0  0  0  0
  -36.1014  -18.5718   21.8769 C   0  0  0  0  0  0  0  0  0  0  0  0
  -35.3814  -19.6496   19.6571 C   0  0  0  0  0  0  0  0  0  1  0  0
  -36.0903  -18.6838   23.3981 C   0  0  0  0  0  0  0  0  0  0  0  0
  -34.6831  -18.6375   23.9820 C   0  0  0  0  0  0  0  0  0  0  0  0
  -28.3978  -22.9617   15.6067 C   0  0  1  0  0  0  0  0  0  0  0  0
  -25.9307  -20.7048   17.3926 C   0  0  2  0  0  0  0  0  0  0  0  0
  -27.9980  -24.4058   15.1919 C   0  0  0  0  0  0  0  0  0  0  0  0
  -25.8637  -11.5521   20.2815 N   0  0  0  0  0  0  0  0  0  0  0  0
  -26.2448  -12.8357   20.1666 N   0  0  0  0  0  0  0  0  0  0  0  0
  -30.4212  -21.7915   14.7940 N   0  0  0  0  0  0  0  0  0  0  0  0
  -29.9796  -13.6070   20.3672 N   0  0  0  0  0  0  0  0  0  0  0  0
  -25.4876  -15.0629   20.4436 N   0  0  0  0  0  0  0  0  0  0  0  0
  -21.8983  -12.5881   21.6217 N   0  0  0  0  0  0  0  0  0  0  0  0
  -30.1026  -15.6728   21.4984 N   0  0  0  0  0  0  0  0  0  0  0  0
  -32.8728  -22.0537   12.1075 N   0  0  0  0  0  0  0  0  0  0  0  0
  -27.2722  -22.1174   15.9921 N   0  0  0  0  0  0  0  0  0  0  0  0
  -26.1861  -19.5199   18.2595 N   0  3  0  0  0  0  0  0  0  0  0  0
  -22.6808  -14.7282   21.3635 O   0  0  0  0  0  0  0  0  0  0  0  0
  -32.0119  -23.4860   13.7291 O   0  0  0  0  0  0  0  0  0  0  0  0
  -34.9157  -20.6755   21.7792 O   0  0  0  0  0  0  0  0  0  0  0  0
  -28.5476  -22.0359   13.4279 O   0  0  0  0  0  0  0  0  0  0  0  0
  -28.0345  -21.6372   18.1288 O   0  0  0  0  0  0  0  0  0  0  0  0
  -31.8711  -14.9249   20.1966 O   0  0  0  0  0  0  0  0  0  0  0  0
  -21.6048   -7.0251   21.6663 O   0  0  0  0  0  0  0  0  0  0  0  0
  -34.7185  -20.7857   19.1039 O   0  0  0  0  0  0  0  0  0  1  0  0
  -34.0726  -17.4100   23.6060 O   0  0  0  0  0  0  0  0  0  0  0  0
  -18.6317   -6.8107   26.3051 F   0  0  0  0  0  0  0  0  0  0  0  0
  -19.6221   -8.8853   22.1674 F   0  0  0  0  0  0  0  0  0  0  0  0
  1  2  1  0  0  0  0
  1  5  2  0  0  0  0
  2  6  2  0  0  0  0
  3  8  2  0  0  0  0
  3 17  1  0  0  0  0
  4  9  1  0  0  0  0
  4 17  2  0  0  0  0
  5 19  1  0  0  0  0
  6 21  1  0  0  0  0
  7 10  2  0  0  0  0
  7 20  1  0  0  0  0
  8 26  1  0  0  0  0
  9 26  2  0  0  0  0
 10 27  1  0  0  0  0
 11 12  2  0  0  0  0
 11 28  1  0  0  0  0
 12 30  1  0  0  0  0
 13 22  1  0  0  0  0
 13 27  2  0  0  0  0
 14 23  1  0  0  0  0
 14 29  2  0  0  0  0
 15 25  2  0  0  0  0
 15 29  1  0  0  0  0
 16 30  2  0  0  0  0
 16 31  1  0  0  0  0
 17 32  1  0  0  0  0
 18 32  1  0  0  0  0
 18 33  2  0  0  0  0
 18 34  1  0  0  0  0
 19 21  2  0  0  0  0
 19 40  1  0  0  0  0
 20 22  2  0  0  0  0
 20 41  1  0  0  0  0
 21 49  1  0  0  0  0
 22 42  1  0  0  0  0
 23 24  2  0  0  0  0
 23 59  1  0  0  0  0
 24 25  1  0  0  0  0
 24 60  1  0  0  0  0
 25 74  1  0  0  0  0
 26 84  1  0  0  0  0
 27 85  1  0  0  0  0
 28 31  2  0  0  0  0
 28 84  1  0  0  0  0
 29 86  1  0  0  0  0
 30 87  1  0  0  0  0
 31 88  1  0  0  0  0
 32 68  2  0  0  0  0
 33 69  1  0  0  0  0
 33 72  1  0  0  0  0
 34 73  1  0  0  0  0
 34 78  2  0  0  0  0
 35 50  1  0  0  0  0
 35 75  1  0  0  0  0
 35 79  2  0  0  0  0
 36 61  1  0  0  0  0
 36 62  1  0  0  0  0
 36 80  2  0  0  0  0
 37 65  1  0  0  0  0
 37 70  1  0  0  0  0
 37 81  2  0  0  0  0
 38 66  1  0  0  0  0
 38 76  1  0  0  0  0
 38 82  2  0  0  0  0
 39 71  1  0  0  0  0
 39 74  1  0  0  0  0
 39 83  2  0  0  0  0
 40 43  1  0  0  0  0
 41 50  1  0  0  0  0
 42 70  1  0  0  0  0
 43 45  1  0  0  0  0
 44 46  1  0  0  0  0
 44 47  1  0  0  0  0
 45 49  1  0  0  0  0
 46 51  1  0  0  0  0
 47 71  1  0  0  0  0
 48 51  1  0  0  0  0
 48 71  1  0  0  0  0
 49 75  1  0  0  0  0
 50 70  1  0  0  0  0
 51 69  1  0  0  0  0
 52 59  1  0  0  0  0
 53 60  1  0  0  0  0
 54 66  1  0  0  0  0
 55 67  1  0  0  0  0
 56 67  1  0  0  0  0
 57 67  1  0  0  0  0
 58 77  1  0  0  0  0
 61 63  1  0  0  0  0
 62 85  1  0  0  0  0
 63 64  1  0  0  0  0
 64 86  1  0  0  0  0
 65 67  1  0  0  0  0
 65 76  1  0  0  0  0
 66 77  1  0  0  0  0
 68 69  1  0  0  0  0
M  CHG  1  77   1
M  ISO  4  39 100  62 101  74 100  85 101
M  END
> <Batch ID>
0135

> <Smiles>
CCc1cc(OCCCC(=O)[101CH2:1][101O:1]c2ccc3c(c2)CN(C(=O)C(NC(=O)C(C)NC)C(C)(C)C)C(C(=O)NC2CCCc4ccccc42)C3)cc([100NH:0][100C:0](=O)N2CCCC(n3nc(-c4ccc(Oc5ccc(F)cc5F)cc4)c(C(N)=O)c3N)C2)c1CC

> <Shape>
0.169

> <Color>
0.185

> <Negative vol penalty>
0.000

$$$$

  -OEChem-04052302363D

 89 97  0     1  0  0  0  0  0999 V2000
  -17.3196  -30.8850   21.6857 C   0  0  0  0  0  0  0  0  0  0  0  0
  -18.6375  -31.3283   21.6383 C   0  0  0  0  0  0  0  0  0  0  0  0
  -25.7390  -13.9518   21.4907 C   0  0  0  0  0  0  0  0  0  0  0  0
  -24.8946  -14.7028   19.3553 C   0  0  0  0  0  0  0  0  0  0  0  0
  -17.0425  -29.5604   22.0213 C   0  0  0  0  0  0  0  0  0  0  0  0
  -19.6790  -30.4473   21.9275 C   0  0  0  0  0  0  0  0  0  0  0  0
  -26.4709  -29.0499   20.1292 C   0  0  0  0  0  0  0  0  0  0  0  0
  -31.9934  -24.3327   16.5388 C   0  0  0  0  0  0  0  0  0  0  0  0
  -31.2920  -23.2936   15.9273 C   0  0  0  0  0  0  0  0  0  0  0  0
  -24.7416  -12.9781   21.5427 C   0  0  0  0  0  0  0  0  0  0  0  0
  -23.8972  -13.7290   19.4072 C   0  0  0  0  0  0  0  0  0  0  0  0
  -27.7213  -28.8540   20.7138 C   0  0  0  0  0  0  0  0  0  0  0  0
  -24.1612   -9.9322   20.1941 C   0  0  0  0  0  0  0  0  0  0  0  0
  -24.5320   -8.6444   20.5810 C   0  0  0  0  0  0  0  0  0  0  0  0
  -27.1273  -26.5679   21.2037 C   0  0  0  0  0  0  0  0  0  0  0  0
  -30.8838  -23.8510   18.6302 C   0  0  0  0  0  0  0  0  0  0  0  0
  -23.0105   -8.7688   22.4536 C   0  0  0  0  0  0  0  0  0  0  0  0
  -25.8155  -14.8142   20.3970 C   0  0  0  0  0  0  0  0  0  0  0  0
  -28.1325  -15.6907   19.7881 C   0  0  0  0  0  0  0  0  0  0  0  0
  -18.0816  -28.6603   22.3053 C   0  0  0  0  0  0  0  0  0  0  0  0
  -25.5336  -28.0077   20.0872 C   0  0  0  0  0  0  0  0  0  0  0  0
  -19.4154  -29.1098   22.2685 C   0  0  0  0  0  0  0  0  0  0  0  0
  -25.8666  -26.7524   20.6158 C   0  0  0  0  0  0  0  0  0  0  0  0
  -31.7894  -24.6114   17.8903 C   0  0  0  0  0  0  0  0  0  0  0  0
  -30.3865  -22.5332   16.6672 C   0  0  0  0  0  0  0  0  0  0  0  0
  -30.1824  -22.8119   18.0187 C   0  0  0  0  0  0  0  0  0  0  0  0
  -23.8207  -12.8667   20.5010 C   0  0  0  0  0  0  0  0  0  0  0  0
  -28.0486  -27.6137   21.2537 C   0  0  0  0  0  0  0  0  0  0  0  0
  -23.2151  -10.6384   20.9370 C   0  0  0  0  0  0  0  0  0  0  0  0
  -23.9566   -8.0627   21.7106 C   0  0  0  0  0  0  0  0  0  0  0  0
  -22.6397  -10.0567   22.0667 C   0  0  0  0  0  0  0  0  0  0  0  0
  -26.8452  -15.8205   20.3430 C   0  0  0  0  0  0  0  0  0  0  0  0
  -28.7175  -16.9173   19.9872 C   0  0  0  0  0  0  0  0  0  0  0  0
  -28.7447  -14.5623   19.1497 C   0  0  0  0  0  0  0  0  0  0  0  0
  -22.6209  -27.5610   21.2789 C   0  0  0  0  0  0  0  0  0  0  0  0
  -22.7419  -24.8389   19.5188 C   0  0  0  0  0  0  0  0  0  0  0  0
  -24.6523  -22.4540   17.9991 C   0  0  0  0  0  0  0  0  0  0  0  0
  -28.5226  -22.4810   19.8847 C   0  0  0  0  0  0  0  0  0  0  0  0
  -17.7305  -27.2503   22.7092 C   0  0  0  0  0  0  0  0  0  0  0  0
  -24.1990  -28.2275   19.4292 C   0  0  0  0  0  0  0  0  0  0  0  0
  -24.9035  -25.5951   20.5778 C   0  0  0  0  0  0  0  0  0  0  0  0
  -18.9102  -26.2842   22.6362 C   0  0  0  0  0  0  0  0  0  0  0  0
  -27.2218  -20.8659   22.7789 C   0  0  0  0  0  0  0  0  0  0  0  0
  -20.1459  -26.9006   23.2841 C   0  0  0  0  0  0  0  0  0  0  0  0
  -27.1138  -19.3986   22.3576 C   0  0  0  0  0  0  0  0  0  0  0  0
  -26.8835  -21.8127   21.6288 C   0  0  0  0  0  0  0  0  0  0  0  0
  -27.5277  -20.1106   19.9683 C   0  0  0  0  0  0  0  0  0  0  0  0
  -20.5738  -28.1780   22.5515 C   0  0  1  0  0  0  0  0  0  0  0  0
  -23.1311  -27.2455   19.9013 C   0  0  1  0  0  0  0  0  0  0  0  0
  -27.9223  -19.1195   21.0754 C   0  0  2  0  0  0  0  0  0  0  0  0
  -29.6484  -21.4269   15.9858 C   0  0  0  0  0  0  0  0  0  0  0  0
  -30.7371  -28.8257   16.8669 C   0  0  0  0  0  0  0  0  0  0  0  0
  -24.4669  -20.3329   16.6709 C   0  0  0  0  0  0  0  0  0  0  0  0
  -31.9333  -27.2010   22.9920 C   0  0  0  0  0  0  0  0  0  0  0  0
  -22.0313  -23.3110   22.0626 C   0  0  0  0  0  0  0  0  0  0  0  0
  -22.7844  -21.2102   20.9279 C   0  0  0  0  0  0  0  0  0  0  0  0
  -20.8647  -22.5064   20.0020 C   0  0  0  0  0  0  0  0  0  0  0  0
  -33.1764  -29.5122   21.2610 C   0  0  0  0  0  0  0  0  0  0  0  0
  -34.1827  -27.2558   20.9830 C   0  0  0  0  0  0  0  0  0  0  0  0
  -26.0494  -23.6478   15.6792 C   0  0  0  0  0  0  0  0  0  0  0  0
  -32.5497  -25.7369   18.5518 C   0  0  0  0  0  0  0  0  0  0  0  0
  -31.4981  -27.5153   17.0254 C   0  0  0  0  0  0  0  0  0  0  0  0
  -32.6588  -28.2186   19.1869 C   0  0  0  0  0  0  0  0  0  0  0  0
  -30.3556  -28.1890   21.3086 C   0  0  0  0  0  0  0  0  0  1  0  0
  -23.2085  -23.4249   19.7675 C   0  0  1  0  0  0  0  0  0  0  0  0
  -24.5888  -21.8475   16.6089 C   0  0  2  0  0  0  0  0  0  0  0  0
  -31.6820  -27.4241   21.4867 C   0  0  1  0  0  0  0  0  0  0  0  0
  -31.8296  -27.1072   18.4850 C   0  0  2  0  0  0  0  0  0  0  0  0
  -22.2399  -22.6353   20.6926 C   0  0  0  0  0  0  0  0  0  0  0  0
  -32.9035  -28.0821   20.7321 C   0  0  0  0  0  0  0  0  0  0  0  0
  -26.6249  -17.0338   20.8562 N   0  0  0  0  0  0  0  0  0  0  0  0
  -27.7817  -17.6776   20.6247 N   0  0  0  0  0  0  0  0  0  0  0  0
  -23.6088  -25.8616   19.9295 N   0  0  0  0  0  0  0  0  0  0  0  0
  -27.6908  -21.4913   20.4498 N   0  0  0  0  0  0  0  0  0  0  0  0
  -29.9360  -17.4090   19.6775 N   0  0  0  0  0  0  0  0  0  0  0  0
  -28.0025  -13.3796   19.0281 N   0  0  0  0  0  0  0  0  0  0  0  0
  -29.2674  -22.0504   18.7872 N   0  0  0  0  0  0  0  0  0  0  0  0
  -21.2702  -27.8489   21.3263 N   0  0  0  0  0  0  0  0  0  0  0  0
  -23.4036  -22.8223   18.4532 N   0  0  0  0  0  0  0  0  0  0  0  0
  -25.8177  -22.1890   15.8381 N   0  3  0  0  0  0  0  0  0  0  0  0
  -29.9209  -14.5964   18.7151 O   0  0  0  0  0  0  0  0  0  0  0  0
  -23.3950  -27.5430   22.2287 O   0  0  0  0  0  0  0  0  0  0  0  0
  -21.6519  -25.0290   18.9736 O   0  0  0  0  0  0  0  0  0  0  0  0
  -25.7040  -22.5843   18.6215 O   0  0  0  0  0  0  0  0  0  0  0  0
  -28.5912  -23.6185   20.3575 O   0  0  0  0  0  0  0  0  0  0  0  0
  -22.8475  -11.9165   20.5512 O   0  0  0  0  0  0  0  0  0  0  0  0
  -29.2756  -27.4187   21.8289 O   0  0  0  0  0  0  0  0  0  1  0  0
  -24.3117   -6.8254   22.0811 F   0  0  0  0  0  0  0  0  0  0  0  0
  -21.7294  -10.7297   22.7837 F   0  0  0  0  0  0  0  0  0  0  0  0
  1  2  1  0  0  0  0
  1  5  2  0  0  0  0
  2  6  2  0  0  0  0
  3 10  2  0  0  0  0
  3 18  1  0  0  0  0
  4 11  1  0  0  0  0
  4 18  2  0  0  0  0
  5 20  1  0  0  0  0
  6 22  1  0  0  0  0
  7 12  2  0  0  0  0
  7 21  1  0  0  0  0
  8  9  2  0  0  0  0
  8 24  1  0  0  0  0
  9 25  1  0  0  0  0
 10 27  1  0  0  0  0
 11 27  2  0  0  0  0
 12 28  1  0  0  0  0
 13 14  2  0  0  0  0
 13 29  1  0  0  0  0
 14 30  1  0  0  0  0
 15 23  1  0  0  0  0
 15 28  2  0  0  0  0
 16 24  2  0  0  0  0
 16 26  1  0  0  0  0
 17 30  2  0  0  0  0
 17 31  1  0  0  0  0
 18 32  1  0  0  0  0
 19 32  1  0  0  0  0
 19 33  2  0  0  0  0
 19 34  1  0  0  0  0
 20 22  2  0  0  0  0
 20 39  1  0  0  0  0
 21 23  2  0  0  0  0
 21 40  1  0  0  0  0
 22 48  1  0  0  0  0
 23 41  1  0  0  0  0
 24 61  1  0  0  0  0
 25 26  2  0  0  0  0
 25 51  1  0  0  0  0
 26 77  1  0  0  0  0
 27 86  1  0  0  0  0
 28 87  1  0  0  0  0
 29 31  2  0  0  0  0
 29 86  1  0  0  0  0
 30 88  1  0  0  0  0
 31 89  1  0  0  0  0
 32 71  2  0  0  0  0
 33 72  1  0  0  0  0
 33 75  1  0  0  0  0
 34 76  1  0  0  0  0
 34 81  2  0  0  0  0
 35 49  1  0  0  0  0
 35 78  1  0  0  0  0
 35 82  2  0  0  0  0
 36 65  1  0  0  0  0
 36 73  1  0  0  0  0
 36 83  2  0  0  0  0
 37 66  1  0  0  0  0
 37 79  1  0  0  0  0
 37 84  2  0  0  0  0
 38 74  1  0  0  0  0
 38 77  1  0  0  0  0
 38 85  2  0  0  0  0
 39 42  1  0  0  0  0
 40 49  1  0  0  0  0
 41 73  1  0  0  0  0
 42 44  1  0  0  0  0
 43 45  1  0  0  0  0
 43 46  1  0  0  0  0
 44 48  1  0  0  0  0
 45 50  1  0  0  0  0
 46 74  1  0  0  0  0
 47 50  1  0  0  0  0
 47 74  1  0  0  0  0
 48 78  1  0  0  0  0
 49 73  1  0  0  0  0
 50 72  1  0  0  0  0
 52 62  1  0  0  0  0
 53 66  1  0  0  0  0
 54 67  1  0  0  0  0
 55 69  1  0  0  0  0
 56 69  1  0  0  0  0
 57 69  1  0  0  0  0
 58 70  1  0  0  0  0
 59 70  1  0  0  0  0
 60 80  1  0  0  0  0
 61 68  1  0  0  0  0
 62 68  1  0  0  0  0
 63 68  1  0  0  0  0
 63 70  1  0  0  0  0
 64 67  1  0  0  0  0
 64 87  1  0  0  0  0
 65 69  1  0  0  0  0
 65 79  1  0  0  0  0
 66 80  1  0  0  0  0
 67 70  1  0  0  0  0
 71 72  1  0  0  0  0
M  CHG  1  80   1
M  ISO  4  38 100  64 101  77 100  87 101
M  END
> <Batch ID>
0135

> <Smiles>
CCC(Cc1ccc(C)c([100NH:0][100C:0](=O)N2CCCC(n3nc(-c4ccc(Oc5ccc(F)cc5F)cc4)c(C(N)=O)c3N)C2)c1)CC(C)(C)C(C)[101CH2:1][101O:1]c1ccc2c(c1)CN(C(=O)C(NC(=O)C(C)NC)C(C)(C)C)C(C(=O)NC1CCCc3ccccc31)C2

> <Shape>
0.247

> <Color>
0.057

> <Negative vol penalty>
0.000

$$$$

  -OEChem-04052302363D

 85 93  0     1  0  0  0  0  0999 V2000
  -32.4956  -32.7817   20.8132 C   0  0  0  0  0  0  0  0  0  0  0  0
  -32.0667  -31.6925   20.0615 C   0  0  0  0  0  0  0  0  0  0  0  0
  -23.1275   -9.7819   20.8442 C   0  0  0  0  0  0  0  0  0  0  0  0
  -23.8162  -10.4587   23.0589 C   0  0  0  0  0  0  0  0  0  0  0  0
  -29.6903  -17.1434   18.9775 C   0  0  0  0  0  0  0  0  0  0  0  0
  -31.9909  -32.9832   22.0972 C   0  0  0  0  0  0  0  0  0  0  0  0
  -31.1337  -30.8034   20.5938 C   0  0  0  0  0  0  0  0  0  0  0  0
  -26.7317  -27.8264   17.5499 C   0  0  0  0  0  0  0  0  0  0  0  0
  -22.3967   -8.7283   21.3934 C   0  0  0  0  0  0  0  0  0  0  0  0
  -23.0854   -9.4051   23.6081 C   0  0  0  0  0  0  0  0  0  0  0  0
  -28.9955  -18.0535   18.1809 C   0  0  0  0  0  0  0  0  0  0  0  0
  -26.6531  -26.5291   17.0451 C   0  0  0  0  0  0  0  0  0  0  0  0
  -19.8548   -8.7285   24.3333 C   0  0  0  0  0  0  0  0  0  0  0  0
  -19.0629   -9.0030   25.4483 C   0  0  0  0  0  0  0  0  0  0  0  0
  -25.4941  -25.8289   19.0415 C   0  0  0  0  0  0  0  0  0  0  0  0
  -27.5061  -18.5286   20.0229 C   0  0  0  0  0  0  0  0  0  0  0  0
  -20.3150   -7.3865   26.7353 C   0  0  0  0  0  0  0  0  0  0  0  0
  -23.8373  -10.6470   21.6770 C   0  0  0  0  0  0  0  0  0  0  0  0
  -29.2929  -16.9258   20.2968 C   0  0  0  0  0  0  0  0  0  0  0  0
  -24.1381  -13.0423   20.8524 C   0  0  0  0  0  0  0  0  0  0  0  0
  -31.0440  -32.1015   22.6419 C   0  0  0  0  0  0  0  0  0  0  0  0
  -26.2009  -28.1327   18.8112 C   0  0  0  0  0  0  0  0  0  0  0  0
  -30.6169  -30.9925   21.8869 C   0  0  0  0  0  0  0  0  0  0  0  0
  -25.5650  -27.1314   19.5589 C   0  0  0  0  0  0  0  0  0  0  0  0
  -28.2008  -17.6185   20.8195 C   0  0  0  0  0  0  0  0  0  0  0  0
  -22.3756   -8.5400   22.7753 C   0  0  0  0  0  0  0  0  0  0  0  0
  -26.0368  -25.5295   17.7922 C   0  0  0  0  0  0  0  0  0  0  0  0
  -27.9034  -18.7461   18.7036 C   0  0  0  0  0  0  0  0  0  0  0  0
  -20.8767   -7.7830   24.4192 C   0  0  0  0  0  0  0  0  0  0  0  0
  -19.2931   -8.3320   26.6493 C   0  0  0  0  0  0  0  0  0  0  0  0
  -21.1068   -7.1120   25.6203 C   0  0  0  0  0  0  0  0  0  0  0  0
  -24.5928  -11.7352   21.1102 C   0  0  0  0  0  0  0  0  0  0  0  0
  -25.2276  -13.6857   20.3180 C   0  0  0  0  0  0  0  0  0  0  0  0
  -30.0359  -15.9692   21.1058 C   0  0  0  0  0  0  0  0  0  0  0  0
  -22.8464  -13.6230   21.0762 C   0  0  0  0  0  0  0  0  0  0  0  0
  -30.7065  -14.7998   20.4924 C   0  0  0  0  0  0  0  0  0  0  0  0
  -27.4055  -29.1956   21.5539 C   0  0  0  0  0  0  0  0  0  0  0  0
  -26.5721  -21.9480   17.6615 C   0  0  0  0  0  0  0  0  0  0  0  0
  -24.2845  -29.3087   22.4309 C   0  0  0  0  0  0  0  0  0  0  0  0
  -21.1027  -28.1632   21.9716 C   0  0  0  0  0  0  0  0  0  0  0  0
  -30.5626  -32.3339   24.0522 C   0  0  0  0  0  0  0  0  0  0  0  0
  -26.2701  -29.5428   19.3299 C   0  0  0  0  0  0  0  0  0  0  0  0
  -24.9613  -27.4130   20.9097 C   0  0  0  0  0  0  0  0  0  0  0  0
  -29.2963  -31.5554   24.3996 C   0  0  0  0  0  0  0  0  0  0  0  0
  -29.6549  -11.8864   18.6862 C   0  0  0  0  0  0  0  0  0  0  0  0
  -29.4185  -30.1055   23.9418 C   0  0  0  0  0  0  0  0  0  0  0  0
  -28.2194  -11.6730   19.1654 C   0  0  0  0  0  0  0  0  0  0  0  0
  -30.5380  -12.4421   19.7987 C   0  0  0  0  0  0  0  0  0  0  0  0
  -28.5767  -13.4940   20.8922 C   0  0  0  0  0  0  0  0  0  0  0  0
  -29.5875  -30.0198   22.4201 C   0  0  1  0  0  0  0  0  0  0  0  0
  -26.1510  -29.6273   20.8485 C   0  0  1  0  0  0  0  0  0  0  0  0
  -27.6481  -12.9594   19.7879 C   0  0  2  0  0  0  0  0  0  0  0  0
  -28.1886  -18.5410   23.1509 C   0  0  0  0  0  0  0  0  0  0  0  0
  -18.7707  -28.4142   22.8638 C   0  0  0  0  0  0  0  0  0  0  0  0
  -25.0361  -27.6250   24.8620 C   0  0  0  0  0  0  0  0  0  0  0  0
  -22.6044  -27.1183   25.1757 C   0  0  0  0  0  0  0  0  0  0  0  0
  -23.4166  -29.4717   25.3323 C   0  0  0  0  0  0  0  0  0  0  0  0
  -20.0830  -29.1191   19.3629 C   0  0  0  0  0  0  0  0  0  0  0  0
  -27.7550  -17.4052   22.2294 C   0  0  0  0  0  0  0  0  0  0  0  0
  -25.9523  -23.1978   18.2523 C   0  0  0  0  0  0  0  0  0  1  0  0
  -26.6078  -20.7359   18.5694 C   0  0  0  0  0  0  0  0  0  0  0  0
  -23.3186  -28.3421   23.0726 C   0  0  1  0  0  0  0  0  0  0  0  0
  -19.7794  -28.8939   21.8318 C   0  0  2  0  0  0  0  0  0  0  0  0
  -23.6069  -28.1332   24.5861 C   0  0  0  0  0  0  0  0  0  0  0  0
  -25.8715  -11.5571   20.7676 N   0  0  0  0  0  0  0  0  0  0  0  0
  -30.1621  -16.0738   22.3999 N   0  0  0  0  0  0  0  0  0  0  0  0
  -26.2295  -12.7607   20.2889 N   0  0  0  0  0  0  0  0  0  0  0  0
  -29.9493  -13.6412   20.3918 N   0  0  0  0  0  0  0  0  0  0  0  0
  -25.0599  -28.8058   21.3765 N   0  0  0  0  0  0  0  0  0  0  0  0
  -25.4166  -14.9467   19.8746 N   0  0  0  0  0  0  0  0  0  0  0  0
  -21.8408  -12.8212   21.6331 N   0  0  0  0  0  0  0  0  0  0  0  0
  -28.3153  -30.2153   21.7585 N   0  0  0  0  0  0  0  0  0  0  0  0
  -21.9814  -28.8488   22.7834 N   0  0  0  0  0  0  0  0  0  0  0  0
  -19.2055  -28.6711   20.4747 N   0  3  0  0  0  0  0  0  0  0  0  0
  -22.5869  -14.8128   20.7755 O   0  0  0  0  0  0  0  0  0  0  0  0
  -31.8641  -14.9816   20.1382 O   0  0  0  0  0  0  0  0  0  0  0  0
  -27.5374  -28.0243   21.8893 O   0  0  0  0  0  0  0  0  0  0  0  0
  -27.0190  -21.9196   16.5158 O   0  0  0  0  0  0  0  0  0  0  0  0
  -24.3435  -30.4691   22.8450 O   0  0  0  0  0  0  0  0  0  0  0  0
  -21.3324  -27.0897   21.4191 O   0  0  0  0  0  0  0  0  0  0  0  0
  -21.6624   -7.5122   23.3116 O   0  0  0  0  0  0  0  0  0  0  0  0
  -25.9593  -24.2624   17.3021 O   0  0  0  0  0  0  0  0  0  1  0  0
  -27.2166  -19.6411   17.9178 O   0  0  0  0  0  0  0  0  0  0  0  0
  -18.5336   -8.5968   27.7204 F   0  0  0  0  0  0  0  0  0  0  0  0
  -22.0879   -6.2035   25.7093 F   0  0  0  0  0  0  0  0  0  0  0  0
  1  2  1  0  0  0  0
  1  6  2  0  0  0  0
  2  7  2  0  0  0  0
  3  9  2  0  0  0  0
  3 18  1  0  0  0  0
  4 10  1  0  0  0  0
  4 18  2  0  0  0  0
  5 11  2  0  0  0  0
  5 19  1  0  0  0  0
  6 21  1  0  0  0  0
  7 23  1  0  0  0  0
  8 12  2  0  0  0  0
  8 22  1  0  0  0  0
  9 26  1  0  0  0  0
 10 26  2  0  0  0  0
 11 28  1  0  0  0  0
 12 27  1  0  0  0  0
 13 14  2  0  0  0  0
 13 29  1  0  0  0  0
 14 30  1  0  0  0  0
 15 24  1  0  0  0  0
 15 27  2  0  0  0  0
 16 25  1  0  0  0  0
 16 28  2  0  0  0  0
 17 30  2  0  0  0  0
 17 31  1  0  0  0  0
 18 32  1  0  0  0  0
 19 25  2  0  0  0  0
 19 34  1  0  0  0  0
 20 32  1  0  0  0  0
 20 33  2  0  0  0  0
 20 35  1  0  0  0  0
 21 23  2  0  0  0  0
 21 41  1  0  0  0  0
 22 24  2  0  0  0  0
 22 42  1  0  0  0  0
 23 50  1  0  0  0  0
 24 43  1  0  0  0  0
 25 59  1  0  0  0  0
 26 81  1  0  0  0  0
 27 82  1  0  0  0  0
 28 83  1  0  0  0  0
 29 31  2  0  0  0  0
 29 81  1  0  0  0  0
 30 84  1  0  0  0  0
 31 85  1  0  0  0  0
 32 65  2  0  0  0  0
 33 67  1  0  0  0  0
 33 70  1  0  0  0  0
 34 36  1  0  0  0  0
 34 66  2  0  0  0  0
 35 71  1  0  0  0  0
 35 75  2  0  0  0  0
 36 68  1  0  0  0  0
 36 76  2  0  0  0  0
 37 51  1  0  0  0  0
 37 72  1  0  0  0  0
 37 77  2  0  0  0  0
 38 60  1  0  0  0  0
 38 61  1  0  0  0  0
 38 78  2  0  0  0  0
 39 62  1  0  0  0  0
 39 69  1  0  0  0  0
 39 79  2  0  0  0  0
 40 63  1  0  0  0  0
 40 73  1  0  0  0  0
 40 80  2  0  0  0  0
 41 44  1  0  0  0  0
 42 51  1  0  0  0  0
 43 69  1  0  0  0  0
 44 46  1  0  0  0  0
 45 47  1  0  0  0  0
 45 48  1  0  0  0  0
 46 50  1  0  0  0  0
 47 52  1  0  0  0  0
 48 68  1  0  0  0  0
 49 52  1  0  0  0  0
 49 68  1  0  0  0  0
 50 72  1  0  0  0  0
 51 69  1  0  0  0  0
 52 67  1  0  0  0  0
 53 59  1  0  0  0  0
 54 63  1  0  0  0  0
 55 64  1  0  0  0  0
 56 64  1  0  0  0  0
 57 64  1  0  0  0  0
 58 74  1  0  0  0  0
 60 82  1  0  0  0  0
 61 83  1  0  0  0  0
 62 64  1  0  0  0  0
 62 73  1  0  0  0  0
 63 74  1  0  0  0  0
 65 67  1  0  0  0  0
M  CHG  1  74   1
M  ISO  4  34 100  36 100  60 101  82 101
M  END
> <Batch ID>
0135

> <Smiles>
CCc1cc(OCC(=O)[101CH2:1][101O:1]c2ccc3c(c2)CN(C(=O)C(NC(=O)C(C)NC)C(C)(C)C)C(C(=O)NC2CCCc4ccccc42)C3)ccc1[100C:0](=N)[100C:0](=O)N1CCCC(n2nc(-c3ccc(Oc4ccc(F)cc4F)cc3)c(C(N)=O)c2N)C1

> <Shape>
0.277

> <Color>
0.175

> <Negative vol penalty>
0.000

$$$$

  -OEChem-04052302363D

 86 94  0     1  0  0  0  0  0999 V2000
  -28.6681  -26.2312   27.5437 C   0  0  0  0  0  0  0  0  0  0  0  0
  -29.7268  -25.3972   27.1987 C   0  0  0  0  0  0  0  0  0  0  0  0
  -23.0664   -9.8680   19.9442 C   0  0  0  0  0  0  0  0  0  0  0  0
  -23.8248   -9.8749   22.2381 C   0  0  0  0  0  0  0  0  0  0  0  0
  -27.4951  -26.2149   26.7902 C   0  0  0  0  0  0  0  0  0  0  0  0
  -29.6127  -24.5456   26.1004 C   0  0  0  0  0  0  0  0  0  0  0  0
  -34.0696  -22.9087   22.2324 C   0  0  0  0  0  0  0  0  0  0  0  0
  -22.3164   -8.7192   20.1956 C   0  0  0  0  0  0  0  0  0  0  0  0
  -23.0747   -8.7261   22.4895 C   0  0  0  0  0  0  0  0  0  0  0  0
  -34.8757  -21.7737   22.1564 C   0  0  0  0  0  0  0  0  0  0  0  0
  -19.8420   -7.9462   23.0912 C   0  0  0  0  0  0  0  0  0  0  0  0
  -19.0841   -7.9122   24.2616 C   0  0  0  0  0  0  0  0  0  0  0  0
  -33.3666  -20.8178   20.5353 C   0  0  0  0  0  0  0  0  0  0  0  0
  -31.9242  -18.2999   24.1903 C   0  0  0  0  0  0  0  0  0  0  0  0
  -32.0887  -16.5505   22.5321 C   0  0  0  0  0  0  0  0  0  0  0  0
  -20.3148   -5.9695   25.0022 C   0  0  0  0  0  0  0  0  0  0  0  0
  -23.8207  -10.4459   20.9655 C   0  0  0  0  0  0  0  0  0  0  0  0
  -24.1758  -12.9690   20.8414 C   0  0  0  0  0  0  0  0  0  0  0  0
  -27.3702  -25.3697   25.6764 C   0  0  0  0  0  0  0  0  0  0  0  0
  -32.8982  -23.0023   21.4672 C   0  0  0  0  0  0  0  0  0  0  0  0
  -28.4364  -24.5171   25.3320 C   0  0  0  0  0  0  0  0  0  0  0  0
  -32.5488  -21.9561   20.6014 C   0  0  0  0  0  0  0  0  0  0  0  0
  -30.5367  -18.3054   24.0469 C   0  0  0  0  0  0  0  0  0  0  0  0
  -29.9252  -17.4334   23.1461 C   0  0  0  0  0  0  0  0  0  0  0  0
  -30.7012  -16.5559   22.3888 C   0  0  0  0  0  0  0  0  0  0  0  0
  -22.3205   -8.1483   21.4683 C   0  0  0  0  0  0  0  0  0  0  0  0
  -34.5228  -20.7268   21.3100 C   0  0  0  0  0  0  0  0  0  0  0  0
  -20.8363   -6.9918   22.8762 C   0  0  0  0  0  0  0  0  0  0  0  0
  -32.7002  -17.4225   23.4329 C   0  0  0  0  0  0  0  0  0  0  0  0
  -19.3205   -6.9239   25.2172 C   0  0  0  0  0  0  0  0  0  0  0  0
  -21.0727   -6.0035   23.8317 C   0  0  0  0  0  0  0  0  0  0  0  0
  -24.5962  -11.6323   20.7062 C   0  0  0  0  0  0  0  0  0  0  0  0
  -25.2721  -13.7121   20.4776 C   0  0  0  0  0  0  0  0  0  0  0  0
  -22.9078  -13.4922   21.2586 C   0  0  0  0  0  0  0  0  0  0  0  0
  -29.8017  -23.2768   22.1304 C   0  0  0  0  0  0  0  0  0  0  0  0
  -29.5410  -23.6100   18.9143 C   0  0  0  0  0  0  0  0  0  0  0  0
  -30.8649  -23.0232   15.8240 C   0  0  0  0  0  0  0  0  0  0  0  0
  -30.7436  -14.7294   20.6543 C   0  0  0  0  0  0  0  0  0  0  0  0
  -26.0651  -25.3529   24.9206 C   0  0  0  0  0  0  0  0  0  0  0  0
  -32.0536  -24.2447   21.5405 C   0  0  0  0  0  0  0  0  0  0  0  0
  -31.3121  -22.0161   19.7438 C   0  0  0  0  0  0  0  0  0  0  0  0
  -26.1647  -24.6926   23.5479 C   0  0  0  0  0  0  0  0  0  0  0  0
  -29.6182  -12.3175   18.2893 C   0  0  0  0  0  0  0  0  0  0  0  0
  -26.9239  -23.3731   23.6440 C   0  0  0  0  0  0  0  0  0  0  0  0
  -28.1767  -12.0342   18.7184 C   0  0  0  0  0  0  0  0  0  0  0  0
  -30.5336  -12.5435   19.4912 C   0  0  0  0  0  0  0  0  0  0  0  0
  -28.6296  -13.2803   20.8699 C   0  0  0  0  0  0  0  0  0  0  0  0
  -28.3600  -23.5972   24.1328 C   0  0  1  0  0  0  0  0  0  0  0  0
  -30.6112  -24.0134   21.1009 C   0  0  1  0  0  0  0  0  0  0  0  0
  -27.6566  -13.1101   19.6917 C   0  0  2  0  0  0  0  0  0  0  0  0
  -29.5769  -18.7831   26.3134 C   0  0  0  0  0  0  0  0  0  0  0  0
  -27.9877  -18.1644   21.7326 C   0  0  0  0  0  0  0  0  0  0  0  0
  -30.4047  -23.3818   13.3833 C   0  0  0  0  0  0  0  0  0  0  0  0
  -36.9747  -17.3202   23.7315 C   0  0  0  0  0  0  0  0  0  0  0  0
  -27.4859  -21.3554   18.9730 C   0  0  0  0  0  0  0  0  0  0  0  0
  -27.7768  -21.1197   16.4975 C   0  0  0  0  0  0  0  0  0  0  0  0
  -26.9079  -23.2545   17.4518 C   0  0  0  0  0  0  0  0  0  0  0  0
  -33.3149  -24.6478   15.4819 C   0  0  0  0  0  0  0  0  0  0  0  0
  -29.7292  -19.2546   24.8705 C   0  0  0  0  0  0  0  0  0  0  0  0
  -28.4360  -17.4417   22.9979 C   0  0  0  0  0  0  0  0  0  0  0  0
  -36.0381  -19.2578   22.4062 C   0  0  0  0  0  0  0  0  0  1  0  0
  -34.8247  -17.0578   22.4284 C   0  0  0  0  0  0  0  0  0  0  0  0
  -29.3477  -22.6642   17.7537 C   0  0  1  0  0  0  0  0  0  0  0  0
  -31.0777  -23.9356   14.6295 C   0  0  2  0  0  0  0  0  0  0  0  0
  -36.1967  -17.7364   22.4773 C   0  0  2  0  0  0  0  0  0  0  0  0
  -27.9019  -22.0962   17.6865 C   0  0  0  0  0  0  0  0  0  0  0  0
  -25.8608  -11.5291   20.2890 N   0  0  0  0  0  0  0  0  0  0  0  0
  -26.2445  -12.8105   20.1587 N   0  0  0  0  0  0  0  0  0  0  0  0
  -30.5155  -23.2491   19.8556 N   0  0  0  0  0  0  0  0  0  0  0  0
  -29.9795  -13.5787   20.3665 N   0  0  0  0  0  0  0  0  0  0  0  0
  -25.4895  -15.0424   20.4025 N   0  0  0  0  0  0  0  0  0  0  0  0
  -21.8909  -12.5889   21.5967 N   0  0  0  0  0  0  0  0  0  0  0  0
  -30.1005  -15.6592   21.4707 N   0  0  0  0  0  0  0  0  0  0  0  0
  -29.1878  -24.0982   23.0566 N   0  0  0  0  0  0  0  0  0  0  0  0
  -29.7590  -23.3941   16.5593 N   0  0  0  0  0  0  0  0  0  0  0  0
  -32.5331  -24.0900   14.3485 N   0  3  0  0  0  0  0  0  0  0  0  0
  -22.6779  -14.7241   21.3137 O   0  0  0  0  0  0  0  0  0  0  0  0
  -29.7376  -22.0538   22.0867 O   0  0  0  0  0  0  0  0  0  0  0  0
  -28.8577  -24.6349   18.9794 O   0  0  0  0  0  0  0  0  0  0  0  0
  -31.6035  -22.0741   16.0771 O   0  0  0  0  0  0  0  0  0  0  0  0
  -31.8739  -14.8914   20.1871 O   0  0  0  0  0  0  0  0  0  0  0  0
  -21.5885   -7.0274   21.7140 O   0  0  0  0  0  0  0  0  0  0  0  0
  -35.3074  -19.6175   21.2344 O   0  0  0  0  0  0  0  0  0  1  0  0
  -34.0634  -17.4184   23.5734 O   0  0  0  0  0  0  0  0  0  0  0  0
  -18.5936   -6.8923   26.3418 F   0  0  0  0  0  0  0  0  0  0  0  0
  -22.0274   -5.0847   23.6313 F   0  0  0  0  0  0  0  0  0  0  0  0
  1  2  1  0  0  0  0
  1  5  2  0  0  0  0
  2  6  2  0  0  0  0
  3  8  2  0  0  0  0
  3 17  1  0  0  0  0
  4  9  1  0  0  0  0
  4 17  2  0  0  0  0
  5 19  1  0  0  0  0
  6 21  1  0  0  0  0
  7 10  2  0  0  0  0
  7 20  1  0  0  0  0
  8 26  1  0  0  0  0
  9 26  2  0  0  0  0
 10 27  1  0  0  0  0
 11 12  2  0  0  0  0
 11 28  1  0  0  0  0
 12 30  1  0  0  0  0
 13 22  1  0  0  0  0
 13 27  2  0  0  0  0
 14 23  1  0  0  0  0
 14 29  2  0  0  0  0
 15 25  2  0  0  0  0
 15 29  1  0  0  0  0
 16 30  2  0  0  0  0
 16 31  1  0  0  0  0
 17 32  1  0  0  0  0
 18 32  1  0  0  0  0
 18 33  2  0  0  0  0
 18 34  1  0  0  0  0
 19 21  2  0  0  0  0
 19 39  1  0  0  0  0
 20 22  2  0  0  0  0
 20 40  1  0  0  0  0
 21 48  1  0  0  0  0
 22 41  1  0  0  0  0
 23 24  2  0  0  0  0
 23 59  1  0  0  0  0
 24 25  1  0  0  0  0
 24 60  1  0  0  0  0
 25 73  1  0  0  0  0
 26 82  1  0  0  0  0
 27 83  1  0  0  0  0
 28 31  2  0  0  0  0
 28 82  1  0  0  0  0
 29 84  1  0  0  0  0
 30 85  1  0  0  0  0
 31 86  1  0  0  0  0
 32 67  2  0  0  0  0
 33 68  1  0  0  0  0
 33 71  1  0  0  0  0
 34 72  1  0  0  0  0
 34 77  2  0  0  0  0
 35 49  1  0  0  0  0
 35 74  1  0  0  0  0
 35 78  2  0  0  0  0
 36 63  1  0  0  0  0
 36 69  1  0  0  0  0
 36 79  2  0  0  0  0
 37 64  1  0  0  0  0
 37 75  1  0  0  0  0
 37 80  2  0  0  0  0
 38 70  1  0  0  0  0
 38 73  1  0  0  0  0
 38 81  2  0  0  0  0
 39 42  1  0  0  0  0
 40 49  1  0  0  0  0
 41 69  1  0  0  0  0
 42 44  1  0  0  0  0
 43 45  1  0  0  0  0
 43 46  1  0  0  0  0
 44 48  1  0  0  0  0
 45 50  1  0  0  0  0
 46 70  1  0  0  0  0
 47 50  1  0  0  0  0
 47 70  1  0  0  0  0
 48 74  1  0  0  0  0
 49 69  1  0  0  0  0
 50 68  1  0  0  0  0
 51 59  1  0  0  0  0
 52 60  1  0  0  0  0
 53 64  1  0  0  0  0
 54 65  1  0  0  0  0
 55 66  1  0  0  0  0
 56 66  1  0  0  0  0
 57 66  1  0  0  0  0
 58 76  1  0  0  0  0
 61 65  1  0  0  0  0
 61 83  1  0  0  0  0
 62 65  1  0  0  0  0
 62 84  1  0  0  0  0
 63 66  1  0  0  0  0
 63 75  1  0  0  0  0
 64 76  1  0  0  0  0
 67 68  1  0  0  0  0
M  CHG  1  76   1
M  ISO  4  38 100  61 101  73 100  83 101
M  END
> <Batch ID>
0135

> <Smiles>
CCc1cc(OCC(C)[101CH2:1][101O:1]c2ccc3c(c2)CN(C(=O)C(NC(=O)C(C)NC)C(C)(C)C)C(C(=O)NC2CCCc4ccccc42)C3)cc([100NH:0][100C:0](=O)N2CCCC(n3nc(-c4ccc(Oc5ccc(F)cc5F)cc4)c(C(N)=O)c3N)C2)c1CC

> <Shape>
0.215

> <Color>
0.186

> <Negative vol penalty>
0.000

$$$$

  -OEChem-04052302363D

 94103  0     1  0  0  0  0  0999 V2000
  -29.2064  -29.5697   26.9640 C   0  0  0  0  0  0  0  0  0  0  0  0
  -29.0038  -28.4985   26.0997 C   0  0  0  0  0  0  0  0  0  0  0  0
  -30.4335  -12.0757   20.2385 C   0  0  0  0  0  0  0  0  0  0  0  0
  -20.0431  -17.1185   21.3798 C   0  0  0  0  0  0  0  0  0  0  0  0
  -21.7789  -17.7650   19.8286 C   0  0  0  0  0  0  0  0  0  0  0  0
  -28.2382  -30.5668   27.0753 C   0  0  0  0  0  0  0  0  0  0  0  0
  -27.8324  -28.4233   25.3470 C   0  0  0  0  0  0  0  0  0  0  0  0
  -28.7014  -27.1519   20.5227 C   0  0  0  0  0  0  0  0  0  0  0  0
  -30.7489  -12.9109   19.1668 C   0  0  0  0  0  0  0  0  0  0  0  0
  -29.0998  -11.7906   20.5316 C   0  0  0  0  0  0  0  0  0  0  0  0
  -19.8654  -18.4548   21.7378 C   0  0  0  0  0  0  0  0  0  0  0  0
  -21.6011  -19.1014   20.1866 C   0  0  0  0  0  0  0  0  0  0  0  0
  -28.9519  -25.8069   20.2540 C   0  0  0  0  0  0  0  0  0  0  0  0
  -22.4951  -21.1387   22.7324 C   0  0  0  0  0  0  0  0  0  0  0  0
  -23.6371  -21.9032   22.9706 C   0  0  0  0  0  0  0  0  0  0  0  0
  -26.6678  -25.5328   19.5280 C   0  0  0  0  0  0  0  0  0  0  0  0
  -28.3971  -13.1761   18.6813 C   0  0  0  0  0  0  0  0  0  0  0  0
  -29.4633  -18.1469   20.1485 C   0  0  0  0  0  0  0  0  0  0  0  0
  -31.0251  -19.9471   20.5445 C   0  0  0  0  0  0  0  0  0  0  0  0
  -31.5951  -18.1687   19.0118 C   0  0  0  0  0  0  0  0  0  0  0  0
  -22.9985  -23.4107   21.1939 C   0  0  0  0  0  0  0  0  0  0  0  0
  -21.0000  -16.7736   20.4252 C   0  0  0  0  0  0  0  0  0  0  0  0
  -20.5259  -14.6935   19.0266 C   0  0  0  0  0  0  0  0  0  0  0  0
  -27.0587  -30.5088   26.3164 C   0  0  0  0  0  0  0  0  0  0  0  0
  -27.4271  -27.6956   20.3061 C   0  0  0  0  0  0  0  0  0  0  0  0
  -26.8470  -29.4199   25.4493 C   0  0  0  0  0  0  0  0  0  0  0  0
  -26.4044  -26.8855   19.7924 C   0  0  0  0  0  0  0  0  0  0  0  0
  -29.7307  -13.4612   18.3883 C   0  0  0  0  0  0  0  0  0  0  0  0
  -29.7939  -19.3397   20.7914 C   0  0  0  0  0  0  0  0  0  0  0  0
  -28.0817  -12.3409   19.7530 C   0  0  0  0  0  0  0  0  0  0  0  0
  -30.3640  -17.5613   19.2588 C   0  0  0  0  0  0  0  0  0  0  0  0
  -20.6443  -19.4463   21.1412 C   0  0  0  0  0  0  0  0  0  0  0  0
  -27.9343  -24.9965   19.7593 C   0  0  0  0  0  0  0  0  0  0  0  0
  -21.6047  -21.5101   21.7249 C   0  0  0  0  0  0  0  0  0  0  0  0
  -23.8888  -23.0393   22.2014 C   0  0  0  0  0  0  0  0  0  0  0  0
  -31.9257  -19.3616   19.6547 C   0  0  0  0  0  0  0  0  0  0  0  0
  -21.8564  -22.6461   20.9557 C   0  0  0  0  0  0  0  0  0  0  0  0
  -21.1845  -15.3933   20.0554 C   0  0  0  0  0  0  0  0  0  0  0  0
  -21.0504  -13.4254   19.0836 C   0  0  0  0  0  0  0  0  0  0  0  0
  -19.5294  -15.1491   18.1020 C   0  0  0  0  0  0  0  0  0  0  0  0
  -25.2180  -29.0399   22.1546 C   0  0  0  0  0  0  0  0  0  0  0  0
  -23.7378  -29.5864   19.3204 C   0  0  0  0  0  0  0  0  0  0  0  0
  -30.8033  -15.6320   17.6991 C   0  0  0  0  0  0  0  0  0  0  0  0
  -23.3190  -28.6984   16.0519 C   0  0  0  0  0  0  0  0  0  0  0  0
  -26.2425  -11.2409   21.0774 C   0  0  0  0  0  0  0  0  0  0  0  0
  -26.0199  -31.5857   26.5058 C   0  0  0  0  0  0  0  0  0  0  0  0
  -27.1803  -29.1547   20.5758 C   0  0  0  0  0  0  0  0  0  0  0  0
  -25.0244  -27.4257   19.5233 C   0  0  0  0  0  0  0  0  0  0  0  0
  -24.9741  -31.6253   25.3945 C   0  0  0  0  0  0  0  0  0  0  0  0
  -22.9824  -10.3070   22.1621 C   0  0  0  0  0  0  0  0  0  0  0  0
  -24.4644  -30.2201   25.0907 C   0  0  0  0  0  0  0  0  0  0  0  0
  -22.0906  -11.4385   21.6461 C   0  0  0  0  0  0  0  0  0  0  0  0
  -24.3435  -10.8237   22.6249 C   0  0  0  0  0  0  0  0  0  0  0  0
  -24.1744  -12.7695   21.1234 C   0  0  0  0  0  0  0  0  0  0  0  0
  -25.6004  -29.3158   24.5976 C   0  0  1  0  0  0  0  0  0  0  0  0
  -25.7071  -29.4793   20.8035 C   0  0  1  0  0  0  0  0  0  0  0  0
  -22.8166  -12.2892   20.5855 C   0  0  2  0  0  0  0  0  0  0  0  0
  -30.8877  -13.6211   16.1630 C   0  0  0  0  0  0  0  0  0  0  0  0
  -29.4057  -20.0176   23.1741 C   0  0  0  0  0  0  0  0  0  0  0  0
  -22.0128  -29.3064   13.9973 C   0  0  0  0  0  0  0  0  0  0  0  0
  -21.2698  -28.2255   20.4896 C   0  0  0  0  0  0  0  0  0  0  0  0
  -20.3719  -28.0102   18.1625 C   0  0  0  0  0  0  0  0  0  0  0  0
  -20.7890  -30.2703   19.1324 C   0  0  0  0  0  0  0  0  0  0  0  0
  -25.7788  -29.3425   14.5375 C   0  0  0  0  0  0  0  0  0  0  0  0
  -27.5928  -21.3920   19.9998 C   0  0  0  0  0  0  0  0  0  0  0  0
  -28.3643  -21.3908   21.3275 C   0  0  0  0  0  0  0  0  0  0  0  0
  -27.0795  -22.7806   19.6360 C   0  0  0  0  0  0  0  0  0  1  0  0
  -30.0746  -14.3702   17.2219 C   0  0  1  0  0  0  0  0  0  0  0  0
  -28.8133  -19.9781   21.7600 C   0  0  1  0  0  0  0  0  0  0  0  0
  -22.7538  -28.8264   18.4641 C   0  0  1  0  0  0  0  0  0  0  0  0
  -23.2993  -29.5243   14.7783 C   0  0  2  0  0  0  0  0  0  0  0  0
  -21.3215  -28.8221   19.0690 C   0  0  0  0  0  0  0  0  0  0  0  0
  -22.0603  -14.6327   20.7177 N   0  0  0  0  0  0  0  0  0  0  0  0
  -21.9556  -13.4419   20.1036 N   0  0  0  0  0  0  0  0  0  0  0  0
  -24.8309  -28.8569   19.8090 N   0  0  0  0  0  0  0  0  0  0  0  0
  -24.9740  -11.6169   21.5675 N   0  0  0  0  0  0  0  0  0  0  0  0
  -20.8208  -12.3089   18.3603 N   0  0  0  0  0  0  0  0  0  0  0  0
  -19.1033  -16.4819   18.1819 N   0  0  0  0  0  0  0  0  0  0  0  0
  -30.0337  -16.3679   18.6157 N   0  0  0  0  0  0  0  0  0  0  0  0
  -26.7271  -12.0505   20.0506 N   0  0  0  0  0  0  0  0  0  0  0  0
  -25.9080  -29.6005   23.2124 N   0  0  0  0  0  0  0  0  0  0  0  0
  -22.8374  -29.4106   17.1299 N   0  0  0  0  0  0  0  0  0  0  0  0
  -24.4482  -29.1552   13.9039 N   0  3  0  0  0  0  0  0  0  0  0  0
  -19.0195  -14.3921   17.2414 O   0  0  0  0  0  0  0  0  0  0  0  0
  -24.2829  -28.2516   22.2316 O   0  0  0  0  0  0  0  0  0  0  0  0
  -23.5474  -30.7849   19.5415 O   0  0  0  0  0  0  0  0  0  0  0  0
  -31.9292  -15.9148   17.2997 O   0  0  0  0  0  0  0  0  0  0  0  0
  -23.7179  -27.5365   16.0863 O   0  0  0  0  0  0  0  0  0  0  0  0
  -26.8419  -10.2560   21.5162 O   0  0  0  0  0  0  0  0  0  0  0  0
  -20.4709  -20.7504   21.4902 O   0  0  0  0  0  0  0  0  0  0  0  0
  -28.1759  -23.6833   19.4967 O   0  0  0  0  0  0  0  0  0  1  0  0
  -24.9848  -23.7742   22.4313 F   0  0  0  0  0  0  0  0  0  0  0  0
  -33.1079  -19.9450   19.4177 F   0  0  0  0  0  0  0  0  0  0  0  0
  -21.0041  -23.0086   19.9872 F   0  0  0  0  0  0  0  0  0  0  0  0
  1  2  1  0  0  0  0
  1  6  2  0  0  0  0
  2  7  2  0  0  0  0
  3  9  2  0  0  0  0
  3 10  1  0  0  0  0
  4 11  2  0  0  0  0
  4 22  1  0  0  0  0
  5 12  1  0  0  0  0
  5 22  2  0  0  0  0
  6 24  1  0  0  0  0
  7 26  1  0  0  0  0
  8 13  2  0  0  0  0
  8 25  1  0  0  0  0
  9 28  1  0  0  0  0
 10 30  2  0  0  0  0
 11 32  1  0  0  0  0
 12 32  2  0  0  0  0
 13 33  1  0  0  0  0
 14 15  2  0  0  0  0
 14 34  1  0  0  0  0
 15 35  1  0  0  0  0
 16 27  1  0  0  0  0
 16 33  2  0  0  0  0
 17 28  2  0  0  0  0
 17 30  1  0  0  0  0
 18 29  2  0  0  0  0
 18 31  1  0  0  0  0
 19 29  1  0  0  0  0
 19 36  2  0  0  0  0
 20 31  2  0  0  0  0
 20 36  1  0  0  0  0
 21 35  2  0  0  0  0
 21 37  1  0  0  0  0
 22 38  1  0  0  0  0
 23 38  1  0  0  0  0
 23 39  2  0  0  0  0
 23 40  1  0  0  0  0
 24 26  2  0  0  0  0
 24 46  1  0  0  0  0
 25 27  2  0  0  0  0
 25 47  1  0  0  0  0
 26 55  1  0  0  0  0
 27 48  1  0  0  0  0
 28 68  1  0  0  0  0
 29 69  1  0  0  0  0
 30 80  1  0  0  0  0
 31 79  1  0  0  0  0
 32 90  1  0  0  0  0
 33 91  1  0  0  0  0
 34 37  2  0  0  0  0
 34 90  1  0  0  0  0
 35 92  1  0  0  0  0
 36 93  1  0  0  0  0
 37 94  1  0  0  0  0
 38 73  2  0  0  0  0
 39 74  1  0  0  0  0
 39 77  1  0  0  0  0
 40 78  1  0  0  0  0
 40 84  2  0  0  0  0
 41 56  1  0  0  0  0
 41 81  1  0  0  0  0
 41 85  2  0  0  0  0
 42 70  1  0  0  0  0
 42 75  1  0  0  0  0
 42 86  2  0  0  0  0
 43 68  1  0  0  0  0
 43 79  1  0  0  0  0
 43 87  2  0  0  0  0
 44 71  1  0  0  0  0
 44 82  1  0  0  0  0
 44 88  2  0  0  0  0
 45 76  1  0  0  0  0
 45 80  1  0  0  0  0
 45 89  2  0  0  0  0
 46 49  1  0  0  0  0
 47 56  1  0  0  0  0
 48 75  1  0  0  0  0
 49 51  1  0  0  0  0
 50 52  1  0  0  0  0
 50 53  1  0  0  0  0
 51 55  1  0  0  0  0
 52 57  1  0  0  0  0
 53 76  1  0  0  0  0
 54 57  1  0  0  0  0
 54 76  1  0  0  0  0
 55 81  1  0  0  0  0
 56 75  1  0  0  0  0
 57 74  1  0  0  0  0
 58 68  1  0  0  0  0
 59 69  1  0  0  0  0
 60 71  1  0  0  0  0
 61 72  1  0  0  0  0
 62 72  1  0  0  0  0
 63 72  1  0  0  0  0
 64 83  1  0  0  0  0
 65 66  1  0  0  0  0
 65 67  1  0  0  0  0
 66 69  1  0  0  0  0
 67 91  1  0  0  0  0
 70 72  1  0  0  0  0
 70 82  1  0  0  0  0
 71 83  1  0  0  0  0
 73 74  1  0  0  0  0
M  CHG  1  83   1
M  ISO  4  45 100  67 101  80 100  91 101
M  END
> <Batch ID>
0135

> <Smiles>
CNC(C)C(=O)NC(C(=O)N1Cc2cc([101O:1][101CH2:1]CCC(C)c3cc(F)cc(NC(=O)C(C)c4cccc([100NH:0][100C:0](=O)N5CCCC(n6nc(-c7ccc(Oc8ccc(F)cc8F)cc7)c(C(N)=O)c6N)C5)c4)c3)ccc2CC1C(=O)NC1CCCc2ccccc21)C(C)(C)C

> <Shape>
0.221

> <Color>
0.055

> <Negative vol penalty>
0.000

$$$$

  -OEChem-04052302363D

 86 94  0     1  0  0  0  0  0999 V2000
  -22.4280   -8.5450   24.5592 C   0  0  0  0  0  0  0  0  0  0  0  0
  -23.4322   -9.0909   23.7662 C   0  0  0  0  0  0  0  0  0  0  0  0
  -22.4814  -29.6479   19.8039 C   0  0  0  0  0  0  0  0  0  0  0  0
  -22.2488  -27.9240   21.4804 C   0  0  0  0  0  0  0  0  0  0  0  0
  -21.1168   -9.0025   24.4347 C   0  0  0  0  0  0  0  0  0  0  0  0
  -23.1257  -10.0940   22.8474 C   0  0  0  0  0  0  0  0  0  0  0  0
  -26.4635  -13.9012   22.9417 C   0  0  0  0  0  0  0  0  0  0  0  0
  -21.1209  -29.9360   19.9113 C   0  0  0  0  0  0  0  0  0  0  0  0
  -20.8882  -28.2120   21.5879 C   0  0  0  0  0  0  0  0  0  0  0  0
  -27.6831  -13.6948   22.2986 C   0  0  0  0  0  0  0  0  0  0  0  0
  -18.9476  -30.5449   23.0752 C   0  0  0  0  0  0  0  0  0  0  0  0
  -18.4063  -30.6408   24.3571 C   0  0  0  0  0  0  0  0  0  0  0  0
  -26.8808  -14.9356   20.3918 C   0  0  0  0  0  0  0  0  0  0  0  0
  -32.2915  -21.8386   22.9758 C   0  0  0  0  0  0  0  0  0  0  0  0
  -31.0327  -23.8488   22.5160 C   0  0  0  0  0  0  0  0  0  0  0  0
  -31.1109  -22.0719   20.8808 C   0  0  0  0  0  0  0  0  0  0  0  0
  -16.8850  -28.8337   23.8499 C   0  0  0  0  0  0  0  0  0  0  0  0
  -23.0454  -28.6419   20.5884 C   0  0  0  0  0  0  0  0  0  0  0  0
  -25.5026  -28.9187   21.2153 C   0  0  0  0  0  0  0  0  0  0  0  0
  -20.7958  -10.0185   23.5207 C   0  0  0  0  0  0  0  0  0  0  0  0
  -25.4377  -14.6183   22.3093 C   0  0  0  0  0  0  0  0  0  0  0  0
  -21.8088  -10.5646   22.7095 C   0  0  0  0  0  0  0  0  0  0  0  0
  -25.6500  -15.1519   21.0301 C   0  0  0  0  0  0  0  0  0  0  0  0
  -31.8458  -23.1009   23.3676 C   0  0  0  0  0  0  0  0  0  0  0  0
  -31.9240  -21.3241   21.7324 C   0  0  0  0  0  0  0  0  0  0  0  0
  -30.6652  -23.3343   21.2726 C   0  0  0  0  0  0  0  0  0  0  0  0
  -20.3243  -29.2180   20.8033 C   0  0  0  0  0  0  0  0  0  0  0  0
  -27.8909  -14.2095   21.0223 C   0  0  0  0  0  0  0  0  0  0  0  0
  -18.4576  -29.5934   22.1806 C   0  0  0  0  0  0  0  0  0  0  0  0
  -17.3750  -29.7852   24.7445 C   0  0  0  0  0  0  0  0  0  0  0  0
  -17.4264  -28.7378   22.5679 C   0  0  0  0  0  0  0  0  0  0  0  0
  -24.4507  -28.3435   20.4776 C   0  0  0  0  0  0  0  0  0  0  0  0
  -26.6335  -28.3017   20.7389 C   0  0  0  0  0  0  0  0  0  0  0  0
  -25.4613  -29.9211   22.2396 C   0  0  0  0  0  0  0  0  0  0  0  0
  -22.4803  -13.9392   21.3627 C   0  0  0  0  0  0  0  0  0  0  0  0
  -30.9182  -16.3263   21.4361 C   0  0  0  0  0  0  0  0  0  0  0  0
  -22.3829  -17.1120   20.6946 C   0  0  0  0  0  0  0  0  0  0  0  0
  -24.0942  -19.9724   19.9621 C   0  0  0  0  0  0  0  0  0  0  0  0
  -29.3825  -23.7309   19.1410 C   0  0  0  0  0  0  0  0  0  0  0  0
  -19.3559  -10.4473   23.3882 C   0  0  0  0  0  0  0  0  0  0  0  0
  -24.1374  -14.8551   23.0273 C   0  0  0  0  0  0  0  0  0  0  0  0
  -24.5881  -15.9462   20.3160 C   0  0  0  0  0  0  0  0  0  0  0  0
  -19.1808  -11.7752   22.6559 C   0  0  0  0  0  0  0  0  0  0  0  0
  -27.3041  -25.3041   16.7157 C   0  0  0  0  0  0  0  0  0  0  0  0
  -20.0285  -11.8014   21.3880 C   0  0  0  0  0  0  0  0  0  0  0  0
  -26.4630  -26.2824   17.5389 C   0  0  0  0  0  0  0  0  0  0  0  0
  -27.5616  -24.0020   17.4719 C   0  0  0  0  0  0  0  0  0  0  0  0
  -27.2921  -25.1447   19.6377 C   0  0  0  0  0  0  0  0  0  0  0  0
  -21.5202  -11.6716   21.7189 C   0  0  1  0  0  0  0  0  0  0  0  0
  -22.9797  -15.1603   22.0818 C   0  0  1  0  0  0  0  0  0  0  0  0
  -27.0611  -26.4967   18.9431 C   0  0  2  0  0  0  0  0  0  0  0  0
  -32.2389  -23.6510   24.6969 C   0  0  0  0  0  0  0  0  0  0  0  0
  -23.7390  -22.3992   19.4312 C   0  0  0  0  0  0  0  0  0  0  0  0
  -30.8118  -12.4938   20.9959 C   0  0  0  0  0  0  0  0  0  0  0  0
  -21.5031  -16.3630   17.8707 C   0  0  0  0  0  0  0  0  0  0  0  0
  -22.0817  -18.6893   17.1484 C   0  0  0  0  0  0  0  0  0  0  0  0
  -20.2984  -18.3219   18.8535 C   0  0  0  0  0  0  0  0  0  0  0  0
  -25.6247  -20.8367   22.3431 C   0  0  0  0  0  0  0  0  0  0  0  0
  -32.4055  -19.9601   21.3093 C   0  0  0  0  0  0  0  0  0  0  0  0
  -31.9093  -17.4439   21.1513 C   0  0  0  0  0  0  0  0  0  0  0  0
  -31.2543  -14.9668   20.8386 C   0  0  0  0  0  0  0  0  0  0  0  0
  -31.4758  -18.8033   21.7046 C   0  0  0  0  0  0  0  0  0  0  0  0
  -22.7179  -17.9623   19.4931 C   0  0  1  0  0  0  0  0  0  0  0  0
  -23.9964  -21.3776   20.5280 C   0  0  2  0  0  0  0  0  0  0  0  0
  -30.2392  -13.8867   21.2155 C   0  0  1  0  0  0  0  0  0  1  0  0
  -21.6698  -17.8175   18.3538 C   0  0  0  0  0  0  0  0  0  0  0  0
  -24.8754  -27.4313   19.5992 N   0  0  0  0  0  0  0  0  0  0  0  0
  -26.2068  -27.4287   19.7819 N   0  0  0  0  0  0  0  0  0  0  0  0
  -23.3316  -16.1453   21.0570 N   0  0  0  0  0  0  0  0  0  0  0  0
  -28.1321  -24.2830   18.7912 N   0  0  0  0  0  0  0  0  0  0  0  0
  -27.9414  -28.4263   21.0495 N   0  0  0  0  0  0  0  0  0  0  0  0
  -24.2163  -30.4486   22.6083 N   0  0  0  0  0  0  0  0  0  0  0  0
  -29.8391  -24.0939   20.4076 N   0  0  0  0  0  0  0  0  0  0  0  0
  -22.0424  -12.9321   22.2014 N   0  0  0  0  0  0  0  0  0  0  0  0
  -22.8770  -19.3251   19.9890 N   0  0  0  0  0  0  0  0  0  0  0  0
  -25.2616  -21.7447   21.2247 N   0  3  0  0  0  0  0  0  0  0  0  0
  -26.4993  -30.3484   22.7995 O   0  0  0  0  0  0  0  0  0  0  0  0
  -22.4900  -13.9133   20.1375 O   0  0  0  0  0  0  0  0  0  0  0  0
  -29.8770  -16.5297   22.0597 O   0  0  0  0  0  0  0  0  0  0  0  0
  -21.3219  -17.3034   21.2941 O   0  0  0  0  0  0  0  0  0  0  0  0
  -25.1444  -19.4978   19.5353 O   0  0  0  0  0  0  0  0  0  0  0  0
  -30.0152  -23.0124   18.3629 O   0  0  0  0  0  0  0  0  0  0  0  0
  -18.9967  -29.4990   20.9085 O   0  0  0  0  0  0  0  0  0  0  0  0
  -29.0802  -14.0089   20.3920 O   0  0  0  0  0  0  0  0  0  1  0  0
  -16.8563  -29.8763   25.9761 F   0  0  0  0  0  0  0  0  0  0  0  0
  -16.9523  -27.8210   21.7132 F   0  0  0  0  0  0  0  0  0  0  0  0
  1  2  1  0  0  0  0
  1  5  2  0  0  0  0
  2  6  2  0  0  0  0
  3  8  2  0  0  0  0
  3 18  1  0  0  0  0
  4  9  1  0  0  0  0
  4 18  2  0  0  0  0
  5 20  1  0  0  0  0
  6 22  1  0  0  0  0
  7 10  2  0  0  0  0
  7 21  1  0  0  0  0
  8 27  1  0  0  0  0
  9 27  2  0  0  0  0
 10 28  1  0  0  0  0
 11 12  2  0  0  0  0
 11 29  1  0  0  0  0
 12 30  1  0  0  0  0
 13 23  1  0  0  0  0
 13 28  2  0  0  0  0
 14 24  2  0  0  0  0
 14 25  1  0  0  0  0
 15 24  1  0  0  0  0
 15 26  2  0  0  0  0
 16 25  2  0  0  0  0
 16 26  1  0  0  0  0
 17 30  2  0  0  0  0
 17 31  1  0  0  0  0
 18 32  1  0  0  0  0
 19 32  1  0  0  0  0
 19 33  2  0  0  0  0
 19 34  1  0  0  0  0
 20 22  2  0  0  0  0
 20 40  1  0  0  0  0
 21 23  2  0  0  0  0
 21 41  1  0  0  0  0
 22 49  1  0  0  0  0
 23 42  1  0  0  0  0
 24 52  1  0  0  0  0
 25 59  1  0  0  0  0
 26 73  1  0  0  0  0
 27 83  1  0  0  0  0
 28 84  1  0  0  0  0
 29 31  2  0  0  0  0
 29 83  1  0  0  0  0
 30 85  1  0  0  0  0
 31 86  1  0  0  0  0
 32 67  2  0  0  0  0
 33 68  1  0  0  0  0
 33 71  1  0  0  0  0
 34 72  1  0  0  0  0
 34 77  2  0  0  0  0
 35 50  1  0  0  0  0
 35 74  1  0  0  0  0
 35 78  2  0  0  0  0
 36 60  1  0  0  0  0
 36 61  1  0  0  0  0
 36 79  2  0  0  0  0
 37 63  1  0  0  0  0
 37 69  1  0  0  0  0
 37 80  2  0  0  0  0
 38 64  1  0  0  0  0
 38 75  1  0  0  0  0
 38 81  2  0  0  0  0
 39 70  1  0  0  0  0
 39 73  1  0  0  0  0
 39 82  2  0  0  0  0
 40 43  1  0  0  0  0
 41 50  1  0  0  0  0
 42 69  1  0  0  0  0
 43 45  1  0  0  0  0
 44 46  1  0  0  0  0
 44 47  1  0  0  0  0
 45 49  1  0  0  0  0
 46 51  1  0  0  0  0
 47 70  1  0  0  0  0
 48 51  1  0  0  0  0
 48 70  1  0  0  0  0
 49 74  1  0  0  0  0
 50 69  1  0  0  0  0
 51 68  1  0  0  0  0
 53 64  1  0  0  0  0
 54 65  1  0  0  0  0
 55 66  1  0  0  0  0
 56 66  1  0  0  0  0
 57 66  1  0  0  0  0
 58 76  1  0  0  0  0
 59 62  1  0  0  0  0
 60 62  1  0  0  0  0
 61 65  1  0  0  0  0
 63 66  1  0  0  0  0
 63 75  1  0  0  0  0
 64 76  1  0  0  0  0
 65 84  1  0  0  0  0
 67 68  1  0  0  0  0
M  CHG  1  76   1
M  ISO  4  39 100  65 101  73 100  84 101
M  END
> <Batch ID>
0135

> <Smiles>
CNC(C)C(=O)NC(C(=O)N1Cc2cc([101O:1][101CH:1](C)CC(=O)CCCc3cc(C)cc([100NH:0][100C:0](=O)N4CCCC(n5nc(-c6ccc(Oc7ccc(F)cc7F)cc6)c(C(N)=O)c5N)C4)c3)ccc2CC1C(=O)NC1CCCc2ccccc21)C(C)(C)C

> <Shape>
0.224

> <Color>
0.065

> <Negative vol penalty>
0.000

$$$$

  -OEChem-04052302363D

 88 96  0     1  0  0  0  0  0999 V2000
  -23.4721  -32.7004   14.4998 C   0  0  0  0  0  0  0  0  0  0  0  0
  -24.4537  -31.7273   14.6579 C   0  0  0  0  0  0  0  0  0  0  0  0
  -24.0492   -8.8793   21.2532 C   0  0  0  0  0  0  0  0  0  0  0  0
  -24.7888   -9.9869   23.2690 C   0  0  0  0  0  0  0  0  0  0  0  0
  -23.2150  -33.6036   15.5303 C   0  0  0  0  0  0  0  0  0  0  0  0
  -25.1797  -31.6576   15.8464 C   0  0  0  0  0  0  0  0  0  0  0  0
  -27.2819  -26.5993   18.5850 C   0  0  0  0  0  0  0  0  0  0  0  0
  -23.9463   -7.6765   21.9519 C   0  0  0  0  0  0  0  0  0  0  0  0
  -24.6858   -8.7840   23.9677 C   0  0  0  0  0  0  0  0  0  0  0  0
  -28.5343  -25.9869   18.5900 C   0  0  0  0  0  0  0  0  0  0  0  0
  -23.1427   -4.3927   23.2885 C   0  0  0  0  0  0  0  0  0  0  0  0
  -21.9995   -3.6201   23.0846 C   0  0  0  0  0  0  0  0  0  0  0  0
  -29.0679  -27.1089   20.6578 C   0  0  0  0  0  0  0  0  0  0  0  0
  -26.7207  -20.5705   21.3465 C   0  0  0  0  0  0  0  0  0  0  0  0
  -28.8757  -19.2825   20.1302 C   0  0  0  0  0  0  0  0  0  0  0  0
  -20.6267   -5.4405   23.8837 C   0  0  0  0  0  0  0  0  0  0  0  0
  -24.4706  -10.0345   21.9118 C   0  0  0  0  0  0  0  0  0  0  0  0
  -23.5758  -12.2519   21.0227 C   0  0  0  0  0  0  0  0  0  0  0  0
  -23.9316  -33.5388   16.7358 C   0  0  0  0  0  0  0  0  0  0  0  0
  -26.9166  -27.4811   19.6124 C   0  0  0  0  0  0  0  0  0  0  0  0
  -24.9329  -32.5617   16.8935 C   0  0  0  0  0  0  0  0  0  0  0  0
  -27.8092  -27.7292   20.6648 C   0  0  0  0  0  0  0  0  0  0  0  0
  -26.5729  -19.2713   20.8609 C   0  0  0  0  0  0  0  0  0  0  0  0
  -27.9460  -21.2258   21.2239 C   0  0  0  0  0  0  0  0  0  0  0  0
  -27.6504  -18.6273   20.2528 C   0  0  0  0  0  0  0  0  0  0  0  0
  -24.2645   -7.6288   23.3091 C   0  0  0  0  0  0  0  0  0  0  0  0
  -29.4287  -26.2439   19.6250 C   0  0  0  0  0  0  0  0  0  0  0  0
  -23.0280   -5.6892   23.7901 C   0  0  0  0  0  0  0  0  0  0  0  0
  -29.0235  -20.5817   20.6158 C   0  0  0  0  0  0  0  0  0  0  0  0
  -20.7414   -4.1440   23.3821 C   0  0  0  0  0  0  0  0  0  0  0  0
  -21.7700   -6.2131   24.0877 C   0  0  0  0  0  0  0  0  0  0  0  0
  -24.5777  -11.2772   21.1905 C   0  0  0  0  0  0  0  0  0  0  0  0
  -24.1726  -13.2311   20.2668 C   0  0  0  0  0  0  0  0  0  0  0  0
  -22.2265  -12.2705   21.5071 C   0  0  0  0  0  0  0  0  0  0  0  0
  -26.1395  -30.5599   19.7554 C   0  0  0  0  0  0  0  0  0  0  0  0
  -25.5079  -29.8556   22.8582 C   0  0  0  0  0  0  0  0  0  0  0  0
  -26.0753  -27.8247   25.5415 C   0  0  0  0  0  0  0  0  0  0  0  0
  -28.5002  -16.5425   19.1224 C   0  0  0  0  0  0  0  0  0  0  0  0
  -23.6510  -34.5667   17.8032 C   0  0  0  0  0  0  0  0  0  0  0  0
  -25.5516  -28.1128   19.6064 C   0  0  0  0  0  0  0  0  0  0  0  0
  -27.4576  -28.6520   21.8020 C   0  0  0  0  0  0  0  0  0  0  0  0
  -24.2062  -34.1885   19.1739 C   0  0  0  0  0  0  0  0  0  0  0  0
  -28.5821  -13.2453   17.7812 C   0  0  0  0  0  0  0  0  0  0  0  0
  -25.6449  -33.6968   19.0500 C   0  0  0  0  0  0  0  0  0  0  0  0
  -27.4652  -12.5195   18.5348 C   0  0  0  0  0  0  0  0  0  0  0  0
  -29.3187  -14.2387   18.6780 C   0  0  0  0  0  0  0  0  0  0  0  0
  -27.3410  -14.4780   20.1272 C   0  0  0  0  0  0  0  0  0  0  0  0
  -25.7246  -32.4384   18.1774 C   0  0  1  0  0  0  0  0  0  0  0  0
  -25.4816  -29.3922   20.4345 C   0  0  1  0  0  0  0  0  0  0  0  0
  -26.5280  -13.5139   19.2479 C   0  0  2  0  0  0  0  0  0  0  0  0
  -25.2490  -18.5936   21.0060 C   0  0  0  0  0  0  0  0  0  0  0  0
  -29.0152  -24.0732   23.6018 C   0  0  0  0  0  0  0  0  0  0  0  0
  -33.4271  -19.9823   19.4345 C   0  0  0  0  0  0  0  0  0  0  0  0
  -25.4448  -27.5227   27.9517 C   0  0  0  0  0  0  0  0  0  0  0  0
  -27.3500  -32.1634   23.6267 C   0  0  0  0  0  0  0  0  0  0  0  0
  -27.4354  -31.2303   25.9484 C   0  0  0  0  0  0  0  0  0  0  0  0
  -25.2620  -31.9958   24.9930 C   0  0  0  0  0  0  0  0  0  0  0  0
  -24.8995  -25.1592   25.0203 C   0  0  0  0  0  0  0  0  0  0  0  0
  -28.0873  -22.6163   21.7491 C   0  0  0  0  0  0  0  0  0  0  0  0
  -28.8427  -22.6535   23.0855 C   0  0  0  0  0  0  0  0  0  0  0  0
  -33.1439  -21.3838   19.9598 C   0  0  0  0  0  0  0  0  0  0  0  0
  -31.8599  -23.5770   19.7154 C   0  0  0  0  0  0  0  0  0  0  0  0
  -30.7516  -24.3619   19.0217 C   0  0  0  0  0  0  0  0  0  1  0  0
  -30.7236  -21.3902   19.1625 C   0  0  0  0  0  0  0  0  0  0  0  0
  -26.3069  -29.8578   24.1390 C   0  0  1  0  0  0  0  0  0  0  0  0
  -25.1238  -27.1495   26.5128 C   0  0  2  0  0  0  0  0  0  0  0  0
  -32.0642  -22.1467   19.1650 C   0  0  2  0  0  0  0  0  0  0  0  0
  -26.5963  -31.2959   24.6545 C   0  0  0  0  0  0  0  0  0  0  0  0
  -25.7239  -11.6072   20.5892 N   0  0  0  0  0  0  0  0  0  0  0  0
  -25.4459  -12.8001   20.0363 N   0  0  0  0  0  0  0  0  0  0  0  0
  -26.1136  -29.2505   21.7478 N   0  0  0  0  0  0  0  0  0  0  0  0
  -28.3678  -15.1512   19.3165 N   0  0  0  0  0  0  0  0  0  0  0  0
  -23.7271  -14.4101   19.7832 N   0  0  0  0  0  0  0  0  0  0  0  0
  -21.7750  -11.1841   22.2688 N   0  0  0  0  0  0  0  0  0  0  0  0
  -27.5194  -17.3084   19.7517 N   0  0  0  0  0  0  0  0  0  0  0  0
  -25.2973  -31.2761   18.9263 N   0  0  0  0  0  0  0  0  0  0  0  0
  -25.5703  -29.0223   25.0812 N   0  0  0  0  0  0  0  0  0  0  0  0
  -25.2137  -25.6678   26.3803 N   0  3  0  0  0  0  0  0  0  0  0  0
  -21.4393  -13.2147   21.2575 O   0  0  0  0  0  0  0  0  0  0  0  0
  -27.3231  -30.7947   19.9689 O   0  0  0  0  0  0  0  0  0  0  0  0
  -24.3847  -30.3653   22.8452 O   0  0  0  0  0  0  0  0  0  0  0  0
  -27.1598  -27.3401   25.2259 O   0  0  0  0  0  0  0  0  0  0  0  0
  -29.4003  -17.0177   18.4253 O   0  0  0  0  0  0  0  0  0  0  0  0
  -24.1639   -6.4553   23.9913 O   0  0  0  0  0  0  0  0  0  0  0  0
  -30.6521  -25.6480   19.6320 O   0  0  0  0  0  0  0  0  0  1  0  0
  -30.2334  -21.2107   20.4865 O   0  0  0  0  0  0  0  0  0  0  0  0
  -19.6435   -3.4025   23.1848 F   0  0  0  0  0  0  0  0  0  0  0  0
  -21.6534   -7.4585   24.5687 F   0  0  0  0  0  0  0  0  0  0  0  0
  1  2  1  0  0  0  0
  1  5  2  0  0  0  0
  2  6  2  0  0  0  0
  3  8  2  0  0  0  0
  3 17  1  0  0  0  0
  4  9  1  0  0  0  0
  4 17  2  0  0  0  0
  5 19  1  0  0  0  0
  6 21  1  0  0  0  0
  7 10  2  0  0  0  0
  7 20  1  0  0  0  0
  8 26  1  0  0  0  0
  9 26  2  0  0  0  0
 10 27  1  0  0  0  0
 11 12  2  0  0  0  0
 11 28  1  0  0  0  0
 12 30  1  0  0  0  0
 13 22  1  0  0  0  0
 13 27  2  0  0  0  0
 14 23  2  0  0  0  0
 14 24  1  0  0  0  0
 15 25  2  0  0  0  0
 15 29  1  0  0  0  0
 16 30  2  0  0  0  0
 16 31  1  0  0  0  0
 17 32  1  0  0  0  0
 18 32  1  0  0  0  0
 18 33  2  0  0  0  0
 18 34  1  0  0  0  0
 19 21  2  0  0  0  0
 19 39  1  0  0  0  0
 20 22  2  0  0  0  0
 20 40  1  0  0  0  0
 21 48  1  0  0  0  0
 22 41  1  0  0  0  0
 23 25  1  0  0  0  0
 23 51  1  0  0  0  0
 24 29  2  0  0  0  0
 24 59  1  0  0  0  0
 25 75  1  0  0  0  0
 26 84  1  0  0  0  0
 27 85  1  0  0  0  0
 28 31  2  0  0  0  0
 28 84  1  0  0  0  0
 29 86  1  0  0  0  0
 30 87  1  0  0  0  0
 31 88  1  0  0  0  0
 32 69  2  0  0  0  0
 33 70  1  0  0  0  0
 33 73  1  0  0  0  0
 34 74  1  0  0  0  0
 34 79  2  0  0  0  0
 35 49  1  0  0  0  0
 35 76  1  0  0  0  0
 35 80  2  0  0  0  0
 36 65  1  0  0  0  0
 36 71  1  0  0  0  0
 36 81  2  0  0  0  0
 37 66  1  0  0  0  0
 37 77  1  0  0  0  0
 37 82  2  0  0  0  0
 38 72  1  0  0  0  0
 38 75  1  0  0  0  0
 38 83  2  0  0  0  0
 39 42  1  0  0  0  0
 40 49  1  0  0  0  0
 41 71  1  0  0  0  0
 42 44  1  0  0  0  0
 43 45  1  0  0  0  0
 43 46  1  0  0  0  0
 44 48  1  0  0  0  0
 45 50  1  0  0  0  0
 46 72  1  0  0  0  0
 47 50  1  0  0  0  0
 47 72  1  0  0  0  0
 48 76  1  0  0  0  0
 49 71  1  0  0  0  0
 50 70  1  0  0  0  0
 52 60  1  0  0  0  0
 53 61  1  0  0  0  0
 54 66  1  0  0  0  0
 55 68  1  0  0  0  0
 56 68  1  0  0  0  0
 57 68  1  0  0  0  0
 58 78  1  0  0  0  0
 59 60  1  0  0  0  0
 61 67  1  0  0  0  0
 62 63  1  0  0  0  0
 62 67  1  0  0  0  0
 63 85  1  0  0  0  0
 64 67  1  0  0  0  0
 64 86  1  0  0  0  0
 65 68  1  0  0  0  0
 65 77  1  0  0  0  0
 66 78  1  0  0  0  0
 69 70  1  0  0  0  0
M  CHG  1  78   1
M  ISO  4  38 100  63 101  75 100  85 101
M  END
> <Batch ID>
0135

> <Smiles>
CCCc1cc(C)c([100NH:0][100C:0](=O)N2CCCC(n3nc(-c4ccc(Oc5ccc(F)cc5F)cc4)c(C(N)=O)c3N)C2)cc1OCC(CC)C[101CH2:1][101O:1]c1ccc2c(c1)CN(C(=O)C(NC(=O)C(C)NC)C(C)(C)C)C(C(=O)NC1CCCc3ccccc31)C2

> <Shape>
0.290

> <Color>
0.099

> <Negative vol penalty>
0.000

$$$$

  -OEChem-04052302363D

 85 93  0     1  0  0  0  0  0999 V2000
  -18.6143  -27.7792   21.9037 C   0  0  0  0  0  0  0  0  0  0  0  0
  -18.8035  -26.4829   22.3720 C   0  0  0  0  0  0  0  0  0  0  0  0
  -23.1013   -9.8610   19.9055 C   0  0  0  0  0  0  0  0  0  0  0  0
  -23.9091   -9.7946   22.1815 C   0  0  0  0  0  0  0  0  0  0  0  0
  -19.6848  -28.6720   21.8754 C   0  0  0  0  0  0  0  0  0  0  0  0
  -20.0636  -26.0784   22.8111 C   0  0  0  0  0  0  0  0  0  0  0  0
  -23.1870  -21.7755   27.6118 C   0  0  0  0  0  0  0  0  0  0  0  0
  -30.9605  -17.8785   20.7253 C   0  0  0  0  0  0  0  0  0  0  0  0
  -22.3970   -8.6764   20.1209 C   0  0  0  0  0  0  0  0  0  0  0  0
  -23.2048   -8.6101   22.3969 C   0  0  0  0  0  0  0  0  0  0  0  0
  -24.1385  -20.7594   27.6892 C   0  0  0  0  0  0  0  0  0  0  0  0
  -21.3297   -5.7606   23.6551 C   0  0  0  0  0  0  0  0  0  0  0  0
  -31.1019  -19.2653   20.7729 C   0  0  0  0  0  0  0  0  0  0  0  0
  -20.6001   -5.6451   24.8382 C   0  0  0  0  0  0  0  0  0  0  0  0
  -25.8959  -22.4118   27.6684 C   0  0  0  0  0  0  0  0  0  0  0  0
  -29.5078  -19.3656   22.5857 C   0  0  0  0  0  0  0  0  0  0  0  0
  -19.2841   -7.5729   24.2148 C   0  0  0  0  0  0  0  0  0  0  0  0
  -23.8574  -10.4201   20.9358 C   0  0  0  0  0  0  0  0  0  0  0  0
  -24.1225  -12.9572   20.9166 C   0  0  0  0  0  0  0  0  0  0  0  0
  -20.9565  -28.2812   22.3234 C   0  0  0  0  0  0  0  0  0  0  0  0
  -23.5838  -23.1191   27.5510 C   0  0  0  0  0  0  0  0  0  0  0  0
  -21.1524  -26.9664   22.7875 C   0  0  0  0  0  0  0  0  0  0  0  0
  -24.9473  -23.4432   27.5928 C   0  0  0  0  0  0  0  0  0  0  0  0
  -29.3663  -17.9787   22.5379 C   0  0  0  0  0  0  0  0  0  0  0  0
  -30.0926  -17.2352   21.6077 C   0  0  0  0  0  0  0  0  0  0  0  0
  -22.4487   -8.0510   21.3666 C   0  0  0  0  0  0  0  0  0  0  0  0
  -25.4933  -21.0774   27.7146 C   0  0  0  0  0  0  0  0  0  0  0  0
  -21.0366   -6.7823   22.7518 C   0  0  0  0  0  0  0  0  0  0  0  0
  -30.3756  -20.0089   21.7032 C   0  0  0  0  0  0  0  0  0  0  0  0
  -19.5772   -6.5512   25.1181 C   0  0  0  0  0  0  0  0  0  0  0  0
  -20.0138   -7.6885   23.0317 C   0  0  0  0  0  0  0  0  0  0  0  0
  -24.5856  -11.6434   20.7137 C   0  0  0  0  0  0  0  0  0  0  0  0
  -25.1842  -13.7539   20.5639 C   0  0  0  0  0  0  0  0  0  0  0  0
  -22.8466  -13.4164   21.3824 C   0  0  0  0  0  0  0  0  0  0  0  0
  -23.2541  -25.4615   25.4277 C   0  0  0  0  0  0  0  0  0  0  0  0
  -24.6106  -27.2489   27.7702 C   0  0  0  0  0  0  0  0  0  0  0  0
  -26.5713  -27.3610   30.5613 C   0  0  0  0  0  0  0  0  0  0  0  0
  -30.6199  -14.9557   20.6738 C   0  0  0  0  0  0  0  0  0  0  0  0
  -22.0940  -29.2670   22.2294 C   0  0  0  0  0  0  0  0  0  0  0  0
  -22.5442  -24.2047   27.4947 C   0  0  0  0  0  0  0  0  0  0  0  0
  -25.4248  -24.8710   27.5505 C   0  0  0  0  0  0  0  0  0  0  0  0
  -23.3110  -28.8741   23.0629 C   0  0  0  0  0  0  0  0  0  0  0  0
  -29.5267  -12.6109   18.2276 C   0  0  0  0  0  0  0  0  0  0  0  0
  -23.6527  -27.4031   22.8483 C   0  0  0  0  0  0  0  0  0  0  0  0
  -28.1057  -12.2582   18.6730 C   0  0  0  0  0  0  0  0  0  0  0  0
  -30.4600  -12.8165   19.4194 C   0  0  0  0  0  0  0  0  0  0  0  0
  -28.5624  -13.4245   20.8680 C   0  0  0  0  0  0  0  0  0  0  0  0
  -22.4986  -26.4977   23.2955 C   0  0  1  0  0  0  0  0  0  0  0  0
  -23.0771  -25.5131   26.9189 C   0  0  1  0  0  0  0  0  0  0  0  0
  -27.5703  -13.2716   19.7035 C   0  0  2  0  0  0  0  0  0  0  0  0
  -27.5303  -28.9695   32.2317 C   0  0  0  0  0  0  0  0  0  0  0  0
  -27.8275  -14.5738   25.1042 C   0  0  0  0  0  0  0  0  0  0  0  0
  -26.6795  -28.1462   25.7149 C   0  0  0  0  0  0  0  0  0  0  0  0
  -28.1086  -28.9495   27.6071 C   0  0  0  0  0  0  0  0  0  0  0  0
  -25.8592  -29.9594   27.2294 C   0  0  0  0  0  0  0  0  0  0  0  0
  -25.1563  -26.0525   32.8073 C   0  0  0  0  0  0  0  0  0  0  0  0
  -28.4209  -17.3104   23.5045 C   0  0  0  0  0  0  0  0  0  0  0  0
  -29.1754  -16.6484   24.6621 C   0  0  0  0  0  0  0  0  0  0  0  0
  -27.3515  -18.1152   26.7468 C   0  0  0  0  0  0  0  0  0  0  0  0
  -27.0278  -16.7601   26.1152 C   0  0  0  0  0  0  0  0  0  0  0  0
  -26.0853  -18.8316   27.2027 C   0  0  0  0  0  0  0  0  0  1  0  0
  -26.0245  -27.6124   28.1546 C   0  0  1  0  0  0  0  0  0  0  0  0
  -26.3729  -28.0386   31.9051 C   0  0  2  0  0  0  0  0  0  0  0  0
  -28.2520  -15.9340   25.6686 C   0  0  1  0  0  0  0  0  0  0  0  0
  -26.6594  -28.6398   27.1753 C   0  0  0  0  0  0  0  0  0  0  0  0
  -25.8436  -11.6034   20.2665 N   0  0  0  0  0  0  0  0  0  0  0  0
  -26.1799  -12.9020   20.1855 N   0  0  0  0  0  0  0  0  0  0  0  0
  -24.3701  -25.8965   27.4894 N   0  0  0  0  0  0  0  0  0  0  0  0
  -29.8898  -13.7923   20.3508 N   0  0  0  0  0  0  0  0  0  0  0  0
  -25.3539  -15.0930   20.5434 N   0  0  0  0  0  0  0  0  0  0  0  0
  -21.8691  -12.4637   21.7008 N   0  0  0  0  0  0  0  0  0  0  0  0
  -29.9632  -15.8256   21.5436 N   0  0  0  0  0  0  0  0  0  0  0  0
  -22.4815  -26.3759   24.7375 N   0  0  0  0  0  0  0  0  0  0  0  0
  -25.9675  -28.0643   29.5405 N   0  0  0  0  0  0  0  0  0  0  0  0
  -26.2687  -27.0204   32.9883 N   0  3  0  0  0  0  0  0  0  0  0  0
  -22.5757  -14.6358   21.4968 O   0  0  0  0  0  0  0  0  0  0  0  0
  -24.0350  -24.6530   24.9396 O   0  0  0  0  0  0  0  0  0  0  0  0
  -23.7496  -28.1313   27.7279 O   0  0  0  0  0  0  0  0  0  0  0  0
  -27.2023  -26.3145   30.4297 O   0  0  0  0  0  0  0  0  0  0  0  0
  -31.7334  -15.1779   20.1913 O   0  0  0  0  0  0  0  0  0  0  0  0
  -21.7614   -6.8952   21.5773 O   0  0  0  0  0  0  0  0  0  0  0  0
  -26.4241  -20.0875   27.7895 O   0  0  0  0  0  0  0  0  0  1  0  0
  -30.5120  -21.3406   21.7493 F   0  0  0  0  0  0  0  0  0  0  0  0
  -18.8756   -6.4393   26.2536 F   0  0  0  0  0  0  0  0  0  0  0  0
  -19.7268   -8.6714   22.1672 F   0  0  0  0  0  0  0  0  0  0  0  0
  1  2  1  0  0  0  0
  1  5  2  0  0  0  0
  2  6  2  0  0  0  0
  3  9  2  0  0  0  0
  3 18  1  0  0  0  0
  4 10  1  0  0  0  0
  4 18  2  0  0  0  0
  5 20  1  0  0  0  0
  6 22  1  0  0  0  0
  7 11  2  0  0  0  0
  7 21  1  0  0  0  0
  8 13  2  0  0  0  0
  8 25  1  0  0  0  0
  9 26  1  0  0  0  0
 10 26  2  0  0  0  0
 11 27  1  0  0  0  0
 12 14  2  0  0  0  0
 12 28  1  0  0  0  0
 13 29  1  0  0  0  0
 14 30  1  0  0  0  0
 15 23  1  0  0  0  0
 15 27  2  0  0  0  0
 16 24  1  0  0  0  0
 16 29  2  0  0  0  0
 17 30  2  0  0  0  0
 17 31  1  0  0  0  0
 18 32  1  0  0  0  0
 19 32  1  0  0  0  0
 19 33  2  0  0  0  0
 19 34  1  0  0  0  0
 20 22  2  0  0  0  0
 20 39  1  0  0  0  0
 21 23  2  0  0  0  0
 21 40  1  0  0  0  0
 22 48  1  0  0  0  0
 23 41  1  0  0  0  0
 24 25  2  0  0  0  0
 24 57  1  0  0  0  0
 25 72  1  0  0  0  0
 26 81  1  0  0  0  0
 27 82  1  0  0  0  0
 28 31  2  0  0  0  0
 28 81  1  0  0  0  0
 29 83  1  0  0  0  0
 30 84  1  0  0  0  0
 31 85  1  0  0  0  0
 32 66  2  0  0  0  0
 33 67  1  0  0  0  0
 33 70  1  0  0  0  0
 34 71  1  0  0  0  0
 34 76  2  0  0  0  0
 35 49  1  0  0  0  0
 35 73  1  0  0  0  0
 35 77  2  0  0  0  0
 36 62  1  0  0  0  0
 36 68  1  0  0  0  0
 36 78  2  0  0  0  0
 37 63  1  0  0  0  0
 37 74  1  0  0  0  0
 37 79  2  0  0  0  0
 38 69  1  0  0  0  0
 38 72  1  0  0  0  0
 38 80  2  0  0  0  0
 39 42  1  0  0  0  0
 40 49  1  0  0  0  0
 41 68  1  0  0  0  0
 42 44  1  0  0  0  0
 43 45  1  0  0  0  0
 43 46  1  0  0  0  0
 44 48  1  0  0  0  0
 45 50  1  0  0  0  0
 46 69  1  0  0  0  0
 47 50  1  0  0  0  0
 47 69  1  0  0  0  0
 48 73  1  0  0  0  0
 49 68  1  0  0  0  0
 50 67  1  0  0  0  0
 51 63  1  0  0  0  0
 52 64  1  0  0  0  0
 53 65  1  0  0  0  0
 54 65  1  0  0  0  0
 55 65  1  0  0  0  0
 56 75  1  0  0  0  0
 57 58  1  0  0  0  0
 58 64  1  0  0  0  0
 59 60  1  0  0  0  0
 59 61  1  0  0  0  0
 60 64  1  0  0  0  0
 61 82  1  0  0  0  0
 62 65  1  0  0  0  0
 62 74  1  0  0  0  0
 63 75  1  0  0  0  0
 66 67  1  0  0  0  0
M  CHG  1  75   1
M  ISO  4  38 100  61 101  72 100  82 101
M  END
> <Batch ID>
0135

> <Smiles>
CNC(C)C(=O)NC(C(=O)N1Cc2cc([101O:1][101CH2:1]CCC(C)CCc3cc(F)ccc3[100NH:0][100C:0](=O)N3CCCC(n4nc(-c5ccc(Oc6ccc(F)cc6F)cc5)c(C(N)=O)c4N)C3)ccc2CC1C(=O)NC1CCCc2ccccc21)C(C)(C)C

> <Shape>
0.237

> <Color>
0.202

> <Negative vol penalty>
0.000

$$$$

  -OEChem-04052302363D

 86 94  0     1  0  0  0  0  0999 V2000
  -29.5272  -29.4894   21.0240 C   0  0  0  0  0  0  0  0  0  0  0  0
  -29.6220  -28.2983   21.7365 C   0  0  0  0  0  0  0  0  0  0  0  0
  -23.6364   -9.6919   20.7948 C   0  0  0  0  0  0  0  0  0  0  0  0
  -24.2587  -10.3756   23.0270 C   0  0  0  0  0  0  0  0  0  0  0  0
  -31.9921  -15.3440   25.3853 C   0  0  0  0  0  0  0  0  0  0  0  0
  -29.1505  -29.4694   19.6818 C   0  0  0  0  0  0  0  0  0  0  0  0
  -29.3390  -27.0864   21.1075 C   0  0  0  0  0  0  0  0  0  0  0  0
  -32.7514  -23.5001   22.1747 C   0  0  0  0  0  0  0  0  0  0  0  0
  -31.1721  -14.7719   24.4128 C   0  0  0  0  0  0  0  0  0  0  0  0
  -23.0788   -8.5213   21.3088 C   0  0  0  0  0  0  0  0  0  0  0  0
  -23.7010   -9.2049   23.5410 C   0  0  0  0  0  0  0  0  0  0  0  0
  -32.6482  -22.8720   23.4151 C   0  0  0  0  0  0  0  0  0  0  0  0
  -22.1210   -6.5655   25.4788 C   0  0  0  0  0  0  0  0  0  0  0  0
  -21.3193   -6.6727   26.6152 C   0  0  0  0  0  0  0  0  0  0  0  0
  -31.5514  -20.9963   22.3674 C   0  0  0  0  0  0  0  0  0  0  0  0
  -32.9049  -15.0964   22.7607 C   0  0  0  0  0  0  0  0  0  0  0  0
  -19.8162   -8.1362   25.4168 C   0  0  0  0  0  0  0  0  0  0  0  0
  -24.2264  -10.6191   21.6539 C   0  0  0  0  0  0  0  0  0  0  0  0
  -33.2685  -15.7924   25.0456 C   0  0  0  0  0  0  0  0  0  0  0  0
  -24.1564  -13.0630   20.9259 C   0  0  0  0  0  0  0  0  0  0  0  0
  -28.8721  -28.2559   19.0333 C   0  0  0  0  0  0  0  0  0  0  0  0
  -32.2447  -22.8848   21.0210 C   0  0  0  0  0  0  0  0  0  0  0  0
  -28.9569  -27.0503   19.7557 C   0  0  0  0  0  0  0  0  0  0  0  0
  -31.6516  -21.6176   21.1131 C   0  0  0  0  0  0  0  0  0  0  0  0
  -31.6284  -14.6481   23.1005 C   0  0  0  0  0  0  0  0  0  0  0  0
  -23.1111   -8.2777   22.6818 C   0  0  0  0  0  0  0  0  0  0  0  0
  -32.0456  -21.6212   23.5121 C   0  0  0  0  0  0  0  0  0  0  0  0
  -21.7703   -7.2437   24.3114 C   0  0  0  0  0  0  0  0  0  0  0  0
  -33.7249  -15.6685   23.7333 C   0  0  0  0  0  0  0  0  0  0  0  0
  -20.1669   -7.4580   26.5842 C   0  0  0  0  0  0  0  0  0  0  0  0
  -20.6179   -8.0290   24.2804 C   0  0  0  0  0  0  0  0  0  0  0  0
  -24.8031  -11.8283   21.1235 C   0  0  0  0  0  0  0  0  0  0  0  0
  -25.1293  -13.8807   20.4051 C   0  0  0  0  0  0  0  0  0  0  0  0
  -34.1281  -16.4005   26.1003 C   0  0  0  0  0  0  0  0  0  0  0  0
  -22.7977  -13.4373   21.1896 C   0  0  0  0  0  0  0  0  0  0  0  0
  -29.9940  -23.6094   18.8966 C   0  0  0  0  0  0  0  0  0  0  0  0
  -31.1262  -20.9752   17.3795 C   0  0  0  0  0  0  0  0  0  0  0  0
  -32.7689  -17.9914   17.5917 C   0  0  0  0  0  0  0  0  0  0  0  0
  -31.0938  -13.8699   20.7649 C   0  0  0  0  0  0  0  0  0  0  0  0
  -28.4228  -28.2883   17.5940 C   0  0  0  0  0  0  0  0  0  0  0  0
  -32.3877  -23.5637   19.6864 C   0  0  0  0  0  0  0  0  0  0  0  0
  -31.1100  -20.9055   19.9015 C   0  0  0  0  0  0  0  0  0  0  0  0
  -28.5034  -26.9311   16.9000 C   0  0  0  0  0  0  0  0  0  0  0  0
  -29.1397  -13.7347   17.7917 C   0  0  0  0  0  0  0  0  0  0  0  0
  -27.9056  -25.8424   17.7855 C   0  0  0  0  0  0  0  0  0  0  0  0
  -27.7455  -13.3488   18.2914 C   0  0  0  0  0  0  0  0  0  0  0  0
  -30.2408  -13.0342   18.5857 C   0  0  0  0  0  0  0  0  0  0  0  0
  -28.7606  -12.8106   20.5423 C   0  0  0  0  0  0  0  0  0  0  0  0
  -28.6820  -25.7136   19.1016 C   0  0  1  0  0  0  0  0  0  0  0  0
  -31.3765  -23.0729   18.6550 C   0  0  1  0  0  0  0  0  0  0  0  0
  -27.6199  -13.5413   19.8154 C   0  0  2  0  0  0  0  0  0  0  0  0
  -36.2654  -17.9692   22.6339 C   0  0  0  0  0  0  0  0  0  0  0  0
  -33.5077  -16.0454   16.1900 C   0  0  0  0  0  0  0  0  0  0  0  0
  -28.2620  -19.9244   17.3331 C   0  0  0  0  0  0  0  0  0  0  0  0
  -29.1778  -17.6526   16.8152 C   0  0  0  0  0  0  0  0  0  0  0  0
  -29.5495  -19.5376   15.2242 C   0  0  0  0  0  0  0  0  0  0  0  0
  -35.6221  -18.4838   18.2049 C   0  0  0  0  0  0  0  0  0  0  0  0
  -33.6703  -17.6468   26.8416 C   0  0  0  0  0  0  0  0  0  0  0  0
  -33.5399  -18.8287   25.8820 C   0  0  0  0  0  0  0  0  0  0  0  0
  -33.1290  -20.1030   26.6241 C   0  0  0  0  0  0  0  0  0  0  0  0
  -35.0432  -17.1128   22.3798 C   0  0  0  0  0  0  0  0  0  0  0  0
  -32.9597  -21.2889   25.6823 C   0  0  0  0  0  0  0  0  0  1  0  0
  -30.8074  -19.5001   17.4170 C   0  0  1  0  0  0  0  0  0  0  0  0
  -33.8947  -17.4001   16.7625 C   0  0  2  0  0  0  0  0  0  0  0  0
  -29.4575  -19.1677   16.7207 C   0  0  0  0  0  0  0  0  0  0  0  0
  -26.0875  -11.8546   20.7579 N   0  0  0  0  0  0  0  0  0  0  0  0
  -35.2758  -15.8732   26.3910 N   0  0  0  0  0  0  0  0  0  0  0  0
  -26.2557  -13.1158   20.3253 N   0  0  0  0  0  0  0  0  0  0  0  0
  -31.2679  -21.6130   18.6201 N   0  0  0  0  0  0  0  0  0  0  0  0
  -30.0594  -13.2642   20.0207 N   0  0  0  0  0  0  0  0  0  0  0  0
  -25.1226  -15.1723   20.0122 N   0  0  0  0  0  0  0  0  0  0  0  0
  -21.9314  -12.4745   21.7252 N   0  0  0  0  0  0  0  0  0  0  0  0
  -30.7950  -14.0674   22.1126 N   0  0  0  0  0  0  0  0  0  0  0  0
  -29.9170  -24.9891   18.8910 N   0  0  0  0  0  0  0  0  0  0  0  0
  -31.9611  -18.8184   16.8402 N   0  0  0  0  0  0  0  0  0  0  0  0
  -35.1166  -17.2258   17.5976 N   0  3  0  0  0  0  0  0  0  0  0  0
  -22.3604  -14.5866   20.9419 O   0  0  0  0  0  0  0  0  0  0  0  0
  -29.0656  -22.8294   19.0735 O   0  0  0  0  0  0  0  0  0  0  0  0
  -31.2521  -21.5392   16.2897 O   0  0  0  0  0  0  0  0  0  0  0  0
  -32.6188  -17.7415   18.7857 O   0  0  0  0  0  0  0  0  0  0  0  0
  -32.1553  -14.2147   20.2392 O   0  0  0  0  0  0  0  0  0  0  0  0
  -22.5668   -7.1356   23.1838 O   0  0  0  0  0  0  0  0  0  0  0  0
  -31.9430  -21.0062   24.7217 O   0  0  0  0  0  0  0  0  0  1  0  0
  -34.9687  -16.1009   23.3817 O   0  0  0  0  0  0  0  0  0  0  0  0
  -19.3964   -7.5596   27.6751 F   0  0  0  0  0  0  0  0  0  0  0  0
  -20.2753   -8.6819   23.1614 F   0  0  0  0  0  0  0  0  0  0  0  0
  1  2  1  0  0  0  0
  1  6  2  0  0  0  0
  2  7  2  0  0  0  0
  3 10  2  0  0  0  0
  3 18  1  0  0  0  0
  4 11  1  0  0  0  0
  4 18  2  0  0  0  0
  5  9  2  0  0  0  0
  5 19  1  0  0  0  0
  6 21  1  0  0  0  0
  7 23  1  0  0  0  0
  8 12  2  0  0  0  0
  8 22  1  0  0  0  0
  9 25  1  0  0  0  0
 10 26  1  0  0  0  0
 11 26  2  0  0  0  0
 12 27  1  0  0  0  0
 13 14  2  0  0  0  0
 13 28  1  0  0  0  0
 14 30  1  0  0  0  0
 15 24  1  0  0  0  0
 15 27  2  0  0  0  0
 16 25  2  0  0  0  0
 16 29  1  0  0  0  0
 17 30  2  0  0  0  0
 17 31  1  0  0  0  0
 18 32  1  0  0  0  0
 19 29  2  0  0  0  0
 19 34  1  0  0  0  0
 20 32  1  0  0  0  0
 20 33  2  0  0  0  0
 20 35  1  0  0  0  0
 21 23  2  0  0  0  0
 21 40  1  0  0  0  0
 22 24  2  0  0  0  0
 22 41  1  0  0  0  0
 23 49  1  0  0  0  0
 24 42  1  0  0  0  0
 25 73  1  0  0  0  0
 26 82  1  0  0  0  0
 27 83  1  0  0  0  0
 28 31  2  0  0  0  0
 28 82  1  0  0  0  0
 29 84  1  0  0  0  0
 30 85  1  0  0  0  0
 31 86  1  0  0  0  0
 32 66  2  0  0  0  0
 33 68  1  0  0  0  0
 33 71  1  0  0  0  0
 34 58  1  0  0  0  0
 34 67  2  0  0  0  0
 35 72  1  0  0  0  0
 35 77  2  0  0  0  0
 36 50  1  0  0  0  0
 36 74  1  0  0  0  0
 36 78  2  0  0  0  0
 37 63  1  0  0  0  0
 37 69  1  0  0  0  0
 37 79  2  0  0  0  0
 38 64  1  0  0  0  0
 38 75  1  0  0  0  0
 38 80  2  0  0  0  0
 39 70  1  0  0  0  0
 39 73  1  0  0  0  0
 39 81  2  0  0  0  0
 40 43  1  0  0  0  0
 41 50  1  0  0  0  0
 42 69  1  0  0  0  0
 43 45  1  0  0  0  0
 44 46  1  0  0  0  0
 44 47  1  0  0  0  0
 45 49  1  0  0  0  0
 46 51  1  0  0  0  0
 47 70  1  0  0  0  0
 48 51  1  0  0  0  0
 48 70  1  0  0  0  0
 49 74  1  0  0  0  0
 50 69  1  0  0  0  0
 51 68  1  0  0  0  0
 52 61  1  0  0  0  0
 53 64  1  0  0  0  0
 54 65  1  0  0  0  0
 55 65  1  0  0  0  0
 56 65  1  0  0  0  0
 57 76  1  0  0  0  0
 58 59  1  0  0  0  0
 59 60  1  0  0  0  0
 60 62  1  0  0  0  0
 61 84  1  0  0  0  0
 62 83  1  0  0  0  0
 63 65  1  0  0  0  0
 63 75  1  0  0  0  0
 64 76  1  0  0  0  0
 66 68  1  0  0  0  0
M  CHG  1  76   1
M  ISO  4  39 100  62 101  73 100  83 101
M  END
> <Batch ID>
0135

> <Smiles>
CCOc1cc([100NH:0][100C:0](=O)N2CCCC(n3nc(-c4ccc(Oc5ccc(F)cc5F)cc4)c(C(N)=O)c3N)C2)ccc1C(=N)CCC[101CH2:1][101O:1]c1ccc2c(c1)CN(C(=O)C(NC(=O)C(C)NC)C(C)(C)C)C(C(=O)NC1CCCc3ccccc31)C2

> <Shape>
0.197

> <Color>
0.158

> <Negative vol penalty>
0.000

$$$$

  -OEChem-04052302363D

 91100  0     1  0  0  0  0  0999 V2000
  -22.3286   -8.3074   24.5976 C   0  0  0  0  0  0  0  0  0  0  0  0
  -23.2069   -8.7479   23.6127 C   0  0  0  0  0  0  0  0  0  0  0  0
  -25.6791  -27.8863   19.4830 C   0  0  0  0  0  0  0  0  0  0  0  0
  -27.0527  -29.2396   20.9387 C   0  0  0  0  0  0  0  0  0  0  0  0
  -21.0466   -8.8492   24.6797 C   0  0  0  0  0  0  0  0  0  0  0  0
  -22.8032   -9.7297   22.7086 C   0  0  0  0  0  0  0  0  0  0  0  0
  -26.3297  -13.2964   22.0107 C   0  0  0  0  0  0  0  0  0  0  0  0
  -24.6890  -28.8686   19.5041 C   0  0  0  0  0  0  0  0  0  0  0  0
  -26.0626  -30.2219   20.9597 C   0  0  0  0  0  0  0  0  0  0  0  0
  -27.4004  -12.9785   21.1763 C   0  0  0  0  0  0  0  0  0  0  0  0
  -21.6485  -30.8628   19.4651 C   0  0  0  0  0  0  0  0  0  0  0  0
  -20.3279  -30.4510   19.6444 C   0  0  0  0  0  0  0  0  0  0  0  0
  -26.3482  -14.1895   19.3747 C   0  0  0  0  0  0  0  0  0  0  0  0
  -32.1664  -15.4609   23.1315 C   0  0  0  0  0  0  0  0  0  0  0  0
  -20.9193  -29.4836   21.7778 C   0  0  0  0  0  0  0  0  0  0  0  0
  -26.8610  -28.0718   20.2004 C   0  0  0  0  0  0  0  0  0  0  0  0
  -28.9542  -26.9477   19.2716 C   0  0  0  0  0  0  0  0  0  0  0  0
  -20.6302   -9.8450   23.7822 C   0  0  0  0  0  0  0  0  0  0  0  0
  -25.2532  -14.0553   21.5294 C   0  0  0  0  0  0  0  0  0  0  0  0
  -21.5139  -10.2843   22.7779 C   0  0  0  0  0  0  0  0  0  0  0  0
  -25.2663  -14.5178   20.2058 C   0  0  0  0  0  0  0  0  0  0  0  0
  -32.2103  -16.4683   22.1384 C   0  0  0  0  0  0  0  0  0  0  0  0
  -24.8808  -30.0364   20.2424 C   0  0  0  0  0  0  0  0  0  0  0  0
  -27.4084  -13.4226   19.8572 C   0  0  0  0  0  0  0  0  0  0  0  0
  -22.6045  -30.5850   20.4421 C   0  0  0  0  0  0  0  0  0  0  0  0
  -19.9633  -29.7614   20.8008 C   0  0  0  0  0  0  0  0  0  0  0  0
  -22.2399  -29.8954   21.5985 C   0  0  0  0  0  0  0  0  0  0  0  0
  -27.8839  -27.0572   20.1795 C   0  0  0  0  0  0  0  0  0  0  0  0
  -31.1746  -17.3283   22.4206 C   0  0  0  0  0  0  0  0  0  0  0  0
  -31.1071  -15.7772   23.9500 C   0  0  0  0  0  0  0  0  0  0  0  0
  -29.6338  -25.8247   19.6758 C   0  0  0  0  0  0  0  0  0  0  0  0
  -30.9561  -14.8391   18.5961 C   0  0  0  0  0  0  0  0  0  0  0  0
  -30.8038  -18.4985   21.7169 C   0  0  0  0  0  0  0  0  0  0  0  0
  -29.7772  -19.3557   22.0290 C   0  0  0  0  0  0  0  0  0  0  0  0
  -29.3029  -27.7863   18.1622 C   0  0  0  0  0  0  0  0  0  0  0  0
  -29.5208  -20.5484   21.1967 C   0  0  0  0  0  0  0  0  0  0  0  0
  -22.1387  -13.5435   21.1531 C   0  0  0  0  0  0  0  0  0  0  0  0
  -22.1170  -16.6840   20.3412 C   0  0  0  0  0  0  0  0  0  0  0  0
  -23.8412  -19.3847   19.1664 C   0  0  0  0  0  0  0  0  0  0  0  0
  -19.2186  -10.3668   23.8806 C   0  0  0  0  0  0  0  0  0  0  0  0
  -24.1185  -14.4123   22.4499 C   0  0  0  0  0  0  0  0  0  0  0  0
  -24.1445  -15.3527   19.6464 C   0  0  0  0  0  0  0  0  0  0  0  0
  -18.9969  -11.6712   23.1192 C   0  0  0  0  0  0  0  0  0  0  0  0
  -29.2301  -23.0450   23.8640 C   0  0  0  0  0  0  0  0  0  0  0  0
  -19.6052  -11.5843   21.7230 C   0  0  0  0  0  0  0  0  0  0  0  0
  -28.8928  -24.2970   23.0588 C   0  0  0  0  0  0  0  0  0  0  0  0
  -32.2066  -12.8660   19.0916 C   0  0  0  0  0  0  0  0  0  0  0  0
  -28.6272  -21.7860   23.2427 C   0  0  0  0  0  0  0  0  0  0  0  0
  -32.7615  -14.0291   19.8918 C   0  0  0  0  0  0  0  0  0  0  0  0
  -28.6552  -22.8476   21.0038 C   0  0  0  0  0  0  0  0  0  0  0  0
  -21.1213  -11.3654   21.7944 C   0  0  1  0  0  0  0  0  0  0  0  0
  -30.8128  -13.3300   18.6559 C   0  0  1  0  0  0  0  0  0  0  0  0
  -22.8316  -14.7566   21.7064 C   0  0  1  0  0  0  0  0  0  0  0  0
  -29.2911  -24.1201   21.5850 C   0  0  1  0  0  0  0  0  0  0  0  0
  -30.5372  -15.1426   25.1469 C   0  0  0  0  0  0  0  0  0  0  0  0
  -24.2769  -21.7737   18.5336 C   0  0  0  0  0  0  0  0  0  0  0  0
  -20.7044  -15.8781   17.7595 C   0  0  0  0  0  0  0  0  0  0  0  0
  -21.2855  -18.1256   16.8219 C   0  0  0  0  0  0  0  0  0  0  0  0
  -19.8155  -17.9561   18.8302 C   0  0  0  0  0  0  0  0  0  0  0  0
  -33.7876  -18.5689   18.6670 C   0  0  0  0  0  0  0  0  0  0  0  0
  -34.7270  -16.2726   18.3366 C   0  0  0  0  0  0  0  0  0  0  0  0
  -32.6823  -16.9622   17.0987 C   0  0  0  0  0  0  0  0  0  0  0  0
  -24.7536  -20.0635   21.8987 C   0  0  0  0  0  0  0  0  0  0  0  0
  -33.2058  -16.5613   21.0027 C   0  0  0  0  0  0  0  0  0  0  0  0
  -29.7295  -12.9459   19.6539 C   0  0  0  0  0  0  0  0  0  1  0  0
  -22.2838  -17.4569   19.0552 C   0  0  1  0  0  0  0  0  0  0  0  0
  -23.9315  -20.8162   19.6635 C   0  0  2  0  0  0  0  0  0  0  0  0
  -32.5346  -16.5240   19.6119 C   0  0  1  0  0  0  0  0  0  0  0  0
  -21.0427  -17.3368   18.1264 C   0  0  0  0  0  0  0  0  0  0  0  0
  -33.4196  -17.0895   18.4483 C   0  0  0  0  0  0  0  0  0  0  0  0
  -27.8795  -26.0815   21.0916 N   0  0  0  0  0  0  0  0  0  0  0  0
  -28.9554  -25.3481   20.7588 N   0  0  0  0  0  0  0  0  0  0  0  0
  -32.0924  -15.1762   19.3267 N   0  0  0  0  0  0  0  0  0  0  0  0
  -28.9740  -21.6696   21.8183 N   0  0  0  0  0  0  0  0  0  0  0  0
  -23.0545  -15.6701   20.5839 N   0  0  0  0  0  0  0  0  0  0  0  0
  -30.7394  -25.2081   19.2069 N   0  0  0  0  0  0  0  0  0  0  0  0
  -28.4970  -28.8993   17.8866 N   0  0  0  0  0  0  0  0  0  0  0  0
  -21.7968  -12.6060   22.1089 N   0  0  0  0  0  0  0  0  0  0  0  0
  -22.6112  -18.8253   19.4409 N   0  0  0  0  0  0  0  0  0  0  0  0
  -24.9798  -20.9339   20.7162 N   0  3  0  0  0  0  0  0  0  0  0  0
  -30.1684  -15.5906   18.0398 O   0  0  0  0  0  0  0  0  0  0  0  0
  -30.2903  -27.5461   17.4267 O   0  0  0  0  0  0  0  0  0  0  0  0
  -29.8025  -20.4772   19.9991 O   0  0  0  0  0  0  0  0  0  0  0  0
  -21.9284  -13.4647   19.9484 O   0  0  0  0  0  0  0  0  0  0  0  0
  -21.1934  -16.9741   21.1057 O   0  0  0  0  0  0  0  0  0  0  0  0
  -24.7678  -18.8205   18.5887 O   0  0  0  0  0  0  0  0  0  0  0  0
  -30.4973  -16.9141   23.5234 O   0  0  0  0  0  0  0  0  0  0  0  0
  -23.9149  -30.9952   20.2630 O   0  0  0  0  0  0  0  0  0  0  0  0
  -28.4520  -13.1131   19.0405 O   0  0  0  0  0  0  0  0  0  1  0  0
  -18.6949  -29.3673   20.9735 F   0  0  0  0  0  0  0  0  0  0  0  0
  -23.1536  -29.6266   22.5411 F   0  0  0  0  0  0  0  0  0  0  0  0
  1  2  1  0  0  0  0
  1  5  2  0  0  0  0
  2  6  2  0  0  0  0
  3  8  2  0  0  0  0
  3 16  1  0  0  0  0
  4  9  1  0  0  0  0
  4 16  2  0  0  0  0
  5 18  1  0  0  0  0
  6 20  1  0  0  0  0
  7 10  2  0  0  0  0
  7 19  1  0  0  0  0
  8 23  1  0  0  0  0
  9 23  2  0  0  0  0
 10 24  1  0  0  0  0
 11 12  2  0  0  0  0
 11 25  1  0  0  0  0
 12 26  1  0  0  0  0
 13 21  1  0  0  0  0
 13 24  2  0  0  0  0
 14 22  1  0  0  0  0
 14 30  2  0  0  0  0
 15 26  2  0  0  0  0
 15 27  1  0  0  0  0
 16 28  1  0  0  0  0
 17 28  1  0  0  0  0
 17 31  2  0  0  0  0
 17 35  1  0  0  0  0
 18 20  2  0  0  0  0
 18 40  1  0  0  0  0
 19 21  2  0  0  0  0
 19 41  1  0  0  0  0
 20 51  1  0  0  0  0
 21 42  1  0  0  0  0
 22 29  2  0  0  0  0
 22 64  1  0  0  0  0
 23 88  1  0  0  0  0
 24 89  1  0  0  0  0
 25 27  2  0  0  0  0
 25 88  1  0  0  0  0
 26 90  1  0  0  0  0
 27 91  1  0  0  0  0
 28 71  2  0  0  0  0
 29 33  1  0  0  0  0
 29 87  1  0  0  0  0
 30 55  1  0  0  0  0
 30 87  1  0  0  0  0
 31 72  1  0  0  0  0
 31 76  1  0  0  0  0
 32 52  1  0  0  0  0
 32 73  1  0  0  0  0
 32 81  2  0  0  0  0
 33 34  2  0  0  0  0
 34 36  1  0  0  0  0
 35 77  1  0  0  0  0
 35 82  2  0  0  0  0
 36 74  1  0  0  0  0
 36 83  2  0  0  0  0
 37 53  1  0  0  0  0
 37 78  1  0  0  0  0
 37 84  2  0  0  0  0
 38 66  1  0  0  0  0
 38 75  1  0  0  0  0
 38 85  2  0  0  0  0
 39 67  1  0  0  0  0
 39 79  1  0  0  0  0
 39 86  2  0  0  0  0
 40 43  1  0  0  0  0
 41 53  1  0  0  0  0
 42 75  1  0  0  0  0
 43 45  1  0  0  0  0
 44 46  1  0  0  0  0
 44 48  1  0  0  0  0
 45 51  1  0  0  0  0
 46 54  1  0  0  0  0
 47 49  1  0  0  0  0
 47 52  1  0  0  0  0
 48 74  1  0  0  0  0
 49 73  1  0  0  0  0
 50 54  1  0  0  0  0
 50 74  1  0  0  0  0
 51 78  1  0  0  0  0
 52 65  1  0  0  0  0
 53 75  1  0  0  0  0
 54 72  1  0  0  0  0
 56 67  1  0  0  0  0
 57 69  1  0  0  0  0
 58 69  1  0  0  0  0
 59 69  1  0  0  0  0
 60 70  1  0  0  0  0
 61 70  1  0  0  0  0
 62 70  1  0  0  0  0
 63 80  1  0  0  0  0
 64 68  1  0  0  0  0
 65 89  1  0  0  0  0
 66 69  1  0  0  0  0
 66 79  1  0  0  0  0
 67 80  1  0  0  0  0
 68 70  1  0  0  0  0
 68 73  1  0  0  0  0
 71 72  1  0  0  0  0
M  CHG  1  80   1
M  ISO  4  34 100  36 100  65 101  89 101
M  END
> <Batch ID>
0135

> <Smiles>
CNC(C)C(=O)NC(C(=O)N1Cc2cc([101O:1][101CH2:1]C3CCN(C(Cc4cc(C)oc4C=[100CH:0][100C:0](=O)N4CCCC(n5nc(-c6ccc(Oc7ccc(F)cc7F)cc6)c(C(N)=O)c5N)C4)C(C)(C)C)C3=O)ccc2CC1C(=O)NC1CCCc2ccccc21)C(C)(C)C

> <Shape>
0.230

> <Color>
0.067

> <Negative vol penalty>
0.000

$$$$

  -OEChem-04052302363D

 86 94  0     1  0  0  0  0  0999 V2000
  -19.7092  -33.8917   21.3283 C   0  0  0  0  0  0  0  0  0  0  0  0
  -20.9644  -33.4329   20.9420 C   0  0  0  0  0  0  0  0  0  0  0  0
  -25.9752  -13.9540   21.2767 C   0  0  0  0  0  0  0  0  0  0  0  0
  -26.3070  -13.9945   18.8839 C   0  0  0  0  0  0  0  0  0  0  0  0
  -19.0269  -33.2604   22.3674 C   0  0  0  0  0  0  0  0  0  0  0  0
  -21.5386  -32.3431   21.5955 C   0  0  0  0  0  0  0  0  0  0  0  0
  -25.1089  -28.0279   19.1179 C   0  0  0  0  0  0  0  0  0  0  0  0
  -29.8533  -25.6896   14.5446 C   0  0  0  0  0  0  0  0  0  0  0  0
  -24.8657  -13.1254   21.1089 C   0  0  0  0  0  0  0  0  0  0  0  0
  -25.1975  -13.1659   18.7161 C   0  0  0  0  0  0  0  0  0  0  0  0
  -26.4925  -27.8593   19.0869 C   0  0  0  0  0  0  0  0  0  0  0  0
  -29.7037  -24.3731   14.9803 C   0  0  0  0  0  0  0  0  0  0  0  0
  -24.2696   -9.8500   20.5184 C   0  0  0  0  0  0  0  0  0  0  0  0
  -24.1507   -8.7467   21.3635 C   0  0  0  0  0  0  0  0  0  0  0  0
  -26.3501  -26.3892   20.9942 C   0  0  0  0  0  0  0  0  0  0  0  0
  -31.2302  -24.8029   16.8030 C   0  0  0  0  0  0  0  0  0  0  0  0
  -22.0434   -9.6000   22.1810 C   0  0  0  0  0  0  0  0  0  0  0  0
  -26.6958  -14.3886   20.1642 C   0  0  0  0  0  0  0  0  0  0  0  0
  -29.1804  -14.8480   20.5156 C   0  0  0  0  0  0  0  0  0  0  0  0
  -19.5888  -32.1563   23.0276 C   0  0  0  0  0  0  0  0  0  0  0  0
  -24.3354  -27.3860   20.0957 C   0  0  0  0  0  0  0  0  0  0  0  0
  -20.8638  -31.6973   22.6454 C   0  0  0  0  0  0  0  0  0  0  0  0
  -24.9565  -26.5493   21.0339 C   0  0  0  0  0  0  0  0  0  0  0  0
  -30.6914  -26.5628   15.2380 C   0  0  0  0  0  0  0  0  0  0  0  0
  -31.3798  -26.1195   16.3673 C   0  0  0  0  0  0  0  0  0  0  0  0
  -24.4769  -12.7314   19.8286 C   0  0  0  0  0  0  0  0  0  0  0  0
  -27.1136  -27.0422   20.0269 C   0  0  0  0  0  0  0  0  0  0  0  0
  -30.3921  -23.9297   16.1095 C   0  0  0  0  0  0  0  0  0  0  0  0
  -23.2754  -10.8283   20.5046 C   0  0  0  0  0  0  0  0  0  0  0  0
  -23.0376   -8.6217   22.1948 C   0  0  0  0  0  0  0  0  0  0  0  0
  -22.1623  -10.7033   21.3359 C   0  0  0  0  0  0  0  0  0  0  0  0
  -27.8416  -15.2450   20.3369 C   0  0  0  0  0  0  0  0  0  0  0  0
  -29.8756  -16.0269   20.6311 C   0  0  0  0  0  0  0  0  0  0  0  0
  -29.7451  -13.5313   20.5720 C   0  0  0  0  0  0  0  0  0  0  0  0
  -22.4415  -28.3615   22.4548 C   0  0  0  0  0  0  0  0  0  0  0  0
  -30.6709  -27.3029   19.0950 C   0  0  0  0  0  0  0  0  0  0  0  0
  -28.6879  -21.5915   18.6981 C   0  0  0  0  0  0  0  0  0  0  0  0
  -21.8129  -25.1918   22.7377 C   0  0  0  0  0  0  0  0  0  0  0  0
  -22.8315  -21.9777   22.2097 C   0  0  0  0  0  0  0  0  0  0  0  0
  -18.8339  -31.5361   24.1766 C   0  0  0  0  0  0  0  0  0  0  0  0
  -22.8410  -27.5570   20.0992 C   0  0  0  0  0  0  0  0  0  0  0  0
  -24.1690  -25.8217   22.0916 C   0  0  0  0  0  0  0  0  0  0  0  0
  -19.3492  -30.1537   24.5685 C   0  0  0  0  0  0  0  0  0  0  0  0
  -29.3697  -20.5568   22.0603 C   0  0  0  0  0  0  0  0  0  0  0  0
  -20.8715  -30.1591   24.6652 C   0  0  0  0  0  0  0  0  0  0  0  0
  -29.1491  -19.0451   22.0224 C   0  0  0  0  0  0  0  0  0  0  0  0
  -28.4006  -21.2859   21.1349 C   0  0  0  0  0  0  0  0  0  0  0  0
  -28.2125  -19.2934   19.6801 C   0  0  0  0  0  0  0  0  0  0  0  0
  -21.5090  -30.5025   23.3135 C   0  0  1  0  0  0  0  0  0  0  0  0
  -22.2091  -27.2631   21.4562 C   0  0  1  0  0  0  0  0  0  0  0  0
  -29.1917  -18.5163   20.5778 C   0  0  2  0  0  0  0  0  0  0  0  0
  -31.7458  -28.0676   13.5320 C   0  0  0  0  0  0  0  0  0  0  0  0
  -22.1218  -19.5998   22.5828 C   0  0  0  0  0  0  0  0  0  0  0  0
  -22.5575  -25.4348   25.6866 C   0  0  0  0  0  0  0  0  0  0  0  0
  -22.7541  -22.9403   25.7707 C   0  0  0  0  0  0  0  0  0  0  0  0
  -20.5613  -23.9993   25.2296 C   0  0  0  0  0  0  0  0  0  0  0  0
  -22.8103  -21.4064   19.3059 C   0  0  0  0  0  0  0  0  0  0  0  0
  -30.8355  -27.9677   14.7524 C   0  0  0  0  0  0  0  0  0  0  0  0
  -32.2934  -27.0461   17.1333 C   0  0  0  0  0  0  0  0  0  0  0  0
  -31.5474  -28.0022   18.0660 C   0  0  0  0  0  0  0  0  0  0  0  0
  -29.1828  -27.5695   18.9798 C   0  0  0  0  0  0  0  0  0  1  0  0
  -28.7338  -20.9550   17.3318 C   0  0  0  0  0  0  0  0  0  0  0  0
  -28.9944  -22.0126   16.2738 C   0  0  0  0  0  0  0  0  0  0  0  0
  -22.4177  -24.0470   23.5139 C   0  0  1  0  0  0  0  0  0  0  0  0
  -22.1131  -20.7773   21.6203 C   0  0  2  0  0  0  0  0  0  0  0  0
  -22.0880  -24.1204   25.0316 C   0  0  0  0  0  0  0  0  0  0  0  0
  -27.6928  -16.5723   20.3382 N   0  0  0  0  0  0  0  0  0  0  0  0
  -28.9471  -17.0196   20.5193 N   0  0  0  0  0  0  0  0  0  0  0  0
  -22.7114  -26.0260   22.0576 N   0  0  0  0  0  0  0  0  0  0  0  0
  -28.4549  -20.7395   19.7778 N   0  0  0  0  0  0  0  0  0  0  0  0
  -31.1844  -16.3008   20.8165 N   0  0  0  0  0  0  0  0  0  0  0  0
  -28.8884  -12.4305   20.4354 N   0  0  0  0  0  0  0  0  0  0  0  0
  -21.4796  -29.3533   22.4343 N   0  0  0  0  0  0  0  0  0  0  0  0
  -21.9605  -22.8248   22.8616 N   0  0  0  0  0  0  0  0  0  0  0  0
  -22.7696  -20.3522   20.3517 N   0  3  0  0  0  0  0  0  0  0  0  0
  -30.9706  -13.3364   20.7552 O   0  0  0  0  0  0  0  0  0  0  0  0
  -23.4203  -28.3120   23.1906 O   0  0  0  0  0  0  0  0  0  0  0  0
  -31.1269  -26.5410   19.9459 O   0  0  0  0  0  0  0  0  0  0  0  0
  -28.8573  -22.8092   18.8009 O   0  0  0  0  0  0  0  0  0  0  0  0
  -20.5878  -25.3361   22.7290 O   0  0  0  0  0  0  0  0  0  0  0  0
  -24.0447  -22.1452   22.1055 O   0  0  0  0  0  0  0  0  0  0  0  0
  -23.3945  -11.9227   19.6645 O   0  0  0  0  0  0  0  0  0  0  0  0
  -28.4641  -26.8763   19.9993 O   0  0  0  0  0  0  0  0  0  1  0  0
  -30.2466  -22.6449   16.5346 O   0  0  0  0  0  0  0  0  0  0  0  0
  -22.9228   -7.5613   23.0052 F   0  0  0  0  0  0  0  0  0  0  0  0
  -21.2034  -11.6393   21.3262 F   0  0  0  0  0  0  0  0  0  0  0  0
  1  2  1  0  0  0  0
  1  5  2  0  0  0  0
  2  6  2  0  0  0  0
  3  9  2  0  0  0  0
  3 18  1  0  0  0  0
  4 10  1  0  0  0  0
  4 18  2  0  0  0  0
  5 20  1  0  0  0  0
  6 22  1  0  0  0  0
  7 11  2  0  0  0  0
  7 21  1  0  0  0  0
  8 12  2  0  0  0  0
  8 24  1  0  0  0  0
  9 26  1  0  0  0  0
 10 26  2  0  0  0  0
 11 27  1  0  0  0  0
 12 28  1  0  0  0  0
 13 14  2  0  0  0  0
 13 29  1  0  0  0  0
 14 30  1  0  0  0  0
 15 23  1  0  0  0  0
 15 27  2  0  0  0  0
 16 25  1  0  0  0  0
 16 28  2  0  0  0  0
 17 30  2  0  0  0  0
 17 31  1  0  0  0  0
 18 32  1  0  0  0  0
 19 32  1  0  0  0  0
 19 33  2  0  0  0  0
 19 34  1  0  0  0  0
 20 22  2  0  0  0  0
 20 40  1  0  0  0  0
 21 23  2  0  0  0  0
 21 41  1  0  0  0  0
 22 49  1  0  0  0  0
 23 42  1  0  0  0  0
 24 25  2  0  0  0  0
 24 58  1  0  0  0  0
 25 59  1  0  0  0  0
 26 82  1  0  0  0  0
 27 83  1  0  0  0  0
 28 84  1  0  0  0  0
 29 31  2  0  0  0  0
 29 82  1  0  0  0  0
 30 85  1  0  0  0  0
 31 86  1  0  0  0  0
 32 67  2  0  0  0  0
 33 68  1  0  0  0  0
 33 71  1  0  0  0  0
 34 72  1  0  0  0  0
 34 76  2  0  0  0  0
 35 50  1  0  0  0  0
 35 73  1  0  0  0  0
 35 77  2  0  0  0  0
 36 60  1  0  0  0  0
 36 61  1  0  0  0  0
 36 78  2  0  0  0  0
 37 62  1  0  0  0  0
 37 70  1  0  0  0  0
 37 79  2  0  0  0  0
 38 64  1  0  0  0  0
 38 69  1  0  0  0  0
 38 80  2  0  0  0  0
 39 65  1  0  0  0  0
 39 74  1  0  0  0  0
 39 81  2  0  0  0  0
 40 43  1  0  0  0  0
 41 50  1  0  0  0  0
 42 69  1  0  0  0  0
 43 45  1  0  0  0  0
 44 46  1  0  0  0  0
 44 47  1  0  0  0  0
 45 49  1  0  0  0  0
 46 51  1  0  0  0  0
 47 70  1  0  0  0  0
 48 51  1  0  0  0  0
 48 70  1  0  0  0  0
 49 73  1  0  0  0  0
 50 69  1  0  0  0  0
 51 68  1  0  0  0  0
 52 58  1  0  0  0  0
 53 65  1  0  0  0  0
 54 66  1  0  0  0  0
 55 66  1  0  0  0  0
 56 66  1  0  0  0  0
 57 75  1  0  0  0  0
 59 60  1  0  0  0  0
 61 83  1  0  0  0  0
 62 63  1  0  0  0  0
 63 84  1  0  0  0  0
 64 66  1  0  0  0  0
 64 74  1  0  0  0  0
 65 75  1  0  0  0  0
 67 68  1  0  0  0  0
M  CHG  1  75   1
M  ISO  4  37 100  61 101  62 100  83 101
M  END
> <Batch ID>
0135

> <Smiles>
CCc1ccc(OC[100CH2:0][100C:0](=O)N2CCCC(n3nc(-c4ccc(Oc5ccc(F)cc5F)cc4)c(C(N)=O)c3N)C2)cc1CCC(=O)[101CH2:1][101O:1]c1ccc2c(c1)CN(C(=O)C(NC(=O)C(C)NC)C(C)(C)C)C(C(=O)NC1CCCc3ccccc31)C2

> <Shape>
0.243

> <Color>
0.104

> <Negative vol penalty>
0.000

$$$$

  -OEChem-04052302363D

 84 92  0     1  0  0  0  0  0999 V2000
  -27.3491  -34.3229   25.3484 C   0  0  0  0  0  0  0  0  0  0  0  0
  -27.6886  -33.1979   24.6037 C   0  0  0  0  0  0  0  0  0  0  0  0
  -24.3026  -10.1525   22.6999 C   0  0  0  0  0  0  0  0  0  0  0  0
  -24.3025  -11.7464   24.5155 C   0  0  0  0  0  0  0  0  0  0  0  0
  -26.1228  -34.3758   26.0096 C   0  0  0  0  0  0  0  0  0  0  0  0
  -26.8022  -32.1246   24.5207 C   0  0  0  0  0  0  0  0  0  0  0  0
  -26.3386  -30.3484   19.8010 C   0  0  0  0  0  0  0  0  0  0  0  0
  -30.1099  -19.8680   19.9240 C   0  0  0  0  0  0  0  0  0  0  0  0
  -23.8185   -9.1694   23.5628 C   0  0  0  0  0  0  0  0  0  0  0  0
  -23.8183  -10.7633   25.3785 C   0  0  0  0  0  0  0  0  0  0  0  0
  -27.3624  -29.5304   19.3251 C   0  0  0  0  0  0  0  0  0  0  0  0
  -30.1367  -21.2060   19.5311 C   0  0  0  0  0  0  0  0  0  0  0  0
  -20.8511   -8.2942   24.9272 C   0  0  0  0  0  0  0  0  0  0  0  0
  -19.8057   -7.4903   24.4727 C   0  0  0  0  0  0  0  0  0  0  0  0
  -26.0171  -27.5838   19.7945 C   0  0  0  0  0  0  0  0  0  0  0  0
  -27.7486  -20.0549   20.3999 C   0  0  0  0  0  0  0  0  0  0  0  0
  -21.1920   -5.5310   24.7495 C   0  0  0  0  0  0  0  0  0  0  0  0
  -24.5447  -11.4410   23.1762 C   0  0  0  0  0  0  0  0  0  0  0  0
  -24.2885  -13.3490   21.5024 C   0  0  0  0  0  0  0  0  0  0  0  0
  -25.2169  -33.3066   25.9268 C   0  0  0  0  0  0  0  0  0  0  0  0
  -25.1487  -29.7888   20.2882 C   0  0  0  0  0  0  0  0  0  0  0  0
  -25.5632  -32.1627   25.1825 C   0  0  0  0  0  0  0  0  0  0  0  0
  -24.9787  -28.3970   20.2737 C   0  0  0  0  0  0  0  0  0  0  0  0
  -28.9159  -19.2923   20.3584 C   0  0  0  0  0  0  0  0  0  0  0  0
  -23.5763   -9.4748   24.9021 C   0  0  0  0  0  0  0  0  0  0  0  0
  -27.2029  -28.1478   19.3245 C   0  0  0  0  0  0  0  0  0  0  0  0
  -28.9694  -21.9686   19.5725 C   0  0  0  0  0  0  0  0  0  0  0  0
  -22.0670   -7.7165   25.2927 C   0  0  0  0  0  0  0  0  0  0  0  0
  -27.7754  -21.3930   20.0070 C   0  0  0  0  0  0  0  0  0  0  0  0
  -19.9762   -6.1088   24.3839 C   0  0  0  0  0  0  0  0  0  0  0  0
  -22.2375   -6.3349   25.2039 C   0  0  0  0  0  0  0  0  0  0  0  0
  -25.0454  -12.4568   22.2854 C   0  0  0  0  0  0  0  0  0  0  0  0
  -25.2253  -14.1044   20.8404 C   0  0  0  0  0  0  0  0  0  0  0  0
  -22.8660  -13.4829   21.3841 C   0  0  0  0  0  0  0  0  0  0  0  0
  -23.6572  -29.7830   23.0952 C   0  0  0  0  0  0  0  0  0  0  0  0
  -21.3310  -28.2689   21.4164 C   0  0  0  0  0  0  0  0  0  0  0  0
  -20.4788  -26.3702   18.7116 C   0  0  0  0  0  0  0  0  0  0  0  0
  -29.9578  -17.0375   20.7782 C   0  0  0  0  0  0  0  0  0  0  0  0
  -23.9232  -33.3900   26.6975 C   0  0  0  0  0  0  0  0  0  0  0  0
  -24.0433  -30.6862   20.7733 C   0  0  0  0  0  0  0  0  0  0  0  0
  -23.7126  -27.7476   20.7670 C   0  0  0  0  0  0  0  0  0  0  0  0
  -22.8820  -32.3662   26.2524 C   0  0  0  0  0  0  0  0  0  0  0  0
  -30.2333  -13.5067   20.4107 C   0  0  0  0  0  0  0  0  0  0  0  0
  -23.5158  -30.9856   26.1145 C   0  0  0  0  0  0  0  0  0  0  0  0
  -28.8459  -12.9922   20.8012 C   0  0  0  0  0  0  0  0  0  0  0  0
  -30.6555  -14.7022   21.2629 C   0  0  0  0  0  0  0  0  0  0  0  0
  -28.3029  -15.2938   21.6928 C   0  0  0  0  0  0  0  0  0  0  0  0
  -24.6180  -30.9886   25.0482 C   0  0  1  0  0  0  0  0  0  0  0  0
  -23.0778  -29.9846   21.7236 C   0  0  1  0  0  0  0  0  0  0  0  0
  -27.8069  -14.1306   20.8184 C   0  0  2  0  0  0  0  0  0  0  0  0
  -18.5075  -25.2580   17.6280 C   0  0  0  0  0  0  0  0  0  0  0  0
  -30.6915  -26.5212   20.1516 C   0  0  0  0  0  0  0  0  0  0  0  0
  -21.4226  -26.0616   23.5210 C   0  0  0  0  0  0  0  0  0  0  0  0
  -20.1770  -24.5863   21.9272 C   0  0  0  0  0  0  0  0  0  0  0  0
  -19.1224  -26.6864   22.7639 C   0  0  0  0  0  0  0  0  0  0  0  0
  -20.7757  -27.9832   16.2481 C   0  0  0  0  0  0  0  0  0  0  0  0
  -26.3521  -22.8210   21.2683 C   0  0  0  0  0  0  0  0  0  0  0  0
  -28.3128  -26.0476   19.4403 C   0  0  0  0  0  0  0  0  0  1  0  0
  -29.8782  -24.1399   19.9121 C   0  0  0  0  0  0  0  0  0  0  0  0
  -21.0121  -26.8298   21.0904 C   0  0  1  0  0  0  0  0  0  0  0  0
  -19.3636  -26.5133   17.6916 C   0  0  2  0  0  0  0  0  0  0  0  0
  -29.7670  -25.5716   19.3801 C   0  0  2  0  0  0  0  0  0  0  0  0
  -20.4582  -26.0528   22.3181 C   0  0  0  0  0  0  0  0  0  0  0  0
  -26.3615  -12.6282   22.1356 N   0  0  0  0  0  0  0  0  0  0  0  0
  -26.4390  -13.6368   21.2508 N   0  0  0  0  0  0  0  0  0  0  0  0
  -22.6633  -28.6671   21.2372 N   0  0  0  0  0  0  0  0  0  0  0  0
  -29.6249  -15.7422   21.2281 N   0  0  0  0  0  0  0  0  0  0  0  0
  -25.1210  -15.1164   19.9529 N   0  0  0  0  0  0  0  0  0  0  0  0
  -22.0495  -12.6263   22.1350 N   0  0  0  0  0  0  0  0  0  0  0  0
  -28.8892  -17.9332   20.7582 N   0  0  0  0  0  0  0  0  0  0  0  0
  -24.0387  -30.9537   23.7225 N   0  0  0  0  0  0  0  0  0  0  0  0
  -20.1082  -26.8611   19.9457 N   0  0  0  0  0  0  0  0  0  0  0  0
  -19.9303  -26.7649   16.3364 N   0  3  0  0  0  0  0  0  0  0  0  0
  -22.3346  -14.3260   20.6222 O   0  0  0  0  0  0  0  0  0  0  0  0
  -23.7499  -28.6494   23.5513 O   0  0  0  0  0  0  0  0  0  0  0  0
  -20.4296  -29.0142   21.8084 O   0  0  0  0  0  0  0  0  0  0  0  0
  -21.5682  -25.8695   18.4417 O   0  0  0  0  0  0  0  0  0  0  0  0
  -31.1002  -17.3230   20.4102 O   0  0  0  0  0  0  0  0  0  0  0  0
  -23.1037   -8.5158   25.7445 O   0  0  0  0  0  0  0  0  0  0  0  0
  -26.6291  -22.1276   20.0531 O   0  0  0  0  0  0  0  0  0  0  0  0
  -28.2009  -27.3470   18.8612 O   0  0  0  0  0  0  0  0  0  1  0  0
  -29.0087  -23.2824   19.1846 O   0  0  0  0  0  0  0  0  0  0  0  0
  -18.9717   -5.3368   23.9489 F   0  0  0  0  0  0  0  0  0  0  0  0
  -23.4029   -5.7741   25.5547 F   0  0  0  0  0  0  0  0  0  0  0  0
  1  2  1  0  0  0  0
  1  5  2  0  0  0  0
  2  6  2  0  0  0  0
  3  9  2  0  0  0  0
  3 18  1  0  0  0  0
  4 10  1  0  0  0  0
  4 18  2  0  0  0  0
  5 20  1  0  0  0  0
  6 22  1  0  0  0  0
  7 11  2  0  0  0  0
  7 21  1  0  0  0  0
  8 12  2  0  0  0  0
  8 24  1  0  0  0  0
  9 25  1  0  0  0  0
 10 25  2  0  0  0  0
 11 26  1  0  0  0  0
 12 27  1  0  0  0  0
 13 14  2  0  0  0  0
 13 28  1  0  0  0  0
 14 30  1  0  0  0  0
 15 23  1  0  0  0  0
 15 26  2  0  0  0  0
 16 24  2  0  0  0  0
 16 29  1  0  0  0  0
 17 30  2  0  0  0  0
 17 31  1  0  0  0  0
 18 32  1  0  0  0  0
 19 32  1  0  0  0  0
 19 33  2  0  0  0  0
 19 34  1  0  0  0  0
 20 22  2  0  0  0  0
 20 39  1  0  0  0  0
 21 23  2  0  0  0  0
 21 40  1  0  0  0  0
 22 48  1  0  0  0  0
 23 41  1  0  0  0  0
 24 70  1  0  0  0  0
 25 79  1  0  0  0  0
 26 81  1  0  0  0  0
 27 29  2  0  0  0  0
 27 82  1  0  0  0  0
 28 31  2  0  0  0  0
 28 79  1  0  0  0  0
 29 80  1  0  0  0  0
 30 83  1  0  0  0  0
 31 84  1  0  0  0  0
 32 64  2  0  0  0  0
 33 65  1  0  0  0  0
 33 68  1  0  0  0  0
 34 69  1  0  0  0  0
 34 74  2  0  0  0  0
 35 49  1  0  0  0  0
 35 71  1  0  0  0  0
 35 75  2  0  0  0  0
 36 60  1  0  0  0  0
 36 66  1  0  0  0  0
 36 76  2  0  0  0  0
 37 61  1  0  0  0  0
 37 72  1  0  0  0  0
 37 77  2  0  0  0  0
 38 67  1  0  0  0  0
 38 70  1  0  0  0  0
 38 78  2  0  0  0  0
 39 42  1  0  0  0  0
 40 49  1  0  0  0  0
 41 66  1  0  0  0  0
 42 44  1  0  0  0  0
 43 45  1  0  0  0  0
 43 46  1  0  0  0  0
 44 48  1  0  0  0  0
 45 50  1  0  0  0  0
 46 67  1  0  0  0  0
 47 50  1  0  0  0  0
 47 67  1  0  0  0  0
 48 71  1  0  0  0  0
 49 66  1  0  0  0  0
 50 65  1  0  0  0  0
 51 61  1  0  0  0  0
 52 62  1  0  0  0  0
 53 63  1  0  0  0  0
 54 63  1  0  0  0  0
 55 63  1  0  0  0  0
 56 73  1  0  0  0  0
 57 80  1  0  0  0  0
 58 62  1  0  0  0  0
 58 81  1  0  0  0  0
 59 62  1  0  0  0  0
 59 82  1  0  0  0  0
 60 63  1  0  0  0  0
 60 72  1  0  0  0  0
 61 73  1  0  0  0  0
 64 65  1  0  0  0  0
M  CHG  1  73   1
M  ISO  4  38 100  58 101  70 100  81 101
M  END
> <Batch ID>
0135

> <Smiles>
CNC(C)C(=O)NC(C(=O)N1Cc2cc([101O:1][101CH2:1]C(C)COc3ccc([100NH:0][100C:0](=O)N4CCCC(n5nc(-c6ccc(Oc7ccc(F)cc7F)cc6)c(C(N)=O)c5N)C4)cc3OC)ccc2CC1C(=O)NC1CCCc2ccccc21)C(C)(C)C

> <Shape>
0.329

> <Color>
0.133

> <Negative vol penalty>
0.000

$$$$

  -OEChem-04052302363D

 87 95  0     1  0  0  0  0  0999 V2000
  -24.2780  -18.2483   22.7054 C   0  0  0  0  0  0  0  0  0  0  0  0
  -25.1218  -19.3442   22.5562 C   0  0  0  0  0  0  0  0  0  0  0  0
  -26.5122  -12.6594   21.7330 C   0  0  0  0  0  0  0  0  0  0  0  0
  -25.8325  -13.9461   19.8044 C   0  0  0  0  0  0  0  0  0  0  0  0
  -22.9382  -18.3455   22.3323 C   0  0  0  0  0  0  0  0  0  0  0  0
  -24.6264  -20.5379   22.0326 C   0  0  0  0  0  0  0  0  0  0  0  0
  -26.3145  -26.2179   23.5799 C   0  0  0  0  0  0  0  0  0  0  0  0
  -27.9047  -23.1406   18.2694 C   0  0  0  0  0  0  0  0  0  0  0  0
  -25.2778  -12.0100   21.7348 C   0  0  0  0  0  0  0  0  0  0  0  0
  -24.5981  -13.2967   19.8062 C   0  0  0  0  0  0  0  0  0  0  0  0
  -27.1931  -27.1278   22.9935 C   0  0  0  0  0  0  0  0  0  0  0  0
  -28.8801  -24.1314   18.3816 C   0  0  0  0  0  0  0  0  0  0  0  0
  -23.7789   -9.5041   20.0300 C   0  0  0  0  0  0  0  0  0  0  0  0
  -23.7751   -8.1196   20.1998 C   0  0  0  0  0  0  0  0  0  0  0  0
  -25.3393  -28.1814   21.8653 C   0  0  0  0  0  0  0  0  0  0  0  0
  -30.0054  -22.8314   20.0789 C   0  0  0  0  0  0  0  0  0  0  0  0
  -22.4371   -8.3683   22.1961 C   0  0  0  0  0  0  0  0  0  0  0  0
  -26.7896  -13.6275   20.7678 C   0  0  0  0  0  0  0  0  0  0  0  0
  -29.2332  -13.9023   20.0888 C   0  0  0  0  0  0  0  0  0  0  0  0
  -22.4238  -19.5440   21.8129 C   0  0  0  0  0  0  0  0  0  0  0  0
  -24.9408  -26.2761   23.3044 C   0  0  0  0  0  0  0  0  0  0  0  0
  -23.2787  -20.6509   21.6509 C   0  0  0  0  0  0  0  0  0  0  0  0
  -24.4451  -27.2726   22.4515 C   0  0  0  0  0  0  0  0  0  0  0  0
  -27.9796  -21.9953   19.0621 C   0  0  0  0  0  0  0  0  0  0  0  0
  -29.0299  -21.8406   19.9668 C   0  0  0  0  0  0  0  0  0  0  0  0
  -24.3207  -12.3286   20.7714 C   0  0  0  0  0  0  0  0  0  0  0  0
  -26.7059  -28.1080   22.1338 C   0  0  0  0  0  0  0  0  0  0  0  0
  -29.9305  -23.9767   19.2863 C   0  0  0  0  0  0  0  0  0  0  0  0
  -23.1120  -10.3207   20.9432 C   0  0  0  0  0  0  0  0  0  0  0  0
  -23.1041   -7.5517   21.2829 C   0  0  0  0  0  0  0  0  0  0  0  0
  -22.4411   -9.7528   22.0263 C   0  0  0  0  0  0  0  0  0  0  0  0
  -28.0644  -14.2991   20.7657 C   0  0  0  0  0  0  0  0  0  0  0  0
  -30.1578  -14.8673   20.4056 C   0  0  0  0  0  0  0  0  0  0  0  0
  -29.4625  -12.7634   19.2486 C   0  0  0  0  0  0  0  0  0  0  0  0
  -22.8357  -24.3056   21.9666 C   0  0  0  0  0  0  0  0  0  0  0  0
  -20.7103  -26.5752   22.8907 C   0  0  0  0  0  0  0  0  0  0  0  0
  -20.1294  -29.8339   23.7215 C   0  0  0  0  0  0  0  0  0  0  0  0
  -29.6834  -20.5910   22.0543 C   0  0  0  0  0  0  0  0  0  0  0  0
  -20.9799  -19.5867   21.3794 C   0  0  0  0  0  0  0  0  0  0  0  0
  -24.0029  -25.3039   23.9659 C   0  0  0  0  0  0  0  0  0  0  0  0
  -22.9764  -27.3906   22.1391 C   0  0  0  0  0  0  0  0  0  0  0  0
  -20.4447  -21.0027   21.1822 C   0  0  0  0  0  0  0  0  0  0  0  0
  -31.2872  -17.9791   23.8661 C   0  0  0  0  0  0  0  0  0  0  0  0
  -21.4328  -21.8393   20.3756 C   0  0  0  0  0  0  0  0  0  0  0  0
  -30.7538  -16.7030   23.2111 C   0  0  0  0  0  0  0  0  0  0  0  0
  -30.2174  -19.0670   23.9430 C   0  0  0  0  0  0  0  0  0  0  0  0
  -29.0253  -18.1049   22.0136 C   0  0  0  0  0  0  0  0  0  0  0  0
  -22.7727  -21.9705   21.1098 C   0  0  1  0  0  0  0  0  0  0  0  0
  -22.6880  -25.1345   23.2111 C   0  0  1  0  0  0  0  0  0  0  0  0
  -30.0853  -17.0027   21.8550 C   0  0  2  0  0  0  0  0  0  0  0  0
  -26.9207  -20.9505   18.9206 C   0  0  0  0  0  0  0  0  0  0  0  0
  -18.2846  -31.3967   24.3934 C   0  0  0  0  0  0  0  0  0  0  0  0
  -32.8059  -27.1258   19.5188 C   0  0  0  0  0  0  0  0  0  0  0  0
  -19.7264  -26.6512   20.0034 C   0  0  0  0  0  0  0  0  0  0  0  0
  -18.6008  -28.8276   20.5177 C   0  0  0  0  0  0  0  0  0  0  0  0
  -17.9159  -26.7553   21.7256 C   0  0  0  0  0  0  0  0  0  0  0  0
  -29.4975  -30.7518   20.2615 C   0  0  0  0  0  0  0  0  0  0  0  0
  -28.5285  -28.9520   18.8568 C   0  0  0  0  0  0  0  0  0  0  0  0
  -21.4223  -30.4301   26.3161 C   0  0  0  0  0  0  0  0  0  0  0  0
  -30.9336  -28.7729   19.7420 C   0  0  0  0  0  0  0  0  0  0  0  0
  -30.4837  -26.2841   19.1248 C   0  0  0  0  0  0  0  0  0  0  0  0
  -28.8928  -28.5485   21.3095 C   0  0  0  0  0  0  0  0  0  1  0  0
  -20.1420  -27.8258   22.2647 C   0  0  1  0  0  0  0  0  0  0  0  0
  -19.3771  -30.4586   24.8826 C   0  0  2  0  0  0  0  0  0  0  0  0
  -31.3287  -27.2856   19.9171 C   0  0  1  0  0  0  0  0  0  0  0  0
  -19.1242  -27.5118   21.1320 C   0  0  0  0  0  0  0  0  0  0  0  0
  -29.4697  -29.2177   20.0459 C   0  0  0  0  0  0  0  0  0  0  0  0
  -28.2289  -15.4281   21.4603 N   0  0  0  0  0  0  0  0  0  0  0  0
  -29.5119  -15.7489   21.2215 N   0  0  0  0  0  0  0  0  0  0  0  0
  -22.1003  -26.4129   22.8054 N   0  0  0  0  0  0  0  0  0  0  0  0
  -29.6316  -19.3000   22.6211 N   0  0  0  0  0  0  0  0  0  0  0  0
  -31.4523  -15.0391   20.0631 N   0  0  0  0  0  0  0  0  0  0  0  0
  -28.4038  -11.8719   19.0279 N   0  0  0  0  0  0  0  0  0  0  0  0
  -29.1235  -20.6845   20.7806 N   0  0  0  0  0  0  0  0  0  0  0  0
  -22.6735  -22.9488   22.1717 N   0  0  0  0  0  0  0  0  0  0  0  0
  -19.5916  -28.6167   23.3602 N   0  0  0  0  0  0  0  0  0  0  0  0
  -20.3105  -31.2346   25.7471 N   0  3  0  0  0  0  0  0  0  0  0  0
  -30.5780  -12.5339   18.7228 O   0  0  0  0  0  0  0  0  0  0  0  0
  -23.0775  -24.8565   20.8990 O   0  0  0  0  0  0  0  0  0  0  0  0
  -19.9497  -25.7753   23.4414 O   0  0  0  0  0  0  0  0  0  0  0  0
  -21.0951  -30.3734   23.1860 O   0  0  0  0  0  0  0  0  0  0  0  0
  -30.2116  -21.5376   22.6433 O   0  0  0  0  0  0  0  0  0  0  0  0
  -23.1161  -11.6950   20.7728 O   0  0  0  0  0  0  0  0  0  0  0  0
  -27.5613  -28.9970   21.5596 O   0  0  0  0  0  0  0  0  0  1  0  0
  -30.8893  -24.9510   19.3962 O   0  0  0  0  0  0  0  0  0  0  0  0
  -23.0992   -6.2221   21.4450 F   0  0  0  0  0  0  0  0  0  0  0  0
  -21.7976  -10.5321   22.9063 F   0  0  0  0  0  0  0  0  0  0  0  0
  1  2  1  0  0  0  0
  1  5  2  0  0  0  0
  2  6  2  0  0  0  0
  3  9  2  0  0  0  0
  3 18  1  0  0  0  0
  4 10  1  0  0  0  0
  4 18  2  0  0  0  0
  5 20  1  0  0  0  0
  6 22  1  0  0  0  0
  7 11  2  0  0  0  0
  7 21  1  0  0  0  0
  8 12  2  0  0  0  0
  8 24  1  0  0  0  0
  9 26  1  0  0  0  0
 10 26  2  0  0  0  0
 11 27  1  0  0  0  0
 12 28  1  0  0  0  0
 13 14  2  0  0  0  0
 13 29  1  0  0  0  0
 14 30  1  0  0  0  0
 15 23  1  0  0  0  0
 15 27  2  0  0  0  0
 16 25  1  0  0  0  0
 16 28  2  0  0  0  0
 17 30  2  0  0  0  0
 17 31  1  0  0  0  0
 18 32  1  0  0  0  0
 19 32  1  0  0  0  0
 19 33  2  0  0  0  0
 19 34  1  0  0  0  0
 20 22  2  0  0  0  0
 20 39  1  0  0  0  0
 21 23  2  0  0  0  0
 21 40  1  0  0  0  0
 22 48  1  0  0  0  0
 23 41  1  0  0  0  0
 24 25  2  0  0  0  0
 24 51  1  0  0  0  0
 25 74  1  0  0  0  0
 26 83  1  0  0  0  0
 27 84  1  0  0  0  0
 28 85  1  0  0  0  0
 29 31  2  0  0  0  0
 29 83  1  0  0  0  0
 30 86  1  0  0  0  0
 31 87  1  0  0  0  0
 32 68  2  0  0  0  0
 33 69  1  0  0  0  0
 33 72  1  0  0  0  0
 34 73  1  0  0  0  0
 34 78  2  0  0  0  0
 35 49  1  0  0  0  0
 35 75  1  0  0  0  0
 35 79  2  0  0  0  0
 36 63  1  0  0  0  0
 36 70  1  0  0  0  0
 36 80  2  0  0  0  0
 37 64  1  0  0  0  0
 37 76  1  0  0  0  0
 37 81  2  0  0  0  0
 38 71  1  0  0  0  0
 38 74  1  0  0  0  0
 38 82  2  0  0  0  0
 39 42  1  0  0  0  0
 40 49  1  0  0  0  0
 41 70  1  0  0  0  0
 42 44  1  0  0  0  0
 43 45  1  0  0  0  0
 43 46  1  0  0  0  0
 44 48  1  0  0  0  0
 45 50  1  0  0  0  0
 46 71  1  0  0  0  0
 47 50  1  0  0  0  0
 47 71  1  0  0  0  0
 48 75  1  0  0  0  0
 49 70  1  0  0  0  0
 50 69  1  0  0  0  0
 52 64  1  0  0  0  0
 53 65  1  0  0  0  0
 54 66  1  0  0  0  0
 55 66  1  0  0  0  0
 56 66  1  0  0  0  0
 57 67  1  0  0  0  0
 58 67  1  0  0  0  0
 59 77  1  0  0  0  0
 60 65  1  0  0  0  0
 60 67  1  0  0  0  0
 61 65  1  0  0  0  0
 61 85  1  0  0  0  0
 62 67  1  0  0  0  0
 62 84  1  0  0  0  0
 63 66  1  0  0  0  0
 63 76  1  0  0  0  0
 64 77  1  0  0  0  0
 68 69  1  0  0  0  0
M  CHG  1  77   1
M  ISO  4  38 100  62 101  74 100  84 101
M  END
> <Batch ID>
0135

> <Smiles>
CNC(C)C(=O)NC(C(=O)N1Cc2cc([101O:1][101CH2:1]C(C)(C)CC(C)COc3ccc(C)c([100NH:0][100C:0](=O)N4CCCC(n5nc(-c6ccc(Oc7ccc(F)cc7F)cc6)c(C(N)=O)c5N)C4)c3)ccc2CC1C(=O)NC1CCCc2ccccc21)C(C)(C)C

> <Shape>
0.275

> <Color>
0.063

> <Negative vol penalty>
0.000

$$$$

  -OEChem-04052302363D

 88 96  0     1  0  0  0  0  0999 V2000
  -28.1149  -37.8574   22.9111 C   0  0  0  0  0  0  0  0  0  0  0  0
  -28.6090  -36.6722   22.3757 C   0  0  0  0  0  0  0  0  0  0  0  0
  -25.0177   -8.7845   20.7864 C   0  0  0  0  0  0  0  0  0  0  0  0
  -25.8963   -9.6745   22.8535 C   0  0  0  0  0  0  0  0  0  0  0  0
  -27.1129  -37.8189   23.8798 C   0  0  0  0  0  0  0  0  0  0  0  0
  -28.1021  -35.4478   22.8096 C   0  0  0  0  0  0  0  0  0  0  0  0
  -27.3324  -30.3842   19.4520 C   0  0  0  0  0  0  0  0  0  0  0  0
  -25.2992   -7.4903   21.2239 C   0  0  0  0  0  0  0  0  0  0  0  0
  -26.1777   -8.3802   23.2911 C   0  0  0  0  0  0  0  0  0  0  0  0
  -28.1017  -29.2309   19.3040 C   0  0  0  0  0  0  0  0  0  0  0  0
  -23.9257   -5.2128   23.3119 C   0  0  0  0  0  0  0  0  0  0  0  0
  -22.9439   -4.2389   23.1295 C   0  0  0  0  0  0  0  0  0  0  0  0
  -26.7440  -28.1201   20.9600 C   0  0  0  0  0  0  0  0  0  0  0  0
  -25.2724  -22.0383   17.7381 C   0  0  0  0  0  0  0  0  0  0  0  0
  -26.8015  -22.6692   19.4990 C   0  0  0  0  0  0  0  0  0  0  0  0
  -24.4702   -2.9555   21.7656 C   0  0  0  0  0  0  0  0  0  0  0  0
  -25.3163   -9.8766   21.6012 C   0  0  0  0  0  0  0  0  0  0  0  0
  -23.8346  -11.9373   21.3447 C   0  0  0  0  0  0  0  0  0  0  0  0
  -26.5866  -36.5938   24.3187 C   0  0  0  0  0  0  0  0  0  0  0  0
  -26.2681  -30.4177   20.3645 C   0  0  0  0  0  0  0  0  0  0  0  0
  -27.0930  -35.3929   23.7860 C   0  0  0  0  0  0  0  0  0  0  0  0
  -25.9612  -29.2742   21.1158 C   0  0  0  0  0  0  0  0  0  0  0  0
  -24.7336  -23.3249   17.7450 C   0  0  0  0  0  0  0  0  0  0  0  0
  -25.2288  -24.2836   18.6288 C   0  0  0  0  0  0  0  0  0  0  0  0
  -26.3063  -21.7104   18.6152 C   0  0  0  0  0  0  0  0  0  0  0  0
  -25.8791   -7.2882   22.4763 C   0  0  0  0  0  0  0  0  0  0  0  0
  -27.8094  -28.0996   20.0602 C   0  0  0  0  0  0  0  0  0  0  0  0
  -25.1798   -5.0581   22.7210 C   0  0  0  0  0  0  0  0  0  0  0  0
  -26.2628  -23.9559   19.5058 C   0  0  0  0  0  0  0  0  0  0  0  0
  -23.2162   -3.1103   22.3564 C   0  0  0  0  0  0  0  0  0  0  0  0
  -25.4520   -3.9295   21.9479 C   0  0  0  0  0  0  0  0  0  0  0  0
  -25.0263  -11.2137   21.1495 C   0  0  0  0  0  0  0  0  0  0  0  0
  -24.0611  -13.1443   20.7298 C   0  0  0  0  0  0  0  0  0  0  0  0
  -22.6306  -11.5527   22.0215 C   0  0  0  0  0  0  0  0  0  0  0  0
  -25.5976  -32.1147   22.9672 C   0  0  0  0  0  0  0  0  0  0  0  0
  -27.3415  -17.4798   19.8808 C   0  0  0  0  0  0  0  0  0  0  0  0
  -22.7640  -30.5462   22.7858 C   0  0  0  0  0  0  0  0  0  0  0  0
  -27.8789  -19.9115   19.4077 C   0  0  0  0  0  0  0  0  0  0  0  0
  -21.0260  -27.8211   21.6905 C   0  0  0  0  0  0  0  0  0  0  0  0
  -25.5374  -36.6008   25.4022 C   0  0  0  0  0  0  0  0  0  0  0  0
  -25.4312  -31.6608   20.4929 C   0  0  0  0  0  0  0  0  0  0  0  0
  -24.8165  -29.2521   22.0945 C   0  0  0  0  0  0  0  0  0  0  0  0
  -24.7910  -35.2760   25.5358 C   0  0  0  0  0  0  0  0  0  0  0  0
  -27.7780  -14.6377   17.6540 C   0  0  0  0  0  0  0  0  0  0  0  0
  -25.7720  -34.1078   25.5322 C   0  0  0  0  0  0  0  0  0  0  0  0
  -27.0221  -13.5422   18.4048 C   0  0  0  0  0  0  0  0  0  0  0  0
  -28.4813  -15.5934   18.6142 C   0  0  0  0  0  0  0  0  0  0  0  0
  -26.8138  -15.1145   20.3790 C   0  0  0  0  0  0  0  0  0  0  0  0
  -26.5513  -34.0459   24.2130 C   0  0  1  0  0  0  0  0  0  0  0  0
  -24.6927  -31.7490   21.8249 C   0  0  1  0  0  0  0  0  0  0  0  0
  -26.0652  -14.1470   19.4470 C   0  0  2  0  0  0  0  0  0  0  0  0
  -23.6269  -23.6510   16.7962 C   0  0  0  0  0  0  0  0  0  0  0  0
  -24.5555  -27.8986   17.4523 C   0  0  0  0  0  0  0  0  0  0  0  0
  -18.7336  -26.8010   21.7285 C   0  0  0  0  0  0  0  0  0  0  0  0
  -30.1660  -26.0667   21.4269 C   0  0  0  0  0  0  0  0  0  0  0  0
  -23.1977  -29.6856   25.6808 C   0  0  0  0  0  0  0  0  0  0  0  0
  -21.4257  -27.9469   25.3562 C   0  0  0  0  0  0  0  0  0  0  0  0
  -20.8536  -30.3648   25.1343 C   0  0  0  0  0  0  0  0  0  0  0  0
  -20.8075  -27.9176   18.7406 C   0  0  0  0  0  0  0  0  0  0  0  0
  -24.6565  -25.6651   18.6390 C   0  0  0  0  0  0  0  0  0  0  0  0
  -28.1615  -18.4596   19.0799 C   0  0  0  0  0  0  0  0  0  0  0  0
  -25.1640  -26.5052   17.4590 C   0  0  0  0  0  0  0  0  0  0  0  0
  -28.1327  -24.7521   20.7408 C   0  0  0  0  0  0  0  0  0  0  0  0
  -22.2255  -29.2451   23.3299 C   0  0  1  0  0  0  0  0  0  0  0  0
  -19.6971  -27.6980   20.9671 C   0  0  2  0  0  0  0  0  0  0  0  0
  -28.6917  -26.1323   21.0638 C   0  0  2  0  0  0  0  0  0  1  0  0
  -21.9485  -29.3113   24.8584 C   0  0  0  0  0  0  0  0  0  0  0  0
  -25.9419  -11.9035   20.4640 N   0  0  0  0  0  0  0  0  0  0  0  0
  -25.3253  -13.0731   20.2230 N   0  0  0  0  0  0  0  0  0  0  0  0
  -24.0316  -30.4941   22.1888 N   0  0  0  0  0  0  0  0  0  0  0  0
  -27.5416  -16.1264   19.6079 N   0  0  0  0  0  0  0  0  0  0  0  0
  -23.3001  -14.2491   20.5784 N   0  0  0  0  0  0  0  0  0  0  0  0
  -22.5663  -10.2765   22.5974 N   0  0  0  0  0  0  0  0  0  0  0  0
  -26.8455  -20.4238   18.6080 N   0  0  0  0  0  0  0  0  0  0  0  0
  -25.7296  -33.4757   23.1670 N   0  0  0  0  0  0  0  0  0  0  0  0
  -21.0540  -28.9193   22.5238 N   0  0  0  0  0  0  0  0  0  0  0  0
  -19.8990  -27.1233   19.6069 N   0  3  0  0  0  0  0  0  0  0  0  0
  -21.6350  -12.3119   22.0987 O   0  0  0  0  0  0  0  0  0  0  0  0
  -26.1351  -31.2278   23.6201 O   0  0  0  0  0  0  0  0  0  0  0  0
  -26.5455  -17.9065   20.7214 O   0  0  0  0  0  0  0  0  0  0  0  0
  -22.0820  -31.5697   22.8804 O   0  0  0  0  0  0  0  0  0  0  0  0
  -28.5077  -20.5115   20.2735 O   0  0  0  0  0  0  0  0  0  0  0  0
  -21.9457  -27.0209   21.5348 O   0  0  0  0  0  0  0  0  0  0  0  0
  -26.1537   -6.0254   22.9037 O   0  0  0  0  0  0  0  0  0  0  0  0
  -26.7619  -24.8840   20.3807 O   0  0  0  0  0  0  0  0  0  0  0  0
  -28.5591  -26.9728   19.9182 O   0  0  0  0  0  0  0  0  0  1  0  0
  -22.2737   -2.1745   22.1826 F   0  0  0  0  0  0  0  0  0  0  0  0
  -26.6554   -3.7747   21.3788 F   0  0  0  0  0  0  0  0  0  0  0  0
  1  2  1  0  0  0  0
  1  5  2  0  0  0  0
  2  6  2  0  0  0  0
  3  8  2  0  0  0  0
  3 17  1  0  0  0  0
  4  9  1  0  0  0  0
  4 17  2  0  0  0  0
  5 19  1  0  0  0  0
  6 21  1  0  0  0  0
  7 10  2  0  0  0  0
  7 20  1  0  0  0  0
  8 26  1  0  0  0  0
  9 26  2  0  0  0  0
 10 27  1  0  0  0  0
 11 12  2  0  0  0  0
 11 28  1  0  0  0  0
 12 30  1  0  0  0  0
 13 22  1  0  0  0  0
 13 27  2  0  0  0  0
 14 23  2  0  0  0  0
 14 25  1  0  0  0  0
 15 25  2  0  0  0  0
 15 29  1  0  0  0  0
 16 30  2  0  0  0  0
 16 31  1  0  0  0  0
 17 32  1  0  0  0  0
 18 32  1  0  0  0  0
 18 33  2  0  0  0  0
 18 34  1  0  0  0  0
 19 21  2  0  0  0  0
 19 40  1  0  0  0  0
 20 22  2  0  0  0  0
 20 41  1  0  0  0  0
 21 49  1  0  0  0  0
 22 42  1  0  0  0  0
 23 24  1  0  0  0  0
 23 52  1  0  0  0  0
 24 29  2  0  0  0  0
 24 60  1  0  0  0  0
 25 74  1  0  0  0  0
 26 84  1  0  0  0  0
 27 86  1  0  0  0  0
 28 31  2  0  0  0  0
 28 84  1  0  0  0  0
 29 85  1  0  0  0  0
 30 87  1  0  0  0  0
 31 88  1  0  0  0  0
 32 68  2  0  0  0  0
 33 69  1  0  0  0  0
 33 72  1  0  0  0  0
 34 73  1  0  0  0  0
 34 78  2  0  0  0  0
 35 50  1  0  0  0  0
 35 75  1  0  0  0  0
 35 79  2  0  0  0  0
 36 61  1  0  0  0  0
 36 71  1  0  0  0  0
 36 80  2  0  0  0  0
 37 64  1  0  0  0  0
 37 70  1  0  0  0  0
 37 81  2  0  0  0  0
 38 61  1  0  0  0  0
 38 74  1  0  0  0  0
 38 82  2  0  0  0  0
 39 65  1  0  0  0  0
 39 76  1  0  0  0  0
 39 83  2  0  0  0  0
 40 43  1  0  0  0  0
 41 50  1  0  0  0  0
 42 70  1  0  0  0  0
 43 45  1  0  0  0  0
 44 46  1  0  0  0  0
 44 47  1  0  0  0  0
 45 49  1  0  0  0  0
 46 51  1  0  0  0  0
 47 71  1  0  0  0  0
 48 51  1  0  0  0  0
 48 71  1  0  0  0  0
 49 75  1  0  0  0  0
 50 70  1  0  0  0  0
 51 69  1  0  0  0  0
 53 62  1  0  0  0  0
 54 65  1  0  0  0  0
 55 66  1  0  0  0  0
 56 67  1  0  0  0  0
 57 67  1  0  0  0  0
 58 67  1  0  0  0  0
 59 77  1  0  0  0  0
 60 62  1  0  0  0  0
 63 66  1  0  0  0  0
 63 85  1  0  0  0  0
 64 67  1  0  0  0  0
 64 76  1  0  0  0  0
 65 77  1  0  0  0  0
 66 86  1  0  0  0  0
 68 69  1  0  0  0  0
M  CHG  1  77   1
M  ISO  4  36 100  61 100  66 101  86 101
M  END
> <Batch ID>
0135

> <Smiles>
CCCc1c(C)cc(NC(=O)[100CH2:0][100C:0](=O)N2CCCC(n3nc(-c4ccc(Oc5ccc(F)cc5F)cc4)c(C(N)=O)c3N)C2)cc1OC[101CH:1](C)[101O:1]c1ccc2c(c1)CN(C(=O)C(NC(=O)C(C)NC)C(C)(C)C)C(C(=O)NC1CCCc3ccccc31)C2

> <Shape>
0.283

> <Color>
0.099

> <Negative vol penalty>
0.000

$$$$

  -OEChem-04052302363D

 85 93  0     1  0  0  0  0  0999 V2000
  -25.5569  -35.1624   17.2542 C   0  0  0  0  0  0  0  0  0  0  0  0
  -26.4454  -34.0973   17.1467 C   0  0  0  0  0  0  0  0  0  0  0  0
  -23.9899   -9.6712   20.0528 C   0  0  0  0  0  0  0  0  0  0  0  0
  -24.6958  -10.0175   22.3373 C   0  0  0  0  0  0  0  0  0  0  0  0
  -24.9362  -35.4306   18.4735 C   0  0  0  0  0  0  0  0  0  0  0  0
  -26.7145  -33.3004   18.2589 C   0  0  0  0  0  0  0  0  0  0  0  0
  -27.8544  -27.2833   18.2876 C   0  0  0  0  0  0  0  0  0  0  0  0
  -27.9438  -21.6039   21.0896 C   0  0  0  0  0  0  0  0  0  0  0  0
  -27.2665  -20.8049   22.0107 C   0  0  0  0  0  0  0  0  0  0  0  0
  -23.6506   -8.3530   20.3574 C   0  0  0  0  0  0  0  0  0  0  0  0
  -24.3564   -8.6993   22.6419 C   0  0  0  0  0  0  0  0  0  0  0  0
  -29.0414  -26.5537   18.3389 C   0  0  0  0  0  0  0  0  0  0  0  0
  -21.5470   -6.9418   23.3049 C   0  0  0  0  0  0  0  0  0  0  0  0
  -20.8359   -6.7130   24.4828 C   0  0  0  0  0  0  0  0  0  0  0  0
  -28.7960  -26.3343   20.7287 C   0  0  0  0  0  0  0  0  0  0  0  0
  -29.1582  -19.6687   20.3039 C   0  0  0  0  0  0  0  0  0  0  0  0
  -22.6256   -5.3047   25.2896 C   0  0  0  0  0  0  0  0  0  0  0  0
  -24.5126  -10.5035   21.0427 C   0  0  0  0  0  0  0  0  0  0  0  0
  -24.0333  -12.9985   20.8136 C   0  0  0  0  0  0  0  0  0  0  0  0
  -25.1905  -34.6308   19.5987 C   0  0  0  0  0  0  0  0  0  0  0  0
  -27.1338  -27.5536   19.4598 C   0  0  0  0  0  0  0  0  0  0  0  0
  -26.0977  -33.5590   19.4948 C   0  0  0  0  0  0  0  0  0  0  0  0
  -27.5989  -27.0653   20.6892 C   0  0  0  0  0  0  0  0  0  0  0  0
  -28.8896  -21.0358   20.2362 C   0  0  0  0  0  0  0  0  0  0  0  0
  -27.5351  -19.4378   22.0785 C   0  0  0  0  0  0  0  0  0  0  0  0
  -28.4810  -18.8697   21.2250 C   0  0  0  0  0  0  0  0  0  0  0  0
  -23.8338   -7.8670   21.6519 C   0  0  0  0  0  0  0  0  0  0  0  0
  -29.5139  -26.0816   19.5600 C   0  0  0  0  0  0  0  0  0  0  0  0
  -22.7974   -6.3521   23.1193 C   0  0  0  0  0  0  0  0  0  0  0  0
  -21.3752   -5.8944   25.4752 C   0  0  0  0  0  0  0  0  0  0  0  0
  -23.3367   -5.5335   24.1117 C   0  0  0  0  0  0  0  0  0  0  0  0
  -24.8639  -11.8651   20.7286 C   0  0  0  0  0  0  0  0  0  0  0  0
  -24.8319  -14.0405   20.4098 C   0  0  0  0  0  0  0  0  0  0  0  0
  -22.6625  -13.1005   21.2212 C   0  0  0  0  0  0  0  0  0  0  0  0
  -26.2820  -30.1943   21.0106 C   0  0  0  0  0  0  0  0  0  0  0  0
  -24.6285  -28.1062   22.8621 C   0  0  0  0  0  0  0  0  0  0  0  0
  -24.2765  -24.9183   24.0283 C   0  0  0  0  0  0  0  0  0  0  0  0
  -29.6797  -16.7781   20.4939 C   0  0  0  0  0  0  0  0  0  0  0  0
  -24.5318  -34.9885   20.9075 C   0  0  0  0  0  0  0  0  0  0  0  0
  -25.8413  -28.3192   19.3840 C   0  0  0  0  0  0  0  0  0  0  0  0
  -26.8520  -27.3110   21.9738 C   0  0  0  0  0  0  0  0  0  0  0  0
  -24.5850  -33.8677   21.9425 C   0  0  0  0  0  0  0  0  0  0  0  0
  -29.4046  -14.0365   18.2389 C   0  0  0  0  0  0  0  0  0  0  0  0
  -25.9884  -33.2743   22.0152 C   0  0  0  0  0  0  0  0  0  0  0  0
  -28.1304  -13.3204   18.6926 C   0  0  0  0  0  0  0  0  0  0  0  0
  -30.1927  -14.5957   19.4221 C   0  0  0  0  0  0  0  0  0  0  0  0
  -28.1470  -14.7336   20.7877 C   0  0  0  0  0  0  0  0  0  0  0  0
  -26.3965  -32.6567   20.6723 C   0  0  1  0  0  0  0  0  0  0  0  0
  -25.4573  -28.9757   20.7065 C   0  0  1  0  0  0  0  0  0  0  0  0
  -27.2863  -14.2097   19.6266 C   0  0  2  0  0  0  0  0  0  0  0  0
  -26.7951  -18.6063   23.0755 C   0  0  0  0  0  0  0  0  0  0  0  0
  -33.0267  -21.2718   17.8106 C   0  0  0  0  0  0  0  0  0  0  0  0
  -22.8551  -23.5258   25.5573 C   0  0  0  0  0  0  0  0  0  0  0  0
  -26.0329  -29.3305   25.2785 C   0  0  0  0  0  0  0  0  0  0  0  0
  -25.3284  -27.3324   26.6126 C   0  0  0  0  0  0  0  0  0  0  0  0
  -23.6049  -28.8389   25.6214 C   0  0  0  0  0  0  0  0  0  0  0  0
  -33.0931  -23.7436   19.5873 C   0  0  0  0  0  0  0  0  0  0  0  0
  -23.4193  -23.1526   21.8132 C   0  0  0  0  0  0  0  0  0  0  0  0
  -29.6220  -21.9013   19.2395 C   0  0  0  0  0  0  0  0  0  0  0  0
  -32.1982  -22.5311   17.5856 C   0  0  0  0  0  0  0  0  0  0  0  0
  -30.9159  -22.4704   19.8386 C   0  0  0  0  0  0  0  0  0  0  0  0
  -31.0087  -24.5899   18.4662 C   0  0  0  0  0  0  0  0  0  1  0  0
  -24.9323  -27.3095   24.1079 C   0  0  1  0  0  0  0  0  0  0  0  0
  -23.0633  -24.0117   24.1314 C   0  0  2  0  0  0  0  0  0  0  0  0
  -24.9900  -28.1997   25.3813 C   0  0  0  0  0  0  0  0  0  0  0  0
  -31.7944  -23.3134   18.8671 C   0  0  1  0  0  0  0  0  0  0  0  0
  -26.0956  -12.1591   20.3040 N   0  0  0  0  0  0  0  0  0  0  0  0
  -26.0449  -13.4892   20.1185 N   0  0  0  0  0  0  0  0  0  0  0  0
  -25.5967  -28.0699   21.8486 N   0  0  0  0  0  0  0  0  0  0  0  0
  -29.3300  -15.4313   20.2600 N   0  0  0  0  0  0  0  0  0  0  0  0
  -24.6079  -15.3653   20.2790 N   0  0  0  0  0  0  0  0  0  0  0  0
  -21.9909  -11.9317   21.6050 N   0  0  0  0  0  0  0  0  0  0  0  0
  -28.7672  -17.4829   21.2781 N   0  0  0  0  0  0  0  0  0  0  0  0
  -25.7635  -31.3673   20.4959 N   0  0  0  0  0  0  0  0  0  0  0  0
  -23.9344  -26.2469   24.1663 N   0  0  0  0  0  0  0  0  0  0  0  0
  -23.2290  -22.8222   23.2490 N   0  3  0  0  0  0  0  0  0  0  0  0
  -22.0464  -14.1931   21.2287 O   0  0  0  0  0  0  0  0  0  0  0  0
  -27.3116  -30.0792   21.6650 O   0  0  0  0  0  0  0  0  0  0  0  0
  -23.5680  -28.7318   22.7880 O   0  0  0  0  0  0  0  0  0  0  0  0
  -25.4143  -24.4904   23.8473 O   0  0  0  0  0  0  0  0  0  0  0  0
  -30.6989  -17.2773   20.0100 O   0  0  0  0  0  0  0  0  0  0  0  0
  -23.5025   -6.5809   21.9496 O   0  0  0  0  0  0  0  0  0  0  0  0
  -30.6725  -25.3698   19.6130 O   0  0  0  0  0  0  0  0  0  1  0  0
  -20.6929   -5.6760   26.6070 F   0  0  0  0  0  0  0  0  0  0  0  0
  -24.5380   -4.9652   23.9395 F   0  0  0  0  0  0  0  0  0  0  0  0
  1  2  1  0  0  0  0
  1  5  2  0  0  0  0
  2  6  2  0  0  0  0
  3 10  2  0  0  0  0
  3 18  1  0  0  0  0
  4 11  1  0  0  0  0
  4 18  2  0  0  0  0
  5 20  1  0  0  0  0
  6 22  1  0  0  0  0
  7 12  2  0  0  0  0
  7 21  1  0  0  0  0
  8  9  2  0  0  0  0
  8 24  1  0  0  0  0
  9 25  1  0  0  0  0
 10 27  1  0  0  0  0
 11 27  2  0  0  0  0
 12 28  1  0  0  0  0
 13 14  2  0  0  0  0
 13 29  1  0  0  0  0
 14 30  1  0  0  0  0
 15 23  1  0  0  0  0
 15 28  2  0  0  0  0
 16 24  2  0  0  0  0
 16 26  1  0  0  0  0
 17 30  2  0  0  0  0
 17 31  1  0  0  0  0
 18 32  1  0  0  0  0
 19 32  1  0  0  0  0
 19 33  2  0  0  0  0
 19 34  1  0  0  0  0
 20 22  2  0  0  0  0
 20 39  1  0  0  0  0
 21 23  2  0  0  0  0
 21 40  1  0  0  0  0
 22 48  1  0  0  0  0
 23 41  1  0  0  0  0
 24 59  1  0  0  0  0
 25 26  2  0  0  0  0
 25 51  1  0  0  0  0
 26 73  1  0  0  0  0
 27 82  1  0  0  0  0
 28 83  1  0  0  0  0
 29 31  2  0  0  0  0
 29 82  1  0  0  0  0
 30 84  1  0  0  0  0
 31 85  1  0  0  0  0
 32 67  2  0  0  0  0
 33 68  1  0  0  0  0
 33 71  1  0  0  0  0
 34 72  1  0  0  0  0
 34 77  2  0  0  0  0
 35 49  1  0  0  0  0
 35 74  1  0  0  0  0
 35 78  2  0  0  0  0
 36 63  1  0  0  0  0
 36 69  1  0  0  0  0
 36 79  2  0  0  0  0
 37 64  1  0  0  0  0
 37 75  1  0  0  0  0
 37 80  2  0  0  0  0
 38 70  1  0  0  0  0
 38 73  1  0  0  0  0
 38 81  2  0  0  0  0
 39 42  1  0  0  0  0
 40 49  1  0  0  0  0
 41 69  1  0  0  0  0
 42 44  1  0  0  0  0
 43 45  1  0  0  0  0
 43 46  1  0  0  0  0
 44 48  1  0  0  0  0
 45 50  1  0  0  0  0
 46 70  1  0  0  0  0
 47 50  1  0  0  0  0
 47 70  1  0  0  0  0
 48 74  1  0  0  0  0
 49 69  1  0  0  0  0
 50 68  1  0  0  0  0
 52 60  1  0  0  0  0
 53 64  1  0  0  0  0
 54 65  1  0  0  0  0
 55 65  1  0  0  0  0
 56 65  1  0  0  0  0
 57 66  1  0  0  0  0
 58 76  1  0  0  0  0
 59 61  1  0  0  0  0
 60 66  1  0  0  0  0
 61 66  1  0  0  0  0
 62 66  1  0  0  0  0
 62 83  1  0  0  0  0
 63 65  1  0  0  0  0
 63 75  1  0  0  0  0
 64 76  1  0  0  0  0
 67 68  1  0  0  0  0
M  CHG  1  76   1
M  ISO  4  38 100  62 101  73 100  83 101
M  END
> <Batch ID>
0135

> <Smiles>
CCC(C)(CCc1ccc(C)c([100NH:0][100C:0](=O)N2CCCC(n3nc(-c4ccc(Oc5ccc(F)cc5F)cc4)c(C(N)=O)c3N)C2)c1)[101CH2:1][101O:1]c1ccc2c(c1)CN(C(=O)C(NC(=O)C(C)NC)C(C)(C)C)C(C(=O)NC1CCCc3ccccc31)C2

> <Shape>
0.276

> <Color>
0.146

> <Negative vol penalty>
0.000

$$$$

  -OEChem-04052302363D

 84 92  0     1  0  0  0  0  0999 V2000
  -27.1684  -20.4680   14.8760 C   0  0  0  0  0  0  0  0  0  0  0  0
  -27.8073  -19.8169   15.9264 C   0  0  0  0  0  0  0  0  0  0  0  0
  -24.7757  -28.8243   20.4954 C   0  0  0  0  0  0  0  0  0  0  0  0
  -24.4783  -27.6857   22.6054 C   0  0  0  0  0  0  0  0  0  0  0  0
  -25.7949  -20.7007   14.9339 C   0  0  0  0  0  0  0  0  0  0  0  0
  -27.0732  -19.3991   17.0359 C   0  0  0  0  0  0  0  0  0  0  0  0
  -28.2650  -14.6989   18.4961 C   0  0  0  0  0  0  0  0  0  0  0  0
  -29.0443  -19.8654   25.2173 C   0  0  0  0  0  0  0  0  0  0  0  0
  -23.4852  -29.3443   20.5941 C   0  0  0  0  0  0  0  0  0  0  0  0
  -23.1878  -28.2057   22.7041 C   0  0  0  0  0  0  0  0  0  0  0  0
  -29.4432  -14.5377   19.2240 C   0  0  0  0  0  0  0  0  0  0  0  0
  -30.1433  -19.0498   24.9480 C   0  0  0  0  0  0  0  0  0  0  0  0
  -20.1333  -27.5535   21.4097 C   0  0  0  0  0  0  0  0  0  0  0  0
  -19.1124  -26.6850   21.7957 C   0  0  0  0  0  0  0  0  0  0  0  0
  -28.1623  -14.4505   21.2663 C   0  0  0  0  0  0  0  0  0  0  0  0
  -30.0506  -19.6932   22.6211 C   0  0  0  0  0  0  0  0  0  0  0  0
  -18.6621  -28.0709   23.7228 C   0  0  0  0  0  0  0  0  0  0  0  0
  -25.2723  -27.9950   21.5010 C   0  0  0  0  0  0  0  0  0  0  0  0
  -27.7946  -28.0366   21.8800 C   0  0  0  0  0  0  0  0  0  0  0  0
  -25.0420  -20.2770   16.0404 C   0  0  0  0  0  0  0  0  0  0  0  0
  -27.0255  -14.7481   19.1500 C   0  0  0  0  0  0  0  0  0  0  0  0
  -25.6886  -19.6276   17.1093 C   0  0  0  0  0  0  0  0  0  0  0  0
  -26.9697  -14.6098   20.5442 C   0  0  0  0  0  0  0  0  0  0  0  0
  -28.4484  -20.5949   24.1884 C   0  0  0  0  0  0  0  0  0  0  0  0
  -28.9516  -20.5088   22.8904 C   0  0  0  0  0  0  0  0  0  0  0  0
  -22.6912  -29.0350   21.6984 C   0  0  0  0  0  0  0  0  0  0  0  0
  -29.3922  -14.4164   20.6096 C   0  0  0  0  0  0  0  0  0  0  0  0
  -30.6465  -18.9637   23.6499 C   0  0  0  0  0  0  0  0  0  0  0  0
  -20.4186  -28.6807   22.1802 C   0  0  0  0  0  0  0  0  0  0  0  0
  -18.3768  -26.9437   22.9523 C   0  0  0  0  0  0  0  0  0  0  0  0
  -19.6830  -28.9394   23.3368 C   0  0  0  0  0  0  0  0  0  0  0  0
  -26.6051  -27.4571   21.3994 C   0  0  0  0  0  0  0  0  0  0  0  0
  -28.7767  -27.1402   21.5357 C   0  0  0  0  0  0  0  0  0  0  0  0
  -33.6691  -16.0970   21.4449 C   0  0  0  0  0  0  0  0  0  0  0  0
  -27.9940  -29.2744   22.5755 C   0  0  0  0  0  0  0  0  0  0  0  0
  -32.5386  -16.2840   22.1451 C   0  0  0  0  0  0  0  0  0  0  0  0
  -24.7227  -16.9210   19.4318 C   0  0  0  0  0  0  0  0  0  0  0  0
  -23.1672  -14.5086   20.9428 C   0  0  0  0  0  0  0  0  0  0  0  0
  -23.3593  -11.5818   22.6876 C   0  0  0  0  0  0  0  0  0  0  0  0
  -28.7504  -21.2566   20.4931 C   0  0  0  0  0  0  0  0  0  0  0  0
  -23.5678  -20.5930   16.0792 C   0  0  0  0  0  0  0  0  0  0  0  0
  -25.7616  -14.8956   18.3480 C   0  0  0  0  0  0  0  0  0  0  0  0
  -25.6626  -14.6357   21.2921 C   0  0  0  0  0  0  0  0  0  0  0  0
  -22.7990  -19.7855   17.1219 C   0  0  0  0  0  0  0  0  0  0  0  0
  -29.8256  -23.8105   18.2574 C   0  0  0  0  0  0  0  0  0  0  0  0
  -23.5415  -19.7900   18.4544 C   0  0  0  0  0  0  0  0  0  0  0  0
  -29.2351  -25.0890   18.8565 C   0  0  0  0  0  0  0  0  0  0  0  0
  -28.8823  -22.6199   18.4197 C   0  0  0  0  0  0  0  0  0  0  0  0
  -27.8288  -23.6557   20.3911 C   0  0  0  0  0  0  0  0  0  0  0  0
  -24.9224  -19.1372   18.3187 C   0  0  1  0  0  0  0  0  0  0  0  0
  -24.5970  -15.4478   19.1643 C   0  0  1  0  0  0  0  0  0  0  0  0
  -28.7706  -24.8682   20.3094 C   0  0  2  0  0  0  0  0  0  0  0  0
  -27.2725  -21.4604   24.5061 C   0  0  0  0  0  0  0  0  0  0  0  0
  -21.9209   -9.8666   23.8218 C   0  0  0  0  0  0  0  0  0  0  0  0
  -22.7430  -16.4170   23.2854 C   0  0  0  0  0  0  0  0  0  0  0  0
  -22.1791  -14.4351   24.7075 C   0  0  0  0  0  0  0  0  0  0  0  0
  -20.7646  -14.9916   22.7296 C   0  0  0  0  0  0  0  0  0  0  0  0
  -24.3078   -9.4294   20.8914 C   0  0  0  0  0  0  0  0  0  0  0  0
  -31.9763  -15.1895   23.0280 C   0  0  0  0  0  0  0  0  0  0  0  0
  -31.7999  -17.5936   22.0852 C   0  0  0  0  0  0  0  0  0  0  0  0
  -30.5558  -14.7781   22.6519 C   0  0  0  0  0  0  0  0  0  1  0  0
  -23.0732  -14.0255   22.3700 C   0  0  1  0  0  0  0  0  0  0  0  0
  -22.6195  -10.2655   22.5312 C   0  0  2  0  0  0  0  0  0  0  0  0
  -22.2149  -14.9687   23.2595 C   0  0  0  0  0  0  0  0  0  0  0  0
  -26.8105  -26.2835   20.7956 N   0  0  0  0  0  0  0  0  0  0  0  0
  -28.1406  -26.1183   20.8944 N   0  0  0  0  0  0  0  0  0  0  0  0
  -24.4549  -14.7884   20.4640 N   0  0  0  0  0  0  0  0  0  0  0  0
  -28.4878  -22.4696   19.8221 N   0  0  0  0  0  0  0  0  0  0  0  0
  -30.1138  -27.1344   21.7218 N   0  0  0  0  0  0  0  0  0  0  0  0
  -26.8764  -30.0746   22.8490 N   0  0  0  0  0  0  0  0  0  0  0  0
  -28.3603  -21.2420   21.8318 N   0  0  0  0  0  0  0  0  0  0  0  0
  -24.7993  -17.6955   18.2900 N   0  0  0  0  0  0  0  0  0  0  0  0
  -22.5808  -12.6538   22.3050 N   0  0  0  0  0  0  0  0  0  0  0  0
  -23.5683   -9.1795   22.1553 N   0  3  0  0  0  0  0  0  0  0  0  0
  -29.1316  -29.6671   22.9291 O   0  0  0  0  0  0  0  0  0  0  0  0
  -24.7468  -17.3251   20.5884 O   0  0  0  0  0  0  0  0  0  0  0  0
  -22.1367  -14.6262   20.2750 O   0  0  0  0  0  0  0  0  0  0  0  0
  -24.5111  -11.6524   23.1105 O   0  0  0  0  0  0  0  0  0  0  0  0
  -29.3070  -20.3106   19.9298 O   0  0  0  0  0  0  0  0  0  0  0  0
  -21.4319  -29.5425   21.7952 O   0  0  0  0  0  0  0  0  0  0  0  0
  -31.7265  -18.1622   23.3857 O   0  0  0  0  0  0  0  0  0  0  0  0
  -30.5407  -14.2597   21.3225 O   0  0  0  0  0  0  0  0  0  1  0  0
  -17.3954  -26.1104   23.3221 F   0  0  0  0  0  0  0  0  0  0  0  0
  -19.9517  -30.0213   24.0804 F   0  0  0  0  0  0  0  0  0  0  0  0
  1  2  1  0  0  0  0
  1  5  2  0  0  0  0
  2  6  2  0  0  0  0
  3  9  2  0  0  0  0
  3 18  1  0  0  0  0
  4 10  1  0  0  0  0
  4 18  2  0  0  0  0
  5 20  1  0  0  0  0
  6 22  1  0  0  0  0
  7 11  2  0  0  0  0
  7 21  1  0  0  0  0
  8 12  2  0  0  0  0
  8 24  1  0  0  0  0
  9 26  1  0  0  0  0
 10 26  2  0  0  0  0
 11 27  1  0  0  0  0
 12 28  1  0  0  0  0
 13 14  2  0  0  0  0
 13 29  1  0  0  0  0
 14 30  1  0  0  0  0
 15 23  1  0  0  0  0
 15 27  2  0  0  0  0
 16 25  1  0  0  0  0
 16 28  2  0  0  0  0
 17 30  2  0  0  0  0
 17 31  1  0  0  0  0
 18 32  1  0  0  0  0
 19 32  1  0  0  0  0
 19 33  2  0  0  0  0
 19 35  1  0  0  0  0
 20 22  2  0  0  0  0
 20 41  1  0  0  0  0
 21 23  2  0  0  0  0
 21 42  1  0  0  0  0
 22 50  1  0  0  0  0
 23 43  1  0  0  0  0
 24 25  2  0  0  0  0
 24 53  1  0  0  0  0
 25 71  1  0  0  0  0
 26 80  1  0  0  0  0
 27 82  1  0  0  0  0
 28 81  1  0  0  0  0
 29 31  2  0  0  0  0
 29 80  1  0  0  0  0
 30 83  1  0  0  0  0
 31 84  1  0  0  0  0
 32 65  2  0  0  0  0
 33 66  1  0  0  0  0
 33 69  1  0  0  0  0
 34 36  2  0  0  0  0
 35 70  1  0  0  0  0
 35 75  2  0  0  0  0
 36 59  1  0  0  0  0
 36 60  1  0  0  0  0
 37 51  1  0  0  0  0
 37 72  1  0  0  0  0
 37 76  2  0  0  0  0
 38 62  1  0  0  0  0
 38 67  1  0  0  0  0
 38 77  2  0  0  0  0
 39 63  1  0  0  0  0
 39 73  1  0  0  0  0
 39 78  2  0  0  0  0
 40 68  1  0  0  0  0
 40 71  1  0  0  0  0
 40 79  2  0  0  0  0
 41 44  1  0  0  0  0
 42 51  1  0  0  0  0
 43 67  1  0  0  0  0
 44 46  1  0  0  0  0
 45 47  1  0  0  0  0
 45 48  1  0  0  0  0
 46 50  1  0  0  0  0
 47 52  1  0  0  0  0
 48 68  1  0  0  0  0
 49 52  1  0  0  0  0
 49 68  1  0  0  0  0
 50 72  1  0  0  0  0
 51 67  1  0  0  0  0
 52 66  1  0  0  0  0
 54 63  1  0  0  0  0
 55 64  1  0  0  0  0
 56 64  1  0  0  0  0
 57 64  1  0  0  0  0
 58 74  1  0  0  0  0
 59 61  1  0  0  0  0
 60 81  1  0  0  0  0
 61 82  1  0  0  0  0
 62 64  1  0  0  0  0
 62 73  1  0  0  0  0
 63 74  1  0  0  0  0
 65 66  1  0  0  0  0
M  CHG  1  74   1
M  ISO  4  40 100  61 101  71 100  82 101
M  END
> <Batch ID>
0135

> <Smiles>
C=C(COc1ccc(C)c([100NH:0][100C:0](=O)N2CCCC(n3nc(-c4ccc(Oc5ccc(F)cc5F)cc4)c(C(N)=O)c3N)C2)c1)C[101CH2:1][101O:1]c1ccc2c(c1)CN(C(=O)C(NC(=O)C(C)NC)C(C)(C)C)C(C(=O)NC1CCCc3ccccc31)C2

> <Shape>
0.245

> <Color>
0.068

> <Negative vol penalty>
0.000

$$$$

  -OEChem-04052302363D

 86 94  0     1  0  0  0  0  0999 V2000
  -26.6199  -21.2757   15.7160 C   0  0  0  0  0  0  0  0  0  0  0  0
  -27.3131  -20.4722   16.6156 C   0  0  0  0  0  0  0  0  0  0  0  0
  -23.6754  -29.7831   21.2485 C   0  0  0  0  0  0  0  0  0  0  0  0
  -25.9006  -30.2213   22.0813 C   0  0  0  0  0  0  0  0  0  0  0  0
  -25.2548  -21.4987   15.8908 C   0  0  0  0  0  0  0  0  0  0  0  0
  -26.6417  -19.8920   17.6912 C   0  0  0  0  0  0  0  0  0  0  0  0
  -27.8693  -15.0233   18.3498 C   0  0  0  0  0  0  0  0  0  0  0  0
  -23.1617  -30.7502   22.1124 C   0  0  0  0  0  0  0  0  0  0  0  0
  -25.3869  -31.1885   22.9452 C   0  0  0  0  0  0  0  0  0  0  0  0
  -29.0867  -14.7522   18.9729 C   0  0  0  0  0  0  0  0  0  0  0  0
  -24.3436  -34.3970   22.7516 C   0  0  0  0  0  0  0  0  0  0  0  0
  -25.0206  -35.6136   22.8361 C   0  0  0  0  0  0  0  0  0  0  0  0
  -27.9281  -14.3581   21.0517 C   0  0  0  0  0  0  0  0  0  0  0  0
  -32.5643  -20.5914   19.9989 C   0  0  0  0  0  0  0  0  0  0  0  0
  -33.1491  -18.8479   21.5658 C   0  0  0  0  0  0  0  0  0  0  0  0
  -25.3868  -35.2460   25.1957 C   0  0  0  0  0  0  0  0  0  0  0  0
  -25.0449  -29.5186   21.2330 C   0  0  0  0  0  0  0  0  0  0  0  0
  -26.0317  -28.7118   19.0232 C   0  0  0  0  0  0  0  0  0  0  0  0
  -24.5643  -20.9131   16.9636 C   0  0  0  0  0  0  0  0  0  0  0  0
  -26.6711  -14.9743   19.0768 C   0  0  0  0  0  0  0  0  0  0  0  0
  -25.2663  -20.1084   17.8813 C   0  0  0  0  0  0  0  0  0  0  0  0
  -26.6965  -14.6264   20.4349 C   0  0  0  0  0  0  0  0  0  0  0  0
  -33.4922  -19.9977   20.8546 C   0  0  0  0  0  0  0  0  0  0  0  0
  -31.2932  -20.0353   19.8545 C   0  0  0  0  0  0  0  0  0  0  0  0
  -30.9501  -18.8854   20.5657 C   0  0  0  0  0  0  0  0  0  0  0  0
  -24.0174  -31.4529   22.9607 C   0  0  0  0  0  0  0  0  0  0  0  0
  -29.1165  -14.4224   20.3247 C   0  0  0  0  0  0  0  0  0  0  0  0
  -24.1881  -33.6049   23.8893 C   0  0  0  0  0  0  0  0  0  0  0  0
  -31.8780  -18.2917   21.4213 C   0  0  0  0  0  0  0  0  0  0  0  0
  -25.5422  -36.0381   24.0581 C   0  0  0  0  0  0  0  0  0  0  0  0
  -24.7097  -34.0294   25.1113 C   0  0  0  0  0  0  0  0  0  0  0  0
  -25.5762  -28.5192   20.3413 C   0  0  0  0  0  0  0  0  0  0  0  0
  -26.4321  -27.4638   18.6125 C   0  0  0  0  0  0  0  0  0  0  0  0
  -26.0880  -29.9116   18.2402 C   0  0  0  0  0  0  0  0  0  0  0  0
  -24.4116  -17.0822   19.8216 C   0  0  0  0  0  0  0  0  0  0  0  0
  -22.9234  -14.4706   21.0410 C   0  0  0  0  0  0  0  0  0  0  0  0
  -23.1881  -11.3130   22.3085 C   0  0  0  0  0  0  0  0  0  0  0  0
  -29.1589  -22.8061   19.5165 C   0  0  0  0  0  0  0  0  0  0  0  0
  -23.0983  -21.2214   17.1382 C   0  0  0  0  0  0  0  0  0  0  0  0
  -25.3636  -15.2432   18.3836 C   0  0  0  0  0  0  0  0  0  0  0  0
  -25.4363  -14.5403   21.2551 C   0  0  0  0  0  0  0  0  0  0  0  0
  -22.3843  -20.2661   18.0911 C   0  0  0  0  0  0  0  0  0  0  0  0
  -25.7527  -22.9218   20.7340 C   0  0  0  0  0  0  0  0  0  0  0  0
  -23.2043  -20.0677   19.3619 C   0  0  0  0  0  0  0  0  0  0  0  0
  -25.4428  -24.4162   20.6289 C   0  0  0  0  0  0  0  0  0  0  0  0
  -27.1964  -22.6859   21.1679 C   0  0  0  0  0  0  0  0  0  0  0  0
  -27.9076  -24.8353   20.1942 C   0  0  0  0  0  0  0  0  0  0  0  0
  -24.5679  -19.4414   19.0464 C   0  0  1  0  0  0  0  0  0  0  0  0
  -24.2551  -15.6667   19.3424 C   0  0  1  0  0  0  0  0  0  0  0  0
  -26.4693  -25.1400   19.7375 C   0  0  2  0  0  0  0  0  0  0  0  0
  -34.8507  -20.5933   21.0098 C   0  0  0  0  0  0  0  0  0  0  0  0
  -29.5892  -18.2846   20.4139 C   0  0  0  0  0  0  0  0  0  0  0  0
  -21.8018   -9.4475   23.2546 C   0  0  0  0  0  0  0  0  0  0  0  0
  -22.6581  -16.0025   23.6665 C   0  0  0  0  0  0  0  0  0  0  0  0
  -22.1589  -13.8286   24.8037 C   0  0  0  0  0  0  0  0  0  0  0  0
  -20.6358  -14.6803   23.0212 C   0  0  0  0  0  0  0  0  0  0  0  0
  -31.9282  -15.1391   24.2180 C   0  0  0  0  0  0  0  0  0  0  0  0
  -32.7739  -13.6007   22.4348 C   0  0  0  0  0  0  0  0  0  0  0  0
  -24.0066   -9.4565   20.1538 C   0  0  0  0  0  0  0  0  0  0  0  0
  -30.3173  -20.6908   18.9330 C   0  0  0  0  0  0  0  0  0  0  0  0
  -30.4025  -14.4690   22.3247 C   0  0  0  0  0  0  0  0  0  1  0  0
  -32.3563  -16.0088   21.8856 C   0  0  0  0  0  0  0  0  0  0  0  0
  -22.9089  -13.7770   22.3818 C   0  0  1  0  0  0  0  0  0  0  0  0
  -22.4268  -10.0365   21.9996 C   0  0  2  0  0  0  0  0  0  0  0  0
  -22.1146  -14.5755   23.4536 C   0  0  0  0  0  0  0  0  0  0  0  0
  -31.8586  -14.8062   22.7153 C   0  0  0  0  0  0  0  0  0  0  0  0
  -25.6772  -27.2489   20.7413 N   0  0  0  0  0  0  0  0  0  0  0  0
  -26.2007  -26.6319   19.6683 N   0  0  0  0  0  0  0  0  0  0  0  0
  -24.1834  -14.8182   20.5336 N   0  0  0  0  0  0  0  0  0  0  0  0
  -28.1233  -23.3864   20.2677 N   0  0  0  0  0  0  0  0  0  0  0  0
  -26.9559  -27.0078   17.4549 N   0  0  0  0  0  0  0  0  0  0  0  0
  -25.6364  -31.1069   18.8159 N   0  0  0  0  0  0  0  0  0  0  0  0
  -24.4285  -18.0208   18.8075 N   0  0  0  0  0  0  0  0  0  0  0  0
  -22.3995  -12.4315   22.1398 N   0  0  0  0  0  0  0  0  0  0  0  0
  -29.3007  -21.4301   19.6477 N   0  0  0  0  0  0  0  0  0  0  0  0
  -23.3406   -9.0189   21.4075 N   0  3  0  0  0  0  0  0  0  0  0  0
  -26.5106  -29.9202   17.0592 O   0  0  0  0  0  0  0  0  0  0  0  0
  -24.5082  -17.3064   21.0224 O   0  0  0  0  0  0  0  0  0  0  0  0
  -21.8565  -14.6893   20.4618 O   0  0  0  0  0  0  0  0  0  0  0  0
  -24.3636  -11.3173   22.6673 O   0  0  0  0  0  0  0  0  0  0  0  0
  -29.8996  -23.4651   18.7787 O   0  0  0  0  0  0  0  0  0  0  0  0
  -23.5164  -32.3969   23.8036 O   0  0  0  0  0  0  0  0  0  0  0  0
  -30.3035  -14.1581   20.9355 O   0  0  0  0  0  0  0  0  0  1  0  0
  -31.5593  -17.1613   22.1273 O   0  0  0  0  0  0  0  0  0  0  0  0
  -26.1936  -37.2057   24.1388 F   0  0  0  0  0  0  0  0  0  0  0  0
  -24.5645  -33.2722   26.2074 F   0  0  0  0  0  0  0  0  0  0  0  0
  1  2  1  0  0  0  0
  1  5  2  0  0  0  0
  2  6  2  0  0  0  0
  3  8  2  0  0  0  0
  3 17  1  0  0  0  0
  4  9  1  0  0  0  0
  4 17  2  0  0  0  0
  5 19  1  0  0  0  0
  6 21  1  0  0  0  0
  7 10  2  0  0  0  0
  7 20  1  0  0  0  0
  8 26  1  0  0  0  0
  9 26  2  0  0  0  0
 10 27  1  0  0  0  0
 11 12  2  0  0  0  0
 11 28  1  0  0  0  0
 12 30  1  0  0  0  0
 13 22  1  0  0  0  0
 13 27  2  0  0  0  0
 14 23  1  0  0  0  0
 14 24  2  0  0  0  0
 15 23  2  0  0  0  0
 15 29  1  0  0  0  0
 16 30  2  0  0  0  0
 16 31  1  0  0  0  0
 17 32  1  0  0  0  0
 18 32  1  0  0  0  0
 18 33  2  0  0  0  0
 18 34  1  0  0  0  0
 19 21  2  0  0  0  0
 19 39  1  0  0  0  0
 20 22  2  0  0  0  0
 20 40  1  0  0  0  0
 21 48  1  0  0  0  0
 22 41  1  0  0  0  0
 23 51  1  0  0  0  0
 24 25  1  0  0  0  0
 24 60  1  0  0  0  0
 25 29  2  0  0  0  0
 25 52  1  0  0  0  0
 26 82  1  0  0  0  0
 27 83  1  0  0  0  0
 28 31  2  0  0  0  0
 28 82  1  0  0  0  0
 29 84  1  0  0  0  0
 30 85  1  0  0  0  0
 31 86  1  0  0  0  0
 32 67  2  0  0  0  0
 33 68  1  0  0  0  0
 33 71  1  0  0  0  0
 34 72  1  0  0  0  0
 34 77  2  0  0  0  0
 35 49  1  0  0  0  0
 35 73  1  0  0  0  0
 35 78  2  0  0  0  0
 36 63  1  0  0  0  0
 36 69  1  0  0  0  0
 36 79  2  0  0  0  0
 37 64  1  0  0  0  0
 37 74  1  0  0  0  0
 37 80  2  0  0  0  0
 38 70  1  0  0  0  0
 38 75  1  0  0  0  0
 38 81  2  0  0  0  0
 39 42  1  0  0  0  0
 40 49  1  0  0  0  0
 41 69  1  0  0  0  0
 42 44  1  0  0  0  0
 43 45  1  0  0  0  0
 43 46  1  0  0  0  0
 44 48  1  0  0  0  0
 45 50  1  0  0  0  0
 46 70  1  0  0  0  0
 47 50  1  0  0  0  0
 47 70  1  0  0  0  0
 48 73  1  0  0  0  0
 49 69  1  0  0  0  0
 50 68  1  0  0  0  0
 53 64  1  0  0  0  0
 54 65  1  0  0  0  0
 55 65  1  0  0  0  0
 56 65  1  0  0  0  0
 57 66  1  0  0  0  0
 58 66  1  0  0  0  0
 59 76  1  0  0  0  0
 60 75  1  0  0  0  0
 61 66  1  0  0  0  0
 61 83  1  0  0  0  0
 62 66  1  0  0  0  0
 62 84  1  0  0  0  0
 63 65  1  0  0  0  0
 63 74  1  0  0  0  0
 64 76  1  0  0  0  0
 67 68  1  0  0  0  0
M  CHG  1  76   1
M  ISO  4  38 100  61 101  75 100  83 101
M  END
> <Batch ID>
0135

> <Smiles>
CNC(C)C(=O)NC(C(=O)N1Cc2cc([101O:1][101CH2:1]C(C)(C)COc3cc(C)cc(C[100NH:0][100C:0](=O)N4CCCC(n5nc(-c6ccc(Oc7ccc(F)cc7F)cc6)c(C(N)=O)c5N)C4)c3C)ccc2CC1C(=O)NC1CCCc2ccccc21)C(C)(C)C

> <Shape>
0.238

> <Color>
0.071

> <Negative vol penalty>
0.000

$$$$

  -OEChem-04052302363D

 85 93  0     1  0  0  0  0  0999 V2000
  -17.4030  -13.4325   23.8716 C   0  0  0  0  0  0  0  0  0  0  0  0
  -18.7468  -13.2267   24.1670 C   0  0  0  0  0  0  0  0  0  0  0  0
  -33.3408  -14.9766   24.5182 C   0  0  0  0  0  0  0  0  0  0  0  0
  -23.1530   -9.8662   19.9621 C   0  0  0  0  0  0  0  0  0  0  0  0
  -23.8260   -9.9639   22.2804 C   0  0  0  0  0  0  0  0  0  0  0  0
  -16.8534  -14.7089   23.9838 C   0  0  0  0  0  0  0  0  0  0  0  0
  -19.5421  -14.2975   24.5738 C   0  0  0  0  0  0  0  0  0  0  0  0
  -24.1527  -14.1373   28.6015 C   0  0  0  0  0  0  0  0  0  0  0  0
  -32.7200  -15.4946   25.6548 C   0  0  0  0  0  0  0  0  0  0  0  0
  -32.5809  -14.6573   23.3928 C   0  0  0  0  0  0  0  0  0  0  0  0
  -22.4397   -8.6952   20.2185 C   0  0  0  0  0  0  0  0  0  0  0  0
  -23.1128   -8.7929   22.5368 C   0  0  0  0  0  0  0  0  0  0  0  0
  -25.5358  -14.0655   28.4415 C   0  0  0  0  0  0  0  0  0  0  0  0
  -23.5365   -5.4688   22.0879 C   0  0  0  0  0  0  0  0  0  0  0  0
  -24.1591   -4.4861   22.8575 C   0  0  0  0  0  0  0  0  0  0  0  0
  -25.6783  -16.4646   28.6492 C   0  0  0  0  0  0  0  0  0  0  0  0
  -22.3903   -4.6480   24.4952 C   0  0  0  0  0  0  0  0  0  0  0  0
  -23.8462  -10.5005   20.9930 C   0  0  0  0  0  0  0  0  0  0  0  0
  -24.1066  -13.0317   20.8117 C   0  0  0  0  0  0  0  0  0  0  0  0
  -17.6400  -15.7941   24.4015 C   0  0  0  0  0  0  0  0  0  0  0  0
  -23.5197  -15.3764   28.7759 C   0  0  0  0  0  0  0  0  0  0  0  0
  -19.0027  -15.5898   24.6904 C   0  0  0  0  0  0  0  0  0  0  0  0
  -24.2873  -16.5492   28.8137 C   0  0  0  0  0  0  0  0  0  0  0  0
  -31.3394  -15.6933   25.6661 C   0  0  0  0  0  0  0  0  0  0  0  0
  -30.5795  -15.3740   24.5408 C   0  0  0  0  0  0  0  0  0  0  0  0
  -31.2003  -14.8560   23.4042 C   0  0  0  0  0  0  0  0  0  0  0  0
  -22.4196   -8.1586   21.5058 C   0  0  0  0  0  0  0  0  0  0  0  0
  -26.2985  -15.2295   28.4625 C   0  0  0  0  0  0  0  0  0  0  0  0
  -22.3408   -6.0412   22.5220 C   0  0  0  0  0  0  0  0  0  0  0  0
  -23.5860   -4.0757   24.0611 C   0  0  0  0  0  0  0  0  0  0  0  0
  -21.7677   -5.6308   23.7256 C   0  0  0  0  0  0  0  0  0  0  0  0
  -24.5836  -11.7098   20.7287 C   0  0  0  0  0  0  0  0  0  0  0  0
  -25.1856  -13.8084   20.4665 C   0  0  0  0  0  0  0  0  0  0  0  0
  -22.8047  -13.5144   21.1688 C   0  0  0  0  0  0  0  0  0  0  0  0
  -21.3514  -17.0363   27.1490 C   0  0  0  0  0  0  0  0  0  0  0  0
  -21.5023  -19.0092   29.7194 C   0  0  0  0  0  0  0  0  0  0  0  0
  -23.2932  -20.1612   32.3863 C   0  0  0  0  0  0  0  0  0  0  0  0
  -30.9287  -14.0034   21.0492 C   0  0  0  0  0  0  0  0  0  0  0  0
  -17.0128  -17.1643   24.4624 C   0  0  0  0  0  0  0  0  0  0  0  0
  -22.0298  -15.4344   28.9738 C   0  0  0  0  0  0  0  0  0  0  0  0
  -23.6584  -17.9024   29.0183 C   0  0  0  0  0  0  0  0  0  0  0  0
  -17.8328  -18.1746   25.2607 C   0  0  0  0  0  0  0  0  0  0  0  0
  -29.3960  -13.0213   17.9893 C   0  0  0  0  0  0  0  0  0  0  0  0
  -19.3028  -18.1052   24.8593 C   0  0  0  0  0  0  0  0  0  0  0  0
  -27.9518  -12.7118   18.3901 C   0  0  0  0  0  0  0  0  0  0  0  0
  -30.3878  -12.5991   19.0717 C   0  0  0  0  0  0  0  0  0  0  0  0
  -28.6596  -12.8153   20.8140 C   0  0  0  0  0  0  0  0  0  0  0  0
  -19.8918  -16.7214   25.1587 C   0  0  1  0  0  0  0  0  0  0  0  0
  -21.4340  -16.7961   28.6299 C   0  0  1  0  0  0  0  0  0  0  0  0
  -27.6190  -13.2819   19.7829 C   0  0  2  0  0  0  0  0  0  0  0  0
  -28.6894  -16.8368   23.7833 C   0  0  0  0  0  0  0  0  0  0  0  0
  -23.1691  -21.8002   34.2825 C   0  0  0  0  0  0  0  0  0  0  0  0
  -22.0453  -21.2967   27.7745 C   0  0  0  0  0  0  0  0  0  0  0  0
  -22.8396  -22.6652   29.7147 C   0  0  0  0  0  0  0  0  0  0  0  0
  -20.4788  -21.8631   29.6399 C   0  0  0  0  0  0  0  0  0  0  0  0
  -30.6428  -16.7581   29.9956 C   0  0  0  0  0  0  0  0  0  0  0  0
  -29.6752  -14.4629   30.2840 C   0  0  0  0  0  0  0  0  0  0  0  0
  -23.5293  -18.0147   34.4101 C   0  0  0  0  0  0  0  0  0  0  0  0
  -30.6932  -16.2553   26.9094 C   0  0  0  0  0  0  0  0  0  0  0  0
  -29.0985  -15.5890   24.5576 C   0  0  0  0  0  0  0  0  0  0  0  0
  -30.5518  -15.1835   27.9992 C   0  0  0  0  0  0  0  0  0  0  0  0
  -28.4283  -16.1676   28.9525 C   0  0  0  0  0  0  0  0  0  1  0  0
  -22.3356  -20.2096   30.0983 C   0  0  1  0  0  0  0  0  0  0  0  0
  -22.9131  -20.3675   33.8414 C   0  0  2  0  0  0  0  0  0  0  0  0
  -21.9368  -21.4835   29.3010 C   0  0  0  0  0  0  0  0  0  0  0  0
  -29.8405  -15.6392   29.3055 C   0  0  0  0  0  0  0  0  0  0  0  0
  -25.8657  -11.6465   20.3596 N   0  0  0  0  0  0  0  0  0  0  0  0
  -26.2035  -12.9383   20.2076 N   0  0  0  0  0  0  0  0  0  0  0  0
  -22.1975  -17.9076   29.2008 N   0  0  0  0  0  0  0  0  0  0  0  0
  -30.0116  -13.1800   20.3624 N   0  0  0  0  0  0  0  0  0  0  0  0
  -25.3534  -15.1438   20.3623 N   0  0  0  0  0  0  0  0  0  0  0  0
  -21.8122  -12.5803   21.4956 N   0  0  0  0  0  0  0  0  0  0  0  0
  -30.4481  -14.5252   22.2498 N   0  0  0  0  0  0  0  0  0  0  0  0
  -20.1786  -16.5890   26.5710 N   0  0  0  0  0  0  0  0  0  0  0  0
  -22.2165  -20.3488   31.5456 N   0  0  0  0  0  0  0  0  0  0  0  0
  -23.7041  -19.4576   34.7175 N   0  3  0  0  0  0  0  0  0  0  0  0
  -22.5249  -14.7371   21.1815 O   0  0  0  0  0  0  0  0  0  0  0  0
  -22.2821  -17.5879   26.5735 O   0  0  0  0  0  0  0  0  0  0  0  0
  -20.2804  -19.0450   29.8844 O   0  0  0  0  0  0  0  0  0  0  0  0
  -24.4323  -19.8668   32.0307 O   0  0  0  0  0  0  0  0  0  0  0  0
  -32.0473  -14.2510   20.5918 O   0  0  0  0  0  0  0  0  0  0  0  0
  -21.7235   -7.0162   21.7565 O   0  0  0  0  0  0  0  0  0  0  0  0
  -27.6487  -15.1623   28.3060 O   0  0  0  0  0  0  0  0  0  1  0  0
  -24.1832   -3.1309   24.7992 F   0  0  0  0  0  0  0  0  0  0  0  0
  -20.6185   -6.1761   24.1473 F   0  0  0  0  0  0  0  0  0  0  0  0
  1  2  1  0  0  0  0
  1  6  2  0  0  0  0
  2  7  2  0  0  0  0
  3  9  1  0  0  0  0
  3 10  2  0  0  0  0
  4 11  2  0  0  0  0
  4 18  1  0  0  0  0
  5 12  1  0  0  0  0
  5 18  2  0  0  0  0
  6 20  1  0  0  0  0
  7 22  1  0  0  0  0
  8 13  2  0  0  0  0
  8 21  1  0  0  0  0
  9 24  2  0  0  0  0
 10 26  1  0  0  0  0
 11 27  1  0  0  0  0
 12 27  2  0  0  0  0
 13 28  1  0  0  0  0
 14 15  2  0  0  0  0
 14 29  1  0  0  0  0
 15 30  1  0  0  0  0
 16 23  1  0  0  0  0
 16 28  2  0  0  0  0
 17 30  2  0  0  0  0
 17 31  1  0  0  0  0
 18 32  1  0  0  0  0
 19 32  1  0  0  0  0
 19 33  2  0  0  0  0
 19 34  1  0  0  0  0
 20 22  2  0  0  0  0
 20 39  1  0  0  0  0
 21 23  2  0  0  0  0
 21 40  1  0  0  0  0
 22 48  1  0  0  0  0
 23 41  1  0  0  0  0
 24 25  1  0  0  0  0
 24 59  1  0  0  0  0
 25 26  2  0  0  0  0
 25 60  1  0  0  0  0
 26 73  1  0  0  0  0
 27 82  1  0  0  0  0
 28 83  1  0  0  0  0
 29 31  2  0  0  0  0
 29 82  1  0  0  0  0
 30 84  1  0  0  0  0
 31 85  1  0  0  0  0
 32 67  2  0  0  0  0
 33 68  1  0  0  0  0
 33 71  1  0  0  0  0
 34 72  1  0  0  0  0
 34 77  2  0  0  0  0
 35 49  1  0  0  0  0
 35 74  1  0  0  0  0
 35 78  2  0  0  0  0
 36 63  1  0  0  0  0
 36 69  1  0  0  0  0
 36 79  2  0  0  0  0
 37 64  1  0  0  0  0
 37 75  1  0  0  0  0
 37 80  2  0  0  0  0
 38 70  1  0  0  0  0
 38 73  1  0  0  0  0
 38 81  2  0  0  0  0
 39 42  1  0  0  0  0
 40 49  1  0  0  0  0
 41 69  1  0  0  0  0
 42 44  1  0  0  0  0
 43 45  1  0  0  0  0
 43 46  1  0  0  0  0
 44 48  1  0  0  0  0
 45 50  1  0  0  0  0
 46 70  1  0  0  0  0
 47 50  1  0  0  0  0
 47 70  1  0  0  0  0
 48 74  1  0  0  0  0
 49 69  1  0  0  0  0
 50 68  1  0  0  0  0
 51 60  1  0  0  0  0
 52 64  1  0  0  0  0
 53 65  1  0  0  0  0
 54 65  1  0  0  0  0
 55 65  1  0  0  0  0
 56 66  1  0  0  0  0
 57 66  1  0  0  0  0
 58 76  1  0  0  0  0
 59 61  1  0  0  0  0
 61 66  1  0  0  0  0
 62 66  1  0  0  0  0
 62 83  1  0  0  0  0
 63 65  1  0  0  0  0
 63 75  1  0  0  0  0
 64 76  1  0  0  0  0
 67 68  1  0  0  0  0
M  CHG  1  76   1
M  ISO  4  38 100  62 101  73 100  83 101
M  END
> <Batch ID>
0135

> <Smiles>
CCc1c(CCC(C)(C)[101CH2:1][101O:1]c2ccc3c(c2)CN(C(=O)C(NC(=O)C(C)NC)C(C)(C)C)C(C(=O)NC2CCCc4ccccc42)C3)cccc1[100NH:0][100C:0](=O)N1CCCC(n2nc(-c3ccc(Oc4ccc(F)cc4F)cc3)c(C(N)=O)c2N)C1

> <Shape>
0.153

> <Color>
0.188

> <Negative vol penalty>
0.000

$$$$

  -OEChem-04052302363D

 80 88  0     1  0  0  0  0  0999 V2000
  -29.3111  -22.4058   28.0880 C   0  0  0  0  0  0  0  0  0  0  0  0
  -29.4466  -23.0614   26.8684 C   0  0  0  0  0  0  0  0  0  0  0  0
  -24.5361  -14.0745   21.6699 C   0  0  0  0  0  0  0  0  0  0  0  0
  -26.8424  -13.6019   21.1270 C   0  0  0  0  0  0  0  0  0  0  0  0
  -28.0600  -21.9440   28.4946 C   0  0  0  0  0  0  0  0  0  0  0  0
  -28.3312  -23.2546   26.0543 C   0  0  0  0  0  0  0  0  0  0  0  0
  -28.0987  -27.9445   24.1581 C   0  0  0  0  0  0  0  0  0  0  0  0
  -24.1450  -12.8957   21.0352 C   0  0  0  0  0  0  0  0  0  0  0  0
  -26.4513  -12.4230   20.4923 C   0  0  0  0  0  0  0  0  0  0  0  0
  -28.9293  -28.2361   23.0770 C   0  0  0  0  0  0  0  0  0  0  0  0
  -24.1006   -9.5875   21.7329 C   0  0  0  0  0  0  0  0  0  0  0  0
  -23.1750   -8.7750   22.3876 C   0  0  0  0  0  0  0  0  0  0  0  0
  -27.0677  -27.9336   21.5729 C   0  0  0  0  0  0  0  0  0  0  0  0
  -29.4799  -26.4905   17.9044 C   0  0  0  0  0  0  0  0  0  0  0  0
  -21.6502   -9.0145   20.5289 C   0  0  0  0  0  0  0  0  0  0  0  0
  -25.8848  -14.4277   21.7158 C   0  0  0  0  0  0  0  0  0  0  0  0
  -26.6411  -15.8065   23.7244 C   0  0  0  0  0  0  0  0  0  0  0  0
  -26.9270  -22.1401   27.6894 C   0  0  0  0  0  0  0  0  0  0  0  0
  -26.7466  -27.6341   23.9535 C   0  0  0  0  0  0  0  0  0  0  0  0
  -27.0640  -22.7937   26.4499 C   0  0  0  0  0  0  0  0  0  0  0  0
  -26.2214  -27.6409   22.6534 C   0  0  0  0  0  0  0  0  0  0  0  0
  -29.1859  -25.1104   17.7934 C   0  0  0  0  0  0  0  0  0  0  0  0
  -25.1026  -12.0699   20.4464 C   0  0  0  0  0  0  0  0  0  0  0  0
  -28.4145  -28.2278   21.7839 C   0  0  0  0  0  0  0  0  0  0  0  0
  -23.8011  -10.1135   20.4762 C   0  0  0  0  0  0  0  0  0  0  0  0
  -21.9498   -8.4885   21.7856 C   0  0  0  0  0  0  0  0  0  0  0  0
  -22.5759   -9.8270   19.8742 C   0  0  0  0  0  0  0  0  0  0  0  0
  -26.2893  -15.6456   22.3709 C   0  0  0  0  0  0  0  0  0  0  0  0
  -30.4319  -26.6001   18.8910 C   0  0  0  0  0  0  0  0  0  0  0  0
  -29.9795  -24.4751   18.7201 C   0  0  0  0  0  0  0  0  0  0  0  0
  -26.9437  -17.1409   23.8443 C   0  0  0  0  0  0  0  0  0  0  0  0
  -26.6901  -14.8364   24.7791 C   0  0  0  0  0  0  0  0  0  0  0  0
  -24.9198  -25.0926   24.5082 C   0  0  0  0  0  0  0  0  0  0  0  0
  -22.5431  -27.0742   23.5349 C   0  0  0  0  0  0  0  0  0  0  0  0
  -21.6191  -29.8313   21.7485 C   0  0  0  0  0  0  0  0  0  0  0  0
  -28.8638  -21.1071   19.9153 C   0  0  0  0  0  0  0  0  0  0  0  0
  -25.6038  -21.5813   28.1496 C   0  0  0  0  0  0  0  0  0  0  0  0
  -25.8576  -27.3480   25.1326 C   0  0  0  0  0  0  0  0  0  0  0  0
  -24.7721  -27.3340   22.3819 C   0  0  0  0  0  0  0  0  0  0  0  0
  -24.4055  -22.1573   27.3997 C   0  0  0  0  0  0  0  0  0  0  0  0
  -25.8846  -21.4059   21.9482 C   0  0  0  0  0  0  0  0  0  0  0  0
  -24.6680  -22.1618   25.8971 C   0  0  0  0  0  0  0  0  0  0  0  0
  -25.6895  -19.9625   22.4158 C   0  0  0  0  0  0  0  0  0  0  0  0
  -26.3906  -21.4574   20.5096 C   0  0  0  0  0  0  0  0  0  0  0  0
  -27.4503  -19.2439   20.7357 C   0  0  0  0  0  0  0  0  0  0  0  0
  -25.8732  -23.0442   25.5502 C   0  0  1  0  0  0  0  0  0  0  0  0
  -24.6161  -26.5419   24.7632 C   0  0  1  0  0  0  0  0  0  0  0  0
  -26.9614  -19.1237   22.1905 C   0  0  2  0  0  0  0  0  0  0  0  0
  -28.2216  -24.4853   16.8701 C   0  0  0  0  0  0  0  0  0  0  0  0
  -19.6014  -31.1799   21.1102 C   0  0  0  0  0  0  0  0  0  0  0  0
  -21.7502  -24.9278   21.5164 C   0  0  0  0  0  0  0  0  0  0  0  0
  -20.4028  -26.6589   20.3098 C   0  0  0  0  0  0  0  0  0  0  0  0
  -19.8274  -26.0469   22.6587 C   0  0  0  0  0  0  0  0  0  0  0  0
  -22.6784  -32.2576   23.0715 C   0  0  0  0  0  0  0  0  0  0  0  0
  -31.1644  -27.7741   19.4939 C   0  0  0  0  0  0  0  0  0  0  0  0
  -30.1526  -23.0666   19.1051 C   0  0  0  0  0  0  0  0  0  0  0  0
  -30.6030  -28.1709   20.8549 C   0  0  0  0  0  0  0  0  0  1  0  0
  -21.9080  -27.4105   22.2073 C   0  0  1  0  0  0  0  0  0  0  0  0
  -20.7385  -31.0149   22.1064 C   0  0  2  0  0  0  0  0  0  0  0  0
  -20.9999  -26.2650   21.6777 C   0  0  0  0  0  0  0  0  0  0  0  0
  -26.3611  -16.7867   21.6803 N   0  0  0  0  0  0  0  0  0  0  0  0
  -26.7615  -17.6773   22.6037 N   0  0  0  0  0  0  0  0  0  0  0  0
  -23.9447  -27.0544   23.5671 N   0  0  0  0  0  0  0  0  0  0  0  0
  -27.6131  -20.6542   20.3670 N   0  0  0  0  0  0  0  0  0  0  0  0
  -27.3451  -17.8959   24.8889 N   0  0  0  0  0  0  0  0  0  0  0  0
  -26.3478  -13.5099   24.4832 N   0  0  0  0  0  0  0  0  0  0  0  0
  -25.5011  -24.4425   25.5800 N   0  0  0  0  0  0  0  0  0  0  0  0
  -21.2176  -28.6818   22.3955 N   0  0  0  0  0  0  0  0  0  0  0  0
  -28.9319  -22.4538   19.5799 N   0  0  0  0  0  0  0  0  0  0  0  0
  -21.5393  -32.2717   22.1178 N   0  3  0  0  0  0  0  0  0  0  0  0
  -27.0116  -15.1403   25.9529 O   0  0  0  0  0  0  0  0  0  0  0  0
  -24.6455  -24.6003   23.4200 O   0  0  0  0  0  0  0  0  0  0  0  0
  -21.8223  -26.8447   24.5093 O   0  0  0  0  0  0  0  0  0  0  0  0
  -22.5661  -29.9171   20.9698 O   0  0  0  0  0  0  0  0  0  0  0  0
  -29.8491  -20.3670   19.8226 O   0  0  0  0  0  0  0  0  0  0  0  0
  -30.7421  -25.3761   19.3933 O   0  0  0  0  0  0  0  0  0  0  0  0
  -24.7214  -10.9193   19.8271 O   0  0  0  0  0  0  0  0  0  0  0  0
  -29.2232  -28.5114   20.7268 O   0  0  0  0  0  0  0  0  0  1  0  0
  -21.0616   -7.7070   22.4138 F   0  0  0  0  0  0  0  0  0  0  0  0
  -22.2829  -10.3285   18.6665 F   0  0  0  0  0  0  0  0  0  0  0  0
  1  2  1  0  0  0  0
  1  5  2  0  0  0  0
  2  6  2  0  0  0  0
  3  8  2  0  0  0  0
  3 16  1  0  0  0  0
  4  9  1  0  0  0  0
  4 16  2  0  0  0  0
  5 18  1  0  0  0  0
  6 20  1  0  0  0  0
  7 10  2  0  0  0  0
  7 19  1  0  0  0  0
  8 23  1  0  0  0  0
  9 23  2  0  0  0  0
 10 24  1  0  0  0  0
 11 12  2  0  0  0  0
 11 25  1  0  0  0  0
 12 26  1  0  0  0  0
 13 21  1  0  0  0  0
 13 24  2  0  0  0  0
 14 22  1  0  0  0  0
 14 29  2  0  0  0  0
 15 26  2  0  0  0  0
 15 27  1  0  0  0  0
 16 28  1  0  0  0  0
 17 28  1  0  0  0  0
 17 31  2  0  0  0  0
 17 32  1  0  0  0  0
 18 20  2  0  0  0  0
 18 37  1  0  0  0  0
 19 21  2  0  0  0  0
 19 38  1  0  0  0  0
 20 46  1  0  0  0  0
 21 39  1  0  0  0  0
 22 30  2  0  0  0  0
 22 49  1  0  0  0  0
 23 77  1  0  0  0  0
 24 78  1  0  0  0  0
 25 27  2  0  0  0  0
 25 77  1  0  0  0  0
 26 79  1  0  0  0  0
 27 80  1  0  0  0  0
 28 61  2  0  0  0  0
 29 55  1  0  0  0  0
 29 76  1  0  0  0  0
 30 56  1  0  0  0  0
 30 76  1  0  0  0  0
 31 62  1  0  0  0  0
 31 65  1  0  0  0  0
 32 66  1  0  0  0  0
 32 71  2  0  0  0  0
 33 47  1  0  0  0  0
 33 67  1  0  0  0  0
 33 72  2  0  0  0  0
 34 58  1  0  0  0  0
 34 63  1  0  0  0  0
 34 73  2  0  0  0  0
 35 59  1  0  0  0  0
 35 68  1  0  0  0  0
 35 74  2  0  0  0  0
 36 64  1  0  0  0  0
 36 69  1  0  0  0  0
 36 75  2  0  0  0  0
 37 40  1  0  0  0  0
 38 47  1  0  0  0  0
 39 63  1  0  0  0  0
 40 42  1  0  0  0  0
 41 43  1  0  0  0  0
 41 44  1  0  0  0  0
 42 46  1  0  0  0  0
 43 48  1  0  0  0  0
 44 64  1  0  0  0  0
 45 48  1  0  0  0  0
 45 64  1  0  0  0  0
 46 67  1  0  0  0  0
 47 63  1  0  0  0  0
 48 62  1  0  0  0  0
 50 59  1  0  0  0  0
 51 60  1  0  0  0  0
 52 60  1  0  0  0  0
 53 60  1  0  0  0  0
 54 70  1  0  0  0  0
 55 57  1  0  0  0  0
 56 69  1  0  0  0  0
 57 78  1  0  0  0  0
 58 60  1  0  0  0  0
 58 68  1  0  0  0  0
 59 70  1  0  0  0  0
 61 62  1  0  0  0  0
M  CHG  1  70   1
M  ISO  4  36 100  57 101  69 100  78 101
M  END
> <Batch ID>
0135

> <Smiles>
CNC(C)C(=O)NC(C(=O)N1Cc2cc([101O:1][101CH2:1]Cc3cc(C)c(C[100NH:0][100C:0](=O)N4CCCC(n5nc(-c6ccc(Oc7ccc(F)cc7F)cc6)c(C(N)=O)c5N)C4)o3)ccc2CC1C(=O)NC1CCCc2ccccc21)C(C)(C)C

> <Shape>
0.206

> <Color>
0.077

> <Negative vol penalty>
0.000

$$$$

  -OEChem-04052302363D

 88 96  0     1  0  0  0  0  0999 V2000
  -18.6094  -29.6637   26.5295 C   0  0  0  0  0  0  0  0  0  0  0  0
  -19.9835  -29.4668   26.6210 C   0  0  0  0  0  0  0  0  0  0  0  0
  -23.7052   -9.4950   21.3526 C   0  0  0  0  0  0  0  0  0  0  0  0
  -24.0706  -10.6096   23.4647 C   0  0  0  0  0  0  0  0  0  0  0  0
  -17.9494  -29.4160   25.3265 C   0  0  0  0  0  0  0  0  0  0  0  0
  -20.6984  -29.0210   25.5099 C   0  0  0  0  0  0  0  0  0  0  0  0
  -27.1182  -29.6289   22.3902 C   0  0  0  0  0  0  0  0  0  0  0  0
  -23.1251   -8.4173   22.0217 C   0  0  0  0  0  0  0  0  0  0  0  0
  -23.4905   -9.5319   24.1338 C   0  0  0  0  0  0  0  0  0  0  0  0
  -28.1539  -28.8382   21.8941 C   0  0  0  0  0  0  0  0  0  0  0  0
  -24.1669   -5.7218   23.7748 C   0  0  0  0  0  0  0  0  0  0  0  0
  -24.5497   -4.4376   23.3877 C   0  0  0  0  0  0  0  0  0  0  0  0
  -26.9206  -28.5188   19.8456 C   0  0  0  0  0  0  0  0  0  0  0  0
  -28.7784  -20.4610   20.8546 C   0  0  0  0  0  0  0  0  0  0  0  0
  -30.8073  -18.6525   20.2255 C   0  0  0  0  0  0  0  0  0  0  0  0
  -22.2589   -3.9275   22.8141 C   0  0  0  0  0  0  0  0  0  0  0  0
  -24.1780  -10.5911   22.0741 C   0  0  0  0  0  0  0  0  0  0  0  0
  -24.1256  -12.8509   20.8916 C   0  0  0  0  0  0  0  0  0  0  0  0
  -18.6581  -28.9762   24.1974 C   0  0  0  0  0  0  0  0  0  0  0  0
  -25.9693  -29.8619   21.6207 C   0  0  0  0  0  0  0  0  0  0  0  0
  -20.0471  -28.7659   24.2911 C   0  0  0  0  0  0  0  0  0  0  0  0
  -25.8729  -29.3149   20.3332 C   0  0  0  0  0  0  0  0  0  0  0  0
  -30.0262  -20.9285   20.4423 C   0  0  0  0  0  0  0  0  0  0  0  0
  -28.5450  -19.0893   20.9524 C   0  0  0  0  0  0  0  0  0  0  0  0
  -31.0407  -20.0243   20.1277 C   0  0  0  0  0  0  0  0  0  0  0  0
  -29.5595  -18.1850   20.6378 C   0  0  0  0  0  0  0  0  0  0  0  0
  -23.0178   -8.4357   23.4123 C   0  0  0  0  0  0  0  0  0  0  0  0
  -28.0539  -28.2807   20.6228 C   0  0  0  0  0  0  0  0  0  0  0  0
  -22.8300   -6.1088   23.6816 C   0  0  0  0  0  0  0  0  0  0  0  0
  -23.5958   -3.5404   22.9074 C   0  0  0  0  0  0  0  0  0  0  0  0
  -21.8760   -5.2117   23.2012 C   0  0  0  0  0  0  0  0  0  0  0  0
  -24.7778  -11.7044   21.3835 C   0  0  0  0  0  0  0  0  0  0  0  0
  -25.1279  -13.5992   20.3242 C   0  0  0  0  0  0  0  0  0  0  0  0
  -22.7379  -13.2076   20.9430 C   0  0  0  0  0  0  0  0  0  0  0  0
  -22.8755  -29.2139   21.9561 C   0  0  0  0  0  0  0  0  0  0  0  0
  -30.3293  -25.4742   20.4788 C   0  0  0  0  0  0  0  0  0  0  0  0
  -22.6091  -30.9936   19.2572 C   0  0  0  0  0  0  0  0  0  0  0  0
  -24.0873  -32.2129   16.4331 C   0  0  0  0  0  0  0  0  0  0  0  0
  -30.2535  -15.7705   20.4512 C   0  0  0  0  0  0  0  0  0  0  0  0
  -17.8940  -28.6764   22.9321 C   0  0  0  0  0  0  0  0  0  0  0  0
  -24.8727  -30.7390   22.1597 C   0  0  0  0  0  0  0  0  0  0  0  0
  -24.6694  -29.5514   19.4592 C   0  0  0  0  0  0  0  0  0  0  0  0
  -18.7825  -28.5648   21.6959 C   0  0  0  0  0  0  0  0  0  0  0  0
  -29.9409  -12.4178   19.2943 C   0  0  0  0  0  0  0  0  0  0  0  0
  -19.9997  -27.6938   21.9902 C   0  0  0  0  0  0  0  0  0  0  0  0
  -28.5161  -12.0276   19.6942 C   0  0  0  0  0  0  0  0  0  0  0  0
  -30.5996  -13.3122   20.3431 C   0  0  0  0  0  0  0  0  0  0  0  0
  -28.4021  -14.1136   21.1164 C   0  0  0  0  0  0  0  0  0  0  0  0
  -20.8612  -28.3068   23.1008 C   0  0  1  0  0  0  0  0  0  0  0  0
  -23.5240  -30.4876   21.4925 C   0  0  1  0  0  0  0  0  0  0  0  0
  -27.6745  -13.2659   20.0602 C   0  0  2  0  0  0  0  0  0  0  0  0
  -32.3846  -20.5015   19.6843 C   0  0  0  0  0  0  0  0  0  0  0  0
  -26.3511  -18.1113   20.2335 C   0  0  0  0  0  0  0  0  0  0  0  0
  -23.6060  -33.6063   14.4023 C   0  0  0  0  0  0  0  0  0  0  0  0
  -21.0948  -28.6546   18.0141 C   0  0  0  0  0  0  0  0  0  0  0  0
  -21.4768  -29.6917   15.7676 C   0  0  0  0  0  0  0  0  0  0  0  0
  -20.1452  -30.9083   17.4909 C   0  0  0  0  0  0  0  0  0  0  0  0
  -31.4461  -22.3541   22.5977 C   0  0  0  0  0  0  0  0  0  0  0  0
  -29.1681  -23.3551   22.3863 C   0  0  0  0  0  0  0  0  0  0  0  0
  -26.1297  -34.2191   17.1829 C   0  0  0  0  0  0  0  0  0  0  0  0
  -30.2557  -22.4192   20.3442 C   0  0  0  0  0  0  0  0  0  0  0  0
  -27.1988  -18.6167   21.3966 C   0  0  0  0  0  0  0  0  0  0  0  0
  -31.1558  -24.5704   21.3813 C   0  0  0  0  0  0  0  0  0  0  0  0
  -29.8323  -26.7711   21.0859 C   0  0  0  0  0  0  0  0  0  1  0  0
  -22.6488  -30.7026   17.7764 C   0  0  1  0  0  0  0  0  0  0  0  0
  -24.1184  -33.6074   15.8342 C   0  0  2  0  0  0  0  0  0  0  0  0
  -21.3634  -29.9831   17.2792 C   0  0  0  0  0  0  0  0  0  0  0  0
  -30.5304  -23.1849   21.6785 C   0  0  0  0  0  0  0  0  0  0  0  0
  -26.0927  -11.7187   21.1491 N   0  0  0  0  0  0  0  0  0  0  0  0
  -26.2748  -12.8832   20.5035 N   0  0  0  0  0  0  0  0  0  0  0  0
  -23.6209  -30.4108   20.0334 N   0  0  0  0  0  0  0  0  0  0  0  0
  -29.7474  -14.4666   20.6362 N   0  0  0  0  0  0  0  0  0  0  0  0
  -25.1312  -14.7932   19.6943 N   0  0  0  0  0  0  0  0  0  0  0  0
  -21.8435  -12.3243   21.5630 N   0  0  0  0  0  0  0  0  0  0  0  0
  -29.3418  -16.7880   20.7308 N   0  0  0  0  0  0  0  0  0  0  0  0
  -21.6562  -29.3981   22.5797 N   0  0  0  0  0  0  0  0  0  0  0  0
  -22.9134  -31.9768   17.1169 N   0  0  0  0  0  0  0  0  0  0  0  0
  -25.5100  -34.1406   15.8350 N   0  3  0  0  0  0  0  0  0  0  0  0
  -22.3013  -14.2701   20.4391 O   0  0  0  0  0  0  0  0  0  0  0  0
  -23.4389  -28.1433   21.7611 O   0  0  0  0  0  0  0  0  0  0  0  0
  -30.0742  -25.1601   19.3165 O   0  0  0  0  0  0  0  0  0  0  0  0
  -21.7176  -31.7174   19.7076 O   0  0  0  0  0  0  0  0  0  0  0  0
  -25.0103  -31.4117   16.3039 O   0  0  0  0  0  0  0  0  0  0  0  0
  -31.4018  -15.9696   20.0465 O   0  0  0  0  0  0  0  0  0  0  0  0
  -22.4516   -7.3844   24.0655 O   0  0  0  0  0  0  0  0  0  0  0  0
  -29.0630  -27.5080   20.1364 O   0  0  0  0  0  0  0  0  0  1  0  0
  -23.9638   -2.3077   22.5343 F   0  0  0  0  0  0  0  0  0  0  0  0
  -20.5904   -5.5782   23.1082 F   0  0  0  0  0  0  0  0  0  0  0  0
  1  2  1  0  0  0  0
  1  5  2  0  0  0  0
  2  6  2  0  0  0  0
  3  8  2  0  0  0  0
  3 17  1  0  0  0  0
  4  9  1  0  0  0  0
  4 17  2  0  0  0  0
  5 19  1  0  0  0  0
  6 21  1  0  0  0  0
  7 10  2  0  0  0  0
  7 20  1  0  0  0  0
  8 27  1  0  0  0  0
  9 27  2  0  0  0  0
 10 28  1  0  0  0  0
 11 12  2  0  0  0  0
 11 29  1  0  0  0  0
 12 30  1  0  0  0  0
 13 22  1  0  0  0  0
 13 28  2  0  0  0  0
 14 23  2  0  0  0  0
 14 24  1  0  0  0  0
 15 25  2  0  0  0  0
 15 26  1  0  0  0  0
 16 30  2  0  0  0  0
 16 31  1  0  0  0  0
 17 32  1  0  0  0  0
 18 32  1  0  0  0  0
 18 33  2  0  0  0  0
 18 34  1  0  0  0  0
 19 21  2  0  0  0  0
 19 40  1  0  0  0  0
 20 22  2  0  0  0  0
 20 41  1  0  0  0  0
 21 49  1  0  0  0  0
 22 42  1  0  0  0  0
 23 25  1  0  0  0  0
 23 61  1  0  0  0  0
 24 26  2  0  0  0  0
 24 62  1  0  0  0  0
 25 52  1  0  0  0  0
 26 75  1  0  0  0  0
 27 85  1  0  0  0  0
 28 86  1  0  0  0  0
 29 31  2  0  0  0  0
 29 85  1  0  0  0  0
 30 87  1  0  0  0  0
 31 88  1  0  0  0  0
 32 69  2  0  0  0  0
 33 70  1  0  0  0  0
 33 73  1  0  0  0  0
 34 74  1  0  0  0  0
 34 79  2  0  0  0  0
 35 50  1  0  0  0  0
 35 76  1  0  0  0  0
 35 80  2  0  0  0  0
 36 63  1  0  0  0  0
 36 64  1  0  0  0  0
 36 81  2  0  0  0  0
 37 65  1  0  0  0  0
 37 71  1  0  0  0  0
 37 82  2  0  0  0  0
 38 66  1  0  0  0  0
 38 77  1  0  0  0  0
 38 83  2  0  0  0  0
 39 72  1  0  0  0  0
 39 75  1  0  0  0  0
 39 84  2  0  0  0  0
 40 43  1  0  0  0  0
 41 50  1  0  0  0  0
 42 71  1  0  0  0  0
 43 45  1  0  0  0  0
 44 46  1  0  0  0  0
 44 47  1  0  0  0  0
 45 49  1  0  0  0  0
 46 51  1  0  0  0  0
 47 72  1  0  0  0  0
 48 51  1  0  0  0  0
 48 72  1  0  0  0  0
 49 76  1  0  0  0  0
 50 71  1  0  0  0  0
 51 70  1  0  0  0  0
 53 62  1  0  0  0  0
 54 66  1  0  0  0  0
 55 67  1  0  0  0  0
 56 67  1  0  0  0  0
 57 67  1  0  0  0  0
 58 68  1  0  0  0  0
 59 68  1  0  0  0  0
 60 78  1  0  0  0  0
 61 68  1  0  0  0  0
 63 68  1  0  0  0  0
 64 86  1  0  0  0  0
 65 67  1  0  0  0  0
 65 77  1  0  0  0  0
 66 78  1  0  0  0  0
 69 70  1  0  0  0  0
M  CHG  1  78   1
M  ISO  4  39 100  64 101  75 100  86 101
M  END
> <Batch ID>
0135

> <Smiles>
CCc1cc(CC(C)(C)CC(=O)[101CH2:1][101O:1]c2ccc3c(c2)CN(C(=O)C(NC(=O)C(C)NC)C(C)(C)C)C(C(=O)NC2CCCc4ccccc42)C3)c(C)cc1[100NH:0][100C:0](=O)N1CCCC(n2nc(-c3ccc(Oc4ccc(F)cc4F)cc3)c(C(N)=O)c2N)C1

> <Shape>
0.332

> <Color>
0.171

> <Negative vol penalty>
0.000

$$$$

  -OEChem-04052302363D

 87 95  0     1  0  0  0  0  0999 V2000
  -33.3471  -20.9656   30.7473 C   0  0  0  0  0  0  0  0  0  0  0  0
  -33.1104  -19.6671   30.3076 C   0  0  0  0  0  0  0  0  0  0  0  0
  -23.2882   -9.8004   19.9131 C   0  0  0  0  0  0  0  0  0  0  0  0
  -23.7417   -9.9400   22.2821 C   0  0  0  0  0  0  0  0  0  0  0  0
  -33.5294  -21.9916   29.8211 C   0  0  0  0  0  0  0  0  0  0  0  0
  -33.0547  -19.3941   28.9413 C   0  0  0  0  0  0  0  0  0  0  0  0
  -37.5382  -14.6300   25.9259 C   0  0  0  0  0  0  0  0  0  0  0  0
  -22.5625   -8.6275   20.1212 C   0  0  0  0  0  0  0  0  0  0  0  0
  -23.0160   -8.7671   22.4901 C   0  0  0  0  0  0  0  0  0  0  0  0
  -38.2191  -13.5785   25.3120 C   0  0  0  0  0  0  0  0  0  0  0  0
  -19.7696   -7.8546   22.7108 C   0  0  0  0  0  0  0  0  0  0  0  0
  -18.8684   -7.8321   23.7753 C   0  0  0  0  0  0  0  0  0  0  0  0
  -37.2185  -14.1566   23.1877 C   0  0  0  0  0  0  0  0  0  0  0  0
  -31.7009  -12.2779   26.2180 C   0  0  0  0  0  0  0  0  0  0  0  0
  -32.8161  -12.2772   23.6609 C   0  0  0  0  0  0  0  0  0  0  0  0
  -20.0761   -5.9849   24.7584 C   0  0  0  0  0  0  0  0  0  0  0  0
  -23.8778  -10.4566   20.9936 C   0  0  0  0  0  0  0  0  0  0  0  0
  -24.1360  -12.9868   20.7959 C   0  0  0  0  0  0  0  0  0  0  0  0
  -33.4855  -21.7294   28.4427 C   0  0  0  0  0  0  0  0  0  0  0  0
  -36.7058  -15.4593   25.1691 C   0  0  0  0  0  0  0  0  0  0  0  0
  -33.2353  -20.4179   27.9958 C   0  0  0  0  0  0  0  0  0  0  0  0
  -36.5436  -15.2191   23.7947 C   0  0  0  0  0  0  0  0  0  0  0  0
  -30.9110  -12.5934   25.1126 C   0  0  0  0  0  0  0  0  0  0  0  0
  -33.0485  -11.9621   26.0449 C   0  0  0  0  0  0  0  0  0  0  0  0
  -31.4686  -12.5931   23.8340 C   0  0  0  0  0  0  0  0  0  0  0  0
  -22.4264   -8.1108   21.4096 C   0  0  0  0  0  0  0  0  0  0  0  0
  -38.0594  -13.3423   23.9464 C   0  0  0  0  0  0  0  0  0  0  0  0
  -20.8239   -6.9423   22.6701 C   0  0  0  0  0  0  0  0  0  0  0  0
  -33.6061  -11.9618   24.7663 C   0  0  0  0  0  0  0  0  0  0  0  0
  -19.0217   -6.8972   24.7991 C   0  0  0  0  0  0  0  0  0  0  0  0
  -20.9772   -6.0074   23.6939 C   0  0  0  0  0  0  0  0  0  0  0  0
  -24.6280  -11.6680   20.7793 C   0  0  0  0  0  0  0  0  0  0  0  0
  -25.2368  -13.7673   20.5400 C   0  0  0  0  0  0  0  0  0  0  0  0
  -37.6721  -10.2367   23.7496 C   0  0  0  0  0  0  0  0  0  0  0  0
  -22.8030  -13.4638   21.0225 C   0  0  0  0  0  0  0  0  0  0  0  0
  -36.4730   -9.8565   24.2345 C   0  0  0  0  0  0  0  0  0  0  0  0
  -34.4022  -18.4201   25.1148 C   0  0  0  0  0  0  0  0  0  0  0  0
  -36.1014  -18.5664   22.5650 C   0  0  0  0  0  0  0  0  0  0  0  0
  -38.4568  -18.5929   20.0974 C   0  0  0  0  0  0  0  0  0  0  0  0
  -31.0985  -12.9549   21.3685 C   0  0  0  0  0  0  0  0  0  0  0  0
  -33.6414  -22.8795   27.4796 C   0  0  0  0  0  0  0  0  0  0  0  0
  -35.9051  -16.5658   25.8001 C   0  0  0  0  0  0  0  0  0  0  0  0
  -35.6109  -16.1156   23.0270 C   0  0  0  0  0  0  0  0  0  0  0  0
  -33.9399  -22.4395   26.0487 C   0  0  0  0  0  0  0  0  0  0  0  0
  -29.4611  -13.6602   18.2865 C   0  0  0  0  0  0  0  0  0  0  0  0
  -33.0027  -21.3110   25.6306 C   0  0  0  0  0  0  0  0  0  0  0  0
  -27.9903  -13.3552   18.5793 C   0  0  0  0  0  0  0  0  0  0  0  0
  -30.3955  -12.6850   19.0004 C   0  0  0  0  0  0  0  0  0  0  0  0
  -28.7045  -12.2554   20.7397 C   0  0  0  0  0  0  0  0  0  0  0  0
  -33.1924  -20.0776   26.5218 C   0  0  1  0  0  0  0  0  0  0  0  0
  -35.7459  -17.7931   24.8850 C   0  0  1  0  0  0  0  0  0  0  0  0
  -27.7270  -13.2513   20.0944 C   0  0  2  0  0  0  0  0  0  0  0  0
  -29.4704  -12.9275   25.3276 C   0  0  0  0  0  0  0  0  0  0  0  0
  -33.8801  -11.6268   27.2388 C   0  0  0  0  0  0  0  0  0  0  0  0
  -36.0999   -7.3980   24.6321 C   0  0  0  0  0  0  0  0  0  0  0  0
  -38.7137  -10.7405   21.5392 C   0  0  0  0  0  0  0  0  0  0  0  0
  -39.1873  -19.9031   18.0856 C   0  0  0  0  0  0  0  0  0  0  0  0
  -33.7710  -17.4117   20.9714 C   0  0  0  0  0  0  0  0  0  0  0  0
  -35.0384  -17.9323   18.8759 C   0  0  0  0  0  0  0  0  0  0  0  0
  -34.3506  -19.7780   20.4066 C   0  0  0  0  0  0  0  0  0  0  0  0
  -41.1118  -19.1502   21.2802 C   0  0  0  0  0  0  0  0  0  0  0  0
  -36.2841   -8.7684   25.2680 C   0  0  0  0  0  0  0  0  0  0  0  0
  -35.2149  -10.5350   23.7505 C   0  0  0  0  0  0  0  0  0  0  0  0
  -37.9446  -11.3034   22.7269 C   0  0  2  0  0  0  0  0  0  1  0  0
  -36.2187  -18.2226   21.1016 C   0  0  1  0  0  0  0  0  0  0  0  0
  -39.3635  -19.6959   19.5819 C   0  0  2  0  0  0  0  0  0  0  0  0
  -34.8561  -18.3197   20.3590 C   0  0  0  0  0  0  0  0  0  0  0  0
  -25.9394  -11.6100   20.5322 N   0  0  0  0  0  0  0  0  0  0  0  0
  -26.2806  -12.9021   20.3911 N   0  0  0  0  0  0  0  0  0  0  0  0
  -35.8051  -17.5143   23.4401 N   0  0  0  0  0  0  0  0  0  0  0  0
  -30.0904  -12.6423   20.4322 N   0  0  0  0  0  0  0  0  0  0  0  0
  -25.4041  -15.1023   20.4301 N   0  0  0  0  0  0  0  0  0  0  0  0
  -21.7911  -12.5264   21.2707 N   0  0  0  0  0  0  0  0  0  0  0  0
  -30.6828  -12.9125   22.6990 N   0  0  0  0  0  0  0  0  0  0  0  0
  -34.3834  -19.3525   26.1345 N   0  0  0  0  0  0  0  0  0  0  0  0
  -37.2576  -19.0921   20.5601 N   0  0  0  0  0  0  0  0  0  0  0  0
  -40.7910  -19.3580   19.8446 N   0  3  0  0  0  0  0  0  0  0  0  0
  -22.5146  -14.6841   20.9892 O   0  0  0  0  0  0  0  0  0  0  0  0
  -33.4517  -18.0845   24.4179 O   0  0  0  0  0  0  0  0  0  0  0  0
  -36.2621  -19.7361   22.9245 O   0  0  0  0  0  0  0  0  0  0  0  0
  -38.7785  -17.4068   20.0870 O   0  0  0  0  0  0  0  0  0  0  0  0
  -32.2388  -13.2658   21.0150 O   0  0  0  0  0  0  0  0  0  0  0  0
  -21.7182   -6.9664   21.6130 O   0  0  0  0  0  0  0  0  0  0  0  0
  -34.9284  -11.6546   24.5783 O   0  0  0  0  0  0  0  0  0  0  0  0
  -38.7306  -12.3168   23.3526 O   0  0  0  0  0  0  0  0  0  1  0  0
  -18.1572   -6.8767   25.8220 F   0  0  0  0  0  0  0  0  0  0  0  0
  -21.9888   -5.1292   23.6609 F   0  0  0  0  0  0  0  0  0  0  0  0
  1  2  1  0  0  0  0
  1  5  2  0  0  0  0
  2  6  2  0  0  0  0
  3  8  2  0  0  0  0
  3 17  1  0  0  0  0
  4  9  1  0  0  0  0
  4 17  2  0  0  0  0
  5 19  1  0  0  0  0
  6 21  1  0  0  0  0
  7 10  2  0  0  0  0
  7 20  1  0  0  0  0
  8 26  1  0  0  0  0
  9 26  2  0  0  0  0
 10 27  1  0  0  0  0
 11 12  2  0  0  0  0
 11 28  1  0  0  0  0
 12 30  1  0  0  0  0
 13 22  1  0  0  0  0
 13 27  2  0  0  0  0
 14 23  2  0  0  0  0
 14 24  1  0  0  0  0
 15 25  2  0  0  0  0
 15 29  1  0  0  0  0
 16 30  2  0  0  0  0
 16 31  1  0  0  0  0
 17 32  1  0  0  0  0
 18 32  1  0  0  0  0
 18 33  2  0  0  0  0
 18 35  1  0  0  0  0
 19 21  2  0  0  0  0
 19 41  1  0  0  0  0
 20 22  2  0  0  0  0
 20 42  1  0  0  0  0
 21 50  1  0  0  0  0
 22 43  1  0  0  0  0
 23 25  1  0  0  0  0
 23 53  1  0  0  0  0
 24 29  2  0  0  0  0
 24 54  1  0  0  0  0
 25 74  1  0  0  0  0
 26 83  1  0  0  0  0
 27 85  1  0  0  0  0
 28 31  2  0  0  0  0
 28 83  1  0  0  0  0
 29 84  1  0  0  0  0
 30 86  1  0  0  0  0
 31 87  1  0  0  0  0
 32 68  2  0  0  0  0
 33 69  1  0  0  0  0
 33 72  1  0  0  0  0
 34 36  2  0  0  0  0
 34 64  1  0  0  0  0
 35 73  1  0  0  0  0
 35 78  2  0  0  0  0
 36 62  1  0  0  0  0
 36 63  1  0  0  0  0
 37 51  1  0  0  0  0
 37 75  1  0  0  0  0
 37 79  2  0  0  0  0
 38 65  1  0  0  0  0
 38 70  1  0  0  0  0
 38 80  2  0  0  0  0
 39 66  1  0  0  0  0
 39 76  1  0  0  0  0
 39 81  2  0  0  0  0
 40 71  1  0  0  0  0
 40 74  1  0  0  0  0
 40 82  2  0  0  0  0
 41 44  1  0  0  0  0
 42 51  1  0  0  0  0
 43 70  1  0  0  0  0
 44 46  1  0  0  0  0
 45 47  1  0  0  0  0
 45 48  1  0  0  0  0
 46 50  1  0  0  0  0
 47 52  1  0  0  0  0
 48 71  1  0  0  0  0
 49 52  1  0  0  0  0
 49 71  1  0  0  0  0
 50 75  1  0  0  0  0
 51 70  1  0  0  0  0
 52 69  1  0  0  0  0
 55 62  1  0  0  0  0
 56 64  1  0  0  0  0
 57 66  1  0  0  0  0
 58 67  1  0  0  0  0
 59 67  1  0  0  0  0
 60 67  1  0  0  0  0
 61 77  1  0  0  0  0
 63 84  1  0  0  0  0
 64 85  1  0  0  0  0
 65 67  1  0  0  0  0
 65 76  1  0  0  0  0
 66 77  1  0  0  0  0
 68 69  1  0  0  0  0
M  CHG  1  77   1
M  ISO  4  40 100  64 101  74 100  85 101
M  END
> <Batch ID>
0135

> <Smiles>
CCC(=C[101CH:1](C)[101O:1]c1ccc2c(c1)CN(C(=O)C(NC(=O)C(C)NC)C(C)(C)C)C(C(=O)NC1CCCc3ccccc31)C2)COc1cc([100NH:0][100C:0](=O)N2CCCC(n3nc(-c4ccc(Oc5ccc(F)cc5F)cc4)c(C(N)=O)c3N)C2)c(C)cc1C

> <Shape>
0.132

> <Color>
0.174

> <Negative vol penalty>
0.000

$$$$

  -OEChem-04052302363D

 84 92  0     1  0  0  0  0  0999 V2000
  -27.0803  -32.2210   27.8617 C   0  0  0  0  0  0  0  0  0  0  0  0
  -27.4641  -31.3323   26.8625 C   0  0  0  0  0  0  0  0  0  0  0  0
  -24.6033  -12.5097   19.7569 C   0  0  0  0  0  0  0  0  0  0  0  0
  -25.4700  -13.3101   21.8653 C   0  0  0  0  0  0  0  0  0  0  0  0
  -25.7294  -32.3881   28.1632 C   0  0  0  0  0  0  0  0  0  0  0  0
  -26.4972  -30.6093   26.1650 C   0  0  0  0  0  0  0  0  0  0  0  0
  -27.3354  -30.5598   21.1710 C   0  0  0  0  0  0  0  0  0  0  0  0
  -29.7277  -22.5571   22.9674 C   0  0  0  0  0  0  0  0  0  0  0  0
  -28.8498  -21.6703   23.5907 C   0  0  0  0  0  0  0  0  0  0  0  0
  -25.2461  -11.2880   19.9565 C   0  0  0  0  0  0  0  0  0  0  0  0
  -26.1128  -12.0884   22.0649 C   0  0  0  0  0  0  0  0  0  0  0  0
  -28.3166  -29.6892   20.6987 C   0  0  0  0  0  0  0  0  0  0  0  0
  -26.3629   -7.8308   20.0809 C   0  0  0  0  0  0  0  0  0  0  0  0
  -25.6402   -6.6671   19.8179 C   0  0  0  0  0  0  0  0  0  0  0  0
  -26.6036  -28.1182   20.0531 C   0  0  0  0  0  0  0  0  0  0  0  0
  -28.6008  -22.1927   20.8616 C   0  0  0  0  0  0  0  0  0  0  0  0
  -24.0112   -7.3020   21.4853 C   0  0  0  0  0  0  0  0  0  0  0  0
  -24.7153  -13.5208   20.7113 C   0  0  0  0  0  0  0  0  0  0  0  0
  -22.7495  -15.1347   20.9076 C   0  0  0  0  0  0  0  0  0  0  0  0
  -24.7447  -31.6739   27.4623 C   0  0  0  0  0  0  0  0  0  0  0  0
  -25.9792  -30.2107   21.0977 C   0  0  0  0  0  0  0  0  0  0  0  0
  -25.1318  -30.7660   26.4582 C   0  0  0  0  0  0  0  0  0  0  0  0
  -25.6070  -28.9872   20.5229 C   0  0  0  0  0  0  0  0  0  0  0  0
  -29.6032  -22.8183   21.6029 C   0  0  0  0  0  0  0  0  0  0  0  0
  -27.8474  -21.0447   22.8495 C   0  0  0  0  0  0  0  0  0  0  0  0
  -27.7229  -21.3059   21.4849 C   0  0  0  0  0  0  0  0  0  0  0  0
  -26.0008  -11.0773   21.1104 C   0  0  0  0  0  0  0  0  0  0  0  0
  -27.9510  -28.4670   20.1423 C   0  0  0  0  0  0  0  0  0  0  0  0
  -25.9098   -8.7300   21.0462 C   0  0  0  0  0  0  0  0  0  0  0  0
  -24.4643   -6.4027   20.5200 C   0  0  0  0  0  0  0  0  0  0  0  0
  -24.7339   -8.4656   21.7484 C   0  0  0  0  0  0  0  0  0  0  0  0
  -24.0520  -14.7832   20.5054 C   0  0  0  0  0  0  0  0  0  0  0  0
  -22.5959  -16.4307   20.4796 C   0  0  0  0  0  0  0  0  0  0  0  0
  -21.7663  -14.3590   21.6058 C   0  0  0  0  0  0  0  0  0  0  0  0
  -23.6677  -29.7332   23.2267 C   0  0  0  0  0  0  0  0  0  0  0  0
  -21.8141  -29.4767   20.5771 C   0  0  0  0  0  0  0  0  0  0  0  0
  -21.6098  -28.7970   17.2389 C   0  0  0  0  0  0  0  0  0  0  0  0
  -26.4647  -20.8428   19.3521 C   0  0  0  0  0  0  0  0  0  0  0  0
  -23.2998  -31.8528   27.8560 C   0  0  0  0  0  0  0  0  0  0  0  0
  -24.9314  -31.1724   21.5873 C   0  0  0  0  0  0  0  0  0  0  0  0
  -24.1636  -28.5741   20.4024 C   0  0  0  0  0  0  0  0  0  0  0  0
  -22.3153  -31.3272   26.8145 C   0  0  0  0  0  0  0  0  0  0  0  0
  -24.0966  -19.4557   17.0838 C   0  0  0  0  0  0  0  0  0  0  0  0
  -22.7340  -29.9406   26.3359 C   0  0  0  0  0  0  0  0  0  0  0  0
  -23.6934  -18.1349   17.7434 C   0  0  0  0  0  0  0  0  0  0  0  0
  -25.5772  -19.7665   17.2956 C   0  0  0  0  0  0  0  0  0  0  0  0
  -25.6214  -18.4129   19.3535 C   0  0  0  0  0  0  0  0  0  0  0  0
  -24.1110  -29.9820   25.6624 C   0  0  1  0  0  0  0  0  0  0  0  0
  -23.6099  -30.4921   21.9312 C   0  0  1  0  0  0  0  0  0  0  0  0
  -24.1242  -18.0891   19.2225 C   0  0  2  0  0  0  0  0  0  0  0  0
  -26.9217  -20.0987   23.5433 C   0  0  0  0  0  0  0  0  0  0  0  0
  -19.9546  -28.6314   15.3600 C   0  0  0  0  0  0  0  0  0  0  0  0
  -20.8618  -26.7863   21.6563 C   0  0  0  0  0  0  0  0  0  0  0  0
  -19.9929  -26.2551   19.3692 C   0  0  0  0  0  0  0  0  0  0  0  0
  -19.0660  -28.1950   20.6341 C   0  0  0  0  0  0  0  0  0  0  0  0
  -31.0940  -25.9024   18.7675 C   0  0  0  0  0  0  0  0  0  0  0  0
  -32.2654  -26.4205   20.9232 C   0  0  0  0  0  0  0  0  0  0  0  0
  -22.9485  -30.9523   15.7153 C   0  0  0  0  0  0  0  0  0  0  0  0
  -30.5538  -23.7784   20.9291 C   0  0  0  0  0  0  0  0  0  0  0  0
  -30.0170  -25.2161   20.9680 C   0  0  0  0  0  0  0  0  0  0  0  0
  -30.1787  -27.6551   20.3268 C   0  0  0  0  0  0  0  0  0  1  0  0
  -21.3979  -28.3448   19.6690 C   0  0  1  0  0  0  0  0  0  0  0  0
  -20.9283  -29.5348   16.1006 C   0  0  2  0  0  0  0  0  0  0  0  0
  -20.3570  -27.4020   20.3360 C   0  0  0  0  0  0  0  0  0  0  0  0
  -30.8902  -26.2820   20.2462 C   0  0  0  0  0  0  0  0  0  0  0  0
  -24.6810  -15.7758   19.8706 N   0  0  0  0  0  0  0  0  0  0  0  0
  -23.7699  -16.7637   19.8705 N   0  0  0  0  0  0  0  0  0  0  0  0
  -23.1765  -29.5459   20.9011 N   0  0  0  0  0  0  0  0  0  0  0  0
  -25.9114  -19.7090   18.7204 N   0  0  0  0  0  0  0  0  0  0  0  0
  -21.5725  -17.3066   20.5686 N   0  0  0  0  0  0  0  0  0  0  0  0
  -22.0884  -13.0449   21.9714 N   0  0  0  0  0  0  0  0  0  0  0  0
  -26.7107  -20.6808   20.7151 N   0  0  0  0  0  0  0  0  0  0  0  0
  -24.0011  -30.5104   24.3196 N   0  0  0  0  0  0  0  0  0  0  0  0
  -20.9367  -28.9634   18.4308 N   0  0  0  0  0  0  0  0  0  0  0  0
  -21.9405  -30.0332   15.1269 N   0  3  0  0  0  0  0  0  0  0  0  0
  -20.6297  -14.8121   21.8822 O   0  0  0  0  0  0  0  0  0  0  0  0
  -23.4262  -28.5319   23.2345 O   0  0  0  0  0  0  0  0  0  0  0  0
  -20.9630  -30.2744   20.9782 O   0  0  0  0  0  0  0  0  0  0  0  0
  -22.6345  -28.1360   17.0854 O   0  0  0  0  0  0  0  0  0  0  0  0
  -26.6774  -21.8901   18.7356 O   0  0  0  0  0  0  0  0  0  0  0  0
  -26.6280   -9.8852   21.3056 O   0  0  0  0  0  0  0  0  0  0  0  0
  -28.9068  -27.6152   19.6811 O   0  0  0  0  0  0  0  0  0  1  0  0
  -23.7696   -5.2860   20.2663 F   0  0  0  0  0  0  0  0  0  0  0  0
  -24.2930   -9.3264   22.6760 F   0  0  0  0  0  0  0  0  0  0  0  0
  1  2  1  0  0  0  0
  1  5  2  0  0  0  0
  2  6  2  0  0  0  0
  3 10  2  0  0  0  0
  3 18  1  0  0  0  0
  4 11  1  0  0  0  0
  4 18  2  0  0  0  0
  5 20  1  0  0  0  0
  6 22  1  0  0  0  0
  7 12  2  0  0  0  0
  7 21  1  0  0  0  0
  8  9  2  0  0  0  0
  8 24  1  0  0  0  0
  9 25  1  0  0  0  0
 10 27  1  0  0  0  0
 11 27  2  0  0  0  0
 12 28  1  0  0  0  0
 13 14  2  0  0  0  0
 13 29  1  0  0  0  0
 14 30  1  0  0  0  0
 15 23  1  0  0  0  0
 15 28  2  0  0  0  0
 16 24  2  0  0  0  0
 16 26  1  0  0  0  0
 17 30  2  0  0  0  0
 17 31  1  0  0  0  0
 18 32  1  0  0  0  0
 19 32  1  0  0  0  0
 19 33  2  0  0  0  0
 19 34  1  0  0  0  0
 20 22  2  0  0  0  0
 20 39  1  0  0  0  0
 21 23  2  0  0  0  0
 21 40  1  0  0  0  0
 22 48  1  0  0  0  0
 23 41  1  0  0  0  0
 24 59  1  0  0  0  0
 25 26  2  0  0  0  0
 25 51  1  0  0  0  0
 26 72  1  0  0  0  0
 27 81  1  0  0  0  0
 28 82  1  0  0  0  0
 29 31  2  0  0  0  0
 29 81  1  0  0  0  0
 30 83  1  0  0  0  0
 31 84  1  0  0  0  0
 32 66  2  0  0  0  0
 33 67  1  0  0  0  0
 33 70  1  0  0  0  0
 34 71  1  0  0  0  0
 34 76  2  0  0  0  0
 35 49  1  0  0  0  0
 35 73  1  0  0  0  0
 35 77  2  0  0  0  0
 36 62  1  0  0  0  0
 36 68  1  0  0  0  0
 36 78  2  0  0  0  0
 37 63  1  0  0  0  0
 37 74  1  0  0  0  0
 37 79  2  0  0  0  0
 38 69  1  0  0  0  0
 38 72  1  0  0  0  0
 38 80  2  0  0  0  0
 39 42  1  0  0  0  0
 40 49  1  0  0  0  0
 41 68  1  0  0  0  0
 42 44  1  0  0  0  0
 43 45  1  0  0  0  0
 43 46  1  0  0  0  0
 44 48  1  0  0  0  0
 45 50  1  0  0  0  0
 46 69  1  0  0  0  0
 47 50  1  0  0  0  0
 47 69  1  0  0  0  0
 48 73  1  0  0  0  0
 49 68  1  0  0  0  0
 50 67  1  0  0  0  0
 52 63  1  0  0  0  0
 53 64  1  0  0  0  0
 54 64  1  0  0  0  0
 55 64  1  0  0  0  0
 56 65  1  0  0  0  0
 57 65  1  0  0  0  0
 58 75  1  0  0  0  0
 59 60  1  0  0  0  0
 60 65  1  0  0  0  0
 61 65  1  0  0  0  0
 61 82  1  0  0  0  0
 62 64  1  0  0  0  0
 62 74  1  0  0  0  0
 63 75  1  0  0  0  0
 66 67  1  0  0  0  0
M  CHG  1  75   1
M  ISO  4  38 100  61 101  72 100  82 101
M  END
> <Batch ID>
0135

> <Smiles>
CNC(C)C(=O)NC(C(=O)N1Cc2cc([101O:1][101CH2:1]C(C)(C)CCc3ccc(C)c([100NH:0][100C:0](=O)N4CCCC(n5nc(-c6ccc(Oc7ccc(F)cc7F)cc6)c(C(N)=O)c5N)C4)c3)ccc2CC1C(=O)NC1CCCc2ccccc21)C(C)(C)C

> <Shape>
0.231

> <Color>
0.086

> <Negative vol penalty>
0.000

$$$$

  -OEChem-04052302363D

 86 94  0     1  0  0  0  0  0999 V2000
  -36.4939  -27.8375   33.1852 C   0  0  0  0  0  0  0  0  0  0  0  0
  -35.8618  -26.6536   32.8190 C   0  0  0  0  0  0  0  0  0  0  0  0
  -23.0577   -9.8764   19.9563 C   0  0  0  0  0  0  0  0  0  0  0  0
  -23.8677   -9.8738   22.2325 C   0  0  0  0  0  0  0  0  0  0  0  0
  -30.8909  -14.7777   23.8111 C   0  0  0  0  0  0  0  0  0  0  0  0
  -35.9800  -29.0615   32.7589 C   0  0  0  0  0  0  0  0  0  0  0  0
  -34.7147  -26.6930   32.0271 C   0  0  0  0  0  0  0  0  0  0  0  0
  -34.8123  -23.2719   28.2946 C   0  0  0  0  0  0  0  0  0  0  0  0
  -22.3202   -8.7216   20.2174 C   0  0  0  0  0  0  0  0  0  0  0  0
  -23.1302   -8.7190   22.4936 C   0  0  0  0  0  0  0  0  0  0  0  0
  -31.4586  -14.9795   25.0692 C   0  0  0  0  0  0  0  0  0  0  0  0
  -34.5238  -21.9508   28.6341 C   0  0  0  0  0  0  0  0  0  0  0  0
  -19.9166   -7.9161   23.1633 C   0  0  0  0  0  0  0  0  0  0  0  0
  -19.1856   -7.8704   24.3504 C   0  0  0  0  0  0  0  0  0  0  0  0
  -32.2739  -22.2374   27.8127 C   0  0  0  0  0  0  0  0  0  0  0  0
  -31.7564  -17.3222   24.5589 C   0  0  0  0  0  0  0  0  0  0  0  0
  -20.4441   -5.9307   25.0508 C   0  0  0  0  0  0  0  0  0  0  0  0
  -23.8315  -10.4525   20.9638 C   0  0  0  0  0  0  0  0  0  0  0  0
  -30.7561  -15.8481   22.9269 C   0  0  0  0  0  0  0  0  0  0  0  0
  -24.1689  -12.9784   20.8475 C   0  0  0  0  0  0  0  0  0  0  0  0
  -34.8316  -29.1154   31.9534 C   0  0  0  0  0  0  0  0  0  0  0  0
  -33.8289  -24.0903   27.7207 C   0  0  0  0  0  0  0  0  0  0  0  0
  -34.1842  -27.9189   31.5908 C   0  0  0  0  0  0  0  0  0  0  0  0
  -32.5532  -23.5677   27.4645 C   0  0  0  0  0  0  0  0  0  0  0  0
  -31.1888  -17.1203   23.3008 C   0  0  0  0  0  0  0  0  0  0  0  0
  -22.3565   -8.1429   21.4861 C   0  0  0  0  0  0  0  0  0  0  0  0
  -33.2536  -21.4342   28.3958 C   0  0  0  0  0  0  0  0  0  0  0  0
  -31.8913  -16.2518   25.4431 C   0  0  0  0  0  0  0  0  0  0  0  0
  -20.9114   -6.9690   22.9199 C   0  0  0  0  0  0  0  0  0  0  0  0
  -19.4494   -6.8777   25.2941 C   0  0  0  0  0  0  0  0  0  0  0  0
  -21.1752   -5.9763   23.8637 C   0  0  0  0  0  0  0  0  0  0  0  0
  -24.5939  -11.6451   20.6946 C   0  0  0  0  0  0  0  0  0  0  0  0
  -25.2523  -13.7303   20.4637 C   0  0  0  0  0  0  0  0  0  0  0  0
  -30.1607  -15.6086   21.6193 C   0  0  0  0  0  0  0  0  0  0  0  0
  -22.9076  -13.4914   21.2965 C   0  0  0  0  0  0  0  0  0  0  0  0
  -30.7657  -14.6550   20.6614 C   0  0  0  0  0  0  0  0  0  0  0  0
  -32.3797  -26.7886   28.5709 C   0  0  0  0  0  0  0  0  0  0  0  0
  -31.0841  -26.5699   25.6052 C   0  0  0  0  0  0  0  0  0  0  0  0
  -30.2083  -24.5931   22.9647 C   0  0  0  0  0  0  0  0  0  0  0  0
  -34.2861  -30.4643   31.5563 C   0  0  0  0  0  0  0  0  0  0  0  0
  -34.1638  -25.5052   27.3357 C   0  0  0  0  0  0  0  0  0  0  0  0
  -31.4681  -24.3989   26.8318 C   0  0  0  0  0  0  0  0  0  0  0  0
  -33.2818  -30.4013   30.4084 C   0  0  0  0  0  0  0  0  0  0  0  0
  -29.5420  -12.4044   18.1525 C   0  0  0  0  0  0  0  0  0  0  0  0
  -32.2658  -29.2891   30.6485 C   0  0  0  0  0  0  0  0  0  0  0  0
  -28.1240  -12.0860   18.6252 C   0  0  0  0  0  0  0  0  0  0  0  0
  -30.4920  -12.6007   19.3295 C   0  0  0  0  0  0  0  0  0  0  0  0
  -28.6166  -13.3251   20.7810 C   0  0  0  0  0  0  0  0  0  0  0  0
  -32.9520  -27.9193   30.7122 C   0  0  1  0  0  0  0  0  0  0  0  0
  -32.9346  -26.4024   27.2291 C   0  0  1  0  0  0  0  0  0  0  0  0
  -27.6222  -13.1474   19.6203 C   0  0  2  0  0  0  0  0  0  0  0  0
  -32.4185  -18.8873   21.9896 C   0  0  0  0  0  0  0  0  0  0  0  0
  -30.1364  -19.3822   22.9394 C   0  0  0  0  0  0  0  0  0  0  0  0
  -29.1334  -24.6943   20.6994 C   0  0  0  0  0  0  0  0  0  0  0  0
  -32.5145  -17.3547   29.4555 C   0  0  0  0  0  0  0  0  0  0  0  0
  -28.3428  -26.8268   26.9202 C   0  0  0  0  0  0  0  0  0  0  0  0
  -27.3219  -25.9816   24.7961 C   0  0  0  0  0  0  0  0  0  0  0  0
  -28.6061  -28.1201   24.7960 C   0  0  0  0  0  0  0  0  0  0  0  0
  -32.6554  -23.5972   21.6309 C   0  0  0  0  0  0  0  0  0  0  0  0
  -34.0459  -19.2098   28.6797 C   0  0  0  0  0  0  0  0  0  1  0  0
  -32.8686  -17.7730   26.9879 C   0  0  0  0  0  0  0  0  0  0  0  0
  -31.0552  -18.2841   22.3736 C   0  0  0  0  0  0  0  0  0  0  0  0
  -29.8471  -25.9292   25.0235 C   0  0  1  0  0  0  0  0  0  0  0  0
  -30.4421  -24.7439   21.4724 C   0  0  2  0  0  0  0  0  0  0  0  0
  -33.5081  -17.8079   28.3789 C   0  0  2  0  0  0  0  0  0  0  0  0
  -28.5491  -26.6991   25.3977 C   0  0  0  0  0  0  0  0  0  0  0  0
  -25.8493  -11.5520   20.2482 N   0  0  0  0  0  0  0  0  0  0  0  0
  -29.0744  -16.2032   21.2094 N   0  0  0  0  0  0  0  0  0  0  0  0
  -26.2225  -12.8364   20.1173 N   0  0  0  0  0  0  0  0  0  0  0  0
  -29.9688  -13.5874   20.2722 N   0  0  0  0  0  0  0  0  0  0  0  0
  -31.8427  -25.7783   26.4791 N   0  0  0  0  0  0  0  0  0  0  0  0
  -25.4602  -15.0622   20.3920 N   0  0  0  0  0  0  0  0  0  0  0  0
  -21.9039  -12.5800   21.6519 N   0  0  0  0  0  0  0  0  0  0  0  0
  -33.2790  -27.4555   29.3808 N   0  0  0  0  0  0  0  0  0  0  0  0
  -30.0822  -25.8165   23.5881 N   0  0  0  0  0  0  0  0  0  0  0  0
  -31.3244  -23.6515   20.9733 N   0  3  0  0  0  0  0  0  0  0  0  0
  -22.6718  -14.7215   21.3645 O   0  0  0  0  0  0  0  0  0  0  0  0
  -31.9109  -14.9118   20.3137 O   0  0  0  0  0  0  0  0  0  0  0  0
  -31.2210  -26.5040   28.8503 O   0  0  0  0  0  0  0  0  0  0  0  0
  -31.3706  -27.7275   25.2900 O   0  0  0  0  0  0  0  0  0  0  0  0
  -30.1404  -23.4993   23.5211 O   0  0  0  0  0  0  0  0  0  0  0  0
  -21.6368   -7.0162   21.7413 O   0  0  0  0  0  0  0  0  0  0  0  0
  -32.9692  -20.1452   28.7268 O   0  0  0  0  0  0  0  0  0  1  0  0
  -32.4516  -16.4499   26.6780 O   0  0  0  0  0  0  0  0  0  0  0  0
  -18.7483   -6.8349   26.4347 F   0  0  0  0  0  0  0  0  0  0  0  0
  -22.1304   -5.0645   23.6360 F   0  0  0  0  0  0  0  0  0  0  0  0
  1  2  1  0  0  0  0
  1  6  2  0  0  0  0
  2  7  2  0  0  0  0
  3  9  2  0  0  0  0
  3 18  1  0  0  0  0
  4 10  1  0  0  0  0
  4 18  2  0  0  0  0
  5 11  2  0  0  0  0
  5 19  1  0  0  0  0
  6 21  1  0  0  0  0
  7 23  1  0  0  0  0
  8 12  2  0  0  0  0
  8 22  1  0  0  0  0
  9 26  1  0  0  0  0
 10 26  2  0  0  0  0
 11 28  1  0  0  0  0
 12 27  1  0  0  0  0
 13 14  2  0  0  0  0
 13 29  1  0  0  0  0
 14 30  1  0  0  0  0
 15 24  1  0  0  0  0
 15 27  2  0  0  0  0
 16 25  1  0  0  0  0
 16 28  2  0  0  0  0
 17 30  2  0  0  0  0
 17 31  1  0  0  0  0
 18 32  1  0  0  0  0
 19 25  2  0  0  0  0
 19 34  1  0  0  0  0
 20 32  1  0  0  0  0
 20 33  2  0  0  0  0
 20 35  1  0  0  0  0
 21 23  2  0  0  0  0
 21 40  1  0  0  0  0
 22 24  2  0  0  0  0
 22 41  1  0  0  0  0
 23 49  1  0  0  0  0
 24 42  1  0  0  0  0
 25 62  1  0  0  0  0
 26 82  1  0  0  0  0
 27 83  1  0  0  0  0
 28 84  1  0  0  0  0
 29 31  2  0  0  0  0
 29 82  1  0  0  0  0
 30 85  1  0  0  0  0
 31 86  1  0  0  0  0
 32 67  2  0  0  0  0
 33 69  1  0  0  0  0
 33 72  1  0  0  0  0
 34 36  1  0  0  0  0
 34 68  2  0  0  0  0
 35 73  1  0  0  0  0
 35 77  2  0  0  0  0
 36 70  1  0  0  0  0
 36 78  2  0  0  0  0
 37 50  1  0  0  0  0
 37 74  1  0  0  0  0
 37 79  2  0  0  0  0
 38 63  1  0  0  0  0
 38 71  1  0  0  0  0
 38 80  2  0  0  0  0
 39 64  1  0  0  0  0
 39 75  1  0  0  0  0
 39 81  2  0  0  0  0
 40 43  1  0  0  0  0
 41 50  1  0  0  0  0
 42 71  1  0  0  0  0
 43 45  1  0  0  0  0
 44 46  1  0  0  0  0
 44 47  1  0  0  0  0
 45 49  1  0  0  0  0
 46 51  1  0  0  0  0
 47 70  1  0  0  0  0
 48 51  1  0  0  0  0
 48 70  1  0  0  0  0
 49 74  1  0  0  0  0
 50 71  1  0  0  0  0
 51 69  1  0  0  0  0
 52 62  1  0  0  0  0
 53 62  1  0  0  0  0
 54 64  1  0  0  0  0
 55 65  1  0  0  0  0
 56 66  1  0  0  0  0
 57 66  1  0  0  0  0
 58 66  1  0  0  0  0
 59 76  1  0  0  0  0
 60 65  1  0  0  0  0
 60 83  1  0  0  0  0
 61 65  1  0  0  0  0
 61 84  1  0  0  0  0
 63 66  1  0  0  0  0
 63 75  1  0  0  0  0
 64 76  1  0  0  0  0
 67 69  1  0  0  0  0
M  CHG  1  76   1
M  ISO  4  34 100  36 100  60 101  83 101
M  END
> <Batch ID>
0135

> <Smiles>
CNC(C)C(=O)NC(C(=O)N1Cc2cc([101O:1][101CH2:1]C(C)COc3ccc([100C:0](=N)[100C:0](=O)N4CCCC(n5nc(-c6ccc(Oc7ccc(F)cc7F)cc6)c(C(N)=O)c5N)C4)c(C(C)C)c3)ccc2CC1C(=O)NC1CCCc2ccccc21)C(C)(C)C

> <Shape>
0.179

> <Color>
0.181

> <Negative vol penalty>
0.000

$$$$

  -OEChem-04052302363D

 83 91  0     1  0  0  0  0  0999 V2000
  -29.1284  -26.4551   19.2679 C   0  0  0  0  0  0  0  0  0  0  0  0
  -29.1621  -25.4900   20.2694 C   0  0  0  0  0  0  0  0  0  0  0  0
  -23.0762   -9.8679   19.9399 C   0  0  0  0  0  0  0  0  0  0  0  0
  -23.8356   -9.8742   22.2334 C   0  0  0  0  0  0  0  0  0  0  0  0
  -30.3193  -26.9528   18.7406 C   0  0  0  0  0  0  0  0  0  0  0  0
  -30.3869  -25.0212   20.7434 C   0  0  0  0  0  0  0  0  0  0  0  0
  -30.5280  -24.7204   25.7966 C   0  0  0  0  0  0  0  0  0  0  0  0
  -32.6489  -17.4953   23.4568 C   0  0  0  0  0  0  0  0  0  0  0  0
  -32.0622  -16.6098   22.5529 C   0  0  0  0  0  0  0  0  0  0  0  0
  -22.3324   -8.7146   20.1893 C   0  0  0  0  0  0  0  0  0  0  0  0
  -23.0918   -8.7209   22.4829 C   0  0  0  0  0  0  0  0  0  0  0  0
  -29.8903  -23.6306   26.3876 C   0  0  0  0  0  0  0  0  0  0  0  0
  -19.8636   -7.9226   23.0845 C   0  0  0  0  0  0  0  0  0  0  0  0
  -19.1064   -7.8822   24.2553 C   0  0  0  0  0  0  0  0  0  0  0  0
  -32.0200  -22.5243   26.6315 C   0  0  0  0  0  0  0  0  0  0  0  0
  -29.8775  -17.4584   23.1397 C   0  0  0  0  0  0  0  0  0  0  0  0
  -20.3479   -5.9446   24.9913 C   0  0  0  0  0  0  0  0  0  0  0  0
  -23.8279  -10.4477   20.9619 C   0  0  0  0  0  0  0  0  0  0  0  0
  -24.1695  -12.9729   20.8428 C   0  0  0  0  0  0  0  0  0  0  0  0
  -31.5593  -26.4969   19.2152 C   0  0  0  0  0  0  0  0  0  0  0  0
  -31.9176  -24.7158   25.6083 C   0  0  0  0  0  0  0  0  0  0  0  0
  -31.5955  -25.5123   20.2210 C   0  0  0  0  0  0  0  0  0  0  0  0
  -32.6733  -23.6164   26.0402 C   0  0  0  0  0  0  0  0  0  0  0  0
  -31.8500  -18.3624   24.2023 C   0  0  0  0  0  0  0  0  0  0  0  0
  -30.4643  -18.3439   24.0437 C   0  0  0  0  0  0  0  0  0  0  0  0
  -30.6765  -16.5913   22.3943 C   0  0  0  0  0  0  0  0  0  0  0  0
  -22.3401   -8.1411   21.4608 C   0  0  0  0  0  0  0  0  0  0  0  0
  -30.6359  -22.5311   26.8025 C   0  0  0  0  0  0  0  0  0  0  0  0
  -20.8629   -6.9739   22.8671 C   0  0  0  0  0  0  0  0  0  0  0  0
  -19.3486   -6.8932   25.2087 C   0  0  0  0  0  0  0  0  0  0  0  0
  -21.1050   -5.9850   23.8205 C   0  0  0  0  0  0  0  0  0  0  0  0
  -24.5969  -11.6387   20.7047 C   0  0  0  0  0  0  0  0  0  0  0  0
  -25.2616  -13.7226   20.4800 C   0  0  0  0  0  0  0  0  0  0  0  0
  -22.8989  -13.4885   21.2617 C   0  0  0  0  0  0  0  0  0  0  0  0
  -33.8391  -24.8424   23.0794 C   0  0  0  0  0  0  0  0  0  0  0  0
  -36.1589  -25.0262   25.3392 C   0  0  0  0  0  0  0  0  0  0  0  0
  -37.1372  -24.3870   28.5457 C   0  0  0  0  0  0  0  0  0  0  0  0
  -30.7277  -14.7686   20.6561 C   0  0  0  0  0  0  0  0  0  0  0  0
  -32.8197  -27.0300   18.5813 C   0  0  0  0  0  0  0  0  0  0  0  0
  -32.5936  -25.9105   24.9935 C   0  0  0  0  0  0  0  0  0  0  0  0
  -34.1701  -23.5708   25.8793 C   0  0  0  0  0  0  0  0  0  0  0  0
  -34.0776  -26.7537   19.4008 C   0  0  0  0  0  0  0  0  0  0  0  0
  -29.6139  -12.3555   18.2868 C   0  0  0  0  0  0  0  0  0  0  0  0
  -34.1011  -25.3023   19.8697 C   0  0  0  0  0  0  0  0  0  0  0  0
  -28.1742  -12.0637   18.7160 C   0  0  0  0  0  0  0  0  0  0  0  0
  -30.5288  -12.5840   19.4887 C   0  0  0  0  0  0  0  0  0  0  0  0
  -28.6215  -13.3078   20.8698 C   0  0  0  0  0  0  0  0  0  0  0  0
  -32.9045  -24.9968   20.7786 C   0  0  1  0  0  0  0  0  0  0  0  0
  -33.9523  -25.5801   24.3835 C   0  0  1  0  0  0  0  0  0  0  0  0
  -27.6489  -13.1349   19.6918 C   0  0  2  0  0  0  0  0  0  0  0  0
  -32.5010  -19.3009   25.1645 C   0  0  0  0  0  0  0  0  0  0  0  0
  -39.1030  -24.6172   30.0884 C   0  0  0  0  0  0  0  0  0  0  0  0
  -26.9128  -19.4298   26.6513 C   0  0  0  0  0  0  0  0  0  0  0  0
  -37.5128  -22.6637   23.9626 C   0  0  0  0  0  0  0  0  0  0  0  0
  -38.8933  -22.3419   26.0263 C   0  0  0  0  0  0  0  0  0  0  0  0
  -39.0748  -24.4620   24.7246 C   0  0  0  0  0  0  0  0  0  0  0  0
  -35.6264  -26.1317   30.3984 C   0  0  0  0  0  0  0  0  0  0  0  0
  -29.5806  -19.2735   24.8372 C   0  0  0  0  0  0  0  0  0  0  0  0
  -29.3113  -18.8037   26.2736 C   0  0  0  0  0  0  0  0  0  0  0  0
  -28.6746  -21.1969   26.9729 C   0  0  0  0  0  0  0  0  0  1  0  0
  -36.9964  -24.0235   26.0957 C   0  0  1  0  0  0  0  0  0  0  0  0
  -37.8204  -25.2595   29.5833 C   0  0  2  0  0  0  0  0  0  0  0  0
  -28.3568  -19.7003   27.0930 C   0  0  1  0  0  0  0  0  0  0  0  0
  -38.0909  -23.3725   25.2037 C   0  0  0  0  0  0  0  0  0  0  0  0
  -25.8618  -11.5431   20.2867 N   0  0  0  0  0  0  0  0  0  0  0  0
  -26.2386  -12.8268   20.1588 N   0  0  0  0  0  0  0  0  0  0  0  0
  -34.7842  -24.7605   25.2669 N   0  0  0  0  0  0  0  0  0  0  0  0
  -29.9696  -13.6145   20.3663 N   0  0  0  0  0  0  0  0  0  0  0  0
  -25.4719  -15.0541   20.4075 N   0  0  0  0  0  0  0  0  0  0  0  0
  -21.8870  -12.5791   21.5985 N   0  0  0  0  0  0  0  0  0  0  0  0
  -30.0801  -15.6933   21.4747 N   0  0  0  0  0  0  0  0  0  0  0  0
  -33.1315  -25.5235   22.1073 N   0  0  0  0  0  0  0  0  0  0  0  0
  -37.5170  -24.7252   27.2640 N   0  0  0  0  0  0  0  0  0  0  0  0
  -36.9171  -25.4839   30.7471 N   0  3  0  0  0  0  0  0  0  0  0  0
  -22.6625  -14.7190   21.3194 O   0  0  0  0  0  0  0  0  0  0  0  0
  -34.3567  -23.7378   22.9632 O   0  0  0  0  0  0  0  0  0  0  0  0
  -36.7034  -26.0128   24.8373 O   0  0  0  0  0  0  0  0  0  0  0  0
  -36.3485  -23.4924   28.8427 O   0  0  0  0  0  0  0  0  0  0  0  0
  -31.8569  -14.9376   20.1887 O   0  0  0  0  0  0  0  0  0  0  0  0
  -21.6142   -7.0159   21.7046 O   0  0  0  0  0  0  0  0  0  0  0  0
  -30.0159  -21.4657   27.3791 O   0  0  0  0  0  0  0  0  0  1  0  0
  -18.6225   -6.8555   26.3336 F   0  0  0  0  0  0  0  0  0  0  0  0
  -22.0645   -5.0716   23.6177 F   0  0  0  0  0  0  0  0  0  0  0  0
  1  2  1  0  0  0  0
  1  5  2  0  0  0  0
  2  6  2  0  0  0  0
  3 10  2  0  0  0  0
  3 18  1  0  0  0  0
  4 11  1  0  0  0  0
  4 18  2  0  0  0  0
  5 20  1  0  0  0  0
  6 22  1  0  0  0  0
  7 12  2  0  0  0  0
  7 21  1  0  0  0  0
  8  9  2  0  0  0  0
  8 24  1  0  0  0  0
  9 26  1  0  0  0  0
 10 27  1  0  0  0  0
 11 27  2  0  0  0  0
 12 28  1  0  0  0  0
 13 14  2  0  0  0  0
 13 29  1  0  0  0  0
 14 30  1  0  0  0  0
 15 23  1  0  0  0  0
 15 28  2  0  0  0  0
 16 25  1  0  0  0  0
 16 26  2  0  0  0  0
 17 30  2  0  0  0  0
 17 31  1  0  0  0  0
 18 32  1  0  0  0  0
 19 32  1  0  0  0  0
 19 33  2  0  0  0  0
 19 34  1  0  0  0  0
 20 22  2  0  0  0  0
 20 39  1  0  0  0  0
 21 23  2  0  0  0  0
 21 40  1  0  0  0  0
 22 48  1  0  0  0  0
 23 41  1  0  0  0  0
 24 25  2  0  0  0  0
 24 51  1  0  0  0  0
 25 58  1  0  0  0  0
 26 71  1  0  0  0  0
 27 80  1  0  0  0  0
 28 81  1  0  0  0  0
 29 31  2  0  0  0  0
 29 80  1  0  0  0  0
 30 82  1  0  0  0  0
 31 83  1  0  0  0  0
 32 65  2  0  0  0  0
 33 66  1  0  0  0  0
 33 69  1  0  0  0  0
 34 70  1  0  0  0  0
 34 75  2  0  0  0  0
 35 49  1  0  0  0  0
 35 72  1  0  0  0  0
 35 76  2  0  0  0  0
 36 61  1  0  0  0  0
 36 67  1  0  0  0  0
 36 77  2  0  0  0  0
 37 62  1  0  0  0  0
 37 73  1  0  0  0  0
 37 78  2  0  0  0  0
 38 68  1  0  0  0  0
 38 71  1  0  0  0  0
 38 79  2  0  0  0  0
 39 42  1  0  0  0  0
 40 49  1  0  0  0  0
 41 67  1  0  0  0  0
 42 44  1  0  0  0  0
 43 45  1  0  0  0  0
 43 46  1  0  0  0  0
 44 48  1  0  0  0  0
 45 50  1  0  0  0  0
 46 68  1  0  0  0  0
 47 50  1  0  0  0  0
 47 68  1  0  0  0  0
 48 72  1  0  0  0  0
 49 67  1  0  0  0  0
 50 66  1  0  0  0  0
 52 62  1  0  0  0  0
 53 63  1  0  0  0  0
 54 64  1  0  0  0  0
 55 64  1  0  0  0  0
 56 64  1  0  0  0  0
 57 74  1  0  0  0  0
 58 59  1  0  0  0  0
 59 63  1  0  0  0  0
 60 63  1  0  0  0  0
 60 81  1  0  0  0  0
 61 64  1  0  0  0  0
 61 73  1  0  0  0  0
 62 74  1  0  0  0  0
 65 66  1  0  0  0  0
M  CHG  1  74   1
M  ISO  4  38 100  60 101  71 100  81 101
M  END
> <Batch ID>
0135

> <Smiles>
CNC(C)C(=O)NC(C(=O)N1Cc2cc([101O:1][101CH2:1]C(C)CCc3cc([100NH:0][100C:0](=O)N4CCCC(n5nc(-c6ccc(Oc7ccc(F)cc7F)cc6)c(C(N)=O)c5N)C4)ccc3C)ccc2CC1C(=O)NC1CCCc2ccccc21)C(C)(C)C

> <Shape>
0.198

> <Color>
0.196

> <Negative vol penalty>
0.000

$$$$

  -OEChem-04052302363D

 87 95  0     1  0  0  0  0  0999 V2000
  -22.3062  -31.5383   14.1624 C   0  0  0  0  0  0  0  0  0  0  0  0
  -23.3361  -30.8362   14.7801 C   0  0  0  0  0  0  0  0  0  0  0  0
  -23.9121  -11.0363   23.1059 C   0  0  0  0  0  0  0  0  0  0  0  0
  -22.9474  -13.2330   22.8216 C   0  0  0  0  0  0  0  0  0  0  0  0
  -21.8931  -32.7658   14.6788 C   0  0  0  0  0  0  0  0  0  0  0  0
  -23.9543  -31.3616   15.9142 C   0  0  0  0  0  0  0  0  0  0  0  0
  -24.6124  -27.8977   19.5492 C   0  0  0  0  0  0  0  0  0  0  0  0
  -29.7373  -20.8627   21.0529 C   0  0  0  0  0  0  0  0  0  0  0  0
  -29.7624  -19.4939   20.7859 C   0  0  0  0  0  0  0  0  0  0  0  0
  -23.1117  -10.8301   24.2294 C   0  0  0  0  0  0  0  0  0  0  0  0
  -22.1468  -13.0268   23.9451 C   0  0  0  0  0  0  0  0  0  0  0  0
  -25.6721  -27.0052   19.3938 C   0  0  0  0  0  0  0  0  0  0  0  0
  -19.9001   -9.9967   24.8808 C   0  0  0  0  0  0  0  0  0  0  0  0
  -19.2508   -8.7677   24.9973 C   0  0  0  0  0  0  0  0  0  0  0  0
  -26.9964  -28.3212   20.9215 C   0  0  0  0  0  0  0  0  0  0  0  0
  -27.4003  -19.5490   20.2813 C   0  0  0  0  0  0  0  0  0  0  0  0
  -20.4095   -8.3527   27.0763 C   0  0  0  0  0  0  0  0  0  0  0  0
  -23.8300  -12.2378   22.4020 C   0  0  0  0  0  0  0  0  0  0  0  0
  -24.3431  -12.1410   19.9050 C   0  0  0  0  0  0  0  0  0  0  0  0
  -22.5000  -33.3019   15.8254 C   0  0  0  0  0  0  0  0  0  0  0  0
  -24.7407  -29.0165   20.3848 C   0  0  0  0  0  0  0  0  0  0  0  0
  -23.5499  -32.5980   16.4457 C   0  0  0  0  0  0  0  0  0  0  0  0
  -25.9360  -29.2250   21.0877 C   0  0  0  0  0  0  0  0  0  0  0  0
  -28.5437  -21.5747   20.9341 C   0  0  0  0  0  0  0  0  0  0  0  0
  -27.3752  -20.9179   20.5483 C   0  0  0  0  0  0  0  0  0  0  0  0
  -28.5939  -18.8371   20.4001 C   0  0  0  0  0  0  0  0  0  0  0  0
  -22.2290  -11.8253   24.6490 C   0  0  0  0  0  0  0  0  0  0  0  0
  -26.8654  -27.2184   20.0778 C   0  0  0  0  0  0  0  0  0  0  0  0
  -20.8043  -10.4036   25.8619 C   0  0  0  0  0  0  0  0  0  0  0  0
  -19.5054   -7.9458   26.0951 C   0  0  0  0  0  0  0  0  0  0  0  0
  -21.0589   -9.5817   26.9597 C   0  0  0  0  0  0  0  0  0  0  0  0
  -24.6571  -12.4517   21.2417 C   0  0  0  0  0  0  0  0  0  0  0  0
  -25.4488  -12.5353   19.1920 C   0  0  0  0  0  0  0  0  0  0  0  0
  -23.1579  -11.5490   19.3569 C   0  0  0  0  0  0  0  0  0  0  0  0
  -24.6309  -32.1636   19.9522 C   0  0  0  0  0  0  0  0  0  0  0  0
  -24.8310  -32.2234   23.1893 C   0  0  0  0  0  0  0  0  0  0  0  0
  -25.7810  -30.6465   26.0629 C   0  0  0  0  0  0  0  0  0  0  0  0
  -29.7194  -16.5926   20.1949 C   0  0  0  0  0  0  0  0  0  0  0  0
  -22.0513  -34.6545   16.3192 C   0  0  0  0  0  0  0  0  0  0  0  0
  -23.5790  -29.9552   20.5623 C   0  0  0  0  0  0  0  0  0  0  0  0
  -26.1174  -30.3997   22.0126 C   0  0  0  0  0  0  0  0  0  0  0  0
  -22.5053  -34.9644   17.7433 C   0  0  0  0  0  0  0  0  0  0  0  0
  -30.1828  -13.1069   19.6359 C   0  0  0  0  0  0  0  0  0  0  0  0
  -23.9806  -34.6194   17.9203 C   0  0  0  0  0  0  0  0  0  0  0  0
  -28.7885  -12.5158   19.8567 C   0  0  0  0  0  0  0  0  0  0  0  0
  -30.4696  -14.2582   20.5983 C   0  0  0  0  0  0  0  0  0  0  0  0
  -28.0633  -14.7311   20.8333 C   0  0  0  0  0  0  0  0  0  0  0  0
  -24.2285  -33.1234   17.6922 C   0  0  1  0  0  0  0  0  0  0  0  0
  -23.9989  -31.3419   21.0399 C   0  0  1  0  0  0  0  0  0  0  0  0
  -27.7038  -13.6107   19.8438 C   0  0  2  0  0  0  0  0  0  0  0  0
  -26.0863  -21.6600   20.4126 C   0  0  0  0  0  0  0  0  0  0  0  0
  -28.3307  -22.9540   25.1466 C   0  0  0  0  0  0  0  0  0  0  0  0
  -25.8513  -30.9608   28.5516 C   0  0  0  0  0  0  0  0  0  0  0  0
  -27.2155  -34.1022   22.8823 C   0  0  0  0  0  0  0  0  0  0  0  0
  -27.8118  -33.6221   25.2661 C   0  0  0  0  0  0  0  0  0  0  0  0
  -25.6357  -34.7136   24.7221 C   0  0  0  0  0  0  0  0  0  0  0  0
  -28.6980  -23.2144   17.9692 C   0  0  0  0  0  0  0  0  0  0  0  0
  -30.0988  -25.2387   18.3075 C   0  0  0  0  0  0  0  0  0  0  0  0
  -24.0271  -28.3077   26.5243 C   0  0  0  0  0  0  0  0  0  0  0  0
  -27.9266  -22.6767   23.7064 C   0  0  0  0  0  0  0  0  0  0  0  0
  -28.9003  -23.3299   22.7181 C   0  0  0  0  0  0  0  0  0  0  0  0
  -29.4973  -23.8873   20.3224 C   0  0  0  0  0  0  0  0  0  0  0  0
  -27.6989  -25.2402   19.0541 C   0  0  0  0  0  0  0  0  0  1  0  0
  -28.5414  -23.0642   21.2309 C   0  0  1  0  0  0  0  0  0  0  0  0
  -25.9606  -32.2634   24.1901 C   0  0  1  0  0  0  0  0  0  0  0  0
  -25.0530  -30.4200   27.3756 C   0  0  2  0  0  0  0  0  0  0  0  0
  -26.6535  -33.6542   24.2463 C   0  0  0  0  0  0  0  0  0  0  0  0
  -28.9742  -24.3792   18.9351 C   0  0  0  0  0  0  0  0  0  0  0  0
  -25.8676  -13.0008   21.3727 N   0  0  0  0  0  0  0  0  0  0  0  0
  -26.3240  -13.0382   20.1093 N   0  0  0  0  0  0  0  0  0  0  0  0
  -24.9548  -31.2927   22.1480 N   0  0  0  0  0  0  0  0  0  0  0  0
  -29.4024  -15.2588   20.5284 N   0  0  0  0  0  0  0  0  0  0  0  0
  -25.7482  -12.4973   17.8762 N   0  0  0  0  0  0  0  0  0  0  0  0
  -22.1176  -11.2044   20.2306 N   0  0  0  0  0  0  0  0  0  0  0  0
  -28.6193  -17.4469   20.1269 N   0  0  0  0  0  0  0  0  0  0  0  0
  -23.8187  -32.3606   18.8518 N   0  0  0  0  0  0  0  0  0  0  0  0
  -25.3950  -31.8258   25.4617 N   0  0  0  0  0  0  0  0  0  0  0  0
  -24.8209  -28.9643   27.5947 N   0  3  0  0  0  0  0  0  0  0  0  0
  -23.0318  -11.3170   18.1306 O   0  0  0  0  0  0  0  0  0  0  0  0
  -25.7705  -32.5888   20.1010 O   0  0  0  0  0  0  0  0  0  0  0  0
  -23.8708  -32.9847   23.3304 O   0  0  0  0  0  0  0  0  0  0  0  0
  -26.6120  -29.8581   25.6174 O   0  0  0  0  0  0  0  0  0  0  0  0
  -30.8778  -16.9447   19.9583 O   0  0  0  0  0  0  0  0  0  0  0  0
  -21.4476  -11.6244   25.7452 O   0  0  0  0  0  0  0  0  0  0  0  0
  -27.9089  -26.3430   19.9264 O   0  0  0  0  0  0  0  0  0  1  0  0
  -18.8806   -6.7663   26.2077 F   0  0  0  0  0  0  0  0  0  0  0  0
  -21.9256   -9.9678   27.9061 F   0  0  0  0  0  0  0  0  0  0  0  0
  1  2  1  0  0  0  0
  1  5  2  0  0  0  0
  2  6  2  0  0  0  0
  3 10  2  0  0  0  0
  3 18  1  0  0  0  0
  4 11  1  0  0  0  0
  4 18  2  0  0  0  0
  5 20  1  0  0  0  0
  6 22  1  0  0  0  0
  7 12  2  0  0  0  0
  7 21  1  0  0  0  0
  8  9  2  0  0  0  0
  8 24  1  0  0  0  0
  9 26  1  0  0  0  0
 10 27  1  0  0  0  0
 11 27  2  0  0  0  0
 12 28  1  0  0  0  0
 13 14  2  0  0  0  0
 13 29  1  0  0  0  0
 14 30  1  0  0  0  0
 15 23  1  0  0  0  0
 15 28  2  0  0  0  0
 16 25  1  0  0  0  0
 16 26  2  0  0  0  0
 17 30  2  0  0  0  0
 17 31  1  0  0  0  0
 18 32  1  0  0  0  0
 19 32  1  0  0  0  0
 19 33  2  0  0  0  0
 19 34  1  0  0  0  0
 20 22  2  0  0  0  0
 20 39  1  0  0  0  0
 21 23  2  0  0  0  0
 21 40  1  0  0  0  0
 22 48  1  0  0  0  0
 23 41  1  0  0  0  0
 24 25  2  0  0  0  0
 24 64  1  0  0  0  0
 25 51  1  0  0  0  0
 26 75  1  0  0  0  0
 27 84  1  0  0  0  0
 28 85  1  0  0  0  0
 29 31  2  0  0  0  0
 29 84  1  0  0  0  0
 30 86  1  0  0  0  0
 31 87  1  0  0  0  0
 32 69  2  0  0  0  0
 33 70  1  0  0  0  0
 33 73  1  0  0  0  0
 34 74  1  0  0  0  0
 34 79  2  0  0  0  0
 35 49  1  0  0  0  0
 35 76  1  0  0  0  0
 35 80  2  0  0  0  0
 36 65  1  0  0  0  0
 36 71  1  0  0  0  0
 36 81  2  0  0  0  0
 37 66  1  0  0  0  0
 37 77  1  0  0  0  0
 37 82  2  0  0  0  0
 38 72  1  0  0  0  0
 38 75  1  0  0  0  0
 38 83  2  0  0  0  0
 39 42  1  0  0  0  0
 40 49  1  0  0  0  0
 41 71  1  0  0  0  0
 42 44  1  0  0  0  0
 43 45  1  0  0  0  0
 43 46  1  0  0  0  0
 44 48  1  0  0  0  0
 45 50  1  0  0  0  0
 46 72  1  0  0  0  0
 47 50  1  0  0  0  0
 47 72  1  0  0  0  0
 48 76  1  0  0  0  0
 49 71  1  0  0  0  0
 50 70  1  0  0  0  0
 52 60  1  0  0  0  0
 53 66  1  0  0  0  0
 54 67  1  0  0  0  0
 55 67  1  0  0  0  0
 56 67  1  0  0  0  0
 57 68  1  0  0  0  0
 58 68  1  0  0  0  0
 59 78  1  0  0  0  0
 60 61  1  0  0  0  0
 61 64  1  0  0  0  0
 62 64  1  0  0  0  0
 62 68  1  0  0  0  0
 63 68  1  0  0  0  0
 63 85  1  0  0  0  0
 65 67  1  0  0  0  0
 65 77  1  0  0  0  0
 66 78  1  0  0  0  0
 69 70  1  0  0  0  0
M  CHG  1  78   1
M  ISO  4  38 100  63 101  75 100  85 101
M  END
> <Batch ID>
0135

> <Smiles>
CCCC(CC(C)(C)[101CH2:1][101O:1]c1ccc2c(c1)CN(C(=O)C(NC(=O)C(C)NC)C(C)(C)C)C(C(=O)NC1CCCc3ccccc31)C2)c1ccc([100NH:0][100C:0](=O)N2CCCC(n3nc(-c4ccc(Oc5ccc(F)cc5F)cc4)c(C(N)=O)c3N)C2)cc1C

> <Shape>
0.284

> <Color>
0.086

> <Negative vol penalty>
0.000

$$$$

  -OEChem-04052302363D

 84 92  0     1  0  0  0  0  0999 V2000
  -18.6249  -22.8453   27.8306 C   0  0  0  0  0  0  0  0  0  0  0  0
  -19.4225  -22.2934   26.8332 C   0  0  0  0  0  0  0  0  0  0  0  0
  -26.9600  -12.3914   21.8587 C   0  0  0  0  0  0  0  0  0  0  0  0
  -26.4220  -14.0426   20.1791 C   0  0  0  0  0  0  0  0  0  0  0  0
  -18.1187  -24.1359   27.6823 C   0  0  0  0  0  0  0  0  0  0  0  0
  -19.7134  -23.0315   25.6864 C   0  0  0  0  0  0  0  0  0  0  0  0
  -24.9230  -22.9335   22.4684 C   0  0  0  0  0  0  0  0  0  0  0  0
  -25.6279  -11.9784   21.8794 C   0  0  0  0  0  0  0  0  0  0  0  0
  -25.0898  -13.6296   20.1998 C   0  0  0  0  0  0  0  0  0  0  0  0
  -25.2908  -22.2695   21.2989 C   0  0  0  0  0  0  0  0  0  0  0  0
  -23.5879  -10.0509   19.9936 C   0  0  0  0  0  0  0  0  0  0  0  0
  -23.3342   -8.6794   19.9806 C   0  0  0  0  0  0  0  0  0  0  0  0
  -24.7488  -24.2397   20.0169 C   0  0  0  0  0  0  0  0  0  0  0  0
  -30.6931  -22.2426   22.2539 C   0  0  0  0  0  0  0  0  0  0  0  0
  -29.6710  -23.7207   20.6392 C   0  0  0  0  0  0  0  0  0  0  0  0
  -29.9419  -21.3751   20.1278 C   0  0  0  0  0  0  0  0  0  0  0  0
  -22.1862   -8.8718   22.0978 C   0  0  0  0  0  0  0  0  0  0  0  0
  -27.3571  -13.4236   21.0085 C   0  0  0  0  0  0  0  0  0  0  0  0
  -29.7647  -13.3545   20.1681 C   0  0  0  0  0  0  0  0  0  0  0  0
  -18.4115  -24.8938   26.5376 C   0  0  0  0  0  0  0  0  0  0  0  0
  -24.4542  -24.2542   22.4196 C   0  0  0  0  0  0  0  0  0  0  0  0
  -19.2095  -24.3329   25.5222 C   0  0  0  0  0  0  0  0  0  0  0  0
  -24.3782  -24.9192   21.1874 C   0  0  0  0  0  0  0  0  0  0  0  0
  -30.2622  -23.5172   21.8861 C   0  0  0  0  0  0  0  0  0  0  0  0
  -30.5330  -21.1715   21.3747 C   0  0  0  0  0  0  0  0  0  0  0  0
  -24.6928  -12.5974   21.0500 C   0  0  0  0  0  0  0  0  0  0  0  0
  -25.2010  -22.9216   20.0727 C   0  0  0  0  0  0  0  0  0  0  0  0
  -23.1409  -10.8329   21.0587 C   0  0  0  0  0  0  0  0  0  0  0  0
  -29.5109  -22.6497   19.7600 C   0  0  0  0  0  0  0  0  0  0  0  0
  -22.6333   -8.0898   21.0327 C   0  0  0  0  0  0  0  0  0  0  0  0
  -22.4400  -10.2433   22.1108 C   0  0  0  0  0  0  0  0  0  0  0  0
  -28.7329  -13.8511   20.9870 C   0  0  0  0  0  0  0  0  0  0  0  0
  -30.8710  -14.0839   20.5295 C   0  0  0  0  0  0  0  0  0  0  0  0
  -29.7265  -12.3260   19.1699 C   0  0  0  0  0  0  0  0  0  0  0  0
  -21.7276  -25.6965   23.1871 C   0  0  0  0  0  0  0  0  0  0  0  0
  -23.4032  -28.3833   22.4827 C   0  0  0  0  0  0  0  0  0  0  0  0
  -26.0039  -29.8188   20.8028 C   0  0  0  0  0  0  0  0  0  0  0  0
  -31.5770  -19.5027   22.9468 C   0  0  0  0  0  0  0  0  0  0  0  0
  -17.8027  -26.2668   26.4007 C   0  0  0  0  0  0  0  0  0  0  0  0
  -24.0868  -24.9655   23.6930 C   0  0  0  0  0  0  0  0  0  0  0  0
  -23.9005  -26.3437   21.0833 C   0  0  0  0  0  0  0  0  0  0  0  0
  -18.4659  -27.1227   25.3246 C   0  0  0  0  0  0  0  0  0  0  0  0
  -32.7654  -16.4139   24.2600 C   0  0  0  0  0  0  0  0  0  0  0  0
  -18.6511  -26.3185   24.0418 C   0  0  0  0  0  0  0  0  0  0  0  0
  -31.9644  -15.3608   23.4908 C   0  0  0  0  0  0  0  0  0  0  0  0
  -31.9252  -17.6520   24.5682 C   0  0  0  0  0  0  0  0  0  0  0  0
  -30.4627  -17.2053   22.6367 C   0  0  0  0  0  0  0  0  0  0  0  0
  -19.5677  -25.1114   24.2748 C   0  0  1  0  0  0  0  0  0  0  0  0
  -23.1359  -26.1374   23.4698 C   0  0  1  0  0  0  0  0  0  0  0  0
  -31.2857  -15.9667   22.2467 C   0  0  2  0  0  0  0  0  0  0  0  0
  -29.2313  -24.8406   23.7495 C   0  0  0  0  0  0  0  0  0  0  0  0
  -27.0981  -32.0396   20.3927 C   0  0  0  0  0  0  0  0  0  0  0  0
  -27.6787  -23.1099   15.9126 C   0  0  0  0  0  0  0  0  0  0  0  0
  -21.1455  -29.1406   20.5749 C   0  0  0  0  0  0  0  0  0  0  0  0
  -22.6879  -30.8086   19.5228 C   0  0  0  0  0  0  0  0  0  0  0  0
  -22.0529  -31.0409   21.9240 C   0  0  0  0  0  0  0  0  0  0  0  0
  -28.5587  -28.9097   21.9882 C   0  0  0  0  0  0  0  0  0  0  0  0
  -30.4335  -24.6624   22.8257 C   0  0  0  0  0  0  0  0  0  0  0  0
  -26.0760  -23.0748   17.8666 C   0  0  0  0  0  0  0  0  0  1  0  0
  -28.2117  -21.7563   17.9797 C   0  0  0  0  0  0  0  0  0  0  0  0
  -23.6410  -29.1984   21.2345 C   0  0  1  0  0  0  0  0  0  0  0  0
  -27.0831  -30.7864   21.2540 C   0  0  2  0  0  0  0  0  0  0  0  0
  -27.1013  -22.2726   17.0602 C   0  0  2  0  0  0  0  0  0  0  0  0
  -22.3890  -30.0196   20.8155 C   0  0  0  0  0  0  0  0  0  0  0  0
  -29.1469  -14.8208   21.8070 N   0  0  0  0  0  0  0  0  0  0  0  0
  -30.4510  -14.9394   21.5052 N   0  0  0  0  0  0  0  0  0  0  0  0
  -23.5468  -26.9944   22.3557 N   0  0  0  0  0  0  0  0  0  0  0  0
  -31.3171  -18.1734   23.3421 N   0  0  0  0  0  0  0  0  0  0  0  0
  -32.1523  -14.0704   20.1047 N   0  0  0  0  0  0  0  0  0  0  0  0
  -28.5081  -11.6782   18.9243 N   0  0  0  0  0  0  0  0  0  0  0  0
  -30.9708  -19.8766   21.7479 N   0  0  0  0  0  0  0  0  0  0  0  0
  -20.9525  -25.5294   24.3188 N   0  0  0  0  0  0  0  0  0  0  0  0
  -24.8266  -30.0077   21.4953 N   0  0  0  0  0  0  0  0  0  0  0  0
  -28.4243  -30.1423   21.1700 N   0  3  0  0  0  0  0  0  0  0  0  0
  -30.7463  -11.9801   18.5266 O   0  0  0  0  0  0  0  0  0  0  0  0
  -21.3702  -25.5223   22.0280 O   0  0  0  0  0  0  0  0  0  0  0  0
  -23.1080  -28.9582   23.5334 O   0  0  0  0  0  0  0  0  0  0  0  0
  -26.1859  -28.9819   19.9213 O   0  0  0  0  0  0  0  0  0  0  0  0
  -32.3071  -20.2454   23.6080 O   0  0  0  0  0  0  0  0  0  0  0  0
  -23.3929  -12.1945   21.0698 O   0  0  0  0  0  0  0  0  0  0  0  0
  -25.5587  -22.2756   18.9296 O   0  0  0  0  0  0  0  0  0  1  0  0
  -28.9305  -22.8499   18.5348 O   0  0  0  0  0  0  0  0  0  0  0  0
  -22.3884   -6.7730   21.0193 F   0  0  0  0  0  0  0  0  0  0  0  0
  -22.0069  -10.9895   23.1362 F   0  0  0  0  0  0  0  0  0  0  0  0
  1  2  1  0  0  0  0
  1  5  2  0  0  0  0
  2  6  2  0  0  0  0
  3  8  2  0  0  0  0
  3 18  1  0  0  0  0
  4  9  1  0  0  0  0
  4 18  2  0  0  0  0
  5 20  1  0  0  0  0
  6 22  1  0  0  0  0
  7 10  2  0  0  0  0
  7 21  1  0  0  0  0
  8 26  1  0  0  0  0
  9 26  2  0  0  0  0
 10 27  1  0  0  0  0
 11 12  2  0  0  0  0
 11 28  1  0  0  0  0
 12 30  1  0  0  0  0
 13 23  1  0  0  0  0
 13 27  2  0  0  0  0
 14 24  1  0  0  0  0
 14 25  2  0  0  0  0
 15 24  2  0  0  0  0
 15 29  1  0  0  0  0
 16 25  1  0  0  0  0
 16 29  2  0  0  0  0
 17 30  2  0  0  0  0
 17 31  1  0  0  0  0
 18 32  1  0  0  0  0
 19 32  1  0  0  0  0
 19 33  2  0  0  0  0
 19 34  1  0  0  0  0
 20 22  2  0  0  0  0
 20 39  1  0  0  0  0
 21 23  2  0  0  0  0
 21 40  1  0  0  0  0
 22 48  1  0  0  0  0
 23 41  1  0  0  0  0
 24 58  1  0  0  0  0
 25 71  1  0  0  0  0
 26 80  1  0  0  0  0
 27 81  1  0  0  0  0
 28 31  2  0  0  0  0
 28 80  1  0  0  0  0
 29 82  1  0  0  0  0
 30 83  1  0  0  0  0
 31 84  1  0  0  0  0
 32 65  2  0  0  0  0
 33 66  1  0  0  0  0
 33 69  1  0  0  0  0
 34 70  1  0  0  0  0
 34 75  2  0  0  0  0
 35 49  1  0  0  0  0
 35 72  1  0  0  0  0
 35 76  2  0  0  0  0
 36 61  1  0  0  0  0
 36 67  1  0  0  0  0
 36 77  2  0  0  0  0
 37 62  1  0  0  0  0
 37 73  1  0  0  0  0
 37 78  2  0  0  0  0
 38 68  1  0  0  0  0
 38 71  1  0  0  0  0
 38 79  2  0  0  0  0
 39 42  1  0  0  0  0
 40 49  1  0  0  0  0
 41 67  1  0  0  0  0
 42 44  1  0  0  0  0
 43 45  1  0  0  0  0
 43 46  1  0  0  0  0
 44 48  1  0  0  0  0
 45 50  1  0  0  0  0
 46 68  1  0  0  0  0
 47 50  1  0  0  0  0
 47 68  1  0  0  0  0
 48 72  1  0  0  0  0
 49 67  1  0  0  0  0
 50 66  1  0  0  0  0
 51 58  1  0  0  0  0
 52 62  1  0  0  0  0
 53 63  1  0  0  0  0
 54 64  1  0  0  0  0
 55 64  1  0  0  0  0
 56 64  1  0  0  0  0
 57 74  1  0  0  0  0
 59 63  1  0  0  0  0
 59 81  1  0  0  0  0
 60 63  1  0  0  0  0
 60 82  1  0  0  0  0
 61 64  1  0  0  0  0
 61 73  1  0  0  0  0
 62 74  1  0  0  0  0
 65 66  1  0  0  0  0
M  CHG  1  74   1
M  ISO  4  38 100  59 101  71 100  81 101
M  END
> <Batch ID>
0135

> <Smiles>
CCc1cc([100NH:0][100C:0](=O)N2CCCC(n3nc(-c4ccc(Oc5ccc(F)cc5F)cc4)c(C(N)=O)c3N)C2)cc(OCC(C)[101CH2:1][101O:1]c2ccc3c(c2)CN(C(=O)C(NC(=O)C(C)NC)C(C)(C)C)C(C(=O)NC2CCCc4ccccc42)C3)c1

> <Shape>
0.234

> <Color>
0.068

> <Negative vol penalty>
0.000

$$$$
