
  -OEChem-04052302393D

 84 92  0     1  0  0  0  0  0999 V2000
  -35.2252  -32.2542   21.3191 C   0  0  0  0  0  0  0  0  0  0  0  0
  -34.7565  -31.1351   21.9997 C   0  0  0  0  0  0  0  0  0  0  0  0
  -23.0874   -9.8895   19.9091 C   0  0  0  0  0  0  0  0  0  0  0  0
  -23.8674   -9.8434   22.1952 C   0  0  0  0  0  0  0  0  0  0  0  0
  -34.5309  -32.7356   20.2100 C   0  0  0  0  0  0  0  0  0  0  0  0
  -33.5924  -30.4974   21.5723 C   0  0  0  0  0  0  0  0  0  0  0  0
  -34.0626  -25.4561   21.4756 C   0  0  0  0  0  0  0  0  0  0  0  0
  -32.6420  -17.4891   23.5199 C   0  0  0  0  0  0  0  0  0  0  0  0
  -32.0362  -16.6304   22.6027 C   0  0  0  0  0  0  0  0  0  0  0  0
  -22.3565   -8.7232   20.1349 C   0  0  0  0  0  0  0  0  0  0  0  0
  -23.1364   -8.6771   22.4211 C   0  0  0  0  0  0  0  0  0  0  0  0
  -33.9741  -24.7849   22.6944 C   0  0  0  0  0  0  0  0  0  0  0  0
  -19.9212   -7.8332   23.0301 C   0  0  0  0  0  0  0  0  0  0  0  0
  -19.1751   -7.7553   24.2060 C   0  0  0  0  0  0  0  0  0  0  0  0
  -31.6829  -24.2105   22.2049 C   0  0  0  0  0  0  0  0  0  0  0  0
  -30.4707  -18.3230   24.1734 C   0  0  0  0  0  0  0  0  0  0  0  0
  -20.4408   -5.8110   24.8804 C   0  0  0  0  0  0  0  0  0  0  0  0
  -23.8430  -10.4496   20.9392 C   0  0  0  0  0  0  0  0  0  0  0  0
  -24.1604  -12.9801   20.8829 C   0  0  0  0  0  0  0  0  0  0  0  0
  -33.3630  -32.0977   19.7629 C   0  0  0  0  0  0  0  0  0  0  0  0
  -32.9566  -25.5189   20.6158 C   0  0  0  0  0  0  0  0  0  0  0  0
  -32.8811  -30.9715   20.4570 C   0  0  0  0  0  0  0  0  0  0  0  0
  -31.7607  -24.8809   20.9747 C   0  0  0  0  0  0  0  0  0  0  0  0
  -31.8593  -18.3354   24.3053 C   0  0  0  0  0  0  0  0  0  0  0  0
  -29.8649  -17.4644   23.2562 C   0  0  0  0  0  0  0  0  0  0  0  0
  -30.6476  -16.6181   22.4708 C   0  0  0  0  0  0  0  0  0  0  0  0
  -22.3810   -8.1170   21.3909 C   0  0  0  0  0  0  0  0  0  0  0  0
  -32.7833  -24.1644   23.0605 C   0  0  0  0  0  0  0  0  0  0  0  0
  -20.9272   -6.8999   22.7793 C   0  0  0  0  0  0  0  0  0  0  0  0
  -19.4348   -6.7443   25.1311 C   0  0  0  0  0  0  0  0  0  0  0  0
  -21.1869   -5.8889   23.7045 C   0  0  0  0  0  0  0  0  0  0  0  0
  -24.5987  -11.6540   20.7064 C   0  0  0  0  0  0  0  0  0  0  0  0
  -25.2423  -13.7492   20.5301 C   0  0  0  0  0  0  0  0  0  0  0  0
  -22.8889  -13.4727   21.3261 C   0  0  0  0  0  0  0  0  0  0  0  0
  -31.1660  -27.8633   19.4320 C   0  0  0  0  0  0  0  0  0  0  0  0
  -29.8270  -25.4521   17.7246 C   0  0  0  0  0  0  0  0  0  0  0  0
  -29.1620  -22.1157   17.4535 C   0  0  0  0  0  0  0  0  0  0  0  0
  -30.6999  -14.8416   20.6854 C   0  0  0  0  0  0  0  0  0  0  0  0
  -32.6206  -32.6830   18.5878 C   0  0  0  0  0  0  0  0  0  0  0  0
  -33.0764  -26.2241   19.2926 C   0  0  0  0  0  0  0  0  0  0  0  0
  -30.5506  -24.9019   20.0781 C   0  0  0  0  0  0  0  0  0  0  0  0
  -31.6017  -31.7266   17.9735 C   0  0  0  0  0  0  0  0  0  0  0  0
  -29.5870  -12.4804   18.2640 C   0  0  0  0  0  0  0  0  0  0  0  0
  -30.7609  -31.0700   19.0637 C   0  0  0  0  0  0  0  0  0  0  0  0
  -28.1540  -12.1640   18.6980 C   0  0  0  0  0  0  0  0  0  0  0  0
  -30.5105  -12.6862   19.4633 C   0  0  0  0  0  0  0  0  0  0  0  0
  -28.6092  -13.3560   20.8795 C   0  0  0  0  0  0  0  0  0  0  0  0
  -31.6358  -30.2376   20.0090 C   0  0  1  0  0  0  0  0  0  0  0  0
  -31.7299  -26.6631   18.7254 C   0  0  1  0  0  0  0  0  0  0  0  0
  -27.6277  -13.2046   19.7059 C   0  0  2  0  0  0  0  0  0  0  0  0
  -28.3755  -17.4745   23.1339 C   0  0  0  0  0  0  0  0  0  0  0  0
  -28.0169  -20.4498   15.9667 C   0  0  0  0  0  0  0  0  0  0  0  0
  -27.1171  -26.3802   18.7758 C   0  0  0  0  0  0  0  0  0  0  0  0
  -26.1636  -24.1786   18.0603 C   0  0  0  0  0  0  0  0  0  0  0  0
  -27.1317  -25.7277   16.3616 C   0  0  0  0  0  0  0  0  0  0  0  0
  -34.9001  -21.0410   26.0959 C   0  0  0  0  0  0  0  0  0  0  0  0
  -32.7022  -22.0416   26.7708 C   0  0  0  0  0  0  0  0  0  0  0  0
  -31.6848  -20.6498   16.9580 C   0  0  0  0  0  0  0  0  0  0  0  0
  -32.5153  -19.2665   25.2963 C   0  0  0  0  0  0  0  0  0  0  0  0
  -32.8449  -20.6221   24.6560 C   0  0  0  0  0  0  0  0  0  0  0  0
  -33.8905  -22.9205   24.7584 C   0  0  0  0  0  0  0  0  0  1  0  0
  -28.6765  -24.4991   17.9416 C   0  0  1  0  0  0  0  0  0  0  0  0
  -29.3277  -21.1463   16.2972 C   0  0  2  0  0  0  0  0  0  0  0  0
  -27.2943  -25.1975   17.8028 C   0  0  0  0  0  0  0  0  0  0  0  0
  -33.5813  -21.6402   25.5730 C   0  0  0  0  0  0  0  0  0  0  0  0
  -25.8606  -11.5812   20.2749 N   0  0  0  0  0  0  0  0  0  0  0  0
  -26.2245  -12.8712   20.1772 N   0  0  0  0  0  0  0  0  0  0  0  0
  -30.7156  -25.6095   18.7976 N   0  0  0  0  0  0  0  0  0  0  0  0
  -29.9498  -13.6883   20.3723 N   0  0  0  0  0  0  0  0  0  0  0  0
  -25.4397  -15.0841   20.4904 N   0  0  0  0  0  0  0  0  0  0  0  0
  -21.8885  -12.5454   21.6480 N   0  0  0  0  0  0  0  0  0  0  0  0
  -30.0513  -15.7386   21.5334 N   0  0  0  0  0  0  0  0  0  0  0  0
  -31.9855  -28.9753   19.3936 N   0  0  0  0  0  0  0  0  0  0  0  0
  -28.8826  -23.3923   17.0137 N   0  0  0  0  0  0  0  0  0  0  0  0
  -30.3406  -20.1063   16.6342 N   0  3  0  0  0  0  0  0  0  0  0  0
  -22.6418  -14.6991   21.4179 O   0  0  0  0  0  0  0  0  0  0  0  0
  -30.0680  -27.7867   19.9707 O   0  0  0  0  0  0  0  0  0  0  0  0
  -29.9374  -26.0299   16.6403 O   0  0  0  0  0  0  0  0  0  0  0  0
  -29.2661  -21.7739   18.6295 O   0  0  0  0  0  0  0  0  0  0  0  0
  -31.8232  -15.0332   20.2127 O   0  0  0  0  0  0  0  0  0  0  0  0
  -21.6676   -6.9790   21.6117 O   0  0  0  0  0  0  0  0  0  0  0  0
  -32.6941  -23.5091   24.2499 O   0  0  0  0  0  0  0  0  0  1  0  0
  -18.7192   -6.6706   26.2610 F   0  0  0  0  0  0  0  0  0  0  0  0
  -22.1528   -4.9902   23.4696 F   0  0  0  0  0  0  0  0  0  0  0  0
  1  2  1  0  0  0  0
  1  5  2  0  0  0  0
  2  6  2  0  0  0  0
  3 10  2  0  0  0  0
  3 18  1  0  0  0  0
  4 11  1  0  0  0  0
  4 18  2  0  0  0  0
  5 20  1  0  0  0  0
  6 22  1  0  0  0  0
  7 12  2  0  0  0  0
  7 21  1  0  0  0  0
  8  9  2  0  0  0  0
  8 24  1  0  0  0  0
  9 26  1  0  0  0  0
 10 27  1  0  0  0  0
 11 27  2  0  0  0  0
 12 28  1  0  0  0  0
 13 14  2  0  0  0  0
 13 29  1  0  0  0  0
 14 30  1  0  0  0  0
 15 23  1  0  0  0  0
 15 28  2  0  0  0  0
 16 24  2  0  0  0  0
 16 25  1  0  0  0  0
 17 30  2  0  0  0  0
 17 31  1  0  0  0  0
 18 32  1  0  0  0  0
 19 32  1  0  0  0  0
 19 33  2  0  0  0  0
 19 34  1  0  0  0  0
 20 22  2  0  0  0  0
 20 39  1  0  0  0  0
 21 23  2  0  0  0  0
 21 40  1  0  0  0  0
 22 48  1  0  0  0  0
 23 41  1  0  0  0  0
 24 59  1  0  0  0  0
 25 26  2  0  0  0  0
 25 51  1  0  0  0  0
 26 72  1  0  0  0  0
 27 81  1  0  0  0  0
 28 82  1  0  0  0  0
 29 31  2  0  0  0  0
 29 81  1  0  0  0  0
 30 83  1  0  0  0  0
 31 84  1  0  0  0  0
 32 66  2  0  0  0  0
 33 67  1  0  0  0  0
 33 70  1  0  0  0  0
 34 71  1  0  0  0  0
 34 76  2  0  0  0  0
 35 49  1  0  0  0  0
 35 73  1  0  0  0  0
 35 77  2  0  0  0  0
 36 62  1  0  0  0  0
 36 68  1  0  0  0  0
 36 78  2  0  0  0  0
 37 63  1  0  0  0  0
 37 74  1  0  0  0  0
 37 79  2  0  0  0  0
 38 69  1  0  0  0  0
 38 72  1  0  0  0  0
 38 80  2  0  0  0  0
 39 42  1  0  0  0  0
 40 49  1  0  0  0  0
 41 68  1  0  0  0  0
 42 44  1  0  0  0  0
 43 45  1  0  0  0  0
 43 46  1  0  0  0  0
 44 48  1  0  0  0  0
 45 50  1  0  0  0  0
 46 69  1  0  0  0  0
 47 50  1  0  0  0  0
 47 69  1  0  0  0  0
 48 73  1  0  0  0  0
 49 68  1  0  0  0  0
 50 67  1  0  0  0  0
 52 63  1  0  0  0  0
 53 64  1  0  0  0  0
 54 64  1  0  0  0  0
 55 64  1  0  0  0  0
 56 65  1  0  0  0  0
 57 65  1  0  0  0  0
 58 75  1  0  0  0  0
 59 60  1  0  0  0  0
 60 65  1  0  0  0  0
 61 65  1  0  0  0  0
 61 82  1  0  0  0  0
 62 64  1  0  0  0  0
 62 74  1  0  0  0  0
 63 75  1  0  0  0  0
 66 67  1  0  0  0  0
M  CHG  1  75   1
M  ISO  4  38 100  61 101  72 100  82 101
M  END
> <Batch ID>
0136

> <Smiles>
CNC(C)C(=O)NC(C(=O)N1Cc2cc([101O:1][101CH2:1]C(C)(C)CCc3ccc([100NH:0][100C:0](=O)N4CCCC(n5nc(-c6ccc(Oc7ccc(F)cc7F)cc6)c(C(N)=O)c5N)C4)c(C)c3)ccc2CC1C(=O)NC1CCCc2ccccc21)C(C)(C)C

> <Shape>
0.233

> <Color>
0.201

> <Negative vol penalty>
0.000

$$$$

  -OEChem-04052302393D

 82 90  0     1  0  0  0  0  0999 V2000
  -25.2341  -37.1308   17.1137 C   0  0  0  0  0  0  0  0  0  0  0  0
  -25.8160  -35.8720   17.0037 C   0  0  0  0  0  0  0  0  0  0  0  0
  -23.4373   -9.1679   20.4406 C   0  0  0  0  0  0  0  0  0  0  0  0
  -23.2032  -10.9424   22.0633 C   0  0  0  0  0  0  0  0  0  0  0  0
  -24.9442  -37.6560   18.3723 C   0  0  0  0  0  0  0  0  0  0  0  0
  -26.1094  -35.1380   18.1524 C   0  0  0  0  0  0  0  0  0  0  0  0
  -25.8241  -29.0556   18.8078 C   0  0  0  0  0  0  0  0  0  0  0  0
  -22.5745   -8.3685   21.1902 C   0  0  0  0  0  0  0  0  0  0  0  0
  -22.3403  -10.1430   22.8130 C   0  0  0  0  0  0  0  0  0  0  0  0
  -26.7987  -28.0600   18.7566 C   0  0  0  0  0  0  0  0  0  0  0  0
  -19.2419   -8.0848   21.6867 C   0  0  0  0  0  0  0  0  0  0  0  0
  -18.2433   -7.3909   21.0034 C   0  0  0  0  0  0  0  0  0  0  0  0
  -31.1348  -19.1386   18.2440 C   0  0  0  0  0  0  0  0  0  0  0  0
  -31.2307  -17.8044   18.7348 C   0  0  0  0  0  0  0  0  0  0  0  0
  -26.9857  -28.1279   21.1607 C   0  0  0  0  0  0  0  0  0  0  0  0
  -19.1474   -5.2992   21.8062 C   0  0  0  0  0  0  0  0  0  0  0  0
  -23.7517  -10.4549   20.8772 C   0  0  0  0  0  0  0  0  0  0  0  0
  -24.2949  -12.1762   19.0745 C   0  0  0  0  0  0  0  0  0  0  0  0
  -25.2253  -36.9240   19.5367 C   0  0  0  0  0  0  0  0  0  0  0  0
  -25.4302  -29.6035   20.0371 C   0  0  0  0  0  0  0  0  0  0  0  0
  -25.8243  -35.6544   19.4279 C   0  0  0  0  0  0  0  0  0  0  0  0
  -26.0041  -29.1286   21.2250 C   0  0  0  0  0  0  0  0  0  0  0  0
  -22.0259   -8.8560   22.3764 C   0  0  0  0  0  0  0  0  0  0  0  0
  -27.3817  -27.5980   19.9329 C   0  0  0  0  0  0  0  0  0  0  0  0
  -20.1934   -7.3859   22.4296 C   0  0  0  0  0  0  0  0  0  0  0  0
  -18.1960   -5.9981   21.0632 C   0  0  0  0  0  0  0  0  0  0  0  0
  -20.1461   -5.9931   22.4894 C   0  0  0  0  0  0  0  0  0  0  0  0
  -24.6434  -11.2809   20.1035 C   0  0  0  0  0  0  0  0  0  0  0  0
  -29.8264  -19.5359   18.0774 C   0  0  0  0  0  0  0  0  0  0  0  0
  -25.4919  -12.7105   18.6642 C   0  0  0  0  0  0  0  0  0  0  0  0
  -29.9917  -17.2328   18.9248 C   0  0  0  0  0  0  0  0  0  0  0  0
  -23.0046  -12.4963   18.5376 C   0  0  0  0  0  0  0  0  0  0  0  0
  -25.5285  -32.5035   21.3349 C   0  0  0  0  0  0  0  0  0  0  0  0
  -28.8326  -24.3489   19.2283 C   0  0  0  0  0  0  0  0  0  0  0  0
  -23.8393  -31.0737   23.7066 C   0  0  0  0  0  0  0  0  0  0  0  0
  -23.0038  -28.1955   25.3390 C   0  0  0  0  0  0  0  0  0  0  0  0
  -30.4806  -14.9156   19.7838 C   0  0  0  0  0  0  0  0  0  0  0  0
  -24.9374  -37.5531   20.8769 C   0  0  0  0  0  0  0  0  0  0  0  0
  -24.3584  -30.6581   20.0774 C   0  0  0  0  0  0  0  0  0  0  0  0
  -25.6017  -29.6695   22.5718 C   0  0  0  0  0  0  0  0  0  0  0  0
  -24.9356  -36.5539   22.0309 C   0  0  0  0  0  0  0  0  0  0  0  0
  -30.2474  -11.3629   19.7557 C   0  0  0  0  0  0  0  0  0  0  0  0
  -26.1519  -35.6373   21.9454 C   0  0  0  0  0  0  0  0  0  0  0  0
  -28.7400  -11.0985   19.7590 C   0  0  0  0  0  0  0  0  0  0  0  0
  -30.6123  -12.5757   20.6099 C   0  0  0  0  0  0  0  0  0  0  0  0
  -28.3677  -13.5404   20.2935 C   0  0  0  0  0  0  0  0  0  0  0  0
  -26.1347  -34.8173   20.6497 C   0  0  1  0  0  0  0  0  0  0  0  0
  -24.4034  -31.5076   21.3438 C   0  0  1  0  0  0  0  0  0  0  0  0
  -27.9445  -12.3673   19.3944 C   0  0  2  0  0  0  0  0  0  0  0  0
  -21.6315  -27.3487   27.2618 C   0  0  0  0  0  0  0  0  0  0  0  0
  -25.9348  -32.1225   25.6608 C   0  0  0  0  0  0  0  0  0  0  0  0
  -25.0688  -30.4948   27.3546 C   0  0  0  0  0  0  0  0  0  0  0  0
  -23.5753  -32.2879   26.4733 C   0  0  0  0  0  0  0  0  0  0  0  0
  -21.3456  -26.5062   23.5625 C   0  0  0  0  0  0  0  0  0  0  0  0
  -29.3037  -20.8600   17.5820 C   0  0  0  0  0  0  0  0  0  0  0  0
  -28.8118  -23.2653   18.1631 C   0  0  0  0  0  0  0  0  0  0  0  0
  -28.2495  -25.6862   18.8158 C   0  0  0  0  0  0  0  0  0  1  0  0
  -29.3818  -21.9398   18.6628 C   0  0  0  0  0  0  0  0  0  0  0  0
  -24.1921  -30.3434   24.9798 C   0  0  1  0  0  0  0  0  0  0  0  0
  -21.6600  -27.6348   25.7685 C   0  0  2  0  0  0  0  0  0  0  0  0
  -24.7020  -31.3031   26.0918 C   0  0  0  0  0  0  0  0  0  0  0  0
  -25.9588  -11.2456   20.3327 N   0  0  0  0  0  0  0  0  0  0  0  0
  -26.4474  -12.1253   19.4419 N   0  0  0  0  0  0  0  0  0  0  0  0
  -24.5541  -30.7039   22.5585 N   0  0  0  0  0  0  0  0  0  0  0  0
  -29.8226  -13.7406   20.2048 N   0  0  0  0  0  0  0  0  0  0  0  0
  -25.8098  -13.6190   17.7177 N   0  0  0  0  0  0  0  0  0  0  0  0
  -21.8797  -11.8556   19.0748 N   0  0  0  0  0  0  0  0  0  0  0  0
  -29.6265  -15.9458   19.3916 N   0  0  0  0  0  0  0  0  0  0  0  0
  -25.2013  -33.7168   20.7603 N   0  0  0  0  0  0  0  0  0  0  0  0
  -23.0091  -29.5743   25.3505 N   0  0  0  0  0  0  0  0  0  0  0  0
  -21.3717  -26.3663   25.0413 N   0  3  0  0  0  0  0  0  0  0  0  0
  -22.8552  -13.3137   17.5979 O   0  0  0  0  0  0  0  0  0  0  0  0
  -26.6127  -32.1944   21.8153 O   0  0  0  0  0  0  0  0  0  0  0  0
  -29.2927  -24.1622   20.3537 O   0  0  0  0  0  0  0  0  0  0  0  0
  -22.9569  -31.9354   23.7284 O   0  0  0  0  0  0  0  0  0  0  0  0
  -23.9548  -27.4817   25.0283 O   0  0  0  0  0  0  0  0  0  0  0  0
  -31.7113  -14.9922   19.7462 O   0  0  0  0  0  0  0  0  0  0  0  0
  -21.1837   -8.0763   23.1081 O   0  0  0  0  0  0  0  0  0  0  0  0
  -28.3337  -26.6267   19.8857 O   0  0  0  0  0  0  0  0  0  1  0  0
  -17.2361   -5.3320   20.4083 F   0  0  0  0  0  0  0  0  0  0  0  0
  -21.0567   -5.3163   23.2026 F   0  0  0  0  0  0  0  0  0  0  0  0
  -28.7203  -18.3030   18.5119 S   0  0  0  0  0  0  0  0  0  0  0  0
  1  2  1  0  0  0  0
  1  5  2  0  0  0  0
  2  6  2  0  0  0  0
  3  8  2  0  0  0  0
  3 17  1  0  0  0  0
  4  9  1  0  0  0  0
  4 17  2  0  0  0  0
  5 19  1  0  0  0  0
  6 21  1  0  0  0  0
  7 10  2  0  0  0  0
  7 20  1  0  0  0  0
  8 23  1  0  0  0  0
  9 23  2  0  0  0  0
 10 24  1  0  0  0  0
 11 12  2  0  0  0  0
 11 25  1  0  0  0  0
 12 26  1  0  0  0  0
 13 14  1  0  0  0  0
 13 29  2  0  0  0  0
 14 31  2  0  0  0  0
 15 22  1  0  0  0  0
 15 24  2  0  0  0  0
 16 26  2  0  0  0  0
 16 27  1  0  0  0  0
 17 28  1  0  0  0  0
 18 28  1  0  0  0  0
 18 30  2  0  0  0  0
 18 32  1  0  0  0  0
 19 21  2  0  0  0  0
 19 38  1  0  0  0  0
 20 22  2  0  0  0  0
 20 39  1  0  0  0  0
 21 47  1  0  0  0  0
 22 40  1  0  0  0  0
 23 78  1  0  0  0  0
 24 79  1  0  0  0  0
 25 27  2  0  0  0  0
 25 78  1  0  0  0  0
 26 80  1  0  0  0  0
 27 81  1  0  0  0  0
 28 62  2  0  0  0  0
 29 55  1  0  0  0  0
 29 82  1  0  0  0  0
 30 63  1  0  0  0  0
 30 66  1  0  0  0  0
 31 68  1  0  0  0  0
 31 82  1  0  0  0  0
 32 67  1  0  0  0  0
 32 72  2  0  0  0  0
 33 48  1  0  0  0  0
 33 69  1  0  0  0  0
 33 73  2  0  0  0  0
 34 56  1  0  0  0  0
 34 57  1  0  0  0  0
 34 74  2  0  0  0  0
 35 59  1  0  0  0  0
 35 64  1  0  0  0  0
 35 75  2  0  0  0  0
 36 60  1  0  0  0  0
 36 70  1  0  0  0  0
 36 76  2  0  0  0  0
 37 65  1  0  0  0  0
 37 68  1  0  0  0  0
 37 77  2  0  0  0  0
 38 41  1  0  0  0  0
 39 48  1  0  0  0  0
 40 64  1  0  0  0  0
 41 43  1  0  0  0  0
 42 44  1  0  0  0  0
 42 45  1  0  0  0  0
 43 47  1  0  0  0  0
 44 49  1  0  0  0  0
 45 65  1  0  0  0  0
 46 49  1  0  0  0  0
 46 65  1  0  0  0  0
 47 69  1  0  0  0  0
 48 64  1  0  0  0  0
 49 63  1  0  0  0  0
 50 60  1  0  0  0  0
 51 61  1  0  0  0  0
 52 61  1  0  0  0  0
 53 61  1  0  0  0  0
 54 71  1  0  0  0  0
 55 58  1  0  0  0  0
 56 58  1  0  0  0  0
 57 79  1  0  0  0  0
 59 61  1  0  0  0  0
 59 70  1  0  0  0  0
 60 71  1  0  0  0  0
 62 63  1  0  0  0  0
M  CHG  1  71   1
M  ISO  4  37 100  57 101  68 100  79 101
M  END
> <Batch ID>
0136

> <Smiles>
CNC(C)C(=O)NC(C(=O)N1Cc2cc([101O:1][101CH2:1]C(=O)CCCc3ccc([100NH:0][100C:0](=O)N4CCCC(n5nc(-c6ccc(Oc7ccc(F)cc7F)cc6)c(C(N)=O)c5N)C4)s3)ccc2CC1C(=O)NC1CCCc2ccccc21)C(C)(C)C

> <Shape>
0.250

> <Color>
0.132

> <Negative vol penalty>
0.000

$$$$

  -OEChem-04052302393D

 88 96  0     1  0  0  0  0  0999 V2000
  -28.0314  -24.1261   17.3688 C   0  0  0  0  0  0  0  0  0  0  0  0
  -26.8839  -24.3447   18.1244 C   0  0  0  0  0  0  0  0  0  0  0  0
  -26.6763  -12.7467   20.0900 C   0  0  0  0  0  0  0  0  0  0  0  0
  -24.5630  -13.6360   20.8515 C   0  0  0  0  0  0  0  0  0  0  0  0
  -29.2313  -24.7351   17.7337 C   0  0  0  0  0  0  0  0  0  0  0  0
  -26.9360  -25.1716   19.2460 C   0  0  0  0  0  0  0  0  0  0  0  0
  -23.0303  -28.3870   19.4723 C   0  0  0  0  0  0  0  0  0  0  0  0
  -26.2531  -11.4590   20.4191 C   0  0  0  0  0  0  0  0  0  0  0  0
  -24.1397  -12.3483   21.1806 C   0  0  0  0  0  0  0  0  0  0  0  0
  -21.8103  -27.8769   19.9140 C   0  0  0  0  0  0  0  0  0  0  0  0
  -22.9271   -9.6381   19.5667 C   0  0  0  0  0  0  0  0  0  0  0  0
  -21.6366   -9.2659   19.1905 C   0  0  0  0  0  0  0  0  0  0  0  0
  -22.9835  -23.3472   22.8121 C   0  0  0  0  0  0  0  0  0  0  0  0
  -22.2222  -28.8034   22.1028 C   0  0  0  0  0  0  0  0  0  0  0  0
  -25.4591  -23.0590   24.0654 C   0  0  0  0  0  0  0  0  0  0  0  0
  -21.0715   -8.8831   21.5081 C   0  0  0  0  0  0  0  0  0  0  0  0
  -25.8313  -13.8352   20.3062 C   0  0  0  0  0  0  0  0  0  0  0  0
  -23.2920  -24.1187   23.9324 C   0  0  0  0  0  0  0  0  0  0  0  0
  -26.1022  -15.8267   18.7352 C   0  0  0  0  0  0  0  0  0  0  0  0
  -29.2960  -25.5775   18.8548 C   0  0  0  0  0  0  0  0  0  0  0  0
  -23.8618  -29.1011   20.3470 C   0  0  0  0  0  0  0  0  0  0  0  0
  -28.1382  -25.7913   19.6270 C   0  0  0  0  0  0  0  0  0  0  0  0
  -23.4510  -29.3238   21.6691 C   0  0  0  0  0  0  0  0  0  0  0  0
  -23.9128  -22.4315   22.3184 C   0  0  0  0  0  0  0  0  0  0  0  0
  -25.1506  -22.2875   22.9450 C   0  0  0  0  0  0  0  0  0  0  0  0
  -24.9848  -11.2598   20.9644 C   0  0  0  0  0  0  0  0  0  0  0  0
  -21.4074  -28.0825   21.2302 C   0  0  0  0  0  0  0  0  0  0  0  0
  -23.2899   -9.6328   20.9135 C   0  0  0  0  0  0  0  0  0  0  0  0
  -20.7088   -8.8884   20.1612 C   0  0  0  0  0  0  0  0  0  0  0  0
  -24.5298  -23.9746   24.5591 C   0  0  0  0  0  0  0  0  0  0  0  0
  -22.3621   -9.2554   21.8843 C   0  0  0  0  0  0  0  0  0  0  0  0
  -26.2682  -15.1657   19.9670 C   0  0  0  0  0  0  0  0  0  0  0  0
  -26.6863  -17.0555   18.9235 C   0  0  0  0  0  0  0  0  0  0  0  0
  -22.2936  -25.0945   24.4611 C   0  0  0  0  0  0  0  0  0  0  0  0
  -25.4761  -15.3708   17.5286 C   0  0  0  0  0  0  0  0  0  0  0  0
  -26.7957  -28.6821   21.4961 C   0  0  0  0  0  0  0  0  0  0  0  0
  -26.3019  -31.6295   22.7575 C   0  0  0  0  0  0  0  0  0  0  0  0
  -24.0786  -33.9969   23.8061 C   0  0  0  0  0  0  0  0  0  0  0  0
  -27.3764  -21.1081   22.9806 C   0  0  0  0  0  0  0  0  0  0  0  0
  -30.6265  -26.1759   19.2374 C   0  0  0  0  0  0  0  0  0  0  0  0
  -25.1625  -29.6679   19.8477 C   0  0  0  0  0  0  0  0  0  0  0  0
  -24.2979  -30.1011   22.6423 C   0  0  0  0  0  0  0  0  0  0  0  0
  -30.5117  -27.3361   20.2228 C   0  0  0  0  0  0  0  0  0  0  0  0
  -30.0125  -18.8833   22.0983 C   0  0  0  0  0  0  0  0  0  0  0  0
  -29.5628  -26.9771   21.3620 C   0  0  0  0  0  0  0  0  0  0  0  0
  -29.3010  -17.7617   21.3380 C   0  0  0  0  0  0  0  0  0  0  0  0
  -29.1670  -19.4076   23.2576 C   0  0  0  0  0  0  0  0  0  0  0  0
  -27.0923  -18.6953   22.1362 C   0  0  0  0  0  0  0  0  0  0  0  0
  -28.1490  -26.7013   20.8361 C   0  0  1  0  0  0  0  0  0  0  0  0
  -26.1647  -29.9384   20.9657 C   0  0  1  0  0  0  0  0  0  0  0  0
  -27.8777  -18.1794   20.9194 C   0  0  2  0  0  0  0  0  0  0  0  0
  -23.8979  -21.2931   18.6293 C   0  0  0  0  0  0  0  0  0  0  0  0
  -23.9747  -36.2882   24.8240 C   0  0  0  0  0  0  0  0  0  0  0  0
  -27.0413  -30.4535   25.4742 C   0  0  0  0  0  0  0  0  0  0  0  0
  -26.0204  -32.4718   26.5478 C   0  0  0  0  0  0  0  0  0  0  0  0
  -27.9837  -32.7271   25.0302 C   0  0  0  0  0  0  0  0  0  0  0  0
  -19.7995  -29.3468   23.2397 C   0  0  0  0  0  0  0  0  0  0  0  0
  -18.4920  -27.2067   23.2788 C   0  0  0  0  0  0  0  0  0  0  0  0
  -22.6416  -35.0984   21.4650 C   0  0  0  0  0  0  0  0  0  0  0  0
  -23.5552  -21.6181   21.1169 C   0  0  0  0  0  0  0  0  0  0  0  0
  -21.3190  -25.7426   23.4872 C   0  0  0  0  0  0  0  0  0  0  0  0
  -24.2362  -22.1419   19.8446 C   0  0  0  0  0  0  0  0  0  0  0  0
  -20.9183  -27.1569   23.9280 C   0  0  0  0  0  0  0  0  0  0  0  0
  -25.7245  -32.1567   24.0490 C   0  0  1  0  0  0  0  0  0  0  0  0
  -23.9897  -35.4872   23.5314 C   0  0  2  0  0  0  0  0  0  0  0  0
  -26.6772  -31.9359   25.2577 C   0  0  0  0  0  0  0  0  0  0  0  0
  -19.8671  -27.8332   23.0251 C   0  0  0  0  0  0  0  0  0  1  0  0
  -26.9077  -15.9126   20.8709 N   0  0  0  0  0  0  0  0  0  0  0  0
  -27.1488  -17.0557   20.2066 N   0  0  0  0  0  0  0  0  0  0  0  0
  -25.5639  -30.6297   22.1082 N   0  0  0  0  0  0  0  0  0  0  0  0
  -27.8340  -19.7878   22.7852 N   0  0  0  0  0  0  0  0  0  0  0  0
  -26.8442  -18.1251   18.1151 N   0  0  0  0  0  0  0  0  0  0  0  0
  -24.9266  -14.0816   17.5069 N   0  0  0  0  0  0  0  0  0  0  0  0
  -26.1076  -21.3615   22.4606 N   0  0  0  0  0  0  0  0  0  0  0  0
  -27.4681  -27.9438   20.5411 N   0  0  0  0  0  0  0  0  0  0  0  0
  -25.3844  -33.5540   23.8037 N   0  0  0  0  0  0  0  0  0  0  0  0
  -22.7476  -35.8004   22.7699 N   0  3  0  0  0  0  0  0  0  0  0  0
  -22.2856  -25.3527   25.6625 O   0  0  0  0  0  0  0  0  0  0  0  0
  -25.4205  -16.0793   16.4950 O   0  0  0  0  0  0  0  0  0  0  0  0
  -26.6822  -28.4041   22.6842 O   0  0  0  0  0  0  0  0  0  0  0  0
  -27.3647  -32.0930   22.3366 O   0  0  0  0  0  0  0  0  0  0  0  0
  -23.0888  -33.2963   24.0067 O   0  0  0  0  0  0  0  0  0  0  0  0
  -28.0710  -21.9592   23.5421 O   0  0  0  0  0  0  0  0  0  0  0  0
  -24.5713  -10.0034   21.2854 O   0  0  0  0  0  0  0  0  0  0  0  0
  -20.2173  -27.5851   21.6641 O   0  0  0  0  0  0  0  0  0  1  0  0
  -19.4690   -8.5324   19.8000 F   0  0  0  0  0  0  0  0  0  0  0  0
  -24.8350  -24.7088   25.6385 F   0  0  0  0  0  0  0  0  0  0  0  0
  -22.7044   -9.2494   23.1799 F   0  0  0  0  0  0  0  0  0  0  0  0
  1  2  1  0  0  0  0
  1  5  2  0  0  0  0
  2  6  2  0  0  0  0
  3  8  2  0  0  0  0
  3 17  1  0  0  0  0
  4  9  1  0  0  0  0
  4 17  2  0  0  0  0
  5 20  1  0  0  0  0
  6 22  1  0  0  0  0
  7 10  2  0  0  0  0
  7 21  1  0  0  0  0
  8 26  1  0  0  0  0
  9 26  2  0  0  0  0
 10 27  1  0  0  0  0
 11 12  2  0  0  0  0
 11 28  1  0  0  0  0
 12 29  1  0  0  0  0
 13 18  2  0  0  0  0
 13 24  1  0  0  0  0
 14 23  1  0  0  0  0
 14 27  2  0  0  0  0
 15 25  1  0  0  0  0
 15 30  2  0  0  0  0
 16 29  2  0  0  0  0
 16 31  1  0  0  0  0
 17 32  1  0  0  0  0
 18 30  1  0  0  0  0
 18 34  1  0  0  0  0
 19 32  1  0  0  0  0
 19 33  2  0  0  0  0
 19 35  1  0  0  0  0
 20 22  2  0  0  0  0
 20 40  1  0  0  0  0
 21 23  2  0  0  0  0
 21 41  1  0  0  0  0
 22 49  1  0  0  0  0
 23 42  1  0  0  0  0
 24 25  2  0  0  0  0
 24 60  1  0  0  0  0
 25 74  1  0  0  0  0
 26 84  1  0  0  0  0
 27 85  1  0  0  0  0
 28 31  2  0  0  0  0
 28 84  1  0  0  0  0
 29 86  1  0  0  0  0
 30 87  1  0  0  0  0
 31 88  1  0  0  0  0
 32 68  2  0  0  0  0
 33 69  1  0  0  0  0
 33 72  1  0  0  0  0
 34 61  1  0  0  0  0
 34 78  2  0  0  0  0
 35 73  1  0  0  0  0
 35 79  2  0  0  0  0
 36 50  1  0  0  0  0
 36 75  1  0  0  0  0
 36 80  2  0  0  0  0
 37 64  1  0  0  0  0
 37 70  1  0  0  0  0
 37 81  2  0  0  0  0
 38 65  1  0  0  0  0
 38 76  1  0  0  0  0
 38 82  2  0  0  0  0
 39 71  1  0  0  0  0
 39 74  1  0  0  0  0
 39 83  2  0  0  0  0
 40 43  1  0  0  0  0
 41 50  1  0  0  0  0
 42 70  1  0  0  0  0
 43 45  1  0  0  0  0
 44 46  1  0  0  0  0
 44 47  1  0  0  0  0
 45 49  1  0  0  0  0
 46 51  1  0  0  0  0
 47 71  1  0  0  0  0
 48 51  1  0  0  0  0
 48 71  1  0  0  0  0
 49 75  1  0  0  0  0
 50 70  1  0  0  0  0
 51 69  1  0  0  0  0
 52 62  1  0  0  0  0
 53 65  1  0  0  0  0
 54 66  1  0  0  0  0
 55 66  1  0  0  0  0
 56 66  1  0  0  0  0
 57 67  1  0  0  0  0
 58 67  1  0  0  0  0
 59 77  1  0  0  0  0
 60 62  1  0  0  0  0
 61 63  1  0  0  0  0
 63 67  1  0  0  0  0
 64 66  1  0  0  0  0
 64 76  1  0  0  0  0
 65 77  1  0  0  0  0
 67 85  1  0  0  0  0
 68 69  1  0  0  0  0
M  CHG  1  77   1
M  ISO  4  39 100  67 101  74 100  85 101
M  END
> <Batch ID>
0136

> <Smiles>
CCCc1cc(C(=O)CC[101C:1](C)(C)[101O:1]c2ccc3c(c2)CN(C(=O)C(NC(=O)C(C)NC)C(C)(C)C)C(C(=O)NC2CCCc4ccccc42)C3)c(F)cc1[100NH:0][100C:0](=O)N1CCCC(n2nc(-c3ccc(Oc4ccc(F)cc4F)cc3)c(C(N)=O)c2N)C1

> <Shape>
0.306

> <Color>
0.069

> <Negative vol penalty>
0.000

$$$$

  -OEChem-04052302393D

 83 91  0     1  0  0  0  0  0999 V2000
  -21.5873  -11.9414   20.5097 C   0  0  0  0  0  0  0  0  0  0  0  0
  -21.6126  -13.1607   21.1791 C   0  0  0  0  0  0  0  0  0  0  0  0
  -16.6351  -28.1823   21.0771 C   0  0  0  0  0  0  0  0  0  0  0  0
  -27.8413  -30.9893   22.1859 C   0  0  0  0  0  0  0  0  0  0  0  0
  -26.6073  -29.4643   23.5961 C   0  0  0  0  0  0  0  0  0  0  0  0
  -16.7358  -27.2651   22.1232 C   0  0  0  0  0  0  0  0  0  0  0  0
  -22.7807  -11.3448   20.1050 C   0  0  0  0  0  0  0  0  0  0  0  0
  -22.8315  -13.7835   21.4452 C   0  0  0  0  0  0  0  0  0  0  0  0
  -22.7446  -18.7416   20.4183 C   0  0  0  0  0  0  0  0  0  0  0  0
  -17.7644  -28.5125   20.3278 C   0  0  0  0  0  0  0  0  0  0  0  0
  -28.3785  -31.6017   23.3182 C   0  0  0  0  0  0  0  0  0  0  0  0
  -27.1445  -30.0767   24.7284 C   0  0  0  0  0  0  0  0  0  0  0  0
  -22.1244  -19.5739   21.3491 C   0  0  0  0  0  0  0  0  0  0  0  0
  -27.3868  -33.8462   25.6427 C   0  0  0  0  0  0  0  0  0  0  0  0
  -27.4099  -35.2405   25.6751 C   0  0  0  0  0  0  0  0  0  0  0  0
  -19.0952  -27.0084   21.6709 C   0  0  0  0  0  0  0  0  0  0  0  0
  -24.2834  -20.1731   22.2429 C   0  0  0  0  0  0  0  0  0  0  0  0
  -29.8171  -35.1959   25.8773 C   0  0  0  0  0  0  0  0  0  0  0  0
  -26.9557  -29.9207   22.3249 C   0  0  0  0  0  0  0  0  0  0  0  0
  -17.9659  -26.6782   22.4201 C   0  0  0  0  0  0  0  0  0  0  0  0
  -26.9346  -28.1972   20.4442 C   0  0  0  0  0  0  0  0  0  0  0  0
  -24.0143  -11.9653   20.3577 C   0  0  0  0  0  0  0  0  0  0  0  0
  -24.1407  -18.6103   20.3999 C   0  0  0  0  0  0  0  0  0  0  0  0
  -24.0426  -13.1940   21.0447 C   0  0  0  0  0  0  0  0  0  0  0  0
  -24.9190  -19.3405   21.3092 C   0  0  0  0  0  0  0  0  0  0  0  0
  -18.9945  -27.9256   20.6248 C   0  0  0  0  0  0  0  0  0  0  0  0
  -28.0301  -31.1454   24.5894 C   0  0  0  0  0  0  0  0  0  0  0  0
  -22.8936  -20.2876   22.2635 C   0  0  0  0  0  0  0  0  0  0  0  0
  -28.5788  -33.1267   25.7276 C   0  0  0  0  0  0  0  0  0  0  0  0
  -28.6250  -35.9153   25.7924 C   0  0  0  0  0  0  0  0  0  0  0  0
  -29.7939  -33.8016   25.8449 C   0  0  0  0  0  0  0  0  0  0  0  0
  -26.4000  -29.2880   21.1557 C   0  0  0  0  0  0  0  0  0  0  0  0
  -26.0388  -27.9792   19.4260 C   0  0  0  0  0  0  0  0  0  0  0  0
  -18.0720  -25.6984   23.5381 C   0  0  0  0  0  0  0  0  0  0  0  0
  -28.1335  -27.4480   20.6824 C   0  0  0  0  0  0  0  0  0  0  0  0
  -26.1733  -16.2054   20.8341 C   0  0  0  0  0  0  0  0  0  0  0  0
  -28.3739  -18.4191   19.9515 C   0  0  0  0  0  0  0  0  0  0  0  0
  -29.2240  -21.7137   19.6864 C   0  0  0  0  0  0  0  0  0  0  0  0
  -20.2139  -29.1514   18.7926 C   0  0  0  0  0  0  0  0  0  0  0  0
  -25.2806  -11.2590   19.9428 C   0  0  0  0  0  0  0  0  0  0  0  0
  -24.7960  -17.7290   19.3721 C   0  0  0  0  0  0  0  0  0  0  0  0
  -26.4224  -19.2501   21.3178 C   0  0  0  0  0  0  0  0  0  0  0  0
  -26.5084  -12.1661   19.9320 C   0  0  0  0  0  0  0  0  0  0  0  0
  -22.8538  -30.2758   16.6846 C   0  0  0  0  0  0  0  0  0  0  0  0
  -26.5685  -12.9983   21.2090 C   0  0  0  0  0  0  0  0  0  0  0  0
  -24.1120  -30.0452   17.5249 C   0  0  0  0  0  0  0  0  0  0  0  0
  -21.6735  -30.7272   17.5430 C   0  0  0  0  0  0  0  0  0  0  0  0
  -22.6310  -29.6303   19.5302 C   0  0  0  0  0  0  0  0  0  0  0  0
  -25.3435  -13.9127   21.3298 C   0  0  1  0  0  0  0  0  0  0  0  0
  -26.1944  -17.2747   19.7788 C   0  0  1  0  0  0  0  0  0  0  0  0
  -23.8293  -29.1119   18.7184 C   0  0  2  0  0  0  0  0  0  0  0  0
  -31.1033  -23.2111   18.9631 C   0  0  0  0  0  0  0  0  0  0  0  0
  -29.8865  -17.7558   22.5170 C   0  0  0  0  0  0  0  0  0  0  0  0
  -31.1793  -19.8793   22.2212 C   0  0  0  0  0  0  0  0  0  0  0  0
  -31.3361  -18.0763   20.5045 C   0  0  0  0  0  0  0  0  0  0  0  0
  -27.5574  -22.9921   17.6014 C   0  0  0  0  0  0  0  0  0  0  0  0
  -19.4079  -25.0525   23.8705 C   0  0  0  0  0  0  0  0  0  0  0  0
  -19.5529  -23.7113   23.1531 C   0  0  0  0  0  0  0  0  0  0  0  0
  -20.8718  -23.0260   23.5193 C   0  0  0  0  0  0  0  0  0  0  0  0
  -21.0546  -21.7010   22.7894 C   0  0  0  0  0  0  0  0  0  1  0  0
  -29.2145  -19.4402   20.6793 C   0  0  1  0  0  0  0  0  0  0  0  0
  -29.8212  -22.5108   18.5408 C   0  0  2  0  0  0  0  0  0  0  0  0
  -30.3757  -18.7884   21.4819 C   0  0  0  0  0  0  0  0  0  0  0  0
  -25.2536  -29.7322   20.6336 N   0  0  0  0  0  0  0  0  0  0  0  0
  -17.0239  -25.3859   24.2335 N   0  0  0  0  0  0  0  0  0  0  0  0
  -25.0605  -28.9164   19.5832 N   0  0  0  0  0  0  0  0  0  0  0  0
  -27.0160  -18.3703   20.2974 N   0  0  0  0  0  0  0  0  0  0  0  0
  -21.4625  -29.7932   18.6511 N   0  0  0  0  0  0  0  0  0  0  0  0
  -26.0006  -27.0792   18.4206 N   0  0  0  0  0  0  0  0  0  0  0  0
  -28.9391  -27.8051   21.7723 N   0  0  0  0  0  0  0  0  0  0  0  0
  -20.1414  -28.2609   19.8633 N   0  0  0  0  0  0  0  0  0  0  0  0
  -25.4856  -15.0649   20.4657 N   0  0  0  0  0  0  0  0  0  0  0  0
  -29.6502  -20.4024   19.6729 N   0  0  0  0  0  0  0  0  0  0  0  0
  -28.8553  -23.5431   18.0692 N   0  3  0  0  0  0  0  0  0  0  0  0
  -28.4887  -26.5007   19.9408 O   0  0  0  0  0  0  0  0  0  0  0  0
  -26.7403  -16.4000   21.9029 O   0  0  0  0  0  0  0  0  0  0  0  0
  -28.9010  -17.6965   19.1020 O   0  0  0  0  0  0  0  0  0  0  0  0
  -28.4591  -22.2059   20.5129 O   0  0  0  0  0  0  0  0  0  0  0  0
  -19.2867  -29.3548   18.0047 O   0  0  0  0  0  0  0  0  0  0  0  0
  -28.5543  -31.7425   25.6945 O   0  0  0  0  0  0  0  0  0  0  0  0
  -22.2907  -21.1001   23.1735 O   0  0  0  0  0  0  0  0  0  1  0  0
  -28.6472  -37.2543   25.8219 F   0  0  0  0  0  0  0  0  0  0  0  0
  -30.9424  -33.1158   25.9257 F   0  0  0  0  0  0  0  0  0  0  0  0
  1  2  1  0  0  0  0
  1  7  2  0  0  0  0
  2  8  2  0  0  0  0
  3  6  2  0  0  0  0
  3 10  1  0  0  0  0
  4 11  2  0  0  0  0
  4 19  1  0  0  0  0
  5 12  1  0  0  0  0
  5 19  2  0  0  0  0
  6 20  1  0  0  0  0
  7 22  1  0  0  0  0
  8 24  1  0  0  0  0
  9 13  2  0  0  0  0
  9 23  1  0  0  0  0
 10 26  2  0  0  0  0
 11 27  1  0  0  0  0
 12 27  2  0  0  0  0
 13 28  1  0  0  0  0
 14 15  2  0  0  0  0
 14 29  1  0  0  0  0
 15 30  1  0  0  0  0
 16 20  2  0  0  0  0
 16 26  1  0  0  0  0
 17 25  1  0  0  0  0
 17 28  2  0  0  0  0
 18 30  2  0  0  0  0
 18 31  1  0  0  0  0
 19 32  1  0  0  0  0
 20 34  1  0  0  0  0
 21 32  1  0  0  0  0
 21 33  2  0  0  0  0
 21 35  1  0  0  0  0
 22 24  2  0  0  0  0
 22 40  1  0  0  0  0
 23 25  2  0  0  0  0
 23 41  1  0  0  0  0
 24 49  1  0  0  0  0
 25 42  1  0  0  0  0
 26 71  1  0  0  0  0
 27 80  1  0  0  0  0
 28 81  1  0  0  0  0
 29 31  2  0  0  0  0
 29 80  1  0  0  0  0
 30 82  1  0  0  0  0
 31 83  1  0  0  0  0
 32 64  2  0  0  0  0
 33 66  1  0  0  0  0
 33 69  1  0  0  0  0
 34 57  1  0  0  0  0
 34 65  2  0  0  0  0
 35 70  1  0  0  0  0
 35 75  2  0  0  0  0
 36 50  1  0  0  0  0
 36 72  1  0  0  0  0
 36 76  2  0  0  0  0
 37 61  1  0  0  0  0
 37 67  1  0  0  0  0
 37 77  2  0  0  0  0
 38 62  1  0  0  0  0
 38 73  1  0  0  0  0
 38 78  2  0  0  0  0
 39 68  1  0  0  0  0
 39 71  1  0  0  0  0
 39 79  2  0  0  0  0
 40 43  1  0  0  0  0
 41 50  1  0  0  0  0
 42 67  1  0  0  0  0
 43 45  1  0  0  0  0
 44 46  1  0  0  0  0
 44 47  1  0  0  0  0
 45 49  1  0  0  0  0
 46 51  1  0  0  0  0
 47 68  1  0  0  0  0
 48 51  1  0  0  0  0
 48 68  1  0  0  0  0
 49 72  1  0  0  0  0
 50 67  1  0  0  0  0
 51 66  1  0  0  0  0
 52 62  1  0  0  0  0
 53 63  1  0  0  0  0
 54 63  1  0  0  0  0
 55 63  1  0  0  0  0
 56 74  1  0  0  0  0
 57 58  1  0  0  0  0
 58 59  1  0  0  0  0
 59 60  1  0  0  0  0
 60 81  1  0  0  0  0
 61 63  1  0  0  0  0
 61 73  1  0  0  0  0
 62 74  1  0  0  0  0
 64 66  1  0  0  0  0
M  CHG  1  74   1
M  ISO  4  39 100  60 101  71 100  81 101
M  END
> <Batch ID>
0136

> <Smiles>
CNC(C)C(=O)NC(C(=O)N1Cc2cc([101O:1][101CH2:1]CCCC(=N)c3cccc([100NH:0][100C:0](=O)N4CCCC(n5nc(-c6ccc(Oc7ccc(F)cc7F)cc6)c(C(N)=O)c5N)C4)c3)ccc2CC1C(=O)NC1CCCc2ccccc21)C(C)(C)C

> <Shape>
0.269

> <Color>
0.072

> <Negative vol penalty>
0.000

$$$$

  -OEChem-04052302393D

 88 96  0     1  0  0  0  0  0999 V2000
  -30.0744  -12.1441   19.6365 C   0  0  0  0  0  0  0  0  0  0  0  0
  -29.9695  -13.3965   20.2332 C   0  0  0  0  0  0  0  0  0  0  0  0
  -22.3371  -29.1995   18.6227 C   0  0  0  0  0  0  0  0  0  0  0  0
  -22.1231  -26.8985   19.3275 C   0  0  0  0  0  0  0  0  0  0  0  0
  -29.0413  -11.6689   18.8298 C   0  0  0  0  0  0  0  0  0  0  0  0
  -28.8318  -14.1748   20.0226 C   0  0  0  0  0  0  0  0  0  0  0  0
  -26.1720  -17.9667   24.0292 C   0  0  0  0  0  0  0  0  0  0  0  0
  -31.5509  -21.6537   20.6937 C   0  0  0  0  0  0  0  0  0  0  0  0
  -31.0743  -22.9181   20.3479 C   0  0  0  0  0  0  0  0  0  0  0  0
  -21.1954  -29.0638   17.8330 C   0  0  0  0  0  0  0  0  0  0  0  0
  -20.9814  -26.7628   18.5378 C   0  0  0  0  0  0  0  0  0  0  0  0
  -26.2430  -19.3482   24.2026 C   0  0  0  0  0  0  0  0  0  0  0  0
  -17.7109  -27.5928   18.7269 C   0  0  0  0  0  0  0  0  0  0  0  0
  -16.6079  -26.9508   19.2899 C   0  0  0  0  0  0  0  0  0  0  0  0
  -24.2315  -19.6094   22.8969 C   0  0  0  0  0  0  0  0  0  0  0  0
  -29.3112  -20.9725   21.2909 C   0  0  0  0  0  0  0  0  0  0  0  0
  -16.6988  -25.2727   17.5542 C   0  0  0  0  0  0  0  0  0  0  0  0
  -22.8010  -28.1168   19.3700 C   0  0  0  0  0  0  0  0  0  0  0  0
  -24.0401  -28.6629   21.5319 C   0  0  0  0  0  0  0  0  0  0  0  0
  -27.8862  -12.4377   18.6170 C   0  0  0  0  0  0  0  0  0  0  0  0
  -25.1345  -17.3960   23.2780 C   0  0  0  0  0  0  0  0  0  0  0  0
  -27.7829  -13.7099   19.2112 C   0  0  0  0  0  0  0  0  0  0  0  0
  -24.1482  -18.2202   22.7176 C   0  0  0  0  0  0  0  0  0  0  0  0
  -30.6694  -20.6808   21.1651 C   0  0  0  0  0  0  0  0  0  0  0  0
  -28.8345  -22.2370   20.9451 C   0  0  0  0  0  0  0  0  0  0  0  0
  -29.7160  -23.2098   20.4737 C   0  0  0  0  0  0  0  0  0  0  0  0
  -20.5175  -27.8455   17.7906 C   0  0  0  0  0  0  0  0  0  0  0  0
  -25.2743  -20.1701   23.6340 C   0  0  0  0  0  0  0  0  0  0  0  0
  -18.3078  -27.0747   17.5775 C   0  0  0  0  0  0  0  0  0  0  0  0
  -16.1019  -25.7908   18.7035 C   0  0  0  0  0  0  0  0  0  0  0  0
  -17.8017  -25.9147   16.9912 C   0  0  0  0  0  0  0  0  0  0  0  0
  -23.9807  -28.2562   20.1855 C   0  0  0  0  0  0  0  0  0  0  0  0
  -25.3780  -28.6323   21.8411 C   0  0  0  0  0  0  0  0  0  0  0  0
  -22.9807  -29.0349   22.4235 C   0  0  0  0  0  0  0  0  0  0  0  0
  -24.9817  -15.6695   20.6135 C   0  0  0  0  0  0  0  0  0  0  0  0
  -21.8340  -15.4867   21.3756 C   0  0  0  0  0  0  0  0  0  0  0  0
  -19.1674  -16.8419   23.0185 C   0  0  0  0  0  0  0  0  0  0  0  0
  -30.0085  -25.5671   19.6348 C   0  0  0  0  0  0  0  0  0  0  0  0
  -26.8165  -11.9018   17.6988 C   0  0  0  0  0  0  0  0  0  0  0  0
  -25.0572  -15.9019   23.1227 C   0  0  0  0  0  0  0  0  0  0  0  0
  -23.0026  -17.6556   21.9192 C   0  0  0  0  0  0  0  0  0  0  0  0
  -25.4813  -12.6302   17.8288 C   0  0  0  0  0  0  0  0  0  0  0  0
  -29.6980  -29.1087   19.8299 C   0  0  0  0  0  0  0  0  0  0  0  0
  -25.6951  -14.1405   17.8322 C   0  0  0  0  0  0  0  0  0  0  0  0
  -28.2030  -29.3287   20.0718 C   0  0  0  0  0  0  0  0  0  0  0  0
  -29.9530  -27.9356   18.8851 C   0  0  0  0  0  0  0  0  0  0  0  0
  -27.8096  -26.8958   19.5125 C   0  0  0  0  0  0  0  0  0  0  0  0
  -26.5538  -14.5733   19.0267 C   0  0  1  0  0  0  0  0  0  0  0  0
  -24.2438  -15.4689   21.9068 C   0  0  1  0  0  0  0  0  0  0  0  0
  -27.5051  -28.0260   20.5093 C   0  0  2  0  0  0  0  0  0  0  0  0
  -16.7164  -16.4881   23.4241 C   0  0  0  0  0  0  0  0  0  0  0  0
  -29.7480  -17.9827   19.9598 C   0  0  0  0  0  0  0  0  0  0  0  0
  -31.9879  -18.7492   19.1734 C   0  0  0  0  0  0  0  0  0  0  0  0
  -31.8098  -16.9295   20.8891 C   0  0  0  0  0  0  0  0  0  0  0  0
  -21.2232  -16.5200   18.5704 C   0  0  0  0  0  0  0  0  0  0  0  0
  -18.9000  -17.0418   19.3440 C   0  0  0  0  0  0  0  0  0  0  0  0
  -19.7171  -14.6850   19.3571 C   0  0  0  0  0  0  0  0  0  0  0  0
  -24.9717  -24.5040   21.4949 C   0  0  0  0  0  0  0  0  0  0  0  0
  -25.4146  -24.4305   23.9619 C   0  0  0  0  0  0  0  0  0  0  0  0
  -19.5715  -16.5685   25.9376 C   0  0  0  0  0  0  0  0  0  0  0  0
  -31.1797  -19.3295   21.5370 C   0  0  0  0  0  0  0  0  0  0  0  0
  -27.3601  -22.5255   21.0944 C   0  0  0  0  0  0  0  0  0  0  0  0
  -27.0786  -23.3626   22.3499 C   0  0  0  0  0  0  0  0  0  0  0  0
  -24.8080  -22.3304   22.7556 C   0  0  0  0  0  0  0  0  0  1  0  0
  -20.6101  -16.3160   21.0701 C   0  0  1  0  0  0  0  0  0  0  0  0
  -18.1251  -16.2213   23.9311 C   0  0  2  0  0  0  0  0  0  0  0  0
  -31.2018  -18.2556   20.4004 C   0  0  0  0  0  0  0  0  0  0  0  0
  -20.1352  -16.1518   19.5988 C   0  0  0  0  0  0  0  0  0  0  0  0
  -25.5802  -23.6673   22.6358 C   0  0  0  0  0  0  0  0  0  0  0  0
  -25.1850  -27.9872   19.6744 N   0  0  0  0  0  0  0  0  0  0  0  0
  -26.0139  -28.2254   20.7052 N   0  0  0  0  0  0  0  0  0  0  0  0
  -22.9743  -16.1893   21.7903 N   0  0  0  0  0  0  0  0  0  0  0  0
  -29.2647  -26.7354   19.3653 N   0  0  0  0  0  0  0  0  0  0  0  0
  -26.0608  -28.9142   22.9710 N   0  0  0  0  0  0  0  0  0  0  0  0
  -21.6641  -29.0111   21.9435 N   0  0  0  0  0  0  0  0  0  0  0  0
  -29.2514  -24.5001   20.1173 N   0  0  0  0  0  0  0  0  0  0  0  0
  -25.7619  -14.5926   20.2379 N   0  0  0  0  0  0  0  0  0  0  0  0
  -19.6091  -15.9484   22.0657 N   0  0  0  0  0  0  0  0  0  0  0  0
  -18.2429  -16.7803   25.3075 N   0  3  0  0  0  0  0  0  0  0  0  0
  -23.1966  -29.3941   23.6058 O   0  0  0  0  0  0  0  0  0  0  0  0
  -24.8517  -16.7228   20.0008 O   0  0  0  0  0  0  0  0  0  0  0  0
  -21.7782  -14.2600   21.2577 O   0  0  0  0  0  0  0  0  0  0  0  0
  -19.5488  -18.0043   23.1366 O   0  0  0  0  0  0  0  0  0  0  0  0
  -31.2313  -25.5254   19.4768 O   0  0  0  0  0  0  0  0  0  0  0  0
  -19.4032  -27.7128   17.0202 O   0  0  0  0  0  0  0  0  0  0  0  0
  -25.3416  -21.5189   23.8011 O   0  0  0  0  0  0  0  0  0  1  0  0
  -15.0436  -25.1735   19.2451 F   0  0  0  0  0  0  0  0  0  0  0  0
  -18.3716  -25.4116   15.8876 F   0  0  0  0  0  0  0  0  0  0  0  0
  1  2  1  0  0  0  0
  1  5  2  0  0  0  0
  2  6  2  0  0  0  0
  3 10  2  0  0  0  0
  3 18  1  0  0  0  0
  4 11  1  0  0  0  0
  4 18  2  0  0  0  0
  5 20  1  0  0  0  0
  6 22  1  0  0  0  0
  7 12  2  0  0  0  0
  7 21  1  0  0  0  0
  8  9  2  0  0  0  0
  8 24  1  0  0  0  0
  9 26  1  0  0  0  0
 10 27  1  0  0  0  0
 11 27  2  0  0  0  0
 12 28  1  0  0  0  0
 13 14  2  0  0  0  0
 13 29  1  0  0  0  0
 14 30  1  0  0  0  0
 15 23  1  0  0  0  0
 15 28  2  0  0  0  0
 16 24  2  0  0  0  0
 16 25  1  0  0  0  0
 17 30  2  0  0  0  0
 17 31  1  0  0  0  0
 18 32  1  0  0  0  0
 19 32  1  0  0  0  0
 19 33  2  0  0  0  0
 19 34  1  0  0  0  0
 20 22  2  0  0  0  0
 20 39  1  0  0  0  0
 21 23  2  0  0  0  0
 21 40  1  0  0  0  0
 22 48  1  0  0  0  0
 23 41  1  0  0  0  0
 24 61  1  0  0  0  0
 25 26  2  0  0  0  0
 25 62  1  0  0  0  0
 26 76  1  0  0  0  0
 27 85  1  0  0  0  0
 28 86  1  0  0  0  0
 29 31  2  0  0  0  0
 29 85  1  0  0  0  0
 30 87  1  0  0  0  0
 31 88  1  0  0  0  0
 32 70  2  0  0  0  0
 33 71  1  0  0  0  0
 33 74  1  0  0  0  0
 34 75  1  0  0  0  0
 34 80  2  0  0  0  0
 35 49  1  0  0  0  0
 35 77  1  0  0  0  0
 35 81  2  0  0  0  0
 36 65  1  0  0  0  0
 36 72  1  0  0  0  0
 36 82  2  0  0  0  0
 37 66  1  0  0  0  0
 37 78  1  0  0  0  0
 37 83  2  0  0  0  0
 38 73  1  0  0  0  0
 38 76  1  0  0  0  0
 38 84  2  0  0  0  0
 39 42  1  0  0  0  0
 40 49  1  0  0  0  0
 41 72  1  0  0  0  0
 42 44  1  0  0  0  0
 43 45  1  0  0  0  0
 43 46  1  0  0  0  0
 44 48  1  0  0  0  0
 45 50  1  0  0  0  0
 46 73  1  0  0  0  0
 47 50  1  0  0  0  0
 47 73  1  0  0  0  0
 48 77  1  0  0  0  0
 49 72  1  0  0  0  0
 50 71  1  0  0  0  0
 51 66  1  0  0  0  0
 52 67  1  0  0  0  0
 53 67  1  0  0  0  0
 54 67  1  0  0  0  0
 55 68  1  0  0  0  0
 56 68  1  0  0  0  0
 57 68  1  0  0  0  0
 58 69  1  0  0  0  0
 59 69  1  0  0  0  0
 60 79  1  0  0  0  0
 61 67  1  0  0  0  0
 62 63  1  0  0  0  0
 63 69  1  0  0  0  0
 64 69  1  0  0  0  0
 64 86  1  0  0  0  0
 65 68  1  0  0  0  0
 65 78  1  0  0  0  0
 66 79  1  0  0  0  0
 70 71  1  0  0  0  0
M  CHG  1  79   1
M  ISO  4  38 100  64 101  76 100  86 101
M  END
> <Batch ID>
0136

> <Smiles>
CNC(C)C(=O)NC(C(=O)N1Cc2cc([101O:1][101CH2:1]C(C)(C)CCc3cc(CC(C)(C)C)ccc3[100NH:0][100C:0](=O)N3CCCC(n4nc(-c5ccc(Oc6ccc(F)cc6F)cc5)c(C(N)=O)c4N)C3)ccc2CC1C(=O)NC1CCCc2ccccc21)C(C)(C)C

> <Shape>
0.185

> <Color>
0.084

> <Negative vol penalty>
0.000

$$$$

  -OEChem-04052302393D

 83 91  0     1  0  0  0  0  0999 V2000
  -28.5254  -26.2278   27.4929 C   0  0  0  0  0  0  0  0  0  0  0  0
  -29.5952  -25.4027   27.1612 C   0  0  0  0  0  0  0  0  0  0  0  0
  -23.0661   -9.8670   19.9443 C   0  0  0  0  0  0  0  0  0  0  0  0
  -23.8241   -9.8741   22.2383 C   0  0  0  0  0  0  0  0  0  0  0  0
  -27.3605  -26.1986   26.7274 C   0  0  0  0  0  0  0  0  0  0  0  0
  -29.5003  -24.5469   26.0643 C   0  0  0  0  0  0  0  0  0  0  0  0
  -34.0119  -22.9401   22.2474 C   0  0  0  0  0  0  0  0  0  0  0  0
  -22.3160   -8.7182   20.1957 C   0  0  0  0  0  0  0  0  0  0  0  0
  -23.0739   -8.7254   22.4898 C   0  0  0  0  0  0  0  0  0  0  0  0
  -34.8291  -21.8124   22.1831 C   0  0  0  0  0  0  0  0  0  0  0  0
  -31.8883  -18.3172   24.1964 C   0  0  0  0  0  0  0  0  0  0  0  0
  -19.8411   -7.9457   23.0910 C   0  0  0  0  0  0  0  0  0  0  0  0
  -30.5024  -18.3084   24.0392 C   0  0  0  0  0  0  0  0  0  0  0  0
  -19.0830   -7.9119   24.2614 C   0  0  0  0  0  0  0  0  0  0  0  0
  -33.3457  -20.8380   20.5493 C   0  0  0  0  0  0  0  0  0  0  0  0
  -32.0867  -16.5638   22.5462 C   0  0  0  0  0  0  0  0  0  0  0  0
  -20.3135   -5.9693   25.0024 C   0  0  0  0  0  0  0  0  0  0  0  0
  -23.8202  -10.4449   20.9656 C   0  0  0  0  0  0  0  0  0  0  0  0
  -24.1755  -12.9680   20.8412 C   0  0  0  0  0  0  0  0  0  0  0  0
  -27.2549  -25.3491   25.6148 C   0  0  0  0  0  0  0  0  0  0  0  0
  -32.8477  -23.0207   21.4699 C   0  0  0  0  0  0  0  0  0  0  0  0
  -28.3324  -24.5054   25.2840 C   0  0  0  0  0  0  0  0  0  0  0  0
  -32.5168  -21.9689   20.6036 C   0  0  0  0  0  0  0  0  0  0  0  0
  -30.7007  -16.5549   22.3890 C   0  0  0  0  0  0  0  0  0  0  0  0
  -22.3198   -8.1474   21.4685 C   0  0  0  0  0  0  0  0  0  0  0  0
  -34.4946  -20.7598   21.3361 C   0  0  0  0  0  0  0  0  0  0  0  0
  -32.6805  -17.4450   23.4498 C   0  0  0  0  0  0  0  0  0  0  0  0
  -20.8354   -6.9912   22.8763 C   0  0  0  0  0  0  0  0  0  0  0  0
  -19.3192   -6.9237   25.2171 C   0  0  0  0  0  0  0  0  0  0  0  0
  -29.9086  -17.4272   23.1356 C   0  0  0  0  0  0  0  0  0  0  0  0
  -21.0717   -6.0031   23.8320 C   0  0  0  0  0  0  0  0  0  0  0  0
  -24.5958  -11.6312   20.7063 C   0  0  0  0  0  0  0  0  0  0  0  0
  -25.2718  -13.7110   20.4775 C   0  0  0  0  0  0  0  0  0  0  0  0
  -22.9074  -13.4913   21.2581 C   0  0  0  0  0  0  0  0  0  0  0  0
  -29.7421  -23.2686   22.1003 C   0  0  0  0  0  0  0  0  0  0  0  0
  -29.5116  -23.5902   18.8807 C   0  0  0  0  0  0  0  0  0  0  0  0
  -30.8728  -23.0069   15.8060 C   0  0  0  0  0  0  0  0  0  0  0  0
  -30.7433  -14.7282   20.6548 C   0  0  0  0  0  0  0  0  0  0  0  0
  -25.9579  -25.3182   24.8456 C   0  0  0  0  0  0  0  0  0  0  0  0
  -31.9910  -24.2555   21.5308 C   0  0  0  0  0  0  0  0  0  0  0  0
  -31.2886  -22.0151   19.7331 C   0  0  0  0  0  0  0  0  0  0  0  0
  -26.0777  -24.6549   23.4759 C   0  0  0  0  0  0  0  0  0  0  0  0
  -29.6182  -12.3159   18.2901 C   0  0  0  0  0  0  0  0  0  0  0  0
  -26.8480  -23.3427   23.5838 C   0  0  0  0  0  0  0  0  0  0  0  0
  -28.1767  -12.0327   18.7190 C   0  0  0  0  0  0  0  0  0  0  0  0
  -30.5335  -12.5421   19.4921 C   0  0  0  0  0  0  0  0  0  0  0  0
  -28.6292  -13.2791   20.8704 C   0  0  0  0  0  0  0  0  0  0  0  0
  -28.2768  -23.5815   24.0867 C   0  0  1  0  0  0  0  0  0  0  0  0
  -30.5554  -24.0097   21.0770 C   0  0  1  0  0  0  0  0  0  0  0  0
  -27.6565  -13.1088   19.6921 C   0  0  2  0  0  0  0  0  0  0  0  0
  -30.4346  -23.3543   13.3596 C   0  0  0  0  0  0  0  0  0  0  0  0
  -36.9525  -17.3829   23.7929 C   0  0  0  0  0  0  0  0  0  0  0  0
  -27.4768  -21.3170   18.9248 C   0  0  0  0  0  0  0  0  0  0  0  0
  -27.7955  -21.0769   16.4532 C   0  0  0  0  0  0  0  0  0  0  0  0
  -26.8972  -23.2063   17.3921 C   0  0  0  0  0  0  0  0  0  0  0  0
  -33.3112  -24.6530   15.4844 C   0  0  0  0  0  0  0  0  0  0  0  0
  -36.0119  -19.3080   22.4523 C   0  0  0  0  0  0  0  0  0  1  0  0
  -34.8186  -17.0970   22.4684 C   0  0  0  0  0  0  0  0  0  0  0  0
  -29.3391  -22.6393   17.7209 C   0  0  1  0  0  0  0  0  0  0  0  0
  -31.0896  -23.9178   14.6111 C   0  0  2  0  0  0  0  0  0  0  0  0
  -36.1838  -17.7883   22.5295 C   0  0  2  0  0  0  0  0  0  0  0  0
  -27.8993  -22.0579   17.6405 C   0  0  0  0  0  0  0  0  0  0  0  0
  -25.8605  -11.5280   20.2892 N   0  0  0  0  0  0  0  0  0  0  0  0
  -26.2442  -12.8093   20.1589 N   0  0  0  0  0  0  0  0  0  0  0  0
  -30.4796  -23.2410   19.8330 N   0  0  0  0  0  0  0  0  0  0  0  0
  -29.9792  -13.5775   20.3671 N   0  0  0  0  0  0  0  0  0  0  0  0
  -25.4893  -15.0412   20.4022 N   0  0  0  0  0  0  0  0  0  0  0  0
  -21.8904  -12.5881   21.5962 N   0  0  0  0  0  0  0  0  0  0  0  0
  -30.1002  -15.6581   21.4710 N   0  0  0  0  0  0  0  0  0  0  0  0
  -29.1111  -24.0870   23.0176 N   0  0  0  0  0  0  0  0  0  0  0  0
  -29.7560  -23.3696   16.5287 N   0  0  0  0  0  0  0  0  0  0  0  0
  -32.5463  -24.0848   14.3446 N   0  3  0  0  0  0  0  0  0  0  0  0
  -22.6776  -14.7232   21.3130 O   0  0  0  0  0  0  0  0  0  0  0  0
  -29.6897  -22.0450   22.0595 O   0  0  0  0  0  0  0  0  0  0  0  0
  -28.8183  -24.6090   18.9357 O   0  0  0  0  0  0  0  0  0  0  0  0
  -31.6174  -22.0653   16.0695 O   0  0  0  0  0  0  0  0  0  0  0  0
  -31.8737  -14.8901   20.1878 O   0  0  0  0  0  0  0  0  0  0  0  0
  -21.5878   -7.0266   21.7143 O   0  0  0  0  0  0  0  0  0  0  0  0
  -35.2902  -19.6577   21.2720 O   0  0  0  0  0  0  0  0  0  1  0  0
  -34.0422  -17.4539   23.6044 O   0  0  0  0  0  0  0  0  0  0  0  0
  -18.5921   -6.8923   26.3416 F   0  0  0  0  0  0  0  0  0  0  0  0
  -28.5755  -17.4270   22.9933 F   0  0  0  0  0  0  0  0  0  0  0  0
  -22.0263   -5.0842   23.6319 F   0  0  0  0  0  0  0  0  0  0  0  0
  1  2  1  0  0  0  0
  1  5  2  0  0  0  0
  2  6  2  0  0  0  0
  3  8  2  0  0  0  0
  3 18  1  0  0  0  0
  4  9  1  0  0  0  0
  4 18  2  0  0  0  0
  5 20  1  0  0  0  0
  6 22  1  0  0  0  0
  7 10  2  0  0  0  0
  7 21  1  0  0  0  0
  8 25  1  0  0  0  0
  9 25  2  0  0  0  0
 10 26  1  0  0  0  0
 11 13  2  0  0  0  0
 11 27  1  0  0  0  0
 12 14  2  0  0  0  0
 12 28  1  0  0  0  0
 13 30  1  0  0  0  0
 14 29  1  0  0  0  0
 15 23  1  0  0  0  0
 15 26  2  0  0  0  0
 16 24  1  0  0  0  0
 16 27  2  0  0  0  0
 17 29  2  0  0  0  0
 17 31  1  0  0  0  0
 18 32  1  0  0  0  0
 19 32  1  0  0  0  0
 19 33  2  0  0  0  0
 19 34  1  0  0  0  0
 20 22  2  0  0  0  0
 20 39  1  0  0  0  0
 21 23  2  0  0  0  0
 21 40  1  0  0  0  0
 22 48  1  0  0  0  0
 23 41  1  0  0  0  0
 24 30  2  0  0  0  0
 24 69  1  0  0  0  0
 25 78  1  0  0  0  0
 26 79  1  0  0  0  0
 27 80  1  0  0  0  0
 28 31  2  0  0  0  0
 28 78  1  0  0  0  0
 29 81  1  0  0  0  0
 30 82  1  0  0  0  0
 31 83  1  0  0  0  0
 32 63  2  0  0  0  0
 33 64  1  0  0  0  0
 33 67  1  0  0  0  0
 34 68  1  0  0  0  0
 34 73  2  0  0  0  0
 35 49  1  0  0  0  0
 35 70  1  0  0  0  0
 35 74  2  0  0  0  0
 36 59  1  0  0  0  0
 36 65  1  0  0  0  0
 36 75  2  0  0  0  0
 37 60  1  0  0  0  0
 37 71  1  0  0  0  0
 37 76  2  0  0  0  0
 38 66  1  0  0  0  0
 38 69  1  0  0  0  0
 38 77  2  0  0  0  0
 39 42  1  0  0  0  0
 40 49  1  0  0  0  0
 41 65  1  0  0  0  0
 42 44  1  0  0  0  0
 43 45  1  0  0  0  0
 43 46  1  0  0  0  0
 44 48  1  0  0  0  0
 45 50  1  0  0  0  0
 46 66  1  0  0  0  0
 47 50  1  0  0  0  0
 47 66  1  0  0  0  0
 48 70  1  0  0  0  0
 49 65  1  0  0  0  0
 50 64  1  0  0  0  0
 51 60  1  0  0  0  0
 52 61  1  0  0  0  0
 53 62  1  0  0  0  0
 54 62  1  0  0  0  0
 55 62  1  0  0  0  0
 56 72  1  0  0  0  0
 57 61  1  0  0  0  0
 57 79  1  0  0  0  0
 58 61  1  0  0  0  0
 58 80  1  0  0  0  0
 59 62  1  0  0  0  0
 59 71  1  0  0  0  0
 60 72  1  0  0  0  0
 63 64  1  0  0  0  0
M  CHG  1  72   1
M  ISO  4  38 100  57 101  69 100  79 101
M  END
> <Batch ID>
0136

> <Smiles>
CNC(C)C(=O)NC(C(=O)N1Cc2cc([101O:1][101CH2:1]C(C)COc3ccc(F)c([100NH:0][100C:0](=O)N4CCCC(n5nc(-c6ccc(Oc7ccc(F)cc7F)cc6)c(C(N)=O)c5N)C4)c3)ccc2CC1C(=O)NC1CCCc2ccccc21)C(C)(C)C

> <Shape>
0.214

> <Color>
0.194

> <Negative vol penalty>
0.000

$$$$

  -OEChem-04052302393D

 82 90  0     1  0  0  0  0  0999 V2000
  -37.4905  -22.5105    9.9471 C   0  0  0  0  0  0  0  0  0  0  0  0
  -38.1615  -21.9326   11.0201 C   0  0  0  0  0  0  0  0  0  0  0  0
  -30.4798  -18.2782   24.1100 C   0  0  0  0  0  0  0  0  0  0  0  0
  -23.0617   -9.8678   19.9293 C   0  0  0  0  0  0  0  0  0  0  0  0
  -23.8205   -9.8518   22.2229 C   0  0  0  0  0  0  0  0  0  0  0  0
  -36.3126  -23.2237   10.1655 C   0  0  0  0  0  0  0  0  0  0  0  0
  -37.6554  -22.0684   12.3123 C   0  0  0  0  0  0  0  0  0  0  0  0
  -37.2152  -18.5462   18.5345 C   0  0  0  0  0  0  0  0  0  0  0  0
  -31.8654  -18.2896   24.2696 C   0  0  0  0  0  0  0  0  0  0  0  0
  -29.8901  -17.4044   23.1965 C   0  0  0  0  0  0  0  0  0  0  0  0
  -22.3136   -8.7152   20.1687 C   0  0  0  0  0  0  0  0  0  0  0  0
  -23.0724   -8.6991   22.4624 C   0  0  0  0  0  0  0  0  0  0  0  0
  -37.4800  -18.7209   19.8921 C   0  0  0  0  0  0  0  0  0  0  0  0
  -19.8411   -7.9077   23.0565 C   0  0  0  0  0  0  0  0  0  0  0  0
  -19.0835   -7.8601   24.2266 C   0  0  0  0  0  0  0  0  0  0  0  0
  -35.3945  -19.9078   20.1399 C   0  0  0  0  0  0  0  0  0  0  0  0
  -32.0717  -16.5535   22.6021 C   0  0  0  0  0  0  0  0  0  0  0  0
  -20.3176   -5.9118   24.9465 C   0  0  0  0  0  0  0  0  0  0  0  0
  -23.8152  -10.4361   20.9564 C   0  0  0  0  0  0  0  0  0  0  0  0
  -24.1662  -12.9609   20.8588 C   0  0  0  0  0  0  0  0  0  0  0  0
  -35.7866  -23.3602   11.4599 C   0  0  0  0  0  0  0  0  0  0  0  0
  -36.0413  -19.0613   17.9662 C   0  0  0  0  0  0  0  0  0  0  0  0
  -36.4700  -22.7852   12.5484 C   0  0  0  0  0  0  0  0  0  0  0  0
  -35.1160  -19.7361   18.7754 C   0  0  0  0  0  0  0  0  0  0  0  0
  -32.6614  -17.4273   23.5156 C   0  0  0  0  0  0  0  0  0  0  0  0
  -30.6860  -16.5421   22.4425 C   0  0  0  0  0  0  0  0  0  0  0  0
  -22.3189   -8.1308   21.4352 C   0  0  0  0  0  0  0  0  0  0  0  0
  -36.5710  -19.4043   20.6945 C   0  0  0  0  0  0  0  0  0  0  0  0
  -20.8369   -6.9572   22.8312 C   0  0  0  0  0  0  0  0  0  0  0  0
  -19.3217   -6.8622   25.1716 C   0  0  0  0  0  0  0  0  0  0  0  0
  -21.0752   -5.9593   23.7762 C   0  0  0  0  0  0  0  0  0  0  0  0
  -24.5887  -11.6264   20.7095 C   0  0  0  0  0  0  0  0  0  0  0  0
  -25.2612  -13.7097   20.5026 C   0  0  0  0  0  0  0  0  0  0  0  0
  -22.8974  -13.4776   21.2817 C   0  0  0  0  0  0  0  0  0  0  0  0
  -35.3947  -21.2062   15.7111 C   0  0  0  0  0  0  0  0  0  0  0  0
  -32.3451  -20.2056   16.1812 C   0  0  0  0  0  0  0  0  0  0  0  0
  -30.0577  -18.7623   18.2625 C   0  0  0  0  0  0  0  0  0  0  0  0
  -30.7310  -14.7340   20.6889 C   0  0  0  0  0  0  0  0  0  0  0  0
  -34.5356  -24.1803   11.6523 C   0  0  0  0  0  0  0  0  0  0  0  0
  -35.7577  -18.8412   16.5056 C   0  0  0  0  0  0  0  0  0  0  0  0
  -33.8314  -20.2908   18.2181 C   0  0  0  0  0  0  0  0  0  0  0  0
  -33.8652  -23.9601   13.0060 C   0  0  0  0  0  0  0  0  0  0  0  0
  -29.6090  -12.3452   18.2989 C   0  0  0  0  0  0  0  0  0  0  0  0
  -34.8987  -24.0038   14.1270 C   0  0  0  0  0  0  0  0  0  0  0  0
  -28.1682  -12.0550   18.7253 C   0  0  0  0  0  0  0  0  0  0  0  0
  -30.5244  -12.5601   19.5029 C   0  0  0  0  0  0  0  0  0  0  0  0
  -28.6195  -13.2792   20.8897 C   0  0  0  0  0  0  0  0  0  0  0  0
  -35.9392  -22.8895   13.9617 C   0  0  1  0  0  0  0  0  0  0  0  0
  -34.7746  -19.8549   15.9283 C   0  0  1  0  0  0  0  0  0  0  0  0
  -27.6465  -13.1199   19.7100 C   0  0  2  0  0  0  0  0  0  0  0  0
  -27.8681  -17.7752   18.9896 C   0  0  0  0  0  0  0  0  0  0  0  0
  -31.5854  -23.1288   16.6145 C   0  0  0  0  0  0  0  0  0  0  0  0
  -29.4403  -22.3466   17.6418 C   0  0  0  0  0  0  0  0  0  0  0  0
  -29.9461  -21.8150   15.2576 C   0  0  0  0  0  0  0  0  0  0  0  0
  -36.7467  -18.9543   24.3369 C   0  0  0  0  0  0  0  0  0  0  0  0
  -37.0298  -17.2459   22.5229 C   0  0  0  0  0  0  0  0  0  0  0  0
  -30.8368  -16.0605   17.3395 C   0  0  0  0  0  0  0  0  0  0  0  0
  -34.1603  -17.4400   23.6886 C   0  0  0  0  0  0  0  0  0  0  0  0
  -34.8283  -18.4382   22.7323 C   0  0  0  0  0  0  0  0  0  0  0  0
  -31.2124  -20.6186   17.0898 C   0  0  1  0  0  0  0  0  0  0  0  0
  -29.0442  -17.6557   18.0329 C   0  0  2  0  0  0  0  0  0  0  0  0
  -30.5711  -21.9686   16.6613 C   0  0  0  0  0  0  0  0  0  0  0  0
  -36.3549  -18.5661   22.9096 C   0  0  0  0  0  0  0  0  0  1  0  0
  -25.8534  -11.5297   20.2909 N   0  0  0  0  0  0  0  0  0  0  0  0
  -26.2350  -12.8130   20.1741 N   0  0  0  0  0  0  0  0  0  0  0  0
  -33.6025  -20.0553   16.7829 N   0  0  0  0  0  0  0  0  0  0  0  0
  -29.9688  -13.5851   20.3892 N   0  0  0  0  0  0  0  0  0  0  0  0
  -25.4764  -15.0410   20.4415 N   0  0  0  0  0  0  0  0  0  0  0  0
  -21.8820  -12.5691   21.6105 N   0  0  0  0  0  0  0  0  0  0  0  0
  -30.0866  -15.6541   21.5152 N   0  0  0  0  0  0  0  0  0  0  0  0
  -35.3935  -21.6204   14.3929 N   0  0  0  0  0  0  0  0  0  0  0  0
  -30.2807  -19.4963   17.1167 N   0  0  0  0  0  0  0  0  0  0  0  0
  -29.6791  -16.3223   18.2329 N   0  3  0  0  0  0  0  0  0  0  0  0
  -22.6655  -14.7085   21.3498 O   0  0  0  0  0  0  0  0  0  0  0  0
  -35.8399  -21.8276   16.6689 O   0  0  0  0  0  0  0  0  0  0  0  0
  -32.1208  -20.0162   14.9831 O   0  0  0  0  0  0  0  0  0  0  0  0
  -30.5948  -18.9585   19.3504 O   0  0  0  0  0  0  0  0  0  0  0  0
  -31.8609  -14.9028   20.2233 O   0  0  0  0  0  0  0  0  0  0  0  0
  -21.5888   -7.0062   21.6693 O   0  0  0  0  0  0  0  0  0  0  0  0
  -36.8272  -19.5768   22.0198 O   0  0  0  0  0  0  0  0  0  1  0  0
  -18.5951   -6.8176   26.2960 F   0  0  0  0  0  0  0  0  0  0  0  0
  -22.0313   -5.0442   23.5659 F   0  0  0  0  0  0  0  0  0  0  0  0
  1  2  1  0  0  0  0
  1  6  2  0  0  0  0
  2  7  2  0  0  0  0
  3  9  2  0  0  0  0
  3 10  1  0  0  0  0
  4 11  2  0  0  0  0
  4 19  1  0  0  0  0
  5 12  1  0  0  0  0
  5 19  2  0  0  0  0
  6 21  1  0  0  0  0
  7 23  1  0  0  0  0
  8 13  2  0  0  0  0
  8 22  1  0  0  0  0
  9 25  1  0  0  0  0
 10 26  2  0  0  0  0
 11 27  1  0  0  0  0
 12 27  2  0  0  0  0
 13 28  1  0  0  0  0
 14 15  2  0  0  0  0
 14 29  1  0  0  0  0
 15 30  1  0  0  0  0
 16 24  1  0  0  0  0
 16 28  2  0  0  0  0
 17 25  2  0  0  0  0
 17 26  1  0  0  0  0
 18 30  2  0  0  0  0
 18 31  1  0  0  0  0
 19 32  1  0  0  0  0
 20 32  1  0  0  0  0
 20 33  2  0  0  0  0
 20 34  1  0  0  0  0
 21 23  2  0  0  0  0
 21 39  1  0  0  0  0
 22 24  2  0  0  0  0
 22 40  1  0  0  0  0
 23 48  1  0  0  0  0
 24 41  1  0  0  0  0
 25 58  1  0  0  0  0
 26 70  1  0  0  0  0
 27 79  1  0  0  0  0
 28 80  1  0  0  0  0
 29 31  2  0  0  0  0
 29 79  1  0  0  0  0
 30 81  1  0  0  0  0
 31 82  1  0  0  0  0
 32 64  2  0  0  0  0
 33 65  1  0  0  0  0
 33 68  1  0  0  0  0
 34 69  1  0  0  0  0
 34 74  2  0  0  0  0
 35 49  1  0  0  0  0
 35 71  1  0  0  0  0
 35 75  2  0  0  0  0
 36 60  1  0  0  0  0
 36 66  1  0  0  0  0
 36 76  2  0  0  0  0
 37 61  1  0  0  0  0
 37 72  1  0  0  0  0
 37 77  2  0  0  0  0
 38 67  1  0  0  0  0
 38 70  1  0  0  0  0
 38 78  2  0  0  0  0
 39 42  1  0  0  0  0
 40 49  1  0  0  0  0
 41 66  1  0  0  0  0
 42 44  1  0  0  0  0
 43 45  1  0  0  0  0
 43 46  1  0  0  0  0
 44 48  1  0  0  0  0
 45 50  1  0  0  0  0
 46 67  1  0  0  0  0
 47 50  1  0  0  0  0
 47 67  1  0  0  0  0
 48 71  1  0  0  0  0
 49 66  1  0  0  0  0
 50 65  1  0  0  0  0
 51 61  1  0  0  0  0
 52 62  1  0  0  0  0
 53 62  1  0  0  0  0
 54 62  1  0  0  0  0
 55 63  1  0  0  0  0
 56 63  1  0  0  0  0
 57 73  1  0  0  0  0
 58 59  1  0  0  0  0
 59 63  1  0  0  0  0
 60 62  1  0  0  0  0
 60 72  1  0  0  0  0
 61 73  1  0  0  0  0
 63 80  1  0  0  0  0
 64 65  1  0  0  0  0
M  CHG  1  73   1
M  ISO  4  38 100  63 101  70 100  80 101
M  END
> <Batch ID>
0136

> <Smiles>
CNC(C)C(=O)NC(C(=O)N1Cc2cc([101O:1][101C:1](C)(C)CCc3cccc([100NH:0][100C:0](=O)N4CCCC(n5nc(-c6ccc(Oc7ccc(F)cc7F)cc6)c(C(N)=O)c5N)C4)c3)ccc2CC1C(=O)NC1CCCc2ccccc21)C(C)(C)C

> <Shape>
0.196

> <Color>
0.199

> <Negative vol penalty>
0.000

$$$$

  -OEChem-04052302393D

 87 96  0     1  0  0  0  0  0999 V2000
  -27.6425  -37.8387   20.6181 C   0  0  0  0  0  0  0  0  0  0  0  0
  -27.7399  -36.7484   19.7595 C   0  0  0  0  0  0  0  0  0  0  0  0
  -24.8703   -9.3125   21.6244 C   0  0  0  0  0  0  0  0  0  0  0  0
  -23.4191  -10.8542   20.4608 C   0  0  0  0  0  0  0  0  0  0  0  0
  -27.6010  -37.6372   21.9970 C   0  0  0  0  0  0  0  0  0  0  0  0
  -27.7970  -35.4559   20.2795 C   0  0  0  0  0  0  0  0  0  0  0  0
  -25.8040  -28.7410   18.7778 C   0  0  0  0  0  0  0  0  0  0  0  0
  -23.7769   -8.8220   22.3383 C   0  0  0  0  0  0  0  0  0  0  0  0
  -22.3257  -10.3638   21.1747 C   0  0  0  0  0  0  0  0  0  0  0  0
  -26.3348  -27.4552   18.6850 C   0  0  0  0  0  0  0  0  0  0  0  0
  -21.2026   -6.6964   21.8022 C   0  0  0  0  0  0  0  0  0  0  0  0
  -21.0806   -5.3129   21.9314 C   0  0  0  0  0  0  0  0  0  0  0  0
  -26.1754  -27.2230   21.0808 C   0  0  0  0  0  0  0  0  0  0  0  0
  -25.8512  -18.3751   18.5404 C   0  0  0  0  0  0  0  0  0  0  0  0
  -27.5318  -19.3764   19.9582 C   0  0  0  0  0  0  0  0  0  0  0  0
  -21.1875   -5.5281   24.3355 C   0  0  0  0  0  0  0  0  0  0  0  0
  -24.6914  -10.3286   20.6857 C   0  0  0  0  0  0  0  0  0  0  0  0
  -26.3107  -10.3669   18.7150 C   0  0  0  0  0  0  0  0  0  0  0  0
  -27.6479  -36.3409   22.5338 C   0  0  0  0  0  0  0  0  0  0  0  0
  -25.4645  -29.2825   20.0260 C   0  0  0  0  0  0  0  0  0  0  0  0
  -27.7574  -35.2368   21.6670 C   0  0  0  0  0  0  0  0  0  0  0  0
  -25.6381  -28.5150   21.1865 C   0  0  0  0  0  0  0  0  0  0  0  0
  -25.2007  -19.6051   18.4429 C   0  0  0  0  0  0  0  0  0  0  0  0
  -26.8813  -20.6064   19.8607 C   0  0  0  0  0  0  0  0  0  0  0  0
  -25.7157  -20.7207   19.1030 C   0  0  0  0  0  0  0  0  0  0  0  0
  -27.0168  -18.2607   19.2981 C   0  0  0  0  0  0  0  0  0  0  0  0
  -22.5046   -9.3477   22.1134 C   0  0  0  0  0  0  0  0  0  0  0  0
  -26.5233  -26.6970   19.8369 C   0  0  0  0  0  0  0  0  0  0  0  0
  -21.3172   -7.4957   22.9396 C   0  0  0  0  0  0  0  0  0  0  0  0
  -21.0730   -4.7288   23.1980 C   0  0  0  0  0  0  0  0  0  0  0  0
  -21.3095   -6.9116   24.2062 C   0  0  0  0  0  0  0  0  0  0  0  0
  -25.8205  -10.8361   19.9484 C   0  0  0  0  0  0  0  0  0  0  0  0
  -27.3868  -11.1759   18.4430 C   0  0  0  0  0  0  0  0  0  0  0  0
  -25.8357   -9.2956   17.8888 C   0  0  0  0  0  0  0  0  0  0  0  0
  -28.1819  -22.7637   19.6672 C   0  0  0  0  0  0  0  0  0  0  0  0
  -26.4398  -31.7852   21.7256 C   0  0  0  0  0  0  0  0  0  0  0  0
  -24.0092  -30.9079   23.6863 C   0  0  0  0  0  0  0  0  0  0  0  0
  -21.9321  -28.4396   24.8001 C   0  0  0  0  0  0  0  0  0  0  0  0
  -28.8443  -16.7269   20.1066 C   0  0  0  0  0  0  0  0  0  0  0  0
  -27.6476  -36.1756   24.0330 C   0  0  0  0  0  0  0  0  0  0  0  0
  -24.8680  -30.6610   20.1066 C   0  0  0  0  0  0  0  0  0  0  0  0
  -25.2707  -29.0426   22.5485 C   0  0  0  0  0  0  0  0  0  0  0  0
  -27.3354  -34.7525   24.4887 C   0  0  0  0  0  0  0  0  0  0  0  0
  -30.8054  -24.7716   20.8451 C   0  0  0  0  0  0  0  0  0  0  0  0
  -30.7649  -13.7743   20.6273 C   0  0  0  0  0  0  0  0  0  0  0  0
  -28.1475  -33.7436   23.6829 C   0  0  0  0  0  0  0  0  0  0  0  0
  -29.7610  -12.6430   20.3941 C   0  0  0  0  0  0  0  0  0  0  0  0
  -29.9314  -23.6453   21.4231 C   0  0  0  0  0  0  0  0  0  0  0  0
  -29.9910  -24.6699   19.5441 C   0  0  0  0  0  0  0  0  0  0  0  0
  -30.1184  -14.9723   21.3205 C   0  0  0  0  0  0  0  0  0  0  0  0
  -27.9033  -14.3559   20.4359 C   0  0  0  0  0  0  0  0  0  0  0  0
  -27.7967  -33.8180   22.1920 C   0  0  1  0  0  0  0  0  0  0  0  0
  -25.0373  -31.3060   21.4786 C   0  0  1  0  0  0  0  0  0  0  0  0
  -28.4928  -13.1528   19.6818 C   0  0  2  0  0  0  0  0  0  0  0  0
  -28.8434  -23.9917   20.3577 C   0  0  0  0  0  0  0  0  0  0  0  0
  -23.9539  -19.7008   17.6259 C   0  0  0  0  0  0  0  0  0  0  0  0
  -25.0183  -22.0397   18.9979 C   0  0  0  0  0  0  0  0  0  0  0  0
  -20.0750  -28.0159   26.4338 C   0  0  0  0  0  0  0  0  0  0  0  0
  -26.0299  -30.8789   25.9723 C   0  0  0  0  0  0  0  0  0  0  0  0
  -24.3806  -29.5640   27.3210 C   0  0  0  0  0  0  0  0  0  0  0  0
  -23.8085  -31.8684   26.5560 C   0  0  0  0  0  0  0  0  0  0  0  0
  -20.0479  -27.6954   22.6427 C   0  0  0  0  0  0  0  0  0  0  0  0
  -27.4582  -21.7952   20.5829 C   0  0  0  0  0  0  0  0  0  0  0  0
  -27.8050  -24.9753   20.8611 C   0  0  0  0  0  0  0  0  0  1  0  0
  -23.8726  -29.9837   24.8721 C   0  0  1  0  0  0  0  0  0  0  0  0
  -20.4286  -28.4054   25.0069 C   0  0  2  0  0  0  0  0  0  0  0  0
  -24.5317  -30.5642   26.1550 C   0  0  0  0  0  0  0  0  0  0  0  0
  -26.5273  -11.8633   20.4270 N   0  0  0  0  0  0  0  0  0  0  0  0
  -27.4727  -12.0463   19.4895 N   0  0  0  0  0  0  0  0  0  0  0  0
  -24.6969  -30.3981   22.5759 N   0  0  0  0  0  0  0  0  0  0  0  0
  -28.9258  -15.4029   20.5874 N   0  0  0  0  0  0  0  0  0  0  0  0
  -28.2586  -11.2204   17.4133 N   0  0  0  0  0  0  0  0  0  0  0  0
  -24.7184   -8.5662   18.3175 N   0  0  0  0  0  0  0  0  0  0  0  0
  -27.6785  -17.0116   19.3965 N   0  0  0  0  0  0  0  0  0  0  0  0
  -26.5404  -33.1475   21.9342 N   0  0  0  0  0  0  0  0  0  0  0  0
  -22.4476  -29.7015   25.0078 N   0  0  0  0  0  0  0  0  0  0  0  0
  -19.8008  -27.4203   24.0815 N   0  3  0  0  0  0  0  0  0  0  0  0
  -26.3958   -8.9836   16.8107 O   0  0  0  0  0  0  0  0  0  0  0  0
  -28.2554  -22.6094   18.4487 O   0  0  0  0  0  0  0  0  0  0  0  0
  -27.3623  -30.9785   21.7283 O   0  0  0  0  0  0  0  0  0  0  0  0
  -23.5174  -32.0379   23.7405 O   0  0  0  0  0  0  0  0  0  0  0  0
  -22.5846  -27.4455   24.4894 O   0  0  0  0  0  0  0  0  0  0  0  0
  -29.7547  -17.5398   20.2865 O   0  0  0  0  0  0  0  0  0  0  0  0
  -21.4375   -8.8692   22.8096 O   0  0  0  0  0  0  0  0  0  0  0  0
  -27.0419  -25.4419   19.7492 O   0  0  0  0  0  0  0  0  0  1  0  0
  -20.9542   -3.4003   23.3221 F   0  0  0  0  0  0  0  0  0  0  0  0
  -21.4180   -7.6744   25.3026 F   0  0  0  0  0  0  0  0  0  0  0  0
  1  2  1  0  0  0  0
  1  5  2  0  0  0  0
  2  6  2  0  0  0  0
  3  8  2  0  0  0  0
  3 17  1  0  0  0  0
  4  9  1  0  0  0  0
  4 17  2  0  0  0  0
  5 19  1  0  0  0  0
  6 21  1  0  0  0  0
  7 10  2  0  0  0  0
  7 20  1  0  0  0  0
  8 27  1  0  0  0  0
  9 27  2  0  0  0  0
 10 28  1  0  0  0  0
 11 12  2  0  0  0  0
 11 29  1  0  0  0  0
 12 30  1  0  0  0  0
 13 22  1  0  0  0  0
 13 28  2  0  0  0  0
 14 23  2  0  0  0  0
 14 26  1  0  0  0  0
 15 24  1  0  0  0  0
 15 26  2  0  0  0  0
 16 30  2  0  0  0  0
 16 31  1  0  0  0  0
 17 32  1  0  0  0  0
 18 32  1  0  0  0  0
 18 33  2  0  0  0  0
 18 34  1  0  0  0  0
 19 21  2  0  0  0  0
 19 40  1  0  0  0  0
 20 22  2  0  0  0  0
 20 41  1  0  0  0  0
 21 52  1  0  0  0  0
 22 42  1  0  0  0  0
 23 25  1  0  0  0  0
 23 56  1  0  0  0  0
 24 25  2  0  0  0  0
 24 63  1  0  0  0  0
 25 57  1  0  0  0  0
 26 74  1  0  0  0  0
 27 84  1  0  0  0  0
 28 85  1  0  0  0  0
 29 31  2  0  0  0  0
 29 84  1  0  0  0  0
 30 86  1  0  0  0  0
 31 87  1  0  0  0  0
 32 68  2  0  0  0  0
 33 69  1  0  0  0  0
 33 72  1  0  0  0  0
 34 73  1  0  0  0  0
 34 78  2  0  0  0  0
 35 55  1  0  0  0  0
 35 63  1  0  0  0  0
 35 79  2  0  0  0  0
 36 53  1  0  0  0  0
 36 75  1  0  0  0  0
 36 80  2  0  0  0  0
 37 65  1  0  0  0  0
 37 70  1  0  0  0  0
 37 81  2  0  0  0  0
 38 66  1  0  0  0  0
 38 76  1  0  0  0  0
 38 82  2  0  0  0  0
 39 71  1  0  0  0  0
 39 74  1  0  0  0  0
 39 83  2  0  0  0  0
 40 43  1  0  0  0  0
 41 53  1  0  0  0  0
 42 70  1  0  0  0  0
 43 46  1  0  0  0  0
 44 48  1  0  0  0  0
 44 49  1  0  0  0  0
 45 47  1  0  0  0  0
 45 50  1  0  0  0  0
 46 52  1  0  0  0  0
 47 54  1  0  0  0  0
 48 55  1  0  0  0  0
 49 55  1  0  0  0  0
 50 71  1  0  0  0  0
 51 54  1  0  0  0  0
 51 71  1  0  0  0  0
 52 75  1  0  0  0  0
 53 70  1  0  0  0  0
 54 69  1  0  0  0  0
 55 64  1  0  0  0  0
 58 66  1  0  0  0  0
 59 67  1  0  0  0  0
 60 67  1  0  0  0  0
 61 67  1  0  0  0  0
 62 77  1  0  0  0  0
 64 85  1  0  0  0  0
 65 67  1  0  0  0  0
 65 76  1  0  0  0  0
 66 77  1  0  0  0  0
 68 69  1  0  0  0  0
M  CHG  1  77   1
M  ISO  4  39 100  64 101  74 100  85 101
M  END
> <Batch ID>
0136

> <Smiles>
CNC(C)C(=O)NC(C(=O)N1Cc2cc([101O:1][101CH2:1]C3(C(=O)Cc4cc([100NH:0][100C:0](=O)N5CCCC(n6nc(-c7ccc(Oc8ccc(F)cc8F)cc7)c(C(N)=O)c6N)C5)cc(C)c4C)CCC3)ccc2CC1C(=O)NC1CCCc2ccccc21)C(C)(C)C

> <Shape>
0.305

> <Color>
0.103

> <Negative vol penalty>
0.000

$$$$

  -OEChem-04052302393D

 86 94  0     1  0  0  0  0  0999 V2000
  -24.2437  -38.6709   22.0129 C   0  0  0  0  0  0  0  0  0  0  0  0
  -25.1945  -37.6558   22.0432 C   0  0  0  0  0  0  0  0  0  0  0  0
  -30.2574  -22.6089   21.4092 C   0  0  0  0  0  0  0  0  0  0  0  0
  -23.2916  -14.3942   21.0463 C   0  0  0  0  0  0  0  0  0  0  0  0
  -25.4638  -14.8336   22.0083 C   0  0  0  0  0  0  0  0  0  0  0  0
  -22.9484  -38.4250   22.4662 C   0  0  0  0  0  0  0  0  0  0  0  0
  -24.8507  -36.3943   22.5279 C   0  0  0  0  0  0  0  0  0  0  0  0
  -26.9485  -30.9922   20.5475 C   0  0  0  0  0  0  0  0  0  0  0  0
  -30.6112  -23.5151   20.4096 C   0  0  0  0  0  0  0  0  0  0  0  0
  -28.9372  -22.1721   21.5192 C   0  0  0  0  0  0  0  0  0  0  0  0
  -23.7141  -13.1177   20.6753 C   0  0  0  0  0  0  0  0  0  0  0  0
  -25.8863  -13.5571   21.6373 C   0  0  0  0  0  0  0  0  0  0  0  0
  -27.9472  -30.1428   21.0217 C   0  0  0  0  0  0  0  0  0  0  0  0
  -24.1055   -9.6124   19.7949 C   0  0  0  0  0  0  0  0  0  0  0  0
  -23.2402   -8.5462   20.0399 C   0  0  0  0  0  0  0  0  0  0  0  0
  -26.2838  -28.8576   22.2052 C   0  0  0  0  0  0  0  0  0  0  0  0
  -28.3247  -23.5479   19.6300 C   0  0  0  0  0  0  0  0  0  0  0  0
  -23.2951   -9.0447   22.4033 C   0  0  0  0  0  0  0  0  0  0  0  0
  -24.1665  -15.2522   21.7128 C   0  0  0  0  0  0  0  0  0  0  0  0
  -23.1188  -16.9460   23.3069 C   0  0  0  0  0  0  0  0  0  0  0  0
  -22.5859  -37.1572   22.9476 C   0  0  0  0  0  0  0  0  0  0  0  0
  -25.6090  -30.7868   20.9080 C   0  0  0  0  0  0  0  0  0  0  0  0
  -23.5496  -36.1316   22.9893 C   0  0  0  0  0  0  0  0  0  0  0  0
  -25.2697  -29.7043   21.7321 C   0  0  0  0  0  0  0  0  0  0  0  0
  -29.6449  -23.9846   19.5200 C   0  0  0  0  0  0  0  0  0  0  0  0
  -27.9709  -22.6417   20.6296 C   0  0  0  0  0  0  0  0  0  0  0  0
  -25.0115  -12.6991   20.9708 C   0  0  0  0  0  0  0  0  0  0  0  0
  -27.6153  -29.0771   21.8531 C   0  0  0  0  0  0  0  0  0  0  0  0
  -24.5657  -10.3948   20.8541 C   0  0  0  0  0  0  0  0  0  0  0  0
  -22.8350   -8.2623   21.3441 C   0  0  0  0  0  0  0  0  0  0  0  0
  -24.1605  -10.1110   22.1583 C   0  0  0  0  0  0  0  0  0  0  0  0
  -23.7308  -16.5711   22.0958 C   0  0  0  0  0  0  0  0  0  0  0  0
  -22.9032  -18.2964   23.1791 C   0  0  0  0  0  0  0  0  0  0  0  0
  -22.7761  -16.1451   24.4456 C   0  0  0  0  0  0  0  0  0  0  0  0
  -23.4286  -32.4722   22.4918 C   0  0  0  0  0  0  0  0  0  0  0  0
  -29.5828  -27.0548   19.8461 C   0  0  0  0  0  0  0  0  0  0  0  0
  -21.4645  -30.0577   21.5780 C   0  0  0  0  0  0  0  0  0  0  0  0
  -21.1333  -26.8052   20.5994 C   0  0  0  0  0  0  0  0  0  0  0  0
  -25.5491  -22.5643   19.9403 C   0  0  0  0  0  0  0  0  0  0  0  0
  -21.1863  -36.9523   23.4710 C   0  0  0  0  0  0  0  0  0  0  0  0
  -24.5403  -31.6961   20.3663 C   0  0  0  0  0  0  0  0  0  0  0  0
  -23.8441  -29.4285   22.1321 C   0  0  0  0  0  0  0  0  0  0  0  0
  -20.8008  -35.4828   23.6202 C   0  0  0  0  0  0  0  0  0  0  0  0
  -22.1049  -21.6644   19.8694 C   0  0  0  0  0  0  0  0  0  0  0  0
  -21.9169  -34.7056   24.3109 C   0  0  0  0  0  0  0  0  0  0  0  0
  -22.0745  -20.2929   20.5480 C   0  0  0  0  0  0  0  0  0  0  0  0
  -23.3577  -21.8464   19.0143 C   0  0  0  0  0  0  0  0  0  0  0  0
  -24.5955  -20.2176   20.3870 C   0  0  0  0  0  0  0  0  0  0  0  0
  -23.2083  -34.7430   23.4847 C   0  0  1  0  0  0  0  0  0  0  0  0
  -23.2717  -31.6981   21.2136 C   0  0  1  0  0  0  0  0  0  0  0  0
  -23.3839  -20.0126   21.3110 C   0  0  2  0  0  0  0  0  0  0  0  0
  -31.0337  -24.3442   17.4558 C   0  0  0  0  0  0  0  0  0  0  0  0
  -19.3998  -25.1073   19.9595 C   0  0  0  0  0  0  0  0  0  0  0  0
  -20.6974  -29.7381   24.5139 C   0  0  0  0  0  0  0  0  0  0  0  0
  -19.7465  -27.4920   23.9488 C   0  0  0  0  0  0  0  0  0  0  0  0
  -18.7880  -29.5475   22.9101 C   0  0  0  0  0  0  0  0  0  0  0  0
  -30.8329  -27.4686   22.5559 C   0  0  0  0  0  0  0  0  0  0  0  0
  -30.3133  -29.9176   22.4221 C   0  0  0  0  0  0  0  0  0  0  0  0
  -22.2906  -26.4715   17.8960 C   0  0  0  0  0  0  0  0  0  0  0  0
  -30.5923  -26.2871   19.0033 C   0  0  0  0  0  0  0  0  0  0  0  0
  -30.0160  -28.4087   20.3845 C   0  0  0  0  0  0  0  0  0  0  0  0
  -30.0312  -24.9725   18.4305 C   0  0  2  0  0  0  0  0  0  0  0  0
  -21.0608  -28.7272   22.1661 C   0  0  1  0  0  0  0  0  0  0  0  0
  -20.3628  -26.1709   19.4555 C   0  0  2  0  0  0  0  0  0  0  0  0
  -20.1004  -28.8823   23.3790 C   0  0  0  0  0  0  0  0  0  0  0  0
  -29.9281  -28.5263   21.9140 C   0  0  0  0  0  0  0  0  0  1  0  0
  -23.8933  -17.6002   21.2600 N   0  0  0  0  0  0  0  0  0  0  0  0
  -23.3801  -18.6350   21.9470 N   0  0  0  0  0  0  0  0  0  0  0  0
  -22.8359  -30.3495   21.5819 N   0  0  0  0  0  0  0  0  0  0  0  0
  -24.5590  -21.5682   19.8045 N   0  0  0  0  0  0  0  0  0  0  0  0
  -22.3539  -19.2153   24.0014 N   0  0  0  0  0  0  0  0  0  0  0  0
  -23.0678  -14.7747   24.4109 N   0  0  0  0  0  0  0  0  0  0  0  0
  -26.6301  -22.1973   20.7411 N   0  0  0  0  0  0  0  0  0  0  0  0
  -23.1264  -33.8157   22.3767 N   0  0  0  0  0  0  0  0  0  0  0  0
  -20.5110  -27.9441   21.0648 N   0  0  0  0  0  0  0  0  0  0  0  0
  -21.3015  -25.5347   18.4885 N   0  3  0  0  0  0  0  0  0  0  0  0
  -22.2124  -16.6273   25.4572 O   0  0  0  0  0  0  0  0  0  0  0  0
  -23.7952  -31.8932   23.5077 O   0  0  0  0  0  0  0  0  0  0  0  0
  -28.4481  -26.6273   20.0616 O   0  0  0  0  0  0  0  0  0  0  0  0
  -20.5957  -30.8073   21.1252 O   0  0  0  0  0  0  0  0  0  0  0  0
  -22.1805  -26.3350   21.0387 O   0  0  0  0  0  0  0  0  0  0  0  0
  -25.4327  -23.6717   19.4092 O   0  0  0  0  0  0  0  0  0  0  0  0
  -25.4240  -11.4535   20.6091 O   0  0  0  0  0  0  0  0  0  0  0  0
  -28.5883  -28.2469   22.3179 O   0  0  0  0  0  0  0  0  0  1  0  0
  -22.0029   -7.2393   21.5791 F   0  0  0  0  0  0  0  0  0  0  0  0
  -24.5982  -10.8598   23.1798 F   0  0  0  0  0  0  0  0  0  0  0  0
  1  2  1  0  0  0  0
  1  6  2  0  0  0  0
  2  7  2  0  0  0  0
  3  9  2  0  0  0  0
  3 10  1  0  0  0  0
  4 11  2  0  0  0  0
  4 19  1  0  0  0  0
  5 12  1  0  0  0  0
  5 19  2  0  0  0  0
  6 21  1  0  0  0  0
  7 23  1  0  0  0  0
  8 13  2  0  0  0  0
  8 22  1  0  0  0  0
  9 25  1  0  0  0  0
 10 26  2  0  0  0  0
 11 27  1  0  0  0  0
 12 27  2  0  0  0  0
 13 28  1  0  0  0  0
 14 15  2  0  0  0  0
 14 29  1  0  0  0  0
 15 30  1  0  0  0  0
 16 24  1  0  0  0  0
 16 28  2  0  0  0  0
 17 25  2  0  0  0  0
 17 26  1  0  0  0  0
 18 30  2  0  0  0  0
 18 31  1  0  0  0  0
 19 32  1  0  0  0  0
 20 32  1  0  0  0  0
 20 33  2  0  0  0  0
 20 34  1  0  0  0  0
 21 23  2  0  0  0  0
 21 40  1  0  0  0  0
 22 24  2  0  0  0  0
 22 41  1  0  0  0  0
 23 49  1  0  0  0  0
 24 42  1  0  0  0  0
 25 62  1  0  0  0  0
 26 73  1  0  0  0  0
 27 83  1  0  0  0  0
 28 84  1  0  0  0  0
 29 31  2  0  0  0  0
 29 83  1  0  0  0  0
 30 85  1  0  0  0  0
 31 86  1  0  0  0  0
 32 67  2  0  0  0  0
 33 68  1  0  0  0  0
 33 71  1  0  0  0  0
 34 72  1  0  0  0  0
 34 77  2  0  0  0  0
 35 50  1  0  0  0  0
 35 74  1  0  0  0  0
 35 78  2  0  0  0  0
 36 60  1  0  0  0  0
 36 61  1  0  0  0  0
 36 79  2  0  0  0  0
 37 63  1  0  0  0  0
 37 69  1  0  0  0  0
 37 80  2  0  0  0  0
 38 64  1  0  0  0  0
 38 75  1  0  0  0  0
 38 81  2  0  0  0  0
 39 70  1  0  0  0  0
 39 73  1  0  0  0  0
 39 82  2  0  0  0  0
 40 43  1  0  0  0  0
 41 50  1  0  0  0  0
 42 69  1  0  0  0  0
 43 45  1  0  0  0  0
 44 46  1  0  0  0  0
 44 47  1  0  0  0  0
 45 49  1  0  0  0  0
 46 51  1  0  0  0  0
 47 70  1  0  0  0  0
 48 51  1  0  0  0  0
 48 70  1  0  0  0  0
 49 74  1  0  0  0  0
 50 69  1  0  0  0  0
 51 68  1  0  0  0  0
 52 62  1  0  0  0  0
 53 64  1  0  0  0  0
 54 65  1  0  0  0  0
 55 65  1  0  0  0  0
 56 65  1  0  0  0  0
 57 66  1  0  0  0  0
 58 66  1  0  0  0  0
 59 76  1  0  0  0  0
 60 62  1  0  0  0  0
 61 66  1  0  0  0  0
 63 65  1  0  0  0  0
 63 75  1  0  0  0  0
 64 76  1  0  0  0  0
 66 84  1  0  0  0  0
 67 68  1  0  0  0  0
M  CHG  1  76   1
M  ISO  4  39 100  66 101  73 100  84 101
M  END
> <Batch ID>
0136

> <Smiles>
CNC(C)C(=O)NC(C(=O)N1Cc2cc([101O:1][101C:1](C)(C)CC(=O)CC(C)c3cccc([100NH:0][100C:0](=O)N4CCCC(n5nc(-c6ccc(Oc7ccc(F)cc7F)cc6)c(C(N)=O)c5N)C4)c3)ccc2CC1C(=O)NC1CCCc2ccccc21)C(C)(C)C

> <Shape>
0.255

> <Color>
0.074

> <Negative vol penalty>
0.000

$$$$

  -OEChem-04052302393D

 89 98  0     1  0  0  0  0  0999 V2000
  -25.7062  -24.6845   18.0970 C   0  0  0  0  0  0  0  0  0  0  0  0
  -24.5755  -25.4726   18.2864 C   0  0  0  0  0  0  0  0  0  0  0  0
  -26.8406  -15.6995   20.2351 C   0  0  0  0  0  0  0  0  0  0  0  0
  -25.5757  -16.7572   18.4693 C   0  0  0  0  0  0  0  0  0  0  0  0
  -26.6857  -24.6233   19.0872 C   0  0  0  0  0  0  0  0  0  0  0  0
  -24.4232  -26.1990   19.4669 C   0  0  0  0  0  0  0  0  0  0  0  0
  -21.7990  -31.6969   20.0937 C   0  0  0  0  0  0  0  0  0  0  0  0
  -17.3025  -29.0203   22.1462 C   0  0  0  0  0  0  0  0  0  0  0  0
  -18.5341  -30.0223   23.9673 C   0  0  0  0  0  0  0  0  0  0  0  0
  -20.9787  -25.4098   20.7867 C   0  0  0  0  0  0  0  0  0  0  0  0
  -26.9353  -14.5366   19.4708 C   0  0  0  0  0  0  0  0  0  0  0  0
  -25.6704  -15.5943   17.7049 C   0  0  0  0  0  0  0  0  0  0  0  0
  -20.5238  -32.0867   20.5008 C   0  0  0  0  0  0  0  0  0  0  0  0
  -17.8356  -27.7731   22.4719 C   0  0  0  0  0  0  0  0  0  0  0  0
  -19.0671  -28.7751   24.2930 C   0  0  0  0  0  0  0  0  0  0  0  0
  -20.5043  -26.2050   21.8298 C   0  0  0  0  0  0  0  0  0  0  0  0
  -24.9672  -11.9015   18.6913 C   0  0  0  0  0  0  0  0  0  0  0  0
  -24.7256  -10.6854   19.3303 C   0  0  0  0  0  0  0  0  0  0  0  0
  -21.3498  -32.4273   22.7415 C   0  0  0  0  0  0  0  0  0  0  0  0
  -19.3867  -24.2872   22.7836 C   0  0  0  0  0  0  0  0  0  0  0  0
  -26.9579   -9.9488   18.7722 C   0  0  0  0  0  0  0  0  0  0  0  0
  -26.1607  -16.8098   19.7344 C   0  0  0  0  0  0  0  0  0  0  0  0
  -26.9569  -19.0979   20.5334 C   0  0  0  0  0  0  0  0  0  0  0  0
  -26.5499  -25.3569   20.2763 C   0  0  0  0  0  0  0  0  0  0  0  0
  -22.8585  -31.6589   21.0114 C   0  0  0  0  0  0  0  0  0  0  0  0
  -25.4012  -26.1465   20.4746 C   0  0  0  0  0  0  0  0  0  0  0  0
  -22.6381  -32.0391   22.3429 C   0  0  0  0  0  0  0  0  0  0  0  0
  -17.6518  -30.1449   22.8939 C   0  0  0  0  0  0  0  0  0  0  0  0
  -20.6570  -24.0532   20.7419 C   0  0  0  0  0  0  0  0  0  0  0  0
  -19.8610  -23.4919   21.7404 C   0  0  0  0  0  0  0  0  0  0  0  0
  -26.3503  -14.4839   18.2057 C   0  0  0  0  0  0  0  0  0  0  0  0
  -18.7178  -27.6505   23.5453 C   0  0  0  0  0  0  0  0  0  0  0  0
  -20.2984  -32.4492   21.8255 C   0  0  0  0  0  0  0  0  0  0  0  0
  -19.7083  -25.6438   22.8283 C   0  0  0  0  0  0  0  0  0  0  0  0
  -26.2042  -12.1413   18.0927 C   0  0  0  0  0  0  0  0  0  0  0  0
  -25.7210   -9.7091   19.3708 C   0  0  0  0  0  0  0  0  0  0  0  0
  -27.1995  -11.1649   18.1332 C   0  0  0  0  0  0  0  0  0  0  0  0
  -26.0620  -18.0112   20.5238 C   0  0  0  0  0  0  0  0  0  0  0  0
  -26.4204  -19.9764   21.4428 C   0  0  0  0  0  0  0  0  0  0  0  0
  -28.1650  -19.2956   19.7871 C   0  0  0  0  0  0  0  0  0  0  0  0
  -24.7650  -29.3812   22.1434 C   0  0  0  0  0  0  0  0  0  0  0  0
  -26.2558  -31.8819   23.5739 C   0  0  0  0  0  0  0  0  0  0  0  0
  -26.0661  -35.0791   24.7523 C   0  0  0  0  0  0  0  0  0  0  0  0
  -20.8493  -20.8788   23.4426 C   0  0  0  0  0  0  0  0  0  0  0  0
  -27.6126  -25.2219   21.3380 C   0  0  0  0  0  0  0  0  0  0  0  0
  -24.2341  -31.2618   20.5504 C   0  0  0  0  0  0  0  0  0  0  0  0
  -23.7464  -32.0349   23.3628 C   0  0  0  0  0  0  0  0  0  0  0  0
  -27.5540  -26.3158   22.4011 C   0  0  0  0  0  0  0  0  0  0  0  0
  -23.7231  -20.0948   25.3927 C   0  0  0  0  0  0  0  0  0  0  0  0
  -26.1202  -26.5174   22.8811 C   0  0  0  0  0  0  0  0  0  0  0  0
  -24.7292  -19.5699   24.3668 C   0  0  0  0  0  0  0  0  0  0  0  0
  -22.2961  -19.6720   25.0510 C   0  0  0  0  0  0  0  0  0  0  0  0
  -22.8642  -19.4920   22.6596 C   0  0  0  0  0  0  0  0  0  0  0  0
  -25.2117  -26.9685   21.7310 C   0  0  1  0  0  0  0  0  0  0  0  0
  -25.1248  -30.7663   21.6855 C   0  0  1  0  0  0  0  0  0  0  0  0
  -24.3107  -19.9397   22.9311 C   0  0  2  0  0  0  0  0  0  0  0  0
  -21.1766  -23.2221   19.6153 C   0  0  0  0  0  0  0  0  0  0  0  0
  -27.4360  -36.8391   25.9025 C   0  0  0  0  0  0  0  0  0  0  0  0
  -17.1593  -33.3743   20.8668 C   0  0  0  0  0  0  0  0  0  0  0  0
  -25.9416  -30.3942   26.2193 C   0  0  0  0  0  0  0  0  0  0  0  0
  -26.4360  -32.5425   27.4061 C   0  0  0  0  0  0  0  0  0  0  0  0
  -28.1530  -31.5210   25.9125 C   0  0  0  0  0  0  0  0  0  0  0  0
  -25.7875  -36.9489   22.4752 C   0  0  0  0  0  0  0  0  0  0  0  0
  -17.0742  -31.4954   22.5417 C   0  0  0  0  0  0  0  0  0  0  0  0
  -19.5028  -22.0424   21.7128 C   0  0  0  0  0  0  0  0  0  0  0  0
  -26.1082  -32.6026   24.8922 C   0  0  1  0  0  0  0  0  0  0  0  0
  -26.9791  -36.2774   24.5652 C   0  0  2  0  0  0  0  0  0  0  0  0
  -17.9460  -32.2540   21.5353 C   0  0  2  0  0  0  0  0  0  1  0  0
  -26.6382  -31.7634   26.0890 C   0  0  0  0  0  0  0  0  0  0  0  0
  -25.0351  -18.1814   21.3607 N   0  0  0  0  0  0  0  0  0  0  0  0
  -25.2813  -19.3853   21.9048 N   0  0  0  0  0  0  0  0  0  0  0  0
  -25.0722  -31.6329   22.8647 N   0  0  0  0  0  0  0  0  0  0  0  0
  -21.9613  -20.0532   23.6767 N   0  0  0  0  0  0  0  0  0  0  0  0
  -26.8166  -21.1890   21.8843 N   0  0  0  0  0  0  0  0  0  0  0  0
  -28.5717  -18.2929   18.8962 N   0  0  0  0  0  0  0  0  0  0  0  0
  -25.4107  -28.3744   21.4514 N   0  0  0  0  0  0  0  0  0  0  0  0
  -26.7688  -33.8929   24.7281 N   0  0  0  0  0  0  0  0  0  0  0  0
  -20.6062  -21.1975   22.1122 N   0  0  0  0  0  0  0  0  0  0  0  0
  -26.2714  -37.3563   23.8194 N   0  3  0  0  0  0  0  0  0  0  0  0
  -28.8719  -20.3235   19.9187 O   0  0  0  0  0  0  0  0  0  0  0  0
  -23.9621  -29.2366   23.0578 O   0  0  0  0  0  0  0  0  0  0  0  0
  -27.3806  -31.5582   23.1843 O   0  0  0  0  0  0  0  0  0  0  0  0
  -24.8516  -35.1849   24.9083 O   0  0  0  0  0  0  0  0  0  0  0  0
  -20.1297  -21.3050   24.3523 O   0  0  0  0  0  0  0  0  0  0  0  0
  -19.2369  -26.4333   23.8637 O   0  0  0  0  0  0  0  0  0  0  0  0
  -26.4427  -13.3494   17.4594 O   0  0  0  0  0  0  0  0  0  0  0  0
  -19.0545  -32.8294   22.2256 O   0  0  0  0  0  0  0  0  0  1  0  0
  -25.4893   -8.5419   19.9858 F   0  0  0  0  0  0  0  0  0  0  0  0
  -28.3902  -11.3899   17.5610 F   0  0  0  0  0  0  0  0  0  0  0  0
  1  2  1  0  0  0  0
  1  5  2  0  0  0  0
  2  6  2  0  0  0  0
  3 11  2  0  0  0  0
  3 22  1  0  0  0  0
  4 12  1  0  0  0  0
  4 22  2  0  0  0  0
  5 24  1  0  0  0  0
  6 26  1  0  0  0  0
  7 13  2  0  0  0  0
  7 25  1  0  0  0  0
  8 14  2  0  0  0  0
  8 28  1  0  0  0  0
  9 15  1  0  0  0  0
  9 28  2  0  0  0  0
 10 16  2  0  0  0  0
 10 29  1  0  0  0  0
 11 31  1  0  0  0  0
 12 31  2  0  0  0  0
 13 33  1  0  0  0  0
 14 32  1  0  0  0  0
 15 32  2  0  0  0  0
 16 34  1  0  0  0  0
 17 18  2  0  0  0  0
 17 35  1  0  0  0  0
 18 36  1  0  0  0  0
 19 27  1  0  0  0  0
 19 33  2  0  0  0  0
 20 30  1  0  0  0  0
 20 34  2  0  0  0  0
 21 36  2  0  0  0  0
 21 37  1  0  0  0  0
 22 38  1  0  0  0  0
 23 38  1  0  0  0  0
 23 39  2  0  0  0  0
 23 40  1  0  0  0  0
 24 26  2  0  0  0  0
 24 45  1  0  0  0  0
 25 27  2  0  0  0  0
 25 46  1  0  0  0  0
 26 54  1  0  0  0  0
 27 47  1  0  0  0  0
 28 64  1  0  0  0  0
 29 30  2  0  0  0  0
 29 57  1  0  0  0  0
 30 65  1  0  0  0  0
 31 86  1  0  0  0  0
 32 85  1  0  0  0  0
 33 87  1  0  0  0  0
 34 85  1  0  0  0  0
 35 37  2  0  0  0  0
 35 86  1  0  0  0  0
 36 88  1  0  0  0  0
 37 89  1  0  0  0  0
 38 70  2  0  0  0  0
 39 71  1  0  0  0  0
 39 74  1  0  0  0  0
 40 75  1  0  0  0  0
 40 80  2  0  0  0  0
 41 55  1  0  0  0  0
 41 76  1  0  0  0  0
 41 81  2  0  0  0  0
 42 66  1  0  0  0  0
 42 72  1  0  0  0  0
 42 82  2  0  0  0  0
 43 67  1  0  0  0  0
 43 77  1  0  0  0  0
 43 83  2  0  0  0  0
 44 73  1  0  0  0  0
 44 78  1  0  0  0  0
 44 84  2  0  0  0  0
 45 48  1  0  0  0  0
 46 55  1  0  0  0  0
 47 72  1  0  0  0  0
 48 50  1  0  0  0  0
 49 51  1  0  0  0  0
 49 52  1  0  0  0  0
 50 54  1  0  0  0  0
 51 56  1  0  0  0  0
 52 73  1  0  0  0  0
 53 56  1  0  0  0  0
 53 73  1  0  0  0  0
 54 76  1  0  0  0  0
 55 72  1  0  0  0  0
 56 71  1  0  0  0  0
 58 67  1  0  0  0  0
 59 68  1  0  0  0  0
 60 69  1  0  0  0  0
 61 69  1  0  0  0  0
 62 69  1  0  0  0  0
 63 79  1  0  0  0  0
 64 68  1  0  0  0  0
 65 78  1  0  0  0  0
 66 69  1  0  0  0  0
 66 77  1  0  0  0  0
 67 79  1  0  0  0  0
 68 87  1  0  0  0  0
 70 71  1  0  0  0  0
M  CHG  1  79   1
M  ISO  4  44 100  68 101  78 100  87 101
M  END
> <Batch ID>
0136

> <Smiles>
CNC(C)C(=O)NC(C(=O)N1Cc2cc([101O:1][101CH:1](C)Cc3ccc(Oc4ccc(C)c(C[100NH:0][100C:0](=O)N5CCCC(n6nc(-c7ccc(Oc8ccc(F)cc8F)cc7)c(C(N)=O)c6N)C5)c4)cc3)ccc2CC1C(=O)NC1CCCc2ccccc21)C(C)(C)C

> <Shape>
0.228

> <Color>
0.088

> <Negative vol penalty>
0.000

$$$$

  -OEChem-04052302393D

 84 92  0     1  0  0  0  0  0999 V2000
  -29.6569  -29.7451   19.5741 C   0  0  0  0  0  0  0  0  0  0  0  0
  -28.5837  -28.8801   19.7621 C   0  0  0  0  0  0  0  0  0  0  0  0
  -24.3663  -17.2668   18.0513 C   0  0  0  0  0  0  0  0  0  0  0  0
  -23.5402  -18.4108   20.0124 C   0  0  0  0  0  0  0  0  0  0  0  0
  -30.8384  -29.2742   19.0028 C   0  0  0  0  0  0  0  0  0  0  0  0
  -28.6909  -27.5439   19.3779 C   0  0  0  0  0  0  0  0  0  0  0  0
  -26.8760  -24.3648   22.8771 C   0  0  0  0  0  0  0  0  0  0  0  0
  -19.4643  -26.0039   22.5215 C   0  0  0  0  0  0  0  0  0  0  0  0
  -19.9413  -27.2693   22.8633 C   0  0  0  0  0  0  0  0  0  0  0  0
  -24.9732  -16.3101   18.8649 C   0  0  0  0  0  0  0  0  0  0  0  0
  -24.1470  -17.4540   20.8261 C   0  0  0  0  0  0  0  0  0  0  0  0
  -25.4910  -24.2244   22.9527 C   0  0  0  0  0  0  0  0  0  0  0  0
  -24.0360  -13.5747   20.6178 C   0  0  0  0  0  0  0  0  0  0  0  0
  -23.8874  -12.2339   20.2633 C   0  0  0  0  0  0  0  0  0  0  0  0
  -25.6367  -22.1707   21.6955 C   0  0  0  0  0  0  0  0  0  0  0  0
  -21.3734  -27.2549   20.9175 C   0  0  0  0  0  0  0  0  0  0  0  0
  -26.2856  -12.0216   20.0610 C   0  0  0  0  0  0  0  0  0  0  0  0
  -23.6499  -18.3172   18.6250 C   0  0  0  0  0  0  0  0  0  0  0  0
  -22.0359  -19.0873   16.8058 C   0  0  0  0  0  0  0  0  0  0  0  0
  -30.9636  -27.9294   18.6203 C   0  0  0  0  0  0  0  0  0  0  0  0
  -27.6520  -23.4133   22.1997 C   0  0  0  0  0  0  0  0  0  0  0  0
  -29.8747  -27.0550   18.7998 C   0  0  0  0  0  0  0  0  0  0  0  0
  -27.0316  -22.3000   21.6150 C   0  0  0  0  0  0  0  0  0  0  0  0
  -19.9419  -25.3639   21.3778 C   0  0  0  0  0  0  0  0  0  0  0  0
  -20.8958  -27.8948   22.0613 C   0  0  0  0  0  0  0  0  0  0  0  0
  -20.8964  -25.9895   20.5758 C   0  0  0  0  0  0  0  0  0  0  0  0
  -24.8635  -16.4037   20.2523 C   0  0  0  0  0  0  0  0  0  0  0  0
  -24.8708  -23.1288   22.3594 C   0  0  0  0  0  0  0  0  0  0  0  0
  -25.3094  -14.1390   20.6938 C   0  0  0  0  0  0  0  0  0  0  0  0
  -25.0122  -11.4573   19.9850 C   0  0  0  0  0  0  0  0  0  0  0  0
  -26.4342  -13.3625   20.4155 C   0  0  0  0  0  0  0  0  0  0  0  0
  -23.0233  -19.3061   17.7850 C   0  0  0  0  0  0  0  0  0  0  0  0
  -21.7761  -20.3356   16.2952 C   0  0  0  0  0  0  0  0  0  0  0  0
  -21.4095  -17.8649   16.3945 C   0  0  0  0  0  0  0  0  0  0  0  0
  -29.5710  -23.4759   19.6664 C   0  0  0  0  0  0  0  0  0  0  0  0
  -30.1776  -20.4107   20.5373 C   0  0  0  0  0  0  0  0  0  0  0  0
  -29.1306  -17.6001   22.1656 C   0  0  0  0  0  0  0  0  0  0  0  0
  -22.3420  -25.8536   18.5171 C   0  0  0  0  0  0  0  0  0  0  0  0
  -32.2439  -27.4776   17.9635 C   0  0  0  0  0  0  0  0  0  0  0  0
  -29.1476  -23.5652   22.1501 C   0  0  0  0  0  0  0  0  0  0  0  0
  -27.8216  -21.2398   20.8936 C   0  0  0  0  0  0  0  0  0  0  0  0
  -32.4078  -25.9603   17.9280 C   0  0  0  0  0  0  0  0  0  0  0  0
  -23.8554  -24.5855   15.5542 C   0  0  0  0  0  0  0  0  0  0  0  0
  -31.1183  -25.2950   17.4575 C   0  0  0  0  0  0  0  0  0  0  0  0
  -23.7184  -23.0680   15.6981 C   0  0  0  0  0  0  0  0  0  0  0  0
  -24.1303  -25.2600   16.8971 C   0  0  0  0  0  0  0  0  0  0  0  0
  -23.0404  -23.4121   18.1082 C   0  0  0  0  0  0  0  0  0  0  0  0
  -29.9612  -25.5930   18.4188 C   0  0  1  0  0  0  0  0  0  0  0  0
  -29.7875  -22.8043   20.9930 C   0  0  1  0  0  0  0  0  0  0  0  0
  -22.6984  -22.6954   16.7918 C   0  0  2  0  0  0  0  0  0  0  0  0
  -29.8250  -15.2422   22.6709 C   0  0  0  0  0  0  0  0  0  0  0  0
  -21.9291  -21.5964   24.7128 C   0  0  0  0  0  0  0  0  0  0  0  0
  -29.4571  -19.5905   17.6881 C   0  0  0  0  0  0  0  0  0  0  0  0
  -29.2422  -17.2306   18.4961 C   0  0  0  0  0  0  0  0  0  0  0  0
  -31.4388  -18.4031   18.6460 C   0  0  0  0  0  0  0  0  0  0  0  0
  -29.1256  -18.1007   25.0825 C   0  0  0  0  0  0  0  0  0  0  0  0
  -19.4082  -23.9962   21.0332 C   0  0  0  0  0  0  0  0  0  0  0  0
  -20.3792  -22.8541   21.3587 C   0  0  0  0  0  0  0  0  0  0  0  0
  -20.7519  -22.7939   22.8456 C   0  0  0  0  0  0  0  0  0  0  0  0
  -23.0020  -21.6596   22.4303 C   0  0  0  0  0  0  0  0  0  1  0  0
  -29.5700  -19.0671   20.2139 C   0  0  1  0  0  0  0  0  0  0  0  0
  -29.8354  -16.6852   23.1508 C   0  0  2  0  0  0  0  0  0  0  0  0
  -21.6756  -21.6122   23.1997 C   0  0  1  0  0  0  0  0  0  0  0  0
  -29.9117  -18.5936   18.7729 C   0  0  0  0  0  0  0  0  0  0  0  0
  -23.3675  -20.5922   17.8918 N   0  0  0  0  0  0  0  0  0  0  0  0
  -22.5921  -21.1928   16.9730 N   0  0  0  0  0  0  0  0  0  0  0  0
  -29.2804  -21.4364   20.8669 N   0  0  0  0  0  0  0  0  0  0  0  0
  -23.1218  -24.8638   17.8824 N   0  0  0  0  0  0  0  0  0  0  0  0
  -21.3779  -29.1743   22.4072 N   0  0  0  0  0  0  0  0  0  0  0  0
  -20.9315  -20.7727   15.3370 N   0  0  0  0  0  0  0  0  0  0  0  0
  -20.2396  -17.4597   17.0514 N   0  0  0  0  0  0  0  0  0  0  0  0
  -21.3937  -25.3557   19.4101 N   0  0  0  0  0  0  0  0  0  0  0  0
  -30.0616  -24.7661   19.6023 N   0  0  0  0  0  0  0  0  0  0  0  0
  -30.0129  -18.1555   21.2632 N   0  0  0  0  0  0  0  0  0  0  0  0
  -29.1662  -16.7428   24.4811 N   0  3  0  0  0  0  0  0  0  0  0  0
  -21.8825  -17.1447   15.4829 O   0  0  0  0  0  0  0  0  0  0  0  0
  -29.0022  -22.8680   18.7672 O   0  0  0  0  0  0  0  0  0  0  0  0
  -31.4036  -20.5432   20.5060 O   0  0  0  0  0  0  0  0  0  0  0  0
  -27.9180  -17.7990   22.1914 O   0  0  0  0  0  0  0  0  0  0  0  0
  -22.4849  -27.0528   18.2653 O   0  0  0  0  0  0  0  0  0  0  0  0
  -25.4553  -15.4702   21.0466 O   0  0  0  0  0  0  0  0  0  0  0  0
  -23.5190  -22.9896   22.4310 O   0  0  0  0  0  0  0  0  0  1  0  0
  -24.8694  -10.1693   19.6461 F   0  0  0  0  0  0  0  0  0  0  0  0
  -27.6601  -13.8987   20.4880 F   0  0  0  0  0  0  0  0  0  0  0  0
  1  2  1  0  0  0  0
  1  5  2  0  0  0  0
  2  6  2  0  0  0  0
  3 10  2  0  0  0  0
  3 18  1  0  0  0  0
  4 11  1  0  0  0  0
  4 18  2  0  0  0  0
  5 20  1  0  0  0  0
  6 22  1  0  0  0  0
  7 12  2  0  0  0  0
  7 21  1  0  0  0  0
  8  9  2  0  0  0  0
  8 24  1  0  0  0  0
  9 25  1  0  0  0  0
 10 27  1  0  0  0  0
 11 27  2  0  0  0  0
 12 28  1  0  0  0  0
 13 14  2  0  0  0  0
 13 29  1  0  0  0  0
 14 30  1  0  0  0  0
 15 23  1  0  0  0  0
 15 28  2  0  0  0  0
 16 25  2  0  0  0  0
 16 26  1  0  0  0  0
 17 30  2  0  0  0  0
 17 31  1  0  0  0  0
 18 32  1  0  0  0  0
 19 32  1  0  0  0  0
 19 33  2  0  0  0  0
 19 34  1  0  0  0  0
 20 22  2  0  0  0  0
 20 39  1  0  0  0  0
 21 23  2  0  0  0  0
 21 40  1  0  0  0  0
 22 48  1  0  0  0  0
 23 41  1  0  0  0  0
 24 26  2  0  0  0  0
 24 57  1  0  0  0  0
 25 69  1  0  0  0  0
 26 72  1  0  0  0  0
 27 81  1  0  0  0  0
 28 82  1  0  0  0  0
 29 31  2  0  0  0  0
 29 81  1  0  0  0  0
 30 83  1  0  0  0  0
 31 84  1  0  0  0  0
 32 65  2  0  0  0  0
 33 66  1  0  0  0  0
 33 70  1  0  0  0  0
 34 71  1  0  0  0  0
 34 76  2  0  0  0  0
 35 49  1  0  0  0  0
 35 73  1  0  0  0  0
 35 77  2  0  0  0  0
 36 61  1  0  0  0  0
 36 67  1  0  0  0  0
 36 78  2  0  0  0  0
 37 62  1  0  0  0  0
 37 74  1  0  0  0  0
 37 79  2  0  0  0  0
 38 68  1  0  0  0  0
 38 72  1  0  0  0  0
 38 80  2  0  0  0  0
 39 42  1  0  0  0  0
 40 49  1  0  0  0  0
 41 67  1  0  0  0  0
 42 44  1  0  0  0  0
 43 45  1  0  0  0  0
 43 46  1  0  0  0  0
 44 48  1  0  0  0  0
 45 50  1  0  0  0  0
 46 68  1  0  0  0  0
 47 50  1  0  0  0  0
 47 68  1  0  0  0  0
 48 73  1  0  0  0  0
 49 67  1  0  0  0  0
 50 66  1  0  0  0  0
 51 62  1  0  0  0  0
 52 63  1  0  0  0  0
 53 64  1  0  0  0  0
 54 64  1  0  0  0  0
 55 64  1  0  0  0  0
 56 75  1  0  0  0  0
 57 58  1  0  0  0  0
 58 59  1  0  0  0  0
 59 63  1  0  0  0  0
 60 63  1  0  0  0  0
 60 82  1  0  0  0  0
 61 64  1  0  0  0  0
 61 74  1  0  0  0  0
 62 75  1  0  0  0  0
 65 66  1  0  0  0  0
M  CHG  1  75   1
M  ISO  4  38 100  60 101  72 100  82 101
M  END
> <Batch ID>
0136

> <Smiles>
CNC(C)C(=O)NC(C(=O)N1Cc2cc([101O:1][101CH2:1]C(C)CCCc3ccc(N)cc3[100NH:0][100C:0](=O)N3CCCC(n4nc(-c5ccc(Oc6ccc(F)cc6F)cc5)c(C(N)=O)c4N)C3)ccc2CC1C(=O)NC1CCCc2ccccc21)C(C)(C)C

> <Shape>
0.192

> <Color>
0.064

> <Negative vol penalty>
0.000

$$$$

  -OEChem-04052302393D

 93101  0     1  0  0  0  0  0999 V2000
  -34.6573  -16.1426   20.4794 C   0  0  0  0  0  0  0  0  0  0  0  0
  -34.1436  -15.6653   21.6809 C   0  0  0  0  0  0  0  0  0  0  0  0
  -23.2882   -9.8003   19.9131 C   0  0  0  0  0  0  0  0  0  0  0  0
  -23.7416   -9.9399   22.2820 C   0  0  0  0  0  0  0  0  0  0  0  0
  -35.0288  -17.4815   20.3642 C   0  0  0  0  0  0  0  0  0  0  0  0
  -34.0021  -16.5266   22.7685 C   0  0  0  0  0  0  0  0  0  0  0  0
  -29.5828  -16.4095   27.0066 C   0  0  0  0  0  0  0  0  0  0  0  0
  -22.5625   -8.6273   20.1211 C   0  0  0  0  0  0  0  0  0  0  0  0
  -23.0159   -8.7670   22.4901 C   0  0  0  0  0  0  0  0  0  0  0  0
  -29.5345  -15.8842   28.2972 C   0  0  0  0  0  0  0  0  0  0  0  0
  -19.7695   -7.8545   22.7107 C   0  0  0  0  0  0  0  0  0  0  0  0
  -18.8684   -7.8319   23.7751 C   0  0  0  0  0  0  0  0  0  0  0  0
  -30.0866  -18.0543   29.1945 C   0  0  0  0  0  0  0  0  0  0  0  0
  -32.8178  -12.2747   23.6815 C   0  0  0  0  0  0  0  0  0  0  0  0
  -33.0147  -11.9647   26.0694 C   0  0  0  0  0  0  0  0  0  0  0  0
  -30.8921  -12.5974   25.1044 C   0  0  0  0  0  0  0  0  0  0  0  0
  -20.0760   -5.9847   24.7583 C   0  0  0  0  0  0  0  0  0  0  0  0
  -23.8778  -10.4566   20.9935 C   0  0  0  0  0  0  0  0  0  0  0  0
  -24.1358  -12.9868   20.7958 C   0  0  0  0  0  0  0  0  0  0  0  0
  -34.8828  -18.3618   21.4479 C   0  0  0  0  0  0  0  0  0  0  0  0
  -29.8946  -17.7609   26.7994 C   0  0  0  0  0  0  0  0  0  0  0  0
  -34.3733  -17.8782   22.6681 C   0  0  0  0  0  0  0  0  0  0  0  0
  -30.1357  -18.5948   27.9005 C   0  0  0  0  0  0  0  0  0  0  0  0
  -33.5910  -11.9605   24.7991 C   0  0  0  0  0  0  0  0  0  0  0  0
  -31.4683  -12.5932   23.8342 C   0  0  0  0  0  0  0  0  0  0  0  0
  -22.4264   -8.1107   21.4095 C   0  0  0  0  0  0  0  0  0  0  0  0
  -29.7893  -16.7059   29.3912 C   0  0  0  0  0  0  0  0  0  0  0  0
  -20.8239   -6.9421   22.6700 C   0  0  0  0  0  0  0  0  0  0  0  0
  -31.6653  -12.2831   26.2221 C   0  0  0  0  0  0  0  0  0  0  0  0
  -19.0216   -6.8971   24.7989 C   0  0  0  0  0  0  0  0  0  0  0  0
  -20.9771   -6.0073   23.6938 C   0  0  0  0  0  0  0  0  0  0  0  0
  -24.6279  -11.6679   20.7792 C   0  0  0  0  0  0  0  0  0  0  0  0
  -25.2367  -13.7673   20.5400 C   0  0  0  0  0  0  0  0  0  0  0  0
  -22.8028  -13.4637   21.0224 C   0  0  0  0  0  0  0  0  0  0  0  0
  -32.2274  -19.3215   25.3072 C   0  0  0  0  0  0  0  0  0  0  0  0
  -30.5342  -13.3202   30.1730 C   0  0  0  0  0  0  0  0  0  0  0  0
  -30.4233  -21.9186   26.0302 C   0  0  0  0  0  0  0  0  0  0  0  0
  -28.0586  -23.3343   28.0427 C   0  0  0  0  0  0  0  0  0  0  0  0
  -31.0983  -12.9550   21.3687 C   0  0  0  0  0  0  0  0  0  0  0  0
  -35.3423  -19.7896   21.2903 C   0  0  0  0  0  0  0  0  0  0  0  0
  -29.9164  -18.3183   25.4025 C   0  0  0  0  0  0  0  0  0  0  0  0
  -30.4550  -20.0571   27.7329 C   0  0  0  0  0  0  0  0  0  0  0  0
  -34.8107  -20.7237   22.3743 C   0  0  0  0  0  0  0  0  0  0  0  0
  -29.4611  -13.6602   18.2866 C   0  0  0  0  0  0  0  0  0  0  0  0
  -34.9789  -20.0924   23.7527 C   0  0  0  0  0  0  0  0  0  0  0  0
  -27.9902  -13.3552   18.5794 C   0  0  0  0  0  0  0  0  0  0  0  0
  -30.3955  -12.6851   19.0006 C   0  0  0  0  0  0  0  0  0  0  0  0
  -28.7044  -12.2555   20.7398 C   0  0  0  0  0  0  0  0  0  0  0  0
  -34.1815  -18.7872   23.8627 C   0  0  1  0  0  0  0  0  0  0  0  0
  -30.7493  -19.5905   25.2798 C   0  0  1  0  0  0  0  0  0  0  0  0
  -27.7269  -13.2513   20.0944 C   0  0  2  0  0  0  0  0  0  0  0  0
  -35.8895  -14.0338   25.1430 C   0  0  0  0  0  0  0  0  0  0  0  0
  -26.8162  -25.4832   28.4117 C   0  0  0  0  0  0  0  0  0  0  0  0
  -35.5698  -11.6484   23.1630 C   0  0  0  0  0  0  0  0  0  0  0  0
  -35.2977  -10.1564   25.1235 C   0  0  0  0  0  0  0  0  0  0  0  0
  -30.0365  -10.8817   29.7890 C   0  0  0  0  0  0  0  0  0  0  0  0
  -32.0855  -11.5580   31.0438 C   0  0  0  0  0  0  0  0  0  0  0  0
  -32.9107  -23.1335   27.3134 C   0  0  0  0  0  0  0  0  0  0  0  0
  -31.4241  -24.7863   28.4652 C   0  0  0  0  0  0  0  0  0  0  0  0
  -31.5382  -24.7385   25.9737 C   0  0  0  0  0  0  0  0  0  0  0  0
  -31.9885  -16.8051   31.1913 C   0  0  0  0  0  0  0  0  0  0  0  0
  -30.7066  -15.1923   32.6100 C   0  0  0  0  0  0  0  0  0  0  0  0
  -25.4431  -22.0434   27.5411 C   0  0  0  0  0  0  0  0  0  0  0  0
  -31.4706  -14.5258   30.2728 C   0  0  0  0  0  0  0  0  0  0  0  0
  -35.9847  -12.5499   25.4860 C   0  0  0  0  0  0  0  0  0  0  0  0
  -31.9515  -11.9571   28.5604 C   0  0  0  0  0  0  0  0  0  0  0  0
  -30.3446  -22.8747   27.1958 C   0  0  1  0  0  0  0  0  0  0  0  0
  -26.8059  -24.1289   27.7201 C   0  0  2  0  0  0  0  0  0  0  0  0
  -35.0337  -11.6202   24.6362 C   0  0  0  0  0  0  0  0  0  0  0  0
  -31.1577  -11.9361   29.8796 C   0  0  0  0  0  0  0  0  0  0  0  0
  -31.5503  -23.8553   27.2404 C   0  0  0  0  0  0  0  0  0  0  0  0
  -30.9641  -15.6644   31.1775 C   0  0  0  0  0  0  0  0  0  1  0  0
  -25.9393  -11.6099   20.5322 N   0  0  0  0  0  0  0  0  0  0  0  0
  -26.2805  -12.9021   20.3911 N   0  0  0  0  0  0  0  0  0  0  0  0
  -30.4707  -20.5536   26.3470 N   0  0  0  0  0  0  0  0  0  0  0  0
  -30.0903  -12.6424   20.4323 N   0  0  0  0  0  0  0  0  0  0  0  0
  -25.4039  -15.1023   20.4300 N   0  0  0  0  0  0  0  0  0  0  0  0
  -21.7910  -12.5263   21.2706 N   0  0  0  0  0  0  0  0  0  0  0  0
  -30.6826  -12.9127   22.6991 N   0  0  0  0  0  0  0  0  0  0  0  0
  -32.7764  -19.0689   24.0646 N   0  0  0  0  0  0  0  0  0  0  0  0
  -29.0447  -23.5300   27.0991 N   0  0  0  0  0  0  0  0  0  0  0  0
  -25.5925  -23.3849   28.1616 N   0  3  0  0  0  0  0  0  0  0  0  0
  -22.5144  -14.6840   20.9890 O   0  0  0  0  0  0  0  0  0  0  0  0
  -32.8256  -19.3430   26.3765 O   0  0  0  0  0  0  0  0  0  0  0  0
  -29.3149  -13.4567   30.2983 O   0  0  0  0  0  0  0  0  0  0  0  0
  -30.4349  -22.3660   24.8807 O   0  0  0  0  0  0  0  0  0  0  0  0
  -28.1541  -22.6152   29.0348 O   0  0  0  0  0  0  0  0  0  0  0  0
  -32.2386  -13.2660   21.0152 O   0  0  0  0  0  0  0  0  0  0  0  0
  -21.7182   -6.9663   21.6129 O   0  0  0  0  0  0  0  0  0  0  0  0
  -31.0995  -12.2876   27.4696 O   0  0  0  0  0  0  0  0  0  0  0  0
  -29.7432  -16.1931   30.6581 O   0  0  0  0  0  0  0  0  0  1  0  0
  -18.1571   -6.8765   25.8218 F   0  0  0  0  0  0  0  0  0  0  0  0
  -21.9888   -5.1291   23.6608 F   0  0  0  0  0  0  0  0  0  0  0  0
  1  2  1  0  0  0  0
  1  5  2  0  0  0  0
  2  6  2  0  0  0  0
  3  8  2  0  0  0  0
  3 18  1  0  0  0  0
  4  9  1  0  0  0  0
  4 18  2  0  0  0  0
  5 20  1  0  0  0  0
  6 22  1  0  0  0  0
  7 10  2  0  0  0  0
  7 21  1  0  0  0  0
  8 26  1  0  0  0  0
  9 26  2  0  0  0  0
 10 27  1  0  0  0  0
 11 12  2  0  0  0  0
 11 28  1  0  0  0  0
 12 30  1  0  0  0  0
 13 23  1  0  0  0  0
 13 27  2  0  0  0  0
 14 24  1  0  0  0  0
 14 25  2  0  0  0  0
 15 24  2  0  0  0  0
 15 29  1  0  0  0  0
 16 25  1  0  0  0  0
 16 29  2  0  0  0  0
 17 30  2  0  0  0  0
 17 31  1  0  0  0  0
 18 32  1  0  0  0  0
 19 32  1  0  0  0  0
 19 33  2  0  0  0  0
 19 34  1  0  0  0  0
 20 22  2  0  0  0  0
 20 40  1  0  0  0  0
 21 23  2  0  0  0  0
 21 41  1  0  0  0  0
 22 49  1  0  0  0  0
 23 42  1  0  0  0  0
 24 69  1  0  0  0  0
 25 79  1  0  0  0  0
 26 89  1  0  0  0  0
 27 91  1  0  0  0  0
 28 31  2  0  0  0  0
 28 89  1  0  0  0  0
 29 90  1  0  0  0  0
 30 92  1  0  0  0  0
 31 93  1  0  0  0  0
 32 73  2  0  0  0  0
 33 74  1  0  0  0  0
 33 77  1  0  0  0  0
 34 78  1  0  0  0  0
 34 83  2  0  0  0  0
 35 50  1  0  0  0  0
 35 80  1  0  0  0  0
 35 84  2  0  0  0  0
 36 64  1  0  0  0  0
 36 70  1  0  0  0  0
 36 85  2  0  0  0  0
 37 67  1  0  0  0  0
 37 75  1  0  0  0  0
 37 86  2  0  0  0  0
 38 68  1  0  0  0  0
 38 81  1  0  0  0  0
 38 87  2  0  0  0  0
 39 76  1  0  0  0  0
 39 79  1  0  0  0  0
 39 88  2  0  0  0  0
 40 43  1  0  0  0  0
 41 50  1  0  0  0  0
 42 75  1  0  0  0  0
 43 45  1  0  0  0  0
 44 46  1  0  0  0  0
 44 47  1  0  0  0  0
 45 49  1  0  0  0  0
 46 51  1  0  0  0  0
 47 76  1  0  0  0  0
 48 51  1  0  0  0  0
 48 76  1  0  0  0  0
 49 80  1  0  0  0  0
 50 75  1  0  0  0  0
 51 74  1  0  0  0  0
 52 65  1  0  0  0  0
 53 68  1  0  0  0  0
 54 69  1  0  0  0  0
 55 69  1  0  0  0  0
 56 70  1  0  0  0  0
 57 70  1  0  0  0  0
 58 71  1  0  0  0  0
 59 71  1  0  0  0  0
 60 71  1  0  0  0  0
 61 72  1  0  0  0  0
 62 72  1  0  0  0  0
 63 82  1  0  0  0  0
 64 72  1  0  0  0  0
 65 69  1  0  0  0  0
 66 70  1  0  0  0  0
 66 90  1  0  0  0  0
 67 71  1  0  0  0  0
 67 81  1  0  0  0  0
 68 82  1  0  0  0  0
 72 91  1  0  0  0  0
 73 74  1  0  0  0  0
M  CHG  1  82   1
M  ISO  4  39 100  72 101  79 100  91 101
M  END
> <Batch ID>
0136

> <Smiles>
CCC(C)(C)c1cc([100NH:0][100C:0](=O)N2CCCC(n3nc(-c4ccc(Oc5ccc(F)cc5F)cc4)c(C(N)=O)c3N)C2)cc(OCC(C)(C)C(=O)C[101C:1](C)(C)[101O:1]c2ccc3c(c2)CN(C(=O)C(NC(=O)C(C)NC)C(C)(C)C)C(C(=O)NC2CCCc4ccccc42)C3)c1

> <Shape>
0.130

> <Color>
0.161

> <Negative vol penalty>
0.000

$$$$

  -OEChem-04052302393D

 90 98  0     1  0  0  0  0  0999 V2000
  -28.5042  -32.5301   25.6863 C   0  0  0  0  0  0  0  0  0  0  0  0
  -28.4016  -31.1871   25.3379 C   0  0  0  0  0  0  0  0  0  0  0  0
  -23.8185  -13.4250   24.9906 C   0  0  0  0  0  0  0  0  0  0  0  0
  -23.6086  -15.4717   23.7241 C   0  0  0  0  0  0  0  0  0  0  0  0
  -27.3615  -33.3279   25.7264 C   0  0  0  0  0  0  0  0  0  0  0  0
  -27.1559  -30.6410   25.0305 C   0  0  0  0  0  0  0  0  0  0  0  0
  -27.2839  -27.7150   20.8992 C   0  0  0  0  0  0  0  0  0  0  0  0
  -23.1058  -14.0022   26.0415 C   0  0  0  0  0  0  0  0  0  0  0  0
  -22.8958  -16.0489   24.7750 C   0  0  0  0  0  0  0  0  0  0  0  0
  -27.8035  -26.4295   21.0453 C   0  0  0  0  0  0  0  0  0  0  0  0
  -19.7454  -15.9541   25.9941 C   0  0  0  0  0  0  0  0  0  0  0  0
  -18.5912  -16.6698   25.6763 C   0  0  0  0  0  0  0  0  0  0  0  0
  -25.5627  -25.5426   21.1524 C   0  0  0  0  0  0  0  0  0  0  0  0
  -31.4334  -19.7747   18.7543 C   0  0  0  0  0  0  0  0  0  0  0  0
  -31.8786  -17.5535   19.5937 C   0  0  0  0  0  0  0  0  0  0  0  0
  -29.6297  -18.1825   18.9741 C   0  0  0  0  0  0  0  0  0  0  0  0
  -19.5524  -18.6564   26.6595 C   0  0  0  0  0  0  0  0  0  0  0  0
  -24.0700  -14.1598   23.8319 C   0  0  0  0  0  0  0  0  0  0  0  0
  -24.2820  -12.8386   21.6600 C   0  0  0  0  0  0  0  0  0  0  0  0
  -26.1025  -32.7936   25.4098 C   0  0  0  0  0  0  0  0  0  0  0  0
  -25.8976  -27.9255   20.8896 C   0  0  0  0  0  0  0  0  0  0  0  0
  -25.9951  -31.4321   25.0676 C   0  0  0  0  0  0  0  0  0  0  0  0
  -25.0281  -26.8314   21.0035 C   0  0  0  0  0  0  0  0  0  0  0  0
  -32.3314  -18.8247   19.2406 C   0  0  0  0  0  0  0  0  0  0  0  0
  -30.0825  -19.4537   18.6211 C   0  0  0  0  0  0  0  0  0  0  0  0
  -30.5277  -17.2324   19.4605 C   0  0  0  0  0  0  0  0  0  0  0  0
  -22.6444  -15.3141   25.9337 C   0  0  0  0  0  0  0  0  0  0  0  0
  -26.9429  -25.3434   21.1748 C   0  0  0  0  0  0  0  0  0  0  0  0
  -20.8031  -16.5894   26.6447 C   0  0  0  0  0  0  0  0  0  0  0  0
  -18.4947  -18.0210   26.0089 C   0  0  0  0  0  0  0  0  0  0  0  0
  -20.7066  -17.9406   26.9774 C   0  0  0  0  0  0  0  0  0  0  0  0
  -24.8067  -13.5643   22.7462 C   0  0  0  0  0  0  0  0  0  0  0  0
  -25.3826  -12.4915   20.9152 C   0  0  0  0  0  0  0  0  0  0  0  0
  -22.9214  -12.5078   21.3518 C   0  0  0  0  0  0  0  0  0  0  0  0
  -23.8602  -29.5339   22.7242 C   0  0  0  0  0  0  0  0  0  0  0  0
  -29.1043  -21.7442   19.0375 C   0  0  0  0  0  0  0  0  0  0  0  0
  -21.7286  -28.6797   20.4331 C   0  0  0  0  0  0  0  0  0  0  0  0
  -20.8703  -26.5182   17.9355 C   0  0  0  0  0  0  0  0  0  0  0  0
  -30.8262  -14.8822   20.3173 C   0  0  0  0  0  0  0  0  0  0  0  0
  -24.8894  -33.6837   25.5130 C   0  0  0  0  0  0  0  0  0  0  0  0
  -25.3529  -29.3153   20.7043 C   0  0  0  0  0  0  0  0  0  0  0  0
  -23.5318  -27.0016   20.9788 C   0  0  0  0  0  0  0  0  0  0  0  0
  -23.6580  -33.1191   24.8092 C   0  0  0  0  0  0  0  0  0  0  0  0
  -30.0602  -11.5633   21.3541 C   0  0  0  0  0  0  0  0  0  0  0  0
  -23.4674  -31.6481   25.1651 C   0  0  0  0  0  0  0  0  0  0  0  0
  -28.5768  -11.6323   21.7241 C   0  0  0  0  0  0  0  0  0  0  0  0
  -30.8005  -12.8433   21.7376 C   0  0  0  0  0  0  0  0  0  0  0  0
  -28.7182  -14.1524   21.5978 C   0  0  0  0  0  0  0  0  0  0  0  0
  -24.6650  -30.8091   24.7033 C   0  0  1  0  0  0  0  0  0  0  0  0
  -23.9274  -29.4726   21.2244 C   0  0  1  0  0  0  0  0  0  0  0  0
  -27.9172  -12.9112   21.1720 C   0  0  2  0  0  0  0  0  0  0  0  0
  -33.7757  -19.1681   19.3832 C   0  0  0  0  0  0  0  0  0  0  0  0
  -29.6506  -19.8602   15.6116 C   0  0  0  0  0  0  0  0  0  0  0  0
  -26.5857  -21.0058   17.4896 C   0  0  0  0  0  0  0  0  0  0  0  0
  -19.0514  -26.0549   16.2699 C   0  0  0  0  0  0  0  0  0  0  0  0
  -19.9866  -27.5302   22.6589 C   0  0  0  0  0  0  0  0  0  0  0  0
  -18.7038  -26.2764   20.9123 C   0  0  0  0  0  0  0  0  0  0  0  0
  -18.7312  -28.7707   20.8870 C   0  0  0  0  0  0  0  0  0  0  0  0
  -30.8617  -22.4385   21.5539 C   0  0  0  0  0  0  0  0  0  0  0  0
  -28.8454  -22.0214   22.9468 C   0  0  0  0  0  0  0  0  0  0  0  0
  -22.7129  -26.8809   15.6481 C   0  0  0  0  0  0  0  0  0  0  0  0
  -28.7169  -21.5228   20.5072 C   0  0  0  0  0  0  0  0  0  0  0  0
  -29.5629  -20.9660   16.6603 C   0  0  0  0  0  0  0  0  0  0  0  0
  -27.6086  -20.0009   18.0163 C   0  0  0  0  0  0  0  0  0  0  0  0
  -28.8672  -23.9543   21.3276 C   0  0  0  0  0  0  0  0  0  1  0  0
  -20.8111  -27.5014   20.2124 C   0  0  1  0  0  0  0  0  0  0  0  0
  -20.3757  -26.7591   16.5206 C   0  0  2  0  0  0  0  0  0  0  0  0
  -29.0871  -20.5071   18.0817 C   0  0  0  0  0  0  0  0  0  0  0  0
  -19.5863  -27.5163   21.1701 C   0  0  0  0  0  0  0  0  0  0  0  0
  -29.3224  -22.4957   21.5536 C   0  0  0  0  0  0  0  0  0  0  0  0
  -26.1372  -13.6725   22.6995 N   0  0  0  0  0  0  0  0  0  0  0  0
  -26.4578  -13.0100   21.5750 N   0  0  0  0  0  0  0  0  0  0  0  0
  -23.0478  -28.3808   20.8018 N   0  0  0  0  0  0  0  0  0  0  0  0
  -30.1209  -14.0129   21.1762 N   0  0  0  0  0  0  0  0  0  0  0  0
  -25.5259  -11.7965   19.7668 N   0  0  0  0  0  0  0  0  0  0  0  0
  -21.9140  -12.9431   22.2236 N   0  0  0  0  0  0  0  0  0  0  0  0
  -30.0677  -15.9410   19.8191 N   0  0  0  0  0  0  0  0  0  0  0  0
  -24.5926  -30.5662   23.2785 N   0  0  0  0  0  0  0  0  0  0  0  0
  -20.4622  -27.5154   18.7959 N   0  0  0  0  0  0  0  0  0  0  0  0
  -21.3703  -26.2558   15.5315 N   0  3  0  0  0  0  0  0  0  0  0  0
  -22.6097  -11.8318   20.3422 O   0  0  0  0  0  0  0  0  0  0  0  0
  -23.1920  -28.7067   23.3334 O   0  0  0  0  0  0  0  0  0  0  0  0
  -29.4372  -22.8565   18.6245 O   0  0  0  0  0  0  0  0  0  0  0  0
  -21.2927  -29.8231   20.2770 O   0  0  0  0  0  0  0  0  0  0  0  0
  -21.5476  -25.5411   18.2471 O   0  0  0  0  0  0  0  0  0  0  0  0
  -32.0078  -14.6856   20.0224 O   0  0  0  0  0  0  0  0  0  0  0  0
  -21.9486  -15.8776   26.9589 O   0  0  0  0  0  0  0  0  0  0  0  0
  -27.4509  -24.0788   21.3192 O   0  0  0  0  0  0  0  0  0  1  0  0
  -17.3869  -18.7087   25.7023 F   0  0  0  0  0  0  0  0  0  0  0  0
  -21.7199  -18.5567   27.6014 F   0  0  0  0  0  0  0  0  0  0  0  0
  1  2  1  0  0  0  0
  1  5  2  0  0  0  0
  2  6  2  0  0  0  0
  3  8  2  0  0  0  0
  3 18  1  0  0  0  0
  4  9  1  0  0  0  0
  4 18  2  0  0  0  0
  5 20  1  0  0  0  0
  6 22  1  0  0  0  0
  7 10  2  0  0  0  0
  7 21  1  0  0  0  0
  8 27  1  0  0  0  0
  9 27  2  0  0  0  0
 10 28  1  0  0  0  0
 11 12  2  0  0  0  0
 11 29  1  0  0  0  0
 12 30  1  0  0  0  0
 13 23  1  0  0  0  0
 13 28  2  0  0  0  0
 14 24  2  0  0  0  0
 14 25  1  0  0  0  0
 15 24  1  0  0  0  0
 15 26  2  0  0  0  0
 16 25  2  0  0  0  0
 16 26  1  0  0  0  0
 17 30  2  0  0  0  0
 17 31  1  0  0  0  0
 18 32  1  0  0  0  0
 19 32  1  0  0  0  0
 19 33  2  0  0  0  0
 19 34  1  0  0  0  0
 20 22  2  0  0  0  0
 20 40  1  0  0  0  0
 21 23  2  0  0  0  0
 21 41  1  0  0  0  0
 22 49  1  0  0  0  0
 23 42  1  0  0  0  0
 24 52  1  0  0  0  0
 25 68  1  0  0  0  0
 26 77  1  0  0  0  0
 27 87  1  0  0  0  0
 28 88  1  0  0  0  0
 29 31  2  0  0  0  0
 29 87  1  0  0  0  0
 30 89  1  0  0  0  0
 31 90  1  0  0  0  0
 32 71  2  0  0  0  0
 33 72  1  0  0  0  0
 33 75  1  0  0  0  0
 34 76  1  0  0  0  0
 34 81  2  0  0  0  0
 35 50  1  0  0  0  0
 35 78  1  0  0  0  0
 35 82  2  0  0  0  0
 36 62  1  0  0  0  0
 36 68  1  0  0  0  0
 36 83  2  0  0  0  0
 37 66  1  0  0  0  0
 37 73  1  0  0  0  0
 37 84  2  0  0  0  0
 38 67  1  0  0  0  0
 38 79  1  0  0  0  0
 38 85  2  0  0  0  0
 39 74  1  0  0  0  0
 39 77  1  0  0  0  0
 39 86  2  0  0  0  0
 40 43  1  0  0  0  0
 41 50  1  0  0  0  0
 42 73  1  0  0  0  0
 43 45  1  0  0  0  0
 44 46  1  0  0  0  0
 44 47  1  0  0  0  0
 45 49  1  0  0  0  0
 46 51  1  0  0  0  0
 47 74  1  0  0  0  0
 48 51  1  0  0  0  0
 48 74  1  0  0  0  0
 49 78  1  0  0  0  0
 50 73  1  0  0  0  0
 51 72  1  0  0  0  0
 53 63  1  0  0  0  0
 54 64  1  0  0  0  0
 55 67  1  0  0  0  0
 56 69  1  0  0  0  0
 57 69  1  0  0  0  0
 58 69  1  0  0  0  0
 59 70  1  0  0  0  0
 60 70  1  0  0  0  0
 61 80  1  0  0  0  0
 62 70  1  0  0  0  0
 63 68  1  0  0  0  0
 64 68  1  0  0  0  0
 65 70  1  0  0  0  0
 65 88  1  0  0  0  0
 66 69  1  0  0  0  0
 66 79  1  0  0  0  0
 67 80  1  0  0  0  0
 71 72  1  0  0  0  0
M  CHG  1  80   1
M  ISO  4  39 100  65 101  77 100  88 101
M  END
> <Batch ID>
0136

> <Smiles>
CCC(CC)(C(=O)CC(C)(C)[101CH2:1][101O:1]c1ccc2c(c1)CN(C(=O)C(NC(=O)C(C)NC)C(C)(C)C)C(C(=O)NC1CCCc3ccccc31)C2)c1cc(C)cc([100NH:0][100C:0](=O)N2CCCC(n3nc(-c4ccc(Oc5ccc(F)cc5F)cc4)c(C(N)=O)c3N)C2)c1

> <Shape>
0.246

> <Color>
0.079

> <Negative vol penalty>
0.000

$$$$

  -OEChem-04052302393D

 85 93  0     1  0  0  0  0  0999 V2000
  -27.6385  -23.7006   30.2202 C   0  0  0  0  0  0  0  0  0  0  0  0
  -28.3094  -24.2193   29.1174 C   0  0  0  0  0  0  0  0  0  0  0  0
  -28.1693  -23.0513   18.2847 C   0  0  0  0  0  0  0  0  0  0  0  0
  -26.3637  -12.9248   22.3946 C   0  0  0  0  0  0  0  0  0  0  0  0
  -26.6644  -13.7824   20.1560 C   0  0  0  0  0  0  0  0  0  0  0  0
  -27.8919  -22.3772   19.4739 C   0  0  0  0  0  0  0  0  0  0  0  0
  -26.3081  -23.3009   30.1008 C   0  0  0  0  0  0  0  0  0  0  0  0
  -27.6507  -24.3375   27.8941 C   0  0  0  0  0  0  0  0  0  0  0  0
  -28.4225  -28.7399   23.7073 C   0  0  0  0  0  0  0  0  0  0  0  0
  -29.1328  -24.0597   18.2630 C   0  0  0  0  0  0  0  0  0  0  0  0
  -25.8327  -11.7458   21.8717 C   0  0  0  0  0  0  0  0  0  0  0  0
  -26.1333  -12.6033   19.6330 C   0  0  0  0  0  0  0  0  0  0  0  0
  -29.1659  -28.7938   22.5291 C   0  0  0  0  0  0  0  0  0  0  0  0
  -24.0646   -8.6546   21.1355 C   0  0  0  0  0  0  0  0  0  0  0  0
  -22.9096   -8.1434   21.7272 C   0  0  0  0  0  0  0  0  0  0  0  0
  -27.1998  -28.1912   21.2680 C   0  0  0  0  0  0  0  0  0  0  0  0
  -21.7296  -10.1804   21.1838 C   0  0  0  0  0  0  0  0  0  0  0  0
  -26.7795  -13.9431   21.5368 C   0  0  0  0  0  0  0  0  0  0  0  0
  -28.5778  -22.7116   20.6415 C   0  0  0  0  0  0  0  0  0  0  0  0
  -28.6794  -15.4324   22.3615 C   0  0  0  0  0  0  0  0  0  0  0  0
  -25.6298  -23.4232   28.8778 C   0  0  0  0  0  0  0  0  0  0  0  0
  -27.0624  -28.3999   23.6758 C   0  0  0  0  0  0  0  0  0  0  0  0
  -26.3104  -23.9378   27.7578 C   0  0  0  0  0  0  0  0  0  0  0  0
  -26.4407  -28.1362   22.4470 C   0  0  0  0  0  0  0  0  0  0  0  0
  -29.5413  -23.7200   20.6198 C   0  0  0  0  0  0  0  0  0  0  0  0
  -25.7175  -11.5850   20.4909 C   0  0  0  0  0  0  0  0  0  0  0  0
  -28.5553  -28.5167   21.3095 C   0  0  0  0  0  0  0  0  0  0  0  0
  -29.8188  -24.3941   19.4306 C   0  0  0  0  0  0  0  0  0  0  0  0
  -24.0522   -9.9288   20.5680 C   0  0  0  0  0  0  0  0  0  0  0  0
  -21.7421   -8.9062   21.7513 C   0  0  0  0  0  0  0  0  0  0  0  0
  -22.8847  -10.6916   20.5921 C   0  0  0  0  0  0  0  0  0  0  0  0
  -27.3277  -15.1615   22.0764 C   0  0  0  0  0  0  0  0  0  0  0  0
  -28.6764  -16.7155   22.8517 C   0  0  0  0  0  0  0  0  0  0  0  0
  -32.1445  -28.3229   18.2564 C   0  0  0  0  0  0  0  0  0  0  0  0
  -28.2669  -21.9900   21.8683 C   0  0  0  0  0  0  0  0  0  0  0  0
  -29.8344  -14.5989   22.1978 C   0  0  0  0  0  0  0  0  0  0  0  0
  -31.1736  -27.7010   18.9440 C   0  0  0  0  0  0  0  0  0  0  0  0
  -26.9029  -22.0051   22.4449 C   0  0  0  0  0  0  0  0  0  0  0  0
  -25.3113  -26.0406   24.8885 C   0  0  0  0  0  0  0  0  0  0  0  0
  -22.8459  -27.7852   23.7050 C   0  0  0  0  0  0  0  0  0  0  0  0
  -21.7590  -30.1102   21.4555 C   0  0  0  0  0  0  0  0  0  0  0  0
  -24.2062  -22.9338   28.7852 C   0  0  0  0  0  0  0  0  0  0  0  0
  -26.2682  -28.3722   24.9528 C   0  0  0  0  0  0  0  0  0  0  0  0
  -24.9786  -27.7861   22.3570 C   0  0  0  0  0  0  0  0  0  0  0  0
  -23.4671  -23.4405   27.5494 C   0  0  0  0  0  0  0  0  0  0  0  0
  -24.8595  -19.6984   24.2781 C   0  0  0  0  0  0  0  0  0  0  0  0
  -24.3348  -23.2799   26.3052 C   0  0  0  0  0  0  0  0  0  0  0  0
  -25.4063  -18.3336   23.8608 C   0  0  0  0  0  0  0  0  0  0  0  0
  -24.9284  -20.7018   23.1314 C   0  0  0  0  0  0  0  0  0  0  0  0
  -26.8497  -19.4952   22.1308 C   0  0  0  0  0  0  0  0  0  0  0  0
  -25.6224  -24.1047   26.4203 C   0  0  1  0  0  0  0  0  0  0  0  0
  -25.0115  -27.5126   24.8563 C   0  0  1  0  0  0  0  0  0  0  0  0
  -26.8221  -18.4628   23.2714 C   0  0  2  0  0  0  0  0  0  0  0  0
  -31.6958  -23.5170   21.8861 C   0  0  0  0  0  0  0  0  0  0  0  0
  -19.6839  -31.3044   20.7039 C   0  0  0  0  0  0  0  0  0  0  0  0
  -21.9272  -25.2667   22.2479 C   0  0  0  0  0  0  0  0  0  0  0  0
  -20.4733  -26.7123   20.8111 C   0  0  0  0  0  0  0  0  0  0  0  0
  -20.0835  -26.6101   23.2729 C   0  0  0  0  0  0  0  0  0  0  0  0
  -22.8877  -32.7550   22.1556 C   0  0  0  0  0  0  0  0  0  0  0  0
  -30.2812  -24.0858   21.8675 C   0  0  0  0  0  0  0  0  0  0  0  0
  -30.6680  -28.2553   20.2494 C   0  0  0  0  0  0  0  0  0  1  0  0
  -30.5598  -26.4242   18.4380 C   0  0  0  0  0  0  0  0  0  0  0  0
  -22.1088  -27.8383   22.3886 C   0  0  1  0  0  0  0  0  0  0  0  0
  -20.8947  -31.3468   21.6231 C   0  0  2  0  0  0  0  0  0  0  0  0
  -21.1762  -26.6115   22.1817 C   0  0  0  0  0  0  0  0  0  0  0  0
  -26.5244  -16.1897   22.3619 N   0  0  0  0  0  0  0  0  0  0  0  0
  -29.1489  -21.2931   22.5300 N   0  0  0  0  0  0  0  0  0  0  0  0
  -27.3738  -17.1192   22.8316 N   0  0  0  0  0  0  0  0  0  0  0  0
  -26.2766  -20.7731   22.5717 N   0  0  0  0  0  0  0  0  0  0  0  0
  -24.2461  -27.7658   23.6339 N   0  0  0  0  0  0  0  0  0  0  0  0
  -29.6610  -17.5264   23.2938 N   0  0  0  0  0  0  0  0  0  0  0  0
  -29.6590  -13.3082   21.6806 N   0  0  0  0  0  0  0  0  0  0  0  0
  -25.3521  -25.5025   26.1607 N   0  0  0  0  0  0  0  0  0  0  0  0
  -21.4203  -29.1241   22.3579 N   0  0  0  0  0  0  0  0  0  0  0  0
  -21.6799  -32.5740   21.3097 N   0  3  0  0  0  0  0  0  0  0  0  0
  -30.9858  -14.9813   22.5166 O   0  0  0  0  0  0  0  0  0  0  0  0
  -26.4712  -23.1094   22.7494 O   0  0  0  0  0  0  0  0  0  0  0  0
  -25.4907  -25.4374   23.8371 O   0  0  0  0  0  0  0  0  0  0  0  0
  -22.2032  -27.7690   24.7577 O   0  0  0  0  0  0  0  0  0  0  0  0
  -22.6436  -30.0258   20.6064 O   0  0  0  0  0  0  0  0  0  0  0  0
  -25.1995  -10.4346   19.9802 O   0  0  0  0  0  0  0  0  0  0  0  0
  -29.2787  -28.5680   20.1580 O   0  0  0  0  0  0  0  0  0  1  0  0
  -30.7618  -25.3878   19.3894 O   0  0  0  0  0  0  0  0  0  0  0  0
  -20.6325   -8.4146   22.3182 F   0  0  0  0  0  0  0  0  0  0  0  0
  -22.8664  -11.9159   20.0475 F   0  0  0  0  0  0  0  0  0  0  0  0
  1  2  1  0  0  0  0
  1  7  2  0  0  0  0
  2  8  2  0  0  0  0
  3  6  1  0  0  0  0
  3 10  2  0  0  0  0
  4 11  2  0  0  0  0
  4 18  1  0  0  0  0
  5 12  1  0  0  0  0
  5 18  2  0  0  0  0
  6 19  2  0  0  0  0
  7 21  1  0  0  0  0
  8 23  1  0  0  0  0
  9 13  2  0  0  0  0
  9 22  1  0  0  0  0
 10 28  1  0  0  0  0
 11 26  1  0  0  0  0
 12 26  2  0  0  0  0
 13 27  1  0  0  0  0
 14 15  2  0  0  0  0
 14 29  1  0  0  0  0
 15 30  1  0  0  0  0
 16 24  1  0  0  0  0
 16 27  2  0  0  0  0
 17 30  2  0  0  0  0
 17 31  1  0  0  0  0
 18 32  1  0  0  0  0
 19 25  1  0  0  0  0
 19 35  1  0  0  0  0
 20 32  1  0  0  0  0
 20 33  2  0  0  0  0
 20 36  1  0  0  0  0
 21 23  2  0  0  0  0
 21 42  1  0  0  0  0
 22 24  2  0  0  0  0
 22 43  1  0  0  0  0
 23 51  1  0  0  0  0
 24 44  1  0  0  0  0
 25 28  2  0  0  0  0
 25 60  1  0  0  0  0
 26 81  1  0  0  0  0
 27 82  1  0  0  0  0
 28 83  1  0  0  0  0
 29 31  2  0  0  0  0
 29 81  1  0  0  0  0
 30 84  1  0  0  0  0
 31 85  1  0  0  0  0
 32 66  2  0  0  0  0
 33 68  1  0  0  0  0
 33 71  1  0  0  0  0
 34 37  2  0  0  0  0
 35 38  1  0  0  0  0
 35 67  2  0  0  0  0
 36 72  1  0  0  0  0
 36 76  2  0  0  0  0
 37 61  1  0  0  0  0
 37 62  1  0  0  0  0
 38 69  1  0  0  0  0
 38 77  2  0  0  0  0
 39 52  1  0  0  0  0
 39 73  1  0  0  0  0
 39 78  2  0  0  0  0
 40 63  1  0  0  0  0
 40 70  1  0  0  0  0
 40 79  2  0  0  0  0
 41 64  1  0  0  0  0
 41 74  1  0  0  0  0
 41 80  2  0  0  0  0
 42 45  1  0  0  0  0
 43 52  1  0  0  0  0
 44 70  1  0  0  0  0
 45 47  1  0  0  0  0
 46 48  1  0  0  0  0
 46 49  1  0  0  0  0
 47 51  1  0  0  0  0
 48 53  1  0  0  0  0
 49 69  1  0  0  0  0
 50 53  1  0  0  0  0
 50 69  1  0  0  0  0
 51 73  1  0  0  0  0
 52 70  1  0  0  0  0
 53 68  1  0  0  0  0
 54 60  1  0  0  0  0
 55 64  1  0  0  0  0
 56 65  1  0  0  0  0
 57 65  1  0  0  0  0
 58 65  1  0  0  0  0
 59 75  1  0  0  0  0
 61 82  1  0  0  0  0
 62 83  1  0  0  0  0
 63 65  1  0  0  0  0
 63 74  1  0  0  0  0
 64 75  1  0  0  0  0
 66 68  1  0  0  0  0
M  CHG  1  75   1
M  ISO  4  35 100  38 100  61 101  82 101
M  END
> <Batch ID>
0136

> <Smiles>
C=C(COc1cccc([100C:0](=N)[100C:0](=O)N2CCCC(n3nc(-c4ccc(Oc5ccc(F)cc5F)cc4)c(C(N)=O)c3N)C2)c1CC)[101CH2:1][101O:1]c1ccc2c(c1)CN(C(=O)C(NC(=O)C(C)NC)C(C)(C)C)C(C(=O)NC1CCCc3ccccc31)C2

> <Shape>
0.209

> <Color>
0.060

> <Negative vol penalty>
0.000

$$$$

  -OEChem-04052302393D

 87 95  0     1  0  0  0  0  0999 V2000
  -30.8800  -24.0629   14.5648 C   0  0  0  0  0  0  0  0  0  0  0  0
  -30.9546  -23.7292   15.9133 C   0  0  0  0  0  0  0  0  0  0  0  0
  -22.5885  -10.4481   20.2909 C   0  0  0  0  0  0  0  0  0  0  0  0
  -24.1703   -9.6753   21.9456 C   0  0  0  0  0  0  0  0  0  0  0  0
  -30.2016  -25.2150   14.1695 C   0  0  0  0  0  0  0  0  0  0  0  0
  -30.3516  -24.5481   16.8674 C   0  0  0  0  0  0  0  0  0  0  0  0
  -27.7606  -21.9136   20.3302 C   0  0  0  0  0  0  0  0  0  0  0  0
  -33.0565  -17.0984   23.3718 C   0  0  0  0  0  0  0  0  0  0  0  0
  -32.4025  -16.2534   22.4752 C   0  0  0  0  0  0  0  0  0  0  0  0
  -21.7781   -9.3427   20.5494 C   0  0  0  0  0  0  0  0  0  0  0  0
  -23.3598   -8.5699   22.2041 C   0  0  0  0  0  0  0  0  0  0  0  0
  -28.4958  -21.2921   21.3387 C   0  0  0  0  0  0  0  0  0  0  0  0
  -20.5378   -7.9040   23.9400 C   0  0  0  0  0  0  0  0  0  0  0  0
  -20.3110   -7.5664   25.2743 C   0  0  0  0  0  0  0  0  0  0  0  0
  -27.9487  -23.0978   22.8419 C   0  0  0  0  0  0  0  0  0  0  0  0
  -30.9383  -18.0825   23.9896 C   0  0  0  0  0  0  0  0  0  0  0  0
  -21.3043   -5.3971   24.8943 C   0  0  0  0  0  0  0  0  0  0  0  0
  -23.7847  -10.6144   20.9890 C   0  0  0  0  0  0  0  0  0  0  0  0
  -24.2801  -13.1137   20.8647 C   0  0  0  0  0  0  0  0  0  0  0  0
  -29.5817  -26.0433   15.1184 C   0  0  0  0  0  0  0  0  0  0  0  0
  -27.1219  -23.1393   20.5672 C   0  0  0  0  0  0  0  0  0  0  0  0
  -29.6654  -25.7130   16.4845 C   0  0  0  0  0  0  0  0  0  0  0  0
  -27.2039  -23.7314   21.8355 C   0  0  0  0  0  0  0  0  0  0  0  0
  -32.3244  -18.0129   24.1291 C   0  0  0  0  0  0  0  0  0  0  0  0
  -31.0163  -16.3231   22.3357 C   0  0  0  0  0  0  0  0  0  0  0  0
  -22.1637   -8.4036   21.5060 C   0  0  0  0  0  0  0  0  0  0  0  0
  -28.5924  -21.8856   22.5939 C   0  0  0  0  0  0  0  0  0  0  0  0
  -21.1478   -6.9880   23.0829 C   0  0  0  0  0  0  0  0  0  0  0  0
  -20.6943   -6.3130   25.7514 C   0  0  0  0  0  0  0  0  0  0  0  0
  -30.2842  -17.2376   23.0929 C   0  0  0  0  0  0  0  0  0  0  0  0
  -21.5311   -5.7346   23.5600 C   0  0  0  0  0  0  0  0  0  0  0  0
  -24.6226  -11.7558   20.7220 C   0  0  0  0  0  0  0  0  0  0  0  0
  -25.4120  -13.7947   20.4884 C   0  0  0  0  0  0  0  0  0  0  0  0
  -23.0489  -13.7066   21.2988 C   0  0  0  0  0  0  0  0  0  0  0  0
  -27.3694  -26.0684   19.3577 C   0  0  0  0  0  0  0  0  0  0  0  0
  -24.7965  -26.6447   21.2473 C   0  0  0  0  0  0  0  0  0  0  0  0
  -22.9700  -25.7804   23.9975 C   0  0  0  0  0  0  0  0  0  0  0  0
  -30.9339  -14.5013   20.5978 C   0  0  0  0  0  0  0  0  0  0  0  0
  -28.9001  -27.3034   14.6472 C   0  0  0  0  0  0  0  0  0  0  0  0
  -26.3105  -23.7835   19.4767 C   0  0  0  0  0  0  0  0  0  0  0  0
  -26.5199  -25.0367   22.1470 C   0  0  0  0  0  0  0  0  0  0  0  0
  -27.9683  -27.9179   15.6886 C   0  0  0  0  0  0  0  0  0  0  0  0
  -29.6447  -12.1623   18.2431 C   0  0  0  0  0  0  0  0  0  0  0  0
  -28.6516  -27.9706   17.0513 C   0  0  0  0  0  0  0  0  0  0  0  0
  -28.1950  -11.9598   18.6899 C   0  0  0  0  0  0  0  0  0  0  0  0
  -30.5864  -12.3335   19.4338 C   0  0  0  0  0  0  0  0  0  0  0  0
  -28.7443  -13.1732   20.8376 C   0  0  0  0  0  0  0  0  0  0  0  0
  -29.0030  -26.5627   17.5472 C   0  0  1  0  0  0  0  0  0  0  0  0
  -26.1273  -25.2849   19.6759 C   0  0  1  0  0  0  0  0  0  0  0  0
  -27.7487  -13.0610   19.6715 C   0  0  2  0  0  0  0  0  0  0  0  0
  -35.4991  -20.4255   26.3225 C   0  0  0  0  0  0  0  0  0  0  0  0
  -21.0717  -25.8189   25.6383 C   0  0  0  0  0  0  0  0  0  0  0  0
  -32.7538  -22.5284   23.3840 C   0  0  0  0  0  0  0  0  0  0  0  0
  -26.3541  -28.9808   22.4416 C   0  0  0  0  0  0  0  0  0  0  0  0
  -24.7187  -29.0115   24.3370 C   0  0  0  0  0  0  0  0  0  0  0  0
  -23.9361  -29.4513   22.0096 C   0  0  0  0  0  0  0  0  0  0  0  0
  -34.5262  -20.0374   23.4167 C   0  0  0  0  0  0  0  0  0  0  0  0
  -21.4129  -23.8203   22.4188 C   0  0  0  0  0  0  0  0  0  0  0  0
  -33.0347  -18.9315   25.1021 C   0  0  0  0  0  0  0  0  0  0  0  0
  -34.2942  -21.1160   25.6855 C   0  0  0  0  0  0  0  0  0  0  0  0
  -31.2034  -21.4774   25.0845 C   0  0  0  0  0  0  0  0  0  0  0  0
  -29.9260  -22.1250   24.5484 C   0  0  0  0  0  0  0  0  0  1  0  0
  -24.5975  -27.1027   22.6719 C   0  0  1  0  0  0  0  0  0  0  0  0
  -21.4784  -25.5772   24.1930 C   0  0  2  0  0  0  0  0  0  0  0  0
  -32.3071  -21.1994   24.0230 C   0  0  2  0  0  0  0  0  0  0  0  0
  -24.9162  -28.6129   22.8589 C   0  0  0  0  0  0  0  0  0  0  0  0
  -33.5289  -20.3286   24.5689 C   0  0  1  0  0  0  0  0  0  0  0  0
  -25.8741  -11.5824   20.2887 N   0  0  0  0  0  0  0  0  0  0  0  0
  -26.3278  -12.8404   20.1558 N   0  0  0  0  0  0  0  0  0  0  0  0
  -25.7437  -25.6307   21.0461 N   0  0  0  0  0  0  0  0  0  0  0  0
  -30.1025  -13.3962   20.3177 N   0  0  0  0  0  0  0  0  0  0  0  0
  -25.7032  -15.1107   20.4128 N   0  0  0  0  0  0  0  0  0  0  0  0
  -22.8755  -13.9614   22.6660 N   0  0  0  0  0  0  0  0  0  0  0  0
  -30.3546  -15.4639   21.4238 N   0  0  0  0  0  0  0  0  0  0  0  0
  -27.8246  -25.9002   18.0639 N   0  0  0  0  0  0  0  0  0  0  0  0
  -23.2341  -26.7304   23.0337 N   0  0  0  0  0  0  0  0  0  0  0  0
  -21.0921  -24.1864   23.8224 N   0  3  0  0  0  0  0  0  0  0  0  0
  -22.1232  -13.9866   20.4999 O   0  0  0  0  0  0  0  0  0  0  0  0
  -27.8762  -26.7744   20.2216 O   0  0  0  0  0  0  0  0  0  0  0  0
  -24.1308  -27.1624   20.3471 O   0  0  0  0  0  0  0  0  0  0  0  0
  -23.8163  -25.1611   24.6385 O   0  0  0  0  0  0  0  0  0  0  0  0
  -32.0656  -14.6004   20.1167 O   0  0  0  0  0  0  0  0  0  0  0  0
  -21.3730   -7.3249   21.7587 O   0  0  0  0  0  0  0  0  0  0  0  0
  -29.3155  -21.2768   23.5875 O   0  0  0  0  0  0  0  0  0  1  0  0
  -20.4779   -5.9896   27.0331 F   0  0  0  0  0  0  0  0  0  0  0  0
  -28.9518  -17.3143   22.9660 F   0  0  0  0  0  0  0  0  0  0  0  0
  -22.1186   -4.8510   22.7416 F   0  0  0  0  0  0  0  0  0  0  0  0
  1  2  1  0  0  0  0
  1  5  2  0  0  0  0
  2  6  2  0  0  0  0
  3 10  2  0  0  0  0
  3 18  1  0  0  0  0
  4 11  1  0  0  0  0
  4 18  2  0  0  0  0
  5 20  1  0  0  0  0
  6 22  1  0  0  0  0
  7 12  2  0  0  0  0
  7 21  1  0  0  0  0
  8  9  2  0  0  0  0
  8 24  1  0  0  0  0
  9 25  1  0  0  0  0
 10 26  1  0  0  0  0
 11 26  2  0  0  0  0
 12 27  1  0  0  0  0
 13 14  2  0  0  0  0
 13 28  1  0  0  0  0
 14 29  1  0  0  0  0
 15 23  1  0  0  0  0
 15 27  2  0  0  0  0
 16 24  2  0  0  0  0
 16 30  1  0  0  0  0
 17 29  2  0  0  0  0
 17 31  1  0  0  0  0
 18 32  1  0  0  0  0
 19 32  1  0  0  0  0
 19 33  2  0  0  0  0
 19 34  1  0  0  0  0
 20 22  2  0  0  0  0
 20 39  1  0  0  0  0
 21 23  2  0  0  0  0
 21 40  1  0  0  0  0
 22 48  1  0  0  0  0
 23 41  1  0  0  0  0
 24 59  1  0  0  0  0
 25 30  2  0  0  0  0
 25 74  1  0  0  0  0
 26 83  1  0  0  0  0
 27 84  1  0  0  0  0
 28 31  2  0  0  0  0
 28 83  1  0  0  0  0
 29 85  1  0  0  0  0
 30 86  1  0  0  0  0
 31 87  1  0  0  0  0
 32 68  2  0  0  0  0
 33 69  1  0  0  0  0
 33 72  1  0  0  0  0
 34 73  1  0  0  0  0
 34 78  2  0  0  0  0
 35 49  1  0  0  0  0
 35 75  1  0  0  0  0
 35 79  2  0  0  0  0
 36 63  1  0  0  0  0
 36 70  1  0  0  0  0
 36 80  2  0  0  0  0
 37 64  1  0  0  0  0
 37 76  1  0  0  0  0
 37 81  2  0  0  0  0
 38 71  1  0  0  0  0
 38 74  1  0  0  0  0
 38 82  2  0  0  0  0
 39 42  1  0  0  0  0
 40 49  1  0  0  0  0
 41 70  1  0  0  0  0
 42 44  1  0  0  0  0
 43 45  1  0  0  0  0
 43 46  1  0  0  0  0
 44 48  1  0  0  0  0
 45 50  1  0  0  0  0
 46 71  1  0  0  0  0
 47 50  1  0  0  0  0
 47 71  1  0  0  0  0
 48 75  1  0  0  0  0
 49 70  1  0  0  0  0
 50 69  1  0  0  0  0
 51 60  1  0  0  0  0
 52 64  1  0  0  0  0
 53 65  1  0  0  0  0
 54 66  1  0  0  0  0
 55 66  1  0  0  0  0
 56 66  1  0  0  0  0
 57 67  1  0  0  0  0
 58 77  1  0  0  0  0
 59 67  1  0  0  0  0
 60 67  1  0  0  0  0
 61 62  1  0  0  0  0
 61 65  1  0  0  0  0
 62 84  1  0  0  0  0
 63 66  1  0  0  0  0
 63 76  1  0  0  0  0
 64 77  1  0  0  0  0
 65 67  1  0  0  0  0
 68 69  1  0  0  0  0
M  CHG  1  77   1
M  ISO  4  38 100  62 101  74 100  84 101
M  END
> <Batch ID>
0136

> <Smiles>
CCC(C)(Cc1ccc([100NH:0][100C:0](=O)N2CCCC(n3nc(-c4ccc(Oc5ccc(F)cc5F)cc4)c(C(N)=O)c3N)C2)c(F)c1)C(C)C[101CH2:1][101O:1]c1ccc2c(c1)CN(C(=O)C(NC(=O)C(C)NC)C(C)(C)C)C(C(=O)NC1CCCc3ccccc31)C2

> <Shape>
0.248

> <Color>
0.162

> <Negative vol penalty>
0.000

$$$$

  -OEChem-04052302393D

 84 92  0     1  0  0  0  0  0999 V2000
  -24.4525  -33.7495   14.6312 C   0  0  0  0  0  0  0  0  0  0  0  0
  -25.1475  -32.6601   15.1465 C   0  0  0  0  0  0  0  0  0  0  0  0
  -23.8159  -11.8844   23.8239 C   0  0  0  0  0  0  0  0  0  0  0  0
  -23.0645  -14.1335   23.3613 C   0  0  0  0  0  0  0  0  0  0  0  0
  -24.1371  -34.8277   15.4571 C   0  0  0  0  0  0  0  0  0  0  0  0
  -25.5285  -32.6487   16.4878 C   0  0  0  0  0  0  0  0  0  0  0  0
  -24.6037  -28.2044   18.7324 C   0  0  0  0  0  0  0  0  0  0  0  0
  -30.4246  -20.6998   20.1745 C   0  0  0  0  0  0  0  0  0  0  0  0
  -30.2815  -19.3164   20.0690 C   0  0  0  0  0  0  0  0  0  0  0  0
  -23.1050  -11.8937   25.0240 C   0  0  0  0  0  0  0  0  0  0  0  0
  -22.3536  -14.1428   24.5614 C   0  0  0  0  0  0  0  0  0  0  0  0
  -25.4965  -27.1643   18.4774 C   0  0  0  0  0  0  0  0  0  0  0  0
  -21.1958  -11.1920   28.0369 C   0  0  0  0  0  0  0  0  0  0  0  0
  -20.4376  -10.0640   28.3503 C   0  0  0  0  0  0  0  0  0  0  0  0
  -26.5815  -27.5858   20.5903 C   0  0  0  0  0  0  0  0  0  0  0  0
  -27.9018  -19.5868   19.7509 C   0  0  0  0  0  0  0  0  0  0  0  0
  -19.1393  -10.3774   26.3370 C   0  0  0  0  0  0  0  0  0  0  0  0
  -23.7957  -13.0043   22.9926 C   0  0  0  0  0  0  0  0  0  0  0  0
  -24.0639  -12.5804   20.4914 C   0  0  0  0  0  0  0  0  0  0  0  0
  -24.5060  -34.8252   16.8115 C   0  0  0  0  0  0  0  0  0  0  0  0
  -24.7001  -28.9513   19.9153 C   0  0  0  0  0  0  0  0  0  0  0  0
  -25.2190  -33.7284   17.3323 C   0  0  0  0  0  0  0  0  0  0  0  0
  -25.6871  -28.6332   20.8591 C   0  0  0  0  0  0  0  0  0  0  0  0
  -29.3063  -21.5268   20.0683 C   0  0  0  0  0  0  0  0  0  0  0  0
  -28.0449  -20.9703   19.8565 C   0  0  0  0  0  0  0  0  0  0  0  0
  -29.0201  -18.7598   19.8572 C   0  0  0  0  0  0  0  0  0  0  0  0
  -22.3738  -13.0228   25.3927 C   0  0  0  0  0  0  0  0  0  0  0  0
  -26.4874  -26.8568   19.4051 C   0  0  0  0  0  0  0  0  0  0  0  0
  -20.9257  -11.9129   26.8736 C   0  0  0  0  0  0  0  0  0  0  0  0
  -19.4094   -9.6566   27.5003 C   0  0  0  0  0  0  0  0  0  0  0  0
  -19.8974  -11.5055   26.0237 C   0  0  0  0  0  0  0  0  0  0  0  0
  -24.5304  -12.9955   21.7531 C   0  0  0  0  0  0  0  0  0  0  0  0
  -25.1346  -12.7662   19.6514 C   0  0  0  0  0  0  0  0  0  0  0  0
  -22.7778  -12.0723   20.1126 C   0  0  0  0  0  0  0  0  0  0  0  0
  -25.2527  -32.0056   20.6008 C   0  0  0  0  0  0  0  0  0  0  0  0
  -24.6058  -31.0388   23.6289 C   0  0  0  0  0  0  0  0  0  0  0  0
  -24.4834  -28.4870   25.8917 C   0  0  0  0  0  0  0  0  0  0  0  0
  -29.8806  -16.3924   19.8280 C   0  0  0  0  0  0  0  0  0  0  0  0
  -24.1843  -36.0343   17.6537 C   0  0  0  0  0  0  0  0  0  0  0  0
  -23.7126  -30.0528   20.1875 C   0  0  0  0  0  0  0  0  0  0  0  0
  -25.8203  -29.3915   22.1536 C   0  0  0  0  0  0  0  0  0  0  0  0
  -24.2962  -35.7785   19.1545 C   0  0  0  0  0  0  0  0  0  0  0  0
  -29.9230  -12.8367   19.6472 C   0  0  0  0  0  0  0  0  0  0  0  0
  -25.5912  -35.0386   19.4748 C   0  0  0  0  0  0  0  0  0  0  0  0
  -28.5008  -12.4364   20.0460 C   0  0  0  0  0  0  0  0  0  0  0  0
  -30.4161  -14.0447   20.4418 C   0  0  0  0  0  0  0  0  0  0  0  0
  -28.1045  -14.8125   20.8103 C   0  0  0  0  0  0  0  0  0  0  0  0
  -25.6278  -33.6681   18.7881 C   0  0  1  0  0  0  0  0  0  0  0  0
  -24.2259  -31.0808   21.1910 C   0  0  1  0  0  0  0  0  0  0  0  0
  -27.5401  -13.6404   19.9909 C   0  0  2  0  0  0  0  0  0  0  0  0
  -26.8338  -21.8361   19.7375 C   0  0  0  0  0  0  0  0  0  0  0  0
  -23.9531  -28.0117   28.2980 C   0  0  0  0  0  0  0  0  0  0  0  0
  -27.2749  -32.2638   24.4567 C   0  0  0  0  0  0  0  0  0  0  0  0
  -27.1343  -30.9573   26.5877 C   0  0  0  0  0  0  0  0  0  0  0  0
  -25.3989  -32.6697   26.0599 C   0  0  0  0  0  0  0  0  0  0  0  0
  -29.7059  -25.7774   17.4137 C   0  0  0  0  0  0  0  0  0  0  0  0
  -22.2932  -26.6345   25.1636 C   0  0  0  0  0  0  0  0  0  0  0  0
  -29.4861  -23.0204   20.1866 C   0  0  0  0  0  0  0  0  0  0  0  0
  -29.4373  -23.7028   18.8123 C   0  0  0  0  0  0  0  0  0  0  0  0
  -28.6679  -25.9605   19.7180 C   0  0  0  0  0  0  0  0  0  1  0  0
  -25.4234  -30.4927   24.7745 C   0  0  1  0  0  0  0  0  0  0  0  0
  -23.4094  -28.0667   26.8788 C   0  0  2  0  0  0  0  0  0  0  0  0
  -26.3069  -31.5826   25.4445 C   0  0  0  0  0  0  0  0  0  0  0  0
  -29.6962  -25.2259   18.8454 C   0  0  2  0  0  0  0  0  0  0  0  0
  -25.7986  -13.4134   21.7221 N   0  0  0  0  0  0  0  0  0  0  0  0
  -26.1382  -13.2617   20.4307 N   0  0  0  0  0  0  0  0  0  0  0  0
  -24.8351  -30.4637   22.3710 N   0  0  0  0  0  0  0  0  0  0  0  0
  -29.4578  -15.1474   20.3400 N   0  0  0  0  0  0  0  0  0  0  0  0
  -25.3060  -12.5524   18.3295 N   0  0  0  0  0  0  0  0  0  0  0  0
  -21.7921  -11.9454   21.1008 N   0  0  0  0  0  0  0  0  0  0  0  0
  -28.8745  -17.3546   19.7480 N   0  0  0  0  0  0  0  0  0  0  0  0
  -24.8035  -32.7203   19.5069 N   0  0  0  0  0  0  0  0  0  0  0  0
  -24.4780  -29.8496   25.6806 N   0  0  0  0  0  0  0  0  0  0  0  0
  -22.8803  -26.7190   26.5257 N   0  3  0  0  0  0  0  0  0  0  0  0
  -22.5159  -11.7253   18.9360 O   0  0  0  0  0  0  0  0  0  0  0  0
  -26.3693  -32.0672   21.1018 O   0  0  0  0  0  0  0  0  0  0  0  0
  -23.7886  -31.9375   23.8437 O   0  0  0  0  0  0  0  0  0  0  0  0
  -25.2529  -27.6872   25.3639 O   0  0  0  0  0  0  0  0  0  0  0  0
  -31.0429  -16.5819   19.4604 O   0  0  0  0  0  0  0  0  0  0  0  0
  -30.9893  -25.4647   19.4100 O   0  0  0  0  0  0  0  0  0  0  0  0
  -21.6798  -13.0321   26.5635 O   0  0  0  0  0  0  0  0  0  0  0  0
  -27.3605  -25.8425   19.1585 O   0  0  0  0  0  0  0  0  0  1  0  0
  -18.6824   -8.5724   27.8006 F   0  0  0  0  0  0  0  0  0  0  0  0
  -19.6340  -12.1933   24.9041 F   0  0  0  0  0  0  0  0  0  0  0  0
  1  2  1  0  0  0  0
  1  5  2  0  0  0  0
  2  6  2  0  0  0  0
  3 10  2  0  0  0  0
  3 18  1  0  0  0  0
  4 11  1  0  0  0  0
  4 18  2  0  0  0  0
  5 20  1  0  0  0  0
  6 22  1  0  0  0  0
  7 12  2  0  0  0  0
  7 21  1  0  0  0  0
  8  9  2  0  0  0  0
  8 24  1  0  0  0  0
  9 26  1  0  0  0  0
 10 27  1  0  0  0  0
 11 27  2  0  0  0  0
 12 28  1  0  0  0  0
 13 14  2  0  0  0  0
 13 29  1  0  0  0  0
 14 30  1  0  0  0  0
 15 23  1  0  0  0  0
 15 28  2  0  0  0  0
 16 25  1  0  0  0  0
 16 26  2  0  0  0  0
 17 30  2  0  0  0  0
 17 31  1  0  0  0  0
 18 32  1  0  0  0  0
 19 32  1  0  0  0  0
 19 33  2  0  0  0  0
 19 34  1  0  0  0  0
 20 22  2  0  0  0  0
 20 39  1  0  0  0  0
 21 23  2  0  0  0  0
 21 40  1  0  0  0  0
 22 48  1  0  0  0  0
 23 41  1  0  0  0  0
 24 25  2  0  0  0  0
 24 58  1  0  0  0  0
 25 51  1  0  0  0  0
 26 71  1  0  0  0  0
 27 81  1  0  0  0  0
 28 82  1  0  0  0  0
 29 31  2  0  0  0  0
 29 81  1  0  0  0  0
 30 83  1  0  0  0  0
 31 84  1  0  0  0  0
 32 65  2  0  0  0  0
 33 66  1  0  0  0  0
 33 69  1  0  0  0  0
 34 70  1  0  0  0  0
 34 75  2  0  0  0  0
 35 49  1  0  0  0  0
 35 72  1  0  0  0  0
 35 76  2  0  0  0  0
 36 61  1  0  0  0  0
 36 67  1  0  0  0  0
 36 77  2  0  0  0  0
 37 62  1  0  0  0  0
 37 73  1  0  0  0  0
 37 78  2  0  0  0  0
 38 68  1  0  0  0  0
 38 71  1  0  0  0  0
 38 79  2  0  0  0  0
 39 42  1  0  0  0  0
 40 49  1  0  0  0  0
 41 67  1  0  0  0  0
 42 44  1  0  0  0  0
 43 45  1  0  0  0  0
 43 46  1  0  0  0  0
 44 48  1  0  0  0  0
 45 50  1  0  0  0  0
 46 68  1  0  0  0  0
 47 50  1  0  0  0  0
 47 68  1  0  0  0  0
 48 72  1  0  0  0  0
 49 67  1  0  0  0  0
 50 66  1  0  0  0  0
 52 62  1  0  0  0  0
 53 63  1  0  0  0  0
 54 63  1  0  0  0  0
 55 63  1  0  0  0  0
 56 64  1  0  0  0  0
 57 74  1  0  0  0  0
 58 59  1  0  0  0  0
 59 64  1  0  0  0  0
 60 64  1  0  0  0  0
 60 82  1  0  0  0  0
 61 63  1  0  0  0  0
 61 73  1  0  0  0  0
 62 74  1  0  0  0  0
 64 80  1  0  0  0  0
 65 66  1  0  0  0  0
M  CHG  1  74   1
M  ISO  4  38 100  60 101  71 100  82 101
M  END
> <Batch ID>
0136

> <Smiles>
CNC(C)C(=O)NC(C(=O)N1Cc2cc([101O:1][101CH2:1]C(C)(O)CCc3ccc([100NH:0][100C:0](=O)N4CCCC(n5nc(-c6ccc(Oc7ccc(F)cc7F)cc6)c(C(N)=O)c5N)C4)cc3C)ccc2CC1C(=O)NC1CCCc2ccccc21)C(C)(C)C

> <Shape>
0.262

> <Color>
0.110

> <Negative vol penalty>
0.000

$$$$

  -OEChem-04052302393D

 85 93  0     1  0  0  0  0  0999 V2000
  -22.9019  -25.6952   16.7606 C   0  0  0  0  0  0  0  0  0  0  0  0
  -22.4989  -24.3647   16.7730 C   0  0  0  0  0  0  0  0  0  0  0  0
  -28.5598  -22.5414   20.9272 C   0  0  0  0  0  0  0  0  0  0  0  0
  -29.9399  -21.6660   19.1478 C   0  0  0  0  0  0  0  0  0  0  0  0
  -23.2745  -26.3177   17.9501 C   0  0  0  0  0  0  0  0  0  0  0  0
  -22.4568  -23.6597   17.9764 C   0  0  0  0  0  0  0  0  0  0  0  0
  -21.1867  -17.8064   19.0960 C   0  0  0  0  0  0  0  0  0  0  0  0
  -29.0422  -23.8246   20.6702 C   0  0  0  0  0  0  0  0  0  0  0  0
  -30.4223  -22.9493   18.8907 C   0  0  0  0  0  0  0  0  0  0  0  0
  -21.8861  -16.6064   19.2162 C   0  0  0  0  0  0  0  0  0  0  0  0
  -28.4908  -26.2891   18.4218 C   0  0  0  0  0  0  0  0  0  0  0  0
  -27.5658  -27.3321   18.3751 C   0  0  0  0  0  0  0  0  0  0  0  0
  -28.6980  -13.0884   20.8512 C   0  0  0  0  0  0  0  0  0  0  0  0
  -29.8860  -13.1887   18.7499 C   0  0  0  0  0  0  0  0  0  0  0  0
  -21.9164  -16.8712   21.6138 C   0  0  0  0  0  0  0  0  0  0  0  0
  -27.6158  -12.3647   18.8160 C   0  0  0  0  0  0  0  0  0  0  0  0
  -28.7119  -28.4301   20.1966 C   0  0  0  0  0  0  0  0  0  0  0  0
  -29.0087  -21.4620   20.1661 C   0  0  0  0  0  0  0  0  0  0  0  0
  -29.8507  -13.3964   20.1288 C   0  0  0  0  0  0  0  0  0  0  0  0
  -27.3820  -19.5212   19.8580 C   0  0  0  0  0  0  0  0  0  0  0  0
  -23.2486  -25.6156   19.1664 C   0  0  0  0  0  0  0  0  0  0  0  0
  -20.8558  -18.5546   20.2350 C   0  0  0  0  0  0  0  0  0  0  0  0
  -22.8061  -24.2774   19.1909 C   0  0  0  0  0  0  0  0  0  0  0  0
  -21.2105  -18.0791   21.5055 C   0  0  0  0  0  0  0  0  0  0  0  0
  -27.5805  -12.5725   20.1949 C   0  0  0  0  0  0  0  0  0  0  0  0
  -29.9735  -24.0286   19.6519 C   0  0  0  0  0  0  0  0  0  0  0  0
  -22.2536  -16.1400   20.4750 C   0  0  0  0  0  0  0  0  0  0  0  0
  -29.5263  -26.3166   19.3560 C   0  0  0  0  0  0  0  0  0  0  0  0
  -27.6764  -28.4026   19.2624 C   0  0  0  0  0  0  0  0  0  0  0  0
  -28.7685  -12.6728   18.0935 C   0  0  0  0  0  0  0  0  0  0  0  0
  -29.6368  -27.3871   20.2434 C   0  0  0  0  0  0  0  0  0  0  0  0
  -28.5111  -20.1361   20.4315 C   0  0  0  0  0  0  0  0  0  0  0  0
  -27.3387  -18.2759   20.4358 C   0  0  0  0  0  0  0  0  0  0  0  0
  -31.0162  -13.9339   20.8128 C   0  0  0  0  0  0  0  0  0  0  0  0
  -26.4554  -20.0301   18.8895 C   0  0  0  0  0  0  0  0  0  0  0  0
  -31.0127  -14.1663   22.2754 C   0  0  0  0  0  0  0  0  0  0  0  0
  -21.5771  -21.4629   21.2959 C   0  0  0  0  0  0  0  0  0  0  0  0
  -19.4262  -20.7278   23.6101 C   0  0  0  0  0  0  0  0  0  0  0  0
  -17.7939  -18.3146   25.3874 C   0  0  0  0  0  0  0  0  0  0  0  0
  -23.6548  -26.3405   20.4253 C   0  0  0  0  0  0  0  0  0  0  0  0
  -20.0777  -19.8337   20.0903 C   0  0  0  0  0  0  0  0  0  0  0  0
  -20.8615  -18.8345   22.7609 C   0  0  0  0  0  0  0  0  0  0  0  0
  -24.0018  -25.3946   21.5704 C   0  0  0  0  0  0  0  0  0  0  0  0
  -29.1875  -16.2601   24.5428 C   0  0  0  0  0  0  0  0  0  0  0  0
  -22.9026  -24.3562   21.7379 C   0  0  0  0  0  0  0  0  0  0  0  0
  -28.7524  -17.4343   23.6667 C   0  0  0  0  0  0  0  0  0  0  0  0
  -30.5543  -15.7279   24.1247 C   0  0  0  0  0  0  0  0  0  0  0  0
  -30.2001  -16.5148   21.8001 C   0  0  0  0  0  0  0  0  0  0  0  0
  -22.7817  -23.4817   20.4835 C   0  0  1  0  0  0  0  0  0  0  0  0
  -20.2430  -20.7717   21.2819 C   0  0  1  0  0  0  0  0  0  0  0  0
  -28.8115  -17.0615   22.1746 C   0  0  2  0  0  0  0  0  0  0  0  0
  -16.1246  -18.0208   27.2379 C   0  0  0  0  0  0  0  0  0  0  0  0
  -21.5746  -21.4368   25.6574 C   0  0  0  0  0  0  0  0  0  0  0  0
  -20.2177  -20.2445   27.3910 C   0  0  0  0  0  0  0  0  0  0  0  0
  -19.2786  -22.2442   26.2325 C   0  0  0  0  0  0  0  0  0  0  0  0
  -24.4403  -12.8226   23.3333 C   0  0  0  0  0  0  0  0  0  0  0  0
  -23.1990  -12.1421   21.2636 C   0  0  0  0  0  0  0  0  0  0  0  0
  -15.8975  -16.9003   23.6090 C   0  0  0  0  0  0  0  0  0  0  0  0
  -26.3324  -12.2394   20.9763 C   0  0  0  0  0  0  0  0  0  0  0  0
  -25.3831  -13.4433   21.0532 C   0  0  0  0  0  0  0  0  0  0  0  0
  -23.2816  -14.5510   21.9152 C   0  0  0  0  0  0  0  0  0  1  0  0
  -19.4982  -20.0673   24.9657 C   0  0  1  0  0  0  0  0  0  0  0  0
  -16.3267  -18.1387   25.7353 C   0  0  2  0  0  0  0  0  0  0  0  0
  -20.1507  -20.9847   26.0381 C   0  0  0  0  0  0  0  0  0  0  0  0
  -24.0893  -13.2299   21.8901 C   0  0  0  0  0  0  0  0  0  0  0  0
  -29.1395  -19.3466   21.3066 N   0  0  0  0  0  0  0  0  0  0  0  0
  -32.1275  -14.2422   20.2007 N   0  0  0  0  0  0  0  0  0  0  0  0
  -28.4027  -18.2228   21.2873 N   0  0  0  0  0  0  0  0  0  0  0  0
  -30.5868  -15.4182   22.6968 N   0  0  0  0  0  0  0  0  0  0  0  0
  -20.1055  -20.0829   22.5668 N   0  0  0  0  0  0  0  0  0  0  0  0
  -26.4945  -17.2321   20.2935 N   0  0  0  0  0  0  0  0  0  0  0  0
  -26.6468  -21.3294   18.3999 N   0  0  0  0  0  0  0  0  0  0  0  0
  -21.6007  -22.6545   20.5967 N   0  0  0  0  0  0  0  0  0  0  0  0
  -18.1389  -19.6458   25.2870 N   0  0  0  0  0  0  0  0  0  0  0  0
  -15.7853  -16.9091   25.0903 N   0  3  0  0  0  0  0  0  0  0  0  0
  -25.4768  -19.3589   18.4829 O   0  0  0  0  0  0  0  0  0  0  0  0
  -31.3886  -13.2238   22.9601 O   0  0  0  0  0  0  0  0  0  0  0  0
  -22.5152  -20.9535   21.8978 O   0  0  0  0  0  0  0  0  0  0  0  0
  -18.7848  -21.7734   23.4802 O   0  0  0  0  0  0  0  0  0  0  0  0
  -18.5583  -17.3660   25.2249 O   0  0  0  0  0  0  0  0  0  0  0  0
  -30.4443  -25.2807   19.4007 O   0  0  0  0  0  0  0  0  0  0  0  0
  -22.9369  -14.9693   20.5951 O   0  0  0  0  0  0  0  0  0  1  0  0
  -26.7889  -29.4049   19.2164 F   0  0  0  0  0  0  0  0  0  0  0  0
  -28.8022  -12.4735   16.7693 F   0  0  0  0  0  0  0  0  0  0  0  0
  -30.6302  -27.4196   21.1423 F   0  0  0  0  0  0  0  0  0  0  0  0
  1  2  1  0  0  0  0
  1  5  2  0  0  0  0
  2  6  2  0  0  0  0
  3  8  2  0  0  0  0
  3 18  1  0  0  0  0
  4  9  1  0  0  0  0
  4 18  2  0  0  0  0
  5 21  1  0  0  0  0
  6 23  1  0  0  0  0
  7 10  2  0  0  0  0
  7 22  1  0  0  0  0
  8 26  1  0  0  0  0
  9 26  2  0  0  0  0
 10 27  1  0  0  0  0
 11 12  2  0  0  0  0
 11 28  1  0  0  0  0
 12 29  1  0  0  0  0
 13 19  1  0  0  0  0
 13 25  2  0  0  0  0
 14 19  2  0  0  0  0
 14 30  1  0  0  0  0
 15 24  1  0  0  0  0
 15 27  2  0  0  0  0
 16 25  1  0  0  0  0
 16 30  2  0  0  0  0
 17 29  2  0  0  0  0
 17 31  1  0  0  0  0
 18 32  1  0  0  0  0
 19 34  1  0  0  0  0
 20 32  1  0  0  0  0
 20 33  2  0  0  0  0
 20 35  1  0  0  0  0
 21 23  2  0  0  0  0
 21 40  1  0  0  0  0
 22 24  2  0  0  0  0
 22 41  1  0  0  0  0
 23 49  1  0  0  0  0
 24 42  1  0  0  0  0
 25 59  1  0  0  0  0
 26 81  1  0  0  0  0
 27 82  1  0  0  0  0
 28 31  2  0  0  0  0
 28 81  1  0  0  0  0
 29 83  1  0  0  0  0
 30 84  1  0  0  0  0
 31 85  1  0  0  0  0
 32 66  2  0  0  0  0
 33 68  1  0  0  0  0
 33 71  1  0  0  0  0
 34 36  1  0  0  0  0
 34 67  2  0  0  0  0
 35 72  1  0  0  0  0
 35 76  2  0  0  0  0
 36 69  1  0  0  0  0
 36 77  2  0  0  0  0
 37 50  1  0  0  0  0
 37 73  1  0  0  0  0
 37 78  2  0  0  0  0
 38 62  1  0  0  0  0
 38 70  1  0  0  0  0
 38 79  2  0  0  0  0
 39 63  1  0  0  0  0
 39 74  1  0  0  0  0
 39 80  2  0  0  0  0
 40 43  1  0  0  0  0
 41 50  1  0  0  0  0
 42 70  1  0  0  0  0
 43 45  1  0  0  0  0
 44 46  1  0  0  0  0
 44 47  1  0  0  0  0
 45 49  1  0  0  0  0
 46 51  1  0  0  0  0
 47 69  1  0  0  0  0
 48 51  1  0  0  0  0
 48 69  1  0  0  0  0
 49 73  1  0  0  0  0
 50 70  1  0  0  0  0
 51 68  1  0  0  0  0
 52 63  1  0  0  0  0
 53 64  1  0  0  0  0
 54 64  1  0  0  0  0
 55 64  1  0  0  0  0
 56 65  1  0  0  0  0
 57 65  1  0  0  0  0
 58 75  1  0  0  0  0
 59 60  1  0  0  0  0
 60 65  1  0  0  0  0
 61 65  1  0  0  0  0
 61 82  1  0  0  0  0
 62 64  1  0  0  0  0
 62 74  1  0  0  0  0
 63 75  1  0  0  0  0
 66 68  1  0  0  0  0
M  CHG  1  75   1
M  ISO  4  34 100  36 100  61 101  82 101
M  END
> <Batch ID>
0136

> <Smiles>
CNC(C)C(=O)NC(C(=O)N1Cc2cc([101O:1][101CH2:1]C(C)(C)CCc3cc(F)cc([100C:0](=N)[100C:0](=O)N4CCCC(n5nc(-c6ccc(Oc7ccc(F)cc7F)cc6)c(C(N)=O)c5N)C4)c3)ccc2CC1C(=O)NC1CCCc2ccccc21)C(C)(C)C

> <Shape>
0.193

> <Color>
0.060

> <Negative vol penalty>
0.000

$$$$

  -OEChem-04052302393D

 86 94  0     1  0  0  0  0  0999 V2000
  -24.0370  -35.2730   24.4986 C   0  0  0  0  0  0  0  0  0  0  0  0
  -24.9671  -34.3082   24.1253 C   0  0  0  0  0  0  0  0  0  0  0  0
  -24.1069  -10.0665   22.1119 C   0  0  0  0  0  0  0  0  0  0  0  0
  -24.6913  -11.5569   23.9214 C   0  0  0  0  0  0  0  0  0  0  0  0
  -22.7289  -34.8980   24.8020 C   0  0  0  0  0  0  0  0  0  0  0  0
  -24.5899  -32.9676   24.0561 C   0  0  0  0  0  0  0  0  0  0  0  0
  -26.6191  -28.7724   20.0826 C   0  0  0  0  0  0  0  0  0  0  0  0
  -23.7135   -9.0987   23.0360 C   0  0  0  0  0  0  0  0  0  0  0  0
  -24.2978  -10.5890   24.8456 C   0  0  0  0  0  0  0  0  0  0  0  0
  -27.5921  -27.7789   20.1827 C   0  0  0  0  0  0  0  0  0  0  0  0
  -21.0377   -8.4796   25.0082 C   0  0  0  0  0  0  0  0  0  0  0  0
  -19.8318   -7.8170   24.7793 C   0  0  0  0  0  0  0  0  0  0  0  0
  -25.8822  -26.1681   20.7311 C   0  0  0  0  0  0  0  0  0  0  0  0
  -28.5568  -21.0297   20.0176 C   0  0  0  0  0  0  0  0  0  0  0  0
  -21.0077   -5.7084   24.6879 C   0  0  0  0  0  0  0  0  0  0  0  0
  -30.5804  -19.2580   19.5571 C   0  0  0  0  0  0  0  0  0  0  0  0
  -24.5959  -11.2956   22.5546 C   0  0  0  0  0  0  0  0  0  0  0  0
  -24.2014  -13.3026   21.0301 C   0  0  0  0  0  0  0  0  0  0  0  0
  -22.3329  -33.5533   24.7272 C   0  0  0  0  0  0  0  0  0  0  0  0
  -25.2694  -28.4730   20.3170 C   0  0  0  0  0  0  0  0  0  0  0  0
  -23.2756  -32.5740   24.3600 C   0  0  0  0  0  0  0  0  0  0  0  0
  -24.8937  -27.1590   20.6307 C   0  0  0  0  0  0  0  0  0  0  0  0
  -28.2563  -19.6857   19.8265 C   0  0  0  0  0  0  0  0  0  0  0  0
  -29.2816  -18.7764   19.5914 C   0  0  0  0  0  0  0  0  0  0  0  0
  -23.8089   -9.3599   24.4029 C   0  0  0  0  0  0  0  0  0  0  0  0
  -27.2241  -26.4771   20.5098 C   0  0  0  0  0  0  0  0  0  0  0  0
  -22.2286   -7.7566   25.0769 C   0  0  0  0  0  0  0  0  0  0  0  0
  -19.8167   -6.4314   24.6192 C   0  0  0  0  0  0  0  0  0  0  0  0
  -22.2136   -6.3710   24.9168 C   0  0  0  0  0  0  0  0  0  0  0  0
  -25.0030  -12.2956   21.6004 C   0  0  0  0  0  0  0  0  0  0  0  0
  -29.8880  -21.4105   19.9644 C   0  0  0  0  0  0  0  0  0  0  0  0
  -25.0510  -13.9856   20.1945 C   0  0  0  0  0  0  0  0  0  0  0  0
  -29.9237  -23.3988   21.3411 C   0  0  0  0  0  0  0  0  0  0  0  0
  -22.8131  -13.5947   21.2373 C   0  0  0  0  0  0  0  0  0  0  0  0
  -30.2606  -22.8327   20.1621 C   0  0  0  0  0  0  0  0  0  0  0  0
  -23.0928  -29.4308   22.4263 C   0  0  0  0  0  0  0  0  0  0  0  0
  -21.0996  -27.6408   20.5973 C   0  0  0  0  0  0  0  0  0  0  0  0
  -20.7237  -25.0690   18.3855 C   0  0  0  0  0  0  0  0  0  0  0  0
  -29.9620  -16.3918   19.1478 C   0  0  0  0  0  0  0  0  0  0  0  0
  -20.9200  -33.1902   25.1102 C   0  0  0  0  0  0  0  0  0  0  0  0
  -24.2288  -29.5503   20.1788 C   0  0  0  0  0  0  0  0  0  0  0  0
  -23.4558  -26.7815   20.8720 C   0  0  0  0  0  0  0  0  0  0  0  0
  -20.5034  -31.7957   24.6498 C   0  0  0  0  0  0  0  0  0  0  0  0
  -29.7377  -12.8751   18.6377 C   0  0  0  0  0  0  0  0  0  0  0  0
  -21.5911  -30.7779   24.9782 C   0  0  0  0  0  0  0  0  0  0  0  0
  -28.4200  -12.4937   19.3161 C   0  0  0  0  0  0  0  0  0  0  0  0
  -30.4729  -13.9734   19.4039 C   0  0  0  0  0  0  0  0  0  0  0  0
  -28.3576  -14.7920   20.3653 C   0  0  0  0  0  0  0  0  0  0  0  0
  -22.8981  -31.1127   24.2495 C   0  0  1  0  0  0  0  0  0  0  0  0
  -22.9448  -29.2424   20.9430 C   0  0  1  0  0  0  0  0  0  0  0  0
  -27.5497  -13.7349   19.5949 C   0  0  2  0  0  0  0  0  0  0  0  0
  -26.8297  -19.2466   19.8787 C   0  0  0  0  0  0  0  0  0  0  0  0
  -30.1325  -24.1686   18.0267 C   0  0  0  0  0  0  0  0  0  0  0  0
  -18.9698  -23.8181   17.0986 C   0  0  0  0  0  0  0  0  0  0  0  0
  -29.5413  -24.8822   23.2991 C   0  0  0  0  0  0  0  0  0  0  0  0
  -31.6561  -25.0978   22.0040 C   0  0  0  0  0  0  0  0  0  0  0  0
  -20.2718  -26.1833   23.1468 C   0  0  0  0  0  0  0  0  0  0  0  0
  -19.2882  -24.3810   21.7141 C   0  0  0  0  0  0  0  0  0  0  0  0
  -18.3893  -26.7044   21.5850 C   0  0  0  0  0  0  0  0  0  0  0  0
  -21.9246  -25.8253   15.7885 C   0  0  0  0  0  0  0  0  0  0  0  0
  -31.0367  -23.4618   19.0298 C   0  0  0  0  0  0  0  0  0  0  0  0
  -29.4768  -25.9108   21.0203 C   0  0  0  0  0  0  0  0  0  1  0  0
  -20.6593  -26.1968   20.5943 C   0  0  1  0  0  0  0  0  0  0  0  0
  -19.9626  -24.9699   17.0759 C   0  0  2  0  0  0  0  0  0  0  0  0
  -30.1487  -24.8131   21.8748 C   0  0  0  0  0  0  0  0  0  0  0  0
  -19.6795  -25.8736   21.7575 C   0  0  0  0  0  0  0  0  0  0  0  0
  -30.9112  -20.5563   19.7382 N   0  0  0  0  0  0  0  0  0  0  0  0
  -26.2647  -12.3318   21.1638 N   0  0  0  0  0  0  0  0  0  0  0  0
  -26.2625  -13.3698   20.3102 N   0  0  0  0  0  0  0  0  0  0  0  0
  -22.4761  -27.8714   20.7313 N   0  0  0  0  0  0  0  0  0  0  0  0
  -29.5880  -15.1187   19.6276 N   0  0  0  0  0  0  0  0  0  0  0  0
  -24.8724  -15.0466   19.3792 N   0  0  0  0  0  0  0  0  0  0  0  0
  -22.0879  -12.7939   22.1301 N   0  0  0  0  0  0  0  0  0  0  0  0
  -29.0267  -17.3971   19.3907 N   0  0  0  0  0  0  0  0  0  0  0  0
  -22.8190  -30.7137   22.8606 N   0  0  0  0  0  0  0  0  0  0  0  0
  -20.1150  -25.9388   19.2655 N   0  0  0  0  0  0  0  0  0  0  0  0
  -20.9067  -24.7544   15.9431 N   0  3  0  0  0  0  0  0  0  0  0  0
  -22.2289  -14.5277   20.6358 O   0  0  0  0  0  0  0  0  0  0  0  0
  -23.4291  -28.4820   23.1253 O   0  0  0  0  0  0  0  0  0  0  0  0
  -20.2542  -28.5310   20.4776 O   0  0  0  0  0  0  0  0  0  0  0  0
  -21.7531  -24.4352   18.6073 O   0  0  0  0  0  0  0  0  0  0  0  0
  -31.0207  -16.5710   18.5404 O   0  0  0  0  0  0  0  0  0  0  0  0
  -23.4249   -8.4158   25.3049 O   0  0  0  0  0  0  0  0  0  0  0  0
  -28.1718  -25.5056   20.6089 O   0  0  0  0  0  0  0  0  0  1  0  0
  -18.6585   -5.7951   24.4009 F   0  0  0  0  0  0  0  0  0  0  0  0
  -23.3543   -5.6709   24.9829 F   0  0  0  0  0  0  0  0  0  0  0  0
  1  2  1  0  0  0  0
  1  5  2  0  0  0  0
  2  6  2  0  0  0  0
  3  8  2  0  0  0  0
  3 17  1  0  0  0  0
  4  9  1  0  0  0  0
  4 17  2  0  0  0  0
  5 19  1  0  0  0  0
  6 21  1  0  0  0  0
  7 10  2  0  0  0  0
  7 20  1  0  0  0  0
  8 25  1  0  0  0  0
  9 25  2  0  0  0  0
 10 26  1  0  0  0  0
 11 12  2  0  0  0  0
 11 27  1  0  0  0  0
 12 28  1  0  0  0  0
 13 22  1  0  0  0  0
 13 26  2  0  0  0  0
 14 23  2  0  0  0  0
 14 31  1  0  0  0  0
 15 28  2  0  0  0  0
 15 29  1  0  0  0  0
 16 24  2  0  0  0  0
 16 67  1  0  0  0  0
 17 30  1  0  0  0  0
 18 30  1  0  0  0  0
 18 32  2  0  0  0  0
 18 34  1  0  0  0  0
 19 21  2  0  0  0  0
 19 40  1  0  0  0  0
 20 22  2  0  0  0  0
 20 41  1  0  0  0  0
 21 49  1  0  0  0  0
 22 42  1  0  0  0  0
 23 24  1  0  0  0  0
 23 52  1  0  0  0  0
 24 74  1  0  0  0  0
 25 83  1  0  0  0  0
 26 84  1  0  0  0  0
 27 29  2  0  0  0  0
 27 83  1  0  0  0  0
 28 85  1  0  0  0  0
 29 86  1  0  0  0  0
 30 68  2  0  0  0  0
 31 35  1  0  0  0  0
 31 67  2  0  0  0  0
 32 69  1  0  0  0  0
 32 72  1  0  0  0  0
 33 35  2  0  0  0  0
 33 65  1  0  0  0  0
 34 73  1  0  0  0  0
 34 78  2  0  0  0  0
 35 61  1  0  0  0  0
 36 50  1  0  0  0  0
 36 75  1  0  0  0  0
 36 79  2  0  0  0  0
 37 63  1  0  0  0  0
 37 70  1  0  0  0  0
 37 80  2  0  0  0  0
 38 64  1  0  0  0  0
 38 76  1  0  0  0  0
 38 81  2  0  0  0  0
 39 71  1  0  0  0  0
 39 74  1  0  0  0  0
 39 82  2  0  0  0  0
 40 43  1  0  0  0  0
 41 50  1  0  0  0  0
 42 70  1  0  0  0  0
 43 45  1  0  0  0  0
 44 46  1  0  0  0  0
 44 47  1  0  0  0  0
 45 49  1  0  0  0  0
 46 51  1  0  0  0  0
 47 71  1  0  0  0  0
 48 51  1  0  0  0  0
 48 71  1  0  0  0  0
 49 75  1  0  0  0  0
 50 70  1  0  0  0  0
 51 69  1  0  0  0  0
 53 61  1  0  0  0  0
 54 64  1  0  0  0  0
 55 65  1  0  0  0  0
 56 65  1  0  0  0  0
 57 66  1  0  0  0  0
 58 66  1  0  0  0  0
 59 66  1  0  0  0  0
 60 77  1  0  0  0  0
 62 65  1  0  0  0  0
 62 84  1  0  0  0  0
 63 66  1  0  0  0  0
 63 76  1  0  0  0  0
 64 77  1  0  0  0  0
 68 69  1  0  0  0  0
M  CHG  1  77   1
M  ISO  4  39 100  62 101  74 100  84 101
M  END
> <Batch ID>
0136

> <Smiles>
CCC(=CC(C)(C)[101CH2:1][101O:1]c1ccc2c(c1)CN(C(=O)C(NC(=O)C(C)NC)C(C)(C)C)C(C(=O)NC1CCCc3ccccc31)C2)c1cc(C)c([100NH:0][100C:0](=O)N2CCCC(n3nc(-c4ccc(Oc5ccc(F)cc5F)cc4)c(C(N)=O)c3N)C2)cn1

> <Shape>
0.299

> <Color>
0.110

> <Negative vol penalty>
0.000

$$$$

  -OEChem-04052302393D

 87 95  0     1  0  0  0  0  0999 V2000
  -29.6980  -31.4966   26.6190 C   0  0  0  0  0  0  0  0  0  0  0  0
  -29.9931  -30.4169   25.7927 C   0  0  0  0  0  0  0  0  0  0  0  0
  -24.4277   -8.6489   21.0787 C   0  0  0  0  0  0  0  0  0  0  0  0
  -22.9497  -10.5120   20.6524 C   0  0  0  0  0  0  0  0  0  0  0  0
  -28.3700  -31.8510   26.8533 C   0  0  0  0  0  0  0  0  0  0  0  0
  -28.9603  -29.6903   25.2012 C   0  0  0  0  0  0  0  0  0  0  0  0
  -29.0052  -27.0656   19.6682 C   0  0  0  0  0  0  0  0  0  0  0  0
  -23.4712   -8.0829   21.9215 C   0  0  0  0  0  0  0  0  0  0  0  0
  -21.9932   -9.9460   21.4952 C   0  0  0  0  0  0  0  0  0  0  0  0
  -29.2372  -25.7548   19.2536 C   0  0  0  0  0  0  0  0  0  0  0  0
  -19.6748   -7.4923   21.3359 C   0  0  0  0  0  0  0  0  0  0  0  0
  -18.3523   -7.4742   20.8929 C   0  0  0  0  0  0  0  0  0  0  0  0
  -26.8595  -25.3490   19.2264 C   0  0  0  0  0  0  0  0  0  0  0  0
  -26.0567  -20.2457   20.8486 C   0  0  0  0  0  0  0  0  0  0  0  0
  -25.7797  -18.0895   19.7947 C   0  0  0  0  0  0  0  0  0  0  0  0
  -27.8430  -18.6212   20.9335 C   0  0  0  0  0  0  0  0  0  0  0  0
  -17.6935   -8.7949   22.8057 C   0  0  0  0  0  0  0  0  0  0  0  0
  -24.1670   -9.8635   20.4442 C   0  0  0  0  0  0  0  0  0  0  0  0
  -25.2957  -10.2438   18.1883 C   0  0  0  0  0  0  0  0  0  0  0  0
  -27.3207  -31.1343   26.2567 C   0  0  0  0  0  0  0  0  0  0  0  0
  -27.6968  -27.5254   19.8758 C   0  0  0  0  0  0  0  0  0  0  0  0
  -27.6171  -30.0346   25.4289 C   0  0  0  0  0  0  0  0  0  0  0  0
  -26.6134  -26.6667   19.6411 C   0  0  0  0  0  0  0  0  0  0  0  0
  -25.2766  -19.3497   20.1177 C   0  0  0  0  0  0  0  0  0  0  0  0
  -27.3400  -19.8815   21.2565 C   0  0  0  0  0  0  0  0  0  0  0  0
  -27.0629  -17.7252   20.2026 C   0  0  0  0  0  0  0  0  0  0  0  0
  -22.2539   -8.7314   22.1298 C   0  0  0  0  0  0  0  0  0  0  0  0
  -28.1644  -24.8954   19.0355 C   0  0  0  0  0  0  0  0  0  0  0  0
  -20.0067   -8.1616   22.5138 C   0  0  0  0  0  0  0  0  0  0  0  0
  -17.3617   -8.1256   21.6277 C   0  0  0  0  0  0  0  0  0  0  0  0
  -19.0160   -8.8130   23.2487 C   0  0  0  0  0  0  0  0  0  0  0  0
  -25.1549  -10.4490   19.5739 C   0  0  0  0  0  0  0  0  0  0  0  0
  -26.3731  -11.0186   17.8342 C   0  0  0  0  0  0  0  0  0  0  0  0
  -24.5217   -9.4261   17.3006 C   0  0  0  0  0  0  0  0  0  0  0  0
  -26.0772  -28.6275   22.3790 C   0  0  0  0  0  0  0  0  0  0  0  0
  -23.7830  -29.1872   20.1552 C   0  0  0  0  0  0  0  0  0  0  0  0
  -22.4476  -28.4120   17.1118 C   0  0  0  0  0  0  0  0  0  0  0  0
  -28.8261  -15.9259   20.2019 C   0  0  0  0  0  0  0  0  0  0  0  0
  -25.8999  -31.5257   26.5775 C   0  0  0  0  0  0  0  0  0  0  0  0
  -27.4622  -28.9501   20.2973 C   0  0  0  0  0  0  0  0  0  0  0  0
  -25.1888  -27.1176   19.8301 C   0  0  0  0  0  0  0  0  0  0  0  0
  -24.8734  -30.9362   25.6136 C   0  0  0  0  0  0  0  0  0  0  0  0
  -30.4434  -12.8093   19.6119 C   0  0  0  0  0  0  0  0  0  0  0  0
  -25.1461  -29.4530   25.3846 C   0  0  0  0  0  0  0  0  0  0  0  0
  -29.2836  -11.8328   19.4031 C   0  0  0  0  0  0  0  0  0  0  0  0
  -30.1183  -13.8568   20.6753 C   0  0  0  0  0  0  0  0  0  0  0  0
  -27.7035  -13.6124   20.2536 C   0  0  0  0  0  0  0  0  0  0  0  0
  -26.5251  -29.2373   24.7494 C   0  0  1  0  0  0  0  0  0  0  0  0
  -26.1108  -29.1583   20.9737 C   0  0  1  0  0  0  0  0  0  0  0  0
  -27.9592  -12.5778   19.1454 C   0  0  2  0  0  0  0  0  0  0  0  0
  -23.9046  -19.7393   19.6816 C   0  0  0  0  0  0  0  0  0  0  0  0
  -20.5507  -29.0121   15.5823 C   0  0  0  0  0  0  0  0  0  0  0  0
  -26.5992  -20.6013   25.6462 C   0  0  0  0  0  0  0  0  0  0  0  0
  -28.4941  -19.2667   24.7064 C   0  0  0  0  0  0  0  0  0  0  0  0
  -30.4247  -22.6856   17.8147 C   0  0  0  0  0  0  0  0  0  0  0  0
  -21.8623  -27.6041   21.9201 C   0  0  0  0  0  0  0  0  0  0  0  0
  -20.3175  -27.4247   19.9581 C   0  0  0  0  0  0  0  0  0  0  0  0
  -20.8817  -29.6653   20.8983 C   0  0  0  0  0  0  0  0  0  0  0  0
  -24.2961  -29.2950   14.9758 C   0  0  0  0  0  0  0  0  0  0  0  0
  -28.4987  -22.1027   21.1818 C   0  0  0  0  0  0  0  0  0  0  0  0
  -29.2778  -21.7716   19.9046 C   0  0  0  0  0  0  0  0  0  0  0  0
  -27.5388  -21.2468   23.4048 C   0  0  0  0  0  0  0  0  0  0  0  0
  -28.1917  -20.8600   22.0547 C   0  0  1  0  0  0  0  0  0  0  0  0
  -22.6303  -28.3959   19.5858 C   0  0  1  0  0  0  0  0  0  0  0  0
  -21.9988  -29.2880   15.9560 C   0  0  2  0  0  0  0  0  0  0  0  0
  -27.2394  -20.0697   24.3602 C   0  0  0  0  0  0  0  0  0  0  0  0
  -29.6104  -23.0074   19.0597 C   0  0  2  0  0  0  0  0  0  1  0  0
  -21.4498  -28.2631   20.5888 C   0  0  0  0  0  0  0  0  0  0  0  0
  -26.0698  -11.2882   20.0665 N   0  0  0  0  0  0  0  0  0  0  0  0
  -26.7959  -11.6171   18.9845 N   0  0  0  0  0  0  0  0  0  0  0  0
  -25.0113  -28.5177   20.2491 N   0  0  0  0  0  0  0  0  0  0  0  0
  -28.8528  -14.5245   20.3629 N   0  0  0  0  0  0  0  0  0  0  0  0
  -26.9906  -11.2395   16.6543 N   0  0  0  0  0  0  0  0  0  0  0  0
  -23.4492   -8.6954   17.8298 N   0  0  0  0  0  0  0  0  0  0  0  0
  -27.5739  -16.4450   19.8746 N   0  0  0  0  0  0  0  0  0  0  0  0
  -26.4827  -29.5395   23.3347 N   0  0  0  0  0  0  0  0  0  0  0  0
  -22.2749  -29.0411   18.3265 N   0  0  0  0  0  0  0  0  0  0  0  0
  -22.8490  -29.0400   14.7575 N   0  3  0  0  0  0  0  0  0  0  0  0
  -24.7839   -9.3331   16.0775 O   0  0  0  0  0  0  0  0  0  0  0  0
  -25.7093  -27.4763   22.5814 O   0  0  0  0  0  0  0  0  0  0  0  0
  -23.6019  -30.3584   20.4973 O   0  0  0  0  0  0  0  0  0  0  0  0
  -22.9022  -27.2812   16.9530 O   0  0  0  0  0  0  0  0  0  0  0  0
  -29.8450  -16.6119   20.3172 O   0  0  0  0  0  0  0  0  0  0  0  0
  -21.3202   -8.1793   22.9519 O   0  0  0  0  0  0  0  0  0  0  0  0
  -28.3893  -23.6087   18.6294 O   0  0  0  0  0  0  0  0  0  1  0  0
  -16.0920   -8.1094   21.2013 F   0  0  0  0  0  0  0  0  0  0  0  0
  -19.3290   -9.4586   24.3805 F   0  0  0  0  0  0  0  0  0  0  0  0
  1  2  1  0  0  0  0
  1  5  2  0  0  0  0
  2  6  2  0  0  0  0
  3  8  2  0  0  0  0
  3 18  1  0  0  0  0
  4  9  1  0  0  0  0
  4 18  2  0  0  0  0
  5 20  1  0  0  0  0
  6 22  1  0  0  0  0
  7 10  2  0  0  0  0
  7 21  1  0  0  0  0
  8 27  1  0  0  0  0
  9 27  2  0  0  0  0
 10 28  1  0  0  0  0
 11 12  2  0  0  0  0
 11 29  1  0  0  0  0
 12 30  1  0  0  0  0
 13 23  1  0  0  0  0
 13 28  2  0  0  0  0
 14 24  2  0  0  0  0
 14 25  1  0  0  0  0
 15 24  1  0  0  0  0
 15 26  2  0  0  0  0
 16 25  2  0  0  0  0
 16 26  1  0  0  0  0
 17 30  2  0  0  0  0
 17 31  1  0  0  0  0
 18 32  1  0  0  0  0
 19 32  1  0  0  0  0
 19 33  2  0  0  0  0
 19 34  1  0  0  0  0
 20 22  2  0  0  0  0
 20 39  1  0  0  0  0
 21 23  2  0  0  0  0
 21 40  1  0  0  0  0
 22 48  1  0  0  0  0
 23 41  1  0  0  0  0
 24 51  1  0  0  0  0
 25 63  1  0  0  0  0
 26 75  1  0  0  0  0
 27 84  1  0  0  0  0
 28 85  1  0  0  0  0
 29 31  2  0  0  0  0
 29 84  1  0  0  0  0
 30 86  1  0  0  0  0
 31 87  1  0  0  0  0
 32 69  2  0  0  0  0
 33 70  1  0  0  0  0
 33 73  1  0  0  0  0
 34 74  1  0  0  0  0
 34 79  2  0  0  0  0
 35 49  1  0  0  0  0
 35 76  1  0  0  0  0
 35 80  2  0  0  0  0
 36 64  1  0  0  0  0
 36 71  1  0  0  0  0
 36 81  2  0  0  0  0
 37 65  1  0  0  0  0
 37 77  1  0  0  0  0
 37 82  2  0  0  0  0
 38 72  1  0  0  0  0
 38 75  1  0  0  0  0
 38 83  2  0  0  0  0
 39 42  1  0  0  0  0
 40 49  1  0  0  0  0
 41 71  1  0  0  0  0
 42 44  1  0  0  0  0
 43 45  1  0  0  0  0
 43 46  1  0  0  0  0
 44 48  1  0  0  0  0
 45 50  1  0  0  0  0
 46 72  1  0  0  0  0
 47 50  1  0  0  0  0
 47 72  1  0  0  0  0
 48 76  1  0  0  0  0
 49 71  1  0  0  0  0
 50 70  1  0  0  0  0
 52 65  1  0  0  0  0
 53 66  1  0  0  0  0
 54 66  1  0  0  0  0
 55 67  1  0  0  0  0
 56 68  1  0  0  0  0
 57 68  1  0  0  0  0
 58 68  1  0  0  0  0
 59 78  1  0  0  0  0
 60 61  1  0  0  0  0
 60 63  1  0  0  0  0
 61 67  1  0  0  0  0
 62 63  1  0  0  0  0
 62 66  1  0  0  0  0
 64 68  1  0  0  0  0
 64 77  1  0  0  0  0
 65 78  1  0  0  0  0
 67 85  1  0  0  0  0
 69 70  1  0  0  0  0
M  CHG  1  78   1
M  ISO  4  38 100  67 101  75 100  85 101
M  END
> <Batch ID>
0136

> <Smiles>
CNC(C)C(=O)NC(C(=O)N1Cc2cc([101O:1][101CH:1](C)CCC(CC(C)C)c3cc(C)cc([100NH:0][100C:0](=O)N4CCCC(n5nc(-c6ccc(Oc7ccc(F)cc7F)cc6)c(C(N)=O)c5N)C4)c3)ccc2CC1C(=O)NC1CCCc2ccccc21)C(C)(C)C

> <Shape>
0.258

> <Color>
0.075

> <Negative vol penalty>
0.000

$$$$

  -OEChem-04052302393D

 88 96  0     1  0  0  0  0  0999 V2000
  -44.7956  -22.2538   26.3606 C   0  0  0  0  0  0  0  0  0  0  0  0
  -43.4398  -22.5517   26.4532 C   0  0  0  0  0  0  0  0  0  0  0  0
  -23.0552   -9.8854   19.9493 C   0  0  0  0  0  0  0  0  0  0  0  0
  -23.8695   -9.8672   22.2239 C   0  0  0  0  0  0  0  0  0  0  0  0
  -45.3487  -21.9032   25.1298 C   0  0  0  0  0  0  0  0  0  0  0  0
  -42.6366  -22.5002   25.3145 C   0  0  0  0  0  0  0  0  0  0  0  0
  -35.9489  -20.9530   23.2655 C   0  0  0  0  0  0  0  0  0  0  0  0
  -27.6752  -18.4079   21.4935 C   0  0  0  0  0  0  0  0  0  0  0  0
  -22.3170   -8.7297   20.2043 C   0  0  0  0  0  0  0  0  0  0  0  0
  -23.1313   -8.7115   22.4789 C   0  0  0  0  0  0  0  0  0  0  0  0
  -34.8893  -21.5015   22.5444 C   0  0  0  0  0  0  0  0  0  0  0  0
  -28.0163  -18.9981   20.2766 C   0  0  0  0  0  0  0  0  0  0  0  0
  -19.9180   -7.9078   23.1495 C   0  0  0  0  0  0  0  0  0  0  0  0
  -19.1892   -7.8552   24.3376 C   0  0  0  0  0  0  0  0  0  0  0  0
  -29.7601  -17.3546   19.9683 C   0  0  0  0  0  0  0  0  0  0  0  0
  -35.9380  -20.8064   20.4862 C   0  0  0  0  0  0  0  0  0  0  0  0
  -20.4469   -5.9096   25.0231 C   0  0  0  0  0  0  0  0  0  0  0  0
  -23.8315  -10.4541   20.9591 C   0  0  0  0  0  0  0  0  0  0  0  0
  -29.4190  -16.7645   21.1853 C   0  0  0  0  0  0  0  0  0  0  0  0
  -24.1715  -12.9803   20.8585 C   0  0  0  0  0  0  0  0  0  0  0  0
  -44.5499  -21.8380   23.9773 C   0  0  0  0  0  0  0  0  0  0  0  0
  -37.0182  -20.3356   22.6008 C   0  0  0  0  0  0  0  0  0  0  0  0
  -43.1798  -22.1497   24.0668 C   0  0  0  0  0  0  0  0  0  0  0  0
  -37.0088  -20.2486   21.2013 C   0  0  0  0  0  0  0  0  0  0  0  0
  -28.3766  -17.2911   21.9479 C   0  0  0  0  0  0  0  0  0  0  0  0
  -22.3550   -8.1428   21.4691 C   0  0  0  0  0  0  0  0  0  0  0  0
  -29.0587  -18.4715   19.5140 C   0  0  0  0  0  0  0  0  0  0  0  0
  -34.8851  -21.4308   21.1544 C   0  0  0  0  0  0  0  0  0  0  0  0
  -20.9113   -6.9612   22.8981 C   0  0  0  0  0  0  0  0  0  0  0  0
  -19.4536   -6.8561   25.2744 C   0  0  0  0  0  0  0  0  0  0  0  0
  -21.1757   -5.9621   23.8349 C   0  0  0  0  0  0  0  0  0  0  0  0
  -24.5948  -11.6476   20.6961 C   0  0  0  0  0  0  0  0  0  0  0  0
  -25.2551  -13.7335   20.4775 C   0  0  0  0  0  0  0  0  0  0  0  0
  -30.1676  -15.5990   21.6360 C   0  0  0  0  0  0  0  0  0  0  0  0
  -22.9116  -13.4918   21.3132 C   0  0  0  0  0  0  0  0  0  0  0  0
  -30.7698  -14.6509   20.6708 C   0  0  0  0  0  0  0  0  0  0  0  0
  -40.1425  -20.8811   22.3880 C   0  0  0  0  0  0  0  0  0  0  0  0
  -40.1259  -18.0772   20.7569 C   0  0  0  0  0  0  0  0  0  0  0  0
  -38.3727  -15.8223   18.8892 C   0  0  0  0  0  0  0  0  0  0  0  0
  -45.2022  -21.5002   22.6601 C   0  0  0  0  0  0  0  0  0  0  0  0
  -38.1407  -19.7252   23.3944 C   0  0  0  0  0  0  0  0  0  0  0  0
  -38.1229  -19.5785   20.4409 C   0  0  0  0  0  0  0  0  0  0  0  0
  -44.2076  -21.1045   21.5716 C   0  0  0  0  0  0  0  0  0  0  0  0
  -29.5389  -12.4180   18.1497 C   0  0  0  0  0  0  0  0  0  0  0  0
  -43.0405  -22.0860   21.5326 C   0  0  0  0  0  0  0  0  0  0  0  0
  -28.1214  -12.0981   18.6230 C   0  0  0  0  0  0  0  0  0  0  0  0
  -30.4914  -12.6056   19.3261 C   0  0  0  0  0  0  0  0  0  0  0  0
  -28.6195  -13.3226   20.7858 C   0  0  0  0  0  0  0  0  0  0  0  0
  -42.2708  -22.0808   22.8588 C   0  0  1  0  0  0  0  0  0  0  0  0
  -39.4282  -19.5747   22.5900 C   0  0  1  0  0  0  0  0  0  0  0  0
  -27.6227  -13.1536   19.6259 C   0  0  2  0  0  0  0  0  0  0  0  0
  -28.5035  -17.4842   24.4445 C   0  0  0  0  0  0  0  0  0  0  0  0
  -38.6386  -13.6474   17.6660 C   0  0  0  0  0  0  0  0  0  0  0  0
  -41.5696  -19.5290   18.4946 C   0  0  0  0  0  0  0  0  0  0  0  0
  -40.9639  -17.6281   16.9819 C   0  0  0  0  0  0  0  0  0  0  0  0
  -42.4207  -17.2252   18.9663 C   0  0  0  0  0  0  0  0  0  0  0  0
  -29.9554  -20.4149   15.8115 C   0  0  0  0  0  0  0  0  0  0  0  0
  -29.8139  -22.5806   17.0478 C   0  0  0  0  0  0  0  0  0  0  0  0
  -36.3653  -14.4808   20.6009 C   0  0  0  0  0  0  0  0  0  0  0  0
  -27.9904  -16.6789   23.2548 C   0  0  0  0  0  0  0  0  0  0  0  0
  -32.0437  -21.5408   18.9267 C   0  0  0  0  0  0  0  0  0  0  0  0
  -31.6333  -20.8863   17.6045 C   0  0  0  0  0  0  0  0  0  0  0  0
  -33.5311  -21.3514   19.2009 C   0  0  0  0  0  0  0  0  0  1  0  0
  -29.1689  -20.4510   18.2006 C   0  0  0  0  0  0  0  0  0  0  0  0
  -39.9581  -17.6836   19.3092 C   0  0  1  0  0  0  0  0  0  0  0  0
  -38.2584  -14.3113   18.9803 C   0  0  2  0  0  0  0  0  0  0  0  0
  -41.2079  -18.0309   18.4519 C   0  0  0  0  0  0  0  0  0  0  0  0
  -30.1482  -21.0849   17.1893 C   0  0  0  0  0  0  0  0  0  0  0  0
  -25.8493  -11.5561   20.2468 N   0  0  0  0  0  0  0  0  0  0  0  0
  -30.3581  -15.3154   22.8950 N   0  0  0  0  0  0  0  0  0  0  0  0
  -26.2236  -12.8409   20.1235 N   0  0  0  0  0  0  0  0  0  0  0  0
  -29.9710  -13.5868   20.2762 N   0  0  0  0  0  0  0  0  0  0  0  0
  -39.2010  -19.0023   21.2615 N   0  0  0  0  0  0  0  0  0  0  0  0
  -25.4643  -15.0657   20.4140 N   0  0  0  0  0  0  0  0  0  0  0  0
  -21.9076  -12.5792   21.6646 N   0  0  0  0  0  0  0  0  0  0  0  0
  -41.4092  -20.9208   22.9387 N   0  0  0  0  0  0  0  0  0  0  0  0
  -39.6083  -16.2672   19.3092 N   0  0  0  0  0  0  0  0  0  0  0  0
  -36.8617  -13.9170   19.3192 N   0  3  0  0  0  0  0  0  0  0  0  0
  -22.6774  -14.7217   21.3896 O   0  0  0  0  0  0  0  0  0  0  0  0
  -31.9146  -14.9087   20.3226 O   0  0  0  0  0  0  0  0  0  0  0  0
  -39.5861  -21.7856   21.7764 O   0  0  0  0  0  0  0  0  0  0  0  0
  -41.0394  -17.5768   21.4177 O   0  0  0  0  0  0  0  0  0  0  0  0
  -37.4586  -16.5361   18.4825 O   0  0  0  0  0  0  0  0  0  0  0  0
  -21.6345   -7.0152   21.7184 O   0  0  0  0  0  0  0  0  0  0  0  0
  -29.3942  -19.0523   18.3190 O   0  0  0  0  0  0  0  0  0  0  0  0
  -33.8523  -21.9659   20.4481 O   0  0  0  0  0  0  0  0  0  1  0  0
  -18.7547   -6.8067   26.4160 F   0  0  0  0  0  0  0  0  0  0  0  0
  -22.1295   -5.0507   23.5995 F   0  0  0  0  0  0  0  0  0  0  0  0
  1  2  1  0  0  0  0
  1  5  2  0  0  0  0
  2  6  2  0  0  0  0
  3  9  2  0  0  0  0
  3 18  1  0  0  0  0
  4 10  1  0  0  0  0
  4 18  2  0  0  0  0
  5 21  1  0  0  0  0
  6 23  1  0  0  0  0
  7 11  2  0  0  0  0
  7 22  1  0  0  0  0
  8 12  2  0  0  0  0
  8 25  1  0  0  0  0
  9 26  1  0  0  0  0
 10 26  2  0  0  0  0
 11 28  1  0  0  0  0
 12 27  1  0  0  0  0
 13 14  2  0  0  0  0
 13 29  1  0  0  0  0
 14 30  1  0  0  0  0
 15 19  1  0  0  0  0
 15 27  2  0  0  0  0
 16 24  1  0  0  0  0
 16 28  2  0  0  0  0
 17 30  2  0  0  0  0
 17 31  1  0  0  0  0
 18 32  1  0  0  0  0
 19 25  2  0  0  0  0
 19 34  1  0  0  0  0
 20 32  1  0  0  0  0
 20 33  2  0  0  0  0
 20 35  1  0  0  0  0
 21 23  2  0  0  0  0
 21 40  1  0  0  0  0
 22 24  2  0  0  0  0
 22 41  1  0  0  0  0
 23 49  1  0  0  0  0
 24 42  1  0  0  0  0
 25 60  1  0  0  0  0
 26 84  1  0  0  0  0
 27 85  1  0  0  0  0
 28 86  1  0  0  0  0
 29 31  2  0  0  0  0
 29 84  1  0  0  0  0
 30 87  1  0  0  0  0
 31 88  1  0  0  0  0
 32 69  2  0  0  0  0
 33 71  1  0  0  0  0
 33 74  1  0  0  0  0
 34 36  1  0  0  0  0
 34 70  2  0  0  0  0
 35 75  1  0  0  0  0
 35 79  2  0  0  0  0
 36 72  1  0  0  0  0
 36 80  2  0  0  0  0
 37 50  1  0  0  0  0
 37 76  1  0  0  0  0
 37 81  2  0  0  0  0
 38 65  1  0  0  0  0
 38 73  1  0  0  0  0
 38 82  2  0  0  0  0
 39 66  1  0  0  0  0
 39 77  1  0  0  0  0
 39 83  2  0  0  0  0
 40 43  1  0  0  0  0
 41 50  1  0  0  0  0
 42 73  1  0  0  0  0
 43 45  1  0  0  0  0
 44 46  1  0  0  0  0
 44 47  1  0  0  0  0
 45 49  1  0  0  0  0
 46 51  1  0  0  0  0
 47 72  1  0  0  0  0
 48 51  1  0  0  0  0
 48 72  1  0  0  0  0
 49 76  1  0  0  0  0
 50 73  1  0  0  0  0
 51 71  1  0  0  0  0
 52 60  1  0  0  0  0
 53 66  1  0  0  0  0
 54 67  1  0  0  0  0
 55 67  1  0  0  0  0
 56 67  1  0  0  0  0
 57 68  1  0  0  0  0
 58 68  1  0  0  0  0
 59 78  1  0  0  0  0
 61 62  1  0  0  0  0
 61 63  1  0  0  0  0
 62 68  1  0  0  0  0
 63 86  1  0  0  0  0
 64 68  1  0  0  0  0
 64 85  1  0  0  0  0
 65 67  1  0  0  0  0
 65 77  1  0  0  0  0
 66 78  1  0  0  0  0
 69 71  1  0  0  0  0
M  CHG  1  78   1
M  ISO  4  34 100  36 100  63 101  86 101
M  END
> <Batch ID>
0136

> <Smiles>
CCc1ccc(OCC(C)(C)CC[101CH2:1][101O:1]c2ccc3c(c2)CN(C(=O)C(NC(=O)C(C)NC)C(C)(C)C)C(C(=O)NC2CCCc4ccccc42)C3)cc1[100C:0](=N)[100C:0](=O)N1CCCC(n2nc(-c3ccc(Oc4ccc(F)cc4F)cc3)c(C(N)=O)c2N)C1

> <Shape>
0.201

> <Color>
0.182

> <Negative vol penalty>
0.000

$$$$

  -OEChem-04052302393D

 85 93  0     1  0  0  0  0  0999 V2000
  -29.8868  -32.2630   24.6954 C   0  0  0  0  0  0  0  0  0  0  0  0
  -29.7828  -31.0191   25.3097 C   0  0  0  0  0  0  0  0  0  0  0  0
  -23.0386   -9.9328   19.9533 C   0  0  0  0  0  0  0  0  0  0  0  0
  -23.7729   -9.9511   22.2550 C   0  0  0  0  0  0  0  0  0  0  0  0
  -32.6459  -17.4962   23.5105 C   0  0  0  0  0  0  0  0  0  0  0  0
  -29.5485  -32.4055   23.3504 C   0  0  0  0  0  0  0  0  0  0  0  0
  -29.3392  -29.9171   24.5795 C   0  0  0  0  0  0  0  0  0  0  0  0
  -32.1463  -25.7835   25.4030 C   0  0  0  0  0  0  0  0  0  0  0  0
  -32.0576  -16.6109   22.6074 C   0  0  0  0  0  0  0  0  0  0  0  0
  -22.2815   -8.7885   20.2040 C   0  0  0  0  0  0  0  0  0  0  0  0
  -23.0158   -8.8068   22.5056 C   0  0  0  0  0  0  0  0  0  0  0  0
  -31.9162  -25.0829   26.5863 C   0  0  0  0  0  0  0  0  0  0  0  0
  -23.2825   -5.4780   21.9777 C   0  0  0  0  0  0  0  0  0  0  0  0
  -23.8806   -4.4529   22.7105 C   0  0  0  0  0  0  0  0  0  0  0  0
  -30.4656  -18.3728   24.0716 C   0  0  0  0  0  0  0  0  0  0  0  0
  -30.5805  -23.4826   25.3721 C   0  0  0  0  0  0  0  0  0  0  0  0
  -22.1619   -4.6554   24.3964 C   0  0  0  0  0  0  0  0  0  0  0  0
  -23.7844  -10.5141   20.9788 C   0  0  0  0  0  0  0  0  0  0  0  0
  -31.8499  -18.3771   24.2427 C   0  0  0  0  0  0  0  0  0  0  0  0
  -24.1506  -13.0351   20.8428 C   0  0  0  0  0  0  0  0  0  0  0  0
  -29.1097  -31.3026   22.6008 C   0  0  0  0  0  0  0  0  0  0  0  0
  -31.5853  -25.3442   24.1952 C   0  0  0  0  0  0  0  0  0  0  0  0
  -28.9934  -30.0452   23.2235 C   0  0  0  0  0  0  0  0  0  0  0  0
  -30.8071  -24.1779   24.1744 C   0  0  0  0  0  0  0  0  0  0  0  0
  -30.6733  -16.6066   22.4362 C   0  0  0  0  0  0  0  0  0  0  0  0
  -22.2700   -8.2255   21.4801 C   0  0  0  0  0  0  0  0  0  0  0  0
  -31.1309  -23.9340   26.5714 C   0  0  0  0  0  0  0  0  0  0  0  0
  -22.1242   -6.0919   22.4542 C   0  0  0  0  0  0  0  0  0  0  0  0
  -23.3203   -4.0416   23.9199 C   0  0  0  0  0  0  0  0  0  0  0  0
  -29.8773  -17.4876   23.1684 C   0  0  0  0  0  0  0  0  0  0  0  0
  -21.5639   -5.6806   23.6636 C   0  0  0  0  0  0  0  0  0  0  0  0
  -24.5671  -11.6959   20.7204 C   0  0  0  0  0  0  0  0  0  0  0  0
  -25.2535  -13.7717   20.4859 C   0  0  0  0  0  0  0  0  0  0  0  0
  -32.4786  -19.3230   25.2074 C   0  0  0  0  0  0  0  0  0  0  0  0
  -22.8803  -13.5657   21.2434 C   0  0  0  0  0  0  0  0  0  0  0  0
  -29.5276  -26.5651   22.1026 C   0  0  0  0  0  0  0  0  0  0  0  0
  -30.2947  -23.9171   20.3932 C   0  0  0  0  0  0  0  0  0  0  0  0
  -31.4663  -20.7118   20.3864 C   0  0  0  0  0  0  0  0  0  0  0  0
  -30.7267  -14.7692   20.7137 C   0  0  0  0  0  0  0  0  0  0  0  0
  -28.7102  -31.5154   21.1621 C   0  0  0  0  0  0  0  0  0  0  0  0
  -31.8650  -26.0961   22.9229 C   0  0  0  0  0  0  0  0  0  0  0  0
  -30.1987  -23.6532   22.9005 C   0  0  0  0  0  0  0  0  0  0  0  0
  -28.6061  -30.2201   20.3610 C   0  0  0  0  0  0  0  0  0  0  0  0
  -29.6167  -12.3468   18.3521 C   0  0  0  0  0  0  0  0  0  0  0  0
  -27.8280  -29.1684   21.1453 C   0  0  0  0  0  0  0  0  0  0  0  0
  -28.1698  -12.0717   18.7678 C   0  0  0  0  0  0  0  0  0  0  0  0
  -30.5205  -12.5768   19.5621 C   0  0  0  0  0  0  0  0  0  0  0  0
  -28.6050  -13.3295   20.9162 C   0  0  0  0  0  0  0  0  0  0  0  0
  -28.5398  -28.8209   22.4584 C   0  0  1  0  0  0  0  0  0  0  0  0
  -30.8205  -25.8463   21.8393 C   0  0  1  0  0  0  0  0  0  0  0  0
  -27.6438  -13.1557   19.7289 C   0  0  2  0  0  0  0  0  0  0  0  0
  -31.9442  -18.7924   18.8421 C   0  0  0  0  0  0  0  0  0  0  0  0
  -27.3079  -23.3185   20.2169 C   0  0  0  0  0  0  0  0  0  0  0  0
  -27.8877  -20.9819   19.5295 C   0  0  0  0  0  0  0  0  0  0  0  0
  -28.5807  -22.9079   18.1036 C   0  0  0  0  0  0  0  0  0  0  0  0
  -29.2031  -21.6056   27.4270 C   0  0  0  0  0  0  0  0  0  0  0  0
  -31.1669  -21.1950   28.9243 C   0  0  0  0  0  0  0  0  0  0  0  0
  -34.3430  -20.7174   21.0818 C   0  0  0  0  0  0  0  0  0  0  0  0
  -31.7188  -19.7751   26.4455 C   0  0  0  0  0  0  0  0  0  0  0  0
  -31.5338  -21.2959   26.4361 C   0  0  0  0  0  0  0  0  0  0  0  0
  -29.7580  -22.5088   20.3052 C   0  0  1  0  0  0  0  0  0  0  0  0
  -32.5134  -20.0239   19.5292 C   0  0  2  0  0  0  0  0  0  0  0  0
  -28.3933  -22.4400   19.5633 C   0  0  0  0  0  0  0  0  0  0  0  0
  -30.7023  -21.8403   27.6149 C   0  0  0  0  0  0  0  0  0  1  0  0
  -25.8356  -11.5853   20.3171 N   0  0  0  0  0  0  0  0  0  0  0  0
  -33.6768  -19.7699   24.9969 N   0  0  0  0  0  0  0  0  0  0  0  0
  -26.2256  -12.8644   20.1829 N   0  0  0  0  0  0  0  0  0  0  0  0
  -30.4959  -24.4269   21.6837 N   0  0  0  0  0  0  0  0  0  0  0  0
  -29.9612  -13.6196   20.4250 N   0  0  0  0  0  0  0  0  0  0  0  0
  -25.4769  -15.1006   20.4049 N   0  0  0  0  0  0  0  0  0  0  0  0
  -21.8564  -12.6684   21.5765 N   0  0  0  0  0  0  0  0  0  0  0  0
  -30.0788  -15.7065   21.5175 N   0  0  0  0  0  0  0  0  0  0  0  0
  -29.6580  -27.9367   22.2084 N   0  0  0  0  0  0  0  0  0  0  0  0
  -30.8122  -21.7078   19.6926 N   0  0  0  0  0  0  0  0  0  0  0  0
  -33.6721  -19.6018   20.3660 N   0  3  0  0  0  0  0  0  0  0  0  0
  -22.6546  -14.7988   21.2885 O   0  0  0  0  0  0  0  0  0  0  0  0
  -28.4885  -25.9231   22.2009 O   0  0  0  0  0  0  0  0  0  0  0  0
  -30.5335  -24.5392   19.3552 O   0  0  0  0  0  0  0  0  0  0  0  0
  -31.2477  -20.3946   21.5535 O   0  0  0  0  0  0  0  0  0  0  0  0
  -31.8624  -14.9239   20.2574 O   0  0  0  0  0  0  0  0  0  0  0  0
  -21.5312   -7.1089   21.7251 O   0  0  0  0  0  0  0  0  0  0  0  0
  -30.9042  -23.2487   27.7251 O   0  0  0  0  0  0  0  0  0  1  0  0
  -23.8939   -3.0561   24.6227 F   0  0  0  0  0  0  0  0  0  0  0  0
  -28.5456  -17.4929   23.0118 F   0  0  0  0  0  0  0  0  0  0  0  0
  -20.4505   -6.2658   24.1259 F   0  0  0  0  0  0  0  0  0  0  0  0
  1  2  1  0  0  0  0
  1  6  2  0  0  0  0
  2  7  2  0  0  0  0
  3 10  2  0  0  0  0
  3 18  1  0  0  0  0
  4 11  1  0  0  0  0
  4 18  2  0  0  0  0
  5  9  2  0  0  0  0
  5 19  1  0  0  0  0
  6 21  1  0  0  0  0
  7 23  1  0  0  0  0
  8 12  2  0  0  0  0
  8 22  1  0  0  0  0
  9 25  1  0  0  0  0
 10 26  1  0  0  0  0
 11 26  2  0  0  0  0
 12 27  1  0  0  0  0
 13 14  2  0  0  0  0
 13 28  1  0  0  0  0
 14 29  1  0  0  0  0
 15 19  2  0  0  0  0
 15 30  1  0  0  0  0
 16 24  1  0  0  0  0
 16 27  2  0  0  0  0
 17 29  2  0  0  0  0
 17 31  1  0  0  0  0
 18 32  1  0  0  0  0
 19 34  1  0  0  0  0
 20 32  1  0  0  0  0
 20 33  2  0  0  0  0
 20 35  1  0  0  0  0
 21 23  2  0  0  0  0
 21 40  1  0  0  0  0
 22 24  2  0  0  0  0
 22 41  1  0  0  0  0
 23 49  1  0  0  0  0
 24 42  1  0  0  0  0
 25 30  2  0  0  0  0
 25 72  1  0  0  0  0
 26 81  1  0  0  0  0
 27 82  1  0  0  0  0
 28 31  2  0  0  0  0
 28 81  1  0  0  0  0
 29 83  1  0  0  0  0
 30 84  1  0  0  0  0
 31 85  1  0  0  0  0
 32 65  2  0  0  0  0
 33 67  1  0  0  0  0
 33 70  1  0  0  0  0
 34 59  1  0  0  0  0
 34 66  2  0  0  0  0
 35 71  1  0  0  0  0
 35 76  2  0  0  0  0
 36 50  1  0  0  0  0
 36 73  1  0  0  0  0
 36 77  2  0  0  0  0
 37 61  1  0  0  0  0
 37 68  1  0  0  0  0
 37 78  2  0  0  0  0
 38 62  1  0  0  0  0
 38 74  1  0  0  0  0
 38 79  2  0  0  0  0
 39 69  1  0  0  0  0
 39 72  1  0  0  0  0
 39 80  2  0  0  0  0
 40 43  1  0  0  0  0
 41 50  1  0  0  0  0
 42 68  1  0  0  0  0
 43 45  1  0  0  0  0
 44 46  1  0  0  0  0
 44 47  1  0  0  0  0
 45 49  1  0  0  0  0
 46 51  1  0  0  0  0
 47 69  1  0  0  0  0
 48 51  1  0  0  0  0
 48 69  1  0  0  0  0
 49 73  1  0  0  0  0
 50 68  1  0  0  0  0
 51 67  1  0  0  0  0
 52 62  1  0  0  0  0
 53 63  1  0  0  0  0
 54 63  1  0  0  0  0
 55 63  1  0  0  0  0
 56 64  1  0  0  0  0
 57 64  1  0  0  0  0
 58 75  1  0  0  0  0
 59 60  1  0  0  0  0
 60 64  1  0  0  0  0
 61 63  1  0  0  0  0
 61 74  1  0  0  0  0
 62 75  1  0  0  0  0
 64 82  1  0  0  0  0
 65 67  1  0  0  0  0
M  CHG  1  75   1
M  ISO  4  39 100  64 101  72 100  82 101
M  END
> <Batch ID>
0136

> <Smiles>
CNC(C)C(=O)NC(C(=O)N1Cc2cc([101O:1][101C:1](C)(C)CCC(=N)c3ccc([100NH:0][100C:0](=O)N4CCCC(n5nc(-c6ccc(Oc7ccc(F)cc7F)cc6)c(C(N)=O)c5N)C4)c(F)c3)ccc2CC1C(=O)NC1CCCc2ccccc21)C(C)(C)C

> <Shape>
0.247

> <Color>
0.206

> <Negative vol penalty>
0.000

$$$$

  -OEChem-04052302393D

 84 92  0     1  0  0  0  0  0999 V2000
  -29.5124  -30.0327   12.1785 C   0  0  0  0  0  0  0  0  0  0  0  0
  -29.7801  -29.8396   13.5300 C   0  0  0  0  0  0  0  0  0  0  0  0
  -23.0029   -9.8916   19.9798 C   0  0  0  0  0  0  0  0  0  0  0  0
  -23.7282   -9.9420   22.2838 C   0  0  0  0  0  0  0  0  0  0  0  0
  -28.9731  -28.9941   11.4206 C   0  0  0  0  0  0  0  0  0  0  0  0
  -29.5077  -28.6080   14.1245 C   0  0  0  0  0  0  0  0  0  0  0  0
  -32.6939  -25.8928   18.5946 C   0  0  0  0  0  0  0  0  0  0  0  0
  -22.2377   -8.7561   20.2455 C   0  0  0  0  0  0  0  0  0  0  0  0
  -22.9629   -8.8065   22.5496 C   0  0  0  0  0  0  0  0  0  0  0  0
  -32.5024  -25.8232   19.9738 C   0  0  0  0  0  0  0  0  0  0  0  0
  -23.2108   -5.4681   22.0757 C   0  0  0  0  0  0  0  0  0  0  0  0
  -23.7995   -4.4511   22.8271 C   0  0  0  0  0  0  0  0  0  0  0  0
  -31.4064  -23.6908   19.7079 C   0  0  0  0  0  0  0  0  0  0  0  0
  -22.0755   -4.6912   24.5026 C   0  0  0  0  0  0  0  0  0  0  0  0
  -31.7976  -17.5055   21.7167 C   0  0  0  0  0  0  0  0  0  0  0  0
  -23.7483  -10.4846   20.9990 C   0  0  0  0  0  0  0  0  0  0  0  0
  -24.1308  -13.0007   20.8244 C   0  0  0  0  0  0  0  0  0  0  0  0
  -28.7029  -27.7462   12.0039 C   0  0  0  0  0  0  0  0  0  0  0  0
  -32.2326  -24.8654   17.7592 C   0  0  0  0  0  0  0  0  0  0  0  0
  -28.9630  -27.5522   13.3740 C   0  0  0  0  0  0  0  0  0  0  0  0
  -31.5955  -23.7486   18.3187 C   0  0  0  0  0  0  0  0  0  0  0  0
  -22.2176   -8.2136   21.5304 C   0  0  0  0  0  0  0  0  0  0  0  0
  -31.8561  -24.7234   20.5304 C   0  0  0  0  0  0  0  0  0  0  0  0
  -22.0545   -6.0968   22.5377 C   0  0  0  0  0  0  0  0  0  0  0  0
  -23.2319   -4.0626   24.0406 C   0  0  0  0  0  0  0  0  0  0  0  0
  -21.4868   -5.7082   23.7511 C   0  0  0  0  0  0  0  0  0  0  0  0
  -24.5395  -11.6572   20.7250 C   0  0  0  0  0  0  0  0  0  0  0  0
  -31.6741  -18.7195   22.4143 C   0  0  0  0  0  0  0  0  0  0  0  0
  -25.2398  -13.7247   20.4604 C   0  0  0  0  0  0  0  0  0  0  0  0
  -30.5898  -16.8909   21.9163 C   0  0  0  0  0  0  0  0  0  0  0  0
  -32.3929  -21.0403   22.6171 C   0  0  0  0  0  0  0  0  0  0  0  0
  -22.8623  -13.5455   21.2114 C   0  0  0  0  0  0  0  0  0  0  0  0
  -32.7438  -19.7464   22.4936 C   0  0  0  0  0  0  0  0  0  0  0  0
  -33.3544  -22.1813   22.7084 C   0  0  0  0  0  0  0  0  0  0  0  0
  -30.1269  -24.6795   15.3853 C   0  0  0  0  0  0  0  0  0  0  0  0
  -31.2573  -21.6490   15.1397 C   0  0  0  0  0  0  0  0  0  0  0  0
  -32.7906  -18.9978   16.6455 C   0  0  0  0  0  0  0  0  0  0  0  0
  -30.7183  -14.6915   20.6946 C   0  0  0  0  0  0  0  0  0  0  0  0
  -28.0759  -26.6686   11.1551 C   0  0  0  0  0  0  0  0  0  0  0  0
  -32.4706  -24.9429   16.2761 C   0  0  0  0  0  0  0  0  0  0  0  0
  -31.0995  -22.6094   17.4674 C   0  0  0  0  0  0  0  0  0  0  0  0
  -28.1655  -25.2762   11.7744 C   0  0  0  0  0  0  0  0  0  0  0  0
  -29.6024  -12.2390   18.3672 C   0  0  0  0  0  0  0  0  0  0  0  0
  -27.7622  -25.3190   13.2449 C   0  0  0  0  0  0  0  0  0  0  0  0
  -28.1521  -11.9795   18.7813 C   0  0  0  0  0  0  0  0  0  0  0  0
  -30.5028  -12.4825   19.5770 C   0  0  0  0  0  0  0  0  0  0  0  0
  -28.5867  -13.2685   20.9112 C   0  0  0  0  0  0  0  0  0  0  0  0
  -28.7043  -26.2229   14.0493 C   0  0  1  0  0  0  0  0  0  0  0  0
  -31.5030  -24.0821   15.4698 C   0  0  1  0  0  0  0  0  0  0  0  0
  -27.6291  -13.0819   19.7230 C   0  0  2  0  0  0  0  0  0  0  0  0
  -34.1549  -19.2277   22.4309 C   0  0  0  0  0  0  0  0  0  0  0  0
  -33.5438  -16.6456   16.2016 C   0  0  0  0  0  0  0  0  0  0  0  0
  -32.7772  -25.8901   23.6036 C   0  0  0  0  0  0  0  0  0  0  0  0
  -28.3683  -20.6884   15.3412 C   0  0  0  0  0  0  0  0  0  0  0  0
  -29.2390  -18.3961   15.8466 C   0  0  0  0  0  0  0  0  0  0  0  0
  -29.7575  -19.4703   13.6558 C   0  0  0  0  0  0  0  0  0  0  0  0
  -35.6196  -19.6783   17.1863 C   0  0  0  0  0  0  0  0  0  0  0  0
  -32.8686  -23.3763   23.5159 C   0  0  0  0  0  0  0  0  0  0  0  0
  -30.8904  -20.3182   15.7509 C   0  0  1  0  0  0  0  0  0  0  0  0
  -33.9412  -18.1135   16.1999 C   0  0  2  0  0  0  0  0  0  0  0  0
  -32.8343  -24.6674   22.6974 C   0  0  1  0  0  0  0  0  0  1  0  0
  -29.5713  -19.7404   15.1648 C   0  0  0  0  0  0  0  0  0  0  0  0
  -25.8088  -11.5323   20.3287 N   0  0  0  0  0  0  0  0  0  0  0  0
  -30.4810  -18.8481   23.0014 N   0  0  0  0  0  0  0  0  0  0  0  0
  -26.2074  -12.8066   20.1758 N   0  0  0  0  0  0  0  0  0  0  0  0
  -31.3503  -22.7346   16.0221 N   0  0  0  0  0  0  0  0  0  0  0  0
  -29.9467  -13.5423   20.4211 N   0  0  0  0  0  0  0  0  0  0  0  0
  -25.4718  -15.0507   20.3591 N   0  0  0  0  0  0  0  0  0  0  0  0
  -21.8315  -12.6600   21.5545 N   0  0  0  0  0  0  0  0  0  0  0  0
  -30.0730  -15.6455   21.4809 N   0  0  0  0  0  0  0  0  0  0  0  0
  -29.9517  -25.5404   14.3187 N   0  0  0  0  0  0  0  0  0  0  0  0
  -32.0521  -19.4536   15.5739 N   0  0  0  0  0  0  0  0  0  0  0  0
  -35.1090  -18.2853   17.1096 N   0  3  0  0  0  0  0  0  0  0  0  0
  -22.6442  -14.7805   21.2359 O   0  0  0  0  0  0  0  0  0  0  0  0
  -34.4693  -22.1330   22.1977 O   0  0  0  0  0  0  0  0  0  0  0  0
  -29.2858  -24.3803   16.2248 O   0  0  0  0  0  0  0  0  0  0  0  0
  -31.4611  -21.7211   13.9253 O   0  0  0  0  0  0  0  0  0  0  0  0
  -32.5669  -19.2552   17.8262 O   0  0  0  0  0  0  0  0  0  0  0  0
  -31.8567  -14.8319   20.2406 O   0  0  0  0  0  0  0  0  0  0  0  0
  -29.7954  -17.6823   22.6815 O   0  0  0  0  0  0  0  0  0  0  0  0
  -21.4708   -7.1057   21.7901 O   0  0  0  0  0  0  0  0  0  0  0  0
  -31.6673  -24.6532   21.8763 O   0  0  0  0  0  0  0  0  0  1  0  0
  -23.7964   -3.0849   24.7614 F   0  0  0  0  0  0  0  0  0  0  0  0
  -20.3753   -6.3076   24.1996 F   0  0  0  0  0  0  0  0  0  0  0  0
  1  2  1  0  0  0  0
  1  5  2  0  0  0  0
  2  6  2  0  0  0  0
  3  8  2  0  0  0  0
  3 16  1  0  0  0  0
  4  9  1  0  0  0  0
  4 16  2  0  0  0  0
  5 18  1  0  0  0  0
  6 20  1  0  0  0  0
  7 10  2  0  0  0  0
  7 19  1  0  0  0  0
  8 22  1  0  0  0  0
  9 22  2  0  0  0  0
 10 23  1  0  0  0  0
 11 12  2  0  0  0  0
 11 24  1  0  0  0  0
 12 25  1  0  0  0  0
 13 21  1  0  0  0  0
 13 23  2  0  0  0  0
 14 25  2  0  0  0  0
 14 26  1  0  0  0  0
 15 28  1  0  0  0  0
 15 30  2  0  0  0  0
 16 27  1  0  0  0  0
 17 27  1  0  0  0  0
 17 29  2  0  0  0  0
 17 32  1  0  0  0  0
 18 20  2  0  0  0  0
 18 39  1  0  0  0  0
 19 21  2  0  0  0  0
 19 40  1  0  0  0  0
 20 48  1  0  0  0  0
 21 41  1  0  0  0  0
 22 81  1  0  0  0  0
 23 82  1  0  0  0  0
 24 26  2  0  0  0  0
 24 81  1  0  0  0  0
 25 83  1  0  0  0  0
 26 84  1  0  0  0  0
 27 63  2  0  0  0  0
 28 33  1  0  0  0  0
 28 64  2  0  0  0  0
 29 65  1  0  0  0  0
 29 68  1  0  0  0  0
 30 70  1  0  0  0  0
 30 80  1  0  0  0  0
 31 33  2  0  0  0  0
 31 34  1  0  0  0  0
 32 69  1  0  0  0  0
 32 74  2  0  0  0  0
 33 51  1  0  0  0  0
 34 58  1  0  0  0  0
 34 75  2  0  0  0  0
 35 49  1  0  0  0  0
 35 71  1  0  0  0  0
 35 76  2  0  0  0  0
 36 59  1  0  0  0  0
 36 66  1  0  0  0  0
 36 77  2  0  0  0  0
 37 60  1  0  0  0  0
 37 72  1  0  0  0  0
 37 78  2  0  0  0  0
 38 67  1  0  0  0  0
 38 70  1  0  0  0  0
 38 79  2  0  0  0  0
 39 42  1  0  0  0  0
 40 49  1  0  0  0  0
 41 66  1  0  0  0  0
 42 44  1  0  0  0  0
 43 45  1  0  0  0  0
 43 46  1  0  0  0  0
 44 48  1  0  0  0  0
 45 50  1  0  0  0  0
 46 67  1  0  0  0  0
 47 50  1  0  0  0  0
 47 67  1  0  0  0  0
 48 71  1  0  0  0  0
 49 66  1  0  0  0  0
 50 65  1  0  0  0  0
 52 60  1  0  0  0  0
 53 61  1  0  0  0  0
 54 62  1  0  0  0  0
 55 62  1  0  0  0  0
 56 62  1  0  0  0  0
 57 73  1  0  0  0  0
 58 61  1  0  0  0  0
 59 62  1  0  0  0  0
 59 72  1  0  0  0  0
 60 73  1  0  0  0  0
 61 82  1  0  0  0  0
 63 65  1  0  0  0  0
 64 80  1  0  0  0  0
M  CHG  1  73   1
M  ISO  4  38 100  61 101  70 100  82 101
M  END
> <Batch ID>
0136

> <Smiles>
CNC(C)C(=O)NC(C(=O)N1Cc2cc([101O:1][101CH:1](C)CC(=O)C=C(C)c3cc([100NH:0][100C:0](=O)N4CCCC(n5nc(-c6ccc(Oc7ccc(F)cc7F)cc6)c(C(N)=O)c5N)C4)on3)ccc2CC1C(=O)NC1CCCc2ccccc21)C(C)(C)C

> <Shape>
0.200

> <Color>
0.193

> <Negative vol penalty>
0.000

$$$$

  -OEChem-04052302393D

 88 96  0     1  0  0  0  0  0999 V2000
  -31.0919  -18.9232   34.7265 C   0  0  0  0  0  0  0  0  0  0  0  0
  -30.0100  -18.3319   34.0820 C   0  0  0  0  0  0  0  0  0  0  0  0
  -23.1739   -9.8607   19.9572 C   0  0  0  0  0  0  0  0  0  0  0  0
  -23.9065   -9.9211   22.2587 C   0  0  0  0  0  0  0  0  0  0  0  0
  -31.0340  -20.2671   35.0929 C   0  0  0  0  0  0  0  0  0  0  0  0
  -28.8691  -19.0840   33.8046 C   0  0  0  0  0  0  0  0  0  0  0  0
  -27.1333  -18.3204   29.1089 C   0  0  0  0  0  0  0  0  0  0  0  0
  -22.4679   -8.6852   20.2127 C   0  0  0  0  0  0  0  0  0  0  0  0
  -23.2004   -8.7456   22.5143 C   0  0  0  0  0  0  0  0  0  0  0  0
  -26.4093  -17.1511   28.8800 C   0  0  0  0  0  0  0  0  0  0  0  0
  -19.9953   -7.8423   23.0903 C   0  0  0  0  0  0  0  0  0  0  0  0
  -19.2267   -7.7895   24.2530 C   0  0  0  0  0  0  0  0  0  0  0  0
  -24.3521  -18.4007   29.0399 C   0  0  0  0  0  0  0  0  0  0  0  0
  -27.1747  -15.8460   23.7426 C   0  0  0  0  0  0  0  0  0  0  0  0
  -25.9935  -17.9508   23.6367 C   0  0  0  0  0  0  0  0  0  0  0  0
  -28.1465  -17.7187   22.5653 C   0  0  0  0  0  0  0  0  0  0  0  0
  -20.5263   -5.9055   25.0266 C   0  0  0  0  0  0  0  0  0  0  0  0
  -23.8933  -10.4786   20.9802 C   0  0  0  0  0  0  0  0  0  0  0  0
  -24.1481  -13.0126   20.8335 C   0  0  0  0  0  0  0  0  0  0  0  0
  -29.8955  -21.0387   34.8111 C   0  0  0  0  0  0  0  0  0  0  0  0
  -26.4707  -19.5388   29.3162 C   0  0  0  0  0  0  0  0  0  0  0  0
  -28.7954  -20.4392   34.1687 C   0  0  0  0  0  0  0  0  0  0  0  0
  -25.0701  -19.5845   29.2687 C   0  0  0  0  0  0  0  0  0  0  0  0
  -26.0634  -16.6250   24.0644 C   0  0  0  0  0  0  0  0  0  0  0  0
  -28.2163  -16.3929   22.9930 C   0  0  0  0  0  0  0  0  0  0  0  0
  -22.4811   -8.1277   21.4913 C   0  0  0  0  0  0  0  0  0  0  0  0
  -25.0184  -17.1906   28.8484 C   0  0  0  0  0  0  0  0  0  0  0  0
  -21.0294   -6.9266   22.8956 C   0  0  0  0  0  0  0  0  0  0  0  0
  -19.4922   -6.8212   25.2212 C   0  0  0  0  0  0  0  0  0  0  0  0
  -27.0351  -18.4977   22.8871 C   0  0  0  0  0  0  0  0  0  0  0  0
  -21.2949   -5.9582   23.8638 C   0  0  0  0  0  0  0  0  0  0  0  0
  -24.6232  -11.6926   20.7167 C   0  0  0  0  0  0  0  0  0  0  0  0
  -25.2176  -13.7956   20.4734 C   0  0  0  0  0  0  0  0  0  0  0  0
  -22.8556  -13.4885   21.2319 C   0  0  0  0  0  0  0  0  0  0  0  0
  -26.2997  -21.6197   31.7129 C   0  0  0  0  0  0  0  0  0  0  0  0
  -24.6259  -23.3724   29.5568 C   0  0  0  0  0  0  0  0  0  0  0  0
  -31.0060  -13.8488   20.9624 C   0  0  0  0  0  0  0  0  0  0  0  0
  -22.7055  -23.4307   26.7363 C   0  0  0  0  0  0  0  0  0  0  0  0
  -29.5803  -14.2729   23.0070 C   0  0  0  0  0  0  0  0  0  0  0  0
  -29.8608  -22.4753   35.2688 C   0  0  0  0  0  0  0  0  0  0  0  0
  -27.2669  -20.7959   29.5353 C   0  0  0  0  0  0  0  0  0  0  0  0
  -24.3115  -20.8708   29.4651 C   0  0  0  0  0  0  0  0  0  0  0  0
  -28.7620  -23.3001   34.6034 C   0  0  0  0  0  0  0  0  0  0  0  0
  -29.3537  -13.0806   17.8770 C   0  0  0  0  0  0  0  0  0  0  0  0
  -27.4403  -22.5388   34.6175 C   0  0  0  0  0  0  0  0  0  0  0  0
  -27.9274  -12.7415   18.3083 C   0  0  0  0  0  0  0  0  0  0  0  0
  -30.3747  -12.6190   18.9122 C   0  0  0  0  0  0  0  0  0  0  0  0
  -28.6982  -12.8058   20.7222 C   0  0  0  0  0  0  0  0  0  0  0  0
  -27.5499  -21.2286   33.8283 C   0  0  1  0  0  0  0  0  0  0  0  0
  -26.4741  -21.8892   30.2451 C   0  0  1  0  0  0  0  0  0  0  0  0
  -27.6331  -13.2823   19.7187 C   0  0  2  0  0  0  0  0  0  0  0  0
  -21.4521  -25.0068   25.2387 C   0  0  0  0  0  0  0  0  0  0  0  0
  -32.0814  -14.6131   23.0124 C   0  0  0  0  0  0  0  0  0  0  0  0
  -31.1416  -12.2984   22.8923 C   0  0  0  0  0  0  0  0  0  0  0  0
  -22.4016  -23.5749   31.6355 C   0  0  0  0  0  0  0  0  0  0  0  0
  -20.8537  -24.3011   29.8066 C   0  0  0  0  0  0  0  0  0  0  0  0
  -22.8473  -25.6886   30.3753 C   0  0  0  0  0  0  0  0  0  0  0  0
  -22.6645  -16.3705   26.9067 C   0  0  0  0  0  0  0  0  0  0  0  0
  -23.9028  -14.2043   27.1585 C   0  0  0  0  0  0  0  0  0  0  0  0
  -24.3749  -22.7206   24.3980 C   0  0  0  0  0  0  0  0  0  0  0  0
  -24.9361  -16.0338   24.8748 C   0  0  0  0  0  0  0  0  0  0  0  0
  -25.1597  -16.2357   26.3802 C   0  0  0  0  0  0  0  0  0  0  0  0
  -23.1707  -23.4885   29.1724 C   0  0  1  0  0  0  0  0  0  0  0  0
  -22.7722  -24.2947   25.4899 C   0  0  2  0  0  0  0  0  0  0  0  0
  -30.9297  -13.7570   22.4657 C   0  0  0  0  0  0  0  0  0  0  0  0
  -22.3323  -24.2385   30.2457 C   0  0  0  0  0  0  0  0  0  0  0  0
  -24.0057  -15.7292   27.2690 C   0  0  0  0  0  0  0  0  0  1  0  0
  -25.8954  -11.6363   20.3138 N   0  0  0  0  0  0  0  0  0  0  0  0
  -26.2288  -12.9307   20.1742 N   0  0  0  0  0  0  0  0  0  0  0  0
  -25.1347  -22.0719   29.6823 N   0  0  0  0  0  0  0  0  0  0  0  0
  -30.0475  -13.1353   20.2425 N   0  0  0  0  0  0  0  0  0  0  0  0
  -25.3822  -15.1327   20.3867 N   0  0  0  0  0  0  0  0  0  0  0  0
  -21.8722  -12.5484   21.5688 N   0  0  0  0  0  0  0  0  0  0  0  0
  -29.3283  -15.6140   22.6712 N   0  0  0  0  0  0  0  0  0  0  0  0
  -27.4879  -21.4886   32.4060 N   0  0  0  0  0  0  0  0  0  0  0  0
  -23.1454  -24.1099   27.8527 N   0  0  0  0  0  0  0  0  0  0  0  0
  -23.0901  -23.4597   24.2972 N   0  3  0  0  0  0  0  0  0  0  0  0
  -22.5759  -14.7107   21.2718 O   0  0  0  0  0  0  0  0  0  0  0  0
  -25.1706  -21.5384   32.1823 O   0  0  0  0  0  0  0  0  0  0  0  0
  -25.2888  -24.3979   29.7319 O   0  0  0  0  0  0  0  0  0  0  0  0
  -31.8899  -14.5369   20.4454 O   0  0  0  0  0  0  0  0  0  0  0  0
  -22.2999  -22.2706   26.7217 O   0  0  0  0  0  0  0  0  0  0  0  0
  -28.8313  -13.5427   23.6521 O   0  0  0  0  0  0  0  0  0  0  0  0
  -21.7921   -6.9807   21.7410 O   0  0  0  0  0  0  0  0  0  0  0  0
  -24.3093  -16.0507   28.6258 O   0  0  0  0  0  0  0  0  0  1  0  0
  -18.7550   -6.7716   26.3385 F   0  0  0  0  0  0  0  0  0  0  0  0
  -26.9678  -19.7708   22.4764 F   0  0  0  0  0  0  0  0  0  0  0  0
  -22.2878   -5.0766   23.6830 F   0  0  0  0  0  0  0  0  0  0  0  0
  1  2  1  0  0  0  0
  1  5  2  0  0  0  0
  2  6  2  0  0  0  0
  3  8  2  0  0  0  0
  3 18  1  0  0  0  0
  4  9  1  0  0  0  0
  4 18  2  0  0  0  0
  5 20  1  0  0  0  0
  6 22  1  0  0  0  0
  7 10  2  0  0  0  0
  7 21  1  0  0  0  0
  8 26  1  0  0  0  0
  9 26  2  0  0  0  0
 10 27  1  0  0  0  0
 11 12  2  0  0  0  0
 11 28  1  0  0  0  0
 12 29  1  0  0  0  0
 13 23  1  0  0  0  0
 13 27  2  0  0  0  0
 14 24  2  0  0  0  0
 14 25  1  0  0  0  0
 15 24  1  0  0  0  0
 15 30  2  0  0  0  0
 16 25  2  0  0  0  0
 16 30  1  0  0  0  0
 17 29  2  0  0  0  0
 17 31  1  0  0  0  0
 18 32  1  0  0  0  0
 19 32  1  0  0  0  0
 19 33  2  0  0  0  0
 19 34  1  0  0  0  0
 20 22  2  0  0  0  0
 20 40  1  0  0  0  0
 21 23  2  0  0  0  0
 21 41  1  0  0  0  0
 22 49  1  0  0  0  0
 23 42  1  0  0  0  0
 24 61  1  0  0  0  0
 25 74  1  0  0  0  0
 26 84  1  0  0  0  0
 27 85  1  0  0  0  0
 28 31  2  0  0  0  0
 28 84  1  0  0  0  0
 29 86  1  0  0  0  0
 30 87  1  0  0  0  0
 31 88  1  0  0  0  0
 32 68  2  0  0  0  0
 33 69  1  0  0  0  0
 33 72  1  0  0  0  0
 34 73  1  0  0  0  0
 34 78  2  0  0  0  0
 35 50  1  0  0  0  0
 35 75  1  0  0  0  0
 35 79  2  0  0  0  0
 36 63  1  0  0  0  0
 36 70  1  0  0  0  0
 36 80  2  0  0  0  0
 37 65  1  0  0  0  0
 37 71  1  0  0  0  0
 37 81  2  0  0  0  0
 38 64  1  0  0  0  0
 38 76  1  0  0  0  0
 38 82  2  0  0  0  0
 39 65  1  0  0  0  0
 39 74  1  0  0  0  0
 39 83  2  0  0  0  0
 40 43  1  0  0  0  0
 41 50  1  0  0  0  0
 42 70  1  0  0  0  0
 43 45  1  0  0  0  0
 44 46  1  0  0  0  0
 44 47  1  0  0  0  0
 45 49  1  0  0  0  0
 46 51  1  0  0  0  0
 47 71  1  0  0  0  0
 48 51  1  0  0  0  0
 48 71  1  0  0  0  0
 49 75  1  0  0  0  0
 50 70  1  0  0  0  0
 51 69  1  0  0  0  0
 52 64  1  0  0  0  0
 53 65  1  0  0  0  0
 54 65  1  0  0  0  0
 55 66  1  0  0  0  0
 56 66  1  0  0  0  0
 57 66  1  0  0  0  0
 58 67  1  0  0  0  0
 59 67  1  0  0  0  0
 60 77  1  0  0  0  0
 61 62  1  0  0  0  0
 62 67  1  0  0  0  0
 63 66  1  0  0  0  0
 63 76  1  0  0  0  0
 64 77  1  0  0  0  0
 67 85  1  0  0  0  0
 68 69  1  0  0  0  0
M  CHG  1  77   1
M  ISO  4  37 100  65 100  67 101  85 101
M  END
> <Batch ID>
0136

> <Smiles>
CNC(C)C(=O)NC(C(=O)N1Cc2cc([101O:1][101C:1](C)(C)CCc3cc(F)cc(NC(=O)[100C:0](C)(C)[100C:0](=O)N4CCCC(n5nc(-c6ccc(Oc7ccc(F)cc7F)cc6)c(C(N)=O)c5N)C4)c3)ccc2CC1C(=O)NC1CCCc2ccccc21)C(C)(C)C

> <Shape>
0.155

> <Color>
0.185

> <Negative vol penalty>
0.000

$$$$

  -OEChem-04052302393D

 85 93  0     1  0  0  0  0  0999 V2000
  -22.9019  -25.6952   16.7606 C   0  0  0  0  0  0  0  0  0  0  0  0
  -22.4989  -24.3647   16.7730 C   0  0  0  0  0  0  0  0  0  0  0  0
  -28.5598  -22.5414   20.9272 C   0  0  0  0  0  0  0  0  0  0  0  0
  -29.9399  -21.6660   19.1478 C   0  0  0  0  0  0  0  0  0  0  0  0
  -23.2745  -26.3177   17.9501 C   0  0  0  0  0  0  0  0  0  0  0  0
  -22.4568  -23.6597   17.9764 C   0  0  0  0  0  0  0  0  0  0  0  0
  -21.1867  -17.8064   19.0960 C   0  0  0  0  0  0  0  0  0  0  0  0
  -29.0422  -23.8246   20.6702 C   0  0  0  0  0  0  0  0  0  0  0  0
  -30.4223  -22.9493   18.8907 C   0  0  0  0  0  0  0  0  0  0  0  0
  -21.8861  -16.6064   19.2162 C   0  0  0  0  0  0  0  0  0  0  0  0
  -28.4908  -26.2891   18.4218 C   0  0  0  0  0  0  0  0  0  0  0  0
  -27.5658  -27.3321   18.3751 C   0  0  0  0  0  0  0  0  0  0  0  0
  -28.6980  -13.0884   20.8512 C   0  0  0  0  0  0  0  0  0  0  0  0
  -29.8860  -13.1887   18.7499 C   0  0  0  0  0  0  0  0  0  0  0  0
  -21.9164  -16.8712   21.6138 C   0  0  0  0  0  0  0  0  0  0  0  0
  -27.6158  -12.3647   18.8160 C   0  0  0  0  0  0  0  0  0  0  0  0
  -28.7119  -28.4301   20.1966 C   0  0  0  0  0  0  0  0  0  0  0  0
  -29.0087  -21.4620   20.1661 C   0  0  0  0  0  0  0  0  0  0  0  0
  -29.8507  -13.3964   20.1288 C   0  0  0  0  0  0  0  0  0  0  0  0
  -27.3820  -19.5212   19.8580 C   0  0  0  0  0  0  0  0  0  0  0  0
  -23.2486  -25.6156   19.1664 C   0  0  0  0  0  0  0  0  0  0  0  0
  -20.8558  -18.5546   20.2350 C   0  0  0  0  0  0  0  0  0  0  0  0
  -22.8061  -24.2774   19.1909 C   0  0  0  0  0  0  0  0  0  0  0  0
  -21.2105  -18.0791   21.5055 C   0  0  0  0  0  0  0  0  0  0  0  0
  -27.5805  -12.5725   20.1949 C   0  0  0  0  0  0  0  0  0  0  0  0
  -29.9735  -24.0286   19.6519 C   0  0  0  0  0  0  0  0  0  0  0  0
  -22.2536  -16.1400   20.4750 C   0  0  0  0  0  0  0  0  0  0  0  0
  -29.5263  -26.3166   19.3560 C   0  0  0  0  0  0  0  0  0  0  0  0
  -27.6764  -28.4026   19.2624 C   0  0  0  0  0  0  0  0  0  0  0  0
  -28.7685  -12.6728   18.0935 C   0  0  0  0  0  0  0  0  0  0  0  0
  -29.6368  -27.3871   20.2434 C   0  0  0  0  0  0  0  0  0  0  0  0
  -28.5111  -20.1361   20.4315 C   0  0  0  0  0  0  0  0  0  0  0  0
  -27.3387  -18.2759   20.4358 C   0  0  0  0  0  0  0  0  0  0  0  0
  -31.0162  -13.9339   20.8128 C   0  0  0  0  0  0  0  0  0  0  0  0
  -26.4554  -20.0301   18.8895 C   0  0  0  0  0  0  0  0  0  0  0  0
  -31.0127  -14.1663   22.2754 C   0  0  0  0  0  0  0  0  0  0  0  0
  -21.5771  -21.4629   21.2959 C   0  0  0  0  0  0  0  0  0  0  0  0
  -19.4262  -20.7278   23.6101 C   0  0  0  0  0  0  0  0  0  0  0  0
  -17.7939  -18.3146   25.3874 C   0  0  0  0  0  0  0  0  0  0  0  0
  -23.6548  -26.3405   20.4253 C   0  0  0  0  0  0  0  0  0  0  0  0
  -20.0777  -19.8337   20.0903 C   0  0  0  0  0  0  0  0  0  0  0  0
  -20.8615  -18.8345   22.7609 C   0  0  0  0  0  0  0  0  0  0  0  0
  -24.0018  -25.3946   21.5704 C   0  0  0  0  0  0  0  0  0  0  0  0
  -29.1875  -16.2601   24.5428 C   0  0  0  0  0  0  0  0  0  0  0  0
  -22.9026  -24.3562   21.7379 C   0  0  0  0  0  0  0  0  0  0  0  0
  -28.7524  -17.4343   23.6667 C   0  0  0  0  0  0  0  0  0  0  0  0
  -30.5543  -15.7279   24.1247 C   0  0  0  0  0  0  0  0  0  0  0  0
  -30.2001  -16.5148   21.8001 C   0  0  0  0  0  0  0  0  0  0  0  0
  -22.7817  -23.4817   20.4835 C   0  0  1  0  0  0  0  0  0  0  0  0
  -20.2430  -20.7717   21.2819 C   0  0  1  0  0  0  0  0  0  0  0  0
  -28.8115  -17.0615   22.1746 C   0  0  2  0  0  0  0  0  0  0  0  0
  -16.1246  -18.0208   27.2379 C   0  0  0  0  0  0  0  0  0  0  0  0
  -21.5746  -21.4368   25.6574 C   0  0  0  0  0  0  0  0  0  0  0  0
  -20.2177  -20.2445   27.3910 C   0  0  0  0  0  0  0  0  0  0  0  0
  -19.2786  -22.2442   26.2325 C   0  0  0  0  0  0  0  0  0  0  0  0
  -24.4403  -12.8226   23.3333 C   0  0  0  0  0  0  0  0  0  0  0  0
  -23.1990  -12.1421   21.2636 C   0  0  0  0  0  0  0  0  0  0  0  0
  -15.8975  -16.9003   23.6090 C   0  0  0  0  0  0  0  0  0  0  0  0
  -26.3324  -12.2394   20.9763 C   0  0  0  0  0  0  0  0  0  0  0  0
  -25.3831  -13.4433   21.0532 C   0  0  0  0  0  0  0  0  0  0  0  0
  -23.2816  -14.5510   21.9152 C   0  0  0  0  0  0  0  0  0  1  0  0
  -19.4982  -20.0673   24.9657 C   0  0  1  0  0  0  0  0  0  0  0  0
  -16.3267  -18.1387   25.7353 C   0  0  2  0  0  0  0  0  0  0  0  0
  -20.1507  -20.9847   26.0381 C   0  0  0  0  0  0  0  0  0  0  0  0
  -24.0893  -13.2299   21.8901 C   0  0  0  0  0  0  0  0  0  0  0  0
  -29.1395  -19.3466   21.3066 N   0  0  0  0  0  0  0  0  0  0  0  0
  -32.1275  -14.2422   20.2007 N   0  0  0  0  0  0  0  0  0  0  0  0
  -28.4027  -18.2228   21.2873 N   0  0  0  0  0  0  0  0  0  0  0  0
  -30.5868  -15.4182   22.6968 N   0  0  0  0  0  0  0  0  0  0  0  0
  -20.1055  -20.0829   22.5668 N   0  0  0  0  0  0  0  0  0  0  0  0
  -26.4945  -17.2321   20.2935 N   0  0  0  0  0  0  0  0  0  0  0  0
  -26.6468  -21.3294   18.3999 N   0  0  0  0  0  0  0  0  0  0  0  0
  -21.6007  -22.6545   20.5967 N   0  0  0  0  0  0  0  0  0  0  0  0
  -18.1389  -19.6458   25.2870 N   0  0  0  0  0  0  0  0  0  0  0  0
  -15.7853  -16.9091   25.0903 N   0  3  0  0  0  0  0  0  0  0  0  0
  -25.4768  -19.3589   18.4829 O   0  0  0  0  0  0  0  0  0  0  0  0
  -31.3886  -13.2238   22.9601 O   0  0  0  0  0  0  0  0  0  0  0  0
  -22.5152  -20.9535   21.8978 O   0  0  0  0  0  0  0  0  0  0  0  0
  -18.7848  -21.7734   23.4802 O   0  0  0  0  0  0  0  0  0  0  0  0
  -18.5583  -17.3660   25.2249 O   0  0  0  0  0  0  0  0  0  0  0  0
  -30.4443  -25.2807   19.4007 O   0  0  0  0  0  0  0  0  0  0  0  0
  -22.9369  -14.9693   20.5951 O   0  0  0  0  0  0  0  0  0  1  0  0
  -26.7889  -29.4049   19.2164 F   0  0  0  0  0  0  0  0  0  0  0  0
  -28.8022  -12.4735   16.7693 F   0  0  0  0  0  0  0  0  0  0  0  0
  -30.6302  -27.4196   21.1423 F   0  0  0  0  0  0  0  0  0  0  0  0
  1  2  1  0  0  0  0
  1  5  2  0  0  0  0
  2  6  2  0  0  0  0
  3  8  2  0  0  0  0
  3 18  1  0  0  0  0
  4  9  1  0  0  0  0
  4 18  2  0  0  0  0
  5 21  1  0  0  0  0
  6 23  1  0  0  0  0
  7 10  2  0  0  0  0
  7 22  1  0  0  0  0
  8 26  1  0  0  0  0
  9 26  2  0  0  0  0
 10 27  1  0  0  0  0
 11 12  2  0  0  0  0
 11 28  1  0  0  0  0
 12 29  1  0  0  0  0
 13 19  1  0  0  0  0
 13 25  2  0  0  0  0
 14 19  2  0  0  0  0
 14 30  1  0  0  0  0
 15 24  1  0  0  0  0
 15 27  2  0  0  0  0
 16 25  1  0  0  0  0
 16 30  2  0  0  0  0
 17 29  2  0  0  0  0
 17 31  1  0  0  0  0
 18 32  1  0  0  0  0
 19 34  1  0  0  0  0
 20 32  1  0  0  0  0
 20 33  2  0  0  0  0
 20 35  1  0  0  0  0
 21 23  2  0  0  0  0
 21 40  1  0  0  0  0
 22 24  2  0  0  0  0
 22 41  1  0  0  0  0
 23 49  1  0  0  0  0
 24 42  1  0  0  0  0
 25 59  1  0  0  0  0
 26 81  1  0  0  0  0
 27 82  1  0  0  0  0
 28 31  2  0  0  0  0
 28 81  1  0  0  0  0
 29 83  1  0  0  0  0
 30 84  1  0  0  0  0
 31 85  1  0  0  0  0
 32 66  2  0  0  0  0
 33 68  1  0  0  0  0
 33 71  1  0  0  0  0
 34 36  1  0  0  0  0
 34 67  2  0  0  0  0
 35 72  1  0  0  0  0
 35 76  2  0  0  0  0
 36 69  1  0  0  0  0
 36 77  2  0  0  0  0
 37 50  1  0  0  0  0
 37 73  1  0  0  0  0
 37 78  2  0  0  0  0
 38 62  1  0  0  0  0
 38 70  1  0  0  0  0
 38 79  2  0  0  0  0
 39 63  1  0  0  0  0
 39 74  1  0  0  0  0
 39 80  2  0  0  0  0
 40 43  1  0  0  0  0
 41 50  1  0  0  0  0
 42 70  1  0  0  0  0
 43 45  1  0  0  0  0
 44 46  1  0  0  0  0
 44 47  1  0  0  0  0
 45 49  1  0  0  0  0
 46 51  1  0  0  0  0
 47 69  1  0  0  0  0
 48 51  1  0  0  0  0
 48 69  1  0  0  0  0
 49 73  1  0  0  0  0
 50 70  1  0  0  0  0
 51 68  1  0  0  0  0
 52 63  1  0  0  0  0
 53 64  1  0  0  0  0
 54 64  1  0  0  0  0
 55 64  1  0  0  0  0
 56 65  1  0  0  0  0
 57 65  1  0  0  0  0
 58 75  1  0  0  0  0
 59 60  1  0  0  0  0
 60 65  1  0  0  0  0
 61 65  1  0  0  0  0
 61 82  1  0  0  0  0
 62 64  1  0  0  0  0
 62 74  1  0  0  0  0
 63 75  1  0  0  0  0
 66 68  1  0  0  0  0
M  CHG  1  75   1
M  ISO  4  34 100  36 100  61 101  82 101
M  END
> <Batch ID>
0136

> <Smiles>
CNC(C)C(=O)NC(C(=O)N1Cc2cc([101O:1][101CH2:1]C(C)(C)CCc3cc(F)cc([100C:0](=N)[100C:0](=O)N4CCCC(n5nc(-c6ccc(Oc7ccc(F)cc7F)cc6)c(C(N)=O)c5N)C4)c3)ccc2CC1C(=O)NC1CCCc2ccccc21)C(C)(C)C

> <Shape>
0.193

> <Color>
0.060

> <Negative vol penalty>
0.000

$$$$

  -OEChem-04052302393D

 86 94  0     1  0  0  0  0  0999 V2000
  -29.9835  -26.1863   25.1306 C   0  0  0  0  0  0  0  0  0  0  0  0
  -30.6563  -25.0496   24.6940 C   0  0  0  0  0  0  0  0  0  0  0  0
  -23.0778   -9.8094   20.0058 C   0  0  0  0  0  0  0  0  0  0  0  0
  -23.7796   -9.9576   22.3129 C   0  0  0  0  0  0  0  0  0  0  0  0
  -28.9204  -26.6949   24.3856 C   0  0  0  0  0  0  0  0  0  0  0  0
  -30.2657  -24.4202   23.5126 C   0  0  0  0  0  0  0  0  0  0  0  0
  -34.2035  -23.1633   20.5872 C   0  0  0  0  0  0  0  0  0  0  0  0
  -22.3510   -8.6561   20.3010 C   0  0  0  0  0  0  0  0  0  0  0  0
  -23.0527   -8.8042   22.6081 C   0  0  0  0  0  0  0  0  0  0  0  0
  -34.9257  -22.0259   20.9458 C   0  0  0  0  0  0  0  0  0  0  0  0
  -23.4235   -5.4637   22.2415 C   0  0  0  0  0  0  0  0  0  0  0  0
  -24.0411   -4.4924   23.0293 C   0  0  0  0  0  0  0  0  0  0  0  0
  -33.7472  -20.7557   19.2674 C   0  0  0  0  0  0  0  0  0  0  0  0
  -31.6145  -18.6850   23.9976 C   0  0  0  0  0  0  0  0  0  0  0  0
  -31.8633  -16.8553   22.4396 C   0  0  0  0  0  0  0  0  0  0  0  0
  -22.2943   -4.7226   24.6824 C   0  0  0  0  0  0  0  0  0  0  0  0
  -23.7922  -10.4602   21.0118 C   0  0  0  0  0  0  0  0  0  0  0  0
  -24.0866  -12.9817   20.7612 C   0  0  0  0  0  0  0  0  0  0  0  0
  -28.5227  -26.0771   23.1895 C   0  0  0  0  0  0  0  0  0  0  0  0
  -33.2384  -23.1027   19.5716 C   0  0  0  0  0  0  0  0  0  0  0  0
  -29.1954  -24.9203   22.7516 C   0  0  0  0  0  0  0  0  0  0  0  0
  -33.0160  -21.8944   18.8960 C   0  0  0  0  0  0  0  0  0  0  0  0
  -30.2313  -18.6462   23.8223 C   0  0  0  0  0  0  0  0  0  0  0  0
  -29.6640  -17.7120   22.9556 C   0  0  0  0  0  0  0  0  0  0  0  0
  -30.4800  -16.8165   22.2643 C   0  0  0  0  0  0  0  0  0  0  0  0
  -22.3384   -8.1535   21.6021 C   0  0  0  0  0  0  0  0  0  0  0  0
  -34.6956  -20.8212   20.2878 C   0  0  0  0  0  0  0  0  0  0  0  0
  -22.2414   -6.0646   22.6741 C   0  0  0  0  0  0  0  0  0  0  0  0
  -32.4306  -17.7895   23.3062 C   0  0  0  0  0  0  0  0  0  0  0  0
  -23.4765   -4.1218   24.2497 C   0  0  0  0  0  0  0  0  0  0  0  0
  -21.6768   -5.6940   23.8946 C   0  0  0  0  0  0  0  0  0  0  0  0
  -24.5436  -11.6513   20.7074 C   0  0  0  0  0  0  0  0  0  0  0  0
  -25.1724  -13.7333   20.3836 C   0  0  0  0  0  0  0  0  0  0  0  0
  -22.7960  -13.4925   21.1206 C   0  0  0  0  0  0  0  0  0  0  0  0
  -30.0986  -23.5772   19.4299 C   0  0  0  0  0  0  0  0  0  0  0  0
  -30.5751  -23.1784   16.2462 C   0  0  0  0  0  0  0  0  0  0  0  0
  -32.5019  -21.8831   13.7449 C   0  0  0  0  0  0  0  0  0  0  0  0
  -30.6106  -14.9027   20.6313 C   0  0  0  0  0  0  0  0  0  0  0  0
  -27.3375  -26.6360   22.4428 C   0  0  0  0  0  0  0  0  0  0  0  0
  -32.4868  -24.3448   19.1784 C   0  0  0  0  0  0  0  0  0  0  0  0
  -32.0053  -21.7814   17.7850 C   0  0  0  0  0  0  0  0  0  0  0  0
  -27.2269  -26.1279   21.0076 C   0  0  0  0  0  0  0  0  0  0  0  0
  -29.6042  -12.3402   18.3734 C   0  0  0  0  0  0  0  0  0  0  0  0
  -27.4224  -24.6159   20.9601 C   0  0  0  0  0  0  0  0  0  0  0  0
  -28.1603  -12.0420   18.7838 C   0  0  0  0  0  0  0  0  0  0  0  0
  -30.4841  -12.6536   19.5822 C   0  0  0  0  0  0  0  0  0  0  0  0
  -28.5291  -13.4116   20.8755 C   0  0  0  0  0  0  0  0  0  0  0  0
  -28.8172  -24.2239   21.4624 C   0  0  1  0  0  0  0  0  0  0  0  0
  -31.1638  -24.0467   18.4798 C   0  0  1  0  0  0  0  0  0  0  0  0
  -27.5898  -13.1538   19.6860 C   0  0  2  0  0  0  0  0  0  0  0  0
  -28.1791  -17.6731   22.7729 C   0  0  0  0  0  0  0  0  0  0  0  0
  -28.8970  -20.7652   23.6961 C   0  0  0  0  0  0  0  0  0  0  0  0
  -38.3683  -17.9224   21.5922 C   0  0  0  0  0  0  0  0  0  0  0  0
  -32.6155  -21.6883   11.2456 C   0  0  0  0  0  0  0  0  0  0  0  0
  -28.4057  -21.0340   16.3171 C   0  0  0  0  0  0  0  0  0  0  0  0
  -29.2166  -20.2386   14.0860 C   0  0  0  0  0  0  0  0  0  0  0  0
  -28.3098  -22.5496   14.3302 C   0  0  0  0  0  0  0  0  0  0  0  0
  -35.0740  -23.3427   13.6321 C   0  0  0  0  0  0  0  0  0  0  0  0
  -29.3803  -19.6159   24.5752 C   0  0  0  0  0  0  0  0  0  0  0  0
  -36.9597  -17.3462   21.5658 C   0  0  0  0  0  0  0  0  0  0  0  0
  -35.8271  -19.6109   21.9940 C   0  0  0  0  0  0  0  0  0  1  0  0
  -34.5874  -17.4285   22.3716 C   0  0  0  0  0  0  0  0  0  0  0  0
  -30.5764  -21.9982   15.3050 C   0  0  1  0  0  0  0  0  0  0  0  0
  -33.0350  -22.4973   12.4631 C   0  0  2  0  0  0  0  0  0  0  0  0
  -35.9504  -18.1385   22.4201 C   0  0  1  0  0  0  0  0  0  0  0  0
  -29.1449  -21.4564   15.0318 C   0  0  0  0  0  0  0  0  0  0  0  0
  -25.8202  -11.5597   20.3255 N   0  0  0  0  0  0  0  0  0  0  0  0
  -26.1746  -12.8420   20.1358 N   0  0  0  0  0  0  0  0  0  0  0  0
  -31.2913  -23.0222   17.4414 N   0  0  0  0  0  0  0  0  0  0  0  0
  -29.8829  -13.7186   20.3879 N   0  0  0  0  0  0  0  0  0  0  0  0
  -25.3580  -15.0630   20.2424 N   0  0  0  0  0  0  0  0  0  0  0  0
  -21.7942  -12.5818   21.4831 N   0  0  0  0  0  0  0  0  0  0  0  0
  -29.9247  -15.8570   21.3819 N   0  0  0  0  0  0  0  0  0  0  0  0
  -29.8112  -24.4745   20.4408 N   0  0  0  0  0  0  0  0  0  0  0  0
  -31.2899  -22.4311   14.1084 N   0  0  0  0  0  0  0  0  0  0  0  0
  -34.5236  -22.5572   12.4975 N   0  3  0  0  0  0  0  0  0  0  0  0
  -22.5340  -14.7191   21.1045 O   0  0  0  0  0  0  0  0  0  0  0  0
  -29.5751  -22.4827   19.2578 O   0  0  0  0  0  0  0  0  0  0  0  0
  -29.9671  -24.2039   15.9293 O   0  0  0  0  0  0  0  0  0  0  0  0
  -33.0990  -21.0024   14.3601 O   0  0  0  0  0  0  0  0  0  0  0  0
  -31.7475  -15.0696   20.1823 O   0  0  0  0  0  0  0  0  0  0  0  0
  -21.6291   -7.0282   21.8905 O   0  0  0  0  0  0  0  0  0  0  0  0
  -35.3987  -19.7094   20.6363 O   0  0  0  0  0  0  0  0  0  1  0  0
  -33.7896  -17.8289   23.4781 O   0  0  0  0  0  0  0  0  0  0  0  0
  -24.0688   -3.1878   25.0055 F   0  0  0  0  0  0  0  0  0  0  0  0
  -20.5406   -6.2669   24.3150 F   0  0  0  0  0  0  0  0  0  0  0  0
  1  2  1  0  0  0  0
  1  5  2  0  0  0  0
  2  6  2  0  0  0  0
  3  8  2  0  0  0  0
  3 17  1  0  0  0  0
  4  9  1  0  0  0  0
  4 17  2  0  0  0  0
  5 19  1  0  0  0  0
  6 21  1  0  0  0  0
  7 10  2  0  0  0  0
  7 20  1  0  0  0  0
  8 26  1  0  0  0  0
  9 26  2  0  0  0  0
 10 27  1  0  0  0  0
 11 12  2  0  0  0  0
 11 28  1  0  0  0  0
 12 30  1  0  0  0  0
 13 22  1  0  0  0  0
 13 27  2  0  0  0  0
 14 23  1  0  0  0  0
 14 29  2  0  0  0  0
 15 25  2  0  0  0  0
 15 29  1  0  0  0  0
 16 30  2  0  0  0  0
 16 31  1  0  0  0  0
 17 32  1  0  0  0  0
 18 32  1  0  0  0  0
 18 33  2  0  0  0  0
 18 34  1  0  0  0  0
 19 21  2  0  0  0  0
 19 39  1  0  0  0  0
 20 22  2  0  0  0  0
 20 40  1  0  0  0  0
 21 48  1  0  0  0  0
 22 41  1  0  0  0  0
 23 24  2  0  0  0  0
 23 59  1  0  0  0  0
 24 25  1  0  0  0  0
 24 51  1  0  0  0  0
 25 73  1  0  0  0  0
 26 82  1  0  0  0  0
 27 83  1  0  0  0  0
 28 31  2  0  0  0  0
 28 82  1  0  0  0  0
 29 84  1  0  0  0  0
 30 85  1  0  0  0  0
 31 86  1  0  0  0  0
 32 67  2  0  0  0  0
 33 68  1  0  0  0  0
 33 71  1  0  0  0  0
 34 72  1  0  0  0  0
 34 77  2  0  0  0  0
 35 49  1  0  0  0  0
 35 74  1  0  0  0  0
 35 78  2  0  0  0  0
 36 63  1  0  0  0  0
 36 69  1  0  0  0  0
 36 79  2  0  0  0  0
 37 64  1  0  0  0  0
 37 75  1  0  0  0  0
 37 80  2  0  0  0  0
 38 70  1  0  0  0  0
 38 73  1  0  0  0  0
 38 81  2  0  0  0  0
 39 42  1  0  0  0  0
 40 49  1  0  0  0  0
 41 69  1  0  0  0  0
 42 44  1  0  0  0  0
 43 45  1  0  0  0  0
 43 46  1  0  0  0  0
 44 48  1  0  0  0  0
 45 50  1  0  0  0  0
 46 70  1  0  0  0  0
 47 50  1  0  0  0  0
 47 70  1  0  0  0  0
 48 74  1  0  0  0  0
 49 69  1  0  0  0  0
 50 68  1  0  0  0  0
 52 59  1  0  0  0  0
 53 60  1  0  0  0  0
 54 64  1  0  0  0  0
 55 66  1  0  0  0  0
 56 66  1  0  0  0  0
 57 66  1  0  0  0  0
 58 76  1  0  0  0  0
 60 65  1  0  0  0  0
 61 65  1  0  0  0  0
 61 83  1  0  0  0  0
 62 65  1  0  0  0  0
 62 84  1  0  0  0  0
 63 66  1  0  0  0  0
 63 75  1  0  0  0  0
 64 76  1  0  0  0  0
 67 68  1  0  0  0  0
M  CHG  1  76   1
M  ISO  4  38 100  61 101  73 100  83 101
M  END
> <Batch ID>
0136

> <Smiles>
CCc1cc(OCC(CC)[101CH2:1][101O:1]c2ccc3c(c2)CN(C(=O)C(NC(=O)C(C)NC)C(C)(C)C)C(C(=O)NC2CCCc4ccccc42)C3)cc([100NH:0][100C:0](=O)N2CCCC(n3nc(-c4ccc(Oc5ccc(F)cc5F)cc4)c(C(N)=O)c3N)C2)c1C

> <Shape>
0.215

> <Color>
0.200

> <Negative vol penalty>
0.000

$$$$

  -OEChem-04052302393D

 87 95  0     1  0  0  0  0  0999 V2000
  -34.2686  -29.5548   19.3763 C   0  0  0  0  0  0  0  0  0  0  0  0
  -33.2860  -29.1336   18.4861 C   0  0  0  0  0  0  0  0  0  0  0  0
  -28.0377  -12.6069   22.6416 C   0  0  0  0  0  0  0  0  0  0  0  0
  -26.9038  -13.0588   20.5567 C   0  0  0  0  0  0  0  0  0  0  0  0
  -26.7633  -21.3797   17.9930 C   0  0  0  0  0  0  0  0  0  0  0  0
  -34.1856  -29.2017   20.7225 C   0  0  0  0  0  0  0  0  0  0  0  0
  -32.2203  -28.3581   18.9414 C   0  0  0  0  0  0  0  0  0  0  0  0
  -26.4400  -28.4964   16.9228 C   0  0  0  0  0  0  0  0  0  0  0  0
  -27.4047  -11.3662   22.7170 C   0  0  0  0  0  0  0  0  0  0  0  0
  -26.2708  -11.8181   20.6320 C   0  0  0  0  0  0  0  0  0  0  0  0
  -26.2364  -21.8323   16.7834 C   0  0  0  0  0  0  0  0  0  0  0  0
  -25.7413  -27.6928   16.0229 C   0  0  0  0  0  0  0  0  0  0  0  0
  -23.6522  -10.4531   22.2783 C   0  0  0  0  0  0  0  0  0  0  0  0
  -22.2863  -10.4045   22.0000 C   0  0  0  0  0  0  0  0  0  0  0  0
  -24.8757  -26.3951   17.8630 C   0  0  0  0  0  0  0  0  0  0  0  0
  -22.7118   -8.8743   20.1794 C   0  0  0  0  0  0  0  0  0  0  0  0
  -27.7872  -13.4533   21.5615 C   0  0  0  0  0  0  0  0  0  0  0  0
  -27.9693  -21.8974   18.4657 C   0  0  0  0  0  0  0  0  0  0  0  0
  -29.6759  -15.0241   20.8738 C   0  0  0  0  0  0  0  0  0  0  0  0
  -33.1133  -28.4296   21.1964 C   0  0  0  0  0  0  0  0  0  0  0  0
  -26.3704  -28.2481   18.3012 C   0  0  0  0  0  0  0  0  0  0  0  0
  -32.1236  -27.9932   20.2950 C   0  0  0  0  0  0  0  0  0  0  0  0
  -25.5725  -27.1985   18.7785 C   0  0  0  0  0  0  0  0  0  0  0  0
  -28.6484  -22.8676   17.7286 C   0  0  0  0  0  0  0  0  0  0  0  0
  -28.1215  -23.3201   16.5189 C   0  0  0  0  0  0  0  0  0  0  0  0
  -26.5213  -10.9718   21.7121 C   0  0  0  0  0  0  0  0  0  0  0  0
  -24.9613  -26.6402   16.4927 C   0  0  0  0  0  0  0  0  0  0  0  0
  -26.9155  -22.8024   16.0463 C   0  0  0  0  0  0  0  0  0  0  0  0
  -24.5480   -9.7124   21.5071 C   0  0  0  0  0  0  0  0  0  0  0  0
  -21.8161   -9.6151   20.9506 C   0  0  0  0  0  0  0  0  0  0  0  0
  -24.0777   -8.9230   20.4577 C   0  0  0  0  0  0  0  0  0  0  0  0
  -28.4403  -14.7352   21.4834 C   0  0  0  0  0  0  0  0  0  0  0  0
  -29.8492  -16.3723   21.0708 C   0  0  0  0  0  0  0  0  0  0  0  0
  -28.4941  -21.4049   19.7324 C   0  0  0  0  0  0  0  0  0  0  0  0
  -30.5857  -14.1517   20.1904 C   0  0  0  0  0  0  0  0  0  0  0  0
  -27.7258  -21.5468   20.9905 C   0  0  0  0  0  0  0  0  0  0  0  0
  -28.4763  -27.4582   20.5473 C   0  0  0  0  0  0  0  0  0  0  0  0
  -25.9392  -27.8783   22.5244 C   0  0  0  0  0  0  0  0  0  0  0  0
  -22.5494  -27.9397   22.9148 C   0  0  0  0  0  0  0  0  0  0  0  0
  -33.0915  -28.0331   22.6514 C   0  0  0  0  0  0  0  0  0  0  0  0
  -27.1088  -29.1406   19.2607 C   0  0  0  0  0  0  0  0  0  0  0  0
  -25.4482  -26.9027   20.2501 C   0  0  0  0  0  0  0  0  0  0  0  0
  -31.7320  -27.5240   23.1237 C   0  0  0  0  0  0  0  0  0  0  0  0
  -27.3387  -19.6329   23.9978 C   0  0  0  0  0  0  0  0  0  0  0  0
  -31.1617  -26.5209   22.1260 C   0  0  0  0  0  0  0  0  0  0  0  0
  -27.6546  -18.2058   23.5512 C   0  0  0  0  0  0  0  0  0  0  0  0
  -26.6408  -20.4216   22.8945 C   0  0  0  0  0  0  0  0  0  0  0  0
  -27.7147  -19.0219   21.1520 C   0  0  0  0  0  0  0  0  0  0  0  0
  -30.9391  -27.1716   20.7555 C   0  0  1  0  0  0  0  0  0  0  0  0
  -27.3747  -28.4782   20.6090 C   0  0  1  0  0  0  0  0  0  0  0  0
  -28.4449  -18.2027   22.2305 C   0  0  2  0  0  0  0  0  0  0  0  0
  -28.8432  -24.3602   15.7224 C   0  0  0  0  0  0  0  0  0  0  0  0
  -32.4603  -23.4221   17.9870 C   0  0  0  0  0  0  0  0  0  0  0  0
  -20.7727  -28.2728   24.6555 C   0  0  0  0  0  0  0  0  0  0  0  0
  -25.1015  -24.0819   12.3798 C   0  0  0  0  0  0  0  0  0  0  0  0
  -26.4792  -25.0776   23.6081 C   0  0  0  0  0  0  0  0  0  0  0  0
  -24.1834  -25.0969   24.6066 C   0  0  0  0  0  0  0  0  0  0  0  0
  -25.8778  -26.7712   25.3473 C   0  0  0  0  0  0  0  0  0  0  0  0
  -21.4415  -30.2916   21.5006 C   0  0  0  0  0  0  0  0  0  0  0  0
  -29.9423  -23.4239   18.2344 C   0  0  0  0  0  0  0  0  0  0  0  0
  -31.1487  -22.8314   17.4944 C   0  0  0  0  0  0  0  0  0  0  0  0
  -24.8468  -25.6833   14.3185 C   0  0  0  0  0  0  0  0  0  1  0  0
  -24.9649  -23.2107   14.7487 C   0  0  0  0  0  0  0  0  0  0  0  0
  -24.8377  -26.9918   23.0535 C   0  0  1  0  0  0  0  0  0  0  0  0
  -21.6315  -28.9408   23.5929 C   0  0  2  0  0  0  0  0  0  0  0  0
  -24.4984  -24.2954   13.7734 C   0  0  2  0  0  0  0  0  0  0  0  0
  -25.3482  -25.9885   24.1259 C   0  0  0  0  0  0  0  0  0  0  0  0
  -27.8691  -15.8132   22.0271 N   0  0  0  0  0  0  0  0  0  0  0  0
  -29.6520  -20.8151   19.8446 N   0  0  0  0  0  0  0  0  0  0  0  0
  -28.7498  -16.7926   21.7599 N   0  0  0  0  0  0  0  0  0  0  0  0
  -27.3988  -20.3681   21.6460 N   0  0  0  0  0  0  0  0  0  0  0  0
  -26.1943  -27.7997   21.1480 N   0  0  0  0  0  0  0  0  0  0  0  0
  -30.8332  -17.2273   20.7202 N   0  0  0  0  0  0  0  0  0  0  0  0
  -30.2531  -12.7948   20.0780 N   0  0  0  0  0  0  0  0  0  0  0  0
  -29.7374  -27.9780   20.7680 N   0  0  0  0  0  0  0  0  0  0  0  0
  -23.7851  -27.8855   23.5242 N   0  0  0  0  0  0  0  0  0  0  0  0
  -20.7298  -29.5777   22.5918 N   0  3  0  0  0  0  0  0  0  0  0  0
  -31.6694  -14.5601   19.7085 O   0  0  0  0  0  0  0  0  0  0  0  0
  -27.4596  -22.6955   21.3192 O   0  0  0  0  0  0  0  0  0  0  0  0
  -28.2022  -26.2860   20.3181 O   0  0  0  0  0  0  0  0  0  0  0  0
  -26.5459  -28.6187   23.3025 O   0  0  0  0  0  0  0  0  0  0  0  0
  -22.2034  -27.2700   21.9441 O   0  0  0  0  0  0  0  0  0  0  0  0
  -25.9037   -9.7612   21.7852 O   0  0  0  0  0  0  0  0  0  0  0  0
  -24.2788  -25.8540   15.6164 O   0  0  0  0  0  0  0  0  0  1  0  0
  -26.3818  -23.2348   14.8604 O   0  0  0  0  0  0  0  0  0  0  0  0
  -20.5042   -9.5673   20.6844 F   0  0  0  0  0  0  0  0  0  0  0  0
  -24.9333   -8.2083   19.7141 F   0  0  0  0  0  0  0  0  0  0  0  0
  1  2  1  0  0  0  0
  1  6  2  0  0  0  0
  2  7  2  0  0  0  0
  3  9  2  0  0  0  0
  3 17  1  0  0  0  0
  4 10  1  0  0  0  0
  4 17  2  0  0  0  0
  5 11  1  0  0  0  0
  5 18  2  0  0  0  0
  6 20  1  0  0  0  0
  7 22  1  0  0  0  0
  8 12  2  0  0  0  0
  8 21  1  0  0  0  0
  9 26  1  0  0  0  0
 10 26  2  0  0  0  0
 11 28  2  0  0  0  0
 12 27  1  0  0  0  0
 13 14  2  0  0  0  0
 13 29  1  0  0  0  0
 14 30  1  0  0  0  0
 15 23  1  0  0  0  0
 15 27  2  0  0  0  0
 16 30  2  0  0  0  0
 16 31  1  0  0  0  0
 17 32  1  0  0  0  0
 18 24  1  0  0  0  0
 18 34  1  0  0  0  0
 19 32  1  0  0  0  0
 19 33  2  0  0  0  0
 19 35  1  0  0  0  0
 20 22  2  0  0  0  0
 20 40  1  0  0  0  0
 21 23  2  0  0  0  0
 21 41  1  0  0  0  0
 22 49  1  0  0  0  0
 23 42  1  0  0  0  0
 24 25  2  0  0  0  0
 24 60  1  0  0  0  0
 25 28  1  0  0  0  0
 25 52  1  0  0  0  0
 26 83  1  0  0  0  0
 27 84  1  0  0  0  0
 28 85  1  0  0  0  0
 29 31  2  0  0  0  0
 29 83  1  0  0  0  0
 30 86  1  0  0  0  0
 31 87  1  0  0  0  0
 32 68  2  0  0  0  0
 33 70  1  0  0  0  0
 33 73  1  0  0  0  0
 34 36  1  0  0  0  0
 34 69  2  0  0  0  0
 35 74  1  0  0  0  0
 35 78  2  0  0  0  0
 36 71  1  0  0  0  0
 36 79  2  0  0  0  0
 37 50  1  0  0  0  0
 37 75  1  0  0  0  0
 37 80  2  0  0  0  0
 38 64  1  0  0  0  0
 38 72  1  0  0  0  0
 38 81  2  0  0  0  0
 39 65  1  0  0  0  0
 39 76  1  0  0  0  0
 39 82  2  0  0  0  0
 40 43  1  0  0  0  0
 41 50  1  0  0  0  0
 42 72  1  0  0  0  0
 43 45  1  0  0  0  0
 44 46  1  0  0  0  0
 44 47  1  0  0  0  0
 45 49  1  0  0  0  0
 46 51  1  0  0  0  0
 47 71  1  0  0  0  0
 48 51  1  0  0  0  0
 48 71  1  0  0  0  0
 49 75  1  0  0  0  0
 50 72  1  0  0  0  0
 51 70  1  0  0  0  0
 53 61  1  0  0  0  0
 54 65  1  0  0  0  0
 55 66  1  0  0  0  0
 56 67  1  0  0  0  0
 57 67  1  0  0  0  0
 58 67  1  0  0  0  0
 59 77  1  0  0  0  0
 60 61  1  0  0  0  0
 62 66  1  0  0  0  0
 62 84  1  0  0  0  0
 63 66  1  0  0  0  0
 63 85  1  0  0  0  0
 64 67  1  0  0  0  0
 64 76  1  0  0  0  0
 65 77  1  0  0  0  0
 68 70  1  0  0  0  0
M  CHG  1  77   1
M  ISO  4  34 100  36 100  62 101  84 101
M  END
> <Batch ID>
0136

> <Smiles>
CCCc1c([100C:0](=N)[100C:0](=O)N2CCCC(n3nc(-c4ccc(Oc5ccc(F)cc5F)cc4)c(C(N)=O)c3N)C2)ccc(OCC(C)[101CH2:1][101O:1]c2ccc3c(c2)CN(C(=O)C(NC(=O)C(C)NC)C(C)(C)C)C(C(=O)NC2CCCc4ccccc42)C3)c1C

> <Shape>
0.217

> <Color>
0.091

> <Negative vol penalty>
0.000

$$$$

  -OEChem-04052302393D

 85 94  0     1  0  0  0  0  0999 V2000
  -17.0731  -30.5835   24.3966 C   0  0  0  0  0  0  0  0  0  0  0  0
  -17.9828  -29.8355   25.1370 C   0  0  0  0  0  0  0  0  0  0  0  0
  -23.3864   -9.5859   20.1112 C   0  0  0  0  0  0  0  0  0  0  0  0
  -23.7418  -10.0943   22.4462 C   0  0  0  0  0  0  0  0  0  0  0  0
  -17.1389  -30.5794   23.0039 C   0  0  0  0  0  0  0  0  0  0  0  0
  -18.9583  -29.0819   24.4851 C   0  0  0  0  0  0  0  0  0  0  0  0
  -29.3377  -19.3916   23.5304 C   0  0  0  0  0  0  0  0  0  0  0  0
  -31.6457  -18.6804   23.4636 C   0  0  0  0  0  0  0  0  0  0  0  0
  -25.7077  -26.8124   25.2667 C   0  0  0  0  0  0  0  0  0  0  0  0
  -28.9784  -18.2999   22.7401 C   0  0  0  0  0  0  0  0  0  0  0  0
  -31.2864  -17.5887   22.6733 C   0  0  0  0  0  0  0  0  0  0  0  0
  -22.6961   -8.4277   20.4684 C   0  0  0  0  0  0  0  0  0  0  0  0
  -23.0515   -8.9361   22.8035 C   0  0  0  0  0  0  0  0  0  0  0  0
  -26.4612  -25.6400   25.2274 C   0  0  0  0  0  0  0  0  0  0  0  0
  -19.8342   -7.9321   23.0507 C   0  0  0  0  0  0  0  0  0  0  0  0
  -18.8936   -8.0303   24.0760 C   0  0  0  0  0  0  0  0  0  0  0  0
  -26.5292  -25.7715   22.8196 C   0  0  0  0  0  0  0  0  0  0  0  0
  -20.1282   -6.4013   25.3643 C   0  0  0  0  0  0  0  0  0  0  0  0
  -23.9093  -10.4192   21.1001 C   0  0  0  0  0  0  0  0  0  0  0  0
  -24.0831  -12.9006   20.5343 C   0  0  0  0  0  0  0  0  0  0  0  0
  -30.6714  -19.5819   23.8922 C   0  0  0  0  0  0  0  0  0  0  0  0
  -18.1218  -29.8330   22.3348 C   0  0  0  0  0  0  0  0  0  0  0  0
  -25.3495  -27.4683   24.0801 C   0  0  0  0  0  0  0  0  0  0  0  0
  -19.0365  -29.0667   23.0821 C   0  0  0  0  0  0  0  0  0  0  0  0
  -25.7734  -26.9535   22.8467 C   0  0  0  0  0  0  0  0  0  0  0  0
  -29.9527  -17.3984   22.3116 C   0  0  0  0  0  0  0  0  0  0  0  0
  -22.5287   -8.1028   21.8145 C   0  0  0  0  0  0  0  0  0  0  0  0
  -26.8696  -25.1178   24.0036 C   0  0  0  0  0  0  0  0  0  0  0  0
  -20.9217   -7.0685   23.1820 C   0  0  0  0  0  0  0  0  0  0  0  0
  -19.0406   -7.2649   25.2329 C   0  0  0  0  0  0  0  0  0  0  0  0
  -21.0687   -6.3031   24.3389 C   0  0  0  0  0  0  0  0  0  0  0  0
  -24.6229  -11.6155   20.7317 C   0  0  0  0  0  0  0  0  0  0  0  0
  -25.1641  -13.6796   20.2010 C   0  0  0  0  0  0  0  0  0  0  0  0
  -29.8798  -21.6694   25.1426 C   0  0  0  0  0  0  0  0  0  0  0  0
  -29.6362  -22.8897   24.6307 C   0  0  0  0  0  0  0  0  0  0  0  0
  -22.7259  -13.3500   20.6426 C   0  0  0  0  0  0  0  0  0  0  0  0
  -22.5998  -28.1867   22.6564 C   0  0  0  0  0  0  0  0  0  0  0  0
  -24.5313  -29.7903   20.6021 C   0  0  0  0  0  0  0  0  0  0  0  0
  -27.6332  -30.1514   19.2256 C   0  0  0  0  0  0  0  0  0  0  0  0
  -30.4305  -15.3014   20.9999 C   0  0  0  0  0  0  0  0  0  0  0  0
  -18.1238  -29.8223   20.8267 C   0  0  0  0  0  0  0  0  0  0  0  0
  -24.5591  -28.7466   24.1409 C   0  0  0  0  0  0  0  0  0  0  0  0
  -25.4323  -27.6307   21.5453 C   0  0  0  0  0  0  0  0  0  0  0  0
  -30.5188  -23.5160   23.5825 C   0  0  0  0  0  0  0  0  0  0  0  0
  -19.4226  -29.2939   20.2231 C   0  0  0  0  0  0  0  0  0  0  0  0
  -31.5241  -22.5443   22.9648 C   0  0  0  0  0  0  0  0  0  0  0  0
  -29.9134  -12.3900   19.0165 C   0  0  0  0  0  0  0  0  0  0  0  0
  -19.8527  -28.0088   20.9233 C   0  0  0  0  0  0  0  0  0  0  0  0
  -28.4465  -12.0347   19.2697 C   0  0  0  0  0  0  0  0  0  0  0  0
  -32.1427  -21.6453   24.0331 C   0  0  0  0  0  0  0  0  0  0  0  0
  -30.5914  -12.9301   20.2744 C   0  0  0  0  0  0  0  0  0  0  0  0
  -28.4297  -13.6947   21.1752 C   0  0  0  0  0  0  0  0  0  0  0  0
  -20.1247  -28.2562   22.4121 C   0  0  1  0  0  0  0  0  0  0  0  0
  -23.8145  -29.0509   22.8446 C   0  0  1  0  0  0  0  0  0  0  0  0
  -27.6869  -13.2073   19.9205 C   0  0  2  0  0  0  0  0  0  0  0  0
  -31.0691  -20.7908   24.7671 C   0  0  2  0  0  0  0  0  0  0  0  0
  -31.6775  -20.2932   26.1011 C   0  0  0  0  0  0  0  0  0  0  0  0
  -28.8957  -31.5245   17.5469 C   0  0  0  0  0  0  0  0  0  0  0  0
  -23.1968  -28.2428   18.3362 C   0  0  0  0  0  0  0  0  0  0  0  0
  -25.0927  -28.9224   16.8489 C   0  0  0  0  0  0  0  0  0  0  0  0
  -23.6081  -30.6607   17.8474 C   0  0  0  0  0  0  0  0  0  0  0  0
  -29.5089  -31.1540   21.2836 C   0  0  0  0  0  0  0  0  0  0  0  0
  -28.4605  -23.7106   25.0736 C   0  0  0  0  0  0  0  0  0  1  0  0
  -25.2581  -29.4422   19.3255 C   0  0  1  0  0  0  0  0  0  0  0  0
  -28.5024  -31.3769   19.0085 C   0  0  2  0  0  0  0  0  0  0  0  0
  -24.2939  -29.3029   18.1137 C   0  0  0  0  0  0  0  0  0  0  0  0
  -25.9441  -11.5761   20.5397 N   0  0  0  0  0  0  0  0  0  0  0  0
  -26.2436  -12.8462   20.2181 N   0  0  0  0  0  0  0  0  0  0  0  0
  -24.6523  -28.8744   21.6567 N   0  0  0  0  0  0  0  0  0  0  0  0
  -29.8181  -14.0413   20.8331 N   0  0  0  0  0  0  0  0  0  0  0  0
  -25.2871  -14.9894   19.8979 N   0  0  0  0  0  0  0  0  0  0  0  0
  -21.7398  -12.4185   20.9948 N   0  0  0  0  0  0  0  0  0  0  0  0
  -29.5880  -16.2891   21.5090 N   0  0  0  0  0  0  0  0  0  0  0  0
  -21.4128  -28.8910   22.5918 N   0  0  0  0  0  0  0  0  0  0  0  0
  -26.2908  -30.4582   19.1537 N   0  0  0  0  0  0  0  0  0  0  0  0
  -29.7469  -31.2800   19.8227 N   0  3  0  0  0  0  0  0  0  0  0  0
  -22.3950  -14.5388   20.4173 O   0  0  0  0  0  0  0  0  0  0  0  0
  -22.7301  -26.9710   22.5743 O   0  0  0  0  0  0  0  0  0  0  0  0
  -23.8861  -30.8398   20.6637 O   0  0  0  0  0  0  0  0  0  0  0  0
  -28.0986  -29.0332   19.4342 O   0  0  0  0  0  0  0  0  0  0  0  0
  -31.6076  -15.4974   20.6867 O   0  0  0  0  0  0  0  0  0  0  0  0
  -21.8550   -6.9728   22.1635 O   0  0  0  0  0  0  0  0  0  0  0  0
  -27.6046  -23.9732   23.9624 O   0  0  0  0  0  0  0  0  0  1  0  0
  -18.1382   -7.3604   26.2181 F   0  0  0  0  0  0  0  0  0  0  0  0
  -22.1120   -5.4726   24.4713 F   0  0  0  0  0  0  0  0  0  0  0  0
  1  2  1  0  0  0  0
  1  5  2  0  0  0  0
  2  6  2  0  0  0  0
  3 12  2  0  0  0  0
  3 19  1  0  0  0  0
  4 13  1  0  0  0  0
  4 19  2  0  0  0  0
  5 22  1  0  0  0  0
  6 24  1  0  0  0  0
  7 10  2  0  0  0  0
  7 21  1  0  0  0  0
  8 11  1  0  0  0  0
  8 21  2  0  0  0  0
  9 14  2  0  0  0  0
  9 23  1  0  0  0  0
 10 26  1  0  0  0  0
 11 26  2  0  0  0  0
 12 27  1  0  0  0  0
 13 27  2  0  0  0  0
 14 28  1  0  0  0  0
 15 16  2  0  0  0  0
 15 29  1  0  0  0  0
 16 30  1  0  0  0  0
 17 25  1  0  0  0  0
 17 28  2  0  0  0  0
 18 30  2  0  0  0  0
 18 31  1  0  0  0  0
 19 32  1  0  0  0  0
 20 32  1  0  0  0  0
 20 33  2  0  0  0  0
 20 36  1  0  0  0  0
 21 56  1  0  0  0  0
 22 24  2  0  0  0  0
 22 41  1  0  0  0  0
 23 25  2  0  0  0  0
 23 42  1  0  0  0  0
 24 53  1  0  0  0  0
 25 43  1  0  0  0  0
 26 73  1  0  0  0  0
 27 82  1  0  0  0  0
 28 83  1  0  0  0  0
 29 31  2  0  0  0  0
 29 82  1  0  0  0  0
 30 84  1  0  0  0  0
 31 85  1  0  0  0  0
 32 67  2  0  0  0  0
 33 68  1  0  0  0  0
 33 71  1  0  0  0  0
 34 35  2  0  0  0  0
 34 56  1  0  0  0  0
 35 44  1  0  0  0  0
 35 63  1  0  0  0  0
 36 72  1  0  0  0  0
 36 77  2  0  0  0  0
 37 54  1  0  0  0  0
 37 74  1  0  0  0  0
 37 78  2  0  0  0  0
 38 64  1  0  0  0  0
 38 69  1  0  0  0  0
 38 79  2  0  0  0  0
 39 65  1  0  0  0  0
 39 75  1  0  0  0  0
 39 80  2  0  0  0  0
 40 70  1  0  0  0  0
 40 73  1  0  0  0  0
 40 81  2  0  0  0  0
 41 45  1  0  0  0  0
 42 54  1  0  0  0  0
 43 69  1  0  0  0  0
 44 46  1  0  0  0  0
 45 48  1  0  0  0  0
 46 50  1  0  0  0  0
 47 49  1  0  0  0  0
 47 51  1  0  0  0  0
 48 53  1  0  0  0  0
 49 55  1  0  0  0  0
 50 56  1  0  0  0  0
 51 70  1  0  0  0  0
 52 55  1  0  0  0  0
 52 70  1  0  0  0  0
 53 74  1  0  0  0  0
 54 69  1  0  0  0  0
 55 68  1  0  0  0  0
 56 57  1  0  0  0  0
 58 65  1  0  0  0  0
 59 66  1  0  0  0  0
 60 66  1  0  0  0  0
 61 66  1  0  0  0  0
 62 76  1  0  0  0  0
 63 83  1  0  0  0  0
 64 66  1  0  0  0  0
 64 75  1  0  0  0  0
 65 76  1  0  0  0  0
 67 68  1  0  0  0  0
M  CHG  1  76   1
M  ISO  4  40 100  63 101  73 100  83 101
M  END
> <Batch ID>
0136

> <Smiles>
CNC(C)C(=O)NC(C(=O)N1Cc2cc([101O:1][101CH2:1]C3=CC(C)(c4ccc([100NH:0][100C:0](=O)N5CCCC(n6nc(-c7ccc(Oc8ccc(F)cc8F)cc7)c(C(N)=O)c6N)C5)cc4)CCC3)ccc2CC1C(=O)NC1CCCc2ccccc21)C(C)(C)C

> <Shape>
0.259

> <Color>
0.189

> <Negative vol penalty>
0.000

$$$$

  -OEChem-04052302393D

 87 95  0     1  0  0  0  0  0999 V2000
  -32.3536  -31.4640   22.7921 C   0  0  0  0  0  0  0  0  0  0  0  0
  -32.7946  -30.1523   22.9345 C   0  0  0  0  0  0  0  0  0  0  0  0
  -23.0762   -9.8526   19.9073 C   0  0  0  0  0  0  0  0  0  0  0  0
  -23.8510   -9.8016   22.1951 C   0  0  0  0  0  0  0  0  0  0  0  0
  -31.4904  -31.7987   21.7496 C   0  0  0  0  0  0  0  0  0  0  0  0
  -32.3717  -29.1742   22.0351 C   0  0  0  0  0  0  0  0  0  0  0  0
  -35.6110  -24.3877   20.0096 C   0  0  0  0  0  0  0  0  0  0  0  0
  -31.8360  -18.2914   24.3413 C   0  0  0  0  0  0  0  0  0  0  0  0
  -30.4478  -18.2789   24.2059 C   0  0  0  0  0  0  0  0  0  0  0  0
  -22.3449   -8.6857   20.1289 C   0  0  0  0  0  0  0  0  0  0  0  0
  -23.1197   -8.6347   22.4167 C   0  0  0  0  0  0  0  0  0  0  0  0
  -35.6401  -23.0466   20.3893 C   0  0  0  0  0  0  0  0  0  0  0  0
  -19.9033   -7.7889   23.0166 C   0  0  0  0  0  0  0  0  0  0  0  0
  -19.1545   -7.7083   24.1906 C   0  0  0  0  0  0  0  0  0  0  0  0
  -34.0920  -22.5174   18.6165 C   0  0  0  0  0  0  0  0  0  0  0  0
  -32.0177  -16.5893   22.6363 C   0  0  0  0  0  0  0  0  0  0  0  0
  -20.4190   -5.7628   24.8636 C   0  0  0  0  0  0  0  0  0  0  0  0
  -23.8293  -10.4105   20.9404 C   0  0  0  0  0  0  0  0  0  0  0  0
  -24.1464  -12.9413   20.8903 C   0  0  0  0  0  0  0  0  0  0  0  0
  -31.0644  -30.8262   20.8313 C   0  0  0  0  0  0  0  0  0  0  0  0
  -34.8125  -24.8062   18.9355 C   0  0  0  0  0  0  0  0  0  0  0  0
  -31.5010  -29.4959   20.9802 C   0  0  0  0  0  0  0  0  0  0  0  0
  -34.0566  -23.8640   18.2236 C   0  0  0  0  0  0  0  0  0  0  0  0
  -32.6210  -17.4466   23.5564 C   0  0  0  0  0  0  0  0  0  0  0  0
  -29.8445  -17.4215   23.2858 C   0  0  0  0  0  0  0  0  0  0  0  0
  -30.6295  -16.5767   22.5009 C   0  0  0  0  0  0  0  0  0  0  0  0
  -22.3666   -8.0767   21.3836 C   0  0  0  0  0  0  0  0  0  0  0  0
  -34.8783  -22.1116   19.6946 C   0  0  0  0  0  0  0  0  0  0  0  0
  -20.9099   -6.8563   22.7660 C   0  0  0  0  0  0  0  0  0  0  0  0
  -19.4123   -6.6953   25.1141 C   0  0  0  0  0  0  0  0  0  0  0  0
  -21.1678   -5.8433   23.6895 C   0  0  0  0  0  0  0  0  0  0  0  0
  -24.5853  -11.6156   20.7119 C   0  0  0  0  0  0  0  0  0  0  0  0
  -25.2290  -13.7113   20.5417 C   0  0  0  0  0  0  0  0  0  0  0  0
  -22.8739  -13.4327   21.3318 C   0  0  0  0  0  0  0  0  0  0  0  0
  -32.3517  -26.7918   18.6101 C   0  0  0  0  0  0  0  0  0  0  0  0
  -32.7639  -26.1639   15.4545 C   0  0  0  0  0  0  0  0  0  0  0  0
  -33.9334  -24.0416   13.0514 C   0  0  0  0  0  0  0  0  0  0  0  0
  -30.6861  -14.8042   20.7117 C   0  0  0  0  0  0  0  0  0  0  0  0
  -30.0935  -31.2260   19.7486 C   0  0  0  0  0  0  0  0  0  0  0  0
  -34.8128  -26.2523   18.5216 C   0  0  0  0  0  0  0  0  0  0  0  0
  -33.1985  -24.2587   17.0504 C   0  0  0  0  0  0  0  0  0  0  0  0
  -29.9898  -30.2070   18.6168 C   0  0  0  0  0  0  0  0  0  0  0  0
  -29.5790  -12.4482   18.2826 C   0  0  0  0  0  0  0  0  0  0  0  0
  -29.8534  -28.7959   19.1798 C   0  0  0  0  0  0  0  0  0  0  0  0
  -28.1450  -12.1306   18.7127 C   0  0  0  0  0  0  0  0  0  0  0  0
  -30.4998  -12.6515   19.4845 C   0  0  0  0  0  0  0  0  0  0  0  0
  -28.5952  -13.3179   20.8978 C   0  0  0  0  0  0  0  0  0  0  0  0
  -31.0842  -28.4118   20.0100 C   0  0  1  0  0  0  0  0  0  0  0  0
  -33.5662  -26.6495   17.7370 C   0  0  1  0  0  0  0  0  0  0  0  0
  -27.6163  -13.1689   19.7217 C   0  0  2  0  0  0  0  0  0  0  0  0
  -28.3553  -17.4288   23.1627 C   0  0  0  0  0  0  0  0  0  0  0  0
  -34.0918  -23.7816   10.5605 C   0  0  0  0  0  0  0  0  0  0  0  0
  -32.8918  -15.3673   25.8709 C   0  0  0  0  0  0  0  0  0  0  0  0
  -34.9294  -14.6702   24.6069 C   0  0  0  0  0  0  0  0  0  0  0  0
  -35.1396  -15.3786   26.9800 C   0  0  0  0  0  0  0  0  0  0  0  0
  -29.8115  -25.4006   15.3489 C   0  0  0  0  0  0  0  0  0  0  0  0
  -30.2527  -24.2749   13.1566 C   0  0  0  0  0  0  0  0  0  0  0  0
  -30.6155  -26.7318   13.3904 C   0  0  0  0  0  0  0  0  0  0  0  0
  -36.8919  -24.0098   13.1263 C   0  0  0  0  0  0  0  0  0  0  0  0
  -34.4782  -19.1977   21.8250 C   0  0  0  0  0  0  0  0  0  0  0  0
  -34.7105  -18.8457   23.3025 C   0  0  0  0  0  0  0  0  0  0  0  0
  -34.6282  -17.0990   25.1326 C   0  0  0  0  0  0  0  0  0  0  0  0
  -35.1379  -20.5173   21.4401 C   0  0  0  0  0  0  0  0  0  1  0  0
  -34.1324  -17.4611   23.7044 C   0  0  1  0  0  0  0  0  0  0  0  0
  -32.2319  -25.1298   14.4918 C   0  0  1  0  0  0  0  0  0  0  0  0
  -34.7827  -24.2872   11.8174 C   0  0  2  0  0  0  0  0  0  0  0  0
  -34.3881  -15.6546   25.6683 C   0  0  0  0  0  0  0  0  0  0  0  0
  -30.7425  -25.3768   14.1202 C   0  0  0  0  0  0  0  0  0  0  0  0
  -25.8483  -11.5440   20.2831 N   0  0  0  0  0  0  0  0  0  0  0  0
  -26.2122  -12.8343   20.1891 N   0  0  0  0  0  0  0  0  0  0  0  0
  -33.2275  -25.6854   16.6882 N   0  0  0  0  0  0  0  0  0  0  0  0
  -29.9369  -13.6515   20.3944 N   0  0  0  0  0  0  0  0  0  0  0  0
  -25.4263  -15.0463   20.5054 N   0  0  0  0  0  0  0  0  0  0  0  0
  -21.8728  -12.5045   21.6493 N   0  0  0  0  0  0  0  0  0  0  0  0
  -30.0354  -15.6993   21.5603 N   0  0  0  0  0  0  0  0  0  0  0  0
  -32.1873  -28.0559   19.1436 N   0  0  0  0  0  0  0  0  0  0  0  0
  -33.1404  -25.1292   13.3503 N   0  0  0  0  0  0  0  0  0  0  0  0
  -36.0946  -23.5916   11.9446 N   0  3  0  0  0  0  0  0  0  0  0  0
  -22.6263  -14.6588   21.4257 O   0  0  0  0  0  0  0  0  0  0  0  0
  -31.6173  -25.8267   18.7856 O   0  0  0  0  0  0  0  0  0  0  0  0
  -32.7745  -27.3515   15.1212 O   0  0  0  0  0  0  0  0  0  0  0  0
  -33.9673  -22.9887   13.6845 O   0  0  0  0  0  0  0  0  0  0  0  0
  -31.8104  -14.9971   20.2420 O   0  0  0  0  0  0  0  0  0  0  0  0
  -21.6530   -6.9381   21.6003 O   0  0  0  0  0  0  0  0  0  0  0  0
  -34.9045  -20.7921   20.0663 O   0  0  0  0  0  0  0  0  0  1  0  0
  -18.6942   -6.6190   26.2422 F   0  0  0  0  0  0  0  0  0  0  0  0
  -22.1344   -4.9453   23.4549 F   0  0  0  0  0  0  0  0  0  0  0  0
  1  2  1  0  0  0  0
  1  5  2  0  0  0  0
  2  6  2  0  0  0  0
  3 10  2  0  0  0  0
  3 18  1  0  0  0  0
  4 11  1  0  0  0  0
  4 18  2  0  0  0  0
  5 20  1  0  0  0  0
  6 22  1  0  0  0  0
  7 12  2  0  0  0  0
  7 21  1  0  0  0  0
  8  9  2  0  0  0  0
  8 24  1  0  0  0  0
  9 25  1  0  0  0  0
 10 27  1  0  0  0  0
 11 27  2  0  0  0  0
 12 28  1  0  0  0  0
 13 14  2  0  0  0  0
 13 29  1  0  0  0  0
 14 30  1  0  0  0  0
 15 23  1  0  0  0  0
 15 28  2  0  0  0  0
 16 24  2  0  0  0  0
 16 26  1  0  0  0  0
 17 30  2  0  0  0  0
 17 31  1  0  0  0  0
 18 32  1  0  0  0  0
 19 32  1  0  0  0  0
 19 33  2  0  0  0  0
 19 34  1  0  0  0  0
 20 22  2  0  0  0  0
 20 39  1  0  0  0  0
 21 23  2  0  0  0  0
 21 40  1  0  0  0  0
 22 48  1  0  0  0  0
 23 41  1  0  0  0  0
 24 64  1  0  0  0  0
 25 26  2  0  0  0  0
 25 51  1  0  0  0  0
 26 75  1  0  0  0  0
 27 84  1  0  0  0  0
 28 85  1  0  0  0  0
 29 31  2  0  0  0  0
 29 84  1  0  0  0  0
 30 86  1  0  0  0  0
 31 87  1  0  0  0  0
 32 69  2  0  0  0  0
 33 70  1  0  0  0  0
 33 73  1  0  0  0  0
 34 74  1  0  0  0  0
 34 79  2  0  0  0  0
 35 49  1  0  0  0  0
 35 76  1  0  0  0  0
 35 80  2  0  0  0  0
 36 65  1  0  0  0  0
 36 71  1  0  0  0  0
 36 81  2  0  0  0  0
 37 66  1  0  0  0  0
 37 77  1  0  0  0  0
 37 82  2  0  0  0  0
 38 72  1  0  0  0  0
 38 75  1  0  0  0  0
 38 83  2  0  0  0  0
 39 42  1  0  0  0  0
 40 49  1  0  0  0  0
 41 71  1  0  0  0  0
 42 44  1  0  0  0  0
 43 45  1  0  0  0  0
 43 46  1  0  0  0  0
 44 48  1  0  0  0  0
 45 50  1  0  0  0  0
 46 72  1  0  0  0  0
 47 50  1  0  0  0  0
 47 72  1  0  0  0  0
 48 76  1  0  0  0  0
 49 71  1  0  0  0  0
 50 70  1  0  0  0  0
 52 66  1  0  0  0  0
 53 67  1  0  0  0  0
 54 67  1  0  0  0  0
 55 67  1  0  0  0  0
 56 68  1  0  0  0  0
 57 68  1  0  0  0  0
 58 68  1  0  0  0  0
 59 78  1  0  0  0  0
 60 61  1  0  0  0  0
 60 63  1  0  0  0  0
 61 64  1  0  0  0  0
 62 64  1  0  0  0  0
 62 67  1  0  0  0  0
 63 85  1  0  0  0  0
 65 68  1  0  0  0  0
 65 77  1  0  0  0  0
 66 78  1  0  0  0  0
 69 70  1  0  0  0  0
M  CHG  1  78   1
M  ISO  4  38 100  63 101  75 100  85 101
M  END
> <Batch ID>
0136

> <Smiles>
CNC(C)C(=O)NC(C(=O)N1Cc2cc([101O:1][101CH2:1]CCC(CC(C)(C)C)c3ccc(C)c([100NH:0][100C:0](=O)N4CCCC(n5nc(-c6ccc(Oc7ccc(F)cc7F)cc6)c(C(N)=O)c5N)C4)c3)ccc2CC1C(=O)NC1CCCc2ccccc21)C(C)(C)C

> <Shape>
0.182

> <Color>
0.196

> <Negative vol penalty>
0.000

$$$$

  -OEChem-04052302393D

 87 95  0     1  0  0  0  0  0999 V2000
  -26.3112  -34.8146   15.4964 C   0  0  0  0  0  0  0  0  0  0  0  0
  -26.8799  -33.6668   16.0392 C   0  0  0  0  0  0  0  0  0  0  0  0
  -24.5469   -9.1433   20.9827 C   0  0  0  0  0  0  0  0  0  0  0  0
  -22.9989  -10.9949   20.8727 C   0  0  0  0  0  0  0  0  0  0  0  0
  -25.7537  -35.7786   16.3354 C   0  0  0  0  0  0  0  0  0  0  0  0
  -26.8926  -33.4830   17.4214 C   0  0  0  0  0  0  0  0  0  0  0  0
  -25.5513  -28.7894   18.7692 C   0  0  0  0  0  0  0  0  0  0  0  0
  -23.5861   -8.3792   21.6449 C   0  0  0  0  0  0  0  0  0  0  0  0
  -22.0379  -10.2308   21.5349 C   0  0  0  0  0  0  0  0  0  0  0  0
  -26.5129  -27.7890   18.6346 C   0  0  0  0  0  0  0  0  0  0  0  0
  -20.8231   -6.6057   20.8364 C   0  0  0  0  0  0  0  0  0  0  0  0
  -20.6387   -5.2890   20.4149 C   0  0  0  0  0  0  0  0  0  0  0  0
  -26.9859  -27.9343   20.9956 C   0  0  0  0  0  0  0  0  0  0  0  0
  -28.0634  -20.7311   16.4064 C   0  0  0  0  0  0  0  0  0  0  0  0
  -28.8408  -19.5023   18.3359 C   0  0  0  0  0  0  0  0  0  0  0  0
  -21.2313   -4.5001   22.6203 C   0  0  0  0  0  0  0  0  0  0  0  0
  -24.2534  -10.4511   20.5966 C   0  0  0  0  0  0  0  0  0  0  0  0
  -25.4514  -11.3307   18.5233 C   0  0  0  0  0  0  0  0  0  0  0  0
  -25.7509  -35.6019   17.7280 C   0  0  0  0  0  0  0  0  0  0  0  0
  -25.3070  -29.3785   20.0181 C   0  0  0  0  0  0  0  0  0  0  0  0
  -26.3358  -34.4462   18.2798 C   0  0  0  0  0  0  0  0  0  0  0  0
  -26.0188  -28.9402   21.1439 C   0  0  0  0  0  0  0  0  0  0  0  0
  -27.5802  -19.5479   15.8476 C   0  0  0  0  0  0  0  0  0  0  0  0
  -27.7272  -18.3420   16.5330 C   0  0  0  0  0  0  0  0  0  0  0  0
  -28.3575  -18.3192   17.7771 C   0  0  0  0  0  0  0  0  0  0  0  0
  -22.3316   -8.9230   21.9210 C   0  0  0  0  0  0  0  0  0  0  0  0
  -27.2324  -27.3633   19.7473 C   0  0  0  0  0  0  0  0  0  0  0  0
  -21.2117   -6.8697   22.1498 C   0  0  0  0  0  0  0  0  0  0  0  0
  -28.6938  -20.7083   17.6505 C   0  0  0  0  0  0  0  0  0  0  0  0
  -20.8428   -4.2361   21.3068 C   0  0  0  0  0  0  0  0  0  0  0  0
  -21.4158   -5.8169   23.0417 C   0  0  0  0  0  0  0  0  0  0  0  0
  -25.2457  -11.2411   19.9131 C   0  0  0  0  0  0  0  0  0  0  0  0
  -26.5033  -12.2033   18.3874 C   0  0  0  0  0  0  0  0  0  0  0  0
  -24.7538  -10.6832   17.4510 C   0  0  0  0  0  0  0  0  0  0  0  0
  -25.5592  -32.3187   21.1993 C   0  0  0  0  0  0  0  0  0  0  0  0
  -24.1658  -30.9731   23.8013 C   0  0  0  0  0  0  0  0  0  0  0  0
  -23.5317  -28.1527   25.6151 C   0  0  0  0  0  0  0  0  0  0  0  0
  -29.1157  -16.9313   19.7381 C   0  0  0  0  0  0  0  0  0  0  0  0
  -25.1788  -36.6937   18.5971 C   0  0  0  0  0  0  0  0  0  0  0  0
  -24.2475  -30.4378   20.1516 C   0  0  0  0  0  0  0  0  0  0  0  0
  -25.7801  -29.5262   22.5107 C   0  0  0  0  0  0  0  0  0  0  0  0
  -24.8979  -36.2476   20.0297 C   0  0  0  0  0  0  0  0  0  0  0  0
  -29.6646  -14.1158   21.8472 C   0  0  0  0  0  0  0  0  0  0  0  0
  -26.0851  -35.4704   20.5893 C   0  0  0  0  0  0  0  0  0  0  0  0
  -28.5808  -13.1243   21.4177 C   0  0  0  0  0  0  0  0  0  0  0  0
  -29.1617  -15.5577   21.8084 C   0  0  0  0  0  0  0  0  0  0  0  0
  -27.4793  -14.9809   20.1036 C   0  0  0  0  0  0  0  0  0  0  0  0
  -26.3466  -34.1990   19.7728 C   0  0  1  0  0  0  0  0  0  0  0  0
  -24.4434  -31.3278   21.3751 C   0  0  1  0  0  0  0  0  0  0  0  0
  -27.9588  -13.5206   20.0644 C   0  0  2  0  0  0  0  0  0  0  0  0
  -28.3169  -16.2216   15.3318 C   0  0  0  0  0  0  0  0  0  0  0  0
  -24.8060  -20.2285   13.2503 C   0  0  0  0  0  0  0  0  0  0  0  0
  -22.3992  -27.3739   27.7147 C   0  0  0  0  0  0  0  0  0  0  0  0
  -28.0293  -23.5478   20.3020 C   0  0  0  0  0  0  0  0  0  0  0  0
  -26.4796  -32.0770   25.4559 C   0  0  0  0  0  0  0  0  0  0  0  0
  -25.8225  -30.5085   27.2933 C   0  0  0  0  0  0  0  0  0  0  0  0
  -24.2341  -32.2776   26.5384 C   0  0  0  0  0  0  0  0  0  0  0  0
  -21.6735  -26.4127   24.1056 C   0  0  0  0  0  0  0  0  0  0  0  0
  -26.9086  -19.6004   14.5144 C   0  0  0  0  0  0  0  0  0  0  0  0
  -27.2048  -17.0758   15.9300 C   0  0  0  0  0  0  0  0  0  0  0  0
  -25.4761  -20.1442   14.6126 C   0  0  0  0  0  0  0  0  0  0  0  0
  -27.9608  -25.4129   18.5976 C   0  0  0  0  0  0  0  0  0  1  0  0
  -28.4796  -23.0674   17.8616 C   0  0  0  0  0  0  0  0  0  0  0  0
  -24.6683  -30.2832   25.0465 C   0  0  1  0  0  0  0  0  0  0  0  0
  -22.2490  -27.6113   26.2201 C   0  0  2  0  0  0  0  0  0  0  0  0
  -28.6196  -24.0887   18.9941 C   0  0  2  0  0  0  0  0  0  0  0  0
  -25.3072  -31.2767   26.0575 C   0  0  0  0  0  0  0  0  0  0  0  0
  -26.0987  -11.9963   20.6103 N   0  0  0  0  0  0  0  0  0  0  0  0
  -26.8506  -12.5688   19.6547 N   0  0  0  0  0  0  0  0  0  0  0  0
  -24.7383  -30.5635   22.5887 N   0  0  0  0  0  0  0  0  0  0  0  0
  -28.5900  -15.8629   20.4950 N   0  0  0  0  0  0  0  0  0  0  0  0
  -27.1560  -12.6858   17.3087 N   0  0  0  0  0  0  0  0  0  0  0  0
  -23.6975   -9.8179   17.7673 N   0  0  0  0  0  0  0  0  0  0  0  0
  -28.5143  -17.1059   18.4921 N   0  0  0  0  0  0  0  0  0  0  0  0
  -25.3926  -33.1685   20.1226 N   0  0  0  0  0  0  0  0  0  0  0  0
  -23.5382  -29.5311   25.5808 N   0  0  0  0  0  0  0  0  0  0  0  0
  -21.8761  -26.3209   25.5745 N   0  3  0  0  0  0  0  0  0  0  0  0
  -25.0687  -10.8538   16.2488 O   0  0  0  0  0  0  0  0  0  0  0  0
  -26.5009  -32.3135   21.9835 O   0  0  0  0  0  0  0  0  0  0  0  0
  -23.2922  -31.8384   23.9001 O   0  0  0  0  0  0  0  0  0  0  0  0
  -24.4389  -27.4256   25.2165 O   0  0  0  0  0  0  0  0  0  0  0  0
  -30.0502  -17.6220   20.1523 O   0  0  0  0  0  0  0  0  0  0  0  0
  -21.3936   -8.1776   22.5669 O   0  0  0  0  0  0  0  0  0  0  0  0
  -28.1721  -26.3874   19.6185 O   0  0  0  0  0  0  0  0  0  1  0  0
  -29.1694  -21.8709   18.1984 O   0  0  0  0  0  0  0  0  0  0  0  0
  -20.6641   -2.9717   20.9023 F   0  0  0  0  0  0  0  0  0  0  0  0
  -21.7879   -6.0643   24.3051 F   0  0  0  0  0  0  0  0  0  0  0  0
  1  2  1  0  0  0  0
  1  5  2  0  0  0  0
  2  6  2  0  0  0  0
  3  8  2  0  0  0  0
  3 17  1  0  0  0  0
  4  9  1  0  0  0  0
  4 17  2  0  0  0  0
  5 19  1  0  0  0  0
  6 21  1  0  0  0  0
  7 10  2  0  0  0  0
  7 20  1  0  0  0  0
  8 26  1  0  0  0  0
  9 26  2  0  0  0  0
 10 27  1  0  0  0  0
 11 12  2  0  0  0  0
 11 28  1  0  0  0  0
 12 30  1  0  0  0  0
 13 22  1  0  0  0  0
 13 27  2  0  0  0  0
 14 23  1  0  0  0  0
 14 29  2  0  0  0  0
 15 25  2  0  0  0  0
 15 29  1  0  0  0  0
 16 30  2  0  0  0  0
 16 31  1  0  0  0  0
 17 32  1  0  0  0  0
 18 32  1  0  0  0  0
 18 33  2  0  0  0  0
 18 34  1  0  0  0  0
 19 21  2  0  0  0  0
 19 39  1  0  0  0  0
 20 22  2  0  0  0  0
 20 40  1  0  0  0  0
 21 48  1  0  0  0  0
 22 41  1  0  0  0  0
 23 24  2  0  0  0  0
 23 59  1  0  0  0  0
 24 25  1  0  0  0  0
 24 60  1  0  0  0  0
 25 74  1  0  0  0  0
 26 83  1  0  0  0  0
 27 84  1  0  0  0  0
 28 31  2  0  0  0  0
 28 83  1  0  0  0  0
 29 85  1  0  0  0  0
 30 86  1  0  0  0  0
 31 87  1  0  0  0  0
 32 68  2  0  0  0  0
 33 69  1  0  0  0  0
 33 72  1  0  0  0  0
 34 73  1  0  0  0  0
 34 78  2  0  0  0  0
 35 49  1  0  0  0  0
 35 75  1  0  0  0  0
 35 79  2  0  0  0  0
 36 64  1  0  0  0  0
 36 70  1  0  0  0  0
 36 80  2  0  0  0  0
 37 65  1  0  0  0  0
 37 76  1  0  0  0  0
 37 81  2  0  0  0  0
 38 71  1  0  0  0  0
 38 74  1  0  0  0  0
 38 82  2  0  0  0  0
 39 42  1  0  0  0  0
 40 49  1  0  0  0  0
 41 70  1  0  0  0  0
 42 44  1  0  0  0  0
 43 45  1  0  0  0  0
 43 46  1  0  0  0  0
 44 48  1  0  0  0  0
 45 50  1  0  0  0  0
 46 71  1  0  0  0  0
 47 50  1  0  0  0  0
 47 71  1  0  0  0  0
 48 75  1  0  0  0  0
 49 70  1  0  0  0  0
 50 69  1  0  0  0  0
 51 60  1  0  0  0  0
 52 61  1  0  0  0  0
 53 65  1  0  0  0  0
 54 66  1  0  0  0  0
 55 67  1  0  0  0  0
 56 67  1  0  0  0  0
 57 67  1  0  0  0  0
 58 77  1  0  0  0  0
 59 61  1  0  0  0  0
 62 66  1  0  0  0  0
 62 84  1  0  0  0  0
 63 66  1  0  0  0  0
 63 85  1  0  0  0  0
 64 67  1  0  0  0  0
 64 76  1  0  0  0  0
 65 77  1  0  0  0  0
 68 69  1  0  0  0  0
M  CHG  1  77   1
M  ISO  4  38 100  62 101  74 100  84 101
M  END
> <Batch ID>
0136

> <Smiles>
CCCc1cc(OCC(C)[101CH2:1][101O:1]c2ccc3c(c2)CN(C(=O)C(NC(=O)C(C)NC)C(C)(C)C)C(C(=O)NC2CCCc4ccccc42)C3)cc([100NH:0][100C:0](=O)N2CCCC(n3nc(-c4ccc(Oc5ccc(F)cc5F)cc4)c(C(N)=O)c3N)C2)c1CC

> <Shape>
0.250

> <Color>
0.120

> <Negative vol penalty>
0.000

$$$$

  -OEChem-04052302393D

 93101  0     1  0  0  0  0  0999 V2000
  -31.4918  -34.1152   20.8795 C   0  0  0  0  0  0  0  0  0  0  0  0
  -31.1548  -32.7961   20.5938 C   0  0  0  0  0  0  0  0  0  0  0  0
  -24.1833   -9.5550   21.2668 C   0  0  0  0  0  0  0  0  0  0  0  0
  -22.1318  -10.8015   21.5396 C   0  0  0  0  0  0  0  0  0  0  0  0
  -30.9244  -34.7557   21.9802 C   0  0  0  0  0  0  0  0  0  0  0  0
  -30.2509  -32.1162   21.4095 C   0  0  0  0  0  0  0  0  0  0  0  0
  -26.1482  -27.9197   19.6592 C   0  0  0  0  0  0  0  0  0  0  0  0
  -23.4663   -8.3604   21.3330 C   0  0  0  0  0  0  0  0  0  0  0  0
  -21.4147   -9.6069   21.6058 C   0  0  0  0  0  0  0  0  0  0  0  0
  -26.1619  -26.5259   19.6871 C   0  0  0  0  0  0  0  0  0  0  0  0
  -22.0785   -6.4182   23.7260 C   0  0  0  0  0  0  0  0  0  0  0  0
  -22.5930   -5.3979   24.5259 C   0  0  0  0  0  0  0  0  0  0  0  0
  -24.9620  -26.5620   21.7795 C   0  0  0  0  0  0  0  0  0  0  0  0
  -29.1319  -16.8877   20.5038 C   0  0  0  0  0  0  0  0  0  0  0  0
  -28.2191  -17.8384   22.5287 C   0  0  0  0  0  0  0  0  0  0  0  0
  -22.7348   -3.9545   22.5936 C   0  0  0  0  0  0  0  0  0  0  0  0
  -23.5161  -10.7756   21.3702 C   0  0  0  0  0  0  0  0  0  0  0  0
  -27.4830  -18.6488   20.3750 C   0  0  0  0  0  0  0  0  0  0  0  0
  -24.5573  -12.7584   20.1487 C   0  0  0  0  0  0  0  0  0  0  0  0
  -30.0057  -34.0865   22.8042 C   0  0  0  0  0  0  0  0  0  0  0  0
  -25.5499  -28.6466   20.6985 C   0  0  0  0  0  0  0  0  0  0  0  0
  -29.6717  -32.7480   22.5231 C   0  0  0  0  0  0  0  0  0  0  0  0
  -24.9398  -27.9650   21.7612 C   0  0  0  0  0  0  0  0  0  0  0  0
  -28.3369  -17.7449   19.7430 C   0  0  0  0  0  0  0  0  0  0  0  0
  -29.0730  -16.9344   21.8967 C   0  0  0  0  0  0  0  0  0  0  0  0
  -22.0820   -8.3864   21.5025 C   0  0  0  0  0  0  0  0  0  0  0  0
  -25.5713  -25.8468   20.7488 C   0  0  0  0  0  0  0  0  0  0  0  0
  -21.8921   -6.2066   22.3599 C   0  0  0  0  0  0  0  0  0  0  0  0
  -27.4241  -18.6956   21.7679 C   0  0  0  0  0  0  0  0  0  0  0  0
  -22.9212   -4.1661   23.9598 C   0  0  0  0  0  0  0  0  0  0  0  0
  -22.2203   -4.9748   21.7937 C   0  0  0  0  0  0  0  0  0  0  0  0
  -24.2563  -12.0100   21.3024 C   0  0  0  0  0  0  0  0  0  0  0  0
  -25.2723  -13.8347   20.6146 C   0  0  0  0  0  0  0  0  0  0  0  0
  -26.6502  -19.5493   19.5851 C   0  0  0  0  0  0  0  0  0  0  0  0
  -24.2208  -12.5036   18.7785 C   0  0  0  0  0  0  0  0  0  0  0  0
  -26.5803  -30.7502   22.8472 C   0  0  0  0  0  0  0  0  0  0  0  0
  -24.9880  -21.4768   23.8830 C   0  0  0  0  0  0  0  0  0  0  0  0
  -23.4244  -30.9804   23.5609 C   0  0  0  0  0  0  0  0  0  0  0  0
  -20.3320  -29.5374   23.5199 C   0  0  0  0  0  0  0  0  0  0  0  0
  -29.5202  -15.5712   23.9541 C   0  0  0  0  0  0  0  0  0  0  0  0
  -29.4547  -34.8052   24.0103 C   0  0  0  0  0  0  0  0  0  0  0  0
  -25.5201  -30.1493   20.6402 C   0  0  0  0  0  0  0  0  0  0  0  0
  -24.2664  -28.6983   22.8913 C   0  0  0  0  0  0  0  0  0  0  0  0
  -28.2198  -34.1349   24.6071 C   0  0  0  0  0  0  0  0  0  0  0  0
  -26.0747  -15.5207   25.3028 C   0  0  0  0  0  0  0  0  0  0  0  0
  -28.4403  -32.6315   24.7402 C   0  0  0  0  0  0  0  0  0  0  0  0
  -25.3440  -14.5948   24.3322 C   0  0  0  0  0  0  0  0  0  0  0  0
  -27.5573  -15.1759   25.4069 C   0  0  0  0  0  0  0  0  0  0  0  0
  -27.5279  -14.2343   23.1148 C   0  0  0  0  0  0  0  0  0  0  0  0
  -28.6762  -31.9850   23.3699 C   0  0  1  0  0  0  0  0  0  0  0  0
  -25.3342  -30.7968   22.0090 C   0  0  1  0  0  0  0  0  0  0  0  0
  -26.0407  -14.5869   22.9615 C   0  0  1  0  0  0  0  0  0  0  0  0
  -28.4206  -17.6717   18.2531 C   0  0  0  0  0  0  0  0  0  0  0  0
  -25.2850  -19.0649   19.1999 C   0  0  0  0  0  0  0  0  0  0  0  0
  -24.0679  -19.0490   25.4549 C   0  0  0  0  0  0  0  0  0  0  0  0
  -24.4694  -22.8963   25.8433 C   0  0  0  0  0  0  0  0  0  0  0  0
  -17.9549  -29.9531   24.2086 C   0  0  0  0  0  0  0  0  0  0  0  0
  -24.1667  -30.4016   26.4633 C   0  0  0  0  0  0  0  0  0  0  0  0
  -21.7557  -29.8917   26.9053 C   0  0  0  0  0  0  0  0  0  0  0  0
  -22.4301  -32.1763   26.1647 C   0  0  0  0  0  0  0  0  0  0  0  0
  -31.2785  -15.8418   22.2608 C   0  0  0  0  0  0  0  0  0  0  0  0
  -19.3695  -29.3595   20.7268 C   0  0  0  0  0  0  0  0  0  0  0  0
  -23.7482  -20.4814   25.8630 C   0  0  0  0  0  0  0  0  0  0  0  0
  -26.3100  -22.5171   21.9831 C   0  0  0  0  0  0  0  0  0  0  0  0
  -25.5962  -23.8644   22.0622 C   0  0  0  0  0  0  0  0  0  1  0  0
  -27.2059  -20.5197   23.2780 C   0  0  0  0  0  0  0  0  0  0  0  0
  -24.8222  -21.4778   25.4031 C   0  0  1  0  0  0  0  0  0  0  0  0
  -26.3825  -21.8096   23.3445 C   0  0  2  0  0  0  0  0  0  0  0  0
  -22.4875  -30.2685   24.5066 C   0  0  1  0  0  0  0  0  0  0  0  0
  -18.9774  -30.0703   23.0890 C   0  0  2  0  0  0  0  0  0  0  0  0
  -22.7243  -30.6705   25.9898 C   0  0  0  0  0  0  0  0  0  0  0  0
  -24.7404  -12.5638   22.4172 N   0  0  0  0  0  0  0  0  0  0  0  0
  -25.3531  -13.6716   21.9662 N   0  0  0  0  0  0  0  0  0  0  0  0
  -24.2690  -30.1672   22.7921 N   0  0  0  0  0  0  0  0  0  0  0  0
  -28.1937  -15.1129   24.0902 N   0  0  0  0  0  0  0  0  0  0  0  0
  -25.8334  -14.8951   19.9957 N   0  0  0  0  0  0  0  0  0  0  0  0
  -23.4816  -11.3521   18.4751 N   0  0  0  0  0  0  0  0  0  0  0  0
  -27.4235  -31.8291   22.6621 N   0  0  0  0  0  0  0  0  0  0  0  0
  -21.1375  -30.5370   24.0230 N   0  0  0  0  0  0  0  0  0  0  0  0
  -29.8948  -16.0473   22.6831 N   0  0  0  0  0  0  0  0  0  0  0  0
  -18.4729  -29.3105   21.9103 N   0  3  0  0  0  0  0  0  0  0  0  0
  -26.9890  -20.6710   19.2103 O   0  0  0  0  0  0  0  0  0  0  0  0
  -24.5794  -13.2656   17.8489 O   0  0  0  0  0  0  0  0  0  0  0  0
  -26.7625  -29.8060   23.6068 O   0  0  0  0  0  0  0  0  0  0  0  0
  -24.0458  -21.2246   23.1310 O   0  0  0  0  0  0  0  0  0  0  0  0
  -23.4024  -32.2123   23.5012 O   0  0  0  0  0  0  0  0  0  0  0  0
  -20.6429  -28.3523   23.4235 O   0  0  0  0  0  0  0  0  0  0  0  0
  -30.3328  -15.5092   24.8849 O   0  0  0  0  0  0  0  0  0  0  0  0
  -21.3820   -7.2209   21.5669 O   0  0  0  0  0  0  0  0  0  0  0  0
  -25.5838  -24.4768   20.7790 O   0  0  0  0  0  0  0  0  0  1  0  0
  -26.5926  -19.5761   22.4089 O   0  0  0  0  0  0  0  0  0  0  0  0
  -23.4167   -3.1869   24.7278 F   0  0  0  0  0  0  0  0  0  0  0  0
  -22.0445   -4.7661   20.4817 F   0  0  0  0  0  0  0  0  0  0  0  0
  1  2  1  0  0  0  0
  1  5  2  0  0  0  0
  2  6  2  0  0  0  0
  3  8  2  0  0  0  0
  3 17  1  0  0  0  0
  4  9  1  0  0  0  0
  4 17  2  0  0  0  0
  5 20  1  0  0  0  0
  6 22  1  0  0  0  0
  7 10  2  0  0  0  0
  7 21  1  0  0  0  0
  8 26  1  0  0  0  0
  9 26  2  0  0  0  0
 10 27  1  0  0  0  0
 11 12  2  0  0  0  0
 11 28  1  0  0  0  0
 12 30  1  0  0  0  0
 13 23  1  0  0  0  0
 13 27  2  0  0  0  0
 14 24  2  0  0  0  0
 14 25  1  0  0  0  0
 15 25  2  0  0  0  0
 15 29  1  0  0  0  0
 16 30  2  0  0  0  0
 16 31  1  0  0  0  0
 17 32  1  0  0  0  0
 18 24  1  0  0  0  0
 18 29  2  0  0  0  0
 18 34  1  0  0  0  0
 19 32  1  0  0  0  0
 19 33  2  0  0  0  0
 19 35  1  0  0  0  0
 20 22  2  0  0  0  0
 20 41  1  0  0  0  0
 21 23  2  0  0  0  0
 21 42  1  0  0  0  0
 22 50  1  0  0  0  0
 23 43  1  0  0  0  0
 24 53  1  0  0  0  0
 25 80  1  0  0  0  0
 26 89  1  0  0  0  0
 27 90  1  0  0  0  0
 28 31  2  0  0  0  0
 28 89  1  0  0  0  0
 29 91  1  0  0  0  0
 30 92  1  0  0  0  0
 31 93  1  0  0  0  0
 32 72  2  0  0  0  0
 33 73  1  0  0  0  0
 33 76  1  0  0  0  0
 34 54  1  0  0  0  0
 34 82  2  0  0  0  0
 35 77  1  0  0  0  0
 35 83  2  0  0  0  0
 36 51  1  0  0  0  0
 36 78  1  0  0  0  0
 36 84  2  0  0  0  0
 37 67  1  0  0  0  0
 37 68  1  0  0  0  0
 37 85  2  0  0  0  0
 38 69  1  0  0  0  0
 38 74  1  0  0  0  0
 38 86  2  0  0  0  0
 39 70  1  0  0  0  0
 39 79  1  0  0  0  0
 39 87  2  0  0  0  0
 40 75  1  0  0  0  0
 40 80  1  0  0  0  0
 40 88  2  0  0  0  0
 41 44  1  0  0  0  0
 42 51  1  0  0  0  0
 43 74  1  0  0  0  0
 44 46  1  0  0  0  0
 45 47  1  0  0  0  0
 45 48  1  0  0  0  0
 46 50  1  0  0  0  0
 47 52  1  0  0  0  0
 48 75  1  0  0  0  0
 49 52  1  0  0  0  0
 49 75  1  0  0  0  0
 50 78  1  0  0  0  0
 51 74  1  0  0  0  0
 52 73  1  0  0  0  0
 55 63  1  0  0  0  0
 56 67  1  0  0  0  0
 57 70  1  0  0  0  0
 58 71  1  0  0  0  0
 59 71  1  0  0  0  0
 60 71  1  0  0  0  0
 61 80  1  0  0  0  0
 62 81  1  0  0  0  0
 63 67  1  0  0  0  0
 64 65  1  0  0  0  0
 64 68  1  0  0  0  0
 65 90  1  0  0  0  0
 66 68  1  0  0  0  0
 66 91  1  0  0  0  0
 69 71  1  0  0  0  0
 69 79  1  0  0  0  0
 70 81  1  0  0  0  0
 72 73  1  0  0  0  0
M  CHG  1  81   1
M  ISO  4  40 100  65 101  80 100  90 101
M  END
> <Batch ID>
0136

> <Smiles>
CCC(C)C(=O)C(COc1cc([100N:0](C)[100C:0](=O)N2CCCC(n3nc(-c4ccc(Oc5ccc(F)cc5F)cc4)c(C(N)=O)c3N)C2)cc(C)c1C(C)=O)C[101CH2:1][101O:1]c1ccc2c(c1)CN(C(=O)C(NC(=O)C(C)NC)C(C)(C)C)C(C(=O)NC1CCCc3ccccc31)C2

> <Shape>
0.238

> <Color>
0.099

> <Negative vol penalty>
0.000

$$$$

  -OEChem-04052302393D

 86 94  0     1  0  0  0  0  0999 V2000
  -26.1070  -35.2833   23.5156 C   0  0  0  0  0  0  0  0  0  0  0  0
  -26.6438  -34.0295   23.2417 C   0  0  0  0  0  0  0  0  0  0  0  0
  -22.1592  -11.1196   20.5751 C   0  0  0  0  0  0  0  0  0  0  0  0
  -23.9345  -11.8814   22.0260 C   0  0  0  0  0  0  0  0  0  0  0  0
  -24.8015  -35.3923   23.9928 C   0  0  0  0  0  0  0  0  0  0  0  0
  -25.8758  -32.8837   23.4460 C   0  0  0  0  0  0  0  0  0  0  0  0
  -26.2250  -29.6007   19.6061 C   0  0  0  0  0  0  0  0  0  0  0  0
  -27.6713  -21.3048   19.8379 C   0  0  0  0  0  0  0  0  0  0  0  0
  -26.4239  -20.7075   19.6574 C   0  0  0  0  0  0  0  0  0  0  0  0
  -22.7924   -9.8831   20.4495 C   0  0  0  0  0  0  0  0  0  0  0  0
  -24.5677  -10.6449   21.9005 C   0  0  0  0  0  0  0  0  0  0  0  0
  -27.3729  -28.8117   19.5453 C   0  0  0  0  0  0  0  0  0  0  0  0
  -23.7576   -6.4027   20.0366 C   0  0  0  0  0  0  0  0  0  0  0  0
  -22.9700   -5.2567   20.1460 C   0  0  0  0  0  0  0  0  0  0  0  0
  -26.1534  -26.9730   20.5206 C   0  0  0  0  0  0  0  0  0  0  0  0
  -27.9179  -20.1527   21.9471 C   0  0  0  0  0  0  0  0  0  0  0  0
  -22.3329   -5.9083   22.3836 C   0  0  0  0  0  0  0  0  0  0  0  0
  -22.7303  -12.1187   21.3633 C   0  0  0  0  0  0  0  0  0  0  0  0
  -21.1257  -13.7705   22.4609 C   0  0  0  0  0  0  0  0  0  0  0  0
  -24.0138  -34.2479   24.1939 C   0  0  0  0  0  0  0  0  0  0  0  0
  -25.0336  -29.0843   20.1355 C   0  0  0  0  0  0  0  0  0  0  0  0
  -24.5590  -32.9773   23.9277 C   0  0  0  0  0  0  0  0  0  0  0  0
  -24.9911  -27.7566   20.5846 C   0  0  0  0  0  0  0  0  0  0  0  0
  -28.4184  -21.0274   20.9827 C   0  0  0  0  0  0  0  0  0  0  0  0
  -26.6704  -19.5553   21.7667 C   0  0  0  0  0  0  0  0  0  0  0  0
  -25.9234  -19.8327   20.6218 C   0  0  0  0  0  0  0  0  0  0  0  0
  -23.9966   -9.6457   21.1122 C   0  0  0  0  0  0  0  0  0  0  0  0
  -27.3380  -27.4986   20.0053 C   0  0  0  0  0  0  0  0  0  0  0  0
  -23.8329   -7.3015   21.1007 C   0  0  0  0  0  0  0  0  0  0  0  0
  -22.2576   -5.0095   21.3195 C   0  0  0  0  0  0  0  0  0  0  0  0
  -23.1205   -7.0543   22.2741 C   0  0  0  0  0  0  0  0  0  0  0  0
  -22.0770  -13.3964   21.4929 C   0  0  0  0  0  0  0  0  0  0  0  0
  -20.8181  -15.0735   22.1544 C   0  0  0  0  0  0  0  0  0  0  0  0
  -20.5698  -13.0082   23.5405 C   0  0  0  0  0  0  0  0  0  0  0  0
  -23.1765  -29.8143   22.6098 C   0  0  0  0  0  0  0  0  0  0  0  0
  -21.2466  -27.5410   21.3332 C   0  0  0  0  0  0  0  0  0  0  0  0
  -20.9460  -24.7601   19.3779 C   0  0  0  0  0  0  0  0  0  0  0  0
  -23.7990  -19.4165   19.3334 C   0  0  0  0  0  0  0  0  0  0  0  0
  -22.6241  -34.4127   24.7562 C   0  0  0  0  0  0  0  0  0  0  0  0
  -23.7970  -29.9398   20.1694 C   0  0  0  0  0  0  0  0  0  0  0  0
  -23.7316  -27.1484   21.1432 C   0  0  0  0  0  0  0  0  0  0  0  0
  -21.7488  -33.1732   24.5901 C   0  0  0  0  0  0  0  0  0  0  0  0
  -20.6110  -18.1004   18.4491 C   0  0  0  0  0  0  0  0  0  0  0  0
  -22.5152  -31.9196   24.9999 C   0  0  0  0  0  0  0  0  0  0  0  0
  -20.5361  -16.7817   19.2221 C   0  0  0  0  0  0  0  0  0  0  0  0
  -22.0236  -18.3789   17.9383 C   0  0  0  0  0  0  0  0  0  0  0  0
  -23.0009  -17.0044   19.7341 C   0  0  0  0  0  0  0  0  0  0  0  0
  -23.7489  -31.7126   24.1130 C   0  0  1  0  0  0  0  0  0  0  0  0
  -22.7758  -29.4733   21.2024 C   0  0  1  0  0  0  0  0  0  0  0  0
  -21.6115  -16.7126   20.3241 C   0  0  2  0  0  0  0  0  0  0  0  0
  -26.1578  -18.6247   22.8176 C   0  0  0  0  0  0  0  0  0  0  0  0
  -19.2488  -23.1055   18.5538 C   0  0  0  0  0  0  0  0  0  0  0  0
  -28.7694  -25.8480   17.7360 C   0  0  0  0  0  0  0  0  0  0  0  0
  -21.2427  -26.1868   24.0675 C   0  0  0  0  0  0  0  0  0  0  0  0
  -20.3637  -24.1183   22.9643 C   0  0  0  0  0  0  0  0  0  0  0  0
  -19.0224  -26.2210   22.9171 C   0  0  0  0  0  0  0  0  0  0  0  0
  -31.2698  -23.5079   22.0026 C   0  0  0  0  0  0  0  0  0  0  0  0
  -29.2887  -22.8884   23.3727 C   0  0  0  0  0  0  0  0  0  0  0  0
  -21.4352  -25.4905   16.5519 C   0  0  0  0  0  0  0  0  0  0  0  0
  -29.7696  -21.6769   21.1794 C   0  0  0  0  0  0  0  0  0  0  0  0
  -29.3166  -24.4772   19.7810 C   0  0  0  0  0  0  0  0  0  0  0  0
  -28.9338  -24.1409   21.2315 C   0  0  0  0  0  0  0  0  0  0  0  0
  -21.1042  -26.0466   21.4931 C   0  0  1  0  0  0  0  0  0  0  0  0
  -19.9736  -24.4111   18.2657 C   0  0  2  0  0  0  0  0  0  0  0  0
  -28.3816  -25.5299   19.1739 C   0  0  1  0  0  0  0  0  0  1  0  0
  -20.4576  -25.6549   22.8518 C   0  0  0  0  0  0  0  0  0  0  0  0
  -29.7975  -23.0473   21.9230 C   0  0  0  0  0  0  0  0  0  0  0  0
  -22.3553  -14.3821   20.6356 N   0  0  0  0  0  0  0  0  0  0  0  0
  -21.5742  -15.3884   21.0638 N   0  0  0  0  0  0  0  0  0  0  0  0
  -22.5504  -28.0270   21.1611 N   0  0  0  0  0  0  0  0  0  0  0  0
  -22.9879  -18.3005   19.0378 N   0  0  0  0  0  0  0  0  0  0  0  0
  -19.9773  -15.9692   22.7141 N   0  0  0  0  0  0  0  0  0  0  0  0
  -20.9963  -11.6843   23.7126 N   0  0  0  0  0  0  0  0  0  0  0  0
  -24.6541  -19.2361   20.4200 N   0  0  0  0  0  0  0  0  0  0  0  0
  -23.3630  -31.1657   22.8299 N   0  0  0  0  0  0  0  0  0  0  0  0
  -20.3672  -25.5794   20.3240 N   0  0  0  0  0  0  0  0  0  0  0  0
  -20.6968  -24.2712   16.9702 N   0  3  0  0  0  0  0  0  0  0  0  0
  -19.7079  -13.4817   24.3193 O   0  0  0  0  0  0  0  0  0  0  0  0
  -23.3055  -28.9179   23.4353 O   0  0  0  0  0  0  0  0  0  0  0  0
  -20.2375  -28.2502   21.3529 O   0  0  0  0  0  0  0  0  0  0  0  0
  -22.1023  -24.3444   19.4066 O   0  0  0  0  0  0  0  0  0  0  0  0
  -23.7200  -20.4652   18.6884 O   0  0  0  0  0  0  0  0  0  0  0  0
  -24.6146   -8.4392   20.9901 O   0  0  0  0  0  0  0  0  0  0  0  0
  -28.4571  -26.7265   19.9477 O   0  0  0  0  0  0  0  0  0  1  0  0
  -21.5001   -3.9098   21.4239 F   0  0  0  0  0  0  0  0  0  0  0  0
  -23.1880   -7.9147   23.2993 F   0  0  0  0  0  0  0  0  0  0  0  0
  1  2  1  0  0  0  0
  1  5  2  0  0  0  0
  2  6  2  0  0  0  0
  3 10  2  0  0  0  0
  3 18  1  0  0  0  0
  4 11  1  0  0  0  0
  4 18  2  0  0  0  0
  5 20  1  0  0  0  0
  6 22  1  0  0  0  0
  7 12  2  0  0  0  0
  7 21  1  0  0  0  0
  8  9  2  0  0  0  0
  8 24  1  0  0  0  0
  9 26  1  0  0  0  0
 10 27  1  0  0  0  0
 11 27  2  0  0  0  0
 12 28  1  0  0  0  0
 13 14  2  0  0  0  0
 13 29  1  0  0  0  0
 14 30  1  0  0  0  0
 15 23  1  0  0  0  0
 15 28  2  0  0  0  0
 16 24  2  0  0  0  0
 16 25  1  0  0  0  0
 17 30  2  0  0  0  0
 17 31  1  0  0  0  0
 18 32  1  0  0  0  0
 19 32  1  0  0  0  0
 19 33  2  0  0  0  0
 19 34  1  0  0  0  0
 20 22  2  0  0  0  0
 20 39  1  0  0  0  0
 21 23  2  0  0  0  0
 21 40  1  0  0  0  0
 22 48  1  0  0  0  0
 23 41  1  0  0  0  0
 24 60  1  0  0  0  0
 25 26  2  0  0  0  0
 25 51  1  0  0  0  0
 26 74  1  0  0  0  0
 27 83  1  0  0  0  0
 28 84  1  0  0  0  0
 29 31  2  0  0  0  0
 29 83  1  0  0  0  0
 30 85  1  0  0  0  0
 31 86  1  0  0  0  0
 32 68  2  0  0  0  0
 33 69  1  0  0  0  0
 33 72  1  0  0  0  0
 34 73  1  0  0  0  0
 34 78  2  0  0  0  0
 35 49  1  0  0  0  0
 35 75  1  0  0  0  0
 35 79  2  0  0  0  0
 36 63  1  0  0  0  0
 36 70  1  0  0  0  0
 36 80  2  0  0  0  0
 37 64  1  0  0  0  0
 37 76  1  0  0  0  0
 37 81  2  0  0  0  0
 38 71  1  0  0  0  0
 38 74  1  0  0  0  0
 38 82  2  0  0  0  0
 39 42  1  0  0  0  0
 40 49  1  0  0  0  0
 41 70  1  0  0  0  0
 42 44  1  0  0  0  0
 43 45  1  0  0  0  0
 43 46  1  0  0  0  0
 44 48  1  0  0  0  0
 45 50  1  0  0  0  0
 46 71  1  0  0  0  0
 47 50  1  0  0  0  0
 47 71  1  0  0  0  0
 48 75  1  0  0  0  0
 49 70  1  0  0  0  0
 50 69  1  0  0  0  0
 52 64  1  0  0  0  0
 53 65  1  0  0  0  0
 54 66  1  0  0  0  0
 55 66  1  0  0  0  0
 56 66  1  0  0  0  0
 57 67  1  0  0  0  0
 58 67  1  0  0  0  0
 59 77  1  0  0  0  0
 60 67  1  0  0  0  0
 61 62  1  0  0  0  0
 61 65  1  0  0  0  0
 62 67  1  0  0  0  0
 63 66  1  0  0  0  0
 63 76  1  0  0  0  0
 64 77  1  0  0  0  0
 65 84  1  0  0  0  0
 68 69  1  0  0  0  0
M  CHG  1  77   1
M  ISO  4  38 100  65 101  74 100  84 101
M  END
> <Batch ID>
0136

> <Smiles>
CNC(C)C(=O)NC(C(=O)N1Cc2cc([101O:1][101CH:1](C)CCC(C)(C)Cc3ccc([100NH:0][100C:0](=O)N4CCCC(n5nc(-c6ccc(Oc7ccc(F)cc7F)cc6)c(C(N)=O)c5N)C4)c(C)c3)ccc2CC1C(=O)NC1CCCc2ccccc21)C(C)(C)C

> <Shape>
0.246

> <Color>
0.077

> <Negative vol penalty>
0.000

$$$$

  -OEChem-04052302393D

 85 93  0     1  0  0  0  0  0999 V2000
  -30.5962  -29.9230   24.2922 C   0  0  0  0  0  0  0  0  0  0  0  0
  -29.9846  -28.6873   24.4779 C   0  0  0  0  0  0  0  0  0  0  0  0
  -23.1849   -9.8449   19.9599 C   0  0  0  0  0  0  0  0  0  0  0  0
  -23.8737   -9.9351   22.2739 C   0  0  0  0  0  0  0  0  0  0  0  0
  -30.9646  -30.3317   23.0112 C   0  0  0  0  0  0  0  0  0  0  0  0
  -29.7400  -27.8600   23.3824 C   0  0  0  0  0  0  0  0  0  0  0  0
  -30.9993  -23.0362   24.2712 C   0  0  0  0  0  0  0  0  0  0  0  0
  -31.7395  -16.6136   22.2081 C   0  0  0  0  0  0  0  0  0  0  0  0
  -22.4807   -8.6683   20.2154 C   0  0  0  0  0  0  0  0  0  0  0  0
  -23.1694   -8.7585   22.5294 C   0  0  0  0  0  0  0  0  0  0  0  0
  -30.1127  -22.2768   25.0335 C   0  0  0  0  0  0  0  0  0  0  0  0
  -19.9590   -7.8435   23.0553 C   0  0  0  0  0  0  0  0  0  0  0  0
  -32.0865  -17.8247   22.8069 C   0  0  0  0  0  0  0  0  0  0  0  0
  -19.1690   -7.7993   24.2040 C   0  0  0  0  0  0  0  0  0  0  0  0
  -29.2338  -21.2888   23.0159 C   0  0  0  0  0  0  0  0  0  0  0  0
  -30.2474  -16.1323   24.0463 C   0  0  0  0  0  0  0  0  0  0  0  0
  -20.4641   -5.9314   25.0230 C   0  0  0  0  0  0  0  0  0  0  0  0
  -23.8815  -10.4783   20.9892 C   0  0  0  0  0  0  0  0  0  0  0  0
  -24.1252  -13.0119   20.8188 C   0  0  0  0  0  0  0  0  0  0  0  0
  -30.7331  -29.5048   21.9006 C   0  0  0  0  0  0  0  0  0  0  0  0
  -31.0023  -22.9355   22.8726 C   0  0  0  0  0  0  0  0  0  0  0  0
  -30.1044  -28.2586   22.0851 C   0  0  0  0  0  0  0  0  0  0  0  0
  -30.1232  -22.0461   22.2383 C   0  0  0  0  0  0  0  0  0  0  0  0
  -30.8199  -15.7674   22.8278 C   0  0  0  0  0  0  0  0  0  0  0  0
  -22.4729   -8.1251   21.5001 C   0  0  0  0  0  0  0  0  0  0  0  0
  -29.2278  -21.4051   24.4057 C   0  0  0  0  0  0  0  0  0  0  0  0
  -21.0016   -6.9315   22.8904 C   0  0  0  0  0  0  0  0  0  0  0  0
  -30.5944  -17.3434   24.6451 C   0  0  0  0  0  0  0  0  0  0  0  0
  -19.4215   -6.8433   25.1878 C   0  0  0  0  0  0  0  0  0  0  0  0
  -31.5140  -18.1896   24.0254 C   0  0  0  0  0  0  0  0  0  0  0  0
  -21.2541   -5.9756   23.8742 C   0  0  0  0  0  0  0  0  0  0  0  0
  -24.6097  -11.6934   20.7258 C   0  0  0  0  0  0  0  0  0  0  0  0
  -25.1970  -13.7969   20.4700 C   0  0  0  0  0  0  0  0  0  0  0  0
  -22.8229  -13.4848   21.1875 C   0  0  0  0  0  0  0  0  0  0  0  0
  -30.4422  -24.9489   20.4775 C   0  0  0  0  0  0  0  0  0  0  0  0
  -31.4134  -22.4438   18.6599 C   0  0  0  0  0  0  0  0  0  0  0  0
  -31.8274  -19.0694   18.3611 C   0  0  0  0  0  0  0  0  0  0  0  0
  -30.9427  -14.0242   21.0133 C   0  0  0  0  0  0  0  0  0  0  0  0
  -31.1061  -30.0099   20.5292 C   0  0  0  0  0  0  0  0  0  0  0  0
  -31.9832  -23.7418   22.0663 C   0  0  0  0  0  0  0  0  0  0  0  0
  -30.1005  -21.8861   20.7409 C   0  0  0  0  0  0  0  0  0  0  0  0
  -31.1514  -28.9137   19.4679 C   0  0  0  0  0  0  0  0  0  0  0  0
  -29.3945  -13.0480   17.9593 C   0  0  0  0  0  0  0  0  0  0  0  0
  -29.9145  -28.0261   19.5640 C   0  0  0  0  0  0  0  0  0  0  0  0
  -27.9551  -12.7278   18.3687 C   0  0  0  0  0  0  0  0  0  0  0  0
  -30.3965  -12.6266   19.0326 C   0  0  0  0  0  0  0  0  0  0  0  0
  -28.6793  -12.8234   20.7881 C   0  0  0  0  0  0  0  0  0  0  0  0
  -29.8449  -27.3225   20.9247 C   0  0  1  0  0  0  0  0  0  0  0  0
  -31.5464  -23.9396   20.6180 C   0  0  1  0  0  0  0  0  0  0  0  0
  -27.6287  -13.2888   19.7667 C   0  0  2  0  0  0  0  0  0  0  0  0
  -28.1980  -17.3258   28.9424 C   0  0  0  0  0  0  0  0  0  0  0  0
  -32.5489  -16.8934   17.3406 C   0  0  0  0  0  0  0  0  0  0  0  0
  -28.8096  -22.7310   17.0953 C   0  0  0  0  0  0  0  0  0  0  0  0
  -29.1963  -20.4384   16.1663 C   0  0  0  0  0  0  0  0  0  0  0  0
  -30.8254  -22.2665   15.6898 C   0  0  0  0  0  0  0  0  0  0  0  0
  -26.6459  -19.0151   26.8542 C   0  0  0  0  0  0  0  0  0  0  0  0
  -34.4967  -19.2264   19.6296 C   0  0  0  0  0  0  0  0  0  0  0  0
  -28.6932  -18.6242   28.3165 C   0  0  0  0  0  0  0  0  0  0  0  0
  -28.7810  -20.2930   26.4598 C   0  0  0  0  0  0  0  0  0  1  0  0
  -28.6172  -17.8272   25.8749 C   0  0  0  0  0  0  0  0  0  0  0  0
  -30.7289  -21.2658   18.0096 C   0  0  1  0  0  0  0  0  0  0  0  0
  -33.0052  -18.2371   17.8873 C   0  0  2  0  0  0  0  0  0  0  0  0
  -29.8889  -21.6796   16.7684 C   0  0  0  0  0  0  0  0  0  0  0  0
  -28.1848  -18.9228   26.8770 C   0  0  2  0  0  0  0  0  0  0  0  0
  -25.8895  -11.6398   20.3474 N   0  0  0  0  0  0  0  0  0  0  0  0
  -26.2183  -12.9344   20.1995 N   0  0  0  0  0  0  0  0  0  0  0  0
  -31.0745  -22.7009   19.9958 N   0  0  0  0  0  0  0  0  0  0  0  0
  -30.0258  -13.1987   20.3288 N   0  0  0  0  0  0  0  0  0  0  0  0
  -25.3559  -15.1338   20.3714 N   0  0  0  0  0  0  0  0  0  0  0  0
  -21.8385  -12.5430   21.5165 N   0  0  0  0  0  0  0  0  0  0  0  0
  -30.4675  -14.5370   22.2199 N   0  0  0  0  0  0  0  0  0  0  0  0
  -30.7612  -26.2029   20.9623 N   0  0  0  0  0  0  0  0  0  0  0  0
  -31.7765  -20.2914   17.7243 N   0  0  0  0  0  0  0  0  0  0  0  0
  -33.9509  -17.9902   19.0124 N   0  3  0  0  0  0  0  0  0  0  0  0
  -22.5358  -14.7057   21.2084 O   0  0  0  0  0  0  0  0  0  0  0  0
  -29.3801  -24.6150   19.9656 O   0  0  0  0  0  0  0  0  0  0  0  0
  -32.2245  -23.1069   18.0087 O   0  0  0  0  0  0  0  0  0  0  0  0
  -31.0299  -18.6736   19.2084 O   0  0  0  0  0  0  0  0  0  0  0  0
  -32.0566  -14.2810   20.5493 O   0  0  0  0  0  0  0  0  0  0  0  0
  -21.7855   -6.9772   21.7498 O   0  0  0  0  0  0  0  0  0  0  0  0
  -28.3609  -20.6631   25.1472 O   0  0  0  0  0  0  0  0  0  1  0  0
  -30.0330  -17.7012   25.8429 O   0  0  0  0  0  0  0  0  0  0  0  0
  -18.6637   -6.8020   26.2915 F   0  0  0  0  0  0  0  0  0  0  0  0
  -31.8526  -19.3539   24.5961 F   0  0  0  0  0  0  0  0  0  0  0  0
  -22.2551   -5.0976   23.7220 F   0  0  0  0  0  0  0  0  0  0  0  0
  1  2  1  0  0  0  0
  1  5  2  0  0  0  0
  2  6  2  0  0  0  0
  3  9  2  0  0  0  0
  3 18  1  0  0  0  0
  4 10  1  0  0  0  0
  4 18  2  0  0  0  0
  5 20  1  0  0  0  0
  6 22  1  0  0  0  0
  7 11  2  0  0  0  0
  7 21  1  0  0  0  0
  8 13  2  0  0  0  0
  8 24  1  0  0  0  0
  9 25  1  0  0  0  0
 10 25  2  0  0  0  0
 11 26  1  0  0  0  0
 12 14  2  0  0  0  0
 12 27  1  0  0  0  0
 13 30  1  0  0  0  0
 14 29  1  0  0  0  0
 15 23  1  0  0  0  0
 15 26  2  0  0  0  0
 16 24  2  0  0  0  0
 16 28  1  0  0  0  0
 17 29  2  0  0  0  0
 17 31  1  0  0  0  0
 18 32  1  0  0  0  0
 19 32  1  0  0  0  0
 19 33  2  0  0  0  0
 19 34  1  0  0  0  0
 20 22  2  0  0  0  0
 20 39  1  0  0  0  0
 21 23  2  0  0  0  0
 21 40  1  0  0  0  0
 22 48  1  0  0  0  0
 23 41  1  0  0  0  0
 24 71  1  0  0  0  0
 25 80  1  0  0  0  0
 26 81  1  0  0  0  0
 27 31  2  0  0  0  0
 27 80  1  0  0  0  0
 28 30  2  0  0  0  0
 28 82  1  0  0  0  0
 29 83  1  0  0  0  0
 30 84  1  0  0  0  0
 31 85  1  0  0  0  0
 32 65  2  0  0  0  0
 33 66  1  0  0  0  0
 33 69  1  0  0  0  0
 34 70  1  0  0  0  0
 34 75  2  0  0  0  0
 35 49  1  0  0  0  0
 35 72  1  0  0  0  0
 35 76  2  0  0  0  0
 36 61  1  0  0  0  0
 36 67  1  0  0  0  0
 36 77  2  0  0  0  0
 37 62  1  0  0  0  0
 37 73  1  0  0  0  0
 37 78  2  0  0  0  0
 38 68  1  0  0  0  0
 38 71  1  0  0  0  0
 38 79  2  0  0  0  0
 39 42  1  0  0  0  0
 40 49  1  0  0  0  0
 41 67  1  0  0  0  0
 42 44  1  0  0  0  0
 43 45  1  0  0  0  0
 43 46  1  0  0  0  0
 44 48  1  0  0  0  0
 45 50  1  0  0  0  0
 46 68  1  0  0  0  0
 47 50  1  0  0  0  0
 47 68  1  0  0  0  0
 48 72  1  0  0  0  0
 49 67  1  0  0  0  0
 50 66  1  0  0  0  0
 51 58  1  0  0  0  0
 52 62  1  0  0  0  0
 53 63  1  0  0  0  0
 54 63  1  0  0  0  0
 55 63  1  0  0  0  0
 56 64  1  0  0  0  0
 57 74  1  0  0  0  0
 58 64  1  0  0  0  0
 59 64  1  0  0  0  0
 59 81  1  0  0  0  0
 60 64  1  0  0  0  0
 60 82  1  0  0  0  0
 61 63  1  0  0  0  0
 61 73  1  0  0  0  0
 62 74  1  0  0  0  0
 65 66  1  0  0  0  0
M  CHG  1  74   1
M  ISO  4  38 100  59 101  71 100  81 101
M  END
> <Batch ID>
0136

> <Smiles>
CCC(C)(COc1cc([100NH:0][100C:0](=O)N2CCCC(n3nc(-c4ccc(Oc5ccc(F)cc5F)cc4)c(C(N)=O)c3N)C2)ccc1F)[101CH2:1][101O:1]c1ccc2c(c1)CN(C(=O)C(NC(=O)C(C)NC)C(C)(C)C)C(C(=O)NC1CCCc3ccccc31)C2

> <Shape>
0.227

> <Color>
0.187

> <Negative vol penalty>
0.000

$$$$

  -OEChem-04052302393D

 89 98  0     1  0  0  0  0  0999 V2000
  -36.1040  -28.3368   20.9678 C   0  0  0  0  0  0  0  0  0  0  0  0
  -35.2936  -27.2204   20.7879 C   0  0  0  0  0  0  0  0  0  0  0  0
  -22.8913   -9.9897   20.1640 C   0  0  0  0  0  0  0  0  0  0  0  0
  -24.3468   -9.5996   22.0525 C   0  0  0  0  0  0  0  0  0  0  0  0
  -35.5284  -29.5810   21.2217 C   0  0  0  0  0  0  0  0  0  0  0  0
  -33.9070  -27.3475   20.8628 C   0  0  0  0  0  0  0  0  0  0  0  0
  -31.5257  -24.8793   17.1369 C   0  0  0  0  0  0  0  0  0  0  0  0
  -22.2380   -8.7839   20.4184 C   0  0  0  0  0  0  0  0  0  0  0  0
  -23.6935   -8.3937   22.3069 C   0  0  0  0  0  0  0  0  0  0  0  0
  -31.3989  -23.4971   17.2682 C   0  0  0  0  0  0  0  0  0  0  0  0
  -19.8922   -7.6251   22.5601 C   0  0  0  0  0  0  0  0  0  0  0  0
  -18.4980   -7.6219   22.5187 C   0  0  0  0  0  0  0  0  0  0  0  0
  -27.6147  -14.5838   24.2625 C   0  0  0  0  0  0  0  0  0  0  0  0
  -29.1277  -23.7838   18.0291 C   0  0  0  0  0  0  0  0  0  0  0  0
  -29.4820  -15.2392   22.2962 C   0  0  0  0  0  0  0  0  0  0  0  0
  -18.5544   -5.9791   20.7480 C   0  0  0  0  0  0  0  0  0  0  0  0
  -23.9457  -10.3976   20.9811 C   0  0  0  0  0  0  0  0  0  0  0  0
  -24.0541  -12.9312   20.7044 C   0  0  0  0  0  0  0  0  0  0  0  0
  -34.1337  -29.7252   21.2902 C   0  0  0  0  0  0  0  0  0  0  0  0
  -30.4562  -25.7262   17.4617 C   0  0  0  0  0  0  0  0  0  0  0  0
  -33.3122  -28.5946   21.1192 C   0  0  0  0  0  0  0  0  0  0  0  0
  -27.5218  -15.8029   23.5912 C   0  0  0  0  0  0  0  0  0  0  0  0
  -29.2426  -25.1762   17.8986 C   0  0  0  0  0  0  0  0  0  0  0  0
  -29.5749  -14.0200   22.9676 C   0  0  0  0  0  0  0  0  0  0  0  0
  -28.6413  -13.6923   23.9507 C   0  0  0  0  0  0  0  0  0  0  0  0
  -28.4554  -16.1306   22.6080 C   0  0  0  0  0  0  0  0  0  0  0  0
  -22.6391   -7.9859   21.4898 C   0  0  0  0  0  0  0  0  0  0  0  0
  -30.2007  -22.9493   17.7171 C   0  0  0  0  0  0  0  0  0  0  0  0
  -20.6176   -6.8054   21.6955 C   0  0  0  0  0  0  0  0  0  0  0  0
  -17.8291   -6.7988   21.6127 C   0  0  0  0  0  0  0  0  0  0  0  0
  -19.9487   -5.9824   20.7895 C   0  0  0  0  0  0  0  0  0  0  0  0
  -24.6213  -11.6429   20.7186 C   0  0  0  0  0  0  0  0  0  0  0  0
  -25.1040  -13.7654   20.4072 C   0  0  0  0  0  0  0  0  0  0  0  0
  -22.6993  -13.3376   20.9390 C   0  0  0  0  0  0  0  0  0  0  0  0
  -29.9935  -28.0388   19.5928 C   0  0  0  0  0  0  0  0  0  0  0  0
  -31.0373  -13.1689   21.1501 C   0  0  0  0  0  0  0  0  0  0  0  0
  -27.1815  -28.3959   18.0156 C   0  0  0  0  0  0  0  0  0  0  0  0
  -29.2239  -17.8328   20.9185 C   0  0  0  0  0  0  0  0  0  0  0  0
  -24.7710  -27.0057   16.0398 C   0  0  0  0  0  0  0  0  0  0  0  0
  -33.5592  -31.0816   21.6139 C   0  0  0  0  0  0  0  0  0  0  0  0
  -30.6002  -27.2135   17.2892 C   0  0  0  0  0  0  0  0  0  0  0  0
  -28.0578  -26.0408   18.2409 C   0  0  0  0  0  0  0  0  0  0  0  0
  -32.0688  -31.2011   21.3058 C   0  0  0  0  0  0  0  0  0  0  0  0
  -25.3407  -18.0053   25.4198 C   0  0  0  0  0  0  0  0  0  0  0  0
  -29.2861  -13.8581   18.1008 C   0  0  0  0  0  0  0  0  0  0  0  0
  -25.4584  -16.4842   25.2060 C   0  0  0  0  0  0  0  0  0  0  0  0
  -26.6908  -18.1337   24.6885 C   0  0  0  0  0  0  0  0  0  0  0  0
  -31.3146  -29.9868   21.8382 C   0  0  0  0  0  0  0  0  0  0  0  0
  -27.8453  -13.4585   18.4161 C   0  0  0  0  0  0  0  0  0  0  0  0
  -30.2855  -12.9458   18.8051 C   0  0  0  0  0  0  0  0  0  0  0  0
  -28.6550  -12.4644   20.6027 C   0  0  0  0  0  0  0  0  0  0  0  0
  -26.3467  -16.7973   23.9640 C   0  0  0  0  0  0  0  0  0  0  0  0
  -31.8032  -28.6967   21.1686 C   0  0  1  0  0  0  0  0  0  0  0  0
  -29.6160  -28.0116   18.1387 C   0  0  1  0  0  0  0  0  0  0  0  0
  -27.6133  -13.3799   19.9355 C   0  0  2  0  0  0  0  0  0  0  0  0
  -31.9509  -13.3037   23.4509 C   0  0  0  0  0  0  0  0  0  0  0  0
  -22.7062  -26.8901   14.6183 C   0  0  0  0  0  0  0  0  0  0  0  0
  -25.7790  -28.1311   20.7124 C   0  0  0  0  0  0  0  0  0  0  0  0
  -23.6403  -27.7110   19.4804 C   0  0  0  0  0  0  0  0  0  0  0  0
  -24.8267  -29.8886   19.2095 C   0  0  0  0  0  0  0  0  0  0  0  0
  -26.2723  -27.7348   13.5958 C   0  0  0  0  0  0  0  0  0  0  0  0
  -28.7795  -19.2096   20.4445 C   0  0  0  0  0  0  0  0  0  0  0  0
  -29.6773  -19.7712   19.3475 C   0  0  0  0  0  0  0  0  0  0  0  0
  -29.1861  -21.1255   18.8573 C   0  0  0  0  0  0  0  0  0  1  0  0
  -30.6845  -13.0840   22.6138 C   0  0  1  0  0  0  0  0  0  0  0  0
  -25.7977  -27.8080   18.1509 C   0  0  1  0  0  0  0  0  0  0  0  0
  -24.0859  -27.5086   14.7820 C   0  0  2  0  0  0  0  0  0  0  0  0
  -25.0337  -28.3682   19.3838 C   0  0  0  0  0  0  0  0  0  0  0  0
  -25.9300  -11.6527   20.4514 N   0  0  0  0  0  0  0  0  0  0  0  0
  -26.1938  -12.9574   20.2665 N   0  0  0  0  0  0  0  0  0  0  0  0
  -28.2501  -27.4894   18.0619 N   0  0  0  0  0  0  0  0  0  0  0  0
  -30.0177  -12.8803   20.2429 N   0  0  0  0  0  0  0  0  0  0  0  0
  -28.7201  -12.4627   24.6407 N   0  0  0  0  0  0  0  0  0  0  0  0
  -25.1921  -15.1039   20.2550 N   0  0  0  0  0  0  0  0  0  0  0  0
  -22.3122  -13.6478   22.2498 N   0  0  0  0  0  0  0  0  0  0  0  0
  -28.3756  -17.3632   21.9174 N   0  0  0  0  0  0  0  0  0  0  0  0
  -31.2434  -28.5738   19.8397 N   0  0  0  0  0  0  0  0  0  0  0  0
  -25.1282  -28.0422   16.8761 N   0  0  0  0  0  0  0  0  0  0  0  0
  -24.8982  -27.1704   13.5792 N   0  3  0  0  0  0  0  0  0  0  0  0
  -21.8526  -13.4074   20.0161 O   0  0  0  0  0  0  0  0  0  0  0  0
  -29.2082  -27.6077   20.4290 O   0  0  0  0  0  0  0  0  0  0  0  0
  -32.1846  -13.4855   20.8248 O   0  0  0  0  0  0  0  0  0  0  0  0
  -27.3092  -29.6138   17.8669 O   0  0  0  0  0  0  0  0  0  0  0  0
  -30.2041  -17.2665   20.4463 O   0  0  0  0  0  0  0  0  0  0  0  0
  -24.9662  -25.8125   16.2604 O   0  0  0  0  0  0  0  0  0  0  0  0
  -22.0017   -6.8092   21.7384 O   0  0  0  0  0  0  0  0  0  0  0  0
  -30.0745  -21.6006   17.8467 O   0  0  0  0  0  0  0  0  0  1  0  0
  -16.4902   -6.7947   21.5740 F   0  0  0  0  0  0  0  0  0  0  0  0
  -20.6401   -5.1918   19.9571 F   0  0  0  0  0  0  0  0  0  0  0  0
  1  2  1  0  0  0  0
  1  5  2  0  0  0  0
  2  6  2  0  0  0  0
  3  8  2  0  0  0  0
  3 17  1  0  0  0  0
  4  9  1  0  0  0  0
  4 17  2  0  0  0  0
  5 19  1  0  0  0  0
  6 21  1  0  0  0  0
  7 10  2  0  0  0  0
  7 20  1  0  0  0  0
  8 27  1  0  0  0  0
  9 27  2  0  0  0  0
 10 28  1  0  0  0  0
 11 12  2  0  0  0  0
 11 29  1  0  0  0  0
 12 30  1  0  0  0  0
 13 22  1  0  0  0  0
 13 25  2  0  0  0  0
 14 23  1  0  0  0  0
 14 28  2  0  0  0  0
 15 24  2  0  0  0  0
 15 26  1  0  0  0  0
 16 30  2  0  0  0  0
 16 31  1  0  0  0  0
 17 32  1  0  0  0  0
 18 32  1  0  0  0  0
 18 33  2  0  0  0  0
 18 34  1  0  0  0  0
 19 21  2  0  0  0  0
 19 40  1  0  0  0  0
 20 23  2  0  0  0  0
 20 41  1  0  0  0  0
 21 53  1  0  0  0  0
 22 26  2  0  0  0  0
 22 52  1  0  0  0  0
 23 42  1  0  0  0  0
 24 25  1  0  0  0  0
 24 65  1  0  0  0  0
 25 73  1  0  0  0  0
 26 76  1  0  0  0  0
 27 86  1  0  0  0  0
 28 87  1  0  0  0  0
 29 31  2  0  0  0  0
 29 86  1  0  0  0  0
 30 88  1  0  0  0  0
 31 89  1  0  0  0  0
 32 69  2  0  0  0  0
 33 70  1  0  0  0  0
 33 74  1  0  0  0  0
 34 75  1  0  0  0  0
 34 80  2  0  0  0  0
 35 54  1  0  0  0  0
 35 77  1  0  0  0  0
 35 81  2  0  0  0  0
 36 65  1  0  0  0  0
 36 72  1  0  0  0  0
 36 82  2  0  0  0  0
 37 66  1  0  0  0  0
 37 71  1  0  0  0  0
 37 83  2  0  0  0  0
 38 62  1  0  0  0  0
 38 76  1  0  0  0  0
 38 84  2  0  0  0  0
 39 67  1  0  0  0  0
 39 78  1  0  0  0  0
 39 85  2  0  0  0  0
 40 43  1  0  0  0  0
 41 54  1  0  0  0  0
 42 71  1  0  0  0  0
 43 48  1  0  0  0  0
 44 46  1  0  0  0  0
 44 47  1  0  0  0  0
 45 49  1  0  0  0  0
 45 50  1  0  0  0  0
 46 52  1  0  0  0  0
 47 52  1  0  0  0  0
 48 53  1  0  0  0  0
 49 55  1  0  0  0  0
 50 72  1  0  0  0  0
 51 55  1  0  0  0  0
 51 72  1  0  0  0  0
 53 77  1  0  0  0  0
 54 71  1  0  0  0  0
 55 70  1  0  0  0  0
 56 65  1  0  0  0  0
 57 67  1  0  0  0  0
 58 68  1  0  0  0  0
 59 68  1  0  0  0  0
 60 68  1  0  0  0  0
 61 79  1  0  0  0  0
 62 63  1  0  0  0  0
 63 64  1  0  0  0  0
 64 87  1  0  0  0  0
 66 68  1  0  0  0  0
 66 78  1  0  0  0  0
 67 79  1  0  0  0  0
 69 70  1  0  0  0  0
M  CHG  1  79   1
M  ISO  4  36 100  64 101  65 100  87 101
M  END
> <Batch ID>
0136

> <Smiles>
CNC(C)C(=O)NC(C(=O)N1Cc2cc([101O:1][101CH2:1]CCC(=O)Nc3cc([100CH:0](C)[100C:0](=O)N4CCCC(n5nc(-c6ccc(Oc7ccc(F)cc7F)cc6)c(C(N)=O)c5N)C4)c(N)cc3C3CCC3)ccc2CC1C(=O)NC1CCCc2ccccc21)C(C)(C)C

> <Shape>
0.242

> <Color>
0.155

> <Negative vol penalty>
0.000

$$$$

  -OEChem-04052302393D

 85 93  0     1  0  0  0  0  0999 V2000
  -29.3683  -23.7268   17.6299 C   0  0  0  0  0  0  0  0  0  0  0  0
  -28.1421  -23.8624   18.2728 C   0  0  0  0  0  0  0  0  0  0  0  0
  -26.7887  -17.4827   19.3079 C   0  0  0  0  0  0  0  0  0  0  0  0
  -24.5506  -16.6984   19.7696 C   0  0  0  0  0  0  0  0  0  0  0  0
  -30.4794  -24.4289   18.0950 C   0  0  0  0  0  0  0  0  0  0  0  0
  -28.0265  -24.6995   19.3820 C   0  0  0  0  0  0  0  0  0  0  0  0
  -23.8844  -27.6072   19.1985 C   0  0  0  0  0  0  0  0  0  0  0  0
  -27.1629  -16.1930   18.9310 C   0  0  0  0  0  0  0  0  0  0  0  0
  -24.9249  -15.4086   19.3927 C   0  0  0  0  0  0  0  0  0  0  0  0
  -22.6707  -27.0082   19.5331 C   0  0  0  0  0  0  0  0  0  0  0  0
  -28.8031  -13.0332   18.1901 C   0  0  0  0  0  0  0  0  0  0  0  0
  -30.0171  -12.5422   18.6702 C   0  0  0  0  0  0  0  0  0  0  0  0
  -22.8053  -27.9807   21.7366 C   0  0  0  0  0  0  0  0  0  0  0  0
  -19.7117  -21.9621   23.5590 C   0  0  0  0  0  0  0  0  0  0  0  0
  -29.2269  -12.8062   20.9381 C   0  0  0  0  0  0  0  0  0  0  0  0
  -21.1135  -22.7586   25.1308 C   0  0  0  0  0  0  0  0  0  0  0  0
  -25.4825  -17.7355   19.7272 C   0  0  0  0  0  0  0  0  0  0  0  0
  -24.5704  -20.0771   19.2885 C   0  0  0  0  0  0  0  0  0  0  0  0
  -30.3752  -25.2825   19.2046 C   0  0  0  0  0  0  0  0  0  0  0  0
  -24.5742  -28.3897   20.1356 C   0  0  0  0  0  0  0  0  0  0  0  0
  -29.1376  -25.4127   19.8633 C   0  0  0  0  0  0  0  0  0  0  0  0
  -24.0263  -28.5905   21.4106 C   0  0  0  0  0  0  0  0  0  0  0  0
  -20.1274  -23.1305   24.2440 C   0  0  0  0  0  0  0  0  0  0  0  0
  -26.2311  -15.1559   18.9734 C   0  0  0  0  0  0  0  0  0  0  0  0
  -22.1324  -27.1926   20.8033 C   0  0  0  0  0  0  0  0  0  0  0  0
  -27.8009  -13.4108   19.0838 C   0  0  0  0  0  0  0  0  0  0  0  0
  -30.2290  -12.4286   20.0442 C   0  0  0  0  0  0  0  0  0  0  0  0
  -28.0128  -13.2972   20.4578 C   0  0  0  0  0  0  0  0  0  0  0  0
  -25.0954  -19.0674   20.1172 C   0  0  0  0  0  0  0  0  0  0  0  0
  -20.4564  -20.9117   24.0482 C   0  0  0  0  0  0  0  0  0  0  0  0
  -24.3697  -21.1431   20.1310 C   0  0  0  0  0  0  0  0  0  0  0  0
  -24.2892  -20.0534   17.8827 C   0  0  0  0  0  0  0  0  0  0  0  0
  -27.4114  -28.2063   21.5570 C   0  0  0  0  0  0  0  0  0  0  0  0
  -19.8593  -25.0384   22.6219 C   0  0  0  0  0  0  0  0  0  0  0  0
  -23.4936  -21.4557   26.0679 C   0  0  0  0  0  0  0  0  0  0  0  0
  -26.5802  -31.1168   22.7235 C   0  0  0  0  0  0  0  0  0  0  0  0
  -24.0959  -33.3144   23.5267 C   0  0  0  0  0  0  0  0  0  0  0  0
  -31.6150  -25.9843   19.6996 C   0  0  0  0  0  0  0  0  0  0  0  0
  -25.8692  -29.0509   19.7503 C   0  0  0  0  0  0  0  0  0  0  0  0
  -24.7173  -29.4381   22.4462 C   0  0  0  0  0  0  0  0  0  0  0  0
  -31.3212  -27.1399   20.6528 C   0  0  0  0  0  0  0  0  0  0  0  0
  -26.0312  -23.1105   24.1543 C   0  0  0  0  0  0  0  0  0  0  0  0
  -30.3002  -26.7179   21.7046 C   0  0  0  0  0  0  0  0  0  0  0  0
  -26.0509  -22.3351   22.8376 C   0  0  0  0  0  0  0  0  0  0  0  0
  -25.7378  -22.1939   25.3378 C   0  0  0  0  0  0  0  0  0  0  0  0
  -24.4945  -20.6278   23.8806 C   0  0  0  0  0  0  0  0  0  0  0  0
  -28.9666  -26.3302   21.0545 C   0  0  1  0  0  0  0  0  0  0  0  0
  -26.7393  -29.4062   20.9520 C   0  0  1  0  0  0  0  0  0  0  0  0
  -24.7572  -21.5218   22.6557 C   0  0  2  0  0  0  0  0  0  0  0  0
  -18.0969  -24.6795   24.3545 C   0  0  0  0  0  0  0  0  0  0  0  0
  -20.8152  -19.2250   22.2097 C   0  0  0  0  0  0  0  0  0  0  0  0
  -19.0675  -18.8093   23.9783 C   0  0  0  0  0  0  0  0  0  0  0  0
  -21.6708  -20.0929   27.0657 C   0  0  0  0  0  0  0  0  0  0  0  0
  -23.7242  -35.5989   24.4965 C   0  0  0  0  0  0  0  0  0  0  0  0
  -27.1500  -30.0222   25.5140 C   0  0  0  0  0  0  0  0  0  0  0  0
  -25.8834  -31.9644   26.4585 C   0  0  0  0  0  0  0  0  0  0  0  0
  -27.9547  -32.3580   25.1253 C   0  0  0  0  0  0  0  0  0  0  0  0
  -22.8043  -34.2841   21.0466 C   0  0  0  0  0  0  0  0  0  0  0  0
  -20.7561  -26.2572   22.5024 C   0  0  0  0  0  0  0  0  0  1  0  0
  -19.5866  -24.5350   24.0390 C   0  0  1  0  0  0  0  0  0  0  0  0
  -20.4290  -19.4798   23.6846 C   0  0  0  0  0  0  0  0  0  0  0  0
  -22.2621  -20.6386   25.7683 C   0  0  1  0  0  0  0  0  0  0  0  0
  -25.8467  -31.6081   23.9480 C   0  0  1  0  0  0  0  0  0  0  0  0
  -23.9204  -34.7914   23.2228 C   0  0  2  0  0  0  0  0  0  0  0  0
  -26.6964  -31.4705   25.2428 C   0  0  0  0  0  0  0  0  0  0  0  0
  -25.2206  -19.4572   21.3886 N   0  0  0  0  0  0  0  0  0  0  0  0
  -21.3050  -21.4075   25.0033 N   0  0  0  0  0  0  0  0  0  0  0  0
  -24.7714  -20.7236   21.3650 N   0  0  0  0  0  0  0  0  0  0  0  0
  -25.9839  -30.0582   22.0237 N   0  0  0  0  0  0  0  0  0  0  0  0
  -24.5134  -21.4223   25.1166 N   0  0  0  0  0  0  0  0  0  0  0  0
  -23.8907  -22.3889   19.9292 N   0  0  0  0  0  0  0  0  0  0  0  0
  -24.5546  -18.8775   17.1679 N   0  0  0  0  0  0  0  0  0  0  0  0
  -28.2240  -27.5144   20.6793 N   0  0  0  0  0  0  0  0  0  0  0  0
  -25.4260  -32.9732   23.6515 N   0  0  0  0  0  0  0  0  0  0  0  0
  -22.7345  -35.0023   22.3452 N   0  3  0  0  0  0  0  0  0  0  0  0
  -23.8318  -21.0511   17.2753 O   0  0  0  0  0  0  0  0  0  0  0  0
  -27.2090  -27.9296   22.7335 O   0  0  0  0  0  0  0  0  0  0  0  0
  -19.3683  -24.5022   21.6281 O   0  0  0  0  0  0  0  0  0  0  0  0
  -23.5446  -22.1059   27.1152 O   0  0  0  0  0  0  0  0  0  0  0  0
  -27.6395  -31.6572   22.3957 O   0  0  0  0  0  0  0  0  0  0  0  0
  -23.1477  -32.5415   23.6454 O   0  0  0  0  0  0  0  0  0  0  0  0
  -26.5959  -13.8973   18.6055 O   0  0  0  0  0  0  0  0  0  0  0  0
  -20.9482  -26.6086   21.1327 O   0  0  0  0  0  0  0  0  0  1  0  0
  -31.3944  -11.9557   20.5052 F   0  0  0  0  0  0  0  0  0  0  0  0
  -27.0534  -13.6573   21.3213 F   0  0  0  0  0  0  0  0  0  0  0  0
  1  2  1  0  0  0  0
  1  5  2  0  0  0  0
  2  6  2  0  0  0  0
  3  8  2  0  0  0  0
  3 17  1  0  0  0  0
  4  9  1  0  0  0  0
  4 17  2  0  0  0  0
  5 19  1  0  0  0  0
  6 21  1  0  0  0  0
  7 10  2  0  0  0  0
  7 20  1  0  0  0  0
  8 24  1  0  0  0  0
  9 24  2  0  0  0  0
 10 25  1  0  0  0  0
 11 12  2  0  0  0  0
 11 26  1  0  0  0  0
 12 27  1  0  0  0  0
 13 22  1  0  0  0  0
 13 25  2  0  0  0  0
 14 23  1  0  0  0  0
 14 30  2  0  0  0  0
 15 27  2  0  0  0  0
 15 28  1  0  0  0  0
 16 23  2  0  0  0  0
 16 67  1  0  0  0  0
 17 29  1  0  0  0  0
 18 29  1  0  0  0  0
 18 31  2  0  0  0  0
 18 32  1  0  0  0  0
 19 21  2  0  0  0  0
 19 38  1  0  0  0  0
 20 22  2  0  0  0  0
 20 39  1  0  0  0  0
 21 47  1  0  0  0  0
 22 40  1  0  0  0  0
 23 60  1  0  0  0  0
 24 82  1  0  0  0  0
 25 83  1  0  0  0  0
 26 28  2  0  0  0  0
 26 82  1  0  0  0  0
 27 84  1  0  0  0  0
 28 85  1  0  0  0  0
 29 66  2  0  0  0  0
 30 61  1  0  0  0  0
 30 67  1  0  0  0  0
 31 68  1  0  0  0  0
 31 71  1  0  0  0  0
 32 72  1  0  0  0  0
 32 76  2  0  0  0  0
 33 48  1  0  0  0  0
 33 73  1  0  0  0  0
 33 77  2  0  0  0  0
 34 59  1  0  0  0  0
 34 60  1  0  0  0  0
 34 78  2  0  0  0  0
 35 62  1  0  0  0  0
 35 70  1  0  0  0  0
 35 79  2  0  0  0  0
 36 63  1  0  0  0  0
 36 69  1  0  0  0  0
 36 80  2  0  0  0  0
 37 64  1  0  0  0  0
 37 74  1  0  0  0  0
 37 81  2  0  0  0  0
 38 41  1  0  0  0  0
 39 48  1  0  0  0  0
 40 69  1  0  0  0  0
 41 43  1  0  0  0  0
 42 44  1  0  0  0  0
 42 45  1  0  0  0  0
 43 47  1  0  0  0  0
 44 49  1  0  0  0  0
 45 70  1  0  0  0  0
 46 49  1  0  0  0  0
 46 70  1  0  0  0  0
 47 73  1  0  0  0  0
 48 69  1  0  0  0  0
 49 68  1  0  0  0  0
 50 60  1  0  0  0  0
 51 61  1  0  0  0  0
 52 61  1  0  0  0  0
 53 62  1  0  0  0  0
 54 64  1  0  0  0  0
 55 65  1  0  0  0  0
 56 65  1  0  0  0  0
 57 65  1  0  0  0  0
 58 75  1  0  0  0  0
 59 83  1  0  0  0  0
 62 67  1  0  0  0  0
 63 65  1  0  0  0  0
 63 74  1  0  0  0  0
 64 75  1  0  0  0  0
 66 68  1  0  0  0  0
M  CHG  1  75   1
M  ISO  4  35 100  59 101  62 100  83 101
M  END
> <Batch ID>
0136

> <Smiles>
CNC(C)C(=O)NC(C(=O)N1Cc2cc([101O:1][101CH2:1]C(=O)C(C)c3cc(C(C)C)n([100CH:0](C)[100C:0](=O)N4CCCC(n5nc(-c6ccc(Oc7ccc(F)cc7F)cc6)c(C(N)=O)c5N)C4)c3)ccc2CC1C(=O)NC1CCCc2ccccc21)C(C)(C)C

> <Shape>
0.238

> <Color>
0.062

> <Negative vol penalty>
0.000

$$$$

  -OEChem-04052302393D

 89 97  0     1  0  0  0  0  0999 V2000
  -23.5148   -8.7082   22.0844 C   0  0  0  0  0  0  0  0  0  0  0  0
  -24.6011   -9.5584   22.2646 C   0  0  0  0  0  0  0  0  0  0  0  0
  -24.5458  -30.2436   20.8650 C   0  0  0  0  0  0  0  0  0  0  0  0
  -24.7708  -28.1503   22.0501 C   0  0  0  0  0  0  0  0  0  0  0  0
  -22.4415   -9.1092   21.2899 C   0  0  0  0  0  0  0  0  0  0  0  0
  -24.6154  -10.8097   21.6494 C   0  0  0  0  0  0  0  0  0  0  0  0
  -27.0296  -15.9791   23.8752 C   0  0  0  0  0  0  0  0  0  0  0  0
  -23.2213  -30.3426   21.2912 C   0  0  0  0  0  0  0  0  0  0  0  0
  -23.4463  -28.2493   22.4763 C   0  0  0  0  0  0  0  0  0  0  0  0
  -28.2471  -16.6194   23.6484 C   0  0  0  0  0  0  0  0  0  0  0  0
  -20.3677  -27.7056   21.1889 C   0  0  0  0  0  0  0  0  0  0  0  0
  -19.5716  -26.5636   21.1010 C   0  0  0  0  0  0  0  0  0  0  0  0
  -30.8796  -21.3163   19.8366 C   0  0  0  0  0  0  0  0  0  0  0  0
  -27.1900  -18.0349   22.0059 C   0  0  0  0  0  0  0  0  0  0  0  0
  -31.4693  -22.7297   17.5048 C   0  0  0  0  0  0  0  0  0  0  0  0
  -19.2186  -26.6258   23.4903 C   0  0  0  0  0  0  0  0  0  0  0  0
  -25.3205  -29.1475   21.2444 C   0  0  0  0  0  0  0  0  0  0  0  0
  -30.0177  -22.3188   19.3919 C   0  0  0  0  0  0  0  0  0  0  0  0
  -27.8322  -29.5383   21.4597 C   0  0  0  0  0  0  0  0  0  0  0  0
  -22.4383  -10.3699   20.6724 C   0  0  0  0  0  0  0  0  0  0  0  0
  -25.8835  -16.3553   23.1599 C   0  0  0  0  0  0  0  0  0  0  0  0
  -23.5417  -11.2274   20.8447 C   0  0  0  0  0  0  0  0  0  0  0  0
  -25.9585  -17.3996   22.2273 C   0  0  0  0  0  0  0  0  0  0  0  0
  -32.0364  -21.0205   19.1154 C   0  0  0  0  0  0  0  0  0  0  0  0
  -30.3126  -23.0255   18.2260 C   0  0  0  0  0  0  0  0  0  0  0  0
  -22.6716  -29.3454   22.0969 C   0  0  0  0  0  0  0  0  0  0  0  0
  -28.3281  -17.6455   22.7116 C   0  0  0  0  0  0  0  0  0  0  0  0
  -20.5893  -28.3076   22.4276 C   0  0  0  0  0  0  0  0  0  0  0  0
  -18.9970  -26.0237   22.2517 C   0  0  0  0  0  0  0  0  0  0  0  0
  -32.3313  -21.7272   17.9495 C   0  0  0  0  0  0  0  0  0  0  0  0
  -20.0147  -27.7677   23.5782 C   0  0  0  0  0  0  0  0  0  0  0  0
  -26.6885  -29.0444   20.8040 C   0  0  0  0  0  0  0  0  0  0  0  0
  -28.8767  -29.1858   20.6405 C   0  0  0  0  0  0  0  0  0  0  0  0
  -28.8182  -22.6039   20.1693 C   0  0  0  0  0  0  0  0  0  0  0  0
  -27.9406  -30.2519   22.6986 C   0  0  0  0  0  0  0  0  0  0  0  0
  -23.9273  -14.8913   21.1268 C   0  0  0  0  0  0  0  0  0  0  0  0
  -31.4739  -17.9831   20.3033 C   0  0  0  0  0  0  0  0  0  0  0  0
  -22.2393  -17.6506   21.3712 C   0  0  0  0  0  0  0  0  0  0  0  0
  -22.2316  -20.9892   22.0783 C   0  0  0  0  0  0  0  0  0  0  0  0
  -29.6181  -24.8330   16.6145 C   0  0  0  0  0  0  0  0  0  0  0  0
  -21.2769  -10.7403   19.7844 C   0  0  0  0  0  0  0  0  0  0  0  0
  -24.5718  -15.6727   23.4354 C   0  0  0  0  0  0  0  0  0  0  0  0
  -24.7529  -17.8548   21.4478 C   0  0  0  0  0  0  0  0  0  0  0  0
  -21.2010  -12.2325   19.4715 C   0  0  0  0  0  0  0  0  0  0  0  0
  -29.9069  -28.3352   16.0416 C   0  0  0  0  0  0  0  0  0  0  0  0
  -22.5735  -12.7645   19.0711 C   0  0  0  0  0  0  0  0  0  0  0  0
  -29.2238  -28.9595   17.2605 C   0  0  0  0  0  0  0  0  0  0  0  0
  -29.2020  -27.0578   15.5888 C   0  0  0  0  0  0  0  0  0  0  0  0
  -28.3236  -26.6750   17.8584 C   0  0  0  0  0  0  0  0  0  0  0  0
  -23.5829  -12.6024   20.2141 C   0  0  1  0  0  0  0  0  0  0  0  0
  -23.5826  -15.7907   22.2800 C   0  0  1  0  0  0  0  0  0  0  0  0
  -29.0364  -27.9287   18.3910 C   0  0  2  0  0  0  0  0  0  0  0  0
  -28.2060  -21.4691   20.9349 C   0  0  0  0  0  0  0  0  0  0  0  0
  -21.2941  -23.2819   22.4811 C   0  0  0  0  0  0  0  0  0  0  0  0
  -31.9767  -18.3443   17.8616 C   0  0  0  0  0  0  0  0  0  0  0  0
  -33.7853  -17.5691   19.3695 C   0  0  0  0  0  0  0  0  0  0  0  0
  -22.3191  -17.8226   18.3259 C   0  0  0  0  0  0  0  0  0  0  0  0
  -21.6554  -20.2293   18.5140 C   0  0  0  0  0  0  0  0  0  0  0  0
  -20.1238  -18.4460   19.3488 C   0  0  0  0  0  0  0  0  0  0  0  0
  -21.8099  -20.4378   24.9552 C   0  0  0  0  0  0  0  0  0  0  0  0
  -32.9678  -19.9328   19.5999 C   0  0  0  0  0  0  0  0  0  0  0  0
  -31.8128  -18.0476   21.7920 C   0  0  0  0  0  0  0  0  0  0  0  0
  -30.7018  -17.5021   22.6797 C   0  0  0  0  0  0  0  0  0  1  0  0
  -22.2351  -18.9698   20.6373 C   0  0  1  0  0  0  0  0  0  0  0  0
  -21.3139  -21.8334   22.9440 C   0  0  2  0  0  0  0  0  0  0  0  0
  -32.5390  -18.4729   19.2920 C   0  0  0  0  0  0  0  0  0  0  0  0
  -21.6067  -18.8573   19.2196 C   0  0  0  0  0  0  0  0  0  0  0  0
  -26.9790  -28.4255   19.6566 N   0  0  0  0  0  0  0  0  0  0  0  0
  -28.3170  -28.5282   19.5848 N   0  0  0  0  0  0  0  0  0  0  0  0
  -23.4944  -17.1522   21.7482 N   0  0  0  0  0  0  0  0  0  0  0  0
  -29.0636  -26.1269   16.7108 N   0  0  0  0  0  0  0  0  0  0  0  0
  -30.2102  -29.3775   20.7273 N   0  0  0  0  0  0  0  0  0  0  0  0
  -26.7679  -30.5314   23.4134 N   0  0  0  0  0  0  0  0  0  0  0  0
  -29.4523  -24.0483   17.7553 N   0  0  0  0  0  0  0  0  0  0  0  0
  -23.3796  -13.6259   21.2169 N   0  0  0  0  0  0  0  0  0  0  0  0
  -21.5637  -19.9227   21.5146 N   0  0  0  0  0  0  0  0  0  0  0  0
  -21.7656  -21.7999   24.3638 N   0  3  0  0  0  0  0  0  0  0  0  0
  -28.2703  -23.7040   20.2389 O   0  0  0  0  0  0  0  0  0  0  0  0
  -29.0431  -30.6447   23.1499 O   0  0  0  0  0  0  0  0  0  0  0  0
  -24.6365  -15.3146   20.2214 O   0  0  0  0  0  0  0  0  0  0  0  0
  -30.3754  -17.5722   19.9209 O   0  0  0  0  0  0  0  0  0  0  0  0
  -21.1680  -17.0866   21.6077 O   0  0  0  0  0  0  0  0  0  0  0  0
  -23.4211  -21.2519   21.9151 O   0  0  0  0  0  0  0  0  0  0  0  0
  -30.2211  -24.4589   15.6053 O   0  0  0  0  0  0  0  0  0  0  0  0
  -21.3793  -29.4417   22.5131 O   0  0  0  0  0  0  0  0  0  0  0  0
  -29.5155  -18.2716   22.4879 O   0  0  0  0  0  0  0  0  0  1  0  0
  -18.2312  -24.9280   22.1668 F   0  0  0  0  0  0  0  0  0  0  0  0
  -33.4416  -21.4516   17.2510 F   0  0  0  0  0  0  0  0  0  0  0  0
  -20.2231  -28.3424   24.7708 F   0  0  0  0  0  0  0  0  0  0  0  0
  1  2  1  0  0  0  0
  1  5  2  0  0  0  0
  2  6  2  0  0  0  0
  3  8  2  0  0  0  0
  3 17  1  0  0  0  0
  4  9  1  0  0  0  0
  4 17  2  0  0  0  0
  5 20  1  0  0  0  0
  6 22  1  0  0  0  0
  7 10  2  0  0  0  0
  7 21  1  0  0  0  0
  8 26  1  0  0  0  0
  9 26  2  0  0  0  0
 10 27  1  0  0  0  0
 11 12  2  0  0  0  0
 11 28  1  0  0  0  0
 12 29  1  0  0  0  0
 13 18  2  0  0  0  0
 13 24  1  0  0  0  0
 14 23  1  0  0  0  0
 14 27  2  0  0  0  0
 15 25  2  0  0  0  0
 15 30  1  0  0  0  0
 16 29  2  0  0  0  0
 16 31  1  0  0  0  0
 17 32  1  0  0  0  0
 18 25  1  0  0  0  0
 18 34  1  0  0  0  0
 19 32  1  0  0  0  0
 19 33  2  0  0  0  0
 19 35  1  0  0  0  0
 20 22  2  0  0  0  0
 20 41  1  0  0  0  0
 21 23  2  0  0  0  0
 21 42  1  0  0  0  0
 22 50  1  0  0  0  0
 23 43  1  0  0  0  0
 24 30  2  0  0  0  0
 24 61  1  0  0  0  0
 25 74  1  0  0  0  0
 26 85  1  0  0  0  0
 27 86  1  0  0  0  0
 28 31  2  0  0  0  0
 28 85  1  0  0  0  0
 29 87  1  0  0  0  0
 30 88  1  0  0  0  0
 31 89  1  0  0  0  0
 32 68  2  0  0  0  0
 33 69  1  0  0  0  0
 33 72  1  0  0  0  0
 34 53  1  0  0  0  0
 34 78  2  0  0  0  0
 35 73  1  0  0  0  0
 35 79  2  0  0  0  0
 36 51  1  0  0  0  0
 36 75  1  0  0  0  0
 36 80  2  0  0  0  0
 37 62  1  0  0  0  0
 37 66  1  0  0  0  0
 37 81  2  0  0  0  0
 38 64  1  0  0  0  0
 38 70  1  0  0  0  0
 38 82  2  0  0  0  0
 39 65  1  0  0  0  0
 39 76  1  0  0  0  0
 39 83  2  0  0  0  0
 40 71  1  0  0  0  0
 40 74  1  0  0  0  0
 40 84  2  0  0  0  0
 41 44  1  0  0  0  0
 42 51  1  0  0  0  0
 43 70  1  0  0  0  0
 44 46  1  0  0  0  0
 45 47  1  0  0  0  0
 45 48  1  0  0  0  0
 46 50  1  0  0  0  0
 47 52  1  0  0  0  0
 48 71  1  0  0  0  0
 49 52  1  0  0  0  0
 49 71  1  0  0  0  0
 50 75  1  0  0  0  0
 51 70  1  0  0  0  0
 52 69  1  0  0  0  0
 54 65  1  0  0  0  0
 55 66  1  0  0  0  0
 56 66  1  0  0  0  0
 57 67  1  0  0  0  0
 58 67  1  0  0  0  0
 59 67  1  0  0  0  0
 60 77  1  0  0  0  0
 61 66  1  0  0  0  0
 62 63  1  0  0  0  0
 63 86  1  0  0  0  0
 64 67  1  0  0  0  0
 64 76  1  0  0  0  0
 65 77  1  0  0  0  0
 68 69  1  0  0  0  0
M  CHG  1  77   1
M  ISO  4  40 100  63 101  74 100  86 101
M  END
> <Batch ID>
0136

> <Smiles>
CNC(C)C(=O)NC(C(=O)N1Cc2cc([101O:1][101CH2:1]CC(=O)C(C)(C)Cc3cc(C(C)=O)c([100NH:0][100C:0](=O)N4CCCC(n5nc(-c6ccc(Oc7ccc(F)cc7F)cc6)c(C(N)=O)c5N)C4)cc3F)ccc2CC1C(=O)NC1CCCc2ccccc21)C(C)(C)C

> <Shape>
0.236

> <Color>
0.054

> <Negative vol penalty>
0.000

$$$$

  -OEChem-04052302393D

 87 95  0     1  0  0  0  0  0999 V2000
  -17.3301  -25.3288   25.1744 C   0  0  0  0  0  0  0  0  0  0  0  0
  -18.6538  -25.1528   25.5646 C   0  0  0  0  0  0  0  0  0  0  0  0
  -24.0567   -9.6225   21.2957 C   0  0  0  0  0  0  0  0  0  0  0  0
  -22.1148  -10.9923   21.7312 C   0  0  0  0  0  0  0  0  0  0  0  0
  -17.0228  -26.1962   24.1270 C   0  0  0  0  0  0  0  0  0  0  0  0
  -19.6711  -25.8434   24.9069 C   0  0  0  0  0  0  0  0  0  0  0  0
  -23.0401  -27.8532   28.1094 C   0  0  0  0  0  0  0  0  0  0  0  0
  -24.9926  -22.3973   23.1762 C   0  0  0  0  0  0  0  0  0  0  0  0
  -24.8679  -21.5628   22.0656 C   0  0  0  0  0  0  0  0  0  0  0  0
  -23.2605   -8.4782   21.3447 C   0  0  0  0  0  0  0  0  0  0  0  0
  -21.3186   -9.8480   21.7802 C   0  0  0  0  0  0  0  0  0  0  0  0
  -23.9893  -26.9920   28.6581 C   0  0  0  0  0  0  0  0  0  0  0  0
  -21.8562   -6.5212   23.7158 C   0  0  0  0  0  0  0  0  0  0  0  0
  -22.3351   -5.4299   24.4407 C   0  0  0  0  0  0  0  0  0  0  0  0
  -25.6118  -27.7648   27.0488 C   0  0  0  0  0  0  0  0  0  0  0  0
  -25.8710  -20.5517   24.4644 C   0  0  0  0  0  0  0  0  0  0  0  0
  -22.2796   -4.0766   22.4401 C   0  0  0  0  0  0  0  0  0  0  0  0
  -23.4838  -10.8795   21.4890 C   0  0  0  0  0  0  0  0  0  0  0  0
  -24.6029  -12.8435   20.3065 C   0  0  0  0  0  0  0  0  0  0  0  0
  -18.0359  -26.9051   23.4625 C   0  0  0  0  0  0  0  0  0  0  0  0
  -23.3670  -28.6701   27.0175 C   0  0  0  0  0  0  0  0  0  0  0  0
  -19.3772  -26.7201   23.8488 C   0  0  0  0  0  0  0  0  0  0  0  0
  -24.6657  -28.6373   26.4897 C   0  0  0  0  0  0  0  0  0  0  0  0
  -25.4942  -21.8918   24.3756 C   0  0  0  0  0  0  0  0  0  0  0  0
  -25.2447  -20.2227   22.1543 C   0  0  0  0  0  0  0  0  0  0  0  0
  -25.7463  -19.7172   23.3537 C   0  0  0  0  0  0  0  0  0  0  0  0
  -21.8915   -8.5910   21.5869 C   0  0  0  0  0  0  0  0  0  0  0  0
  -25.2746  -26.9456   28.1260 C   0  0  0  0  0  0  0  0  0  0  0  0
  -21.5889   -6.3901   22.3531 C   0  0  0  0  0  0  0  0  0  0  0  0
  -22.5468   -4.2077   23.8028 C   0  0  0  0  0  0  0  0  0  0  0  0
  -21.8006   -5.1679   21.7152 C   0  0  0  0  0  0  0  0  0  0  0  0
  -24.3058  -12.0619   21.4390 C   0  0  0  0  0  0  0  0  0  0  0  0
  -25.4144  -13.8439   20.7830 C   0  0  0  0  0  0  0  0  0  0  0  0
  -24.1828  -12.6798   18.9454 C   0  0  0  0  0  0  0  0  0  0  0  0
  -22.3279  -28.9370   24.0253 C   0  0  0  0  0  0  0  0  0  0  0  0
  -24.3180  -31.4982   23.9752 C   0  0  0  0  0  0  0  0  0  0  0  0
  -27.0606  -33.0619   25.2712 C   0  0  0  0  0  0  0  0  0  0  0  0
  -26.6504  -17.7161   24.5884 C   0  0  0  0  0  0  0  0  0  0  0  0
  -17.6594  -27.7956   22.3049 C   0  0  0  0  0  0  0  0  0  0  0  0
  -22.3394  -29.6130   26.4541 C   0  0  0  0  0  0  0  0  0  0  0  0
  -25.0729  -29.5088   25.3308 C   0  0  0  0  0  0  0  0  0  0  0  0
  -18.7606  -28.7749   21.9065 C   0  0  0  0  0  0  0  0  0  0  0  0
  -27.6924  -14.3806   25.2712 C   0  0  0  0  0  0  0  0  0  0  0  0
  -20.1049  -28.0595   21.8184 C   0  0  0  0  0  0  0  0  0  0  0  0
  -26.9286  -13.5443   24.2419 C   0  0  0  0  0  0  0  0  0  0  0  0
  -26.8542  -15.5489   25.7872 C   0  0  0  0  0  0  0  0  0  0  0  0
  -25.5212  -15.5763   23.7156 C   0  0  0  0  0  0  0  0  0  0  0  0
  -20.5063  -27.4703   23.1761 C   0  0  1  0  0  0  0  0  0  0  0  0
  -22.6326  -30.0258   25.0150 C   0  0  1  0  0  0  0  0  0  0  0  0
  -26.3480  -14.4257   23.1188 C   0  0  2  0  0  0  0  0  0  0  0  0
  -25.0992  -19.3517   20.9488 C   0  0  0  0  0  0  0  0  0  0  0  0
  -29.4520  -23.2200   26.5649 C   0  0  0  0  0  0  0  0  0  0  0  0
  -28.4643  -35.1243   24.9995 C   0  0  0  0  0  0  0  0  0  0  0  0
  -25.6064  -30.2905   21.4870 C   0  0  0  0  0  0  0  0  0  0  0  0
  -27.5442  -31.8396   21.8237 C   0  0  0  0  0  0  0  0  0  0  0  0
  -25.2694  -32.7666   21.3898 C   0  0  0  0  0  0  0  0  0  0  0  0
  -27.4735  -24.0692   24.3762 C   0  0  0  0  0  0  0  0  0  0  0  0
  -24.9082  -24.1394   28.3080 C   0  0  0  0  0  0  0  0  0  0  0  0
  -27.3176  -24.0115   28.9230 C   0  0  0  0  0  0  0  0  0  0  0  0
  -26.4617  -33.9727   28.0227 C   0  0  0  0  0  0  0  0  0  0  0  0
  -25.6293  -22.7981   25.5802 C   0  0  0  0  0  0  0  0  0  0  0  0
  -28.0684  -22.6167   26.3441 C   0  0  0  0  0  0  0  0  0  0  0  0
  -26.7525  -24.8600   26.6275 C   0  0  0  0  0  0  0  0  0  0  0  0
  -25.7723  -31.7155   23.6336 C   0  0  1  0  0  0  0  0  0  0  0  0
  -27.2842  -34.4940   25.7226 C   0  0  2  0  0  0  0  0  0  0  0  0
  -26.0402  -31.6351   22.1041 C   0  0  0  0  0  0  0  0  0  0  0  0
  -26.9785  -23.5668   25.7606 C   0  0  1  0  0  0  0  0  0  0  0  0
  -26.2737  -24.7875   28.1023 C   0  0  0  0  0  0  0  0  0  1  0  0
  -24.8819  -12.5258   22.5512 N   0  0  0  0  0  0  0  0  0  0  0  0
  -25.5492  -13.6096   22.1198 N   0  0  0  0  0  0  0  0  0  0  0  0
  -24.0309  -30.4094   24.8107 N   0  0  0  0  0  0  0  0  0  0  0  0
  -26.3412  -16.3417   24.6677 N   0  0  0  0  0  0  0  0  0  0  0  0
  -26.0189  -14.8922   20.1846 N   0  0  0  0  0  0  0  0  0  0  0  0
  -23.3496  -11.5982   18.6288 N   0  0  0  0  0  0  0  0  0  0  0  0
  -26.1351  -18.3590   23.4634 N   0  0  0  0  0  0  0  0  0  0  0  0
  -21.0144  -28.5083   24.0472 N   0  0  0  0  0  0  0  0  0  0  0  0
  -26.1483  -32.9881   24.2399 N   0  0  0  0  0  0  0  0  0  0  0  0
  -27.5521  -34.5394   27.1879 N   0  3  0  0  0  0  0  0  0  0  0  0
  -24.5490  -13.4600   18.0340 O   0  0  0  0  0  0  0  0  0  0  0  0
  -23.2182  -28.5180   23.2949 O   0  0  0  0  0  0  0  0  0  0  0  0
  -23.4687  -32.2704   23.5234 O   0  0  0  0  0  0  0  0  0  0  0  0
  -27.6402  -32.1050   25.7799 O   0  0  0  0  0  0  0  0  0  0  0  0
  -27.3457  -18.2750   25.4406 O   0  0  0  0  0  0  0  0  0  0  0  0
  -21.1143   -7.4747   21.6346 O   0  0  0  0  0  0  0  0  0  0  0  0
  -26.2069  -26.1017   28.6616 O   0  0  0  0  0  0  0  0  0  1  0  0
  -23.0081   -3.1603   24.4988 F   0  0  0  0  0  0  0  0  0  0  0  0
  -21.5468   -5.0362   20.4060 F   0  0  0  0  0  0  0  0  0  0  0  0
  1  2  1  0  0  0  0
  1  5  2  0  0  0  0
  2  6  2  0  0  0  0
  3 10  2  0  0  0  0
  3 18  1  0  0  0  0
  4 11  1  0  0  0  0
  4 18  2  0  0  0  0
  5 20  1  0  0  0  0
  6 22  1  0  0  0  0
  7 12  2  0  0  0  0
  7 21  1  0  0  0  0
  8  9  2  0  0  0  0
  8 24  1  0  0  0  0
  9 25  1  0  0  0  0
 10 27  1  0  0  0  0
 11 27  2  0  0  0  0
 12 28  1  0  0  0  0
 13 14  2  0  0  0  0
 13 29  1  0  0  0  0
 14 30  1  0  0  0  0
 15 23  1  0  0  0  0
 15 28  2  0  0  0  0
 16 24  2  0  0  0  0
 16 26  1  0  0  0  0
 17 30  2  0  0  0  0
 17 31  1  0  0  0  0
 18 32  1  0  0  0  0
 19 32  1  0  0  0  0
 19 33  2  0  0  0  0
 19 34  1  0  0  0  0
 20 22  2  0  0  0  0
 20 39  1  0  0  0  0
 21 23  2  0  0  0  0
 21 40  1  0  0  0  0
 22 48  1  0  0  0  0
 23 41  1  0  0  0  0
 24 61  1  0  0  0  0
 25 26  2  0  0  0  0
 25 51  1  0  0  0  0
 26 75  1  0  0  0  0
 27 84  1  0  0  0  0
 28 85  1  0  0  0  0
 29 31  2  0  0  0  0
 29 84  1  0  0  0  0
 30 86  1  0  0  0  0
 31 87  1  0  0  0  0
 32 69  2  0  0  0  0
 33 70  1  0  0  0  0
 33 73  1  0  0  0  0
 34 74  1  0  0  0  0
 34 79  2  0  0  0  0
 35 49  1  0  0  0  0
 35 76  1  0  0  0  0
 35 80  2  0  0  0  0
 36 64  1  0  0  0  0
 36 71  1  0  0  0  0
 36 81  2  0  0  0  0
 37 65  1  0  0  0  0
 37 77  1  0  0  0  0
 37 82  2  0  0  0  0
 38 72  1  0  0  0  0
 38 75  1  0  0  0  0
 38 83  2  0  0  0  0
 39 42  1  0  0  0  0
 40 49  1  0  0  0  0
 41 71  1  0  0  0  0
 42 44  1  0  0  0  0
 43 45  1  0  0  0  0
 43 46  1  0  0  0  0
 44 48  1  0  0  0  0
 45 50  1  0  0  0  0
 46 72  1  0  0  0  0
 47 50  1  0  0  0  0
 47 72  1  0  0  0  0
 48 76  1  0  0  0  0
 49 71  1  0  0  0  0
 50 70  1  0  0  0  0
 52 62  1  0  0  0  0
 53 65  1  0  0  0  0
 54 66  1  0  0  0  0
 55 66  1  0  0  0  0
 56 66  1  0  0  0  0
 57 67  1  0  0  0  0
 58 68  1  0  0  0  0
 59 68  1  0  0  0  0
 60 78  1  0  0  0  0
 61 67  1  0  0  0  0
 62 67  1  0  0  0  0
 63 67  1  0  0  0  0
 63 68  1  0  0  0  0
 64 66  1  0  0  0  0
 64 77  1  0  0  0  0
 65 78  1  0  0  0  0
 68 85  1  0  0  0  0
 69 70  1  0  0  0  0
M  CHG  1  78   1
M  ISO  4  38 100  68 101  75 100  85 101
M  END
> <Batch ID>
0136

> <Smiles>
CCC(C)(Cc1ccc(C)c([100NH:0][100C:0](=O)N2CCCC(n3nc(-c4ccc(Oc5ccc(F)cc5F)cc4)c(C(N)=O)c3N)C2)c1)C[101C:1](C)(C)[101O:1]c1ccc2c(c1)CN(C(=O)C(NC(=O)C(C)NC)C(C)(C)C)C(C(=O)NC1CCCc3ccccc31)C2

> <Shape>
0.199

> <Color>
0.123

> <Negative vol penalty>
0.000

$$$$

  -OEChem-04052302393D

 88 96  0     1  0  0  0  0  0999 V2000
  -32.3231  -14.2630   19.9418 C   0  0  0  0  0  0  0  0  0  0  0  0
  -31.5459  -15.4160   19.9851 C   0  0  0  0  0  0  0  0  0  0  0  0
  -27.9722  -26.2208   18.4455 C   0  0  0  0  0  0  0  0  0  0  0  0
  -27.2072  -25.0250   20.4005 C   0  0  0  0  0  0  0  0  0  0  0  0
  -31.7112  -13.0148   19.8349 C   0  0  0  0  0  0  0  0  0  0  0  0
  -30.1562  -15.3215   19.9205 C   0  0  0  0  0  0  0  0  0  0  0  0
  -26.0862  -18.9050   22.7665 C   0  0  0  0  0  0  0  0  0  0  0  0
  -28.7541  -25.1247   18.0810 C   0  0  0  0  0  0  0  0  0  0  0  0
  -27.9891  -23.9289   20.0359 C   0  0  0  0  0  0  0  0  0  0  0  0
  -25.3421  -20.0034   22.3379 C   0  0  0  0  0  0  0  0  0  0  0  0
  -27.8098  -21.3621   17.8450 C   0  0  0  0  0  0  0  0  0  0  0  0
  -27.2265  -20.0975   17.9225 C   0  0  0  0  0  0  0  0  0  0  0  0
  -24.5968  -28.1460   25.7093 C   0  0  0  0  0  0  0  0  0  0  0  0
  -26.4439  -26.7493   26.3981 C   0  0  0  0  0  0  0  0  0  0  0  0
  -23.4713  -18.5503   21.8818 C   0  0  0  0  0  0  0  0  0  0  0  0
  -26.7069  -29.1498   26.3235 C   0  0  0  0  0  0  0  0  0  0  0  0
  -28.9183  -19.4139   19.5060 C   0  0  0  0  0  0  0  0  0  0  0  0
  -27.1988  -26.1710   19.6053 C   0  0  0  0  0  0  0  0  0  0  0  0
  -25.1249  -26.8803   25.9637 C   0  0  0  0  0  0  0  0  0  0  0  0
  -25.0562  -27.5554   19.6148 C   0  0  0  0  0  0  0  0  0  0  0  0
  -30.3129  -12.9043   19.7786 C   0  0  0  0  0  0  0  0  0  0  0  0
  -25.5311  -17.6174   22.7457 C   0  0  0  0  0  0  0  0  0  0  0  0
  -29.5250  -14.0708   19.8114 C   0  0  0  0  0  0  0  0  0  0  0  0
  -24.2095  -17.4377   22.3131 C   0  0  0  0  0  0  0  0  0  0  0  0
  -25.3878  -29.2808   25.8891 C   0  0  0  0  0  0  0  0  0  0  0  0
  -28.7625  -23.9787   18.8762 C   0  0  0  0  0  0  0  0  0  0  0  0
  -24.0354  -19.8257   21.8927 C   0  0  0  0  0  0  0  0  0  0  0  0
  -28.9475  -21.6526   18.5980 C   0  0  0  0  0  0  0  0  0  0  0  0
  -27.7807  -19.1234   18.7529 C   0  0  0  0  0  0  0  0  0  0  0  0
  -27.2349  -27.8840   26.5780 C   0  0  0  0  0  0  0  0  0  0  0  0
  -29.5018  -20.6786   19.4285 C   0  0  0  0  0  0  0  0  0  0  0  0
  -26.3914  -27.3031   19.9827 C   0  0  0  0  0  0  0  0  0  0  0  0
  -24.7512  -28.7473   20.2254 C   0  0  0  0  0  0  0  0  0  0  0  0
  -24.2874  -25.6782   25.7732 C   0  0  0  0  0  0  0  0  0  0  0  0
  -24.1708  -26.7816   18.7944 C   0  0  0  0  0  0  0  0  0  0  0  0
  -26.2236  -14.9002   21.2487 C   0  0  0  0  0  0  0  0  0  0  0  0
  -23.8579  -13.7170   23.1264 C   0  0  0  0  0  0  0  0  0  0  0  0
  -25.8938  -31.5929   25.1594 C   0  0  0  0  0  0  0  0  0  0  0  0
  -22.9566  -24.3255   24.1686 C   0  0  0  0  0  0  0  0  0  0  0  0
  -21.0392  -14.3131   24.9558 C   0  0  0  0  0  0  0  0  0  0  0  0
  -29.6988  -11.5365   19.6157 C   0  0  0  0  0  0  0  0  0  0  0  0
  -26.3379  -16.4466   23.2366 C   0  0  0  0  0  0  0  0  0  0  0  0
  -23.5604  -16.0788   22.2903 C   0  0  0  0  0  0  0  0  0  0  0  0
  -28.2055  -11.4979   19.9302 C   0  0  0  0  0  0  0  0  0  0  0  0
  -27.3727  -32.5198   22.0298 C   0  0  0  0  0  0  0  0  0  0  0  0
  -27.4875  -12.6621   19.2548 C   0  0  0  0  0  0  0  0  0  0  0  0
  -27.1695  -31.2825   21.1563 C   0  0  0  0  0  0  0  0  0  0  0  0
  -27.6291  -32.1401   23.4849 C   0  0  0  0  0  0  0  0  0  0  0  0
  -26.3669  -30.0301   23.2087 C   0  0  0  0  0  0  0  0  0  0  0  0
  -28.0136  -14.0076   19.7688 C   0  0  1  0  0  0  0  0  0  0  0  0
  -25.8467  -15.1105   22.6879 C   0  0  1  0  0  0  0  0  0  0  0  0
  -26.0745  -30.3700   21.7366 C   0  0  2  0  0  0  0  0  0  0  0  0
  -19.3074  -13.1420   26.3439 C   0  0  0  0  0  0  0  0  0  0  0  0
  -24.1806  -31.2355   26.8960 C   0  0  0  0  0  0  0  0  0  0  0  0
  -23.7505  -30.7143   24.4924 C   0  0  0  0  0  0  0  0  0  0  0  0
  -22.5445  -12.6533   20.5860 C   0  0  0  0  0  0  0  0  0  0  0  0
  -20.4273  -12.3556   21.8886 C   0  0  0  0  0  0  0  0  0  0  0  0
  -22.4747  -11.0841   22.5321 C   0  0  0  0  0  0  0  0  0  0  0  0
  -21.7471  -15.8765   27.3669 C   0  0  0  0  0  0  0  0  0  0  0  0
  -22.5395  -24.3722   22.7171 C   0  0  0  0  0  0  0  0  0  0  0  0
  -22.3242  -22.9914   22.1069 C   0  0  0  0  0  0  0  0  0  0  0  0
  -23.5989  -22.1564   22.0754 C   0  0  0  0  0  0  0  0  0  1  0  0
  -22.3616  -13.5673   22.9937 C   0  0  1  0  0  0  0  0  0  0  0  0
  -20.6361  -13.8817   26.3543 C   0  0  2  0  0  0  0  0  0  0  0  0
  -24.8237  -30.6342   25.6172 C   0  0  0  0  0  0  0  0  0  0  0  0
  -21.9646  -12.4406   21.9986 C   0  0  0  0  0  0  0  0  0  0  0  0
  -26.8996  -28.2580   20.7662 N   0  0  0  0  0  0  0  0  0  0  0  0
  -25.8784  -29.1220   20.8956 N   0  0  0  0  0  0  0  0  0  0  0  0
  -24.3922  -14.9645   22.7741 N   0  0  0  0  0  0  0  0  0  0  0  0
  -26.5790  -31.2551   23.9921 N   0  0  0  0  0  0  0  0  0  0  0  0
  -23.6314  -29.5009   20.2491 N   0  0  0  0  0  0  0  0  0  0  0  0
  -24.6454  -25.5824   18.2457 N   0  0  0  0  0  0  0  0  0  0  0  0
  -23.7913  -25.4412   24.5509 N   0  0  0  0  0  0  0  0  0  0  0  0
  -27.4573  -14.3034   21.0717 N   0  0  0  0  0  0  0  0  0  0  0  0
  -21.8488  -13.3779   24.3463 N   0  0  0  0  0  0  0  0  0  0  0  0
  -24.0722  -24.8981   26.8321 N   0  3  0  0  0  0  0  0  0  0  0  0
  -20.5059  -15.0692   27.2453 N   0  3  0  0  0  0  0  0  0  0  0  0
  -22.9990  -27.1511   18.5417 O   0  0  0  0  0  0  0  0  0  0  0  0
  -25.4517  -15.2518   20.3644 O   0  0  0  0  0  0  0  0  0  0  0  0
  -24.5271  -12.7645   23.5346 O   0  0  0  0  0  0  0  0  0  0  0  0
  -26.1109  -32.6126   25.8192 O   0  0  0  0  0  0  0  0  0  0  0  0
  -22.6237  -23.4695   24.9753 O   0  0  0  0  0  0  0  0  0  0  0  0
  -20.6697  -15.3718   24.4528 O   0  0  0  0  0  0  0  0  0  0  0  0
  -29.5251  -22.9089   18.5207 O   0  0  0  0  0  0  0  0  0  0  0  0
  -23.3072  -20.8960   21.4732 O   0  0  0  0  0  0  0  0  0  1  0  0
  -27.2194  -17.9095   18.8283 F   0  0  0  0  0  0  0  0  0  0  0  0
  -28.5016  -27.7582   26.9951 F   0  0  0  0  0  0  0  0  0  0  0  0
  -30.5939  -20.9522   20.1552 F   0  0  0  0  0  0  0  0  0  0  0  0
  1  2  1  0  0  0  0
  1  5  2  0  0  0  0
  2  6  2  0  0  0  0
  3  8  2  0  0  0  0
  3 18  1  0  0  0  0
  4  9  1  0  0  0  0
  4 18  2  0  0  0  0
  5 21  1  0  0  0  0
  6 23  1  0  0  0  0
  7 10  2  0  0  0  0
  7 22  1  0  0  0  0
  8 26  1  0  0  0  0
  9 26  2  0  0  0  0
 10 27  1  0  0  0  0
 11 12  2  0  0  0  0
 11 28  1  0  0  0  0
 12 29  1  0  0  0  0
 13 19  2  0  0  0  0
 13 25  1  0  0  0  0
 14 19  1  0  0  0  0
 14 30  2  0  0  0  0
 15 24  1  0  0  0  0
 15 27  2  0  0  0  0
 16 25  2  0  0  0  0
 16 30  1  0  0  0  0
 17 29  2  0  0  0  0
 17 31  1  0  0  0  0
 18 32  1  0  0  0  0
 19 34  1  0  0  0  0
 20 32  1  0  0  0  0
 20 33  2  0  0  0  0
 20 35  1  0  0  0  0
 21 23  2  0  0  0  0
 21 41  1  0  0  0  0
 22 24  2  0  0  0  0
 22 42  1  0  0  0  0
 23 50  1  0  0  0  0
 24 43  1  0  0  0  0
 25 65  1  0  0  0  0
 26 84  1  0  0  0  0
 27 85  1  0  0  0  0
 28 31  2  0  0  0  0
 28 84  1  0  0  0  0
 29 86  1  0  0  0  0
 30 87  1  0  0  0  0
 31 88  1  0  0  0  0
 32 67  2  0  0  0  0
 33 68  1  0  0  0  0
 33 71  1  0  0  0  0
 34 73  1  0  0  0  0
 34 76  2  0  0  0  0
 35 72  1  0  0  0  0
 35 78  2  0  0  0  0
 36 51  1  0  0  0  0
 36 74  1  0  0  0  0
 36 79  2  0  0  0  0
 37 63  1  0  0  0  0
 37 69  1  0  0  0  0
 37 80  2  0  0  0  0
 38 65  1  0  0  0  0
 38 70  1  0  0  0  0
 38 81  2  0  0  0  0
 39 60  1  0  0  0  0
 39 73  1  0  0  0  0
 39 82  2  0  0  0  0
 40 64  1  0  0  0  0
 40 75  1  0  0  0  0
 40 83  2  0  0  0  0
 41 44  1  0  0  0  0
 42 51  1  0  0  0  0
 43 69  1  0  0  0  0
 44 46  1  0  0  0  0
 45 47  1  0  0  0  0
 45 48  1  0  0  0  0
 46 50  1  0  0  0  0
 47 52  1  0  0  0  0
 48 70  1  0  0  0  0
 49 52  1  0  0  0  0
 49 70  1  0  0  0  0
 50 74  1  0  0  0  0
 51 69  1  0  0  0  0
 52 68  1  0  0  0  0
 53 64  1  0  0  0  0
 54 65  1  0  0  0  0
 55 65  1  0  0  0  0
 56 66  1  0  0  0  0
 57 66  1  0  0  0  0
 58 66  1  0  0  0  0
 59 77  1  0  0  0  0
 60 61  1  0  0  0  0
 61 62  1  0  0  0  0
 62 85  1  0  0  0  0
 63 66  1  0  0  0  0
 63 75  1  0  0  0  0
 64 77  1  0  0  0  0
 67 68  1  0  0  0  0
M  CHG  2  76   1  77   1
M  ISO  4  38 100  62 101  65 100  85 101
M  END
> <Batch ID>
0136

> <Smiles>
CNC(C)C(=O)NC(C(=O)N1Cc2cc([101O:1][101CH2:1]CCC(=O)NC(=N)c3cc(F)cc([100C:0](C)(C)[100C:0](=O)N4CCCC(n5nc(-c6ccc(Oc7ccc(F)cc7F)cc6)c(C(N)=O)c5N)C4)c3)ccc2CC1C(=O)NC1CCCc2ccccc21)C(C)(C)C

> <Shape>
0.236

> <Color>
0.066

> <Negative vol penalty>
0.000

$$$$

  -OEChem-04052302393D

 86 94  0     1  0  0  0  0  0999 V2000
  -27.7653  -21.4695   18.1362 C   0  0  0  0  0  0  0  0  0  0  0  0
  -28.3891  -21.2525   19.3606 C   0  0  0  0  0  0  0  0  0  0  0  0
  -23.0743   -9.8690   19.9422 C   0  0  0  0  0  0  0  0  0  0  0  0
  -23.8316   -9.8787   22.2364 C   0  0  0  0  0  0  0  0  0  0  0  0
  -28.1004  -22.5870   17.3727 C   0  0  0  0  0  0  0  0  0  0  0  0
  -29.3493  -22.1524   19.8218 C   0  0  0  0  0  0  0  0  0  0  0  0
  -28.7361  -23.3102   24.7134 C   0  0  0  0  0  0  0  0  0  0  0  0
  -22.3295   -8.7166   20.1929 C   0  0  0  0  0  0  0  0  0  0  0  0
  -23.0868   -8.7263   22.4872 C   0  0  0  0  0  0  0  0  0  0  0  0
  -29.1744  -22.3741   25.6491 C   0  0  0  0  0  0  0  0  0  0  0  0
  -19.3792   -7.9236   21.6420 C   0  0  0  0  0  0  0  0  0  0  0  0
  -18.0729   -7.8775   21.1553 C   0  0  0  0  0  0  0  0  0  0  0  0
  -31.1902  -23.6572   25.9795 C   0  0  0  0  0  0  0  0  0  0  0  0
  -30.6829  -18.6959   23.5795 C   0  0  0  0  0  0  0  0  0  0  0  0
  -32.4720  -17.1092   23.9239 C   0  0  0  0  0  0  0  0  0  0  0  0
  -18.6330   -5.9323   19.8364 C   0  0  0  0  0  0  0  0  0  0  0  0
  -23.8255  -10.4500   20.9640 C   0  0  0  0  0  0  0  0  0  0  0  0
  -24.1688  -12.9748   20.8409 C   0  0  0  0  0  0  0  0  0  0  0  0
  -29.0582  -23.5062   17.8293 C   0  0  0  0  0  0  0  0  0  0  0  0
  -29.5278  -24.4230   24.3953 C   0  0  0  0  0  0  0  0  0  0  0  0
  -29.6986  -23.2825   19.0631 C   0  0  0  0  0  0  0  0  0  0  0  0
  -30.7585  -24.6073   25.0414 C   0  0  0  0  0  0  0  0  0  0  0  0
  -31.8777  -18.3395   24.2049 C   0  0  0  0  0  0  0  0  0  0  0  0
  -30.0824  -17.8220   22.6732 C   0  0  0  0  0  0  0  0  0  0  0  0
  -30.6767  -16.5917   22.3922 C   0  0  0  0  0  0  0  0  0  0  0  0
  -22.3357   -8.1453   21.4654 C   0  0  0  0  0  0  0  0  0  0  0  0
  -30.4029  -22.5460   26.2802 C   0  0  0  0  0  0  0  0  0  0  0  0
  -20.3125   -6.9742   21.2258 C   0  0  0  0  0  0  0  0  0  0  0  0
  -17.6997   -6.8818   20.2526 C   0  0  0  0  0  0  0  0  0  0  0  0
  -31.8715  -16.2353   23.0176 C   0  0  0  0  0  0  0  0  0  0  0  0
  -19.9394   -5.9785   20.3230 C   0  0  0  0  0  0  0  0  0  0  0  0
  -24.5955  -11.6401   20.7055 C   0  0  0  0  0  0  0  0  0  0  0  0
  -25.2618  -13.7232   20.4778 C   0  0  0  0  0  0  0  0  0  0  0  0
  -22.8982  -13.4919   21.2576 C   0  0  0  0  0  0  0  0  0  0  0  0
  -30.9339  -25.4938   21.7533 C   0  0  0  0  0  0  0  0  0  0  0  0
  -31.6217  -28.0531   23.6238 C   0  0  0  0  0  0  0  0  0  0  0  0
  -32.0818  -29.3059   26.7648 C   0  0  0  0  0  0  0  0  0  0  0  0
  -30.7284  -14.7660   20.6572 C   0  0  0  0  0  0  0  0  0  0  0  0
  -29.4217  -24.6743   16.9471 C   0  0  0  0  0  0  0  0  0  0  0  0
  -29.0287  -25.4376   23.4034 C   0  0  0  0  0  0  0  0  0  0  0  0
  -31.6370  -25.7956   24.7501 C   0  0  0  0  0  0  0  0  0  0  0  0
  -30.1780  -25.7791   17.6803 C   0  0  0  0  0  0  0  0  0  0  0  0
  -29.6153  -12.3495   18.2910 C   0  0  0  0  0  0  0  0  0  0  0  0
  -31.2936  -25.1858   18.5349 C   0  0  0  0  0  0  0  0  0  0  0  0
  -28.1750  -12.0593   18.7194 C   0  0  0  0  0  0  0  0  0  0  0  0
  -30.5292  -12.5795   19.4934 C   0  0  0  0  0  0  0  0  0  0  0  0
  -28.6211  -13.3069   20.8715 C   0  0  0  0  0  0  0  0  0  0  0  0
  -30.7272  -24.2491   19.6088 C   0  0  1  0  0  0  0  0  0  0  0  0
  -30.1489  -26.2630   22.7779 C   0  0  1  0  0  0  0  0  0  0  0  0
  -27.6495  -13.1325   19.6928 C   0  0  2  0  0  0  0  0  0  0  0  0
  -27.6045  -18.0844   22.9519 C   0  0  0  0  0  0  0  0  0  0  0  0
  -32.6726  -31.4241   27.9738 C   0  0  0  0  0  0  0  0  0  0  0  0
  -34.5472  -27.6812   22.8409 C   0  0  0  0  0  0  0  0  0  0  0  0
  -35.1767  -29.1586   24.7616 C   0  0  0  0  0  0  0  0  0  0  0  0
  -33.7783  -30.0601   22.9030 C   0  0  0  0  0  0  0  0  0  0  0  0
  -34.1172  -19.8475   27.8206 C   0  0  0  0  0  0  0  0  0  0  0  0
  -31.9515  -19.7068   29.0765 C   0  0  0  0  0  0  0  0  0  0  0  0
  -29.4896  -29.3512   28.1922 C   0  0  0  0  0  0  0  0  0  0  0  0
  -32.5273  -19.2840   25.1873 C   0  0  0  0  0  0  0  0  0  0  0  0
  -28.8023  -18.2295   22.0187 C   0  0  0  0  0  0  0  0  0  0  0  0
  -32.0287  -19.0331   26.6173 C   0  0  0  0  0  0  0  0  0  0  0  0
  -32.2436  -21.4523   27.3154 C   0  0  0  0  0  0  0  0  0  1  0  0
  -32.7574  -28.4303   24.5442 C   0  0  1  0  0  0  0  0  0  0  0  0
  -31.5446  -30.5551   27.4397 C   0  0  2  0  0  0  0  0  0  0  0  0
  -34.0495  -28.8090   23.7667 C   0  0  0  0  0  0  0  0  0  0  0  0
  -32.5884  -19.9938   27.7052 C   0  0  0  0  0  0  0  0  0  0  0  0
  -25.8608  -11.5430   20.2887 N   0  0  0  0  0  0  0  0  0  0  0  0
  -26.2385  -12.8262   20.1591 N   0  0  0  0  0  0  0  0  0  0  0  0
  -31.1080  -26.7566   23.7682 N   0  0  0  0  0  0  0  0  0  0  0  0
  -29.9698  -13.6118   20.3687 N   0  0  0  0  0  0  0  0  0  0  0  0
  -25.4730  -15.0544   20.4032 N   0  0  0  0  0  0  0  0  0  0  0  0
  -21.8854  -12.5838   21.5950 N   0  0  0  0  0  0  0  0  0  0  0  0
  -30.0806  -15.6925   21.4736 N   0  0  0  0  0  0  0  0  0  0  0  0
  -30.1722  -25.0139   20.7049 N   0  0  0  0  0  0  0  0  0  0  0  0
  -32.2479  -29.4895   25.4084 N   0  0  0  0  0  0  0  0  0  0  0  0
  -30.6554  -30.1873   28.5777 N   0  3  0  0  0  0  0  0  0  0  0  0
  -22.6625  -14.7227   21.3130 O   0  0  0  0  0  0  0  0  0  0  0  0
  -32.1415  -25.3478   21.9020 O   0  0  0  0  0  0  0  0  0  0  0  0
  -31.2011  -28.8809   22.8117 O   0  0  0  0  0  0  0  0  0  0  0  0
  -32.3327  -28.2719   27.3800 O   0  0  0  0  0  0  0  0  0  0  0  0
  -31.8581  -14.9334   20.1906 O   0  0  0  0  0  0  0  0  0  0  0  0
  -21.6089   -7.0209   21.7105 O   0  0  0  0  0  0  0  0  0  0  0  0
  -30.8334  -21.6335   27.1934 O   0  0  0  0  0  0  0  0  0  1  0  0
  -16.4447   -6.8366   19.7865 F   0  0  0  0  0  0  0  0  0  0  0  0
  -32.4519  -15.0552   22.7567 F   0  0  0  0  0  0  0  0  0  0  0  0
  -20.8312   -5.0629   19.9205 F   0  0  0  0  0  0  0  0  0  0  0  0
  1  2  1  0  0  0  0
  1  5  2  0  0  0  0
  2  6  2  0  0  0  0
  3  8  2  0  0  0  0
  3 17  1  0  0  0  0
  4  9  1  0  0  0  0
  4 17  2  0  0  0  0
  5 19  1  0  0  0  0
  6 21  1  0  0  0  0
  7 10  2  0  0  0  0
  7 20  1  0  0  0  0
  8 26  1  0  0  0  0
  9 26  2  0  0  0  0
 10 27  1  0  0  0  0
 11 12  2  0  0  0  0
 11 28  1  0  0  0  0
 12 29  1  0  0  0  0
 13 22  1  0  0  0  0
 13 27  2  0  0  0  0
 14 23  2  0  0  0  0
 14 24  1  0  0  0  0
 15 23  1  0  0  0  0
 15 30  2  0  0  0  0
 16 29  2  0  0  0  0
 16 31  1  0  0  0  0
 17 32  1  0  0  0  0
 18 32  1  0  0  0  0
 18 33  2  0  0  0  0
 18 34  1  0  0  0  0
 19 21  2  0  0  0  0
 19 39  1  0  0  0  0
 20 22  2  0  0  0  0
 20 40  1  0  0  0  0
 21 48  1  0  0  0  0
 22 41  1  0  0  0  0
 23 59  1  0  0  0  0
 24 25  2  0  0  0  0
 24 60  1  0  0  0  0
 25 30  1  0  0  0  0
 25 73  1  0  0  0  0
 26 82  1  0  0  0  0
 27 83  1  0  0  0  0
 28 31  2  0  0  0  0
 28 82  1  0  0  0  0
 29 84  1  0  0  0  0
 30 85  1  0  0  0  0
 31 86  1  0  0  0  0
 32 67  2  0  0  0  0
 33 68  1  0  0  0  0
 33 71  1  0  0  0  0
 34 72  1  0  0  0  0
 34 77  2  0  0  0  0
 35 49  1  0  0  0  0
 35 74  1  0  0  0  0
 35 78  2  0  0  0  0
 36 63  1  0  0  0  0
 36 69  1  0  0  0  0
 36 79  2  0  0  0  0
 37 64  1  0  0  0  0
 37 75  1  0  0  0  0
 37 80  2  0  0  0  0
 38 70  1  0  0  0  0
 38 73  1  0  0  0  0
 38 81  2  0  0  0  0
 39 42  1  0  0  0  0
 40 49  1  0  0  0  0
 41 69  1  0  0  0  0
 42 44  1  0  0  0  0
 43 45  1  0  0  0  0
 43 46  1  0  0  0  0
 44 48  1  0  0  0  0
 45 50  1  0  0  0  0
 46 70  1  0  0  0  0
 47 50  1  0  0  0  0
 47 70  1  0  0  0  0
 48 74  1  0  0  0  0
 49 69  1  0  0  0  0
 50 68  1  0  0  0  0
 51 60  1  0  0  0  0
 52 64  1  0  0  0  0
 53 65  1  0  0  0  0
 54 65  1  0  0  0  0
 55 65  1  0  0  0  0
 56 66  1  0  0  0  0
 57 66  1  0  0  0  0
 58 76  1  0  0  0  0
 59 61  1  0  0  0  0
 61 66  1  0  0  0  0
 62 66  1  0  0  0  0
 62 83  1  0  0  0  0
 63 65  1  0  0  0  0
 63 75  1  0  0  0  0
 64 76  1  0  0  0  0
 67 68  1  0  0  0  0
M  CHG  1  76   1
M  ISO  4  38 100  62 101  73 100  83 101
M  END
> <Batch ID>
0136

> <Smiles>
CCc1cc(CCC(C)(C)[101CH2:1][101O:1]c2ccc3c(c2)CN(C(=O)C(NC(=O)C(C)NC)C(C)(C)C)C(C(=O)NC2CCCc4ccccc42)C3)cc(F)c1[100NH:0][100C:0](=O)N1CCCC(n2nc(-c3ccc(Oc4ccc(F)cc4F)cc3)c(C(N)=O)c2N)C1

> <Shape>
0.211

> <Color>
0.191

> <Negative vol penalty>
0.000

$$$$

  -OEChem-04052302393D

 87 95  0     1  0  0  0  0  0999 V2000
  -24.9360  -19.1977   21.1741 C   0  0  0  0  0  0  0  0  0  0  0  0
  -25.5682  -19.7527   22.2810 C   0  0  0  0  0  0  0  0  0  0  0  0
  -23.0790   -9.8604   19.9481 C   0  0  0  0  0  0  0  0  0  0  0  0
  -23.8326   -9.8822   22.2435 C   0  0  0  0  0  0  0  0  0  0  0  0
  -25.2746  -19.6296   19.8934 C   0  0  0  0  0  0  0  0  0  0  0  0
  -26.5307  -20.7480   22.1083 C   0  0  0  0  0  0  0  0  0  0  0  0
  -28.2466  -22.9266   26.1719 C   0  0  0  0  0  0  0  0  0  0  0  0
  -22.3352   -8.7084   20.2032 C   0  0  0  0  0  0  0  0  0  0  0  0
  -23.0887   -8.7301   22.4986 C   0  0  0  0  0  0  0  0  0  0  0  0
  -29.1005  -22.2849   27.0679 C   0  0  0  0  0  0  0  0  0  0  0  0
  -19.8594   -7.9341   23.0972 C   0  0  0  0  0  0  0  0  0  0  0  0
  -19.0992   -7.9010   24.2663 C   0  0  0  0  0  0  0  0  0  0  0  0
  -30.9632  -23.5321   26.1767 C   0  0  0  0  0  0  0  0  0  0  0  0
  -32.0549  -16.6239   22.5394 C   0  0  0  0  0  0  0  0  0  0  0  0
  -29.8684  -17.4738   23.1171 C   0  0  0  0  0  0  0  0  0  0  0  0
  -20.3398   -5.9690   25.0182 C   0  0  0  0  0  0  0  0  0  0  0  0
  -23.8278  -10.4473   20.9682 C   0  0  0  0  0  0  0  0  0  0  0  0
  -31.8378  -18.3838   24.1802 C   0  0  0  0  0  0  0  0  0  0  0  0
  -24.1684  -12.9718   20.8334 C   0  0  0  0  0  0  0  0  0  0  0  0
  -26.2508  -20.6219   19.7053 C   0  0  0  0  0  0  0  0  0  0  0  0
  -28.7472  -23.8695   25.2626 C   0  0  0  0  0  0  0  0  0  0  0  0
  -26.8691  -21.2143   20.8251 C   0  0  0  0  0  0  0  0  0  0  0  0
  -30.1131  -24.1863   25.2719 C   0  0  0  0  0  0  0  0  0  0  0  0
  -32.6390  -17.5139   23.4406 C   0  0  0  0  0  0  0  0  0  0  0  0
  -30.4525  -18.3638   24.0184 C   0  0  0  0  0  0  0  0  0  0  0  0
  -30.6696  -16.6038   22.3776 C   0  0  0  0  0  0  0  0  0  0  0  0
  -22.3400   -8.1432   21.4784 C   0  0  0  0  0  0  0  0  0  0  0  0
  -30.4595  -22.5854   27.0684 C   0  0  0  0  0  0  0  0  0  0  0  0
  -20.8597   -6.9846   22.8886 C   0  0  0  0  0  0  0  0  0  0  0  0
  -19.3394   -6.9185   25.2268 C   0  0  0  0  0  0  0  0  0  0  0  0
  -21.0999   -6.0020   23.8491 C   0  0  0  0  0  0  0  0  0  0  0  0
  -24.5969  -11.6370   20.7051 C   0  0  0  0  0  0  0  0  0  0  0  0
  -25.2611  -13.7197   20.4684 C   0  0  0  0  0  0  0  0  0  0  0  0
  -32.6307  -18.9146   26.4115 C   0  0  0  0  0  0  0  0  0  0  0  0
  -32.4568  -19.3270   25.1394 C   0  0  0  0  0  0  0  0  0  0  0  0
  -22.8965  -13.4895   21.2456 C   0  0  0  0  0  0  0  0  0  0  0  0
  -28.8821  -24.0782   22.0937 C   0  0  0  0  0  0  0  0  0  0  0  0
  -30.0408  -27.0409   22.7275 C   0  0  0  0  0  0  0  0  0  0  0  0
  -31.6110  -29.1292   24.9231 C   0  0  0  0  0  0  0  0  0  0  0  0
  -30.7262  -14.7697   20.6515 C   0  0  0  0  0  0  0  0  0  0  0  0
  -26.5730  -21.0576   18.2976 C   0  0  0  0  0  0  0  0  0  0  0  0
  -27.8087  -24.5726   24.3207 C   0  0  0  0  0  0  0  0  0  0  0  0
  -30.6972  -25.2059   24.3298 C   0  0  0  0  0  0  0  0  0  0  0  0
  -27.9075  -21.7886   18.1923 C   0  0  0  0  0  0  0  0  0  0  0  0
  -29.6197  -12.3405   18.2953 C   0  0  0  0  0  0  0  0  0  0  0  0
  -27.9877  -22.8790   19.2502 C   0  0  0  0  0  0  0  0  0  0  0  0
  -28.1791  -12.0507   18.7228 C   0  0  0  0  0  0  0  0  0  0  0  0
  -30.5314  -12.5774   19.4980 C   0  0  0  0  0  0  0  0  0  0  0  0
  -28.6202  -13.3093   20.8695 C   0  0  0  0  0  0  0  0  0  0  0  0
  -27.9410  -22.2765   20.6601 C   0  0  1  0  0  0  0  0  0  0  0  0
  -28.5104  -25.1394   23.0904 C   0  0  1  0  0  0  0  0  0  0  0  0
  -27.6507  -13.1281   19.6901 C   0  0  2  0  0  0  0  0  0  0  0  0
  -34.1275  -17.5060   23.5842 C   0  0  0  0  0  0  0  0  0  0  0  0
  -29.5592  -19.2801   24.7920 C   0  0  0  0  0  0  0  0  0  0  0  0
  -32.5446  -20.8114   23.1109 C   0  0  0  0  0  0  0  0  0  0  0  0
  -34.4810  -18.9991   28.0606 C   0  0  0  0  0  0  0  0  0  0  0  0
  -32.4539  -31.4825   25.1439 C   0  0  0  0  0  0  0  0  0  0  0  0
  -32.4286  -26.3491   20.9584 C   0  0  0  0  0  0  0  0  0  0  0  0
  -33.6461  -28.2935   21.9610 C   0  0  0  0  0  0  0  0  0  0  0  0
  -31.5497  -28.6717   20.6631 C   0  0  0  0  0  0  0  0  0  0  0  0
  -29.8130  -29.6821   27.2079 C   0  0  0  0  0  0  0  0  0  0  0  0
  -32.8924  -20.6640   24.5862 C   0  0  0  0  0  0  0  0  0  0  0  0
  -32.2047  -19.8564   28.7146 C   0  0  0  0  0  0  0  0  0  0  0  0
  -30.9456  -20.6349   28.3393 C   0  0  0  0  0  0  0  0  0  1  0  0
  -33.2185  -19.7050   27.5592 C   0  0  2  0  0  0  0  0  0  0  0  0
  -31.4133  -27.6249   22.9603 C   0  0  1  0  0  0  0  0  0  0  0  0
  -31.2848  -30.5393   25.3809 C   0  0  2  0  0  0  0  0  0  0  0  0
  -32.2490  -27.7141   21.6523 C   0  0  0  0  0  0  0  0  0  0  0  0
  -25.8629  -11.5393   20.2909 N   0  0  0  0  0  0  0  0  0  0  0  0
  -26.2394  -12.8223   20.1556 N   0  0  0  0  0  0  0  0  0  0  0  0
  -29.7399  -25.8616   23.4236 N   0  0  0  0  0  0  0  0  0  0  0  0
  -29.9694  -13.6133   20.3674 N   0  0  0  0  0  0  0  0  0  0  0  0
  -25.4709  -15.0508   20.3876 N   0  0  0  0  0  0  0  0  0  0  0  0
  -21.8842  -12.5818   21.5857 N   0  0  0  0  0  0  0  0  0  0  0  0
  -30.0760  -15.6995   21.4624 N   0  0  0  0  0  0  0  0  0  0  0  0
  -27.8083  -23.3450   21.6258 N   0  0  0  0  0  0  0  0  0  0  0  0
  -31.2042  -28.9069   23.6245 N   0  0  0  0  0  0  0  0  0  0  0  0
  -30.9600  -30.5496   26.8353 N   0  3  0  0  0  0  0  0  0  0  0  0
  -22.6593  -14.7203   21.2946 O   0  0  0  0  0  0  0  0  0  0  0  0
  -30.0559  -23.9361   21.7719 O   0  0  0  0  0  0  0  0  0  0  0  0
  -29.2616  -27.6141   21.9620 O   0  0  0  0  0  0  0  0  0  0  0  0
  -32.1740  -28.3083   25.6440 O   0  0  0  0  0  0  0  0  0  0  0  0
  -31.8565  -14.9362   20.1860 O   0  0  0  0  0  0  0  0  0  0  0  0
  -21.6140   -7.0192   21.7278 O   0  0  0  0  0  0  0  0  0  0  0  0
  -31.2953  -21.9600   27.9415 O   0  0  0  0  0  0  0  0  0  1  0  0
  -18.6104   -6.8878   26.3501 F   0  0  0  0  0  0  0  0  0  0  0  0
  -22.0603   -5.0879   23.6548 F   0  0  0  0  0  0  0  0  0  0  0  0
  1  2  1  0  0  0  0
  1  5  2  0  0  0  0
  2  6  2  0  0  0  0
  3  8  2  0  0  0  0
  3 17  1  0  0  0  0
  4  9  1  0  0  0  0
  4 17  2  0  0  0  0
  5 20  1  0  0  0  0
  6 22  1  0  0  0  0
  7 10  2  0  0  0  0
  7 21  1  0  0  0  0
  8 27  1  0  0  0  0
  9 27  2  0  0  0  0
 10 28  1  0  0  0  0
 11 12  2  0  0  0  0
 11 29  1  0  0  0  0
 12 30  1  0  0  0  0
 13 23  1  0  0  0  0
 13 28  2  0  0  0  0
 14 24  2  0  0  0  0
 14 26  1  0  0  0  0
 15 25  1  0  0  0  0
 15 26  2  0  0  0  0
 16 30  2  0  0  0  0
 16 31  1  0  0  0  0
 17 32  1  0  0  0  0
 18 24  1  0  0  0  0
 18 25  2  0  0  0  0
 18 35  1  0  0  0  0
 19 32  1  0  0  0  0
 19 33  2  0  0  0  0
 19 36  1  0  0  0  0
 20 22  2  0  0  0  0
 20 41  1  0  0  0  0
 21 23  2  0  0  0  0
 21 42  1  0  0  0  0
 22 50  1  0  0  0  0
 23 43  1  0  0  0  0
 24 53  1  0  0  0  0
 25 54  1  0  0  0  0
 26 75  1  0  0  0  0
 27 84  1  0  0  0  0
 28 85  1  0  0  0  0
 29 31  2  0  0  0  0
 29 84  1  0  0  0  0
 30 86  1  0  0  0  0
 31 87  1  0  0  0  0
 32 69  2  0  0  0  0
 33 70  1  0  0  0  0
 33 73  1  0  0  0  0
 34 35  2  0  0  0  0
 34 65  1  0  0  0  0
 35 62  1  0  0  0  0
 36 74  1  0  0  0  0
 36 79  2  0  0  0  0
 37 51  1  0  0  0  0
 37 76  1  0  0  0  0
 37 80  2  0  0  0  0
 38 66  1  0  0  0  0
 38 71  1  0  0  0  0
 38 81  2  0  0  0  0
 39 67  1  0  0  0  0
 39 77  1  0  0  0  0
 39 82  2  0  0  0  0
 40 72  1  0  0  0  0
 40 75  1  0  0  0  0
 40 83  2  0  0  0  0
 41 44  1  0  0  0  0
 42 51  1  0  0  0  0
 43 71  1  0  0  0  0
 44 46  1  0  0  0  0
 45 47  1  0  0  0  0
 45 48  1  0  0  0  0
 46 50  1  0  0  0  0
 47 52  1  0  0  0  0
 48 72  1  0  0  0  0
 49 52  1  0  0  0  0
 49 72  1  0  0  0  0
 50 76  1  0  0  0  0
 51 71  1  0  0  0  0
 52 70  1  0  0  0  0
 55 62  1  0  0  0  0
 56 65  1  0  0  0  0
 57 67  1  0  0  0  0
 58 68  1  0  0  0  0
 59 68  1  0  0  0  0
 60 68  1  0  0  0  0
 61 78  1  0  0  0  0
 63 64  1  0  0  0  0
 63 65  1  0  0  0  0
 64 85  1  0  0  0  0
 66 68  1  0  0  0  0
 66 77  1  0  0  0  0
 67 78  1  0  0  0  0
 69 70  1  0  0  0  0
M  CHG  1  78   1
M  ISO  4  40 100  64 101  75 100  85 101
M  END
> <Batch ID>
0136

> <Smiles>
CCC(=CC(C)C[101CH2:1][101O:1]c1ccc2c(c1)CN(C(=O)C(NC(=O)C(C)NC)C(C)(C)C)C(C(=O)NC1CCCc3ccccc31)C2)c1c(C)cc([100NH:0][100C:0](=O)N2CCCC(n3nc(-c4ccc(Oc5ccc(F)cc5F)cc4)c(C(N)=O)c3N)C2)cc1C

> <Shape>
0.200

> <Color>
0.192

> <Negative vol penalty>
0.000

$$$$

  -OEChem-04052302393D

 97106  0     1  0  0  0  0  0999 V2000
  -19.1157  -35.7280   23.4241 C   0  0  0  0  0  0  0  0  0  0  0  0
  -19.8341  -35.6584   22.2347 C   0  0  0  0  0  0  0  0  0  0  0  0
  -23.7965   -9.3754   20.4767 C   0  0  0  0  0  0  0  0  0  0  0  0
  -24.1802  -10.0503   22.7646 C   0  0  0  0  0  0  0  0  0  0  0  0
  -29.7870  -20.1786   19.7003 C   0  0  0  0  0  0  0  0  0  0  0  0
  -19.7025  -35.3083   24.6171 C   0  0  0  0  0  0  0  0  0  0  0  0
  -21.1402  -35.1700   22.2380 C   0  0  0  0  0  0  0  0  0  0  0  0
  -25.7370  -31.4959   18.1531 C   0  0  0  0  0  0  0  0  0  0  0  0
  -29.2513  -26.5773   18.8646 C   0  0  0  0  0  0  0  0  0  0  0  0
  -29.8954  -18.8263   20.0242 C   0  0  0  0  0  0  0  0  0  0  0  0
  -29.0340  -25.2443   19.2131 C   0  0  0  0  0  0  0  0  0  0  0  0
  -23.2773   -8.1599   20.9223 C   0  0  0  0  0  0  0  0  0  0  0  0
  -23.6610   -8.8348   23.2102 C   0  0  0  0  0  0  0  0  0  0  0  0
  -27.0303  -31.5846   17.6398 C   0  0  0  0  0  0  0  0  0  0  0  0
  -20.6136   -7.4451   23.6606 C   0  0  0  0  0  0  0  0  0  0  0  0
  -19.7118   -7.4783   24.7242 C   0  0  0  0  0  0  0  0  0  0  0  0
  -27.8986  -20.3849   21.1931 C   0  0  0  0  0  0  0  0  0  0  0  0
  -27.9134  -30.8138   19.7482 C   0  0  0  0  0  0  0  0  0  0  0  0
  -31.3658  -24.7583   18.8080 C   0  0  0  0  0  0  0  0  0  0  0  0
  -21.1993   -6.0913   26.0285 C   0  0  0  0  0  0  0  0  0  0  0  0
  -24.2480  -10.3206   21.3979 C   0  0  0  0  0  0  0  0  0  0  0  0
  -28.7886  -20.9580   20.2848 C   0  0  0  0  0  0  0  0  0  0  0  0
  -24.0757  -12.7697   20.7053 C   0  0  0  0  0  0  0  0  0  0  0  0
  -21.0130  -34.8055   24.6336 C   0  0  0  0  0  0  0  0  0  0  0  0
  -25.5226  -31.0752   19.4735 C   0  0  0  0  0  0  0  0  0  0  0  0
  -21.7456  -34.7444   23.4327 C   0  0  0  0  0  0  0  0  0  0  0  0
  -26.6164  -30.7182   20.2750 C   0  0  0  0  0  0  0  0  0  0  0  0
  -30.5257  -27.0008   18.4876 C   0  0  0  0  0  0  0  0  0  0  0  0
  -28.0070  -19.0324   21.5170 C   0  0  0  0  0  0  0  0  0  0  0  0
  -31.5830  -26.0914   18.4594 C   0  0  0  0  0  0  0  0  0  0  0  0
  -30.0913  -24.3348   19.1849 C   0  0  0  0  0  0  0  0  0  0  0  0
  -29.0054  -18.2532   20.9325 C   0  0  0  0  0  0  0  0  0  0  0  0
  -23.2095   -7.8896   22.2891 C   0  0  0  0  0  0  0  0  0  0  0  0
  -28.1189  -31.2463   18.4383 C   0  0  0  0  0  0  0  0  0  0  0  0
  -21.8082   -6.7350   23.7808 C   0  0  0  0  0  0  0  0  0  0  0  0
  -20.0047   -6.8014   25.9082 C   0  0  0  0  0  0  0  0  0  0  0  0
  -22.1010   -6.0581   24.9648 C   0  0  0  0  0  0  0  0  0  0  0  0
  -24.7849  -11.5762   20.9382 C   0  0  0  0  0  0  0  0  0  0  0  0
  -25.0321  -13.6606   20.2830 C   0  0  0  0  0  0  0  0  0  0  0  0
  -28.6738  -22.3858   19.9416 C   0  0  0  0  0  0  0  0  0  0  0  0
  -22.6775  -13.0483   20.8571 C   0  0  0  0  0  0  0  0  0  0  0  0
  -24.2527  -32.3968   22.0706 C   0  0  0  0  0  0  0  0  0  0  0  0
  -24.6838  -29.4322   23.3147 C   0  0  0  0  0  0  0  0  0  0  0  0
  -26.3707  -26.4671   23.2187 C   0  0  0  0  0  0  0  0  0  0  0  0
  -30.0731  -15.9789   20.7475 C   0  0  0  0  0  0  0  0  0  0  0  0
  -21.6216  -34.4080   25.9551 C   0  0  0  0  0  0  0  0  0  0  0  0
  -24.1198  -30.9593   20.0037 C   0  0  0  0  0  0  0  0  0  0  0  0
  -26.4386  -30.2414   21.6926 C   0  0  0  0  0  0  0  0  0  0  0  0
  -22.8783  -33.5531   25.8143 C   0  0  0  0  0  0  0  0  0  0  0  0
  -29.8547  -12.9226   18.9342 C   0  0  0  0  0  0  0  0  0  0  0  0
  -23.8186  -34.1533   24.7739 C   0  0  0  0  0  0  0  0  0  0  0  0
  -28.4579  -12.3980   19.2748 C   0  0  0  0  0  0  0  0  0  0  0  0
  -30.5090  -13.6116   20.1304 C   0  0  0  0  0  0  0  0  0  0  0  0
  -28.3059  -14.1430   21.0966 C   0  0  0  0  0  0  0  0  0  0  0  0
  -23.1560  -34.1974   23.3917 C   0  0  1  0  0  0  0  0  0  0  0  0
  -24.0505  -31.0107   21.5268 C   0  0  1  0  0  0  0  0  0  0  0  0
  -27.5808  -13.4981   19.9042 C   0  0  2  0  0  0  0  0  0  0  0  0
  -33.0950  -26.6899   16.5510 C   0  0  0  0  0  0  0  0  0  0  0  0
  -24.9908  -16.9879   22.7928 C   0  0  0  0  0  0  0  0  0  0  0  0
  -26.9480  -24.0965   23.8058 C   0  0  0  0  0  0  0  0  0  0  0  0
  -26.1988  -30.7524   25.6107 C   0  0  0  0  0  0  0  0  0  0  0  0
  -27.1220  -28.5020   26.2034 C   0  0  0  0  0  0  0  0  0  0  0  0
  -24.6620  -28.9042   26.3012 C   0  0  0  0  0  0  0  0  0  0  0  0
  -30.4141  -31.8895   20.0365 C   0  0  0  0  0  0  0  0  0  0  0  0
  -31.7618  -31.1821   18.0454 C   0  0  0  0  0  0  0  0  0  0  0  0
  -24.4760  -25.3877   21.2176 C   0  0  0  0  0  0  0  0  0  0  0  0
  -27.0400  -18.4445   22.4929 C   0  0  0  0  0  0  0  0  0  0  0  0
  -32.9563  -26.5226   18.0612 C   0  0  0  0  0  0  0  0  0  0  0  0
  -25.9541  -17.6127   21.7960 C   0  0  0  0  0  0  0  0  0  0  0  0
  -30.3167  -29.4757   19.1918 C   0  0  0  0  0  0  0  0  0  0  0  0
  -30.7364  -28.4511   18.1132 C   0  0  2  0  0  0  0  0  0  0  0  0
  -25.8016  -28.7338   24.0508 C   0  0  1  0  0  0  0  0  0  0  0  0
  -25.8836  -25.0296   23.2497 C   0  0  2  0  0  0  0  0  0  0  0  0
  -25.9499  -29.2339   25.5155 C   0  0  0  0  0  0  0  0  0  0  0  0
  -30.4511  -30.9704   18.8134 C   0  0  0  0  0  0  0  0  0  1  0  0
  -26.0910  -11.6946   20.6847 N   0  0  0  0  0  0  0  0  0  0  0  0
  -26.2100  -12.9731   20.2881 N   0  0  0  0  0  0  0  0  0  0  0  0
  -25.0479  -30.1510   22.1673 N   0  0  0  0  0  0  0  0  0  0  0  0
  -29.6224  -14.6441   20.6716 N   0  0  0  0  0  0  0  0  0  0  0  0
  -24.9719  -14.9570   19.9115 N   0  0  0  0  0  0  0  0  0  0  0  0
  -21.8356  -12.0195   21.3010 N   0  0  0  0  0  0  0  0  0  0  0  0
  -29.8749  -23.0018   19.5353 N   0  0  0  0  0  0  0  0  0  0  0  0
  -29.1319  -16.8777   21.2485 N   0  0  0  0  0  0  0  0  0  0  0  0
  -23.1730  -32.8855   22.7810 N   0  0  0  0  0  0  0  0  0  0  0  0
  -25.5381  -27.3039   23.9313 N   0  0  0  0  0  0  0  0  0  0  0  0
  -29.9902  -28.8001   16.8555 N   0  3  0  0  0  0  0  0  0  0  0  0
  -25.5295  -24.5730   21.8760 N   0  3  0  0  0  0  0  0  0  0  0  0
  -27.6012  -22.9771   20.0454 O   0  0  0  0  0  0  0  0  0  0  0  0
  -22.1865  -14.1715   20.5909 O   0  0  0  0  0  0  0  0  0  0  0  0
  -25.3107  -32.9790   21.8624 O   0  0  0  0  0  0  0  0  0  0  0  0
  -23.5291  -29.3373   23.7380 O   0  0  0  0  0  0  0  0  0  0  0  0
  -27.3899  -26.8124   22.6250 O   0  0  0  0  0  0  0  0  0  0  0  0
  -31.2009  -16.3056   20.3688 O   0  0  0  0  0  0  0  0  0  0  0  0
  -22.7027   -6.7037   22.7242 O   0  0  0  0  0  0  0  0  0  0  0  0
  -29.3823  -31.3326   17.9400 O   0  0  0  0  0  0  0  0  0  1  0  0
  -19.1393   -6.8346   26.9301 F   0  0  0  0  0  0  0  0  0  0  0  0
  -23.2476   -5.3752   25.0867 F   0  0  0  0  0  0  0  0  0  0  0  0
  1  2  1  0  0  0  0
  1  6  2  0  0  0  0
  2  7  2  0  0  0  0
  3 12  2  0  0  0  0
  3 21  1  0  0  0  0
  4 13  1  0  0  0  0
  4 21  2  0  0  0  0
  5 10  2  0  0  0  0
  5 22  1  0  0  0  0
  6 24  1  0  0  0  0
  7 26  1  0  0  0  0
  8 14  2  0  0  0  0
  8 25  1  0  0  0  0
  9 11  2  0  0  0  0
  9 28  1  0  0  0  0
 10 32  1  0  0  0  0
 11 31  1  0  0  0  0
 12 33  1  0  0  0  0
 13 33  2  0  0  0  0
 14 34  1  0  0  0  0
 15 16  2  0  0  0  0
 15 35  1  0  0  0  0
 16 36  1  0  0  0  0
 17 22  2  0  0  0  0
 17 29  1  0  0  0  0
 18 27  1  0  0  0  0
 18 34  2  0  0  0  0
 19 30  1  0  0  0  0
 19 31  2  0  0  0  0
 20 36  2  0  0  0  0
 20 37  1  0  0  0  0
 21 38  1  0  0  0  0
 22 40  1  0  0  0  0
 23 38  1  0  0  0  0
 23 39  2  0  0  0  0
 23 41  1  0  0  0  0
 24 26  2  0  0  0  0
 24 46  1  0  0  0  0
 25 27  2  0  0  0  0
 25 47  1  0  0  0  0
 26 55  1  0  0  0  0
 27 48  1  0  0  0  0
 28 30  2  0  0  0  0
 28 71  1  0  0  0  0
 29 32  2  0  0  0  0
 29 67  1  0  0  0  0
 30 68  1  0  0  0  0
 31 82  1  0  0  0  0
 32 83  1  0  0  0  0
 33 94  1  0  0  0  0
 34 95  1  0  0  0  0
 35 37  2  0  0  0  0
 35 94  1  0  0  0  0
 36 96  1  0  0  0  0
 37 97  1  0  0  0  0
 38 76  2  0  0  0  0
 39 77  1  0  0  0  0
 39 80  1  0  0  0  0
 40 82  1  0  0  0  0
 40 88  2  0  0  0  0
 41 81  1  0  0  0  0
 41 89  2  0  0  0  0
 42 56  1  0  0  0  0
 42 84  1  0  0  0  0
 42 90  2  0  0  0  0
 43 72  1  0  0  0  0
 43 78  1  0  0  0  0
 43 91  2  0  0  0  0
 44 73  1  0  0  0  0
 44 85  1  0  0  0  0
 44 92  2  0  0  0  0
 45 79  1  0  0  0  0
 45 83  1  0  0  0  0
 45 93  2  0  0  0  0
 46 49  1  0  0  0  0
 47 56  1  0  0  0  0
 48 78  1  0  0  0  0
 49 51  1  0  0  0  0
 50 52  1  0  0  0  0
 50 53  1  0  0  0  0
 51 55  1  0  0  0  0
 52 57  1  0  0  0  0
 53 79  1  0  0  0  0
 54 57  1  0  0  0  0
 54 79  1  0  0  0  0
 55 84  1  0  0  0  0
 56 78  1  0  0  0  0
 57 77  1  0  0  0  0
 58 68  1  0  0  0  0
 59 69  1  0  0  0  0
 60 73  1  0  0  0  0
 61 74  1  0  0  0  0
 62 74  1  0  0  0  0
 63 74  1  0  0  0  0
 64 75  1  0  0  0  0
 65 75  1  0  0  0  0
 66 87  1  0  0  0  0
 67 69  1  0  0  0  0
 70 71  1  0  0  0  0
 70 75  1  0  0  0  0
 71 86  1  0  0  0  0
 72 74  1  0  0  0  0
 72 85  1  0  0  0  0
 73 87  1  0  0  0  0
 75 95  1  0  0  0  0
 76 77  1  0  0  0  0
M  CHG  2  86   1  87   1
M  ISO  4  45 100  75 101  83 100  95 101
M  END
> <Batch ID>
0136

> <Smiles>
CCCc1cc(C(=O)Nc2ccc(C(N)C[101C:1](C)(C)[101O:1]c3ccc4c(c3)CN(C(=O)C(NC(=O)C(C)NC)C(C)(C)C)C(C(=O)NC3CCCc5ccccc53)C4)c(CC)c2)ccc1[100NH:0][100C:0](=O)N1CCCC(n2nc(-c3ccc(Oc4ccc(F)cc4F)cc3)c(C(N)=O)c2N)C1

> <Shape>
0.297

> <Color>
0.119

> <Negative vol penalty>
0.000

$$$$

  -OEChem-04052302393D

 87 95  0     1  0  0  0  0  0999 V2000
  -19.9692  -31.2279   21.4224 C   0  0  0  0  0  0  0  0  0  0  0  0
  -21.2832  -30.7753   21.4861 C   0  0  0  0  0  0  0  0  0  0  0  0
  -26.8492  -12.1907   20.5839 C   0  0  0  0  0  0  0  0  0  0  0  0
  -25.0147  -13.7431   20.8326 C   0  0  0  0  0  0  0  0  0  0  0  0
  -18.9201  -30.3654   21.7377 C   0  0  0  0  0  0  0  0  0  0  0  0
  -21.5489  -29.4603   21.8662 C   0  0  0  0  0  0  0  0  0  0  0  0
  -25.0042  -27.2416   18.9025 C   0  0  0  0  0  0  0  0  0  0  0  0
  -25.9475  -11.1266   20.5749 C   0  0  0  0  0  0  0  0  0  0  0  0
  -24.1130  -12.6789   20.8235 C   0  0  0  0  0  0  0  0  0  0  0  0
  -26.3406  -27.5691   19.1276 C   0  0  0  0  0  0  0  0  0  0  0  0
  -22.6755  -10.6538   18.5316 C   0  0  0  0  0  0  0  0  0  0  0  0
  -21.5294  -10.7842   17.7474 C   0  0  0  0  0  0  0  0  0  0  0  0
  -26.6277  -25.5196   20.3671 C   0  0  0  0  0  0  0  0  0  0  0  0
  -31.4520  -22.2290   22.7562 C   0  0  0  0  0  0  0  0  0  0  0  0
  -30.4982  -23.3860   20.4037 C   0  0  0  0  0  0  0  0  0  0  0  0
  -20.1530  -10.5291   19.7165 C   0  0  0  0  0  0  0  0  0  0  0  0
  -26.3828  -13.4990   20.7128 C   0  0  0  0  0  0  0  0  0  0  0  0
  -27.7801  -15.3278   19.6125 C   0  0  0  0  0  0  0  0  0  0  0  0
  -19.1725  -29.0364   22.1126 C   0  0  0  0  0  0  0  0  0  0  0  0
  -24.4658  -26.0540   19.4182 C   0  0  0  0  0  0  0  0  0  0  0  0
  -20.5022  -28.5796   22.1882 C   0  0  0  0  0  0  0  0  0  0  0  0
  -25.2849  -25.1782   20.1450 C   0  0  0  0  0  0  0  0  0  0  0  0
  -32.1692  -23.2566   22.1438 C   0  0  0  0  0  0  0  0  0  0  0  0
  -31.6923  -23.8352   20.9676 C   0  0  0  0  0  0  0  0  0  0  0  0
  -29.7810  -22.3582   21.0161 C   0  0  0  0  0  0  0  0  0  0  0  0
  -30.2579  -21.7797   22.1923 C   0  0  0  0  0  0  0  0  0  0  0  0
  -24.5794  -11.3707   20.6947 C   0  0  0  0  0  0  0  0  0  0  0  0
  -27.1518  -26.7094   19.8624 C   0  0  0  0  0  0  0  0  0  0  0  0
  -22.5604  -10.4610   19.9083 C   0  0  0  0  0  0  0  0  0  0  0  0
  -20.2681  -10.7218   18.3398 C   0  0  0  0  0  0  0  0  0  0  0  0
  -21.2991  -10.3987   20.5008 C   0  0  0  0  0  0  0  0  0  0  0  0
  -27.3138  -14.5986   20.7228 C   0  0  0  0  0  0  0  0  0  0  0  0
  -28.6380  -16.2572   20.1479 C   0  0  0  0  0  0  0  0  0  0  0  0
  -27.4657  -15.1785   18.2217 C   0  0  0  0  0  0  0  0  0  0  0  0
  -22.1523  -25.3500   21.4812 C   0  0  0  0  0  0  0  0  0  0  0  0
  -31.1179  -26.8174   21.3940 C   0  0  0  0  0  0  0  0  0  0  0  0
  -22.7950  -22.3054   20.5649 C   0  0  0  0  0  0  0  0  0  0  0  0
  -25.0325  -19.6260   19.6532 C   0  0  0  0  0  0  0  0  0  0  0  0
  -29.8997  -20.0685   24.0061 C   0  0  0  0  0  0  0  0  0  0  0  0
  -18.0083  -28.1549   22.4900 C   0  0  0  0  0  0  0  0  0  0  0  0
  -23.0293  -25.7024   19.1440 C   0  0  0  0  0  0  0  0  0  0  0  0
  -24.7606  -23.8812   20.7030 C   0  0  0  0  0  0  0  0  0  0  0  0
  -18.3547  -26.6686   22.5214 C   0  0  0  0  0  0  0  0  0  0  0  0
  -30.5596  -16.6640   24.8130 C   0  0  0  0  0  0  0  0  0  0  0  0
  -19.6641  -26.4413   23.2702 C   0  0  0  0  0  0  0  0  0  0  0  0
  -29.8124  -15.8832   23.7295 C   0  0  0  0  0  0  0  0  0  0  0  0
  -29.7938  -17.9147   25.2410 C   0  0  0  0  0  0  0  0  0  0  0  0
  -28.6535  -18.0270   23.0600 C   0  0  0  0  0  0  0  0  0  0  0  0
  -20.8294  -27.1529   22.5723 C   0  0  1  0  0  0  0  0  0  0  0  0
  -22.4527  -24.7144   20.1533 C   0  0  1  0  0  0  0  0  0  0  0  0
  -29.4167  -16.7935   22.5504 C   0  0  2  0  0  0  0  0  0  0  0  0
  -33.4461  -23.7198   22.7648 C   0  0  0  0  0  0  0  0  0  0  0  0
  -24.5494  -17.2753   18.9196 C   0  0  0  0  0  0  0  0  0  0  0  0
  -23.1370  -21.6215   23.5187 C   0  0  0  0  0  0  0  0  0  0  0  0
  -24.2878  -19.5091   22.8246 C   0  0  0  0  0  0  0  0  0  0  0  0
  -21.9086  -19.8994   22.1846 C   0  0  0  0  0  0  0  0  0  0  0  0
  -27.9858  -29.1067   21.1604 C   0  0  0  0  0  0  0  0  0  0  0  0
  -28.2712  -26.9953   22.4806 C   0  0  0  0  0  0  0  0  0  0  0  0
  -26.6044  -19.9553   17.1673 C   0  0  0  0  0  0  0  0  0  0  0  0
  -32.4510  -24.9491   20.2874 C   0  0  0  0  0  0  0  0  0  0  0  0
  -31.6113  -26.2118   20.0887 C   0  0  0  0  0  0  0  0  0  0  0  0
  -30.2596  -28.0682   21.2965 C   0  0  0  0  0  0  0  0  0  0  0  0
  -23.7334  -21.2219   21.0386 C   0  0  1  0  0  0  0  0  0  0  0  0
  -24.8909  -18.6870   18.4688 C   0  0  2  0  0  0  0  0  0  0  0  0
  -23.2764  -20.5882   22.3829 C   0  0  0  0  0  0  0  0  0  0  0  0
  -28.7506  -27.7820   21.2586 C   0  0  0  0  0  0  0  0  0  1  0  0
  -27.8327  -15.0278   21.8763 N   0  0  0  0  0  0  0  0  0  0  0  0
  -28.6339  -16.0366   21.4938 N   0  0  0  0  0  0  0  0  0  0  0  0
  -23.3478  -23.5850   20.4133 N   0  0  0  0  0  0  0  0  0  0  0  0
  -29.4566  -18.7306   24.0724 N   0  0  0  0  0  0  0  0  0  0  0  0
  -28.5748  -21.9172   20.4271 N   0  0  0  0  0  0  0  0  0  0  0  0
  -29.3881  -17.2334   19.5939 N   0  0  0  0  0  0  0  0  0  0  0  0
  -26.5649  -14.1732   17.8445 N   0  0  0  0  0  0  0  0  0  0  0  0
  -29.5465  -20.7353   22.8334 N   0  0  0  0  0  0  0  0  0  0  0  0
  -21.2586  -26.4017   21.4122 N   0  0  0  0  0  0  0  0  0  0  0  0
  -23.8476  -20.2710   19.9381 N   0  0  0  0  0  0  0  0  0  0  0  0
  -26.1617  -18.6378   17.6919 N   0  3  0  0  0  0  0  0  0  0  0  0
  -27.9813  -15.9040   17.3377 O   0  0  0  0  0  0  0  0  0  0  0  0
  -22.6902  -24.9174   22.4937 O   0  0  0  0  0  0  0  0  0  0  0  0
  -31.4219  -26.3457   22.4901 O   0  0  0  0  0  0  0  0  0  0  0  0
  -21.6167  -22.0252   20.3309 O   0  0  0  0  0  0  0  0  0  0  0  0
  -26.0877  -19.7698   20.2667 O   0  0  0  0  0  0  0  0  0  0  0  0
  -30.5682  -20.5763   24.9101 O   0  0  0  0  0  0  0  0  0  0  0  0
  -23.6992  -10.3325   20.6856 O   0  0  0  0  0  0  0  0  0  0  0  0
  -28.4564  -27.0269   20.0840 O   0  0  0  0  0  0  0  0  0  1  0  0
  -19.1676  -10.8486   17.5868 F   0  0  0  0  0  0  0  0  0  0  0  0
  -21.1822  -10.2148   21.8230 F   0  0  0  0  0  0  0  0  0  0  0  0
  1  2  1  0  0  0  0
  1  5  2  0  0  0  0
  2  6  2  0  0  0  0
  3  8  2  0  0  0  0
  3 17  1  0  0  0  0
  4  9  1  0  0  0  0
  4 17  2  0  0  0  0
  5 19  1  0  0  0  0
  6 21  1  0  0  0  0
  7 10  2  0  0  0  0
  7 20  1  0  0  0  0
  8 27  1  0  0  0  0
  9 27  2  0  0  0  0
 10 28  1  0  0  0  0
 11 12  2  0  0  0  0
 11 29  1  0  0  0  0
 12 30  1  0  0  0  0
 13 22  1  0  0  0  0
 13 28  2  0  0  0  0
 14 23  1  0  0  0  0
 14 26  2  0  0  0  0
 15 24  1  0  0  0  0
 15 25  2  0  0  0  0
 16 30  2  0  0  0  0
 16 31  1  0  0  0  0
 17 32  1  0  0  0  0
 18 32  1  0  0  0  0
 18 33  2  0  0  0  0
 18 34  1  0  0  0  0
 19 21  2  0  0  0  0
 19 40  1  0  0  0  0
 20 22  2  0  0  0  0
 20 41  1  0  0  0  0
 21 49  1  0  0  0  0
 22 42  1  0  0  0  0
 23 24  2  0  0  0  0
 23 52  1  0  0  0  0
 24 60  1  0  0  0  0
 25 26  1  0  0  0  0
 25 71  1  0  0  0  0
 26 74  1  0  0  0  0
 27 84  1  0  0  0  0
 28 85  1  0  0  0  0
 29 31  2  0  0  0  0
 29 84  1  0  0  0  0
 30 86  1  0  0  0  0
 31 87  1  0  0  0  0
 32 67  2  0  0  0  0
 33 68  1  0  0  0  0
 33 72  1  0  0  0  0
 34 73  1  0  0  0  0
 34 78  2  0  0  0  0
 35 50  1  0  0  0  0
 35 75  1  0  0  0  0
 35 79  2  0  0  0  0
 36 61  1  0  0  0  0
 36 62  1  0  0  0  0
 36 80  2  0  0  0  0
 37 63  1  0  0  0  0
 37 69  1  0  0  0  0
 37 81  2  0  0  0  0
 38 64  1  0  0  0  0
 38 76  1  0  0  0  0
 38 82  2  0  0  0  0
 39 70  1  0  0  0  0
 39 74  1  0  0  0  0
 39 83  2  0  0  0  0
 40 43  1  0  0  0  0
 41 50  1  0  0  0  0
 42 69  1  0  0  0  0
 43 45  1  0  0  0  0
 44 46  1  0  0  0  0
 44 47  1  0  0  0  0
 45 49  1  0  0  0  0
 46 51  1  0  0  0  0
 47 70  1  0  0  0  0
 48 51  1  0  0  0  0
 48 70  1  0  0  0  0
 49 75  1  0  0  0  0
 50 69  1  0  0  0  0
 51 68  1  0  0  0  0
 53 64  1  0  0  0  0
 54 65  1  0  0  0  0
 55 65  1  0  0  0  0
 56 65  1  0  0  0  0
 57 66  1  0  0  0  0
 58 66  1  0  0  0  0
 59 77  1  0  0  0  0
 60 61  1  0  0  0  0
 62 66  1  0  0  0  0
 63 65  1  0  0  0  0
 63 76  1  0  0  0  0
 64 77  1  0  0  0  0
 66 85  1  0  0  0  0
 67 68  1  0  0  0  0
M  CHG  1  77   1
M  ISO  4  39 100  66 101  74 100  85 101
M  END
> <Batch ID>
0136

> <Smiles>
CNC(C)C(=O)NC(C(=O)N1Cc2cc([101O:1][101C:1](C)(C)CC(=O)CCc3cc(N)c([100NH:0][100C:0](=O)N4CCCC(n5nc(-c6ccc(Oc7ccc(F)cc7F)cc6)c(C(N)=O)c5N)C4)cc3C)ccc2CC1C(=O)NC1CCCc2ccccc21)C(C)(C)C

> <Shape>
0.205

> <Color>
0.058

> <Negative vol penalty>
0.000

$$$$

  -OEChem-04052302393D

 88 96  0     1  0  0  0  0  0999 V2000
  -30.2125  -25.2049   17.4871 C   0  0  0  0  0  0  0  0  0  0  0  0
  -28.9878  -25.8466   17.3413 C   0  0  0  0  0  0  0  0  0  0  0  0
  -23.9169  -13.3604   21.3057 C   0  0  0  0  0  0  0  0  0  0  0  0
  -25.8438  -14.1183   20.0607 C   0  0  0  0  0  0  0  0  0  0  0  0
  -30.7999  -25.1104   18.7469 C   0  0  0  0  0  0  0  0  0  0  0  0
  -28.3558  -26.4044   18.4532 C   0  0  0  0  0  0  0  0  0  0  0  0
  -22.9149  -29.0960   18.9814 C   0  0  0  0  0  0  0  0  0  0  0  0
  -23.6573  -23.1723   21.1589 C   0  0  0  0  0  0  0  0  0  0  0  0
  -24.4283  -12.0626   21.3071 C   0  0  0  0  0  0  0  0  0  0  0  0
  -26.3552  -12.8206   20.0622 C   0  0  0  0  0  0  0  0  0  0  0  0
  -21.6077  -28.7225   19.2903 C   0  0  0  0  0  0  0  0  0  0  0  0
  -22.3706  -23.6243   21.4516 C   0  0  0  0  0  0  0  0  0  0  0  0
  -25.0538   -8.4805   21.3268 C   0  0  0  0  0  0  0  0  0  0  0  0
  -24.1778   -7.4363   21.0304 C   0  0  0  0  0  0  0  0  0  0  0  0
  -21.6249  -22.9170   19.2651 C   0  0  0  0  0  0  0  0  0  0  0  0
  -21.9622  -29.3972   21.5790 C   0  0  0  0  0  0  0  0  0  0  0  0
  -23.7471   -8.4129   18.8629 C   0  0  0  0  0  0  0  0  0  0  0  0
  -24.6246  -14.3882   20.6824 C   0  0  0  0  0  0  0  0  0  0  0  0
  -22.9116  -22.4649   18.9725 C   0  0  0  0  0  0  0  0  0  0  0  0
  -24.3223  -16.7331   21.6404 C   0  0  0  0  0  0  0  0  0  0  0  0
  -30.1682  -25.6567   19.8763 C   0  0  0  0  0  0  0  0  0  0  0  0
  -23.7605  -29.6136   19.9731 C   0  0  0  0  0  0  0  0  0  0  0  0
  -28.9441  -26.3404   19.7293 C   0  0  0  0  0  0  0  0  0  0  0  0
  -23.2789  -29.7789   21.2796 C   0  0  0  0  0  0  0  0  0  0  0  0
  -23.9278  -22.5926   19.9193 C   0  0  0  0  0  0  0  0  0  0  0  0
  -25.6474  -11.7927   20.6854 C   0  0  0  0  0  0  0  0  0  0  0  0
  -21.3544  -23.4967   20.5047 C   0  0  0  0  0  0  0  0  0  0  0  0
  -21.1320  -28.8704   20.5899 C   0  0  0  0  0  0  0  0  0  0  0  0
  -25.2763   -9.4910   20.3914 C   0  0  0  0  0  0  0  0  0  0  0  0
  -23.5245   -7.4024   19.7984 C   0  0  0  0  0  0  0  0  0  0  0  0
  -24.6230   -9.4572   19.1594 C   0  0  0  0  0  0  0  0  0  0  0  0
  -24.0966  -15.7288   20.6801 C   0  0  0  0  0  0  0  0  0  0  0  0
  -23.6046  -17.8117   21.1846 C   0  0  0  0  0  0  0  0  0  0  0  0
  -23.1665  -21.8633   17.6706 C   0  0  0  0  0  0  0  0  0  0  0  0
  -25.1105  -16.6944   22.8376 C   0  0  0  0  0  0  0  0  0  0  0  0
  -22.1059  -21.1324   16.9398 C   0  0  0  0  0  0  0  0  0  0  0  0
  -26.5144  -28.7020   21.2726 C   0  0  0  0  0  0  0  0  0  0  0  0
  -18.7332  -25.8533   21.3662 C   0  0  0  0  0  0  0  0  0  0  0  0
  -26.3108  -31.5731   22.7685 C   0  0  0  0  0  0  0  0  0  0  0  0
  -24.3391  -34.1263   23.8822 C   0  0  0  0  0  0  0  0  0  0  0  0
  -30.8524  -25.5326   21.2149 C   0  0  0  0  0  0  0  0  0  0  0  0
  -25.1594  -30.0368   19.6177 C   0  0  0  0  0  0  0  0  0  0  0  0
  -24.1400  -30.3486   22.3761 C   0  0  0  0  0  0  0  0  0  0  0  0
  -29.9060  -25.7588   22.3894 C   0  0  0  0  0  0  0  0  0  0  0  0
  -20.1617  -18.1737   17.5080 C   0  0  0  0  0  0  0  0  0  0  0  0
  -29.1098  -27.0376   22.1766 C   0  0  0  0  0  0  0  0  0  0  0  0
  -21.0491  -17.3401   18.4318 C   0  0  0  0  0  0  0  0  0  0  0  0
  -20.9917  -18.9773   16.5122 C   0  0  0  0  0  0  0  0  0  0  0  0
  -22.9121  -19.0227   18.0802 C   0  0  0  0  0  0  0  0  0  0  0  0
  -28.2236  -26.9279   20.9293 C   0  0  1  0  0  0  0  0  0  0  0  0
  -26.0966  -30.0728   20.8210 C   0  0  1  0  0  0  0  0  0  0  0  0
  -22.1104  -18.2183   19.1183 C   0  0  2  0  0  0  0  0  0  0  0  0
  -26.2627  -23.2655   19.3011 C   0  0  0  0  0  0  0  0  0  0  0  0
  -24.4545  -36.3169   25.1010 C   0  0  0  0  0  0  0  0  0  0  0  0
  -17.1491  -27.7736   21.7302 C   0  0  0  0  0  0  0  0  0  0  0  0
  -18.1576  -26.6329   23.7031 C   0  0  0  0  0  0  0  0  0  0  0  0
  -26.6730  -30.0835   25.4066 C   0  0  0  0  0  0  0  0  0  0  0  0
  -25.8421  -32.1254   26.5934 C   0  0  0  0  0  0  0  0  0  0  0  0
  -27.9359  -32.2357   25.2420 C   0  0  0  0  0  0  0  0  0  0  0  0
  -23.2481  -35.6065   21.5632 C   0  0  0  0  0  0  0  0  0  0  0  0
  -25.3147  -22.1171   19.6323 C   0  0  0  0  0  0  0  0  0  0  0  0
  -19.9775  -25.0379   21.6813 C   0  0  0  0  0  0  0  0  0  0  0  0
  -19.6110  -28.0514   22.2244 C   0  0  0  0  0  0  0  0  0  1  0  0
  -25.7066  -32.0643   24.0619 C   0  0  1  0  0  0  0  0  0  0  0  0
  -24.4674  -35.6325   23.7430 C   0  0  2  0  0  0  0  0  0  0  0  0
  -18.4191  -27.0773   22.2562 C   0  0  0  0  0  0  0  0  0  0  0  0
  -26.5235  -31.6146   25.3060 C   0  0  0  0  0  0  0  0  0  0  0  0
  -23.2978  -16.1334   19.6890 N   0  0  0  0  0  0  0  0  0  0  0  0
  -24.3220  -21.9264   17.0685 N   0  0  0  0  0  0  0  0  0  0  0  0
  -23.0152  -17.4037   20.0242 N   0  0  0  0  0  0  0  0  0  0  0  0
  -22.0121  -19.7712   17.1938 N   0  0  0  0  0  0  0  0  0  0  0  0
  -25.5025  -30.7417   21.9803 N   0  0  0  0  0  0  0  0  0  0  0  0
  -23.4263  -19.0598   21.6671 N   0  0  0  0  0  0  0  0  0  0  0  0
  -25.7829  -15.5068   23.1567 N   0  0  0  0  0  0  0  0  0  0  0  0
  -27.6480  -28.2237   20.6438 N   0  0  0  0  0  0  0  0  0  0  0  0
  -25.5720  -33.5106   23.9262 N   0  0  0  0  0  0  0  0  0  0  0  0
  -23.3409  -36.1756   22.9324 N   0  3  0  0  0  0  0  0  0  0  0  0
  -25.2020  -17.6784   23.6101 O   0  0  0  0  0  0  0  0  0  0  0  0
  -21.4217  -21.8112   16.1851 O   0  0  0  0  0  0  0  0  0  0  0  0
  -25.8577  -28.1219   22.1293 O   0  0  0  0  0  0  0  0  0  0  0  0
  -18.0199  -25.5572   20.4044 O   0  0  0  0  0  0  0  0  0  0  0  0
  -27.4549  -31.9203   22.4653 O   0  0  0  0  0  0  0  0  0  0  0  0
  -23.2537  -33.5536   23.9493 O   0  0  0  0  0  0  0  0  0  0  0  0
  -26.1469  -10.5266   20.6869 O   0  0  0  0  0  0  0  0  0  0  0  0
  -20.0875  -23.9430   20.7929 O   0  0  0  0  0  0  0  0  0  0  0  0
  -19.8567  -28.5060   20.8943 O   0  0  0  0  0  0  0  0  0  1  0  0
  -22.6845   -6.3988   19.5133 F   0  0  0  0  0  0  0  0  0  0  0  0
  -24.8337  -10.4245   18.2563 F   0  0  0  0  0  0  0  0  0  0  0  0
  1  2  1  0  0  0  0
  1  5  2  0  0  0  0
  2  6  2  0  0  0  0
  3  9  2  0  0  0  0
  3 18  1  0  0  0  0
  4 10  1  0  0  0  0
  4 18  2  0  0  0  0
  5 21  1  0  0  0  0
  6 23  1  0  0  0  0
  7 11  2  0  0  0  0
  7 22  1  0  0  0  0
  8 12  2  0  0  0  0
  8 25  1  0  0  0  0
  9 26  1  0  0  0  0
 10 26  2  0  0  0  0
 11 28  1  0  0  0  0
 12 27  1  0  0  0  0
 13 14  2  0  0  0  0
 13 29  1  0  0  0  0
 14 30  1  0  0  0  0
 15 19  1  0  0  0  0
 15 27  2  0  0  0  0
 16 24  1  0  0  0  0
 16 28  2  0  0  0  0
 17 30  2  0  0  0  0
 17 31  1  0  0  0  0
 18 32  1  0  0  0  0
 19 25  2  0  0  0  0
 19 34  1  0  0  0  0
 20 32  1  0  0  0  0
 20 33  2  0  0  0  0
 20 35  1  0  0  0  0
 21 23  2  0  0  0  0
 21 41  1  0  0  0  0
 22 24  2  0  0  0  0
 22 42  1  0  0  0  0
 23 50  1  0  0  0  0
 24 43  1  0  0  0  0
 25 61  1  0  0  0  0
 26 84  1  0  0  0  0
 27 85  1  0  0  0  0
 28 86  1  0  0  0  0
 29 31  2  0  0  0  0
 29 84  1  0  0  0  0
 30 87  1  0  0  0  0
 31 88  1  0  0  0  0
 32 68  2  0  0  0  0
 33 70  1  0  0  0  0
 33 73  1  0  0  0  0
 34 36  1  0  0  0  0
 34 69  2  0  0  0  0
 35 74  1  0  0  0  0
 35 78  2  0  0  0  0
 36 71  1  0  0  0  0
 36 79  2  0  0  0  0
 37 51  1  0  0  0  0
 37 75  1  0  0  0  0
 37 80  2  0  0  0  0
 38 62  1  0  0  0  0
 38 66  1  0  0  0  0
 38 81  2  0  0  0  0
 39 64  1  0  0  0  0
 39 72  1  0  0  0  0
 39 82  2  0  0  0  0
 40 65  1  0  0  0  0
 40 76  1  0  0  0  0
 40 83  2  0  0  0  0
 41 44  1  0  0  0  0
 42 51  1  0  0  0  0
 43 72  1  0  0  0  0
 44 46  1  0  0  0  0
 45 47  1  0  0  0  0
 45 48  1  0  0  0  0
 46 50  1  0  0  0  0
 47 52  1  0  0  0  0
 48 71  1  0  0  0  0
 49 52  1  0  0  0  0
 49 71  1  0  0  0  0
 50 75  1  0  0  0  0
 51 72  1  0  0  0  0
 52 70  1  0  0  0  0
 53 61  1  0  0  0  0
 54 65  1  0  0  0  0
 55 66  1  0  0  0  0
 56 66  1  0  0  0  0
 57 67  1  0  0  0  0
 58 67  1  0  0  0  0
 59 67  1  0  0  0  0
 60 77  1  0  0  0  0
 62 85  1  0  0  0  0
 63 66  1  0  0  0  0
 63 86  1  0  0  0  0
 64 67  1  0  0  0  0
 64 76  1  0  0  0  0
 65 77  1  0  0  0  0
 68 70  1  0  0  0  0
M  CHG  1  77   1
M  ISO  4  34 100  36 100  63 101  86 101
M  END
> <Batch ID>
0136

> <Smiles>
CCc1ccc(OCC(=O)C(C)(C)[101CH2:1][101O:1]c2ccc3c(c2)CN(C(=O)C(NC(=O)C(C)NC)C(C)(C)C)C(C(=O)NC2CCCc4ccccc42)C3)cc1[100C:0](=N)[100C:0](=O)N1CCCC(n2nc(-c3ccc(Oc4ccc(F)cc4F)cc3)c(C(N)=O)c2N)C1

> <Shape>
0.266

> <Color>
0.072

> <Negative vol penalty>
0.000

$$$$

  -OEChem-04052302393D

 88 96  0     1  0  0  0  0  0999 V2000
  -20.7257  -30.4750   23.8947 C   0  0  0  0  0  0  0  0  0  0  0  0
  -21.9233  -29.8251   23.6139 C   0  0  0  0  0  0  0  0  0  0  0  0
  -24.4255   -9.9228   21.4605 C   0  0  0  0  0  0  0  0  0  0  0  0
  -24.7476  -10.9864   23.6058 C   0  0  0  0  0  0  0  0  0  0  0  0
  -19.5124  -29.8254   23.6718 C   0  0  0  0  0  0  0  0  0  0  0  0
  -21.9082  -28.5246   23.1109 C   0  0  0  0  0  0  0  0  0  0  0  0
  -25.1347  -27.8938   19.2591 C   0  0  0  0  0  0  0  0  0  0  0  0
  -24.0615   -8.7389   22.1021 C   0  0  0  0  0  0  0  0  0  0  0  0
  -24.3836   -9.8025   24.2474 C   0  0  0  0  0  0  0  0  0  0  0  0
  -26.4844  -27.7477   19.5765 C   0  0  0  0  0  0  0  0  0  0  0  0
  -22.6992   -5.5437   23.1743 C   0  0  0  0  0  0  0  0  0  0  0  0
  -21.5796   -4.8639   22.6948 C   0  0  0  0  0  0  0  0  0  0  0  0
  -26.2814  -25.3584   19.3133 C   0  0  0  0  0  0  0  0  0  0  0  0
  -27.9316  -21.3599   22.3116 C   0  0  0  0  0  0  0  0  0  0  0  0
  -30.2033  -19.8909   21.6304 C   0  0  0  0  0  0  0  0  0  0  0  0
  -20.2068   -6.7968   23.1601 C   0  0  0  0  0  0  0  0  0  0  0  0
  -24.7686  -11.0465   22.2124 C   0  0  0  0  0  0  0  0  0  0  0  0
  -24.2946  -13.3202   21.1573 C   0  0  0  0  0  0  0  0  0  0  0  0
  -19.4822  -28.5198   23.1567 C   0  0  0  0  0  0  0  0  0  0  0  0
  -24.3443  -26.7705   18.9766 C   0  0  0  0  0  0  0  0  0  0  0  0
  -20.6934  -27.8564   22.8822 C   0  0  0  0  0  0  0  0  0  0  0  0
  -24.9225  -25.4931   18.9901 C   0  0  0  0  0  0  0  0  0  0  0  0
  -27.7995  -20.0730   21.7901 C   0  0  0  0  0  0  0  0  0  0  0  0
  -28.9353  -19.3385   21.4496 C   0  0  0  0  0  0  0  0  0  0  0  0
  -24.0406   -8.6788   23.4955 C   0  0  0  0  0  0  0  0  0  0  0  0
  -27.0572  -26.4796   19.6065 C   0  0  0  0  0  0  0  0  0  0  0  0
  -22.5726   -6.8500   23.6468 C   0  0  0  0  0  0  0  0  0  0  0  0
  -29.1996  -21.9124   22.4924 C   0  0  0  0  0  0  0  0  0  0  0  0
  -20.3334   -5.4904   22.6876 C   0  0  0  0  0  0  0  0  0  0  0  0
  -30.3354  -21.1779   22.1518 C   0  0  0  0  0  0  0  0  0  0  0  0
  -21.3264   -7.4765   23.6397 C   0  0  0  0  0  0  0  0  0  0  0  0
  -25.1452  -12.2696   21.5502 C   0  0  0  0  0  0  0  0  0  0  0  0
  -25.1320  -14.2408   20.5761 C   0  0  0  0  0  0  0  0  0  0  0  0
  -22.8745  -13.4523   21.3045 C   0  0  0  0  0  0  0  0  0  0  0  0
  -21.7731  -25.4476   20.2967 C   0  0  0  0  0  0  0  0  0  0  0  0
  -29.4379  -25.5297   22.4789 C   0  0  0  0  0  0  0  0  0  0  0  0
  -21.9185  -23.5076   17.7009 C   0  0  0  0  0  0  0  0  0  0  0  0
  -23.8102  -22.1249   15.2198 C   0  0  0  0  0  0  0  0  0  0  0  0
  -29.8602  -17.1811   20.5348 C   0  0  0  0  0  0  0  0  0  0  0  0
  -18.1474  -27.8411   22.9769 C   0  0  0  0  0  0  0  0  0  0  0  0
  -22.8963  -26.9473   18.6099 C   0  0  0  0  0  0  0  0  0  0  0  0
  -24.1221  -24.2569   18.6747 C   0  0  0  0  0  0  0  0  0  0  0  0
  -18.2095  -26.6007   22.0893 C   0  0  0  0  0  0  0  0  0  0  0  0
  -29.9948  -13.8753   19.2191 C   0  0  0  0  0  0  0  0  0  0  0  0
  -19.3857  -25.7158   22.4900 C   0  0  0  0  0  0  0  0  0  0  0  0
  -28.6751  -13.2493   19.6760 C   0  0  0  0  0  0  0  0  0  0  0  0
  -30.5728  -14.8146   20.2762 C   0  0  0  0  0  0  0  0  0  0  0  0
  -28.3315  -15.2266   21.2119 C   0  0  0  0  0  0  0  0  0  0  0  0
  -20.7176  -26.4547   22.3122 C   0  0  1  0  0  0  0  0  0  0  0  0
  -22.0632  -25.6906   18.8426 C   0  0  1  0  0  0  0  0  0  0  0  0
  -27.6777  -14.3228   20.1539 C   0  0  2  0  0  0  0  0  0  0  0  0
  -25.9801  -19.5390   20.1496 C   0  0  0  0  0  0  0  0  0  0  0  0
  -31.8437  -27.0891   23.4058 C   0  0  0  0  0  0  0  0  0  0  0  0
  -23.6584  -20.5490   13.2727 C   0  0  0  0  0  0  0  0  0  0  0  0
  -21.8750  -21.1393   19.6243 C   0  0  0  0  0  0  0  0  0  0  0  0
  -22.6710  -19.6884   17.7456 C   0  0  0  0  0  0  0  0  0  0  0  0
  -20.4682  -20.8469   17.5774 C   0  0  0  0  0  0  0  0  0  0  0  0
  -24.6059  -24.2338   13.3019 C   0  0  0  0  0  0  0  0  0  0  0  0
  -26.4289  -19.5064   21.6071 C   0  0  0  0  0  0  0  0  0  0  0  0
  -29.9784  -24.1402   22.1992 C   0  0  0  0  0  0  0  0  0  0  0  0
  -30.7392  -27.7057   22.5561 C   0  0  0  0  0  0  0  0  0  0  0  0
  -28.9449  -27.3013   20.7971 C   0  0  0  0  0  0  0  0  0  1  0  0
  -30.0433  -26.6699   21.6580 C   0  0  2  0  0  0  0  0  0  0  0  0
  -22.5968  -22.1971   17.3824 C   0  0  1  0  0  0  0  0  0  0  0  0
  -23.5750  -21.9984   13.7254 C   0  0  2  0  0  0  0  0  0  0  0  0
  -21.9176  -20.9908   18.0903 C   0  0  0  0  0  0  0  0  0  0  0  0
  -26.4247  -12.5002   21.2443 N   0  0  0  0  0  0  0  0  0  0  0  0
  -26.3844  -13.7063   20.6529 N   0  0  0  0  0  0  0  0  0  0  0  0
  -22.7089  -24.4812   18.3281 N   0  0  0  0  0  0  0  0  0  0  0  0
  -29.5734  -15.8070   20.6775 N   0  0  0  0  0  0  0  0  0  0  0  0
  -24.9118  -15.4473   20.0118 N   0  0  0  0  0  0  0  0  0  0  0  0
  -22.1676  -12.4132   21.9250 N   0  0  0  0  0  0  0  0  0  0  0  0
  -28.8222  -18.0297   20.9185 N   0  0  0  0  0  0  0  0  0  0  0  0
  -21.0981  -26.4820   20.9162 N   0  0  0  0  0  0  0  0  0  0  0  0
  -22.6271  -22.0963   15.9273 N   0  0  0  0  0  0  0  0  0  0  0  0
  -24.5925  -22.7852   12.9725 N   0  3  0  0  0  0  0  0  0  0  0  0
  -22.2487  -14.4545   20.8832 O   0  0  0  0  0  0  0  0  0  0  0  0
  -22.1335  -24.3986   20.8176 O   0  0  0  0  0  0  0  0  0  0  0  0
  -28.5442  -25.7217   23.3034 O   0  0  0  0  0  0  0  0  0  0  0  0
  -20.7331  -23.6644   17.3979 O   0  0  0  0  0  0  0  0  0  0  0  0
  -24.9317  -22.2340   15.7107 O   0  0  0  0  0  0  0  0  0  0  0  0
  -30.9363  -17.5754   20.0783 O   0  0  0  0  0  0  0  0  0  0  0  0
  -23.6852   -7.5238   24.1219 O   0  0  0  0  0  0  0  0  0  0  0  0
  -29.3286  -23.1809   23.0064 O   0  0  0  0  0  0  0  0  0  0  0  0
  -28.3743  -26.3341   19.9166 O   0  0  0  0  0  0  0  0  0  1  0  0
  -19.2586   -4.8381   22.2256 F   0  0  0  0  0  0  0  0  0  0  0  0
  -31.5563  -21.7034   22.3233 F   0  0  0  0  0  0  0  0  0  0  0  0
  -21.1988   -8.7318   24.0913 F   0  0  0  0  0  0  0  0  0  0  0  0
  1  2  1  0  0  0  0
  1  5  2  0  0  0  0
  2  6  2  0  0  0  0
  3  8  2  0  0  0  0
  3 17  1  0  0  0  0
  4  9  1  0  0  0  0
  4 17  2  0  0  0  0
  5 19  1  0  0  0  0
  6 21  1  0  0  0  0
  7 10  2  0  0  0  0
  7 20  1  0  0  0  0
  8 25  1  0  0  0  0
  9 25  2  0  0  0  0
 10 26  1  0  0  0  0
 11 12  2  0  0  0  0
 11 27  1  0  0  0  0
 12 29  1  0  0  0  0
 13 22  1  0  0  0  0
 13 26  2  0  0  0  0
 14 23  1  0  0  0  0
 14 28  2  0  0  0  0
 15 24  1  0  0  0  0
 15 30  2  0  0  0  0
 16 29  2  0  0  0  0
 16 31  1  0  0  0  0
 17 32  1  0  0  0  0
 18 32  1  0  0  0  0
 18 33  2  0  0  0  0
 18 34  1  0  0  0  0
 19 21  2  0  0  0  0
 19 40  1  0  0  0  0
 20 22  2  0  0  0  0
 20 41  1  0  0  0  0
 21 49  1  0  0  0  0
 22 42  1  0  0  0  0
 23 24  2  0  0  0  0
 23 59  1  0  0  0  0
 24 73  1  0  0  0  0
 25 83  1  0  0  0  0
 26 85  1  0  0  0  0
 27 31  2  0  0  0  0
 27 83  1  0  0  0  0
 28 30  1  0  0  0  0
 28 84  1  0  0  0  0
 29 86  1  0  0  0  0
 30 87  1  0  0  0  0
 31 88  1  0  0  0  0
 32 67  2  0  0  0  0
 33 68  1  0  0  0  0
 33 71  1  0  0  0  0
 34 72  1  0  0  0  0
 34 77  2  0  0  0  0
 35 50  1  0  0  0  0
 35 74  1  0  0  0  0
 35 78  2  0  0  0  0
 36 60  1  0  0  0  0
 36 63  1  0  0  0  0
 36 79  2  0  0  0  0
 37 64  1  0  0  0  0
 37 69  1  0  0  0  0
 37 80  2  0  0  0  0
 38 65  1  0  0  0  0
 38 75  1  0  0  0  0
 38 81  2  0  0  0  0
 39 70  1  0  0  0  0
 39 73  1  0  0  0  0
 39 82  2  0  0  0  0
 40 43  1  0  0  0  0
 41 50  1  0  0  0  0
 42 69  1  0  0  0  0
 43 45  1  0  0  0  0
 44 46  1  0  0  0  0
 44 47  1  0  0  0  0
 45 49  1  0  0  0  0
 46 51  1  0  0  0  0
 47 70  1  0  0  0  0
 48 51  1  0  0  0  0
 48 70  1  0  0  0  0
 49 74  1  0  0  0  0
 50 69  1  0  0  0  0
 51 68  1  0  0  0  0
 52 59  1  0  0  0  0
 53 61  1  0  0  0  0
 54 65  1  0  0  0  0
 55 66  1  0  0  0  0
 56 66  1  0  0  0  0
 57 66  1  0  0  0  0
 58 76  1  0  0  0  0
 60 84  1  0  0  0  0
 61 63  1  0  0  0  0
 62 63  1  0  0  0  0
 62 85  1  0  0  0  0
 64 66  1  0  0  0  0
 64 75  1  0  0  0  0
 65 76  1  0  0  0  0
 67 68  1  0  0  0  0
M  CHG  1  76   1
M  ISO  4  39 100  62 101  73 100  85 101
M  END
> <Batch ID>
0136

> <Smiles>
CCc1cc(OCC(=O)C(CC)[101CH2:1][101O:1]c2ccc3c(c2)CN(C(=O)C(NC(=O)C(C)NC)C(C)(C)C)C(C(=O)NC2CCCc4ccccc42)C3)c(F)cc1[100NH:0][100C:0](=O)N1CCCC(n2nc(-c3ccc(Oc4ccc(F)cc4F)cc3)c(C(N)=O)c2N)C1

> <Shape>
0.261

> <Color>
0.128

> <Negative vol penalty>
0.000

$$$$

  -OEChem-04052302393D

 89 97  0     1  0  0  0  0  0999 V2000
  -25.0639  -31.6615   20.1238 C   0  0  0  0  0  0  0  0  0  0  0  0
  -25.3036  -30.2915   20.1544 C   0  0  0  0  0  0  0  0  0  0  0  0
  -23.4812   -9.7851   21.8362 C   0  0  0  0  0  0  0  0  0  0  0  0
  -24.1179  -11.0362   23.8024 C   0  0  0  0  0  0  0  0  0  0  0  0
  -24.3710  -32.2703   21.1694 C   0  0  0  0  0  0  0  0  0  0  0  0
  -24.8515  -29.5296   21.2312 C   0  0  0  0  0  0  0  0  0  0  0  0
  -22.6615  -25.2046   19.7672 C   0  0  0  0  0  0  0  0  0  0  0  0
  -22.8555   -8.8350   22.6433 C   0  0  0  0  0  0  0  0  0  0  0  0
  -23.4922  -10.0862   24.6096 C   0  0  0  0  0  0  0  0  0  0  0  0
  -23.5043  -24.1596   19.3910 C   0  0  0  0  0  0  0  0  0  0  0  0
  -19.9414   -8.5309   24.3310 C   0  0  0  0  0  0  0  0  0  0  0  0
  -18.6737   -8.0907   23.9503 C   0  0  0  0  0  0  0  0  0  0  0  0
  -27.7487  -18.2907   20.1887 C   0  0  0  0  0  0  0  0  0  0  0  0
  -25.5450  -18.8397   21.0126 C   0  0  0  0  0  0  0  0  0  0  0  0
  -23.2051  -23.1457   21.5593 C   0  0  0  0  0  0  0  0  0  0  0  0
  -26.8760  -17.1702   22.1432 C   0  0  0  0  0  0  0  0  0  0  0  0
  -19.5083   -5.8294   23.7862 C   0  0  0  0  0  0  0  0  0  0  0  0
  -24.1125  -10.8857   22.4157 C   0  0  0  0  0  0  0  0  0  0  0  0
  -26.5705  -19.0301   20.0864 C   0  0  0  0  0  0  0  0  0  0  0  0
  -24.1830  -13.0272   21.0313 C   0  0  0  0  0  0  0  0  0  0  0  0
  -23.9017  -31.5139   22.2548 C   0  0  0  0  0  0  0  0  0  0  0  0
  -22.0919  -25.2336   21.0482 C   0  0  0  0  0  0  0  0  0  0  0  0
  -24.1528  -30.1290   22.2929 C   0  0  0  0  0  0  0  0  0  0  0  0
  -22.3534  -24.1908   21.9484 C   0  0  0  0  0  0  0  0  0  0  0  0
  -27.9015  -17.3607   21.2170 C   0  0  0  0  0  0  0  0  0  0  0  0
  -22.8610   -8.9856   24.0300 C   0  0  0  0  0  0  0  0  0  0  0  0
  -23.7786  -23.1315   20.2881 C   0  0  0  0  0  0  0  0  0  0  0  0
  -20.9925   -7.6203   24.4391 C   0  0  0  0  0  0  0  0  0  0  0  0
  -18.4571   -6.7400   23.6780 C   0  0  0  0  0  0  0  0  0  0  0  0
  -25.6977  -17.9097   22.0410 C   0  0  0  0  0  0  0  0  0  0  0  0
  -20.7760   -6.2696   24.1667 C   0  0  0  0  0  0  0  0  0  0  0  0
  -24.7595  -11.8672   21.5826 C   0  0  0  0  0  0  0  0  0  0  0  0
  -25.2042  -13.6165   20.3268 C   0  0  0  0  0  0  0  0  0  0  0  0
  -26.4071  -20.0131   18.9963 C   0  0  0  0  0  0  0  0  0  0  0  0
  -22.8443  -13.5275   21.1461 C   0  0  0  0  0  0  0  0  0  0  0  0
  -22.2588  -27.2088   23.5331 C   0  0  0  0  0  0  0  0  0  0  0  0
  -19.9689  -25.2556   24.7428 C   0  0  0  0  0  0  0  0  0  0  0  0
  -30.9493  -14.3898   20.7048 C   0  0  0  0  0  0  0  0  0  0  0  0
  -18.4917  -22.1791   24.7481 C   0  0  0  0  0  0  0  0  0  0  0  0
  -29.4182  -15.6476   22.2752 C   0  0  0  0  0  0  0  0  0  0  0  0
  -23.1988  -32.2240   23.3846 C   0  0  0  0  0  0  0  0  0  0  0  0
  -21.1636  -26.3541   21.4293 C   0  0  0  0  0  0  0  0  0  0  0  0
  -21.7507  -24.1647   23.3285 C   0  0  0  0  0  0  0  0  0  0  0  0
  -22.4265  -31.2848   24.3075 C   0  0  0  0  0  0  0  0  0  0  0  0
  -29.4791  -12.0616   18.4117 C   0  0  0  0  0  0  0  0  0  0  0  0
  -23.2818  -30.0770   24.6771 C   0  0  0  0  0  0  0  0  0  0  0  0
  -28.0666  -11.8617   18.9593 C   0  0  0  0  0  0  0  0  0  0  0  0
  -30.4911  -12.2595   19.5359 C   0  0  0  0  0  0  0  0  0  0  0  0
  -28.7368  -13.1749   21.0212 C   0  0  0  0  0  0  0  0  0  0  0  0
  -23.6567  -29.2647   23.4317 C   0  0  1  0  0  0  0  0  0  0  0  0
  -21.0480  -26.5472   22.9382 C   0  0  1  0  0  0  0  0  0  0  0  0
  -27.6786  -13.0020   19.9173 C   0  0  2  0  0  0  0  0  0  0  0  0
  -16.6686  -20.8712   25.8720 C   0  0  0  0  0  0  0  0  0  0  0  0
  -27.4398  -21.7571   20.5887 C   0  0  0  0  0  0  0  0  0  0  0  0
  -27.9047  -21.8098   18.1254 C   0  0  0  0  0  0  0  0  0  0  0  0
  -31.8849  -16.1545   22.1025 C   0  0  0  0  0  0  0  0  0  0  0  0
  -31.1257  -14.0134   23.1488 C   0  0  0  0  0  0  0  0  0  0  0  0
  -21.7300  -24.9277   27.2128 C   0  0  0  0  0  0  0  0  0  0  0  0
  -20.3554  -22.9320   27.8422 C   0  0  0  0  0  0  0  0  0  0  0  0
  -19.2899  -25.1829   27.6978 C   0  0  0  0  0  0  0  0  0  0  0  0
  -17.0456  -21.7809   22.1968 C   0  0  0  0  0  0  0  0  0  0  0  0
  -25.6285  -22.4098   18.9793 C   0  0  0  0  0  0  0  0  0  1  0  0
  -19.9685  -23.9942   25.5722 C   0  0  1  0  0  0  0  0  0  0  0  0
  -17.0331  -21.7620   24.6945 C   0  0  2  0  0  0  0  0  0  0  0  0
  -26.8482  -21.4824   19.1940 C   0  0  0  0  0  0  0  0  0  0  0  0
  -30.8222  -15.0469   22.0561 C   0  0  0  0  0  0  0  0  0  0  0  0
  -20.3490  -24.2604   27.0560 C   0  0  0  0  0  0  0  0  0  0  0  0
  -26.0469  -11.7260   21.2561 N   0  0  0  0  0  0  0  0  0  0  0  0
  -25.9066  -19.6337   17.8618 N   0  0  0  0  0  0  0  0  0  0  0  0
  -26.2879  -12.8050   20.4920 N   0  0  0  0  0  0  0  0  0  0  0  0
  -20.8545  -25.2858   23.6563 N   0  0  0  0  0  0  0  0  0  0  0  0
  -30.0753  -13.3362   20.4365 N   0  0  0  0  0  0  0  0  0  0  0  0
  -25.2719  -14.7444   19.5881 N   0  0  0  0  0  0  0  0  0  0  0  0
  -21.9215  -12.7980   21.9081 N   0  0  0  0  0  0  0  0  0  0  0  0
  -29.0800  -16.6209   21.3197 N   0  0  0  0  0  0  0  0  0  0  0  0
  -22.5379  -28.4535   23.0018 N   0  0  0  0  0  0  0  0  0  0  0  0
  -18.6540  -23.3876   25.3920 N   0  0  0  0  0  0  0  0  0  0  0  0
  -16.7540  -21.0146   23.4357 N   0  3  0  0  0  0  0  0  0  0  0  0
  -22.4729  -14.5812   20.5758 O   0  0  0  0  0  0  0  0  0  0  0  0
  -22.8921  -26.6333   24.4103 O   0  0  0  0  0  0  0  0  0  0  0  0
  -19.2062  -26.1773   25.0436 O   0  0  0  0  0  0  0  0  0  0  0  0
  -31.7987  -14.8039   19.9115 O   0  0  0  0  0  0  0  0  0  0  0  0
  -19.3970  -21.4990   24.2702 O   0  0  0  0  0  0  0  0  0  0  0  0
  -28.7016  -15.2718   23.2001 O   0  0  0  0  0  0  0  0  0  0  0  0
  -22.2503   -8.0588   24.8178 O   0  0  0  0  0  0  0  0  0  0  0  0
  -24.6014  -22.1107   19.9237 O   0  0  0  0  0  0  0  0  0  1  0  0
  -17.2394   -6.3171   23.3140 F   0  0  0  0  0  0  0  0  0  0  0  0
  -24.7119  -17.7246   22.9286 F   0  0  0  0  0  0  0  0  0  0  0  0
  -21.7816   -5.3899   24.2701 F   0  0  0  0  0  0  0  0  0  0  0  0
  1  2  1  0  0  0  0
  1  5  2  0  0  0  0
  2  6  2  0  0  0  0
  3  8  2  0  0  0  0
  3 18  1  0  0  0  0
  4  9  1  0  0  0  0
  4 18  2  0  0  0  0
  5 21  1  0  0  0  0
  6 23  1  0  0  0  0
  7 10  2  0  0  0  0
  7 22  1  0  0  0  0
  8 26  1  0  0  0  0
  9 26  2  0  0  0  0
 10 27  1  0  0  0  0
 11 12  2  0  0  0  0
 11 28  1  0  0  0  0
 12 29  1  0  0  0  0
 13 19  2  0  0  0  0
 13 25  1  0  0  0  0
 14 19  1  0  0  0  0
 14 30  2  0  0  0  0
 15 24  1  0  0  0  0
 15 27  2  0  0  0  0
 16 25  2  0  0  0  0
 16 30  1  0  0  0  0
 17 29  2  0  0  0  0
 17 31  1  0  0  0  0
 18 32  1  0  0  0  0
 19 34  1  0  0  0  0
 20 32  1  0  0  0  0
 20 33  2  0  0  0  0
 20 35  1  0  0  0  0
 21 23  2  0  0  0  0
 21 41  1  0  0  0  0
 22 24  2  0  0  0  0
 22 42  1  0  0  0  0
 23 50  1  0  0  0  0
 24 43  1  0  0  0  0
 25 75  1  0  0  0  0
 26 85  1  0  0  0  0
 27 86  1  0  0  0  0
 28 31  2  0  0  0  0
 28 85  1  0  0  0  0
 29 87  1  0  0  0  0
 30 88  1  0  0  0  0
 31 89  1  0  0  0  0
 32 68  2  0  0  0  0
 33 70  1  0  0  0  0
 33 73  1  0  0  0  0
 34 65  1  0  0  0  0
 34 69  2  0  0  0  0
 35 74  1  0  0  0  0
 35 79  2  0  0  0  0
 36 51  1  0  0  0  0
 36 76  1  0  0  0  0
 36 80  2  0  0  0  0
 37 63  1  0  0  0  0
 37 71  1  0  0  0  0
 37 81  2  0  0  0  0
 38 66  1  0  0  0  0
 38 72  1  0  0  0  0
 38 82  2  0  0  0  0
 39 64  1  0  0  0  0
 39 77  1  0  0  0  0
 39 83  2  0  0  0  0
 40 66  1  0  0  0  0
 40 75  1  0  0  0  0
 40 84  2  0  0  0  0
 41 44  1  0  0  0  0
 42 51  1  0  0  0  0
 43 71  1  0  0  0  0
 44 46  1  0  0  0  0
 45 47  1  0  0  0  0
 45 48  1  0  0  0  0
 46 50  1  0  0  0  0
 47 52  1  0  0  0  0
 48 72  1  0  0  0  0
 49 52  1  0  0  0  0
 49 72  1  0  0  0  0
 50 76  1  0  0  0  0
 51 71  1  0  0  0  0
 52 70  1  0  0  0  0
 53 64  1  0  0  0  0
 54 65  1  0  0  0  0
 55 65  1  0  0  0  0
 56 66  1  0  0  0  0
 57 66  1  0  0  0  0
 58 67  1  0  0  0  0
 59 67  1  0  0  0  0
 60 67  1  0  0  0  0
 61 78  1  0  0  0  0
 62 65  1  0  0  0  0
 62 86  1  0  0  0  0
 63 67  1  0  0  0  0
 63 77  1  0  0  0  0
 64 78  1  0  0  0  0
 68 70  1  0  0  0  0
M  CHG  1  78   1
M  ISO  4  38 100  62 101  66 100  86 101
M  END
> <Batch ID>
0136

> <Smiles>
CNC(C)C(=O)NC(C(=O)N1Cc2cc([101O:1][101CH2:1]C(C)(C)C(=N)c3cc(F)cc(NC(=O)[100C:0](C)(C)[100C:0](=O)N4CCCC(n5nc(-c6ccc(Oc7ccc(F)cc7F)cc6)c(C(N)=O)c5N)C4)c3)ccc2CC1C(=O)NC1CCCc2ccccc21)C(C)(C)C

> <Shape>
0.224

> <Color>
0.132

> <Negative vol penalty>
0.000

$$$$

  -OEChem-04052302393D

 85 94  0     1  0  0  0  0  0999 V2000
  -27.1889  -37.9834   24.7308 C   0  0  0  0  0  0  0  0  0  0  0  0
  -27.8862  -37.1501   23.8620 C   0  0  0  0  0  0  0  0  0  0  0  0
  -24.1889   -9.6234   21.6482 C   0  0  0  0  0  0  0  0  0  0  0  0
  -24.7950  -10.9069   23.6033 C   0  0  0  0  0  0  0  0  0  0  0  0
  -26.3044  -37.4367   25.6595 C   0  0  0  0  0  0  0  0  0  0  0  0
  -27.7002  -35.7694   23.9222 C   0  0  0  0  0  0  0  0  0  0  0  0
  -27.6068  -29.9606   19.7311 C   0  0  0  0  0  0  0  0  0  0  0  0
  -23.8209   -8.5538   22.4644 C   0  0  0  0  0  0  0  0  0  0  0  0
  -24.4270   -9.8373   24.4195 C   0  0  0  0  0  0  0  0  0  0  0  0
  -28.1723  -28.6896   19.6392 C   0  0  0  0  0  0  0  0  0  0  0  0
  -21.1880   -7.6896   24.4018 C   0  0  0  0  0  0  0  0  0  0  0  0
  -19.9834   -7.0446   24.1213 C   0  0  0  0  0  0  0  0  0  0  0  0
  -26.5590  -27.8633   21.2310 C   0  0  0  0  0  0  0  0  0  0  0  0
  -28.4587  -20.7919   20.7234 C   0  0  0  0  0  0  0  0  0  0  0  0
  -30.5546  -19.0898   20.0214 C   0  0  0  0  0  0  0  0  0  0  0  0
  -21.1747   -4.9718   23.7723 C   0  0  0  0  0  0  0  0  0  0  0  0
  -24.6760  -10.7999   22.2176 C   0  0  0  0  0  0  0  0  0  0  0  0
  -24.2364  -12.9614   20.9360 C   0  0  0  0  0  0  0  0  0  0  0  0
  -26.1001  -36.0494   25.7247 C   0  0  0  0  0  0  0  0  0  0  0  0
  -26.5182  -30.1954   20.5833 C   0  0  0  0  0  0  0  0  0  0  0  0
  -26.8130  -35.2036   24.8536 C   0  0  0  0  0  0  0  0  0  0  0  0
  -25.9799  -29.1376   21.3300 C   0  0  0  0  0  0  0  0  0  0  0  0
  -28.1955  -19.4652   20.3829 C   0  0  0  0  0  0  0  0  0  0  0  0
  -29.7699  -21.2677   20.7128 C   0  0  0  0  0  0  0  0  0  0  0  0
  -29.2434  -18.6141   20.0320 C   0  0  0  0  0  0  0  0  0  0  0  0
  -23.9400   -8.6608   23.8501 C   0  0  0  0  0  0  0  0  0  0  0  0
  -27.6503  -27.6414   20.3914 C   0  0  0  0  0  0  0  0  0  0  0  0
  -22.3859   -6.9757   24.3674 C   0  0  0  0  0  0  0  0  0  0  0  0
  -19.9768   -5.6857   23.8066 C   0  0  0  0  0  0  0  0  0  0  0  0
  -22.3792   -5.6169   24.0527 C   0  0  0  0  0  0  0  0  0  0  0  0
  -30.8178  -20.4167   20.3619 C   0  0  0  0  0  0  0  0  0  0  0  0
  -25.0568  -11.9049   21.3750 C   0  0  0  0  0  0  0  0  0  0  0  0
  -25.0644  -13.7426   20.1675 C   0  0  0  0  0  0  0  0  0  0  0  0
  -29.8284  -24.8956   21.1672 C   0  0  0  0  0  0  0  0  0  0  0  0
  -29.2151  -26.0840   21.1637 C   0  0  0  0  0  0  0  0  0  1  0  0
  -22.8498  -13.2140   21.1995 C   0  0  0  0  0  0  0  0  0  0  0  0
  -26.0157  -32.0366   23.1252 C   0  0  0  0  0  0  0  0  0  0  0  0
  -22.9675  -30.9741   22.8068 C   0  0  0  0  0  0  0  0  0  0  0  0
  -20.8449  -28.5652   21.6497 C   0  0  0  0  0  0  0  0  0  0  0  0
  -29.9348  -16.3015   19.3108 C   0  0  0  0  0  0  0  0  0  0  0  0
  -25.1692  -35.5013   26.7772 C   0  0  0  0  0  0  0  0  0  0  0  0
  -25.9026  -31.5661   20.6510 C   0  0  0  0  0  0  0  0  0  0  0  0
  -24.7992  -29.3328   22.2445 C   0  0  0  0  0  0  0  0  0  0  0  0
  -30.9412  -24.5044   22.0872 C   0  0  0  0  0  0  0  0  0  0  0  0
  -29.4257  -23.7176   20.3319 C   0  0  0  0  0  0  0  0  0  0  0  0
  -24.7476  -34.0561   26.5245 C   0  0  0  0  0  0  0  0  0  0  0  0
  -29.7298  -12.8623   18.4123 C   0  0  0  0  0  0  0  0  0  0  0  0
  -25.9585  -33.2024   26.1616 C   0  0  0  0  0  0  0  0  0  0  0  0
  -28.4283  -12.3936   19.0669 C   0  0  0  0  0  0  0  0  0  0  0  0
  -30.7376  -23.0004   22.2463 C   0  0  0  0  0  0  0  0  0  0  0  0
  -30.4703  -13.8751   19.2839 C   0  0  0  0  0  0  0  0  0  0  0  0
  -28.3668  -14.5587   20.3690 C   0  0  0  0  0  0  0  0  0  0  0  0
  -26.6196  -33.7028   24.8716 C   0  0  1  0  0  0  0  0  0  0  0  0
  -25.1220  -31.8077   21.9393 C   0  0  1  0  0  0  0  0  0  0  0  0
  -27.5533  -13.5866   19.4990 C   0  0  2  0  0  0  0  0  0  0  0  0
  -26.7812  -18.9829   20.4018 C   0  0  0  0  0  0  0  0  0  0  0  0
  -18.4121  -27.9545   21.5737 C   0  0  0  0  0  0  0  0  0  0  0  0
  -23.0948  -30.1129   25.7312 C   0  0  0  0  0  0  0  0  0  0  0  0
  -21.0689  -28.6976   25.3302 C   0  0  0  0  0  0  0  0  0  0  0  0
  -20.9347  -31.1725   25.0489 C   0  0  0  0  0  0  0  0  0  0  0  0
  -20.8004  -28.6358   18.6913 C   0  0  0  0  0  0  0  0  0  0  0  0
  -22.1850  -29.7964   23.3357 C   0  0  1  0  0  0  0  0  0  0  0  0
  -19.5542  -28.6567   20.8559 C   0  0  2  0  0  0  0  0  0  0  0  0
  -21.8443  -29.9413   24.8458 C   0  0  0  0  0  0  0  0  0  0  0  0
  -26.3097  -12.0029   20.9228 N   0  0  0  0  0  0  0  0  0  0  0  0
  -26.2828  -13.1302   20.1916 N   0  0  0  0  0  0  0  0  0  0  0  0
  -29.9997  -22.5858   21.0554 N   0  0  3  0  0  0  0  0  0  0  0  0
  -24.2364  -30.6927   22.2810 N   0  0  0  0  0  0  0  0  0  0  0  0
  -29.5804  -14.9788   19.6509 N   0  0  0  0  0  0  0  0  0  0  0  0
  -24.8617  -14.8866   19.4801 N   0  0  0  0  0  0  0  0  0  0  0  0
  -22.1482  -12.3105   22.0092 N   0  0  0  0  0  0  0  0  0  0  0  0
  -28.9960  -17.2635   19.6820 N   0  0  0  0  0  0  0  0  0  0  0  0
  -25.8601  -33.2761   23.7160 N   0  0  0  0  0  0  0  0  0  0  0  0
  -21.0185  -29.6595   22.4704 N   0  0  0  0  0  0  0  0  0  0  0  0
  -19.7246  -28.0275   19.5157 N   0  3  0  0  0  0  0  0  0  0  0  0
  -22.2467  -14.2026   20.7173 O   0  0  0  0  0  0  0  0  0  0  0  0
  -26.7882  -31.1536   23.4790 O   0  0  0  0  0  0  0  0  0  0  0  0
  -22.4681  -32.1012   22.8518 O   0  0  0  0  0  0  0  0  0  0  0  0
  -21.6198  -27.6160   21.5542 O   0  0  0  0  0  0  0  0  0  0  0  0
  -30.9804  -16.5587   18.7086 O   0  0  0  0  0  0  0  0  0  0  0  0
  -23.5808   -7.6174   24.6469 O   0  0  0  0  0  0  0  0  0  0  0  0
  -28.2008  -26.3999   20.3040 O   0  0  0  0  0  0  0  0  0  1  0  0
  -18.8198   -5.0661   23.5389 F   0  0  0  0  0  0  0  0  0  0  0  0
  -23.5267   -4.9256   24.0193 F   0  0  0  0  0  0  0  0  0  0  0  0
  -32.4559  -20.9653   20.3366 Cl  0  0  0  0  0  0  0  0  0  0  0  0
  1  2  1  0  0  0  0
  1  5  2  0  0  0  0
  2  6  2  0  0  0  0
  3  8  2  0  0  0  0
  3 17  1  0  0  0  0
  4  9  1  0  0  0  0
  4 17  2  0  0  0  0
  5 19  1  0  0  0  0
  6 21  1  0  0  0  0
  7 10  2  0  0  0  0
  7 20  1  0  0  0  0
  8 26  1  0  0  0  0
  9 26  2  0  0  0  0
 10 27  1  0  0  0  0
 11 12  2  0  0  0  0
 11 28  1  0  0  0  0
 12 29  1  0  0  0  0
 13 22  1  0  0  0  0
 13 27  2  0  0  0  0
 14 23  2  0  0  0  0
 14 24  1  0  0  0  0
 15 25  2  0  0  0  0
 15 31  1  0  0  0  0
 16 29  2  0  0  0  0
 16 30  1  0  0  0  0
 17 32  1  0  0  0  0
 18 32  1  0  0  0  0
 18 33  2  0  0  0  0
 18 36  1  0  0  0  0
 19 21  2  0  0  0  0
 19 41  1  0  0  0  0
 20 22  2  0  0  0  0
 20 42  1  0  0  0  0
 21 53  1  0  0  0  0
 22 43  1  0  0  0  0
 23 25  1  0  0  0  0
 23 56  1  0  0  0  0
 24 31  2  0  0  0  0
 24 67  1  0  0  0  0
 25 72  1  0  0  0  0
 26 81  1  0  0  0  0
 27 82  1  0  0  0  0
 28 30  2  0  0  0  0
 28 81  1  0  0  0  0
 29 83  1  0  0  0  0
 30 84  1  0  0  0  0
 31 85  1  0  0  0  0
 32 65  2  0  0  0  0
 33 66  1  0  0  0  0
 33 70  1  0  0  0  0
 34 35  2  0  0  0  0
 34 44  1  0  0  0  0
 34 45  1  0  0  0  0
 35 82  1  0  0  0  0
 36 71  1  0  0  0  0
 36 76  2  0  0  0  0
 37 54  1  0  0  0  0
 37 73  1  0  0  0  0
 37 77  2  0  0  0  0
 38 62  1  0  0  0  0
 38 68  1  0  0  0  0
 38 78  2  0  0  0  0
 39 63  1  0  0  0  0
 39 74  1  0  0  0  0
 39 79  2  0  0  0  0
 40 69  1  0  0  0  0
 40 72  1  0  0  0  0
 40 80  2  0  0  0  0
 41 46  1  0  0  0  0
 42 54  1  0  0  0  0
 43 68  1  0  0  0  0
 44 50  1  0  0  0  0
 45 67  1  0  0  0  0
 46 48  1  0  0  0  0
 47 49  1  0  0  0  0
 47 51  1  0  0  0  0
 48 53  1  0  0  0  0
 49 55  1  0  0  0  0
 50 67  1  0  0  0  0
 51 69  1  0  0  0  0
 52 55  1  0  0  0  0
 52 69  1  0  0  0  0
 53 73  1  0  0  0  0
 54 68  1  0  0  0  0
 55 66  1  0  0  0  0
 57 63  1  0  0  0  0
 58 64  1  0  0  0  0
 59 64  1  0  0  0  0
 60 64  1  0  0  0  0
 61 75  1  0  0  0  0
 62 64  1  0  0  0  0
 62 74  1  0  0  0  0
 63 75  1  0  0  0  0
 65 66  1  0  0  0  0
M  CHG  1  75   1
M  ISO  4  35 101  40 100  72 100  82 101
M  END
> <Batch ID>
0136

> <Smiles>
CNC(C)C(=O)NC(C(=O)N1Cc2cc([101O:1][101CH:1]=C3CCN(c4cc(C)c([100NH:0][100C:0](=O)N5CCCC(n6nc(-c7ccc(Oc8ccc(F)cc8F)cc7)c(C(N)=O)c6N)C5)cc4Cl)C3)ccc2CC1C(=O)NC1CCCc2ccccc21)C(C)(C)C

> <Shape>
0.363

> <Color>
0.153

> <Negative vol penalty>
0.000

$$$$

  -OEChem-04052302393D

 85 93  0     1  0  0  0  0  0999 V2000
  -17.3295  -25.8836   21.9264 C   0  0  0  0  0  0  0  0  0  0  0  0
  -18.6426  -25.4499   21.7747 C   0  0  0  0  0  0  0  0  0  0  0  0
  -24.8515   -8.0387   20.8676 C   0  0  0  0  0  0  0  0  0  0  0  0
  -23.3353   -9.8121   20.2406 C   0  0  0  0  0  0  0  0  0  0  0  0
  -17.0714  -27.1869   22.3490 C   0  0  0  0  0  0  0  0  0  0  0  0
  -19.6985  -26.3198   22.0445 C   0  0  0  0  0  0  0  0  0  0  0  0
  -23.3695  -24.1349   24.7637 C   0  0  0  0  0  0  0  0  0  0  0  0
  -23.7663   -7.2313   21.2082 C   0  0  0  0  0  0  0  0  0  0  0  0
  -22.2501   -9.0047   20.5812 C   0  0  0  0  0  0  0  0  0  0  0  0
  -24.2478  -23.2907   24.0856 C   0  0  0  0  0  0  0  0  0  0  0  0
  -21.6136   -6.9135   23.7946 C   0  0  0  0  0  0  0  0  0  0  0  0
  -21.6832   -6.2086   24.9962 C   0  0  0  0  0  0  0  0  0  0  0  0
  -25.8779  -25.0667   23.9982 C   0  0  0  0  0  0  0  0  0  0  0  0
  -29.1055  -19.7661   17.4099 C   0  0  0  0  0  0  0  0  0  0  0  0
  -29.2895  -18.5844   19.5091 C   0  0  0  0  0  0  0  0  0  0  0  0
  -21.4750   -4.1272   23.7872 C   0  0  0  0  0  0  0  0  0  0  0  0
  -24.6360   -9.3291   20.3838 C   0  0  0  0  0  0  0  0  0  0  0  0
  -26.3856  -10.2579   18.7764 C   0  0  0  0  0  0  0  0  0  0  0  0
  -18.1247  -28.0703   22.6333 C   0  0  0  0  0  0  0  0  0  0  0  0
  -23.7353  -25.4569   25.0551 C   0  0  0  0  0  0  0  0  0  0  0  0
  -19.4543  -27.6367   22.4699 C   0  0  0  0  0  0  0  0  0  0  0  0
  -25.0035  -25.9249   24.6824 C   0  0  0  0  0  0  0  0  0  0  0  0
  -28.8769  -18.5587   16.7502 C   0  0  0  0  0  0  0  0  0  0  0  0
  -28.8545  -17.3640   17.4699 C   0  0  0  0  0  0  0  0  0  0  0  0
  -29.0609  -17.3768   18.8494 C   0  0  0  0  0  0  0  0  0  0  0  0
  -22.4656   -7.7142   21.0650 C   0  0  0  0  0  0  0  0  0  0  0  0
  -25.5010  -23.7575   23.7001 C   0  0  0  0  0  0  0  0  0  0  0  0
  -21.4746   -6.2253   22.5893 C   0  0  0  0  0  0  0  0  0  0  0  0
  -29.3119  -19.7790   18.7894 C   0  0  0  0  0  0  0  0  0  0  0  0
  -21.6139   -4.8154   24.9925 C   0  0  0  0  0  0  0  0  0  0  0  0
  -21.4053   -4.8322   22.5856 C   0  0  0  0  0  0  0  0  0  0  0  0
  -25.7566  -10.1639   20.0323 C   0  0  0  0  0  0  0  0  0  0  0  0
  -27.3864  -11.1802   18.9619 C   0  0  0  0  0  0  0  0  0  0  0  0
  -26.0916   -9.5729   17.5517 C   0  0  0  0  0  0  0  0  0  0  0  0
  -22.6166  -28.3223   24.2539 C   0  0  0  0  0  0  0  0  0  0  0  0
  -27.6277  -22.5946   21.0009 C   0  0  0  0  0  0  0  0  0  0  0  0
  -24.8497  -29.3545   26.3682 C   0  0  0  0  0  0  0  0  0  0  0  0
  -27.7817  -28.7558   28.0088 C   0  0  0  0  0  0  0  0  0  0  0  0
  -29.2239  -16.0354   20.9754 C   0  0  0  0  0  0  0  0  0  0  0  0
  -17.7960  -29.4844   23.0418 C   0  0  0  0  0  0  0  0  0  0  0  0
  -22.7869  -26.3466   25.8108 C   0  0  0  0  0  0  0  0  0  0  0  0
  -25.4521  -27.3295   24.9892 C   0  0  0  0  0  0  0  0  0  0  0  0
  -18.9739  -30.2271   23.6672 C   0  0  0  0  0  0  0  0  0  0  0  0
  -29.2061  -13.2583   23.2036 C   0  0  0  0  0  0  0  0  0  0  0  0
  -20.2357  -30.0246   22.8343 C   0  0  0  0  0  0  0  0  0  0  0  0
  -28.3589  -12.2134   22.4738 C   0  0  0  0  0  0  0  0  0  0  0  0
  -28.6767  -14.6738   22.9809 C   0  0  0  0  0  0  0  0  0  0  0  0
  -27.6454  -14.0088   20.8447 C   0  0  0  0  0  0  0  0  0  0  0  0
  -20.6267  -28.5430   22.7766 C   0  0  1  0  0  0  0  0  0  0  0  0
  -23.0656  -27.8318   25.6013 C   0  0  1  0  0  0  0  0  0  0  0  0
  -28.1780  -12.5736   20.9862 C   0  0  2  0  0  0  0  0  0  0  0  0
  -28.6583  -18.5731   15.2726 C   0  0  0  0  0  0  0  0  0  0  0  0
  -28.6065  -16.0715   16.7574 C   0  0  0  0  0  0  0  0  0  0  0  0
  -29.3736  -29.8010   29.6430 C   0  0  0  0  0  0  0  0  0  0  0  0
  -25.9165  -31.1729   24.1624 C   0  0  0  0  0  0  0  0  0  0  0  0
  -28.0109  -31.4559   25.5047 C   0  0  0  0  0  0  0  0  0  0  0  0
  -25.8255  -32.2255   26.4291 C   0  0  0  0  0  0  0  0  0  0  0  0
  -27.3807  -26.5766   29.9707 C   0  0  0  0  0  0  0  0  0  0  0  0
  -28.6067  -23.1334   19.9683 C   0  0  0  0  0  0  0  0  0  0  0  0
  -27.2702  -23.5477   22.1247 C   0  0  0  0  0  0  0  0  0  1  0  0
  -28.9354  -22.1256   18.8763 C   0  0  0  0  0  0  0  0  0  0  0  0
  -26.3046  -29.7475   26.2799 C   0  0  1  0  0  0  0  0  0  0  0  0
  -28.1643  -28.8950   29.4712 C   0  0  2  0  0  0  0  0  0  0  0  0
  -26.5055  -31.1245   25.5864 C   0  0  0  0  0  0  0  0  0  0  0  0
  -26.3113  -10.9625   20.9480 N   0  0  0  0  0  0  0  0  0  0  0  0
  -27.2995  -11.5672   20.2668 N   0  0  0  0  0  0  0  0  0  0  0  0
  -24.4867  -28.1630   25.7245 N   0  0  0  0  0  0  0  0  0  0  0  0
  -28.5350  -14.9456   21.5488 N   0  0  0  0  0  0  0  0  0  0  0  0
  -28.3234  -11.6898   18.1344 N   0  0  0  0  0  0  0  0  0  0  0  0
  -25.0296   -8.6584   17.5360 N   0  0  0  0  0  0  0  0  0  0  0  0
  -29.0387  -16.1755   19.6004 N   0  0  0  0  0  0  0  0  0  0  0  0
  -21.2686  -28.1413   24.0099 N   0  0  0  0  0  0  0  0  0  0  0  0
  -26.8285  -29.6813   27.6399 N   0  0  0  0  0  0  0  0  0  0  0  0
  -28.4902  -27.5612   30.0506 N   0  3  0  0  0  0  0  0  0  0  0  0
  -26.7614   -9.7539   16.5067 O   0  0  0  0  0  0  0  0  0  0  0  0
  -23.4324  -28.8288   23.4927 O   0  0  0  0  0  0  0  0  0  0  0  0
  -27.1503  -21.4630   20.9356 O   0  0  0  0  0  0  0  0  0  0  0  0
  -24.0656  -30.0744   26.9916 O   0  0  0  0  0  0  0  0  0  0  0  0
  -28.2814  -27.9129   27.2669 O   0  0  0  0  0  0  0  0  0  0  0  0
  -29.9480  -16.7725   21.6495 O   0  0  0  0  0  0  0  0  0  0  0  0
  -21.4065   -6.9265   21.3971 O   0  0  0  0  0  0  0  0  0  0  0  0
  -26.3599  -22.9358   23.0375 O   0  0  0  0  0  0  0  0  0  1  0  0
  -29.5376  -20.9654   19.4367 O   0  0  0  0  0  0  0  0  0  0  0  0
  -21.6823   -4.1386   26.1463 F   0  0  0  0  0  0  0  0  0  0  0  0
  -21.2730   -4.1654   21.4307 F   0  0  0  0  0  0  0  0  0  0  0  0
  1  2  1  0  0  0  0
  1  5  2  0  0  0  0
  2  6  2  0  0  0  0
  3  8  2  0  0  0  0
  3 17  1  0  0  0  0
  4  9  1  0  0  0  0
  4 17  2  0  0  0  0
  5 19  1  0  0  0  0
  6 21  1  0  0  0  0
  7 10  2  0  0  0  0
  7 20  1  0  0  0  0
  8 26  1  0  0  0  0
  9 26  2  0  0  0  0
 10 27  1  0  0  0  0
 11 12  2  0  0  0  0
 11 28  1  0  0  0  0
 12 30  1  0  0  0  0
 13 22  1  0  0  0  0
 13 27  2  0  0  0  0
 14 23  2  0  0  0  0
 14 29  1  0  0  0  0
 15 25  1  0  0  0  0
 15 29  2  0  0  0  0
 16 30  2  0  0  0  0
 16 31  1  0  0  0  0
 17 32  1  0  0  0  0
 18 32  1  0  0  0  0
 18 33  2  0  0  0  0
 18 34  1  0  0  0  0
 19 21  2  0  0  0  0
 19 40  1  0  0  0  0
 20 22  2  0  0  0  0
 20 41  1  0  0  0  0
 21 49  1  0  0  0  0
 22 42  1  0  0  0  0
 23 24  1  0  0  0  0
 23 52  1  0  0  0  0
 24 25  2  0  0  0  0
 24 53  1  0  0  0  0
 25 71  1  0  0  0  0
 26 81  1  0  0  0  0
 27 82  1  0  0  0  0
 28 31  2  0  0  0  0
 28 81  1  0  0  0  0
 29 83  1  0  0  0  0
 30 84  1  0  0  0  0
 31 85  1  0  0  0  0
 32 65  2  0  0  0  0
 33 66  1  0  0  0  0
 33 69  1  0  0  0  0
 34 70  1  0  0  0  0
 34 75  2  0  0  0  0
 35 50  1  0  0  0  0
 35 72  1  0  0  0  0
 35 76  2  0  0  0  0
 36 59  1  0  0  0  0
 36 60  1  0  0  0  0
 36 77  2  0  0  0  0
 37 62  1  0  0  0  0
 37 67  1  0  0  0  0
 37 78  2  0  0  0  0
 38 63  1  0  0  0  0
 38 73  1  0  0  0  0
 38 79  2  0  0  0  0
 39 68  1  0  0  0  0
 39 71  1  0  0  0  0
 39 80  2  0  0  0  0
 40 43  1  0  0  0  0
 41 50  1  0  0  0  0
 42 67  1  0  0  0  0
 43 45  1  0  0  0  0
 44 46  1  0  0  0  0
 44 47  1  0  0  0  0
 45 49  1  0  0  0  0
 46 51  1  0  0  0  0
 47 68  1  0  0  0  0
 48 51  1  0  0  0  0
 48 68  1  0  0  0  0
 49 72  1  0  0  0  0
 50 67  1  0  0  0  0
 51 66  1  0  0  0  0
 54 63  1  0  0  0  0
 55 64  1  0  0  0  0
 56 64  1  0  0  0  0
 57 64  1  0  0  0  0
 58 74  1  0  0  0  0
 59 61  1  0  0  0  0
 60 82  1  0  0  0  0
 61 83  1  0  0  0  0
 62 64  1  0  0  0  0
 62 73  1  0  0  0  0
 63 74  1  0  0  0  0
 65 66  1  0  0  0  0
M  CHG  1  74   1
M  ISO  4  39 100  60 101  71 100  82 101
M  END
> <Batch ID>
0136

> <Smiles>
CNC(C)C(=O)NC(C(=O)N1Cc2cc([101O:1][101CH2:1]C(=O)CCOc3cc(C)c(C)c([100NH:0][100C:0](=O)N4CCCC(n5nc(-c6ccc(Oc7ccc(F)cc7F)cc6)c(C(N)=O)c5N)C4)c3)ccc2CC1C(=O)NC1CCCc2ccccc21)C(C)(C)C

> <Shape>
0.273

> <Color>
0.112

> <Negative vol penalty>
0.000

$$$$

  -OEChem-04052302393D

 86 94  0     1  0  0  0  0  0999 V2000
  -30.5052  -24.7314   19.2261 C   0  0  0  0  0  0  0  0  0  0  0  0
  -29.1228  -24.8382   19.1130 C   0  0  0  0  0  0  0  0  0  0  0  0
  -28.2434  -16.6389   21.2953 C   0  0  0  0  0  0  0  0  0  0  0  0
  -25.8857  -16.7067   20.7719 C   0  0  0  0  0  0  0  0  0  0  0  0
  -31.1614  -25.3091   20.3122 C   0  0  0  0  0  0  0  0  0  0  0  0
  -28.3955  -25.5218   20.0867 C   0  0  0  0  0  0  0  0  0  0  0  0
  -23.3606  -28.9005   19.2259 C   0  0  0  0  0  0  0  0  0  0  0  0
  -20.0754  -25.0497   24.9298 C   0  0  0  0  0  0  0  0  0  0  0  0
  -21.3899  -24.5852   24.9724 C   0  0  0  0  0  0  0  0  0  0  0  0
  -28.2332  -15.2505   21.1613 C   0  0  0  0  0  0  0  0  0  0  0  0
  -25.8755  -15.3183   20.6379 C   0  0  0  0  0  0  0  0  0  0  0  0
  -22.0046  -28.6224   19.3921 C   0  0  0  0  0  0  0  0  0  0  0  0
  -28.2673  -12.9904   18.6467 C   0  0  0  0  0  0  0  0  0  0  0  0
  -29.3044  -12.4014   17.9233 C   0  0  0  0  0  0  0  0  0  0  0  0
  -22.0761  -29.6169   21.5887 C   0  0  0  0  0  0  0  0  0  0  0  0
  -20.0086  -24.6423   22.5493 C   0  0  0  0  0  0  0  0  0  0  0  0
  -29.9458  -11.1322   19.8765 C   0  0  0  0  0  0  0  0  0  0  0  0
  -27.0696  -17.3670   21.1007 C   0  0  0  0  0  0  0  0  0  0  0  0
  -27.3303  -19.7511   20.2313 C   0  0  0  0  0  0  0  0  0  0  0  0
  -30.4428  -26.0084   21.2947 C   0  0  0  0  0  0  0  0  0  0  0  0
  -24.0883  -29.5302   20.2459 C   0  0  0  0  0  0  0  0  0  0  0  0
  -29.0424  -26.1083   21.1877 C   0  0  0  0  0  0  0  0  0  0  0  0
  -23.4406  -29.9042   21.4320 C   0  0  0  0  0  0  0  0  0  0  0  0
  -19.3847  -25.0782   23.7182 C   0  0  0  0  0  0  0  0  0  0  0  0
  -21.3232  -24.1779   22.5919 C   0  0  0  0  0  0  0  0  0  0  0  0
  -22.0138  -24.1493   23.8035 C   0  0  0  0  0  0  0  0  0  0  0  0
  -27.0493  -14.5902   20.8326 C   0  0  0  0  0  0  0  0  0  0  0  0
  -21.3628  -28.9779   20.5748 C   0  0  0  0  0  0  0  0  0  0  0  0
  -28.0696  -12.6504   19.9850 C   0  0  0  0  0  0  0  0  0  0  0  0
  -30.1436  -11.4722   18.5382 C   0  0  0  0  0  0  0  0  0  0  0  0
  -28.9088  -11.7213   20.5999 C   0  0  0  0  0  0  0  0  0  0  0  0
  -27.0793  -18.8011   21.2395 C   0  0  0  0  0  0  0  0  0  0  0  0
  -27.2230  -20.9635   20.8677 C   0  0  0  0  0  0  0  0  0  0  0  0
  -27.6331  -19.5551   18.8437 C   0  0  0  0  0  0  0  0  0  0  0  0
  -26.5815  -28.7272   22.0467 C   0  0  0  0  0  0  0  0  0  0  0  0
  -18.4007  -27.5128   22.0617 C   0  0  0  0  0  0  0  0  0  0  0  0
  -26.3321  -31.7939   23.0741 C   0  0  0  0  0  0  0  0  0  0  0  0
  -24.3697  -34.5507   23.5163 C   0  0  0  0  0  0  0  0  0  0  0  0
  -24.1611  -23.5946   24.9984 C   0  0  0  0  0  0  0  0  0  0  0  0
  -31.1906  -26.5755   22.4753 C   0  0  0  0  0  0  0  0  0  0  0  0
  -25.5442  -29.8473   20.0404 C   0  0  0  0  0  0  0  0  0  0  0  0
  -24.1722  -30.6004   22.5494 C   0  0  0  0  0  0  0  0  0  0  0  0
  -30.3880  -27.6041   23.2677 C   0  0  0  0  0  0  0  0  0  0  0  0
  -27.4876  -22.4639   25.5754 C   0  0  0  0  0  0  0  0  0  0  0  0
  -28.9740  -27.0937   23.5265 C   0  0  0  0  0  0  0  0  0  0  0  0
  -27.7477  -21.4968   24.4182 C   0  0  0  0  0  0  0  0  0  0  0  0
  -26.0451  -22.3802   26.0712 C   0  0  0  0  0  0  0  0  0  0  0  0
  -25.2809  -21.5707   23.8735 C   0  0  0  0  0  0  0  0  0  0  0  0
  -28.2213  -26.8631   22.2106 C   0  0  1  0  0  0  0  0  0  0  0  0
  -26.3066  -30.0293   21.3492 C   0  0  1  0  0  0  0  0  0  0  0  0
  -26.7031  -21.6652   23.2974 C   0  0  2  0  0  0  0  0  0  0  0  0
  -22.9417  -24.7523   20.7652 C   0  0  0  0  0  0  0  0  0  0  0  0
  -24.4365  -36.8927   24.4152 C   0  0  0  0  0  0  0  0  0  0  0  0
  -16.2923  -27.5048   23.4386 C   0  0  0  0  0  0  0  0  0  0  0  0
  -18.4754  -27.8792   24.5555 C   0  0  0  0  0  0  0  0  0  0  0  0
  -26.2433  -30.7010   25.9215 C   0  0  0  0  0  0  0  0  0  0  0  0
  -25.3706  -32.9240   26.6731 C   0  0  0  0  0  0  0  0  0  0  0  0
  -27.6339  -32.7601   25.6373 C   0  0  0  0  0  0  0  0  0  0  0  0
  -23.6932  -35.7068   20.8772 C   0  0  0  0  0  0  0  0  0  0  0  0
  -17.9605  -25.5841   23.6718 C   0  0  0  0  0  0  0  0  0  0  0  0
  -21.9676  -23.7199   21.3237 C   0  0  0  0  0  0  0  0  0  0  0  0
  -19.5875  -28.4638   22.0714 C   0  0  0  0  0  0  0  0  0  1  0  0
  -25.5831  -32.4923   24.1832 C   0  0  1  0  0  0  0  0  0  0  0  0
  -24.5991  -36.0142   23.1845 C   0  0  2  0  0  0  0  0  0  0  0  0
  -17.7812  -27.1050   23.4179 C   0  0  0  0  0  0  0  0  0  0  0  0
  -26.1941  -32.2045   25.5837 C   0  0  0  0  0  0  0  0  0  0  0  0
  -26.8315  -19.3618   22.4262 N   0  0  0  0  0  0  0  0  0  0  0  0
  -26.9263  -20.6772   22.1677 N   0  0  0  0  0  0  0  0  0  0  0  0
  -25.5959  -30.8831   22.3033 N   0  0  0  0  0  0  0  0  0  0  0  0
  -25.1119  -22.5530   24.9558 N   0  0  0  0  0  0  0  0  0  0  0  0
  -27.3546  -22.2360   20.4364 N   0  0  0  0  0  0  0  0  0  0  0  0
  -27.7048  -18.2437   18.3542 N   0  0  0  0  0  0  0  0  0  0  0  0
  -23.3496  -23.6812   23.8676 N   0  0  0  0  0  0  0  0  0  0  0  0
  -27.7630  -28.1219   21.6631 N   0  0  0  0  0  0  0  0  0  0  0  0
  -25.5488  -33.9062   23.8254 N   0  0  0  0  0  0  0  0  0  0  0  0
  -23.6273  -36.4694   22.1504 N   0  3  0  0  0  0  0  0  0  0  0  0
  -27.8504  -20.5139   18.0646 O   0  0  0  0  0  0  0  0  0  0  0  0
  -25.7817  -28.3037   22.8730 O   0  0  0  0  0  0  0  0  0  0  0  0
  -17.9705  -27.0624   20.9969 O   0  0  0  0  0  0  0  0  0  0  0  0
  -27.5247  -32.0525   22.8935 O   0  0  0  0  0  0  0  0  0  0  0  0
  -23.2555  -34.0321   23.5062 O   0  0  0  0  0  0  0  0  0  0  0  0
  -24.0913  -24.3708   25.9547 O   0  0  0  0  0  0  0  0  0  0  0  0
  -27.0391  -13.2355   20.7015 O   0  0  0  0  0  0  0  0  0  0  0  0
  -20.0395  -28.7070   20.7399 O   0  0  0  0  0  0  0  0  0  1  0  0
  -31.1384  -10.9055   17.8431 F   0  0  0  0  0  0  0  0  0  0  0  0
  -28.7230  -11.3898   21.8849 F   0  0  0  0  0  0  0  0  0  0  0  0
  1  2  1  0  0  0  0
  1  5  2  0  0  0  0
  2  6  2  0  0  0  0
  3 10  2  0  0  0  0
  3 18  1  0  0  0  0
  4 11  1  0  0  0  0
  4 18  2  0  0  0  0
  5 20  1  0  0  0  0
  6 22  1  0  0  0  0
  7 12  2  0  0  0  0
  7 21  1  0  0  0  0
  8  9  2  0  0  0  0
  8 24  1  0  0  0  0
  9 26  1  0  0  0  0
 10 27  1  0  0  0  0
 11 27  2  0  0  0  0
 12 28  1  0  0  0  0
 13 14  2  0  0  0  0
 13 29  1  0  0  0  0
 14 30  1  0  0  0  0
 15 23  1  0  0  0  0
 15 28  2  0  0  0  0
 16 24  2  0  0  0  0
 16 25  1  0  0  0  0
 17 30  2  0  0  0  0
 17 31  1  0  0  0  0
 18 32  1  0  0  0  0
 19 32  1  0  0  0  0
 19 33  2  0  0  0  0
 19 34  1  0  0  0  0
 20 22  2  0  0  0  0
 20 40  1  0  0  0  0
 21 23  2  0  0  0  0
 21 41  1  0  0  0  0
 22 49  1  0  0  0  0
 23 42  1  0  0  0  0
 24 60  1  0  0  0  0
 25 26  2  0  0  0  0
 25 61  1  0  0  0  0
 26 73  1  0  0  0  0
 27 83  1  0  0  0  0
 28 84  1  0  0  0  0
 29 31  2  0  0  0  0
 29 83  1  0  0  0  0
 30 85  1  0  0  0  0
 31 86  1  0  0  0  0
 32 67  2  0  0  0  0
 33 68  1  0  0  0  0
 33 71  1  0  0  0  0
 34 72  1  0  0  0  0
 34 77  2  0  0  0  0
 35 50  1  0  0  0  0
 35 74  1  0  0  0  0
 35 78  2  0  0  0  0
 36 62  1  0  0  0  0
 36 65  1  0  0  0  0
 36 79  2  0  0  0  0
 37 63  1  0  0  0  0
 37 69  1  0  0  0  0
 37 80  2  0  0  0  0
 38 64  1  0  0  0  0
 38 75  1  0  0  0  0
 38 81  2  0  0  0  0
 39 70  1  0  0  0  0
 39 73  1  0  0  0  0
 39 82  2  0  0  0  0
 40 43  1  0  0  0  0
 41 50  1  0  0  0  0
 42 69  1  0  0  0  0
 43 45  1  0  0  0  0
 44 46  1  0  0  0  0
 44 47  1  0  0  0  0
 45 49  1  0  0  0  0
 46 51  1  0  0  0  0
 47 70  1  0  0  0  0
 48 51  1  0  0  0  0
 48 70  1  0  0  0  0
 49 74  1  0  0  0  0
 50 69  1  0  0  0  0
 51 68  1  0  0  0  0
 52 61  1  0  0  0  0
 53 64  1  0  0  0  0
 54 65  1  0  0  0  0
 55 65  1  0  0  0  0
 56 66  1  0  0  0  0
 57 66  1  0  0  0  0
 58 66  1  0  0  0  0
 59 76  1  0  0  0  0
 60 65  1  0  0  0  0
 62 84  1  0  0  0  0
 63 66  1  0  0  0  0
 63 75  1  0  0  0  0
 64 76  1  0  0  0  0
 67 68  1  0  0  0  0
M  CHG  1  76   1
M  ISO  4  39 100  62 101  73 100  84 101
M  END
> <Batch ID>
0136

> <Smiles>
CCc1cc(CC(C)(C)C(=O)[101CH2:1][101O:1]c2ccc3c(c2)CN(C(=O)C(NC(=O)C(C)NC)C(C)(C)C)C(C(=O)NC2CCCc4ccccc42)C3)ccc1[100NH:0][100C:0](=O)N1CCCC(n2nc(-c3ccc(Oc4ccc(F)cc4F)cc3)c(C(N)=O)c2N)C1

> <Shape>
0.297

> <Color>
0.051

> <Negative vol penalty>
0.000

$$$$

  -OEChem-04052302393D

 83 91  0     1  0  0  0  0  0999 V2000
  -28.6573  -26.2453   27.5158 C   0  0  0  0  0  0  0  0  0  0  0  0
  -29.7167  -25.4107   27.1744 C   0  0  0  0  0  0  0  0  0  0  0  0
  -23.0662   -9.8677   19.9440 C   0  0  0  0  0  0  0  0  0  0  0  0
  -23.8245   -9.8743   22.2379 C   0  0  0  0  0  0  0  0  0  0  0  0
  -27.4855  -26.2269   26.7605 C   0  0  0  0  0  0  0  0  0  0  0  0
  -29.6044  -24.5563   26.0781 C   0  0  0  0  0  0  0  0  0  0  0  0
  -34.0677  -22.9106   22.2210 C   0  0  0  0  0  0  0  0  0  0  0  0
  -30.5327  -18.3100   24.0422 C   0  0  0  0  0  0  0  0  0  0  0  0
  -22.3162   -8.7188   20.1952 C   0  0  0  0  0  0  0  0  0  0  0  0
  -23.0744   -8.7254   22.4891 C   0  0  0  0  0  0  0  0  0  0  0  0
  -34.8741  -21.7756   22.1492 C   0  0  0  0  0  0  0  0  0  0  0  0
  -31.9200  -18.3062   24.1872 C   0  0  0  0  0  0  0  0  0  0  0  0
  -19.8418   -7.9453   23.0906 C   0  0  0  0  0  0  0  0  0  0  0  0
  -19.0838   -7.9111   24.2610 C   0  0  0  0  0  0  0  0  0  0  0  0
  -33.3677  -20.8152   20.5282 C   0  0  0  0  0  0  0  0  0  0  0  0
  -32.0878  -16.5519   22.5345 C   0  0  0  0  0  0  0  0  0  0  0  0
  -20.3146   -5.9684   25.0013 C   0  0  0  0  0  0  0  0  0  0  0  0
  -23.8204  -10.4455   20.9653 C   0  0  0  0  0  0  0  0  0  0  0  0
  -24.1754  -12.9686   20.8416 C   0  0  0  0  0  0  0  0  0  0  0  0
  -27.3624  -25.3788   25.6486 C   0  0  0  0  0  0  0  0  0  0  0  0
  -32.8974  -23.0020   21.4539 C   0  0  0  0  0  0  0  0  0  0  0  0
  -28.4294  -24.5256   25.3081 C   0  0  0  0  0  0  0  0  0  0  0  0
  -32.5495  -21.9536   20.5902 C   0  0  0  0  0  0  0  0  0  0  0  0
  -29.9230  -17.4347   23.1435 C   0  0  0  0  0  0  0  0  0  0  0  0
  -30.7005  -16.5557   22.3896 C   0  0  0  0  0  0  0  0  0  0  0  0
  -22.3203   -8.1477   21.4678 C   0  0  0  0  0  0  0  0  0  0  0  0
  -34.5227  -20.7265   21.3049 C   0  0  0  0  0  0  0  0  0  0  0  0
  -32.6976  -17.4271   23.4333 C   0  0  0  0  0  0  0  0  0  0  0  0
  -20.8361   -6.9910   22.8755 C   0  0  0  0  0  0  0  0  0  0  0  0
  -19.3202   -6.9227   25.2164 C   0  0  0  0  0  0  0  0  0  0  0  0
  -21.0726   -6.0026   23.8309 C   0  0  0  0  0  0  0  0  0  0  0  0
  -24.5958  -11.6319   20.7063 C   0  0  0  0  0  0  0  0  0  0  0  0
  -25.2717  -13.7119   20.4779 C   0  0  0  0  0  0  0  0  0  0  0  0
  -22.9073  -13.4917   21.2588 C   0  0  0  0  0  0  0  0  0  0  0  0
  -29.7998  -23.2775   22.1116 C   0  0  0  0  0  0  0  0  0  0  0  0
  -29.5439  -23.6025   18.8943 C   0  0  0  0  0  0  0  0  0  0  0  0
  -30.8727  -23.0082   15.8076 C   0  0  0  0  0  0  0  0  0  0  0  0
  -30.7431  -14.7294   20.6549 C   0  0  0  0  0  0  0  0  0  0  0  0
  -26.0585  -25.3598   24.8909 C   0  0  0  0  0  0  0  0  0  0  0  0
  -32.0524  -24.2444   21.5227 C   0  0  0  0  0  0  0  0  0  0  0  0
  -31.3141  -22.0111   19.7306 C   0  0  0  0  0  0  0  0  0  0  0  0
  -26.1603  -24.6961   23.5200 C   0  0  0  0  0  0  0  0  0  0  0  0
  -29.6178  -12.3177   18.2896 C   0  0  0  0  0  0  0  0  0  0  0  0
  -26.9197  -23.3770   23.6207 C   0  0  0  0  0  0  0  0  0  0  0  0
  -28.1764  -12.0342   18.7186 C   0  0  0  0  0  0  0  0  0  0  0  0
  -30.5333  -12.5436   19.4915 C   0  0  0  0  0  0  0  0  0  0  0  0
  -28.6291  -13.2801   20.8703 C   0  0  0  0  0  0  0  0  0  0  0  0
  -28.3550  -23.6027   24.1110 C   0  0  1  0  0  0  0  0  0  0  0  0
  -30.6107  -24.0117   21.0816 C   0  0  1  0  0  0  0  0  0  0  0  0
  -27.6563  -13.1101   19.6921 C   0  0  2  0  0  0  0  0  0  0  0  0
  -28.4350  -17.4609   23.0090 C   0  0  0  0  0  0  0  0  0  0  0  0
  -30.4161  -23.3605   13.3653 C   0  0  0  0  0  0  0  0  0  0  0  0
  -36.9717  -17.3265   23.7388 C   0  0  0  0  0  0  0  0  0  0  0  0
  -27.4892  -21.3476   18.9556 C   0  0  0  0  0  0  0  0  0  0  0  0
  -27.7839  -21.1057   16.4812 C   0  0  0  0  0  0  0  0  0  0  0  0
  -26.9132  -23.2427   17.4287 C   0  0  0  0  0  0  0  0  0  0  0  0
  -33.3228  -24.6325   15.4650 C   0  0  0  0  0  0  0  0  0  0  0  0
  -36.0367  -19.2606   22.4071 C   0  0  0  0  0  0  0  0  0  1  0  0
  -34.8238  -17.0604   22.4330 C   0  0  0  0  0  0  0  0  0  0  0  0
  -29.3526  -22.6537   17.7358 C   0  0  1  0  0  0  0  0  0  0  0  0
  -31.0871  -23.9176   14.6111 C   0  0  2  0  0  0  0  0  0  0  0  0
  -36.1955  -17.7394   22.4823 C   0  0  2  0  0  0  0  0  0  0  0  0
  -27.9070  -22.0852   17.6679 C   0  0  0  0  0  0  0  0  0  0  0  0
  -25.8605  -11.5289   20.2890 N   0  0  0  0  0  0  0  0  0  0  0  0
  -26.2441  -12.8103   20.1590 N   0  0  0  0  0  0  0  0  0  0  0  0
  -30.5170  -23.2442   19.8380 N   0  0  0  0  0  0  0  0  0  0  0  0
  -29.9790  -13.5787   20.3669 N   0  0  0  0  0  0  0  0  0  0  0  0
  -25.4890  -15.0421   20.4030 N   0  0  0  0  0  0  0  0  0  0  0  0
  -21.8904  -12.5883   21.5968 N   0  0  0  0  0  0  0  0  0  0  0  0
  -30.0999  -15.6591   21.4714 N   0  0  0  0  0  0  0  0  0  0  0  0
  -29.1843  -24.1011   23.0348 N   0  0  0  0  0  0  0  0  0  0  0  0
  -29.7656  -23.3807   16.5403 N   0  0  0  0  0  0  0  0  0  0  0  0
  -32.5429  -24.0716   14.3319 N   0  3  0  0  0  0  0  0  0  0  0  0
  -22.6774  -14.7236   21.3140 O   0  0  0  0  0  0  0  0  0  0  0  0
  -29.7360  -22.0544   22.0710 O   0  0  0  0  0  0  0  0  0  0  0  0
  -28.8603  -24.6274   18.9558 O   0  0  0  0  0  0  0  0  0  0  0  0
  -31.6111  -22.0598   16.0642 O   0  0  0  0  0  0  0  0  0  0  0  0
  -31.8734  -14.8915   20.1878 O   0  0  0  0  0  0  0  0  0  0  0  0
  -21.5883   -7.0268   21.7133 O   0  0  0  0  0  0  0  0  0  0  0  0
  -35.3077  -19.6172   21.2333 O   0  0  0  0  0  0  0  0  0  1  0  0
  -34.0606  -17.4237   23.5760 O   0  0  0  0  0  0  0  0  0  0  0  0
  -18.5933   -6.8910   26.3410 F   0  0  0  0  0  0  0  0  0  0  0  0
  -22.0273   -5.0838   23.6304 F   0  0  0  0  0  0  0  0  0  0  0  0
  1  2  1  0  0  0  0
  1  5  2  0  0  0  0
  2  6  2  0  0  0  0
  3  9  2  0  0  0  0
  3 18  1  0  0  0  0
  4 10  1  0  0  0  0
  4 18  2  0  0  0  0
  5 20  1  0  0  0  0
  6 22  1  0  0  0  0
  7 11  2  0  0  0  0
  7 21  1  0  0  0  0
  8 12  2  0  0  0  0
  8 24  1  0  0  0  0
  9 26  1  0  0  0  0
 10 26  2  0  0  0  0
 11 27  1  0  0  0  0
 12 28  1  0  0  0  0
 13 14  2  0  0  0  0
 13 29  1  0  0  0  0
 14 30  1  0  0  0  0
 15 23  1  0  0  0  0
 15 27  2  0  0  0  0
 16 25  1  0  0  0  0
 16 28  2  0  0  0  0
 17 30  2  0  0  0  0
 17 31  1  0  0  0  0
 18 32  1  0  0  0  0
 19 32  1  0  0  0  0
 19 33  2  0  0  0  0
 19 34  1  0  0  0  0
 20 22  2  0  0  0  0
 20 39  1  0  0  0  0
 21 23  2  0  0  0  0
 21 40  1  0  0  0  0
 22 48  1  0  0  0  0
 23 41  1  0  0  0  0
 24 25  2  0  0  0  0
 24 51  1  0  0  0  0
 25 70  1  0  0  0  0
 26 79  1  0  0  0  0
 27 80  1  0  0  0  0
 28 81  1  0  0  0  0
 29 31  2  0  0  0  0
 29 79  1  0  0  0  0
 30 82  1  0  0  0  0
 31 83  1  0  0  0  0
 32 64  2  0  0  0  0
 33 65  1  0  0  0  0
 33 68  1  0  0  0  0
 34 69  1  0  0  0  0
 34 74  2  0  0  0  0
 35 49  1  0  0  0  0
 35 71  1  0  0  0  0
 35 75  2  0  0  0  0
 36 60  1  0  0  0  0
 36 66  1  0  0  0  0
 36 76  2  0  0  0  0
 37 61  1  0  0  0  0
 37 72  1  0  0  0  0
 37 77  2  0  0  0  0
 38 67  1  0  0  0  0
 38 70  1  0  0  0  0
 38 78  2  0  0  0  0
 39 42  1  0  0  0  0
 40 49  1  0  0  0  0
 41 66  1  0  0  0  0
 42 44  1  0  0  0  0
 43 45  1  0  0  0  0
 43 46  1  0  0  0  0
 44 48  1  0  0  0  0
 45 50  1  0  0  0  0
 46 67  1  0  0  0  0
 47 50  1  0  0  0  0
 47 67  1  0  0  0  0
 48 71  1  0  0  0  0
 49 66  1  0  0  0  0
 50 65  1  0  0  0  0
 52 61  1  0  0  0  0
 53 62  1  0  0  0  0
 54 63  1  0  0  0  0
 55 63  1  0  0  0  0
 56 63  1  0  0  0  0
 57 73  1  0  0  0  0
 58 62  1  0  0  0  0
 58 80  1  0  0  0  0
 59 62  1  0  0  0  0
 59 81  1  0  0  0  0
 60 63  1  0  0  0  0
 60 72  1  0  0  0  0
 61 73  1  0  0  0  0
 64 65  1  0  0  0  0
M  CHG  1  73   1
M  ISO  4  38 100  58 101  70 100  80 101
M  END
> <Batch ID>
0136

> <Smiles>
CNC(C)C(=O)NC(C(=O)N1Cc2cc([101O:1][101CH2:1]C(C)COc3ccc(C)c([100NH:0][100C:0](=O)N4CCCC(n5nc(-c6ccc(Oc7ccc(F)cc7F)cc6)c(C(N)=O)c5N)C4)c3)ccc2CC1C(=O)NC1CCCc2ccccc21)C(C)(C)C

> <Shape>
0.214

> <Color>
0.193

> <Negative vol penalty>
0.000

$$$$

  -OEChem-04052302393D

 86 94  0     1  0  0  0  0  0999 V2000
  -27.9691  -31.1958   27.8113 C   0  0  0  0  0  0  0  0  0  0  0  0
  -28.0620  -30.2375   26.8071 C   0  0  0  0  0  0  0  0  0  0  0  0
  -28.8341  -11.2887   20.9455 C   0  0  0  0  0  0  0  0  0  0  0  0
  -27.2829  -11.9082   19.1999 C   0  0  0  0  0  0  0  0  0  0  0  0
  -26.7312  -31.7527   28.1296 C   0  0  0  0  0  0  0  0  0  0  0  0
  -26.9166  -29.8346   26.1214 C   0  0  0  0  0  0  0  0  0  0  0  0
  -27.6439  -29.5601   21.1173 C   0  0  0  0  0  0  0  0  0  0  0  0
  -27.9944  -10.2396   21.3194 C   0  0  0  0  0  0  0  0  0  0  0  0
  -26.4432  -10.8590   19.5738 C   0  0  0  0  0  0  0  0  0  0  0  0
  -28.3191  -28.4408   20.6325 C   0  0  0  0  0  0  0  0  0  0  0  0
  -24.1664  -10.2311   21.9930 C   0  0  0  0  0  0  0  0  0  0  0  0
  -22.8011  -10.4982   22.0939 C   0  0  0  0  0  0  0  0  0  0  0  0
  -26.2114  -27.4474   20.0078 C   0  0  0  0  0  0  0  0  0  0  0  0
  -27.0184  -21.8135   15.4502 C   0  0  0  0  0  0  0  0  0  0  0  0
  -28.1138  -21.4789   17.5775 C   0  0  0  0  0  0  0  0  0  0  0  0
  -22.3505   -8.8337   20.4017 C   0  0  0  0  0  0  0  0  0  0  0  0
  -28.4783  -12.1231   19.8858 C   0  0  0  0  0  0  0  0  0  0  0  0
  -30.3895  -13.1662   18.5565 C   0  0  0  0  0  0  0  0  0  0  0  0
  -25.5716  -31.3635   27.4409 C   0  0  0  0  0  0  0  0  0  0  0  0
  -26.2443  -29.6268   21.0609 C   0  0  0  0  0  0  0  0  0  0  0  0
  -25.6617  -30.3858   26.4317 C   0  0  0  0  0  0  0  0  0  0  0  0
  -25.5210  -28.5698   20.4903 C   0  0  0  0  0  0  0  0  0  0  0  0
  -26.4036  -20.5673   15.5707 C   0  0  0  0  0  0  0  0  0  0  0  0
  -26.6438  -19.7769   16.6946 C   0  0  0  0  0  0  0  0  0  0  0  0
  -27.4989  -20.2326   17.6980 C   0  0  0  0  0  0  0  0  0  0  0  0
  -26.7990  -10.0247   20.6335 C   0  0  0  0  0  0  0  0  0  0  0  0
  -27.6027  -27.3830   20.0803 C   0  0  0  0  0  0  0  0  0  0  0  0
  -24.6238   -9.2654   21.0964 C   0  0  0  0  0  0  0  0  0  0  0  0
  -27.8736  -22.2693   16.4536 C   0  0  0  0  0  0  0  0  0  0  0  0
  -21.8931   -9.7995   21.2983 C   0  0  0  0  0  0  0  0  0  0  0  0
  -23.7158   -8.5667   20.3008 C   0  0  0  0  0  0  0  0  0  0  0  0
  -29.3450  -13.2074   19.4995 C   0  0  0  0  0  0  0  0  0  0  0  0
  -30.9002  -14.4412   18.5539 C   0  0  0  0  0  0  0  0  0  0  0  0
  -30.8562  -12.0732   17.7545 C   0  0  0  0  0  0  0  0  0  0  0  0
  -23.9201  -29.8437   23.2183 C   0  0  0  0  0  0  0  0  0  0  0  0
  -22.0422  -30.1559   20.5919 C   0  0  0  0  0  0  0  0  0  0  0  0
  -21.6071  -29.5801   17.2563 C   0  0  0  0  0  0  0  0  0  0  0  0
  -28.5768  -19.7721   19.9279 C   0  0  0  0  0  0  0  0  0  0  0  0
  -24.2484  -31.9589   27.8525 C   0  0  0  0  0  0  0  0  0  0  0  0
  -25.5326  -30.8528   21.5638 C   0  0  0  0  0  0  0  0  0  0  0  0
  -24.0187  -28.6012   20.3876 C   0  0  0  0  0  0  0  0  0  0  0  0
  -23.1404  -31.7513   26.8232 C   0  0  0  0  0  0  0  0  0  0  0  0
  -31.4500  -18.2607   21.3900 C   0  0  0  0  0  0  0  0  0  0  0  0
  -23.1259  -30.3048   26.3390 C   0  0  0  0  0  0  0  0  0  0  0  0
  -31.3345  -16.7908   20.9802 C   0  0  0  0  0  0  0  0  0  0  0  0
  -30.0836  -18.8753   21.6886 C   0  0  0  0  0  0  0  0  0  0  0  0
  -28.9697  -17.2464   20.2137 C   0  0  0  0  0  0  0  0  0  0  0  0
  -24.4458  -29.9409   25.6484 C   0  0  1  0  0  0  0  0  0  0  0  0
  -24.0735  -30.5911   21.9239 C   0  0  1  0  0  0  0  0  0  0  0  0
  -30.3147  -16.6020   19.8400 C   0  0  2  0  0  0  0  0  0  0  0  0
  -25.4920  -20.1034   14.4821 C   0  0  0  0  0  0  0  0  0  0  0  0
  -25.9798  -18.4415   16.8200 C   0  0  0  0  0  0  0  0  0  0  0  0
  -27.2625  -27.6124   16.4243 C   0  0  0  0  0  0  0  0  0  0  0  0
  -19.9547  -29.9176   15.3981 C   0  0  0  0  0  0  0  0  0  0  0  0
  -30.5919  -26.1367   19.0522 C   0  0  0  0  0  0  0  0  0  0  0  0
  -20.3515  -27.8618   21.6820 C   0  0  0  0  0  0  0  0  0  0  0  0
  -19.3377  -27.6196   19.4056 C   0  0  0  0  0  0  0  0  0  0  0  0
  -19.0392  -29.7416   20.6827 C   0  0  0  0  0  0  0  0  0  0  0  0
  -23.5039  -31.2508   15.7169 C   0  0  0  0  0  0  0  0  0  0  0  0
  -27.3627  -26.1370   16.7877 C   0  0  0  0  0  0  0  0  0  0  0  0
  -28.7670  -24.1848   17.5437 C   0  0  0  0  0  0  0  0  0  0  0  0
  -21.3000  -29.2008   19.6887 C   0  0  1  0  0  0  0  0  0  0  0  0
  -21.1602  -30.4906   16.1268 C   0  0  2  0  0  0  0  0  0  0  0  0
  -28.7618  -25.7063   17.2979 C   0  0  2  0  0  0  0  0  0  0  0  0
  -29.1970  -26.5002   18.5523 C   0  0  1  0  0  0  0  0  0  1  0  0
  -20.0353  -28.6042   20.3683 C   0  0  0  0  0  0  0  0  0  0  0  0
  -29.1997  -14.4130   20.0557 N   0  0  0  0  0  0  0  0  0  0  0  0
  -30.1597  -15.1412   19.4604 N   0  0  0  0  0  0  0  0  0  0  0  0
  -23.3681  -29.8189   20.8989 N   0  0  0  0  0  0  0  0  0  0  0  0
  -29.1715  -18.6614   20.5629 N   0  0  0  0  0  0  0  0  0  0  0  0
  -31.9060  -15.0206   17.8647 N   0  0  0  0  0  0  0  0  0  0  0  0
  -30.2188  -10.8315   17.8814 N   0  0  0  0  0  0  0  0  0  0  0  0
  -27.7541  -19.4477   18.8498 N   0  0  0  0  0  0  0  0  0  0  0  0
  -24.4808  -30.4836   24.3072 N   0  0  0  0  0  0  0  0  0  0  0  0
  -21.0272  -29.9328   18.4565 N   0  0  0  0  0  0  0  0  0  0  0  0
  -22.2628  -30.6722   15.1408 N   0  3  0  0  0  0  0  0  0  0  0  0
  -31.8209  -12.1898   16.9613 O   0  0  0  0  0  0  0  0  0  0  0  0
  -23.3351  -28.7670   23.2287 O   0  0  0  0  0  0  0  0  0  0  0  0
  -21.4690  -31.1675   21.0039 O   0  0  0  0  0  0  0  0  0  0  0  0
  -22.3893  -28.6469   17.0898 O   0  0  0  0  0  0  0  0  0  0  0  0
  -28.8036  -20.9279   20.2952 O   0  0  0  0  0  0  0  0  0  0  0  0
  -25.9795   -9.0008   20.9979 O   0  0  0  0  0  0  0  0  0  0  0  0
  -28.4779  -23.4926   16.3341 O   0  0  0  0  0  0  0  0  0  0  0  0
  -28.2592  -26.2890   19.6070 O   0  0  0  0  0  0  0  0  0  1  0  0
  -20.5819  -10.0549   21.3964 F   0  0  0  0  0  0  0  0  0  0  0  0
  -24.1492   -7.6369   19.4384 F   0  0  0  0  0  0  0  0  0  0  0  0
  1  2  1  0  0  0  0
  1  5  2  0  0  0  0
  2  6  2  0  0  0  0
  3  8  2  0  0  0  0
  3 17  1  0  0  0  0
  4  9  1  0  0  0  0
  4 17  2  0  0  0  0
  5 19  1  0  0  0  0
  6 21  1  0  0  0  0
  7 10  2  0  0  0  0
  7 20  1  0  0  0  0
  8 26  1  0  0  0  0
  9 26  2  0  0  0  0
 10 27  1  0  0  0  0
 11 12  2  0  0  0  0
 11 28  1  0  0  0  0
 12 30  1  0  0  0  0
 13 22  1  0  0  0  0
 13 27  2  0  0  0  0
 14 23  2  0  0  0  0
 14 29  1  0  0  0  0
 15 25  1  0  0  0  0
 15 29  2  0  0  0  0
 16 30  2  0  0  0  0
 16 31  1  0  0  0  0
 17 32  1  0  0  0  0
 18 32  1  0  0  0  0
 18 33  2  0  0  0  0
 18 34  1  0  0  0  0
 19 21  2  0  0  0  0
 19 39  1  0  0  0  0
 20 22  2  0  0  0  0
 20 40  1  0  0  0  0
 21 48  1  0  0  0  0
 22 41  1  0  0  0  0
 23 24  1  0  0  0  0
 23 51  1  0  0  0  0
 24 25  2  0  0  0  0
 24 52  1  0  0  0  0
 25 73  1  0  0  0  0
 26 82  1  0  0  0  0
 27 84  1  0  0  0  0
 28 31  2  0  0  0  0
 28 82  1  0  0  0  0
 29 83  1  0  0  0  0
 30 85  1  0  0  0  0
 31 86  1  0  0  0  0
 32 67  2  0  0  0  0
 33 68  1  0  0  0  0
 33 71  1  0  0  0  0
 34 72  1  0  0  0  0
 34 77  2  0  0  0  0
 35 49  1  0  0  0  0
 35 74  1  0  0  0  0
 35 78  2  0  0  0  0
 36 62  1  0  0  0  0
 36 69  1  0  0  0  0
 36 79  2  0  0  0  0
 37 63  1  0  0  0  0
 37 75  1  0  0  0  0
 37 80  2  0  0  0  0
 38 70  1  0  0  0  0
 38 73  1  0  0  0  0
 38 81  2  0  0  0  0
 39 42  1  0  0  0  0
 40 49  1  0  0  0  0
 41 69  1  0  0  0  0
 42 44  1  0  0  0  0
 43 45  1  0  0  0  0
 43 46  1  0  0  0  0
 44 48  1  0  0  0  0
 45 50  1  0  0  0  0
 46 70  1  0  0  0  0
 47 50  1  0  0  0  0
 47 70  1  0  0  0  0
 48 74  1  0  0  0  0
 49 69  1  0  0  0  0
 50 68  1  0  0  0  0
 53 60  1  0  0  0  0
 54 63  1  0  0  0  0
 55 65  1  0  0  0  0
 56 66  1  0  0  0  0
 57 66  1  0  0  0  0
 58 66  1  0  0  0  0
 59 76  1  0  0  0  0
 60 64  1  0  0  0  0
 61 64  1  0  0  0  0
 61 83  1  0  0  0  0
 62 66  1  0  0  0  0
 62 75  1  0  0  0  0
 63 76  1  0  0  0  0
 64 65  1  0  0  0  0
 65 84  1  0  0  0  0
 67 68  1  0  0  0  0
M  CHG  1  76   1
M  ISO  4  38 100  65 101  73 100  84 101
M  END
> <Batch ID>
0136

> <Smiles>
CCC(COc1cc(C)c(C)c([100NH:0][100C:0](=O)N2CCCC(n3nc(-c4ccc(Oc5ccc(F)cc5F)cc4)c(C(N)=O)c3N)C2)c1)[101CH:1](C)[101O:1]c1ccc2c(c1)CN(C(=O)C(NC(=O)C(C)NC)C(C)(C)C)C(C(=O)NC1CCCc3ccccc31)C2

> <Shape>
0.271

> <Color>
0.084

> <Negative vol penalty>
0.000

$$$$

  -OEChem-04052302393D

 86 94  0     1  0  0  0  0  0999 V2000
  -37.2831  -13.4020   24.0635 C   0  0  0  0  0  0  0  0  0  0  0  0
  -36.6732  -14.6037   23.7178 C   0  0  0  0  0  0  0  0  0  0  0  0
  -26.8385  -29.7722   20.4446 C   0  0  0  0  0  0  0  0  0  0  0  0
  -22.0214  -18.1845   22.6109 C   0  0  0  0  0  0  0  0  0  0  0  0
  -21.4687  -19.3613   20.5746 C   0  0  0  0  0  0  0  0  0  0  0  0
  -36.8643  -12.2126   23.4686 C   0  0  0  0  0  0  0  0  0  0  0  0
  -35.6449  -14.6168   22.7762 C   0  0  0  0  0  0  0  0  0  0  0  0
  -30.7442  -18.2892   22.7276 C   0  0  0  0  0  0  0  0  0  0  0  0
  -27.7000  -29.3613   19.4275 C   0  0  0  0  0  0  0  0  0  0  0  0
  -26.2640  -28.8283   21.2959 C   0  0  0  0  0  0  0  0  0  0  0  0
  -21.0138  -17.2564   22.3481 C   0  0  0  0  0  0  0  0  0  0  0  0
  -20.4611  -18.4332   20.3118 C   0  0  0  0  0  0  0  0  0  0  0  0
  -30.4609  -19.4662   22.0360 C   0  0  0  0  0  0  0  0  0  0  0  0
  -20.2279  -15.2917   19.0883 C   0  0  0  0  0  0  0  0  0  0  0  0
  -20.1317  -14.7921   17.7896 C   0  0  0  0  0  0  0  0  0  0  0  0
  -29.2947  -18.1898   20.3537 C   0  0  0  0  0  0  0  0  0  0  0  0
  -27.4124  -27.0624   20.1127 C   0  0  0  0  0  0  0  0  0  0  0  0
  -17.8864  -15.6675   17.6190 C   0  0  0  0  0  0  0  0  0  0  0  0
  -22.2488  -19.2370   21.7241 C   0  0  0  0  0  0  0  0  0  0  0  0
  -24.6356  -20.1276   21.5899 C   0  0  0  0  0  0  0  0  0  0  0  0
  -35.8237  -12.2099   22.5264 C   0  0  0  0  0  0  0  0  0  0  0  0
  -30.3136  -17.0506   22.2309 C   0  0  0  0  0  0  0  0  0  0  0  0
  -35.2126  -13.4264   22.1672 C   0  0  0  0  0  0  0  0  0  0  0  0
  -29.5717  -16.9989   21.0422 C   0  0  0  0  0  0  0  0  0  0  0  0
  -27.9869  -28.0064   19.2615 C   0  0  0  0  0  0  0  0  0  0  0  0
  -26.5509  -27.4734   21.1299 C   0  0  0  0  0  0  0  0  0  0  0  0
  -20.2337  -17.3808   21.1986 C   0  0  0  0  0  0  0  0  0  0  0  0
  -29.7385  -19.4163   20.8474 C   0  0  0  0  0  0  0  0  0  0  0  0
  -19.1532  -15.9792   19.6525 C   0  0  0  0  0  0  0  0  0  0  0  0
  -18.9610  -14.9800   17.0549 C   0  0  0  0  0  0  0  0  0  0  0  0
  -17.9825  -16.1671   18.9178 C   0  0  0  0  0  0  0  0  0  0  0  0
  -23.2892  -20.1963   21.9953 C   0  0  0  0  0  0  0  0  0  0  0  0
  -25.2050  -21.2709   22.0951 C   0  0  0  0  0  0  0  0  0  0  0  0
  -25.3111  -19.1205   20.8251 C   0  0  0  0  0  0  0  0  0  0  0  0
  -31.7667  -14.3978   21.2536 C   0  0  0  0  0  0  0  0  0  0  0  0
  -29.5621  -22.9628   19.8625 C   0  0  0  0  0  0  0  0  0  0  0  0
  -28.7315  -13.2677   21.0712 C   0  0  0  0  0  0  0  0  0  0  0  0
  -25.4029  -13.9446   20.7414 C   0  0  0  0  0  0  0  0  0  0  0  0
  -25.0930  -26.7545   23.0544 C   0  0  0  0  0  0  0  0  0  0  0  0
  -35.4374  -10.9054   21.8753 C   0  0  0  0  0  0  0  0  0  0  0  0
  -30.6043  -15.7927   23.0027 C   0  0  0  0  0  0  0  0  0  0  0  0
  -29.0690  -15.6964   20.4771 C   0  0  0  0  0  0  0  0  0  0  0  0
  -34.0878  -10.9560   21.1638 C   0  0  0  0  0  0  0  0  0  0  0  0
  -23.4102  -24.6642   25.3945 C   0  0  0  0  0  0  0  0  0  0  0  0
  -33.9831  -12.2133   20.3064 C   0  0  0  0  0  0  0  0  0  0  0  0
  -23.3395  -23.3098   24.6854 C   0  0  0  0  0  0  0  0  0  0  0  0
  -23.2346  -25.8256   24.4178 C   0  0  0  0  0  0  0  0  0  0  0  0
  -24.0667  -24.4504   22.5507 C   0  0  0  0  0  0  0  0  0  0  0  0
  -34.0770  -13.4781   21.1682 C   0  0  1  0  0  0  0  0  0  0  0  0
  -30.5595  -14.5370   22.1374 C   0  0  1  0  0  0  0  0  0  0  0  0
  -24.3031  -23.2517   23.4839 C   0  0  2  0  0  0  0  0  0  0  0  0
  -23.1683  -12.8130   20.5879 C   0  0  0  0  0  0  0  0  0  0  0  0
  -32.1794  -26.4085   19.9858 C   0  0  0  0  0  0  0  0  0  0  0  0
  -29.3317  -12.4793   18.1854 C   0  0  0  0  0  0  0  0  0  0  0  0
  -26.8672  -12.2509   17.8086 C   0  0  0  0  0  0  0  0  0  0  0  0
  -28.0128  -10.7908   19.4753 C   0  0  0  0  0  0  0  0  0  0  0  0
  -24.4265  -15.2837   23.1934 C   0  0  0  0  0  0  0  0  0  0  0  0
  -28.9183  -27.5627   18.1617 C   0  0  0  0  0  0  0  0  0  0  0  0
  -29.9409  -21.7833   20.7345 C   0  0  0  0  0  0  0  0  0  1  0  0
  -30.0315  -24.3195   20.3464 C   0  0  0  0  0  0  0  0  0  0  0  0
  -30.3933  -27.5046   18.5851 C   0  0  0  0  0  0  0  0  0  0  0  0
  -27.6640  -13.2384   20.0043 C   0  0  1  0  0  0  0  0  0  0  0  0
  -24.1931  -13.4500   21.5135 C   0  0  2  0  0  0  0  0  0  0  0  0
  -30.6875  -26.4770   19.6849 C   0  0  1  0  0  0  0  0  0  0  0  0
  -27.9799  -12.2144   18.8778 C   0  0  0  0  0  0  0  0  0  0  0  0
  -23.0194  -21.2961   22.7036 N   0  0  0  0  0  0  0  0  0  0  0  0
  -24.2041  -21.9290   22.7472 N   0  0  0  0  0  0  0  0  0  0  0  0
  -29.3843  -14.4933   21.2650 N   0  0  0  0  0  0  0  0  0  0  0  0
  -24.1832  -25.7063   23.3083 N   0  0  0  0  0  0  0  0  0  0  0  0
  -26.4592  -21.7673   22.0407 N   0  0  0  0  0  0  0  0  0  0  0  0
  -24.5764  -18.0112   20.3843 N   0  0  0  0  0  0  0  0  0  0  0  0
  -25.9677  -26.5148   21.9952 N   0  0  0  0  0  0  0  0  0  0  0  0
  -32.8203  -13.7249   21.8422 N   0  0  0  0  0  0  0  0  0  0  0  0
  -26.4024  -12.9958   20.6957 N   0  0  0  0  0  0  0  0  0  0  0  0
  -23.5392  -14.5805   22.2315 N   0  3  0  0  0  0  0  0  0  0  0  0
  -26.5338  -19.1937   20.5548 O   0  0  0  0  0  0  0  0  0  0  0  0
  -31.7433  -14.8649   20.1209 O   0  0  0  0  0  0  0  0  0  0  0  0
  -28.9133  -22.8273   18.8263 O   0  0  0  0  0  0  0  0  0  0  0  0
  -28.9723  -12.2428   21.7141 O   0  0  0  0  0  0  0  0  0  0  0  0
  -25.4545  -15.0595   20.2268 O   0  0  0  0  0  0  0  0  0  0  0  0
  -25.1139  -27.7770   23.7444 O   0  0  0  0  0  0  0  0  0  0  0  0
  -19.2505  -16.4752   20.9417 O   0  0  0  0  0  0  0  0  0  0  0  0
  -29.4612  -20.5636   20.1700 O   0  0  0  0  0  0  0  0  0  1  0  0
  -30.2450  -25.1922   19.2571 O   0  0  0  0  0  0  0  0  0  0  0  0
  -18.8694  -14.5015   15.8072 F   0  0  0  0  0  0  0  0  0  0  0  0
  -16.9472  -16.8278   19.4540 F   0  0  0  0  0  0  0  0  0  0  0  0
  1  2  1  0  0  0  0
  1  6  2  0  0  0  0
  2  7  2  0  0  0  0
  3  9  2  0  0  0  0
  3 10  1  0  0  0  0
  4 11  2  0  0  0  0
  4 19  1  0  0  0  0
  5 12  1  0  0  0  0
  5 19  2  0  0  0  0
  6 21  1  0  0  0  0
  7 23  1  0  0  0  0
  8 13  2  0  0  0  0
  8 22  1  0  0  0  0
  9 25  1  0  0  0  0
 10 26  2  0  0  0  0
 11 27  1  0  0  0  0
 12 27  2  0  0  0  0
 13 28  1  0  0  0  0
 14 15  2  0  0  0  0
 14 29  1  0  0  0  0
 15 30  1  0  0  0  0
 16 24  1  0  0  0  0
 16 28  2  0  0  0  0
 17 25  2  0  0  0  0
 17 26  1  0  0  0  0
 18 30  2  0  0  0  0
 18 31  1  0  0  0  0
 19 32  1  0  0  0  0
 20 32  1  0  0  0  0
 20 33  2  0  0  0  0
 20 34  1  0  0  0  0
 21 23  2  0  0  0  0
 21 40  1  0  0  0  0
 22 24  2  0  0  0  0
 22 41  1  0  0  0  0
 23 49  1  0  0  0  0
 24 42  1  0  0  0  0
 25 58  1  0  0  0  0
 26 72  1  0  0  0  0
 27 82  1  0  0  0  0
 28 83  1  0  0  0  0
 29 31  2  0  0  0  0
 29 82  1  0  0  0  0
 30 85  1  0  0  0  0
 31 86  1  0  0  0  0
 32 66  2  0  0  0  0
 33 67  1  0  0  0  0
 33 70  1  0  0  0  0
 34 71  1  0  0  0  0
 34 76  2  0  0  0  0
 35 50  1  0  0  0  0
 35 73  1  0  0  0  0
 35 77  2  0  0  0  0
 36 59  1  0  0  0  0
 36 60  1  0  0  0  0
 36 78  2  0  0  0  0
 37 62  1  0  0  0  0
 37 68  1  0  0  0  0
 37 79  2  0  0  0  0
 38 63  1  0  0  0  0
 38 74  1  0  0  0  0
 38 80  2  0  0  0  0
 39 69  1  0  0  0  0
 39 72  1  0  0  0  0
 39 81  2  0  0  0  0
 40 43  1  0  0  0  0
 41 50  1  0  0  0  0
 42 68  1  0  0  0  0
 43 45  1  0  0  0  0
 44 46  1  0  0  0  0
 44 47  1  0  0  0  0
 45 49  1  0  0  0  0
 46 51  1  0  0  0  0
 47 69  1  0  0  0  0
 48 51  1  0  0  0  0
 48 69  1  0  0  0  0
 49 73  1  0  0  0  0
 50 68  1  0  0  0  0
 51 67  1  0  0  0  0
 52 63  1  0  0  0  0
 53 64  1  0  0  0  0
 54 65  1  0  0  0  0
 55 65  1  0  0  0  0
 56 65  1  0  0  0  0
 57 75  1  0  0  0  0
 58 61  1  0  0  0  0
 59 83  1  0  0  0  0
 60 84  1  0  0  0  0
 61 64  1  0  0  0  0
 62 65  1  0  0  0  0
 62 74  1  0  0  0  0
 63 75  1  0  0  0  0
 64 84  1  0  0  0  0
 66 67  1  0  0  0  0
M  CHG  1  75   1
M  ISO  4  39 100  59 101  72 100  83 101
M  END
> <Batch ID>
0136

> <Smiles>
CNC(C)C(=O)NC(C(=O)N1Cc2cc([101O:1][101CH2:1]C(=O)COC(C)CCc3cccc([100NH:0][100C:0](=O)N4CCCC(n5nc(-c6ccc(Oc7ccc(F)cc7F)cc6)c(C(N)=O)c5N)C4)c3)ccc2CC1C(=O)NC1CCCc2ccccc21)C(C)(C)C

> <Shape>
0.191

> <Color>
0.095

> <Negative vol penalty>
0.000

$$$$

  -OEChem-04052302393D

 89 97  0     1  0  0  0  0  0999 V2000
  -25.2786  -24.8227   29.8329 C   0  0  0  0  0  0  0  0  0  0  0  0
  -26.3372  -25.0886   28.9703 C   0  0  0  0  0  0  0  0  0  0  0  0
  -22.9722   -9.8096   20.0684 C   0  0  0  0  0  0  0  0  0  0  0  0
  -23.6654  -10.0032   22.3748 C   0  0  0  0  0  0  0  0  0  0  0  0
  -24.2065  -24.0438   29.3994 C   0  0  0  0  0  0  0  0  0  0  0  0
  -26.3249  -24.5748   27.6740 C   0  0  0  0  0  0  0  0  0  0  0  0
  -28.5554  -27.2450   22.6342 C   0  0  0  0  0  0  0  0  0  0  0  0
  -22.2021   -8.6930   20.3936 C   0  0  0  0  0  0  0  0  0  0  0  0
  -22.8952   -8.8866   22.7000 C   0  0  0  0  0  0  0  0  0  0  0  0
  -29.7574  -27.0909   21.9447 C   0  0  0  0  0  0  0  0  0  0  0  0
  -23.1461   -5.5252   22.4383 C   0  0  0  0  0  0  0  0  0  0  0  0
  -23.7232   -4.5568   23.2598 C   0  0  0  0  0  0  0  0  0  0  0  0
  -28.6851  -25.5475   20.4323 C   0  0  0  0  0  0  0  0  0  0  0  0
  -29.7279  -19.3109   21.8332 C   0  0  0  0  0  0  0  0  0  0  0  0
  -21.9762   -4.9011   24.8928 C   0  0  0  0  0  0  0  0  0  0  0  0
  -31.1479  -17.5528   20.3040 C   0  0  0  0  0  0  0  0  0  0  0  0
  -23.7039  -10.4647   21.0590 C   0  0  0  0  0  0  0  0  0  0  0  0
  -24.0916  -12.9650   20.7335 C   0  0  0  0  0  0  0  0  0  0  0  0
  -24.1764  -23.5283   28.0941 C   0  0  0  0  0  0  0  0  0  0  0  0
  -27.4101  -26.5419   22.2338 C   0  0  0  0  0  0  0  0  0  0  0  0
  -25.2520  -23.7872   27.2231 C   0  0  0  0  0  0  0  0  0  0  0  0
  -27.4692  -25.6964   21.1168 C   0  0  0  0  0  0  0  0  0  0  0  0
  -29.5014  -17.9463   21.9746 C   0  0  0  0  0  0  0  0  0  0  0  0
  -30.2208  -17.0438   21.1991 C   0  0  0  0  0  0  0  0  0  0  0  0
  -22.1636   -8.2315   21.7093 C   0  0  0  0  0  0  0  0  0  0  0  0
  -29.8231  -26.2399   20.8454 C   0  0  0  0  0  0  0  0  0  0  0  0
  -21.9841   -6.1816   22.8441 C   0  0  0  0  0  0  0  0  0  0  0  0
  -23.1382   -4.2447   24.4870 C   0  0  0  0  0  0  0  0  0  0  0  0
  -21.3992   -5.8695   24.0713 C   0  0  0  0  0  0  0  0  0  0  0  0
  -24.5001  -11.6178   20.7236 C   0  0  0  0  0  0  0  0  0  0  0  0
  -30.6772  -19.7183   20.9099 C   0  0  0  0  0  0  0  0  0  0  0  0
  -25.2063  -13.6647   20.3407 C   0  0  0  0  0  0  0  0  0  0  0  0
  -32.1289  -24.0875   20.8075 C   0  0  0  0  0  0  0  0  0  0  0  0
  -22.8184  -13.5331   21.0680 C   0  0  0  0  0  0  0  0  0  0  0  0
  -32.0024  -23.2350   21.8388 C   0  0  0  0  0  0  0  0  0  0  0  0
  -25.5278  -24.3654   23.5841 C   0  0  0  0  0  0  0  0  0  0  0  0
  -23.7577  -24.7982   20.9005 C   0  0  0  0  0  0  0  0  0  0  0  0
  -23.6434  -25.7674   17.6303 C   0  0  0  0  0  0  0  0  0  0  0  0
  -30.6820  -14.6431   20.5907 C   0  0  0  0  0  0  0  0  0  0  0  0
  -23.0184  -22.6523   27.6861 C   0  0  0  0  0  0  0  0  0  0  0  0
  -26.1145  -26.7396   22.9718 C   0  0  0  0  0  0  0  0  0  0  0  0
  -26.2629  -24.9345   20.6342 C   0  0  0  0  0  0  0  0  0  0  0  0
  -22.9045  -22.4574   26.1763 C   0  0  0  0  0  0  0  0  0  0  0  0
  -29.5961  -12.0505   18.4052 C   0  0  0  0  0  0  0  0  0  0  0  0
  -24.2670  -22.1244   25.5767 C   0  0  0  0  0  0  0  0  0  0  0  0
  -28.1399  -11.8176   18.8144 C   0  0  0  0  0  0  0  0  0  0  0  0
  -30.4798  -12.3688   19.6101 C   0  0  0  0  0  0  0  0  0  0  0  0
  -28.5461  -13.2367   20.8657 C   0  0  0  0  0  0  0  0  0  0  0  0
  -25.2632  -23.2683   25.8016 C   0  0  1  0  0  0  0  0  0  0  0  0
  -25.1400  -25.5801   22.7893 C   0  0  1  0  0  0  0  0  0  0  0  0
  -27.6050  -12.9766   19.6782 C   0  0  2  0  0  0  0  0  0  0  0  0
  -26.1523  -16.5454   23.2883 C   0  0  0  0  0  0  0  0  0  0  0  0
  -33.3903  -26.1961   20.3548 C   0  0  0  0  0  0  0  0  0  0  0  0
  -33.4403  -21.2905   21.1496 C   0  0  0  0  0  0  0  0  0  0  0  0
  -22.0643  -25.9735   15.6908 C   0  0  0  0  0  0  0  0  0  0  0  0
  -23.8788  -21.7780   20.4842 C   0  0  0  0  0  0  0  0  0  0  0  0
  -23.1434  -22.1446   18.1192 C   0  0  0  0  0  0  0  0  0  0  0  0
  -21.6512  -22.8087   20.0047 C   0  0  0  0  0  0  0  0  0  0  0  0
  -24.0512  -28.6938   17.4596 C   0  0  0  0  0  0  0  0  0  0  0  0
  -30.6286  -23.2753   23.7066 C   0  0  0  0  0  0  0  0  0  0  0  0
  -28.4842  -17.4784   22.9630 C   0  0  0  0  0  0  0  0  0  0  0  0
  -30.9495  -21.1933   20.7292 C   0  0  0  0  0  0  0  0  0  0  0  0
  -27.1745  -17.0530   22.2837 C   0  0  0  0  0  0  0  0  0  0  0  0
  -32.1090  -25.5868   20.9096 C   0  0  1  0  0  0  0  0  0  1  0  0
  -32.0619  -21.7279   21.6582 C   0  0  2  0  0  0  0  0  0  0  0  0
  -23.7267  -24.1713   19.5276 C   0  0  1  0  0  0  0  0  0  0  0  0
  -22.6887  -26.6812   16.8833 C   0  0  2  0  0  0  0  0  0  0  0  0
  -23.1234  -22.7384   19.5439 C   0  0  0  0  0  0  0  0  0  0  0  0
  -31.3956  -18.8715   20.1388 N   0  0  0  0  0  0  0  0  0  0  0  0
  -25.7748  -11.4682   20.3536 N   0  0  0  0  0  0  0  0  0  0  0  0
  -26.1768  -12.7304   20.1273 N   0  0  0  0  0  0  0  0  0  0  0  0
  -25.0208  -25.1564   21.3927 N   0  0  0  0  0  0  0  0  0  0  0  0
  -29.9131  -13.4793   20.3786 N   0  0  0  0  0  0  0  0  0  0  0  0
  -25.4412  -14.9817   20.1603 N   0  0  0  0  0  0  0  0  0  0  0  0
  -21.7820  -12.6709   21.4511 N   0  0  0  0  0  0  0  0  0  0  0  0
  -30.0269  -15.6444   21.3069 N   0  0  0  0  0  0  0  0  0  0  0  0
  -25.0153  -24.3453   24.8672 N   0  0  0  0  0  0  0  0  0  0  0  0
  -23.0150  -25.1094   18.6664 N   0  0  0  0  0  0  0  0  0  0  0  0
  -23.4080  -27.8892   16.3891 N   0  3  0  0  0  0  0  0  0  0  0  0
  -22.6014  -14.7673   21.0126 O   0  0  0  0  0  0  0  0  0  0  0  0
  -26.2382  -23.5089   23.0707 O   0  0  0  0  0  0  0  0  0  0  0  0
  -22.6996  -24.9706   21.5107 O   0  0  0  0  0  0  0  0  0  0  0  0
  -24.8272  -25.6463   17.3229 O   0  0  0  0  0  0  0  0  0  0  0  0
  -31.8268  -14.7548   20.1448 O   0  0  0  0  0  0  0  0  0  0  0  0
  -21.4120   -7.1422   22.0271 O   0  0  0  0  0  0  0  0  0  0  0  0
  -30.9952  -26.0872   20.1711 O   0  0  0  0  0  0  0  0  0  1  0  0
  -31.8339  -23.7087   23.1275 O   0  0  0  0  0  0  0  0  0  0  0  0
  -23.6917   -3.3137   25.2751 F   0  0  0  0  0  0  0  0  0  0  0  0
  -20.2822   -6.4959   24.4660 F   0  0  0  0  0  0  0  0  0  0  0  0
  1  2  1  0  0  0  0
  1  5  2  0  0  0  0
  2  6  2  0  0  0  0
  3  8  2  0  0  0  0
  3 17  1  0  0  0  0
  4  9  1  0  0  0  0
  4 17  2  0  0  0  0
  5 19  1  0  0  0  0
  6 21  1  0  0  0  0
  7 10  2  0  0  0  0
  7 20  1  0  0  0  0
  8 25  1  0  0  0  0
  9 25  2  0  0  0  0
 10 26  1  0  0  0  0
 11 12  2  0  0  0  0
 11 27  1  0  0  0  0
 12 28  1  0  0  0  0
 13 22  1  0  0  0  0
 13 26  2  0  0  0  0
 14 23  1  0  0  0  0
 14 31  2  0  0  0  0
 15 28  2  0  0  0  0
 15 29  1  0  0  0  0
 16 24  1  0  0  0  0
 16 69  2  0  0  0  0
 17 30  1  0  0  0  0
 18 30  1  0  0  0  0
 18 32  2  0  0  0  0
 18 34  1  0  0  0  0
 19 21  2  0  0  0  0
 19 40  1  0  0  0  0
 20 22  2  0  0  0  0
 20 41  1  0  0  0  0
 21 49  1  0  0  0  0
 22 42  1  0  0  0  0
 23 24  2  0  0  0  0
 23 61  1  0  0  0  0
 24 76  1  0  0  0  0
 25 85  1  0  0  0  0
 26 86  1  0  0  0  0
 27 29  2  0  0  0  0
 27 85  1  0  0  0  0
 28 88  1  0  0  0  0
 29 89  1  0  0  0  0
 30 70  2  0  0  0  0
 31 62  1  0  0  0  0
 31 69  1  0  0  0  0
 32 71  1  0  0  0  0
 32 74  1  0  0  0  0
 33 35  2  0  0  0  0
 33 64  1  0  0  0  0
 34 75  1  0  0  0  0
 34 80  2  0  0  0  0
 35 65  1  0  0  0  0
 35 87  1  0  0  0  0
 36 50  1  0  0  0  0
 36 77  1  0  0  0  0
 36 81  2  0  0  0  0
 37 66  1  0  0  0  0
 37 72  1  0  0  0  0
 37 82  2  0  0  0  0
 38 67  1  0  0  0  0
 38 78  1  0  0  0  0
 38 83  2  0  0  0  0
 39 73  1  0  0  0  0
 39 76  1  0  0  0  0
 39 84  2  0  0  0  0
 40 43  1  0  0  0  0
 41 50  1  0  0  0  0
 42 72  1  0  0  0  0
 43 45  1  0  0  0  0
 44 46  1  0  0  0  0
 44 47  1  0  0  0  0
 45 49  1  0  0  0  0
 46 51  1  0  0  0  0
 47 73  1  0  0  0  0
 48 51  1  0  0  0  0
 48 73  1  0  0  0  0
 49 77  1  0  0  0  0
 50 72  1  0  0  0  0
 51 71  1  0  0  0  0
 52 63  1  0  0  0  0
 53 64  1  0  0  0  0
 54 65  1  0  0  0  0
 55 67  1  0  0  0  0
 56 68  1  0  0  0  0
 57 68  1  0  0  0  0
 58 68  1  0  0  0  0
 59 79  1  0  0  0  0
 60 87  1  0  0  0  0
 61 63  1  0  0  0  0
 62 65  1  0  0  0  0
 64 86  1  0  0  0  0
 66 68  1  0  0  0  0
 66 78  1  0  0  0  0
 67 79  1  0  0  0  0
 70 71  1  0  0  0  0
M  CHG  1  79   1
M  ISO  4  39 100  64 101  76 100  86 101
M  END
> <Batch ID>
0136

> <Smiles>
CCCc1cc(CC(C)C(=C[101CH:1](C)[101O:1]c2ccc3c(c2)CN(C(=O)C(NC(=O)C(C)NC)C(C)(C)C)C(C(=O)NC2CCCc4ccccc42)C3)OC)ncc1[100NH:0][100C:0](=O)N1CCCC(n2nc(-c3ccc(Oc4ccc(F)cc4F)cc3)c(C(N)=O)c2N)C1

> <Shape>
0.216

> <Color>
0.194

> <Negative vol penalty>
0.000

$$$$

  -OEChem-04052302393D

 86 94  0     1  0  0  0  0  0999 V2000
  -30.6375  -25.6723   17.2851 C   0  0  0  0  0  0  0  0  0  0  0  0
  -29.2535  -25.5884   17.3994 C   0  0  0  0  0  0  0  0  0  0  0  0
  -27.9392  -15.8014   19.5432 C   0  0  0  0  0  0  0  0  0  0  0  0
  -25.6387  -16.4778   19.8387 C   0  0  0  0  0  0  0  0  0  0  0  0
  -31.3919  -26.1968   18.3338 C   0  0  0  0  0  0  0  0  0  0  0  0
  -28.6233  -26.0280   18.5630 C   0  0  0  0  0  0  0  0  0  0  0  0
  -23.1352  -28.7125   18.9880 C   0  0  0  0  0  0  0  0  0  0  0  0
  -27.5988  -14.4933   19.8877 C   0  0  0  0  0  0  0  0  0  0  0  0
  -25.2983  -15.1697   20.1832 C   0  0  0  0  0  0  0  0  0  0  0  0
  -21.8725  -28.2193   19.3136 C   0  0  0  0  0  0  0  0  0  0  0  0
  -26.1521  -11.8224   18.4024 C   0  0  0  0  0  0  0  0  0  0  0  0
  -26.6632  -10.7908   17.6149 C   0  0  0  0  0  0  0  0  0  0  0  0
  -23.6958  -23.7166   22.9998 C   0  0  0  0  0  0  0  0  0  0  0  0
  -22.9212  -24.8925   24.9630 C   0  0  0  0  0  0  0  0  0  0  0  0
  -22.1925  -28.9251   21.5981 C   0  0  0  0  0  0  0  0  0  0  0  0
  -25.2893  -24.7082   24.5212 C   0  0  0  0  0  0  0  0  0  0  0  0
  -27.7793   -9.8677   19.5486 C   0  0  0  0  0  0  0  0  0  0  0  0
  -26.9591  -16.7937   19.5188 C   0  0  0  0  0  0  0  0  0  0  0  0
  -22.6482  -24.1700   23.8015 C   0  0  0  0  0  0  0  0  0  0  0  0
  -27.3114  -18.7126   17.8752 C   0  0  0  0  0  0  0  0  0  0  0  0
  -30.7697  -26.6519   19.5069 C   0  0  0  0  0  0  0  0  0  0  0  0
  -23.9419  -29.3069   19.9690 C   0  0  0  0  0  0  0  0  0  0  0  0
  -29.3702  -26.5578   19.6289 C   0  0  0  0  0  0  0  0  0  0  0  0
  -23.4640  -29.4273   21.2818 C   0  0  0  0  0  0  0  0  0  0  0  0
  -25.0163  -23.9857   23.3597 C   0  0  0  0  0  0  0  0  0  0  0  0
  -26.2784  -14.1775   20.2077 C   0  0  0  0  0  0  0  0  0  0  0  0
  -21.4021  -28.3229   20.6194 C   0  0  0  0  0  0  0  0  0  0  0  0
  -26.4547  -11.8767   19.7630 C   0  0  0  0  0  0  0  0  0  0  0  0
  -27.4768   -9.8134   18.1880 C   0  0  0  0  0  0  0  0  0  0  0  0
  -24.2417  -25.1616   25.3229 C   0  0  0  0  0  0  0  0  0  0  0  0
  -27.2682  -10.8993   20.3361 C   0  0  0  0  0  0  0  0  0  0  0  0
  -27.3102  -18.1452   19.1636 C   0  0  0  0  0  0  0  0  0  0  0  0
  -27.7172  -20.0100   18.0718 C   0  0  0  0  0  0  0  0  0  0  0  0
  -21.2369  -23.8805   23.4188 C   0  0  0  0  0  0  0  0  0  0  0  0
  -26.9755  -18.1199   16.6136 C   0  0  0  0  0  0  0  0  0  0  0  0
  -26.7852  -28.6557   21.2320 C   0  0  0  0  0  0  0  0  0  0  0  0
  -26.3352  -31.4962   22.7325 C   0  0  0  0  0  0  0  0  0  0  0  0
  -24.1495  -33.8557   23.8736 C   0  0  0  0  0  0  0  0  0  0  0  0
  -27.4468  -23.7062   22.7589 C   0  0  0  0  0  0  0  0  0  0  0  0
  -31.6312  -27.1674   20.6325 C   0  0  0  0  0  0  0  0  0  0  0  0
  -25.2907  -29.8580   19.5958 C   0  0  0  0  0  0  0  0  0  0  0  0
  -24.2827  -30.0751   22.3674 C   0  0  0  0  0  0  0  0  0  0  0  0
  -30.8536  -27.9574   21.6820 C   0  0  0  0  0  0  0  0  0  0  0  0
  -30.3790  -22.6968   21.0095 C   0  0  0  0  0  0  0  0  0  0  0  0
  -29.5788  -27.2161   22.0720 C   0  0  0  0  0  0  0  0  0  0  0  0
  -29.9233  -21.4703   20.2157 C   0  0  0  0  0  0  0  0  0  0  0  0
  -29.7145  -22.7620   22.3835 C   0  0  0  0  0  0  0  0  0  0  0  0
  -27.7930  -21.4492   21.5751 C   0  0  0  0  0  0  0  0  0  0  0  0
  -28.6477  -27.0472   20.8653 C   0  0  1  0  0  0  0  0  0  0  0  0
  -26.2361  -29.9816   20.7868 C   0  0  1  0  0  0  0  0  0  0  0  0
  -28.3860  -21.3751   20.1586 C   0  0  2  0  0  0  0  0  0  0  0  0
  -24.0768  -36.0481   25.0924 C   0  0  0  0  0  0  0  0  0  0  0  0
  -26.8686  -30.0479   25.3646 C   0  0  0  0  0  0  0  0  0  0  0  0
  -25.8671  -32.0043   26.5636 C   0  0  0  0  0  0  0  0  0  0  0  0
  -27.9239  -32.3081   25.1851 C   0  0  0  0  0  0  0  0  0  0  0  0
  -18.2893  -24.6507   20.1891 C   0  0  0  0  0  0  0  0  0  0  0  0
  -17.5461  -26.6453   21.4968 C   0  0  0  0  0  0  0  0  0  0  0  0
  -22.8956  -35.2270   21.5701 C   0  0  0  0  0  0  0  0  0  0  0  0
  -20.6804  -24.3785   22.0922 C   0  0  0  0  0  0  0  0  0  0  0  0
  -19.4955  -25.3197   22.3299 C   0  0  0  0  0  0  0  0  0  0  0  0
  -19.6921  -26.7275   20.1876 C   0  0  0  0  0  0  0  0  0  1  0  0
  -25.7049  -31.9297   24.0339 C   0  0  1  0  0  0  0  0  0  0  0  0
  -24.1355  -35.3672   23.7338 C   0  0  2  0  0  0  0  0  0  0  0  0
  -26.5763  -31.5585   25.2670 C   0  0  0  0  0  0  0  0  0  0  0  0
  -18.7782  -25.8295   21.0492 C   0  0  0  0  0  0  0  0  0  0  0  0
  -27.6857  -19.0112   20.1087 N   0  0  0  0  0  0  0  0  0  0  0  0
  -20.4706  -23.2040   24.2160 N   0  0  0  0  0  0  0  0  0  0  0  0
  -27.9267  -20.1358   19.4136 N   0  0  0  0  0  0  0  0  0  0  0  0
  -25.5975  -30.5929   21.9542 N   0  0  0  0  0  0  0  0  0  0  0  0
  -28.2589  -22.6704   22.2506 N   0  0  0  0  0  0  0  0  0  0  0  0
  -27.9119  -21.0440   17.2260 N   0  0  0  0  0  0  0  0  0  0  0  0
  -26.5783  -16.7761   16.5914 N   0  0  0  0  0  0  0  0  0  0  0  0
  -26.0807  -23.5253   22.5455 N   0  0  0  0  0  0  0  0  0  0  0  0
  -27.9501  -28.2845   20.5881 N   0  0  0  0  0  0  0  0  0  0  0  0
  -25.4348  -33.3572   23.9011 N   0  0  0  0  0  0  0  0  0  0  0  0
  -22.9530  -35.8029   22.9383 N   0  3  0  0  0  0  0  0  0  0  0  0
  -27.0420  -18.7584   15.5359 O   0  0  0  0  0  0  0  0  0  0  0  0
  -26.1965  -28.0175   22.0967 O   0  0  0  0  0  0  0  0  0  0  0  0
  -27.4382  -31.9480   22.4146 O   0  0  0  0  0  0  0  0  0  0  0  0
  -23.1230  -33.1847   23.9544 O   0  0  0  0  0  0  0  0  0  0  0  0
  -27.9297  -24.6951   23.3167 O   0  0  0  0  0  0  0  0  0  0  0  0
  -25.9459  -12.9011   20.5436 O   0  0  0  0  0  0  0  0  0  0  0  0
  -20.1702  -27.8418   20.9401 O   0  0  0  0  0  0  0  0  0  1  0  0
  -27.9662   -8.8220   17.4319 F   0  0  0  0  0  0  0  0  0  0  0  0
  -24.5040  -25.8528   26.4398 F   0  0  0  0  0  0  0  0  0  0  0  0
  -27.5614  -10.9455   21.6429 F   0  0  0  0  0  0  0  0  0  0  0  0
  1  2  1  0  0  0  0
  1  5  2  0  0  0  0
  2  6  2  0  0  0  0
  3  8  2  0  0  0  0
  3 18  1  0  0  0  0
  4  9  1  0  0  0  0
  4 18  2  0  0  0  0
  5 21  1  0  0  0  0
  6 23  1  0  0  0  0
  7 10  2  0  0  0  0
  7 22  1  0  0  0  0
  8 26  1  0  0  0  0
  9 26  2  0  0  0  0
 10 27  1  0  0  0  0
 11 12  2  0  0  0  0
 11 28  1  0  0  0  0
 12 29  1  0  0  0  0
 13 19  2  0  0  0  0
 13 25  1  0  0  0  0
 14 19  1  0  0  0  0
 14 30  2  0  0  0  0
 15 24  1  0  0  0  0
 15 27  2  0  0  0  0
 16 25  2  0  0  0  0
 16 30  1  0  0  0  0
 17 29  2  0  0  0  0
 17 31  1  0  0  0  0
 18 32  1  0  0  0  0
 19 34  1  0  0  0  0
 20 32  1  0  0  0  0
 20 33  2  0  0  0  0
 20 35  1  0  0  0  0
 21 23  2  0  0  0  0
 21 40  1  0  0  0  0
 22 24  2  0  0  0  0
 22 41  1  0  0  0  0
 23 49  1  0  0  0  0
 24 42  1  0  0  0  0
 25 73  1  0  0  0  0
 26 82  1  0  0  0  0
 27 83  1  0  0  0  0
 28 31  2  0  0  0  0
 28 82  1  0  0  0  0
 29 84  1  0  0  0  0
 30 85  1  0  0  0  0
 31 86  1  0  0  0  0
 32 66  2  0  0  0  0
 33 68  1  0  0  0  0
 33 71  1  0  0  0  0
 34 59  1  0  0  0  0
 34 67  2  0  0  0  0
 35 72  1  0  0  0  0
 35 77  2  0  0  0  0
 36 50  1  0  0  0  0
 36 74  1  0  0  0  0
 36 78  2  0  0  0  0
 37 62  1  0  0  0  0
 37 69  1  0  0  0  0
 37 79  2  0  0  0  0
 38 63  1  0  0  0  0
 38 75  1  0  0  0  0
 38 80  2  0  0  0  0
 39 70  1  0  0  0  0
 39 73  1  0  0  0  0
 39 81  2  0  0  0  0
 40 43  1  0  0  0  0
 41 50  1  0  0  0  0
 42 69  1  0  0  0  0
 43 45  1  0  0  0  0
 44 46  1  0  0  0  0
 44 47  1  0  0  0  0
 45 49  1  0  0  0  0
 46 51  1  0  0  0  0
 47 70  1  0  0  0  0
 48 51  1  0  0  0  0
 48 70  1  0  0  0  0
 49 74  1  0  0  0  0
 50 69  1  0  0  0  0
 51 68  1  0  0  0  0
 52 63  1  0  0  0  0
 53 64  1  0  0  0  0
 54 64  1  0  0  0  0
 55 64  1  0  0  0  0
 56 65  1  0  0  0  0
 57 65  1  0  0  0  0
 58 76  1  0  0  0  0
 59 60  1  0  0  0  0
 60 65  1  0  0  0  0
 61 65  1  0  0  0  0
 61 83  1  0  0  0  0
 62 64  1  0  0  0  0
 62 75  1  0  0  0  0
 63 76  1  0  0  0  0
 66 68  1  0  0  0  0
M  CHG  1  76   1
M  ISO  4  39 100  61 101  73 100  83 101
M  END
> <Batch ID>
0136

> <Smiles>
CNC(C)C(=O)NC(C(=O)N1Cc2cc([101O:1][101CH2:1]C(C)(C)CCC(=N)c3cc(F)cc([100NH:0][100C:0](=O)N4CCCC(n5nc(-c6ccc(Oc7ccc(F)cc7F)cc6)c(C(N)=O)c5N)C4)c3)ccc2CC1C(=O)NC1CCCc2ccccc21)C(C)(C)C

> <Shape>
0.291

> <Color>
0.056

> <Negative vol penalty>
0.000

$$$$

  -OEChem-04052302393D

 86 94  0     1  0  0  0  0  0999 V2000
  -25.5567   -6.2754   22.4183 C   0  0  0  0  0  0  0  0  0  0  0  0
  -26.4432   -7.1739   21.8332 C   0  0  0  0  0  0  0  0  0  0  0  0
  -22.9385  -30.8925   20.9634 C   0  0  0  0  0  0  0  0  0  0  0  0
  -22.7778  -28.9468   22.3867 C   0  0  0  0  0  0  0  0  0  0  0  0
  -24.1888   -6.5449   22.4145 C   0  0  0  0  0  0  0  0  0  0  0  0
  -25.9620   -8.3421   21.2430 C   0  0  0  0  0  0  0  0  0  0  0  0
  -28.7117  -13.8131   21.1314 C   0  0  0  0  0  0  0  0  0  0  0  0
  -28.4716  -21.7806   22.5449 C   0  0  0  0  0  0  0  0  0  0  0  0
  -28.4980  -23.1634   22.3639 C   0  0  0  0  0  0  0  0  0  0  0  0
  -21.5580  -30.8624   20.7664 C   0  0  0  0  0  0  0  0  0  0  0  0
  -21.3972  -28.9168   22.1898 C   0  0  0  0  0  0  0  0  0  0  0  0
  -29.4774  -14.4584   20.1614 C   0  0  0  0  0  0  0  0  0  0  0  0
  -18.6799  -30.5504   23.3594 C   0  0  0  0  0  0  0  0  0  0  0  0
  -17.8714  -30.3514   24.4785 C   0  0  0  0  0  0  0  0  0  0  0  0
  -27.5126  -15.6332   19.4007 C   0  0  0  0  0  0  0  0  0  0  0  0
  -29.7472  -22.8716   20.3165 C   0  0  0  0  0  0  0  0  0  0  0  0
  -16.9755  -28.3448   23.4743 C   0  0  0  0  0  0  0  0  0  0  0  0
  -23.5485  -29.9346   21.7735 C   0  0  0  0  0  0  0  0  0  0  0  0
  -25.6746  -30.6476   22.9896 C   0  0  0  0  0  0  0  0  0  0  0  0
  -23.6915   -7.7216   21.8325 C   0  0  0  0  0  0  0  0  0  0  0  0
  -27.3363  -14.0652   21.2365 C   0  0  0  0  0  0  0  0  0  0  0  0
  -24.5860   -8.6269   21.2302 C   0  0  0  0  0  0  0  0  0  0  0  0
  -26.7322  -14.9917   20.3746 C   0  0  0  0  0  0  0  0  0  0  0  0
  -29.0831  -20.9433   21.6117 C   0  0  0  0  0  0  0  0  0  0  0  0
  -29.7209  -21.4888   20.4976 C   0  0  0  0  0  0  0  0  0  0  0  0
  -29.1357  -23.7089   21.2497 C   0  0  0  0  0  0  0  0  0  0  0  0
  -20.7873  -29.8746   21.3796 C   0  0  0  0  0  0  0  0  0  0  0  0
  -28.8773  -15.3665   19.2939 C   0  0  0  0  0  0  0  0  0  0  0  0
  -18.6362  -29.6466   22.2978 C   0  0  0  0  0  0  0  0  0  0  0  0
  -17.0192  -29.2486   24.5359 C   0  0  0  0  0  0  0  0  0  0  0  0
  -17.7840  -28.5439   22.3553 C   0  0  0  0  0  0  0  0  0  0  0  0
  -24.9746  -29.9648   21.9769 C   0  0  0  0  0  0  0  0  0  0  0  0
  -26.9957  -30.3603   22.7474 C   0  0  0  0  0  0  0  0  0  0  0  0
  -25.1753  -31.4681   24.0541 C   0  0  0  0  0  0  0  0  0  0  0  0
  -24.7044  -12.3083   20.9365 C   0  0  0  0  0  0  0  0  0  0  0  0
  -30.4055  -18.1450   17.5529 C   0  0  0  0  0  0  0  0  0  0  0  0
  -23.2454  -15.0239   21.9462 C   0  0  0  0  0  0  0  0  0  0  0  0
  -23.3400  -18.4215   22.2526 C   0  0  0  0  0  0  0  0  0  0  0  0
  -29.7505  -25.8165   20.0142 C   0  0  0  0  0  0  0  0  0  0  0  0
  -22.2004   -7.9468   21.8110 C   0  0  0  0  0  0  0  0  0  0  0  0
  -26.5295  -13.3809   22.3057 C   0  0  0  0  0  0  0  0  0  0  0  0
  -25.2631  -15.3127   20.4592 C   0  0  0  0  0  0  0  0  0  0  0  0
  -21.8064   -9.3875   21.4957 C   0  0  0  0  0  0  0  0  0  0  0  0
  -29.9975  -29.2689   19.1792 C   0  0  0  0  0  0  0  0  0  0  0  0
  -22.6008   -9.9093   20.3026 C   0  0  0  0  0  0  0  0  0  0  0  0
  -28.8047  -29.9022   19.8990 C   0  0  0  0  0  0  0  0  0  0  0  0
  -29.6604  -27.8817   18.6352 C   0  0  0  0  0  0  0  0  0  0  0  0
  -27.9078  -27.5810   20.3402 C   0  0  0  0  0  0  0  0  0  0  0  0
  -24.1048   -9.9168   20.6019 C   0  0  1  0  0  0  0  0  0  0  0  0
  -25.0383  -13.3288   21.9876 C   0  0  1  0  0  0  0  0  0  0  0  0
  -28.2187  -28.9523   20.9620 C   0  0  2  0  0  0  0  0  0  0  0  0
  -29.0425  -19.4660   21.8274 C   0  0  0  0  0  0  0  0  0  0  0  0
  -21.9853  -20.3627   23.0857 C   0  0  0  0  0  0  0  0  0  0  0  0
  -29.2540  -19.5955   15.8410 C   0  0  0  0  0  0  0  0  0  0  0  0
  -31.5074  -20.2221   16.6898 C   0  0  0  0  0  0  0  0  0  0  0  0
  -21.4576  -14.8310   19.4812 C   0  0  0  0  0  0  0  0  0  0  0  0
  -20.8106  -17.2214   19.8493 C   0  0  0  0  0  0  0  0  0  0  0  0
  -20.2737  -15.5053   21.5783 C   0  0  0  0  0  0  0  0  0  0  0  0
  -25.4138  -19.1711   24.2264 C   0  0  0  0  0  0  0  0  0  0  0  0
  -30.3872  -20.6027   19.4740 C   0  0  0  0  0  0  0  0  0  0  0  0
  -29.2029  -17.3036   17.9532 C   0  0  0  0  0  0  0  0  0  1  0  0
  -29.5209  -20.4504   18.2156 C   0  0  0  0  0  0  0  0  0  0  0  0
  -22.6715  -16.2446   21.2684 C   0  0  1  0  0  0  0  0  0  0  0  0
  -23.0521  -19.3351   23.4303 C   0  0  2  0  0  0  0  0  0  0  0  0
  -30.1578  -19.5989   17.0893 C   0  0  0  0  0  0  0  0  0  0  0  0
  -21.3307  -15.9433   20.5412 C   0  0  0  0  0  0  0  0  0  0  0  0
  -25.7840  -29.2943   21.1526 N   0  0  0  0  0  0  0  0  0  0  0  0
  -27.0063  -29.5545   21.6470 N   0  0  0  0  0  0  0  0  0  0  0  0
  -24.5155  -14.6131   21.5172 N   0  0  0  0  0  0  0  0  0  0  0  0
  -29.1146  -27.0359   19.6989 N   0  0  0  0  0  0  0  0  0  0  0  0
  -28.1377  -30.7208   23.3705 N   0  0  0  0  0  0  0  0  0  0  0  0
  -23.7907  -31.6590   24.1574 N   0  0  0  0  0  0  0  0  0  0  0  0
  -29.1610  -25.1135   21.0644 N   0  0  0  0  0  0  0  0  0  0  0  0
  -24.4480  -11.0467   21.4385 N   0  0  0  0  0  0  0  0  0  0  0  0
  -22.5752  -17.2750   22.2967 N   0  0  0  0  0  0  0  0  0  0  0  0
  -24.2887  -20.0600   23.8379 N   0  3  0  0  0  0  0  0  0  0  0  0
  -25.9356  -32.0291   24.8791 O   0  0  0  0  0  0  0  0  0  0  0  0
  -24.6797  -12.6413   19.7574 O   0  0  0  0  0  0  0  0  0  0  0  0
  -31.5435  -17.6723   17.6084 O   0  0  0  0  0  0  0  0  0  0  0  0
  -22.5940  -14.4599   22.8290 O   0  0  0  0  0  0  0  0  0  0  0  0
  -24.1585  -18.6990   21.3788 O   0  0  0  0  0  0  0  0  0  0  0  0
  -30.7609  -25.4379   19.4161 O   0  0  0  0  0  0  0  0  0  0  0  0
  -19.4401  -29.8452   21.1879 O   0  0  0  0  0  0  0  0  0  0  0  0
  -29.6223  -15.9973   18.3458 O   0  0  0  0  0  0  0  0  0  1  0  0
  -16.2439  -29.0568   25.6113 F   0  0  0  0  0  0  0  0  0  0  0  0
  -17.7386  -27.6716   21.3390 F   0  0  0  0  0  0  0  0  0  0  0  0
  1  2  1  0  0  0  0
  1  5  2  0  0  0  0
  2  6  2  0  0  0  0
  3 10  2  0  0  0  0
  3 18  1  0  0  0  0
  4 11  1  0  0  0  0
  4 18  2  0  0  0  0
  5 20  1  0  0  0  0
  6 22  1  0  0  0  0
  7 12  2  0  0  0  0
  7 21  1  0  0  0  0
  8  9  2  0  0  0  0
  8 24  1  0  0  0  0
  9 26  1  0  0  0  0
 10 27  1  0  0  0  0
 11 27  2  0  0  0  0
 12 28  1  0  0  0  0
 13 14  2  0  0  0  0
 13 29  1  0  0  0  0
 14 30  1  0  0  0  0
 15 23  1  0  0  0  0
 15 28  2  0  0  0  0
 16 25  1  0  0  0  0
 16 26  2  0  0  0  0
 17 30  2  0  0  0  0
 17 31  1  0  0  0  0
 18 32  1  0  0  0  0
 19 32  1  0  0  0  0
 19 33  2  0  0  0  0
 19 34  1  0  0  0  0
 20 22  2  0  0  0  0
 20 40  1  0  0  0  0
 21 23  2  0  0  0  0
 21 41  1  0  0  0  0
 22 49  1  0  0  0  0
 23 42  1  0  0  0  0
 24 25  2  0  0  0  0
 24 52  1  0  0  0  0
 25 60  1  0  0  0  0
 26 73  1  0  0  0  0
 27 83  1  0  0  0  0
 28 84  1  0  0  0  0
 29 31  2  0  0  0  0
 29 83  1  0  0  0  0
 30 85  1  0  0  0  0
 31 86  1  0  0  0  0
 32 67  2  0  0  0  0
 33 68  1  0  0  0  0
 33 71  1  0  0  0  0
 34 72  1  0  0  0  0
 34 77  2  0  0  0  0
 35 50  1  0  0  0  0
 35 74  1  0  0  0  0
 35 78  2  0  0  0  0
 36 61  1  0  0  0  0
 36 65  1  0  0  0  0
 36 79  2  0  0  0  0
 37 63  1  0  0  0  0
 37 69  1  0  0  0  0
 37 80  2  0  0  0  0
 38 64  1  0  0  0  0
 38 75  1  0  0  0  0
 38 81  2  0  0  0  0
 39 70  1  0  0  0  0
 39 73  1  0  0  0  0
 39 82  2  0  0  0  0
 40 43  1  0  0  0  0
 41 50  1  0  0  0  0
 42 69  1  0  0  0  0
 43 45  1  0  0  0  0
 44 46  1  0  0  0  0
 44 47  1  0  0  0  0
 45 49  1  0  0  0  0
 46 51  1  0  0  0  0
 47 70  1  0  0  0  0
 48 51  1  0  0  0  0
 48 70  1  0  0  0  0
 49 74  1  0  0  0  0
 50 69  1  0  0  0  0
 51 68  1  0  0  0  0
 53 64  1  0  0  0  0
 54 65  1  0  0  0  0
 55 65  1  0  0  0  0
 56 66  1  0  0  0  0
 57 66  1  0  0  0  0
 58 66  1  0  0  0  0
 59 76  1  0  0  0  0
 60 62  1  0  0  0  0
 61 84  1  0  0  0  0
 62 65  1  0  0  0  0
 63 66  1  0  0  0  0
 63 75  1  0  0  0  0
 64 76  1  0  0  0  0
 67 68  1  0  0  0  0
M  CHG  1  76   1
M  ISO  4  39 100  61 101  73 100  84 101
M  END
> <Batch ID>
0136

> <Smiles>
CNC(C)C(=O)NC(C(=O)N1Cc2cc([101O:1][101CH2:1]C(=O)C(C)(C)CCc3cc([100NH:0][100C:0](=O)N4CCCC(n5nc(-c6ccc(Oc7ccc(F)cc7F)cc6)c(C(N)=O)c5N)C4)ccc3C)ccc2CC1C(=O)NC1CCCc2ccccc21)C(C)(C)C

> <Shape>
0.293

> <Color>
0.057

> <Negative vol penalty>
0.000

$$$$

  -OEChem-04052302393D

 87 95  0     1  0  0  0  0  0999 V2000
  -31.5422  -32.2740   17.4285 C   0  0  0  0  0  0  0  0  0  0  0  0
  -30.9427  -31.1461   16.8774 C   0  0  0  0  0  0  0  0  0  0  0  0
  -23.2491   -9.6847   20.1121 C   0  0  0  0  0  0  0  0  0  0  0  0
  -23.8846   -9.9952   22.4223 C   0  0  0  0  0  0  0  0  0  0  0  0
  -31.8259  -32.3149   18.7930 C   0  0  0  0  0  0  0  0  0  0  0  0
  -30.6274  -30.0579   17.6903 C   0  0  0  0  0  0  0  0  0  0  0  0
  -25.7786  -24.8315   18.3899 C   0  0  0  0  0  0  0  0  0  0  0  0
  -22.5702   -8.5158   20.4559 C   0  0  0  0  0  0  0  0  0  0  0  0
  -23.2056   -8.8262   22.7661 C   0  0  0  0  0  0  0  0  0  0  0  0
  -25.7003  -23.4463   18.5277 C   0  0  0  0  0  0  0  0  0  0  0  0
  -20.0094   -7.8717   23.3075 C   0  0  0  0  0  0  0  0  0  0  0  0
  -19.1958   -7.9058   24.4400 C   0  0  0  0  0  0  0  0  0  0  0  0
  -26.1644  -23.6606   20.8852 C   0  0  0  0  0  0  0  0  0  0  0  0
  -31.2123  -19.1915   23.7857 C   0  0  0  0  0  0  0  0  0  0  0  0
  -31.6248  -17.2910   22.3523 C   0  0  0  0  0  0  0  0  0  0  0  0
  -29.3616  -18.0411   22.7426 C   0  0  0  0  0  0  0  0  0  0  0  0
  -20.5208   -6.1530   25.4446 C   0  0  0  0  0  0  0  0  0  0  0  0
  -23.9064  -10.4244   21.0953 C   0  0  0  0  0  0  0  0  0  0  0  0
  -24.0879  -12.9393   20.7083 C   0  0  0  0  0  0  0  0  0  0  0  0
  -31.5052  -31.2304   19.6247 C   0  0  0  0  0  0  0  0  0  0  0  0
  -26.0617  -25.6421   19.4986 C   0  0  0  0  0  0  0  0  0  0  0  0
  -30.9083  -30.0837   19.0669 C   0  0  0  0  0  0  0  0  0  0  0  0
  -26.2432  -25.0560   20.7593 C   0  0  0  0  0  0  0  0  0  0  0  0
  -32.1042  -18.3080   23.1778 C   0  0  0  0  0  0  0  0  0  0  0  0
  -29.8410  -19.0581   23.5681 C   0  0  0  0  0  0  0  0  0  0  0  0
  -30.2534  -17.1575   22.1347 C   0  0  0  0  0  0  0  0  0  0  0  0
  -22.5485   -8.0865   21.7829 C   0  0  0  0  0  0  0  0  0  0  0  0
  -25.8960  -22.8604   19.7749 C   0  0  0  0  0  0  0  0  0  0  0  0
  -21.0786   -6.9782   23.2435 C   0  0  0  0  0  0  0  0  0  0  0  0
  -19.4515   -7.0465   25.5086 C   0  0  0  0  0  0  0  0  0  0  0  0
  -21.3343   -6.1189   24.3121 C   0  0  0  0  0  0  0  0  0  0  0  0
  -24.6083  -11.6317   20.7406 C   0  0  0  0  0  0  0  0  0  0  0  0
  -25.1463  -13.7204   20.3130 C   0  0  0  0  0  0  0  0  0  0  0  0
  -22.7660  -13.4062   21.0087 C   0  0  0  0  0  0  0  0  0  0  0  0
  -28.4020  -27.6499   20.2701 C   0  0  0  0  0  0  0  0  0  0  0  0
  -27.5674  -20.9397   22.2740 C   0  0  0  0  0  0  0  0  0  0  0  0
  -26.5068  -28.2602   22.8310 C   0  0  0  0  0  0  0  0  0  0  0  0
  -24.0387  -27.1879   24.9298 C   0  0  0  0  0  0  0  0  0  0  0  0
  -30.5153  -15.1641   20.6168 C   0  0  0  0  0  0  0  0  0  0  0  0
  -31.8742  -31.3019   21.0854 C   0  0  0  0  0  0  0  0  0  0  0  0
  -26.1163  -27.1367   19.3384 C   0  0  0  0  0  0  0  0  0  0  0  0
  -26.5295  -25.8835   21.9848 C   0  0  0  0  0  0  0  0  0  0  0  0
  -31.1670  -30.2565   21.9441 C   0  0  0  0  0  0  0  0  0  0  0  0
  -29.6883  -12.4339   18.4863 C   0  0  0  0  0  0  0  0  0  0  0  0
  -31.2368  -28.8847   21.2806 C   0  0  0  0  0  0  0  0  0  0  0  0
  -28.2501  -12.0894   18.8802 C   0  0  0  0  0  0  0  0  0  0  0  0
  -30.5216  -12.8565   19.6949 C   0  0  0  0  0  0  0  0  0  0  0  0
  -28.5009  -13.5898   20.8983 C   0  0  0  0  0  0  0  0  0  0  0  0
  -30.5287  -28.8931   19.9204 C   0  0  1  0  0  0  0  0  0  0  0  0
  -26.9192  -27.8264   20.4370 C   0  0  1  0  0  0  0  0  0  0  0  0
  -27.6052  -13.2208   19.7045 C   0  0  2  0  0  0  0  0  0  0  0  0
  -33.5704  -18.4507   23.4107 C   0  0  0  0  0  0  0  0  0  0  0  0
  -28.0518  -22.4025   24.2195 C   0  0  0  0  0  0  0  0  0  0  0  0
  -22.7285  -27.8909   26.9513 C   0  0  0  0  0  0  0  0  0  0  0  0
  -28.9164  -27.6519   24.6013 C   0  0  0  0  0  0  0  0  0  0  0  0
  -27.3486  -27.4353   26.5412 C   0  0  0  0  0  0  0  0  0  0  0  0
  -27.5486  -29.6115   25.3384 C   0  0  0  0  0  0  0  0  0  0  0  0
  -27.5723  -21.0121   18.3276 C   0  0  0  0  0  0  0  0  0  0  0  0
  -26.6575  -19.2903   19.8893 C   0  0  0  0  0  0  0  0  0  0  0  0
  -21.4766  -27.0725   23.4529 C   0  0  0  0  0  0  0  0  0  0  0  0
  -28.8755  -20.0149   24.2262 C   0  0  0  0  0  0  0  0  0  0  0  0
  -28.0353  -21.1523   20.8375 C   0  0  0  0  0  0  0  0  0  0  0  0
  -28.5889  -21.2560   23.3664 C   0  0  1  0  0  0  0  0  0  0  0  0
  -26.3634  -27.6800   24.2173 C   0  0  1  0  0  0  0  0  0  0  0  0
  -22.7773  -27.8674   25.4315 C   0  0  2  0  0  0  0  0  0  0  0  0
  -27.5408  -28.0787   25.1513 C   0  0  0  0  0  0  0  0  0  0  0  0
  -27.0293  -20.7699   19.7383 C   0  0  0  0  0  0  0  0  0  1  0  0
  -25.8971  -11.5809   20.3935 N   0  0  0  0  0  0  0  0  0  0  0  0
  -26.1954  -12.8664   20.1391 N   0  0  0  0  0  0  0  0  0  0  0  0
  -26.5793  -27.3400   21.7757 N   0  0  0  0  0  0  0  0  0  0  0  0
  -29.8507  -13.9344   20.4248 N   0  0  0  0  0  0  0  0  0  0  0  0
  -25.2726  -15.0476   20.1007 N   0  0  0  0  0  0  0  0  0  0  0  0
  -21.7994  -12.4697   21.3997 N   0  0  0  0  0  0  0  0  0  0  0  0
  -29.7664  -16.1244   21.2960 N   0  0  0  0  0  0  0  0  0  0  0  0
  -29.0936  -28.8337   20.0974 N   0  0  0  0  0  0  0  0  0  0  0  0
  -25.0508  -28.0955   24.6999 N   0  0  0  0  0  0  0  0  0  0  0  0
  -21.5695  -27.1503   24.9335 N   0  3  0  0  0  0  0  0  0  0  0  0
  -22.4469  -14.6159   20.9168 O   0  0  0  0  0  0  0  0  0  0  0  0
  -28.8832  -26.5232   20.2976 O   0  0  0  0  0  0  0  0  0  0  0  0
  -26.4485  -20.5108   22.5540 O   0  0  0  0  0  0  0  0  0  0  0  0
  -26.5457  -29.4849   22.6890 O   0  0  0  0  0  0  0  0  0  0  0  0
  -24.1193  -25.9730   24.7624 O   0  0  0  0  0  0  0  0  0  0  0  0
  -31.6541  -15.3606   20.1848 O   0  0  0  0  0  0  0  0  0  0  0  0
  -21.8859   -6.9460   22.1188 O   0  0  0  0  0  0  0  0  0  0  0  0
  -25.8208  -21.5086   19.9121 O   0  0  0  0  0  0  0  0  0  1  0  0
  -18.6711   -7.0805   26.5967 F   0  0  0  0  0  0  0  0  0  0  0  0
  -22.3608   -5.2592   24.2569 F   0  0  0  0  0  0  0  0  0  0  0  0
  1  2  1  0  0  0  0
  1  5  2  0  0  0  0
  2  6  2  0  0  0  0
  3  8  2  0  0  0  0
  3 18  1  0  0  0  0
  4  9  1  0  0  0  0
  4 18  2  0  0  0  0
  5 20  1  0  0  0  0
  6 22  1  0  0  0  0
  7 10  2  0  0  0  0
  7 21  1  0  0  0  0
  8 27  1  0  0  0  0
  9 27  2  0  0  0  0
 10 28  1  0  0  0  0
 11 12  2  0  0  0  0
 11 29  1  0  0  0  0
 12 30  1  0  0  0  0
 13 23  1  0  0  0  0
 13 28  2  0  0  0  0
 14 24  2  0  0  0  0
 14 25  1  0  0  0  0
 15 24  1  0  0  0  0
 15 26  2  0  0  0  0
 16 25  2  0  0  0  0
 16 26  1  0  0  0  0
 17 30  2  0  0  0  0
 17 31  1  0  0  0  0
 18 32  1  0  0  0  0
 19 32  1  0  0  0  0
 19 33  2  0  0  0  0
 19 34  1  0  0  0  0
 20 22  2  0  0  0  0
 20 40  1  0  0  0  0
 21 23  2  0  0  0  0
 21 41  1  0  0  0  0
 22 49  1  0  0  0  0
 23 42  1  0  0  0  0
 24 52  1  0  0  0  0
 25 61  1  0  0  0  0
 26 74  1  0  0  0  0
 27 84  1  0  0  0  0
 28 85  1  0  0  0  0
 29 31  2  0  0  0  0
 29 84  1  0  0  0  0
 30 86  1  0  0  0  0
 31 87  1  0  0  0  0
 32 68  2  0  0  0  0
 33 69  1  0  0  0  0
 33 72  1  0  0  0  0
 34 73  1  0  0  0  0
 34 78  2  0  0  0  0
 35 50  1  0  0  0  0
 35 75  1  0  0  0  0
 35 79  2  0  0  0  0
 36 62  1  0  0  0  0
 36 63  1  0  0  0  0
 36 80  2  0  0  0  0
 37 64  1  0  0  0  0
 37 70  1  0  0  0  0
 37 81  2  0  0  0  0
 38 65  1  0  0  0  0
 38 76  1  0  0  0  0
 38 82  2  0  0  0  0
 39 71  1  0  0  0  0
 39 74  1  0  0  0  0
 39 83  2  0  0  0  0
 40 43  1  0  0  0  0
 41 50  1  0  0  0  0
 42 70  1  0  0  0  0
 43 45  1  0  0  0  0
 44 46  1  0  0  0  0
 44 47  1  0  0  0  0
 45 49  1  0  0  0  0
 46 51  1  0  0  0  0
 47 71  1  0  0  0  0
 48 51  1  0  0  0  0
 48 71  1  0  0  0  0
 49 75  1  0  0  0  0
 50 70  1  0  0  0  0
 51 69  1  0  0  0  0
 53 63  1  0  0  0  0
 54 65  1  0  0  0  0
 55 66  1  0  0  0  0
 56 66  1  0  0  0  0
 57 66  1  0  0  0  0
 58 67  1  0  0  0  0
 59 67  1  0  0  0  0
 60 77  1  0  0  0  0
 61 63  1  0  0  0  0
 62 67  1  0  0  0  0
 64 66  1  0  0  0  0
 64 76  1  0  0  0  0
 65 77  1  0  0  0  0
 67 85  1  0  0  0  0
 68 69  1  0  0  0  0
M  CHG  1  77   1
M  ISO  4  39 100  67 101  74 100  85 101
M  END
> <Batch ID>
0136

> <Smiles>
CNC(C)C(=O)NC(C(=O)N1Cc2cc([101O:1][101C:1](C)(C)CC(=O)C(C)Cc3cc(C)cc([100NH:0][100C:0](=O)N4CCCC(n5nc(-c6ccc(Oc7ccc(F)cc7F)cc6)c(C(N)=O)c5N)C4)c3)ccc2CC1C(=O)NC1CCCc2ccccc21)C(C)(C)C

> <Shape>
0.249

> <Color>
0.187

> <Negative vol penalty>
0.000

$$$$

  -OEChem-04052302393D

 85 93  0     1  0  0  0  0  0999 V2000
  -33.5593  -32.0204   19.6583 C   0  0  0  0  0  0  0  0  0  0  0  0
  -32.6435  -30.9766   19.7427 C   0  0  0  0  0  0  0  0  0  0  0  0
  -23.0797   -9.8570   19.9514 C   0  0  0  0  0  0  0  0  0  0  0  0
  -23.8322   -9.8849   22.2470 C   0  0  0  0  0  0  0  0  0  0  0  0
  -34.4816  -32.0543   18.6132 C   0  0  0  0  0  0  0  0  0  0  0  0
  -32.6487  -29.9666   18.7813 C   0  0  0  0  0  0  0  0  0  0  0  0
  -32.2547  -25.3459   20.8158 C   0  0  0  0  0  0  0  0  0  0  0  0
  -22.3363   -8.7052   20.2090 C   0  0  0  0  0  0  0  0  0  0  0  0
  -23.0887   -8.7331   22.5047 C   0  0  0  0  0  0  0  0  0  0  0  0
  -30.9869  -24.9375   21.2276 C   0  0  0  0  0  0  0  0  0  0  0  0
  -19.8595   -7.9369   23.1038 C   0  0  0  0  0  0  0  0  0  0  0  0
  -19.0989   -7.9064   24.2725 C   0  0  0  0  0  0  0  0  0  0  0  0
  -30.7453  -23.6597   19.1958 C   0  0  0  0  0  0  0  0  0  0  0  0
  -20.3400   -5.9768   25.0299 C   0  0  0  0  0  0  0  0  0  0  0  0
  -31.0699  -19.3470   20.8499 C   0  0  0  0  0  0  0  0  0  0  0  0
  -23.8277  -10.4468   20.9704 C   0  0  0  0  0  0  0  0  0  0  0  0
  -29.6501  -18.1002   22.2035 C   0  0  0  0  0  0  0  0  0  0  0  0
  -24.1671  -12.9712   20.8294 C   0  0  0  0  0  0  0  0  0  0  0  0
  -34.5044  -31.0391   17.6440 C   0  0  0  0  0  0  0  0  0  0  0  0
  -32.7738  -24.9223   19.5839 C   0  0  0  0  0  0  0  0  0  0  0  0
  -33.5713  -29.9876   17.7215 C   0  0  0  0  0  0  0  0  0  0  0  0
  -32.0210  -24.0621   18.7719 C   0  0  0  0  0  0  0  0  0  0  0  0
  -30.1296  -19.3960   21.8554 C   0  0  0  0  0  0  0  0  0  0  0  0
  -22.3408   -8.1433   21.4856 C   0  0  0  0  0  0  0  0  0  0  0  0
  -30.2308  -24.0966   20.4163 C   0  0  0  0  0  0  0  0  0  0  0  0
  -20.8604   -6.9874   22.8980 C   0  0  0  0  0  0  0  0  0  0  0  0
  -19.3391   -6.9264   25.2356 C   0  0  0  0  0  0  0  0  0  0  0  0
  -21.1007   -6.0074   23.8610 C   0  0  0  0  0  0  0  0  0  0  0  0
  -24.5963  -11.6362   20.7047 C   0  0  0  0  0  0  0  0  0  0  0  0
  -25.2596  -13.7187   20.4631 C   0  0  0  0  0  0  0  0  0  0  0  0
  -30.2421  -17.1100   21.4505 C   0  0  0  0  0  0  0  0  0  0  0  0
  -28.6638  -17.8179   23.2166 C   0  0  0  0  0  0  0  0  0  0  0  0
  -22.8947  -13.4892   21.2397 C   0  0  0  0  0  0  0  0  0  0  0  0
  -33.6901  -26.3839   16.9141 C   0  0  0  0  0  0  0  0  0  0  0  0
  -34.6490  -23.4014   16.0727 C   0  0  0  0  0  0  0  0  0  0  0  0
  -34.3139  -20.0291   16.4751 C   0  0  0  0  0  0  0  0  0  0  0  0
  -30.7241  -14.7718   20.6463 C   0  0  0  0  0  0  0  0  0  0  0  0
  -35.4890  -31.1437   16.5063 C   0  0  0  0  0  0  0  0  0  0  0  0
  -34.1540  -25.3503   19.1663 C   0  0  0  0  0  0  0  0  0  0  0  0
  -32.5409  -23.5627   17.4495 C   0  0  0  0  0  0  0  0  0  0  0  0
  -35.6736  -29.8372   15.7385 C   0  0  0  0  0  0  0  0  0  0  0  0
  -29.6199  -12.3363   18.2955 C   0  0  0  0  0  0  0  0  0  0  0  0
  -34.3206  -29.2065   15.4250 C   0  0  0  0  0  0  0  0  0  0  0  0
  -28.1792  -12.0469   18.7230 C   0  0  0  0  0  0  0  0  0  0  0  0
  -30.5309  -12.5766   19.4981 C   0  0  0  0  0  0  0  0  0  0  0  0
  -28.6188  -13.3109   20.8669 C   0  0  0  0  0  0  0  0  0  0  0  0
  -33.5617  -28.8605   16.7118 C   0  0  1  0  0  0  0  0  0  0  0  0
  -34.3733  -25.2719   17.6586 C   0  0  1  0  0  0  0  0  0  0  0  0
  -27.6499  -13.1263   19.6875 C   0  0  2  0  0  0  0  0  0  0  0  0
  -27.3934  -17.1274   22.7921 C   0  0  0  0  0  0  0  0  0  0  0  0
  -35.2078  -17.8450   15.6218 C   0  0  0  0  0  0  0  0  0  0  0  0
  -33.0070  -23.7287   13.5219 C   0  0  0  0  0  0  0  0  0  0  0  0
  -33.1538  -21.2511   13.1926 C   0  0  0  0  0  0  0  0  0  0  0  0
  -35.2311  -22.6322   13.1974 C   0  0  0  0  0  0  0  0  0  0  0  0
  -27.5459  -22.3691   24.0574 C   0  0  0  0  0  0  0  0  0  0  0  0
  -26.4138  -22.8312   21.8682 C   0  0  0  0  0  0  0  0  0  0  0  0
  -35.3086  -19.2571   19.1534 C   0  0  0  0  0  0  0  0  0  0  0  0
  -29.6701  -20.6796   22.5039 C   0  0  0  0  0  0  0  0  0  0  0  0
  -28.2945  -21.1111   21.9765 C   0  0  0  0  0  0  0  0  0  0  0  0
  -28.7691  -23.5812   22.2201 C   0  0  0  0  0  0  0  0  0  1  0  0
  -34.0055  -22.2295   15.3717 C   0  0  1  0  0  0  0  0  0  0  0  0
  -35.3430  -18.9316   16.6772 C   0  0  2  0  0  0  0  0  0  0  0  0
  -33.8385  -22.4712   13.8449 C   0  0  0  0  0  0  0  0  0  0  0  0
  -27.7504  -22.4577   22.5335 C   0  0  0  0  0  0  0  0  0  0  0  0
  -25.8626  -11.5382   20.2914 N   0  0  0  0  0  0  0  0  0  0  0  0
  -26.2385  -12.8210   20.1530 N   0  0  0  0  0  0  0  0  0  0  0  0
  -33.8933  -24.0142   17.0823 N   0  0  0  0  0  0  0  0  0  0  0  0
  -29.9680  -13.6143   20.3647 N   0  0  0  0  0  0  0  0  0  0  0  0
  -25.4688  -15.0497   20.3792 N   0  0  0  0  0  0  0  0  0  0  0  0
  -21.8827  -12.5819   21.5817 N   0  0  0  0  0  0  0  0  0  0  0  0
  -30.0731  -15.7032   21.4546 N   0  0  0  0  0  0  0  0  0  0  0  0
  -34.0908  -27.6487   17.3002 N   0  0  0  0  0  0  0  0  0  0  0  0
  -34.8114  -21.0606   15.7070 N   0  0  0  0  0  0  0  0  0  0  0  0
  -35.1765  -18.3062   18.0196 N   0  3  0  0  0  0  0  0  0  0  0  0
  -28.7676  -18.1003   24.4196 O   0  0  0  0  0  0  0  0  0  0  0  0
  -22.6569  -14.7200   21.2855 O   0  0  0  0  0  0  0  0  0  0  0  0
  -32.8620  -26.1143   16.0520 O   0  0  0  0  0  0  0  0  0  0  0  0
  -35.7834  -23.7555   15.7418 O   0  0  0  0  0  0  0  0  0  0  0  0
  -33.1807  -19.9750   16.9479 O   0  0  0  0  0  0  0  0  0  0  0  0
  -31.8545  -14.9377   20.1809 O   0  0  0  0  0  0  0  0  0  0  0  0
  -21.6153   -7.0195   21.7375 O   0  0  0  0  0  0  0  0  0  0  0  0
  -28.9927  -23.6970   20.8155 O   0  0  0  0  0  0  0  0  0  1  0  0
  -18.6096   -6.8981   26.3586 F   0  0  0  0  0  0  0  0  0  0  0  0
  -22.0616   -5.0932   23.6695 F   0  0  0  0  0  0  0  0  0  0  0  0
  -31.3712  -17.7435   20.3297 S   0  0  0  0  0  0  0  0  0  0  0  0
  1  2  1  0  0  0  0
  1  5  2  0  0  0  0
  2  6  2  0  0  0  0
  3  8  2  0  0  0  0
  3 16  1  0  0  0  0
  4  9  1  0  0  0  0
  4 16  2  0  0  0  0
  5 19  1  0  0  0  0
  6 21  1  0  0  0  0
  7 10  2  0  0  0  0
  7 20  1  0  0  0  0
  8 24  1  0  0  0  0
  9 24  2  0  0  0  0
 10 25  1  0  0  0  0
 11 12  2  0  0  0  0
 11 26  1  0  0  0  0
 12 27  1  0  0  0  0
 13 22  1  0  0  0  0
 13 25  2  0  0  0  0
 14 27  2  0  0  0  0
 14 28  1  0  0  0  0
 15 23  2  0  0  0  0
 15 85  1  0  0  0  0
 16 29  1  0  0  0  0
 17 23  1  0  0  0  0
 17 31  2  0  0  0  0
 17 32  1  0  0  0  0
 18 29  1  0  0  0  0
 18 30  2  0  0  0  0
 18 33  1  0  0  0  0
 19 21  2  0  0  0  0
 19 38  1  0  0  0  0
 20 22  2  0  0  0  0
 20 39  1  0  0  0  0
 21 47  1  0  0  0  0
 22 40  1  0  0  0  0
 23 58  1  0  0  0  0
 24 81  1  0  0  0  0
 25 82  1  0  0  0  0
 26 28  2  0  0  0  0
 26 81  1  0  0  0  0
 27 83  1  0  0  0  0
 28 84  1  0  0  0  0
 29 65  2  0  0  0  0
 30 66  1  0  0  0  0
 30 69  1  0  0  0  0
 31 71  1  0  0  0  0
 31 85  1  0  0  0  0
 32 50  1  0  0  0  0
 32 75  2  0  0  0  0
 33 70  1  0  0  0  0
 33 76  2  0  0  0  0
 34 48  1  0  0  0  0
 34 72  1  0  0  0  0
 34 77  2  0  0  0  0
 35 61  1  0  0  0  0
 35 67  1  0  0  0  0
 35 78  2  0  0  0  0
 36 62  1  0  0  0  0
 36 73  1  0  0  0  0
 36 79  2  0  0  0  0
 37 68  1  0  0  0  0
 37 71  1  0  0  0  0
 37 80  2  0  0  0  0
 38 41  1  0  0  0  0
 39 48  1  0  0  0  0
 40 67  1  0  0  0  0
 41 43  1  0  0  0  0
 42 44  1  0  0  0  0
 42 45  1  0  0  0  0
 43 47  1  0  0  0  0
 44 49  1  0  0  0  0
 45 68  1  0  0  0  0
 46 49  1  0  0  0  0
 46 68  1  0  0  0  0
 47 72  1  0  0  0  0
 48 67  1  0  0  0  0
 49 66  1  0  0  0  0
 51 62  1  0  0  0  0
 52 63  1  0  0  0  0
 53 63  1  0  0  0  0
 54 63  1  0  0  0  0
 55 64  1  0  0  0  0
 56 64  1  0  0  0  0
 57 74  1  0  0  0  0
 58 59  1  0  0  0  0
 59 64  1  0  0  0  0
 60 64  1  0  0  0  0
 60 82  1  0  0  0  0
 61 63  1  0  0  0  0
 61 73  1  0  0  0  0
 62 74  1  0  0  0  0
 65 66  1  0  0  0  0
M  CHG  1  74   1
M  ISO  4  37 100  60 101  71 100  82 101
M  END
> <Batch ID>
0136

> <Smiles>
CNC(C)C(=O)NC(C(=O)N1Cc2cc([101O:1][101CH2:1]C(C)(C)CCc3csc([100NH:0][100C:0](=O)N4CCCC(n5nc(-c6ccc(Oc7ccc(F)cc7F)cc6)c(C(N)=O)c5N)C4)c3C(C)=O)ccc2CC1C(=O)NC1CCCc2ccccc21)C(C)(C)C

> <Shape>
0.208

> <Color>
0.192

> <Negative vol penalty>
0.000

$$$$

  -OEChem-04052302393D

 85 93  0     1  0  0  0  0  0999 V2000
  -26.8119  -23.6656   18.2992 C   0  0  0  0  0  0  0  0  0  0  0  0
  -25.6427  -24.2519   18.7731 C   0  0  0  0  0  0  0  0  0  0  0  0
  -27.3148  -15.9579   21.3782 C   0  0  0  0  0  0  0  0  0  0  0  0
  -25.9805  -16.6894   19.5016 C   0  0  0  0  0  0  0  0  0  0  0  0
  -28.0294  -23.9400   18.9206 C   0  0  0  0  0  0  0  0  0  0  0  0
  -25.6903  -25.1122   19.8695 C   0  0  0  0  0  0  0  0  0  0  0  0
  -22.9279  -29.2993   19.1748 C   0  0  0  0  0  0  0  0  0  0  0  0
  -19.2022  -23.4087   19.8090 C   0  0  0  0  0  0  0  0  0  0  0  0
  -27.2507  -14.6449   20.9120 C   0  0  0  0  0  0  0  0  0  0  0  0
  -25.9164  -15.3763   19.0353 C   0  0  0  0  0  0  0  0  0  0  0  0
  -21.5475  -29.1850   19.3335 C   0  0  0  0  0  0  0  0  0  0  0  0
  -18.8347  -24.6445   20.3413 C   0  0  0  0  0  0  0  0  0  0  0  0
  -28.7551  -12.7695   18.5345 C   0  0  0  0  0  0  0  0  0  0  0  0
  -29.9350  -12.0256   18.5280 C   0  0  0  0  0  0  0  0  0  0  0  0
  -21.7310  -30.1195   21.5499 C   0  0  0  0  0  0  0  0  0  0  0  0
  -20.4194  -24.3412   22.1396 C   0  0  0  0  0  0  0  0  0  0  0  0
  -28.9246  -10.4099   20.0132 C   0  0  0  0  0  0  0  0  0  0  0  0
  -26.6796  -16.9802   20.6730 C   0  0  0  0  0  0  0  0  0  0  0  0
  -27.7177  -19.3044   20.8397 C   0  0  0  0  0  0  0  0  0  0  0  0
  -28.0933  -24.8116   20.0191 C   0  0  0  0  0  0  0  0  0  0  0  0
  -23.7229  -29.8153   20.2083 C   0  0  0  0  0  0  0  0  0  0  0  0
  -26.9096  -25.3975   20.5070 C   0  0  0  0  0  0  0  0  0  0  0  0
  -23.1210  -30.2416   21.4008 C   0  0  0  0  0  0  0  0  0  0  0  0
  -20.1783  -22.6391   20.4421 C   0  0  0  0  0  0  0  0  0  0  0  0
  -20.7869  -23.1054   21.6073 C   0  0  0  0  0  0  0  0  0  0  0  0
  -26.5515  -14.3540   19.7406 C   0  0  0  0  0  0  0  0  0  0  0  0
  -20.9492  -29.5924   20.5223 C   0  0  0  0  0  0  0  0  0  0  0  0
  -19.4433  -25.1108   21.5065 C   0  0  0  0  0  0  0  0  0  0  0  0
  -27.6599  -12.3336   19.2804 C   0  0  0  0  0  0  0  0  0  0  0  0
  -30.0198  -10.8458   19.2673 C   0  0  0  0  0  0  0  0  0  0  0  0
  -27.7447  -11.1539   20.0197 C   0  0  0  0  0  0  0  0  0  0  0  0
  -26.7450  -18.3367   21.1544 C   0  0  0  0  0  0  0  0  0  0  0  0
  -27.3344  -20.4187   21.5454 C   0  0  0  0  0  0  0  0  0  0  0  0
  -28.8651  -19.2051   19.9857 C   0  0  0  0  0  0  0  0  0  0  0  0
  -26.0929  -28.6791   21.9959 C   0  0  0  0  0  0  0  0  0  0  0  0
  -26.2146  -31.7323   23.0847 C   0  0  0  0  0  0  0  0  0  0  0  0
  -24.6005  -34.6981   23.5799 C   0  0  0  0  0  0  0  0  0  0  0  0
  -22.0663  -22.3183   23.6297 C   0  0  0  0  0  0  0  0  0  0  0  0
  -29.4258  -25.0407   20.6875 C   0  0  0  0  0  0  0  0  0  0  0  0
  -25.2073  -29.9569   20.0112 C   0  0  0  0  0  0  0  0  0  0  0  0
  -23.9275  -30.8212   22.5331 C   0  0  0  0  0  0  0  0  0  0  0  0
  -29.4433  -26.2567   21.6102 C   0  0  0  0  0  0  0  0  0  0  0  0
  -25.0154  -21.7128   25.5306 C   0  0  0  0  0  0  0  0  0  0  0  0
  -28.2103  -26.2632   22.5082 C   0  0  0  0  0  0  0  0  0  0  0  0
  -25.8846  -20.8715   24.5932 C   0  0  0  0  0  0  0  0  0  0  0  0
  -23.5339  -21.3658   25.3943 C   0  0  0  0  0  0  0  0  0  0  0  0
  -23.8774  -20.5745   23.0866 C   0  0  0  0  0  0  0  0  0  0  0  0
  -26.9240  -26.3554   21.6784 C   0  0  1  0  0  0  0  0  0  0  0  0
  -25.9812  -30.0186   21.3245 C   0  0  1  0  0  0  0  0  0  0  0  0
  -25.3712  -20.9338   23.1412 C   0  0  2  0  0  0  0  0  0  0  0  0
  -20.5519  -21.3193   19.8494 C   0  0  0  0  0  0  0  0  0  0  0  0
  -16.0909  -27.4753   23.7156 C   0  0  0  0  0  0  0  0  0  0  0  0
  -24.9483  -36.9962   24.5261 C   0  0  0  0  0  0  0  0  0  0  0  0
  -25.9826  -30.6018   25.9093 C   0  0  0  0  0  0  0  0  0  0  0  0
  -25.3839  -32.8991   26.7046 C   0  0  0  0  0  0  0  0  0  0  0  0
  -27.6145  -32.4816   25.6688 C   0  0  0  0  0  0  0  0  0  0  0  0
  -16.7376  -29.1573   21.1906 C   0  0  0  0  0  0  0  0  0  0  0  0
  -24.0798  -35.9803   20.9639 C   0  0  0  0  0  0  0  0  0  0  0  0
  -17.3776  -28.2589   23.4853 C   0  0  0  0  0  0  0  0  0  0  0  0
  -19.1188  -29.2685   22.0057 C   0  0  0  0  0  0  0  0  0  1  0  0
  -18.0808  -27.0519   21.3286 C   0  0  0  0  0  0  0  0  0  0  0  0
  -25.5519  -32.4944   24.2068 C   0  0  1  0  0  0  0  0  0  0  0  0
  -25.0075  -36.1291   23.2782 C   0  0  2  0  0  0  0  0  0  0  0  0
  -26.1180  -32.1065   25.6019 C   0  0  0  0  0  0  0  0  0  0  0  0
  -17.8205  -28.4192   22.0027 C   0  0  2  0  0  0  0  0  0  0  0  0
  -25.8138  -18.7958   21.9947 N   0  0  0  0  0  0  0  0  0  0  0  0
  -26.1998  -20.0643   22.2142 N   0  0  0  0  0  0  0  0  0  0  0  0
  -25.3760  -30.9334   22.2947 N   0  0  0  0  0  0  0  0  0  0  0  0
  -23.1176  -21.4501   23.9927 N   0  0  0  0  0  0  0  0  0  0  0  0
  -27.8606  -21.6572   21.6531 N   0  0  0  0  0  0  0  0  0  0  0  0
  -29.1117  -17.9876   19.3368 N   0  0  0  0  0  0  0  0  0  0  0  0
  -21.7804  -22.3385   22.2649 N   0  0  0  0  0  0  0  0  0  0  0  0
  -26.7113  -27.7133   21.2251 N   0  0  0  0  0  0  0  0  0  0  0  0
  -25.6912  -33.9088   23.8775 N   0  0  0  0  0  0  0  0  0  0  0  0
  -24.1022  -36.7197   22.2522 N   0  3  0  0  0  0  0  0  0  0  0  0
  -29.6577  -20.1626   19.8164 O   0  0  0  0  0  0  0  0  0  0  0  0
  -25.6522  -28.5330   23.1300 O   0  0  0  0  0  0  0  0  0  0  0  0
  -27.4304  -31.8474   22.9111 O   0  0  0  0  0  0  0  0  0  0  0  0
  -23.4315  -34.3193   23.5578 O   0  0  0  0  0  0  0  0  0  0  0  0
  -21.4822  -23.0145   24.4640 O   0  0  0  0  0  0  0  0  0  0  0  0
  -26.4890  -13.0729   19.2852 O   0  0  0  0  0  0  0  0  0  0  0  0
  -19.6021  -29.4813   20.6801 O   0  0  0  0  0  0  0  0  0  1  0  0
  -19.0820  -26.3250   22.0291 O   0  0  0  0  0  0  0  0  0  0  0  0
  -31.1524  -10.1307   19.2598 F   0  0  0  0  0  0  0  0  0  0  0  0
  -26.6955  -10.7295   20.7373 F   0  0  0  0  0  0  0  0  0  0  0  0
  1  2  1  0  0  0  0
  1  5  2  0  0  0  0
  2  6  2  0  0  0  0
  3  9  2  0  0  0  0
  3 18  1  0  0  0  0
  4 10  1  0  0  0  0
  4 18  2  0  0  0  0
  5 20  1  0  0  0  0
  6 22  1  0  0  0  0
  7 11  2  0  0  0  0
  7 21  1  0  0  0  0
  8 12  2  0  0  0  0
  8 24  1  0  0  0  0
  9 26  1  0  0  0  0
 10 26  2  0  0  0  0
 11 27  1  0  0  0  0
 12 28  1  0  0  0  0
 13 14  2  0  0  0  0
 13 29  1  0  0  0  0
 14 30  1  0  0  0  0
 15 23  1  0  0  0  0
 15 27  2  0  0  0  0
 16 25  1  0  0  0  0
 16 28  2  0  0  0  0
 17 30  2  0  0  0  0
 17 31  1  0  0  0  0
 18 32  1  0  0  0  0
 19 32  1  0  0  0  0
 19 33  2  0  0  0  0
 19 34  1  0  0  0  0
 20 22  2  0  0  0  0
 20 39  1  0  0  0  0
 21 23  2  0  0  0  0
 21 40  1  0  0  0  0
 22 48  1  0  0  0  0
 23 41  1  0  0  0  0
 24 25  2  0  0  0  0
 24 51  1  0  0  0  0
 25 72  1  0  0  0  0
 26 81  1  0  0  0  0
 27 82  1  0  0  0  0
 28 83  1  0  0  0  0
 29 31  2  0  0  0  0
 29 81  1  0  0  0  0
 30 84  1  0  0  0  0
 31 85  1  0  0  0  0
 32 66  2  0  0  0  0
 33 67  1  0  0  0  0
 33 70  1  0  0  0  0
 34 71  1  0  0  0  0
 34 76  2  0  0  0  0
 35 49  1  0  0  0  0
 35 73  1  0  0  0  0
 35 77  2  0  0  0  0
 36 62  1  0  0  0  0
 36 68  1  0  0  0  0
 36 78  2  0  0  0  0
 37 63  1  0  0  0  0
 37 74  1  0  0  0  0
 37 79  2  0  0  0  0
 38 69  1  0  0  0  0
 38 72  1  0  0  0  0
 38 80  2  0  0  0  0
 39 42  1  0  0  0  0
 40 49  1  0  0  0  0
 41 68  1  0  0  0  0
 42 44  1  0  0  0  0
 43 45  1  0  0  0  0
 43 46  1  0  0  0  0
 44 48  1  0  0  0  0
 45 50  1  0  0  0  0
 46 69  1  0  0  0  0
 47 50  1  0  0  0  0
 47 69  1  0  0  0  0
 48 73  1  0  0  0  0
 49 68  1  0  0  0  0
 50 67  1  0  0  0  0
 52 59  1  0  0  0  0
 53 63  1  0  0  0  0
 54 64  1  0  0  0  0
 55 64  1  0  0  0  0
 56 64  1  0  0  0  0
 57 65  1  0  0  0  0
 58 75  1  0  0  0  0
 59 65  1  0  0  0  0
 60 65  1  0  0  0  0
 60 82  1  0  0  0  0
 61 65  1  0  0  0  0
 61 83  1  0  0  0  0
 62 64  1  0  0  0  0
 62 74  1  0  0  0  0
 63 75  1  0  0  0  0
 66 67  1  0  0  0  0
M  CHG  1  75   1
M  ISO  4  38 100  60 101  72 100  82 101
M  END
> <Batch ID>
0136

> <Smiles>
CCC(C)(COc1ccc(C)c([100NH:0][100C:0](=O)N2CCCC(n3nc(-c4ccc(Oc5ccc(F)cc5F)cc4)c(C(N)=O)c3N)C2)c1)[101CH2:1][101O:1]c1ccc2c(c1)CN(C(=O)C(NC(=O)C(C)NC)C(C)(C)C)C(C(=O)NC1CCCc3ccccc31)C2

> <Shape>
0.285

> <Color>
0.061

> <Negative vol penalty>
0.000

$$$$

  -OEChem-04052302393D

 88 96  0     1  0  0  0  0  0999 V2000
  -23.5538  -26.8808   17.4781 C   0  0  0  0  0  0  0  0  0  0  0  0
  -23.8393  -25.9457   18.4678 C   0  0  0  0  0  0  0  0  0  0  0  0
  -23.0746   -9.8705   19.9418 C   0  0  0  0  0  0  0  0  0  0  0  0
  -23.8412   -9.8729   22.2330 C   0  0  0  0  0  0  0  0  0  0  0  0
  -22.2923  -26.9030   16.8847 C   0  0  0  0  0  0  0  0  0  0  0  0
  -22.8631  -25.0330   18.8655 C   0  0  0  0  0  0  0  0  0  0  0  0
  -24.6710  -20.3231   19.3054 C   0  0  0  0  0  0  0  0  0  0  0  0
  -22.3316   -8.7168   20.1916 C   0  0  0  0  0  0  0  0  0  0  0  0
  -23.0981   -8.7192   22.4828 C   0  0  0  0  0  0  0  0  0  0  0  0
  -25.4049  -20.0274   20.4533 C   0  0  0  0  0  0  0  0  0  0  0  0
  -19.8718   -7.9198   23.0930 C   0  0  0  0  0  0  0  0  0  0  0  0
  -19.1182   -7.8774   24.2660 C   0  0  0  0  0  0  0  0  0  0  0  0
  -23.4605  -18.9749   21.4180 C   0  0  0  0  0  0  0  0  0  0  0  0
  -29.0756  -17.7148   23.4927 C   0  0  0  0  0  0  0  0  0  0  0  0
  -31.3302  -17.3814   24.2943 C   0  0  0  0  0  0  0  0  0  0  0  0
  -20.3620   -5.9386   24.9949 C   0  0  0  0  0  0  0  0  0  0  0  0
  -23.8295  -10.4486   20.9625 C   0  0  0  0  0  0  0  0  0  0  0  0
  -24.1707  -12.9740   20.8467 C   0  0  0  0  0  0  0  0  0  0  0  0
  -21.3032  -25.9838   17.2686 C   0  0  0  0  0  0  0  0  0  0  0  0
  -23.3211  -19.9559   19.2094 C   0  0  0  0  0  0  0  0  0  0  0  0
  -21.5867  -25.0437   18.2777 C   0  0  0  0  0  0  0  0  0  0  0  0
  -22.7124  -19.2649   20.2667 C   0  0  0  0  0  0  0  0  0  0  0  0
  -30.3980  -17.3383   23.2576 C   0  0  0  0  0  0  0  0  0  0  0  0
  -28.6855  -18.1345   24.7644 C   0  0  0  0  0  0  0  0  0  0  0  0
  -29.6177  -18.1777   25.8011 C   0  0  0  0  0  0  0  0  0  0  0  0
  -30.9401  -17.8011   25.5661 C   0  0  0  0  0  0  0  0  0  0  0  0
  -22.3433   -8.1411   21.4620 C   0  0  0  0  0  0  0  0  0  0  0  0
  -24.7989  -19.3558   21.5110 C   0  0  0  0  0  0  0  0  0  0  0  0
  -20.8704   -6.9716   22.8709 C   0  0  0  0  0  0  0  0  0  0  0  0
  -19.3633   -6.8868   25.2170 C   0  0  0  0  0  0  0  0  0  0  0  0
  -21.1155   -5.9810   23.8218 C   0  0  0  0  0  0  0  0  0  0  0  0
  -24.5977  -11.6401   20.7050 C   0  0  0  0  0  0  0  0  0  0  0  0
  -25.2618  -13.7243   20.4818 C   0  0  0  0  0  0  0  0  0  0  0  0
  -22.9014  -13.4888   21.2703 C   0  0  0  0  0  0  0  0  0  0  0  0
  -20.5843  -21.5381   18.8768 C   0  0  0  0  0  0  0  0  0  0  0  0
  -19.3433  -18.5537   18.6017 C   0  0  0  0  0  0  0  0  0  0  0  0
  -19.6407  -15.2197   19.2671 C   0  0  0  0  0  0  0  0  0  0  0  0
  -30.7459  -14.7435   20.6563 C   0  0  0  0  0  0  0  0  0  0  0  0
  -19.9391  -26.0771   16.6319 C   0  0  0  0  0  0  0  0  0  0  0  0
  -22.5506  -20.2586   17.9535 C   0  0  0  0  0  0  0  0  0  0  0  0
  -21.2715  -18.8308   20.2051 C   0  0  0  0  0  0  0  0  0  0  0  0
  -19.0808  -24.8330   16.8457 C   0  0  0  0  0  0  0  0  0  0  0  0
  -29.6016  -12.3638   18.2679 C   0  0  0  0  0  0  0  0  0  0  0  0
  -19.1329  -24.3928   18.3053 C   0  0  0  0  0  0  0  0  0  0  0  0
  -28.1655  -12.0690   18.7044 C   0  0  0  0  0  0  0  0  0  0  0  0
  -30.5222  -12.5822   19.4666 C   0  0  0  0  0  0  0  0  0  0  0  0
  -28.6244  -13.3103   20.8602 C   0  0  0  0  0  0  0  0  0  0  0  0
  -20.5621  -24.0212   18.7187 C   0  0  1  0  0  0  0  0  0  0  0  0
  -21.0411  -20.2922   18.1720 C   0  0  1  0  0  0  0  0  0  0  0  0
  -27.6469  -13.1380   19.6851 C   0  0  2  0  0  0  0  0  0  0  0  0
  -29.0179  -17.4618   28.1280 C   0  0  0  0  0  0  0  0  0  0  0  0
  -27.6592  -22.4369   24.5049 C   0  0  0  0  0  0  0  0  0  0  0  0
  -30.6093  -17.9717   20.8254 C   0  0  0  0  0  0  0  0  0  0  0  0
  -18.4503  -13.0336   18.9488 C   0  0  0  0  0  0  0  0  0  0  0  0
  -17.3895  -19.2968   20.8243 C   0  0  0  0  0  0  0  0  0  0  0  0
  -16.8977  -16.8589   21.1119 C   0  0  0  0  0  0  0  0  0  0  0  0
  -16.3841  -17.9861   18.9467 C   0  0  0  0  0  0  0  0  0  0  0  0
  -25.5283  -20.4141   25.2269 C   0  0  0  0  0  0  0  0  0  0  0  0
  -21.8772  -14.0994   17.6854 C   0  0  0  0  0  0  0  0  0  0  0  0
  -27.2458  -18.5374   24.9921 C   0  0  0  0  0  0  0  0  0  0  0  0
  -29.1951  -18.6294   27.1638 C   0  0  0  0  0  0  0  0  0  0  0  0
  -27.9280  -20.9884   24.8962 C   0  0  0  0  0  0  0  0  0  0  0  0
  -26.5674  -19.9626   22.9807 C   0  0  0  0  0  0  0  0  0  1  0  0
  -30.8152  -16.8915   21.8974 C   0  0  2  0  0  0  0  0  0  0  0  0
  -18.7927  -17.5318   19.5667 C   0  0  1  0  0  0  0  0  0  0  0  0
  -19.4805  -13.9975   18.3811 C   0  0  2  0  0  0  0  0  0  0  0  0
  -17.3926  -17.9281   20.1147 C   0  0  0  0  0  0  0  0  0  0  0  0
  -26.8197  -19.9583   24.5074 C   0  0  2  0  0  0  0  0  0  0  0  0
  -25.8614  -11.5452   20.2828 N   0  0  0  0  0  0  0  0  0  0  0  0
  -26.2378  -12.8291   20.1560 N   0  0  0  0  0  0  0  0  0  0  0  0
  -20.5584  -19.1554   18.9586 N   0  0  0  0  0  0  0  0  0  0  0  0
  -29.9741  -13.6089   20.3563 N   0  0  0  0  0  0  0  0  0  0  0  0
  -31.8984  -17.8368   26.6029 N   0  0  0  0  0  0  0  0  0  0  0  0
  -25.4718  -15.0560   20.4108 N   0  0  0  0  0  0  0  0  0  0  0  0
  -21.8906  -12.5789   21.6087 N   0  0  0  0  0  0  0  0  0  0  0  0
  -20.9081  -22.7084   18.2172 N   0  0  0  0  0  0  0  0  0  0  0  0
  -18.8198  -16.2525   18.8660 N   0  0  0  0  0  0  0  0  0  0  0  0
  -30.1492  -15.6705   21.5019 N   0  0  0  0  0  0  0  0  0  0  0  0
  -20.7785  -13.2766   18.2534 N   0  3  0  0  0  0  0  0  0  0  0  0
  -22.6652  -14.7193   21.3309 O   0  0  0  0  0  0  0  0  0  0  0  0
  -19.9814  -21.4446   19.9395 O   0  0  0  0  0  0  0  0  0  0  0  0
  -18.7220  -18.8037   17.5658 O   0  0  0  0  0  0  0  0  0  0  0  0
  -20.4137  -15.2535   20.2219 O   0  0  0  0  0  0  0  0  0  0  0  0
  -31.8806  -14.9200   20.1997 O   0  0  0  0  0  0  0  0  0  0  0  0
  -21.6182   -7.0155   21.7062 O   0  0  0  0  0  0  0  0  0  0  0  0
  -25.5127  -19.0665   22.6329 O   0  0  0  0  0  0  0  0  0  1  0  0
  -18.6407   -6.8472   26.3441 F   0  0  0  0  0  0  0  0  0  0  0  0
  -22.0743   -5.0680   23.6146 F   0  0  0  0  0  0  0  0  0  0  0  0
  1  2  1  0  0  0  0
  1  5  2  0  0  0  0
  2  6  2  0  0  0  0
  3  8  2  0  0  0  0
  3 17  1  0  0  0  0
  4  9  1  0  0  0  0
  4 17  2  0  0  0  0
  5 19  1  0  0  0  0
  6 21  1  0  0  0  0
  7 10  2  0  0  0  0
  7 20  1  0  0  0  0
  8 27  1  0  0  0  0
  9 27  2  0  0  0  0
 10 28  1  0  0  0  0
 11 12  2  0  0  0  0
 11 29  1  0  0  0  0
 12 30  1  0  0  0  0
 13 22  1  0  0  0  0
 13 28  2  0  0  0  0
 14 23  2  0  0  0  0
 14 24  1  0  0  0  0
 15 23  1  0  0  0  0
 15 26  2  0  0  0  0
 16 30  2  0  0  0  0
 16 31  1  0  0  0  0
 17 32  1  0  0  0  0
 18 32  1  0  0  0  0
 18 33  2  0  0  0  0
 18 34  1  0  0  0  0
 19 21  2  0  0  0  0
 19 39  1  0  0  0  0
 20 22  2  0  0  0  0
 20 40  1  0  0  0  0
 21 48  1  0  0  0  0
 22 41  1  0  0  0  0
 23 64  1  0  0  0  0
 24 25  2  0  0  0  0
 24 60  1  0  0  0  0
 25 26  1  0  0  0  0
 25 61  1  0  0  0  0
 26 73  1  0  0  0  0
 27 85  1  0  0  0  0
 28 86  1  0  0  0  0
 29 31  2  0  0  0  0
 29 85  1  0  0  0  0
 30 87  1  0  0  0  0
 31 88  1  0  0  0  0
 32 69  2  0  0  0  0
 33 70  1  0  0  0  0
 33 74  1  0  0  0  0
 34 75  1  0  0  0  0
 34 80  2  0  0  0  0
 35 49  1  0  0  0  0
 35 76  1  0  0  0  0
 35 81  2  0  0  0  0
 36 65  1  0  0  0  0
 36 71  1  0  0  0  0
 36 82  2  0  0  0  0
 37 66  1  0  0  0  0
 37 77  1  0  0  0  0
 37 83  2  0  0  0  0
 38 72  1  0  0  0  0
 38 78  1  0  0  0  0
 38 84  2  0  0  0  0
 39 42  1  0  0  0  0
 40 49  1  0  0  0  0
 41 71  1  0  0  0  0
 42 44  1  0  0  0  0
 43 45  1  0  0  0  0
 43 46  1  0  0  0  0
 44 48  1  0  0  0  0
 45 50  1  0  0  0  0
 46 72  1  0  0  0  0
 47 50  1  0  0  0  0
 47 72  1  0  0  0  0
 48 76  1  0  0  0  0
 49 71  1  0  0  0  0
 50 70  1  0  0  0  0
 51 61  1  0  0  0  0
 52 62  1  0  0  0  0
 53 64  1  0  0  0  0
 54 66  1  0  0  0  0
 55 67  1  0  0  0  0
 56 67  1  0  0  0  0
 57 67  1  0  0  0  0
 58 68  1  0  0  0  0
 59 79  1  0  0  0  0
 60 68  1  0  0  0  0
 62 68  1  0  0  0  0
 63 68  1  0  0  0  0
 63 86  1  0  0  0  0
 64 78  1  0  0  0  0
 65 67  1  0  0  0  0
 65 77  1  0  0  0  0
 66 79  1  0  0  0  0
 69 70  1  0  0  0  0
M  CHG  1  79   1
M  ISO  4  38 100  63 101  78 100  86 101
M  END
> <Batch ID>
0136

> <Smiles>
CCc1c(N)cc(C(C)[100NH:0][100C:0](=O)N2CCCC(n3nc(-c4ccc(Oc5ccc(F)cc5F)cc4)c(C(N)=O)c3N)C2)cc1CC(C)(CC)[101CH2:1][101O:1]c1ccc2c(c1)CN(C(=O)C(NC(=O)C(C)NC)C(C)(C)C)C(C(=O)NC1CCCc3ccccc31)C2

> <Shape>
0.171

> <Color>
0.180

> <Negative vol penalty>
0.000

$$$$

  -OEChem-04052302393D

 85 93  0     1  0  0  0  0  0999 V2000
  -29.3246  -35.7214   19.1081 C   0  0  0  0  0  0  0  0  0  0  0  0
  -29.8155  -34.4197   19.0948 C   0  0  0  0  0  0  0  0  0  0  0  0
  -24.0861  -10.2126   23.1688 C   0  0  0  0  0  0  0  0  0  0  0  0
  -24.0872  -12.4136   24.1653 C   0  0  0  0  0  0  0  0  0  0  0  0
  -28.2401  -36.0479   19.9212 C   0  0  0  0  0  0  0  0  0  0  0  0
  -29.2228  -33.4441   19.8957 C   0  0  0  0  0  0  0  0  0  0  0  0
  -28.5477  -27.5035   18.5690 C   0  0  0  0  0  0  0  0  0  0  0  0
  -23.6179   -9.6709   24.3659 C   0  0  0  0  0  0  0  0  0  0  0  0
  -23.6190  -11.8718   25.3623 C   0  0  0  0  0  0  0  0  0  0  0  0
  -29.2795  -26.3729   18.9294 C   0  0  0  0  0  0  0  0  0  0  0  0
  -20.6699   -9.4229   26.0031 C   0  0  0  0  0  0  0  0  0  0  0  0
  -19.6279   -8.4984   25.9325 C   0  0  0  0  0  0  0  0  0  0  0  0
  -29.7070  -18.0614   22.0131 C   0  0  0  0  0  0  0  0  0  0  0  0
  -27.7368  -25.9579   20.7369 C   0  0  0  0  0  0  0  0  0  0  0  0
  -21.0336   -6.8341   26.9771 C   0  0  0  0  0  0  0  0  0  0  0  0
  -32.0914  -18.8371   20.9368 C   0  0  0  0  0  0  0  0  0  0  0  0
  -24.3208  -11.5840   23.0685 C   0  0  0  0  0  0  0  0  0  0  0  0
  -30.1700  -19.3526   22.2402 C   0  0  0  0  0  0  0  0  0  0  0  0
  -24.0338  -12.6303   20.7598 C   0  0  0  0  0  0  0  0  0  0  0  0
  -27.6277  -35.0736   20.7251 C   0  0  0  0  0  0  0  0  0  0  0  0
  -27.4092  -27.8766   19.2978 C   0  0  0  0  0  0  0  0  0  0  0  0
  -28.1300  -33.7582   20.7213 C   0  0  0  0  0  0  0  0  0  0  0  0
  -26.9908  -27.0922   20.3821 C   0  0  0  0  0  0  0  0  0  0  0  0
  -31.3840  -19.7558   21.6954 C   0  0  0  0  0  0  0  0  0  0  0  0
  -23.3843  -10.5005   25.4626 C   0  0  0  0  0  0  0  0  0  0  0  0
  -28.8758  -25.6015   20.0152 C   0  0  0  0  0  0  0  0  0  0  0  0
  -21.8939   -9.0530   26.5606 C   0  0  0  0  0  0  0  0  0  0  0  0
  -19.8097   -7.2040   26.4195 C   0  0  0  0  0  0  0  0  0  0  0  0
  -22.0757   -7.7586   27.0476 C   0  0  0  0  0  0  0  0  0  0  0  0
  -24.8050  -12.1441   21.8325 C   0  0  0  0  0  0  0  0  0  0  0  0
  -30.4894  -17.2186   21.2402 C   0  0  0  0  0  0  0  0  0  0  0  0
  -24.9583  -13.0497   19.8346 C   0  0  0  0  0  0  0  0  0  0  0  0
  -29.3679  -20.2603   23.0489 C   0  0  0  0  0  0  0  0  0  0  0  0
  -22.6092  -12.6971   20.6128 C   0  0  0  0  0  0  0  0  0  0  0  0
  -26.5808  -30.4170   21.0194 C   0  0  0  0  0  0  0  0  0  0  0  0
  -23.7129  -28.9069   21.1508 C   0  0  0  0  0  0  0  0  0  0  0  0
  -21.9692  -25.9790   20.9667 C   0  0  0  0  0  0  0  0  0  0  0  0
  -30.6243  -14.8963   20.2731 C   0  0  0  0  0  0  0  0  0  0  0  0
  -26.4880  -35.4849   21.6232 C   0  0  0  0  0  0  0  0  0  0  0  0
  -26.6154  -29.0839   18.8798 C   0  0  0  0  0  0  0  0  0  0  0  0
  -25.7642  -27.4383   21.1846 C   0  0  0  0  0  0  0  0  0  0  0  0
  -25.6794  -34.3066   22.1597 C   0  0  0  0  0  0  0  0  0  0  0  0
  -29.4187  -12.1659   18.3318 C   0  0  0  0  0  0  0  0  0  0  0  0
  -26.6086  -33.2142   22.6797 C   0  0  0  0  0  0  0  0  0  0  0  0
  -28.0261  -11.8987   18.9075 C   0  0  0  0  0  0  0  0  0  0  0  0
  -30.4130  -12.5728   19.4179 C   0  0  0  0  0  0  0  0  0  0  0  0
  -28.5913  -13.4262   20.8399 C   0  0  0  0  0  0  0  0  0  0  0  0
  -27.4983  -32.6663   21.5573 C   0  0  1  0  0  0  0  0  0  0  0  0
  -25.7662  -29.6607   20.0084 C   0  0  1  0  0  0  0  0  0  0  0  0
  -27.5394  -13.0762   19.7747 C   0  0  2  0  0  0  0  0  0  0  0  0
  -19.6428  -25.0567   21.1529 C   0  0  0  0  0  0  0  0  0  0  0  0
  -23.8536  -29.1717   24.1872 C   0  0  0  0  0  0  0  0  0  0  0  0
  -22.0480  -27.4451   24.3517 C   0  0  0  0  0  0  0  0  0  0  0  0
  -21.5966  -29.6139   23.2050 C   0  0  0  0  0  0  0  0  0  0  0  0
  -33.2672  -23.6762   20.7694 C   0  0  0  0  0  0  0  0  0  0  0  0
  -31.5458  -24.2089   22.5131 C   0  0  0  0  0  0  0  0  0  0  0  0
  -22.0165  -24.9826   18.1804 C   0  0  0  0  0  0  0  0  0  0  0  0
  -31.9370  -21.1444   21.9080 C   0  0  0  0  0  0  0  0  0  0  0  0
  -31.2304  -22.1708   21.0116 C   0  0  0  0  0  0  0  0  0  0  0  0
  -30.9896  -24.5148   20.0984 C   0  0  0  0  0  0  0  0  0  1  0  0
  -23.0760  -27.9007   22.0787 C   0  0  1  0  0  0  0  0  0  0  0  0
  -20.7055  -25.6049   20.2133 C   0  0  2  0  0  0  0  0  0  0  0  0
  -22.6678  -28.5271   23.4419 C   0  0  0  0  0  0  0  0  0  0  0  0
  -31.7647  -23.6288   21.1045 C   0  0  0  0  0  0  0  0  0  0  0  0
  -31.6739  -17.5744   20.6943 N   0  0  0  0  0  0  0  0  0  0  0  0
  -26.1183  -12.2445   21.6105 N   0  0  0  0  0  0  0  0  0  0  0  0
  -26.1795  -12.7986   20.3877 N   0  0  0  0  0  0  0  0  0  0  0  0
  -25.0251  -28.6317   20.7406 N   0  0  0  0  0  0  0  0  0  0  0  0
  -29.8864  -13.6962   20.1960 N   0  0  0  0  0  0  0  0  0  0  0  0
  -24.8377  -13.6049   18.6100 N   0  0  0  0  0  0  0  0  0  0  0  0
  -21.8066  -12.2228   21.6594 N   0  0  0  0  0  0  0  0  0  0  0  0
  -30.0088  -15.9050   21.0136 N   0  0  0  0  0  0  0  0  0  0  0  0
  -26.7498  -31.7550   20.7184 N   0  0  0  0  0  0  0  0  0  0  0  0
  -21.9680  -27.3069   21.3383 N   0  0  0  0  0  0  0  0  0  0  0  0
  -21.0033  -24.5683   19.1848 N   0  3  0  0  0  0  0  0  0  0  0  0
  -28.2870  -19.9387   23.5475 O   0  0  0  0  0  0  0  0  0  0  0  0
  -22.0640  -13.1483   19.5771 O   0  0  0  0  0  0  0  0  0  0  0  0
  -27.0219  -29.8304   22.0007 O   0  0  0  0  0  0  0  0  0  0  0  0
  -23.0673  -29.8967   20.7971 O   0  0  0  0  0  0  0  0  0  0  0  0
  -22.8658  -25.1730   21.2053 O   0  0  0  0  0  0  0  0  0  0  0  0
  -31.7087  -15.0294   19.7001 O   0  0  0  0  0  0  0  0  0  0  0  0
  -22.9272   -9.9722   26.6308 O   0  0  0  0  0  0  0  0  0  0  0  0
  -29.5887  -24.4978   20.3695 O   0  0  0  0  0  0  0  0  0  1  0  0
  -18.8084   -6.3168   26.3530 F   0  0  0  0  0  0  0  0  0  0  0  0
  -23.2489   -7.3978   27.5854 F   0  0  0  0  0  0  0  0  0  0  0  0
  1  2  1  0  0  0  0
  1  5  2  0  0  0  0
  2  6  2  0  0  0  0
  3  8  2  0  0  0  0
  3 17  1  0  0  0  0
  4  9  1  0  0  0  0
  4 17  2  0  0  0  0
  5 20  1  0  0  0  0
  6 22  1  0  0  0  0
  7 10  2  0  0  0  0
  7 21  1  0  0  0  0
  8 25  1  0  0  0  0
  9 25  2  0  0  0  0
 10 26  1  0  0  0  0
 11 12  2  0  0  0  0
 11 27  1  0  0  0  0
 12 28  1  0  0  0  0
 13 18  1  0  0  0  0
 13 31  2  0  0  0  0
 14 23  1  0  0  0  0
 14 26  2  0  0  0  0
 15 28  2  0  0  0  0
 15 29  1  0  0  0  0
 16 24  1  0  0  0  0
 16 65  2  0  0  0  0
 17 30  1  0  0  0  0
 18 24  2  0  0  0  0
 18 33  1  0  0  0  0
 19 30  1  0  0  0  0
 19 32  2  0  0  0  0
 19 34  1  0  0  0  0
 20 22  2  0  0  0  0
 20 39  1  0  0  0  0
 21 23  2  0  0  0  0
 21 40  1  0  0  0  0
 22 48  1  0  0  0  0
 23 41  1  0  0  0  0
 24 58  1  0  0  0  0
 25 82  1  0  0  0  0
 26 83  1  0  0  0  0
 27 29  2  0  0  0  0
 27 82  1  0  0  0  0
 28 84  1  0  0  0  0
 29 85  1  0  0  0  0
 30 66  2  0  0  0  0
 31 65  1  0  0  0  0
 31 72  1  0  0  0  0
 32 67  1  0  0  0  0
 32 70  1  0  0  0  0
 33 76  2  0  0  0  0
 34 71  1  0  0  0  0
 34 77  2  0  0  0  0
 35 49  1  0  0  0  0
 35 73  1  0  0  0  0
 35 78  2  0  0  0  0
 36 61  1  0  0  0  0
 36 68  1  0  0  0  0
 36 79  2  0  0  0  0
 37 62  1  0  0  0  0
 37 74  1  0  0  0  0
 37 80  2  0  0  0  0
 38 69  1  0  0  0  0
 38 72  1  0  0  0  0
 38 81  2  0  0  0  0
 39 42  1  0  0  0  0
 40 49  1  0  0  0  0
 41 68  1  0  0  0  0
 42 44  1  0  0  0  0
 43 45  1  0  0  0  0
 43 46  1  0  0  0  0
 44 48  1  0  0  0  0
 45 50  1  0  0  0  0
 46 69  1  0  0  0  0
 47 50  1  0  0  0  0
 47 69  1  0  0  0  0
 48 73  1  0  0  0  0
 49 68  1  0  0  0  0
 50 67  1  0  0  0  0
 51 62  1  0  0  0  0
 52 63  1  0  0  0  0
 53 63  1  0  0  0  0
 54 63  1  0  0  0  0
 55 64  1  0  0  0  0
 56 64  1  0  0  0  0
 57 75  1  0  0  0  0
 58 59  1  0  0  0  0
 59 64  1  0  0  0  0
 60 64  1  0  0  0  0
 60 83  1  0  0  0  0
 61 63  1  0  0  0  0
 61 74  1  0  0  0  0
 62 75  1  0  0  0  0
 66 67  1  0  0  0  0
M  CHG  1  75   1
M  ISO  4  38 100  60 101  72 100  83 101
M  END
> <Batch ID>
0136

> <Smiles>
CNC(C)C(=O)NC(C(=O)N1Cc2cc([101O:1][101CH2:1]C(C)(C)CCc3cnc([100NH:0][100C:0](=O)N4CCCC(n5nc(-c6ccc(Oc7ccc(F)cc7F)cc6)c(C(N)=O)c5N)C4)cc3C=O)ccc2CC1C(=O)NC1CCCc2ccccc21)C(C)(C)C

> <Shape>
0.231

> <Color>
0.090

> <Negative vol penalty>
0.000

$$$$

  -OEChem-04052302393D

 85 93  0     1  0  0  0  0  0999 V2000
  -23.1858  -28.8795   12.2304 C   0  0  0  0  0  0  0  0  0  0  0  0
  -22.7423  -29.0443   13.5386 C   0  0  0  0  0  0  0  0  0  0  0  0
  -20.5568  -23.8764   17.5025 C   0  0  0  0  0  0  0  0  0  0  0  0
  -26.4863  -13.7714   19.9458 C   0  0  0  0  0  0  0  0  0  0  0  0
  -24.1888  -14.0804   20.6262 C   0  0  0  0  0  0  0  0  0  0  0  0
  -24.2075  -27.9729   11.9509 C   0  0  0  0  0  0  0  0  0  0  0  0
  -23.3194  -28.3016   14.5681 C   0  0  0  0  0  0  0  0  0  0  0  0
  -24.2795  -30.1281   20.3342 C   0  0  0  0  0  0  0  0  0  0  0  0
  -20.3208  -25.0164   18.2709 C   0  0  0  0  0  0  0  0  0  0  0  0
  -21.6345  -23.0434   17.8033 C   0  0  0  0  0  0  0  0  0  0  0  0
  -26.4842  -12.4988   20.5168 C   0  0  0  0  0  0  0  0  0  0  0  0
  -24.1867  -12.8077   21.1971 C   0  0  0  0  0  0  0  0  0  0  0  0
  -23.5672  -29.9209   21.5146 C   0  0  0  0  0  0  0  0  0  0  0  0
  -23.9134   -9.6079   20.1450 C   0  0  0  0  0  0  0  0  0  0  0  0
  -22.8115   -8.7897   19.8965 C   0  0  0  0  0  0  0  0  0  0  0  0
  -25.0122  -28.0661   22.0539 C   0  0  0  0  0  0  0  0  0  0  0  0
  -22.2401  -24.4905   19.6408 C   0  0  0  0  0  0  0  0  0  0  0  0
  -22.3589   -8.6794   22.2672 C   0  0  0  0  0  0  0  0  0  0  0  0
  -25.3386  -14.5622   20.0005 C   0  0  0  0  0  0  0  0  0  0  0  0
  -24.9944  -16.2170   18.0898 C   0  0  0  0  0  0  0  0  0  0  0  0
  -24.8041  -27.2257   12.9788 C   0  0  0  0  0  0  0  0  0  0  0  0
  -25.3585  -29.2976   19.9989 C   0  0  0  0  0  0  0  0  0  0  0  0
  -24.3491  -27.3831   14.3019 C   0  0  0  0  0  0  0  0  0  0  0  0
  -25.7382  -28.2664   20.8699 C   0  0  0  0  0  0  0  0  0  0  0  0
  -21.1624  -25.3235   19.3400 C   0  0  0  0  0  0  0  0  0  0  0  0
  -22.4761  -23.3505   18.8724 C   0  0  0  0  0  0  0  0  0  0  0  0
  -25.3344  -12.0169   21.1424 C   0  0  0  0  0  0  0  0  0  0  0  0
  -23.9317  -28.8880   22.3733 C   0  0  0  0  0  0  0  0  0  0  0  0
  -24.2381   -9.9619   21.4545 C   0  0  0  0  0  0  0  0  0  0  0  0
  -22.0342   -8.3254   20.9576 C   0  0  0  0  0  0  0  0  0  0  0  0
  -23.4608   -9.4977   22.5156 C   0  0  0  0  0  0  0  0  0  0  0  0
  -25.3403  -15.8772   19.4114 C   0  0  0  0  0  0  0  0  0  0  0  0
  -25.1594  -17.5793   18.0312 C   0  0  0  0  0  0  0  0  0  0  0  0
  -24.5625  -15.3764   17.0116 C   0  0  0  0  0  0  0  0  0  0  0  0
  -25.9931  -27.2991   17.6099 C   0  0  0  0  0  0  0  0  0  0  0  0
  -28.8988  -27.1277   19.0417 C   0  0  0  0  0  0  0  0  0  0  0  0
  -30.7514  -27.4722   21.8870 C   0  0  0  0  0  0  0  0  0  0  0  0
  -24.5012  -22.6634   20.2040 C   0  0  0  0  0  0  0  0  0  0  0  0
  -25.8728  -26.2234   12.6213 C   0  0  0  0  0  0  0  0  0  0  0  0
  -26.1334  -29.5509   18.7348 C   0  0  0  0  0  0  0  0  0  0  0  0
  -26.9016  -27.3595   20.5658 C   0  0  0  0  0  0  0  0  0  0  0  0
  -26.6883  -25.7485   13.8212 C   0  0  0  0  0  0  0  0  0  0  0  0
  -27.3145  -20.7803   21.3070 C   0  0  0  0  0  0  0  0  0  0  0  0
  -25.7682  -25.3916   14.9844 C   0  0  0  0  0  0  0  0  0  0  0  0
  -27.0232  -19.3647   20.8035 C   0  0  0  0  0  0  0  0  0  0  0  0
  -26.0425  -21.4930   21.7628 C   0  0  0  0  0  0  0  0  0  0  0  0
  -24.6633  -20.0974   20.2731 C   0  0  0  0  0  0  0  0  0  0  0  0
  -24.9671  -26.6138   15.4492 C   0  0  1  0  0  0  0  0  0  0  0  0
  -26.8927  -28.3225   18.2431 C   0  0  1  0  0  0  0  0  0  0  0  0
  -25.9054  -19.3630   19.7423 C   0  0  2  0  0  0  0  0  0  0  0  0
  -33.0931  -27.2260   22.7548 C   0  0  0  0  0  0  0  0  0  0  0  0
  -18.6670  -28.4643   21.7236 C   0  0  0  0  0  0  0  0  0  0  0  0
  -28.5670  -24.0947   19.0698 C   0  0  0  0  0  0  0  0  0  0  0  0
  -30.4184  -23.9776   20.7510 C   0  0  0  0  0  0  0  0  0  0  0  0
  -30.8620  -24.8876   18.4711 C   0  0  0  0  0  0  0  0  0  0  0  0
  -22.6352  -26.4304   23.0139 C   0  0  0  0  0  0  0  0  0  0  0  0
  -21.5546  -27.6908   24.8851 C   0  0  0  0  0  0  0  0  0  0  0  0
  -30.9062  -30.3363   22.6161 C   0  0  0  0  0  0  0  0  0  0  0  0
  -20.9066  -26.5567   20.1708 C   0  0  0  0  0  0  0  0  0  0  0  0
  -19.9813  -26.3159   21.3743 C   0  0  0  0  0  0  0  0  0  0  0  0
  -21.0366  -28.3718   22.5189 C   0  0  0  0  0  0  0  0  0  0  0  0
  -29.5135  -26.2588   20.1122 C   0  0  1  0  0  0  0  0  0  0  0  0
  -32.0703  -28.1759   22.1513 C   0  0  2  0  0  0  0  0  0  0  0  0
  -19.7492  -27.5346   22.2935 C   0  0  1  0  0  0  0  0  0  0  0  0
  -29.8171  -24.8204   19.6061 C   0  0  0  0  0  0  0  0  0  0  0  0
  -22.1202  -27.7981   23.4625 C   0  0  0  0  0  0  0  0  0  1  0  0
  -25.6981  -16.9380   20.1398 N   0  0  0  0  0  0  0  0  0  0  0  0
  -25.5781  -17.9578   19.2728 N   0  0  0  0  0  0  0  0  0  0  0  0
  -27.6240  -27.6436   19.3148 N   0  0  0  0  0  0  0  0  0  0  0  0
  -25.0301  -21.4552   20.7052 N   0  0  0  0  0  0  0  0  0  0  0  0
  -24.9858  -18.4783   17.0392 N   0  0  0  0  0  0  0  0  0  0  0  0
  -24.4466  -13.9990   17.2433 N   0  0  0  0  0  0  0  0  0  0  0  0
  -23.5703  -22.5037   19.1781 N   0  0  0  0  0  0  0  0  0  0  0  0
  -25.7959  -27.4848   16.2549 N   0  0  0  0  0  0  0  0  0  0  0  0
  -30.6840  -26.9797   20.6009 N   0  0  0  0  0  0  0  0  0  0  0  0
  -31.8710  -29.3128   23.0940 N   0  3  0  0  0  0  0  0  0  0  0  0
  -24.3032  -15.8311   15.8716 O   0  0  0  0  0  0  0  0  0  0  0  0
  -25.5146  -26.4061   18.2994 O   0  0  0  0  0  0  0  0  0  0  0  0
  -29.5295  -27.3467   18.0045 O   0  0  0  0  0  0  0  0  0  0  0  0
  -29.8707  -27.3664   22.7377 O   0  0  0  0  0  0  0  0  0  0  0  0
  -24.8687  -23.7601   20.6333 O   0  0  0  0  0  0  0  0  0  0  0  0
  -25.3320  -10.7750   21.6995 O   0  0  0  0  0  0  0  0  0  0  0  0
  -23.2377  -28.6832   23.5258 O   0  0  0  0  0  0  0  0  0  1  0  0
  -20.9751   -7.5409   20.7188 F   0  0  0  0  0  0  0  0  0  0  0  0
  -23.7672   -9.8354   23.7758 F   0  0  0  0  0  0  0  0  0  0  0  0
  1  2  1  0  0  0  0
  1  6  2  0  0  0  0
  2  7  2  0  0  0  0
  3  9  2  0  0  0  0
  3 10  1  0  0  0  0
  4 11  2  0  0  0  0
  4 19  1  0  0  0  0
  5 12  1  0  0  0  0
  5 19  2  0  0  0  0
  6 21  1  0  0  0  0
  7 23  1  0  0  0  0
  8 13  2  0  0  0  0
  8 22  1  0  0  0  0
  9 25  1  0  0  0  0
 10 26  2  0  0  0  0
 11 27  1  0  0  0  0
 12 27  2  0  0  0  0
 13 28  1  0  0  0  0
 14 15  2  0  0  0  0
 14 29  1  0  0  0  0
 15 30  1  0  0  0  0
 16 24  1  0  0  0  0
 16 28  2  0  0  0  0
 17 25  2  0  0  0  0
 17 26  1  0  0  0  0
 18 30  2  0  0  0  0
 18 31  1  0  0  0  0
 19 32  1  0  0  0  0
 20 32  1  0  0  0  0
 20 33  2  0  0  0  0
 20 34  1  0  0  0  0
 21 23  2  0  0  0  0
 21 39  1  0  0  0  0
 22 24  2  0  0  0  0
 22 40  1  0  0  0  0
 23 48  1  0  0  0  0
 24 41  1  0  0  0  0
 25 59  1  0  0  0  0
 26 73  1  0  0  0  0
 27 82  1  0  0  0  0
 28 83  1  0  0  0  0
 29 31  2  0  0  0  0
 29 82  1  0  0  0  0
 30 84  1  0  0  0  0
 31 85  1  0  0  0  0
 32 67  2  0  0  0  0
 33 68  1  0  0  0  0
 33 71  1  0  0  0  0
 34 72  1  0  0  0  0
 34 77  2  0  0  0  0
 35 49  1  0  0  0  0
 35 74  1  0  0  0  0
 35 78  2  0  0  0  0
 36 62  1  0  0  0  0
 36 69  1  0  0  0  0
 36 79  2  0  0  0  0
 37 63  1  0  0  0  0
 37 75  1  0  0  0  0
 37 80  2  0  0  0  0
 38 70  1  0  0  0  0
 38 73  1  0  0  0  0
 38 81  2  0  0  0  0
 39 42  1  0  0  0  0
 40 49  1  0  0  0  0
 41 69  1  0  0  0  0
 42 44  1  0  0  0  0
 43 45  1  0  0  0  0
 43 46  1  0  0  0  0
 44 48  1  0  0  0  0
 45 50  1  0  0  0  0
 46 70  1  0  0  0  0
 47 50  1  0  0  0  0
 47 70  1  0  0  0  0
 48 74  1  0  0  0  0
 49 69  1  0  0  0  0
 50 68  1  0  0  0  0
 51 63  1  0  0  0  0
 52 64  1  0  0  0  0
 53 65  1  0  0  0  0
 54 65  1  0  0  0  0
 55 65  1  0  0  0  0
 56 66  1  0  0  0  0
 57 66  1  0  0  0  0
 58 76  1  0  0  0  0
 59 60  1  0  0  0  0
 60 64  1  0  0  0  0
 61 64  1  0  0  0  0
 61 66  1  0  0  0  0
 62 65  1  0  0  0  0
 62 75  1  0  0  0  0
 63 76  1  0  0  0  0
 66 83  1  0  0  0  0
 67 68  1  0  0  0  0
M  CHG  1  76   1
M  ISO  4  38 100  66 101  73 100  83 101
M  END
> <Batch ID>
0136

> <Smiles>
CNC(C)C(=O)NC(C(=O)N1Cc2cc([101O:1][101C:1](C)(C)CC(C)CCc3cccc([100NH:0][100C:0](=O)N4CCCC(n5nc(-c6ccc(Oc7ccc(F)cc7F)cc6)c(C(N)=O)c5N)C4)c3)ccc2CC1C(=O)NC1CCCc2ccccc21)C(C)(C)C

> <Shape>
0.202

> <Color>
0.069

> <Negative vol penalty>
0.000

$$$$

  -OEChem-04052302393D

 84 92  0     1  0  0  0  0  0999 V2000
  -16.6879  -30.3258   23.1918 C   0  0  0  0  0  0  0  0  0  0  0  0
  -17.6726  -30.3975   22.2118 C   0  0  0  0  0  0  0  0  0  0  0  0
  -23.4707  -13.9182   19.1824 C   0  0  0  0  0  0  0  0  0  0  0  0
  -24.8229  -15.0070   20.8625 C   0  0  0  0  0  0  0  0  0  0  0  0
  -17.0017  -29.8371   24.4593 C   0  0  0  0  0  0  0  0  0  0  0  0
  -18.9722  -29.9813   22.4990 C   0  0  0  0  0  0  0  0  0  0  0  0
  -24.6666  -26.9242   19.4096 C   0  0  0  0  0  0  0  0  0  0  0  0
  -24.0903  -12.7024   19.4716 C   0  0  0  0  0  0  0  0  0  0  0  0
  -25.4426  -13.7912   21.1517 C   0  0  0  0  0  0  0  0  0  0  0  0
  -26.0350  -27.1260   19.2348 C   0  0  0  0  0  0  0  0  0  0  0  0
  -23.8790  -10.3008   21.8423 C   0  0  0  0  0  0  0  0  0  0  0  0
  -23.0670   -9.1741   21.9723 C   0  0  0  0  0  0  0  0  0  0  0  0
  -28.8358  -23.2131   20.2036 C   0  0  0  0  0  0  0  0  0  0  0  0
  -26.4428  -26.2251   21.4351 C   0  0  0  0  0  0  0  0  0  0  0  0
  -28.0268  -23.2795   17.5345 C   0  0  0  0  0  0  0  0  0  0  0  0
  -24.2469   -8.1134   20.1503 C   0  0  0  0  0  0  0  0  0  0  0  0
  -23.8370  -15.0705   19.8779 C   0  0  0  0  0  0  0  0  0  0  0  0
  -29.5983  -23.9024   19.2607 C   0  0  0  0  0  0  0  0  0  0  0  0
  -22.0353  -16.8518   20.1749 C   0  0  0  0  0  0  0  0  0  0  0  0
  -18.3035  -29.4057   24.7593 C   0  0  0  0  0  0  0  0  0  0  0  0
  -24.1743  -26.3806   20.6048 C   0  0  0  0  0  0  0  0  0  0  0  0
  -19.3040  -29.4876   23.7721 C   0  0  0  0  0  0  0  0  0  0  0  0
  -25.0680  -26.0151   21.6216 C   0  0  0  0  0  0  0  0  0  0  0  0
  -29.1937  -23.9357   17.9262 C   0  0  0  0  0  0  0  0  0  0  0  0
  -27.2644  -22.5901   18.4774 C   0  0  0  0  0  0  0  0  0  0  0  0
  -25.0762  -12.6389   20.4562 C   0  0  0  0  0  0  0  0  0  0  0  0
  -26.9231  -26.7791   20.2487 C   0  0  0  0  0  0  0  0  0  0  0  0
  -24.8750  -10.3338   20.8662 C   0  0  0  0  0  0  0  0  0  0  0  0
  -23.2510   -8.0805   21.1264 C   0  0  0  0  0  0  0  0  0  0  0  0
  -27.6689  -22.5568   19.8119 C   0  0  0  0  0  0  0  0  0  0  0  0
  -25.0589   -9.2401   20.0202 C   0  0  0  0  0  0  0  0  0  0  0  0
  -23.1978  -16.3268   19.5792 C   0  0  0  0  0  0  0  0  0  0  0  0
  -21.8436  -18.0589   19.5481 C   0  0  0  0  0  0  0  0  0  0  0  0
  -30.8457  -24.5931   19.7077 C   0  0  0  0  0  0  0  0  0  0  0  0
  -21.2032  -16.2980   21.2028 C   0  0  0  0  0  0  0  0  0  0  0  0
  -22.2281  -27.4037   22.9003 C   0  0  0  0  0  0  0  0  0  0  0  0
  -22.5644  -24.3704   23.9997 C   0  0  0  0  0  0  0  0  0  0  0  0
  -24.4368  -21.5193   24.1090 C   0  0  0  0  0  0  0  0  0  0  0  0
  -25.5396  -21.8603   16.7925 C   0  0  0  0  0  0  0  0  0  0  0  0
  -18.6061  -28.9291   26.1579 C   0  0  0  0  0  0  0  0  0  0  0  0
  -22.6977  -26.1444   20.7673 C   0  0  0  0  0  0  0  0  0  0  0  0
  -24.5920  -25.4092   22.9157 C   0  0  0  0  0  0  0  0  0  0  0  0
  -19.9190  -28.1581   26.2679 C   0  0  0  0  0  0  0  0  0  0  0  0
  -22.6654  -20.2930   15.3927 C   0  0  0  0  0  0  0  0  0  0  0  0
  -21.0342  -28.8952   25.5332 C   0  0  0  0  0  0  0  0  0  0  0  0
  -22.3663  -19.1496   16.3649 C   0  0  0  0  0  0  0  0  0  0  0  0
  -24.1673  -20.5121   15.2196 C   0  0  0  0  0  0  0  0  0  0  0  0
  -24.6175  -19.5487   17.4419 C   0  0  0  0  0  0  0  0  0  0  0  0
  -20.7194  -29.0226   24.0378 C   0  0  1  0  0  0  0  0  0  0  0  0
  -22.2631  -26.0608   22.2273 C   0  0  1  0  0  0  0  0  0  0  0  0
  -23.1171  -19.3328   17.6985 C   0  0  2  0  0  0  0  0  0  0  0  0
  -29.9909  -24.6673   16.8958 C   0  0  0  0  0  0  0  0  0  0  0  0
  -24.4715  -19.2230   25.1205 C   0  0  0  0  0  0  0  0  0  0  0  0
  -23.3869  -25.5675   26.6831 C   0  0  0  0  0  0  0  0  0  0  0  0
  -24.3032  -23.3271   27.3227 C   0  0  0  0  0  0  0  0  0  0  0  0
  -21.8685  -23.5869   26.8458 C   0  0  0  0  0  0  0  0  0  0  0  0
  -24.4031  -20.2210   21.4496 C   0  0  0  0  0  0  0  0  0  0  0  0
  -31.0058  -26.0977   19.5339 C   0  0  0  0  0  0  0  0  0  0  0  0
  -30.5562  -26.8798   20.7656 C   0  0  0  0  0  0  0  0  0  0  0  0
  -29.1119  -26.5974   21.1607 C   0  0  0  0  0  0  0  0  0  1  0  0
  -23.5219  -23.6722   24.9350 C   0  0  1  0  0  0  0  0  0  0  0  0
  -24.0624  -20.0605   23.9188 C   0  0  2  0  0  0  0  0  0  0  0  0
  -23.2792  -24.0516   26.4231 C   0  0  0  0  0  0  0  0  0  0  0  0
  -23.7085  -17.1341   18.6457 N   0  0  0  0  0  0  0  0  0  0  0  0
  -31.8057  -23.9136   20.2525 N   0  0  0  0  0  0  0  0  0  0  0  0
  -22.8629  -18.1786   18.6500 N   0  0  0  0  0  0  0  0  0  0  0  0
  -23.1386  -25.2038   23.0294 N   0  0  0  0  0  0  0  0  0  0  0  0
  -24.8112  -20.6821   16.5240 N   0  0  0  0  0  0  0  0  0  0  0  0
  -20.9041  -19.0189   19.6832 N   0  0  0  0  0  0  0  0  0  0  0  0
  -21.5442  -15.0481   21.7373 N   0  0  0  0  0  0  0  0  0  0  0  0
  -26.0795  -21.9243   18.0767 N   0  0  0  0  0  0  0  0  0  0  0  0
  -20.9773  -27.7709   23.3586 N   0  0  0  0  0  0  0  0  0  0  0  0
  -23.3994  -22.2458   24.6543 N   0  0  0  0  0  0  0  0  0  0  0  0
  -24.7344  -19.5067   22.7094 N   0  3  0  0  0  0  0  0  0  0  0  0
  -20.1782  -16.8865   21.6230 O   0  0  0  0  0  0  0  0  0  0  0  0
  -23.2599  -28.0576   22.9980 O   0  0  0  0  0  0  0  0  0  0  0  0
  -21.3520  -24.1777   24.1209 O   0  0  0  0  0  0  0  0  0  0  0  0
  -25.5403  -21.9685   23.8077 O   0  0  0  0  0  0  0  0  0  0  0  0
  -25.6515  -22.7592   15.9550 O   0  0  0  0  0  0  0  0  0  0  0  0
  -25.6808  -11.4527   20.7388 O   0  0  0  0  0  0  0  0  0  0  0  0
  -28.2591  -26.9755   20.0809 O   0  0  0  0  0  0  0  0  0  1  0  0
  -22.4722   -6.9980   21.2524 F   0  0  0  0  0  0  0  0  0  0  0  0
  -26.9443  -21.8963   20.7263 F   0  0  0  0  0  0  0  0  0  0  0  0
  -26.0148   -9.2655   19.0814 F   0  0  0  0  0  0  0  0  0  0  0  0
  1  2  1  0  0  0  0
  1  5  2  0  0  0  0
  2  6  2  0  0  0  0
  3  8  2  0  0  0  0
  3 17  1  0  0  0  0
  4  9  1  0  0  0  0
  4 17  2  0  0  0  0
  5 20  1  0  0  0  0
  6 22  1  0  0  0  0
  7 10  2  0  0  0  0
  7 21  1  0  0  0  0
  8 26  1  0  0  0  0
  9 26  2  0  0  0  0
 10 27  1  0  0  0  0
 11 12  2  0  0  0  0
 11 28  1  0  0  0  0
 12 29  1  0  0  0  0
 13 18  1  0  0  0  0
 13 30  2  0  0  0  0
 14 23  1  0  0  0  0
 14 27  2  0  0  0  0
 15 24  1  0  0  0  0
 15 25  2  0  0  0  0
 16 29  2  0  0  0  0
 16 31  1  0  0  0  0
 17 32  1  0  0  0  0
 18 24  2  0  0  0  0
 18 34  1  0  0  0  0
 19 32  1  0  0  0  0
 19 33  2  0  0  0  0
 19 35  1  0  0  0  0
 20 22  2  0  0  0  0
 20 40  1  0  0  0  0
 21 23  2  0  0  0  0
 21 41  1  0  0  0  0
 22 49  1  0  0  0  0
 23 42  1  0  0  0  0
 24 52  1  0  0  0  0
 25 30  1  0  0  0  0
 25 71  1  0  0  0  0
 26 80  1  0  0  0  0
 27 81  1  0  0  0  0
 28 31  2  0  0  0  0
 28 80  1  0  0  0  0
 29 82  1  0  0  0  0
 30 83  1  0  0  0  0
 31 84  1  0  0  0  0
 32 64  2  0  0  0  0
 33 66  1  0  0  0  0
 33 69  1  0  0  0  0
 34 58  1  0  0  0  0
 34 65  2  0  0  0  0
 35 70  1  0  0  0  0
 35 75  2  0  0  0  0
 36 50  1  0  0  0  0
 36 72  1  0  0  0  0
 36 76  2  0  0  0  0
 37 61  1  0  0  0  0
 37 67  1  0  0  0  0
 37 77  2  0  0  0  0
 38 62  1  0  0  0  0
 38 73  1  0  0  0  0
 38 78  2  0  0  0  0
 39 68  1  0  0  0  0
 39 71  1  0  0  0  0
 39 79  2  0  0  0  0
 40 43  1  0  0  0  0
 41 50  1  0  0  0  0
 42 67  1  0  0  0  0
 43 45  1  0  0  0  0
 44 46  1  0  0  0  0
 44 47  1  0  0  0  0
 45 49  1  0  0  0  0
 46 51  1  0  0  0  0
 47 68  1  0  0  0  0
 48 51  1  0  0  0  0
 48 68  1  0  0  0  0
 49 72  1  0  0  0  0
 50 67  1  0  0  0  0
 51 66  1  0  0  0  0
 53 62  1  0  0  0  0
 54 63  1  0  0  0  0
 55 63  1  0  0  0  0
 56 63  1  0  0  0  0
 57 74  1  0  0  0  0
 58 59  1  0  0  0  0
 59 60  1  0  0  0  0
 60 81  1  0  0  0  0
 61 63  1  0  0  0  0
 61 73  1  0  0  0  0
 62 74  1  0  0  0  0
 64 66  1  0  0  0  0
M  CHG  1  74   1
M  ISO  4  39 100  60 101  71 100  81 101
M  END
> <Batch ID>
0136

> <Smiles>
CNC(C)C(=O)NC(C(=O)N1Cc2cc([101O:1][101CH2:1]CCC(=N)c3cc(F)c([100NH:0][100C:0](=O)N4CCCC(n5nc(-c6ccc(Oc7ccc(F)cc7F)cc6)c(C(N)=O)c5N)C4)cc3C)ccc2CC1C(=O)NC1CCCc2ccccc21)C(C)(C)C

> <Shape>
0.179

> <Color>
0.070

> <Negative vol penalty>
0.000

$$$$

  -OEChem-04052302393D

 86 94  0     1  0  0  0  0  0999 V2000
  -22.7644   -8.1913   21.9566 C   0  0  0  0  0  0  0  0  0  0  0  0
  -24.0090   -8.7639   22.1981 C   0  0  0  0  0  0  0  0  0  0  0  0
  -24.5801  -30.5550   21.9063 C   0  0  0  0  0  0  0  0  0  0  0  0
  -24.7772  -28.3165   22.7936 C   0  0  0  0  0  0  0  0  0  0  0  0
  -21.8999   -8.7708   21.0288 C   0  0  0  0  0  0  0  0  0  0  0  0
  -24.3904   -9.9159   21.5111 C   0  0  0  0  0  0  0  0  0  0  0  0
  -28.2358  -15.9013   22.3505 C   0  0  0  0  0  0  0  0  0  0  0  0
  -23.2155  -30.5494   22.1954 C   0  0  0  0  0  0  0  0  0  0  0  0
  -23.4126  -28.3109   23.0828 C   0  0  0  0  0  0  0  0  0  0  0  0
  -29.2566  -16.6213   21.7314 C   0  0  0  0  0  0  0  0  0  0  0  0
  -20.5118  -27.8720   21.4025 C   0  0  0  0  0  0  0  0  0  0  0  0
  -19.7823  -26.7324   21.0641 C   0  0  0  0  0  0  0  0  0  0  0  0
  -30.6962  -21.5623   19.6331 C   0  0  0  0  0  0  0  0  0  0  0  0
  -27.6492  -17.5799   20.2094 C   0  0  0  0  0  0  0  0  0  0  0  0
  -31.8479  -21.9374   17.5426 C   0  0  0  0  0  0  0  0  0  0  0  0
  -19.1817  -26.4279   23.3844 C   0  0  0  0  0  0  0  0  0  0  0  0
  -25.3609  -29.4385   22.2054 C   0  0  0  0  0  0  0  0  0  0  0  0
  -30.2108  -22.8696   19.6003 C   0  0  0  0  0  0  0  0  0  0  0  0
  -27.8163  -29.8686   22.7474 C   0  0  0  0  0  0  0  0  0  0  0  0
  -22.2670   -9.9359   20.3372 C   0  0  0  0  0  0  0  0  0  0  0  0
  -26.9135  -16.0070   21.8959 C   0  0  0  0  0  0  0  0  0  0  0  0
  -23.5306  -10.5108   20.5722 C   0  0  0  0  0  0  0  0  0  0  0  0
  -26.6131  -16.8622   20.8261 C   0  0  0  0  0  0  0  0  0  0  0  0
  -31.5148  -21.0963   18.6043 C   0  0  0  0  0  0  0  0  0  0  0  0
  -30.5439  -23.7108   18.5386 C   0  0  0  0  0  0  0  0  0  0  0  0
  -22.6318  -29.4274   22.7837 C   0  0  0  0  0  0  0  0  0  0  0  0
  -28.9639  -17.4586   20.6589 C   0  0  0  0  0  0  0  0  0  0  0  0
  -20.5763  -28.2896   22.7319 C   0  0  0  0  0  0  0  0  0  0  0  0
  -19.1172  -26.0103   22.0550 C   0  0  0  0  0  0  0  0  0  0  0  0
  -31.3624  -23.2447   17.5098 C   0  0  0  0  0  0  0  0  0  0  0  0
  -19.9112  -27.5676   23.7228 C   0  0  0  0  0  0  0  0  0  0  0  0
  -26.7704  -29.4434   21.9065 C   0  0  0  0  0  0  0  0  0  0  0  0
  -28.9550  -29.6735   22.0046 C   0  0  0  0  0  0  0  0  0  0  0  0
  -29.3580  -23.3254   20.6910 C   0  0  0  0  0  0  0  0  0  0  0  0
  -27.7632  -30.3929   24.0808 C   0  0  0  0  0  0  0  0  0  0  0  0
  -24.7960  -13.9811   20.6647 C   0  0  0  0  0  0  0  0  0  0  0  0
  -22.8035  -16.5300   20.8998 C   0  0  0  0  0  0  0  0  0  0  0  0
  -22.4427  -19.9194   21.0683 C   0  0  0  0  0  0  0  0  0  0  0  0
  -30.3075  -25.9921   17.4965 C   0  0  0  0  0  0  0  0  0  0  0  0
  -21.3180  -10.4992   19.3091 C   0  0  0  0  0  0  0  0  0  0  0  0
  -25.8197  -15.2441   22.5916 C   0  0  0  0  0  0  0  0  0  0  0  0
  -25.2066  -17.0264   20.3130 C   0  0  0  0  0  0  0  0  0  0  0  0
  -21.6464  -11.9320   18.8975 C   0  0  0  0  0  0  0  0  0  0  0  0
  -30.4930  -29.5477   17.4710 C   0  0  0  0  0  0  0  0  0  0  0  0
  -23.1380  -12.0773   18.6132 C   0  0  0  0  0  0  0  0  0  0  0  0
  -29.6596  -29.9629   18.6856 C   0  0  0  0  0  0  0  0  0  0  0  0
  -29.8980  -28.3311   16.7641 C   0  0  0  0  0  0  0  0  0  0  0  0
  -28.8082  -27.5887   18.8451 C   0  0  0  0  0  0  0  0  0  0  0  0
  -23.9703  -11.7744   19.8651 C   0  0  1  0  0  0  0  0  0  0  0  0
  -24.5879  -15.0339   21.7164 C   0  0  1  0  0  0  0  0  0  0  0  0
  -29.4038  -28.7703   19.6279 C   0  0  2  0  0  0  0  0  0  0  0  0
  -28.5059  -22.2990   21.3759 C   0  0  0  0  0  0  0  0  0  0  0  0
  -20.6895  -21.7089   21.2162 C   0  0  0  0  0  0  0  0  0  0  0  0
  -22.1623  -16.1428   17.9419 C   0  0  0  0  0  0  0  0  0  0  0  0
  -21.1962  -18.4525   17.9206 C   0  0  0  0  0  0  0  0  0  0  0  0
  -20.1875  -16.6939   19.3740 C   0  0  0  0  0  0  0  0  0  0  0  0
  -30.9573  -18.8830   16.4629 C   0  0  0  0  0  0  0  0  0  0  0  0
  -31.9279  -17.2457   18.0708 C   0  0  0  0  0  0  0  0  0  0  0  0
  -23.4858  -20.8891   23.6626 C   0  0  0  0  0  0  0  0  0  0  0  0
  -32.0407  -19.6803   18.6392 C   0  0  0  0  0  0  0  0  0  0  0  0
  -29.7961  -18.4514   18.6645 C   0  0  0  0  0  0  0  0  0  1  0  0
  -22.4297  -17.6815   19.9979 C   0  0  1  0  0  0  0  0  0  0  0  0
  -21.6267  -20.8006   21.9969 C   0  0  2  0  0  0  0  0  0  0  0  0
  -21.5208  -17.2383   18.8168 C   0  0  0  0  0  0  0  0  0  0  0  0
  -31.1654  -18.5857   17.9605 C   0  0  0  0  0  0  0  0  0  0  0  0
  -27.2060  -29.0110   20.7202 N   0  0  0  0  0  0  0  0  0  0  0  0
  -28.5382  -29.1635   20.8103 N   0  0  0  0  0  0  0  0  0  0  0  0
  -24.1728  -16.2546   21.0223 N   0  0  0  0  0  0  0  0  0  0  0  0
  -29.6872  -27.2399   17.7179 N   0  0  0  0  0  0  0  0  0  0  0  0
  -30.2621  -29.8903   22.2630 N   0  0  0  0  0  0  0  0  0  0  0  0
  -26.5113  -30.5275   24.6965 N   0  0  0  0  0  0  0  0  0  0  0  0
  -30.0609  -25.0418   18.4869 N   0  0  0  0  0  0  0  0  0  0  0  0
  -23.9428  -12.8997   20.7747 N   0  0  0  0  0  0  0  0  0  0  0  0
  -21.8366  -18.6987   20.8592 N   0  0  0  0  0  0  0  0  0  0  0  0
  -22.5259  -21.6532   22.8248 N   0  3  0  0  0  0  0  0  0  0  0  0
  -29.2834  -24.4887   21.0862 O   0  0  0  0  0  0  0  0  0  0  0  0
  -28.7940  -30.7474   24.7016 O   0  0  0  0  0  0  0  0  0  0  0  0
  -25.6652  -14.1389   19.8155 O   0  0  0  0  0  0  0  0  0  0  0  0
  -21.9138  -15.9027   21.4799 O   0  0  0  0  0  0  0  0  0  0  0  0
  -23.5090  -20.2795   20.5747 O   0  0  0  0  0  0  0  0  0  0  0  0
  -31.0280  -25.7905   16.5156 O   0  0  0  0  0  0  0  0  0  0  0  0
  -21.3004  -29.4218   23.0661 O   0  0  0  0  0  0  0  0  0  0  0  0
  -29.9584  -18.1621   20.0524 O   0  0  0  0  0  0  0  0  0  1  0  0
  -18.4154  -24.9168   21.7297 F   0  0  0  0  0  0  0  0  0  0  0  0
  -31.6895  -24.0435   16.4838 F   0  0  0  0  0  0  0  0  0  0  0  0
  -19.9686  -27.9645   25.0015 F   0  0  0  0  0  0  0  0  0  0  0  0
  1  2  1  0  0  0  0
  1  5  2  0  0  0  0
  2  6  2  0  0  0  0
  3  8  2  0  0  0  0
  3 17  1  0  0  0  0
  4  9  1  0  0  0  0
  4 17  2  0  0  0  0
  5 20  1  0  0  0  0
  6 22  1  0  0  0  0
  7 10  2  0  0  0  0
  7 21  1  0  0  0  0
  8 26  1  0  0  0  0
  9 26  2  0  0  0  0
 10 27  1  0  0  0  0
 11 12  2  0  0  0  0
 11 28  1  0  0  0  0
 12 29  1  0  0  0  0
 13 18  1  0  0  0  0
 13 24  2  0  0  0  0
 14 23  1  0  0  0  0
 14 27  2  0  0  0  0
 15 24  1  0  0  0  0
 15 30  2  0  0  0  0
 16 29  2  0  0  0  0
 16 31  1  0  0  0  0
 17 32  1  0  0  0  0
 18 25  2  0  0  0  0
 18 34  1  0  0  0  0
 19 32  1  0  0  0  0
 19 33  2  0  0  0  0
 19 35  1  0  0  0  0
 20 22  2  0  0  0  0
 20 40  1  0  0  0  0
 21 23  2  0  0  0  0
 21 41  1  0  0  0  0
 22 49  1  0  0  0  0
 23 42  1  0  0  0  0
 24 60  1  0  0  0  0
 25 30  1  0  0  0  0
 25 72  1  0  0  0  0
 26 82  1  0  0  0  0
 27 83  1  0  0  0  0
 28 31  2  0  0  0  0
 28 82  1  0  0  0  0
 29 84  1  0  0  0  0
 30 85  1  0  0  0  0
 31 86  1  0  0  0  0
 32 66  2  0  0  0  0
 33 67  1  0  0  0  0
 33 70  1  0  0  0  0
 34 52  1  0  0  0  0
 34 76  2  0  0  0  0
 35 71  1  0  0  0  0
 35 77  2  0  0  0  0
 36 50  1  0  0  0  0
 36 73  1  0  0  0  0
 36 78  2  0  0  0  0
 37 62  1  0  0  0  0
 37 68  1  0  0  0  0
 37 79  2  0  0  0  0
 38 63  1  0  0  0  0
 38 74  1  0  0  0  0
 38 80  2  0  0  0  0
 39 69  1  0  0  0  0
 39 72  1  0  0  0  0
 39 81  2  0  0  0  0
 40 43  1  0  0  0  0
 41 50  1  0  0  0  0
 42 68  1  0  0  0  0
 43 45  1  0  0  0  0
 44 46  1  0  0  0  0
 44 47  1  0  0  0  0
 45 49  1  0  0  0  0
 46 51  1  0  0  0  0
 47 69  1  0  0  0  0
 48 51  1  0  0  0  0
 48 69  1  0  0  0  0
 49 73  1  0  0  0  0
 50 68  1  0  0  0  0
 51 67  1  0  0  0  0
 53 63  1  0  0  0  0
 54 64  1  0  0  0  0
 55 64  1  0  0  0  0
 56 64  1  0  0  0  0
 57 65  1  0  0  0  0
 58 65  1  0  0  0  0
 59 75  1  0  0  0  0
 60 65  1  0  0  0  0
 61 65  1  0  0  0  0
 61 83  1  0  0  0  0
 62 64  1  0  0  0  0
 62 74  1  0  0  0  0
 63 75  1  0  0  0  0
 66 67  1  0  0  0  0
M  CHG  1  75   1
M  ISO  4  39 100  61 101  72 100  83 101
M  END
> <Batch ID>
0136

> <Smiles>
CNC(C)C(=O)NC(C(=O)N1Cc2cc([101O:1][101CH2:1]C(C)(C)Cc3cc(F)c([100NH:0][100C:0](=O)N4CCCC(n5nc(-c6ccc(Oc7ccc(F)cc7F)cc6)c(C(N)=O)c5N)C4)c(C(C)=O)c3)ccc2CC1C(=O)NC1CCCc2ccccc21)C(C)(C)C

> <Shape>
0.271

> <Color>
0.049

> <Negative vol penalty>
0.000

$$$$

  -OEChem-04052302393D

 80 88  0     1  0  0  0  0  0999 V2000
  -17.3655  -32.1566   22.3505 C   0  0  0  0  0  0  0  0  0  0  0  0
  -18.6050  -32.4242   21.7783 C   0  0  0  0  0  0  0  0  0  0  0  0
  -26.1762  -12.7810   20.8339 C   0  0  0  0  0  0  0  0  0  0  0  0
  -24.4991  -14.3972   21.4760 C   0  0  0  0  0  0  0  0  0  0  0  0
  -17.2452  -31.1557   23.3137 C   0  0  0  0  0  0  0  0  0  0  0  0
  -19.7252  -31.6918   22.1698 C   0  0  0  0  0  0  0  0  0  0  0  0
  -25.8824  -29.0982   19.5855 C   0  0  0  0  0  0  0  0  0  0  0  0
  -25.3846  -11.7547   21.3493 C   0  0  0  0  0  0  0  0  0  0  0  0
  -23.7074  -13.3708   21.9914 C   0  0  0  0  0  0  0  0  0  0  0  0
  -27.2487  -29.0912   19.8624 C   0  0  0  0  0  0  0  0  0  0  0  0
  -23.6441   -8.6709   22.1712 C   0  0  0  0  0  0  0  0  0  0  0  0
  -23.4969   -7.5167   21.4019 C   0  0  0  0  0  0  0  0  0  0  0  0
  -26.9063  -27.3325   21.4776 C   0  0  0  0  0  0  0  0  0  0  0  0
  -22.5213   -8.8274   19.6222 C   0  0  0  0  0  0  0  0  0  0  0  0
  -28.8147  -24.5498   18.1427 C   0  0  0  0  0  0  0  0  0  0  0  0
  -25.7335  -14.1023   20.8974 C   0  0  0  0  0  0  0  0  0  0  0  0
  -26.5371  -15.6704   19.0526 C   0  0  0  0  0  0  0  0  0  0  0  0
  -18.3625  -30.4042   23.7102 C   0  0  0  0  0  0  0  0  0  0  0  0
  -25.0147  -28.2284   20.2615 C   0  0  0  0  0  0  0  0  0  0  0  0
  -19.6199  -30.6809   23.1402 C   0  0  0  0  0  0  0  0  0  0  0  0
  -25.5297  -27.3286   21.2056 C   0  0  0  0  0  0  0  0  0  0  0  0
  -24.1502  -12.0496   21.9280 C   0  0  0  0  0  0  0  0  0  0  0  0
  -27.7605  -28.2103   20.8106 C   0  0  0  0  0  0  0  0  0  0  0  0
  -23.2298   -9.9033   21.6661 C   0  0  0  0  0  0  0  0  0  0  0  0
  -22.9355   -7.5950   20.1274 C   0  0  0  0  0  0  0  0  0  0  0  0
  -22.6684   -9.9816   20.3916 C   0  0  0  0  0  0  0  0  0  0  0  0
  -26.5511  -15.1629   20.3657 C   0  0  0  0  0  0  0  0  0  0  0  0
  -29.8614  -24.7492   19.0184 C   0  0  0  0  0  0  0  0  0  0  0  0
  -27.4903  -16.6593   19.0565 C   0  0  0  0  0  0  0  0  0  0  0  0
  -29.2408  -22.7574   19.6946 C   0  0  0  0  0  0  0  0  0  0  0  0
  -25.7342  -15.2826   17.9299 C   0  0  0  0  0  0  0  0  0  0  0  0
  -22.5303  -28.6038   22.2086 C   0  0  0  0  0  0  0  0  0  0  0  0
  -22.3192  -25.3791   21.9269 C   0  0  0  0  0  0  0  0  0  0  0  0
  -23.8815  -22.4215   21.2497 C   0  0  0  0  0  0  0  0  0  0  0  0
  -29.9267  -21.0667   21.4317 C   0  0  0  0  0  0  0  0  0  0  0  0
  -18.1923  -29.3644   24.7893 C   0  0  0  0  0  0  0  0  0  0  0  0
  -23.5471  -28.2298   19.9321 C   0  0  0  0  0  0  0  0  0  0  0  0
  -24.6433  -26.3606   21.9443 C   0  0  0  0  0  0  0  0  0  0  0  0
  -19.3564  -28.3808   24.8766 C   0  0  0  0  0  0  0  0  0  0  0  0
  -30.9914  -17.8461   22.5142 C   0  0  0  0  0  0  0  0  0  0  0  0
  -20.6877  -29.1246   24.8383 C   0  0  0  0  0  0  0  0  0  0  0  0
  -29.9299  -16.9027   21.9437 C   0  0  0  0  0  0  0  0  0  0  0  0
  -30.3850  -19.1714   22.9721 C   0  0  0  0  0  0  0  0  0  0  0  0
  -28.5105  -18.9200   21.3935 C   0  0  0  0  0  0  0  0  0  0  0  0
  -20.8535  -29.8913   23.5206 C   0  0  1  0  0  0  0  0  0  0  0  0
  -22.6829  -27.6574   21.0515 C   0  0  1  0  0  0  0  0  0  0  0  0
  -29.0831  -17.5971   20.8591 C   0  0  2  0  0  0  0  0  0  0  0  0
  -24.1254  -19.9589   20.8330 C   0  0  0  0  0  0  0  0  0  0  0  0
  -22.3579  -25.2357   24.9745 C   0  0  0  0  0  0  0  0  0  0  0  0
  -22.8892  -22.7966   24.7835 C   0  0  0  0  0  0  0  0  0  0  0  0
  -20.7385  -23.6775   23.8773 C   0  0  0  0  0  0  0  0  0  0  0  0
  -23.3583  -22.7417   18.3544 C   0  0  0  0  0  0  0  0  0  0  0  0
  -31.3119  -27.8580   20.1984 C   0  0  0  0  0  0  0  0  0  0  0  0
  -29.9761  -28.5627   20.0214 C   0  0  0  0  0  0  0  0  0  1  0  0
  -31.1596  -26.3451   20.2115 C   0  0  0  0  0  0  0  0  0  0  0  0
  -22.8984  -24.2007   22.6718 C   0  0  1  0  0  0  0  0  0  0  0  0
  -23.4903  -21.2566   20.3583 C   0  0  2  0  0  0  0  0  0  0  0  0
  -22.2377  -23.9971   24.0644 C   0  0  0  0  0  0  0  0  0  0  0  0
  -27.4426  -15.7785   21.1469 N   0  0  0  0  0  0  0  0  0  0  0  0
  -30.1069  -23.7227   19.9093 N   0  0  0  0  0  0  0  0  0  0  0  0
  -27.9977  -16.6829   20.3222 N   0  0  0  0  0  0  0  0  0  0  0  0
  -23.2146  -26.4046   21.5917 N   0  0  0  0  0  0  0  0  0  0  0  0
  -29.6005  -19.7733   21.8918 N   0  0  0  0  0  0  0  0  0  0  0  0
  -27.9355  -17.5021   18.1006 N   0  0  0  0  0  0  0  0  0  0  0  0
  -24.8036  -14.2484   18.0993 N   0  0  0  0  0  0  0  0  0  0  0  0
  -29.1326  -21.5217   20.3796 N   0  0  0  0  0  0  0  0  0  0  0  0
  -21.2256  -28.9874   22.4534 N   0  0  0  0  0  0  0  0  0  0  0  0
  -22.7761  -23.0533   21.7790 N   0  0  0  0  0  0  0  0  0  0  0  0
  -23.9270  -21.5081   18.9558 N   0  3  0  0  0  0  0  0  0  0  0  0
  -25.8504  -15.8256   16.8051 O   0  0  0  0  0  0  0  0  0  0  0  0
  -23.5227  -28.9584   22.8340 O   0  0  0  0  0  0  0  0  0  0  0  0
  -21.1180  -25.3861   21.6463 O   0  0  0  0  0  0  0  0  0  0  0  0
  -25.0509  -22.7370   21.4586 O   0  0  0  0  0  0  0  0  0  0  0  0
  -30.8605  -21.7114   21.9158 O   0  0  0  0  0  0  0  0  0  0  0  0
  -23.3773  -11.0484   22.4308 O   0  0  0  0  0  0  0  0  0  0  0  0
  -29.0937  -28.2019   21.0833 O   0  0  0  0  0  0  0  0  0  1  0  0
  -30.5950  -25.9065   18.9832 O   0  0  0  0  0  0  0  0  0  0  0  0
  -22.7957   -6.4868   19.3881 F   0  0  0  0  0  0  0  0  0  0  0  0
  -22.2697  -11.1629   19.9004 F   0  0  0  0  0  0  0  0  0  0  0  0
  -28.1030  -23.0172   18.4364 S   0  0  0  0  0  0  0  0  0  0  0  0
  1  2  1  0  0  0  0
  1  5  2  0  0  0  0
  2  6  2  0  0  0  0
  3  8  2  0  0  0  0
  3 16  1  0  0  0  0
  4  9  1  0  0  0  0
  4 16  2  0  0  0  0
  5 18  1  0  0  0  0
  6 20  1  0  0  0  0
  7 10  2  0  0  0  0
  7 19  1  0  0  0  0
  8 22  1  0  0  0  0
  9 22  2  0  0  0  0
 10 23  1  0  0  0  0
 11 12  2  0  0  0  0
 11 24  1  0  0  0  0
 12 25  1  0  0  0  0
 13 21  1  0  0  0  0
 13 23  2  0  0  0  0
 14 25  2  0  0  0  0
 14 26  1  0  0  0  0
 15 28  2  0  0  0  0
 15 80  1  0  0  0  0
 16 27  1  0  0  0  0
 17 27  1  0  0  0  0
 17 29  2  0  0  0  0
 17 31  1  0  0  0  0
 18 20  2  0  0  0  0
 18 36  1  0  0  0  0
 19 21  2  0  0  0  0
 19 37  1  0  0  0  0
 20 45  1  0  0  0  0
 21 38  1  0  0  0  0
 22 75  1  0  0  0  0
 23 76  1  0  0  0  0
 24 26  2  0  0  0  0
 24 75  1  0  0  0  0
 25 78  1  0  0  0  0
 26 79  1  0  0  0  0
 27 59  2  0  0  0  0
 28 60  1  0  0  0  0
 28 77  1  0  0  0  0
 29 61  1  0  0  0  0
 29 64  1  0  0  0  0
 30 60  2  0  0  0  0
 30 66  1  0  0  0  0
 30 80  1  0  0  0  0
 31 65  1  0  0  0  0
 31 70  2  0  0  0  0
 32 46  1  0  0  0  0
 32 67  1  0  0  0  0
 32 71  2  0  0  0  0
 33 56  1  0  0  0  0
 33 62  1  0  0  0  0
 33 72  2  0  0  0  0
 34 57  1  0  0  0  0
 34 68  1  0  0  0  0
 34 73  2  0  0  0  0
 35 63  1  0  0  0  0
 35 66  1  0  0  0  0
 35 74  2  0  0  0  0
 36 39  1  0  0  0  0
 37 46  1  0  0  0  0
 38 62  1  0  0  0  0
 39 41  1  0  0  0  0
 40 42  1  0  0  0  0
 40 43  1  0  0  0  0
 41 45  1  0  0  0  0
 42 47  1  0  0  0  0
 43 63  1  0  0  0  0
 44 47  1  0  0  0  0
 44 63  1  0  0  0  0
 45 67  1  0  0  0  0
 46 62  1  0  0  0  0
 47 61  1  0  0  0  0
 48 57  1  0  0  0  0
 49 58  1  0  0  0  0
 50 58  1  0  0  0  0
 51 58  1  0  0  0  0
 52 69  1  0  0  0  0
 53 54  1  0  0  0  0
 53 55  1  0  0  0  0
 54 76  1  0  0  0  0
 55 77  1  0  0  0  0
 56 58  1  0  0  0  0
 56 68  1  0  0  0  0
 57 69  1  0  0  0  0
 59 61  1  0  0  0  0
M  CHG  1  69   1
M  ISO  4  35 100  54 101  66 100  76 101
M  END
> <Batch ID>
0136

> <Smiles>
CNC(C)C(=O)NC(C(=O)N1Cc2cc([101O:1][101CH2:1]CCOc3csc([100NH:0][100C:0](=O)N4CCCC(n5nc(-c6ccc(Oc7ccc(F)cc7F)cc6)c(C(N)=O)c5N)C4)n3)ccc2CC1C(=O)NC1CCCc2ccccc21)C(C)(C)C

> <Shape>
0.256

> <Color>
0.082

> <Negative vol penalty>
0.000

$$$$

  -OEChem-04052302393D

 86 95  0     1  0  0  0  0  0999 V2000
  -18.3515  -15.6031   23.7175 C   0  0  0  0  0  0  0  0  0  0  0  0
  -19.6997  -15.8893   23.9069 C   0  0  0  0  0  0  0  0  0  0  0  0
  -24.5154  -31.7458   22.8703 C   0  0  0  0  0  0  0  0  0  0  0  0
  -23.5960  -30.8959   24.9366 C   0  0  0  0  0  0  0  0  0  0  0  0
  -17.9534  -14.3047   23.4017 C   0  0  0  0  0  0  0  0  0  0  0  0
  -20.6505  -14.8770   23.7817 C   0  0  0  0  0  0  0  0  0  0  0  0
  -24.6918  -16.3289   21.0975 C   0  0  0  0  0  0  0  0  0  0  0  0
  -25.1371  -32.7787   23.5718 C   0  0  0  0  0  0  0  0  0  0  0  0
  -24.2177  -31.9289   25.6381 C   0  0  0  0  0  0  0  0  0  0  0  0
  -25.6350  -17.1245   21.7466 C   0  0  0  0  0  0  0  0  0  0  0  0
  -24.2612  -35.7492   24.9259 C   0  0  0  0  0  0  0  0  0  0  0  0
  -24.1735  -37.0363   24.3955 C   0  0  0  0  0  0  0  0  0  0  0  0
  -27.0246  -15.1835   22.0938 C   0  0  0  0  0  0  0  0  0  0  0  0
  -27.5243  -22.4876   20.9397 C   0  0  0  0  0  0  0  0  0  0  0  0
  -26.5825  -37.1374   24.2424 C   0  0  0  0  0  0  0  0  0  0  0  0
  -28.9832  -24.0359   19.2308 C   0  0  0  0  0  0  0  0  0  0  0  0
  -23.7448  -30.8044   23.5527 C   0  0  0  0  0  0  0  0  0  0  0  0
  -22.1486  -29.8618   21.8002 C   0  0  0  0  0  0  0  0  0  0  0  0
  -18.9007  -13.2781   23.2630 C   0  0  0  0  0  0  0  0  0  0  0  0
  -24.9033  -14.9504   20.9511 C   0  0  0  0  0  0  0  0  0  0  0  0
  -20.2646  -13.5634   23.4650 C   0  0  0  0  0  0  0  0  0  0  0  0
  -26.0838  -14.3730   21.4402 C   0  0  0  0  0  0  0  0  0  0  0  0
  -27.7456  -24.5019   19.6443 C   0  0  0  0  0  0  0  0  0  0  0  0
  -27.0085  -23.7070   20.5150 C   0  0  0  0  0  0  0  0  0  0  0  0
  -24.9883  -32.8703   24.9556 C   0  0  0  0  0  0  0  0  0  0  0  0
  -26.8002  -16.5514   22.2474 C   0  0  0  0  0  0  0  0  0  0  0  0
  -25.5096  -35.1562   25.1146 C   0  0  0  0  0  0  0  0  0  0  0  0
  -25.3341  -37.7304   24.0537 C   0  0  0  0  0  0  0  0  0  0  0  0
  -26.6702  -35.8503   24.7728 C   0  0  0  0  0  0  0  0  0  0  0  0
  -23.1019  -29.7374   22.8286 C   0  0  0  0  0  0  0  0  0  0  0  0
  -28.7717  -22.1116   20.4680 C   0  0  0  0  0  0  0  0  0  0  0  0
  -21.8540  -28.5677   21.4467 C   0  0  0  0  0  0  0  0  0  0  0  0
  -30.1764  -18.6661   20.4206 C   0  0  0  0  0  0  0  0  0  0  0  0
  -21.5803  -31.0417   21.2165 C   0  0  0  0  0  0  0  0  0  0  0  0
  -23.3986  -12.3323   21.9434 C   0  0  0  0  0  0  0  0  0  0  0  0
  -25.5843  -10.8373   20.0699 C   0  0  0  0  0  0  0  0  0  0  0  0
  -29.1092  -11.1552   19.3693 C   0  0  0  0  0  0  0  0  0  0  0  0
  -24.8876  -23.4352   21.8470 C   0  0  0  0  0  0  0  0  0  0  0  0
  -18.4181  -11.8802   22.9670 C   0  0  0  0  0  0  0  0  0  0  0  0
  -23.8886  -14.1105   20.2248 C   0  0  0  0  0  0  0  0  0  0  0  0
  -26.3678  -12.9015   21.2909 C   0  0  0  0  0  0  0  0  0  0  0  0
  -30.2603  -18.3410   21.8928 C   0  0  0  0  0  0  0  0  0  0  0  0
  -30.1744  -20.1265   20.0293 C   0  0  0  0  0  0  0  0  0  0  0  0
  -19.5227  -10.9439   22.4838 C   0  0  0  0  0  0  0  0  0  0  0  0
  -21.6932  -24.1361   23.2549 C   0  0  0  0  0  0  0  0  0  0  0  0
  -20.7584  -11.0750   23.3685 C   0  0  0  0  0  0  0  0  0  0  0  0
  -21.6027  -25.6630   23.2061 C   0  0  0  0  0  0  0  0  0  0  0  0
  -23.1109  -23.6618   23.5695 C   0  0  0  0  0  0  0  0  0  0  0  0
  -29.4070  -20.6621   22.3504 C   0  0  0  0  0  0  0  0  0  0  0  0
  -24.0665  -25.7372   22.6484 C   0  0  0  0  0  0  0  0  0  0  0  0
  -21.3281  -12.4976   23.3133 C   0  0  1  0  0  0  0  0  0  0  0  0
  -23.9695  -12.6305   20.5860 C   0  0  1  0  0  0  0  0  0  0  0  0
  -29.2568  -19.1734   22.6881 C   0  0  1  0  0  0  0  0  0  0  0  0
  -22.6714  -26.2614   22.2706 C   0  0  2  0  0  0  0  0  0  0  0  0
  -27.2450  -25.8175   19.1554 C   0  0  0  0  0  0  0  0  0  0  0  0
  -30.4292  -10.5347   17.3272 C   0  0  0  0  0  0  0  0  0  0  0  0
  -26.0874   -8.2150   21.5466 C   0  0  0  0  0  0  0  0  0  0  0  0
  -28.4214   -8.2336   20.6409 C   0  0  0  0  0  0  0  0  0  0  0  0
  -26.4802   -8.1146   19.0788 C   0  0  0  0  0  0  0  0  0  0  0  0
  -30.1991  -13.8936   19.0996 C   0  0  0  0  0  0  0  0  0  0  0  0
  -27.8202  -18.6882   22.4699 C   0  0  0  0  0  0  0  0  0  1  0  0
  -26.9728  -10.2837   20.2806 C   0  0  1  0  0  0  0  0  0  0  0  0
  -29.7383  -11.6592   18.0829 C   0  0  2  0  0  0  0  0  0  0  0  0
  -26.9807   -8.7336   20.4020 C   0  0  0  0  0  0  0  0  0  0  0  0
  -29.5171  -22.8570   19.6216 N   0  0  0  0  0  0  0  0  0  0  0  0
  -23.3934  -28.4648   23.1103 N   0  0  0  0  0  0  0  0  0  0  0  0
  -22.6186  -27.7776   22.2537 N   0  0  0  0  0  0  0  0  0  0  0  0
  -29.2779  -20.8818   20.9041 N   0  0  1  0  0  0  0  0  0  0  0  0
  -25.3423  -12.1212   20.5788 N   0  0  0  0  0  0  0  0  0  0  0  0
  -24.0684  -24.2659   22.6406 N   0  0  0  0  0  0  0  0  0  0  0  0
  -21.0179  -28.0399   20.5276 N   0  0  0  0  0  0  0  0  0  0  0  0
  -21.9943  -32.2911   21.6978 N   0  0  0  0  0  0  0  0  0  0  0  0
  -25.7352  -24.1217   20.9782 N   0  0  0  0  0  0  0  0  0  0  0  0
  -22.0735  -12.6964   22.0889 N   0  0  0  0  0  0  0  0  0  0  0  0
  -27.7889  -10.8016   19.1878 N   0  0  0  0  0  0  0  0  0  0  0  0
  -30.7468  -12.7158   18.3786 N   0  3  0  0  0  0  0  0  0  0  0  0
  -30.2224  -17.7775   19.5694 O   0  0  0  0  0  0  0  0  0  0  0  0
  -20.7183  -30.9892   20.3067 O   0  0  0  0  0  0  0  0  0  0  0  0
  -24.1073  -11.8091   22.7953 O   0  0  0  0  0  0  0  0  0  0  0  0
  -24.7473  -10.1586   19.4695 O   0  0  0  0  0  0  0  0  0  0  0  0
  -29.7284  -11.0792   20.4282 O   0  0  0  0  0  0  0  0  0  0  0  0
  -24.8212  -22.2051   21.9124 O   0  0  0  0  0  0  0  0  0  0  0  0
  -25.5950  -33.8780   25.6405 O   0  0  0  0  0  0  0  0  0  0  0  0
  -27.7221  -17.3255   22.8820 O   0  0  0  0  0  0  0  0  0  1  0  0
  -25.2496  -38.9657   23.5430 F   0  0  0  0  0  0  0  0  0  0  0  0
  -27.8723  -35.2853   24.9506 F   0  0  0  0  0  0  0  0  0  0  0  0
  1  2  1  0  0  0  0
  1  5  2  0  0  0  0
  2  6  2  0  0  0  0
  3  8  2  0  0  0  0
  3 17  1  0  0  0  0
  4  9  1  0  0  0  0
  4 17  2  0  0  0  0
  5 19  1  0  0  0  0
  6 21  1  0  0  0  0
  7 10  2  0  0  0  0
  7 20  1  0  0  0  0
  8 25  1  0  0  0  0
  9 25  2  0  0  0  0
 10 26  1  0  0  0  0
 11 12  2  0  0  0  0
 11 27  1  0  0  0  0
 12 28  1  0  0  0  0
 13 22  1  0  0  0  0
 13 26  2  0  0  0  0
 14 24  2  0  0  0  0
 14 31  1  0  0  0  0
 15 28  2  0  0  0  0
 15 29  1  0  0  0  0
 16 23  2  0  0  0  0
 16 65  1  0  0  0  0
 17 30  1  0  0  0  0
 18 30  1  0  0  0  0
 18 32  2  0  0  0  0
 18 34  1  0  0  0  0
 19 21  2  0  0  0  0
 19 39  1  0  0  0  0
 20 22  2  0  0  0  0
 20 40  1  0  0  0  0
 21 51  1  0  0  0  0
 22 41  1  0  0  0  0
 23 24  1  0  0  0  0
 23 55  1  0  0  0  0
 24 73  1  0  0  0  0
 25 83  1  0  0  0  0
 26 84  1  0  0  0  0
 27 29  2  0  0  0  0
 27 83  1  0  0  0  0
 28 85  1  0  0  0  0
 29 86  1  0  0  0  0
 30 66  2  0  0  0  0
 31 65  2  0  0  0  0
 31 68  1  0  0  0  0
 32 67  1  0  0  0  0
 32 71  1  0  0  0  0
 33 42  1  0  0  0  0
 33 43  1  0  0  0  0
 33 77  2  0  0  0  0
 34 72  1  0  0  0  0
 34 78  2  0  0  0  0
 35 52  1  0  0  0  0
 35 74  1  0  0  0  0
 35 79  2  0  0  0  0
 36 62  1  0  0  0  0
 36 69  1  0  0  0  0
 36 80  2  0  0  0  0
 37 63  1  0  0  0  0
 37 75  1  0  0  0  0
 37 81  2  0  0  0  0
 38 70  1  0  0  0  0
 38 73  1  0  0  0  0
 38 82  2  0  0  0  0
 39 44  1  0  0  0  0
 40 52  1  0  0  0  0
 41 69  1  0  0  0  0
 42 53  1  0  0  0  0
 43 68  1  0  0  0  0
 44 46  1  0  0  0  0
 45 47  1  0  0  0  0
 45 48  1  0  0  0  0
 46 51  1  0  0  0  0
 47 54  1  0  0  0  0
 48 70  1  0  0  0  0
 49 53  1  0  0  0  0
 49 68  1  0  0  0  0
 50 54  1  0  0  0  0
 50 70  1  0  0  0  0
 51 74  1  0  0  0  0
 52 69  1  0  0  0  0
 53 61  1  0  0  0  0
 54 67  1  0  0  0  0
 56 63  1  0  0  0  0
 57 64  1  0  0  0  0
 58 64  1  0  0  0  0
 59 64  1  0  0  0  0
 60 76  1  0  0  0  0
 61 84  1  0  0  0  0
 62 64  1  0  0  0  0
 62 75  1  0  0  0  0
 63 76  1  0  0  0  0
 66 67  1  0  0  0  0
M  CHG  1  76   1
M  ISO  4  38 100  61 101  73 100  84 101
M  END
> <Batch ID>
0136

> <Smiles>
CNC(C)C(=O)NC(C(=O)N1Cc2cc([101O:1][101CH2:1]C3CC(=O)CN(c4cc([100NH:0][100C:0](=O)N5CCCC(n6nc(-c7ccc(Oc8ccc(F)cc8F)cc7)c(C(N)=O)c6N)C5)c(C)cn4)C3)ccc2CC1C(=O)NC1CCCc2ccccc21)C(C)(C)C

> <Shape>
0.253

> <Color>
0.066

> <Negative vol penalty>
0.000

$$$$

  -OEChem-04052302393D

 85 93  0     1  0  0  0  0  0999 V2000
  -22.1754  -12.2665   18.7631 C   0  0  0  0  0  0  0  0  0  0  0  0
  -22.0465  -13.6501   18.8292 C   0  0  0  0  0  0  0  0  0  0  0  0
  -19.5545  -25.1941   24.5871 C   0  0  0  0  0  0  0  0  0  0  0  0
  -24.5382  -25.4651   16.4939 C   0  0  0  0  0  0  0  0  0  0  0  0
  -26.0562  -27.0700   15.5156 C   0  0  0  0  0  0  0  0  0  0  0  0
  -19.9674  -26.5248   24.6513 C   0  0  0  0  0  0  0  0  0  0  0  0
  -23.2466  -11.6364   19.3951 C   0  0  0  0  0  0  0  0  0  0  0  0
  -22.9881  -14.4044   19.5284 C   0  0  0  0  0  0  0  0  0  0  0  0
  -24.4475  -18.5326   16.9842 C   0  0  0  0  0  0  0  0  0  0  0  0
  -19.5416  -24.5261   23.3625 C   0  0  0  0  0  0  0  0  0  0  0  0
  -24.2226  -24.9881   15.2217 C   0  0  0  0  0  0  0  0  0  0  0  0
  -25.7407  -26.5929   14.2434 C   0  0  0  0  0  0  0  0  0  0  0  0
  -23.5798  -19.6239   16.9899 C   0  0  0  0  0  0  0  0  0  0  0  0
  -23.2887  -23.1055   12.2554 C   0  0  0  0  0  0  0  0  0  0  0  0
  -23.2418  -21.7233   12.0743 C   0  0  0  0  0  0  0  0  0  0  0  0
  -20.3544  -26.5199   22.2665 C   0  0  0  0  0  0  0  0  0  0  0  0
  -24.9111  -20.6658   18.7107 C   0  0  0  0  0  0  0  0  0  0  0  0
  -25.5606  -21.5583   12.7323 C   0  0  0  0  0  0  0  0  0  0  0  0
  -25.4549  -26.5061   16.6408 C   0  0  0  0  0  0  0  0  0  0  0  0
  -20.3673  -27.1878   23.4911 C   0  0  0  0  0  0  0  0  0  0  0  0
  -26.8083  -26.5451   18.8029 C   0  0  0  0  0  0  0  0  0  0  0  0
  -24.2071  -12.3841   20.0942 C   0  0  0  0  0  0  0  0  0  0  0  0
  -25.5492  -18.4947   17.8509 C   0  0  0  0  0  0  0  0  0  0  0  0
  -24.0724  -13.7835   20.1715 C   0  0  0  0  0  0  0  0  0  0  0  0
  -25.7927  -19.5740   18.7123 C   0  0  0  0  0  0  0  0  0  0  0  0
  -19.9415  -25.1891   22.2023 C   0  0  0  0  0  0  0  0  0  0  0  0
  -24.8239  -25.5519   14.0964 C   0  0  0  0  0  0  0  0  0  0  0  0
  -23.8099  -20.6894   17.8553 C   0  0  0  0  0  0  0  0  0  0  0  0
  -24.4716  -23.7142   12.6748 C   0  0  0  0  0  0  0  0  0  0  0  0
  -24.3777  -20.9497   12.3128 C   0  0  0  0  0  0  0  0  0  0  0  0
  -25.6076  -22.9406   12.9133 C   0  0  0  0  0  0  0  0  0  0  0  0
  -25.7809  -26.9997   17.9547 C   0  0  0  0  0  0  0  0  0  0  0  0
  -26.7011  -27.3312   19.9240 C   0  0  0  0  0  0  0  0  0  0  0  0
  -20.8075  -28.6049   23.5600 C   0  0  0  0  0  0  0  0  0  0  0  0
  -27.7735  -25.5052   18.5958 C   0  0  0  0  0  0  0  0  0  0  0  0
  -26.4694  -16.5950   20.2274 C   0  0  0  0  0  0  0  0  0  0  0  0
  -29.1531  -18.4140   20.1231 C   0  0  0  0  0  0  0  0  0  0  0  0
  -30.6110  -21.3809   19.2751 C   0  0  0  0  0  0  0  0  0  0  0  0
  -22.2046  -30.3050   22.4280 C   0  0  0  0  0  0  0  0  0  0  0  0
  -25.3216  -11.6543   20.8013 C   0  0  0  0  0  0  0  0  0  0  0  0
  -26.4908  -17.3224   17.8136 C   0  0  0  0  0  0  0  0  0  0  0  0
  -26.9727  -19.5912   19.6481 C   0  0  0  0  0  0  0  0  0  0  0  0
  -26.4821  -12.5596   21.2059 C   0  0  0  0  0  0  0  0  0  0  0  0
  -25.2654  -31.6857   21.3225 C   0  0  0  0  0  0  0  0  0  0  0  0
  -25.9613  -13.8318   21.8672 C   0  0  0  0  0  0  0  0  0  0  0  0
  -25.8495  -30.5940   20.4217 C   0  0  0  0  0  0  0  0  0  0  0  0
  -23.7478  -31.7888   21.1779 C   0  0  0  0  0  0  0  0  0  0  0  0
  -23.6014  -29.4412   20.4531 C   0  0  0  0  0  0  0  0  0  0  0  0
  -25.0870  -14.6384   20.8994 C   0  0  1  0  0  0  0  0  0  0  0  0
  -27.2909  -17.1575   19.1021 C   0  0  1  0  0  0  0  0  0  0  0  0
  -25.1182  -29.2503   20.6144 C   0  0  1  0  0  0  0  0  0  0  0  0
  -32.8108  -22.5864   19.3471 C   0  0  0  0  0  0  0  0  0  0  0  0
  -28.7751  -18.9206   23.1082 C   0  0  0  0  0  0  0  0  0  0  0  0
  -30.3816  -20.8313   22.9164 C   0  0  0  0  0  0  0  0  0  0  0  0
  -31.1415  -18.5097   22.4113 C   0  0  0  0  0  0  0  0  0  0  0  0
  -21.1319  -24.0286   18.0780 C   0  0  0  0  0  0  0  0  0  0  0  0
  -20.3820  -21.8827   19.1364 C   0  0  0  0  0  0  0  0  0  0  0  0
  -30.7093  -21.6182   16.3267 C   0  0  0  0  0  0  0  0  0  0  0  0
  -19.9275  -24.4663   20.8768 C   0  0  0  0  0  0  0  0  0  0  0  0
  -21.2687  -23.7705   20.6054 C   0  0  0  0  0  0  0  0  0  0  0  0
  -22.8121  -22.4546   19.0980 C   0  0  0  0  0  0  0  0  0  1  0  0
  -29.6051  -19.6917   20.7882 C   0  0  1  0  0  0  0  0  0  0  0  0
  -31.8928  -21.6953   18.5250 C   0  0  2  0  0  0  0  0  0  0  0  0
  -29.9524  -19.4874   22.2899 C   0  0  0  0  0  0  0  0  0  0  0  0
  -21.3867  -23.0443   19.2348 C   0  0  0  0  0  0  0  0  0  0  0  0
  -25.0729  -27.9972   18.4911 N   0  0  0  0  0  0  0  0  0  0  0  0
  -25.6564  -28.1758   19.6885 N   0  0  0  0  0  0  0  0  0  0  0  0
  -27.8610  -18.4192   19.5788 N   0  0  0  0  0  0  0  0  0  0  0  0
  -23.1302  -30.4775   21.3841 N   0  0  0  0  0  0  0  0  0  0  0  0
  -27.3994  -27.3755   21.0785 N   0  0  0  0  0  0  0  0  0  0  0  0
  -27.7429  -24.7963   17.3871 N   0  0  0  0  0  0  0  0  0  0  0  0
  -21.7039  -29.0060   22.5690 N   0  0  0  0  0  0  0  0  0  0  0  0
  -25.9122  -15.3602   19.9547 N   0  0  0  0  0  0  0  0  0  0  0  0
  -30.7099  -20.2020   19.9834 N   0  0  0  0  0  0  0  0  0  0  0  0
  -31.5855  -22.3917   17.2437 N   0  3  0  0  0  0  0  0  0  0  0  0
  -20.3433  -29.3336   24.4327 O   0  0  0  0  0  0  0  0  0  0  0  0
  -28.6270  -25.2024   19.4637 O   0  0  0  0  0  0  0  0  0  0  0  0
  -26.3511  -17.2333   21.2668 O   0  0  0  0  0  0  0  0  0  0  0  0
  -29.9209  -17.4495   20.0817 O   0  0  0  0  0  0  0  0  0  0  0  0
  -29.6224  -22.1102   19.2395 O   0  0  0  0  0  0  0  0  0  0  0  0
  -21.8806  -31.2191   23.1927 O   0  0  0  0  0  0  0  0  0  0  0  0
  -24.5164  -25.0865   12.8549 O   0  0  0  0  0  0  0  0  0  0  0  0
  -22.9642  -21.7555   17.8633 O   0  0  0  0  0  0  0  0  0  1  0  0
  -24.3320  -19.6221   12.1404 F   0  0  0  0  0  0  0  0  0  0  0  0
  -26.7465  -23.5196   13.3176 F   0  0  0  0  0  0  0  0  0  0  0  0
  1  2  1  0  0  0  0
  1  7  2  0  0  0  0
  2  8  2  0  0  0  0
  3  6  1  0  0  0  0
  3 10  2  0  0  0  0
  4 11  2  0  0  0  0
  4 19  1  0  0  0  0
  5 12  1  0  0  0  0
  5 19  2  0  0  0  0
  6 20  2  0  0  0  0
  7 22  1  0  0  0  0
  8 24  1  0  0  0  0
  9 13  2  0  0  0  0
  9 23  1  0  0  0  0
 10 26  1  0  0  0  0
 11 27  1  0  0  0  0
 12 27  2  0  0  0  0
 13 28  1  0  0  0  0
 14 15  2  0  0  0  0
 14 29  1  0  0  0  0
 15 30  1  0  0  0  0
 16 20  1  0  0  0  0
 16 26  2  0  0  0  0
 17 25  1  0  0  0  0
 17 28  2  0  0  0  0
 18 30  2  0  0  0  0
 18 31  1  0  0  0  0
 19 32  1  0  0  0  0
 20 34  1  0  0  0  0
 21 32  1  0  0  0  0
 21 33  2  0  0  0  0
 21 35  1  0  0  0  0
 22 24  2  0  0  0  0
 22 40  1  0  0  0  0
 23 25  2  0  0  0  0
 23 41  1  0  0  0  0
 24 49  1  0  0  0  0
 25 42  1  0  0  0  0
 26 59  1  0  0  0  0
 27 82  1  0  0  0  0
 28 83  1  0  0  0  0
 29 31  2  0  0  0  0
 29 82  1  0  0  0  0
 30 84  1  0  0  0  0
 31 85  1  0  0  0  0
 32 66  2  0  0  0  0
 33 67  1  0  0  0  0
 33 70  1  0  0  0  0
 34 72  1  0  0  0  0
 34 76  2  0  0  0  0
 35 71  1  0  0  0  0
 35 77  2  0  0  0  0
 36 50  1  0  0  0  0
 36 73  1  0  0  0  0
 36 78  2  0  0  0  0
 37 62  1  0  0  0  0
 37 68  1  0  0  0  0
 37 79  2  0  0  0  0
 38 63  1  0  0  0  0
 38 74  1  0  0  0  0
 38 80  2  0  0  0  0
 39 69  1  0  0  0  0
 39 72  1  0  0  0  0
 39 81  2  0  0  0  0
 40 43  1  0  0  0  0
 41 50  1  0  0  0  0
 42 68  1  0  0  0  0
 43 45  1  0  0  0  0
 44 46  1  0  0  0  0
 44 47  1  0  0  0  0
 45 49  1  0  0  0  0
 46 51  1  0  0  0  0
 47 69  1  0  0  0  0
 48 51  1  0  0  0  0
 48 69  1  0  0  0  0
 49 73  1  0  0  0  0
 50 68  1  0  0  0  0
 51 67  1  0  0  0  0
 52 63  1  0  0  0  0
 53 64  1  0  0  0  0
 54 64  1  0  0  0  0
 55 64  1  0  0  0  0
 56 65  1  0  0  0  0
 57 65  1  0  0  0  0
 58 75  1  0  0  0  0
 59 60  1  0  0  0  0
 60 65  1  0  0  0  0
 61 65  1  0  0  0  0
 61 83  1  0  0  0  0
 62 64  1  0  0  0  0
 62 74  1  0  0  0  0
 63 75  1  0  0  0  0
 66 67  1  0  0  0  0
M  CHG  1  75   1
M  ISO  4  39 100  61 101  72 100  83 101
M  END
> <Batch ID>
0136

> <Smiles>
CNC(C)C(=O)NC(C(=O)N1Cc2cc([101O:1][101CH2:1]C(C)(C)CCc3cccc(C(=O)[100NH:0][100C:0](=O)N4CCCC(n5nc(-c6ccc(Oc7ccc(F)cc7F)cc6)c(C(N)=O)c5N)C4)c3)ccc2CC1C(=O)NC1CCCc2ccccc21)C(C)(C)C

> <Shape>
0.198

> <Color>
0.084

> <Negative vol penalty>
0.000

$$$$

  -OEChem-04052302393D

 81 89  0     1  0  0  0  0  0999 V2000
  -29.8101  -21.8789   23.2568 C   0  0  0  0  0  0  0  0  0  0  0  0
  -29.3473  -22.6218   22.1755 C   0  0  0  0  0  0  0  0  0  0  0  0
  -26.1247  -12.8213   19.7977 C   0  0  0  0  0  0  0  0  0  0  0  0
  -24.8936  -14.4732   21.0598 C   0  0  0  0  0  0  0  0  0  0  0  0
  -28.9302  -21.5043   24.2714 C   0  0  0  0  0  0  0  0  0  0  0  0
  -28.0039  -22.9897   22.1077 C   0  0  0  0  0  0  0  0  0  0  0  0
  -27.3807  -27.8270   20.7451 C   0  0  0  0  0  0  0  0  0  0  0  0
  -25.5790  -11.8103   20.5885 C   0  0  0  0  0  0  0  0  0  0  0  0
  -24.3478  -13.4621   21.8507 C   0  0  0  0  0  0  0  0  0  0  0  0
  -27.5249  -28.1311   19.3921 C   0  0  0  0  0  0  0  0  0  0  0  0
  -24.2307   -8.7636   22.0429 C   0  0  0  0  0  0  0  0  0  0  0  0
  -23.7542   -7.6221   21.3985 C   0  0  0  0  0  0  0  0  0  0  0  0
  -29.0497  -24.8648   16.6534 C   0  0  0  0  0  0  0  0  0  0  0  0
  -29.6272  -23.7805   17.3751 C   0  0  0  0  0  0  0  0  0  0  0  0
  -25.1253  -28.1378   19.1442 C   0  0  0  0  0  0  0  0  0  0  0  0
  -22.1820   -8.9767   20.1614 C   0  0  0  0  0  0  0  0  0  0  0  0
  -25.7821  -14.1528   20.0333 C   0  0  0  0  0  0  0  0  0  0  0  0
  -25.8190  -15.7195   18.0204 C   0  0  0  0  0  0  0  0  0  0  0  0
  -27.5775  -21.8760   24.2208 C   0  0  0  0  0  0  0  0  0  0  0  0
  -26.1059  -27.6651   21.3064 C   0  0  0  0  0  0  0  0  0  0  0  0
  -27.1049  -22.6185   23.1219 C   0  0  0  0  0  0  0  0  0  0  0  0
  -24.9677  -27.8343   20.5051 C   0  0  0  0  0  0  0  0  0  0  0  0
  -24.6905  -12.1306   21.6150 C   0  0  0  0  0  0  0  0  0  0  0  0
  -26.3972  -28.2836   18.5908 C   0  0  0  0  0  0  0  0  0  0  0  0
  -23.6829  -10.0118   21.7467 C   0  0  0  0  0  0  0  0  0  0  0  0
  -22.7299   -7.7286   20.4577 C   0  0  0  0  0  0  0  0  0  0  0  0
  -22.6586  -10.1183   20.8059 C   0  0  0  0  0  0  0  0  0  0  0  0
  -26.3459  -15.1977   19.2170 C   0  0  0  0  0  0  0  0  0  0  0  0
  -27.7436  -24.6114   16.2963 C   0  0  0  0  0  0  0  0  0  0  0  0
  -26.7204  -16.6834   17.6398 C   0  0  0  0  0  0  0  0  0  0  0  0
  -28.7403  -22.7396   17.5424 C   0  0  0  0  0  0  0  0  0  0  0  0
  -24.6216  -15.3648   17.3160 C   0  0  0  0  0  0  0  0  0  0  0  0
  -26.7935  -25.4803   15.5410 C   0  0  0  0  0  0  0  0  0  0  0  0
  -24.5635  -25.2699   22.7162 C   0  0  0  0  0  0  0  0  0  0  0  0
  -22.3115  -27.5447   23.2418 C   0  0  0  0  0  0  0  0  0  0  0  0
  -20.8281  -30.2600   21.3860 C   0  0  0  0  0  0  0  0  0  0  0  0
  -30.0289  -21.0005   18.8313 C   0  0  0  0  0  0  0  0  0  0  0  0
  -26.6544  -21.4074   25.3176 C   0  0  0  0  0  0  0  0  0  0  0  0
  -25.9668  -27.3635   22.7734 C   0  0  0  0  0  0  0  0  0  0  0  0
  -23.5763  -27.6908   21.0637 C   0  0  0  0  0  0  0  0  0  0  0  0
  -25.3253  -22.1572   25.3568 C   0  0  0  0  0  0  0  0  0  0  0  0
  -31.3485  -17.7420   19.3952 C   0  0  0  0  0  0  0  0  0  0  0  0
  -24.7327  -22.2670   23.9555 C   0  0  0  0  0  0  0  0  0  0  0  0
  -30.1213  -16.8325   19.3007 C   0  0  0  0  0  0  0  0  0  0  0  0
  -31.0151  -19.0775   20.0579 C   0  0  0  0  0  0  0  0  0  0  0  0
  -28.6575  -18.8916   19.3674 C   0  0  0  0  0  0  0  0  0  0  0  0
  -25.6600  -23.0578   23.0248 C   0  0  1  0  0  0  0  0  0  0  0  0
  -24.6323  -26.7139   23.1259 C   0  0  1  0  0  0  0  0  0  0  0  0
  -28.9295  -17.5602   18.6483 C   0  0  2  0  0  0  0  0  0  0  0  0
  -19.7812  -32.3982   22.1794 C   0  0  0  0  0  0  0  0  0  0  0  0
  -19.6961  -25.9801   23.0945 C   0  0  0  0  0  0  0  0  0  0  0  0
  -18.5847  -28.0539   22.2388 C   0  0  0  0  0  0  0  0  0  0  0  0
  -19.6034  -28.0359   24.5158 C   0  0  0  0  0  0  0  0  0  0  0  0
  -22.6292  -31.9008   19.7060 C   0  0  0  0  0  0  0  0  0  0  0  0
  -27.2690  -26.8469   15.0714 C   0  0  0  0  0  0  0  0  0  0  0  0
  -26.1327  -27.8659   15.0147 C   0  0  0  0  0  0  0  0  0  0  0  0
  -25.5202  -28.1019   16.3877 C   0  0  0  0  0  0  0  0  0  1  0  0
  -21.1087  -28.0534   22.4846 C   0  0  1  0  0  0  0  0  0  0  0  0
  -21.0371  -31.7445   21.6242 C   0  0  2  0  0  0  0  0  0  0  0  0
  -19.7708  -27.5199   23.0699 C   0  0  0  0  0  0  0  0  0  0  0  0
  -27.4933  -15.7816   19.5730 N   0  0  0  0  0  0  0  0  0  0  0  0
  -27.6947  -16.6802   18.5942 N   0  0  0  0  0  0  0  0  0  0  0  0
  -23.4925  -27.3894   22.5023 N   0  0  0  0  0  0  0  0  0  0  0  0
  -29.8794  -19.7111   19.3844 N   0  0  0  0  0  0  0  0  0  0  0  0
  -26.7668  -17.5248   16.5852 N   0  0  0  0  0  0  0  0  0  0  0  0
  -23.8093  -14.3532   17.8462 N   0  0  0  0  0  0  0  0  0  0  0  0
  -28.8917  -21.4872   18.1876 N   0  0  0  0  0  0  0  0  0  0  0  0
  -25.5436  -24.4772   23.2823 N   0  0  0  0  0  0  0  0  0  0  0  0
  -21.2183  -29.5082   22.4740 N   0  0  0  0  0  0  0  0  0  0  0  0
  -21.3985  -32.4278   20.3500 N   0  3  0  0  0  0  0  0  0  0  0  0
  -24.2906  -15.9168   16.2393 O   0  0  0  0  0  0  0  0  0  0  0  0
  -25.6559  -25.0726   15.3173 O   0  0  0  0  0  0  0  0  0  0  0  0
  -23.6852  -24.9019   21.9449 O   0  0  0  0  0  0  0  0  0  0  0  0
  -22.2089  -27.3011   24.4467 O   0  0  0  0  0  0  0  0  0  0  0  0
  -20.3615  -29.8123   20.3408 O   0  0  0  0  0  0  0  0  0  0  0  0
  -31.0962  -21.6156   18.8984 O   0  0  0  0  0  0  0  0  0  0  0  0
  -24.1576  -11.1443   22.3868 O   0  0  0  0  0  0  0  0  0  0  0  0
  -26.5350  -28.5798   17.2698 O   0  0  0  0  0  0  0  0  0  1  0  0
  -22.2734   -6.6325   19.8378 F   0  0  0  0  0  0  0  0  0  0  0  0
  -22.1291  -11.3148   20.5163 F   0  0  0  0  0  0  0  0  0  0  0  0
  -27.2186  -23.0715   16.8307 S   0  0  0  0  0  0  0  0  0  0  0  0
  1  2  1  0  0  0  0
  1  5  2  0  0  0  0
  2  6  2  0  0  0  0
  3  8  2  0  0  0  0
  3 17  1  0  0  0  0
  4  9  1  0  0  0  0
  4 17  2  0  0  0  0
  5 19  1  0  0  0  0
  6 21  1  0  0  0  0
  7 10  2  0  0  0  0
  7 20  1  0  0  0  0
  8 23  1  0  0  0  0
  9 23  2  0  0  0  0
 10 24  1  0  0  0  0
 11 12  2  0  0  0  0
 11 25  1  0  0  0  0
 12 26  1  0  0  0  0
 13 14  1  0  0  0  0
 13 29  2  0  0  0  0
 14 31  2  0  0  0  0
 15 22  1  0  0  0  0
 15 24  2  0  0  0  0
 16 26  2  0  0  0  0
 16 27  1  0  0  0  0
 17 28  1  0  0  0  0
 18 28  1  0  0  0  0
 18 30  2  0  0  0  0
 18 32  1  0  0  0  0
 19 21  2  0  0  0  0
 19 38  1  0  0  0  0
 20 22  2  0  0  0  0
 20 39  1  0  0  0  0
 21 47  1  0  0  0  0
 22 40  1  0  0  0  0
 23 77  1  0  0  0  0
 24 78  1  0  0  0  0
 25 27  2  0  0  0  0
 25 77  1  0  0  0  0
 26 79  1  0  0  0  0
 27 80  1  0  0  0  0
 28 61  2  0  0  0  0
 29 33  1  0  0  0  0
 29 81  1  0  0  0  0
 30 62  1  0  0  0  0
 30 65  1  0  0  0  0
 31 67  1  0  0  0  0
 31 81  1  0  0  0  0
 32 66  1  0  0  0  0
 32 71  2  0  0  0  0
 33 55  1  0  0  0  0
 33 72  2  0  0  0  0
 34 48  1  0  0  0  0
 34 68  1  0  0  0  0
 34 73  2  0  0  0  0
 35 58  1  0  0  0  0
 35 63  1  0  0  0  0
 35 74  2  0  0  0  0
 36 59  1  0  0  0  0
 36 69  1  0  0  0  0
 36 75  2  0  0  0  0
 37 64  1  0  0  0  0
 37 67  1  0  0  0  0
 37 76  2  0  0  0  0
 38 41  1  0  0  0  0
 39 48  1  0  0  0  0
 40 63  1  0  0  0  0
 41 43  1  0  0  0  0
 42 44  1  0  0  0  0
 42 45  1  0  0  0  0
 43 47  1  0  0  0  0
 44 49  1  0  0  0  0
 45 64  1  0  0  0  0
 46 49  1  0  0  0  0
 46 64  1  0  0  0  0
 47 68  1  0  0  0  0
 48 63  1  0  0  0  0
 49 62  1  0  0  0  0
 50 59  1  0  0  0  0
 51 60  1  0  0  0  0
 52 60  1  0  0  0  0
 53 60  1  0  0  0  0
 54 70  1  0  0  0  0
 55 56  1  0  0  0  0
 56 57  1  0  0  0  0
 57 78  1  0  0  0  0
 58 60  1  0  0  0  0
 58 69  1  0  0  0  0
 59 70  1  0  0  0  0
 61 62  1  0  0  0  0
M  CHG  1  70   1
M  ISO  4  37 100  57 101  67 100  78 101
M  END
> <Batch ID>
0136

> <Smiles>
CNC(C)C(=O)NC(C(=O)N1Cc2cc([101O:1][101CH2:1]CCC(=O)c3ccc([100NH:0][100C:0](=O)N4CCCC(n5nc(-c6ccc(Oc7ccc(F)cc7F)cc6)c(C(N)=O)c5N)C4)s3)ccc2CC1C(=O)NC1CCCc2ccccc21)C(C)(C)C

> <Shape>
0.200

> <Color>
0.067

> <Negative vol penalty>
0.000

$$$$

  -OEChem-04052302393D

 87 95  0     1  0  0  0  0  0999 V2000
  -21.8014  -20.8880   26.0006 C   0  0  0  0  0  0  0  0  0  0  0  0
  -23.0072  -20.9160   25.3073 C   0  0  0  0  0  0  0  0  0  0  0  0
  -22.4683  -15.9311   21.2065 C   0  0  0  0  0  0  0  0  0  0  0  0
  -23.1028  -16.2198   18.8933 C   0  0  0  0  0  0  0  0  0  0  0  0
  -20.7949  -21.7991   25.6833 C   0  0  0  0  0  0  0  0  0  0  0  0
  -23.2068  -21.8546   24.2955 C   0  0  0  0  0  0  0  0  0  0  0  0
  -28.4620  -24.6463   22.8480 C   0  0  0  0  0  0  0  0  0  0  0  0
  -21.4682  -16.8911   21.0520 C   0  0  0  0  0  0  0  0  0  0  0  0
  -22.1027  -17.1797   18.7387 C   0  0  0  0  0  0  0  0  0  0  0  0
  -29.4141  -24.3993   21.8600 C   0  0  0  0  0  0  0  0  0  0  0  0
  -21.6463  -20.4449   19.4880 C   0  0  0  0  0  0  0  0  0  0  0  0
  -21.9754  -21.6209   18.8141 C   0  0  0  0  0  0  0  0  0  0  0  0
  -28.3615  -26.0436   20.4431 C   0  0  0  0  0  0  0  0  0  0  0  0
  -29.3333  -19.9869   18.4692 C   0  0  0  0  0  0  0  0  0  0  0  0
  -27.4563  -18.4892   18.7348 C   0  0  0  0  0  0  0  0  0  0  0  0
  -27.0943  -20.7603   17.9943 C   0  0  0  0  0  0  0  0  0  0  0  0
  -20.2828  -21.1451   17.1570 C   0  0  0  0  0  0  0  0  0  0  0  0
  -23.2857  -15.5955   20.1272 C   0  0  0  0  0  0  0  0  0  0  0  0
  -24.2049  -13.2163   20.0815 C   0  0  0  0  0  0  0  0  0  0  0  0
  -20.9858  -22.7556   24.6737 C   0  0  0  0  0  0  0  0  0  0  0  0
  -27.4443  -25.5875   22.6364 C   0  0  0  0  0  0  0  0  0  0  0  0
  -22.2014  -22.7785   23.9635 C   0  0  0  0  0  0  0  0  0  0  0  0
  -27.3991  -26.3025   21.4311 C   0  0  0  0  0  0  0  0  0  0  0  0
  -28.8284  -18.7307   18.8046 C   0  0  0  0  0  0  0  0  0  0  0  0
  -28.4663  -21.0018   18.0641 C   0  0  0  0  0  0  0  0  0  0  0  0
  -21.2854  -17.5154   19.8181 C   0  0  0  0  0  0  0  0  0  0  0  0
  -29.3622  -25.0959   20.6562 C   0  0  0  0  0  0  0  0  0  0  0  0
  -20.6355  -19.6188   18.9964 C   0  0  0  0  0  0  0  0  0  0  0  0
  -21.2937  -21.9711   17.6487 C   0  0  0  0  0  0  0  0  0  0  0  0
  -26.5893  -19.5040   18.3296 C   0  0  0  0  0  0  0  0  0  0  0  0
  -19.9538  -19.9690   17.8309 C   0  0  0  0  0  0  0  0  0  0  0  0
  -24.3193  -14.6044   20.2863 C   0  0  0  0  0  0  0  0  0  0  0  0
  -25.4558  -12.7235   20.3622 C   0  0  0  0  0  0  0  0  0  0  0  0
  -29.6979  -16.6405   18.4782 C   0  0  0  0  0  0  0  0  0  0  0  0
  -23.0694  -12.4416   19.6738 C   0  0  0  0  0  0  0  0  0  0  0  0
  -24.2708  -25.4676   22.5009 C   0  0  0  0  0  0  0  0  0  0  0  0
  -30.8939  -15.2780   20.2460 C   0  0  0  0  0  0  0  0  0  0  0  0
  -24.5460  -28.6939   22.3080 C   0  0  0  0  0  0  0  0  0  0  0  0
  -26.4672  -31.3942   21.4928 C   0  0  0  0  0  0  0  0  0  0  0  0
  -19.8510  -23.6892   24.3341 C   0  0  0  0  0  0  0  0  0  0  0  0
  -26.4406  -25.8615   23.7227 C   0  0  0  0  0  0  0  0  0  0  0  0
  -26.3388  -27.3379   21.1625 C   0  0  0  0  0  0  0  0  0  0  0  0
  -20.2821  -24.8949   23.5030 C   0  0  0  0  0  0  0  0  0  0  0  0
  -29.3323  -13.6129   23.0080 C   0  0  0  0  0  0  0  0  0  0  0  0
  -21.1827  -24.4558   22.3527 C   0  0  0  0  0  0  0  0  0  0  0  0
  -27.8553  -13.5777   22.6174 C   0  0  0  0  0  0  0  0  0  0  0  0
  -30.0080  -14.8913   22.5219 C   0  0  0  0  0  0  0  0  0  0  0  0
  -28.3906  -15.0980   20.6611 C   0  0  0  0  0  0  0  0  0  0  0  0
  -22.4649  -23.7976   22.8763 C   0  0  1  0  0  0  0  0  0  0  0  0
  -25.1443  -26.4716   23.1984 C   0  0  1  0  0  0  0  0  0  0  0  0
  -27.6775  -13.8090   21.1064 C   0  0  2  0  0  0  0  0  0  0  0  0
  -31.8990  -15.6278   18.0073 C   0  0  0  0  0  0  0  0  0  0  0  0
  -26.4061  -33.9015   21.4071 C   0  0  0  0  0  0  0  0  0  0  0  0
  -22.8362  -28.5636   19.7843 C   0  0  0  0  0  0  0  0  0  0  0  0
  -23.5934  -30.8859   19.2352 C   0  0  0  0  0  0  0  0  0  0  0  0
  -22.2887  -30.4612   21.3184 C   0  0  0  0  0  0  0  0  0  0  0  0
  -32.1435  -24.3240   17.4959 C   0  0  0  0  0  0  0  0  0  0  0  0
  -30.1828  -24.3355   15.9454 C   0  0  0  0  0  0  0  0  0  0  0  0
  -28.6974  -31.6303   23.4240 C   0  0  0  0  0  0  0  0  0  0  0  0
  -30.3717  -22.5867   17.7762 C   0  0  0  0  0  0  0  0  0  0  0  0
  -29.8789  -25.0382   18.3355 C   0  0  0  0  0  0  0  0  0  1  0  0
  -30.5975  -15.4684   18.7797 C   0  0  2  0  0  0  0  0  0  0  0  0
  -24.6922  -29.6890   21.1822 C   0  0  1  0  0  0  0  0  0  0  0  0
  -26.7649  -32.6812   22.2407 C   0  0  2  0  0  0  0  0  0  0  0  0
  -23.3716  -29.8791   20.3840 C   0  0  0  0  0  0  0  0  0  0  0  0
  -30.6257  -24.0656   17.3953 C   0  0  0  0  0  0  0  0  0  0  0  0
  -25.5461  -14.9699   20.6678 N   0  0  0  0  0  0  0  0  0  0  0  0
  -29.6974  -17.7122   19.2084 N   0  0  0  0  0  0  0  0  0  0  0  0
  -26.2139  -13.8042   20.7051 N   0  0  0  0  0  0  0  0  0  0  0  0
  -25.3763  -27.5655   22.2530 N   0  0  0  0  0  0  0  0  0  0  0  0
  -29.7971  -15.0865   21.0864 N   0  0  0  0  0  0  0  0  0  0  0  0
  -25.9703  -11.4755   20.3469 N   0  0  0  0  0  0  0  0  0  0  0  0
  -21.8609  -13.1068   19.4262 N   0  0  0  0  0  0  0  0  0  0  0  0
  -28.9672  -22.2495   17.7318 N   0  0  0  0  0  0  0  0  0  0  0  0
  -23.3964  -24.8035   23.3399 N   0  0  0  0  0  0  0  0  0  0  0  0
  -25.2080  -30.9137   21.7844 N   0  0  0  0  0  0  0  0  0  0  0  0
  -28.2128  -32.7568   22.5855 N   0  3  0  0  0  0  0  0  0  0  0  0
  -23.1204  -11.1945   19.5493 O   0  0  0  0  0  0  0  0  0  0  0  0
  -24.3809  -25.3083   21.2909 O   0  0  0  0  0  0  0  0  0  0  0  0
  -32.0661  -15.2963   20.6305 O   0  0  0  0  0  0  0  0  0  0  0  0
  -23.7303  -28.9134   23.2070 O   0  0  0  0  0  0  0  0  0  0  0  0
  -27.2697  -30.8697   20.7238 O   0  0  0  0  0  0  0  0  0  0  0  0
  -20.3094  -18.4519   19.6670 O   0  0  0  0  0  0  0  0  0  0  0  0
  -30.2900  -24.8564   19.6898 O   0  0  0  0  0  0  0  0  0  1  0  0
  -21.6088  -23.1013   17.0025 F   0  0  0  0  0  0  0  0  0  0  0  0
  -25.2720  -19.2710   18.2609 F   0  0  0  0  0  0  0  0  0  0  0  0
  -18.9810  -19.1800   17.3544 F   0  0  0  0  0  0  0  0  0  0  0  0
  1  2  1  0  0  0  0
  1  5  2  0  0  0  0
  2  6  2  0  0  0  0
  3  8  2  0  0  0  0
  3 18  1  0  0  0  0
  4  9  1  0  0  0  0
  4 18  2  0  0  0  0
  5 20  1  0  0  0  0
  6 22  1  0  0  0  0
  7 10  2  0  0  0  0
  7 21  1  0  0  0  0
  8 26  1  0  0  0  0
  9 26  2  0  0  0  0
 10 27  1  0  0  0  0
 11 12  2  0  0  0  0
 11 28  1  0  0  0  0
 12 29  1  0  0  0  0
 13 23  1  0  0  0  0
 13 27  2  0  0  0  0
 14 24  1  0  0  0  0
 14 25  2  0  0  0  0
 15 24  2  0  0  0  0
 15 30  1  0  0  0  0
 16 25  1  0  0  0  0
 16 30  2  0  0  0  0
 17 29  2  0  0  0  0
 17 31  1  0  0  0  0
 18 32  1  0  0  0  0
 19 32  1  0  0  0  0
 19 33  2  0  0  0  0
 19 35  1  0  0  0  0
 20 22  2  0  0  0  0
 20 40  1  0  0  0  0
 21 23  2  0  0  0  0
 21 41  1  0  0  0  0
 22 49  1  0  0  0  0
 23 42  1  0  0  0  0
 24 68  1  0  0  0  0
 25 74  1  0  0  0  0
 26 83  1  0  0  0  0
 27 84  1  0  0  0  0
 28 31  2  0  0  0  0
 28 83  1  0  0  0  0
 29 85  1  0  0  0  0
 30 86  1  0  0  0  0
 31 87  1  0  0  0  0
 32 67  2  0  0  0  0
 33 69  1  0  0  0  0
 33 72  1  0  0  0  0
 34 62  1  0  0  0  0
 34 68  2  0  0  0  0
 35 73  1  0  0  0  0
 35 78  2  0  0  0  0
 36 50  1  0  0  0  0
 36 75  1  0  0  0  0
 36 79  2  0  0  0  0
 37 62  1  0  0  0  0
 37 71  1  0  0  0  0
 37 80  2  0  0  0  0
 38 63  1  0  0  0  0
 38 70  1  0  0  0  0
 38 81  2  0  0  0  0
 39 64  1  0  0  0  0
 39 76  1  0  0  0  0
 39 82  2  0  0  0  0
 40 43  1  0  0  0  0
 41 50  1  0  0  0  0
 42 70  1  0  0  0  0
 43 45  1  0  0  0  0
 44 46  1  0  0  0  0
 44 47  1  0  0  0  0
 45 49  1  0  0  0  0
 46 51  1  0  0  0  0
 47 71  1  0  0  0  0
 48 51  1  0  0  0  0
 48 71  1  0  0  0  0
 49 75  1  0  0  0  0
 50 70  1  0  0  0  0
 51 69  1  0  0  0  0
 52 62  1  0  0  0  0
 53 64  1  0  0  0  0
 54 65  1  0  0  0  0
 55 65  1  0  0  0  0
 56 65  1  0  0  0  0
 57 66  1  0  0  0  0
 58 66  1  0  0  0  0
 59 77  1  0  0  0  0
 60 66  1  0  0  0  0
 60 74  1  0  0  0  0
 61 66  1  0  0  0  0
 61 84  1  0  0  0  0
 63 65  1  0  0  0  0
 63 76  1  0  0  0  0
 64 77  1  0  0  0  0
 67 69  1  0  0  0  0
M  CHG  1  77   1
M  ISO  4  37 100  61 101  62 100  84 101
M  END
> <Batch ID>
0136

> <Smiles>
CNC(C)C(=O)NC(C(=O)N1Cc2cc([101O:1][101CH2:1]C(C)(C)CNc3cc(F)cc(NC=[100C:0](C)[100C:0](=O)N4CCCC(n5nc(-c6ccc(Oc7ccc(F)cc7F)cc6)c(C(N)=O)c5N)C4)c3)ccc2CC1C(=O)NC1CCCc2ccccc21)C(C)(C)C

> <Shape>
0.198

> <Color>
0.082

> <Negative vol penalty>
0.000

$$$$

  -OEChem-04052302393D

 88 96  0     1  0  0  0  0  0999 V2000
  -27.3763  -32.6768   27.5091 C   0  0  0  0  0  0  0  0  0  0  0  0
  -27.7134  -31.7102   26.5671 C   0  0  0  0  0  0  0  0  0  0  0  0
  -25.7152  -11.4142   21.8835 C   0  0  0  0  0  0  0  0  0  0  0  0
  -25.7871  -12.2209   19.6073 C   0  0  0  0  0  0  0  0  0  0  0  0
  -26.0385  -32.8918   27.8376 C   0  0  0  0  0  0  0  0  0  0  0  0
  -26.7129  -30.9572   25.9538 C   0  0  0  0  0  0  0  0  0  0  0  0
  -27.3942  -30.5266   20.9542 C   0  0  0  0  0  0  0  0  0  0  0  0
  -24.4508  -10.8727   21.6517 C   0  0  0  0  0  0  0  0  0  0  0  0
  -24.5227  -11.6794   19.3755 C   0  0  0  0  0  0  0  0  0  0  0  0
  -28.3451  -29.6049   20.5182 C   0  0  0  0  0  0  0  0  0  0  0  0
  -23.1505   -8.1295   20.1628 C   0  0  0  0  0  0  0  0  0  0  0  0
  -22.9055   -6.8353   20.6218 C   0  0  0  0  0  0  0  0  0  0  0  0
  -28.7653  -21.7132   17.1748 C   0  0  0  0  0  0  0  0  0  0  0  0
  -26.5860  -28.0247   20.0414 C   0  0  0  0  0  0  0  0  0  0  0  0
  -29.1767  -21.0633   19.4651 C   0  0  0  0  0  0  0  0  0  0  0  0
  -21.1129   -7.6675   22.0115 C   0  0  0  0  0  0  0  0  0  0  0  0
  -26.3833  -12.0883   20.8613 C   0  0  0  0  0  0  0  0  0  0  0  0
  -28.8985  -20.3839   16.7736 C   0  0  0  0  0  0  0  0  0  0  0  0
  -28.9327  -12.0150   20.9149 C   0  0  0  0  0  0  0  0  0  0  0  0
  -25.0204  -32.1477   27.2209 C   0  0  0  0  0  0  0  0  0  0  0  0
  -26.0306  -30.1997   20.9473 C   0  0  0  0  0  0  0  0  0  0  0  0
  -25.3602  -31.1614   26.2753 C   0  0  0  0  0  0  0  0  0  0  0  0
  -25.6196  -28.9449   20.4754 C   0  0  0  0  0  0  0  0  0  0  0  0
  -29.1707  -19.3943   17.7182 C   0  0  0  0  0  0  0  0  0  0  0  0
  -29.3098  -19.7340   19.0639 C   0  0  0  0  0  0  0  0  0  0  0  0
  -23.8545  -11.0053   20.3977 C   0  0  0  0  0  0  0  0  0  0  0  0
  -27.9413  -28.3527   20.0645 C   0  0  0  0  0  0  0  0  0  0  0  0
  -22.3768   -9.1927   20.6283 C   0  0  0  0  0  0  0  0  0  0  0  0
  -28.9044  -22.0529   18.5205 C   0  0  0  0  0  0  0  0  0  0  0  0
  -21.8867   -6.6043   21.5461 C   0  0  0  0  0  0  0  0  0  0  0  0
  -21.3580   -8.9617   21.5525 C   0  0  0  0  0  0  0  0  0  0  0  0
  -27.6892  -12.6483   21.1003 C   0  0  0  0  0  0  0  0  0  0  0  0
  -29.8582  -12.9623   21.2790 C   0  0  0  0  0  0  0  0  0  0  0  0
  -28.7477  -20.0604   15.3613 C   0  0  0  0  0  0  0  0  0  0  0  0
  -29.2251  -10.6889   20.4547 C   0  0  0  0  0  0  0  0  0  0  0  0
  -23.7786  -29.9242   23.1736 C   0  0  0  0  0  0  0  0  0  0  0  0
  -21.8393  -29.5110   20.6063 C   0  0  0  0  0  0  0  0  0  0  0  0
  -21.5194  -28.5935   17.3349 C   0  0  0  0  0  0  0  0  0  0  0  0
  -29.7503  -18.9352   21.4122 C   0  0  0  0  0  0  0  0  0  0  0  0
  -23.5917  -32.3830   27.6431 C   0  0  0  0  0  0  0  0  0  0  0  0
  -25.0153  -31.2148   21.3957 C   0  0  0  0  0  0  0  0  0  0  0  0
  -24.1662  -28.5524   20.4287 C   0  0  0  0  0  0  0  0  0  0  0  0
  -22.5663  -31.8020   26.6729 C   0  0  0  0  0  0  0  0  0  0  0  0
  -30.4031  -16.7556   24.1509 C   0  0  0  0  0  0  0  0  0  0  0  0
  -22.9458  -30.3763   26.2855 C   0  0  0  0  0  0  0  0  0  0  0  0
  -29.9000  -15.3961   23.6602 C   0  0  0  0  0  0  0  0  0  0  0  0
  -29.5178  -17.8993   23.6589 C   0  0  0  0  0  0  0  0  0  0  0  0
  -28.7879  -16.5696   21.7177 C   0  0  0  0  0  0  0  0  0  0  0  0
  -24.3017  -30.3415   25.5700 C   0  0  1  0  0  0  0  0  0  0  0  0
  -23.6936  -30.5874   21.8280 C   0  0  1  0  0  0  0  0  0  0  0  0
  -29.6847  -15.3923   22.1340 C   0  0  2  0  0  0  0  0  0  0  0  0
  -27.4351  -20.3885   14.7135 C   0  0  0  0  0  0  0  0  0  0  0  0
  -30.9265  -16.0716   16.8338 C   0  0  0  0  0  0  0  0  0  0  0  0
  -19.8039  -28.3234   15.5234 C   0  0  0  0  0  0  0  0  0  0  0  0
  -30.6474  -25.7223   21.1862 C   0  0  0  0  0  0  0  0  0  0  0  0
  -20.8746  -26.9258   21.9086 C   0  0  0  0  0  0  0  0  0  0  0  0
  -19.9259  -26.2460   19.6936 C   0  0  0  0  0  0  0  0  0  0  0  0
  -19.0725  -28.2908   20.8394 C   0  0  0  0  0  0  0  0  0  0  0  0
  -22.8471  -30.6052   15.6175 C   0  0  0  0  0  0  0  0  0  0  0  0
  -29.3146  -17.9677   17.2872 C   0  0  0  0  0  0  0  0  0  0  0  0
  -30.7842  -17.5299   17.2400 C   0  0  0  0  0  0  0  0  0  0  0  0
  -28.5553  -26.0691   19.8109 C   0  0  0  0  0  0  0  0  0  1  0  0
  -29.5216  -23.7626   20.0540 C   0  0  0  0  0  0  0  0  0  0  0  0
  -21.3755  -28.3242   19.7968 C   0  0  1  0  0  0  0  0  0  0  0  0
  -20.8157  -29.2593   16.1661 C   0  0  2  0  0  0  0  0  0  0  0  0
  -29.8443  -25.2570   19.9654 C   0  0  2  0  0  0  0  0  0  0  0  0
  -20.3397  -27.4531   20.5622 C   0  0  0  0  0  0  0  0  0  0  0  0
  -27.8102  -13.9010   21.5476 N   0  0  0  0  0  0  0  0  0  0  0  0
  -29.1407  -14.0625   21.6464 N   0  0  0  0  0  0  0  0  0  0  0  0
  -23.2120  -29.5771   20.8837 N   0  0  0  0  0  0  0  0  0  0  0  0
  -29.3622  -17.8339   22.2042 N   0  0  0  0  0  0  0  0  0  0  0  0
  -31.2076  -12.9531   21.3176 N   0  0  0  0  0  0  0  0  0  0  0  0
  -28.1557   -9.8459   20.1229 N   0  0  0  0  0  0  0  0  0  0  0  0
  -29.5864  -18.7452   20.0405 N   0  0  0  0  0  0  0  0  0  0  0  0
  -24.1592  -30.7724   24.1958 N   0  0  0  0  0  0  0  0  0  0  0  0
  -20.8867  -28.8595   18.5308 N   0  0  0  0  0  0  0  0  0  0  0  0
  -21.8055  -29.6653   15.1287 N   0  3  0  0  0  0  0  0  0  0  0  0
  -29.6149  -19.5343   14.6630 O   0  0  0  0  0  0  0  0  0  0  0  0
  -30.3993  -10.2587   20.3566 O   0  0  0  0  0  0  0  0  0  0  0  0
  -23.5167  -28.7315   23.2770 O   0  0  0  0  0  0  0  0  0  0  0  0
  -21.0149  -30.3524   20.9728 O   0  0  0  0  0  0  0  0  0  0  0  0
  -22.5272  -27.9031   17.1999 O   0  0  0  0  0  0  0  0  0  0  0  0
  -30.2207  -19.9603   21.9121 O   0  0  0  0  0  0  0  0  0  0  0  0
  -22.6209  -10.4769   20.1711 O   0  0  0  0  0  0  0  0  0  0  0  0
  -28.8674  -27.4510   19.6390 O   0  0  0  0  0  0  0  0  0  1  0  0
  -28.7734  -23.3589   18.9147 O   0  0  0  0  0  0  0  0  0  0  0  0
  -21.6504   -5.3612   21.9855 F   0  0  0  0  0  0  0  0  0  0  0  0
  -20.6106   -9.9790   22.0024 F   0  0  0  0  0  0  0  0  0  0  0  0
  1  2  1  0  0  0  0
  1  5  2  0  0  0  0
  2  6  2  0  0  0  0
  3  8  2  0  0  0  0
  3 17  1  0  0  0  0
  4  9  1  0  0  0  0
  4 17  2  0  0  0  0
  5 20  1  0  0  0  0
  6 22  1  0  0  0  0
  7 10  2  0  0  0  0
  7 21  1  0  0  0  0
  8 26  1  0  0  0  0
  9 26  2  0  0  0  0
 10 27  1  0  0  0  0
 11 12  2  0  0  0  0
 11 28  1  0  0  0  0
 12 30  1  0  0  0  0
 13 18  1  0  0  0  0
 13 29  2  0  0  0  0
 14 23  1  0  0  0  0
 14 27  2  0  0  0  0
 15 25  2  0  0  0  0
 15 29  1  0  0  0  0
 16 30  2  0  0  0  0
 16 31  1  0  0  0  0
 17 32  1  0  0  0  0
 18 24  2  0  0  0  0
 18 34  1  0  0  0  0
 19 32  1  0  0  0  0
 19 33  2  0  0  0  0
 19 35  1  0  0  0  0
 20 22  2  0  0  0  0
 20 40  1  0  0  0  0
 21 23  2  0  0  0  0
 21 41  1  0  0  0  0
 22 49  1  0  0  0  0
 23 42  1  0  0  0  0
 24 25  1  0  0  0  0
 24 60  1  0  0  0  0
 25 74  1  0  0  0  0
 26 84  1  0  0  0  0
 27 85  1  0  0  0  0
 28 31  2  0  0  0  0
 28 84  1  0  0  0  0
 29 86  1  0  0  0  0
 30 87  1  0  0  0  0
 31 88  1  0  0  0  0
 32 68  2  0  0  0  0
 33 69  1  0  0  0  0
 33 72  1  0  0  0  0
 34 52  1  0  0  0  0
 34 78  2  0  0  0  0
 35 73  1  0  0  0  0
 35 79  2  0  0  0  0
 36 50  1  0  0  0  0
 36 75  1  0  0  0  0
 36 80  2  0  0  0  0
 37 64  1  0  0  0  0
 37 70  1  0  0  0  0
 37 81  2  0  0  0  0
 38 65  1  0  0  0  0
 38 76  1  0  0  0  0
 38 82  2  0  0  0  0
 39 71  1  0  0  0  0
 39 74  1  0  0  0  0
 39 83  2  0  0  0  0
 40 43  1  0  0  0  0
 41 50  1  0  0  0  0
 42 70  1  0  0  0  0
 43 45  1  0  0  0  0
 44 46  1  0  0  0  0
 44 47  1  0  0  0  0
 45 49  1  0  0  0  0
 46 51  1  0  0  0  0
 47 71  1  0  0  0  0
 48 51  1  0  0  0  0
 48 71  1  0  0  0  0
 49 75  1  0  0  0  0
 50 70  1  0  0  0  0
 51 69  1  0  0  0  0
 53 61  1  0  0  0  0
 54 65  1  0  0  0  0
 55 66  1  0  0  0  0
 56 67  1  0  0  0  0
 57 67  1  0  0  0  0
 58 67  1  0  0  0  0
 59 77  1  0  0  0  0
 60 61  1  0  0  0  0
 62 66  1  0  0  0  0
 62 85  1  0  0  0  0
 63 66  1  0  0  0  0
 63 86  1  0  0  0  0
 64 67  1  0  0  0  0
 64 76  1  0  0  0  0
 65 77  1  0  0  0  0
 68 69  1  0  0  0  0
M  CHG  1  77   1
M  ISO  4  39 100  62 101  74 100  85 101
M  END
> <Batch ID>
0136

> <Smiles>
CCCc1c([100NH:0][100C:0](=O)N2CCCC(n3nc(-c4ccc(Oc5ccc(F)cc5F)cc4)c(C(N)=O)c3N)C2)cc(OCC(C)[101CH2:1][101O:1]c2ccc3c(c2)CN(C(=O)C(NC(=O)C(C)NC)C(C)(C)C)C(C(=O)NC2CCCc4ccccc42)C3)cc1C(C)=O

> <Shape>
0.311

> <Color>
0.068

> <Negative vol penalty>
0.000

$$$$

  -OEChem-04052302393D

 88 96  0     1  0  0  0  0  0999 V2000
  -28.3863  -37.6261   23.0579 C   0  0  0  0  0  0  0  0  0  0  0  0
  -28.8365  -36.4378   22.4915 C   0  0  0  0  0  0  0  0  0  0  0  0
  -23.3796  -12.7132   23.4255 C   0  0  0  0  0  0  0  0  0  0  0  0
  -22.7129  -14.5007   21.9431 C   0  0  0  0  0  0  0  0  0  0  0  0
  -30.4958  -19.7163   17.5093 C   0  0  0  0  0  0  0  0  0  0  0  0
  -27.3958  -37.5982   24.0386 C   0  0  0  0  0  0  0  0  0  0  0  0
  -28.2970  -35.2207   22.9064 C   0  0  0  0  0  0  0  0  0  0  0  0
  -27.3278  -30.2557   19.4547 C   0  0  0  0  0  0  0  0  0  0  0  0
  -30.3793  -18.4063   17.9740 C   0  0  0  0  0  0  0  0  0  0  0  0
  -22.4657  -13.1627   24.3785 C   0  0  0  0  0  0  0  0  0  0  0  0
  -21.7989  -14.9501   22.8961 C   0  0  0  0  0  0  0  0  0  0  0  0
  -28.0588  -29.0825   19.2727 C   0  0  0  0  0  0  0  0  0  0  0  0
  -19.1332  -12.9726   24.9180 C   0  0  0  0  0  0  0  0  0  0  0  0
  -18.3339  -12.0198   25.5496 C   0  0  0  0  0  0  0  0  0  0  0  0
  -26.6879  -27.9795   20.9229 C   0  0  0  0  0  0  0  0  0  0  0  0
  -28.0932  -18.3336   17.1958 C   0  0  0  0  0  0  0  0  0  0  0  0
  -19.2496  -12.6695   27.6888 C   0  0  0  0  0  0  0  0  0  0  0  0
  -23.5033  -13.3822   22.2078 C   0  0  0  0  0  0  0  0  0  0  0  0
  -29.4110  -20.3350   16.8879 C   0  0  0  0  0  0  0  0  0  0  0  0
  -24.2160  -11.9823   20.1978 C   0  0  0  0  0  0  0  0  0  0  0  0
  -26.8370  -36.3809   24.4589 C   0  0  0  0  0  0  0  0  0  0  0  0
  -26.2766  -30.3028   20.3816 C   0  0  0  0  0  0  0  0  0  0  0  0
  -27.2990  -35.1764   23.8947 C   0  0  0  0  0  0  0  0  0  0  0  0
  -25.9434  -29.1537   21.1129 C   0  0  0  0  0  0  0  0  0  0  0  0
  -28.2097  -19.6436   16.7311 C   0  0  0  0  0  0  0  0  0  0  0  0
  -29.1780  -17.7149   17.8172 C   0  0  0  0  0  0  0  0  0  0  0  0
  -21.6753  -14.2811   24.1138 C   0  0  0  0  0  0  0  0  0  0  0  0
  -27.7407  -27.9450   20.0090 C   0  0  0  0  0  0  0  0  0  0  0  0
  -19.9908  -13.7738   25.6719 C   0  0  0  0  0  0  0  0  0  0  0  0
  -18.3920  -11.8683   26.9350 C   0  0  0  0  0  0  0  0  0  0  0  0
  -20.0490  -13.6223   27.0572 C   0  0  0  0  0  0  0  0  0  0  0  0
  -24.4476  -12.9188   21.2231 C   0  0  0  0  0  0  0  0  0  0  0  0
  -25.4187  -11.8875   19.5413 C   0  0  0  0  0  0  0  0  0  0  0  0
  -29.5636  -21.7356   16.4017 C   0  0  0  0  0  0  0  0  0  0  0  0
  -23.0206  -11.2625   19.8683 C   0  0  0  0  0  0  0  0  0  0  0  0
  -25.6919  -31.9642   23.0276 C   0  0  0  0  0  0  0  0  0  0  0  0
  -28.9425  -24.6882   18.8316 C   0  0  0  0  0  0  0  0  0  0  0  0
  -22.8086  -30.4884   22.8508 C   0  0  0  0  0  0  0  0  0  0  0  0
  -20.9728  -27.8422   21.7219 C   0  0  0  0  0  0  0  0  0  0  0  0
  -30.0405  -15.6250   18.9283 C   0  0  0  0  0  0  0  0  0  0  0  0
  -25.8021  -36.3974   25.5558 C   0  0  0  0  0  0  0  0  0  0  0  0
  -25.4805  -31.5682   20.5468 C   0  0  0  0  0  0  0  0  0  0  0  0
  -24.8109  -29.1463   22.1058 C   0  0  0  0  0  0  0  0  0  0  0  0
  -25.0164  -35.0938   25.6717 C   0  0  0  0  0  0  0  0  0  0  0  0
  -30.1305  -12.3300   20.2746 C   0  0  0  0  0  0  0  0  0  0  0  0
  -25.9603  -33.8962   25.6310 C   0  0  0  0  0  0  0  0  0  0  0  0
  -28.6616  -12.0195   20.5717 C   0  0  0  0  0  0  0  0  0  0  0  0
  -30.4682  -13.7937   20.5527 C   0  0  0  0  0  0  0  0  0  0  0  0
  -28.1245  -14.4590   20.1872 C   0  0  0  0  0  0  0  0  0  0  0  0
  -26.7208  -33.8381   24.3006 C   0  0  1  0  0  0  0  0  0  0  0  0
  -24.7617  -31.6510   21.8899 C   0  0  1  0  0  0  0  0  0  0  0  0
  -27.7209  -13.0119   19.8605 C   0  0  2  0  0  0  0  0  0  0  0  0
  -26.8363  -19.7941   14.6389 C   0  0  0  0  0  0  0  0  0  0  0  0
  -18.6503  -26.8929   21.7688 C   0  0  0  0  0  0  0  0  0  0  0  0
  -26.5598  -25.4801   19.2003 C   0  0  0  0  0  0  0  0  0  0  0  0
  -28.0334  -26.6238   17.5046 C   0  0  0  0  0  0  0  0  0  0  0  0
  -23.2512  -29.5537   25.7214 C   0  0  0  0  0  0  0  0  0  0  0  0
  -21.4220  -27.8779   25.3840 C   0  0  0  0  0  0  0  0  0  0  0  0
  -20.9229  -30.3165   25.2199 C   0  0  0  0  0  0  0  0  0  0  0  0
  -20.7207  -28.0079   18.7778 C   0  0  0  0  0  0  0  0  0  0  0  0
  -27.0322  -20.2832   16.0705 C   0  0  0  0  0  0  0  0  0  0  0  0
  -29.9063  -22.8537   17.3728 C   0  0  0  0  0  0  0  0  0  0  0  0
  -28.6399  -23.5474   17.8678 C   0  0  0  0  0  0  0  0  0  0  0  0
  -22.2366  -29.1933   23.3747 C   0  0  1  0  0  0  0  0  0  0  0  0
  -19.6318  -27.7756   21.0136 C   0  0  2  0  0  0  0  0  0  0  0  0
  -27.9846  -25.8885   18.8397 C   0  0  0  0  0  0  0  0  0  1  0  0
  -21.9808  -29.2357   24.9078 C   0  0  0  0  0  0  0  0  0  0  0  0
  -25.6991  -13.3855   21.2221 N   0  0  0  0  0  0  0  0  0  0  0  0
  -29.4016  -22.0118   15.1458 N   0  0  0  0  0  0  0  0  0  0  0  0
  -26.2647  -12.7396   20.1882 N   0  0  0  0  0  0  0  0  0  0  0  0
  -24.0664  -30.4097   22.2362 N   0  0  0  0  0  0  0  0  0  0  0  0
  -29.5385  -14.6751   19.8429 N   0  0  0  0  0  0  0  0  0  0  0  0
  -25.8246  -11.1593   18.4795 N   0  0  0  0  0  0  0  0  0  0  0  0
  -21.8747  -11.4788   20.6458 N   0  0  0  0  0  0  0  0  0  0  0  0
  -29.0606  -16.3842   18.2896 N   0  0  0  0  0  0  0  0  0  0  0  0
  -25.8688  -33.3159   23.2538 N   0  0  0  0  0  0  0  0  0  0  0  0
  -21.0455  -28.9211   22.5775 N   0  0  0  0  0  0  0  0  0  0  0  0
  -19.7987  -27.2240   19.6393 N   0  3  0  0  0  0  0  0  0  0  0  0
  -22.9747  -10.4393   18.9230 O   0  0  0  0  0  0  0  0  0  0  0  0
  -26.2095  -31.0475   23.6548 O   0  0  0  0  0  0  0  0  0  0  0  0
  -29.9201  -24.6515   19.5819 O   0  0  0  0  0  0  0  0  0  0  0  0
  -22.1601  -31.5303   22.9756 O   0  0  0  0  0  0  0  0  0  0  0  0
  -21.8651  -27.0174   21.5376 O   0  0  0  0  0  0  0  0  0  0  0  0
  -31.2489  -15.7367   18.7064 O   0  0  0  0  0  0  0  0  0  0  0  0
  -20.7832  -14.7198   25.0435 O   0  0  0  0  0  0  0  0  0  0  0  0
  -28.4530  -26.7988   19.8338 O   0  0  0  0  0  0  0  0  0  1  0  0
  -17.6233  -10.9543   27.5414 F   0  0  0  0  0  0  0  0  0  0  0  0
  -20.8701  -14.3899   27.7869 F   0  0  0  0  0  0  0  0  0  0  0  0
  1  2  1  0  0  0  0
  1  6  2  0  0  0  0
  2  7  2  0  0  0  0
  3 10  2  0  0  0  0
  3 18  1  0  0  0  0
  4 11  1  0  0  0  0
  4 18  2  0  0  0  0
  5  9  2  0  0  0  0
  5 19  1  0  0  0  0
  6 21  1  0  0  0  0
  7 23  1  0  0  0  0
  8 12  2  0  0  0  0
  8 22  1  0  0  0  0
  9 26  1  0  0  0  0
 10 27  1  0  0  0  0
 11 27  2  0  0  0  0
 12 28  1  0  0  0  0
 13 14  2  0  0  0  0
 13 29  1  0  0  0  0
 14 30  1  0  0  0  0
 15 24  1  0  0  0  0
 15 28  2  0  0  0  0
 16 25  1  0  0  0  0
 16 26  2  0  0  0  0
 17 30  2  0  0  0  0
 17 31  1  0  0  0  0
 18 32  1  0  0  0  0
 19 25  2  0  0  0  0
 19 34  1  0  0  0  0
 20 32  1  0  0  0  0
 20 33  2  0  0  0  0
 20 35  1  0  0  0  0
 21 23  2  0  0  0  0
 21 41  1  0  0  0  0
 22 24  2  0  0  0  0
 22 42  1  0  0  0  0
 23 50  1  0  0  0  0
 24 43  1  0  0  0  0
 25 61  1  0  0  0  0
 26 75  1  0  0  0  0
 27 85  1  0  0  0  0
 28 86  1  0  0  0  0
 29 31  2  0  0  0  0
 29 85  1  0  0  0  0
 30 87  1  0  0  0  0
 31 88  1  0  0  0  0
 32 68  2  0  0  0  0
 33 70  1  0  0  0  0
 33 73  1  0  0  0  0
 34 62  1  0  0  0  0
 34 69  2  0  0  0  0
 35 74  1  0  0  0  0
 35 79  2  0  0  0  0
 36 51  1  0  0  0  0
 36 76  1  0  0  0  0
 36 80  2  0  0  0  0
 37 63  1  0  0  0  0
 37 66  1  0  0  0  0
 37 81  2  0  0  0  0
 38 64  1  0  0  0  0
 38 71  1  0  0  0  0
 38 82  2  0  0  0  0
 39 65  1  0  0  0  0
 39 77  1  0  0  0  0
 39 83  2  0  0  0  0
 40 72  1  0  0  0  0
 40 75  1  0  0  0  0
 40 84  2  0  0  0  0
 41 44  1  0  0  0  0
 42 51  1  0  0  0  0
 43 71  1  0  0  0  0
 44 46  1  0  0  0  0
 45 47  1  0  0  0  0
 45 48  1  0  0  0  0
 46 50  1  0  0  0  0
 47 52  1  0  0  0  0
 48 72  1  0  0  0  0
 49 52  1  0  0  0  0
 49 72  1  0  0  0  0
 50 76  1  0  0  0  0
 51 71  1  0  0  0  0
 52 70  1  0  0  0  0
 53 61  1  0  0  0  0
 54 65  1  0  0  0  0
 55 66  1  0  0  0  0
 56 66  1  0  0  0  0
 57 67  1  0  0  0  0
 58 67  1  0  0  0  0
 59 67  1  0  0  0  0
 60 78  1  0  0  0  0
 62 63  1  0  0  0  0
 64 67  1  0  0  0  0
 64 77  1  0  0  0  0
 65 78  1  0  0  0  0
 66 86  1  0  0  0  0
 68 70  1  0  0  0  0
M  CHG  1  78   1
M  ISO  4  40 100  66 101  75 100  86 101
M  END
> <Batch ID>
0136

> <Smiles>
CCc1cc([100NH:0][100C:0](=O)N2CCCC(n3nc(-c4ccc(Oc5ccc(F)cc5F)cc4)c(C(N)=O)c3N)C2)ccc1C(=N)CCC(=O)[101C:1](C)(C)[101O:1]c1ccc2c(c1)CN(C(=O)C(NC(=O)C(C)NC)C(C)(C)C)C(C(=O)NC1CCCc3ccccc31)C2

> <Shape>
0.282

> <Color>
0.086

> <Negative vol penalty>
0.000

$$$$

  -OEChem-04052302393D

 87 95  0     1  0  0  0  0  0999 V2000
  -20.1135  -34.2774   20.4843 C   0  0  0  0  0  0  0  0  0  0  0  0
  -21.2820  -33.6155   20.1210 C   0  0  0  0  0  0  0  0  0  0  0  0
  -24.4818   -9.2127   21.5443 C   0  0  0  0  0  0  0  0  0  0  0  0
  -22.5918  -10.3443   20.5521 C   0  0  0  0  0  0  0  0  0  0  0  0
  -19.4714  -33.9514   21.6782 C   0  0  0  0  0  0  0  0  0  0  0  0
  -21.8097  -32.6280   20.9521 C   0  0  0  0  0  0  0  0  0  0  0  0
  -24.7345  -27.5341   19.2189 C   0  0  0  0  0  0  0  0  0  0  0  0
  -23.7321   -8.0399   21.6348 C   0  0  0  0  0  0  0  0  0  0  0  0
  -21.8421   -9.1715   20.6426 C   0  0  0  0  0  0  0  0  0  0  0  0
  -26.0885  -27.2137   19.1311 C   0  0  0  0  0  0  0  0  0  0  0  0
  -21.3385   -6.7637   23.6514 C   0  0  0  0  0  0  0  0  0  0  0  0
  -21.3981   -6.0479   24.8471 C   0  0  0  0  0  0  0  0  0  0  0  0
  -25.9823  -26.1923   21.3139 C   0  0  0  0  0  0  0  0  0  0  0  0
  -28.1814  -20.5550   19.2568 C   0  0  0  0  0  0  0  0  0  0  0  0
  -25.8744  -20.6422   20.8230 C   0  0  0  0  0  0  0  0  0  0  0  0
  -22.2601   -4.1305   23.6563 C   0  0  0  0  0  0  0  0  0  0  0  0
  -23.9116  -10.3649   21.0030 C   0  0  0  0  0  0  0  0  0  0  0  0
  -25.4955  -11.9875   19.8343 C   0  0  0  0  0  0  0  0  0  0  0  0
  -19.9863  -32.9527   22.5196 C   0  0  0  0  0  0  0  0  0  0  0  0
  -23.9955  -27.1950   20.3615 C   0  0  0  0  0  0  0  0  0  0  0  0
  -21.1747  -32.2893   22.1590 C   0  0  0  0  0  0  0  0  0  0  0  0
  -24.6184  -26.5072   21.4127 C   0  0  0  0  0  0  0  0  0  0  0  0
  -27.7308  -19.4020   19.8996 C   0  0  0  0  0  0  0  0  0  0  0  0
  -27.4785  -21.7517   19.3972 C   0  0  0  0  0  0  0  0  0  0  0  0
  -26.5773  -19.4455   20.6826 C   0  0  0  0  0  0  0  0  0  0  0  0
  -22.4123   -8.0193   21.1840 C   0  0  0  0  0  0  0  0  0  0  0  0
  -26.7133  -26.5453   20.1798 C   0  0  0  0  0  0  0  0  0  0  0  0
  -21.7396   -6.1628   22.4581 C   0  0  0  0  0  0  0  0  0  0  0  0
  -21.8589   -4.7314   24.8496 C   0  0  0  0  0  0  0  0  0  0  0  0
  -26.3250  -21.7952   20.1802 C   0  0  0  0  0  0  0  0  0  0  0  0
  -22.2004   -4.8463   22.4606 C   0  0  0  0  0  0  0  0  0  0  0  0
  -24.6853  -11.5768   20.9098 C   0  0  0  0  0  0  0  0  0  0  0  0
  -26.0091  -13.1972   20.2336 C   0  0  0  0  0  0  0  0  0  0  0  0
  -25.7602  -11.3340   18.5858 C   0  0  0  0  0  0  0  0  0  0  0  0
  -22.4167  -28.8349   22.5800 C   0  0  0  0  0  0  0  0  0  0  0  0
  -21.5278  -25.8786   23.5763 C   0  0  0  0  0  0  0  0  0  0  0  0
  -22.1964  -22.5336   23.6803 C   0  0  0  0  0  0  0  0  0  0  0  0
  -25.3944  -18.2263   22.5428 C   0  0  0  0  0  0  0  0  0  0  0  0
  -19.2830  -32.6680   23.8231 C   0  0  0  0  0  0  0  0  0  0  0  0
  -22.5294  -27.5241   20.4295 C   0  0  0  0  0  0  0  0  0  0  0  0
  -23.8648  -26.1028   22.6524 C   0  0  0  0  0  0  0  0  0  0  0  0
  -19.7023  -31.3483   24.4658 C   0  0  0  0  0  0  0  0  0  0  0  0
  -25.9240  -15.4826   24.7493 C   0  0  0  0  0  0  0  0  0  0  0  0
  -21.2212  -31.2085   24.4559 C   0  0  0  0  0  0  0  0  0  0  0  0
  -25.7156  -14.2556   23.8586 C   0  0  0  0  0  0  0  0  0  0  0  0
  -24.9662  -16.6161   24.3864 C   0  0  0  0  0  0  0  0  0  0  0  0
  -24.7627  -15.7765   22.0793 C   0  0  0  0  0  0  0  0  0  0  0  0
  -21.7646  -31.1950   23.0220 C   0  0  1  0  0  0  0  0  0  0  0  0
  -21.9965  -27.5862   21.8576 C   0  0  1  0  0  0  0  0  0  0  0  0
  -25.7487  -14.6319   22.3643 C   0  0  2  0  0  0  0  0  0  0  0  0
  -29.9353  -18.2424   20.2862 C   0  0  0  0  0  0  0  0  0  0  0  0
  -28.5422  -17.6610   18.2672 C   0  0  0  0  0  0  0  0  0  0  0  0
  -21.3076  -20.3748   24.6006 C   0  0  0  0  0  0  0  0  0  0  0  0
  -22.5512  -26.6415   26.3476 C   0  0  0  0  0  0  0  0  0  0  0  0
  -22.5249  -24.2115   26.9499 C   0  0  0  0  0  0  0  0  0  0  0  0
  -20.3990  -25.3677   26.3445 C   0  0  0  0  0  0  0  0  0  0  0  0
  -30.2435  -24.7164   17.4152 C   0  0  0  0  0  0  0  0  0  0  0  0
  -30.8383  -25.5226   19.7138 C   0  0  0  0  0  0  0  0  0  0  0  0
  -21.8643  -21.3823   20.9742 C   0  0  0  0  0  0  0  0  0  0  0  0
  -27.9685  -22.9980   18.7001 C   0  0  0  0  0  0  0  0  0  0  0  0
  -29.1611  -23.6200   19.4399 C   0  0  0  0  0  0  0  0  0  0  0  0
  -28.5644  -25.9892   18.7942 C   0  0  0  0  0  0  0  0  0  1  0  0
  -28.5036  -18.1338   19.7315 C   0  0  0  0  0  0  0  0  0  0  0  0
  -22.0918  -24.8595   24.5367 C   0  0  1  0  0  0  0  0  0  0  0  0
  -21.3213  -21.3226   23.4114 C   0  0  2  0  0  0  0  0  0  0  0  0
  -21.9067  -25.2793   26.0223 C   0  0  0  0  0  0  0  0  0  0  0  0
  -29.7089  -24.9470   18.8410 C   0  0  0  0  0  0  0  0  0  0  0  0
  -24.6814  -12.4543   21.9168 N   0  0  0  0  0  0  0  0  0  0  0  0
  -25.4955  -13.4283   21.4758 N   0  0  0  0  0  0  0  0  0  0  0  0
  -22.4348  -26.4525   22.6742 N   0  0  0  0  0  0  0  0  0  0  0  0
  -25.0555  -16.9207   22.9567 N   0  0  0  0  0  0  0  0  0  0  0  0
  -26.8454  -14.0750   19.6399 N   0  0  0  0  0  0  0  0  0  0  0  0
  -25.1509  -10.0966   18.3371 N   0  0  0  0  0  0  0  0  0  0  0  0
  -26.1037  -18.2852   21.3437 N   0  0  0  0  0  0  0  0  0  0  0  0
  -21.5518  -29.8995   22.4130 N   0  0  0  0  0  0  0  0  0  0  0  0
  -21.4682  -23.5861   24.1934 N   0  0  0  0  0  0  0  0  0  0  0  0
  -21.8204  -20.5768   22.2217 N   0  3  0  0  0  0  0  0  0  0  0  0
  -26.5276  -11.8248   17.7235 O   0  0  0  0  0  0  0  0  0  0  0  0
  -23.4484  -28.8322   23.2413 O   0  0  0  0  0  0  0  0  0  0  0  0
  -20.3252  -26.1500   23.6199 O   0  0  0  0  0  0  0  0  0  0  0  0
  -23.4056  -22.5435   23.4608 O   0  0  0  0  0  0  0  0  0  0  0  0
  -25.1023  -19.2172   23.2173 O   0  0  0  0  0  0  0  0  0  0  0  0
  -21.6805   -6.8750   21.2719 O   0  0  0  0  0  0  0  0  0  0  0  0
  -28.0350  -26.2320   20.0969 O   0  0  0  0  0  0  0  0  0  1  0  0
  -21.9176   -4.0447   25.9981 F   0  0  0  0  0  0  0  0  0  0  0  0
  -25.6430  -22.9405   20.3210 F   0  0  0  0  0  0  0  0  0  0  0  0
  -22.5882   -4.2641   21.3176 F   0  0  0  0  0  0  0  0  0  0  0  0
  1  2  1  0  0  0  0
  1  5  2  0  0  0  0
  2  6  2  0  0  0  0
  3  8  2  0  0  0  0
  3 17  1  0  0  0  0
  4  9  1  0  0  0  0
  4 17  2  0  0  0  0
  5 19  1  0  0  0  0
  6 21  1  0  0  0  0
  7 10  2  0  0  0  0
  7 20  1  0  0  0  0
  8 26  1  0  0  0  0
  9 26  2  0  0  0  0
 10 27  1  0  0  0  0
 11 12  2  0  0  0  0
 11 28  1  0  0  0  0
 12 29  1  0  0  0  0
 13 22  1  0  0  0  0
 13 27  2  0  0  0  0
 14 23  2  0  0  0  0
 14 24  1  0  0  0  0
 15 25  2  0  0  0  0
 15 30  1  0  0  0  0
 16 29  2  0  0  0  0
 16 31  1  0  0  0  0
 17 32  1  0  0  0  0
 18 32  1  0  0  0  0
 18 33  2  0  0  0  0
 18 34  1  0  0  0  0
 19 21  2  0  0  0  0
 19 39  1  0  0  0  0
 20 22  2  0  0  0  0
 20 40  1  0  0  0  0
 21 48  1  0  0  0  0
 22 41  1  0  0  0  0
 23 25  1  0  0  0  0
 23 63  1  0  0  0  0
 24 30  2  0  0  0  0
 24 60  1  0  0  0  0
 25 74  1  0  0  0  0
 26 83  1  0  0  0  0
 27 84  1  0  0  0  0
 28 31  2  0  0  0  0
 28 83  1  0  0  0  0
 29 85  1  0  0  0  0
 30 86  1  0  0  0  0
 31 87  1  0  0  0  0
 32 68  2  0  0  0  0
 33 69  1  0  0  0  0
 33 72  1  0  0  0  0
 34 73  1  0  0  0  0
 34 78  2  0  0  0  0
 35 49  1  0  0  0  0
 35 75  1  0  0  0  0
 35 79  2  0  0  0  0
 36 64  1  0  0  0  0
 36 70  1  0  0  0  0
 36 80  2  0  0  0  0
 37 65  1  0  0  0  0
 37 76  1  0  0  0  0
 37 81  2  0  0  0  0
 38 71  1  0  0  0  0
 38 74  1  0  0  0  0
 38 82  2  0  0  0  0
 39 42  1  0  0  0  0
 40 49  1  0  0  0  0
 41 70  1  0  0  0  0
 42 44  1  0  0  0  0
 43 45  1  0  0  0  0
 43 46  1  0  0  0  0
 44 48  1  0  0  0  0
 45 50  1  0  0  0  0
 46 71  1  0  0  0  0
 47 50  1  0  0  0  0
 47 71  1  0  0  0  0
 48 75  1  0  0  0  0
 49 70  1  0  0  0  0
 50 69  1  0  0  0  0
 51 63  1  0  0  0  0
 52 63  1  0  0  0  0
 53 65  1  0  0  0  0
 54 66  1  0  0  0  0
 55 66  1  0  0  0  0
 56 66  1  0  0  0  0
 57 67  1  0  0  0  0
 58 67  1  0  0  0  0
 59 77  1  0  0  0  0
 60 61  1  0  0  0  0
 61 67  1  0  0  0  0
 62 67  1  0  0  0  0
 62 84  1  0  0  0  0
 64 66  1  0  0  0  0
 64 76  1  0  0  0  0
 65 77  1  0  0  0  0
 68 69  1  0  0  0  0
M  CHG  1  77   1
M  ISO  4  38 100  62 101  74 100  84 101
M  END
> <Batch ID>
0136

> <Smiles>
CNC(C)C(=O)NC(C(=O)N1Cc2cc([101O:1][101CH2:1]C(C)(C)CCc3cc(C(C)C)c([100NH:0][100C:0](=O)N4CCCC(n5nc(-c6ccc(Oc7ccc(F)cc7F)cc6)c(C(N)=O)c5N)C4)cc3F)ccc2CC1C(=O)NC1CCCc2ccccc21)C(C)(C)C

> <Shape>
0.242

> <Color>
0.128

> <Negative vol penalty>
0.000

$$$$

  -OEChem-04052302393D

 82 90  0     1  0  0  0  0  0999 V2000
  -22.6680  -24.8801   33.3307 C   0  0  0  0  0  0  0  0  0  0  0  0
  -23.6892  -24.3542   32.5458 C   0  0  0  0  0  0  0  0  0  0  0  0
  -22.9996   -9.8918   19.9827 C   0  0  0  0  0  0  0  0  0  0  0  0
  -23.7231   -9.9479   22.2871 C   0  0  0  0  0  0  0  0  0  0  0  0
  -21.3870  -25.0256   32.7999 C   0  0  0  0  0  0  0  0  0  0  0  0
  -23.4297  -23.9725   31.2300 C   0  0  0  0  0  0  0  0  0  0  0  0
  -27.0081  -25.5437   28.0096 C   0  0  0  0  0  0  0  0  0  0  0  0
  -22.2332   -8.7577   20.2508 C   0  0  0  0  0  0  0  0  0  0  0  0
  -22.9567   -8.8137   22.5553 C   0  0  0  0  0  0  0  0  0  0  0  0
  -28.1985  -24.8188   27.9774 C   0  0  0  0  0  0  0  0  0  0  0  0
  -23.2023   -5.4739   22.0907 C   0  0  0  0  0  0  0  0  0  0  0  0
  -23.7896   -4.4584   22.8454 C   0  0  0  0  0  0  0  0  0  0  0  0
  -30.0385  -17.8905   22.6721 C   0  0  0  0  0  0  0  0  0  0  0  0
  -27.4397  -23.6720   25.9955 C   0  0  0  0  0  0  0  0  0  0  0  0
  -22.0644   -4.7044   24.5188 C   0  0  0  0  0  0  0  0  0  0  0  0
  -32.1125  -18.4422   22.0632 C   0  0  0  0  0  0  0  0  0  0  0  0
  -23.7446  -10.4869   21.0008 C   0  0  0  0  0  0  0  0  0  0  0  0
  -31.0268  -18.8985   22.7739 C   0  0  0  0  0  0  0  0  0  0  0  0
  -24.1294  -13.0022   20.8197 C   0  0  0  0  0  0  0  0  0  0  0  0
  -21.1139  -24.6544   31.4739 C   0  0  0  0  0  0  0  0  0  0  0  0
  -26.0182  -25.3300   27.0395 C   0  0  0  0  0  0  0  0  0  0  0  0
  -22.1435  -24.1119   30.6815 C   0  0  0  0  0  0  0  0  0  0  0  0
  -26.2387  -24.3973   26.0160 C   0  0  0  0  0  0  0  0  0  0  0  0
  -22.2117   -8.2186   21.5371 C   0  0  0  0  0  0  0  0  0  0  0  0
  -28.4133  -23.8807   26.9720 C   0  0  0  0  0  0  0  0  0  0  0  0
  -22.0461   -6.1047   22.5500 C   0  0  0  0  0  0  0  0  0  0  0  0
  -23.2206   -4.0737   24.0594 C   0  0  0  0  0  0  0  0  0  0  0  0
  -21.4771   -5.7199   23.7641 C   0  0  0  0  0  0  0  0  0  0  0  0
  -24.5370  -11.6581   20.7243 C   0  0  0  0  0  0  0  0  0  0  0  0
  -25.2392  -13.7243   20.4546 C   0  0  0  0  0  0  0  0  0  0  0  0
  -30.5906  -16.8902   21.9062 C   0  0  0  0  0  0  0  0  0  0  0  0
  -30.9473  -20.1859   23.4831 C   0  0  0  0  0  0  0  0  0  0  0  0
  -29.8811  -20.6223   24.1721 C   0  0  0  0  0  0  0  0  0  0  0  0
  -22.8610  -13.5491   21.2042 C   0  0  0  0  0  0  0  0  0  0  0  0
  -23.0045  -24.3210   27.0943 C   0  0  0  0  0  0  0  0  0  0  0  0
  -23.0991  -25.0905   23.9445 C   0  0  0  0  0  0  0  0  0  0  0  0
  -24.9767  -25.5837   21.1377 C   0  0  0  0  0  0  0  0  0  0  0  0
  -30.7182  -14.6874   20.6906 C   0  0  0  0  0  0  0  0  0  0  0  0
  -19.7024  -24.7863   30.9592 C   0  0  0  0  0  0  0  0  0  0  0  0
  -24.7508  -26.1392   27.0727 C   0  0  0  0  0  0  0  0  0  0  0  0
  -25.2162  -24.1450   24.9393 C   0  0  0  0  0  0  0  0  0  0  0  0
  -19.5988  -24.7065   29.4382 C   0  0  0  0  0  0  0  0  0  0  0  0
  -29.6023  -12.2294   18.3690 C   0  0  0  0  0  0  0  0  0  0  0  0
  -20.4206  -23.5360   28.9079 C   0  0  0  0  0  0  0  0  0  0  0  0
  -28.1515  -11.9722   18.7826 C   0  0  0  0  0  0  0  0  0  0  0  0
  -30.5019  -12.4755   19.5789 C   0  0  0  0  0  0  0  0  0  0  0  0
  -28.5854  -13.2666   20.9094 C   0  0  0  0  0  0  0  0  0  0  0  0
  -21.9071  -23.7093   29.2420 C   0  0  1  0  0  0  0  0  0  0  0  0
  -23.5964  -25.4721   26.3312 C   0  0  1  0  0  0  0  0  0  0  0  0
  -27.6286  -13.0776   19.7209 C   0  0  2  0  0  0  0  0  0  0  0  0
  -24.7686  -26.1673   18.7059 C   0  0  0  0  0  0  0  0  0  0  0  0
  -22.1158  -22.2633   23.3527 C   0  0  0  0  0  0  0  0  0  0  0  0
  -22.8290  -22.5879   20.9748 C   0  0  0  0  0  0  0  0  0  0  0  0
  -21.0605  -24.0488   21.9552 C   0  0  0  0  0  0  0  0  0  0  0  0
  -30.5887  -21.0133   27.0810 C   0  0  0  0  0  0  0  0  0  0  0  0
  -28.1295  -21.2698   26.6537 C   0  0  0  0  0  0  0  0  0  0  0  0
  -26.6078  -28.0312   21.4662 C   0  0  0  0  0  0  0  0  0  0  0  0
  -29.8375  -21.9535   24.8763 C   0  0  0  0  0  0  0  0  0  0  0  0
  -23.4641  -24.3585   22.6756 C   0  0  1  0  0  0  0  0  0  0  0  0
  -24.9815  -26.7036   20.1130 C   0  0  2  0  0  0  0  0  0  0  0  0
  -22.3860  -23.3178   22.2608 C   0  0  0  0  0  0  0  0  0  0  0  0
  -29.5172  -21.8582   26.3829 C   0  0  0  0  0  0  0  0  0  1  0  0
  -25.8066  -11.5312   20.3293 N   0  0  0  0  0  0  0  0  0  0  0  0
  -26.2063  -12.8047   20.1733 N   0  0  0  0  0  0  0  0  0  0  0  0
  -23.9904  -24.9567   25.0185 N   0  0  0  0  0  0  0  0  0  0  0  0
  -29.9460  -13.5381   20.4196 N   0  0  0  0  0  0  0  0  0  0  0  0
  -25.4724  -15.0499   20.3499 N   0  0  0  0  0  0  0  0  0  0  0  0
  -21.8292  -12.6654   21.5488 N   0  0  0  0  0  0  0  0  0  0  0  0
  -30.0732  -15.6440   21.4738 N   0  0  0  0  0  0  0  0  0  0  0  0
  -22.5195  -24.6631   28.3421 N   0  0  0  0  0  0  0  0  0  0  0  0
  -23.7210  -25.3853   21.6716 N   0  0  0  0  0  0  0  0  0  0  0  0
  -26.2816  -27.4312   20.1469 N   0  3  0  0  0  0  0  0  0  0  0  0
  -22.6439  -14.7844   21.2251 O   0  0  0  0  0  0  0  0  0  0  0  0
  -22.9877  -23.2052   26.5878 O   0  0  0  0  0  0  0  0  0  0  0  0
  -22.0650  -25.7622   23.9791 O   0  0  0  0  0  0  0  0  0  0  0  0
  -25.9852  -24.9460   21.4322 O   0  0  0  0  0  0  0  0  0  0  0  0
  -31.8572  -14.8257   20.2372 O   0  0  0  0  0  0  0  0  0  0  0  0
  -31.8547  -17.2188   21.5310 O   0  0  0  0  0  0  0  0  0  0  0  0
  -21.4638   -7.1121   21.7993 O   0  0  0  0  0  0  0  0  0  0  0  0
  -29.5742  -23.1713   26.9387 O   0  0  0  0  0  0  0  0  0  1  0  0
  -23.7838   -3.0975   24.7833 F   0  0  0  0  0  0  0  0  0  0  0  0
  -20.3657   -6.3214   24.2100 F   0  0  0  0  0  0  0  0  0  0  0  0
  1  2  1  0  0  0  0
  1  5  2  0  0  0  0
  2  6  2  0  0  0  0
  3  8  2  0  0  0  0
  3 17  1  0  0  0  0
  4  9  1  0  0  0  0
  4 17  2  0  0  0  0
  5 20  1  0  0  0  0
  6 22  1  0  0  0  0
  7 10  2  0  0  0  0
  7 21  1  0  0  0  0
  8 24  1  0  0  0  0
  9 24  2  0  0  0  0
 10 25  1  0  0  0  0
 11 12  2  0  0  0  0
 11 26  1  0  0  0  0
 12 27  1  0  0  0  0
 13 18  1  0  0  0  0
 13 31  2  0  0  0  0
 14 23  1  0  0  0  0
 14 25  2  0  0  0  0
 15 27  2  0  0  0  0
 15 28  1  0  0  0  0
 16 18  2  0  0  0  0
 16 78  1  0  0  0  0
 17 29  1  0  0  0  0
 18 32  1  0  0  0  0
 19 29  1  0  0  0  0
 19 30  2  0  0  0  0
 19 34  1  0  0  0  0
 20 22  2  0  0  0  0
 20 39  1  0  0  0  0
 21 23  2  0  0  0  0
 21 40  1  0  0  0  0
 22 48  1  0  0  0  0
 23 41  1  0  0  0  0
 24 79  1  0  0  0  0
 25 80  1  0  0  0  0
 26 28  2  0  0  0  0
 26 79  1  0  0  0  0
 27 81  1  0  0  0  0
 28 82  1  0  0  0  0
 29 63  2  0  0  0  0
 30 64  1  0  0  0  0
 30 67  1  0  0  0  0
 31 69  1  0  0  0  0
 31 78  1  0  0  0  0
 32 33  2  0  0  0  0
 33 58  1  0  0  0  0
 34 68  1  0  0  0  0
 34 73  2  0  0  0  0
 35 49  1  0  0  0  0
 35 70  1  0  0  0  0
 35 74  2  0  0  0  0
 36 59  1  0  0  0  0
 36 65  1  0  0  0  0
 36 75  2  0  0  0  0
 37 60  1  0  0  0  0
 37 71  1  0  0  0  0
 37 76  2  0  0  0  0
 38 66  1  0  0  0  0
 38 69  1  0  0  0  0
 38 77  2  0  0  0  0
 39 42  1  0  0  0  0
 40 49  1  0  0  0  0
 41 65  1  0  0  0  0
 42 44  1  0  0  0  0
 43 45  1  0  0  0  0
 43 46  1  0  0  0  0
 44 48  1  0  0  0  0
 45 50  1  0  0  0  0
 46 66  1  0  0  0  0
 47 50  1  0  0  0  0
 47 66  1  0  0  0  0
 48 70  1  0  0  0  0
 49 65  1  0  0  0  0
 50 64  1  0  0  0  0
 51 60  1  0  0  0  0
 52 61  1  0  0  0  0
 53 61  1  0  0  0  0
 54 61  1  0  0  0  0
 55 62  1  0  0  0  0
 56 62  1  0  0  0  0
 57 72  1  0  0  0  0
 58 62  1  0  0  0  0
 59 61  1  0  0  0  0
 59 71  1  0  0  0  0
 60 72  1  0  0  0  0
 62 80  1  0  0  0  0
 63 64  1  0  0  0  0
M  CHG  1  72   1
M  ISO  4  38 100  62 101  69 100  80 101
M  END
> <Batch ID>
0136

> <Smiles>
CNC(C)C(=O)NC(C(=O)N1Cc2cc([101O:1][101C:1](C)(C)CC=Cc3coc([100NH:0][100C:0](=O)N4CCCC(n5nc(-c6ccc(Oc7ccc(F)cc7F)cc6)c(C(N)=O)c5N)C4)c3)ccc2CC1C(=O)NC1CCCc2ccccc21)C(C)(C)C

> <Shape>
0.198

> <Color>
0.198

> <Negative vol penalty>
0.000

$$$$

  -OEChem-04052302393D

 89 97  0     1  0  0  0  0  0999 V2000
  -30.3569  -25.0279   18.5147 C   0  0  0  0  0  0  0  0  0  0  0  0
  -29.0253  -24.8896   18.8930 C   0  0  0  0  0  0  0  0  0  0  0  0
  -27.4314  -12.4334   19.4607 C   0  0  0  0  0  0  0  0  0  0  0  0
  -25.3340  -13.4637   20.0743 C   0  0  0  0  0  0  0  0  0  0  0  0
  -26.0626  -23.2154   23.5277 C   0  0  0  0  0  0  0  0  0  0  0  0
  -31.2065  -25.8549   19.2485 C   0  0  0  0  0  0  0  0  0  0  0  0
  -28.5428  -25.5773   20.0059 C   0  0  0  0  0  0  0  0  0  0  0  0
  -22.9345  -27.9272   20.7348 C   0  0  0  0  0  0  0  0  0  0  0  0
  -26.8288  -22.4568   22.6429 C   0  0  0  0  0  0  0  0  0  0  0  0
  -27.0745  -11.2855   20.1682 C   0  0  0  0  0  0  0  0  0  0  0  0
  -24.9771  -12.3158   20.7817 C   0  0  0  0  0  0  0  0  0  0  0  0
  -21.7990  -27.4574   21.3934 C   0  0  0  0  0  0  0  0  0  0  0  0
  -23.7735   -9.2358   20.0846 C   0  0  0  0  0  0  0  0  0  0  0  0
  -22.4780   -8.7479   19.9140 C   0  0  0  0  0  0  0  0  0  0  0  0
  -24.0539  -22.1727   22.6822 C   0  0  0  0  0  0  0  0  0  0  0  0
  -22.3974  -28.7546   23.3373 C   0  0  0  0  0  0  0  0  0  0  0  0
  -22.0600   -9.0318   22.2766 C   0  0  0  0  0  0  0  0  0  0  0  0
  -26.5612  -13.5225   19.4138 C   0  0  0  0  0  0  0  0  0  0  0  0
  -24.6751  -23.0734   23.5474 C   0  0  0  0  0  0  0  0  0  0  0  0
  -26.6700  -14.9878   17.3285 C   0  0  0  0  0  0  0  0  0  0  0  0
  -30.7317  -26.5606   20.3652 C   0  0  0  0  0  0  0  0  0  0  0  0
  -23.8172  -28.8071   21.3774 C   0  0  0  0  0  0  0  0  0  0  0  0
  -29.3871  -26.4134   20.7561 C   0  0  0  0  0  0  0  0  0  0  0  0
  -23.5420  -29.2360   22.6837 C   0  0  0  0  0  0  0  0  0  0  0  0
  -24.8201  -21.4141   21.7974 C   0  0  0  0  0  0  0  0  0  0  0  0
  -26.2076  -21.5561   21.7777 C   0  0  0  0  0  0  0  0  0  0  0  0
  -25.8473  -11.2266   20.8286 C   0  0  0  0  0  0  0  0  0  0  0  0
  -21.5318  -27.8689   22.6959 C   0  0  0  0  0  0  0  0  0  0  0  0
  -24.2123   -9.6216   21.3512 C   0  0  0  0  0  0  0  0  0  0  0  0
  -21.6212   -8.6459   21.0100 C   0  0  0  0  0  0  0  0  0  0  0  0
  -23.3555   -9.5196   22.4472 C   0  0  0  0  0  0  0  0  0  0  0  0
  -26.9296  -14.7088   18.6837 C   0  0  0  0  0  0  0  0  0  0  0  0
  -27.2189  -16.2299   17.1224 C   0  0  0  0  0  0  0  0  0  0  0  0
  -22.4782  -24.2373   24.0711 C   0  0  0  0  0  0  0  0  0  0  0  0
  -21.5182  -24.3945   24.9941 C   0  0  0  0  0  0  0  0  0  0  0  0
  -23.8609  -23.8808   24.4873 C   0  0  0  0  0  0  0  0  0  0  0  0
  -25.9932  -14.1952   16.3440 C   0  0  0  0  0  0  0  0  0  0  0  0
  -26.8772  -28.6897   22.2298 C   0  0  0  0  0  0  0  0  0  0  0  0
  -26.3674  -31.7893   23.0390 C   0  0  0  0  0  0  0  0  0  0  0  0
  -24.1487  -34.2220   23.9365 C   0  0  0  0  0  0  0  0  0  0  0  0
  -28.3911  -20.8285   20.7534 C   0  0  0  0  0  0  0  0  0  0  0  0
  -31.6995  -27.4057   21.1551 C   0  0  0  0  0  0  0  0  0  0  0  0
  -25.0235  -29.3255   20.6437 C   0  0  0  0  0  0  0  0  0  0  0  0
  -24.4473  -30.1954   23.4106 C   0  0  0  0  0  0  0  0  0  0  0  0
  -31.0168  -28.3918   22.0995 C   0  0  0  0  0  0  0  0  0  0  0  0
  -30.7233  -19.0847   18.7047 C   0  0  0  0  0  0  0  0  0  0  0  0
  -29.9062  -27.6992   22.8828 C   0  0  0  0  0  0  0  0  0  0  0  0
  -29.9892  -17.7928   18.3385 C   0  0  0  0  0  0  0  0  0  0  0  0
  -30.4151  -19.5265   20.1342 C   0  0  0  0  0  0  0  0  0  0  0  0
  -28.2523  -18.3477   20.0885 C   0  0  0  0  0  0  0  0  0  0  0  0
  -28.8202  -27.1622   21.9427 C   0  0  1  0  0  0  0  0  0  0  0  0
  -26.1259  -29.8156   21.5775 C   0  0  1  0  0  0  0  0  0  0  0  0
  -28.4806  -17.8982   18.6361 C   0  0  2  0  0  0  0  0  0  0  0  0
  -24.0271  -20.9920   19.4566 C   0  0  0  0  0  0  0  0  0  0  0  0
  -19.1996  -23.5530   25.0299 C   0  0  0  0  0  0  0  0  0  0  0  0
  -24.0343  -36.6477   24.5695 C   0  0  0  0  0  0  0  0  0  0  0  0
  -27.4608  -31.1160   25.8069 C   0  0  0  0  0  0  0  0  0  0  0  0
  -26.4568  -33.2505   26.6461 C   0  0  0  0  0  0  0  0  0  0  0  0
  -28.2263  -33.3128   24.8888 C   0  0  0  0  0  0  0  0  0  0  0  0
  -18.1584  -26.4106   24.8556 C   0  0  0  0  0  0  0  0  0  0  0  0
  -19.6830  -26.1231   26.8136 C   0  0  0  0  0  0  0  0  0  0  0  0
  -22.4080  -34.8615   21.6300 C   0  0  0  0  0  0  0  0  0  0  0  0
  -24.1284  -20.4571   20.8815 C   0  0  0  0  0  0  0  0  0  0  0  0
  -20.5037  -27.2908   24.7610 C   0  0  0  0  0  0  0  0  0  1  0  0
  -20.0843  -24.7501   24.6498 C   0  0  1  0  0  0  0  0  0  0  0  0
  -25.9072  -32.5072   24.2847 C   0  0  1  0  0  0  0  0  0  0  0  0
  -23.9509  -35.6405   23.4331 C   0  0  2  0  0  0  0  0  0  0  0  0
  -26.9965  -32.5270   25.3939 C   0  0  0  0  0  0  0  0  0  0  0  0
  -19.6195  -26.1209   25.2721 C   0  0  0  0  0  0  0  0  0  0  0  0
  -27.5921  -15.6942   19.2953 N   0  0  0  0  0  0  0  0  0  0  0  0
  -27.7534  -16.6046   18.3199 N   0  0  0  0  0  0  0  0  0  0  0  0
  -25.6174  -30.6692   22.6532 N   0  0  0  0  0  0  0  0  0  0  0  0
  -28.9676  -19.6083   20.3415 N   0  0  0  0  0  0  0  0  0  0  0  0
  -27.2918  -17.0272   16.0354 N   0  0  0  0  0  0  0  0  0  0  0  0
  -25.4904  -12.9435   16.7244 N   0  0  0  0  0  0  0  0  0  0  0  0
  -27.0034  -20.7947   20.8862 N   0  0  0  0  0  0  0  0  0  0  0  0
  -27.9592  -28.2374   21.4988 N   0  0  0  0  0  0  0  0  0  0  0  0
  -25.4682  -33.8303   23.8546 N   0  0  0  0  0  0  0  0  0  0  0  0
  -22.6181  -35.7774   22.7806 N   0  3  0  0  0  0  0  0  0  0  0  0
  -24.3280  -24.2070   25.5728 O   0  0  0  0  0  0  0  0  0  0  0  0
  -25.8532  -14.5783   15.1577 O   0  0  0  0  0  0  0  0  0  0  0  0
  -26.5039  -28.2638   23.3165 O   0  0  0  0  0  0  0  0  0  0  0  0
  -27.3517  -32.2111   22.4267 O   0  0  0  0  0  0  0  0  0  0  0  0
  -23.2256  -33.5320   24.3634 O   0  0  0  0  0  0  0  0  0  0  0  0
  -29.0750  -21.8370   20.9459 O   0  0  0  0  0  0  0  0  0  0  0  0
  -25.4986  -10.1066   21.5188 O   0  0  0  0  0  0  0  0  0  0  0  0
  -20.4246  -27.4114   23.3413 O   0  0  0  0  0  0  0  0  0  1  0  0
  -20.3766   -8.1788   20.8457 F   0  0  0  0  0  0  0  0  0  0  0  0
  -23.7711   -9.8899   23.6663 F   0  0  0  0  0  0  0  0  0  0  0  0
  1  2  1  0  0  0  0
  1  6  2  0  0  0  0
  2  7  2  0  0  0  0
  3 10  2  0  0  0  0
  3 18  1  0  0  0  0
  4 11  1  0  0  0  0
  4 18  2  0  0  0  0
  5  9  2  0  0  0  0
  5 19  1  0  0  0  0
  6 21  1  0  0  0  0
  7 23  1  0  0  0  0
  8 12  2  0  0  0  0
  8 22  1  0  0  0  0
  9 26  1  0  0  0  0
 10 27  1  0  0  0  0
 11 27  2  0  0  0  0
 12 28  1  0  0  0  0
 13 14  2  0  0  0  0
 13 29  1  0  0  0  0
 14 30  1  0  0  0  0
 15 19  2  0  0  0  0
 15 25  1  0  0  0  0
 16 24  1  0  0  0  0
 16 28  2  0  0  0  0
 17 30  2  0  0  0  0
 17 31  1  0  0  0  0
 18 32  1  0  0  0  0
 19 36  1  0  0  0  0
 20 32  1  0  0  0  0
 20 33  2  0  0  0  0
 20 37  1  0  0  0  0
 21 23  2  0  0  0  0
 21 42  1  0  0  0  0
 22 24  2  0  0  0  0
 22 43  1  0  0  0  0
 23 51  1  0  0  0  0
 24 44  1  0  0  0  0
 25 26  2  0  0  0  0
 25 63  1  0  0  0  0
 26 76  1  0  0  0  0
 27 86  1  0  0  0  0
 28 87  1  0  0  0  0
 29 31  2  0  0  0  0
 29 86  1  0  0  0  0
 30 88  1  0  0  0  0
 31 89  1  0  0  0  0
 32 70  2  0  0  0  0
 33 71  1  0  0  0  0
 33 74  1  0  0  0  0
 34 35  2  0  0  0  0
 34 36  1  0  0  0  0
 35 65  1  0  0  0  0
 36 80  2  0  0  0  0
 37 75  1  0  0  0  0
 37 81  2  0  0  0  0
 38 52  1  0  0  0  0
 38 77  1  0  0  0  0
 38 82  2  0  0  0  0
 39 66  1  0  0  0  0
 39 72  1  0  0  0  0
 39 83  2  0  0  0  0
 40 67  1  0  0  0  0
 40 78  1  0  0  0  0
 40 84  2  0  0  0  0
 41 73  1  0  0  0  0
 41 76  1  0  0  0  0
 41 85  2  0  0  0  0
 42 45  1  0  0  0  0
 43 52  1  0  0  0  0
 44 72  1  0  0  0  0
 45 47  1  0  0  0  0
 46 48  1  0  0  0  0
 46 49  1  0  0  0  0
 47 51  1  0  0  0  0
 48 53  1  0  0  0  0
 49 73  1  0  0  0  0
 50 53  1  0  0  0  0
 50 73  1  0  0  0  0
 51 77  1  0  0  0  0
 52 72  1  0  0  0  0
 53 71  1  0  0  0  0
 54 63  1  0  0  0  0
 55 65  1  0  0  0  0
 56 67  1  0  0  0  0
 57 68  1  0  0  0  0
 58 68  1  0  0  0  0
 59 68  1  0  0  0  0
 60 69  1  0  0  0  0
 61 69  1  0  0  0  0
 62 79  1  0  0  0  0
 64 69  1  0  0  0  0
 64 87  1  0  0  0  0
 65 69  1  0  0  0  0
 66 68  1  0  0  0  0
 66 78  1  0  0  0  0
 67 79  1  0  0  0  0
 70 71  1  0  0  0  0
M  CHG  1  79   1
M  ISO  4  41 100  64 101  76 100  87 101
M  END
> <Batch ID>
0136

> <Smiles>
CCc1cc(C(=O)C=CC(C)C(C)(C)[101CH2:1][101O:1]c2ccc3c(c2)CN(C(=O)C(NC(=O)C(C)NC)C(C)(C)C)C(C(=O)NC2CCCc4ccccc42)C3)ccc1[100NH:0][100C:0](=O)N1CCCC(n2nc(-c3ccc(Oc4ccc(F)cc4F)cc3)c(C(N)=O)c2N)C1

> <Shape>
0.294

> <Color>
0.048

> <Negative vol penalty>
0.000

$$$$

  -OEChem-04052302393D

 84 92  0     1  0  0  0  0  0999 V2000
  -24.1949  -23.4293   34.4611 C   0  0  0  0  0  0  0  0  0  0  0  0
  -25.0302  -23.4308   33.3486 C   0  0  0  0  0  0  0  0  0  0  0  0
  -23.1910   -9.8192   19.9316 C   0  0  0  0  0  0  0  0  0  0  0  0
  -23.5702   -9.9993   22.3108 C   0  0  0  0  0  0  0  0  0  0  0  0
  -23.9079  -22.2314   35.1142 C   0  0  0  0  0  0  0  0  0  0  0  0
  -25.5798  -22.2344   32.8892 C   0  0  0  0  0  0  0  0  0  0  0  0
  -26.7135  -20.6988   27.0700 C   0  0  0  0  0  0  0  0  0  0  0  0
  -22.4254   -8.6721   20.1404 C   0  0  0  0  0  0  0  0  0  0  0  0
  -22.8046   -8.8522   22.5197 C   0  0  0  0  0  0  0  0  0  0  0  0
  -27.8767  -20.7274   26.3019 C   0  0  0  0  0  0  0  0  0  0  0  0
  -23.2074   -5.5058   22.2549 C   0  0  0  0  0  0  0  0  0  0  0  0
  -23.7067   -4.5446   23.1337 C   0  0  0  0  0  0  0  0  0  0  0  0
  -28.2556  -18.3977   26.7999 C   0  0  0  0  0  0  0  0  0  0  0  0
  -21.7506   -4.8033   24.5279 C   0  0  0  0  0  0  0  0  0  0  0  0
  -31.3075  -14.4993   26.2365 C   0  0  0  0  0  0  0  0  0  0  0  0
  -23.7635  -10.4828   21.0167 C   0  0  0  0  0  0  0  0  0  0  0  0
  -32.0720  -14.4980   24.0416 C   0  0  0  0  0  0  0  0  0  0  0  0
  -24.1007  -12.9997   20.7733 C   0  0  0  0  0  0  0  0  0  0  0  0
  -24.4465  -21.0184   34.6568 C   0  0  0  0  0  0  0  0  0  0  0  0
  -26.3178  -19.5203   27.7188 C   0  0  0  0  0  0  0  0  0  0  0  0
  -25.3008  -21.0193   33.5376 C   0  0  0  0  0  0  0  0  0  0  0  0
  -27.0856  -18.3561   27.5735 C   0  0  0  0  0  0  0  0  0  0  0  0
  -32.2144  -15.0398   25.3516 C   0  0  0  0  0  0  0  0  0  0  0  0
  -22.2322   -8.1886   21.4345 C   0  0  0  0  0  0  0  0  0  0  0  0
  -28.6494  -19.5775   26.1691 C   0  0  0  0  0  0  0  0  0  0  0  0
  -21.9797   -6.1159   22.5126 C   0  0  0  0  0  0  0  0  0  0  0  0
  -22.9783   -4.1933   24.2702 C   0  0  0  0  0  0  0  0  0  0  0  0
  -21.2513   -5.7646   23.6491 C   0  0  0  0  0  0  0  0  0  0  0  0
  -24.5549  -11.6675   20.8016 C   0  0  0  0  0  0  0  0  0  0  0  0
  -25.2314  -13.7430   20.5376 C   0  0  0  0  0  0  0  0  0  0  0  0
  -31.0618  -13.5637   23.9751 C   0  0  0  0  0  0  0  0  0  0  0  0
  -32.8703  -14.8584   22.8963 C   0  0  0  0  0  0  0  0  0  0  0  0
  -22.7752  -13.5188   20.9448 C   0  0  0  0  0  0  0  0  0  0  0  0
  -25.8829  -18.6657   30.7494 C   0  0  0  0  0  0  0  0  0  0  0  0
  -24.7703  -15.9285   29.4106 C   0  0  0  0  0  0  0  0  0  0  0  0
  -24.7434  -13.8174   26.7292 C   0  0  0  0  0  0  0  0  0  0  0  0
  -31.0368  -12.7853   21.5793 C   0  0  0  0  0  0  0  0  0  0  0  0
  -24.1455  -19.7553   35.4239 C   0  0  0  0  0  0  0  0  0  0  0  0
  -25.0461  -19.4988   28.5219 C   0  0  0  0  0  0  0  0  0  0  0  0
  -26.6935  -17.0600   28.2331 C   0  0  0  0  0  0  0  0  0  0  0  0
  -24.4678  -18.4804   34.6487 C   0  0  0  0  0  0  0  0  0  0  0  0
  -29.5226  -13.4668   18.4297 C   0  0  0  0  0  0  0  0  0  0  0  0
  -25.8451  -18.5832   34.0011 C   0  0  0  0  0  0  0  0  0  0  0  0
  -28.0347  -13.2098   18.6796 C   0  0  0  0  0  0  0  0  0  0  0  0
  -30.4046  -12.4821   19.1953 C   0  0  0  0  0  0  0  0  0  0  0  0
  -28.6457  -12.1393   20.8859 C   0  0  0  0  0  0  0  0  0  0  0  0
  -25.8964  -19.7386   32.9942 C   0  0  1  0  0  0  0  0  0  0  0  0
  -25.0127  -18.3798   29.5582 C   0  0  1  0  0  0  0  0  0  0  0  0
  -27.7190  -13.1474   20.1869 C   0  0  2  0  0  0  0  0  0  0  0  0
  -32.3919  -15.9965   22.0322 C   0  0  0  0  0  0  0  0  0  0  0  0
  -23.7692  -11.6420   25.9445 C   0  0  0  0  0  0  0  0  0  0  0  0
  -31.9378  -20.4923   26.0004 C   0  0  0  0  0  0  0  0  0  0  0  0
  -26.7442  -14.4111   31.1744 C   0  0  0  0  0  0  0  0  0  0  0  0
  -26.4151  -12.4123   29.7032 C   0  0  0  0  0  0  0  0  0  0  0  0
  -24.4883  -13.3491   30.9809 C   0  0  0  0  0  0  0  0  0  0  0  0
  -23.3522  -15.1231   24.4667 C   0  0  0  0  0  0  0  0  0  0  0  0
  -33.2331  -16.0824   25.7377 C   0  0  0  0  0  0  0  0  0  0  0  0
  -32.6226  -17.3431   26.3614 C   0  0  0  0  0  0  0  0  0  0  0  0
  -31.6364  -18.0564   25.4263 C   0  0  0  0  0  0  0  0  0  0  0  0
  -25.3878  -14.6175   28.9873 C   0  0  1  0  0  0  0  0  0  0  0  0
  -23.6013  -13.1530   25.9818 C   0  0  2  0  0  0  0  0  0  0  0  0
  -31.0086  -19.2887   26.0853 C   0  0  2  0  0  0  0  0  0  1  0  0
  -25.7676  -13.7223   30.2005 C   0  0  0  0  0  0  0  0  0  0  0  0
  -25.8714  -11.5672   20.5999 N   0  0  0  0  0  0  0  0  0  0  0  0
  -26.2542  -12.8458   20.4425 N   0  0  0  0  0  0  0  0  0  0  0  0
  -25.4451  -17.0914   29.0130 N   0  0  0  0  0  0  0  0  0  0  0  0
  -30.0514  -12.4801   20.6167 N   0  0  0  0  0  0  0  0  0  0  0  0
  -25.4405  -15.0700   20.4045 N   0  0  0  0  0  0  0  0  0  0  0  0
  -21.7292  -12.6160   21.1791 N   0  0  0  0  0  0  0  0  0  0  0  0
  -30.5766  -12.7845   22.8957 N   0  0  0  0  0  0  0  0  0  0  0  0
  -25.2446  -19.3613   31.7584 N   0  0  0  0  0  0  0  0  0  0  0  0
  -24.4429  -14.0010   28.0624 N   0  0  0  0  0  0  0  0  0  0  0  0
  -23.5393  -13.6537   24.5795 N   0  3  0  0  0  0  0  0  0  0  0  0
  -33.9256  -14.3052   22.5526 O   0  0  0  0  0  0  0  0  0  0  0  0
  -22.5233  -14.7457   20.8754 O   0  0  0  0  0  0  0  0  0  0  0  0
  -27.0467  -18.2821   30.7534 O   0  0  0  0  0  0  0  0  0  0  0  0
  -23.7238  -15.9211   30.0636 O   0  0  0  0  0  0  0  0  0  0  0  0
  -25.7981  -14.1379   26.1857 O   0  0  0  0  0  0  0  0  0  0  0  0
  -32.1966  -13.0560   21.2575 O   0  0  0  0  0  0  0  0  0  0  0  0
  -21.4850   -7.0694   21.6387 O   0  0  0  0  0  0  0  0  0  0  0  0
  -29.7856  -19.6028   25.4205 O   0  0  0  0  0  0  0  0  0  1  0  0
  -23.4571   -3.2691   25.1133 F   0  0  0  0  0  0  0  0  0  0  0  0
  -20.0707   -6.3463   23.9013 F   0  0  0  0  0  0  0  0  0  0  0  0
  -30.2900  -13.3433   25.4877 S   0  0  0  0  0  0  0  0  0  0  0  0
  1  2  1  0  0  0  0
  1  5  2  0  0  0  0
  2  6  2  0  0  0  0
  3  8  2  0  0  0  0
  3 16  1  0  0  0  0
  4  9  1  0  0  0  0
  4 16  2  0  0  0  0
  5 19  1  0  0  0  0
  6 21  1  0  0  0  0
  7 10  2  0  0  0  0
  7 20  1  0  0  0  0
  8 24  1  0  0  0  0
  9 24  2  0  0  0  0
 10 25  1  0  0  0  0
 11 12  2  0  0  0  0
 11 26  1  0  0  0  0
 12 27  1  0  0  0  0
 13 22  1  0  0  0  0
 13 25  2  0  0  0  0
 14 27  2  0  0  0  0
 14 28  1  0  0  0  0
 15 23  2  0  0  0  0
 15 84  1  0  0  0  0
 16 29  1  0  0  0  0
 17 23  1  0  0  0  0
 17 31  2  0  0  0  0
 17 32  1  0  0  0  0
 18 29  1  0  0  0  0
 18 30  2  0  0  0  0
 18 33  1  0  0  0  0
 19 21  2  0  0  0  0
 19 38  1  0  0  0  0
 20 22  2  0  0  0  0
 20 39  1  0  0  0  0
 21 47  1  0  0  0  0
 22 40  1  0  0  0  0
 23 57  1  0  0  0  0
 24 80  1  0  0  0  0
 25 81  1  0  0  0  0
 26 28  2  0  0  0  0
 26 80  1  0  0  0  0
 27 82  1  0  0  0  0
 28 83  1  0  0  0  0
 29 64  2  0  0  0  0
 30 65  1  0  0  0  0
 30 68  1  0  0  0  0
 31 70  1  0  0  0  0
 31 84  1  0  0  0  0
 32 50  1  0  0  0  0
 32 74  2  0  0  0  0
 33 69  1  0  0  0  0
 33 75  2  0  0  0  0
 34 48  1  0  0  0  0
 34 71  1  0  0  0  0
 34 76  2  0  0  0  0
 35 60  1  0  0  0  0
 35 66  1  0  0  0  0
 35 77  2  0  0  0  0
 36 61  1  0  0  0  0
 36 72  1  0  0  0  0
 36 78  2  0  0  0  0
 37 67  1  0  0  0  0
 37 70  1  0  0  0  0
 37 79  2  0  0  0  0
 38 41  1  0  0  0  0
 39 48  1  0  0  0  0
 40 66  1  0  0  0  0
 41 43  1  0  0  0  0
 42 44  1  0  0  0  0
 42 45  1  0  0  0  0
 43 47  1  0  0  0  0
 44 49  1  0  0  0  0
 45 67  1  0  0  0  0
 46 49  1  0  0  0  0
 46 67  1  0  0  0  0
 47 71  1  0  0  0  0
 48 66  1  0  0  0  0
 49 65  1  0  0  0  0
 51 61  1  0  0  0  0
 52 62  1  0  0  0  0
 53 63  1  0  0  0  0
 54 63  1  0  0  0  0
 55 63  1  0  0  0  0
 56 73  1  0  0  0  0
 57 58  1  0  0  0  0
 58 59  1  0  0  0  0
 59 62  1  0  0  0  0
 60 63  1  0  0  0  0
 60 72  1  0  0  0  0
 61 73  1  0  0  0  0
 62 81  1  0  0  0  0
 64 65  1  0  0  0  0
M  CHG  1  73   1
M  ISO  4  37 100  62 101  70 100  81 101
M  END
> <Batch ID>
0136

> <Smiles>
CNC(C)C(=O)NC(C(=O)N1Cc2cc([101O:1][101CH:1](C)CCCc3csc([100NH:0][100C:0](=O)N4CCCC(n5nc(-c6ccc(Oc7ccc(F)cc7F)cc6)c(C(N)=O)c5N)C4)c3C(C)=O)ccc2CC1C(=O)NC1CCCc2ccccc21)C(C)(C)C

> <Shape>
0.144

> <Color>
0.186

> <Negative vol penalty>
0.000

$$$$

  -OEChem-04052302393D

 85 93  0     1  0  0  0  0  0999 V2000
  -24.5831  -18.5410   15.4846 C   0  0  0  0  0  0  0  0  0  0  0  0
  -25.0673  -18.3555   16.7756 C   0  0  0  0  0  0  0  0  0  0  0  0
  -26.3782  -31.3391   21.9602 C   0  0  0  0  0  0  0  0  0  0  0  0
  -26.1338  -29.7163   23.7334 C   0  0  0  0  0  0  0  0  0  0  0  0
  -23.3961  -17.9244   15.0912 C   0  0  0  0  0  0  0  0  0  0  0  0
  -24.3640  -17.5541   17.6743 C   0  0  0  0  0  0  0  0  0  0  0  0
  -27.3834  -14.3980   20.2369 C   0  0  0  0  0  0  0  0  0  0  0  0
  -25.2094  -31.9739   22.3801 C   0  0  0  0  0  0  0  0  0  0  0  0
  -24.9649  -30.3513   24.1533 C   0  0  0  0  0  0  0  0  0  0  0  0
  -28.1125  -14.9347   21.2972 C   0  0  0  0  0  0  0  0  0  0  0  0
  -21.7226  -31.3308   25.4715 C   0  0  0  0  0  0  0  0  0  0  0  0
  -20.6232  -30.5288   25.7777 C   0  0  0  0  0  0  0  0  0  0  0  0
  -27.5977  -20.6946   23.1544 C   0  0  0  0  0  0  0  0  0  0  0  0
  -26.4909  -14.0535   22.8505 C   0  0  0  0  0  0  0  0  0  0  0  0
  -27.9512  -21.0322   20.4078 C   0  0  0  0  0  0  0  0  0  0  0  0
  -20.6195  -29.6715   23.5189 C   0  0  0  0  0  0  0  0  0  0  0  0
  -26.8404  -30.2102   22.6368 C   0  0  0  0  0  0  0  0  0  0  0  0
  -27.2675  -19.6621   22.2766 C   0  0  0  0  0  0  0  0  0  0  0  0
  -29.3617  -29.8220   22.6304 C   0  0  0  0  0  0  0  0  0  0  0  0
  -22.6830  -17.1073   15.9825 C   0  0  0  0  0  0  0  0  0  0  0  0
  -26.1948  -13.6931   20.4752 C   0  0  0  0  0  0  0  0  0  0  0  0
  -23.1656  -16.9272   17.2929 C   0  0  0  0  0  0  0  0  0  0  0  0
  -25.7499  -13.5066   21.7917 C   0  0  0  0  0  0  0  0  0  0  0  0
  -28.2814  -22.0647   21.2855 C   0  0  0  0  0  0  0  0  0  0  0  0
  -24.5027  -31.4801   23.4766 C   0  0  0  0  0  0  0  0  0  0  0  0
  -27.6647  -14.7650   22.6040 C   0  0  0  0  0  0  0  0  0  0  0  0
  -22.2703  -31.3033   24.1889 C   0  0  0  0  0  0  0  0  0  0  0  0
  -20.0717  -29.6991   24.8015 C   0  0  0  0  0  0  0  0  0  0  0  0
  -28.1047  -21.8960   22.6588 C   0  0  0  0  0  0  0  0  0  0  0  0
  -27.4442  -19.8309   20.9033 C   0  0  0  0  0  0  0  0  0  0  0  0
  -21.7188  -30.4736   23.2127 C   0  0  0  0  0  0  0  0  0  0  0  0
  -28.0475  -29.5536   22.2033 C   0  0  0  0  0  0  0  0  0  0  0  0
  -30.1393  -28.9349   21.9270 C   0  0  0  0  0  0  0  0  0  0  0  0
  -26.7252  -18.3765   22.8120 C   0  0  0  0  0  0  0  0  0  0  0  0
  -29.8371  -30.7869   23.5784 C   0  0  0  0  0  0  0  0  0  0  0  0
  -23.1466  -14.0987   19.6703 C   0  0  0  0  0  0  0  0  0  0  0  0
  -22.7975  -11.1881   21.0593 C   0  0  0  0  0  0  0  0  0  0  0  0
  -23.9746   -8.8760   23.2763 C   0  0  0  0  0  0  0  0  0  0  0  0
  -29.0336  -23.6127   19.4459 C   0  0  0  0  0  0  0  0  0  0  0  0
  -21.3800  -16.4999   15.5266 C   0  0  0  0  0  0  0  0  0  0  0  0
  -25.4340  -13.0974   19.3224 C   0  0  0  0  0  0  0  0  0  0  0  0
  -24.4909  -12.7405   22.1023 C   0  0  0  0  0  0  0  0  0  0  0  0
  -20.8909  -15.3644   16.4220 C   0  0  0  0  0  0  0  0  0  0  0  0
  -30.2586  -26.5190   17.7937 C   0  0  0  0  0  0  0  0  0  0  0  0
  -20.9905  -15.7624   17.8912 C   0  0  0  0  0  0  0  0  0  0  0  0
  -29.9557  -27.6507   18.7785 C   0  0  0  0  0  0  0  0  0  0  0  0
  -29.1567  -25.4609   17.7894 C   0  0  0  0  0  0  0  0  0  0  0  0
  -28.5122  -26.0465   20.0939 C   0  0  0  0  0  0  0  0  0  0  0  0
  -22.4443  -16.0452   18.2888 C   0  0  1  0  0  0  0  0  0  0  0  0
  -23.9655  -12.8392   19.6454 C   0  0  1  0  0  0  0  0  0  0  0  0
  -29.6250  -27.1037   20.1811 C   0  0  2  0  0  0  0  0  0  0  0  0
  -23.4547   -6.6104   24.2218 C   0  0  0  0  0  0  0  0  0  0  0  0
  -30.5985  -16.1887   23.6121 C   0  0  0  0  0  0  0  0  0  0  0  0
  -20.6062  -12.4164   22.7912 C   0  0  0  0  0  0  0  0  0  0  0  0
  -20.7964  -10.4375   24.3130 C   0  0  0  0  0  0  0  0  0  0  0  0
  -20.0985  -10.1206   21.9392 C   0  0  0  0  0  0  0  0  0  0  0  0
  -26.5099   -7.7404   22.2559 C   0  0  0  0  0  0  0  0  0  0  0  0
  -27.1246  -17.8785   24.1950 C   0  0  0  0  0  0  0  0  0  0  0  0
  -28.6262  -17.5958   24.3075 C   0  0  0  0  0  0  0  0  0  0  0  0
  -22.5046  -10.6988   22.4571 C   0  0  1  0  0  0  0  0  0  0  0  0
  -24.2040   -7.3811   23.1460 C   0  0  2  0  0  0  0  0  0  0  0  0
  -29.1202  -16.4772   23.3825 C   0  0  2  0  0  0  0  0  0  1  0  0
  -21.0242  -10.9345   22.8695 C   0  0  0  0  0  0  0  0  0  0  0  0
  -27.9896  -28.5728   21.2984 N   0  0  0  0  0  0  0  0  0  0  0  0
  -25.9077  -17.6680   22.0976 N   0  0  0  0  0  0  0  0  0  0  0  0
  -29.2772  -28.2173   21.1512 N   0  0  0  0  0  0  0  0  0  0  0  0
  -23.7787  -12.1826   20.9408 N   0  0  0  0  0  0  0  0  0  0  0  0
  -28.9007  -24.9860   19.1509 N   0  0  0  0  0  0  0  0  0  0  0  0
  -31.4696  -28.7067   21.9024 N   0  0  0  0  0  0  0  0  0  0  0  0
  -28.9030  -31.6192   24.2102 N   0  0  0  0  0  0  0  0  0  0  0  0
  -28.7970  -23.2840   20.7802 N   0  0  0  0  0  0  0  0  0  0  0  0
  -23.1654  -14.8056   18.4831 N   0  0  0  0  0  0  0  0  0  0  0  0
  -22.9204   -9.3009   22.4957 N   0  0  0  0  0  0  0  0  0  0  0  0
  -25.6557   -7.0672   23.2680 N   0  3  0  0  0  0  0  0  0  0  0  0
  -31.0558  -30.9187   23.8447 O   0  0  0  0  0  0  0  0  0  0  0  0
  -22.5412  -14.4056   20.6906 O   0  0  0  0  0  0  0  0  0  0  0  0
  -22.1835  -10.7007   20.1069 O   0  0  0  0  0  0  0  0  0  0  0  0
  -24.6594   -9.5943   24.0013 O   0  0  0  0  0  0  0  0  0  0  0  0
  -29.3616  -22.7927   18.5844 O   0  0  0  0  0  0  0  0  0  0  0  0
  -23.3623  -32.0995   23.8867 O   0  0  0  0  0  0  0  0  0  0  0  0
  -28.3741  -15.2884   23.6407 O   0  0  0  0  0  0  0  0  0  1  0  0
  -19.0170  -28.9278   25.0961 F   0  0  0  0  0  0  0  0  0  0  0  0
  -28.4185  -22.8816   23.5118 F   0  0  0  0  0  0  0  0  0  0  0  0
  -27.1314  -18.8450   20.0500 F   0  0  0  0  0  0  0  0  0  0  0  0
  -22.2414  -30.4420   21.9791 F   0  0  0  0  0  0  0  0  0  0  0  0
  1  2  1  0  0  0  0
  1  5  2  0  0  0  0
  2  6  2  0  0  0  0
  3  8  2  0  0  0  0
  3 17  1  0  0  0  0
  4  9  1  0  0  0  0
  4 17  2  0  0  0  0
  5 20  1  0  0  0  0
  6 22  1  0  0  0  0
  7 10  2  0  0  0  0
  7 21  1  0  0  0  0
  8 25  1  0  0  0  0
  9 25  2  0  0  0  0
 10 26  1  0  0  0  0
 11 12  2  0  0  0  0
 11 27  1  0  0  0  0
 12 28  1  0  0  0  0
 13 18  1  0  0  0  0
 13 29  2  0  0  0  0
 14 23  1  0  0  0  0
 14 26  2  0  0  0  0
 15 24  2  0  0  0  0
 15 30  1  0  0  0  0
 16 28  2  0  0  0  0
 16 31  1  0  0  0  0
 17 32  1  0  0  0  0
 18 30  2  0  0  0  0
 18 34  1  0  0  0  0
 19 32  1  0  0  0  0
 19 33  2  0  0  0  0
 19 35  1  0  0  0  0
 20 22  2  0  0  0  0
 20 40  1  0  0  0  0
 21 23  2  0  0  0  0
 21 41  1  0  0  0  0
 22 49  1  0  0  0  0
 23 42  1  0  0  0  0
 24 29  1  0  0  0  0
 24 71  1  0  0  0  0
 25 80  1  0  0  0  0
 26 81  1  0  0  0  0
 27 31  2  0  0  0  0
 27 80  1  0  0  0  0
 28 82  1  0  0  0  0
 29 83  1  0  0  0  0
 30 84  1  0  0  0  0
 31 85  1  0  0  0  0
 32 64  2  0  0  0  0
 33 66  1  0  0  0  0
 33 69  1  0  0  0  0
 34 58  1  0  0  0  0
 34 65  2  0  0  0  0
 35 70  1  0  0  0  0
 35 75  2  0  0  0  0
 36 50  1  0  0  0  0
 36 72  1  0  0  0  0
 36 76  2  0  0  0  0
 37 60  1  0  0  0  0
 37 67  1  0  0  0  0
 37 77  2  0  0  0  0
 38 61  1  0  0  0  0
 38 73  1  0  0  0  0
 38 78  2  0  0  0  0
 39 68  1  0  0  0  0
 39 71  1  0  0  0  0
 39 79  2  0  0  0  0
 40 43  1  0  0  0  0
 41 50  1  0  0  0  0
 42 67  1  0  0  0  0
 43 45  1  0  0  0  0
 44 46  1  0  0  0  0
 44 47  1  0  0  0  0
 45 49  1  0  0  0  0
 46 51  1  0  0  0  0
 47 68  1  0  0  0  0
 48 51  1  0  0  0  0
 48 68  1  0  0  0  0
 49 72  1  0  0  0  0
 50 67  1  0  0  0  0
 51 66  1  0  0  0  0
 52 61  1  0  0  0  0
 53 62  1  0  0  0  0
 54 63  1  0  0  0  0
 55 63  1  0  0  0  0
 56 63  1  0  0  0  0
 57 74  1  0  0  0  0
 58 59  1  0  0  0  0
 59 62  1  0  0  0  0
 60 63  1  0  0  0  0
 60 73  1  0  0  0  0
 61 74  1  0  0  0  0
 62 81  1  0  0  0  0
 64 66  1  0  0  0  0
M  CHG  1  74   1
M  ISO  4  39 100  62 101  71 100  81 101
M  END
> <Batch ID>
0136

> <Smiles>
CNC(C)C(=O)NC(C(=O)N1Cc2cc([101O:1][101CH:1](C)CCC(=N)c3cc(F)c([100NH:0][100C:0](=O)N4CCCC(n5nc(-c6ccc(Oc7ccc(F)cc7F)cc6)c(C(N)=O)c5N)C4)cc3F)ccc2CC1C(=O)NC1CCCc2ccccc21)C(C)(C)C

> <Shape>
0.216

> <Color>
0.066

> <Negative vol penalty>
0.000

$$$$

  -OEChem-04052302393D

 87 95  0     1  0  0  0  0  0999 V2000
  -30.6014  -26.2645   17.2332 C   0  0  0  0  0  0  0  0  0  0  0  0
  -29.3136  -26.2277   17.7583 C   0  0  0  0  0  0  0  0  0  0  0  0
  -25.1610  -20.3542   17.7850 C   0  0  0  0  0  0  0  0  0  0  0  0
  -24.4400   -8.9691   21.4045 C   0  0  0  0  0  0  0  0  0  0  0  0
  -22.5269  -10.1227   20.4847 C   0  0  0  0  0  0  0  0  0  0  0  0
  -31.6166  -26.9237   17.9252 C   0  0  0  0  0  0  0  0  0  0  0  0
  -29.0405  -26.8493   18.9763 C   0  0  0  0  0  0  0  0  0  0  0  0
  -24.7581  -29.5499   18.8619 C   0  0  0  0  0  0  0  0  0  0  0  0
  -24.8322  -21.5486   18.4260 C   0  0  0  0  0  0  0  0  0  0  0  0
  -25.4319  -19.2109   18.5368 C   0  0  0  0  0  0  0  0  0  0  0  0
  -23.6671   -7.8200   21.5711 C   0  0  0  0  0  0  0  0  0  0  0  0
  -21.7539   -8.9736   20.6513 C   0  0  0  0  0  0  0  0  0  0  0  0
  -23.5587  -28.8460   18.9604 C   0  0  0  0  0  0  0  0  0  0  0  0
  -21.3583   -6.6665   23.7536 C   0  0  0  0  0  0  0  0  0  0  0  0
  -21.4664   -5.9836   24.9650 C   0  0  0  0  0  0  0  0  0  0  0  0
  -23.4217  -29.4187   21.2997 C   0  0  0  0  0  0  0  0  0  0  0  0
  -25.0454  -20.4565   20.5705 C   0  0  0  0  0  0  0  0  0  0  0  0
  -22.2116   -4.0107   23.7863 C   0  0  0  0  0  0  0  0  0  0  0  0
  -23.8699  -10.1205   20.8613 C   0  0  0  0  0  0  0  0  0  0  0  0
  -25.4267  -11.6659   19.5592 C   0  0  0  0  0  0  0  0  0  0  0  0
  -31.3536  -27.5619   19.1475 C   0  0  0  0  0  0  0  0  0  0  0  0
  -25.3048  -30.1854   19.9861 C   0  0  0  0  0  0  0  0  0  0  0  0
  -30.0534  -27.5166   19.6859 C   0  0  0  0  0  0  0  0  0  0  0  0
  -24.6269  -30.1322   21.2123 C   0  0  0  0  0  0  0  0  0  0  0  0
  -24.7744  -21.5998   19.8187 C   0  0  0  0  0  0  0  0  0  0  0  0
  -25.3741  -19.2620   19.9295 C   0  0  0  0  0  0  0  0  0  0  0  0
  -22.3240   -7.8222   21.1945 C   0  0  0  0  0  0  0  0  0  0  0  0
  -22.8917  -28.7779   20.1801 C   0  0  0  0  0  0  0  0  0  0  0  0
  -21.6767   -6.0215   22.5585 C   0  0  0  0  0  0  0  0  0  0  0  0
  -21.8931   -4.6557   24.9814 C   0  0  0  0  0  0  0  0  0  0  0  0
  -22.1034   -4.6936   22.5749 C   0  0  0  0  0  0  0  0  0  0  0  0
  -24.6677  -11.3079   20.6895 C   0  0  0  0  0  0  0  0  0  0  0  0
  -25.9923  -12.8721   19.8934 C   0  0  0  0  0  0  0  0  0  0  0  0
  -22.8757  -24.3659   23.5307 C   0  0  0  0  0  0  0  0  0  0  0  0
  -25.6046  -10.9704   18.3182 C   0  0  0  0  0  0  0  0  0  0  0  0
  -22.2027  -23.9067   22.4623 C   0  0  0  0  0  0  0  0  0  0  0  0
  -28.0004  -29.8843   21.6434 C   0  0  0  0  0  0  0  0  0  0  0  0
  -26.8792  -32.5014   23.1978 C   0  0  0  0  0  0  0  0  0  0  0  0
  -24.1952  -34.4057   24.1017 C   0  0  0  0  0  0  0  0  0  0  0  0
  -25.6353  -17.9795   22.0820 C   0  0  0  0  0  0  0  0  0  0  0  0
  -32.4938  -28.2215   19.8821 C   0  0  0  0  0  0  0  0  0  0  0  0
  -26.5858  -30.9631   19.8570 C   0  0  0  0  0  0  0  0  0  0  0  0
  -25.1613  -30.8142   22.4442 C   0  0  0  0  0  0  0  0  0  0  0  0
  -32.0382  -29.1756   20.9832 C   0  0  0  0  0  0  0  0  0  0  0  0
  -26.2176  -15.2862   24.3368 C   0  0  0  0  0  0  0  0  0  0  0  0
  -30.9509  -28.5278   21.8347 C   0  0  0  0  0  0  0  0  0  0  0  0
  -25.9287  -14.0405   23.4959 C   0  0  0  0  0  0  0  0  0  0  0  0
  -25.2701  -16.4344   23.9936 C   0  0  0  0  0  0  0  0  0  0  0  0
  -24.9168  -15.5355   21.7272 C   0  0  0  0  0  0  0  0  0  0  0  0
  -29.7123  -28.2002   20.9922 C   0  0  1  0  0  0  0  0  0  0  0  0
  -27.3138  -31.1401   21.1860 C   0  0  1  0  0  0  0  0  0  0  0  0
  -25.8878  -14.3732   21.9915 C   0  0  2  0  0  0  0  0  0  0  0  0
  -21.2188  -22.7779   22.6082 C   0  0  0  0  0  0  0  0  0  0  0  0
  -25.4881  -23.9653   20.2442 C   0  0  0  0  0  0  0  0  0  0  0  0
  -23.5889  -36.4632   25.4042 C   0  0  0  0  0  0  0  0  0  0  0  0
  -27.2502  -30.9581   25.8037 C   0  0  0  0  0  0  0  0  0  0  0  0
  -25.7790  -32.6423   26.9294 C   0  0  0  0  0  0  0  0  0  0  0  0
  -27.9381  -33.3603   25.9069 C   0  0  0  0  0  0  0  0  0  0  0  0
  -23.0856  -35.7380   21.7032 C   0  0  0  0  0  0  0  0  0  0  0  0
  -20.5254  -26.2738   21.3473 C   0  0  0  0  0  0  0  0  0  0  0  0
  -21.1465  -25.1566   20.4933 C   0  0  0  0  0  0  0  0  0  0  0  0
  -23.0196  -23.4400   20.1232 C   0  0  0  0  0  0  0  0  0  0  0  0
  -21.4200  -27.4942   21.5373 C   0  0  0  0  0  0  0  0  0  1  0  0
  -24.4164  -22.9005   20.5160 C   0  0  1  0  0  0  0  0  0  0  0  0
  -22.4249  -24.5108   21.0768 C   0  0  2  0  0  0  0  0  0  0  0  0
  -26.0031  -32.7342   24.4050 C   0  0  1  0  0  0  0  0  0  0  0  0
  -23.9559  -35.9034   24.0386 C   0  0  2  0  0  0  0  0  0  0  0  0
  -26.7333  -32.4091   25.7387 C   0  0  0  0  0  0  0  0  0  0  0  0
  -24.7423  -12.2134   21.6686 N   0  0  0  0  0  0  0  0  0  0  0  0
  -25.5550  -13.1522   21.1546 N   0  0  0  0  0  0  0  0  0  0  0  0
  -26.4204  -31.5569   22.2687 N   0  0  0  0  0  0  0  0  0  0  0  0
  -25.2871  -16.6958   22.5527 N   0  0  0  0  0  0  0  0  0  0  0  0
  -26.8161  -13.7098   19.2287 N   0  0  0  0  0  0  0  0  0  0  0  0
  -24.9511   -9.7433   18.1403 N   0  0  0  0  0  0  0  0  0  0  0  0
  -25.6487  -18.1003   20.6928 N   0  0  0  0  0  0  0  0  0  0  0  0
  -28.9349  -29.3966   20.7499 N   0  0  0  0  0  0  0  0  0  0  0  0
  -25.5265  -34.1094   24.3044 N   0  0  0  0  0  0  0  0  0  0  0  0
  -22.8475  -36.2114   23.0911 N   0  3  0  0  0  0  0  0  0  0  0  0
  -26.3349  -11.4157   17.4006 O   0  0  0  0  0  0  0  0  0  0  0  0
  -27.7054  -29.3950   22.7275 O   0  0  0  0  0  0  0  0  0  0  0  0
  -27.9283  -33.1394   23.0799 O   0  0  0  0  0  0  0  0  0  0  0  0
  -23.2911  -33.5812   23.9866 O   0  0  0  0  0  0  0  0  0  0  0  0
  -25.9285  -18.8962   22.8538 O   0  0  0  0  0  0  0  0  0  0  0  0
  -21.5696   -6.7011   21.3567 O   0  0  0  0  0  0  0  0  0  0  0  0
  -21.7122  -28.0858   20.2799 O   0  0  0  0  0  0  0  0  0  1  0  0
  -21.9984   -4.0006   26.1450 F   0  0  0  0  0  0  0  0  0  0  0  0
  -22.4119   -4.0690   21.4301 F   0  0  0  0  0  0  0  0  0  0  0  0
  1  2  1  0  0  0  0
  1  6  2  0  0  0  0
  2  7  2  0  0  0  0
  3  9  2  0  0  0  0
  3 10  1  0  0  0  0
  4 11  2  0  0  0  0
  4 19  1  0  0  0  0
  5 12  1  0  0  0  0
  5 19  2  0  0  0  0
  6 21  1  0  0  0  0
  7 23  1  0  0  0  0
  8 13  2  0  0  0  0
  8 22  1  0  0  0  0
  9 25  1  0  0  0  0
 10 26  2  0  0  0  0
 11 27  1  0  0  0  0
 12 27  2  0  0  0  0
 13 28  1  0  0  0  0
 14 15  2  0  0  0  0
 14 29  1  0  0  0  0
 15 30  1  0  0  0  0
 16 24  1  0  0  0  0
 16 28  2  0  0  0  0
 17 25  2  0  0  0  0
 17 26  1  0  0  0  0
 18 30  2  0  0  0  0
 18 31  1  0  0  0  0
 19 32  1  0  0  0  0
 20 32  1  0  0  0  0
 20 33  2  0  0  0  0
 20 35  1  0  0  0  0
 21 23  2  0  0  0  0
 21 41  1  0  0  0  0
 22 24  2  0  0  0  0
 22 42  1  0  0  0  0
 23 50  1  0  0  0  0
 24 43  1  0  0  0  0
 25 64  1  0  0  0  0
 26 75  1  0  0  0  0
 27 84  1  0  0  0  0
 28 85  1  0  0  0  0
 29 31  2  0  0  0  0
 29 84  1  0  0  0  0
 30 86  1  0  0  0  0
 31 87  1  0  0  0  0
 32 69  2  0  0  0  0
 33 70  1  0  0  0  0
 33 73  1  0  0  0  0
 34 36  2  0  0  0  0
 35 74  1  0  0  0  0
 35 79  2  0  0  0  0
 36 53  1  0  0  0  0
 36 65  1  0  0  0  0
 37 51  1  0  0  0  0
 37 76  1  0  0  0  0
 37 80  2  0  0  0  0
 38 66  1  0  0  0  0
 38 71  1  0  0  0  0
 38 81  2  0  0  0  0
 39 67  1  0  0  0  0
 39 77  1  0  0  0  0
 39 82  2  0  0  0  0
 40 72  1  0  0  0  0
 40 75  1  0  0  0  0
 40 83  2  0  0  0  0
 41 44  1  0  0  0  0
 42 51  1  0  0  0  0
 43 71  1  0  0  0  0
 44 46  1  0  0  0  0
 45 47  1  0  0  0  0
 45 48  1  0  0  0  0
 46 50  1  0  0  0  0
 47 52  1  0  0  0  0
 48 72  1  0  0  0  0
 49 52  1  0  0  0  0
 49 72  1  0  0  0  0
 50 76  1  0  0  0  0
 51 71  1  0  0  0  0
 52 70  1  0  0  0  0
 54 64  1  0  0  0  0
 55 67  1  0  0  0  0
 56 68  1  0  0  0  0
 57 68  1  0  0  0  0
 58 68  1  0  0  0  0
 59 78  1  0  0  0  0
 60 61  1  0  0  0  0
 60 63  1  0  0  0  0
 61 65  1  0  0  0  0
 62 64  1  0  0  0  0
 62 65  1  0  0  0  0
 63 85  1  0  0  0  0
 66 68  1  0  0  0  0
 66 77  1  0  0  0  0
 67 78  1  0  0  0  0
 69 70  1  0  0  0  0
M  CHG  1  78   1
M  ISO  4  40 100  63 101  75 100  85 101
M  END
> <Batch ID>
0136

> <Smiles>
C=C(C)C(CC[101CH2:1][101O:1]c1ccc2c(c1)CN(C(=O)C(NC(=O)C(C)NC)C(C)(C)C)C(C(=O)NC1CCCc3ccccc31)C2)CC(C)c1cccc([100NH:0][100C:0](=O)N2CCCC(n3nc(-c4ccc(Oc5ccc(F)cc5F)cc4)c(C(N)=O)c3N)C2)c1

> <Shape>
0.288

> <Color>
0.087

> <Negative vol penalty>
0.000

$$$$

  -OEChem-04052302393D

 88 96  0     1  0  0  0  0  0999 V2000
  -24.8516  -25.2472   15.4221 C   0  0  0  0  0  0  0  0  0  0  0  0
  -25.2223  -25.5734   16.7227 C   0  0  0  0  0  0  0  0  0  0  0  0
  -32.6639  -17.4276   23.4354 C   0  0  0  0  0  0  0  0  0  0  0  0
  -22.9998   -9.8939   19.9824 C   0  0  0  0  0  0  0  0  0  0  0  0
  -23.7211   -9.9503   22.2875 C   0  0  0  0  0  0  0  0  0  0  0  0
  -23.5273  -25.4045   15.0157 C   0  0  0  0  0  0  0  0  0  0  0  0
  -24.2689  -26.0582   17.6174 C   0  0  0  0  0  0  0  0  0  0  0  0
  -24.6089  -23.8911   22.1817 C   0  0  0  0  0  0  0  0  0  0  0  0
  -32.0567  -16.5375   22.5497 C   0  0  0  0  0  0  0  0  0  0  0  0
  -31.8863  -18.3351   24.1549 C   0  0  0  0  0  0  0  0  0  0  0  0
  -22.2324   -8.7604   20.2502 C   0  0  0  0  0  0  0  0  0  0  0  0
  -22.9536   -8.8167   22.5553 C   0  0  0  0  0  0  0  0  0  0  0  0
  -25.6214  -24.3427   23.0272 C   0  0  0  0  0  0  0  0  0  0  0  0
  -23.1974   -5.4766   22.0920 C   0  0  0  0  0  0  0  0  0  0  0  0
  -23.7833   -4.4610   22.8476 C   0  0  0  0  0  0  0  0  0  0  0  0
  -24.0202  -25.7101   24.2044 C   0  0  0  0  0  0  0  0  0  0  0  0
  -22.0567   -4.7087   24.5193 C   0  0  0  0  0  0  0  0  0  0  0  0
  -23.7442  -10.4889   21.0010 C   0  0  0  0  0  0  0  0  0  0  0  0
  -24.1308  -13.0039   20.8195 C   0  0  0  0  0  0  0  0  0  0  0  0
  -22.5552  -25.8824   15.9087 C   0  0  0  0  0  0  0  0  0  0  0  0
  -23.2943  -24.3547   22.3346 C   0  0  0  0  0  0  0  0  0  0  0  0
  -22.9306  -26.2233   17.2221 C   0  0  0  0  0  0  0  0  0  0  0  0
  -22.9924  -25.2609   23.3612 C   0  0  0  0  0  0  0  0  0  0  0  0
  -29.8943  -17.4623   23.1027 C   0  0  0  0  0  0  0  0  0  0  0  0
  -30.6719  -16.5548   22.3833 C   0  0  0  0  0  0  0  0  0  0  0  0
  -22.2093   -8.2218   21.5366 C   0  0  0  0  0  0  0  0  0  0  0  0
  -25.3277  -25.2545   24.0368 C   0  0  0  0  0  0  0  0  0  0  0  0
  -30.5015  -18.3524   23.9885 C   0  0  0  0  0  0  0  0  0  0  0  0
  -22.0412   -6.1083   22.5501 C   0  0  0  0  0  0  0  0  0  0  0  0
  -23.2129   -4.0770   24.0612 C   0  0  0  0  0  0  0  0  0  0  0  0
  -21.4708   -5.7243   23.7637 C   0  0  0  0  0  0  0  0  0  0  0  0
  -24.5376  -11.6595   20.7249 C   0  0  0  0  0  0  0  0  0  0  0  0
  -25.2415  -13.7251   20.4552 C   0  0  0  0  0  0  0  0  0  0  0  0
  -22.8624  -13.5517   21.2025 C   0  0  0  0  0  0  0  0  0  0  0  0
  -21.2652  -25.9872   20.5121 C   0  0  0  0  0  0  0  0  0  0  0  0
  -28.7821  -21.4567   24.7244 C   0  0  0  0  0  0  0  0  0  0  0  0
  -19.1936  -25.3510   22.9258 C   0  0  0  0  0  0  0  0  0  0  0  0
  -18.7292  -24.5849   26.2189 C   0  0  0  0  0  0  0  0  0  0  0  0
  -30.7209  -14.6847   20.6961 C   0  0  0  0  0  0  0  0  0  0  0  0
  -21.1458  -26.0803   15.4097 C   0  0  0  0  0  0  0  0  0  0  0  0
  -22.2085  -23.8375   21.4314 C   0  0  0  0  0  0  0  0  0  0  0  0
  -21.5933  -25.7738   23.5802 C   0  0  0  0  0  0  0  0  0  0  0  0
  -20.1210  -26.2457   16.5289 C   0  0  0  0  0  0  0  0  0  0  0  0
  -29.6056  -12.2266   18.3743 C   0  0  0  0  0  0  0  0  0  0  0  0
  -20.6280  -27.2329   17.5754 C   0  0  0  0  0  0  0  0  0  0  0  0
  -28.1542  -11.9705   18.7866 C   0  0  0  0  0  0  0  0  0  0  0  0
  -30.5042  -12.4726   19.5850 C   0  0  0  0  0  0  0  0  0  0  0  0
  -28.5869  -13.2654   20.9134 C   0  0  0  0  0  0  0  0  0  0  0  0
  -21.9203  -26.7287   18.2291 C   0  0  1  0  0  0  0  0  0  0  0  0
  -21.0031  -24.7692   21.3520 C   0  0  1  0  0  0  0  0  0  0  0  0
  -27.6311  -13.0765   19.7240 C   0  0  2  0  0  0  0  0  0  0  0  0
  -27.9904  -18.1827   21.6389 C   0  0  0  0  0  0  0  0  0  0  0  0
  -16.9212  -24.1647   27.9076 C   0  0  0  0  0  0  0  0  0  0  0  0
  -18.6294  -28.3465   23.0635 C   0  0  0  0  0  0  0  0  0  0  0  0
  -17.5962  -27.9777   25.3140 C   0  0  0  0  0  0  0  0  0  0  0  0
  -16.6081  -26.8924   23.2970 C   0  0  0  0  0  0  0  0  0  0  0  0
  -28.0589  -25.5643   23.2199 C   0  0  0  0  0  0  0  0  0  0  0  0
  -28.5657  -25.8340   25.6621 C   0  0  0  0  0  0  0  0  0  0  0  0
  -19.6859  -21.8312   26.7297 C   0  0  0  0  0  0  0  0  0  0  0  0
  -28.4081  -17.4895   22.9310 C   0  0  0  0  0  0  0  0  0  0  0  0
  -28.9248  -22.9575   24.5670 C   0  0  0  0  0  0  0  0  0  0  0  0
  -30.0300  -20.6245   24.5092 C   0  0  0  0  0  0  0  0  0  0  0  0
  -27.5982  -23.6606   24.8552 C   0  0  0  0  0  0  0  0  0  0  0  0
  -18.8059  -26.0406   24.2116 C   0  0  1  0  0  0  0  0  0  0  0  0
  -17.8674  -23.5352   26.8970 C   0  0  2  0  0  0  0  0  0  0  0  0
  -17.9368  -27.3063   23.9665 C   0  0  0  0  0  0  0  0  0  0  0  0
  -27.6275  -25.1863   24.6386 C   0  0  0  0  0  0  0  0  0  1  0  0
  -25.8075  -11.5315   20.3311 N   0  0  0  0  0  0  0  0  0  0  0  0
  -26.2082  -12.8048   20.1751 N   0  0  0  0  0  0  0  0  0  0  0  0
  -20.5674  -25.2432   22.6672 N   0  0  0  0  0  0  0  0  0  0  0  0
  -29.9481  -13.5358   20.4248 N   0  0  0  0  0  0  0  0  0  0  0  0
  -25.4756  -15.0505   20.3503 N   0  0  0  0  0  0  0  0  0  0  0  0
  -21.8297  -12.6688   21.5465 N   0  0  0  0  0  0  0  0  0  0  0  0
  -30.0757  -15.6421   21.4782 N   0  0  0  0  0  0  0  0  0  0  0  0
  -21.6251  -25.7046   19.2082 N   0  0  0  0  0  0  0  0  0  0  0  0
  -18.1642  -25.0266   25.0412 N   0  0  0  0  0  0  0  0  0  0  0  0
  -18.7226  -22.5434   27.6083 N   0  3  0  0  0  0  0  0  0  0  0  0
  -22.6461  -14.7872   21.2229 O   0  0  0  0  0  0  0  0  0  0  0  0
  -21.1482  -27.1009   21.0097 O   0  0  0  0  0  0  0  0  0  0  0  0
  -27.7022  -20.9515   25.0304 O   0  0  0  0  0  0  0  0  0  0  0  0
  -18.3103  -24.9175   22.1820 O   0  0  0  0  0  0  0  0  0  0  0  0
  -19.7951  -24.9767   26.6889 O   0  0  0  0  0  0  0  0  0  0  0  0
  -31.8604  -14.8221   20.2437 O   0  0  0  0  0  0  0  0  0  0  0  0
  -21.4603   -7.1158   21.7984 O   0  0  0  0  0  0  0  0  0  0  0  0
  -29.7523  -19.2538   24.7066 O   0  0  0  0  0  0  0  0  0  0  0  0
  -26.3142  -25.6974   24.8630 O   0  0  0  0  0  0  0  0  0  1  0  0
  -23.7748   -3.1007   24.7859 F   0  0  0  0  0  0  0  0  0  0  0  0
  -20.3594   -6.3267   24.2084 F   0  0  0  0  0  0  0  0  0  0  0  0
  1  2  1  0  0  0  0
  1  6  2  0  0  0  0
  2  7  2  0  0  0  0
  3  9  1  0  0  0  0
  3 10  2  0  0  0  0
  4 11  2  0  0  0  0
  4 18  1  0  0  0  0
  5 12  1  0  0  0  0
  5 18  2  0  0  0  0
  6 20  1  0  0  0  0
  7 22  1  0  0  0  0
  8 13  2  0  0  0  0
  8 21  1  0  0  0  0
  9 25  2  0  0  0  0
 10 28  1  0  0  0  0
 11 26  1  0  0  0  0
 12 26  2  0  0  0  0
 13 27  1  0  0  0  0
 14 15  2  0  0  0  0
 14 29  1  0  0  0  0
 15 30  1  0  0  0  0
 16 23  1  0  0  0  0
 16 27  2  0  0  0  0
 17 30  2  0  0  0  0
 17 31  1  0  0  0  0
 18 32  1  0  0  0  0
 19 32  1  0  0  0  0
 19 33  2  0  0  0  0
 19 34  1  0  0  0  0
 20 22  2  0  0  0  0
 20 40  1  0  0  0  0
 21 23  2  0  0  0  0
 21 41  1  0  0  0  0
 22 49  1  0  0  0  0
 23 42  1  0  0  0  0
 24 25  1  0  0  0  0
 24 28  2  0  0  0  0
 24 60  1  0  0  0  0
 25 74  1  0  0  0  0
 26 84  1  0  0  0  0
 27 86  1  0  0  0  0
 28 85  1  0  0  0  0
 29 31  2  0  0  0  0
 29 84  1  0  0  0  0
 30 87  1  0  0  0  0
 31 88  1  0  0  0  0
 32 68  2  0  0  0  0
 33 69  1  0  0  0  0
 33 72  1  0  0  0  0
 34 73  1  0  0  0  0
 34 78  2  0  0  0  0
 35 50  1  0  0  0  0
 35 75  1  0  0  0  0
 35 79  2  0  0  0  0
 36 61  1  0  0  0  0
 36 62  1  0  0  0  0
 36 80  2  0  0  0  0
 37 64  1  0  0  0  0
 37 70  1  0  0  0  0
 37 81  2  0  0  0  0
 38 65  1  0  0  0  0
 38 76  1  0  0  0  0
 38 82  2  0  0  0  0
 39 71  1  0  0  0  0
 39 74  1  0  0  0  0
 39 83  2  0  0  0  0
 40 43  1  0  0  0  0
 41 50  1  0  0  0  0
 42 70  1  0  0  0  0
 43 45  1  0  0  0  0
 44 46  1  0  0  0  0
 44 47  1  0  0  0  0
 45 49  1  0  0  0  0
 46 51  1  0  0  0  0
 47 71  1  0  0  0  0
 48 51  1  0  0  0  0
 48 71  1  0  0  0  0
 49 75  1  0  0  0  0
 50 70  1  0  0  0  0
 51 69  1  0  0  0  0
 52 60  1  0  0  0  0
 53 65  1  0  0  0  0
 54 66  1  0  0  0  0
 55 66  1  0  0  0  0
 56 66  1  0  0  0  0
 57 67  1  0  0  0  0
 58 67  1  0  0  0  0
 59 77  1  0  0  0  0
 61 63  1  0  0  0  0
 62 85  1  0  0  0  0
 63 67  1  0  0  0  0
 64 66  1  0  0  0  0
 64 76  1  0  0  0  0
 65 77  1  0  0  0  0
 67 86  1  0  0  0  0
 68 69  1  0  0  0  0
M  CHG  1  77   1
M  ISO  4  39 100  67 101  74 100  86 101
M  END
> <Batch ID>
0136

> <Smiles>
CCc1c([100NH:0][100C:0](=O)N2CCCC(n3nc(-c4ccc(Oc5ccc(F)cc5F)cc4)c(C(N)=O)c3N)C2)cccc1OCC(=O)CC[101C:1](C)(C)[101O:1]c1ccc2c(c1)CN(C(=O)C(NC(=O)C(C)NC)C(C)(C)C)C(C(=O)NC1CCCc3ccccc31)C2

> <Shape>
0.215

> <Color>
0.189

> <Negative vol penalty>
0.000

$$$$

  -OEChem-04052302393D

 83 91  0     1  0  0  0  0  0999 V2000
  -29.0614  -25.6931   15.8917 C   0  0  0  0  0  0  0  0  0  0  0  0
  -27.8715  -25.6313   16.6098 C   0  0  0  0  0  0  0  0  0  0  0  0
  -25.1412  -14.4769   18.3444 C   0  0  0  0  0  0  0  0  0  0  0  0
  -23.3642  -14.5267   19.9806 C   0  0  0  0  0  0  0  0  0  0  0  0
  -30.1788  -26.3139   16.4483 C   0  0  0  0  0  0  0  0  0  0  0  0
  -27.7987  -26.1894   17.8856 C   0  0  0  0  0  0  0  0  0  0  0  0
  -23.5778  -28.8993   18.5826 C   0  0  0  0  0  0  0  0  0  0  0  0
  -25.6493  -13.3181   18.9315 C   0  0  0  0  0  0  0  0  0  0  0  0
  -23.8723  -13.3679   20.5677 C   0  0  0  0  0  0  0  0  0  0  0  0
  -22.4018  -28.1932   18.8323 C   0  0  0  0  0  0  0  0  0  0  0  0
  -23.8260  -10.0438   19.9606 C   0  0  0  0  0  0  0  0  0  0  0  0
  -22.9196   -9.0382   20.2963 C   0  0  0  0  0  0  0  0  0  0  0  0
  -22.6387  -28.6442   21.1902 C   0  0  0  0  0  0  0  0  0  0  0  0
  -21.0943  -23.8064   22.5043 C   0  0  0  0  0  0  0  0  0  0  0  0
  -23.5836   -9.2130   22.6127 C   0  0  0  0  0  0  0  0  0  0  0  0
  -19.3919  -22.7890   23.7163 C   0  0  0  0  0  0  0  0  0  0  0  0
  -23.9987  -15.0812   18.8690 C   0  0  0  0  0  0  0  0  0  0  0  0
  -22.5229  -16.3612   17.2284 C   0  0  0  0  0  0  0  0  0  0  0  0
  -30.1169  -26.8884   17.7276 C   0  0  0  0  0  0  0  0  0  0  0  0
  -24.3001  -29.4748   19.6379 C   0  0  0  0  0  0  0  0  0  0  0  0
  -28.9167  -26.8173   18.4604 C   0  0  0  0  0  0  0  0  0  0  0  0
  -23.8222  -29.3593   20.9510 C   0  0  0  0  0  0  0  0  0  0  0  0
  -20.0321  -23.9767   23.4385 C   0  0  0  0  0  0  0  0  0  0  0  0
  -25.0149  -12.7636   20.0431 C   0  0  0  0  0  0  0  0  0  0  0  0
  -21.9336  -28.0631   20.1365 C   0  0  0  0  0  0  0  0  0  0  0  0
  -24.6113  -10.6340   20.9509 C   0  0  0  0  0  0  0  0  0  0  0  0
  -22.7983   -8.6228   21.6223 C   0  0  0  0  0  0  0  0  0  0  0  0
  -24.4901  -10.2186   22.2769 C   0  0  0  0  0  0  0  0  0  0  0  0
  -23.4737  -16.2786   18.2633 C   0  0  0  0  0  0  0  0  0  0  0  0
  -22.3634  -17.7086   17.0154 C   0  0  0  0  0  0  0  0  0  0  0  0
  -21.2258  -22.4948   22.1037 C   0  0  0  0  0  0  0  0  0  0  0  0
  -21.8445  -15.3135   16.5228 C   0  0  0  0  0  0  0  0  0  0  0  0
  -27.2190  -29.0839   20.8339 C   0  0  0  0  0  0  0  0  0  0  0  0
  -26.3808  -31.6188   22.6763 C   0  0  0  0  0  0  0  0  0  0  0  0
  -23.8904  -33.4781   24.0860 C   0  0  0  0  0  0  0  0  0  0  0  0
  -23.1535  -22.5111   20.4820 C   0  0  0  0  0  0  0  0  0  0  0  0
  -31.3645  -27.5071   18.3067 C   0  0  0  0  0  0  0  0  0  0  0  0
  -25.5526  -30.2560   19.3491 C   0  0  0  0  0  0  0  0  0  0  0  0
  -24.5497  -29.9757   22.1168 C   0  0  0  0  0  0  0  0  0  0  0  0
  -31.0964  -28.4037   19.5128 C   0  0  0  0  0  0  0  0  0  0  0  0
  -24.7278  -21.8594   17.3557 C   0  0  0  0  0  0  0  0  0  0  0  0
  -30.1497  -27.7145   20.4904 C   0  0  0  0  0  0  0  0  0  0  0  0
  -24.4930  -20.3630   17.1365 C   0  0  0  0  0  0  0  0  0  0  0  0
  -24.9783  -22.1846   18.8271 C   0  0  0  0  0  0  0  0  0  0  0  0
  -23.7225  -20.1876   19.5371 C   0  0  0  0  0  0  0  0  0  0  0  0
  -28.7912  -27.4329   19.8372 C   0  0  1  0  0  0  0  0  0  0  0  0
  -26.4815  -30.3628   20.5545 C   0  0  1  0  0  0  0  0  0  0  0  0
  -23.4013  -19.8199   18.0792 C   0  0  2  0  0  0  0  0  0  0  0  0
  -23.5157  -35.4663   25.5706 C   0  0  0  0  0  0  0  0  0  0  0  0
  -17.9675  -27.2913   21.0196 C   0  0  0  0  0  0  0  0  0  0  0  0
  -27.1406  -29.9420   25.1096 C   0  0  0  0  0  0  0  0  0  0  0  0
  -25.8804  -31.5680   26.5365 C   0  0  0  0  0  0  0  0  0  0  0  0
  -27.8595  -32.3345   25.2257 C   0  0  0  0  0  0  0  0  0  0  0  0
  -18.3874  -27.4605   24.1293 C   0  0  0  0  0  0  0  0  0  0  0  0
  -17.2334  -25.4213   23.2962 C   0  0  0  0  0  0  0  0  0  0  0  0
  -22.4316  -34.9347   21.9625 C   0  0  0  0  0  0  0  0  0  0  0  0
  -19.6532  -25.3060   24.0528 C   0  0  0  0  0  0  0  0  0  0  0  0
  -20.3646  -27.2800   21.7430 C   0  0  0  0  0  0  0  0  0  1  0  0
  -25.7071  -31.7901   24.0163 C   0  0  1  0  0  0  0  0  0  0  0  0
  -23.6587  -34.9775   24.1376 C   0  0  2  0  0  0  0  0  0  0  0  0
  -19.0298  -26.5128   21.8218 C   0  0  1  0  0  0  0  0  0  0  0  0
  -26.6340  -31.3953   25.2005 C   0  0  0  0  0  0  0  0  0  0  0  0
  -18.5864  -26.1711   23.2958 C   0  0  0  0  0  0  0  0  0  0  0  0
  -23.8892  -17.4781   18.6787 N   0  0  0  0  0  0  0  0  0  0  0  0
  -23.1962  -18.3271   17.9009 N   0  0  0  0  0  0  0  0  0  0  0  0
  -25.7729  -30.7244   21.7838 N   0  0  0  0  0  0  0  0  0  0  0  0
  -23.9018  -21.6428   19.6593 N   0  0  0  0  0  0  0  0  0  0  0  0
  -21.5936  -18.4129   16.1589 N   0  0  0  0  0  0  0  0  0  0  0  0
  -22.1258  -13.9846   16.8678 N   0  0  0  0  0  0  0  0  0  0  0  0
  -22.1354  -21.8877   21.2027 N   0  0  0  0  0  0  0  0  0  0  0  0
  -27.9972  -28.6416   19.7811 N   0  0  0  0  0  0  0  0  0  0  0  0
  -25.2340  -33.1695   24.0619 N   0  0  0  0  0  0  0  0  0  0  0  0
  -22.4186  -35.3359   23.3929 N   0  3  0  0  0  0  0  0  0  0  0  0
  -21.0255  -15.5486   15.6022 O   0  0  0  0  0  0  0  0  0  0  0  0
  -27.0928  -28.5395   21.9245 O   0  0  0  0  0  0  0  0  0  0  0  0
  -27.4046  -32.2603   22.4277 O   0  0  0  0  0  0  0  0  0  0  0  0
  -22.9714  -32.6622   24.0725 O   0  0  0  0  0  0  0  0  0  0  0  0
  -23.3803  -23.7231   20.5221 O   0  0  0  0  0  0  0  0  0  0  0  0
  -25.5102  -11.6328   20.6161 O   0  0  0  0  0  0  0  0  0  0  0  0
  -20.7864  -27.3740   20.3830 O   0  0  0  0  0  0  0  0  0  1  0  0
  -21.9267   -7.6582   21.9448 F   0  0  0  0  0  0  0  0  0  0  0  0
  -25.2409  -10.7827   23.2329 F   0  0  0  0  0  0  0  0  0  0  0  0
  -20.0714  -21.4756   22.8526 S   0  0  0  0  0  0  0  0  0  0  0  0
  1  2  1  0  0  0  0
  1  5  2  0  0  0  0
  2  6  2  0  0  0  0
  3  8  2  0  0  0  0
  3 17  1  0  0  0  0
  4  9  1  0  0  0  0
  4 17  2  0  0  0  0
  5 19  1  0  0  0  0
  6 21  1  0  0  0  0
  7 10  2  0  0  0  0
  7 20  1  0  0  0  0
  8 24  1  0  0  0  0
  9 24  2  0  0  0  0
 10 25  1  0  0  0  0
 11 12  2  0  0  0  0
 11 26  1  0  0  0  0
 12 27  1  0  0  0  0
 13 22  1  0  0  0  0
 13 25  2  0  0  0  0
 14 23  1  0  0  0  0
 14 31  2  0  0  0  0
 15 27  2  0  0  0  0
 15 28  1  0  0  0  0
 16 23  2  0  0  0  0
 16 83  1  0  0  0  0
 17 29  1  0  0  0  0
 18 29  1  0  0  0  0
 18 30  2  0  0  0  0
 18 32  1  0  0  0  0
 19 21  2  0  0  0  0
 19 37  1  0  0  0  0
 20 22  2  0  0  0  0
 20 38  1  0  0  0  0
 21 46  1  0  0  0  0
 22 39  1  0  0  0  0
 23 57  1  0  0  0  0
 24 79  1  0  0  0  0
 25 80  1  0  0  0  0
 26 28  2  0  0  0  0
 26 79  1  0  0  0  0
 27 81  1  0  0  0  0
 28 82  1  0  0  0  0
 29 64  2  0  0  0  0
 30 65  1  0  0  0  0
 30 68  1  0  0  0  0
 31 70  1  0  0  0  0
 31 83  1  0  0  0  0
 32 69  1  0  0  0  0
 32 74  2  0  0  0  0
 33 47  1  0  0  0  0
 33 71  1  0  0  0  0
 33 75  2  0  0  0  0
 34 59  1  0  0  0  0
 34 66  1  0  0  0  0
 34 76  2  0  0  0  0
 35 60  1  0  0  0  0
 35 72  1  0  0  0  0
 35 77  2  0  0  0  0
 36 67  1  0  0  0  0
 36 70  1  0  0  0  0
 36 78  2  0  0  0  0
 37 40  1  0  0  0  0
 38 47  1  0  0  0  0
 39 66  1  0  0  0  0
 40 42  1  0  0  0  0
 41 43  1  0  0  0  0
 41 44  1  0  0  0  0
 42 46  1  0  0  0  0
 43 48  1  0  0  0  0
 44 67  1  0  0  0  0
 45 48  1  0  0  0  0
 45 67  1  0  0  0  0
 46 71  1  0  0  0  0
 47 66  1  0  0  0  0
 48 65  1  0  0  0  0
 49 60  1  0  0  0  0
 50 61  1  0  0  0  0
 51 62  1  0  0  0  0
 52 62  1  0  0  0  0
 53 62  1  0  0  0  0
 54 63  1  0  0  0  0
 55 63  1  0  0  0  0
 56 73  1  0  0  0  0
 57 63  1  0  0  0  0
 58 61  1  0  0  0  0
 58 80  1  0  0  0  0
 59 62  1  0  0  0  0
 59 72  1  0  0  0  0
 60 73  1  0  0  0  0
 61 63  1  0  0  0  0
 64 65  1  0  0  0  0
M  CHG  1  73   1
M  ISO  4  36 100  58 101  70 100  80 101
M  END
> <Batch ID>
0136

> <Smiles>
CNC(C)C(=O)NC(C(=O)N1Cc2cc([101O:1][101CH2:1]C(C)C(C)(C)Cc3csc([100NH:0][100C:0](=O)N4CCCC(n5nc(-c6ccc(Oc7ccc(F)cc7F)cc6)c(C(N)=O)c5N)C4)c3)ccc2CC1C(=O)NC1CCCc2ccccc21)C(C)(C)C

> <Shape>
0.240

> <Color>
0.083

> <Negative vol penalty>
0.000

$$$$

  -OEChem-04052302393D

 89 97  0     1  0  0  0  0  0999 V2000
  -18.5964  -32.6407   20.2637 C   0  0  0  0  0  0  0  0  0  0  0  0
  -19.8478  -32.2248   19.8206 C   0  0  0  0  0  0  0  0  0  0  0  0
  -24.3024   -9.4268   22.0875 C   0  0  0  0  0  0  0  0  0  0  0  0
  -23.2159  -10.3077   20.1176 C   0  0  0  0  0  0  0  0  0  0  0  0
  -18.2005  -32.3805   21.5750 C   0  0  0  0  0  0  0  0  0  0  0  0
  -20.7046  -31.5494   20.6890 C   0  0  0  0  0  0  0  0  0  0  0  0
  -24.6369  -27.0817   19.2458 C   0  0  0  0  0  0  0  0  0  0  0  0
  -23.2714   -8.5001   22.2418 C   0  0  0  0  0  0  0  0  0  0  0  0
  -22.1848   -9.3809   20.2719 C   0  0  0  0  0  0  0  0  0  0  0  0
  -26.0087  -27.0837   18.9970 C   0  0  0  0  0  0  0  0  0  0  0  0
  -22.3528   -5.5457   20.8779 C   0  0  0  0  0  0  0  0  0  0  0  0
  -22.7044   -4.2264   21.1632 C   0  0  0  0  0  0  0  0  0  0  0  0
  -30.3468  -19.6838   16.6621 C   0  0  0  0  0  0  0  0  0  0  0  0
  -29.0375  -19.5178   18.6857 C   0  0  0  0  0  0  0  0  0  0  0  0
  -26.4194  -26.4563   21.2897 C   0  0  0  0  0  0  0  0  0  0  0  0
  -29.1751  -17.6349   17.1781 C   0  0  0  0  0  0  0  0  0  0  0  0
  -21.4608   -4.3424   23.2314 C   0  0  0  0  0  0  0  0  0  0  0  0
  -24.2746  -10.3306   21.0254 C   0  0  0  0  0  0  0  0  0  0  0  0
  -29.8645  -20.2561   17.8392 C   0  0  0  0  0  0  0  0  0  0  0  0
  -26.5301  -11.1218   20.1341 C   0  0  0  0  0  0  0  0  0  0  0  0
  -19.0491  -31.6931   22.4571 C   0  0  0  0  0  0  0  0  0  0  0  0
  -24.1457  -26.7771   20.5235 C   0  0  0  0  0  0  0  0  0  0  0  0
  -20.3203  -31.2810   22.0138 C   0  0  0  0  0  0  0  0  0  0  0  0
  -25.0408  -26.4486   21.5516 C   0  0  0  0  0  0  0  0  0  0  0  0
  -30.0020  -18.3732   16.3316 C   0  0  0  0  0  0  0  0  0  0  0  0
  -28.6928  -18.2072   18.3553 C   0  0  0  0  0  0  0  0  0  0  0  0
  -22.2126   -8.4771   21.3340 C   0  0  0  0  0  0  0  0  0  0  0  0
  -26.9003  -26.7738   20.0197 C   0  0  0  0  0  0  0  0  0  0  0  0
  -21.5553   -6.2634   21.7693 C   0  0  0  0  0  0  0  0  0  0  0  0
  -22.2584   -3.6247   22.3400 C   0  0  0  0  0  0  0  0  0  0  0  0
  -21.1093   -5.6617   22.9460 C   0  0  0  0  0  0  0  0  0  0  0  0
  -25.3391  -11.2885   20.8658 C   0  0  0  0  0  0  0  0  0  0  0  0
  -27.2007  -12.3097   20.2943 C   0  0  0  0  0  0  0  0  0  0  0  0
  -30.5930  -25.4275   17.1555 C   0  0  0  0  0  0  0  0  0  0  0  0
  -30.2329  -21.6515   18.1916 C   0  0  0  0  0  0  0  0  0  0  0  0
  -26.9892   -9.9940   19.3771 C   0  0  0  0  0  0  0  0  0  0  0  0
  -31.4313  -24.4021   16.9091 C   0  0  0  0  0  0  0  0  0  0  0  0
  -30.0299  -25.7956   18.4872 C   0  0  0  0  0  0  0  0  0  0  0  0
  -22.4567  -28.3479   22.7106 C   0  0  0  0  0  0  0  0  0  0  0  0
  -22.4853  -25.4808   24.2276 C   0  0  0  0  0  0  0  0  0  0  0  0
  -24.0075  -22.4610   24.6868 C   0  0  0  0  0  0  0  0  0  0  0  0
  -27.2876  -17.8757   20.4197 C   0  0  0  0  0  0  0  0  0  0  0  0
  -18.5963  -31.4766   23.8793 C   0  0  0  0  0  0  0  0  0  0  0  0
  -22.6619  -26.7532   20.7688 C   0  0  0  0  0  0  0  0  0  0  0  0
  -24.5636  -26.0947   22.9356 C   0  0  0  0  0  0  0  0  0  0  0  0
  -19.4140  -30.4255   24.6256 C   0  0  0  0  0  0  0  0  0  0  0  0
  -26.3097  -16.2015   23.4060 C   0  0  0  0  0  0  0  0  0  0  0  0
  -20.9059  -30.6529   24.4030 C   0  0  0  0  0  0  0  0  0  0  0  0
  -26.0680  -14.7603   22.9511 C   0  0  0  0  0  0  0  0  0  0  0  0
  -25.8683  -17.2116   22.3483 C   0  0  0  0  0  0  0  0  0  0  0  0
  -26.1896  -15.5536   20.5547 C   0  0  0  0  0  0  0  0  0  0  0  0
  -21.2681  -30.5239   22.9185 C   0  0  1  0  0  0  0  0  0  0  0  0
  -22.2965  -26.9302   22.2393 C   0  0  1  0  0  0  0  0  0  0  0  0
  -26.6785  -14.4984   21.5603 C   0  0  2  0  0  0  0  0  0  0  0  0
  -31.8994  -24.1824   15.4876 C   0  0  0  0  0  0  0  0  0  0  0  0
  -33.4701  -23.4223   18.0397 C   0  0  0  0  0  0  0  0  0  0  0  0
  -23.8205  -20.3432   26.0198 C   0  0  0  0  0  0  0  0  0  0  0  0
  -23.5823  -26.9295   26.6786 C   0  0  0  0  0  0  0  0  0  0  0  0
  -24.2568  -24.7039   27.6059 C   0  0  0  0  0  0  0  0  0  0  0  0
  -21.8491  -25.1976   27.1794 C   0  0  0  0  0  0  0  0  0  0  0  0
  -23.6819  -20.8173   22.2473 C   0  0  0  0  0  0  0  0  0  0  0  0
  -28.6631  -26.4467   18.4572 C   0  0  0  0  0  0  0  0  0  1  0  0
  -31.9468  -23.4300   17.9563 C   0  0  2  0  0  0  0  0  0  0  0  0
  -23.3998  -24.8061   25.2213 C   0  0  1  0  0  0  0  0  0  0  0  0
  -23.4526  -21.0485   24.7237 C   0  0  2  0  0  0  0  0  0  0  0  0
  -23.2814  -25.4178   26.6458 C   0  0  0  0  0  0  0  0  0  0  0  0
  -25.2551  -12.4878   21.4478 N   0  0  0  0  0  0  0  0  0  0  0  0
  -26.4018  -13.0854   21.0820 N   0  0  0  0  0  0  0  0  0  0  0  0
  -23.1039  -26.0912   23.1273 N   0  0  0  0  0  0  0  0  0  0  0  0
  -26.4894  -16.9032   21.0584 N   0  0  0  0  0  0  0  0  0  0  0  0
  -30.4891  -17.7944   15.1413 N   0  0  0  0  0  0  0  0  0  0  0  0
  -28.3899  -12.7559   19.8371 N   0  0  0  0  0  0  0  0  0  0  0  0
  -26.1760   -8.8541   19.3168 N   0  0  0  0  0  0  0  0  0  0  0  0
  -27.8521  -17.4577   19.2150 N   0  0  0  0  0  0  0  0  0  0  0  0
  -31.4394  -22.1054   17.6822 N   0  0  0  0  0  0  0  0  0  0  0  0
  -21.3317  -29.1304   22.5330 N   0  0  0  0  0  0  0  0  0  0  0  0
  -23.0938  -23.3812   25.1556 N   0  0  0  0  0  0  0  0  0  0  0  0
  -23.9903  -20.2508   23.5855 N   0  3  0  0  0  0  0  0  0  0  0  0
  -29.4836  -22.3063   18.9115 O   0  0  0  0  0  0  0  0  0  0  0  0
  -28.0954   -9.9910   18.7856 O   0  0  0  0  0  0  0  0  0  0  0  0
  -30.6456  -25.6066   19.5319 O   0  0  0  0  0  0  0  0  0  0  0  0
  -23.5217  -28.7050   23.2005 O   0  0  0  0  0  0  0  0  0  0  0  0
  -21.2665  -25.4605   24.4167 O   0  0  0  0  0  0  0  0  0  0  0  0
  -25.1397  -22.7216   24.2859 O   0  0  0  0  0  0  0  0  0  0  0  0
  -27.4798  -18.9873   20.9190 O   0  0  0  0  0  0  0  0  0  0  0  0
  -21.2065   -7.5728   21.4841 O   0  0  0  0  0  0  0  0  0  0  0  0
  -28.2398  -26.7757   19.7797 O   0  0  0  0  0  0  0  0  0  1  0  0
  -22.5948   -2.3573   22.6131 F   0  0  0  0  0  0  0  0  0  0  0  0
  -20.3419   -6.3457   23.8056 F   0  0  0  0  0  0  0  0  0  0  0  0
  1  2  1  0  0  0  0
  1  5  2  0  0  0  0
  2  6  2  0  0  0  0
  3  8  2  0  0  0  0
  3 18  1  0  0  0  0
  4  9  1  0  0  0  0
  4 18  2  0  0  0  0
  5 21  1  0  0  0  0
  6 23  1  0  0  0  0
  7 10  2  0  0  0  0
  7 22  1  0  0  0  0
  8 27  1  0  0  0  0
  9 27  2  0  0  0  0
 10 28  1  0  0  0  0
 11 12  2  0  0  0  0
 11 29  1  0  0  0  0
 12 30  1  0  0  0  0
 13 19  1  0  0  0  0
 13 25  2  0  0  0  0
 14 19  2  0  0  0  0
 14 26  1  0  0  0  0
 15 24  1  0  0  0  0
 15 28  2  0  0  0  0
 16 25  1  0  0  0  0
 16 26  2  0  0  0  0
 17 30  2  0  0  0  0
 17 31  1  0  0  0  0
 18 32  1  0  0  0  0
 19 35  1  0  0  0  0
 20 32  1  0  0  0  0
 20 33  2  0  0  0  0
 20 36  1  0  0  0  0
 21 23  2  0  0  0  0
 21 43  1  0  0  0  0
 22 24  2  0  0  0  0
 22 44  1  0  0  0  0
 23 52  1  0  0  0  0
 24 45  1  0  0  0  0
 25 71  1  0  0  0  0
 26 74  1  0  0  0  0
 27 86  1  0  0  0  0
 28 87  1  0  0  0  0
 29 31  2  0  0  0  0
 29 86  1  0  0  0  0
 30 88  1  0  0  0  0
 31 89  1  0  0  0  0
 32 67  2  0  0  0  0
 33 68  1  0  0  0  0
 33 72  1  0  0  0  0
 34 37  2  0  0  0  0
 34 38  1  0  0  0  0
 35 75  1  0  0  0  0
 35 79  2  0  0  0  0
 36 73  1  0  0  0  0
 36 80  2  0  0  0  0
 37 55  1  0  0  0  0
 37 63  1  0  0  0  0
 38 62  1  0  0  0  0
 38 81  2  0  0  0  0
 39 53  1  0  0  0  0
 39 76  1  0  0  0  0
 39 82  2  0  0  0  0
 40 64  1  0  0  0  0
 40 69  1  0  0  0  0
 40 83  2  0  0  0  0
 41 65  1  0  0  0  0
 41 77  1  0  0  0  0
 41 84  2  0  0  0  0
 42 70  1  0  0  0  0
 42 74  1  0  0  0  0
 42 85  2  0  0  0  0
 43 46  1  0  0  0  0
 44 53  1  0  0  0  0
 45 69  1  0  0  0  0
 46 48  1  0  0  0  0
 47 49  1  0  0  0  0
 47 50  1  0  0  0  0
 48 52  1  0  0  0  0
 49 54  1  0  0  0  0
 50 70  1  0  0  0  0
 51 54  1  0  0  0  0
 51 70  1  0  0  0  0
 52 76  1  0  0  0  0
 53 69  1  0  0  0  0
 54 68  1  0  0  0  0
 56 63  1  0  0  0  0
 57 65  1  0  0  0  0
 58 66  1  0  0  0  0
 59 66  1  0  0  0  0
 60 66  1  0  0  0  0
 61 78  1  0  0  0  0
 62 87  1  0  0  0  0
 63 75  1  0  0  0  0
 64 66  1  0  0  0  0
 64 77  1  0  0  0  0
 65 78  1  0  0  0  0
 67 68  1  0  0  0  0
M  CHG  1  78   1
M  ISO  4  42 100  62 101  74 100  87 101
M  END
> <Batch ID>
0136

> <Smiles>
CNC(C)C(=O)NC(C(=O)N1Cc2cc([101O:1][101CH2:1]C(=O)C=C(C)C(C)NC(=O)c3cc(N)cc([100NH:0][100C:0](=O)N4CCCC(n5nc(-c6ccc(Oc7ccc(F)cc7F)cc6)c(C(N)=O)c5N)C4)c3)ccc2CC1C(=O)NC1CCCc2ccccc21)C(C)(C)C

> <Shape>
0.233

> <Color>
0.118

> <Negative vol penalty>
0.000

$$$$

  -OEChem-04052302393D

 85 93  0     1  0  0  0  0  0999 V2000
  -25.9572   -8.9572   22.0226 C   0  0  0  0  0  0  0  0  0  0  0  0
  -26.8738   -9.9332   21.6451 C   0  0  0  0  0  0  0  0  0  0  0  0
  -22.5644  -28.2752   20.8027 C   0  0  0  0  0  0  0  0  0  0  0  0
  -22.8484  -25.9792   21.4987 C   0  0  0  0  0  0  0  0  0  0  0  0
  -30.1887  -22.0660   18.9138 C   0  0  0  0  0  0  0  0  0  0  0  0
  -24.5913   -9.2349   21.9887 C   0  0  0  0  0  0  0  0  0  0  0  0
  -26.4250  -11.1873   21.2324 C   0  0  0  0  0  0  0  0  0  0  0  0
  -29.0817  -14.9755   23.2908 C   0  0  0  0  0  0  0  0  0  0  0  0
  -30.5806  -20.7789   19.2818 C   0  0  0  0  0  0  0  0  0  0  0  0
  -21.2023  -28.1945   21.0922 C   0  0  0  0  0  0  0  0  0  0  0  0
  -21.4863  -25.8984   21.7883 C   0  0  0  0  0  0  0  0  0  0  0  0
  -30.3323  -15.2494   22.7389 C   0  0  0  0  0  0  0  0  0  0  0  0
  -17.7164  -28.7045   21.9888 C   0  0  0  0  0  0  0  0  0  0  0  0
  -17.1379  -29.7645   22.6868 C   0  0  0  0  0  0  0  0  0  0  0  0
  -29.3766  -17.0854   21.4999 C   0  0  0  0  0  0  0  0  0  0  0  0
  -32.8459  -21.5583   19.5952 C   0  0  0  0  0  0  0  0  0  0  0  0
  -18.6473  -29.3731   24.5322 C   0  0  0  0  0  0  0  0  0  0  0  0
  -23.3874  -27.1675   21.0059 C   0  0  0  0  0  0  0  0  0  0  0  0
  -31.1254  -23.0992   18.8864 C   0  0  0  0  0  0  0  0  0  0  0  0
  -25.8276  -27.6421   21.5786 C   0  0  0  0  0  0  0  0  0  0  0  0
  -24.1259  -10.4962   21.5847 C   0  0  0  0  0  0  0  0  0  0  0  0
  -27.9651  -15.7489   22.9424 C   0  0  0  0  0  0  0  0  0  0  0  0
  -25.0516  -11.4817   21.1919 C   0  0  0  0  0  0  0  0  0  0  0  0
  -28.1135  -16.8208   22.0508 C   0  0  0  0  0  0  0  0  0  0  0  0
  -31.9092  -20.5251   19.6225 C   0  0  0  0  0  0  0  0  0  0  0  0
  -32.4539  -22.8454   19.2271 C   0  0  0  0  0  0  0  0  0  0  0  0
  -20.6633  -27.0061   21.5850 C   0  0  0  0  0  0  0  0  0  0  0  0
  -30.4794  -16.3027   21.8411 C   0  0  0  0  0  0  0  0  0  0  0  0
  -18.7604  -27.9787   22.5625 C   0  0  0  0  0  0  0  0  0  0  0  0
  -17.6033  -30.0988   23.9585 C   0  0  0  0  0  0  0  0  0  0  0  0
  -19.2258  -28.3130   23.8342 C   0  0  0  0  0  0  0  0  0  0  0  0
  -24.7944  -27.2501   20.7064 C   0  0  0  0  0  0  0  0  0  0  0  0
  -26.9694  -27.5527   20.8204 C   0  0  0  0  0  0  0  0  0  0  0  0
  -30.6890  -24.4338   18.4983 C   0  0  0  0  0  0  0  0  0  0  0  0
  -25.7612  -28.0505   22.9514 C   0  0  0  0  0  0  0  0  0  0  0  0
  -30.0934  -24.6917   17.1672 C   0  0  0  0  0  0  0  0  0  0  0  0
  -25.1826  -15.1595   21.5232 C   0  0  0  0  0  0  0  0  0  0  0  0
  -24.5744  -18.2491   22.3022 C   0  0  0  0  0  0  0  0  0  0  0  0
  -26.3779  -21.3739   22.2823 C   0  0  0  0  0  0  0  0  0  0  0  0
  -22.6381  -10.7342   21.5193 C   0  0  0  0  0  0  0  0  0  0  0  0
  -26.6282  -15.4572   23.5671 C   0  0  0  0  0  0  0  0  0  0  0  0
  -26.9502  -17.6939   21.6597 C   0  0  0  0  0  0  0  0  0  0  0  0
  -22.2609  -12.2106   21.4276 C   0  0  0  0  0  0  0  0  0  0  0  0
  -27.5934  -26.9000   15.8519 C   0  0  0  0  0  0  0  0  0  0  0  0
  -23.1197  -12.9172   20.3837 C   0  0  0  0  0  0  0  0  0  0  0  0
  -26.7051  -27.1882   17.0618 C   0  0  0  0  0  0  0  0  0  0  0  0
  -28.1404  -25.4767   15.8873 C   0  0  0  0  0  0  0  0  0  0  0  0
  -27.9896  -25.4318   18.3620 C   0  0  0  0  0  0  0  0  0  0  0  0
  -24.6047  -12.8622   20.7621 C   0  0  1  0  0  0  0  0  0  0  0  0
  -25.4567  -15.9878   22.7465 C   0  0  1  0  0  0  0  0  0  0  0  0
  -27.4408  -26.8692   18.3754 C   0  0  2  0  0  0  0  0  0  0  0  0
  -33.8133  -24.4372   20.6073 C   0  0  0  0  0  0  0  0  0  0  0  0
  -26.0852  -23.4355   23.6828 C   0  0  0  0  0  0  0  0  0  0  0  0
  -22.8234  -19.2147   19.9975 C   0  0  0  0  0  0  0  0  0  0  0  0
  -23.7700  -21.5084   20.3312 C   0  0  0  0  0  0  0  0  0  0  0  0
  -22.4637  -20.4223   22.1578 C   0  0  0  0  0  0  0  0  0  0  0  0
  -33.9952  -17.1144   21.7425 C   0  0  0  0  0  0  0  0  0  0  0  0
  -32.2233  -17.3519   23.5013 C   0  0  0  0  0  0  0  0  0  0  0  0
  -29.2028  -21.3175   23.1630 C   0  0  0  0  0  0  0  0  0  0  0  0
  -32.3330  -19.1329   20.0217 C   0  0  0  0  0  0  0  0  0  0  0  0
  -33.4774  -23.9335   19.2071 C   0  0  0  0  0  0  0  0  0  0  0  0
  -32.1975  -18.9163   21.5355 C   0  0  0  0  0  0  0  0  0  0  0  0
  -24.7896  -19.5835   21.6297 C   0  0  1  0  0  0  0  0  0  0  0  0
  -26.8700  -22.1469   23.4927 C   0  0  2  0  0  0  0  0  0  0  0  0
  -23.4788  -20.1601   21.0240 C   0  0  0  0  0  0  0  0  0  0  0  0
  -32.5349  -17.4873   22.0071 C   0  0  0  0  0  0  0  0  0  1  0  0
  -25.2404  -26.9352   19.4874 N   0  0  0  0  0  0  0  0  0  0  0  0
  -30.7882  -25.4732   19.2801 N   0  0  0  0  0  0  0  0  0  0  0  0
  -26.5664  -27.1294   19.5881 N   0  0  0  0  0  0  0  0  0  0  0  0
  -28.8003  -25.1955   17.1607 N   0  0  0  0  0  0  0  0  0  0  0  0
  -25.6623  -17.3647   22.2926 N   0  0  0  0  0  0  0  0  0  0  0  0
  -28.2688  -27.7957   21.0943 N   0  0  0  0  0  0  0  0  0  0  0  0
  -24.5080  -28.0862   23.5779 N   0  0  0  0  0  0  0  0  0  0  0  0
  -24.8999  -13.8341   21.7930 N   0  0  0  0  0  0  0  0  0  0  0  0
  -25.4177  -20.4456   22.6250 N   0  0  0  0  0  0  0  0  0  0  0  0
  -28.3109  -22.4930   23.3354 N   0  3  0  0  0  0  0  0  0  0  0  0
  -26.7809  -28.3899   23.5983 O   0  0  0  0  0  0  0  0  0  0  0  0
  -30.8097  -24.4309   16.2094 O   0  0  0  0  0  0  0  0  0  0  0  0
  -25.2230  -15.6844   20.4166 O   0  0  0  0  0  0  0  0  0  0  0  0
  -23.4836  -18.0034   22.8232 O   0  0  0  0  0  0  0  0  0  0  0  0
  -26.8002  -21.5762   21.1460 O   0  0  0  0  0  0  0  0  0  0  0  0
  -19.3343  -26.9271   21.8679 O   0  0  0  0  0  0  0  0  0  0  0  0
  -31.6988  -16.5719   21.3004 O   0  0  0  0  0  0  0  0  0  1  0  0
  -17.0487  -31.1177   24.6280 F   0  0  0  0  0  0  0  0  0  0  0  0
  -20.2293  -27.6202   24.3900 F   0  0  0  0  0  0  0  0  0  0  0  0
  1  2  1  0  0  0  0
  1  6  2  0  0  0  0
  2  7  2  0  0  0  0
  3 10  2  0  0  0  0
  3 18  1  0  0  0  0
  4 11  1  0  0  0  0
  4 18  2  0  0  0  0
  5  9  2  0  0  0  0
  5 19  1  0  0  0  0
  6 21  1  0  0  0  0
  7 23  1  0  0  0  0
  8 12  2  0  0  0  0
  8 22  1  0  0  0  0
  9 25  1  0  0  0  0
 10 27  1  0  0  0  0
 11 27  2  0  0  0  0
 12 28  1  0  0  0  0
 13 14  2  0  0  0  0
 13 29  1  0  0  0  0
 14 30  1  0  0  0  0
 15 24  1  0  0  0  0
 15 28  2  0  0  0  0
 16 25  2  0  0  0  0
 16 26  1  0  0  0  0
 17 30  2  0  0  0  0
 17 31  1  0  0  0  0
 18 32  1  0  0  0  0
 19 26  2  0  0  0  0
 19 34  1  0  0  0  0
 20 32  1  0  0  0  0
 20 33  2  0  0  0  0
 20 35  1  0  0  0  0
 21 23  2  0  0  0  0
 21 40  1  0  0  0  0
 22 24  2  0  0  0  0
 22 41  1  0  0  0  0
 23 49  1  0  0  0  0
 24 42  1  0  0  0  0
 25 60  1  0  0  0  0
 26 61  1  0  0  0  0
 27 82  1  0  0  0  0
 28 83  1  0  0  0  0
 29 31  2  0  0  0  0
 29 82  1  0  0  0  0
 30 84  1  0  0  0  0
 31 85  1  0  0  0  0
 32 67  2  0  0  0  0
 33 69  1  0  0  0  0
 33 72  1  0  0  0  0
 34 36  1  0  0  0  0
 34 68  2  0  0  0  0
 35 73  1  0  0  0  0
 35 77  2  0  0  0  0
 36 70  1  0  0  0  0
 36 78  2  0  0  0  0
 37 50  1  0  0  0  0
 37 74  1  0  0  0  0
 37 79  2  0  0  0  0
 38 63  1  0  0  0  0
 38 71  1  0  0  0  0
 38 80  2  0  0  0  0
 39 64  1  0  0  0  0
 39 75  1  0  0  0  0
 39 81  2  0  0  0  0
 40 43  1  0  0  0  0
 41 50  1  0  0  0  0
 42 71  1  0  0  0  0
 43 45  1  0  0  0  0
 44 46  1  0  0  0  0
 44 47  1  0  0  0  0
 45 49  1  0  0  0  0
 46 51  1  0  0  0  0
 47 70  1  0  0  0  0
 48 51  1  0  0  0  0
 48 70  1  0  0  0  0
 49 74  1  0  0  0  0
 50 71  1  0  0  0  0
 51 69  1  0  0  0  0
 52 61  1  0  0  0  0
 53 64  1  0  0  0  0
 54 65  1  0  0  0  0
 55 65  1  0  0  0  0
 56 65  1  0  0  0  0
 57 66  1  0  0  0  0
 58 66  1  0  0  0  0
 59 76  1  0  0  0  0
 60 62  1  0  0  0  0
 62 66  1  0  0  0  0
 63 65  1  0  0  0  0
 63 75  1  0  0  0  0
 64 76  1  0  0  0  0
 66 83  1  0  0  0  0
 67 69  1  0  0  0  0
M  CHG  1  76   1
M  ISO  4  34 100  36 100  66 101  83 101
M  END
> <Batch ID>
0136

> <Smiles>
CCc1cc(CC[101C:1](C)(C)[101O:1]c2ccc3c(c2)CN(C(=O)C(NC(=O)C(C)NC)C(C)(C)C)C(C(=O)NC2CCCc4ccccc42)C3)ccc1[100C:0](=N)[100C:0](=O)N1CCCC(n2nc(-c3ccc(Oc4ccc(F)cc4F)cc3)c(C(N)=O)c2N)C1

> <Shape>
0.223

> <Color>
0.056

> <Negative vol penalty>
0.000

$$$$

  -OEChem-04052302393D

 84 93  0     1  0  0  0  0  0999 V2000
  -26.1970  -10.2879   18.0696 C   0  0  0  0  0  0  0  0  0  0  0  0
  -26.3904  -11.5196   17.4523 C   0  0  0  0  0  0  0  0  0  0  0  0
  -23.0330  -28.7842   22.2550 C   0  0  0  0  0  0  0  0  0  0  0  0
  -23.1187  -30.7526   20.8567 C   0  0  0  0  0  0  0  0  0  0  0  0
  -25.6229  -10.2280   19.3387 C   0  0  0  0  0  0  0  0  0  0  0  0
  -26.0088  -12.6921   18.1035 C   0  0  0  0  0  0  0  0  0  0  0  0
  -28.8008  -18.1355   17.8217 C   0  0  0  0  0  0  0  0  0  0  0  0
  -21.8601  -29.2547   22.8454 C   0  0  0  0  0  0  0  0  0  0  0  0
  -21.9458  -31.2231   21.4471 C   0  0  0  0  0  0  0  0  0  0  0  0
  -28.5437  -19.2840   17.0743 C   0  0  0  0  0  0  0  0  0  0  0  0
  -18.5705  -29.4025   22.0775 C   0  0  0  0  0  0  0  0  0  0  0  0
  -17.5220  -28.4983   22.2466 C   0  0  0  0  0  0  0  0  0  0  0  0
  -27.3185  -20.2124   18.9334 C   0  0  0  0  0  0  0  0  0  0  0  0
  -17.5953  -28.8598   24.6343 C   0  0  0  0  0  0  0  0  0  0  0  0
  -30.5828  -24.5818   21.5428 C   0  0  0  0  0  0  0  0  0  0  0  0
  -23.6623  -29.5332   21.2607 C   0  0  0  0  0  0  0  0  0  0  0  0
  -30.9497  -25.6929   20.8158 C   0  0  0  0  0  0  0  0  0  0  0  0
  -24.9836  -28.2322   19.5087 C   0  0  0  0  0  0  0  0  0  0  0  0
  -25.2429  -11.4010   20.0098 C   0  0  0  0  0  0  0  0  0  0  0  0
  -28.3086  -18.0121   19.1290 C   0  0  0  0  0  0  0  0  0  0  0  0
  -25.4278  -12.6477   19.3823 C   0  0  0  0  0  0  0  0  0  0  0  0
  -27.5730  -19.0624   19.6963 C   0  0  0  0  0  0  0  0  0  0  0  0
  -30.8740  -25.4628   19.4118 C   0  0  0  0  0  0  0  0  0  0  0  0
  -21.3165  -30.4741   22.4414 C   0  0  0  0  0  0  0  0  0  0  0  0
  -27.8000  -20.3214   17.6290 C   0  0  0  0  0  0  0  0  0  0  0  0
  -19.1315  -30.0354   23.1868 C   0  0  0  0  0  0  0  0  0  0  0  0
  -17.0344  -28.2270   23.5250 C   0  0  0  0  0  0  0  0  0  0  0  0
  -18.6439  -29.7640   24.4652 C   0  0  0  0  0  0  0  0  0  0  0  0
  -24.8743  -29.0480   20.6508 C   0  0  0  0  0  0  0  0  0  0  0  0
  -30.4524  -24.1843   19.1190 C   0  0  0  0  0  0  0  0  0  0  0  0
  -26.3354  -28.0554   19.3413 C   0  0  0  0  0  0  0  0  0  0  0  0
  -31.3627  -26.9449   21.4631 C   0  0  0  0  0  0  0  0  0  0  0  0
  -23.9553  -27.6834   18.6738 C   0  0  0  0  0  0  0  0  0  0  0  0
  -26.3033  -16.0273   20.5928 C   0  0  0  0  0  0  0  0  0  0  0  0
  -27.2355  -17.6577   23.2376 C   0  0  0  0  0  0  0  0  0  0  0  0
  -28.5166  -20.5259   24.5712 C   0  0  0  0  0  0  0  0  0  0  0  0
  -24.5828  -11.2830   21.3608 C   0  0  0  0  0  0  0  0  0  0  0  0
  -28.6174  -16.7780   19.9316 C   0  0  0  0  0  0  0  0  0  0  0  0
  -27.0393  -18.9878   21.1027 C   0  0  0  0  0  0  0  0  0  0  0  0
  -24.5501  -12.5956   22.1394 C   0  0  0  0  0  0  0  0  0  0  0  0
  -30.2678  -30.3412   21.5522 C   0  0  0  0  0  0  0  0  0  0  0  0
  -32.2620  -26.1742   17.3049 C   0  0  0  0  0  0  0  0  0  0  0  0
  -32.5880  -27.1595   18.3835 C   0  0  0  0  0  0  0  0  0  0  0  0
  -24.0853  -13.7376   21.2412 C   0  0  0  0  0  0  0  0  0  0  0  0
  -28.7713  -30.2421   21.2513 C   0  0  0  0  0  0  0  0  0  0  0  0
  -30.7552  -29.1571   22.3834 C   0  0  0  0  0  0  0  0  0  0  0  0
  -28.9383  -27.7306   21.5066 C   0  0  0  0  0  0  0  0  0  0  0  0
  -31.2199  -26.5107   18.3509 C   0  0  0  0  0  0  0  0  0  0  0  0
  -25.0497  -13.9433   20.0668 C   0  0  1  0  0  0  0  0  0  0  0  0
  -27.6306  -16.5440   21.0712 C   0  0  1  0  0  0  0  0  0  0  0  0
  -28.4168  -28.8791   20.6275 C   0  0  1  0  0  0  0  0  0  0  0  0
  -29.1277  -21.5758   26.7671 C   0  0  0  0  0  0  0  0  0  0  0  0
  -24.2818  -18.1562   23.8185 C   0  0  0  0  0  0  0  0  0  0  0  0
  -24.9717  -19.9534   25.4193 C   0  0  0  0  0  0  0  0  0  0  0  0
  -25.6592  -17.5905   25.8278 C   0  0  0  0  0  0  0  0  0  0  0  0
  -29.6409  -23.7143   14.7050 C   0  0  0  0  0  0  0  0  0  0  0  0
  -27.1983  -23.8292   15.2599 C   0  0  0  0  0  0  0  0  0  0  0  0
  -31.3583  -20.7884   23.7870 C   0  0  0  0  0  0  0  0  0  0  0  0
  -30.2409  -23.5418   17.7693 C   0  0  0  0  0  0  0  0  0  0  0  0
  -28.9254  -24.0066   17.1290 C   0  0  0  0  0  0  0  0  0  0  0  0
  -28.5209  -21.8198   15.9287 C   0  0  0  0  0  0  0  0  0  1  0  0
  -26.7522  -18.8937   23.9572 C   0  0  1  0  0  0  0  0  0  0  0  0
  -29.6234  -20.7593   25.5837 C   0  0  2  0  0  0  0  0  0  0  0  0
  -25.4245  -18.6493   24.7285 C   0  0  0  0  0  0  0  0  0  0  0  0
  -28.5759  -23.3581   15.7589 C   0  0  0  0  0  0  0  0  0  0  0  0
  -26.0618  -29.3672   21.1721 N   0  0  0  0  0  0  0  0  0  0  0  0
  -26.9303  -28.7487   20.3540 N   0  0  0  0  0  0  0  0  0  0  0  0
  -30.3781  -27.8924   21.7532 N   0  0  0  0  0  0  0  0  0  0  0  0
  -27.3624  -17.7580   21.8449 N   0  0  0  0  0  0  0  0  0  0  0  0
  -27.0612  -27.3760   18.4281 N   0  0  0  0  0  0  0  0  0  0  0  0
  -22.6186  -27.9641   18.9883 N   0  0  0  0  0  0  0  0  0  0  0  0
  -26.2347  -14.6500   20.5037 N   0  0  0  0  0  0  0  0  0  0  0  0
  -27.8594  -19.3353   24.7984 N   0  0  0  0  0  0  0  0  0  0  0  0
  -30.7584  -21.4894   24.9514 N   0  3  0  0  0  0  0  0  0  0  0  0
  -32.5651  -27.0675   21.6918 O   0  0  0  0  0  0  0  0  0  0  0  0
  -24.2135  -26.9519   17.6881 O   0  0  0  0  0  0  0  0  0  0  0  0
  -25.4072  -16.8193   20.3257 O   0  0  0  0  0  0  0  0  0  0  0  0
  -27.4977  -16.6429   23.8880 O   0  0  0  0  0  0  0  0  0  0  0  0
  -28.2584  -21.3221   23.6713 O   0  0  0  0  0  0  0  0  0  0  0  0
  -20.1719  -30.9334   23.0172 O   0  0  0  0  0  0  0  0  0  0  0  0
  -27.5470  -21.4433   16.9014 O   0  0  0  0  0  0  0  0  0  1  0  0
  -16.0265  -27.3598   23.6871 F   0  0  0  0  0  0  0  0  0  0  0  0
  -19.1780  -30.3698   25.5345 F   0  0  0  0  0  0  0  0  0  0  0  0
  -30.1492  -23.2681   20.5335 S   0  0  0  0  0  0  0  0  0  0  0  0
  1  2  1  0  0  0  0
  1  5  2  0  0  0  0
  2  6  2  0  0  0  0
  3  8  2  0  0  0  0
  3 16  1  0  0  0  0
  4  9  1  0  0  0  0
  4 16  2  0  0  0  0
  5 19  1  0  0  0  0
  6 21  1  0  0  0  0
  7 10  2  0  0  0  0
  7 20  1  0  0  0  0
  8 24  1  0  0  0  0
  9 24  2  0  0  0  0
 10 25  1  0  0  0  0
 11 12  2  0  0  0  0
 11 26  1  0  0  0  0
 12 27  1  0  0  0  0
 13 22  1  0  0  0  0
 13 25  2  0  0  0  0
 14 27  2  0  0  0  0
 14 28  1  0  0  0  0
 15 17  2  0  0  0  0
 15 84  1  0  0  0  0
 16 29  1  0  0  0  0
 17 23  1  0  0  0  0
 17 32  1  0  0  0  0
 18 29  1  0  0  0  0
 18 31  2  0  0  0  0
 18 33  1  0  0  0  0
 19 21  2  0  0  0  0
 19 37  1  0  0  0  0
 20 22  2  0  0  0  0
 20 38  1  0  0  0  0
 21 49  1  0  0  0  0
 22 39  1  0  0  0  0
 23 30  2  0  0  0  0
 23 48  1  0  0  0  0
 24 80  1  0  0  0  0
 25 81  1  0  0  0  0
 26 28  2  0  0  0  0
 26 80  1  0  0  0  0
 27 82  1  0  0  0  0
 28 83  1  0  0  0  0
 29 66  2  0  0  0  0
 30 59  1  0  0  0  0
 30 84  1  0  0  0  0
 31 67  1  0  0  0  0
 31 70  1  0  0  0  0
 32 68  1  0  0  0  0
 32 75  2  0  0  0  0
 33 71  1  0  0  0  0
 33 76  2  0  0  0  0
 34 50  1  0  0  0  0
 34 72  1  0  0  0  0
 34 77  2  0  0  0  0
 35 62  1  0  0  0  0
 35 69  1  0  0  0  0
 35 78  2  0  0  0  0
 36 63  1  0  0  0  0
 36 73  1  0  0  0  0
 36 79  2  0  0  0  0
 37 40  1  0  0  0  0
 38 50  1  0  0  0  0
 39 69  1  0  0  0  0
 40 44  1  0  0  0  0
 41 45  1  0  0  0  0
 41 46  1  0  0  0  0
 42 43  1  0  0  0  0
 42 48  1  0  0  0  0
 43 48  1  0  0  0  0
 44 49  1  0  0  0  0
 45 51  1  0  0  0  0
 46 68  1  0  0  0  0
 47 51  1  0  0  0  0
 47 68  1  0  0  0  0
 49 72  1  0  0  0  0
 50 69  1  0  0  0  0
 51 67  1  0  0  0  0
 52 63  1  0  0  0  0
 53 64  1  0  0  0  0
 54 64  1  0  0  0  0
 55 64  1  0  0  0  0
 56 65  1  0  0  0  0
 57 65  1  0  0  0  0
 58 74  1  0  0  0  0
 59 60  1  0  0  0  0
 60 65  1  0  0  0  0
 61 65  1  0  0  0  0
 61 81  1  0  0  0  0
 62 64  1  0  0  0  0
 62 73  1  0  0  0  0
 63 74  1  0  0  0  0
 66 67  1  0  0  0  0
M  CHG  1  74   1
M  ISO  4  17 100  32 100  61 101  81 101
M  END
> <Batch ID>
0136

> <Smiles>
CNC(C)C(=O)NC(C(=O)N1Cc2cc([101O:1][101CH2:1]C(C)(C)CCc3sc[100c:0]([100C:0](=O)N4CCCC(n5nc(-c6ccc(Oc7ccc(F)cc7F)cc6)c(C(N)=O)c5N)C4)c3C3CC3)ccc2CC1C(=O)NC1CCCc2ccccc21)C(C)(C)C

> <Shape>
0.236

> <Color>
0.058

> <Negative vol penalty>
0.000

$$$$

  -OEChem-04052302393D

 85 93  0     1  0  0  0  0  0999 V2000
  -31.6614  -24.6233   24.5398 C   0  0  0  0  0  0  0  0  0  0  0  0
  -31.3386  -25.4670   23.4830 C   0  0  0  0  0  0  0  0  0  0  0  0
  -26.2482  -12.7657   21.4845 C   0  0  0  0  0  0  0  0  0  0  0  0
  -25.9710  -13.3453   19.1554 C   0  0  0  0  0  0  0  0  0  0  0  0
  -30.6717  -23.8380   25.1271 C   0  0  0  0  0  0  0  0  0  0  0  0
  -30.0237  -25.5345   23.0209 C   0  0  0  0  0  0  0  0  0  0  0  0
  -27.6276  -28.5878   18.3237 C   0  0  0  0  0  0  0  0  0  0  0  0
  -27.6148  -23.3140   16.8418 C   0  0  0  0  0  0  0  0  0  0  0  0
  -27.6608  -21.4672   15.2847 C   0  0  0  0  0  0  0  0  0  0  0  0
  -28.1138  -22.4817   17.8437 C   0  0  0  0  0  0  0  0  0  0  0  0
  -28.1599  -20.6349   16.2866 C   0  0  0  0  0  0  0  0  0  0  0  0
  -25.0496  -12.0532   21.4498 C   0  0  0  0  0  0  0  0  0  0  0  0
  -24.7724  -12.6327   19.1208 C   0  0  0  0  0  0  0  0  0  0  0  0
  -27.3585  -28.3561   16.9755 C   0  0  0  0  0  0  0  0  0  0  0  0
  -22.2447   -9.7807   21.8781 C   0  0  0  0  0  0  0  0  0  0  0  0
  -22.2225   -8.5197   22.4740 C   0  0  0  0  0  0  0  0  0  0  0  0
  -25.0816  -27.7875   17.5340 C   0  0  0  0  0  0  0  0  0  0  0  0
  -23.9525   -7.7743   20.9611 C   0  0  0  0  0  0  0  0  0  0  0  0
  -26.7088  -13.4119   20.3373 C   0  0  0  0  0  0  0  0  0  0  0  0
  -29.2366  -13.6572   20.0965 C   0  0  0  0  0  0  0  0  0  0  0  0
  -29.3468  -23.8873   24.6632 C   0  0  0  0  0  0  0  0  0  0  0  0
  -26.6271  -28.4102   19.2900 C   0  0  0  0  0  0  0  0  0  0  0  0
  -29.0059  -24.7676   23.6162 C   0  0  0  0  0  0  0  0  0  0  0  0
  -25.3400  -28.0201   18.8935 C   0  0  0  0  0  0  0  0  0  0  0  0
  -27.3882  -22.8067   15.5623 C   0  0  0  0  0  0  0  0  0  0  0  0
  -28.3864  -21.1422   17.5661 C   0  0  0  0  0  0  0  0  0  0  0  0
  -24.3117  -11.9866   20.2680 C   0  0  0  0  0  0  0  0  0  0  0  0
  -26.0861  -27.9531   16.5807 C   0  0  0  0  0  0  0  0  0  0  0  0
  -23.1208  -10.0385   20.8237 C   0  0  0  0  0  0  0  0  0  0  0  0
  -23.0764   -7.5165   22.0155 C   0  0  0  0  0  0  0  0  0  0  0  0
  -23.9747   -9.0353   20.3652 C   0  0  0  0  0  0  0  0  0  0  0  0
  -27.9466  -14.1486   20.3726 C   0  0  0  0  0  0  0  0  0  0  0  0
  -30.0612  -14.7422   20.2675 C   0  0  0  0  0  0  0  0  0  0  0  0
  -29.6523  -12.3379   19.7192 C   0  0  0  0  0  0  0  0  0  0  0  0
  -26.2550  -26.5099   21.8107 C   0  0  0  0  0  0  0  0  0  0  0  0
  -25.1161  -26.1012   13.6166 C   0  0  0  0  0  0  0  0  0  0  0  0
  -23.5992  -28.3106   22.2867 C   0  0  0  0  0  0  0  0  0  0  0  0
  -21.1977  -30.3389   20.9580 C   0  0  0  0  0  0  0  0  0  0  0  0
  -29.1751  -20.6404   19.9055 C   0  0  0  0  0  0  0  0  0  0  0  0
  -28.3138  -23.0215   25.3405 C   0  0  0  0  0  0  0  0  0  0  0  0
  -26.9262  -28.6901   20.7373 C   0  0  0  0  0  0  0  0  0  0  0  0
  -24.2254  -27.8348   19.8894 C   0  0  0  0  0  0  0  0  0  0  0  0
  -27.0551  -22.8305   24.5006 C   0  0  0  0  0  0  0  0  0  0  0  0
  -30.3979  -18.8398   22.7232 C   0  0  0  0  0  0  0  0  0  0  0  0
  -26.5550  -24.1773   24.0000 C   0  0  0  0  0  0  0  0  0  0  0  0
  -30.0309  -17.3870   22.4122 C   0  0  0  0  0  0  0  0  0  0  0  0
  -29.3214  -19.8118   22.2437 C   0  0  0  0  0  0  0  0  0  0  0  0
  -28.5735  -18.2167   20.5216 C   0  0  0  0  0  0  0  0  0  0  0  0
  -27.5885  -24.8349   23.0768 C   0  0  1  0  0  0  0  0  0  0  0  0
  -25.9715  -27.9807   21.6927 C   0  0  1  0  0  0  0  0  0  0  0  0
  -29.6578  -17.2053   20.9279 C   0  0  2  0  0  0  0  0  0  0  0  0
  -19.1381  -31.6270   21.5874 C   0  0  0  0  0  0  0  0  0  0  0  0
  -25.0534  -24.1876   11.9750 C   0  0  0  0  0  0  0  0  0  0  0  0
  -23.1425  -24.5618   13.5240 C   0  0  0  0  0  0  0  0  0  0  0  0
  -22.0060  -25.7103   22.3856 C   0  0  0  0  0  0  0  0  0  0  0  0
  -19.9208  -27.0568   22.0587 C   0  0  0  0  0  0  0  0  0  0  0  0
  -21.3289  -27.4140   24.0866 C   0  0  0  0  0  0  0  0  0  0  0  0
  -22.4206  -32.9116   20.1553 C   0  0  0  0  0  0  0  0  0  0  0  0
  -26.8483  -23.7072   14.4785 C   0  0  0  0  0  0  0  0  0  0  0  0
  -24.8269  -26.7475   14.9631 C   0  0  0  0  0  0  0  0  0  1  0  0
  -25.3132  -23.6924   14.4505 C   0  0  0  0  0  0  0  0  0  0  0  0
  -22.1588  -28.2296   21.8421 C   0  0  1  0  0  0  0  0  0  0  0  0
  -20.6477  -31.6793   21.4110 C   0  0  2  0  0  0  0  0  0  0  0  0
  -24.6750  -24.6353   13.4004 C   0  0  0  0  0  0  0  0  0  0  0  0
  -21.3750  -27.1042   22.5745 C   0  0  0  0  0  0  0  0  0  0  0  0
  -27.9467  -15.4449   20.6947 N   0  0  0  0  0  0  0  0  0  0  0  0
  -29.2468  -15.7772   20.6221 N   0  0  0  0  0  0  0  0  0  0  0  0
  -24.5691  -28.1146   21.2933 N   0  0  0  0  0  0  0  0  0  0  0  0
  -29.0228  -19.5838   20.8281 N   0  0  0  0  0  0  0  0  0  0  0  0
  -31.3963  -14.9023   20.1477 N   0  0  0  0  0  0  0  0  0  0  0  0
  -28.6754  -11.3414   19.5883 N   0  0  0  0  0  0  0  0  0  0  0  0
  -28.8937  -20.2966   18.5836 N   0  0  0  0  0  0  0  0  0  0  0  0
  -27.1730  -26.1909   22.7930 N   0  0  0  0  0  0  0  0  0  0  0  0
  -21.5993  -29.5644   22.0257 N   0  0  0  0  0  0  0  0  0  0  0  0
  -20.9676  -32.7356   20.4096 N   0  3  0  0  0  0  0  0  0  0  0  0
  -30.8562  -12.0472   19.5205 O   0  0  0  0  0  0  0  0  0  0  0  0
  -25.6821  -25.7226   21.0667 O   0  0  0  0  0  0  0  0  0  0  0  0
  -25.6805  -26.7413   12.7260 O   0  0  0  0  0  0  0  0  0  0  0  0
  -23.8544  -28.5464   23.4703 O   0  0  0  0  0  0  0  0  0  0  0  0
  -21.2610  -30.0102   19.7754 O   0  0  0  0  0  0  0  0  0  0  0  0
  -29.5553  -21.7599   20.2578 O   0  0  0  0  0  0  0  0  0  0  0  0
  -23.1422  -11.2911   20.2337 O   0  0  0  0  0  0  0  0  0  0  0  0
  -25.8209  -27.7257   15.2655 O   0  0  0  0  0  0  0  0  0  1  0  0
  -23.0560   -6.3061   22.5888 F   0  0  0  0  0  0  0  0  0  0  0  0
  -24.8193   -9.2774   19.3534 F   0  0  0  0  0  0  0  0  0  0  0  0
  1  2  1  0  0  0  0
  1  5  2  0  0  0  0
  2  6  2  0  0  0  0
  3 12  2  0  0  0  0
  3 19  1  0  0  0  0
  4 13  1  0  0  0  0
  4 19  2  0  0  0  0
  5 21  1  0  0  0  0
  6 23  1  0  0  0  0
  7 14  2  0  0  0  0
  7 22  1  0  0  0  0
  8 10  2  0  0  0  0
  8 25  1  0  0  0  0
  9 11  1  0  0  0  0
  9 25  2  0  0  0  0
 10 26  1  0  0  0  0
 11 26  2  0  0  0  0
 12 27  1  0  0  0  0
 13 27  2  0  0  0  0
 14 28  1  0  0  0  0
 15 16  2  0  0  0  0
 15 29  1  0  0  0  0
 16 30  1  0  0  0  0
 17 24  1  0  0  0  0
 17 28  2  0  0  0  0
 18 30  2  0  0  0  0
 18 31  1  0  0  0  0
 19 32  1  0  0  0  0
 20 32  1  0  0  0  0
 20 33  2  0  0  0  0
 20 34  1  0  0  0  0
 21 23  2  0  0  0  0
 21 40  1  0  0  0  0
 22 24  2  0  0  0  0
 22 41  1  0  0  0  0
 23 49  1  0  0  0  0
 24 42  1  0  0  0  0
 25 59  1  0  0  0  0
 26 72  1  0  0  0  0
 27 82  1  0  0  0  0
 28 83  1  0  0  0  0
 29 31  2  0  0  0  0
 29 82  1  0  0  0  0
 30 84  1  0  0  0  0
 31 85  1  0  0  0  0
 32 66  2  0  0  0  0
 33 67  1  0  0  0  0
 33 70  1  0  0  0  0
 34 71  1  0  0  0  0
 34 76  2  0  0  0  0
 35 50  1  0  0  0  0
 35 73  1  0  0  0  0
 35 77  2  0  0  0  0
 36 60  1  0  0  0  0
 36 64  1  0  0  0  0
 36 78  2  0  0  0  0
 37 62  1  0  0  0  0
 37 68  1  0  0  0  0
 37 79  2  0  0  0  0
 38 63  1  0  0  0  0
 38 74  1  0  0  0  0
 38 80  2  0  0  0  0
 39 69  1  0  0  0  0
 39 72  1  0  0  0  0
 39 81  2  0  0  0  0
 40 43  1  0  0  0  0
 41 50  1  0  0  0  0
 42 68  1  0  0  0  0
 43 45  1  0  0  0  0
 44 46  1  0  0  0  0
 44 47  1  0  0  0  0
 45 49  1  0  0  0  0
 46 51  1  0  0  0  0
 47 69  1  0  0  0  0
 48 51  1  0  0  0  0
 48 69  1  0  0  0  0
 49 73  1  0  0  0  0
 50 68  1  0  0  0  0
 51 67  1  0  0  0  0
 52 63  1  0  0  0  0
 53 64  1  0  0  0  0
 54 64  1  0  0  0  0
 55 65  1  0  0  0  0
 56 65  1  0  0  0  0
 57 65  1  0  0  0  0
 58 75  1  0  0  0  0
 59 61  1  0  0  0  0
 60 83  1  0  0  0  0
 61 64  1  0  0  0  0
 62 65  1  0  0  0  0
 62 74  1  0  0  0  0
 63 75  1  0  0  0  0
 66 67  1  0  0  0  0
M  CHG  1  75   1
M  ISO  4  39 100  60 101  72 100  83 101
M  END
> <Batch ID>
0136

> <Smiles>
CNC(C)C(=O)NC(C(=O)N1Cc2cc([101O:1][101CH2:1]C(=O)C(C)(C)CCc3ccc([100NH:0][100C:0](=O)N4CCCC(n5nc(-c6ccc(Oc7ccc(F)cc7F)cc6)c(C(N)=O)c5N)C4)cc3)ccc2CC1C(=O)NC1CCCc2ccccc21)C(C)(C)C

> <Shape>
0.223

> <Color>
0.097

> <Negative vol penalty>
0.000

$$$$

  -OEChem-04052302393D

 90 98  0     1  0  0  0  0  0999 V2000
  -19.0831  -31.8654   20.9642 C   0  0  0  0  0  0  0  0  0  0  0  0
  -20.3943  -31.4877   21.2355 C   0  0  0  0  0  0  0  0  0  0  0  0
  -24.7349  -10.0991   22.0965 C   0  0  0  0  0  0  0  0  0  0  0  0
  -24.7512  -11.4897   24.0721 C   0  0  0  0  0  0  0  0  0  0  0  0
  -18.0247  -31.1909   21.5714 C   0  0  0  0  0  0  0  0  0  0  0  0
  -20.6478  -30.4360   22.1153 C   0  0  0  0  0  0  0  0  0  0  0  0
  -25.2045  -26.3593   21.7634 C   0  0  0  0  0  0  0  0  0  0  0  0
  -24.4073   -8.9917   22.8786 C   0  0  0  0  0  0  0  0  0  0  0  0
  -24.4235  -10.3822   24.8543 C   0  0  0  0  0  0  0  0  0  0  0  0
  -26.4424  -26.2791   22.3996 C   0  0  0  0  0  0  0  0  0  0  0  0
  -23.2123   -5.8700   24.3077 C   0  0  0  0  0  0  0  0  0  0  0  0
  -22.2064   -5.0227   23.8431 C   0  0  0  0  0  0  0  0  0  0  0  0
  -28.1064  -22.2001   18.7788 C   0  0  0  0  0  0  0  0  0  0  0  0
  -27.1200  -20.0433   19.1789 C   0  0  0  0  0  0  0  0  0  0  0  0
  -25.4910  -24.8009   24.0515 C   0  0  0  0  0  0  0  0  0  0  0  0
  -20.6391   -6.8609   23.8842 C   0  0  0  0  0  0  0  0  0  0  0  0
  -24.9070  -11.3481   22.6932 C   0  0  0  0  0  0  0  0  0  0  0  0
  -26.9983  -21.3606   18.7508 C   0  0  0  0  0  0  0  0  0  0  0  0
  -24.3555  -13.3875   21.2633 C   0  0  0  0  0  0  0  0  0  0  0  0
  -18.2652  -30.1240   22.4516 C   0  0  0  0  0  0  0  0  0  0  0  0
  -24.0959  -25.6685   22.2736 C   0  0  0  0  0  0  0  0  0  0  0  0
  -19.5917  -29.7474   22.7359 C   0  0  0  0  0  0  0  0  0  0  0  0
  -24.2406  -24.8720   23.4185 C   0  0  0  0  0  0  0  0  0  0  0  0
  -24.2515   -9.1332   24.2575 C   0  0  0  0  0  0  0  0  0  0  0  0
  -26.5852  -25.5021   23.5454 C   0  0  0  0  0  0  0  0  0  0  0  0
  -22.9316   -7.2127   24.5606 C   0  0  0  0  0  0  0  0  0  0  0  0
  -20.9198   -5.5181   23.6313 C   0  0  0  0  0  0  0  0  0  0  0  0
  -21.6450   -7.7082   24.3488 C   0  0  0  0  0  0  0  0  0  0  0  0
  -25.2460  -12.4924   21.8858 C   0  0  0  0  0  0  0  0  0  0  0  0
  -29.3040  -21.6780   19.2402 C   0  0  0  0  0  0  0  0  0  0  0  0
  -28.3619  -19.6177   19.6221 C   0  0  0  0  0  0  0  0  0  0  0  0
  -25.1682  -14.2903   20.6223 C   0  0  0  0  0  0  0  0  0  0  0  0
  -25.7175  -21.8579   18.2745 C   0  0  0  0  0  0  0  0  0  0  0  0
  -22.9218  -13.4017   21.2646 C   0  0  0  0  0  0  0  0  0  0  0  0
  -21.2547  -26.5190   23.4173 C   0  0  0  0  0  0  0  0  0  0  0  0
  -30.2946  -23.7938   20.2100 C   0  0  0  0  0  0  0  0  0  0  0  0
  -20.7473  -23.3154   23.4598 C   0  0  0  0  0  0  0  0  0  0  0  0
  -22.0739  -20.1732   23.5750 C   0  0  0  0  0  0  0  0  0  0  0  0
  -29.6180  -17.6361   20.5395 C   0  0  0  0  0  0  0  0  0  0  0  0
  -17.0901  -29.4558   23.1205 C   0  0  0  0  0  0  0  0  0  0  0  0
  -22.7738  -25.7441   21.5604 C   0  0  0  0  0  0  0  0  0  0  0  0
  -23.0865  -24.0946   23.9948 C   0  0  0  0  0  0  0  0  0  0  0  0
  -17.4333  -28.1086   23.7508 C   0  0  0  0  0  0  0  0  0  0  0  0
  -30.1562  -14.2027   19.7654 C   0  0  0  0  0  0  0  0  0  0  0  0
  -18.7222  -28.2107   24.5602 C   0  0  0  0  0  0  0  0  0  0  0  0
  -28.8534  -13.5253   20.1968 C   0  0  0  0  0  0  0  0  0  0  0  0
  -30.5458  -15.3373   20.7114 C   0  0  0  0  0  0  0  0  0  0  0  0
  -28.1954  -15.6626   21.3743 C   0  0  0  0  0  0  0  0  0  0  0  0
  -19.9065  -28.5954   23.6654 C   0  0  1  0  0  0  0  0  0  0  0  0
  -21.5890  -25.4091   22.4612 C   0  0  1  0  0  0  0  0  0  0  0  0
  -27.7280  -14.5555   20.4152 C   0  0  2  0  0  0  0  0  0  0  0  0
  -25.4219  -23.3161   18.4740 C   0  0  0  0  0  0  0  0  0  0  0  0
  -21.4076  -17.7545   23.6350 C   0  0  0  0  0  0  0  0  0  0  0  0
  -31.8267  -21.8792   19.7988 C   0  0  0  0  0  0  0  0  0  0  0  0
  -30.8413  -23.0648   17.8511 C   0  0  0  0  0  0  0  0  0  0  0  0
  -19.9806  -23.6021   26.3992 C   0  0  0  0  0  0  0  0  0  0  0  0
  -20.2537  -21.1250   26.6400 C   0  0  0  0  0  0  0  0  0  0  0  0
  -18.5285  -22.0430   25.0897 C   0  0  0  0  0  0  0  0  0  0  0  0
  -27.9503  -23.0489   23.9870 C   0  0  0  0  0  0  0  0  0  0  0  0
  -29.9404  -24.4412   24.5950 C   0  0  0  0  0  0  0  0  0  0  0  0
  -23.4721  -19.6048   21.0292 C   0  0  0  0  0  0  0  0  0  0  0  0
  -29.9586  -23.5155   21.6738 C   0  0  0  0  0  0  0  0  0  0  0  0
  -29.0252  -24.5828   22.2546 C   0  0  0  0  0  0  0  0  0  0  0  0
  -20.9723  -22.2106   24.4637 C   0  0  1  0  0  0  0  0  0  0  0  0
  -21.7925  -18.9301   22.7503 C   0  0  2  0  0  0  0  0  0  0  0  0
  -30.5478  -22.5754   19.2873 C   0  0  0  0  0  0  0  0  0  0  0  0
  -19.9552  -22.2612   25.6387 C   0  0  0  0  0  0  0  0  0  0  0  0
  -28.6704  -24.3753   23.7410 C   0  0  0  0  0  0  0  0  0  1  0  0
  -26.5264  -12.7985   21.6604 N   0  0  0  0  0  0  0  0  0  0  0  0
  -29.4609  -20.4039   19.6641 N   0  0  0  0  0  0  0  0  0  0  0  0
  -26.4463  -13.8961   20.8890 N   0  0  0  0  0  0  0  0  0  0  0  0
  -21.8126  -24.2058   23.2651 N   0  0  0  0  0  0  0  0  0  0  0  0
  -29.4326  -16.2762   20.8667 N   0  0  0  0  0  0  0  0  0  0  0  0
  -24.9071  -15.3747   19.8620 N   0  0  0  0  0  0  0  0  0  0  0  0
  -22.2443  -12.4006   21.9739 N   0  0  0  0  0  0  0  0  0  0  0  0
  -28.4757  -18.2741   20.0573 N   0  0  0  0  0  0  0  0  0  0  0  0
  -20.3648  -27.4476   22.9123 N   0  0  0  0  0  0  0  0  0  0  0  0
  -20.9512  -20.9624   23.7086 N   0  0  0  0  0  0  0  0  0  0  0  0
  -22.9971  -18.5490   21.9601 N   0  3  0  0  0  0  0  0  0  0  0  0
  -24.8538  -21.1719   17.7235 O   0  0  0  0  0  0  0  0  0  0  0  0
  -22.2610  -14.2668   20.6412 O   0  0  0  0  0  0  0  0  0  0  0  0
  -21.7653  -26.5310   24.5313 O   0  0  0  0  0  0  0  0  0  0  0  0
  -30.3851  -24.9501   19.7915 O   0  0  0  0  0  0  0  0  0  0  0  0
  -19.6686  -23.3815   22.8650 O   0  0  0  0  0  0  0  0  0  0  0  0
  -23.1783  -20.4176   24.0559 O   0  0  0  0  0  0  0  0  0  0  0  0
  -30.7165  -18.1866   20.6513 O   0  0  0  0  0  0  0  0  0  0  0  0
  -23.9315   -8.0528   25.0210 O   0  0  0  0  0  0  0  0  0  0  0  0
  -27.7978  -25.4221   24.1716 O   0  0  0  0  0  0  0  0  0  1  0  0
  -19.9543   -4.7047   23.1837 F   0  0  0  0  0  0  0  0  0  0  0  0
  -21.3696   -8.9975   24.5889 F   0  0  0  0  0  0  0  0  0  0  0  0
  1  2  1  0  0  0  0
  1  5  2  0  0  0  0
  2  6  2  0  0  0  0
  3  8  2  0  0  0  0
  3 17  1  0  0  0  0
  4  9  1  0  0  0  0
  4 17  2  0  0  0  0
  5 20  1  0  0  0  0
  6 22  1  0  0  0  0
  7 10  2  0  0  0  0
  7 21  1  0  0  0  0
  8 24  1  0  0  0  0
  9 24  2  0  0  0  0
 10 25  1  0  0  0  0
 11 12  2  0  0  0  0
 11 26  1  0  0  0  0
 12 27  1  0  0  0  0
 13 18  2  0  0  0  0
 13 30  1  0  0  0  0
 14 18  1  0  0  0  0
 14 31  2  0  0  0  0
 15 23  1  0  0  0  0
 15 25  2  0  0  0  0
 16 27  2  0  0  0  0
 16 28  1  0  0  0  0
 17 29  1  0  0  0  0
 18 33  1  0  0  0  0
 19 29  1  0  0  0  0
 19 32  2  0  0  0  0
 19 34  1  0  0  0  0
 20 22  2  0  0  0  0
 20 40  1  0  0  0  0
 21 23  2  0  0  0  0
 21 41  1  0  0  0  0
 22 49  1  0  0  0  0
 23 42  1  0  0  0  0
 24 87  1  0  0  0  0
 25 88  1  0  0  0  0
 26 28  2  0  0  0  0
 26 87  1  0  0  0  0
 27 89  1  0  0  0  0
 28 90  1  0  0  0  0
 29 69  2  0  0  0  0
 30 66  1  0  0  0  0
 30 70  2  0  0  0  0
 31 70  1  0  0  0  0
 31 76  1  0  0  0  0
 32 71  1  0  0  0  0
 32 74  1  0  0  0  0
 33 52  1  0  0  0  0
 33 80  2  0  0  0  0
 34 75  1  0  0  0  0
 34 81  2  0  0  0  0
 35 50  1  0  0  0  0
 35 77  1  0  0  0  0
 35 82  2  0  0  0  0
 36 62  1  0  0  0  0
 36 66  1  0  0  0  0
 36 83  2  0  0  0  0
 37 64  1  0  0  0  0
 37 72  1  0  0  0  0
 37 84  2  0  0  0  0
 38 65  1  0  0  0  0
 38 78  1  0  0  0  0
 38 85  2  0  0  0  0
 39 73  1  0  0  0  0
 39 76  1  0  0  0  0
 39 86  2  0  0  0  0
 40 43  1  0  0  0  0
 41 50  1  0  0  0  0
 42 72  1  0  0  0  0
 43 45  1  0  0  0  0
 44 46  1  0  0  0  0
 44 47  1  0  0  0  0
 45 49  1  0  0  0  0
 46 51  1  0  0  0  0
 47 73  1  0  0  0  0
 48 51  1  0  0  0  0
 48 73  1  0  0  0  0
 49 77  1  0  0  0  0
 50 72  1  0  0  0  0
 51 71  1  0  0  0  0
 53 65  1  0  0  0  0
 54 66  1  0  0  0  0
 55 66  1  0  0  0  0
 56 67  1  0  0  0  0
 57 67  1  0  0  0  0
 58 67  1  0  0  0  0
 59 68  1  0  0  0  0
 60 68  1  0  0  0  0
 61 79  1  0  0  0  0
 62 63  1  0  0  0  0
 63 68  1  0  0  0  0
 64 67  1  0  0  0  0
 64 78  1  0  0  0  0
 65 79  1  0  0  0  0
 68 88  1  0  0  0  0
 69 71  1  0  0  0  0
M  CHG  1  79   1
M  ISO  4  39 100  68 101  76 100  88 101
M  END
> <Batch ID>
0136

> <Smiles>
CNC(C)C(=O)NC(C(=O)N1Cc2cc([101O:1][101C:1](C)(C)CCC(=O)C(C)(C)c3cc(C(C)=O)cc([100NH:0][100C:0](=O)N4CCCC(n5nc(-c6ccc(Oc7ccc(F)cc7F)cc6)c(C(N)=O)c5N)C4)n3)ccc2CC1C(=O)NC1CCCc2ccccc21)C(C)(C)C

> <Shape>
0.217

> <Color>
0.115

> <Negative vol penalty>
0.000

$$$$

  -OEChem-04052302393D

 85 93  0     1  0  0  0  0  0999 V2000
  -38.6264  -27.9379   13.9866 C   0  0  0  0  0  0  0  0  0  0  0  0
  -39.4710  -27.6399   15.0512 C   0  0  0  0  0  0  0  0  0  0  0  0
  -23.0005   -9.8940   19.9813 C   0  0  0  0  0  0  0  0  0  0  0  0
  -23.7257   -9.9450   22.2853 C   0  0  0  0  0  0  0  0  0  0  0  0
  -37.3002  -28.2935   14.2289 C   0  0  0  0  0  0  0  0  0  0  0  0
  -38.9902  -27.6984   16.3587 C   0  0  0  0  0  0  0  0  0  0  0  0
  -39.1849  -21.9112   20.6438 C   0  0  0  0  0  0  0  0  0  0  0  0
  -30.5096  -18.3445   23.9955 C   0  0  0  0  0  0  0  0  0  0  0  0
  -22.2338   -8.7596   20.2477 C   0  0  0  0  0  0  0  0  0  0  0  0
  -22.9591   -8.8106   22.5518 C   0  0  0  0  0  0  0  0  0  0  0  0
  -39.3802  -20.9072   21.5925 C   0  0  0  0  0  0  0  0  0  0  0  0
  -31.8948  -18.3259   24.1584 C   0  0  0  0  0  0  0  0  0  0  0  0
  -23.2030   -5.4716   22.0801 C   0  0  0  0  0  0  0  0  0  0  0  0
  -23.7905   -4.4544   22.8323 C   0  0  0  0  0  0  0  0  0  0  0  0
  -38.2505  -22.2472   23.2587 C   0  0  0  0  0  0  0  0  0  0  0  0
  -32.0601  -16.5327   22.5477 C   0  0  0  0  0  0  0  0  0  0  0  0
  -22.0667   -4.6977   24.5075 C   0  0  0  0  0  0  0  0  0  0  0  0
  -23.7465  -10.4867   21.0001 C   0  0  0  0  0  0  0  0  0  0  0  0
  -24.1320  -13.0022   20.8239 C   0  0  0  0  0  0  0  0  0  0  0  0
  -36.8003  -28.3470   15.5395 C   0  0  0  0  0  0  0  0  0  0  0  0
  -38.5072  -23.0819   20.9953 C   0  0  0  0  0  0  0  0  0  0  0  0
  -37.6564  -28.0564   16.6188 C   0  0  0  0  0  0  0  0  0  0  0  0
  -38.0409  -23.2510   22.3094 C   0  0  0  0  0  0  0  0  0  0  0  0
  -29.8996  -17.4572   23.1087 C   0  0  0  0  0  0  0  0  0  0  0  0
  -30.6749  -16.5513   22.3848 C   0  0  0  0  0  0  0  0  0  0  0  0
  -22.2131   -8.2179   21.5330 C   0  0  0  0  0  0  0  0  0  0  0  0
  -38.9144  -21.0750   22.8968 C   0  0  0  0  0  0  0  0  0  0  0  0
  -32.6700  -17.4200   23.4344 C   0  0  0  0  0  0  0  0  0  0  0  0
  -22.0474   -6.1019   22.5417 C   0  0  0  0  0  0  0  0  0  0  0  0
  -23.2223   -4.0674   24.0460 C   0  0  0  0  0  0  0  0  0  0  0  0
  -21.4792   -5.7149   23.7554 C   0  0  0  0  0  0  0  0  0  0  0  0
  -24.5391  -11.6582   20.7253 C   0  0  0  0  0  0  0  0  0  0  0  0
  -25.2419  -13.7247   20.4594 C   0  0  0  0  0  0  0  0  0  0  0  0
  -36.0331  -18.6490   23.3661 C   0  0  0  0  0  0  0  0  0  0  0  0
  -37.1428  -18.7935   24.1055 C   0  0  0  0  0  0  0  0  0  0  0  0
  -22.8642  -13.5488   21.2104 C   0  0  0  0  0  0  0  0  0  0  0  0
  -37.1896  -26.4190   19.8982 C   0  0  0  0  0  0  0  0  0  0  0  0
  -35.0657  -25.1822   21.7339 C   0  0  0  0  0  0  0  0  0  0  0  0
  -32.8077  -23.2960   23.4605 C   0  0  0  0  0  0  0  0  0  0  0  0
  -30.7214  -14.6852   20.6931 C   0  0  0  0  0  0  0  0  0  0  0  0
  -35.3724  -28.7824   15.7546 C   0  0  0  0  0  0  0  0  0  0  0  0
  -38.3282  -24.2156   20.0225 C   0  0  0  0  0  0  0  0  0  0  0  0
  -37.3479  -24.5416   22.6515 C   0  0  0  0  0  0  0  0  0  0  0  0
  -34.8395  -28.4568   17.1475 C   0  0  0  0  0  0  0  0  0  0  0  0
  -29.6028  -12.2323   18.3674 C   0  0  0  0  0  0  0  0  0  0  0  0
  -35.8524  -28.8601   18.2143 C   0  0  0  0  0  0  0  0  0  0  0  0
  -28.1522  -11.9748   18.7816 C   0  0  0  0  0  0  0  0  0  0  0  0
  -30.5034  -12.4757   19.5771 C   0  0  0  0  0  0  0  0  0  0  0  0
  -28.5882  -13.2648   20.9107 C   0  0  0  0  0  0  0  0  0  0  0  0
  -37.1651  -28.0846   18.0499 C   0  0  1  0  0  0  0  0  0  0  0  0
  -36.9953  -24.9633   20.2057 C   0  0  1  0  0  0  0  0  0  0  0  0
  -27.6305  -13.0785   19.7225 C   0  0  2  0  0  0  0  0  0  0  0  0
  -39.3977  -17.7254   24.1437 C   0  0  0  0  0  0  0  0  0  0  0  0
  -30.6119  -22.6621   24.4968 C   0  0  0  0  0  0  0  0  0  0  0  0
  -36.0552  -26.9363   24.0248 C   0  0  0  0  0  0  0  0  0  0  0  0
  -34.0612  -26.2061   25.3510 C   0  0  0  0  0  0  0  0  0  0  0  0
  -33.7471  -27.4700   23.2235 C   0  0  0  0  0  0  0  0  0  0  0  0
  -27.7289  -18.6872   23.1329 C   0  0  0  0  0  0  0  0  0  0  0  0
  -31.8581  -22.0352   20.9570 C   0  0  0  0  0  0  0  0  0  0  0  0
  -34.6527  -18.6337   23.9363 C   0  0  0  0  0  0  0  0  0  0  0  0
  -38.5284  -18.8152   23.5307 C   0  0  2  0  0  0  0  0  0  1  0  0
  -34.5174  -25.0637   23.1334 C   0  0  1  0  0  0  0  0  0  0  0  0
  -31.3421  -22.9943   23.2048 C   0  0  2  0  0  0  0  0  0  0  0  0
  -34.6134  -26.3998   23.9226 C   0  0  0  0  0  0  0  0  0  0  0  0
  -25.8083  -11.5315   20.3291 N   0  0  0  0  0  0  0  0  0  0  0  0
  -26.2084  -12.8053   20.1754 N   0  0  0  0  0  0  0  0  0  0  0  0
  -36.4314  -24.9229   21.5656 N   0  0  0  0  0  0  0  0  0  0  0  0
  -29.9485  -13.5367   20.4204 N   0  0  0  0  0  0  0  0  0  0  0  0
  -25.4755  -15.0503   20.3572 N   0  0  0  0  0  0  0  0  0  0  0  0
  -21.8323  -12.6648   21.5540 N   0  0  0  0  0  0  0  0  0  0  0  0
  -30.0773  -15.6405   21.4787 N   0  0  0  0  0  0  0  0  0  0  0  0
  -28.4951  -17.4936   22.9597 N   0  0  0  0  0  0  0  0  0  0  0  0
  -37.0250  -26.7390   18.5640 N   0  0  0  0  0  0  0  0  0  0  0  0
  -33.1601  -24.5461   22.9976 N   0  0  0  0  0  0  0  0  0  0  0  0
  -31.2059  -21.8361   22.2769 N   0  3  0  0  0  0  0  0  0  0  0  0
  -22.6476  -14.7841   21.2341 O   0  0  0  0  0  0  0  0  0  0  0  0
  -37.4669  -27.1961   20.8041 O   0  0  0  0  0  0  0  0  0  0  0  0
  -34.3074  -25.5013   20.8140 O   0  0  0  0  0  0  0  0  0  0  0  0
  -33.5634  -22.5036   24.0187 O   0  0  0  0  0  0  0  0  0  0  0  0
  -31.8601  -14.8240   20.2391 O   0  0  0  0  0  0  0  0  0  0  0  0
  -21.4649   -7.1111   21.7934 O   0  0  0  0  0  0  0  0  0  0  0  0
  -34.0312  -17.4024   23.5955 O   0  0  0  0  0  0  0  0  0  0  0  0
  -39.1045  -20.0890   23.8168 O   0  0  0  0  0  0  0  0  0  1  0  0
  -23.7857   -3.0895   24.7674 F   0  0  0  0  0  0  0  0  0  0  0  0
  -20.3684   -6.3159   24.2034 F   0  0  0  0  0  0  0  0  0  0  0  0
  1  2  1  0  0  0  0
  1  5  2  0  0  0  0
  2  6  2  0  0  0  0
  3  9  2  0  0  0  0
  3 18  1  0  0  0  0
  4 10  1  0  0  0  0
  4 18  2  0  0  0  0
  5 20  1  0  0  0  0
  6 22  1  0  0  0  0
  7 11  2  0  0  0  0
  7 21  1  0  0  0  0
  8 12  2  0  0  0  0
  8 24  1  0  0  0  0
  9 26  1  0  0  0  0
 10 26  2  0  0  0  0
 11 27  1  0  0  0  0
 12 28  1  0  0  0  0
 13 14  2  0  0  0  0
 13 29  1  0  0  0  0
 14 30  1  0  0  0  0
 15 23  1  0  0  0  0
 15 27  2  0  0  0  0
 16 25  1  0  0  0  0
 16 28  2  0  0  0  0
 17 30  2  0  0  0  0
 17 31  1  0  0  0  0
 18 32  1  0  0  0  0
 19 32  1  0  0  0  0
 19 33  2  0  0  0  0
 19 36  1  0  0  0  0
 20 22  2  0  0  0  0
 20 41  1  0  0  0  0
 21 23  2  0  0  0  0
 21 42  1  0  0  0  0
 22 50  1  0  0  0  0
 23 43  1  0  0  0  0
 24 25  2  0  0  0  0
 24 72  1  0  0  0  0
 25 71  1  0  0  0  0
 26 81  1  0  0  0  0
 27 83  1  0  0  0  0
 28 82  1  0  0  0  0
 29 31  2  0  0  0  0
 29 81  1  0  0  0  0
 30 84  1  0  0  0  0
 31 85  1  0  0  0  0
 32 65  2  0  0  0  0
 33 66  1  0  0  0  0
 33 69  1  0  0  0  0
 34 35  2  0  0  0  0
 34 60  1  0  0  0  0
 35 61  1  0  0  0  0
 36 70  1  0  0  0  0
 36 76  2  0  0  0  0
 37 51  1  0  0  0  0
 37 73  1  0  0  0  0
 37 77  2  0  0  0  0
 38 62  1  0  0  0  0
 38 67  1  0  0  0  0
 38 78  2  0  0  0  0
 39 63  1  0  0  0  0
 39 74  1  0  0  0  0
 39 79  2  0  0  0  0
 40 68  1  0  0  0  0
 40 71  1  0  0  0  0
 40 80  2  0  0  0  0
 41 44  1  0  0  0  0
 42 51  1  0  0  0  0
 43 67  1  0  0  0  0
 44 46  1  0  0  0  0
 45 47  1  0  0  0  0
 45 48  1  0  0  0  0
 46 50  1  0  0  0  0
 47 52  1  0  0  0  0
 48 68  1  0  0  0  0
 49 52  1  0  0  0  0
 49 68  1  0  0  0  0
 50 73  1  0  0  0  0
 51 67  1  0  0  0  0
 52 66  1  0  0  0  0
 53 61  1  0  0  0  0
 54 63  1  0  0  0  0
 55 64  1  0  0  0  0
 56 64  1  0  0  0  0
 57 64  1  0  0  0  0
 58 72  1  0  0  0  0
 59 75  1  0  0  0  0
 60 82  1  0  0  0  0
 61 83  1  0  0  0  0
 62 64  1  0  0  0  0
 62 74  1  0  0  0  0
 63 75  1  0  0  0  0
 65 66  1  0  0  0  0
M  CHG  1  75   1
M  ISO  4  40 100  61 101  71 100  83 101
M  END
> <Batch ID>
0136

> <Smiles>
CNc1ccc(OCC=C[101CH:1](C)[101O:1]c2ccc3c(c2)CN(C(=O)C(NC(=O)C(C)NC)C(C)(C)C)C(C(=O)NC2CCCc4ccccc42)C3)cc1[100NH:0][100C:0](=O)N1CCCC(n2nc(-c3ccc(Oc4ccc(F)cc4F)cc3)c(C(N)=O)c2N)C1

> <Shape>
0.175

> <Color>
0.198

> <Negative vol penalty>
0.000

$$$$

  -OEChem-04052302393D

 84 92  0     1  0  0  0  0  0999 V2000
  -23.7563   -4.7820   20.2418 C   0  0  0  0  0  0  0  0  0  0  0  0
  -24.7905   -5.6162   19.8297 C   0  0  0  0  0  0  0  0  0  0  0  0
  -25.2440  -29.9790   23.1305 C   0  0  0  0  0  0  0  0  0  0  0  0
  -26.9811  -31.1608   21.9377 C   0  0  0  0  0  0  0  0  0  0  0  0
  -22.4498   -5.2662   20.2926 C   0  0  0  0  0  0  0  0  0  0  0  0
  -24.5187   -6.9350   19.4672 C   0  0  0  0  0  0  0  0  0  0  0  0
  -28.1118  -11.8135   20.3592 C   0  0  0  0  0  0  0  0  0  0  0  0
  -25.3336  -30.9003   24.1739 C   0  0  0  0  0  0  0  0  0  0  0  0
  -27.0707  -32.0822   22.9810 C   0  0  0  0  0  0  0  0  0  0  0  0
  -28.9966  -12.4923   19.5224 C   0  0  0  0  0  0  0  0  0  0  0  0
  -25.3586  -34.7853   24.0688 C   0  0  0  0  0  0  0  0  0  0  0  0
  -25.4228  -36.1376   23.7333 C   0  0  0  0  0  0  0  0  0  0  0  0
  -29.7796  -18.9109   20.2318 C   0  0  0  0  0  0  0  0  0  0  0  0
  -27.2665  -14.0897   18.9987 C   0  0  0  0  0  0  0  0  0  0  0  0
  -27.5682  -36.3081   24.8312 C   0  0  0  0  0  0  0  0  0  0  0  0
  -26.0678  -30.1092   22.0124 C   0  0  0  0  0  0  0  0  0  0  0  0
  -29.4549  -19.5867   21.4323 C   0  0  0  0  0  0  0  0  0  0  0  0
  -25.1452  -29.2346   19.8007 C   0  0  0  0  0  0  0  0  0  0  0  0
  -22.1632   -6.5944   19.9397 C   0  0  0  0  0  0  0  0  0  0  0  0
  -26.7922  -12.2622   20.5137 C   0  0  0  0  0  0  0  0  0  0  0  0
  -23.2070   -7.4370   19.5121 C   0  0  0  0  0  0  0  0  0  0  0  0
  -26.3676  -13.4163   19.8400 C   0  0  0  0  0  0  0  0  0  0  0  0
  -26.2469  -31.9520   24.0992 C   0  0  0  0  0  0  0  0  0  0  0  0
  -28.5732  -13.6289   18.8398 C   0  0  0  0  0  0  0  0  0  0  0  0
  -26.3993  -34.1943   24.7855 C   0  0  0  0  0  0  0  0  0  0  0  0
  -26.5276  -36.8991   24.1145 C   0  0  0  0  0  0  0  0  0  0  0  0
  -27.5040  -34.9557   25.1666 C   0  0  0  0  0  0  0  0  0  0  0  0
  -25.9761  -29.1574   20.9345 C   0  0  0  0  0  0  0  0  0  0  0  0
  -29.9517  -18.8110   22.4537 C   0  0  0  0  0  0  0  0  0  0  0  0
  -25.4311  -28.0962   19.0874 C   0  0  0  0  0  0  0  0  0  0  0  0
  -30.4519  -17.7705   20.6053 C   0  0  0  0  0  0  0  0  0  0  0  0
  -28.7646  -20.8074   21.5796 C   0  0  0  0  0  0  0  0  0  0  0  0
  -28.2416  -21.5890   20.5746 C   0  0  0  0  0  0  0  0  0  0  0  0
  -24.1997  -30.2450   19.4257 C   0  0  0  0  0  0  0  0  0  0  0  0
  -27.5321  -22.8445   20.8925 C   0  0  0  0  0  0  0  0  0  0  0  0
  -23.9217  -11.0411   19.9033 C   0  0  0  0  0  0  0  0  0  0  0  0
  -22.8905  -13.7264   21.4025 C   0  0  0  0  0  0  0  0  0  0  0  0
  -23.5201  -16.9495   22.3311 C   0  0  0  0  0  0  0  0  0  0  0  0
  -20.7286   -7.0589   19.9653 C   0  0  0  0  0  0  0  0  0  0  0  0
  -25.8579  -11.5342   21.4408 C   0  0  0  0  0  0  0  0  0  0  0  0
  -24.9673  -13.9507   19.9876 C   0  0  0  0  0  0  0  0  0  0  0  0
  -20.5792   -8.5775   19.9231 C   0  0  0  0  0  0  0  0  0  0  0  0
  -28.9347  -24.9677   18.2550 C   0  0  0  0  0  0  0  0  0  0  0  0
  -21.4785   -9.1726   18.8442 C   0  0  0  0  0  0  0  0  0  0  0  0
  -28.2833  -26.3092   18.5805 C   0  0  0  0  0  0  0  0  0  0  0  0
  -29.2339  -24.1568   19.5150 C   0  0  0  0  0  0  0  0  0  0  0  0
  -27.3922  -25.2986   20.7171 C   0  0  0  0  0  0  0  0  0  0  0  0
  -22.9557   -8.8808   19.1346 C   0  0  1  0  0  0  0  0  0  0  0  0
  -24.3867  -11.7840   21.1237 C   0  0  1  0  0  0  0  0  0  0  0  0
  -27.0395  -26.1109   19.4612 C   0  0  1  0  0  0  0  0  0  0  0  0
  -29.9533  -18.9406   23.9194 C   0  0  0  0  0  0  0  0  0  0  0  0
  -22.4724  -18.8994   23.5133 C   0  0  0  0  0  0  0  0  0  0  0  0
  -21.1612  -14.2807   18.9504 C   0  0  0  0  0  0  0  0  0  0  0  0
  -20.8961  -16.6363   19.7562 C   0  0  0  0  0  0  0  0  0  0  0  0
  -20.0452  -14.7433   21.1402 C   0  0  0  0  0  0  0  0  0  0  0  0
  -33.0459  -15.4254   18.2528 C   0  0  0  0  0  0  0  0  0  0  0  0
  -31.4487  -15.6212   16.3365 C   0  0  0  0  0  0  0  0  0  0  0  0
  -25.6339  -16.9784   24.4023 C   0  0  0  0  0  0  0  0  0  0  0  0
  -30.8199  -14.2444   18.3610 C   0  0  0  0  0  0  0  0  0  1  0  0
  -30.9188  -16.7646   18.5015 C   0  0  0  0  0  0  0  0  0  0  0  0
  -22.5379  -15.1273   20.9639 C   0  0  1  0  0  0  0  0  0  0  0  0
  -23.3510  -17.6667   23.6584 C   0  0  2  0  0  0  0  0  0  0  0  0
  -21.1860  -15.1860   20.1982 C   0  0  0  0  0  0  0  0  0  0  0  0
  -31.5564  -15.5097   17.8681 C   0  0  0  0  0  0  0  0  0  0  0  0
  -26.7329  -28.0569   20.9452 N   0  0  0  0  0  0  0  0  0  0  0  0
  -26.3786  -27.4320   19.8094 N   0  0  0  0  0  0  0  0  0  0  0  0
  -28.0435  -24.0307   20.3693 N   0  0  0  0  0  0  0  0  0  0  0  0
  -24.0892  -13.2003   20.9005 N   0  0  0  0  0  0  0  0  0  0  0  0
  -24.9619  -27.6085   17.9193 N   0  0  0  0  0  0  0  0  0  0  0  0
  -24.0297  -31.3485   20.2730 N   0  0  0  0  0  0  0  0  0  0  0  0
  -23.4531   -9.7676   20.1644 N   0  0  0  0  0  0  0  0  0  0  0  0
  -22.5806  -15.9540   22.1652 N   0  0  0  0  0  0  0  0  0  0  0  0
  -24.6766  -18.0941   24.1887 N   0  3  0  0  0  0  0  0  0  0  0  0
  -23.5135  -30.1635   18.3788 O   0  0  0  0  0  0  0  0  0  0  0  0
  -26.5310  -22.7667   21.6071 O   0  0  0  0  0  0  0  0  0  0  0  0
  -23.9822  -11.5835   18.8061 O   0  0  0  0  0  0  0  0  0  0  0  0
  -22.1338  -13.1240   22.1680 O   0  0  0  0  0  0  0  0  0  0  0  0
  -24.3956  -17.2454   21.5209 O   0  0  0  0  0  0  0  0  0  0  0  0
  -30.5610  -17.7022   21.9581 O   0  0  0  0  0  0  0  0  0  0  0  0
  -26.3344  -32.8513   25.1170 O   0  0  0  0  0  0  0  0  0  0  0  0
  -29.4346  -14.2929   18.0220 O   0  0  0  0  0  0  0  0  0  1  0  0
  -31.0145  -16.7260   19.9197 O   0  0  0  0  0  0  0  0  0  0  0  0
  -26.5898  -38.1974   23.7910 F   0  0  0  0  0  0  0  0  0  0  0  0
  -28.5074  -34.3933   25.8542 F   0  0  0  0  0  0  0  0  0  0  0  0
  1  2  1  0  0  0  0
  1  5  2  0  0  0  0
  2  6  2  0  0  0  0
  3  8  2  0  0  0  0
  3 16  1  0  0  0  0
  4  9  1  0  0  0  0
  4 16  2  0  0  0  0
  5 19  1  0  0  0  0
  6 21  1  0  0  0  0
  7 10  2  0  0  0  0
  7 20  1  0  0  0  0
  8 23  1  0  0  0  0
  9 23  2  0  0  0  0
 10 24  1  0  0  0  0
 11 12  2  0  0  0  0
 11 25  1  0  0  0  0
 12 26  1  0  0  0  0
 13 17  1  0  0  0  0
 13 31  2  0  0  0  0
 14 22  1  0  0  0  0
 14 24  2  0  0  0  0
 15 26  2  0  0  0  0
 15 27  1  0  0  0  0
 16 28  1  0  0  0  0
 17 29  2  0  0  0  0
 17 32  1  0  0  0  0
 18 28  1  0  0  0  0
 18 30  2  0  0  0  0
 18 34  1  0  0  0  0
 19 21  2  0  0  0  0
 19 39  1  0  0  0  0
 20 22  2  0  0  0  0
 20 40  1  0  0  0  0
 21 48  1  0  0  0  0
 22 41  1  0  0  0  0
 23 80  1  0  0  0  0
 24 81  1  0  0  0  0
 25 27  2  0  0  0  0
 25 80  1  0  0  0  0
 26 83  1  0  0  0  0
 27 84  1  0  0  0  0
 28 65  2  0  0  0  0
 29 51  1  0  0  0  0
 29 79  1  0  0  0  0
 30 66  1  0  0  0  0
 30 69  1  0  0  0  0
 31 79  1  0  0  0  0
 31 82  1  0  0  0  0
 32 33  2  0  0  0  0
 33 35  1  0  0  0  0
 34 70  1  0  0  0  0
 34 74  2  0  0  0  0
 35 67  1  0  0  0  0
 35 75  2  0  0  0  0
 36 49  1  0  0  0  0
 36 71  1  0  0  0  0
 36 76  2  0  0  0  0
 37 61  1  0  0  0  0
 37 68  1  0  0  0  0
 37 77  2  0  0  0  0
 38 62  1  0  0  0  0
 38 72  1  0  0  0  0
 38 78  2  0  0  0  0
 39 42  1  0  0  0  0
 40 49  1  0  0  0  0
 41 68  1  0  0  0  0
 42 44  1  0  0  0  0
 43 45  1  0  0  0  0
 43 46  1  0  0  0  0
 44 48  1  0  0  0  0
 45 50  1  0  0  0  0
 46 67  1  0  0  0  0
 47 50  1  0  0  0  0
 47 67  1  0  0  0  0
 48 71  1  0  0  0  0
 49 68  1  0  0  0  0
 50 66  1  0  0  0  0
 52 62  1  0  0  0  0
 53 63  1  0  0  0  0
 54 63  1  0  0  0  0
 55 63  1  0  0  0  0
 56 64  1  0  0  0  0
 57 64  1  0  0  0  0
 58 73  1  0  0  0  0
 59 64  1  0  0  0  0
 59 81  1  0  0  0  0
 60 64  1  0  0  0  0
 60 82  1  0  0  0  0
 61 63  1  0  0  0  0
 61 72  1  0  0  0  0
 62 73  1  0  0  0  0
 65 66  1  0  0  0  0
M  CHG  1  73   1
M  ISO  4  33 100  35 100  59 101  81 101
M  END
> <Batch ID>
0136

> <Smiles>
CNC(C)C(=O)NC(C(=O)N1Cc2cc([101O:1][101CH2:1]C(C)(C)COc3cc(C=[100CH:0][100C:0](=O)N4CCCC(n5nc(-c6ccc(Oc7ccc(F)cc7F)cc6)c(C(N)=O)c5N)C4)c(C)o3)ccc2CC1C(=O)NC1CCCc2ccccc21)C(C)(C)C

> <Shape>
0.300

> <Color>
0.045

> <Negative vol penalty>
0.000

$$$$

  -OEChem-04052302393D

 89 97  0     1  0  0  0  0  0999 V2000
  -25.9827   -7.4172   23.0848 C   0  0  0  0  0  0  0  0  0  0  0  0
  -26.5542   -8.5797   22.5776 C   0  0  0  0  0  0  0  0  0  0  0  0
  -21.1359  -29.7531   21.4212 C   0  0  0  0  0  0  0  0  0  0  0  0
  -22.3249  -28.4402   23.0643 C   0  0  0  0  0  0  0  0  0  0  0  0
  -24.6506   -7.1165   22.8036 C   0  0  0  0  0  0  0  0  0  0  0  0
  -25.7942   -9.4417   21.7878 C   0  0  0  0  0  0  0  0  0  0  0  0
  -26.4134  -14.3023   23.0670 C   0  0  0  0  0  0  0  0  0  0  0  0
  -19.9233  -29.2688   21.9117 C   0  0  0  0  0  0  0  0  0  0  0  0
  -21.1122  -27.9559   23.5549 C   0  0  0  0  0  0  0  0  0  0  0  0
  -27.5753  -14.9339   22.6255 C   0  0  0  0  0  0  0  0  0  0  0  0
  -18.3478  -26.0958   25.0066 C   0  0  0  0  0  0  0  0  0  0  0  0
  -18.2538  -24.7290   25.2686 C   0  0  0  0  0  0  0  0  0  0  0  0
  -31.6210  -20.4477   20.7262 C   0  0  0  0  0  0  0  0  0  0  0  0
  -29.4772  -21.5617   20.7274 C   0  0  0  0  0  0  0  0  0  0  0  0
  -26.3318  -15.9499   20.8253 C   0  0  0  0  0  0  0  0  0  0  0  0
  -31.4708  -22.7791   20.1106 C   0  0  0  0  0  0  0  0  0  0  0  0
  -18.7337  -24.2514   22.9494 C   0  0  0  0  0  0  0  0  0  0  0  0
  -22.3367  -29.3387   21.9975 C   0  0  0  0  0  0  0  0  0  0  0  0
  -30.2419  -20.4132   20.9322 C   0  0  0  0  0  0  0  0  0  0  0  0
  -24.2787  -30.9907   21.9135 C   0  0  0  0  0  0  0  0  0  0  0  0
  -23.8711   -7.9801   22.0179 C   0  0  0  0  0  0  0  0  0  0  0  0
  -25.2022  -14.4815   22.3833 C   0  0  0  0  0  0  0  0  0  0  0  0
  -24.4508   -9.1516   21.4946 C   0  0  0  0  0  0  0  0  0  0  0  0
  -25.1554  -15.3216   21.2616 C   0  0  0  0  0  0  0  0  0  0  0  0
  -32.2355  -21.6307   20.3154 C   0  0  0  0  0  0  0  0  0  0  0  0
  -30.0916  -22.7446   20.3166 C   0  0  0  0  0  0  0  0  0  0  0  0
  -19.9114  -28.3703   22.9785 C   0  0  0  0  0  0  0  0  0  0  0  0
  -27.5352  -15.7555   21.5028 C   0  0  0  0  0  0  0  0  0  0  0  0
  -18.6346  -26.5404   23.7160 C   0  0  0  0  0  0  0  0  0  0  0  0
  -18.4468  -23.8068   24.2400 C   0  0  0  0  0  0  0  0  0  0  0  0
  -18.8276  -25.6183   22.6874 C   0  0  0  0  0  0  0  0  0  0  0  0
  -23.5897  -29.8382   21.4908 C   0  0  0  0  0  0  0  0  0  0  0  0
  -25.4046  -31.0252   21.1275 C   0  0  0  0  0  0  0  0  0  0  0  0
  -29.5844  -19.1470   21.3719 C   0  0  0  0  0  0  0  0  0  0  0  0
  -23.9321  -31.9448   22.9260 C   0  0  0  0  0  0  0  0  0  0  0  0
  -23.1961  -12.5637   20.8338 C   0  0  0  0  0  0  0  0  0  0  0  0
  -28.4015  -26.7044   18.2188 C   0  0  0  0  0  0  0  0  0  0  0  0
  -21.3783  -15.2450   20.6649 C   0  0  0  0  0  0  0  0  0  0  0  0
  -29.7623  -25.1636   19.7022 C   0  0  0  0  0  0  0  0  0  0  0  0
  -21.2338  -18.6545   20.7045 C   0  0  0  0  0  0  0  0  0  0  0  0
  -22.4492   -7.5891   21.7017 C   0  0  0  0  0  0  0  0  0  0  0  0
  -23.9521  -13.8144   22.8881 C   0  0  0  0  0  0  0  0  0  0  0  0
  -23.8760  -15.5629   20.5044 C   0  0  0  0  0  0  0  0  0  0  0  0
  -21.6047   -8.7429   21.1673 C   0  0  0  0  0  0  0  0  0  0  0  0
  -27.0233  -29.7068   16.8310 C   0  0  0  0  0  0  0  0  0  0  0  0
  -22.3665   -9.5075   20.0894 C   0  0  0  0  0  0  0  0  0  0  0  0
  -26.0285  -30.1701   17.8945 C   0  0  0  0  0  0  0  0  0  0  0  0
  -27.0794  -28.1848   16.7442 C   0  0  0  0  0  0  0  0  0  0  0  0
  -26.3855  -27.9745   19.1098 C   0  0  0  0  0  0  0  0  0  0  0  0
  -23.6517  -10.1242   20.6545 C   0  0  1  0  0  0  0  0  0  0  0  0
  -22.8815  -13.6596   21.8124 C   0  0  1  0  0  0  0  0  0  0  0  0
  -26.3205  -29.5055   19.2515 C   0  0  2  0  0  0  0  0  0  0  0  0
  -19.6128  -20.5598   20.5063 C   0  0  0  0  0  0  0  0  0  0  0  0
  -34.2505  -23.4996   21.7397 C   0  0  0  0  0  0  0  0  0  0  0  0
  -34.3030  -21.1349   22.5328 C   0  0  0  0  0  0  0  0  0  0  0  0
  -36.0903  -21.9881   20.9952 C   0  0  0  0  0  0  0  0  0  0  0  0
  -21.2406  -14.8109   17.6479 C   0  0  0  0  0  0  0  0  0  0  0  0
  -20.4589  -17.1777   17.4132 C   0  0  0  0  0  0  0  0  0  0  0  0
  -19.0890  -15.5351   18.6969 C   0  0  0  0  0  0  0  0  0  0  0  0
  -21.8711  -19.6318   23.4243 C   0  0  0  0  0  0  0  0  0  0  0  0
  -33.7102  -21.6678   20.0952 C   0  0  0  0  0  0  0  0  0  0  0  0
  -30.4485  -17.9112   21.5864 C   0  0  0  0  0  0  0  0  0  0  0  0
  -28.6054  -26.1365   19.6008 C   0  0  0  0  0  0  0  0  0  0  0  0
  -29.6446  -16.7049   22.0554 C   0  0  0  0  0  0  0  0  0  1  0  0
  -21.2509  -16.3906   19.6901 C   0  0  1  0  0  0  0  0  0  0  0  0
  -20.3318  -19.6158   21.4573 C   0  0  2  0  0  0  0  0  0  0  0  0
  -34.5900  -22.0507   21.3302 C   0  0  0  0  0  0  0  0  0  0  0  0
  -20.5345  -15.9727   18.3749 C   0  0  0  0  0  0  0  0  0  0  0  0
  -24.2247  -29.1876   20.5123 N   0  0  0  0  0  0  0  0  0  0  0  0
  -25.3245  -29.9339   20.3134 N   0  0  0  0  0  0  0  0  0  0  0  0
  -22.6819  -14.8833   21.0333 N   0  0  0  0  0  0  0  0  0  0  0  0
  -27.3364  -27.5906   18.0572 N   0  0  0  0  0  0  0  0  0  0  0  0
  -26.4454  -31.8823   21.0603 N   0  0  0  0  0  0  0  0  0  0  0  0
  -22.7399  -31.7590   23.6391 N   0  0  0  0  0  0  0  0  0  0  0  0
  -29.3272  -23.8936   20.1113 N   0  0  0  0  0  0  0  0  0  0  0  0
  -23.3481  -11.3185   21.4134 N   0  0  0  0  0  0  0  0  0  0  0  0
  -20.5892  -17.4708   20.4137 N   0  0  0  0  0  0  0  0  0  0  0  0
  -21.1297  -20.4318   22.4157 N   0  3  0  0  0  0  0  0  0  0  0  0
  -28.3684  -19.1338   21.5489 O   0  0  0  0  0  0  0  0  0  0  0  0
  -24.6499  -32.9419   23.1793 O   0  0  0  0  0  0  0  0  0  0  0  0
  -23.2922  -12.8279   19.6411 O   0  0  0  0  0  0  0  0  0  0  0  0
  -29.1689  -26.3714   17.3119 O   0  0  0  0  0  0  0  0  0  0  0  0
  -20.3585  -14.6961   21.0897 O   0  0  0  0  0  0  0  0  0  0  0  0
  -30.9136  -25.5016   19.4464 O   0  0  0  0  0  0  0  0  0  0  0  0
  -22.3930  -18.9278   20.4011 O   0  0  0  0  0  0  0  0  0  0  0  0
  -18.7283  -27.8977   23.4576 O   0  0  0  0  0  0  0  0  0  0  0  0
  -28.6680  -16.3726   21.0694 O   0  0  0  0  0  0  0  0  0  1  0  0
  -18.3581  -22.4943   24.4921 F   0  0  0  0  0  0  0  0  0  0  0  0
  -19.1046  -26.0394   21.4457 F   0  0  0  0  0  0  0  0  0  0  0  0
  1  2  1  0  0  0  0
  1  5  2  0  0  0  0
  2  6  2  0  0  0  0
  3  8  2  0  0  0  0
  3 18  1  0  0  0  0
  4  9  1  0  0  0  0
  4 18  2  0  0  0  0
  5 21  1  0  0  0  0
  6 23  1  0  0  0  0
  7 10  2  0  0  0  0
  7 22  1  0  0  0  0
  8 27  1  0  0  0  0
  9 27  2  0  0  0  0
 10 28  1  0  0  0  0
 11 12  2  0  0  0  0
 11 29  1  0  0  0  0
 12 30  1  0  0  0  0
 13 19  1  0  0  0  0
 13 25  2  0  0  0  0
 14 19  2  0  0  0  0
 14 26  1  0  0  0  0
 15 24  1  0  0  0  0
 15 28  2  0  0  0  0
 16 25  1  0  0  0  0
 16 26  2  0  0  0  0
 17 30  2  0  0  0  0
 17 31  1  0  0  0  0
 18 32  1  0  0  0  0
 19 34  1  0  0  0  0
 20 32  1  0  0  0  0
 20 33  2  0  0  0  0
 20 35  1  0  0  0  0
 21 23  2  0  0  0  0
 21 41  1  0  0  0  0
 22 24  2  0  0  0  0
 22 42  1  0  0  0  0
 23 50  1  0  0  0  0
 24 43  1  0  0  0  0
 25 61  1  0  0  0  0
 26 75  1  0  0  0  0
 27 86  1  0  0  0  0
 28 87  1  0  0  0  0
 29 31  2  0  0  0  0
 29 86  1  0  0  0  0
 30 88  1  0  0  0  0
 31 89  1  0  0  0  0
 32 69  2  0  0  0  0
 33 70  1  0  0  0  0
 33 73  1  0  0  0  0
 34 62  1  0  0  0  0
 34 79  2  0  0  0  0
 35 74  1  0  0  0  0
 35 80  2  0  0  0  0
 36 51  1  0  0  0  0
 36 76  1  0  0  0  0
 36 81  2  0  0  0  0
 37 63  1  0  0  0  0
 37 72  1  0  0  0  0
 37 82  2  0  0  0  0
 38 65  1  0  0  0  0
 38 71  1  0  0  0  0
 38 83  2  0  0  0  0
 39 63  1  0  0  0  0
 39 75  1  0  0  0  0
 39 84  2  0  0  0  0
 40 66  1  0  0  0  0
 40 77  1  0  0  0  0
 40 85  2  0  0  0  0
 41 44  1  0  0  0  0
 42 51  1  0  0  0  0
 43 71  1  0  0  0  0
 44 46  1  0  0  0  0
 45 47  1  0  0  0  0
 45 48  1  0  0  0  0
 46 50  1  0  0  0  0
 47 52  1  0  0  0  0
 48 72  1  0  0  0  0
 49 52  1  0  0  0  0
 49 72  1  0  0  0  0
 50 76  1  0  0  0  0
 51 71  1  0  0  0  0
 52 70  1  0  0  0  0
 53 66  1  0  0  0  0
 54 67  1  0  0  0  0
 55 67  1  0  0  0  0
 56 67  1  0  0  0  0
 57 68  1  0  0  0  0
 58 68  1  0  0  0  0
 59 68  1  0  0  0  0
 60 78  1  0  0  0  0
 61 67  1  0  0  0  0
 62 64  1  0  0  0  0
 64 87  1  0  0  0  0
 65 68  1  0  0  0  0
 65 77  1  0  0  0  0
 66 78  1  0  0  0  0
 69 70  1  0  0  0  0
M  CHG  1  78   1
M  ISO  4  37 100  63 100  64 101  87 101
M  END
> <Batch ID>
0136

> <Smiles>
CNC(C)C(=O)NC(C(=O)N1Cc2cc([101O:1][101CH2:1]CC(=O)c3cc(CC(C)(C)C)cc(NC(=O)[100CH2:0][100C:0](=O)N4CCCC(n5nc(-c6ccc(Oc7ccc(F)cc7F)cc6)c(C(N)=O)c5N)C4)c3)ccc2CC1C(=O)NC1CCCc2ccccc21)C(C)(C)C

> <Shape>
0.258

> <Color>
0.053

> <Negative vol penalty>
0.000

$$$$

  -OEChem-04052302393D

 88 96  0     1  0  0  0  0  0999 V2000
  -23.1308   -8.0462   22.1998 C   0  0  0  0  0  0  0  0  0  0  0  0
  -24.0095   -8.9128   21.5576 C   0  0  0  0  0  0  0  0  0  0  0  0
  -22.3801  -28.9449   22.0040 C   0  0  0  0  0  0  0  0  0  0  0  0
  -23.1344  -27.5279   23.8096 C   0  0  0  0  0  0  0  0  0  0  0  0
  -21.8168   -8.4429   22.4449 C   0  0  0  0  0  0  0  0  0  0  0  0
  -23.5743  -10.1762   21.1592 C   0  0  0  0  0  0  0  0  0  0  0  0
  -26.9003  -13.8232   22.2916 C   0  0  0  0  0  0  0  0  0  0  0  0
  -21.0619  -28.5652   22.2567 C   0  0  0  0  0  0  0  0  0  0  0  0
  -21.8162  -27.1482   24.0624 C   0  0  0  0  0  0  0  0  0  0  0  0
  -28.0119  -13.9517   21.4600 C   0  0  0  0  0  0  0  0  0  0  0  0
  -18.6299  -29.3348   24.4761 C   0  0  0  0  0  0  0  0  0  0  0  0
  -17.6601  -30.3370   24.5013 C   0  0  0  0  0  0  0  0  0  0  0  0
  -26.9421  -15.7916   20.3244 C   0  0  0  0  0  0  0  0  0  0  0  0
  -31.1059  -21.1896   22.9592 C   0  0  0  0  0  0  0  0  0  0  0  0
  -30.8523  -22.7342   21.1190 C   0  0  0  0  0  0  0  0  0  0  0  0
  -30.0999  -23.3547   23.3293 C   0  0  0  0  0  0  0  0  0  0  0  0
  -16.4915  -29.2518   22.6864 C   0  0  0  0  0  0  0  0  0  0  0  0
  -23.4163  -28.4261   22.7805 C   0  0  0  0  0  0  0  0  0  0  0  0
  -25.4731  -29.9046   23.0827 C   0  0  0  0  0  0  0  0  0  0  0  0
  -21.3680   -9.7154   22.0579 C   0  0  0  0  0  0  0  0  0  0  0  0
  -25.7949  -14.6722   22.1384 C   0  0  0  0  0  0  0  0  0  0  0  0
  -22.2527  -10.5898   21.3981 C   0  0  0  0  0  0  0  0  0  0  0  0
  -25.8188  -15.6734   21.1570 C   0  0  0  0  0  0  0  0  0  0  0  0
  -31.2722  -21.4976   21.6090 C   0  0  0  0  0  0  0  0  0  0  0  0
  -30.5197  -22.1181   23.8194 C   0  0  0  0  0  0  0  0  0  0  0  0
  -30.2661  -23.6628   21.9791 C   0  0  0  0  0  0  0  0  0  0  0  0
  -20.7799  -27.6669   23.2859 C   0  0  0  0  0  0  0  0  0  0  0  0
  -28.0318  -14.9342   20.4743 C   0  0  0  0  0  0  0  0  0  0  0  0
  -18.5306  -28.2911   23.5561 C   0  0  0  0  0  0  0  0  0  0  0  0
  -16.5909  -30.2955   23.6064 C   0  0  0  0  0  0  0  0  0  0  0  0
  -17.4614  -28.2496   22.6612 C   0  0  0  0  0  0  0  0  0  0  0  0
  -24.7783  -28.8175   22.5196 C   0  0  0  0  0  0  0  0  0  0  0  0
  -26.7224  -29.8449   22.5150 C   0  0  0  0  0  0  0  0  0  0  0  0
  -30.5628  -18.4083   20.6520 C   0  0  0  0  0  0  0  0  0  0  0  0
  -25.0291  -30.8812   24.0340 C   0  0  0  0  0  0  0  0  0  0  0  0
  -30.9068  -19.5533   20.0278 C   0  0  0  0  0  0  0  0  0  0  0  0
  -22.7287  -14.2539   21.4120 C   0  0  0  0  0  0  0  0  0  0  0  0
  -22.5432  -17.4253   22.0680 C   0  0  0  0  0  0  0  0  0  0  0  0
  -24.5241  -20.3695   21.4161 C   0  0  0  0  0  0  0  0  0  0  0  0
  -29.9311  -25.3831   20.1695 C   0  0  0  0  0  0  0  0  0  0  0  0
  -19.9255  -10.0817   22.3020 C   0  0  0  0  0  0  0  0  0  0  0  0
  -24.6145  -14.5380   23.0610 C   0  0  0  0  0  0  0  0  0  0  0  0
  -24.6658  -16.6234   20.9650 C   0  0  0  0  0  0  0  0  0  0  0  0
  -19.6486  -11.5782   22.1832 C   0  0  0  0  0  0  0  0  0  0  0  0
  -28.9631  -28.3962   18.5382 C   0  0  0  0  0  0  0  0  0  0  0  0
  -20.3013  -12.1437   20.9258 C   0  0  0  0  0  0  0  0  0  0  0  0
  -27.8475  -28.9482   19.4286 C   0  0  0  0  0  0  0  0  0  0  0  0
  -28.9204  -26.8714   18.4553 C   0  0  0  0  0  0  0  0  0  0  0  0
  -27.7921  -26.7314   20.6408 C   0  0  0  0  0  0  0  0  0  0  0  0
  -21.8250  -11.9777   20.9729 C   0  0  1  0  0  0  0  0  0  0  0  0
  -23.3316  -15.1234   22.4790 C   0  0  1  0  0  0  0  0  0  0  0  0
  -27.8338  -28.2592   20.8072 C   0  0  2  0  0  0  0  0  0  0  0  0
  -29.0005  -21.1172   25.5447 C   0  0  0  0  0  0  0  0  0  0  0  0
  -31.1881  -19.4775   17.5257 C   0  0  0  0  0  0  0  0  0  0  0  0
  -24.7079  -22.5262   22.6858 C   0  0  0  0  0  0  0  0  0  0  0  0
  -20.3964  -18.4098   20.1361 C   0  0  0  0  0  0  0  0  0  0  0  0
  -21.5621  -20.6247   20.0790 C   0  0  0  0  0  0  0  0  0  0  0  0
  -20.6221  -19.7670   22.2245 C   0  0  0  0  0  0  0  0  0  0  0  0
  -30.6815  -15.4347   21.4505 C   0  0  0  0  0  0  0  0  0  0  0  0
  -31.2739  -15.9123   19.0600 C   0  0  0  0  0  0  0  0  0  0  0  0
  -27.4624  -20.1109   21.6584 C   0  0  0  0  0  0  0  0  0  0  0  0
  -31.9069  -20.4919   20.6776 C   0  0  0  0  0  0  0  0  0  0  0  0
  -30.3422  -21.7887   25.2631 C   0  0  0  0  0  0  0  0  0  0  0  0
  -29.5714  -17.3697   20.1947 C   0  0  0  0  0  0  0  0  0  0  0  0
  -30.3492  -19.9860   18.6892 C   0  0  0  0  0  0  0  0  0  0  0  0
  -22.7008  -18.6941   21.2653 C   0  0  1  0  0  0  0  0  0  0  0  0
  -25.3316  -21.1636   22.4269 C   0  0  2  0  0  0  0  0  0  0  0  0
  -21.3342  -19.3500   20.9193 C   0  0  0  0  0  0  0  0  0  0  0  0
  -30.1536  -15.9430   20.1058 C   0  0  0  0  0  0  0  0  0  1  0  0
  -25.5241  -28.1184   21.6600 N   0  0  0  0  0  0  0  0  0  0  0  0
  -26.7006  -28.7677   21.6787 N   0  0  0  0  0  0  0  0  0  0  0  0
  -23.5321  -16.4479   21.8877 N   0  0  0  0  0  0  0  0  0  0  0  0
  -28.9140  -26.2879   19.7986 N   0  0  0  0  0  0  0  0  0  0  0  0
  -27.8264  -30.6092   22.6546 N   0  0  0  0  0  0  0  0  0  0  0  0
  -23.7154  -30.7962   24.5150 N   0  0  0  0  0  0  0  0  0  0  0  0
  -29.8397  -24.9190   21.4813 N   0  0  0  0  0  0  0  0  0  0  0  0
  -22.4158  -12.9769   21.8372 N   0  0  0  0  0  0  0  0  0  0  0  0
  -23.5988  -19.5523   22.0304 N   0  0  0  0  0  0  0  0  0  0  0  0
  -26.7222  -21.3696   21.9321 N   0  3  0  0  0  0  0  0  0  0  0  0
  -25.7699  -31.8116   24.4328 O   0  0  0  0  0  0  0  0  0  0  0  0
  -22.5587  -14.7085   20.2868 O   0  0  0  0  0  0  0  0  0  0  0  0
  -21.5820  -17.3088   22.8324 O   0  0  0  0  0  0  0  0  0  0  0  0
  -24.6943  -20.4674   20.2029 O   0  0  0  0  0  0  0  0  0  0  0  0
  -30.8333  -25.0658   19.3901 O   0  0  0  0  0  0  0  0  0  0  0  0
  -19.4938  -27.2964   23.5329 O   0  0  0  0  0  0  0  0  0  0  0  0
  -29.1198  -15.0619   19.6574 O   0  0  0  0  0  0  0  0  0  1  0  0
  -15.6589  -31.2572   23.6317 F   0  0  0  0  0  0  0  0  0  0  0  0
  -17.3600  -27.2488   21.7758 F   0  0  0  0  0  0  0  0  0  0  0  0
  1  2  1  0  0  0  0
  1  5  2  0  0  0  0
  2  6  2  0  0  0  0
  3  8  2  0  0  0  0
  3 18  1  0  0  0  0
  4  9  1  0  0  0  0
  4 18  2  0  0  0  0
  5 20  1  0  0  0  0
  6 22  1  0  0  0  0
  7 10  2  0  0  0  0
  7 21  1  0  0  0  0
  8 27  1  0  0  0  0
  9 27  2  0  0  0  0
 10 28  1  0  0  0  0
 11 12  2  0  0  0  0
 11 29  1  0  0  0  0
 12 30  1  0  0  0  0
 13 23  1  0  0  0  0
 13 28  2  0  0  0  0
 14 24  1  0  0  0  0
 14 25  2  0  0  0  0
 15 24  2  0  0  0  0
 15 26  1  0  0  0  0
 16 25  1  0  0  0  0
 16 26  2  0  0  0  0
 17 30  2  0  0  0  0
 17 31  1  0  0  0  0
 18 32  1  0  0  0  0
 19 32  1  0  0  0  0
 19 33  2  0  0  0  0
 19 35  1  0  0  0  0
 20 22  2  0  0  0  0
 20 41  1  0  0  0  0
 21 23  2  0  0  0  0
 21 42  1  0  0  0  0
 22 50  1  0  0  0  0
 23 43  1  0  0  0  0
 24 62  1  0  0  0  0
 25 63  1  0  0  0  0
 26 76  1  0  0  0  0
 27 85  1  0  0  0  0
 28 86  1  0  0  0  0
 29 31  2  0  0  0  0
 29 85  1  0  0  0  0
 30 87  1  0  0  0  0
 31 88  1  0  0  0  0
 32 70  2  0  0  0  0
 33 71  1  0  0  0  0
 33 74  1  0  0  0  0
 34 36  2  0  0  0  0
 34 64  1  0  0  0  0
 35 75  1  0  0  0  0
 35 80  2  0  0  0  0
 36 62  1  0  0  0  0
 36 65  1  0  0  0  0
 37 51  1  0  0  0  0
 37 77  1  0  0  0  0
 37 81  2  0  0  0  0
 38 66  1  0  0  0  0
 38 72  1  0  0  0  0
 38 82  2  0  0  0  0
 39 67  1  0  0  0  0
 39 78  1  0  0  0  0
 39 83  2  0  0  0  0
 40 73  1  0  0  0  0
 40 76  1  0  0  0  0
 40 84  2  0  0  0  0
 41 44  1  0  0  0  0
 42 51  1  0  0  0  0
 43 72  1  0  0  0  0
 44 46  1  0  0  0  0
 45 47  1  0  0  0  0
 45 48  1  0  0  0  0
 46 50  1  0  0  0  0
 47 52  1  0  0  0  0
 48 73  1  0  0  0  0
 49 52  1  0  0  0  0
 49 73  1  0  0  0  0
 50 77  1  0  0  0  0
 51 72  1  0  0  0  0
 52 71  1  0  0  0  0
 53 63  1  0  0  0  0
 54 65  1  0  0  0  0
 55 67  1  0  0  0  0
 56 68  1  0  0  0  0
 57 68  1  0  0  0  0
 58 68  1  0  0  0  0
 59 69  1  0  0  0  0
 60 69  1  0  0  0  0
 61 79  1  0  0  0  0
 64 69  1  0  0  0  0
 66 68  1  0  0  0  0
 66 78  1  0  0  0  0
 67 79  1  0  0  0  0
 69 86  1  0  0  0  0
 70 71  1  0  0  0  0
M  CHG  1  79   1
M  ISO  4  40 100  69 101  76 100  86 101
M  END
> <Batch ID>
0136

> <Smiles>
CCC(=CC[101C:1](C)(C)[101O:1]c1ccc2c(c1)CN(C(=O)C(NC(=O)C(C)NC)C(C)(C)C)C(C(=O)NC1CCCc3ccccc31)C2)Cc1cc(CC)cc([100NH:0][100C:0](=O)N2CCCC(n3nc(-c4ccc(Oc5ccc(F)cc5F)cc4)c(C(N)=O)c3N)C2)c1

> <Shape>
0.250

> <Color>
0.077

> <Negative vol penalty>
0.000

$$$$

  -OEChem-04052302393D

 86 94  0     1  0  0  0  0  0999 V2000
  -16.4354  -29.3655   22.8950 C   0  0  0  0  0  0  0  0  0  0  0  0
  -17.4178  -29.6304   21.9463 C   0  0  0  0  0  0  0  0  0  0  0  0
  -26.6601  -13.2720   21.8905 C   0  0  0  0  0  0  0  0  0  0  0  0
  -26.0950  -14.5461   19.9171 C   0  0  0  0  0  0  0  0  0  0  0  0
  -16.7983  -29.0610   24.2063 C   0  0  0  0  0  0  0  0  0  0  0  0
  -18.7638  -29.5920   22.3086 C   0  0  0  0  0  0  0  0  0  0  0  0
  -25.2140  -27.9521   19.6587 C   0  0  0  0  0  0  0  0  0  0  0  0
  -25.3276  -12.8800   22.0190 C   0  0  0  0  0  0  0  0  0  0  0  0
  -24.7626  -14.1541   20.0455 C   0  0  0  0  0  0  0  0  0  0  0  0
  -26.4896  -28.4962   19.5154 C   0  0  0  0  0  0  0  0  0  0  0  0
  -23.2491  -10.6184   20.6055 C   0  0  0  0  0  0  0  0  0  0  0  0
  -22.9921   -9.2751   20.8791 C   0  0  0  0  0  0  0  0  0  0  0  0
  -30.4218  -22.9719   20.1872 C   0  0  0  0  0  0  0  0  0  0  0  0
  -29.3745  -24.0925   18.3206 C   0  0  0  0  0  0  0  0  0  0  0  0
  -27.0013  -27.8809   21.7911 C   0  0  0  0  0  0  0  0  0  0  0  0
  -29.6305  -21.6902   18.2983 C   0  0  0  0  0  0  0  0  0  0  0  0
  -21.8835   -9.9051   22.9312 C   0  0  0  0  0  0  0  0  0  0  0  0
  -27.0438  -14.1051   20.8396 C   0  0  0  0  0  0  0  0  0  0  0  0
  -29.9874  -24.1462   19.5724 C   0  0  0  0  0  0  0  0  0  0  0  0
  -29.4354  -13.8505   19.9894 C   0  0  0  0  0  0  0  0  0  0  0  0
  -18.1497  -29.0093   24.5826 C   0  0  0  0  0  0  0  0  0  0  0  0
  -24.8181  -27.3771   20.8749 C   0  0  0  0  0  0  0  0  0  0  0  0
  -19.1451  -29.2878   23.6265 C   0  0  0  0  0  0  0  0  0  0  0  0
  -25.7210  -27.3279   21.9465 C   0  0  0  0  0  0  0  0  0  0  0  0
  -30.2434  -21.7439   19.5501 C   0  0  0  0  0  0  0  0  0  0  0  0
  -24.3789  -13.3210   21.0965 C   0  0  0  0  0  0  0  0  0  0  0  0
  -27.3825  -28.4633   20.5825 C   0  0  0  0  0  0  0  0  0  0  0  0
  -22.8234  -11.6052   21.4948 C   0  0  0  0  0  0  0  0  0  0  0  0
  -22.3093   -8.9184   22.0419 C   0  0  0  0  0  0  0  0  0  0  0  0
  -29.1960  -22.8645   17.6835 C   0  0  0  0  0  0  0  0  0  0  0  0
  -22.1406  -11.2485   22.6576 C   0  0  0  0  0  0  0  0  0  0  0  0
  -28.4200  -14.5108   20.7067 C   0  0  0  0  0  0  0  0  0  0  0  0
  -30.5498  -14.6319   20.1738 C   0  0  0  0  0  0  0  0  0  0  0  0
  -30.9169  -26.4052   19.6433 C   0  0  0  0  0  0  0  0  0  0  0  0
  -30.1781  -25.4536   20.2498 C   0  0  0  0  0  0  0  0  0  0  0  0
  -29.3766  -12.6391   19.2247 C   0  0  0  0  0  0  0  0  0  0  0  0
  -22.5536  -27.9978   23.0175 C   0  0  0  0  0  0  0  0  0  0  0  0
  -23.6110  -25.2396   24.3580 C   0  0  0  0  0  0  0  0  0  0  0  0
  -26.1540  -22.9977   24.7500 C   0  0  0  0  0  0  0  0  0  0  0  0
  -31.3121  -20.4274   21.4132 C   0  0  0  0  0  0  0  0  0  0  0  0
  -18.4917  -28.7221   26.0231 C   0  0  0  0  0  0  0  0  0  0  0  0
  -23.4478  -26.7706   21.0049 C   0  0  0  0  0  0  0  0  0  0  0  0
  -25.3518  -26.7038   23.2666 C   0  0  0  0  0  0  0  0  0  0  0  0
  -19.9526  -28.3340   26.2367 C   0  0  0  0  0  0  0  0  0  0  0  0
  -32.5175  -17.6673   23.3121 C   0  0  0  0  0  0  0  0  0  0  0  0
  -20.8741  -29.2898   25.4856 C   0  0  0  0  0  0  0  0  0  0  0  0
  -31.7002  -16.4835   22.7899 C   0  0  0  0  0  0  0  0  0  0  0  0
  -31.6859  -18.9473   23.3739 C   0  0  0  0  0  0  0  0  0  0  0  0
  -30.1872  -18.1221   21.6013 C   0  0  0  0  0  0  0  0  0  0  0  0
  -20.6166  -29.2315   23.9750 C   0  0  1  0  0  0  0  0  0  0  0  0
  -22.9734  -26.6707   22.4514 C   0  0  1  0  0  0  0  0  0  0  0  0
  -31.0002  -16.8249   21.4599 C   0  0  2  0  0  0  0  0  0  0  0  0
  -29.5245  -25.5950   21.5970 C   0  0  0  0  0  0  0  0  0  0  0  0
  -32.7731  -27.8730   20.3900 C   0  0  0  0  0  0  0  0  0  0  0  0
  -26.7332  -20.8633   25.9359 C   0  0  0  0  0  0  0  0  0  0  0  0
  -31.3424  -28.9260   17.8339 C   0  0  0  0  0  0  0  0  0  0  0  0
  -23.9493  -26.7842   26.9675 C   0  0  0  0  0  0  0  0  0  0  0  0
  -25.3833  -24.9122   27.8085 C   0  0  0  0  0  0  0  0  0  0  0  0
  -22.9940  -24.4880   27.2307 C   0  0  0  0  0  0  0  0  0  0  0  0
  -26.6012  -21.5657   22.1989 C   0  0  0  0  0  0  0  0  0  0  0  0
  -29.2072  -28.9636   19.1417 C   0  0  0  0  0  0  0  0  0  1  0  0
  -31.2574  -27.7864   20.1647 C   0  0  1  0  0  0  0  0  0  0  0  0
  -24.6666  -24.8818   25.3761 C   0  0  1  0  0  0  0  0  0  0  0  0
  -26.1840  -21.4826   24.6601 C   0  0  2  0  0  0  0  0  0  0  0  0
  -30.7418  -28.9356   19.2445 C   0  0  1  0  0  0  0  0  0  0  0  0
  -24.2549  -25.2801   26.8216 C   0  0  0  0  0  0  0  0  0  0  0  0
  -28.8510  -15.6258   21.3025 N   0  0  0  0  0  0  0  0  0  0  0  0
  -30.1497  -15.6721   20.9600 N   0  0  0  0  0  0  0  0  0  0  0  0
  -23.9984  -26.1298   23.3464 N   0  0  0  0  0  0  0  0  0  0  0  0
  -31.0565  -19.2093   22.0777 N   0  0  0  0  0  0  0  0  0  0  0  0
  -31.8231  -14.5238   19.7385 N   0  0  0  0  0  0  0  0  0  0  0  0
  -28.1525  -11.9619   19.1389 N   0  0  0  0  0  0  0  0  0  0  0  0
  -30.6850  -20.5507   20.1738 N   0  0  0  0  0  0  0  0  0  0  0  0
  -21.2278  -28.0507   23.4034 N   0  0  0  0  0  0  0  0  0  0  0  0
  -24.9357  -23.4585   25.2022 N   0  0  0  0  0  0  0  0  0  0  0  0
  -27.0403  -21.0482   23.5204 N   0  3  0  0  0  0  0  0  0  0  0  0
  -30.3837  -12.1624   18.6485 O   0  0  0  0  0  0  0  0  0  0  0  0
  -23.3723  -28.9059   23.0994 O   0  0  0  0  0  0  0  0  0  0  0  0
  -22.4863  -24.7419   24.4525 O   0  0  0  0  0  0  0  0  0  0  0  0
  -27.1165  -23.7018   24.4526 O   0  0  0  0  0  0  0  0  0  0  0  0
  -32.0560  -21.2858   21.8948 O   0  0  0  0  0  0  0  0  0  0  0  0
  -23.0786  -12.9385   21.2214 O   0  0  0  0  0  0  0  0  0  0  0  0
  -28.6280  -28.9942   20.4455 O   0  0  0  0  0  0  0  0  0  1  0  0
  -22.0612   -7.6284   22.3037 F   0  0  0  0  0  0  0  0  0  0  0  0
  -28.6100  -22.8127   16.4802 F   0  0  0  0  0  0  0  0  0  0  0  0
  -21.7281  -12.1920   23.5152 F   0  0  0  0  0  0  0  0  0  0  0  0
  1  2  1  0  0  0  0
  1  5  2  0  0  0  0
  2  6  2  0  0  0  0
  3  8  2  0  0  0  0
  3 18  1  0  0  0  0
  4  9  1  0  0  0  0
  4 18  2  0  0  0  0
  5 21  1  0  0  0  0
  6 23  1  0  0  0  0
  7 10  2  0  0  0  0
  7 22  1  0  0  0  0
  8 26  1  0  0  0  0
  9 26  2  0  0  0  0
 10 27  1  0  0  0  0
 11 12  2  0  0  0  0
 11 28  1  0  0  0  0
 12 29  1  0  0  0  0
 13 19  2  0  0  0  0
 13 25  1  0  0  0  0
 14 19  1  0  0  0  0
 14 30  2  0  0  0  0
 15 24  1  0  0  0  0
 15 27  2  0  0  0  0
 16 25  2  0  0  0  0
 16 30  1  0  0  0  0
 17 29  2  0  0  0  0
 17 31  1  0  0  0  0
 18 32  1  0  0  0  0
 19 35  1  0  0  0  0
 20 32  1  0  0  0  0
 20 33  2  0  0  0  0
 20 36  1  0  0  0  0
 21 23  2  0  0  0  0
 21 41  1  0  0  0  0
 22 24  2  0  0  0  0
 22 42  1  0  0  0  0
 23 50  1  0  0  0  0
 24 43  1  0  0  0  0
 25 73  1  0  0  0  0
 26 82  1  0  0  0  0
 27 83  1  0  0  0  0
 28 31  2  0  0  0  0
 28 82  1  0  0  0  0
 29 84  1  0  0  0  0
 30 85  1  0  0  0  0
 31 86  1  0  0  0  0
 32 67  2  0  0  0  0
 33 68  1  0  0  0  0
 33 71  1  0  0  0  0
 34 35  2  0  0  0  0
 34 62  1  0  0  0  0
 35 53  1  0  0  0  0
 36 72  1  0  0  0  0
 36 77  2  0  0  0  0
 37 51  1  0  0  0  0
 37 74  1  0  0  0  0
 37 78  2  0  0  0  0
 38 63  1  0  0  0  0
 38 69  1  0  0  0  0
 38 79  2  0  0  0  0
 39 64  1  0  0  0  0
 39 75  1  0  0  0  0
 39 80  2  0  0  0  0
 40 70  1  0  0  0  0
 40 73  1  0  0  0  0
 40 81  2  0  0  0  0
 41 44  1  0  0  0  0
 42 51  1  0  0  0  0
 43 69  1  0  0  0  0
 44 46  1  0  0  0  0
 45 47  1  0  0  0  0
 45 48  1  0  0  0  0
 46 50  1  0  0  0  0
 47 52  1  0  0  0  0
 48 70  1  0  0  0  0
 49 52  1  0  0  0  0
 49 70  1  0  0  0  0
 50 74  1  0  0  0  0
 51 69  1  0  0  0  0
 52 68  1  0  0  0  0
 54 62  1  0  0  0  0
 55 64  1  0  0  0  0
 56 65  1  0  0  0  0
 57 66  1  0  0  0  0
 58 66  1  0  0  0  0
 59 66  1  0  0  0  0
 60 76  1  0  0  0  0
 61 65  1  0  0  0  0
 61 83  1  0  0  0  0
 62 65  1  0  0  0  0
 63 66  1  0  0  0  0
 63 75  1  0  0  0  0
 64 76  1  0  0  0  0
 67 68  1  0  0  0  0
M  CHG  1  76   1
M  ISO  4  40 100  61 101  73 100  83 101
M  END
> <Batch ID>
0136

> <Smiles>
CNC(C)C(=O)NC(C(=O)N1Cc2cc([101O:1][101CH2:1]C(C)C(C)C=C(C)c3cc(F)cc([100NH:0][100C:0](=O)N4CCCC(n5nc(-c6ccc(Oc7ccc(F)cc7F)cc6)c(C(N)=O)c5N)C4)c3)ccc2CC1C(=O)NC1CCCc2ccccc21)C(C)(C)C

> <Shape>
0.270

> <Color>
0.074

> <Negative vol penalty>
0.000

$$$$

  -OEChem-04052302393D

 85 93  0     1  0  0  0  0  0999 V2000
  -29.5437  -33.6318   29.3564 C   0  0  0  0  0  0  0  0  0  0  0  0
  -30.0333  -32.3335   29.2560 C   0  0  0  0  0  0  0  0  0  0  0  0
  -23.0562   -9.8772   19.9251 C   0  0  0  0  0  0  0  0  0  0  0  0
  -23.8234   -9.8499   22.2159 C   0  0  0  0  0  0  0  0  0  0  0  0
  -28.5852  -34.0860   28.4515 C   0  0  0  0  0  0  0  0  0  0  0  0
  -29.5638  -31.4882   28.2512 C   0  0  0  0  0  0  0  0  0  0  0  0
  -32.7563  -27.2103   25.2489 C   0  0  0  0  0  0  0  0  0  0  0  0
  -30.5219  -18.2449   24.1090 C   0  0  0  0  0  0  0  0  0  0  0  0
  -32.6978  -17.3877   23.5023 C   0  0  0  0  0  0  0  0  0  0  0  0
  -29.9250  -17.3767   23.1950 C   0  0  0  0  0  0  0  0  0  0  0  0
  -32.1008  -16.5195   22.5883 C   0  0  0  0  0  0  0  0  0  0  0  0
  -22.3047   -8.7265   20.1630 C   0  0  0  0  0  0  0  0  0  0  0  0
  -23.0718   -8.6992   22.4539 C   0  0  0  0  0  0  0  0  0  0  0  0
  -32.8567  -25.8292   25.4104 C   0  0  0  0  0  0  0  0  0  0  0  0
  -19.8398   -7.9175   23.0569 C   0  0  0  0  0  0  0  0  0  0  0  0
  -19.0863   -7.8685   24.2297 C   0  0  0  0  0  0  0  0  0  0  0  0
  -31.1789  -25.5139   23.7060 C   0  0  0  0  0  0  0  0  0  0  0  0
  -20.3158   -5.9129   24.9378 C   0  0  0  0  0  0  0  0  0  0  0  0
  -23.8156  -10.4389   20.9515 C   0  0  0  0  0  0  0  0  0  0  0  0
  -24.1756  -12.9628   20.8618 C   0  0  0  0  0  0  0  0  0  0  0  0
  -28.1108  -33.2491   27.4292 C   0  0  0  0  0  0  0  0  0  0  0  0
  -31.8570  -27.7549   24.3209 C   0  0  0  0  0  0  0  0  0  0  0  0
  -28.5971  -31.9313   27.3326 C   0  0  0  0  0  0  0  0  0  0  0  0
  -31.0708  -26.9022   23.5329 C   0  0  0  0  0  0  0  0  0  0  0  0
  -31.9083  -18.2505   24.2626 C   0  0  0  0  0  0  0  0  0  0  0  0
  -30.7144  -16.5139   22.4347 C   0  0  0  0  0  0  0  0  0  0  0  0
  -22.3124   -8.1375   21.4274 C   0  0  0  0  0  0  0  0  0  0  0  0
  -32.0659  -24.9808   24.6410 C   0  0  0  0  0  0  0  0  0  0  0  0
  -20.8313   -6.9642   22.8245 C   0  0  0  0  0  0  0  0  0  0  0  0
  -19.3243   -6.8662   25.1702 C   0  0  0  0  0  0  0  0  0  0  0  0
  -21.0693   -5.9620   23.7650 C   0  0  0  0  0  0  0  0  0  0  0  0
  -24.5926  -11.6273   20.7061 C   0  0  0  0  0  0  0  0  0  0  0  0
  -25.2720  -13.7088   20.5044 C   0  0  0  0  0  0  0  0  0  0  0  0
  -22.9102  -13.4826   21.2913 C   0  0  0  0  0  0  0  0  0  0  0  0
  -29.3206  -29.6616   24.5081 C   0  0  0  0  0  0  0  0  0  0  0  0
  -29.4796  -29.5437   21.2703 C   0  0  0  0  0  0  0  0  0  0  0  0
  -30.5009  -27.8669   18.4789 C   0  0  0  0  0  0  0  0  0  0  0  0
  -30.7463  -14.7121   20.6743 C   0  0  0  0  0  0  0  0  0  0  0  0
  -27.0397  -33.7693   26.5035 C   0  0  0  0  0  0  0  0  0  0  0  0
  -31.7798  -29.2461   24.1398 C   0  0  0  0  0  0  0  0  0  0  0  0
  -30.1044  -27.4360   22.5083 C   0  0  0  0  0  0  0  0  0  0  0  0
  -26.8694  -32.9327   25.2381 C   0  0  0  0  0  0  0  0  0  0  0  0
  -29.6067  -12.3363   18.2797 C   0  0  0  0  0  0  0  0  0  0  0  0
  -26.8228  -31.4474   25.5823 C   0  0  0  0  0  0  0  0  0  0  0  0
  -28.1663  -12.0499   18.7103 C   0  0  0  0  0  0  0  0  0  0  0  0
  -30.5272  -12.5434   19.4811 C   0  0  0  0  0  0  0  0  0  0  0  0
  -28.6301  -13.2644   20.8775 C   0  0  0  0  0  0  0  0  0  0  0  0
  -28.1306  -30.9925   26.2411 C   0  0  1  0  0  0  0  0  0  0  0  0
  -30.4597  -29.7063   23.5292 C   0  0  1  0  0  0  0  0  0  0  0  0
  -27.6523  -13.1130   19.7008 C   0  0  2  0  0  0  0  0  0  0  0  0
  -30.4533  -27.9995   15.9734 C   0  0  0  0  0  0  0  0  0  0  0  0
  -31.9860  -18.8476   26.6702 C   0  0  0  0  0  0  0  0  0  0  0  0
  -34.0953  -19.0276   25.4008 C   0  0  0  0  0  0  0  0  0  0  0  0
  -26.5526  -28.6822   21.2828 C   0  0  0  0  0  0  0  0  0  0  0  0
  -26.8374  -27.9262   18.9131 C   0  0  0  0  0  0  0  0  0  0  0  0
  -27.1471  -30.3311   19.4989 C   0  0  0  0  0  0  0  0  0  0  0  0
  -34.1782  -21.8171   23.7699 C   0  0  0  0  0  0  0  0  0  0  0  0
  -32.3775  -20.7221   22.4155 C   0  0  0  0  0  0  0  0  0  0  0  0
  -33.4546  -27.9485   18.3113 C   0  0  0  0  0  0  0  0  0  0  0  0
  -32.2160  -20.7200   25.0101 C   0  0  0  0  0  0  0  0  0  0  0  0
  -31.8935  -22.8253   23.6511 C   0  0  0  0  0  0  0  0  0  1  0  0
  -28.8977  -28.6484   20.2032 C   0  0  1  0  0  0  0  0  0  0  0  0
  -31.2341  -28.3346   17.2347 C   0  0  2  0  0  0  0  0  0  0  0  0
  -32.5681  -19.2104   25.2730 C   0  0  0  0  0  0  0  0  0  0  0  0
  -27.3754  -28.8867   19.9951 C   0  0  0  0  0  0  0  0  0  0  0  0
  -32.6727  -21.4798   23.7170 C   0  0  0  0  0  0  0  0  0  0  0  0
  -25.8554  -11.5274   20.2825 N   0  0  0  0  0  0  0  0  0  0  0  0
  -26.2413  -12.8097   20.1690 N   0  0  0  0  0  0  0  0  0  0  0  0
  -30.0608  -28.9014   22.3728 N   0  0  0  0  0  0  0  0  0  0  0  0
  -29.9786  -13.5672   20.3731 N   0  0  0  0  0  0  0  0  0  0  0  0
  -25.4920  -15.0395   20.4473 N   0  0  0  0  0  0  0  0  0  0  0  0
  -21.8928  -12.5767   21.6205 N   0  0  0  0  0  0  0  0  0  0  0  0
  -30.1083  -15.6316   21.5063 N   0  0  0  0  0  0  0  0  0  0  0  0
  -29.1656  -30.8207   25.2443 N   0  0  0  0  0  0  0  0  0  0  0  0
  -29.7049  -28.8613   19.0068 N   0  0  0  0  0  0  0  0  0  0  0  0
  -32.5717  -27.6836   17.1462 N   0  3  0  0  0  0  0  0  0  0  0  0
  -22.6832  -14.7141   21.3648 O   0  0  0  0  0  0  0  0  0  0  0  0
  -28.6323  -28.6509   24.5884 O   0  0  0  0  0  0  0  0  0  0  0  0
  -29.4271  -30.7678   21.1274 O   0  0  0  0  0  0  0  0  0  0  0  0
  -30.6194  -26.7316   18.9346 O   0  0  0  0  0  0  0  0  0  0  0  0
  -31.8751  -14.8785   20.2051 O   0  0  0  0  0  0  0  0  0  0  0  0
  -21.5790   -7.0147   21.6601 O   0  0  0  0  0  0  0  0  0  0  0  0
  -32.1615  -23.6323   24.7970 O   0  0  0  0  0  0  0  0  0  1  0  0
  -18.6017   -6.8202   26.2971 F   0  0  0  0  0  0  0  0  0  0  0  0
  -22.0212   -5.0441   23.5479 F   0  0  0  0  0  0  0  0  0  0  0  0
  1  2  1  0  0  0  0
  1  5  2  0  0  0  0
  2  6  2  0  0  0  0
  3 12  2  0  0  0  0
  3 19  1  0  0  0  0
  4 13  1  0  0  0  0
  4 19  2  0  0  0  0
  5 21  1  0  0  0  0
  6 23  1  0  0  0  0
  7 14  2  0  0  0  0
  7 22  1  0  0  0  0
  8 10  2  0  0  0  0
  8 25  1  0  0  0  0
  9 11  1  0  0  0  0
  9 25  2  0  0  0  0
 10 26  1  0  0  0  0
 11 26  2  0  0  0  0
 12 27  1  0  0  0  0
 13 27  2  0  0  0  0
 14 28  1  0  0  0  0
 15 16  2  0  0  0  0
 15 29  1  0  0  0  0
 16 30  1  0  0  0  0
 17 24  1  0  0  0  0
 17 28  2  0  0  0  0
 18 30  2  0  0  0  0
 18 31  1  0  0  0  0
 19 32  1  0  0  0  0
 20 32  1  0  0  0  0
 20 33  2  0  0  0  0
 20 34  1  0  0  0  0
 21 23  2  0  0  0  0
 21 39  1  0  0  0  0
 22 24  2  0  0  0  0
 22 40  1  0  0  0  0
 23 48  1  0  0  0  0
 24 41  1  0  0  0  0
 25 64  1  0  0  0  0
 26 73  1  0  0  0  0
 27 82  1  0  0  0  0
 28 83  1  0  0  0  0
 29 31  2  0  0  0  0
 29 82  1  0  0  0  0
 30 84  1  0  0  0  0
 31 85  1  0  0  0  0
 32 67  2  0  0  0  0
 33 68  1  0  0  0  0
 33 71  1  0  0  0  0
 34 72  1  0  0  0  0
 34 77  2  0  0  0  0
 35 49  1  0  0  0  0
 35 74  1  0  0  0  0
 35 78  2  0  0  0  0
 36 62  1  0  0  0  0
 36 69  1  0  0  0  0
 36 79  2  0  0  0  0
 37 63  1  0  0  0  0
 37 75  1  0  0  0  0
 37 80  2  0  0  0  0
 38 70  1  0  0  0  0
 38 73  1  0  0  0  0
 38 81  2  0  0  0  0
 39 42  1  0  0  0  0
 40 49  1  0  0  0  0
 41 69  1  0  0  0  0
 42 44  1  0  0  0  0
 43 45  1  0  0  0  0
 43 46  1  0  0  0  0
 44 48  1  0  0  0  0
 45 50  1  0  0  0  0
 46 70  1  0  0  0  0
 47 50  1  0  0  0  0
 47 70  1  0  0  0  0
 48 74  1  0  0  0  0
 49 69  1  0  0  0  0
 50 68  1  0  0  0  0
 51 63  1  0  0  0  0
 52 64  1  0  0  0  0
 53 64  1  0  0  0  0
 54 65  1  0  0  0  0
 55 65  1  0  0  0  0
 56 65  1  0  0  0  0
 57 66  1  0  0  0  0
 58 66  1  0  0  0  0
 59 76  1  0  0  0  0
 60 64  1  0  0  0  0
 60 66  1  0  0  0  0
 61 66  1  0  0  0  0
 61 83  1  0  0  0  0
 62 65  1  0  0  0  0
 62 75  1  0  0  0  0
 63 76  1  0  0  0  0
 67 68  1  0  0  0  0
M  CHG  1  76   1
M  ISO  4  38 100  61 101  73 100  83 101
M  END
> <Batch ID>
0136

> <Smiles>
CNC(C)C(=O)NC(C(=O)N1Cc2cc([101O:1][101CH2:1]C(C)(C)CC(C)(C)c3ccc([100NH:0][100C:0](=O)N4CCCC(n5nc(-c6ccc(Oc7ccc(F)cc7F)cc6)c(C(N)=O)c5N)C4)cc3)ccc2CC1C(=O)NC1CCCc2ccccc21)C(C)(C)C

> <Shape>
0.244

> <Color>
0.194

> <Negative vol penalty>
0.000

$$$$

  -OEChem-04052302393D

 90 98  0     1  0  0  0  0  0999 V2000
  -25.6485  -39.6692   23.2961 C   0  0  0  0  0  0  0  0  0  0  0  0
  -26.7474  -38.8845   23.6308 C   0  0  0  0  0  0  0  0  0  0  0  0
  -23.8150   -9.7581   20.7818 C   0  0  0  0  0  0  0  0  0  0  0  0
  -24.4443  -10.4987   22.9937 C   0  0  0  0  0  0  0  0  0  0  0  0
  -24.3579  -39.1877   23.5117 C   0  0  0  0  0  0  0  0  0  0  0  0
  -26.5563  -37.6182   24.1825 C   0  0  0  0  0  0  0  0  0  0  0  0
  -29.2044  -31.7374   20.9738 C   0  0  0  0  0  0  0  0  0  0  0  0
  -23.3445   -8.5591   21.3171 C   0  0  0  0  0  0  0  0  0  0  0  0
  -23.9738   -9.2997   23.5291 C   0  0  0  0  0  0  0  0  0  0  0  0
  -29.8589  -30.5872   20.5324 C   0  0  0  0  0  0  0  0  0  0  0  0
  -20.5926   -7.4718   22.9535 C   0  0  0  0  0  0  0  0  0  0  0  0
  -19.3554   -7.0050   22.5096 C   0  0  0  0  0  0  0  0  0  0  0  0
  -28.7889  -29.2965   22.2751 C   0  0  0  0  0  0  0  0  0  0  0  0
  -28.5668  -20.7720   21.5590 C   0  0  0  0  0  0  0  0  0  0  0  0
  -20.4074   -4.9856   21.7017 C   0  0  0  0  0  0  0  0  0  0  0  0
  -30.6629  -20.5260   20.4625 C   0  0  0  0  0  0  0  0  0  0  0  0
  -24.3650  -10.7279   21.6201 C   0  0  0  0  0  0  0  0  0  0  0  0
  -24.1239  -13.1562   20.8765 C   0  0  0  0  0  0  0  0  0  0  0  0
  -24.1509  -37.9110   24.0574 C   0  0  0  0  0  0  0  0  0  0  0  0
  -28.3266  -31.6683   22.0593 C   0  0  0  0  0  0  0  0  0  0  0  0
  -25.2618  -37.1197   24.4069 C   0  0  0  0  0  0  0  0  0  0  0  0
  -28.1208  -30.4428   22.7139 C   0  0  0  0  0  0  0  0  0  0  0  0
  -29.7230  -21.3554   21.0529 C   0  0  0  0  0  0  0  0  0  0  0  0
  -28.3884  -19.3966   21.4607 C   0  0  0  0  0  0  0  0  0  0  0  0
  -23.4238   -8.3299   22.6908 C   0  0  0  0  0  0  0  0  0  0  0  0
  -29.6519  -29.3699   21.1817 C   0  0  0  0  0  0  0  0  0  0  0  0
  -21.7372   -6.6956   22.7715 C   0  0  0  0  0  0  0  0  0  0  0  0
  -19.2628   -5.7619   21.8837 C   0  0  0  0  0  0  0  0  0  0  0  0
  -21.6445   -5.4525   22.1456 C   0  0  0  0  0  0  0  0  0  0  0  0
  -24.8517  -11.9664   21.0676 C   0  0  0  0  0  0  0  0  0  0  0  0
  -29.3879  -18.6550   20.8518 C   0  0  0  0  0  0  0  0  0  0  0  0
  -25.0309  -14.0291   20.3271 C   0  0  0  0  0  0  0  0  0  0  0  0
  -22.7507  -13.4464   21.1696 C   0  0  0  0  0  0  0  0  0  0  0  0
  -25.9576  -33.4917   24.3262 C   0  0  0  0  0  0  0  0  0  0  0  0
  -24.6836  -30.7702   23.7092 C   0  0  0  0  0  0  0  0  0  0  0  0
  -23.4354  -27.8564   22.4488 C   0  0  0  0  0  0  0  0  0  0  0  0
  -30.0972  -16.3340   20.1762 C   0  0  0  0  0  0  0  0  0  0  0  0
  -22.7375  -37.4526   24.3160 C   0  0  0  0  0  0  0  0  0  0  0  0
  -27.6473  -32.8938   22.6074 C   0  0  0  0  0  0  0  0  0  0  0  0
  -27.1943  -30.4227   23.8989 C   0  0  0  0  0  0  0  0  0  0  0  0
  -22.6191  -35.9499   24.5572 C   0  0  0  0  0  0  0  0  0  0  0  0
  -29.6787  -13.2262   18.4899 C   0  0  0  0  0  0  0  0  0  0  0  0
  -23.6877  -35.4810   25.5395 C   0  0  0  0  0  0  0  0  0  0  0  0
  -28.3257  -12.7193   18.9945 C   0  0  0  0  0  0  0  0  0  0  0  0
  -30.4594  -13.9471   19.5874 C   0  0  0  0  0  0  0  0  0  0  0  0
  -28.3743  -14.5185   20.7686 C   0  0  0  0  0  0  0  0  0  0  0  0
  -25.0952  -35.7309   24.9844 C   0  0  1  0  0  0  0  0  0  0  0  0
  -26.2323  -32.6108   23.1430 C   0  0  1  0  0  0  0  0  0  0  0  0
  -27.5236  -13.8421   19.6812 C   0  0  2  0  0  0  0  0  0  0  0  0
  -26.1498  -18.4131   20.9054 C   0  0  0  0  0  0  0  0  0  0  0  0
  -31.8143  -24.0379   18.7981 C   0  0  0  0  0  0  0  0  0  0  0  0
  -21.4267  -26.3573   22.5726 C   0  0  0  0  0  0  0  0  0  0  0  0
  -31.9537  -27.5958   22.3270 C   0  0  0  0  0  0  0  0  0  0  0  0
  -25.6250  -29.7388   26.4209 C   0  0  0  0  0  0  0  0  0  0  0  0
  -24.2287  -27.6943   26.0485 C   0  0  0  0  0  0  0  0  0  0  0  0
  -23.1432  -29.9362   26.1838 C   0  0  0  0  0  0  0  0  0  0  0  0
  -28.7595  -26.2071   19.3118 C   0  0  0  0  0  0  0  0  0  0  0  0
  -28.2252  -25.4125   21.5973 C   0  0  0  0  0  0  0  0  0  0  0  0
  -28.0478  -23.2163   19.4955 C   0  0  0  0  0  0  0  0  0  0  0  0
  -22.8559  -28.2014   19.5672 C   0  0  0  0  0  0  0  0  0  0  0  0
  -29.9482  -22.8513   21.1450 C   0  0  0  0  0  0  0  0  0  0  0  0
  -27.1468  -18.7747   22.0036 C   0  0  0  0  0  0  0  0  0  0  0  0
  -30.3606  -23.5995   18.6990 C   0  0  0  0  0  0  0  0  0  0  0  0
  -30.6297  -25.8659   21.0522 C   0  0  0  0  0  0  0  0  0  0  0  0
  -24.4962  -29.3358   24.1341 C   0  0  1  0  0  0  0  0  0  0  0  0
  -22.0856  -27.5173   21.8425 C   0  0  2  0  0  0  0  0  0  0  0  0
  -30.5960  -27.2537   21.7204 C   0  0  2  0  0  0  0  0  0  1  0  0
  -24.3933  -29.1837   25.6781 C   0  0  0  0  0  0  0  0  0  0  0  0
  -29.2824  -25.3069   20.4573 C   0  0  0  0  0  0  0  0  0  0  0  0
  -29.4364  -23.7572   19.9609 C   0  0  1  0  0  0  0  0  0  0  0  0
  -30.5247  -19.1861   20.3485 N   0  0  0  0  0  0  0  0  0  0  0  0
  -26.1231  -12.0705   20.6716 N   0  0  0  0  0  0  0  0  0  0  0  0
  -26.2012  -13.3360   20.2261 N   0  0  0  0  0  0  0  0  0  0  0  0
  -26.0009  -31.2358   23.6173 N   0  0  0  0  0  0  0  0  0  0  0  0
  -29.6383  -14.9999   20.1895 N   0  0  0  0  0  0  0  0  0  0  0  0
  -24.9336  -15.3142   19.9253 N   0  0  0  0  0  0  0  0  0  0  0  0
  -21.9595  -12.4356   21.7323 N   0  0  0  0  0  0  0  0  0  0  0  0
  -29.2172  -17.2522   20.7482 N   0  0  0  0  0  0  0  0  0  0  0  0
  -25.4347  -34.7279   23.9978 N   0  0  0  0  0  0  0  0  0  0  0  0
  -23.3318  -28.8432   23.4063 N   0  0  0  0  0  0  0  0  0  0  0  0
  -22.2413  -27.1425   20.4086 N   0  3  0  0  0  0  0  0  0  0  0  0
  -22.2361  -14.5638   20.9240 O   0  0  0  0  0  0  0  0  0  0  0  0
  -26.2004  -33.0807   25.4548 O   0  0  0  0  0  0  0  0  0  0  0  0
  -23.6906  -31.4631   23.4700 O   0  0  0  0  0  0  0  0  0  0  0  0
  -24.4769  -27.2988   22.1099 O   0  0  0  0  0  0  0  0  0  0  0  0
  -31.1782  -16.6434   19.6686 O   0  0  0  0  0  0  0  0  0  0  0  0
  -22.9646   -7.1601   23.2135 O   0  0  0  0  0  0  0  0  0  0  0  0
  -30.2944  -28.2434   20.7402 O   0  0  0  0  0  0  0  0  0  1  0  0
  -18.0745   -5.3130   21.4588 F   0  0  0  0  0  0  0  0  0  0  0  0
  -22.7405   -4.7017   21.9690 F   0  0  0  0  0  0  0  0  0  0  0  0
  1  2  1  0  0  0  0
  1  5  2  0  0  0  0
  2  6  2  0  0  0  0
  3  8  2  0  0  0  0
  3 17  1  0  0  0  0
  4  9  1  0  0  0  0
  4 17  2  0  0  0  0
  5 19  1  0  0  0  0
  6 21  1  0  0  0  0
  7 10  2  0  0  0  0
  7 20  1  0  0  0  0
  8 25  1  0  0  0  0
  9 25  2  0  0  0  0
 10 26  1  0  0  0  0
 11 12  2  0  0  0  0
 11 27  1  0  0  0  0
 12 28  1  0  0  0  0
 13 22  1  0  0  0  0
 13 26  2  0  0  0  0
 14 23  2  0  0  0  0
 14 24  1  0  0  0  0
 15 28  2  0  0  0  0
 15 29  1  0  0  0  0
 16 23  1  0  0  0  0
 16 71  2  0  0  0  0
 17 30  1  0  0  0  0
 18 30  1  0  0  0  0
 18 32  2  0  0  0  0
 18 33  1  0  0  0  0
 19 21  2  0  0  0  0
 19 38  1  0  0  0  0
 20 22  2  0  0  0  0
 20 39  1  0  0  0  0
 21 47  1  0  0  0  0
 22 40  1  0  0  0  0
 23 61  1  0  0  0  0
 24 31  2  0  0  0  0
 24 62  1  0  0  0  0
 25 87  1  0  0  0  0
 26 88  1  0  0  0  0
 27 29  2  0  0  0  0
 27 87  1  0  0  0  0
 28 89  1  0  0  0  0
 29 90  1  0  0  0  0
 30 72  2  0  0  0  0
 31 71  1  0  0  0  0
 31 78  1  0  0  0  0
 32 73  1  0  0  0  0
 32 76  1  0  0  0  0
 33 77  1  0  0  0  0
 33 82  2  0  0  0  0
 34 48  1  0  0  0  0
 34 79  1  0  0  0  0
 34 83  2  0  0  0  0
 35 65  1  0  0  0  0
 35 74  1  0  0  0  0
 35 84  2  0  0  0  0
 36 66  1  0  0  0  0
 36 80  1  0  0  0  0
 36 85  2  0  0  0  0
 37 75  1  0  0  0  0
 37 78  1  0  0  0  0
 37 86  2  0  0  0  0
 38 41  1  0  0  0  0
 39 48  1  0  0  0  0
 40 74  1  0  0  0  0
 41 43  1  0  0  0  0
 42 44  1  0  0  0  0
 42 45  1  0  0  0  0
 43 47  1  0  0  0  0
 44 49  1  0  0  0  0
 45 75  1  0  0  0  0
 46 49  1  0  0  0  0
 46 75  1  0  0  0  0
 47 79  1  0  0  0  0
 48 74  1  0  0  0  0
 49 73  1  0  0  0  0
 50 62  1  0  0  0  0
 51 63  1  0  0  0  0
 52 66  1  0  0  0  0
 53 67  1  0  0  0  0
 54 68  1  0  0  0  0
 55 68  1  0  0  0  0
 56 68  1  0  0  0  0
 57 69  1  0  0  0  0
 58 69  1  0  0  0  0
 59 70  1  0  0  0  0
 60 81  1  0  0  0  0
 61 70  1  0  0  0  0
 63 70  1  0  0  0  0
 64 67  1  0  0  0  0
 64 69  1  0  0  0  0
 65 68  1  0  0  0  0
 65 80  1  0  0  0  0
 66 81  1  0  0  0  0
 67 88  1  0  0  0  0
 69 70  1  0  0  0  0
 72 73  1  0  0  0  0
M  CHG  1  81   1
M  ISO  4  37 100  67 101  78 100  88 101
M  END
> <Batch ID>
0136

> <Smiles>
CCc1cc(CC(C)(CC)C(C)(C)C[101CH:1](C)[101O:1]c2ccc3c(c2)CN(C(=O)C(NC(=O)C(C)NC)C(C)(C)C)C(C(=O)NC2CCCc4ccccc42)C3)cnc1[100NH:0][100C:0](=O)N1CCCC(n2nc(-c3ccc(Oc4ccc(F)cc4F)cc3)c(C(N)=O)c2N)C1

> <Shape>
0.360

> <Color>
0.113

> <Negative vol penalty>
0.000

$$$$

  -OEChem-04052302393D

 88 96  0     1  0  0  0  0  0999 V2000
  -18.5397  -24.3762   24.5492 C   0  0  0  0  0  0  0  0  0  0  0  0
  -19.9137  -24.3731   24.7669 C   0  0  0  0  0  0  0  0  0  0  0  0
  -29.7840  -17.6688   19.3405 C   0  0  0  0  0  0  0  0  0  0  0  0
  -27.6233  -18.3039   20.2152 C   0  0  0  0  0  0  0  0  0  0  0  0
  -17.9644  -25.3608   23.7470 C   0  0  0  0  0  0  0  0  0  0  0  0
  -20.7134  -25.3540   24.1816 C   0  0  0  0  0  0  0  0  0  0  0  0
  -24.1035  -27.2801   27.4131 C   0  0  0  0  0  0  0  0  0  0  0  0
  -29.6641  -16.4203   19.9507 C   0  0  0  0  0  0  0  0  0  0  0  0
  -27.5034  -17.0553   20.8254 C   0  0  0  0  0  0  0  0  0  0  0  0
  -25.2413  -26.5171   27.6720 C   0  0  0  0  0  0  0  0  0  0  0  0
  -28.0647  -13.5009   19.3571 C   0  0  0  0  0  0  0  0  0  0  0  0
  -28.4045  -12.3765   18.6050 C   0  0  0  0  0  0  0  0  0  0  0  0
  -26.0273  -23.9905   22.8267 C   0  0  0  0  0  0  0  0  0  0  0  0
  -24.9555  -21.8454   23.1213 C   0  0  0  0  0  0  0  0  0  0  0  0
  -26.4968  -27.8749   26.1230 C   0  0  0  0  0  0  0  0  0  0  0  0
  -24.6589  -23.0712   21.0606 C   0  0  0  0  0  0  0  0  0  0  0  0
  -30.1056  -11.8078   20.2237 C   0  0  0  0  0  0  0  0  0  0  0  0
  -28.7636  -18.6107   19.4728 C   0  0  0  0  0  0  0  0  0  0  0  0
  -25.7689  -22.8669   23.6118 C   0  0  0  0  0  0  0  0  0  0  0  0
  -29.0354  -20.1650   17.4684 C   0  0  0  0  0  0  0  0  0  0  0  0
  -18.7562  -26.3599   23.1594 C   0  0  0  0  0  0  0  0  0  0  0  0
  -24.1511  -28.3411   26.4975 C   0  0  0  0  0  0  0  0  0  0  0  0
  -20.1484  -26.3521   23.3697 C   0  0  0  0  0  0  0  0  0  0  0  0
  -25.3589  -28.6514   25.8562 C   0  0  0  0  0  0  0  0  0  0  0  0
  -25.4722  -24.0926   21.5511 C   0  0  0  0  0  0  0  0  0  0  0  0
  -24.4005  -21.9475   21.8457 C   0  0  0  0  0  0  0  0  0  0  0  0
  -28.5238  -16.1135   20.6932 C   0  0  0  0  0  0  0  0  0  0  0  0
  -26.4375  -26.8126   27.0248 C   0  0  0  0  0  0  0  0  0  0  0  0
  -28.7454  -13.7789   20.5425 C   0  0  0  0  0  0  0  0  0  0  0  0
  -29.4249  -11.5299   19.0382 C   0  0  0  0  0  0  0  0  0  0  0  0
  -29.7658  -12.9323   20.9758 C   0  0  0  0  0  0  0  0  0  0  0  0
  -28.8872  -19.9008   18.8432 C   0  0  0  0  0  0  0  0  0  0  0  0
  -29.1084  -21.5342   17.3879 C   0  0  0  0  0  0  0  0  0  0  0  0
  -26.3583  -22.7587   24.9669 C   0  0  0  0  0  0  0  0  0  0  0  0
  -29.1011  -19.2543   16.3630 C   0  0  0  0  0  0  0  0  0  0  0  0
  -22.7039  -28.9945   23.7439 C   0  0  0  0  0  0  0  0  0  0  0  0
  -24.2349  -31.8365   24.0618 C   0  0  0  0  0  0  0  0  0  0  0  0
  -27.1031  -25.8800   21.0218 C   0  0  0  0  0  0  0  0  0  0  0  0
  -26.8364  -33.5919   25.4026 C   0  0  0  0  0  0  0  0  0  0  0  0
  -18.0953  -27.3757   22.2616 C   0  0  0  0  0  0  0  0  0  0  0  0
  -22.9217  -29.1713   26.2493 C   0  0  0  0  0  0  0  0  0  0  0  0
  -25.4678  -29.7929   24.8797 C   0  0  0  0  0  0  0  0  0  0  0  0
  -18.9645  -28.5992   21.9826 C   0  0  0  0  0  0  0  0  0  0  0  0
  -30.4639  -25.3730   19.8869 C   0  0  0  0  0  0  0  0  0  0  0  0
  -20.3831  -28.1740   21.6172 C   0  0  0  0  0  0  0  0  0  0  0  0
  -30.4614  -23.9272   19.3919 C   0  0  0  0  0  0  0  0  0  0  0  0
  -29.5526  -25.5504   21.0973 C   0  0  0  0  0  0  0  0  0  0  0  0
  -28.1423  -23.6494   20.3767 C   0  0  0  0  0  0  0  0  0  0  0  0
  -21.0461  -27.4139   22.7723 C   0  0  1  0  0  0  0  0  0  0  0  0
  -22.9560  -29.9050   24.9122 C   0  0  1  0  0  0  0  0  0  0  0  0
  -29.0266  -23.4331   19.1359 C   0  0  2  0  0  0  0  0  0  0  0  0
  -28.2466  -35.5845   25.9845 C   0  0  0  0  0  0  0  0  0  0  0  0
  -24.6948  -26.4053   20.9682 C   0  0  0  0  0  0  0  0  0  0  0  0
  -25.7910  -25.0589   19.1738 C   0  0  0  0  0  0  0  0  0  0  0  0
  -25.3667  -31.3977   21.2624 C   0  0  0  0  0  0  0  0  0  0  0  0
  -27.0586  -33.1795   21.7428 C   0  0  0  0  0  0  0  0  0  0  0  0
  -24.6279  -33.7401   21.7336 C   0  0  0  0  0  0  0  0  0  0  0  0
  -30.2754  -24.4931   25.1629 C   0  0  0  0  0  0  0  0  0  0  0  0
  -30.0398  -24.5472   27.6535 C   0  0  0  0  0  0  0  0  0  0  0  0
  -25.2886  -34.1121   27.8710 C   0  0  0  0  0  0  0  0  0  0  0  0
  -28.4948  -25.9370   26.2145 C   0  0  0  0  0  0  0  0  0  1  0  0
  -28.2771  -23.4210   26.2752 C   0  0  0  0  0  0  0  0  0  0  0  0
  -25.5790  -32.3798   23.6407 C   0  0  1  0  0  0  0  0  0  0  0  0
  -26.8845  -34.9238   26.1294 C   0  0  2  0  0  0  0  0  0  0  0  0
  -25.7485  -25.2940   20.7122 C   0  0  0  0  0  0  0  0  0  0  0  0
  -25.6559  -32.6515   22.1118 C   0  0  0  0  0  0  0  0  0  0  0  0
  -29.2676  -24.6038   26.3230 C   0  0  0  0  0  0  0  0  0  0  0  0
  -28.8672  -21.0128   19.5828 N   0  0  0  0  0  0  0  0  0  0  0  0
  -25.7912  -22.1217   25.9364 N   0  0  0  0  0  0  0  0  0  0  0  0
  -29.0039  -21.9891   18.6694 N   0  0  0  0  0  0  0  0  0  0  0  0
  -24.2365  -30.5712   24.6658 N   0  0  0  0  0  0  0  0  0  0  0  0
  -28.2052  -25.0486   20.8213 N   0  0  0  0  0  0  0  0  0  0  0  0
  -23.5779  -20.9148   21.3498 N   0  0  0  0  0  0  0  0  0  0  0  0
  -29.2512  -22.3814   16.3466 N   0  0  0  0  0  0  0  0  0  0  0  0
  -27.9071  -18.8882   15.7270 N   0  0  0  0  0  0  0  0  0  0  0  0
  -21.4901  -28.3361   23.7953 N   0  0  0  0  0  0  0  0  0  0  0  0
  -25.8218  -33.5556   24.4695 N   0  0  0  0  0  0  0  0  0  0  0  0
  -26.6072  -34.7321   27.5810 N   0  3  0  0  0  0  0  0  0  0  0  0
  -30.1850  -18.7665   15.9618 O   0  0  0  0  0  0  0  0  0  0  0  0
  -23.5475  -28.8975   22.8604 O   0  0  0  0  0  0  0  0  0  0  0  0
  -23.2217  -32.5131   23.8685 O   0  0  0  0  0  0  0  0  0  0  0  0
  -27.1776  -27.0430   21.4267 O   0  0  0  0  0  0  0  0  0  0  0  0
  -27.6227  -32.6767   25.6364 O   0  0  0  0  0  0  0  0  0  0  0  0
  -28.4063  -14.8952   21.2885 O   0  0  0  0  0  0  0  0  0  0  0  0
  -27.5494  -26.0691   27.2752 O   0  0  0  0  0  0  0  0  0  1  0  0
  -27.5532  -23.4099   25.0514 O   0  0  0  0  0  0  0  0  0  0  0  0
  -29.7501  -10.4493   18.3166 F   0  0  0  0  0  0  0  0  0  0  0  0
  -30.4225  -13.1935   22.1144 F   0  0  0  0  0  0  0  0  0  0  0  0
  1  2  1  0  0  0  0
  1  5  2  0  0  0  0
  2  6  2  0  0  0  0
  3  8  2  0  0  0  0
  3 18  1  0  0  0  0
  4  9  1  0  0  0  0
  4 18  2  0  0  0  0
  5 21  1  0  0  0  0
  6 23  1  0  0  0  0
  7 10  2  0  0  0  0
  7 22  1  0  0  0  0
  8 27  1  0  0  0  0
  9 27  2  0  0  0  0
 10 28  1  0  0  0  0
 11 12  2  0  0  0  0
 11 29  1  0  0  0  0
 12 30  1  0  0  0  0
 13 19  2  0  0  0  0
 13 25  1  0  0  0  0
 14 19  1  0  0  0  0
 14 26  2  0  0  0  0
 15 24  1  0  0  0  0
 15 28  2  0  0  0  0
 16 25  2  0  0  0  0
 16 26  1  0  0  0  0
 17 30  2  0  0  0  0
 17 31  1  0  0  0  0
 18 32  1  0  0  0  0
 19 34  1  0  0  0  0
 20 32  1  0  0  0  0
 20 33  2  0  0  0  0
 20 35  1  0  0  0  0
 21 23  2  0  0  0  0
 21 40  1  0  0  0  0
 22 24  2  0  0  0  0
 22 41  1  0  0  0  0
 23 49  1  0  0  0  0
 24 42  1  0  0  0  0
 25 65  1  0  0  0  0
 26 73  1  0  0  0  0
 27 84  1  0  0  0  0
 28 85  1  0  0  0  0
 29 31  2  0  0  0  0
 29 84  1  0  0  0  0
 30 87  1  0  0  0  0
 31 88  1  0  0  0  0
 32 68  2  0  0  0  0
 33 70  1  0  0  0  0
 33 74  1  0  0  0  0
 34 69  2  0  0  0  0
 34 86  1  0  0  0  0
 35 75  1  0  0  0  0
 35 79  2  0  0  0  0
 36 50  1  0  0  0  0
 36 76  1  0  0  0  0
 36 80  2  0  0  0  0
 37 63  1  0  0  0  0
 37 71  1  0  0  0  0
 37 81  2  0  0  0  0
 38 65  1  0  0  0  0
 38 72  1  0  0  0  0
 38 82  2  0  0  0  0
 39 64  1  0  0  0  0
 39 77  1  0  0  0  0
 39 83  2  0  0  0  0
 40 43  1  0  0  0  0
 41 50  1  0  0  0  0
 42 71  1  0  0  0  0
 43 45  1  0  0  0  0
 44 46  1  0  0  0  0
 44 47  1  0  0  0  0
 45 49  1  0  0  0  0
 46 51  1  0  0  0  0
 47 72  1  0  0  0  0
 48 51  1  0  0  0  0
 48 72  1  0  0  0  0
 49 76  1  0  0  0  0
 50 71  1  0  0  0  0
 51 70  1  0  0  0  0
 52 64  1  0  0  0  0
 53 65  1  0  0  0  0
 54 65  1  0  0  0  0
 55 66  1  0  0  0  0
 56 66  1  0  0  0  0
 57 66  1  0  0  0  0
 58 67  1  0  0  0  0
 59 67  1  0  0  0  0
 60 78  1  0  0  0  0
 61 67  1  0  0  0  0
 61 85  1  0  0  0  0
 62 67  1  0  0  0  0
 62 86  1  0  0  0  0
 63 66  1  0  0  0  0
 63 77  1  0  0  0  0
 64 78  1  0  0  0  0
 68 70  1  0  0  0  0
M  CHG  1  78   1
M  ISO  4  38 100  61 101  65 100  85 101
M  END
> <Batch ID>
0136

> <Smiles>
CNC(C)C(=O)NC(C(=O)N1Cc2cc([101O:1][101CH2:1]C(C)(C)COC(=N)c3cc(N)cc([100C:0](C)(C)[100C:0](=O)N4CCCC(n5nc(-c6ccc(Oc7ccc(F)cc7F)cc6)c(C(N)=O)c5N)C4)c3)ccc2CC1C(=O)NC1CCCc2ccccc21)C(C)(C)C

> <Shape>
0.235

> <Color>
0.090

> <Negative vol penalty>
0.000

$$$$

  -OEChem-04052302393D

 86 94  0     1  0  0  0  0  0999 V2000
  -27.2980  -32.5306   26.5716 C   0  0  0  0  0  0  0  0  0  0  0  0
  -27.6518  -31.5399   25.6612 C   0  0  0  0  0  0  0  0  0  0  0  0
  -23.4937  -12.5771   19.9919 C   0  0  0  0  0  0  0  0  0  0  0  0
  -23.9069  -13.0943   22.3155 C   0  0  0  0  0  0  0  0  0  0  0  0
  -26.0883  -32.4438   27.2594 C   0  0  0  0  0  0  0  0  0  0  0  0
  -26.7966  -30.4612   25.4389 C   0  0  0  0  0  0  0  0  0  0  0  0
  -26.2640  -29.3861   20.5190 C   0  0  0  0  0  0  0  0  0  0  0  0
  -23.2357  -11.2495   20.3333 C   0  0  0  0  0  0  0  0  0  0  0  0
  -23.6488  -11.7667   22.6569 C   0  0  0  0  0  0  0  0  0  0  0  0
  -27.2994  -28.6824   19.9054 C   0  0  0  0  0  0  0  0  0  0  0  0
  -25.0203   -8.4823   21.0962 C   0  0  0  0  0  0  0  0  0  0  0  0
  -25.5974   -7.4872   20.3075 C   0  0  0  0  0  0  0  0  0  0  0  0
  -26.0265  -26.6434   20.1095 C   0  0  0  0  0  0  0  0  0  0  0  0
  -28.7417  -22.5689   22.3690 C   0  0  0  0  0  0  0  0  0  0  0  0
  -27.6642  -24.2266   23.7575 C   0  0  0  0  0  0  0  0  0  0  0  0
  -26.3459  -22.5152   22.6758 C   0  0  0  0  0  0  0  0  0  0  0  0
  -23.3994   -6.6474   19.7588 C   0  0  0  0  0  0  0  0  0  0  0  0
  -23.8294  -13.4995   20.9830 C   0  0  0  0  0  0  0  0  0  0  0  0
  -23.1684  -15.9270   20.5611 C   0  0  0  0  0  0  0  0  0  0  0  0
  -25.2134  -31.3685   27.0382 C   0  0  0  0  0  0  0  0  0  0  0  0
  -25.1047  -28.7208   20.9431 C   0  0  0  0  0  0  0  0  0  0  0  0
  -25.5747  -30.3593   26.1254 C   0  0  0  0  0  0  0  0  0  0  0  0
  -24.9768  -27.3414   20.7260 C   0  0  0  0  0  0  0  0  0  0  0  0
  -28.8220  -23.6919   23.1923 C   0  0  0  0  0  0  0  0  0  0  0  0
  -27.5036  -21.9805   22.1107 C   0  0  0  0  0  0  0  0  0  0  0  0
  -23.3132  -10.8443   21.6658 C   0  0  0  0  0  0  0  0  0  0  0  0
  -27.1819  -27.3104   19.7031 C   0  0  0  0  0  0  0  0  0  0  0  0
  -23.6327   -8.5600   21.2164 C   0  0  0  0  0  0  0  0  0  0  0  0
  -24.7870   -6.5697   19.6387 C   0  0  0  0  0  0  0  0  0  0  0  0
  -26.4261  -23.6382   23.4992 C   0  0  0  0  0  0  0  0  0  0  0  0
  -22.8223   -7.6425   20.5476 C   0  0  0  0  0  0  0  0  0  0  0  0
  -24.0966  -14.8709   20.6309 C   0  0  0  0  0  0  0  0  0  0  0  0
  -23.9157  -17.0168   20.1865 C   0  0  0  0  0  0  0  0  0  0  0  0
  -21.7568  -15.9233   20.8125 C   0  0  0  0  0  0  0  0  0  0  0  0
  -23.6879  -28.2504   23.7493 C   0  0  0  0  0  0  0  0  0  0  0  0
  -30.0930  -25.9313   21.4698 C   0  0  0  0  0  0  0  0  0  0  0  0
  -21.3656  -26.9227   21.9145 C   0  0  0  0  0  0  0  0  0  0  0  0
  -20.5011  -25.4161   18.9769 C   0  0  0  0  0  0  0  0  0  0  0  0
  -28.4731  -20.1843   20.6342 C   0  0  0  0  0  0  0  0  0  0  0  0
  -23.9383  -31.2934   27.8402 C   0  0  0  0  0  0  0  0  0  0  0  0
  -23.9857  -29.4988   21.5793 C   0  0  0  0  0  0  0  0  0  0  0  0
  -23.7442  -26.5838   21.1444 C   0  0  0  0  0  0  0  0  0  0  0  0
  -22.9174  -30.3118   27.2705 C   0  0  0  0  0  0  0  0  0  0  0  0
  -28.6866  -17.3248   18.5235 C   0  0  0  0  0  0  0  0  0  0  0  0
  -23.5890  -28.9889   26.9159 C   0  0  0  0  0  0  0  0  0  0  0  0
  -27.4351  -16.5184   18.8779 C   0  0  0  0  0  0  0  0  0  0  0  0
  -29.2867  -18.0090   19.7505 C   0  0  0  0  0  0  0  0  0  0  0  0
  -27.0965  -18.0253   20.8782 C   0  0  0  0  0  0  0  0  0  0  0  0
  -24.6623  -29.1865   25.8386 C   0  0  1  0  0  0  0  0  0  0  0  0
  -23.0670  -28.6325   22.4355 C   0  0  1  0  0  0  0  0  0  0  0  0
  -26.4191  -17.3707   19.6632 C   0  0  2  0  0  0  0  0  0  0  0  0
  -31.0828  -23.3569   24.2270 C   0  0  0  0  0  0  0  0  0  0  0  0
  -18.5368  -24.4097   17.7826 C   0  0  0  0  0  0  0  0  0  0  0  0
  -30.0950  -27.4823   17.9321 C   0  0  0  0  0  0  0  0  0  0  0  0
  -21.5790  -24.4334   23.6661 C   0  0  0  0  0  0  0  0  0  0  0  0
  -20.3376  -23.1680   21.8981 C   0  0  0  0  0  0  0  0  0  0  0  0
  -19.2419  -25.0848   23.0592 C   0  0  0  0  0  0  0  0  0  0  0  0
  -20.6846  -27.3840   16.7740 C   0  0  0  0  0  0  0  0  0  0  0  0
  -30.8692  -24.8404   22.1988 C   0  0  0  0  0  0  0  0  0  0  0  0
  -30.3500  -26.0300   19.9713 C   0  0  0  0  0  0  0  0  0  0  0  0
  -30.1716  -24.3335   23.4748 C   0  0  1  0  0  0  0  0  0  0  0  0
  -21.0821  -25.5374   21.3857 C   0  0  1  0  0  0  0  0  0  0  0  0
  -19.3558  -25.6702   18.0134 C   0  0  2  0  0  0  0  0  0  0  0  0
  -29.5164  -27.1163   19.2925 C   0  0  2  0  0  0  0  0  0  1  0  0
  -20.5843  -24.5696   22.4960 C   0  0  0  0  0  0  0  0  0  0  0  0
  -25.3387  -15.2551   20.3250 N   0  0  0  0  0  0  0  0  0  0  0  0
  -25.1962  -16.5647   20.0593 N   0  0  0  0  0  0  0  0  0  0  0  0
  -22.6802  -27.3878   21.7681 N   0  0  0  0  0  0  0  0  0  0  0  0
  -28.2675  -18.8018   20.4416 N   0  0  0  0  0  0  0  0  0  0  0  0
  -23.5959  -18.3080   19.9567 N   0  0  0  0  0  0  0  0  0  0  0  0
  -21.1482  -14.7180   21.1883 N   0  0  0  0  0  0  0  0  0  0  0  0
  -27.4217  -20.8399   21.2741 N   0  0  0  0  0  0  0  0  0  0  0  0
  -24.0499  -29.3280   24.5350 N   0  0  0  0  0  0  0  0  0  0  0  0
  -20.1481  -25.7067   20.2778 N   0  0  0  0  0  0  0  0  0  0  0  0
  -19.8791  -26.1380   16.6988 N   0  3  0  0  0  0  0  0  0  0  0  0
  -21.0531  -16.9546   20.6911 O   0  0  0  0  0  0  0  0  0  0  0  0
  -23.8267  -27.0657   24.0302 O   0  0  0  0  0  0  0  0  0  0  0  0
  -29.3452  -26.7083   22.0612 O   0  0  0  0  0  0  0  0  0  0  0  0
  -20.4526  -27.5711   22.4319 O   0  0  0  0  0  0  0  0  0  0  0  0
  -21.5978  -24.9978   18.6125 O   0  0  0  0  0  0  0  0  0  0  0  0
  -29.4938  -20.7505   20.2349 O   0  0  0  0  0  0  0  0  0  0  0  0
  -23.0612   -9.5490   21.9993 O   0  0  0  0  0  0  0  0  0  0  0  0
  -28.1913  -26.6210   19.1050 O   0  0  0  0  0  0  0  0  0  1  0  0
  -25.3413   -5.6151   18.8800 F   0  0  0  0  0  0  0  0  0  0  0  0
  -25.3144  -24.1517   24.0420 F   0  0  0  0  0  0  0  0  0  0  0  0
  -21.4887   -7.7129   20.6583 F   0  0  0  0  0  0  0  0  0  0  0  0
  1  2  1  0  0  0  0
  1  5  2  0  0  0  0
  2  6  2  0  0  0  0
  3  8  2  0  0  0  0
  3 18  1  0  0  0  0
  4  9  1  0  0  0  0
  4 18  2  0  0  0  0
  5 20  1  0  0  0  0
  6 22  1  0  0  0  0
  7 10  2  0  0  0  0
  7 21  1  0  0  0  0
  8 26  1  0  0  0  0
  9 26  2  0  0  0  0
 10 27  1  0  0  0  0
 11 12  2  0  0  0  0
 11 28  1  0  0  0  0
 12 29  1  0  0  0  0
 13 23  1  0  0  0  0
 13 27  2  0  0  0  0
 14 24  2  0  0  0  0
 14 25  1  0  0  0  0
 15 24  1  0  0  0  0
 15 30  2  0  0  0  0
 16 25  2  0  0  0  0
 16 30  1  0  0  0  0
 17 29  2  0  0  0  0
 17 31  1  0  0  0  0
 18 32  1  0  0  0  0
 19 32  1  0  0  0  0
 19 33  2  0  0  0  0
 19 34  1  0  0  0  0
 20 22  2  0  0  0  0
 20 40  1  0  0  0  0
 21 23  2  0  0  0  0
 21 41  1  0  0  0  0
 22 49  1  0  0  0  0
 23 42  1  0  0  0  0
 24 61  1  0  0  0  0
 25 72  1  0  0  0  0
 26 82  1  0  0  0  0
 27 83  1  0  0  0  0
 28 31  2  0  0  0  0
 28 82  1  0  0  0  0
 29 84  1  0  0  0  0
 30 85  1  0  0  0  0
 31 86  1  0  0  0  0
 32 66  2  0  0  0  0
 33 67  1  0  0  0  0
 33 70  1  0  0  0  0
 34 71  1  0  0  0  0
 34 76  2  0  0  0  0
 35 50  1  0  0  0  0
 35 73  1  0  0  0  0
 35 77  2  0  0  0  0
 36 59  1  0  0  0  0
 36 60  1  0  0  0  0
 36 78  2  0  0  0  0
 37 62  1  0  0  0  0
 37 68  1  0  0  0  0
 37 79  2  0  0  0  0
 38 63  1  0  0  0  0
 38 74  1  0  0  0  0
 38 80  2  0  0  0  0
 39 69  1  0  0  0  0
 39 72  1  0  0  0  0
 39 81  2  0  0  0  0
 40 43  1  0  0  0  0
 41 50  1  0  0  0  0
 42 68  1  0  0  0  0
 43 45  1  0  0  0  0
 44 46  1  0  0  0  0
 44 47  1  0  0  0  0
 45 49  1  0  0  0  0
 46 51  1  0  0  0  0
 47 69  1  0  0  0  0
 48 51  1  0  0  0  0
 48 69  1  0  0  0  0
 49 73  1  0  0  0  0
 50 68  1  0  0  0  0
 51 67  1  0  0  0  0
 52 61  1  0  0  0  0
 53 63  1  0  0  0  0
 54 64  1  0  0  0  0
 55 65  1  0  0  0  0
 56 65  1  0  0  0  0
 57 65  1  0  0  0  0
 58 75  1  0  0  0  0
 59 61  1  0  0  0  0
 60 64  1  0  0  0  0
 62 65  1  0  0  0  0
 62 74  1  0  0  0  0
 63 75  1  0  0  0  0
 64 83  1  0  0  0  0
 66 67  1  0  0  0  0
M  CHG  1  75   1
M  ISO  4  39 100  64 101  72 100  83 101
M  END
> <Batch ID>
0136

> <Smiles>
CNC(C)C(=O)NC(C(=O)N1Cc2cc([101O:1][101CH:1](C)CC(=O)CC(C)c3cc(F)cc([100NH:0][100C:0](=O)N4CCCC(n5nc(-c6ccc(Oc7ccc(F)cc7F)cc6)c(C(N)=O)c5N)C4)c3)ccc2CC1C(=O)NC1CCCc2ccccc21)C(C)(C)C

> <Shape>
0.238

> <Color>
0.061

> <Negative vol penalty>
0.000

$$$$

  -OEChem-04052302393D

 85 93  0     1  0  0  0  0  0999 V2000
  -33.3913  -25.5697   19.1888 C   0  0  0  0  0  0  0  0  0  0  0  0
  -32.6615  -24.5847   19.8463 C   0  0  0  0  0  0  0  0  0  0  0  0
  -23.0809   -9.8652   19.9415 C   0  0  0  0  0  0  0  0  0  0  0  0
  -23.8413   -9.8740   22.2347 C   0  0  0  0  0  0  0  0  0  0  0  0
  -33.0846  -26.9147   19.3908 C   0  0  0  0  0  0  0  0  0  0  0  0
  -31.6250  -24.9441   20.7072 C   0  0  0  0  0  0  0  0  0  0  0  0
  -26.3853  -21.9107   21.6289 C   0  0  0  0  0  0  0  0  0  0  0  0
  -22.3413   -8.7093   20.1911 C   0  0  0  0  0  0  0  0  0  0  0  0
  -23.1016   -8.7181   22.4843 C   0  0  0  0  0  0  0  0  0  0  0  0
  -25.9785  -21.0219   22.6230 C   0  0  0  0  0  0  0  0  0  0  0  0
  -19.8764   -7.9084   23.0872 C   0  0  0  0  0  0  0  0  0  0  0  0
  -19.1199   -7.8653   24.2582 C   0  0  0  0  0  0  0  0  0  0  0  0
  -29.8574  -17.4784   23.1409 C   0  0  0  0  0  0  0  0  0  0  0  0
  -31.8278  -18.3872   24.2032 C   0  0  0  0  0  0  0  0  0  0  0  0
  -24.9230  -22.8392   23.8074 C   0  0  0  0  0  0  0  0  0  0  0  0
  -32.0443  -16.6381   22.5507 C   0  0  0  0  0  0  0  0  0  0  0  0
  -20.3684   -5.9320   24.9936 C   0  0  0  0  0  0  0  0  0  0  0  0
  -23.8310  -10.4476   20.9632 C   0  0  0  0  0  0  0  0  0  0  0  0
  -30.4420  -18.3644   24.0458 C   0  0  0  0  0  0  0  0  0  0  0  0
  -24.1637  -12.9740   20.8442 C   0  0  0  0  0  0  0  0  0  0  0  0
  -32.0376  -27.2905   20.2471 C   0  0  0  0  0  0  0  0  0  0  0  0
  -26.0730  -23.2746   21.7223 C   0  0  0  0  0  0  0  0  0  0  0  0
  -31.3049  -26.2955   20.9219 C   0  0  0  0  0  0  0  0  0  0  0  0
  -25.3249  -23.7428   22.8119 C   0  0  0  0  0  0  0  0  0  0  0  0
  -30.6585  -16.6152   22.3934 C   0  0  0  0  0  0  0  0  0  0  0  0
  -22.3516   -8.1357   21.4625 C   0  0  0  0  0  0  0  0  0  0  0  0
  -25.2497  -21.4866   23.7140 C   0  0  0  0  0  0  0  0  0  0  0  0
  -20.8790   -6.9633   22.8693 C   0  0  0  0  0  0  0  0  0  0  0  0
  -19.3659   -6.8771   25.2115 C   0  0  0  0  0  0  0  0  0  0  0  0
  -32.6289  -17.5241   23.4556 C   0  0  0  0  0  0  0  0  0  0  0  0
  -21.1250   -5.9751   23.8225 C   0  0  0  0  0  0  0  0  0  0  0  0
  -24.5957  -11.6413   20.7058 C   0  0  0  0  0  0  0  0  0  0  0  0
  -25.2531  -13.7275   20.4810 C   0  0  0  0  0  0  0  0  0  0  0  0
  -29.5864  -19.2849   24.8466 C   0  0  0  0  0  0  0  0  0  0  0  0
  -22.8915  -13.4850   21.2636 C   0  0  0  0  0  0  0  0  0  0  0  0
  -27.7686  -25.9545   21.9374 C   0  0  0  0  0  0  0  0  0  0  0  0
  -24.8579  -27.3583   21.6550 C   0  0  0  0  0  0  0  0  0  0  0  0
  -21.4748  -27.1141   22.0315 C   0  0  0  0  0  0  0  0  0  0  0  0
  -30.7155  -14.7928   20.6550 C   0  0  0  0  0  0  0  0  0  0  0  0
  -31.7739  -28.7586   20.4704 C   0  0  0  0  0  0  0  0  0  0  0  0
  -26.4962  -24.2159   20.6281 C   0  0  0  0  0  0  0  0  0  0  0  0
  -24.9463  -25.1941   22.9488 C   0  0  0  0  0  0  0  0  0  0  0  0
  -30.4171  -29.0435   21.1092 C   0  0  0  0  0  0  0  0  0  0  0  0
  -29.6093  -12.3759   18.2860 C   0  0  0  0  0  0  0  0  0  0  0  0
  -30.1779  -28.1112   22.2926 C   0  0  0  0  0  0  0  0  0  0  0  0
  -28.1708  -12.0790   18.7157 C   0  0  0  0  0  0  0  0  0  0  0  0
  -30.5238  -12.6075   19.4876 C   0  0  0  0  0  0  0  0  0  0  0  0
  -28.6146  -13.3245   20.8695 C   0  0  0  0  0  0  0  0  0  0  0  0
  -30.1572  -26.6448   21.8443 C   0  0  1  0  0  0  0  0  0  0  0  0
  -26.5648  -25.6701   21.0843 C   0  0  1  0  0  0  0  0  0  0  0  0
  -27.6421  -13.1483   19.6918 C   0  0  2  0  0  0  0  0  0  0  0  0
  -19.3612  -28.4381   21.7540 C   0  0  0  0  0  0  0  0  0  0  0  0
  -25.4967  -28.9076   24.2048 C   0  0  0  0  0  0  0  0  0  0  0  0
  -23.0622  -29.4597   24.3962 C   0  0  0  0  0  0  0  0  0  0  0  0
  -24.3674  -30.2510   22.4231 C   0  0  0  0  0  0  0  0  0  0  0  0
  -25.1916  -18.3598   24.0132 C   0  0  0  0  0  0  0  0  0  0  0  0
  -25.5106  -19.0767   26.3905 C   0  0  0  0  0  0  0  0  0  0  0  0
  -20.4018  -25.2036   20.0421 C   0  0  0  0  0  0  0  0  0  0  0  0
  -28.1726  -18.8776   25.2332 C   0  0  0  0  0  0  0  0  0  0  0  0
  -27.1526  -19.8619   24.6518 C   0  0  0  0  0  0  0  0  0  0  0  0
  -23.7851  -27.7987   22.6215 C   0  0  1  0  0  0  0  0  0  0  0  0
  -20.3296  -27.4655   21.0991 C   0  0  2  0  0  0  0  0  0  0  0  0
  -24.1865  -29.0772   23.4101 C   0  0  0  0  0  0  0  0  0  0  0  0
  -25.6824  -19.4855   24.9242 C   0  0  0  0  0  0  0  0  0  1  0  0
  -25.8608  -11.5502   20.2873 N   0  0  0  0  0  0  0  0  0  0  0  0
  -30.0401  -20.4410   25.2171 N   0  0  0  0  0  0  0  0  0  0  0  0
  -26.2331  -12.8352   20.1594 N   0  0  0  0  0  0  0  0  0  0  0  0
  -25.3888  -26.0763   21.8563 N   0  0  0  0  0  0  0  0  0  0  0  0
  -29.9613  -13.6360   20.3655 N   0  0  0  0  0  0  0  0  0  0  0  0
  -25.4587  -15.0598   20.4085 N   0  0  0  0  0  0  0  0  0  0  0  0
  -21.8829  -12.5721   21.6007 N   0  0  0  0  0  0  0  0  0  0  0  0
  -30.0650  -15.7151   21.4739 N   0  0  0  0  0  0  0  0  0  0  0  0
  -28.8909  -26.3246   21.2212 N   0  0  0  0  0  0  0  0  0  0  0  0
  -22.5625  -27.9392   21.8380 N   0  0  0  0  0  0  0  0  0  0  0  0
  -19.5763  -26.2373   20.7180 N   0  3  0  0  0  0  0  0  0  0  0  0
  -22.6508  -14.7148   21.3214 O   0  0  0  0  0  0  0  0  0  0  0  0
  -27.6849  -25.8477   23.1553 O   0  0  0  0  0  0  0  0  0  0  0  0
  -25.2068  -28.1208   20.7503 O   0  0  0  0  0  0  0  0  0  0  0  0
  -21.4096  -26.2015   22.8521 O   0  0  0  0  0  0  0  0  0  0  0  0
  -31.8439  -14.9657   20.1873 O   0  0  0  0  0  0  0  0  0  0  0  0
  -21.6297   -7.0079   21.7065 O   0  0  0  0  0  0  0  0  0  0  0  0
  -24.8519  -20.6213   24.6860 O   0  0  0  0  0  0  0  0  0  1  0  0
  -18.6403   -6.8367   26.3367 F   0  0  0  0  0  0  0  0  0  0  0  0
  -33.9594  -17.5439   23.6088 F   0  0  0  0  0  0  0  0  0  0  0  0
  -22.0875   -5.0652   23.6193 F   0  0  0  0  0  0  0  0  0  0  0  0
  1  2  1  0  0  0  0
  1  5  2  0  0  0  0
  2  6  2  0  0  0  0
  3  8  2  0  0  0  0
  3 18  1  0  0  0  0
  4  9  1  0  0  0  0
  4 18  2  0  0  0  0
  5 21  1  0  0  0  0
  6 23  1  0  0  0  0
  7 10  2  0  0  0  0
  7 22  1  0  0  0  0
  8 26  1  0  0  0  0
  9 26  2  0  0  0  0
 10 27  1  0  0  0  0
 11 12  2  0  0  0  0
 11 28  1  0  0  0  0
 12 29  1  0  0  0  0
 13 19  2  0  0  0  0
 13 25  1  0  0  0  0
 14 19  1  0  0  0  0
 14 30  2  0  0  0  0
 15 24  1  0  0  0  0
 15 27  2  0  0  0  0
 16 25  2  0  0  0  0
 16 30  1  0  0  0  0
 17 29  2  0  0  0  0
 17 31  1  0  0  0  0
 18 32  1  0  0  0  0
 19 34  1  0  0  0  0
 20 32  1  0  0  0  0
 20 33  2  0  0  0  0
 20 35  1  0  0  0  0
 21 23  2  0  0  0  0
 21 40  1  0  0  0  0
 22 24  2  0  0  0  0
 22 41  1  0  0  0  0
 23 49  1  0  0  0  0
 24 42  1  0  0  0  0
 25 72  1  0  0  0  0
 26 81  1  0  0  0  0
 27 82  1  0  0  0  0
 28 31  2  0  0  0  0
 28 81  1  0  0  0  0
 29 83  1  0  0  0  0
 30 84  1  0  0  0  0
 31 85  1  0  0  0  0
 32 65  2  0  0  0  0
 33 67  1  0  0  0  0
 33 70  1  0  0  0  0
 34 59  1  0  0  0  0
 34 66  2  0  0  0  0
 35 71  1  0  0  0  0
 35 76  2  0  0  0  0
 36 50  1  0  0  0  0
 36 73  1  0  0  0  0
 36 77  2  0  0  0  0
 37 61  1  0  0  0  0
 37 68  1  0  0  0  0
 37 78  2  0  0  0  0
 38 62  1  0  0  0  0
 38 74  1  0  0  0  0
 38 79  2  0  0  0  0
 39 69  1  0  0  0  0
 39 72  1  0  0  0  0
 39 80  2  0  0  0  0
 40 43  1  0  0  0  0
 41 50  1  0  0  0  0
 42 68  1  0  0  0  0
 43 45  1  0  0  0  0
 44 46  1  0  0  0  0
 44 47  1  0  0  0  0
 45 49  1  0  0  0  0
 46 51  1  0  0  0  0
 47 69  1  0  0  0  0
 48 51  1  0  0  0  0
 48 69  1  0  0  0  0
 49 73  1  0  0  0  0
 50 68  1  0  0  0  0
 51 67  1  0  0  0  0
 52 62  1  0  0  0  0
 53 63  1  0  0  0  0
 54 63  1  0  0  0  0
 55 63  1  0  0  0  0
 56 64  1  0  0  0  0
 57 64  1  0  0  0  0
 58 75  1  0  0  0  0
 59 60  1  0  0  0  0
 60 64  1  0  0  0  0
 61 63  1  0  0  0  0
 61 74  1  0  0  0  0
 62 75  1  0  0  0  0
 64 82  1  0  0  0  0
 65 67  1  0  0  0  0
M  CHG  1  75   1
M  ISO  4  39 100  64 101  72 100  82 101
M  END
> <Batch ID>
0136

> <Smiles>
CNC(C)C(=O)NC(C(=O)N1Cc2cc([101O:1][101C:1](C)(C)CCC(=N)c3cc(F)cc([100NH:0][100C:0](=O)N4CCCC(n5nc(-c6ccc(Oc7ccc(F)cc7F)cc6)c(C(N)=O)c5N)C4)c3)ccc2CC1C(=O)NC1CCCc2ccccc21)C(C)(C)C

> <Shape>
0.260

> <Color>
0.188

> <Negative vol penalty>
0.000

$$$$

  -OEChem-04052302393D

 82 90  0     1  0  0  0  0  0999 V2000
  -29.1516  -24.8077   16.6497 C   0  0  0  0  0  0  0  0  0  0  0  0
  -27.9907  -24.7872   17.4161 C   0  0  0  0  0  0  0  0  0  0  0  0
  -24.4883  -12.3713   19.7972 C   0  0  0  0  0  0  0  0  0  0  0  0
  -25.4435  -12.7357   21.9862 C   0  0  0  0  0  0  0  0  0  0  0  0
  -30.2498  -25.5569   17.0699 C   0  0  0  0  0  0  0  0  0  0  0  0
  -27.9278  -25.5151   18.6038 C   0  0  0  0  0  0  0  0  0  0  0  0
  -23.5863  -28.0775   19.0842 C   0  0  0  0  0  0  0  0  0  0  0  0
  -24.7191  -11.0016   19.9244 C   0  0  0  0  0  0  0  0  0  0  0  0
  -25.6743  -11.3659   22.1135 C   0  0  0  0  0  0  0  0  0  0  0  0
  -22.4603  -27.3546   19.4760 C   0  0  0  0  0  0  0  0  0  0  0  0
  -24.7275   -7.3678   19.8234 C   0  0  0  0  0  0  0  0  0  0  0  0
  -23.7012   -6.4998   19.4507 C   0  0  0  0  0  0  0  0  0  0  0  0
  -25.7132  -24.7307   22.8365 C   0  0  0  0  0  0  0  0  0  0  0  0
  -26.3444  -23.7718   21.9926 C   0  0  0  0  0  0  0  0  0  0  0  0
  -22.7472  -28.1449   21.7370 C   0  0  0  0  0  0  0  0  0  0  0  0
  -22.2549   -7.4980   21.1088 C   0  0  0  0  0  0  0  0  0  0  0  0
  -24.8505  -13.2384   20.8281 C   0  0  0  0  0  0  0  0  0  0  0  0
  -23.4587  -15.3610   21.0831 C   0  0  0  0  0  0  0  0  0  0  0  0
  -30.1969  -26.3021   18.2584 C   0  0  0  0  0  0  0  0  0  0  0  0
  -24.3087  -28.8320   20.0197 C   0  0  0  0  0  0  0  0  0  0  0  0
  -29.0268  -26.2740   19.0409 C   0  0  0  0  0  0  0  0  0  0  0  0
  -23.8805  -28.8785   21.3540 C   0  0  0  0  0  0  0  0  0  0  0  0
  -25.3121  -10.4989   21.0825 C   0  0  0  0  0  0  0  0  0  0  0  0
  -22.0423  -27.3860   20.8031 C   0  0  0  0  0  0  0  0  0  0  0  0
  -24.5176   -8.3008   20.8389 C   0  0  0  0  0  0  0  0  0  0  0  0
  -22.4649   -6.5649   20.0934 C   0  0  0  0  0  0  0  0  0  0  0  0
  -23.2813   -8.3659   21.4815 C   0  0  0  0  0  0  0  0  0  0  0  0
  -24.6129  -14.6535   20.6970 C   0  0  0  0  0  0  0  0  0  0  0  0
  -24.7869  -24.1514   23.6756 C   0  0  0  0  0  0  0  0  0  0  0  0
  -23.7281  -16.6658   20.7493 C   0  0  0  0  0  0  0  0  0  0  0  0
  -25.8767  -22.4959   22.2191 C   0  0  0  0  0  0  0  0  0  0  0  0
  -22.2511  -14.8816   21.6893 C   0  0  0  0  0  0  0  0  0  0  0  0
  -27.2819  -28.7629   21.1418 C   0  0  0  0  0  0  0  0  0  0  0  0
  -26.3626  -31.4861   22.6456 C   0  0  0  0  0  0  0  0  0  0  0  0
  -23.8184  -33.3962   23.8809 C   0  0  0  0  0  0  0  0  0  0  0  0
  -27.1604  -21.0478   20.6061 C   0  0  0  0  0  0  0  0  0  0  0  0
  -31.4258  -27.0591   18.6959 C   0  0  0  0  0  0  0  0  0  0  0  0
  -25.5055  -29.6276   19.5756 C   0  0  0  0  0  0  0  0  0  0  0  0
  -24.6094  -29.6894   22.3931 C   0  0  0  0  0  0  0  0  0  0  0  0
  -31.1468  -28.1018   19.7753 C   0  0  0  0  0  0  0  0  0  0  0  0
  -27.4777  -18.6532   17.9903 C   0  0  0  0  0  0  0  0  0  0  0  0
  -30.2721  -27.5099   20.8760 C   0  0  0  0  0  0  0  0  0  0  0  0
  -26.6657  -17.4574   18.4931 C   0  0  0  0  0  0  0  0  0  0  0  0
  -28.2188  -19.3540   19.1277 C   0  0  0  0  0  0  0  0  0  0  0  0
  -26.5673  -18.5504   20.7696 C   0  0  0  0  0  0  0  0  0  0  0  0
  -28.9112  -27.0703   20.3226 C   0  0  1  0  0  0  0  0  0  0  0  0
  -26.4653  -29.9504   20.7167 C   0  0  1  0  0  0  0  0  0  0  0  0
  -25.7515  -17.8516   19.6696 C   0  0  2  0  0  0  0  0  0  0  0  0
  -23.3809  -35.5521   25.0883 C   0  0  0  0  0  0  0  0  0  0  0  0
  -27.2929  -30.2099   25.2563 C   0  0  0  0  0  0  0  0  0  0  0  0
  -25.9901  -31.9545   26.4922 C   0  0  0  0  0  0  0  0  0  0  0  0
  -27.8800  -32.6284   25.0101 C   0  0  0  0  0  0  0  0  0  0  0  0
  -20.2679  -27.2785   23.4043 C   0  0  0  0  0  0  0  0  0  0  0  0
  -20.0603  -24.9349   22.5502 C   0  0  0  0  0  0  0  0  0  0  0  0
  -22.2129  -34.4626   21.6351 C   0  0  0  0  0  0  0  0  0  0  0  0
  -23.9121  -24.8150   24.7091 C   0  0  0  0  0  0  0  0  0  0  0  0
  -22.4648  -25.0329   24.2488 C   0  0  0  0  0  0  0  0  0  0  0  0
  -22.3625  -25.9388   23.0117 C   0  0  0  0  0  0  0  0  0  0  0  0
  -25.7237  -31.8100   23.9745 C   0  0  1  0  0  0  0  0  0  0  0  0
  -23.5049  -34.8741   23.7327 C   0  0  2  0  0  0  0  0  0  0  0  0
  -26.7088  -31.6338   25.1644 C   0  0  0  0  0  0  0  0  0  0  0  0
  -20.9190  -26.2003   22.5318 C   0  0  0  0  0  0  0  0  0  1  0  0
  -25.5460  -15.4433   20.1589 N   0  0  0  0  0  0  0  0  0  0  0  0
  -24.9784  -16.6606   20.2044 N   0  0  0  0  0  0  0  0  0  0  0  0
  -25.7774  -30.4451   21.9110 N   0  0  0  0  0  0  0  0  0  0  0  0
  -27.2886  -19.7014   20.2042 N   0  0  0  0  0  0  0  0  0  0  0  0
  -23.0150  -17.8055   20.8715 N   0  0  0  0  0  0  0  0  0  0  0  0
  -22.1399  -13.5120   21.9650 N   0  0  0  0  0  0  0  0  0  0  0  0
  -26.2223  -21.2613   21.6156 N   0  0  0  0  0  0  0  0  0  0  0  0
  -28.0493  -28.2169   20.1307 N   0  0  0  0  0  0  0  0  0  0  0  0
  -25.1758  -33.1561   23.8466 N   0  0  0  0  0  0  0  0  0  0  0  0
  -22.2234  -35.0603   22.9951 N   0  3  0  0  0  0  0  0  0  0  0  0
  -21.2923  -15.6427   21.9630 O   0  0  0  0  0  0  0  0  0  0  0  0
  -27.2214  -28.3720   22.3016 O   0  0  0  0  0  0  0  0  0  0  0  0
  -27.3403  -32.1376   22.2699 O   0  0  0  0  0  0  0  0  0  0  0  0
  -22.9466  -32.5407   24.0173 O   0  0  0  0  0  0  0  0  0  0  0  0
  -27.8134  -21.9490   20.0737 O   0  0  0  0  0  0  0  0  0  0  0  0
  -25.5372   -9.1624   21.2072 O   0  0  0  0  0  0  0  0  0  0  0  0
  -20.9440  -26.6808   21.1883 O   0  0  0  0  0  0  0  0  0  1  0  0
  -21.4789   -5.7324   19.7344 F   0  0  0  0  0  0  0  0  0  0  0  0
  -23.0733   -9.2610   22.4569 F   0  0  0  0  0  0  0  0  0  0  0  0
  -24.6813  -22.4580   23.4445 S   0  0  0  0  0  0  0  0  0  0  0  0
  1  2  1  0  0  0  0
  1  5  2  0  0  0  0
  2  6  2  0  0  0  0
  3  8  2  0  0  0  0
  3 17  1  0  0  0  0
  4  9  1  0  0  0  0
  4 17  2  0  0  0  0
  5 19  1  0  0  0  0
  6 21  1  0  0  0  0
  7 10  2  0  0  0  0
  7 20  1  0  0  0  0
  8 23  1  0  0  0  0
  9 23  2  0  0  0  0
 10 24  1  0  0  0  0
 11 12  2  0  0  0  0
 11 25  1  0  0  0  0
 12 26  1  0  0  0  0
 13 14  1  0  0  0  0
 13 29  2  0  0  0  0
 14 31  2  0  0  0  0
 15 22  1  0  0  0  0
 15 24  2  0  0  0  0
 16 26  2  0  0  0  0
 16 27  1  0  0  0  0
 17 28  1  0  0  0  0
 18 28  1  0  0  0  0
 18 30  2  0  0  0  0
 18 32  1  0  0  0  0
 19 21  2  0  0  0  0
 19 37  1  0  0  0  0
 20 22  2  0  0  0  0
 20 38  1  0  0  0  0
 21 46  1  0  0  0  0
 22 39  1  0  0  0  0
 23 78  1  0  0  0  0
 24 79  1  0  0  0  0
 25 27  2  0  0  0  0
 25 78  1  0  0  0  0
 26 80  1  0  0  0  0
 27 81  1  0  0  0  0
 28 63  2  0  0  0  0
 29 56  1  0  0  0  0
 29 82  1  0  0  0  0
 30 64  1  0  0  0  0
 30 67  1  0  0  0  0
 31 69  1  0  0  0  0
 31 82  1  0  0  0  0
 32 68  1  0  0  0  0
 32 73  2  0  0  0  0
 33 47  1  0  0  0  0
 33 70  1  0  0  0  0
 33 74  2  0  0  0  0
 34 59  1  0  0  0  0
 34 65  1  0  0  0  0
 34 75  2  0  0  0  0
 35 60  1  0  0  0  0
 35 71  1  0  0  0  0
 35 76  2  0  0  0  0
 36 66  1  0  0  0  0
 36 69  1  0  0  0  0
 36 77  2  0  0  0  0
 37 40  1  0  0  0  0
 38 47  1  0  0  0  0
 39 65  1  0  0  0  0
 40 42  1  0  0  0  0
 41 43  1  0  0  0  0
 41 44  1  0  0  0  0
 42 46  1  0  0  0  0
 43 48  1  0  0  0  0
 44 66  1  0  0  0  0
 45 48  1  0  0  0  0
 45 66  1  0  0  0  0
 46 70  1  0  0  0  0
 47 65  1  0  0  0  0
 48 64  1  0  0  0  0
 49 60  1  0  0  0  0
 50 61  1  0  0  0  0
 51 61  1  0  0  0  0
 52 61  1  0  0  0  0
 53 62  1  0  0  0  0
 54 62  1  0  0  0  0
 55 72  1  0  0  0  0
 56 57  1  0  0  0  0
 57 58  1  0  0  0  0
 58 62  1  0  0  0  0
 59 61  1  0  0  0  0
 59 71  1  0  0  0  0
 60 72  1  0  0  0  0
 62 79  1  0  0  0  0
 63 64  1  0  0  0  0
M  CHG  1  72   1
M  ISO  4  36 100  62 101  69 100  79 101
M  END
> <Batch ID>
0136

> <Smiles>
CNC(C)C(=O)NC(C(=O)N1Cc2cc([101O:1][101C:1](C)(C)CCCc3ccc([100NH:0][100C:0](=O)N4CCCC(n5nc(-c6ccc(Oc7ccc(F)cc7F)cc6)c(C(N)=O)c5N)C4)s3)ccc2CC1C(=O)NC1CCCc2ccccc21)C(C)(C)C

> <Shape>
0.287

> <Color>
0.090

> <Negative vol penalty>
0.000

$$$$

  -OEChem-04052302393D

 86 94  0     1  0  0  0  0  0999 V2000
  -28.6786  -17.7750   22.3333 C   0  0  0  0  0  0  0  0  0  0  0  0
  -29.7817  -17.8796   21.4921 C   0  0  0  0  0  0  0  0  0  0  0  0
  -23.2873   -9.7959   19.9072 C   0  0  0  0  0  0  0  0  0  0  0  0
  -23.7171   -9.9358   22.2805 C   0  0  0  0  0  0  0  0  0  0  0  0
  -33.9238  -16.3917   17.6505 C   0  0  0  0  0  0  0  0  0  0  0  0
  -27.4012  -18.0417   21.8423 C   0  0  0  0  0  0  0  0  0  0  0  0
  -29.6080  -18.2500   20.1591 C   0  0  0  0  0  0  0  0  0  0  0  0
  -32.9827  -21.7103   18.6484 C   0  0  0  0  0  0  0  0  0  0  0  0
  -35.2403  -16.7767   17.3974 C   0  0  0  0  0  0  0  0  0  0  0  0
  -22.5538   -8.6268   20.1089 C   0  0  0  0  0  0  0  0  0  0  0  0
  -22.9835   -8.7667   22.4823 C   0  0  0  0  0  0  0  0  0  0  0  0
  -34.2670  -21.2584   18.3479 C   0  0  0  0  0  0  0  0  0  0  0  0
  -20.9211   -6.0166   23.6660 C   0  0  0  0  0  0  0  0  0  0  0  0
  -20.0098   -5.9960   24.7217 C   0  0  0  0  0  0  0  0  0  0  0  0
  -33.7251  -21.3000   15.9976 C   0  0  0  0  0  0  0  0  0  0  0  0
  -34.5574  -17.7206   15.2808 C   0  0  0  0  0  0  0  0  0  0  0  0
  -18.8176   -7.8479   23.7287 C   0  0  0  0  0  0  0  0  0  0  0  0
  -23.8690  -10.4504   20.9929 C   0  0  0  0  0  0  0  0  0  0  0  0
  -32.9240  -16.6710   16.7187 C   0  0  0  0  0  0  0  0  0  0  0  0
  -24.1417  -12.9791   20.7953 C   0  0  0  0  0  0  0  0  0  0  0  0
  -27.2127  -18.4249   20.5051 C   0  0  0  0  0  0  0  0  0  0  0  0
  -32.0550  -21.9504   17.6247 C   0  0  0  0  0  0  0  0  0  0  0  0
  -28.3267  -18.5208   19.6494 C   0  0  0  0  0  0  0  0  0  0  0  0
  -32.4306  -21.7573   16.2876 C   0  0  0  0  0  0  0  0  0  0  0  0
  -35.5571  -17.4412   16.2126 C   0  0  0  0  0  0  0  0  0  0  0  0
  -33.2408  -17.3355   15.5339 C   0  0  0  0  0  0  0  0  0  0  0  0
  -22.4019   -8.1122   21.3965 C   0  0  0  0  0  0  0  0  0  0  0  0
  -34.6374  -21.0504   17.0225 C   0  0  0  0  0  0  0  0  0  0  0  0
  -20.7808   -6.9529   22.6416 C   0  0  0  0  0  0  0  0  0  0  0  0
  -18.9580   -6.9116   24.7531 C   0  0  0  0  0  0  0  0  0  0  0  0
  -19.7290   -7.8685   22.6730 C   0  0  0  0  0  0  0  0  0  0  0  0
  -24.6274  -11.6578   20.7851 C   0  0  0  0  0  0  0  0  0  0  0  0
  -25.2489  -13.7538   20.5500 C   0  0  0  0  0  0  0  0  0  0  0  0
  -38.8160  -18.9330   17.4082 C   0  0  0  0  0  0  0  0  0  0  0  0
  -31.5587  -16.2556   17.0122 C   0  0  0  0  0  0  0  0  0  0  0  0
  -31.1611  -14.9880   17.2441 C   0  0  0  0  0  0  0  0  0  0  0  0
  -22.8088  -13.4628   21.0077 C   0  0  0  0  0  0  0  0  0  0  0  0
  -37.5264  -18.8449   17.0311 C   0  0  0  0  0  0  0  0  0  0  0  0
  -29.7376  -14.7278   17.5385 C   0  0  0  0  0  0  0  0  0  0  0  0
  -29.2211  -20.7448   16.8375 C   0  0  0  0  0  0  0  0  0  0  0  0
  -29.2665  -23.1107   14.6188 C   0  0  0  0  0  0  0  0  0  0  0  0
  -31.1087  -25.2595   12.7120 C   0  0  0  0  0  0  0  0  0  0  0  0
  -25.8080  -18.6571   20.0076 C   0  0  0  0  0  0  0  0  0  0  0  0
  -30.6822  -22.4632   17.9638 C   0  0  0  0  0  0  0  0  0  0  0  0
  -31.4784  -22.0198   15.1506 C   0  0  0  0  0  0  0  0  0  0  0  0
  -25.7483  -19.4077   18.6797 C   0  0  0  0  0  0  0  0  0  0  0  0
  -30.1535  -12.5828   20.4809 C   0  0  0  0  0  0  0  0  0  0  0  0
  -26.7434  -18.8156   17.6867 C   0  0  0  0  0  0  0  0  0  0  0  0
  -28.7026  -12.2234   20.7897 C   0  0  0  0  0  0  0  0  0  0  0  0
  -30.3996  -12.7278   18.9799 C   0  0  0  0  0  0  0  0  0  0  0  0
  -28.0225  -13.3298   18.6232 C   0  0  0  0  0  0  0  0  0  0  0  0
  -28.1814  -18.9439   18.2037 C   0  0  1  0  0  0  0  0  0  0  0  0
  -29.6534  -22.1834   16.8726 C   0  0  1  0  0  0  0  0  0  0  0  0
  -27.7414  -13.2252   20.1304 C   0  0  1  0  0  0  0  0  0  0  0  0
  -31.8067  -16.4284   13.6882 C   0  0  0  0  0  0  0  0  0  0  0  0
  -30.8672  -27.0458   10.9661 C   0  0  0  0  0  0  0  0  0  0  0  0
  -37.2038  -18.5656   14.5586 C   0  0  0  0  0  0  0  0  0  0  0  0
  -37.8465  -16.5581   15.8333 C   0  0  0  0  0  0  0  0  0  0  0  0
  -28.7203  -20.9734   12.5108 C   0  0  0  0  0  0  0  0  0  0  0  0
  -29.4268  -22.6182   10.7605 C   0  0  0  0  0  0  0  0  0  0  0  0
  -27.4437  -23.1005   12.1948 C   0  0  0  0  0  0  0  0  0  0  0  0
  -32.3565  -27.2972   14.4582 C   0  0  0  0  0  0  0  0  0  0  0  0
  -32.1955  -17.6511   14.5127 C   0  0  0  0  0  0  0  0  0  0  0  0
  -36.5325  -19.7805   17.6948 C   0  0  0  0  0  0  0  0  0  1  0  0
  -29.7606  -23.2343   13.1977 C   0  0  1  0  0  0  0  0  0  0  0  0
  -30.9703  -26.7491   12.4541 C   0  0  2  0  0  0  0  0  0  0  0  0
  -37.0143  -17.8692   15.9327 C   0  0  0  0  0  0  0  0  0  0  0  0
  -28.8554  -22.4747   12.1872 C   0  0  0  0  0  0  0  0  0  0  0  0
  -25.9409  -11.5930   20.5515 N   0  0  0  0  0  0  0  0  0  0  0  0
  -26.2899  -12.8834   20.4127 N   0  0  0  0  0  0  0  0  0  0  0  0
  -29.4311  -13.6458   18.3618 N   0  0  0  0  0  0  0  0  0  0  0  0
  -30.1456  -22.5142   15.5337 N   0  0  0  0  0  0  0  0  0  0  0  0
  -25.4239  -15.0879   20.4403 N   0  0  0  0  0  0  0  0  0  0  0  0
  -21.7898  -12.5307   21.2465 N   0  0  0  0  0  0  0  0  0  0  0  0
  -28.6657  -20.2953   18.0203 N   0  0  0  0  0  0  0  0  0  0  0  0
  -29.8849  -24.6633   12.9315 N   0  0  0  0  0  0  0  0  0  0  0  0
  -32.1489  -27.4807   12.9987 N   0  3  0  0  0  0  0  0  0  0  0  0
  -22.5268  -14.6845   20.9701 O   0  0  0  0  0  0  0  0  0  0  0  0
  -28.9051  -15.4827   17.0326 O   0  0  0  0  0  0  0  0  0  0  0  0
  -29.3784  -20.0915   15.8128 O   0  0  0  0  0  0  0  0  0  0  0  0
  -28.1447  -23.5345   14.9079 O   0  0  0  0  0  0  0  0  0  0  0  0
  -32.1935  -24.6818   12.7144 O   0  0  0  0  0  0  0  0  0  0  0  0
  -21.6859   -6.9715   21.5938 O   0  0  0  0  0  0  0  0  0  0  0  0
  -35.8901  -20.6088   16.7265 O   0  0  0  0  0  0  0  0  0  1  0  0
  -18.0820   -6.8907   25.7662 F   0  0  0  0  0  0  0  0  0  0  0  0
  -19.5883   -8.7697   21.6911 F   0  0  0  0  0  0  0  0  0  0  0  0
  1  2  1  0  0  0  0
  1  6  2  0  0  0  0
  2  7  2  0  0  0  0
  3 10  2  0  0  0  0
  3 18  1  0  0  0  0
  4 11  1  0  0  0  0
  4 18  2  0  0  0  0
  5  9  2  0  0  0  0
  5 19  1  0  0  0  0
  6 21  1  0  0  0  0
  7 23  1  0  0  0  0
  8 12  2  0  0  0  0
  8 22  1  0  0  0  0
  9 25  1  0  0  0  0
 10 27  1  0  0  0  0
 11 27  2  0  0  0  0
 12 28  1  0  0  0  0
 13 14  2  0  0  0  0
 13 29  1  0  0  0  0
 14 30  1  0  0  0  0
 15 24  1  0  0  0  0
 15 28  2  0  0  0  0
 16 25  2  0  0  0  0
 16 26  1  0  0  0  0
 17 30  2  0  0  0  0
 17 31  1  0  0  0  0
 18 32  1  0  0  0  0
 19 26  2  0  0  0  0
 19 35  1  0  0  0  0
 20 32  1  0  0  0  0
 20 33  2  0  0  0  0
 20 37  1  0  0  0  0
 21 23  2  0  0  0  0
 21 43  1  0  0  0  0
 22 24  2  0  0  0  0
 22 44  1  0  0  0  0
 23 52  1  0  0  0  0
 24 45  1  0  0  0  0
 25 67  1  0  0  0  0
 26 63  1  0  0  0  0
 27 83  1  0  0  0  0
 28 84  1  0  0  0  0
 29 31  2  0  0  0  0
 29 83  1  0  0  0  0
 30 85  1  0  0  0  0
 31 86  1  0  0  0  0
 32 69  2  0  0  0  0
 33 70  1  0  0  0  0
 33 73  1  0  0  0  0
 34 38  2  0  0  0  0
 35 36  2  0  0  0  0
 36 39  1  0  0  0  0
 37 74  1  0  0  0  0
 37 78  2  0  0  0  0
 38 64  1  0  0  0  0
 38 67  1  0  0  0  0
 39 71  1  0  0  0  0
 39 79  2  0  0  0  0
 40 53  1  0  0  0  0
 40 75  1  0  0  0  0
 40 80  2  0  0  0  0
 41 65  1  0  0  0  0
 41 72  1  0  0  0  0
 41 81  2  0  0  0  0
 42 66  1  0  0  0  0
 42 76  1  0  0  0  0
 42 82  2  0  0  0  0
 43 46  1  0  0  0  0
 44 53  1  0  0  0  0
 45 72  1  0  0  0  0
 46 48  1  0  0  0  0
 47 49  1  0  0  0  0
 47 50  1  0  0  0  0
 48 52  1  0  0  0  0
 49 54  1  0  0  0  0
 50 71  1  0  0  0  0
 51 54  1  0  0  0  0
 51 71  1  0  0  0  0
 52 75  1  0  0  0  0
 53 72  1  0  0  0  0
 54 70  1  0  0  0  0
 55 63  1  0  0  0  0
 56 66  1  0  0  0  0
 57 67  1  0  0  0  0
 58 67  1  0  0  0  0
 59 68  1  0  0  0  0
 60 68  1  0  0  0  0
 61 68  1  0  0  0  0
 62 77  1  0  0  0  0
 64 84  1  0  0  0  0
 65 68  1  0  0  0  0
 65 76  1  0  0  0  0
 66 77  1  0  0  0  0
 69 70  1  0  0  0  0
M  CHG  1  77   1
M  ISO  4  36 100  39 100  64 101  84 101
M  END
> <Batch ID>
0136

> <Smiles>
C=C(C(C)(C)c1ccc(C=[100CH:0][100C:0](=O)N2CCCC(n3nc(-c4ccc(Oc5ccc(F)cc5F)cc4)c(C(N)=O)c3N)C2)c(CC)c1)[101CH2:1][101O:1]c1ccc2c(c1)CN(C(=O)C(NC(=O)C(C)NC)C(C)(C)C)C(C(=O)NC1CCCc3ccccc31)C2

> <Shape>
0.171

> <Color>
0.173

> <Negative vol penalty>
0.000

$$$$

  -OEChem-04052302393D

 86 94  0     1  0  0  0  0  0999 V2000
  -20.5414  -34.8206   22.1991 C   0  0  0  0  0  0  0  0  0  0  0  0
  -21.7605  -34.2695   21.8179 C   0  0  0  0  0  0  0  0  0  0  0  0
  -24.6124  -11.3606   20.1905 C   0  0  0  0  0  0  0  0  0  0  0  0
  -25.3272  -11.9453   22.4231 C   0  0  0  0  0  0  0  0  0  0  0  0
  -19.6891  -34.1087   23.0423 C   0  0  0  0  0  0  0  0  0  0  0  0
  -22.1287  -33.0066   22.2806 C   0  0  0  0  0  0  0  0  0  0  0  0
  -25.3518  -28.7713   19.2508 C   0  0  0  0  0  0  0  0  0  0  0  0
  -24.6741  -10.0078   20.5250 C   0  0  0  0  0  0  0  0  0  0  0  0
  -25.3889  -10.5925   22.7576 C   0  0  0  0  0  0  0  0  0  0  0  0
  -26.7000  -28.4177   19.2834 C   0  0  0  0  0  0  0  0  0  0  0  0
  -24.2956   -6.4118   20.8996 C   0  0  0  0  0  0  0  0  0  0  0  0
  -23.2334   -5.5975   20.5067 C   0  0  0  0  0  0  0  0  0  0  0  0
  -26.1929  -26.6517   20.8465 C   0  0  0  0  0  0  0  0  0  0  0  0
  -28.2180  -22.5575   18.8443 C   0  0  0  0  0  0  0  0  0  0  0  0
  -27.8191  -22.0173   21.1650 C   0  0  0  0  0  0  0  0  0  0  0  0
  -26.3497  -21.1520   19.4535 C   0  0  0  0  0  0  0  0  0  0  0  0
  -21.7139   -6.9517   21.8085 C   0  0  0  0  0  0  0  0  0  0  0  0
  -24.9391  -12.3293   21.1395 C   0  0  0  0  0  0  0  0  0  0  0  0
  -23.7681  -14.5855   20.9244 C   0  0  0  0  0  0  0  0  0  0  0  0
  -20.0428  -32.8325   23.5078 C   0  0  0  0  0  0  0  0  0  0  0  0
  -24.4141  -28.0735   20.0256 C   0  0  0  0  0  0  0  0  0  0  0  0
  -21.2810  -32.2776   23.1319 C   0  0  0  0  0  0  0  0  0  0  0  0
  -24.8330  -26.9968   20.8200 C   0  0  0  0  0  0  0  0  0  0  0  0
  -28.5748  -22.6659   20.1884 C   0  0  0  0  0  0  0  0  0  0  0  0
  -27.1054  -21.8006   18.4769 C   0  0  0  0  0  0  0  0  0  0  0  0
  -25.0623   -9.6238   21.8086 C   0  0  0  0  0  0  0  0  0  0  0  0
  -27.1212  -27.3596   20.0835 C   0  0  0  0  0  0  0  0  0  0  0  0
  -24.0669   -7.4960   21.7469 C   0  0  0  0  0  0  0  0  0  0  0  0
  -21.9425   -5.8675   20.9611 C   0  0  0  0  0  0  0  0  0  0  0  0
  -26.7065  -21.2603   20.7976 C   0  0  0  0  0  0  0  0  0  0  0  0
  -22.7761   -7.7659   22.2013 C   0  0  0  0  0  0  0  0  0  0  0  0
  -24.8761  -13.7268   20.7944 C   0  0  0  0  0  0  0  0  0  0  0  0
  -24.2180  -15.7986   20.4636 C   0  0  0  0  0  0  0  0  0  0  0  0
  -27.8129  -19.6271   16.0112 C   0  0  0  0  0  0  0  0  0  0  0  0
  -22.4502  -14.3110   21.4178 C   0  0  0  0  0  0  0  0  0  0  0  0
  -27.7965  -20.9623   16.1858 C   0  0  0  0  0  0  0  0  0  0  0  0
  -26.8353  -18.6859   16.5933 C   0  0  0  0  0  0  0  0  0  0  0  0
  -22.4401  -28.8477   22.3936 C   0  0  0  0  0  0  0  0  0  0  0  0
  -21.3957  -25.8023   21.9975 C   0  0  0  0  0  0  0  0  0  0  0  0
  -22.0502  -22.6327   20.9146 C   0  0  0  0  0  0  0  0  0  0  0  0
  -19.1098  -32.1211   24.4555 C   0  0  0  0  0  0  0  0  0  0  0  0
  -22.9594  -28.4502   19.9588 C   0  0  0  0  0  0  0  0  0  0  0  0
  -23.8630  -26.2027   21.6549 C   0  0  0  0  0  0  0  0  0  0  0  0
  -19.4082  -30.6311   24.6003 C   0  0  0  0  0  0  0  0  0  0  0  0
  -28.8712  -17.3941   19.3534 C   0  0  0  0  0  0  0  0  0  0  0  0
  -20.9029  -30.4032   24.8019 C   0  0  0  0  0  0  0  0  0  0  0  0
  -27.9270  -16.3560   19.9540 C   0  0  0  0  0  0  0  0  0  0  0  0
  -28.7200  -17.4946   17.8363 C   0  0  0  0  0  0  0  0  0  0  0  0
  -26.3744  -16.7110   17.9934 C   0  0  0  0  0  0  0  0  0  0  0  0
  -21.7048  -30.9000   23.5929 C   0  0  1  0  0  0  0  0  0  0  0  0
  -22.1687  -27.9997   21.1832 C   0  0  1  0  0  0  0  0  0  0  0  0
  -26.4764  -16.6266   19.5244 C   0  0  1  0  0  0  0  0  0  0  0  0
  -28.8096  -21.9066   15.5787 C   0  0  0  0  0  0  0  0  0  0  0  0
  -26.2549  -23.0525   16.4818 C   0  0  0  0  0  0  0  0  0  0  0  0
  -21.0161  -20.3516   20.7582 C   0  0  0  0  0  0  0  0  0  0  0  0
  -29.6840  -25.7602   18.4944 C   0  0  0  0  0  0  0  0  0  0  0  0
  -21.8792  -25.3812   24.9806 C   0  0  0  0  0  0  0  0  0  0  0  0
  -21.7533  -22.9128   24.5816 C   0  0  0  0  0  0  0  0  0  0  0  0
  -19.7721  -24.3533   24.1100 C   0  0  0  0  0  0  0  0  0  0  0  0
  -22.2356  -22.6240   17.9609 C   0  0  0  0  0  0  0  0  0  0  0  0
  -29.7771  -23.4845   20.5857 C   0  0  0  0  0  0  0  0  0  0  0  0
  -29.4551  -24.9583   20.8732 C   0  0  0  0  0  0  0  0  0  0  0  0
  -26.7235  -21.6847   17.0398 C   0  0  2  0  0  0  0  0  0  0  0  0
  -21.7755  -24.4586   22.5714 C   0  0  1  0  0  0  0  0  0  0  0  0
  -21.2470  -21.6776   20.0503 C   0  0  2  0  0  0  0  0  0  0  0  0
  -28.7694  -25.6862   19.7105 C   0  0  1  0  0  0  0  0  0  1  0  0
  -21.3139  -24.2925   24.0468 C   0  0  0  0  0  0  0  0  0  0  0  0
  -25.9490  -14.3422   20.2902 N   0  0  0  0  0  0  0  0  0  0  0  0
  -25.5173  -15.6005   20.0994 N   0  0  0  0  0  0  0  0  0  0  0  0
  -27.3159  -17.6949   17.4474 N   0  0  0  0  0  0  0  0  0  0  0  0
  -22.4524  -26.6136   21.5607 N   0  0  0  0  0  0  0  0  0  0  0  0
  -23.6248  -17.0048   20.3383 N   0  0  0  0  0  0  0  0  0  0  0  0
  -22.1564  -13.0111   21.8515 N   0  0  0  0  0  0  0  0  0  0  0  0
  -21.6162  -29.9516   22.5034 N   0  0  0  0  0  0  0  0  0  0  0  0
  -21.2336  -23.4572   21.6594 N   0  0  0  0  0  0  0  0  0  0  0  0
  -21.9635  -21.4091   18.7714 N   0  3  0  0  0  0  0  0  0  0  0  0
  -21.5546  -15.1885   21.4571 O   0  0  0  0  0  0  0  0  0  0  0  0
  -25.6515  -18.8317   16.2834 O   0  0  0  0  0  0  0  0  0  0  0  0
  -23.3300  -28.5236   23.1712 O   0  0  0  0  0  0  0  0  0  0  0  0
  -20.2048  -26.1173   21.9324 O   0  0  0  0  0  0  0  0  0  0  0  0
  -23.2791  -22.6437   20.9305 O   0  0  0  0  0  0  0  0  0  0  0  0
  -25.1224   -8.3039   22.1354 O   0  0  0  0  0  0  0  0  0  0  0  0
  -28.4367  -27.0129   20.1176 O   0  0  0  0  0  0  0  0  0  1  0  0
  -20.9224   -5.0863   20.5826 F   0  0  0  0  0  0  0  0  0  0  0  0
  -25.9804  -20.6384   21.7357 F   0  0  0  0  0  0  0  0  0  0  0  0
  -22.5500   -8.8067   23.0146 F   0  0  0  0  0  0  0  0  0  0  0  0
  1  2  1  0  0  0  0
  1  5  2  0  0  0  0
  2  6  2  0  0  0  0
  3  8  2  0  0  0  0
  3 18  1  0  0  0  0
  4  9  1  0  0  0  0
  4 18  2  0  0  0  0
  5 20  1  0  0  0  0
  6 22  1  0  0  0  0
  7 10  2  0  0  0  0
  7 21  1  0  0  0  0
  8 26  1  0  0  0  0
  9 26  2  0  0  0  0
 10 27  1  0  0  0  0
 11 12  2  0  0  0  0
 11 28  1  0  0  0  0
 12 29  1  0  0  0  0
 13 23  1  0  0  0  0
 13 27  2  0  0  0  0
 14 24  2  0  0  0  0
 14 25  1  0  0  0  0
 15 24  1  0  0  0  0
 15 30  2  0  0  0  0
 16 25  2  0  0  0  0
 16 30  1  0  0  0  0
 17 29  2  0  0  0  0
 17 31  1  0  0  0  0
 18 32  1  0  0  0  0
 19 32  1  0  0  0  0
 19 33  2  0  0  0  0
 19 35  1  0  0  0  0
 20 22  2  0  0  0  0
 20 41  1  0  0  0  0
 21 23  2  0  0  0  0
 21 42  1  0  0  0  0
 22 50  1  0  0  0  0
 23 43  1  0  0  0  0
 24 61  1  0  0  0  0
 25 63  1  0  0  0  0
 26 82  1  0  0  0  0
 27 83  1  0  0  0  0
 28 31  2  0  0  0  0
 28 82  1  0  0  0  0
 29 84  1  0  0  0  0
 30 85  1  0  0  0  0
 31 86  1  0  0  0  0
 32 68  2  0  0  0  0
 33 69  1  0  0  0  0
 33 72  1  0  0  0  0
 34 36  2  0  0  0  0
 34 37  1  0  0  0  0
 35 73  1  0  0  0  0
 35 77  2  0  0  0  0
 36 53  1  0  0  0  0
 36 63  1  0  0  0  0
 37 70  1  0  0  0  0
 37 78  2  0  0  0  0
 38 51  1  0  0  0  0
 38 74  1  0  0  0  0
 38 79  2  0  0  0  0
 39 64  1  0  0  0  0
 39 71  1  0  0  0  0
 39 80  2  0  0  0  0
 40 65  1  0  0  0  0
 40 75  1  0  0  0  0
 40 81  2  0  0  0  0
 41 44  1  0  0  0  0
 42 51  1  0  0  0  0
 43 71  1  0  0  0  0
 44 46  1  0  0  0  0
 45 47  1  0  0  0  0
 45 48  1  0  0  0  0
 46 50  1  0  0  0  0
 47 52  1  0  0  0  0
 48 70  1  0  0  0  0
 49 52  1  0  0  0  0
 49 70  1  0  0  0  0
 50 74  1  0  0  0  0
 51 71  1  0  0  0  0
 52 69  1  0  0  0  0
 54 63  1  0  0  0  0
 55 65  1  0  0  0  0
 56 66  1  0  0  0  0
 57 67  1  0  0  0  0
 58 67  1  0  0  0  0
 59 67  1  0  0  0  0
 60 76  1  0  0  0  0
 61 62  1  0  0  0  0
 62 66  1  0  0  0  0
 64 67  1  0  0  0  0
 64 75  1  0  0  0  0
 65 76  1  0  0  0  0
 66 83  1  0  0  0  0
 68 69  1  0  0  0  0
M  CHG  1  76   1
M  ISO  4  34 100  37 100  66 101  83 101
M  END
> <Batch ID>
0136

> <Smiles>
CNC(C)C(=O)NC(C(=O)N1Cc2cc([101O:1][101CH:1](C)CCc3cc(F)cc(C(C)=C(C)[100CH2:0][100C:0](=O)N4CCCC(n5nc(-c6ccc(Oc7ccc(F)cc7F)cc6)c(C(N)=O)c5N)C4)c3)ccc2CC1C(=O)NC1CCCc2ccccc21)C(C)(C)C

> <Shape>
0.214

> <Color>
0.093

> <Negative vol penalty>
0.000

$$$$

  -OEChem-04052302393D

 87 95  0     1  0  0  0  0  0999 V2000
  -18.9807  -28.6008   18.9436 C   0  0  0  0  0  0  0  0  0  0  0  0
  -20.3620  -28.5768   19.1075 C   0  0  0  0  0  0  0  0  0  0  0  0
  -25.0984  -13.9239   21.3655 C   0  0  0  0  0  0  0  0  0  0  0  0
  -26.2942  -13.7117   19.2770 C   0  0  0  0  0  0  0  0  0  0  0  0
  -18.1463  -28.3443   20.0308 C   0  0  0  0  0  0  0  0  0  0  0  0
  -20.9097  -28.2975   20.3590 C   0  0  0  0  0  0  0  0  0  0  0  0
  -24.7601  -25.0179   20.1062 C   0  0  0  0  0  0  0  0  0  0  0  0
  -24.2970  -12.8367   21.0172 C   0  0  0  0  0  0  0  0  0  0  0  0
  -25.4928  -12.6244   18.9286 C   0  0  0  0  0  0  0  0  0  0  0  0
  -25.9930  -25.5146   19.6855 C   0  0  0  0  0  0  0  0  0  0  0  0
  -24.5492   -9.4650   20.9858 C   0  0  0  0  0  0  0  0  0  0  0  0
  -24.3155   -8.4937   21.9592 C   0  0  0  0  0  0  0  0  0  0  0  0
  -26.7243  -25.6273   21.9816 C   0  0  0  0  0  0  0  0  0  0  0  0
  -33.9471  -23.4002   20.5277 C   0  0  0  0  0  0  0  0  0  0  0  0
  -32.5618  -21.4895   20.9907 C   0  0  0  0  0  0  0  0  0  0  0  0
  -21.9414   -8.9170   21.8116 C   0  0  0  0  0  0  0  0  0  0  0  0
  -26.0970  -14.3614   20.4954 C   0  0  0  0  0  0  0  0  0  0  0  0
  -28.1448  -15.4518   21.5562 C   0  0  0  0  0  0  0  0  0  0  0  0
  -18.6842  -28.0521   21.2941 C   0  0  0  0  0  0  0  0  0  0  0  0
  -24.4957  -24.8321   21.4708 C   0  0  0  0  0  0  0  0  0  0  0  0
  -20.0818  -28.0381   21.4644 C   0  0  0  0  0  0  0  0  0  0  0  0
  -25.4882  -25.1256   22.4168 C   0  0  0  0  0  0  0  0  0  0  0  0
  -33.7669  -22.1662   21.1425 C   0  0  0  0  0  0  0  0  0  0  0  0
  -24.4942  -12.1870   19.7987 C   0  0  0  0  0  0  0  0  0  0  0  0
  -26.9743  -25.8221   20.6234 C   0  0  0  0  0  0  0  0  0  0  0  0
  -23.4790  -10.1624   20.4254 C   0  0  0  0  0  0  0  0  0  0  0  0
  -23.0116   -8.2196   22.3721 C   0  0  0  0  0  0  0  0  0  0  0  0
  -22.1751   -9.8883   20.8383 C   0  0  0  0  0  0  0  0  0  0  0  0
  -26.9248  -15.4848   20.8545 C   0  0  0  0  0  0  0  0  0  0  0  0
  -32.8997  -23.9102   19.7777 C   0  0  0  0  0  0  0  0  0  0  0  0
  -31.5763  -22.0852   20.2201 C   0  0  0  0  0  0  0  0  0  0  0  0
  -28.5278  -16.7681   21.6408 C   0  0  0  0  0  0  0  0  0  0  0  0
  -28.8673  -14.3316   22.0842 C   0  0  0  0  0  0  0  0  0  0  0  0
  -22.3968  -26.0344   23.5329 C   0  0  0  0  0  0  0  0  0  0  0  0
  -23.6879  -23.8312   25.5332 C   0  0  0  0  0  0  0  0  0  0  0  0
  -26.3535  -21.8576   26.3371 C   0  0  0  0  0  0  0  0  0  0  0  0
  -29.2307  -21.7935   19.3485 C   0  0  0  0  0  0  0  0  0  0  0  0
  -17.7419  -27.8280   22.4501 C   0  0  0  0  0  0  0  0  0  0  0  0
  -23.1703  -24.2702   21.9066 C   0  0  0  0  0  0  0  0  0  0  0  0
  -25.2615  -24.9250   23.8922 C   0  0  0  0  0  0  0  0  0  0  0  0
  -18.4051  -27.1713   23.6581 C   0  0  0  0  0  0  0  0  0  0  0  0
  -25.9831  -21.0138   20.5823 C   0  0  0  0  0  0  0  0  0  0  0  0
  -19.7342  -27.8508   23.9724 C   0  0  0  0  0  0  0  0  0  0  0  0
  -26.0390  -19.5031   20.8208 C   0  0  0  0  0  0  0  0  0  0  0  0
  -26.7738  -21.4215   19.3404 C   0  0  0  0  0  0  0  0  0  0  0  0
  -28.2191  -19.4369   19.5442 C   0  0  0  0  0  0  0  0  0  0  0  0
  -20.7140  -27.7146   22.8007 C   0  0  1  0  0  0  0  0  0  0  0  0
  -22.8261  -24.6056   23.3545 C   0  0  1  0  0  0  0  0  0  0  0  0
  -27.4909  -18.9859   20.8210 C   0  0  2  0  0  0  0  0  0  0  0  0
  -34.8614  -21.5709   21.9614 C   0  0  0  0  0  0  0  0  0  0  0  0
  -27.1273  -20.1936   28.0488 C   0  0  0  0  0  0  0  0  0  0  0  0
  -24.1779  -26.0999   27.5138 C   0  0  0  0  0  0  0  0  0  0  0  0
  -25.7613  -24.5959   28.7381 C   0  0  0  0  0  0  0  0  0  0  0  0
  -23.3529  -23.9757   28.5441 C   0  0  0  0  0  0  0  0  0  0  0  0
  -33.4807  -26.6164   21.1905 C   0  0  0  0  0  0  0  0  0  0  0  0
  -32.9899  -27.7352   19.0140 C   0  0  0  0  0  0  0  0  0  0  0  0
  -29.8577  -28.4484   19.1944 C   0  0  0  0  0  0  0  0  0  0  0  0
  -30.8030  -28.6838   21.5058 C   0  0  0  0  0  0  0  0  0  0  0  0
  -26.6453  -19.7272   24.3036 C   0  0  0  0  0  0  0  0  0  0  0  0
  -33.0595  -25.2506   19.0950 C   0  0  0  0  0  0  0  0  0  0  0  0
  -31.1041  -26.4501   20.2204 C   0  0  0  0  0  0  0  0  0  0  0  0
  -28.8613  -27.1858   21.1089 C   0  0  0  0  0  0  0  0  0  1  0  0
  -24.8416  -23.8171   26.5068 C   0  0  1  0  0  0  0  0  0  0  0  0
  -26.4439  -20.3873   26.7041 C   0  0  2  0  0  0  0  0  0  0  0  0
  -24.5373  -24.6279   27.7981 C   0  0  0  0  0  0  0  0  0  0  0  0
  -32.6346  -26.5311   19.9041 C   0  0  0  0  0  0  0  0  0  0  0  0
  -30.1997  -27.6977   20.4978 C   0  0  0  0  0  0  0  0  0  0  0  0
  -26.5571  -16.7238   20.5175 N   0  0  0  0  0  0  0  0  0  0  0  0
  -31.7147  -23.2823   19.6075 N   0  0  0  0  0  0  0  0  0  0  0  0
  -27.5518  -17.4817   21.0096 N   0  0  0  0  0  0  0  0  0  0  0  0
  -23.9471  -24.3792   24.2689 N   0  0  0  0  0  0  0  0  0  0  0  0
  -28.1405  -20.9002   19.4124 N   0  0  0  0  0  0  0  0  0  0  0  0
  -29.6009  -17.3732   22.1929 N   0  0  0  0  0  0  0  0  0  0  0  0
  -28.3316  -13.0484   21.9087 N   0  0  0  0  0  0  0  0  0  0  0  0
  -30.3517  -21.3878   20.0720 N   0  0  0  0  0  0  0  0  0  0  0  0
  -21.2945  -26.3891   22.7788 N   0  0  0  0  0  0  0  0  0  0  0  0
  -25.1587  -22.4129   26.7437 N   0  0  0  0  0  0  0  0  0  0  0  0
  -27.2185  -19.6424   25.6716 N   0  3  0  0  0  0  0  0  0  0  0  0
  -29.9473  -14.4661   22.7078 O   0  0  0  0  0  0  0  0  0  0  0  0
  -23.0186  -26.7609   24.2993 O   0  0  0  0  0  0  0  0  0  0  0  0
  -22.5990  -23.3664   25.8793 O   0  0  0  0  0  0  0  0  0  0  0  0
  -27.2544  -22.4547   25.7519 O   0  0  0  0  0  0  0  0  0  0  0  0
  -29.1647  -22.8543   18.7222 O   0  0  0  0  0  0  0  0  0  0  0  0
  -23.7126  -11.1259   19.4585 O   0  0  0  0  0  0  0  0  0  0  0  0
  -28.1866  -26.3111   20.2128 O   0  0  0  0  0  0  0  0  0  1  0  0
  -22.7872   -7.2857   23.3057 F   0  0  0  0  0  0  0  0  0  0  0  0
  -21.1429  -10.5542   20.3027 F   0  0  0  0  0  0  0  0  0  0  0  0
  1  2  1  0  0  0  0
  1  5  2  0  0  0  0
  2  6  2  0  0  0  0
  3  8  2  0  0  0  0
  3 17  1  0  0  0  0
  4  9  1  0  0  0  0
  4 17  2  0  0  0  0
  5 19  1  0  0  0  0
  6 21  1  0  0  0  0
  7 10  2  0  0  0  0
  7 20  1  0  0  0  0
  8 24  1  0  0  0  0
  9 24  2  0  0  0  0
 10 25  1  0  0  0  0
 11 12  2  0  0  0  0
 11 26  1  0  0  0  0
 12 27  1  0  0  0  0
 13 22  1  0  0  0  0
 13 25  2  0  0  0  0
 14 23  2  0  0  0  0
 14 30  1  0  0  0  0
 15 23  1  0  0  0  0
 15 31  2  0  0  0  0
 16 27  2  0  0  0  0
 16 28  1  0  0  0  0
 17 29  1  0  0  0  0
 18 29  1  0  0  0  0
 18 32  2  0  0  0  0
 18 33  1  0  0  0  0
 19 21  2  0  0  0  0
 19 38  1  0  0  0  0
 20 22  2  0  0  0  0
 20 39  1  0  0  0  0
 21 47  1  0  0  0  0
 22 40  1  0  0  0  0
 23 50  1  0  0  0  0
 24 84  1  0  0  0  0
 25 85  1  0  0  0  0
 26 28  2  0  0  0  0
 26 84  1  0  0  0  0
 27 86  1  0  0  0  0
 28 87  1  0  0  0  0
 29 68  2  0  0  0  0
 30 60  1  0  0  0  0
 30 69  2  0  0  0  0
 31 69  1  0  0  0  0
 31 75  1  0  0  0  0
 32 70  1  0  0  0  0
 32 73  1  0  0  0  0
 33 74  1  0  0  0  0
 33 79  2  0  0  0  0
 34 48  1  0  0  0  0
 34 76  1  0  0  0  0
 34 80  2  0  0  0  0
 35 63  1  0  0  0  0
 35 71  1  0  0  0  0
 35 81  2  0  0  0  0
 36 64  1  0  0  0  0
 36 77  1  0  0  0  0
 36 82  2  0  0  0  0
 37 72  1  0  0  0  0
 37 75  1  0  0  0  0
 37 83  2  0  0  0  0
 38 41  1  0  0  0  0
 39 48  1  0  0  0  0
 40 71  1  0  0  0  0
 41 43  1  0  0  0  0
 42 44  1  0  0  0  0
 42 45  1  0  0  0  0
 43 47  1  0  0  0  0
 44 49  1  0  0  0  0
 45 72  1  0  0  0  0
 46 49  1  0  0  0  0
 46 72  1  0  0  0  0
 47 76  1  0  0  0  0
 48 71  1  0  0  0  0
 49 70  1  0  0  0  0
 51 64  1  0  0  0  0
 52 65  1  0  0  0  0
 53 65  1  0  0  0  0
 54 65  1  0  0  0  0
 55 66  1  0  0  0  0
 56 66  1  0  0  0  0
 57 67  1  0  0  0  0
 58 67  1  0  0  0  0
 59 78  1  0  0  0  0
 60 66  1  0  0  0  0
 61 66  1  0  0  0  0
 61 67  1  0  0  0  0
 62 67  1  0  0  0  0
 62 85  1  0  0  0  0
 63 65  1  0  0  0  0
 63 77  1  0  0  0  0
 64 78  1  0  0  0  0
 68 70  1  0  0  0  0
M  CHG  1  78   1
M  ISO  4  37 100  62 101  75 100  85 101
M  END
> <Batch ID>
0136

> <Smiles>
CNC(C)C(=O)NC(C(=O)N1Cc2cc([101O:1][101CH2:1]C(C)(C)CC(C)(C)Cc3cc(C)cc([100NH:0][100C:0](=O)N4CCCC(n5nc(-c6ccc(Oc7ccc(F)cc7F)cc6)c(C(N)=O)c5N)C4)n3)ccc2CC1C(=O)NC1CCCc2ccccc21)C(C)(C)C

> <Shape>
0.206

> <Color>
0.077

> <Negative vol penalty>
0.000

$$$$

  -OEChem-04052302393D

 85 93  0     1  0  0  0  0  0999 V2000
  -32.9537  -32.3924   29.9874 C   0  0  0  0  0  0  0  0  0  0  0  0
  -32.2074  -31.2209   29.9099 C   0  0  0  0  0  0  0  0  0  0  0  0
  -23.0762   -9.8672   19.9413 C   0  0  0  0  0  0  0  0  0  0  0  0
  -23.8351   -9.8754   22.2350 C   0  0  0  0  0  0  0  0  0  0  0  0
  -33.5266  -32.9301   28.8356 C   0  0  0  0  0  0  0  0  0  0  0  0
  -32.0327  -30.5869   28.6803 C   0  0  0  0  0  0  0  0  0  0  0  0
  -32.6951  -25.5746   28.9673 C   0  0  0  0  0  0  0  0  0  0  0  0
  -32.0617  -16.6104   22.5501 C   0  0  0  0  0  0  0  0  0  0  0  0
  -22.3323   -8.7141   20.1915 C   0  0  0  0  0  0  0  0  0  0  0  0
  -23.0911   -8.7224   22.4852 C   0  0  0  0  0  0  0  0  0  0  0  0
  -31.6465  -24.8230   29.4956 C   0  0  0  0  0  0  0  0  0  0  0  0
  -19.8628   -7.9246   23.0867 C   0  0  0  0  0  0  0  0  0  0  0  0
  -32.6491  -17.4942   23.4553 C   0  0  0  0  0  0  0  0  0  0  0  0
  -19.1053   -7.8852   24.2573 C   0  0  0  0  0  0  0  0  0  0  0  0
  -29.8776  -17.4587   23.1391 C   0  0  0  0  0  0  0  0  0  0  0  0
  -30.9532  -24.2312   27.2621 C   0  0  0  0  0  0  0  0  0  0  0  0
  -20.3465   -5.9483   24.9953 C   0  0  0  0  0  0  0  0  0  0  0  0
  -23.8277  -10.4479   20.9630 C   0  0  0  0  0  0  0  0  0  0  0  0
  -30.4650  -18.3425   24.0444 C   0  0  0  0  0  0  0  0  0  0  0  0
  -24.1693  -12.9730   20.8418 C   0  0  0  0  0  0  0  0  0  0  0  0
  -33.3668  -32.2972   27.5928 C   0  0  0  0  0  0  0  0  0  0  0  0
  -32.8745  -25.6692   27.5797 C   0  0  0  0  0  0  0  0  0  0  0  0
  -32.6028  -31.1174   27.5105 C   0  0  0  0  0  0  0  0  0  0  0  0
  -32.0064  -24.9826   26.7188 C   0  0  0  0  0  0  0  0  0  0  0  0
  -30.6759  -16.5927   22.3919 C   0  0  0  0  0  0  0  0  0  0  0  0
  -22.3398   -8.1417   21.4635 C   0  0  0  0  0  0  0  0  0  0  0  0
  -30.7736  -24.1535   28.6430 C   0  0  0  0  0  0  0  0  0  0  0  0
  -20.8621   -6.9758   22.8704 C   0  0  0  0  0  0  0  0  0  0  0  0
  -19.3472   -6.8971   25.2116 C   0  0  0  0  0  0  0  0  0  0  0  0
  -31.8508  -18.3602   24.2025 C   0  0  0  0  0  0  0  0  0  0  0  0
  -21.1040   -5.9876   23.8247 C   0  0  0  0  0  0  0  0  0  0  0  0
  -24.5968  -11.6387   20.7050 C   0  0  0  0  0  0  0  0  0  0  0  0
  -25.2616  -13.7223   20.4787 C   0  0  0  0  0  0  0  0  0  0  0  0
  -29.6180  -19.2544   24.8311 C   0  0  0  0  0  0  0  0  0  0  0  0
  -29.9805  -20.4766   25.2508 C   0  0  0  0  0  0  0  0  0  0  0  0
  -22.8986  -13.4889   21.2599 C   0  0  0  0  0  0  0  0  0  0  0  0
  -32.8331  -28.0460   25.4695 C   0  0  0  0  0  0  0  0  0  0  0  0
  -33.7932  -25.7229   23.4191 C   0  0  0  0  0  0  0  0  0  0  0  0
  -33.9184  -22.3977   22.6616 C   0  0  0  0  0  0  0  0  0  0  0  0
  -30.7276  -14.7684   20.6553 C   0  0  0  0  0  0  0  0  0  0  0  0
  -33.9654  -32.9417   26.3677 C   0  0  0  0  0  0  0  0  0  0  0  0
  -34.0265  -26.4623   27.0263 C   0  0  0  0  0  0  0  0  0  0  0  0
  -32.1679  -25.0355   25.2222 C   0  0  0  0  0  0  0  0  0  0  0  0
  -34.0464  -32.0054   25.1648 C   0  0  0  0  0  0  0  0  0  0  0  0
  -29.6145  -12.3533   18.2878 C   0  0  0  0  0  0  0  0  0  0  0  0
  -32.7285  -31.2600   24.9788 C   0  0  0  0  0  0  0  0  0  0  0  0
  -28.1747  -12.0618   18.7169 C   0  0  0  0  0  0  0  0  0  0  0  0
  -30.5290  -12.5828   19.4897 C   0  0  0  0  0  0  0  0  0  0  0  0
  -28.6214  -13.3078   20.8697 C   0  0  0  0  0  0  0  0  0  0  0  0
  -32.4115  -30.3871   26.1990 C   0  0  1  0  0  0  0  0  0  0  0  0
  -33.8072  -26.9076   25.5838 C   0  0  1  0  0  0  0  0  0  0  0  0
  -27.6491  -13.1339   19.6916 C   0  0  2  0  0  0  0  0  0  0  0  0
  -34.7354  -20.8080   20.9002 C   0  0  0  0  0  0  0  0  0  0  0  0
  -31.4601  -26.5196   21.6213 C   0  0  0  0  0  0  0  0  0  0  0  0
  -31.7457  -24.3491   20.4065 C   0  0  0  0  0  0  0  0  0  0  0  0
  -33.5911  -26.0276   20.4083 C   0  0  0  0  0  0  0  0  0  0  0  0
  -27.8243  -22.0038   29.0216 C   0  0  0  0  0  0  0  0  0  0  0  0
  -28.2278  -23.8391   27.3690 C   0  0  0  0  0  0  0  0  0  0  0  0
  -35.7151  -21.0238   24.5703 C   0  0  0  0  0  0  0  0  0  0  0  0
  -29.0774  -21.3823   26.0422 C   0  0  0  0  0  0  0  0  0  0  0  0
  -29.7199  -21.7658   27.3821 C   0  0  0  0  0  0  0  0  0  0  0  0
  -33.0916  -24.7325   22.5214 C   0  0  1  0  0  0  0  0  0  0  0  0
  -35.0636  -21.5102   22.2086 C   0  0  2  0  0  0  0  0  0  0  0  0
  -32.4677  -25.4076   21.2675 C   0  0  0  0  0  0  0  0  0  0  0  0
  -28.8926  -22.7597   28.2246 C   0  0  0  0  0  0  0  0  0  1  0  0
  -25.8618  -11.5427   20.2873 N   0  0  0  0  0  0  0  0  0  0  0  0
  -26.2387  -12.8262   20.1585 N   0  0  0  0  0  0  0  0  0  0  0  0
  -33.3057  -25.8292   24.7294 N   0  0  0  0  0  0  0  0  0  0  0  0
  -29.9696  -13.6141   20.3663 N   0  0  0  0  0  0  0  0  0  0  0  0
  -25.4720  -15.0538   20.4051 N   0  0  0  0  0  0  0  0  0  0  0  0
  -21.8866  -12.5798   21.5972 N   0  0  0  0  0  0  0  0  0  0  0  0
  -30.0798  -15.6939   21.4729 N   0  0  0  0  0  0  0  0  0  0  0  0
  -33.2033  -29.1759   26.1734 N   0  0  0  0  0  0  0  0  0  0  0  0
  -34.0698  -23.6939   22.2164 N   0  0  0  0  0  0  0  0  0  0  0  0
  -35.3540  -20.4731   23.2386 N   0  3  0  0  0  0  0  0  0  0  0  0
  -22.6623  -14.7195   21.3165 O   0  0  0  0  0  0  0  0  0  0  0  0
  -31.8214  -27.9097   24.7916 O   0  0  0  0  0  0  0  0  0  0  0  0
  -34.7434  -26.3730   22.9762 O   0  0  0  0  0  0  0  0  0  0  0  0
  -32.9812  -21.9817   23.3392 O   0  0  0  0  0  0  0  0  0  0  0  0
  -31.8569  -14.9370   20.1881 O   0  0  0  0  0  0  0  0  0  0  0  0
  -21.6138   -7.0167   21.7081 O   0  0  0  0  0  0  0  0  0  0  0  0
  -29.7488  -23.4197   29.1561 O   0  0  0  0  0  0  0  0  0  1  0  0
  -18.6208   -6.8603   26.3364 F   0  0  0  0  0  0  0  0  0  0  0  0
  -32.4304  -19.2037   25.0691 F   0  0  0  0  0  0  0  0  0  0  0  0
  -22.0635   -5.0741   23.6230 F   0  0  0  0  0  0  0  0  0  0  0  0
  1  2  1  0  0  0  0
  1  5  2  0  0  0  0
  2  6  2  0  0  0  0
  3  9  2  0  0  0  0
  3 18  1  0  0  0  0
  4 10  1  0  0  0  0
  4 18  2  0  0  0  0
  5 21  1  0  0  0  0
  6 23  1  0  0  0  0
  7 11  2  0  0  0  0
  7 22  1  0  0  0  0
  8 13  2  0  0  0  0
  8 25  1  0  0  0  0
  9 26  1  0  0  0  0
 10 26  2  0  0  0  0
 11 27  1  0  0  0  0
 12 14  2  0  0  0  0
 12 28  1  0  0  0  0
 13 30  1  0  0  0  0
 14 29  1  0  0  0  0
 15 19  1  0  0  0  0
 15 25  2  0  0  0  0
 16 24  1  0  0  0  0
 16 27  2  0  0  0  0
 17 29  2  0  0  0  0
 17 31  1  0  0  0  0
 18 32  1  0  0  0  0
 19 30  2  0  0  0  0
 19 34  1  0  0  0  0
 20 32  1  0  0  0  0
 20 33  2  0  0  0  0
 20 36  1  0  0  0  0
 21 23  2  0  0  0  0
 21 41  1  0  0  0  0
 22 24  2  0  0  0  0
 22 42  1  0  0  0  0
 23 50  1  0  0  0  0
 24 43  1  0  0  0  0
 25 72  1  0  0  0  0
 26 81  1  0  0  0  0
 27 82  1  0  0  0  0
 28 31  2  0  0  0  0
 28 81  1  0  0  0  0
 29 83  1  0  0  0  0
 30 84  1  0  0  0  0
 31 85  1  0  0  0  0
 32 66  2  0  0  0  0
 33 67  1  0  0  0  0
 33 70  1  0  0  0  0
 34 35  2  0  0  0  0
 35 60  1  0  0  0  0
 36 71  1  0  0  0  0
 36 76  2  0  0  0  0
 37 51  1  0  0  0  0
 37 73  1  0  0  0  0
 37 77  2  0  0  0  0
 38 62  1  0  0  0  0
 38 68  1  0  0  0  0
 38 78  2  0  0  0  0
 39 63  1  0  0  0  0
 39 74  1  0  0  0  0
 39 79  2  0  0  0  0
 40 69  1  0  0  0  0
 40 72  1  0  0  0  0
 40 80  2  0  0  0  0
 41 44  1  0  0  0  0
 42 51  1  0  0  0  0
 43 68  1  0  0  0  0
 44 46  1  0  0  0  0
 45 47  1  0  0  0  0
 45 48  1  0  0  0  0
 46 50  1  0  0  0  0
 47 52  1  0  0  0  0
 48 69  1  0  0  0  0
 49 52  1  0  0  0  0
 49 69  1  0  0  0  0
 50 73  1  0  0  0  0
 51 68  1  0  0  0  0
 52 67  1  0  0  0  0
 53 63  1  0  0  0  0
 54 64  1  0  0  0  0
 55 64  1  0  0  0  0
 56 64  1  0  0  0  0
 57 65  1  0  0  0  0
 58 65  1  0  0  0  0
 59 75  1  0  0  0  0
 60 61  1  0  0  0  0
 61 65  1  0  0  0  0
 62 64  1  0  0  0  0
 62 74  1  0  0  0  0
 63 75  1  0  0  0  0
 65 82  1  0  0  0  0
 66 67  1  0  0  0  0
M  CHG  1  75   1
M  ISO  4  40 100  65 101  72 100  82 101
M  END
> <Batch ID>
0136

> <Smiles>
CNC(C)C(=O)NC(C(=O)N1Cc2cc([101O:1][101C:1](C)(C)CCC=Cc3cc([100NH:0][100C:0](=O)N4CCCC(n5nc(-c6ccc(Oc7ccc(F)cc7F)cc6)c(C(N)=O)c5N)C4)ccc3F)ccc2CC1C(=O)NC1CCCc2ccccc21)C(C)(C)C

> <Shape>
0.171

> <Color>
0.196

> <Negative vol penalty>
0.000

$$$$
