
  -OEChem-04052302423D

 85 93  0     1  0  0  0  0  0999 V2000
  -26.7561  -18.8807   19.2935 C   0  0  0  0  0  0  0  0  0  0  0  0
  -27.8060  -19.2401   20.1325 C   0  0  0  0  0  0  0  0  0  0  0  0
  -23.0923   -9.8689   19.9299 C   0  0  0  0  0  0  0  0  0  0  0  0
  -23.8268   -9.8895   22.2314 C   0  0  0  0  0  0  0  0  0  0  0  0
  -26.4973  -19.6262   18.1440 C   0  0  0  0  0  0  0  0  0  0  0  0
  -28.5985  -20.3446   19.8218 C   0  0  0  0  0  0  0  0  0  0  0  0
  -29.4770  -23.2974   23.8411 C   0  0  0  0  0  0  0  0  0  0  0  0
  -22.3672   -8.7022   20.1717 C   0  0  0  0  0  0  0  0  0  0  0  0
  -23.1017   -8.7227   22.4733 C   0  0  0  0  0  0  0  0  0  0  0  0
  -30.4447  -22.8672   24.7479 C   0  0  0  0  0  0  0  0  0  0  0  0
  -23.4600   -5.4068   21.9191 C   0  0  0  0  0  0  0  0  0  0  0  0
  -24.0865   -4.3929   22.6437 C   0  0  0  0  0  0  0  0  0  0  0  0
  -32.0401  -24.3785   23.7531 C   0  0  0  0  0  0  0  0  0  0  0  0
  -31.9245  -16.7738   22.6354 C   0  0  0  0  0  0  0  0  0  0  0  0
  -30.2823  -18.4776   24.1129 C   0  0  0  0  0  0  0  0  0  0  0  0
  -22.3636   -4.5347   24.3316 C   0  0  0  0  0  0  0  0  0  0  0  0
  -23.8222  -10.4626   20.9597 C   0  0  0  0  0  0  0  0  0  0  0  0
  -24.1186  -12.9936   20.8434 C   0  0  0  0  0  0  0  0  0  0  0  0
  -27.2809  -20.7461   17.8243 C   0  0  0  0  0  0  0  0  0  0  0  0
  -29.7872  -24.2651   22.8748 C   0  0  0  0  0  0  0  0  0  0  0  0
  -28.3507  -21.1050   18.6663 C   0  0  0  0  0  0  0  0  0  0  0  0
  -31.0738  -24.8212   22.8368 C   0  0  0  0  0  0  0  0  0  0  0  0
  -32.4870  -17.6681   23.5461 C   0  0  0  0  0  0  0  0  0  0  0  0
  -30.5409  -16.7314   22.4634 C   0  0  0  0  0  0  0  0  0  0  0  0
  -22.3718   -8.1291   21.4434 C   0  0  0  0  0  0  0  0  0  0  0  0
  -31.7273  -23.4056   24.7021 C   0  0  0  0  0  0  0  0  0  0  0  0
  -22.2854   -5.9847   22.4008 C   0  0  0  0  0  0  0  0  0  0  0  0
  -31.6659  -18.5200   24.2849 C   0  0  0  0  0  0  0  0  0  0  0  0
  -23.5383   -3.9568   23.8500 C   0  0  0  0  0  0  0  0  0  0  0  0
  -29.7198  -17.5832   23.2022 C   0  0  0  0  0  0  0  0  0  0  0  0
  -21.7372   -5.5487   23.6070 C   0  0  0  0  0  0  0  0  0  0  0  0
  -24.5719  -11.6675   20.7104 C   0  0  0  0  0  0  0  0  0  0  0  0
  -25.2006  -13.7632   20.4921 C   0  0  0  0  0  0  0  0  0  0  0  0
  -22.8343  -13.4858   21.2485 C   0  0  0  0  0  0  0  0  0  0  0  0
  -29.8385  -24.3263   19.6972 C   0  0  0  0  0  0  0  0  0  0  0  0
  -30.4540  -27.4779   20.1562 C   0  0  0  0  0  0  0  0  0  0  0  0
  -31.6532  -29.9268   22.2084 C   0  0  0  0  0  0  0  0  0  0  0  0
  -30.6443  -14.9097   20.7265 C   0  0  0  0  0  0  0  0  0  0  0  0
  -26.9925  -21.4929   16.5461 C   0  0  0  0  0  0  0  0  0  0  0  0
  -28.7245  -24.7380   21.9211 C   0  0  0  0  0  0  0  0  0  0  0  0
  -31.4519  -25.8775   21.8320 C   0  0  0  0  0  0  0  0  0  0  0  0
  -27.6448  -22.8717   16.4857 C   0  0  0  0  0  0  0  0  0  0  0  0
  -29.6006  -12.4761   18.3462 C   0  0  0  0  0  0  0  0  0  0  0  0
  -29.1035  -22.7918   16.9246 C   0  0  0  0  0  0  0  0  0  0  0  0
  -28.1620  -12.1579   18.7600 C   0  0  0  0  0  0  0  0  0  0  0  0
  -30.4981  -12.7216   19.5577 C   0  0  0  0  0  0  0  0  0  0  0  0
  -28.5632  -13.4104   20.9181 C   0  0  0  0  0  0  0  0  0  0  0  0
  -29.2173  -22.3113   18.3763 C   0  0  1  0  0  0  0  0  0  0  0  0
  -29.2958  -25.3552   20.6483 C   0  0  1  0  0  0  0  0  0  0  0  0
  -27.6066  -13.2194   19.7297 C   0  0  2  0  0  0  0  0  0  0  0  0
  -33.9699  -17.7013   23.7172 C   0  0  0  0  0  0  0  0  0  0  0  0
  -34.9635  -21.0982   25.2440 C   0  0  0  0  0  0  0  0  0  0  0  0
  -32.0620  -32.4013   22.2926 C   0  0  0  0  0  0  0  0  0  0  0  0
  -32.9026  -27.1317   18.3689 C   0  0  0  0  0  0  0  0  0  0  0  0
  -33.7643  -29.3129   19.2453 C   0  0  0  0  0  0  0  0  0  0  0  0
  -31.6163  -29.2406   17.9789 C   0  0  0  0  0  0  0  0  0  0  0  0
  -31.7043  -21.6602   27.3205 C   0  0  0  0  0  0  0  0  0  0  0  0
  -29.8168  -30.2694   24.5039 C   0  0  0  0  0  0  0  0  0  0  0  0
  -33.9935  -21.1608   26.4189 C   0  0  0  0  0  0  0  0  0  0  0  0
  -31.9429  -20.7867   24.9489 C   0  0  0  0  0  0  0  0  0  0  0  0
  -31.7022  -28.3095   20.3279 C   0  0  1  0  0  0  0  0  0  0  0  0
  -31.0850  -31.2780   22.6031 C   0  0  2  0  0  0  0  0  0  0  0  0
  -32.4901  -28.4774   18.9981 C   0  0  0  0  0  0  0  0  0  0  0  0
  -32.5738  -21.6437   26.0567 C   0  0  1  0  0  0  0  0  0  1  0  0
  -25.8428  -11.5952   20.3059 N   0  0  0  0  0  0  0  0  0  0  0  0
  -26.1973  -12.8855   20.1817 N   0  0  0  0  0  0  0  0  0  0  0  0
  -30.3798  -26.3023   20.9167 N   0  0  0  0  0  0  0  0  0  0  0  0
  -29.9107  -13.7417   20.4290 N   0  0  0  0  0  0  0  0  0  0  0  0
  -25.3871  -15.0984   20.4214 N   0  0  0  0  0  0  0  0  0  0  0  0
  -21.8357  -12.5580   21.5747 N   0  0  0  0  0  0  0  0  0  0  0  0
  -29.9710  -15.8224   21.5378 N   0  0  0  0  0  0  0  0  0  0  0  0
  -28.9078  -23.3890   19.2912 N   0  0  0  0  0  0  0  0  0  0  0  0
  -31.2751  -29.5668   20.9322 N   0  0  0  0  0  0  0  0  0  0  0  0
  -30.7838  -31.3071   24.0623 N   0  3  0  0  0  0  0  0  0  0  0  0
  -22.5747  -14.7118   21.3033 O   0  0  0  0  0  0  0  0  0  0  0  0
  -31.0142  -24.3797   19.3557 O   0  0  0  0  0  0  0  0  0  0  0  0
  -29.5740  -27.8610   19.3813 O   0  0  0  0  0  0  0  0  0  0  0  0
  -32.3646  -29.2593   22.9560 O   0  0  0  0  0  0  0  0  0  0  0  0
  -31.7751  -15.0993   20.2712 O   0  0  0  0  0  0  0  0  0  0  0  0
  -21.6642   -6.9907   21.6798 O   0  0  0  0  0  0  0  0  0  0  0  0
  -32.2012  -19.4055   25.1816 O   0  0  0  0  0  0  0  0  0  0  0  0
  -32.6739  -22.9870   25.5856 O   0  0  0  0  0  0  0  0  0  1  0  0
  -24.1392   -2.9821   24.5450 F   0  0  0  0  0  0  0  0  0  0  0  0
  -28.3889  -17.5526   23.0432 F   0  0  0  0  0  0  0  0  0  0  0  0
  -20.6083   -6.0992   24.0741 F   0  0  0  0  0  0  0  0  0  0  0  0
  1  2  1  0  0  0  0
  1  5  2  0  0  0  0
  2  6  2  0  0  0  0
  3  8  2  0  0  0  0
  3 17  1  0  0  0  0
  4  9  1  0  0  0  0
  4 17  2  0  0  0  0
  5 19  1  0  0  0  0
  6 21  1  0  0  0  0
  7 10  2  0  0  0  0
  7 20  1  0  0  0  0
  8 25  1  0  0  0  0
  9 25  2  0  0  0  0
 10 26  1  0  0  0  0
 11 12  2  0  0  0  0
 11 27  1  0  0  0  0
 12 29  1  0  0  0  0
 13 22  1  0  0  0  0
 13 26  2  0  0  0  0
 14 23  1  0  0  0  0
 14 24  2  0  0  0  0
 15 28  1  0  0  0  0
 15 30  2  0  0  0  0
 16 29  2  0  0  0  0
 16 31  1  0  0  0  0
 17 32  1  0  0  0  0
 18 32  1  0  0  0  0
 18 33  2  0  0  0  0
 18 34  1  0  0  0  0
 19 21  2  0  0  0  0
 19 39  1  0  0  0  0
 20 22  2  0  0  0  0
 20 40  1  0  0  0  0
 21 48  1  0  0  0  0
 22 41  1  0  0  0  0
 23 28  2  0  0  0  0
 23 51  1  0  0  0  0
 24 30  1  0  0  0  0
 24 71  1  0  0  0  0
 25 80  1  0  0  0  0
 26 82  1  0  0  0  0
 27 31  2  0  0  0  0
 27 80  1  0  0  0  0
 28 81  1  0  0  0  0
 29 83  1  0  0  0  0
 30 84  1  0  0  0  0
 31 85  1  0  0  0  0
 32 65  2  0  0  0  0
 33 66  1  0  0  0  0
 33 69  1  0  0  0  0
 34 70  1  0  0  0  0
 34 75  2  0  0  0  0
 35 49  1  0  0  0  0
 35 72  1  0  0  0  0
 35 76  2  0  0  0  0
 36 61  1  0  0  0  0
 36 67  1  0  0  0  0
 36 77  2  0  0  0  0
 37 62  1  0  0  0  0
 37 73  1  0  0  0  0
 37 78  2  0  0  0  0
 38 68  1  0  0  0  0
 38 71  1  0  0  0  0
 38 79  2  0  0  0  0
 39 42  1  0  0  0  0
 40 49  1  0  0  0  0
 41 67  1  0  0  0  0
 42 44  1  0  0  0  0
 43 45  1  0  0  0  0
 43 46  1  0  0  0  0
 44 48  1  0  0  0  0
 45 50  1  0  0  0  0
 46 68  1  0  0  0  0
 47 50  1  0  0  0  0
 47 68  1  0  0  0  0
 48 72  1  0  0  0  0
 49 67  1  0  0  0  0
 50 66  1  0  0  0  0
 52 59  1  0  0  0  0
 53 62  1  0  0  0  0
 54 63  1  0  0  0  0
 55 63  1  0  0  0  0
 56 63  1  0  0  0  0
 57 64  1  0  0  0  0
 58 74  1  0  0  0  0
 59 64  1  0  0  0  0
 60 64  1  0  0  0  0
 60 81  1  0  0  0  0
 61 63  1  0  0  0  0
 61 73  1  0  0  0  0
 62 74  1  0  0  0  0
 64 82  1  0  0  0  0
 65 66  1  0  0  0  0
M  CHG  1  74   1
M  ISO  4  38 100  64 101  71 100  82 101
M  END
> <Batch ID>
0137

> <Smiles>
CC[101C:1](C)(COc1cc(F)c([100NH:0][100C:0](=O)N2CCCC(n3nc(-c4ccc(Oc5ccc(F)cc5F)cc4)c(C(N)=O)c3N)C2)cc1C)[101O:1]c1ccc2c(c1)CN(C(=O)C(NC(=O)C(C)NC)C(C)(C)C)C(C(=O)NC1CCCc3ccccc31)C2

> <Shape>
0.253

> <Color>
0.204

> <Negative vol penalty>
0.000

$$$$

  -OEChem-04052302423D

 85 93  0     1  0  0  0  0  0999 V2000
  -23.3941   -7.8802   21.7647 C   0  0  0  0  0  0  0  0  0  0  0  0
  -24.0821   -8.8286   21.0147 C   0  0  0  0  0  0  0  0  0  0  0  0
  -26.8126  -30.0092   21.0185 C   0  0  0  0  0  0  0  0  0  0  0  0
  -26.4503  -28.4078   22.7909 C   0  0  0  0  0  0  0  0  0  0  0  0
  -22.1451   -8.1898   22.3015 C   0  0  0  0  0  0  0  0  0  0  0  0
  -23.5209  -10.0870   20.8001 C   0  0  0  0  0  0  0  0  0  0  0  0
  -26.8554  -13.8400   21.4642 C   0  0  0  0  0  0  0  0  0  0  0  0
  -25.7440  -30.7721   21.4894 C   0  0  0  0  0  0  0  0  0  0  0  0
  -25.3817  -29.1707   23.2618 C   0  0  0  0  0  0  0  0  0  0  0  0
  -27.7622  -14.0762   20.4318 C   0  0  0  0  0  0  0  0  0  0  0  0
  -23.3394  -33.3275   22.4396 C   0  0  0  0  0  0  0  0  0  0  0  0
  -23.5188  -34.7077   22.5315 C   0  0  0  0  0  0  0  0  0  0  0  0
  -26.4028  -15.9165   19.6671 C   0  0  0  0  0  0  0  0  0  0  0  0
  -29.4812  -19.6562   19.7493 C   0  0  0  0  0  0  0  0  0  0  0  0
  -28.3812  -20.4447   21.7505 C   0  0  0  0  0  0  0  0  0  0  0  0
  -29.6328  -18.3786   21.7943 C   0  0  0  0  0  0  0  0  0  0  0  0
  -25.3488  -34.3674   24.0717 C   0  0  0  0  0  0  0  0  0  0  0  0
  -27.1657  -28.8270   21.6693 C   0  0  0  0  0  0  0  0  0  0  0  0
  -29.6218  -28.1466   21.5577 C   0  0  0  0  0  0  0  0  0  0  0  0
  -21.5727   -9.4559   22.1015 C   0  0  0  0  0  0  0  0  0  0  0  0
  -25.7080  -14.6347   21.5995 C   0  0  0  0  0  0  0  0  0  0  0  0
  -22.2625  -10.4134   21.3336 C   0  0  0  0  0  0  0  0  0  0  0  0
  -25.4844  -15.6899   20.7036 C   0  0  0  0  0  0  0  0  0  0  0  0
  -28.6973  -20.6076   20.4018 C   0  0  0  0  0  0  0  0  0  0  0  0
  -25.0286  -30.3529   22.6110 C   0  0  0  0  0  0  0  0  0  0  0  0
  -27.5344  -15.1128   19.5313 C   0  0  0  0  0  0  0  0  0  0  0  0
  -24.1647  -32.4672   23.1638 C   0  0  0  0  0  0  0  0  0  0  0  0
  -29.9489  -18.5416   20.4455 C   0  0  0  0  0  0  0  0  0  0  0  0
  -24.5235  -35.2277   23.3475 C   0  0  0  0  0  0  0  0  0  0  0  0
  -28.8489  -19.3301   22.4468 C   0  0  0  0  0  0  0  0  0  0  0  0
  -25.1694  -32.9872   23.9798 C   0  0  0  0  0  0  0  0  0  0  0  0
  -28.2691  -28.0382   21.1830 C   0  0  0  0  0  0  0  0  0  0  0  0
  -30.2613  -27.1820   20.8180 C   0  0  0  0  0  0  0  0  0  0  0  0
  -30.2445  -29.0393   22.4910 C   0  0  0  0  0  0  0  0  0  0  0  0
  -22.5779  -14.0914   21.4945 C   0  0  0  0  0  0  0  0  0  0  0  0
  -22.4018  -17.2054   22.3856 C   0  0  0  0  0  0  0  0  0  0  0  0
  -23.8809  -20.2795   22.4820 C   0  0  0  0  0  0  0  0  0  0  0  0
  -28.4406  -22.0519   18.3537 C   0  0  0  0  0  0  0  0  0  0  0  0
  -20.1992   -9.7283   22.6617 C   0  0  0  0  0  0  0  0  0  0  0  0
  -24.7534  -14.3839   22.7345 C   0  0  0  0  0  0  0  0  0  0  0  0
  -24.2783  -16.5848   20.8175 C   0  0  0  0  0  0  0  0  0  0  0  0
  -19.8414  -11.2117   22.7031 C   0  0  0  0  0  0  0  0  0  0  0  0
  -29.9313  -24.8121   16.6696 C   0  0  0  0  0  0  0  0  0  0  0  0
  -20.1925  -11.8827   21.3789 C   0  0  0  0  0  0  0  0  0  0  0  0
  -29.8028  -25.9611   17.6724 C   0  0  0  0  0  0  0  0  0  0  0  0
  -28.7136  -23.8903   16.7042 C   0  0  0  0  0  0  0  0  0  0  0  0
  -28.2346  -24.5232   19.0364 C   0  0  0  0  0  0  0  0  0  0  0  0
  -21.6979  -11.7978   21.0996 C   0  0  1  0  0  0  0  0  0  0  0  0
  -23.3539  -14.9304   22.4701 C   0  0  1  0  0  0  0  0  0  0  0  0
  -29.4664  -25.4419   19.0841 C   0  0  2  0  0  0  0  0  0  0  0  0
  -33.3040  -16.2944   17.6343 C   0  0  0  0  0  0  0  0  0  0  0  0
  -24.1891  -22.6975   23.0783 C   0  0  0  0  0  0  0  0  0  0  0  0
  -20.5561  -17.6545   19.9978 C   0  0  0  0  0  0  0  0  0  0  0  0
  -20.9539  -20.1143   20.2416 C   0  0  0  0  0  0  0  0  0  0  0  0
  -19.8643  -18.8398   22.0884 C   0  0  0  0  0  0  0  0  0  0  0  0
  -30.4596  -15.8387   16.4834 C   0  0  0  0  0  0  0  0  0  0  0  0
  -25.2614  -19.5999   25.0101 C   0  0  0  0  0  0  0  0  0  0  0  0
  -32.1916  -15.5104   18.3204 C   0  0  0  0  0  0  0  0  0  0  0  0
  -29.7842  -15.0151   18.7665 C   0  0  0  0  0  0  0  0  0  1  0  0
  -30.4860  -17.4300   18.4129 C   0  0  0  0  0  0  0  0  0  0  0  0
  -22.3350  -18.5245   21.6545 C   0  0  1  0  0  0  0  0  0  0  0  0
  -24.0530  -21.2795   23.6110 C   0  0  2  0  0  0  0  0  0  0  0  0
  -20.9492  -18.7654   20.9920 C   0  0  0  0  0  0  0  0  0  0  0  0
  -30.7394  -15.9629   17.9944 C   0  0  2  0  0  0  0  0  0  0  0  0
  -28.0605  -27.0805   20.2757 N   0  0  0  0  0  0  0  0  0  0  0  0
  -29.2906  -26.5783   20.0740 N   0  0  0  0  0  0  0  0  0  0  0  0
  -23.3709  -16.2954   21.9402 N   0  0  0  0  0  0  0  0  0  0  0  0
  -28.4581  -23.4344   18.0723 N   0  0  0  0  0  0  0  0  0  0  0  0
  -31.5536  -26.7999   20.7379 N   0  0  0  0  0  0  0  0  0  0  0  0
  -29.4405  -29.9684   23.1651 N   0  0  0  0  0  0  0  0  0  0  0  0
  -28.2205  -21.7393   19.6948 N   0  0  0  0  0  0  0  0  0  0  0  0
  -22.4143  -12.7771   21.8885 N   0  0  0  0  0  0  0  0  0  0  0  0
  -22.7210  -19.5469   22.6210 N   0  0  0  0  0  0  0  0  0  0  0  0
  -25.2711  -20.9575   24.4070 N   0  3  0  0  0  0  0  0  0  0  0  0
  -31.4799  -29.0247   22.7081 O   0  0  0  0  0  0  0  0  0  0  0  0
  -22.1575  -14.5993   20.4616 O   0  0  0  0  0  0  0  0  0  0  0  0
  -21.6275  -16.9932   23.3222 O   0  0  0  0  0  0  0  0  0  0  0  0
  -24.6922  -20.1626   21.5662 O   0  0  0  0  0  0  0  0  0  0  0  0
  -28.6356  -21.2083   17.4750 O   0  0  0  0  0  0  0  0  0  0  0  0
  -23.9859  -31.0972   23.0709 O   0  0  0  0  0  0  0  0  0  0  0  0
  -28.4175  -15.3451   18.5223 O   0  0  0  0  0  0  0  0  0  1  0  0
  -30.7186  -17.6065   19.8043 O   0  0  0  0  0  0  0  0  0  0  0  0
  -24.6966  -36.5531   23.4345 F   0  0  0  0  0  0  0  0  0  0  0  0
  -28.5436  -19.1724   23.7415 F   0  0  0  0  0  0  0  0  0  0  0  0
  -25.9662  -32.1656   24.6770 F   0  0  0  0  0  0  0  0  0  0  0  0
  1  2  1  0  0  0  0
  1  5  2  0  0  0  0
  2  6  2  0  0  0  0
  3  8  2  0  0  0  0
  3 18  1  0  0  0  0
  4  9  1  0  0  0  0
  4 18  2  0  0  0  0
  5 20  1  0  0  0  0
  6 22  1  0  0  0  0
  7 10  2  0  0  0  0
  7 21  1  0  0  0  0
  8 25  1  0  0  0  0
  9 25  2  0  0  0  0
 10 26  1  0  0  0  0
 11 12  2  0  0  0  0
 11 27  1  0  0  0  0
 12 29  1  0  0  0  0
 13 23  1  0  0  0  0
 13 26  2  0  0  0  0
 14 24  1  0  0  0  0
 14 28  2  0  0  0  0
 15 24  2  0  0  0  0
 15 30  1  0  0  0  0
 16 28  1  0  0  0  0
 16 30  2  0  0  0  0
 17 29  2  0  0  0  0
 17 31  1  0  0  0  0
 18 32  1  0  0  0  0
 19 32  1  0  0  0  0
 19 33  2  0  0  0  0
 19 34  1  0  0  0  0
 20 22  2  0  0  0  0
 20 39  1  0  0  0  0
 21 23  2  0  0  0  0
 21 40  1  0  0  0  0
 22 48  1  0  0  0  0
 23 41  1  0  0  0  0
 24 71  1  0  0  0  0
 25 80  1  0  0  0  0
 26 81  1  0  0  0  0
 27 31  2  0  0  0  0
 27 80  1  0  0  0  0
 28 82  1  0  0  0  0
 29 83  1  0  0  0  0
 30 84  1  0  0  0  0
 31 85  1  0  0  0  0
 32 65  2  0  0  0  0
 33 66  1  0  0  0  0
 33 69  1  0  0  0  0
 34 70  1  0  0  0  0
 34 75  2  0  0  0  0
 35 49  1  0  0  0  0
 35 72  1  0  0  0  0
 35 76  2  0  0  0  0
 36 61  1  0  0  0  0
 36 67  1  0  0  0  0
 36 77  2  0  0  0  0
 37 62  1  0  0  0  0
 37 73  1  0  0  0  0
 37 78  2  0  0  0  0
 38 68  1  0  0  0  0
 38 71  1  0  0  0  0
 38 79  2  0  0  0  0
 39 42  1  0  0  0  0
 40 49  1  0  0  0  0
 41 67  1  0  0  0  0
 42 44  1  0  0  0  0
 43 45  1  0  0  0  0
 43 46  1  0  0  0  0
 44 48  1  0  0  0  0
 45 50  1  0  0  0  0
 46 68  1  0  0  0  0
 47 50  1  0  0  0  0
 47 68  1  0  0  0  0
 48 72  1  0  0  0  0
 49 67  1  0  0  0  0
 50 66  1  0  0  0  0
 51 58  1  0  0  0  0
 52 62  1  0  0  0  0
 53 63  1  0  0  0  0
 54 63  1  0  0  0  0
 55 63  1  0  0  0  0
 56 64  1  0  0  0  0
 57 74  1  0  0  0  0
 58 64  1  0  0  0  0
 59 64  1  0  0  0  0
 59 81  1  0  0  0  0
 60 64  1  0  0  0  0
 60 82  1  0  0  0  0
 61 63  1  0  0  0  0
 61 73  1  0  0  0  0
 62 74  1  0  0  0  0
 65 66  1  0  0  0  0
M  CHG  1  74   1
M  ISO  4  38 100  59 101  71 100  81 101
M  END
> <Batch ID>
0137

> <Smiles>
CCC(C)(COc1cc(F)cc([100NH:0][100C:0](=O)N2CCCC(n3nc(-c4ccc(Oc5ccc(F)cc5F)cc4)c(C(N)=O)c3N)C2)c1)[101CH2:1][101O:1]c1ccc2c(c1)CN(C(=O)C(NC(=O)C(C)NC)C(C)(C)C)C(C(=O)NC1CCCc3ccccc31)C2

> <Shape>
0.255

> <Color>
0.083

> <Negative vol penalty>
0.000

$$$$

  -OEChem-04052302423D

 84 92  0     1  0  0  0  0  0999 V2000
  -31.8100  -26.0555   19.1919 C   0  0  0  0  0  0  0  0  0  0  0  0
  -30.5484  -25.9956   18.6087 C   0  0  0  0  0  0  0  0  0  0  0  0
  -26.6903  -14.7506   21.4266 C   0  0  0  0  0  0  0  0  0  0  0  0
  -24.4789  -14.8634   20.4601 C   0  0  0  0  0  0  0  0  0  0  0  0
  -31.9379  -26.3784   20.5422 C   0  0  0  0  0  0  0  0  0  0  0  0
  -29.4137  -26.2574   19.3758 C   0  0  0  0  0  0  0  0  0  0  0  0
  -22.8503  -29.0794   18.8528 C   0  0  0  0  0  0  0  0  0  0  0  0
  -26.3334  -13.5866   22.1074 C   0  0  0  0  0  0  0  0  0  0  0  0
  -24.1220  -13.6993   21.1409 C   0  0  0  0  0  0  0  0  0  0  0  0
  -21.5199  -28.7712   19.1334 C   0  0  0  0  0  0  0  0  0  0  0  0
  -24.5905  -10.3705   20.7948 C   0  0  0  0  0  0  0  0  0  0  0  0
  -23.8978   -9.3915   20.0825 C   0  0  0  0  0  0  0  0  0  0  0  0
  -21.8672  -29.3963   21.4372 C   0  0  0  0  0  0  0  0  0  0  0  0
  -20.6959  -21.9684   19.2869 C   0  0  0  0  0  0  0  0  0  0  0  0
  -18.9917  -23.4775   20.0961 C   0  0  0  0  0  0  0  0  0  0  0  0
  -21.2923  -23.7815   20.7681 C   0  0  0  0  0  0  0  0  0  0  0  0
  -22.0484   -9.5770   21.6261 C   0  0  0  0  0  0  0  0  0  0  0  0
  -25.7630  -15.3890   20.6030 C   0  0  0  0  0  0  0  0  0  0  0  0
  -26.6972  -16.6856   18.6146 C   0  0  0  0  0  0  0  0  0  0  0  0
  -30.8049  -26.6538   21.3239 C   0  0  0  0  0  0  0  0  0  0  0  0
  -23.7035  -29.5388   19.8664 C   0  0  0  0  0  0  0  0  0  0  0  0
  -29.5265  -26.5830   20.7382 C   0  0  0  0  0  0  0  0  0  0  0  0
  -23.2074  -29.7121   21.1663 C   0  0  0  0  0  0  0  0  0  0  0  0
  -19.3610  -22.3700   19.3327 C   0  0  0  0  0  0  0  0  0  0  0  0
  -21.6616  -22.6741   20.0047 C   0  0  0  0  0  0  0  0  0  0  0  0
  -25.0493  -13.0610   21.9645 C   0  0  0  0  0  0  0  0  0  0  0  0
  -21.0289  -28.9268   20.4263 C   0  0  0  0  0  0  0  0  0  0  0  0
  -24.0122  -10.9527   21.9228 C   0  0  0  0  0  0  0  0  0  0  0  0
  -19.9573  -24.1832   20.8138 C   0  0  0  0  0  0  0  0  0  0  0  0
  -22.6267   -8.9948   20.4982 C   0  0  0  0  0  0  0  0  0  0  0  0
  -22.7411  -10.5560   22.3384 C   0  0  0  0  0  0  0  0  0  0  0  0
  -26.1308  -16.5917   19.9000 C   0  0  0  0  0  0  0  0  0  0  0  0
  -26.8558  -18.0339   18.4068 C   0  0  0  0  0  0  0  0  0  0  0  0
  -27.0484  -15.6467   17.6909 C   0  0  0  0  0  0  0  0  0  0  0  0
  -26.3816  -28.4667   21.2012 C   0  0  0  0  0  0  0  0  0  0  0  0
  -26.3013  -31.3247   22.7334 C   0  0  0  0  0  0  0  0  0  0  0  0
  -24.4459  -33.9633   23.8479 C   0  0  0  0  0  0  0  0  0  0  0  0
  -24.0999  -22.8558   20.6113 C   0  0  0  0  0  0  0  0  0  0  0  0
  -30.9900  -26.9521   22.7907 C   0  0  0  0  0  0  0  0  0  0  0  0
  -25.1290  -29.8924   19.5416 C   0  0  0  0  0  0  0  0  0  0  0  0
  -24.0770  -30.2213   22.2857 C   0  0  0  0  0  0  0  0  0  0  0  0
  -29.7627  -27.5826   23.4437 C   0  0  0  0  0  0  0  0  0  0  0  0
  -27.5813  -22.1289   20.7816 C   0  0  0  0  0  0  0  0  0  0  0  0
  -28.4990  -26.8260   23.0470 C   0  0  0  0  0  0  0  0  0  0  0  0
  -27.6565  -20.6363   20.4519 C   0  0  0  0  0  0  0  0  0  0  0  0
  -26.3419  -22.4651   21.6091 C   0  0  0  0  0  0  0  0  0  0  0  0
  -25.1457  -20.5081   20.7101 C   0  0  0  0  0  0  0  0  0  0  0  0
  -28.2736  -26.8848   21.5314 C   0  0  1  0  0  0  0  0  0  0  0  0
  -26.0445  -29.8634   20.7615 C   0  0  1  0  0  0  0  0  0  0  0  0
  -26.3433  -20.1313   19.8226 C   0  0  2  0  0  0  0  0  0  0  0  0
  -18.3284  -21.6155   18.5656 C   0  0  0  0  0  0  0  0  0  0  0  0
  -24.6536  -36.1287   25.0992 C   0  0  0  0  0  0  0  0  0  0  0  0
  -26.5367  -29.7837   25.3563 C   0  0  0  0  0  0  0  0  0  0  0  0
  -25.7923  -31.8508   26.5568 C   0  0  0  0  0  0  0  0  0  0  0  0
  -27.9134  -31.8685   25.2441 C   0  0  0  0  0  0  0  0  0  0  0  0
  -17.9218  -26.7551   23.4605 C   0  0  0  0  0  0  0  0  0  0  0  0
  -16.9712  -27.9844   21.4992 C   0  0  0  0  0  0  0  0  0  0  0  0
  -23.4765  -35.5290   21.5311 C   0  0  0  0  0  0  0  0  0  0  0  0
  -19.4374  -28.1677   22.0222 C   0  0  0  0  0  0  0  0  0  1  0  0
  -18.4741  -26.0187   21.1084 C   0  0  0  0  0  0  0  0  0  0  0  0
  -25.7001  -31.8300   24.0227 C   0  0  1  0  0  0  0  0  0  0  0  0
  -24.6554  -35.4624   23.7321 C   0  0  2  0  0  0  0  0  0  0  0  0
  -26.4695  -31.3218   25.2745 C   0  0  0  0  0  0  0  0  0  0  0  0
  -18.2078  -27.2325   22.0239 C   0  0  0  0  0  0  0  0  0  0  0  0
  -25.9425  -17.7854   20.4688 N   0  0  0  0  0  0  0  0  0  0  0  0
  -26.3932  -18.6421   19.5366 N   0  0  0  0  0  0  0  0  0  0  0  0
  -25.4652  -30.5474   21.9194 N   0  0  0  0  0  0  0  0  0  0  0  0
  -25.1360  -21.9598   20.9494 N   0  0  0  0  0  0  0  0  0  0  0  0
  -27.3446  -18.7469   17.3699 N   0  0  0  0  0  0  0  0  0  0  0  0
  -26.8184  -14.3154   18.0636 N   0  0  0  0  0  0  0  0  0  0  0  0
  -23.0178  -22.2662   19.9586 N   0  0  0  0  0  0  0  0  0  0  0  0
  -27.7306  -28.1711   21.1507 N   0  0  0  0  0  0  0  0  0  0  0  0
  -25.6440  -33.2831   23.9049 N   0  0  0  0  0  0  0  0  0  0  0  0
  -23.5740  -36.0745   22.9095 N   0  3  0  0  0  0  0  0  0  0  0  0
  -27.5664  -15.8911   16.5749 O   0  0  0  0  0  0  0  0  0  0  0  0
  -25.4845  -27.7135   21.5611 O   0  0  0  0  0  0  0  0  0  0  0  0
  -27.4674  -31.6152   22.4552 O   0  0  0  0  0  0  0  0  0  0  0  0
  -23.3310  -33.4477   23.8879 O   0  0  0  0  0  0  0  0  0  0  0  0
  -24.1796  -24.0623   20.8565 O   0  0  0  0  0  0  0  0  0  0  0  0
  -24.7009  -11.9251   22.6284 O   0  0  0  0  0  0  0  0  0  0  0  0
  -19.7309  -28.6261   20.7031 O   0  0  0  0  0  0  0  0  0  1  0  0
  -19.5943  -25.2709   21.5641 O   0  0  0  0  0  0  0  0  0  0  0  0
  -21.9610   -8.0558   19.8132 F   0  0  0  0  0  0  0  0  0  0  0  0
  -22.1799  -11.1126   23.4206 F   0  0  0  0  0  0  0  0  0  0  0  0
  1  2  1  0  0  0  0
  1  5  2  0  0  0  0
  2  6  2  0  0  0  0
  3  8  2  0  0  0  0
  3 18  1  0  0  0  0
  4  9  1  0  0  0  0
  4 18  2  0  0  0  0
  5 20  1  0  0  0  0
  6 22  1  0  0  0  0
  7 10  2  0  0  0  0
  7 21  1  0  0  0  0
  8 26  1  0  0  0  0
  9 26  2  0  0  0  0
 10 27  1  0  0  0  0
 11 12  2  0  0  0  0
 11 28  1  0  0  0  0
 12 30  1  0  0  0  0
 13 23  1  0  0  0  0
 13 27  2  0  0  0  0
 14 24  1  0  0  0  0
 14 25  2  0  0  0  0
 15 24  2  0  0  0  0
 15 29  1  0  0  0  0
 16 25  1  0  0  0  0
 16 29  2  0  0  0  0
 17 30  2  0  0  0  0
 17 31  1  0  0  0  0
 18 32  1  0  0  0  0
 19 32  1  0  0  0  0
 19 33  2  0  0  0  0
 19 34  1  0  0  0  0
 20 22  2  0  0  0  0
 20 39  1  0  0  0  0
 21 23  2  0  0  0  0
 21 40  1  0  0  0  0
 22 48  1  0  0  0  0
 23 41  1  0  0  0  0
 24 51  1  0  0  0  0
 25 71  1  0  0  0  0
 26 80  1  0  0  0  0
 27 81  1  0  0  0  0
 28 31  2  0  0  0  0
 28 80  1  0  0  0  0
 29 82  1  0  0  0  0
 30 83  1  0  0  0  0
 31 84  1  0  0  0  0
 32 65  2  0  0  0  0
 33 66  1  0  0  0  0
 33 69  1  0  0  0  0
 34 70  1  0  0  0  0
 34 75  2  0  0  0  0
 35 49  1  0  0  0  0
 35 72  1  0  0  0  0
 35 76  2  0  0  0  0
 36 61  1  0  0  0  0
 36 67  1  0  0  0  0
 36 77  2  0  0  0  0
 37 62  1  0  0  0  0
 37 73  1  0  0  0  0
 37 78  2  0  0  0  0
 38 68  1  0  0  0  0
 38 71  1  0  0  0  0
 38 79  2  0  0  0  0
 39 42  1  0  0  0  0
 40 49  1  0  0  0  0
 41 67  1  0  0  0  0
 42 44  1  0  0  0  0
 43 45  1  0  0  0  0
 43 46  1  0  0  0  0
 44 48  1  0  0  0  0
 45 50  1  0  0  0  0
 46 68  1  0  0  0  0
 47 50  1  0  0  0  0
 47 68  1  0  0  0  0
 48 72  1  0  0  0  0
 49 67  1  0  0  0  0
 50 66  1  0  0  0  0
 52 62  1  0  0  0  0
 53 63  1  0  0  0  0
 54 63  1  0  0  0  0
 55 63  1  0  0  0  0
 56 64  1  0  0  0  0
 57 64  1  0  0  0  0
 58 74  1  0  0  0  0
 59 64  1  0  0  0  0
 59 81  1  0  0  0  0
 60 64  1  0  0  0  0
 60 82  1  0  0  0  0
 61 63  1  0  0  0  0
 61 73  1  0  0  0  0
 62 74  1  0  0  0  0
 65 66  1  0  0  0  0
M  CHG  1  74   1
M  ISO  4  38 100  59 101  71 100  81 101
M  END
> <Batch ID>
0137

> <Smiles>
CNC(C)C(=O)NC(C(=O)N1Cc2cc([101O:1][101CH2:1]C(C)(C)COc3cc(C)cc([100NH:0][100C:0](=O)N4CCCC(n5nc(-c6ccc(Oc7ccc(F)cc7F)cc6)c(C(N)=O)c5N)C4)c3)ccc2CC1C(=O)NC1CCCc2ccccc21)C(C)(C)C

> <Shape>
0.290

> <Color>
0.062

> <Negative vol penalty>
0.000

$$$$

  -OEChem-04052302423D

 84 92  0     1  0  0  0  0  0999 V2000
  -24.8833   -6.3780   22.3848 C   0  0  0  0  0  0  0  0  0  0  0  0
  -25.9657   -7.0856   21.8717 C   0  0  0  0  0  0  0  0  0  0  0  0
  -22.6585  -30.5785   20.7694 C   0  0  0  0  0  0  0  0  0  0  0  0
  -22.5269  -28.7286   22.3177 C   0  0  0  0  0  0  0  0  0  0  0  0
  -23.6098   -6.9454   22.3678 C   0  0  0  0  0  0  0  0  0  0  0  0
  -25.7750   -8.3607   21.3404 C   0  0  0  0  0  0  0  0  0  0  0  0
  -29.0937  -14.6703   20.6392 C   0  0  0  0  0  0  0  0  0  0  0  0
  -21.2736  -30.5417   20.6075 C   0  0  0  0  0  0  0  0  0  0  0  0
  -21.1419  -28.6917   22.1559 C   0  0  0  0  0  0  0  0  0  0  0  0
  -29.4370  -15.6040   19.6624 C   0  0  0  0  0  0  0  0  0  0  0  0
  -18.4576  -30.4079   23.2827 C   0  0  0  0  0  0  0  0  0  0  0  0
  -17.6755  -30.2842   24.4310 C   0  0  0  0  0  0  0  0  0  0  0  0
  -27.2056  -16.5155   19.7581 C   0  0  0  0  0  0  0  0  0  0  0  0
  -28.2296  -22.9323   22.5295 C   0  0  0  0  0  0  0  0  0  0  0  0
  -29.4309  -22.5045   20.4775 C   0  0  0  0  0  0  0  0  0  0  0  0
  -16.7507  -28.2213   23.5789 C   0  0  0  0  0  0  0  0  0  0  0  0
  -23.2852  -29.6719   21.6244 C   0  0  0  0  0  0  0  0  0  0  0  0
  -25.4417  -30.4523   22.7417 C   0  0  0  0  0  0  0  0  0  0  0  0
  -23.4051   -8.2320   21.8448 C   0  0  0  0  0  0  0  0  0  0  0  0
  -27.7984  -14.6451   21.1758 C   0  0  0  0  0  0  0  0  0  0  0  0
  -24.4974   -8.9453   21.3152 C   0  0  0  0  0  0  0  0  0  0  0  0
  -26.8492  -15.5822   20.7435 C   0  0  0  0  0  0  0  0  0  0  0  0
  -28.2059  -21.5643   22.8009 C   0  0  0  0  0  0  0  0  0  0  0  0
  -28.7948  -20.6664   21.9106 C   0  0  0  0  0  0  0  0  0  0  0  0
  -28.8420  -23.4024   21.3678 C   0  0  0  0  0  0  0  0  0  0  0  0
  -20.5153  -29.5983   21.3008 C   0  0  0  0  0  0  0  0  0  0  0  0
  -28.4921  -16.5249   19.2196 C   0  0  0  0  0  0  0  0  0  0  0  0
  -18.3862  -29.4384   22.2824 C   0  0  0  0  0  0  0  0  0  0  0  0
  -29.4073  -21.1365   20.7489 C   0  0  0  0  0  0  0  0  0  0  0  0
  -16.8221  -29.1909   24.5791 C   0  0  0  0  0  0  0  0  0  0  0  0
  -17.5327  -28.3451   22.4305 C   0  0  0  0  0  0  0  0  0  0  0  0
  -24.7158  -29.7091   21.7916 C   0  0  0  0  0  0  0  0  0  0  0  0
  -26.7558  -30.1447   22.4871 C   0  0  0  0  0  0  0  0  0  0  0  0
  -24.9701  -31.3413   23.7630 C   0  0  0  0  0  0  0  0  0  0  0  0
  -25.4373  -12.5179   21.2386 C   0  0  0  0  0  0  0  0  0  0  0  0
  -24.0435  -14.7027   23.1895 C   0  0  0  0  0  0  0  0  0  0  0  0
  -23.8139  -17.9537   24.2019 C   0  0  0  0  0  0  0  0  0  0  0  0
  -29.4326  -25.4242   19.9857 C   0  0  0  0  0  0  0  0  0  0  0  0
  -22.0023   -8.7846   21.8049 C   0  0  0  0  0  0  0  0  0  0  0  0
  -27.4518  -13.6488   22.2481 C   0  0  0  0  0  0  0  0  0  0  0  0
  -25.4508  -15.6101   21.3024 C   0  0  0  0  0  0  0  0  0  0  0  0
  -21.9478  -10.2913   21.5657 C   0  0  0  0  0  0  0  0  0  0  0  0
  -29.6686  -28.8150   18.9259 C   0  0  0  0  0  0  0  0  0  0  0  0
  -22.8775  -10.6842   20.4220 C   0  0  0  0  0  0  0  0  0  0  0  0
  -28.4949  -29.4980   19.6318 C   0  0  0  0  0  0  0  0  0  0  0  0
  -29.3149  -27.3974   18.4799 C   0  0  0  0  0  0  0  0  0  0  0  0
  -27.6028  -27.2135   20.2417 C   0  0  0  0  0  0  0  0  0  0  0  0
  -24.3349  -10.3408   20.7529 C   0  0  1  0  0  0  0  0  0  0  0  0
  -25.9534  -13.3822   22.3541 C   0  0  1  0  0  0  0  0  0  0  0  0
  -27.9321  -28.6204   20.7669 C   0  0  2  0  0  0  0  0  0  0  0  0
  -28.7744  -19.1990   22.1975 C   0  0  0  0  0  0  0  0  0  0  0  0
  -28.4085  -21.3141   25.2875 C   0  0  0  0  0  0  0  0  0  0  0  0
  -23.0731  -19.9172   25.5779 C   0  0  0  0  0  0  0  0  0  0  0  0
  -21.6179  -14.6214   21.3402 C   0  0  0  0  0  0  0  0  0  0  0  0
  -20.8307  -16.7519   22.3936 C   0  0  0  0  0  0  0  0  0  0  0  0
  -21.0685  -14.6911   23.7790 C   0  0  0  0  0  0  0  0  0  0  0  0
  -26.0052  -17.5615   26.1521 C   0  0  0  0  0  0  0  0  0  0  0  0
  -27.5437  -21.0860   24.0515 C   0  0  0  0  0  0  0  0  0  0  0  0
  -30.2635  -19.2835   17.6822 C   0  0  0  0  0  0  0  0  0  0  0  0
  -30.1852  -17.8639   18.2215 C   0  0  0  0  0  0  0  0  0  1  0  0
  -29.4745  -20.2616   18.5385 C   0  0  0  0  0  0  0  0  0  0  0  0
  -23.1438  -15.8978   22.9860 C   0  0  1  0  0  0  0  0  0  0  0  0
  -23.7957  -18.5791   25.5850 C   0  0  2  0  0  0  0  0  0  0  0  0
  -21.6909  -15.4890   22.6126 C   0  0  0  0  0  0  0  0  0  0  0  0
  -25.5035  -28.9840   20.9930 N   0  0  0  0  0  0  0  0  0  0  0  0
  -26.7380  -29.2702   21.4406 N   0  0  0  0  0  0  0  0  0  0  0  0
  -25.1584  -14.6119   22.3442 N   0  0  0  0  0  0  0  0  0  0  0  0
  -28.7925  -26.6235   19.6082 N   0  0  0  0  0  0  0  0  0  0  0  0
  -27.9134  -30.5396   23.0586 N   0  0  0  0  0  0  0  0  0  0  0  0
  -23.5889  -31.5441   23.8867 N   0  0  0  0  0  0  0  0  0  0  0  0
  -28.8666  -24.7921   21.0924 N   0  0  0  0  0  0  0  0  0  0  0  0
  -24.8914  -11.3208   21.6609 N   0  0  0  0  0  0  0  0  0  0  0  0
  -23.2458  -16.6973   24.2020 N   0  0  0  0  0  0  0  0  0  0  0  0
  -25.1868  -18.7988   26.0724 N   0  3  0  0  0  0  0  0  0  0  0  0
  -25.7515  -31.9507   24.5322 O   0  0  0  0  0  0  0  0  0  0  0  0
  -25.5265  -12.9088   20.0806 O   0  0  0  0  0  0  0  0  0  0  0  0
  -23.7711  -13.8838   24.0709 O   0  0  0  0  0  0  0  0  0  0  0  0
  -24.2816  -18.5243   23.2189 O   0  0  0  0  0  0  0  0  0  0  0  0
  -30.4274  -25.0039   19.3893 O   0  0  0  0  0  0  0  0  0  0  0  0
  -19.1638  -29.5622   21.1433 O   0  0  0  0  0  0  0  0  0  0  0  0
  -28.8243  -17.4370   18.2659 O   0  0  0  0  0  0  0  0  0  1  0  0
  -29.9911  -20.2693   19.8624 O   0  0  0  0  0  0  0  0  0  0  0  0
  -16.0723  -29.0714   25.6826 F   0  0  0  0  0  0  0  0  0  0  0  0
  -17.4607  -27.4098   21.4735 F   0  0  0  0  0  0  0  0  0  0  0  0
  1  2  1  0  0  0  0
  1  5  2  0  0  0  0
  2  6  2  0  0  0  0
  3  8  2  0  0  0  0
  3 17  1  0  0  0  0
  4  9  1  0  0  0  0
  4 17  2  0  0  0  0
  5 19  1  0  0  0  0
  6 21  1  0  0  0  0
  7 10  2  0  0  0  0
  7 20  1  0  0  0  0
  8 26  1  0  0  0  0
  9 26  2  0  0  0  0
 10 27  1  0  0  0  0
 11 12  2  0  0  0  0
 11 28  1  0  0  0  0
 12 30  1  0  0  0  0
 13 22  1  0  0  0  0
 13 27  2  0  0  0  0
 14 23  1  0  0  0  0
 14 25  2  0  0  0  0
 15 25  1  0  0  0  0
 15 29  2  0  0  0  0
 16 30  2  0  0  0  0
 16 31  1  0  0  0  0
 17 32  1  0  0  0  0
 18 32  1  0  0  0  0
 18 33  2  0  0  0  0
 18 34  1  0  0  0  0
 19 21  2  0  0  0  0
 19 39  1  0  0  0  0
 20 22  2  0  0  0  0
 20 40  1  0  0  0  0
 21 48  1  0  0  0  0
 22 41  1  0  0  0  0
 23 24  2  0  0  0  0
 23 58  1  0  0  0  0
 24 29  1  0  0  0  0
 24 51  1  0  0  0  0
 25 71  1  0  0  0  0
 26 80  1  0  0  0  0
 27 81  1  0  0  0  0
 28 31  2  0  0  0  0
 28 80  1  0  0  0  0
 29 82  1  0  0  0  0
 30 83  1  0  0  0  0
 31 84  1  0  0  0  0
 32 65  2  0  0  0  0
 33 66  1  0  0  0  0
 33 69  1  0  0  0  0
 34 70  1  0  0  0  0
 34 75  2  0  0  0  0
 35 49  1  0  0  0  0
 35 72  1  0  0  0  0
 35 76  2  0  0  0  0
 36 62  1  0  0  0  0
 36 67  1  0  0  0  0
 36 77  2  0  0  0  0
 37 63  1  0  0  0  0
 37 73  1  0  0  0  0
 37 78  2  0  0  0  0
 38 68  1  0  0  0  0
 38 71  1  0  0  0  0
 38 79  2  0  0  0  0
 39 42  1  0  0  0  0
 40 49  1  0  0  0  0
 41 67  1  0  0  0  0
 42 44  1  0  0  0  0
 43 45  1  0  0  0  0
 43 46  1  0  0  0  0
 44 48  1  0  0  0  0
 45 50  1  0  0  0  0
 46 68  1  0  0  0  0
 47 50  1  0  0  0  0
 47 68  1  0  0  0  0
 48 72  1  0  0  0  0
 49 67  1  0  0  0  0
 50 66  1  0  0  0  0
 52 58  1  0  0  0  0
 53 63  1  0  0  0  0
 54 64  1  0  0  0  0
 55 64  1  0  0  0  0
 56 64  1  0  0  0  0
 57 74  1  0  0  0  0
 59 60  1  0  0  0  0
 59 61  1  0  0  0  0
 60 81  1  0  0  0  0
 61 82  1  0  0  0  0
 62 64  1  0  0  0  0
 62 73  1  0  0  0  0
 63 74  1  0  0  0  0
 65 66  1  0  0  0  0
M  CHG  1  74   1
M  ISO  4  38 100  60 101  71 100  81 101
M  END
> <Batch ID>
0137

> <Smiles>
CCc1cc([100NH:0][100C:0](=O)N2CCCC(n3nc(-c4ccc(Oc5ccc(F)cc5F)cc4)c(C(N)=O)c3N)C2)cc(OCC[101CH2:1][101O:1]c2ccc3c(c2)CN(C(=O)C(NC(=O)C(C)NC)C(C)(C)C)C(C(=O)NC2CCCc4ccccc42)C3)c1C

> <Shape>
0.283

> <Color>
0.068

> <Negative vol penalty>
0.000

$$$$

  -OEChem-04052302423D

 85 93  0     1  0  0  0  0  0999 V2000
  -29.1468  -33.1040   25.1893 C   0  0  0  0  0  0  0  0  0  0  0  0
  -28.8413  -31.7609   25.3852 C   0  0  0  0  0  0  0  0  0  0  0  0
  -23.0952   -9.7488   19.9544 C   0  0  0  0  0  0  0  0  0  0  0  0
  -23.7350   -9.9036   22.2790 C   0  0  0  0  0  0  0  0  0  0  0  0
  -28.1903  -33.9640   24.6514 C   0  0  0  0  0  0  0  0  0  0  0  0
  -27.5787  -31.2773   25.0442 C   0  0  0  0  0  0  0  0  0  0  0  0
  -27.7928  -26.8769   22.5472 C   0  0  0  0  0  0  0  0  0  0  0  0
  -22.3573   -8.5986   20.2340 C   0  0  0  0  0  0  0  0  0  0  0  0
  -22.9970   -8.7534   22.5586 C   0  0  0  0  0  0  0  0  0  0  0  0
  -28.0215  -25.7271   23.3018 C   0  0  0  0  0  0  0  0  0  0  0  0
  -23.3678   -5.4105   22.2145 C   0  0  0  0  0  0  0  0  0  0  0  0
  -23.9610   -4.4404   23.0222 C   0  0  0  0  0  0  0  0  0  0  0  0
  -25.6631  -25.2240   23.2388 C   0  0  0  0  0  0  0  0  0  0  0  0
  -31.8325  -16.7788   22.5985 C   0  0  0  0  0  0  0  0  0  0  0  0
  -31.5478  -18.6186   24.1383 C   0  0  0  0  0  0  0  0  0  0  0  0
  -22.1709   -4.6818   24.6267 C   0  0  0  0  0  0  0  0  0  0  0  0
  -23.7841  -10.4012   20.9768 C   0  0  0  0  0  0  0  0  0  0  0  0
  -24.0926  -12.9210   20.7251 C   0  0  0  0  0  0  0  0  0  0  0  0
  -26.9185  -33.4887   24.2947 C   0  0  0  0  0  0  0  0  0  0  0  0
  -26.4939  -27.2152   22.1413 C   0  0  0  0  0  0  0  0  0  0  0  0
  -26.6038  -32.1321   24.5023 C   0  0  0  0  0  0  0  0  0  0  0  0
  -25.4209  -26.3773   22.4769 C   0  0  0  0  0  0  0  0  0  0  0  0
  -29.6229  -17.6455   23.0497 C   0  0  0  0  0  0  0  0  0  0  0  0
  -30.4544  -16.7433   22.3861 C   0  0  0  0  0  0  0  0  0  0  0  0
  -22.3082   -8.1009   21.5361 C   0  0  0  0  0  0  0  0  0  0  0  0
  -26.9562  -24.9020   23.6502 C   0  0  0  0  0  0  0  0  0  0  0  0
  -22.1761   -6.0164   22.6128 C   0  0  0  0  0  0  0  0  0  0  0  0
  -30.1696  -18.5832   23.9258 C   0  0  0  0  0  0  0  0  0  0  0  0
  -23.3625   -4.0760   24.2283 C   0  0  0  0  0  0  0  0  0  0  0  0
  -32.3792  -17.7164   23.4747 C   0  0  0  0  0  0  0  0  0  0  0  0
  -21.5777   -5.6520   23.8189 C   0  0  0  0  0  0  0  0  0  0  0  0
  -24.5470  -11.5891   20.6885 C   0  0  0  0  0  0  0  0  0  0  0  0
  -25.1904  -13.6681   20.3741 C   0  0  0  0  0  0  0  0  0  0  0  0
  -22.7943  -13.4368   21.0476 C   0  0  0  0  0  0  0  0  0  0  0  0
  -24.5426  -29.6660   22.6794 C   0  0  0  0  0  0  0  0  0  0  0  0
  -28.3207  -21.6477   24.4741 C   0  0  0  0  0  0  0  0  0  0  0  0
  -22.6799  -28.1595   20.4923 C   0  0  0  0  0  0  0  0  0  0  0  0
  -21.8274  -25.2502   18.9253 C   0  0  0  0  0  0  0  0  0  0  0  0
  -30.6234  -14.8230   20.7643 C   0  0  0  0  0  0  0  0  0  0  0  0
  -25.9017  -34.4662   23.7606 C   0  0  0  0  0  0  0  0  0  0  0  0
  -26.2676  -28.4448   21.3050 C   0  0  0  0  0  0  0  0  0  0  0  0
  -24.0102  -26.6852   22.0486 C   0  0  0  0  0  0  0  0  0  0  0  0
  -24.7126  -33.7957   23.0773 C   0  0  0  0  0  0  0  0  0  0  0  0
  -29.6707  -12.2549   18.4895 C   0  0  0  0  0  0  0  0  0  0  0  0
  -24.1843  -32.6472   23.9309 C   0  0  0  0  0  0  0  0  0  0  0  0
  -28.2154  -11.9623   18.8618 C   0  0  0  0  0  0  0  0  0  0  0  0
  -30.5186  -12.5703   19.7205 C   0  0  0  0  0  0  0  0  0  0  0  0
  -28.5316  -13.3387   20.9577 C   0  0  0  0  0  0  0  0  0  0  0  0
  -25.2534  -31.5646   24.1219 C   0  0  1  0  0  0  0  0  0  0  0  0
  -24.8356  -28.9652   21.3830 C   0  0  1  0  0  0  0  0  0  0  0  0
  -27.6240  -13.0791   19.7442 C   0  0  2  0  0  0  0  0  0  0  0  0
  -27.7459  -18.2519   21.5019 C   0  0  0  0  0  0  0  0  0  0  0  0
  -20.2434  -24.3263   17.2121 C   0  0  0  0  0  0  0  0  0  0  0  0
  -20.4139  -28.2673   22.5329 C   0  0  0  0  0  0  0  0  0  0  0  0
  -19.2075  -26.5398   21.1806 C   0  0  0  0  0  0  0  0  0  0  0  0
  -19.7246  -28.7661   20.1812 C   0  0  0  0  0  0  0  0  0  0  0  0
  -24.0472  -24.3984   17.1629 C   0  0  0  0  0  0  0  0  0  0  0  0
  -28.1434  -17.6152   22.8290 C   0  0  0  0  0  0  0  0  0  0  0  0
  -28.4418  -23.1382   24.2316 C   0  0  0  0  0  0  0  0  0  1  0  0
  -29.6049  -20.8529   24.3562 C   0  0  0  0  0  0  0  0  0  0  0  0
  -21.5976  -27.1088   20.5522 C   0  0  1  0  0  0  0  0  0  0  0  0
  -21.6222  -24.9190   17.4581 C   0  0  2  0  0  0  0  0  0  0  0  0
  -20.2621  -27.6654   21.1216 C   0  0  0  0  0  0  0  0  0  0  0  0
  -25.8332  -11.4924   20.3415 N   0  0  0  0  0  0  0  0  0  0  0  0
  -26.1963  -12.7731   20.1567 N   0  0  0  0  0  0  0  0  0  0  0  0
  -23.8392  -27.9020   21.2376 N   0  0  0  0  0  0  0  0  0  0  0  0
  -29.8990  -13.6400   20.5057 N   0  0  0  0  0  0  0  0  0  0  0  0
  -25.3837  -14.9967   20.2332 N   0  0  0  0  0  0  0  0  0  0  0  0
  -21.7804  -12.5303   21.3862 N   0  0  0  0  0  0  0  0  0  0  0  0
  -29.9202  -15.7820   21.4925 N   0  0  0  0  0  0  0  0  0  0  0  0
  -25.3640  -30.7481   22.9321 N   0  0  0  0  0  0  0  0  0  0  0  0
  -21.4893  -26.5571   19.2060 N   0  0  0  0  0  0  0  0  0  0  0  0
  -22.6447  -23.9359   17.0010 N   0  3  0  0  0  0  0  0  0  0  0  0
  -22.5364  -14.6641   21.0199 O   0  0  0  0  0  0  0  0  0  0  0  0
  -23.6372  -29.2564   23.3965 O   0  0  0  0  0  0  0  0  0  0  0  0
  -27.2461  -21.1159   24.7490 O   0  0  0  0  0  0  0  0  0  0  0  0
  -22.5061  -29.1682   19.8037 O   0  0  0  0  0  0  0  0  0  0  0  0
  -22.2424  -24.4303   19.7415 O   0  0  0  0  0  0  0  0  0  0  0  0
  -31.7724  -14.9850   20.3456 O   0  0  0  0  0  0  0  0  0  0  0  0
  -21.5880   -6.9788   21.8094 O   0  0  0  0  0  0  0  0  0  0  0  0
  -27.1765  -23.7794   24.3872 O   0  0  0  0  0  0  0  0  0  1  0  0
  -29.3667  -19.4808   24.5889 O   0  0  0  0  0  0  0  0  0  0  0  0
  -23.9315   -3.1432   25.0032 F   0  0  0  0  0  0  0  0  0  0  0  0
  -33.7028  -17.7511   23.6780 F   0  0  0  0  0  0  0  0  0  0  0  0
  -20.4323   -6.2296   24.2064 F   0  0  0  0  0  0  0  0  0  0  0  0
  1  2  1  0  0  0  0
  1  5  2  0  0  0  0
  2  6  2  0  0  0  0
  3  8  2  0  0  0  0
  3 17  1  0  0  0  0
  4  9  1  0  0  0  0
  4 17  2  0  0  0  0
  5 19  1  0  0  0  0
  6 21  1  0  0  0  0
  7 10  2  0  0  0  0
  7 20  1  0  0  0  0
  8 25  1  0  0  0  0
  9 25  2  0  0  0  0
 10 26  1  0  0  0  0
 11 12  2  0  0  0  0
 11 27  1  0  0  0  0
 12 29  1  0  0  0  0
 13 22  1  0  0  0  0
 13 26  2  0  0  0  0
 14 24  2  0  0  0  0
 14 30  1  0  0  0  0
 15 28  1  0  0  0  0
 15 30  2  0  0  0  0
 16 29  2  0  0  0  0
 16 31  1  0  0  0  0
 17 32  1  0  0  0  0
 18 32  1  0  0  0  0
 18 33  2  0  0  0  0
 18 34  1  0  0  0  0
 19 21  2  0  0  0  0
 19 40  1  0  0  0  0
 20 22  2  0  0  0  0
 20 41  1  0  0  0  0
 21 49  1  0  0  0  0
 22 42  1  0  0  0  0
 23 24  1  0  0  0  0
 23 28  2  0  0  0  0
 23 58  1  0  0  0  0
 24 70  1  0  0  0  0
 25 80  1  0  0  0  0
 26 81  1  0  0  0  0
 27 31  2  0  0  0  0
 27 80  1  0  0  0  0
 28 82  1  0  0  0  0
 29 83  1  0  0  0  0
 30 84  1  0  0  0  0
 31 85  1  0  0  0  0
 32 64  2  0  0  0  0
 33 65  1  0  0  0  0
 33 68  1  0  0  0  0
 34 69  1  0  0  0  0
 34 74  2  0  0  0  0
 35 50  1  0  0  0  0
 35 71  1  0  0  0  0
 35 75  2  0  0  0  0
 36 59  1  0  0  0  0
 36 60  1  0  0  0  0
 36 76  2  0  0  0  0
 37 61  1  0  0  0  0
 37 66  1  0  0  0  0
 37 77  2  0  0  0  0
 38 62  1  0  0  0  0
 38 72  1  0  0  0  0
 38 78  2  0  0  0  0
 39 67  1  0  0  0  0
 39 70  1  0  0  0  0
 39 79  2  0  0  0  0
 40 43  1  0  0  0  0
 41 50  1  0  0  0  0
 42 66  1  0  0  0  0
 43 45  1  0  0  0  0
 44 46  1  0  0  0  0
 44 47  1  0  0  0  0
 45 49  1  0  0  0  0
 46 51  1  0  0  0  0
 47 67  1  0  0  0  0
 48 51  1  0  0  0  0
 48 67  1  0  0  0  0
 49 71  1  0  0  0  0
 50 66  1  0  0  0  0
 51 65  1  0  0  0  0
 52 58  1  0  0  0  0
 53 62  1  0  0  0  0
 54 63  1  0  0  0  0
 55 63  1  0  0  0  0
 56 63  1  0  0  0  0
 57 73  1  0  0  0  0
 59 81  1  0  0  0  0
 60 82  1  0  0  0  0
 61 63  1  0  0  0  0
 61 72  1  0  0  0  0
 62 73  1  0  0  0  0
 64 65  1  0  0  0  0
M  CHG  1  73   1
M  ISO  4  39 100  59 101  70 100  81 101
M  END
> <Batch ID>
0137

> <Smiles>
CCc1c([100NH:0][100C:0](=O)N2CCCC(n3nc(-c4ccc(Oc5ccc(F)cc5F)cc4)c(C(N)=O)c3N)C2)cc(F)cc1OCC(=O)[101CH2:1][101O:1]c1ccc2c(c1)CN(C(=O)C(NC(=O)C(C)NC)C(C)(C)C)C(C(=O)NC1CCCc3ccccc31)C2

> <Shape>
0.303

> <Color>
0.209

> <Negative vol penalty>
0.000

$$$$

  -OEChem-04052302423D

 86 94  0     1  0  0  0  0  0999 V2000
  -29.9835  -26.1863   25.1306 C   0  0  0  0  0  0  0  0  0  0  0  0
  -30.6563  -25.0496   24.6940 C   0  0  0  0  0  0  0  0  0  0  0  0
  -23.0778   -9.8094   20.0058 C   0  0  0  0  0  0  0  0  0  0  0  0
  -23.7796   -9.9576   22.3129 C   0  0  0  0  0  0  0  0  0  0  0  0
  -28.9204  -26.6949   24.3856 C   0  0  0  0  0  0  0  0  0  0  0  0
  -30.2657  -24.4202   23.5126 C   0  0  0  0  0  0  0  0  0  0  0  0
  -34.2035  -23.1633   20.5872 C   0  0  0  0  0  0  0  0  0  0  0  0
  -22.3510   -8.6561   20.3010 C   0  0  0  0  0  0  0  0  0  0  0  0
  -23.0527   -8.8042   22.6081 C   0  0  0  0  0  0  0  0  0  0  0  0
  -34.9257  -22.0259   20.9458 C   0  0  0  0  0  0  0  0  0  0  0  0
  -23.4235   -5.4637   22.2415 C   0  0  0  0  0  0  0  0  0  0  0  0
  -24.0411   -4.4924   23.0293 C   0  0  0  0  0  0  0  0  0  0  0  0
  -33.7472  -20.7557   19.2674 C   0  0  0  0  0  0  0  0  0  0  0  0
  -31.6145  -18.6850   23.9976 C   0  0  0  0  0  0  0  0  0  0  0  0
  -31.8633  -16.8553   22.4396 C   0  0  0  0  0  0  0  0  0  0  0  0
  -22.2943   -4.7226   24.6824 C   0  0  0  0  0  0  0  0  0  0  0  0
  -23.7922  -10.4602   21.0118 C   0  0  0  0  0  0  0  0  0  0  0  0
  -24.0866  -12.9817   20.7612 C   0  0  0  0  0  0  0  0  0  0  0  0
  -28.5227  -26.0771   23.1895 C   0  0  0  0  0  0  0  0  0  0  0  0
  -33.2384  -23.1027   19.5716 C   0  0  0  0  0  0  0  0  0  0  0  0
  -29.1954  -24.9203   22.7516 C   0  0  0  0  0  0  0  0  0  0  0  0
  -33.0160  -21.8944   18.8960 C   0  0  0  0  0  0  0  0  0  0  0  0
  -30.2313  -18.6462   23.8223 C   0  0  0  0  0  0  0  0  0  0  0  0
  -29.6640  -17.7120   22.9556 C   0  0  0  0  0  0  0  0  0  0  0  0
  -30.4800  -16.8165   22.2643 C   0  0  0  0  0  0  0  0  0  0  0  0
  -22.3384   -8.1535   21.6021 C   0  0  0  0  0  0  0  0  0  0  0  0
  -34.6956  -20.8212   20.2878 C   0  0  0  0  0  0  0  0  0  0  0  0
  -22.2414   -6.0646   22.6741 C   0  0  0  0  0  0  0  0  0  0  0  0
  -32.4306  -17.7895   23.3062 C   0  0  0  0  0  0  0  0  0  0  0  0
  -23.4765   -4.1218   24.2497 C   0  0  0  0  0  0  0  0  0  0  0  0
  -21.6768   -5.6940   23.8946 C   0  0  0  0  0  0  0  0  0  0  0  0
  -24.5436  -11.6513   20.7074 C   0  0  0  0  0  0  0  0  0  0  0  0
  -25.1724  -13.7333   20.3836 C   0  0  0  0  0  0  0  0  0  0  0  0
  -22.7960  -13.4925   21.1206 C   0  0  0  0  0  0  0  0  0  0  0  0
  -30.0986  -23.5772   19.4299 C   0  0  0  0  0  0  0  0  0  0  0  0
  -30.5751  -23.1784   16.2462 C   0  0  0  0  0  0  0  0  0  0  0  0
  -32.5019  -21.8831   13.7449 C   0  0  0  0  0  0  0  0  0  0  0  0
  -30.6106  -14.9027   20.6313 C   0  0  0  0  0  0  0  0  0  0  0  0
  -27.3375  -26.6360   22.4428 C   0  0  0  0  0  0  0  0  0  0  0  0
  -32.4868  -24.3448   19.1784 C   0  0  0  0  0  0  0  0  0  0  0  0
  -32.0053  -21.7814   17.7850 C   0  0  0  0  0  0  0  0  0  0  0  0
  -27.2269  -26.1279   21.0076 C   0  0  0  0  0  0  0  0  0  0  0  0
  -29.6042  -12.3402   18.3734 C   0  0  0  0  0  0  0  0  0  0  0  0
  -27.4224  -24.6159   20.9601 C   0  0  0  0  0  0  0  0  0  0  0  0
  -28.1603  -12.0420   18.7838 C   0  0  0  0  0  0  0  0  0  0  0  0
  -30.4841  -12.6536   19.5822 C   0  0  0  0  0  0  0  0  0  0  0  0
  -28.5291  -13.4116   20.8755 C   0  0  0  0  0  0  0  0  0  0  0  0
  -28.8172  -24.2239   21.4624 C   0  0  1  0  0  0  0  0  0  0  0  0
  -31.1638  -24.0467   18.4798 C   0  0  1  0  0  0  0  0  0  0  0  0
  -27.5898  -13.1538   19.6860 C   0  0  2  0  0  0  0  0  0  0  0  0
  -28.1791  -17.6731   22.7729 C   0  0  0  0  0  0  0  0  0  0  0  0
  -28.8970  -20.7652   23.6961 C   0  0  0  0  0  0  0  0  0  0  0  0
  -38.3683  -17.9224   21.5922 C   0  0  0  0  0  0  0  0  0  0  0  0
  -32.6155  -21.6883   11.2456 C   0  0  0  0  0  0  0  0  0  0  0  0
  -28.4057  -21.0340   16.3171 C   0  0  0  0  0  0  0  0  0  0  0  0
  -29.2166  -20.2386   14.0860 C   0  0  0  0  0  0  0  0  0  0  0  0
  -28.3098  -22.5496   14.3302 C   0  0  0  0  0  0  0  0  0  0  0  0
  -35.0740  -23.3427   13.6321 C   0  0  0  0  0  0  0  0  0  0  0  0
  -29.3803  -19.6159   24.5752 C   0  0  0  0  0  0  0  0  0  0  0  0
  -36.9597  -17.3462   21.5658 C   0  0  0  0  0  0  0  0  0  0  0  0
  -35.8271  -19.6109   21.9940 C   0  0  0  0  0  0  0  0  0  1  0  0
  -34.5874  -17.4285   22.3716 C   0  0  0  0  0  0  0  0  0  0  0  0
  -30.5764  -21.9982   15.3050 C   0  0  1  0  0  0  0  0  0  0  0  0
  -33.0350  -22.4973   12.4631 C   0  0  2  0  0  0  0  0  0  0  0  0
  -35.9504  -18.1385   22.4201 C   0  0  1  0  0  0  0  0  0  0  0  0
  -29.1449  -21.4564   15.0318 C   0  0  0  0  0  0  0  0  0  0  0  0
  -25.8202  -11.5597   20.3255 N   0  0  0  0  0  0  0  0  0  0  0  0
  -26.1746  -12.8420   20.1358 N   0  0  0  0  0  0  0  0  0  0  0  0
  -31.2913  -23.0222   17.4414 N   0  0  0  0  0  0  0  0  0  0  0  0
  -29.8829  -13.7186   20.3879 N   0  0  0  0  0  0  0  0  0  0  0  0
  -25.3580  -15.0630   20.2424 N   0  0  0  0  0  0  0  0  0  0  0  0
  -21.7942  -12.5818   21.4831 N   0  0  0  0  0  0  0  0  0  0  0  0
  -29.9247  -15.8570   21.3819 N   0  0  0  0  0  0  0  0  0  0  0  0
  -29.8112  -24.4745   20.4408 N   0  0  0  0  0  0  0  0  0  0  0  0
  -31.2899  -22.4311   14.1084 N   0  0  0  0  0  0  0  0  0  0  0  0
  -34.5236  -22.5572   12.4975 N   0  3  0  0  0  0  0  0  0  0  0  0
  -22.5340  -14.7191   21.1045 O   0  0  0  0  0  0  0  0  0  0  0  0
  -29.5751  -22.4827   19.2578 O   0  0  0  0  0  0  0  0  0  0  0  0
  -29.9671  -24.2039   15.9293 O   0  0  0  0  0  0  0  0  0  0  0  0
  -33.0990  -21.0024   14.3601 O   0  0  0  0  0  0  0  0  0  0  0  0
  -31.7475  -15.0696   20.1823 O   0  0  0  0  0  0  0  0  0  0  0  0
  -21.6291   -7.0282   21.8905 O   0  0  0  0  0  0  0  0  0  0  0  0
  -35.3987  -19.7094   20.6363 O   0  0  0  0  0  0  0  0  0  1  0  0
  -33.7896  -17.8289   23.4781 O   0  0  0  0  0  0  0  0  0  0  0  0
  -24.0688   -3.1878   25.0055 F   0  0  0  0  0  0  0  0  0  0  0  0
  -20.5406   -6.2669   24.3150 F   0  0  0  0  0  0  0  0  0  0  0  0
  1  2  1  0  0  0  0
  1  5  2  0  0  0  0
  2  6  2  0  0  0  0
  3  8  2  0  0  0  0
  3 17  1  0  0  0  0
  4  9  1  0  0  0  0
  4 17  2  0  0  0  0
  5 19  1  0  0  0  0
  6 21  1  0  0  0  0
  7 10  2  0  0  0  0
  7 20  1  0  0  0  0
  8 26  1  0  0  0  0
  9 26  2  0  0  0  0
 10 27  1  0  0  0  0
 11 12  2  0  0  0  0
 11 28  1  0  0  0  0
 12 30  1  0  0  0  0
 13 22  1  0  0  0  0
 13 27  2  0  0  0  0
 14 23  1  0  0  0  0
 14 29  2  0  0  0  0
 15 25  2  0  0  0  0
 15 29  1  0  0  0  0
 16 30  2  0  0  0  0
 16 31  1  0  0  0  0
 17 32  1  0  0  0  0
 18 32  1  0  0  0  0
 18 33  2  0  0  0  0
 18 34  1  0  0  0  0
 19 21  2  0  0  0  0
 19 39  1  0  0  0  0
 20 22  2  0  0  0  0
 20 40  1  0  0  0  0
 21 48  1  0  0  0  0
 22 41  1  0  0  0  0
 23 24  2  0  0  0  0
 23 59  1  0  0  0  0
 24 25  1  0  0  0  0
 24 51  1  0  0  0  0
 25 73  1  0  0  0  0
 26 82  1  0  0  0  0
 27 83  1  0  0  0  0
 28 31  2  0  0  0  0
 28 82  1  0  0  0  0
 29 84  1  0  0  0  0
 30 85  1  0  0  0  0
 31 86  1  0  0  0  0
 32 67  2  0  0  0  0
 33 68  1  0  0  0  0
 33 71  1  0  0  0  0
 34 72  1  0  0  0  0
 34 77  2  0  0  0  0
 35 49  1  0  0  0  0
 35 74  1  0  0  0  0
 35 78  2  0  0  0  0
 36 63  1  0  0  0  0
 36 69  1  0  0  0  0
 36 79  2  0  0  0  0
 37 64  1  0  0  0  0
 37 75  1  0  0  0  0
 37 80  2  0  0  0  0
 38 70  1  0  0  0  0
 38 73  1  0  0  0  0
 38 81  2  0  0  0  0
 39 42  1  0  0  0  0
 40 49  1  0  0  0  0
 41 69  1  0  0  0  0
 42 44  1  0  0  0  0
 43 45  1  0  0  0  0
 43 46  1  0  0  0  0
 44 48  1  0  0  0  0
 45 50  1  0  0  0  0
 46 70  1  0  0  0  0
 47 50  1  0  0  0  0
 47 70  1  0  0  0  0
 48 74  1  0  0  0  0
 49 69  1  0  0  0  0
 50 68  1  0  0  0  0
 52 59  1  0  0  0  0
 53 60  1  0  0  0  0
 54 64  1  0  0  0  0
 55 66  1  0  0  0  0
 56 66  1  0  0  0  0
 57 66  1  0  0  0  0
 58 76  1  0  0  0  0
 60 65  1  0  0  0  0
 61 65  1  0  0  0  0
 61 83  1  0  0  0  0
 62 65  1  0  0  0  0
 62 84  1  0  0  0  0
 63 66  1  0  0  0  0
 63 75  1  0  0  0  0
 64 76  1  0  0  0  0
 67 68  1  0  0  0  0
M  CHG  1  76   1
M  ISO  4  38 100  61 101  73 100  83 101
M  END
> <Batch ID>
0137

> <Smiles>
CCc1cc(OCC(CC)[101CH2:1][101O:1]c2ccc3c(c2)CN(C(=O)C(NC(=O)C(C)NC)C(C)(C)C)C(C(=O)NC2CCCc4ccccc42)C3)cc([100NH:0][100C:0](=O)N2CCCC(n3nc(-c4ccc(Oc5ccc(F)cc5F)cc4)c(C(N)=O)c3N)C2)c1C

> <Shape>
0.215

> <Color>
0.200

> <Negative vol penalty>
0.000

$$$$

  -OEChem-04052302423D

 86 94  0     1  0  0  0  0  0999 V2000
  -17.5054  -24.7971   20.8139 C   0  0  0  0  0  0  0  0  0  0  0  0
  -18.7867  -24.8156   20.2722 C   0  0  0  0  0  0  0  0  0  0  0  0
  -24.4624  -14.2632   20.4517 C   0  0  0  0  0  0  0  0  0  0  0  0
  -26.7425  -14.0127   21.2102 C   0  0  0  0  0  0  0  0  0  0  0  0
  -17.1730  -25.6747   21.8450 C   0  0  0  0  0  0  0  0  0  0  0  0
  -19.7360  -25.7125   20.7607 C   0  0  0  0  0  0  0  0  0  0  0  0
  -25.7636  -24.7672   21.2906 C   0  0  0  0  0  0  0  0  0  0  0  0
  -31.9353  -24.4927   23.1203 C   0  0  0  0  0  0  0  0  0  0  0  0
  -31.0085  -23.7274   23.8280 C   0  0  0  0  0  0  0  0  0  0  0  0
  -24.3750  -12.8845   20.2590 C   0  0  0  0  0  0  0  0  0  0  0  0
  -26.6551  -12.6340   21.0176 C   0  0  0  0  0  0  0  0  0  0  0  0
  -26.8440  -25.1292   20.4872 C   0  0  0  0  0  0  0  0  0  0  0  0
  -23.4332   -9.3908   19.9097 C   0  0  0  0  0  0  0  0  0  0  0  0
  -22.2843   -8.7439   20.3648 C   0  0  0  0  0  0  0  0  0  0  0  0
  -27.2115  -27.0729   21.8678 C   0  0  0  0  0  0  0  0  0  0  0  0
  -30.9380  -23.7765   21.0395 C   0  0  0  0  0  0  0  0  0  0  0  0
  -22.7617   -9.4797   22.6160 C   0  0  0  0  0  0  0  0  0  0  0  0
  -25.6461  -14.8274   20.9273 C   0  0  0  0  0  0  0  0  0  0  0  0
  -25.4264  -16.9680   22.2972 C   0  0  0  0  0  0  0  0  0  0  0  0
  -18.1217  -26.5762   22.3530 C   0  0  0  0  0  0  0  0  0  0  0  0
  -25.3917  -25.5625   22.3840 C   0  0  0  0  0  0  0  0  0  0  0  0
  -19.4157  -26.6039   21.7988 C   0  0  0  0  0  0  0  0  0  0  0  0
  -26.1276  -26.7175   22.6850 C   0  0  0  0  0  0  0  0  0  0  0  0
  -31.9001  -24.5173   21.7260 C   0  0  0  0  0  0  0  0  0  0  0  0
  -30.0464  -22.9866   23.1415 C   0  0  0  0  0  0  0  0  0  0  0  0
  -30.0112  -23.0111   21.7472 C   0  0  0  0  0  0  0  0  0  0  0  0
  -25.4713  -12.0699   20.5419 C   0  0  0  0  0  0  0  0  0  0  0  0
  -27.5664  -26.2837   20.7740 C   0  0  0  0  0  0  0  0  0  0  0  0
  -24.2465  -10.0821   20.8077 C   0  0  0  0  0  0  0  0  0  0  0  0
  -21.9485   -8.7884   21.7179 C   0  0  0  0  0  0  0  0  0  0  0  0
  -23.9107  -10.1266   22.1609 C   0  0  0  0  0  0  0  0  0  0  0  0
  -25.7372  -16.2515   21.1260 C   0  0  0  0  0  0  0  0  0  0  0  0
  -25.6786  -18.2791   21.9748 C   0  0  0  0  0  0  0  0  0  0  0  0
  -24.9523  -16.4911   23.5635 C   0  0  0  0  0  0  0  0  0  0  0  0
  -22.7892  -27.2042   23.1814 C   0  0  0  0  0  0  0  0  0  0  0  0
  -24.3940  -27.6439   25.9659 C   0  0  0  0  0  0  0  0  0  0  0  0
  -27.3898  -27.7574   27.5965 C   0  0  0  0  0  0  0  0  0  0  0  0
  -28.8833  -22.1933   19.6483 C   0  0  0  0  0  0  0  0  0  0  0  0
  -17.7019  -27.5381   23.4361 C   0  0  0  0  0  0  0  0  0  0  0  0
  -24.2403  -25.1440   23.2567 C   0  0  0  0  0  0  0  0  0  0  0  0
  -25.7816  -27.5947   23.8594 C   0  0  0  0  0  0  0  0  0  0  0  0
  -18.8766  -28.2001   24.1517 C   0  0  0  0  0  0  0  0  0  0  0  0
  -26.6442  -20.4443   17.5025 C   0  0  0  0  0  0  0  0  0  0  0  0
  -19.9024  -28.7032   23.1411 C   0  0  0  0  0  0  0  0  0  0  0  0
  -26.1830  -19.2565   18.3503 C   0  0  0  0  0  0  0  0  0  0  0  0
  -28.1125  -20.7835   17.7527 C   0  0  0  0  0  0  0  0  0  0  0  0
  -28.0097  -19.8012   20.0096 C   0  0  0  0  0  0  0  0  0  0  0  0
  -20.4805  -27.5452   22.3187 C   0  0  1  0  0  0  0  0  0  0  0  0
  -23.6316  -26.3033   24.0395 C   0  0  1  0  0  0  0  0  0  0  0  0
  -26.5196  -19.4631   19.8401 C   0  0  2  0  0  0  0  0  0  0  0  0
  -29.0668  -22.1751   23.9256 C   0  0  0  0  0  0  0  0  0  0  0  0
  -28.3850  -28.1769   29.8617 C   0  0  0  0  0  0  0  0  0  0  0  0
  -33.6762  -27.6765   20.4763 C   0  0  0  0  0  0  0  0  0  0  0  0
  -23.9509  -30.6409   25.6029 C   0  0  0  0  0  0  0  0  0  0  0  0
  -25.7306  -31.0411   27.3177 C   0  0  0  0  0  0  0  0  0  0  0  0
  -23.6490  -29.8179   27.9451 C   0  0  0  0  0  0  0  0  0  0  0  0
  -29.9989  -28.2009   17.9464 C   0  0  0  0  0  0  0  0  0  0  0  0
  -31.2157  -29.3998   19.7601 C   0  0  0  0  0  0  0  0  0  0  0  0
  -28.5416  -25.0341   27.7230 C   0  0  0  0  0  0  0  0  0  0  0  0
  -32.9042  -25.3467   20.9604 C   0  0  0  0  0  0  0  0  0  0  0  0
  -31.5009  -26.8719   19.4511 C   0  0  0  0  0  0  0  0  0  0  0  0
  -29.3166  -27.8350   20.3427 C   0  0  0  0  0  0  0  0  0  1  0  0
  -25.3682  -28.6725   26.4875 C   0  0  1  0  0  0  0  0  0  0  0  0
  -27.8527  -27.1278   28.8980 C   0  0  2  0  0  0  0  0  0  0  0  0
  -32.4362  -26.7956   20.6864 C   0  0  2  0  0  0  0  0  0  0  0  0
  -24.6802  -30.0278   26.8149 C   0  0  0  0  0  0  0  0  0  0  0  0
  -30.5165  -28.0785   19.3976 C   0  0  0  0  0  0  0  0  0  0  0  0
  -26.1547  -17.0419   20.1335 N   0  0  0  0  0  0  0  0  0  0  0  0
  -26.1080  -18.2687   20.6803 N   0  0  0  0  0  0  0  0  0  0  0  0
  -24.6436  -27.1466   24.6790 N   0  0  0  0  0  0  0  0  0  0  0  0
  -28.3558  -20.9695   19.1848 N   0  0  0  0  0  0  0  0  0  0  0  0
  -25.5727  -19.4284   22.6751 N   0  0  0  0  0  0  0  0  0  0  0  0
  -24.7467  -15.1141   23.7244 N   0  0  0  0  0  0  0  0  0  0  0  0
  -29.0412  -22.2660   21.0320 N   0  0  0  0  0  0  0  0  0  0  0  0
  -21.4653  -26.8188   23.0913 N   0  0  0  0  0  0  0  0  0  0  0  0
  -26.0438  -28.0554   27.6238 N   0  0  0  0  0  0  0  0  0  0  0  0
  -28.9348  -26.1366   28.6378 N   0  3  0  0  0  0  0  0  0  0  0  0
  -24.7022  -17.2649   24.5186 O   0  0  0  0  0  0  0  0  0  0  0  0
  -23.3021  -28.1778   22.6422 O   0  0  0  0  0  0  0  0  0  0  0  0
  -23.4504  -27.2894   26.6771 O   0  0  0  0  0  0  0  0  0  0  0  0
  -28.1473  -27.9675   26.6518 O   0  0  0  0  0  0  0  0  0  0  0  0
  -29.1479  -23.1194   18.8774 O   0  0  0  0  0  0  0  0  0  0  0  0
  -25.3863  -10.7245   20.3542 O   0  0  0  0  0  0  0  0  0  0  0  0
  -28.6210  -26.6397   19.9911 O   0  0  0  0  0  0  0  0  0  1  0  0
  -20.8444   -8.1684   22.1545 F   0  0  0  0  0  0  0  0  0  0  0  0
  -24.6874  -10.7902   23.0282 F   0  0  0  0  0  0  0  0  0  0  0  0
  1  2  1  0  0  0  0
  1  5  2  0  0  0  0
  2  6  2  0  0  0  0
  3 10  2  0  0  0  0
  3 18  1  0  0  0  0
  4 11  1  0  0  0  0
  4 18  2  0  0  0  0
  5 20  1  0  0  0  0
  6 22  1  0  0  0  0
  7 12  2  0  0  0  0
  7 21  1  0  0  0  0
  8  9  2  0  0  0  0
  8 24  1  0  0  0  0
  9 25  1  0  0  0  0
 10 27  1  0  0  0  0
 11 27  2  0  0  0  0
 12 28  1  0  0  0  0
 13 14  2  0  0  0  0
 13 29  1  0  0  0  0
 14 30  1  0  0  0  0
 15 23  1  0  0  0  0
 15 28  2  0  0  0  0
 16 24  2  0  0  0  0
 16 26  1  0  0  0  0
 17 30  2  0  0  0  0
 17 31  1  0  0  0  0
 18 32  1  0  0  0  0
 19 32  1  0  0  0  0
 19 33  2  0  0  0  0
 19 34  1  0  0  0  0
 20 22  2  0  0  0  0
 20 39  1  0  0  0  0
 21 23  2  0  0  0  0
 21 40  1  0  0  0  0
 22 48  1  0  0  0  0
 23 41  1  0  0  0  0
 24 60  1  0  0  0  0
 25 26  2  0  0  0  0
 25 51  1  0  0  0  0
 26 74  1  0  0  0  0
 27 83  1  0  0  0  0
 28 84  1  0  0  0  0
 29 31  2  0  0  0  0
 29 83  1  0  0  0  0
 30 85  1  0  0  0  0
 31 86  1  0  0  0  0
 32 68  2  0  0  0  0
 33 69  1  0  0  0  0
 33 72  1  0  0  0  0
 34 73  1  0  0  0  0
 34 78  2  0  0  0  0
 35 49  1  0  0  0  0
 35 75  1  0  0  0  0
 35 79  2  0  0  0  0
 36 63  1  0  0  0  0
 36 70  1  0  0  0  0
 36 80  2  0  0  0  0
 37 64  1  0  0  0  0
 37 76  1  0  0  0  0
 37 81  2  0  0  0  0
 38 71  1  0  0  0  0
 38 74  1  0  0  0  0
 38 82  2  0  0  0  0
 39 42  1  0  0  0  0
 40 49  1  0  0  0  0
 41 70  1  0  0  0  0
 42 44  1  0  0  0  0
 43 45  1  0  0  0  0
 43 46  1  0  0  0  0
 44 48  1  0  0  0  0
 45 50  1  0  0  0  0
 46 71  1  0  0  0  0
 47 50  1  0  0  0  0
 47 71  1  0  0  0  0
 48 75  1  0  0  0  0
 49 70  1  0  0  0  0
 50 69  1  0  0  0  0
 52 64  1  0  0  0  0
 53 65  1  0  0  0  0
 54 66  1  0  0  0  0
 55 66  1  0  0  0  0
 56 66  1  0  0  0  0
 57 67  1  0  0  0  0
 58 67  1  0  0  0  0
 59 77  1  0  0  0  0
 60 65  1  0  0  0  0
 61 65  1  0  0  0  0
 61 67  1  0  0  0  0
 62 67  1  0  0  0  0
 62 84  1  0  0  0  0
 63 66  1  0  0  0  0
 63 76  1  0  0  0  0
 64 77  1  0  0  0  0
 68 69  1  0  0  0  0
M  CHG  1  77   1
M  ISO  4  38 100  62 101  74 100  84 101
M  END
> <Batch ID>
0137

> <Smiles>
CNC(C)C(=O)NC(C(=O)N1Cc2cc([101O:1][101CH2:1]C(C)(C)CC(C)Cc3ccc(C)c([100NH:0][100C:0](=O)N4CCCC(n5nc(-c6ccc(Oc7ccc(F)cc7F)cc6)c(C(N)=O)c5N)C4)c3)ccc2CC1C(=O)NC1CCCc2ccccc21)C(C)(C)C

> <Shape>
0.209

> <Color>
0.094

> <Negative vol penalty>
0.000

$$$$

  -OEChem-04052302423D

 87 95  0     1  0  0  0  0  0999 V2000
  -20.5968   -6.7401   23.8837 C   0  0  0  0  0  0  0  0  0  0  0  0
  -21.3657   -6.8323   22.7280 C   0  0  0  0  0  0  0  0  0  0  0  0
  -27.1512  -22.8007   18.6608 C   0  0  0  0  0  0  0  0  0  0  0  0
  -23.1753  -30.9051   21.4187 C   0  0  0  0  0  0  0  0  0  0  0  0
  -22.9890  -28.7564   22.5075 C   0  0  0  0  0  0  0  0  0  0  0  0
  -27.7158  -23.9621   19.1879 C   0  0  0  0  0  0  0  0  0  0  0  0
  -19.8679   -7.8438   24.3246 C   0  0  0  0  0  0  0  0  0  0  0  0
  -21.4052   -8.0281   22.0117 C   0  0  0  0  0  0  0  0  0  0  0  0
  -27.6365  -11.4501   20.8488 C   0  0  0  0  0  0  0  0  0  0  0  0
  -27.5840  -21.5511   19.1047 C   0  0  0  0  0  0  0  0  0  0  0  0
  -21.8040  -30.8948   21.1636 C   0  0  0  0  0  0  0  0  0  0  0  0
  -21.6177  -28.7461   22.2525 C   0  0  0  0  0  0  0  0  0  0  0  0
  -28.8124  -12.0545   20.4038 C   0  0  0  0  0  0  0  0  0  0  0  0
  -18.8329  -30.1489   23.5555 C   0  0  0  0  0  0  0  0  0  0  0  0
  -17.9848  -29.7673   24.5950 C   0  0  0  0  0  0  0  0  0  0  0  0
  -27.5231  -13.7903   19.3209 C   0  0  0  0  0  0  0  0  0  0  0  0
  -17.1587  -27.9384   23.2497 C   0  0  0  0  0  0  0  0  0  0  0  0
  -23.7678  -29.8358   22.0906 C   0  0  0  0  0  0  0  0  0  0  0  0
  -28.7133  -23.8740   20.1589 C   0  0  0  0  0  0  0  0  0  0  0  0
  -25.8344  -30.3646   23.4896 C   0  0  0  0  0  0  0  0  0  0  0  0
  -19.9061   -9.0567   23.6187 C   0  0  0  0  0  0  0  0  0  0  0  0
  -26.3985  -12.0227   20.5441 C   0  0  0  0  0  0  0  0  0  0  0  0
  -20.6750   -9.1487   22.4428 C   0  0  0  0  0  0  0  0  0  0  0  0
  -26.3423  -13.1962   19.7744 C   0  0  0  0  0  0  0  0  0  0  0  0
  -28.5815  -21.4631   20.0757 C   0  0  0  0  0  0  0  0  0  0  0  0
  -29.1462  -22.6245   20.6029 C   0  0  0  0  0  0  0  0  0  0  0  0
  -21.0252  -29.8153   21.5806 C   0  0  0  0  0  0  0  0  0  0  0  0
  -28.7558  -13.2216   19.6416 C   0  0  0  0  0  0  0  0  0  0  0  0
  -18.8439  -29.4253   22.3630 C   0  0  0  0  0  0  0  0  0  0  0  0
  -17.1477  -28.6621   24.4422 C   0  0  0  0  0  0  0  0  0  0  0  0
  -18.0068  -28.3201   22.2101 C   0  0  0  0  0  0  0  0  0  0  0  0
  -25.1844  -29.8456   22.3538 C   0  0  0  0  0  0  0  0  0  0  0  0
  -27.1680  -30.1310   23.2586 C   0  0  0  0  0  0  0  0  0  0  0  0
  -29.2834  -25.1046   20.6917 C   0  0  0  0  0  0  0  0  0  0  0  0
  -25.2821  -31.0008   24.6497 C   0  0  0  0  0  0  0  0  0  0  0  0
  -29.9677  -26.0793   19.8115 C   0  0  0  0  0  0  0  0  0  0  0  0
  -22.6662  -11.8409   20.8807 C   0  0  0  0  0  0  0  0  0  0  0  0
  -30.4364  -18.0602   20.0593 C   0  0  0  0  0  0  0  0  0  0  0  0
  -23.4448  -14.7933   21.1765 C   0  0  0  0  0  0  0  0  0  0  0  0
  -24.7541  -17.8669   21.8661 C   0  0  0  0  0  0  0  0  0  0  0  0
  -19.0639  -10.2082   24.1080 C   0  0  0  0  0  0  0  0  0  0  0  0
  -25.1039  -11.3723   20.9503 C   0  0  0  0  0  0  0  0  0  0  0  0
  -24.9870  -13.7576   19.4417 C   0  0  0  0  0  0  0  0  0  0  0  0
  -19.4560  -11.5517   23.4985 C   0  0  0  0  0  0  0  0  0  0  0  0
  -30.3377  -29.6446   19.7196 C   0  0  0  0  0  0  0  0  0  0  0  0
  -19.6370  -11.4209   21.9895 C   0  0  0  0  0  0  0  0  0  0  0  0
  -29.0961  -30.1476   20.4552 C   0  0  0  0  0  0  0  0  0  0  0  0
  -30.0409  -28.3767   18.9254 C   0  0  0  0  0  0  0  0  0  0  0  0
  -28.2128  -27.7718   20.4877 C   0  0  0  0  0  0  0  0  0  0  0  0
  -20.7630  -10.4361   21.6523 C   0  0  1  0  0  0  0  0  0  0  0  0
  -24.0003  -12.3883   21.2953 C   0  0  1  0  0  0  0  0  0  0  0  0
  -28.4804  -29.0358   21.3233 C   0  0  2  0  0  0  0  0  0  0  0  0
  -29.6505  -22.1895   23.0201 C   0  0  0  0  0  0  0  0  0  0  0  0
  -24.0756  -20.2093   22.4579 C   0  0  0  0  0  0  0  0  0  0  0  0
  -22.6144  -15.2800   18.2821 C   0  0  0  0  0  0  0  0  0  0  0  0
  -22.8709  -17.7358   18.6959 C   0  0  0  0  0  0  0  0  0  0  0  0
  -21.1845  -16.4251   19.9846 C   0  0  0  0  0  0  0  0  0  0  0  0
  -26.2056  -17.7602   24.4431 C   0  0  0  0  0  0  0  0  0  0  0  0
  -29.0302  -20.0993   20.5402 C   0  0  0  0  0  0  0  0  0  0  0  0
  -30.2157  -22.5263   21.6448 C   0  0  0  0  0  0  0  0  0  0  0  0
  -29.9819  -19.4195   19.5578 C   0  0  0  0  0  0  0  0  0  0  0  0
  -31.3753  -17.2828   19.1507 C   0  0  0  0  0  0  0  0  0  0  0  0
  -31.2866  -15.7701   19.3244 C   0  0  0  0  0  0  0  0  0  0  0  0
  -29.8900  -15.2260   19.0470 C   0  0  0  0  0  0  0  0  0  1  0  0
  -23.6423  -16.1237   20.4951 C   0  0  1  0  0  0  0  0  0  0  0  0
  -24.4853  -18.8465   22.9942 C   0  0  2  0  0  0  0  0  0  0  0  0
  -22.5998  -16.3734   19.3689 C   0  0  0  0  0  0  0  0  0  0  0  0
  -26.0350  -29.3220   21.4671 N   0  0  0  0  0  0  0  0  0  0  0  0
  -29.2301  -25.4279   21.9541 N   0  0  0  0  0  0  0  0  0  0  0  0
  -27.2332  -29.5108   22.0457 N   0  0  0  0  0  0  0  0  0  0  0  0
  -29.4246  -27.3559   19.7704 N   0  0  0  0  0  0  0  0  0  0  0  0
  -24.1129  -13.6941   20.6235 N   0  0  0  0  0  0  0  0  0  0  0  0
  -28.2796  -30.3977   23.9768 N   0  0  0  0  0  0  0  0  0  0  0  0
  -23.8918  -31.1608   24.7257 N   0  0  0  0  0  0  0  0  0  0  0  0
  -22.0546  -11.0605   21.8432 N   0  0  0  0  0  0  0  0  0  0  0  0
  -23.6323  -17.1292   21.5522 N   0  0  0  0  0  0  0  0  0  0  0  0
  -25.7054  -19.0187   23.8324 N   0  3  0  0  0  0  0  0  0  0  0  0
  -26.0015  -31.4300   25.5834 O   0  0  0  0  0  0  0  0  0  0  0  0
  -30.9448  -25.6520   19.2106 O   0  0  0  0  0  0  0  0  0  0  0  0
  -22.2225  -12.1074   19.7700 O   0  0  0  0  0  0  0  0  0  0  0  0
  -30.0704  -17.6363   21.1552 O   0  0  0  0  0  0  0  0  0  0  0  0
  -22.7140  -14.7264   22.1688 O   0  0  0  0  0  0  0  0  0  0  0  0
  -25.8486  -17.7688   21.3158 O   0  0  0  0  0  0  0  0  0  0  0  0
  -19.6870  -29.8050   21.3321 O   0  0  0  0  0  0  0  0  0  0  0  0
  -29.9078  -13.8089   19.2143 O   0  0  0  0  0  0  0  0  0  1  0  0
  -16.3345  -28.2948   25.4411 F   0  0  0  0  0  0  0  0  0  0  0  0
  -18.0138  -27.6203   21.0673 F   0  0  0  0  0  0  0  0  0  0  0  0
  1  2  1  0  0  0  0
  1  7  2  0  0  0  0
  2  8  2  0  0  0  0
  3  6  2  0  0  0  0
  3 10  1  0  0  0  0
  4 11  2  0  0  0  0
  4 18  1  0  0  0  0
  5 12  1  0  0  0  0
  5 18  2  0  0  0  0
  6 19  1  0  0  0  0
  7 21  1  0  0  0  0
  8 23  1  0  0  0  0
  9 13  2  0  0  0  0
  9 22  1  0  0  0  0
 10 25  2  0  0  0  0
 11 27  1  0  0  0  0
 12 27  2  0  0  0  0
 13 28  1  0  0  0  0
 14 15  2  0  0  0  0
 14 29  1  0  0  0  0
 15 30  1  0  0  0  0
 16 24  1  0  0  0  0
 16 28  2  0  0  0  0
 17 30  2  0  0  0  0
 17 31  1  0  0  0  0
 18 32  1  0  0  0  0
 19 26  2  0  0  0  0
 19 34  1  0  0  0  0
 20 32  1  0  0  0  0
 20 33  2  0  0  0  0
 20 35  1  0  0  0  0
 21 23  2  0  0  0  0
 21 41  1  0  0  0  0
 22 24  2  0  0  0  0
 22 42  1  0  0  0  0
 23 50  1  0  0  0  0
 24 43  1  0  0  0  0
 25 26  1  0  0  0  0
 25 59  1  0  0  0  0
 26 60  1  0  0  0  0
 27 84  1  0  0  0  0
 28 85  1  0  0  0  0
 29 31  2  0  0  0  0
 29 84  1  0  0  0  0
 30 86  1  0  0  0  0
 31 87  1  0  0  0  0
 32 68  2  0  0  0  0
 33 70  1  0  0  0  0
 33 73  1  0  0  0  0
 34 36  1  0  0  0  0
 34 69  2  0  0  0  0
 35 74  1  0  0  0  0
 35 78  2  0  0  0  0
 36 71  1  0  0  0  0
 36 79  2  0  0  0  0
 37 51  1  0  0  0  0
 37 75  1  0  0  0  0
 37 80  2  0  0  0  0
 38 61  1  0  0  0  0
 38 62  1  0  0  0  0
 38 81  2  0  0  0  0
 39 65  1  0  0  0  0
 39 72  1  0  0  0  0
 39 82  2  0  0  0  0
 40 66  1  0  0  0  0
 40 76  1  0  0  0  0
 40 83  2  0  0  0  0
 41 44  1  0  0  0  0
 42 51  1  0  0  0  0
 43 72  1  0  0  0  0
 44 46  1  0  0  0  0
 45 47  1  0  0  0  0
 45 48  1  0  0  0  0
 46 50  1  0  0  0  0
 47 52  1  0  0  0  0
 48 71  1  0  0  0  0
 49 52  1  0  0  0  0
 49 71  1  0  0  0  0
 50 75  1  0  0  0  0
 51 72  1  0  0  0  0
 52 70  1  0  0  0  0
 53 60  1  0  0  0  0
 54 66  1  0  0  0  0
 55 67  1  0  0  0  0
 56 67  1  0  0  0  0
 57 67  1  0  0  0  0
 58 77  1  0  0  0  0
 59 61  1  0  0  0  0
 62 63  1  0  0  0  0
 63 64  1  0  0  0  0
 64 85  1  0  0  0  0
 65 67  1  0  0  0  0
 65 76  1  0  0  0  0
 66 77  1  0  0  0  0
 68 70  1  0  0  0  0
M  CHG  1  77   1
M  ISO  4  34 100  36 100  64 101  85 101
M  END
> <Batch ID>
0137

> <Smiles>
CCc1c(CCC(=O)CC[101CH2:1][101O:1]c2ccc3c(c2)CN(C(=O)C(NC(=O)C(C)NC)C(C)(C)C)C(C(=O)NC2CCCc4ccccc42)C3)cccc1[100C:0](=N)[100C:0](=O)N1CCCC(n2nc(-c3ccc(Oc4ccc(F)cc4F)cc3)c(C(N)=O)c2N)C1

> <Shape>
0.319

> <Color>
0.057

> <Negative vol penalty>
0.000

$$$$

  -OEChem-04052302423D

 86 94  0     1  0  0  0  0  0999 V2000
  -26.6938  -21.9602   16.4485 C   0  0  0  0  0  0  0  0  0  0  0  0
  -27.3863  -21.0475   17.2377 C   0  0  0  0  0  0  0  0  0  0  0  0
  -26.8471  -29.5593   19.8072 C   0  0  0  0  0  0  0  0  0  0  0  0
  -25.5934  -27.7117   20.7302 C   0  0  0  0  0  0  0  0  0  0  0  0
  -25.3405  -22.1984   16.6847 C   0  0  0  0  0  0  0  0  0  0  0  0
  -26.7262  -20.3733   18.2644 C   0  0  0  0  0  0  0  0  0  0  0  0
  -27.8296  -15.4320   18.3678 C   0  0  0  0  0  0  0  0  0  0  0  0
  -25.6563  -30.2382   19.5487 C   0  0  0  0  0  0  0  0  0  0  0  0
  -24.4026  -28.3906   20.4717 C   0  0  0  0  0  0  0  0  0  0  0  0
  -29.0542  -15.0646   18.9237 C   0  0  0  0  0  0  0  0  0  0  0  0
  -21.0485  -29.7906   20.3846 C   0  0  0  0  0  0  0  0  0  0  0  0
  -20.0793  -29.8067   21.3877 C   0  0  0  0  0  0  0  0  0  0  0  0
  -27.9382  -14.4808   20.9812 C   0  0  0  0  0  0  0  0  0  0  0  0
  -29.3566  -18.8033   24.7729 C   0  0  0  0  0  0  0  0  0  0  0  0
  -30.0229  -19.4589   22.5451 C   0  0  0  0  0  0  0  0  0  0  0  0
  -21.6354  -30.9058   22.8736 C   0  0  0  0  0  0  0  0  0  0  0  0
  -26.8156  -28.2961   20.3979 C   0  0  0  0  0  0  0  0  0  0  0  0
  -29.1055  -28.0192   21.4876 C   0  0  0  0  0  0  0  0  0  0  0  0
  -24.6611  -21.5197   17.7087 C   0  0  0  0  0  0  0  0  0  0  0  0
  -26.6495  -15.3367   19.1194 C   0  0  0  0  0  0  0  0  0  0  0  0
  -25.3629  -20.6038   18.5155 C   0  0  0  0  0  0  0  0  0  0  0  0
  -26.6996  -14.8453   20.4316 C   0  0  0  0  0  0  0  0  0  0  0  0
  -28.3334  -19.7508   24.7458 C   0  0  0  0  0  0  0  0  0  0  0  0
  -28.1548  -20.5524   23.6183 C   0  0  0  0  0  0  0  0  0  0  0  0
  -28.9995  -20.4064   22.5179 C   0  0  0  0  0  0  0  0  0  0  0  0
  -24.4341  -29.6538   19.8809 C   0  0  0  0  0  0  0  0  0  0  0  0
  -29.1091  -14.5916   20.2315 C   0  0  0  0  0  0  0  0  0  0  0  0
  -22.3111  -30.3321   20.6261 C   0  0  0  0  0  0  0  0  0  0  0  0
  -30.2014  -18.6574   23.6726 C   0  0  0  0  0  0  0  0  0  0  0  0
  -20.3728  -30.3643   22.6321 C   0  0  0  0  0  0  0  0  0  0  0  0
  -22.6046  -30.8896   21.8705 C   0  0  0  0  0  0  0  0  0  0  0  0
  -28.0453  -27.5941   20.6648 C   0  0  0  0  0  0  0  0  0  0  0  0
  -30.0292  -27.0057   21.4085 C   0  0  0  0  0  0  0  0  0  0  0  0
  -29.2431  -29.2225   22.2550 C   0  0  0  0  0  0  0  0  0  0  0  0
  -24.4713  -17.4109   20.1475 C   0  0  0  0  0  0  0  0  0  0  0  0
  -22.9402  -14.7234   21.1251 C   0  0  0  0  0  0  0  0  0  0  0  0
  -23.1463  -11.4428   22.0426 C   0  0  0  0  0  0  0  0  0  0  0  0
  -29.5940  -21.1716   20.1925 C   0  0  0  0  0  0  0  0  0  0  0  0
  -23.2096  -21.8455   17.9567 C   0  0  0  0  0  0  0  0  0  0  0  0
  -25.3329  -15.7119   18.4962 C   0  0  0  0  0  0  0  0  0  0  0  0
  -25.4588  -14.7048   21.2737 C   0  0  0  0  0  0  0  0  0  0  0  0
  -22.4929  -20.8128   18.8228 C   0  0  0  0  0  0  0  0  0  0  0  0
  -31.5720  -23.5675   18.4534 C   0  0  0  0  0  0  0  0  0  0  0  0
  -23.3391  -20.4587   20.0416 C   0  0  0  0  0  0  0  0  0  0  0  0
  -30.9925  -24.9108   18.9027 C   0  0  0  0  0  0  0  0  0  0  0  0
  -30.4853  -22.5056   18.2948 C   0  0  0  0  0  0  0  0  0  0  0  0
  -29.0391  -23.6678   19.9156 C   0  0  0  0  0  0  0  0  0  0  0  0
  -24.6757  -19.8345   19.6227 C   0  0  1  0  0  0  0  0  0  0  0  0
  -24.2620  -16.0592   19.5256 C   0  0  1  0  0  0  0  0  0  0  0  0
  -30.1036  -24.7516   20.1518 C   0  0  2  0  0  0  0  0  0  0  0  0
  -27.4425  -19.8861   25.9372 C   0  0  0  0  0  0  0  0  0  0  0  0
  -27.0538  -21.5658   23.5934 C   0  0  0  0  0  0  0  0  0  0  0  0
  -21.7315   -9.5234   22.8247 C   0  0  0  0  0  0  0  0  0  0  0  0
  -22.7864  -15.9726   23.9046 C   0  0  0  0  0  0  0  0  0  0  0  0
  -22.2541  -13.7034   24.8188 C   0  0  0  0  0  0  0  0  0  0  0  0
  -20.7110  -14.7796   23.1808 C   0  0  0  0  0  0  0  0  0  0  0  0
  -33.7824  -15.7280   20.8545 C   0  0  0  0  0  0  0  0  0  0  0  0
  -32.9791  -13.5378   21.7482 C   0  0  0  0  0  0  0  0  0  0  0  0
  -23.8556   -9.8064   19.6808 C   0  0  0  0  0  0  0  0  0  0  0  0
  -32.0668  -15.7250   22.6719 C   0  0  0  0  0  0  0  0  0  0  0  0
  -31.5855  -17.1574   22.4519 C   0  0  0  0  0  0  0  0  0  0  0  0
  -31.4633  -14.9194   20.3087 C   0  0  0  0  0  0  0  0  0  1  0  0
  -22.9401  -13.8912   22.3846 C   0  0  1  0  0  0  0  0  0  0  0  0
  -22.3410  -10.2267   21.6219 C   0  0  2  0  0  0  0  0  0  0  0  0
  -22.1967  -14.5911   23.5573 C   0  0  0  0  0  0  0  0  0  0  0  0
  -32.5513  -14.9751   21.4026 C   0  0  0  0  0  0  0  0  0  0  0  0
  -28.2733  -26.4035   20.1040 N   0  0  0  0  0  0  0  0  0  0  0  0
  -29.4873  -26.0718   20.5752 N   0  0  0  0  0  0  0  0  0  0  0  0
  -24.1963  -15.0904   20.6217 N   0  0  0  0  0  0  0  0  0  0  0  0
  -29.6861  -22.4075   19.5182 N   0  0  0  0  0  0  0  0  0  0  0  0
  -31.2439  -26.8313   21.9710 N   0  0  0  0  0  0  0  0  0  0  0  0
  -28.7806  -29.2277   23.5780 N   0  0  0  0  0  0  0  0  0  0  0  0
  -28.8338  -21.2076   21.3610 N   0  0  0  0  0  0  0  0  0  0  0  0
  -24.4893  -18.4516   19.2387 N   0  0  0  0  0  0  0  0  0  0  0  0
  -22.3862  -12.5929   22.0160 N   0  0  0  0  0  0  0  0  0  0  0  0
  -23.2096   -9.2548   20.8995 N   0  3  0  0  0  0  0  0  0  0  0  0
  -29.7459  -30.2672   21.7762 O   0  0  0  0  0  0  0  0  0  0  0  0
  -24.6050  -17.5030   21.3622 O   0  0  0  0  0  0  0  0  0  0  0  0
  -21.8656  -15.0303   20.6030 O   0  0  0  0  0  0  0  0  0  0  0  0
  -24.3302  -11.3783   22.3662 O   0  0  0  0  0  0  0  0  0  0  0  0
  -30.1711  -20.1624   19.7795 O   0  0  0  0  0  0  0  0  0  0  0  0
  -23.2720  -30.3160   19.6290 O   0  0  0  0  0  0  0  0  0  0  0  0
  -30.3032  -14.2329   20.7768 O   0  0  0  0  0  0  0  0  0  1  0  0
  -31.2066  -17.7278   23.7004 O   0  0  0  0  0  0  0  0  0  0  0  0
  -19.4415  -30.3811   23.5947 F   0  0  0  0  0  0  0  0  0  0  0  0
  -23.8154  -31.4124   22.1079 F   0  0  0  0  0  0  0  0  0  0  0  0
  1  2  1  0  0  0  0
  1  5  2  0  0  0  0
  2  6  2  0  0  0  0
  3  8  2  0  0  0  0
  3 17  1  0  0  0  0
  4  9  1  0  0  0  0
  4 17  2  0  0  0  0
  5 19  1  0  0  0  0
  6 21  1  0  0  0  0
  7 10  2  0  0  0  0
  7 20  1  0  0  0  0
  8 26  1  0  0  0  0
  9 26  2  0  0  0  0
 10 27  1  0  0  0  0
 11 12  2  0  0  0  0
 11 28  1  0  0  0  0
 12 30  1  0  0  0  0
 13 22  1  0  0  0  0
 13 27  2  0  0  0  0
 14 23  2  0  0  0  0
 14 29  1  0  0  0  0
 15 25  1  0  0  0  0
 15 29  2  0  0  0  0
 16 30  2  0  0  0  0
 16 31  1  0  0  0  0
 17 32  1  0  0  0  0
 18 32  1  0  0  0  0
 18 33  2  0  0  0  0
 18 34  1  0  0  0  0
 19 21  2  0  0  0  0
 19 39  1  0  0  0  0
 20 22  2  0  0  0  0
 20 40  1  0  0  0  0
 21 48  1  0  0  0  0
 22 41  1  0  0  0  0
 23 24  1  0  0  0  0
 23 51  1  0  0  0  0
 24 25  2  0  0  0  0
 24 52  1  0  0  0  0
 25 73  1  0  0  0  0
 26 82  1  0  0  0  0
 27 83  1  0  0  0  0
 28 31  2  0  0  0  0
 28 82  1  0  0  0  0
 29 84  1  0  0  0  0
 30 85  1  0  0  0  0
 31 86  1  0  0  0  0
 32 67  2  0  0  0  0
 33 68  1  0  0  0  0
 33 71  1  0  0  0  0
 34 72  1  0  0  0  0
 34 77  2  0  0  0  0
 35 49  1  0  0  0  0
 35 74  1  0  0  0  0
 35 78  2  0  0  0  0
 36 63  1  0  0  0  0
 36 69  1  0  0  0  0
 36 79  2  0  0  0  0
 37 64  1  0  0  0  0
 37 75  1  0  0  0  0
 37 80  2  0  0  0  0
 38 70  1  0  0  0  0
 38 73  1  0  0  0  0
 38 81  2  0  0  0  0
 39 42  1  0  0  0  0
 40 49  1  0  0  0  0
 41 69  1  0  0  0  0
 42 44  1  0  0  0  0
 43 45  1  0  0  0  0
 43 46  1  0  0  0  0
 44 48  1  0  0  0  0
 45 50  1  0  0  0  0
 46 70  1  0  0  0  0
 47 50  1  0  0  0  0
 47 70  1  0  0  0  0
 48 74  1  0  0  0  0
 49 69  1  0  0  0  0
 50 68  1  0  0  0  0
 53 64  1  0  0  0  0
 54 65  1  0  0  0  0
 55 65  1  0  0  0  0
 56 65  1  0  0  0  0
 57 66  1  0  0  0  0
 58 66  1  0  0  0  0
 59 76  1  0  0  0  0
 60 61  1  0  0  0  0
 60 66  1  0  0  0  0
 61 84  1  0  0  0  0
 62 66  1  0  0  0  0
 62 83  1  0  0  0  0
 63 65  1  0  0  0  0
 63 75  1  0  0  0  0
 64 76  1  0  0  0  0
 67 68  1  0  0  0  0
M  CHG  1  76   1
M  ISO  4  38 100  62 101  73 100  83 101
M  END
> <Batch ID>
0137

> <Smiles>
CNC(C)C(=O)NC(C(=O)N1Cc2cc([101O:1][101CH2:1]C(C)(C)CCOc3cc(C)c(C)c([100NH:0][100C:0](=O)N4CCCC(n5nc(-c6ccc(Oc7ccc(F)cc7F)cc6)c(C(N)=O)c5N)C4)c3)ccc2CC1C(=O)NC1CCCc2ccccc21)C(C)(C)C

> <Shape>
0.244

> <Color>
0.065

> <Negative vol penalty>
0.000

$$$$

  -OEChem-04052302423D

 84 92  0     1  0  0  0  0  0999 V2000
  -24.2235  -35.4058   22.2134 C   0  0  0  0  0  0  0  0  0  0  0  0
  -25.0514  -34.2880   22.2399 C   0  0  0  0  0  0  0  0  0  0  0  0
  -23.3493  -16.6666   25.5573 C   0  0  0  0  0  0  0  0  0  0  0  0
  -22.1707  -18.2397   24.1526 C   0  0  0  0  0  0  0  0  0  0  0  0
  -22.8711  -35.2778   22.5274 C   0  0  0  0  0  0  0  0  0  0  0  0
  -24.5275  -33.0417   22.5816 C   0  0  0  0  0  0  0  0  0  0  0  0
  -26.1168  -29.3542   19.4958 C   0  0  0  0  0  0  0  0  0  0  0  0
  -22.5415  -17.0250   26.6365 C   0  0  0  0  0  0  0  0  0  0  0  0
  -21.3628  -18.5981   25.2317 C   0  0  0  0  0  0  0  0  0  0  0  0
  -27.4045  -28.8616   19.7028 C   0  0  0  0  0  0  0  0  0  0  0  0
  -19.4158  -16.3556   27.7386 C   0  0  0  0  0  0  0  0  0  0  0  0
  -18.8942  -15.3297   28.5268 C   0  0  0  0  0  0  0  0  0  0  0  0
  -26.4846  -26.9704   20.8844 C   0  0  0  0  0  0  0  0  0  0  0  0
  -28.3568  -23.0417   18.8177 C   0  0  0  0  0  0  0  0  0  0  0  0
  -26.0172  -22.5696   18.4434 C   0  0  0  0  0  0  0  0  0  0  0  0
  -26.9231  -24.7301   17.8529 C   0  0  0  0  0  0  0  0  0  0  0  0
  -20.0275  -16.2372   30.4579 C   0  0  0  0  0  0  0  0  0  0  0  0
  -23.1639  -17.2740   24.3153 C   0  0  0  0  0  0  0  0  0  0  0  0
  -23.7583  -15.8851   22.2598 C   0  0  0  0  0  0  0  0  0  0  0  0
  -22.3284  -34.0276   22.8637 C   0  0  0  0  0  0  0  0  0  0  0  0
  -25.0021  -28.6631   19.9919 C   0  0  0  0  0  0  0  0  0  0  0  0
  -23.1669  -32.8971   22.9017 C   0  0  0  0  0  0  0  0  0  0  0  0
  -25.1837  -27.4550   20.6802 C   0  0  0  0  0  0  0  0  0  0  0  0
  -27.2750  -22.1642   18.8898 C   0  0  0  0  0  0  0  0  0  0  0  0
  -21.5482  -17.9907   26.4737 C   0  0  0  0  0  0  0  0  0  0  0  0
  -27.5888  -27.6711   20.3997 C   0  0  0  0  0  0  0  0  0  0  0  0
  -20.2432  -17.3222   28.3101 C   0  0  0  0  0  0  0  0  0  0  0  0
  -28.1809  -24.3247   18.2993 C   0  0  0  0  0  0  0  0  0  0  0  0
  -19.2000  -15.2706   29.8864 C   0  0  0  0  0  0  0  0  0  0  0  0
  -25.8413  -23.8526   17.9249 C   0  0  0  0  0  0  0  0  0  0  0  0
  -20.5491  -17.2631   29.6697 C   0  0  0  0  0  0  0  0  0  0  0  0
  -23.9985  -16.9046   23.2004 C   0  0  0  0  0  0  0  0  0  0  0  0
  -24.8378  -15.9384   21.4124 C   0  0  0  0  0  0  0  0  0  0  0  0
  -22.6576  -14.9715   22.1609 C   0  0  0  0  0  0  0  0  0  0  0  0
  -22.6999  -29.3247   22.0814 C   0  0  0  0  0  0  0  0  0  0  0  0
  -21.5064  -26.4809   21.0763 C   0  0  0  0  0  0  0  0  0  0  0  0
  -22.0926  -23.4275   19.6692 C   0  0  0  0  0  0  0  0  0  0  0  0
  -28.6328  -20.3010   19.9053 C   0  0  0  0  0  0  0  0  0  0  0  0
  -20.8705  -33.9470   23.2416 C   0  0  0  0  0  0  0  0  0  0  0  0
  -23.6180  -29.1939   19.7371 C   0  0  0  0  0  0  0  0  0  0  0  0
  -24.0188  -26.6644   21.2155 C   0  0  0  0  0  0  0  0  0  0  0  0
  -20.3157  -32.5249   23.2286 C   0  0  0  0  0  0  0  0  0  0  0  0
  -29.4717  -17.1441   21.3221 C   0  0  0  0  0  0  0  0  0  0  0  0
  -21.2684  -31.5736   23.9457 C   0  0  0  0  0  0  0  0  0  0  0  0
  -28.1403  -16.6289   21.8736 C   0  0  0  0  0  0  0  0  0  0  0  0
  -29.6088  -18.6561   21.4917 C   0  0  0  0  0  0  0  0  0  0  0  0
  -27.1605  -18.9296   21.5075 C   0  0  0  0  0  0  0  0  0  0  0  0
  -22.6306  -31.5238   23.2433 C   0  0  1  0  0  0  0  0  0  0  0  0
  -22.5857  -28.6732   20.7323 C   0  0  1  0  0  0  0  0  0  0  0  0
  -26.9487  -17.4209   21.3005 C   0  0  2  0  0  0  0  0  0  0  0  0
  -21.5721  -21.1773   18.6877 C   0  0  0  0  0  0  0  0  0  0  0  0
  -21.4073  -25.6296   24.0047 C   0  0  0  0  0  0  0  0  0  0  0  0
  -21.1604  -23.2600   23.2352 C   0  0  0  0  0  0  0  0  0  0  0  0
  -19.4177  -24.9469   22.6519 C   0  0  0  0  0  0  0  0  0  0  0  0
  -31.9505  -26.7568   18.4719 C   0  0  0  0  0  0  0  0  0  0  0  0
  -31.6270  -26.2781   20.9067 C   0  0  0  0  0  0  0  0  0  0  0  0
  -21.7818  -24.5561   16.9510 C   0  0  0  0  0  0  0  0  0  0  0  0
  -29.8269  -27.4950   19.6150 C   0  0  0  0  0  0  0  0  0  1  0  0
  -30.2561  -25.0378   19.2162 C   0  0  0  0  0  0  0  0  0  0  0  0
  -21.6684  -25.0422   21.5041 C   0  0  1  0  0  0  0  0  0  0  0  0
  -21.3859  -22.6806   18.5524 C   0  0  2  0  0  0  0  0  0  0  0  0
  -20.9357  -24.7353   22.8407 C   0  0  0  0  0  0  0  0  0  0  0  0
  -30.9102  -26.3956   19.5494 C   0  0  0  0  0  0  0  0  0  0  0  0
  -25.1410  -17.5578   22.9724 N   0  0  0  0  0  0  0  0  0  0  0  0
  -25.6284  -16.9471   21.8789 N   0  0  0  0  0  0  0  0  0  0  0  0
  -22.6856  -27.2280   20.9462 N   0  0  0  0  0  0  0  0  0  0  0  0
  -28.4461  -19.3405   20.9218 N   0  0  0  0  0  0  0  0  0  0  0  0
  -25.1785  -15.2204   20.3212 N   0  0  0  0  0  0  0  0  0  0  0  0
  -21.6333  -15.0539   23.1139 N   0  0  0  0  0  0  0  0  0  0  0  0
  -27.4525  -20.8613   19.4178 N   0  0  0  0  0  0  0  0  0  0  0  0
  -22.5574  -30.6990   22.0564 N   0  0  0  0  0  0  0  0  0  0  0  0
  -21.2227  -24.2288   20.3780 N   0  0  0  0  0  0  0  0  0  0  0  0
  -21.9209  -23.1031   17.2272 N   0  3  0  0  0  0  0  0  0  0  0  0
  -22.5928  -14.0970   21.2640 O   0  0  0  0  0  0  0  0  0  0  0  0
  -22.9008  -28.6318   23.0719 O   0  0  0  0  0  0  0  0  0  0  0  0
  -20.3757  -26.9233   20.8584 O   0  0  0  0  0  0  0  0  0  0  0  0
  -23.2953  -23.3088   19.8929 O   0  0  0  0  0  0  0  0  0  0  0  0
  -29.7550  -20.5844   19.4784 O   0  0  0  0  0  0  0  0  0  0  0  0
  -20.7596  -18.3405   27.5264 O   0  0  0  0  0  0  0  0  0  0  0  0
  -28.8447  -27.1883   20.6037 O   0  0  0  0  0  0  0  0  0  1  0  0
  -29.2436  -25.1868   18.2290 O   0  0  0  0  0  0  0  0  0  0  0  0
  -18.6979  -14.2863   30.6435 F   0  0  0  0  0  0  0  0  0  0  0  0
  -24.6330  -24.2429   17.4981 F   0  0  0  0  0  0  0  0  0  0  0  0
  -21.3425  -18.1896   30.2246 F   0  0  0  0  0  0  0  0  0  0  0  0
  1  2  1  0  0  0  0
  1  5  2  0  0  0  0
  2  6  2  0  0  0  0
  3  8  2  0  0  0  0
  3 18  1  0  0  0  0
  4  9  1  0  0  0  0
  4 18  2  0  0  0  0
  5 20  1  0  0  0  0
  6 22  1  0  0  0  0
  7 10  2  0  0  0  0
  7 21  1  0  0  0  0
  8 25  1  0  0  0  0
  9 25  2  0  0  0  0
 10 26  1  0  0  0  0
 11 12  2  0  0  0  0
 11 27  1  0  0  0  0
 12 29  1  0  0  0  0
 13 23  1  0  0  0  0
 13 26  2  0  0  0  0
 14 24  1  0  0  0  0
 14 28  2  0  0  0  0
 15 24  2  0  0  0  0
 15 30  1  0  0  0  0
 16 28  1  0  0  0  0
 16 30  2  0  0  0  0
 17 29  2  0  0  0  0
 17 31  1  0  0  0  0
 18 32  1  0  0  0  0
 19 32  1  0  0  0  0
 19 33  2  0  0  0  0
 19 34  1  0  0  0  0
 20 22  2  0  0  0  0
 20 39  1  0  0  0  0
 21 23  2  0  0  0  0
 21 40  1  0  0  0  0
 22 48  1  0  0  0  0
 23 41  1  0  0  0  0
 24 70  1  0  0  0  0
 25 79  1  0  0  0  0
 26 80  1  0  0  0  0
 27 31  2  0  0  0  0
 27 79  1  0  0  0  0
 28 81  1  0  0  0  0
 29 82  1  0  0  0  0
 30 83  1  0  0  0  0
 31 84  1  0  0  0  0
 32 64  2  0  0  0  0
 33 65  1  0  0  0  0
 33 68  1  0  0  0  0
 34 69  1  0  0  0  0
 34 74  2  0  0  0  0
 35 49  1  0  0  0  0
 35 71  1  0  0  0  0
 35 75  2  0  0  0  0
 36 60  1  0  0  0  0
 36 66  1  0  0  0  0
 36 76  2  0  0  0  0
 37 61  1  0  0  0  0
 37 72  1  0  0  0  0
 37 77  2  0  0  0  0
 38 67  1  0  0  0  0
 38 70  1  0  0  0  0
 38 78  2  0  0  0  0
 39 42  1  0  0  0  0
 40 49  1  0  0  0  0
 41 66  1  0  0  0  0
 42 44  1  0  0  0  0
 43 45  1  0  0  0  0
 43 46  1  0  0  0  0
 44 48  1  0  0  0  0
 45 50  1  0  0  0  0
 46 67  1  0  0  0  0
 47 50  1  0  0  0  0
 47 67  1  0  0  0  0
 48 71  1  0  0  0  0
 49 66  1  0  0  0  0
 50 65  1  0  0  0  0
 51 61  1  0  0  0  0
 52 62  1  0  0  0  0
 53 62  1  0  0  0  0
 54 62  1  0  0  0  0
 55 63  1  0  0  0  0
 56 63  1  0  0  0  0
 57 73  1  0  0  0  0
 58 63  1  0  0  0  0
 58 80  1  0  0  0  0
 59 63  1  0  0  0  0
 59 81  1  0  0  0  0
 60 62  1  0  0  0  0
 60 72  1  0  0  0  0
 61 73  1  0  0  0  0
 64 65  1  0  0  0  0
M  CHG  1  73   1
M  ISO  4  38 100  58 101  70 100  80 101
M  END
> <Batch ID>
0137

> <Smiles>
CNC(C)C(=O)NC(C(=O)N1Cc2cc([101O:1][101CH2:1]C(C)(C)COc3cc(F)cc([100NH:0][100C:0](=O)N4CCCC(n5nc(-c6ccc(Oc7ccc(F)cc7F)cc6)c(C(N)=O)c5N)C4)c3)ccc2CC1C(=O)NC1CCCc2ccccc21)C(C)(C)C

> <Shape>
0.180

> <Color>
0.104

> <Negative vol penalty>
0.000

$$$$

  -OEChem-04052302423D

 87 95  0     1  0  0  0  0  0999 V2000
  -26.0673  -31.1320   28.8469 C   0  0  0  0  0  0  0  0  0  0  0  0
  -26.7030  -30.8716   27.6372 C   0  0  0  0  0  0  0  0  0  0  0  0
  -27.4580  -11.1929   20.5678 C   0  0  0  0  0  0  0  0  0  0  0  0
  -26.7831  -12.7504   18.8486 C   0  0  0  0  0  0  0  0  0  0  0  0
  -24.9638  -30.3713   29.2311 C   0  0  0  0  0  0  0  0  0  0  0  0
  -26.2362  -29.8495   26.8114 C   0  0  0  0  0  0  0  0  0  0  0  0
  -26.2241  -29.7801   20.6876 C   0  0  0  0  0  0  0  0  0  0  0  0
  -26.3319  -10.4133   20.3036 C   0  0  0  0  0  0  0  0  0  0  0  0
  -25.6571  -11.9708   18.5843 C   0  0  0  0  0  0  0  0  0  0  0  0
  -27.0847  -29.2038   19.7544 C   0  0  0  0  0  0  0  0  0  0  0  0
  -23.4449   -8.2024   20.3265 C   0  0  0  0  0  0  0  0  0  0  0  0
  -22.7108   -7.7308   21.4147 C   0  0  0  0  0  0  0  0  0  0  0  0
  -25.6239  -27.2905   19.5978 C   0  0  0  0  0  0  0  0  0  0  0  0
  -29.1453  -21.8706   18.5888 C   0  0  0  0  0  0  0  0  0  0  0  0
  -30.2078  -21.5765   21.1515 C   0  0  0  0  0  0  0  0  0  0  0  0
  -22.2956  -10.0040   22.1198 C   0  0  0  0  0  0  0  0  0  0  0  0
  -27.6836  -12.3615   19.8403 C   0  0  0  0  0  0  0  0  0  0  0  0
  -30.1160  -13.0580   19.5153 C   0  0  0  0  0  0  0  0  0  0  0  0
  -24.4774  -29.3457   28.4052 C   0  0  0  0  0  0  0  0  0  0  0  0
  -25.0605  -29.1099   21.0918 C   0  0  0  0  0  0  0  0  0  0  0  0
  -25.1260  -29.0735   27.1855 C   0  0  0  0  0  0  0  0  0  0  0  0
  -24.7489  -27.8616   20.5344 C   0  0  0  0  0  0  0  0  0  0  0  0
  -28.8000  -20.7637   19.3642 C   0  0  0  0  0  0  0  0  0  0  0  0
  -30.0220  -22.8304   19.0948 C   0  0  0  0  0  0  0  0  0  0  0  0
  -29.3312  -20.6166   20.6455 C   0  0  0  0  0  0  0  0  0  0  0  0
  -25.4315  -10.8022   19.3118 C   0  0  0  0  0  0  0  0  0  0  0  0
  -26.7862  -27.9575   19.2115 C   0  0  0  0  0  0  0  0  0  0  0  0
  -23.6043   -9.5749   20.1349 C   0  0  0  0  0  0  0  0  0  0  0  0
  -22.1362   -8.6315   22.3114 C   0  0  0  0  0  0  0  0  0  0  0  0
  -30.5532  -22.6834   20.3761 C   0  0  0  0  0  0  0  0  0  0  0  0
  -23.0297  -10.4756   21.0316 C   0  0  0  0  0  0  0  0  0  0  0  0
  -28.8463  -13.1675   20.1132 C   0  0  0  0  0  0  0  0  0  0  0  0
  -30.8633  -14.0431   20.1132 C   0  0  0  0  0  0  0  0  0  0  0  0
  -30.5786  -12.1472   18.5092 C   0  0  0  0  0  0  0  0  0  0  0  0
  -23.9716  -27.9721   23.8528 C   0  0  0  0  0  0  0  0  0  0  0  0
  -21.2964  -27.3929   22.1121 C   0  0  0  0  0  0  0  0  0  0  0  0
  -19.8951  -26.8462   19.0487 C   0  0  0  0  0  0  0  0  0  0  0  0
  -29.4419  -19.2192   22.7386 C   0  0  0  0  0  0  0  0  0  0  0  0
  -23.3105  -28.5193   28.8848 C   0  0  0  0  0  0  0  0  0  0  0  0
  -24.1288  -29.7571   22.0794 C   0  0  0  0  0  0  0  0  0  0  0  0
  -23.5018  -27.1101   20.9198 C   0  0  0  0  0  0  0  0  0  0  0  0
  -22.6487  -27.7005   27.7794 C   0  0  0  0  0  0  0  0  0  0  0  0
  -31.2244  -16.5074   24.2036 C   0  0  0  0  0  0  0  0  0  0  0  0
  -23.7032  -26.9851   26.9408 C   0  0  0  0  0  0  0  0  0  0  0  0
  -30.9373  -15.3347   23.2631 C   0  0  0  0  0  0  0  0  0  0  0  0
  -30.0100  -17.4214   24.3574 C   0  0  0  0  0  0  0  0  0  0  0  0
  -29.1457  -16.7316   22.1560 C   0  0  0  0  0  0  0  0  0  0  0  0
  -24.6342  -27.9896   26.2510 C   0  0  1  0  0  0  0  0  0  0  0  0
  -23.2348  -28.7548   22.8029 C   0  0  1  0  0  0  0  0  0  0  0  0
  -30.3599  -15.8188   21.9186 C   0  0  2  0  0  0  0  0  0  0  0  0
  -27.6277  -17.4442   17.7793 C   0  0  0  0  0  0  0  0  0  0  0  0
  -17.6916  -26.3668   17.9477 C   0  0  0  0  0  0  0  0  0  0  0  0
  -21.4471  -24.5014   23.0747 C   0  0  0  0  0  0  0  0  0  0  0  0
  -19.8524  -23.8829   21.2466 C   0  0  0  0  0  0  0  0  0  0  0  0
  -19.1414  -25.4691   23.0357 C   0  0  0  0  0  0  0  0  0  0  0  0
  -29.5527  -26.3212   16.3806 C   0  0  0  0  0  0  0  0  0  0  0  0
  -31.3657  -27.0085   17.9707 C   0  0  0  0  0  0  0  0  0  0  0  0
  -20.0177  -29.3371   17.4552 C   0  0  0  0  0  0  0  0  0  0  0  0
  -27.8587  -19.7510   18.7968 C   0  0  0  0  0  0  0  0  0  0  0  0
  -30.3937  -24.0275   18.2534 C   0  0  0  0  0  0  0  0  0  0  0  0
  -28.5905  -18.4866   18.3253 C   0  0  0  0  0  0  0  0  0  0  0  0
  -29.6341  -25.2838   18.7022 C   0  0  0  0  0  0  0  0  0  0  0  0
  -29.0109  -27.7149   18.4067 C   0  0  0  0  0  0  0  0  0  1  0  0
  -20.7908  -26.2385   21.2809 C   0  0  1  0  0  0  0  0  0  0  0  0
  -18.6721  -27.4464   18.3789 C   0  0  2  0  0  0  0  0  0  0  0  0
  -20.3325  -25.0360   22.1535 C   0  0  0  0  0  0  0  0  0  0  0  0
  -29.8955  -26.5665   17.8619 C   0  0  0  0  0  0  0  0  0  0  0  0
  -28.7867  -14.1451   21.0215 N   0  0  0  0  0  0  0  0  0  0  0  0
  -30.0284  -14.6587   20.9988 N   0  0  0  0  0  0  0  0  0  0  0  0
  -22.6257  -27.7817   21.8939 N   0  0  0  0  0  0  0  0  0  0  0  0
  -29.5203  -17.8438   23.0434 N   0  0  0  0  0  0  0  0  0  0  0  0
  -32.1466  -14.4342   19.9627 N   0  0  0  0  0  0  0  0  0  0  0  0
  -29.6801  -11.1981   18.0031 N   0  0  0  0  0  0  0  0  0  0  0  0
  -28.9929  -19.4992   21.4484 N   0  0  0  0  0  0  0  0  0  0  0  0
  -23.9831  -28.5724   25.0974 N   0  0  0  0  0  0  0  0  0  0  0  0
  -19.7477  -26.7827   20.4182 N   0  0  0  0  0  0  0  0  0  0  0  0
  -19.0721  -28.2265   17.1737 N   0  3  0  0  0  0  0  0  0  0  0  0
  -31.7585  -12.1635   18.0838 O   0  0  0  0  0  0  0  0  0  0  0  0
  -24.4899  -26.9021   23.5561 O   0  0  0  0  0  0  0  0  0  0  0  0
  -20.5376  -27.9345   22.9199 O   0  0  0  0  0  0  0  0  0  0  0  0
  -20.8808  -26.4679   18.4196 O   0  0  0  0  0  0  0  0  0  0  0  0
  -29.7761  -20.0842   23.5523 O   0  0  0  0  0  0  0  0  0  0  0  0
  -24.3327  -10.0416   19.0536 O   0  0  0  0  0  0  0  0  0  0  0  0
  -27.6249  -27.3924   18.3009 O   0  0  0  0  0  0  0  0  0  1  0  0
  -21.4300   -8.1785   23.3555 F   0  0  0  0  0  0  0  0  0  0  0  0
  -31.3963  -23.6004   20.8708 F   0  0  0  0  0  0  0  0  0  0  0  0
  -23.1784  -11.7953   20.8521 F   0  0  0  0  0  0  0  0  0  0  0  0
  1  2  1  0  0  0  0
  1  5  2  0  0  0  0
  2  6  2  0  0  0  0
  3  8  2  0  0  0  0
  3 17  1  0  0  0  0
  4  9  1  0  0  0  0
  4 17  2  0  0  0  0
  5 19  1  0  0  0  0
  6 21  1  0  0  0  0
  7 10  2  0  0  0  0
  7 20  1  0  0  0  0
  8 26  1  0  0  0  0
  9 26  2  0  0  0  0
 10 27  1  0  0  0  0
 11 12  2  0  0  0  0
 11 28  1  0  0  0  0
 12 29  1  0  0  0  0
 13 22  1  0  0  0  0
 13 27  2  0  0  0  0
 14 23  1  0  0  0  0
 14 24  2  0  0  0  0
 15 25  1  0  0  0  0
 15 30  2  0  0  0  0
 16 29  2  0  0  0  0
 16 31  1  0  0  0  0
 17 32  1  0  0  0  0
 18 32  1  0  0  0  0
 18 33  2  0  0  0  0
 18 34  1  0  0  0  0
 19 21  2  0  0  0  0
 19 39  1  0  0  0  0
 20 22  2  0  0  0  0
 20 40  1  0  0  0  0
 21 48  1  0  0  0  0
 22 41  1  0  0  0  0
 23 25  2  0  0  0  0
 23 59  1  0  0  0  0
 24 30  1  0  0  0  0
 24 60  1  0  0  0  0
 25 74  1  0  0  0  0
 26 83  1  0  0  0  0
 27 84  1  0  0  0  0
 28 31  2  0  0  0  0
 28 83  1  0  0  0  0
 29 85  1  0  0  0  0
 30 86  1  0  0  0  0
 31 87  1  0  0  0  0
 32 68  2  0  0  0  0
 33 69  1  0  0  0  0
 33 72  1  0  0  0  0
 34 73  1  0  0  0  0
 34 78  2  0  0  0  0
 35 49  1  0  0  0  0
 35 75  1  0  0  0  0
 35 79  2  0  0  0  0
 36 64  1  0  0  0  0
 36 70  1  0  0  0  0
 36 80  2  0  0  0  0
 37 65  1  0  0  0  0
 37 76  1  0  0  0  0
 37 81  2  0  0  0  0
 38 71  1  0  0  0  0
 38 74  1  0  0  0  0
 38 82  2  0  0  0  0
 39 42  1  0  0  0  0
 40 49  1  0  0  0  0
 41 70  1  0  0  0  0
 42 44  1  0  0  0  0
 43 45  1  0  0  0  0
 43 46  1  0  0  0  0
 44 48  1  0  0  0  0
 45 50  1  0  0  0  0
 46 71  1  0  0  0  0
 47 50  1  0  0  0  0
 47 71  1  0  0  0  0
 48 75  1  0  0  0  0
 49 70  1  0  0  0  0
 50 69  1  0  0  0  0
 51 61  1  0  0  0  0
 52 65  1  0  0  0  0
 53 66  1  0  0  0  0
 54 66  1  0  0  0  0
 55 66  1  0  0  0  0
 56 67  1  0  0  0  0
 57 67  1  0  0  0  0
 58 77  1  0  0  0  0
 59 61  1  0  0  0  0
 60 62  1  0  0  0  0
 62 67  1  0  0  0  0
 63 67  1  0  0  0  0
 63 84  1  0  0  0  0
 64 66  1  0  0  0  0
 64 76  1  0  0  0  0
 65 77  1  0  0  0  0
 68 69  1  0  0  0  0
M  CHG  1  77   1
M  ISO  4  38 100  63 101  74 100  84 101
M  END
> <Batch ID>
0137

> <Smiles>
CCCc1cc(CCC(C)(C)[101CH2:1][101O:1]c2ccc3c(c2)CN(C(=O)C(NC(=O)C(C)NC)C(C)(C)C)C(C(=O)NC2CCCc4ccccc42)C3)c(F)cc1[100NH:0][100C:0](=O)N1CCCC(n2nc(-c3ccc(Oc4ccc(F)cc4F)cc3)c(C(N)=O)c2N)C1

> <Shape>
0.286

> <Color>
0.053

> <Negative vol penalty>
0.000

$$$$

  -OEChem-04052302423D

 84 92  0     1  0  0  0  0  0999 V2000
  -35.2252  -32.2542   21.3191 C   0  0  0  0  0  0  0  0  0  0  0  0
  -34.7565  -31.1351   21.9997 C   0  0  0  0  0  0  0  0  0  0  0  0
  -23.0874   -9.8895   19.9091 C   0  0  0  0  0  0  0  0  0  0  0  0
  -23.8674   -9.8434   22.1952 C   0  0  0  0  0  0  0  0  0  0  0  0
  -34.5309  -32.7356   20.2100 C   0  0  0  0  0  0  0  0  0  0  0  0
  -33.5924  -30.4974   21.5723 C   0  0  0  0  0  0  0  0  0  0  0  0
  -34.0626  -25.4561   21.4756 C   0  0  0  0  0  0  0  0  0  0  0  0
  -32.6420  -17.4891   23.5199 C   0  0  0  0  0  0  0  0  0  0  0  0
  -32.0362  -16.6304   22.6027 C   0  0  0  0  0  0  0  0  0  0  0  0
  -22.3565   -8.7232   20.1349 C   0  0  0  0  0  0  0  0  0  0  0  0
  -23.1364   -8.6771   22.4211 C   0  0  0  0  0  0  0  0  0  0  0  0
  -33.9741  -24.7849   22.6944 C   0  0  0  0  0  0  0  0  0  0  0  0
  -19.9212   -7.8332   23.0301 C   0  0  0  0  0  0  0  0  0  0  0  0
  -19.1751   -7.7553   24.2060 C   0  0  0  0  0  0  0  0  0  0  0  0
  -31.6829  -24.2105   22.2049 C   0  0  0  0  0  0  0  0  0  0  0  0
  -30.4707  -18.3230   24.1734 C   0  0  0  0  0  0  0  0  0  0  0  0
  -20.4408   -5.8110   24.8804 C   0  0  0  0  0  0  0  0  0  0  0  0
  -23.8430  -10.4496   20.9392 C   0  0  0  0  0  0  0  0  0  0  0  0
  -24.1604  -12.9801   20.8829 C   0  0  0  0  0  0  0  0  0  0  0  0
  -33.3630  -32.0977   19.7629 C   0  0  0  0  0  0  0  0  0  0  0  0
  -32.9566  -25.5189   20.6158 C   0  0  0  0  0  0  0  0  0  0  0  0
  -32.8811  -30.9715   20.4570 C   0  0  0  0  0  0  0  0  0  0  0  0
  -31.7607  -24.8809   20.9747 C   0  0  0  0  0  0  0  0  0  0  0  0
  -31.8593  -18.3354   24.3053 C   0  0  0  0  0  0  0  0  0  0  0  0
  -29.8649  -17.4644   23.2562 C   0  0  0  0  0  0  0  0  0  0  0  0
  -30.6476  -16.6181   22.4708 C   0  0  0  0  0  0  0  0  0  0  0  0
  -22.3810   -8.1170   21.3909 C   0  0  0  0  0  0  0  0  0  0  0  0
  -32.7833  -24.1644   23.0605 C   0  0  0  0  0  0  0  0  0  0  0  0
  -20.9272   -6.8999   22.7793 C   0  0  0  0  0  0  0  0  0  0  0  0
  -19.4348   -6.7443   25.1311 C   0  0  0  0  0  0  0  0  0  0  0  0
  -21.1869   -5.8889   23.7045 C   0  0  0  0  0  0  0  0  0  0  0  0
  -24.5987  -11.6540   20.7064 C   0  0  0  0  0  0  0  0  0  0  0  0
  -25.2423  -13.7492   20.5301 C   0  0  0  0  0  0  0  0  0  0  0  0
  -22.8889  -13.4727   21.3261 C   0  0  0  0  0  0  0  0  0  0  0  0
  -31.1660  -27.8633   19.4320 C   0  0  0  0  0  0  0  0  0  0  0  0
  -29.8270  -25.4521   17.7246 C   0  0  0  0  0  0  0  0  0  0  0  0
  -29.1620  -22.1157   17.4535 C   0  0  0  0  0  0  0  0  0  0  0  0
  -30.6999  -14.8416   20.6854 C   0  0  0  0  0  0  0  0  0  0  0  0
  -32.6206  -32.6830   18.5878 C   0  0  0  0  0  0  0  0  0  0  0  0
  -33.0764  -26.2241   19.2926 C   0  0  0  0  0  0  0  0  0  0  0  0
  -30.5506  -24.9019   20.0781 C   0  0  0  0  0  0  0  0  0  0  0  0
  -31.6017  -31.7266   17.9735 C   0  0  0  0  0  0  0  0  0  0  0  0
  -29.5870  -12.4804   18.2640 C   0  0  0  0  0  0  0  0  0  0  0  0
  -30.7609  -31.0700   19.0637 C   0  0  0  0  0  0  0  0  0  0  0  0
  -28.1540  -12.1640   18.6980 C   0  0  0  0  0  0  0  0  0  0  0  0
  -30.5105  -12.6862   19.4633 C   0  0  0  0  0  0  0  0  0  0  0  0
  -28.6092  -13.3560   20.8795 C   0  0  0  0  0  0  0  0  0  0  0  0
  -31.6358  -30.2376   20.0090 C   0  0  1  0  0  0  0  0  0  0  0  0
  -31.7299  -26.6631   18.7254 C   0  0  1  0  0  0  0  0  0  0  0  0
  -27.6277  -13.2046   19.7059 C   0  0  2  0  0  0  0  0  0  0  0  0
  -28.3755  -17.4745   23.1339 C   0  0  0  0  0  0  0  0  0  0  0  0
  -28.0169  -20.4498   15.9667 C   0  0  0  0  0  0  0  0  0  0  0  0
  -27.1171  -26.3802   18.7758 C   0  0  0  0  0  0  0  0  0  0  0  0
  -26.1636  -24.1786   18.0603 C   0  0  0  0  0  0  0  0  0  0  0  0
  -27.1317  -25.7277   16.3616 C   0  0  0  0  0  0  0  0  0  0  0  0
  -34.9001  -21.0410   26.0959 C   0  0  0  0  0  0  0  0  0  0  0  0
  -32.7022  -22.0416   26.7708 C   0  0  0  0  0  0  0  0  0  0  0  0
  -31.6848  -20.6498   16.9580 C   0  0  0  0  0  0  0  0  0  0  0  0
  -32.5153  -19.2665   25.2963 C   0  0  0  0  0  0  0  0  0  0  0  0
  -32.8449  -20.6221   24.6560 C   0  0  0  0  0  0  0  0  0  0  0  0
  -33.8905  -22.9205   24.7584 C   0  0  0  0  0  0  0  0  0  1  0  0
  -28.6765  -24.4991   17.9416 C   0  0  1  0  0  0  0  0  0  0  0  0
  -29.3277  -21.1463   16.2972 C   0  0  2  0  0  0  0  0  0  0  0  0
  -27.2943  -25.1975   17.8028 C   0  0  0  0  0  0  0  0  0  0  0  0
  -33.5813  -21.6402   25.5730 C   0  0  0  0  0  0  0  0  0  0  0  0
  -25.8606  -11.5812   20.2749 N   0  0  0  0  0  0  0  0  0  0  0  0
  -26.2245  -12.8712   20.1772 N   0  0  0  0  0  0  0  0  0  0  0  0
  -30.7156  -25.6095   18.7976 N   0  0  0  0  0  0  0  0  0  0  0  0
  -29.9498  -13.6883   20.3723 N   0  0  0  0  0  0  0  0  0  0  0  0
  -25.4397  -15.0841   20.4904 N   0  0  0  0  0  0  0  0  0  0  0  0
  -21.8885  -12.5454   21.6480 N   0  0  0  0  0  0  0  0  0  0  0  0
  -30.0513  -15.7386   21.5334 N   0  0  0  0  0  0  0  0  0  0  0  0
  -31.9855  -28.9753   19.3936 N   0  0  0  0  0  0  0  0  0  0  0  0
  -28.8826  -23.3923   17.0137 N   0  0  0  0  0  0  0  0  0  0  0  0
  -30.3406  -20.1063   16.6342 N   0  3  0  0  0  0  0  0  0  0  0  0
  -22.6418  -14.6991   21.4179 O   0  0  0  0  0  0  0  0  0  0  0  0
  -30.0680  -27.7867   19.9707 O   0  0  0  0  0  0  0  0  0  0  0  0
  -29.9374  -26.0299   16.6403 O   0  0  0  0  0  0  0  0  0  0  0  0
  -29.2661  -21.7739   18.6295 O   0  0  0  0  0  0  0  0  0  0  0  0
  -31.8232  -15.0332   20.2127 O   0  0  0  0  0  0  0  0  0  0  0  0
  -21.6676   -6.9790   21.6117 O   0  0  0  0  0  0  0  0  0  0  0  0
  -32.6941  -23.5091   24.2499 O   0  0  0  0  0  0  0  0  0  1  0  0
  -18.7192   -6.6706   26.2610 F   0  0  0  0  0  0  0  0  0  0  0  0
  -22.1528   -4.9902   23.4696 F   0  0  0  0  0  0  0  0  0  0  0  0
  1  2  1  0  0  0  0
  1  5  2  0  0  0  0
  2  6  2  0  0  0  0
  3 10  2  0  0  0  0
  3 18  1  0  0  0  0
  4 11  1  0  0  0  0
  4 18  2  0  0  0  0
  5 20  1  0  0  0  0
  6 22  1  0  0  0  0
  7 12  2  0  0  0  0
  7 21  1  0  0  0  0
  8  9  2  0  0  0  0
  8 24  1  0  0  0  0
  9 26  1  0  0  0  0
 10 27  1  0  0  0  0
 11 27  2  0  0  0  0
 12 28  1  0  0  0  0
 13 14  2  0  0  0  0
 13 29  1  0  0  0  0
 14 30  1  0  0  0  0
 15 23  1  0  0  0  0
 15 28  2  0  0  0  0
 16 24  2  0  0  0  0
 16 25  1  0  0  0  0
 17 30  2  0  0  0  0
 17 31  1  0  0  0  0
 18 32  1  0  0  0  0
 19 32  1  0  0  0  0
 19 33  2  0  0  0  0
 19 34  1  0  0  0  0
 20 22  2  0  0  0  0
 20 39  1  0  0  0  0
 21 23  2  0  0  0  0
 21 40  1  0  0  0  0
 22 48  1  0  0  0  0
 23 41  1  0  0  0  0
 24 59  1  0  0  0  0
 25 26  2  0  0  0  0
 25 51  1  0  0  0  0
 26 72  1  0  0  0  0
 27 81  1  0  0  0  0
 28 82  1  0  0  0  0
 29 31  2  0  0  0  0
 29 81  1  0  0  0  0
 30 83  1  0  0  0  0
 31 84  1  0  0  0  0
 32 66  2  0  0  0  0
 33 67  1  0  0  0  0
 33 70  1  0  0  0  0
 34 71  1  0  0  0  0
 34 76  2  0  0  0  0
 35 49  1  0  0  0  0
 35 73  1  0  0  0  0
 35 77  2  0  0  0  0
 36 62  1  0  0  0  0
 36 68  1  0  0  0  0
 36 78  2  0  0  0  0
 37 63  1  0  0  0  0
 37 74  1  0  0  0  0
 37 79  2  0  0  0  0
 38 69  1  0  0  0  0
 38 72  1  0  0  0  0
 38 80  2  0  0  0  0
 39 42  1  0  0  0  0
 40 49  1  0  0  0  0
 41 68  1  0  0  0  0
 42 44  1  0  0  0  0
 43 45  1  0  0  0  0
 43 46  1  0  0  0  0
 44 48  1  0  0  0  0
 45 50  1  0  0  0  0
 46 69  1  0  0  0  0
 47 50  1  0  0  0  0
 47 69  1  0  0  0  0
 48 73  1  0  0  0  0
 49 68  1  0  0  0  0
 50 67  1  0  0  0  0
 52 63  1  0  0  0  0
 53 64  1  0  0  0  0
 54 64  1  0  0  0  0
 55 64  1  0  0  0  0
 56 65  1  0  0  0  0
 57 65  1  0  0  0  0
 58 75  1  0  0  0  0
 59 60  1  0  0  0  0
 60 65  1  0  0  0  0
 61 65  1  0  0  0  0
 61 82  1  0  0  0  0
 62 64  1  0  0  0  0
 62 74  1  0  0  0  0
 63 75  1  0  0  0  0
 66 67  1  0  0  0  0
M  CHG  1  75   1
M  ISO  4  38 100  61 101  72 100  82 101
M  END
> <Batch ID>
0137

> <Smiles>
CNC(C)C(=O)NC(C(=O)N1Cc2cc([101O:1][101CH2:1]C(C)(C)CCc3ccc([100NH:0][100C:0](=O)N4CCCC(n5nc(-c6ccc(Oc7ccc(F)cc7F)cc6)c(C(N)=O)c5N)C4)c(C)c3)ccc2CC1C(=O)NC1CCCc2ccccc21)C(C)(C)C

> <Shape>
0.233

> <Color>
0.201

> <Negative vol penalty>
0.000

$$$$

  -OEChem-04052302423D

 85 93  0     1  0  0  0  0  0999 V2000
  -17.0854  -27.1301   23.9466 C   0  0  0  0  0  0  0  0  0  0  0  0
  -17.6404  -26.8588   22.7001 C   0  0  0  0  0  0  0  0  0  0  0  0
  -24.4209   -9.3850   21.7720 C   0  0  0  0  0  0  0  0  0  0  0  0
  -22.7944  -10.2822   20.2272 C   0  0  0  0  0  0  0  0  0  0  0  0
  -17.5007  -28.2510   24.6642 C   0  0  0  0  0  0  0  0  0  0  0  0
  -18.6102  -27.7089   22.1700 C   0  0  0  0  0  0  0  0  0  0  0  0
  -22.5155  -25.1874   20.1610 C   0  0  0  0  0  0  0  0  0  0  0  0
  -25.0218  -21.6184   18.2876 C   0  0  0  0  0  0  0  0  0  0  0  0
  -25.1035  -20.6187   19.2568 C   0  0  0  0  0  0  0  0  0  0  0  0
  -23.6426   -8.2376   21.9251 C   0  0  0  0  0  0  0  0  0  0  0  0
  -22.0161   -9.1348   20.3801 C   0  0  0  0  0  0  0  0  0  0  0  0
  -22.3289  -24.6251   18.8990 C   0  0  0  0  0  0  0  0  0  0  0  0
  -20.8649   -7.3200   23.6182 C   0  0  0  0  0  0  0  0  0  0  0  0
  -20.6671   -6.8398   24.9127 C   0  0  0  0  0  0  0  0  0  0  0  0
  -23.4965  -26.4866   17.9036 C   0  0  0  0  0  0  0  0  0  0  0  0
  -25.9267  -20.0977   16.6427 C   0  0  0  0  0  0  0  0  0  0  0  0
  -21.7083   -4.7487   24.2962 C   0  0  0  0  0  0  0  0  0  0  0  0
  -23.9967  -10.4073   20.9231 C   0  0  0  0  0  0  0  0  0  0  0  0
  -25.8187  -11.8097   19.8180 C   0  0  0  0  0  0  0  0  0  0  0  0
  -18.4831  -29.1100   24.1469 C   0  0  0  0  0  0  0  0  0  0  0  0
  -23.1856  -26.4109   20.3031 C   0  0  0  0  0  0  0  0  0  0  0  0
  -19.0381  -28.8431   22.8808 C   0  0  0  0  0  0  0  0  0  0  0  0
  -23.6926  -27.0610   19.1688 C   0  0  0  0  0  0  0  0  0  0  0  0
  -25.4334  -21.3580   16.9805 C   0  0  0  0  0  0  0  0  0  0  0  0
  -25.5968  -19.3585   18.9190 C   0  0  0  0  0  0  0  0  0  0  0  0
  -22.4403   -8.1125   21.2291 C   0  0  0  0  0  0  0  0  0  0  0  0
  -22.8169  -25.2761   17.7698 C   0  0  0  0  0  0  0  0  0  0  0  0
  -21.4844   -6.5145   22.6626 C   0  0  0  0  0  0  0  0  0  0  0  0
  -21.0888   -5.5542   25.2518 C   0  0  0  0  0  0  0  0  0  0  0  0
  -26.0084  -19.0979   17.6119 C   0  0  0  0  0  0  0  0  0  0  0  0
  -21.9061   -5.2288   23.0016 C   0  0  0  0  0  0  0  0  0  0  0  0
  -24.7999  -11.5931   20.7651 C   0  0  0  0  0  0  0  0  0  0  0  0
  -26.2680  -13.0806   20.0817 C   0  0  0  0  0  0  0  0  0  0  0  0
  -26.3145  -10.9400   18.7916 C   0  0  0  0  0  0  0  0  0  0  0  0
  -22.3957  -29.2866   21.4033 C   0  0  0  0  0  0  0  0  0  0  0  0
  -25.5462  -29.9016   20.9361 C   0  0  0  0  0  0  0  0  0  0  0  0
  -28.4363  -29.1297   19.2934 C   0  0  0  0  0  0  0  0  0  0  0  0
  -25.3127  -18.4407   21.2478 C   0  0  0  0  0  0  0  0  0  0  0  0
  -18.8658  -30.3354   24.9385 C   0  0  0  0  0  0  0  0  0  0  0  0
  -23.4022  -26.9910   21.6739 C   0  0  0  0  0  0  0  0  0  0  0  0
  -24.4368  -28.3666   19.2693 C   0  0  0  0  0  0  0  0  0  0  0  0
  -20.1689  -30.9794   24.4721 C   0  0  0  0  0  0  0  0  0  0  0  0
  -25.3271  -16.1633   23.9847 C   0  0  0  0  0  0  0  0  0  0  0  0
  -20.1878  -31.1056   22.9520 C   0  0  0  0  0  0  0  0  0  0  0  0
  -25.2751  -14.7891   23.3132 C   0  0  0  0  0  0  0  0  0  0  0  0
  -24.4872  -17.1942   23.2327 C   0  0  0  0  0  0  0  0  0  0  0  0
  -24.7332  -15.9376   21.1281 C   0  0  0  0  0  0  0  0  0  0  0  0
  -20.1105  -29.7279   22.2831 C   0  0  1  0  0  0  0  0  0  0  0  0
  -23.6489  -28.4963   21.6536 C   0  0  1  0  0  0  0  0  0  0  0  0
  -25.6163  -14.8817   21.8130 C   0  0  2  0  0  0  0  0  0  0  0  0
  -30.8373  -29.8320   19.0951 C   0  0  0  0  0  0  0  0  0  0  0  0
  -23.9558  -21.3027   14.1551 C   0  0  0  0  0  0  0  0  0  0  0  0
  -24.7000  -32.3164   19.2740 C   0  0  0  0  0  0  0  0  0  0  0  0
  -27.0232  -32.4034   18.3449 C   0  0  0  0  0  0  0  0  0  0  0  0
  -26.6468  -32.7240   20.7899 C   0  0  0  0  0  0  0  0  0  0  0  0
  -24.7653  -24.2642   13.4529 C   0  0  0  0  0  0  0  0  0  0  0  0
  -22.3245  -23.8321   13.7754 C   0  0  0  0  0  0  0  0  0  0  0  0
  -29.4058  -26.4857   20.2036 C   0  0  0  0  0  0  0  0  0  0  0  0
  -25.3460  -22.4423   15.9295 C   0  0  0  0  0  0  0  0  0  0  0  0
  -23.6297  -25.0066   15.5510 C   0  0  0  0  0  0  0  0  0  1  0  0
  -26.3752  -30.4197   19.7857 C   0  0  1  0  0  0  0  0  0  0  0  0
  -29.8520  -28.9091   19.7951 C   0  0  2  0  0  0  0  0  0  0  0  0
  -23.9973  -22.4714   15.1595 C   0  0  1  0  0  0  0  0  0  0  0  0
  -26.1706  -31.9422   19.5462 C   0  0  0  0  0  0  0  0  0  0  0  0
  -23.6960  -23.8731   14.4921 C   0  0  0  0  0  0  0  0  0  0  0  0
  -24.6130  -12.6421   21.5704 N   0  0  0  0  0  0  0  0  0  0  0  0
  -25.5204  -13.5302   21.1301 N   0  0  0  0  0  0  0  0  0  0  0  0
  -24.6175  -28.8966   20.6309 N   0  0  0  0  0  0  0  0  0  0  0  0
  -24.8688  -17.2294   21.8192 N   0  0  0  0  0  0  0  0  0  0  0  0
  -27.2258  -13.8461   19.5169 N   0  0  0  0  0  0  0  0  0  0  0  0
  -25.7405   -9.6684   18.6586 N   0  0  0  0  0  0  0  0  0  0  0  0
  -25.6791  -18.3449   19.9057 N   0  0  0  0  0  0  0  0  0  0  0  0
  -21.3978  -29.0684   22.3339 N   0  0  0  0  0  0  0  0  0  0  0  0
  -27.7543  -30.0399   20.0729 N   0  0  0  0  0  0  0  0  0  0  0  0
  -30.2738  -27.5005   19.5527 N   0  3  0  0  0  0  0  0  0  0  0  0
  -27.2503  -11.2743   18.0261 O   0  0  0  0  0  0  0  0  0  0  0  0
  -22.3389  -30.0396   20.4383 O   0  0  0  0  0  0  0  0  0  0  0  0
  -25.7214  -30.3664   22.0652 O   0  0  0  0  0  0  0  0  0  0  0  0
  -27.9822  -28.5550   18.3065 O   0  0  0  0  0  0  0  0  0  0  0  0
  -25.3898  -19.4799   21.9082 O   0  0  0  0  0  0  0  0  0  0  0  0
  -21.6807   -6.9929   21.3780 O   0  0  0  0  0  0  0  0  0  0  0  0
  -22.6355  -24.7298   16.5367 O   0  0  0  0  0  0  0  0  0  1  0  0
  -20.9002   -5.0938   26.4954 F   0  0  0  0  0  0  0  0  0  0  0  0
  -26.4855  -17.8908   17.2764 F   0  0  0  0  0  0  0  0  0  0  0  0
  -22.5029   -4.4508   22.0882 F   0  0  0  0  0  0  0  0  0  0  0  0
  1  2  1  0  0  0  0
  1  5  2  0  0  0  0
  2  6  2  0  0  0  0
  3 10  2  0  0  0  0
  3 18  1  0  0  0  0
  4 11  1  0  0  0  0
  4 18  2  0  0  0  0
  5 20  1  0  0  0  0
  6 22  1  0  0  0  0
  7 12  2  0  0  0  0
  7 21  1  0  0  0  0
  8  9  2  0  0  0  0
  8 24  1  0  0  0  0
  9 25  1  0  0  0  0
 10 26  1  0  0  0  0
 11 26  2  0  0  0  0
 12 27  1  0  0  0  0
 13 14  2  0  0  0  0
 13 28  1  0  0  0  0
 14 29  1  0  0  0  0
 15 23  1  0  0  0  0
 15 27  2  0  0  0  0
 16 24  2  0  0  0  0
 16 30  1  0  0  0  0
 17 29  2  0  0  0  0
 17 31  1  0  0  0  0
 18 32  1  0  0  0  0
 19 32  1  0  0  0  0
 19 33  2  0  0  0  0
 19 34  1  0  0  0  0
 20 22  2  0  0  0  0
 20 39  1  0  0  0  0
 21 23  2  0  0  0  0
 21 40  1  0  0  0  0
 22 48  1  0  0  0  0
 23 41  1  0  0  0  0
 24 59  1  0  0  0  0
 25 30  2  0  0  0  0
 25 72  1  0  0  0  0
 26 81  1  0  0  0  0
 27 82  1  0  0  0  0
 28 31  2  0  0  0  0
 28 81  1  0  0  0  0
 29 83  1  0  0  0  0
 30 84  1  0  0  0  0
 31 85  1  0  0  0  0
 32 66  2  0  0  0  0
 33 67  1  0  0  0  0
 33 70  1  0  0  0  0
 34 71  1  0  0  0  0
 34 76  2  0  0  0  0
 35 49  1  0  0  0  0
 35 73  1  0  0  0  0
 35 77  2  0  0  0  0
 36 61  1  0  0  0  0
 36 68  1  0  0  0  0
 36 78  2  0  0  0  0
 37 62  1  0  0  0  0
 37 74  1  0  0  0  0
 37 79  2  0  0  0  0
 38 69  1  0  0  0  0
 38 72  1  0  0  0  0
 38 80  2  0  0  0  0
 39 42  1  0  0  0  0
 40 49  1  0  0  0  0
 41 68  1  0  0  0  0
 42 44  1  0  0  0  0
 43 45  1  0  0  0  0
 43 46  1  0  0  0  0
 44 48  1  0  0  0  0
 45 50  1  0  0  0  0
 46 69  1  0  0  0  0
 47 50  1  0  0  0  0
 47 69  1  0  0  0  0
 48 73  1  0  0  0  0
 49 68  1  0  0  0  0
 50 67  1  0  0  0  0
 51 62  1  0  0  0  0
 52 63  1  0  0  0  0
 53 64  1  0  0  0  0
 54 64  1  0  0  0  0
 55 64  1  0  0  0  0
 56 65  1  0  0  0  0
 57 65  1  0  0  0  0
 58 75  1  0  0  0  0
 59 63  1  0  0  0  0
 60 65  1  0  0  0  0
 60 82  1  0  0  0  0
 61 64  1  0  0  0  0
 61 74  1  0  0  0  0
 62 75  1  0  0  0  0
 63 65  1  0  0  0  0
 66 67  1  0  0  0  0
M  CHG  1  75   1
M  ISO  4  38 100  60 101  72 100  82 101
M  END
> <Batch ID>
0137

> <Smiles>
CNC(C)C(=O)NC(C(=O)N1Cc2cc([101O:1][101CH2:1]C(C)(C)C(C)Cc3ccc([100NH:0][100C:0](=O)N4CCCC(n5nc(-c6ccc(Oc7ccc(F)cc7F)cc6)c(C(N)=O)c5N)C4)c(F)c3)ccc2CC1C(=O)NC1CCCc2ccccc21)C(C)(C)C

> <Shape>
0.243

> <Color>
0.088

> <Negative vol penalty>
0.000

$$$$

  -OEChem-04052302423D

 86 94  0     1  0  0  0  0  0999 V2000
  -18.5308  -27.7995   23.3439 C   0  0  0  0  0  0  0  0  0  0  0  0
  -19.7957  -27.9231   23.9097 C   0  0  0  0  0  0  0  0  0  0  0  0
  -24.7014  -10.3844   23.1007 C   0  0  0  0  0  0  0  0  0  0  0  0
  -24.4212  -12.0977   24.7809 C   0  0  0  0  0  0  0  0  0  0  0  0
  -18.3950  -27.3257   22.0397 C   0  0  0  0  0  0  0  0  0  0  0  0
  -20.9256  -27.5720   23.1718 C   0  0  0  0  0  0  0  0  0  0  0  0
  -27.7991  -29.3843   22.2844 C   0  0  0  0  0  0  0  0  0  0  0  0
  -28.0125  -22.7066   20.9084 C   0  0  0  0  0  0  0  0  0  0  0  0
  -26.8759  -21.9287   20.6881 C   0  0  0  0  0  0  0  0  0  0  0  0
  -24.3062   -9.4154   24.0229 C   0  0  0  0  0  0  0  0  0  0  0  0
  -24.0260  -11.1287   25.7032 C   0  0  0  0  0  0  0  0  0  0  0  0
  -29.0710  -28.8134   22.2756 C   0  0  0  0  0  0  0  0  0  0  0  0
  -21.4140   -8.2725   25.3504 C   0  0  0  0  0  0  0  0  0  0  0  0
  -20.4986   -7.3093   24.9264 C   0  0  0  0  0  0  0  0  0  0  0  0
  -28.7203  -28.0815   20.0040 C   0  0  0  0  0  0  0  0  0  0  0  0
  -29.3660  -20.7069   20.9872 C   0  0  0  0  0  0  0  0  0  0  0  0
  -22.1055   -5.5704   25.4077 C   0  0  0  0  0  0  0  0  0  0  0  0
  -24.7589  -11.7255   23.4797 C   0  0  0  0  0  0  0  0  0  0  0  0
  -24.3406  -13.4529   21.6498 C   0  0  0  0  0  0  0  0  0  0  0  0
  -19.5244  -26.9777   21.2821 C   0  0  0  0  0  0  0  0  0  0  0  0
  -26.9726  -29.2985   21.1548 C   0  0  0  0  0  0  0  0  0  0  0  0
  -20.8047  -27.0918   21.8567 C   0  0  0  0  0  0  0  0  0  0  0  0
  -27.4393  -28.6544   20.0000 C   0  0  0  0  0  0  0  0  0  0  0  0
  -29.2576  -22.0958   21.0579 C   0  0  0  0  0  0  0  0  0  0  0  0
  -26.9844  -20.5399   20.6173 C   0  0  0  0  0  0  0  0  0  0  0  0
  -28.2294  -19.9289   20.7669 C   0  0  0  0  0  0  0  0  0  0  0  0
  -23.9685   -9.7875   25.3241 C   0  0  0  0  0  0  0  0  0  0  0  0
  -29.5307  -28.1594   21.1363 C   0  0  0  0  0  0  0  0  0  0  0  0
  -22.6752   -7.8848   25.8029 C   0  0  0  0  0  0  0  0  0  0  0  0
  -20.8443   -5.9582   24.9551 C   0  0  0  0  0  0  0  0  0  0  0  0
  -23.0209   -6.5337   25.8316 C   0  0  0  0  0  0  0  0  0  0  0  0
  -25.1676  -12.7269   22.5277 C   0  0  0  0  0  0  0  0  0  0  0  0
  -25.2040  -14.2700   20.9617 C   0  0  0  0  0  0  0  0  0  0  0  0
  -22.9191  -13.3941   21.4722 C   0  0  0  0  0  0  0  0  0  0  0  0
  -24.1375  -27.9977   20.5433 C   0  0  0  0  0  0  0  0  0  0  0  0
  -32.0462  -25.5588   20.8786 C   0  0  0  0  0  0  0  0  0  0  0  0
  -24.5114  -29.4772   17.6809 C   0  0  0  0  0  0  0  0  0  0  0  0
  -26.6339  -30.7949   15.3560 C   0  0  0  0  0  0  0  0  0  0  0  0
  -29.5304  -17.7725   20.8265 C   0  0  0  0  0  0  0  0  0  0  0  0
  -19.3247  -26.4255   19.8929 C   0  0  0  0  0  0  0  0  0  0  0  0
  -25.6135  -29.9427   21.1711 C   0  0  0  0  0  0  0  0  0  0  0  0
  -26.5989  -28.5524   18.7544 C   0  0  0  0  0  0  0  0  0  0  0  0
  -20.5957  -26.4294   19.0474 C   0  0  0  0  0  0  0  0  0  0  0  0
  -30.2615  -14.2886   20.7543 C   0  0  0  0  0  0  0  0  0  0  0  0
  -21.7709  -25.8770   19.8476 C   0  0  0  0  0  0  0  0  0  0  0  0
  -28.9334  -13.6314   21.1371 C   0  0  0  0  0  0  0  0  0  0  0  0
  -30.4925  -15.5893   21.5215 C   0  0  0  0  0  0  0  0  0  0  0  0
  -28.0677  -15.9052   21.8211 C   0  0  0  0  0  0  0  0  0  0  0  0
  -22.0560  -26.7445   21.0795 C   0  0  1  0  0  0  0  0  0  0  0  0
  -24.6582  -29.3485   20.1408 C   0  0  1  0  0  0  0  0  0  0  0  0
  -27.7605  -14.6252   21.0267 C   0  0  2  0  0  0  0  0  0  0  0  0
  -25.7499  -19.7316   20.3812 C   0  0  0  0  0  0  0  0  0  0  0  0
  -26.6476  -31.8980   13.1020 C   0  0  0  0  0  0  0  0  0  0  0  0
  -33.5217  -23.5135   20.8759 C   0  0  0  0  0  0  0  0  0  0  0  0
  -32.9261  -24.6215   18.7291 C   0  0  0  0  0  0  0  0  0  0  0  0
  -23.9958  -26.7762   16.3586 C   0  0  0  0  0  0  0  0  0  0  0  0
  -24.9436  -27.7115   14.2385 C   0  0  0  0  0  0  0  0  0  0  0  0
  -22.8889  -28.7164   15.2341 C   0  0  0  0  0  0  0  0  0  0  0  0
  -27.8696  -33.2563   16.4393 C   0  0  0  0  0  0  0  0  0  0  0  0
  -30.4866  -22.9381   21.2961 C   0  0  0  0  0  0  0  0  0  0  0  0
  -30.9593  -26.4521   20.2995 C   0  0  0  0  0  0  0  0  0  1  0  0
  -31.1559  -23.3395   19.9739 C   0  0  0  0  0  0  0  0  0  0  0  0
  -25.1232  -29.0989   16.3537 C   0  0  1  0  0  0  0  0  0  0  0  0
  -26.6134  -32.1151   14.6068 C   0  0  2  0  0  0  0  0  0  0  0  0
  -32.3966  -24.2541   20.1269 C   0  0  0  0  0  0  0  0  0  0  0  0
  -24.2532  -28.0758   15.5702 C   0  0  0  0  0  0  0  0  0  0  0  0
  -26.4573  -13.0539   22.4101 N   0  0  0  0  0  0  0  0  0  0  0  0
  -26.4472  -13.9943   21.4501 N   0  0  0  0  0  0  0  0  0  0  0  0
  -25.2749  -29.1927   18.8219 N   0  0  0  0  0  0  0  0  0  0  0  0
  -29.3425  -16.4830   21.3675 N   0  0  0  0  0  0  0  0  0  0  0  0
  -25.0134  -15.1903   19.9926 N   0  0  0  0  0  0  0  0  0  0  0  0
  -22.1837  -12.4991   22.2612 N   0  0  0  0  0  0  0  0  0  0  0  0
  -28.3601  -18.5197   20.6975 N   0  0  0  0  0  0  0  0  0  0  0  0
  -22.7653  -27.9469   20.6978 N   0  0  0  0  0  0  0  0  0  0  0  0
  -25.3605  -30.3501   15.6420 N   0  0  0  0  0  0  0  0  0  0  0  0
  -27.7902  -32.9458   14.9887 N   0  3  0  0  0  0  0  0  0  0  0  0
  -22.3208  -14.1020   20.6270 O   0  0  0  0  0  0  0  0  0  0  0  0
  -24.9224  -27.0699   20.7005 O   0  0  0  0  0  0  0  0  0  0  0  0
  -32.6309  -25.8808   21.9160 O   0  0  0  0  0  0  0  0  0  0  0  0
  -23.4001  -30.0123   17.7039 O   0  0  0  0  0  0  0  0  0  0  0  0
  -27.6754  -30.2144   15.6541 O   0  0  0  0  0  0  0  0  0  0  0  0
  -30.6432  -18.1735   20.4762 O   0  0  0  0  0  0  0  0  0  0  0  0
  -23.5826   -8.8422   26.2242 O   0  0  0  0  0  0  0  0  0  0  0  0
  -30.7715  -27.6007   21.1253 O   0  0  0  0  0  0  0  0  0  1  0  0
  -19.9646   -5.0332   24.5494 F   0  0  0  0  0  0  0  0  0  0  0  0
  -24.2306   -6.1550   26.2665 F   0  0  0  0  0  0  0  0  0  0  0  0
  1  2  1  0  0  0  0
  1  5  2  0  0  0  0
  2  6  2  0  0  0  0
  3 10  2  0  0  0  0
  3 18  1  0  0  0  0
  4 11  1  0  0  0  0
  4 18  2  0  0  0  0
  5 20  1  0  0  0  0
  6 22  1  0  0  0  0
  7 12  2  0  0  0  0
  7 21  1  0  0  0  0
  8  9  2  0  0  0  0
  8 24  1  0  0  0  0
  9 25  1  0  0  0  0
 10 27  1  0  0  0  0
 11 27  2  0  0  0  0
 12 28  1  0  0  0  0
 13 14  2  0  0  0  0
 13 29  1  0  0  0  0
 14 30  1  0  0  0  0
 15 23  1  0  0  0  0
 15 28  2  0  0  0  0
 16 24  2  0  0  0  0
 16 26  1  0  0  0  0
 17 30  2  0  0  0  0
 17 31  1  0  0  0  0
 18 32  1  0  0  0  0
 19 32  1  0  0  0  0
 19 33  2  0  0  0  0
 19 34  1  0  0  0  0
 20 22  2  0  0  0  0
 20 40  1  0  0  0  0
 21 23  2  0  0  0  0
 21 41  1  0  0  0  0
 22 49  1  0  0  0  0
 23 42  1  0  0  0  0
 24 60  1  0  0  0  0
 25 26  2  0  0  0  0
 25 52  1  0  0  0  0
 26 73  1  0  0  0  0
 27 83  1  0  0  0  0
 28 84  1  0  0  0  0
 29 31  2  0  0  0  0
 29 83  1  0  0  0  0
 30 85  1  0  0  0  0
 31 86  1  0  0  0  0
 32 67  2  0  0  0  0
 33 68  1  0  0  0  0
 33 71  1  0  0  0  0
 34 72  1  0  0  0  0
 34 77  2  0  0  0  0
 35 50  1  0  0  0  0
 35 74  1  0  0  0  0
 35 78  2  0  0  0  0
 36 61  1  0  0  0  0
 36 65  1  0  0  0  0
 36 79  2  0  0  0  0
 37 63  1  0  0  0  0
 37 69  1  0  0  0  0
 37 80  2  0  0  0  0
 38 64  1  0  0  0  0
 38 75  1  0  0  0  0
 38 81  2  0  0  0  0
 39 70  1  0  0  0  0
 39 73  1  0  0  0  0
 39 82  2  0  0  0  0
 40 43  1  0  0  0  0
 41 50  1  0  0  0  0
 42 69  1  0  0  0  0
 43 45  1  0  0  0  0
 44 46  1  0  0  0  0
 44 47  1  0  0  0  0
 45 49  1  0  0  0  0
 46 51  1  0  0  0  0
 47 70  1  0  0  0  0
 48 51  1  0  0  0  0
 48 70  1  0  0  0  0
 49 74  1  0  0  0  0
 50 69  1  0  0  0  0
 51 68  1  0  0  0  0
 53 64  1  0  0  0  0
 54 65  1  0  0  0  0
 55 65  1  0  0  0  0
 56 66  1  0  0  0  0
 57 66  1  0  0  0  0
 58 66  1  0  0  0  0
 59 76  1  0  0  0  0
 60 62  1  0  0  0  0
 61 84  1  0  0  0  0
 62 65  1  0  0  0  0
 63 66  1  0  0  0  0
 63 75  1  0  0  0  0
 64 76  1  0  0  0  0
 67 68  1  0  0  0  0
M  CHG  1  76   1
M  ISO  4  39 100  61 101  73 100  84 101
M  END
> <Batch ID>
0137

> <Smiles>
CNC(C)C(=O)NC(C(=O)N1Cc2cc([101O:1][101CH2:1]C(=O)C(C)(C)CCc3ccc(C)c([100NH:0][100C:0](=O)N4CCCC(n5nc(-c6ccc(Oc7ccc(F)cc7F)cc6)c(C(N)=O)c5N)C4)c3)ccc2CC1C(=O)NC1CCCc2ccccc21)C(C)(C)C

> <Shape>
0.251

> <Color>
0.100

> <Negative vol penalty>
0.000

$$$$

  -OEChem-04052302423D

 89 97  0     1  0  0  0  0  0999 V2000
  -25.4258  -30.9254   21.1240 C   0  0  0  0  0  0  0  0  0  0  0  0
  -26.1251  -30.3432   22.1764 C   0  0  0  0  0  0  0  0  0  0  0  0
  -23.2796   -9.7679   20.5730 C   0  0  0  0  0  0  0  0  0  0  0  0
  -23.9511  -10.3014   22.8317 C   0  0  0  0  0  0  0  0  0  0  0  0
  -24.9149  -30.1268   20.1017 C   0  0  0  0  0  0  0  0  0  0  0  0
  -26.3128  -28.9618   22.2076 C   0  0  0  0  0  0  0  0  0  0  0  0
  -32.9308  -26.1216   22.3688 C   0  0  0  0  0  0  0  0  0  0  0  0
  -22.5984   -8.6443   21.0409 C   0  0  0  0  0  0  0  0  0  0  0  0
  -23.2699   -9.1778   23.2996 C   0  0  0  0  0  0  0  0  0  0  0  0
  -34.1588  -25.5064   22.6133 C   0  0  0  0  0  0  0  0  0  0  0  0
  -20.9828   -5.4348   21.6000 C   0  0  0  0  0  0  0  0  0  0  0  0
  -21.1438   -4.2389   20.9003 C   0  0  0  0  0  0  0  0  0  0  0  0
  -33.1025  -23.3334   22.5123 C   0  0  0  0  0  0  0  0  0  0  0  0
  -31.4053  -18.9021   23.0375 C   0  0  0  0  0  0  0  0  0  0  0  0
  -30.1818  -16.8577   23.4375 C   0  0  0  0  0  0  0  0  0  0  0  0
  -31.6759  -17.0209   21.5460 C   0  0  0  0  0  0  0  0  0  0  0  0
  -23.5198   -4.3056   21.3331 C   0  0  0  0  0  0  0  0  0  0  0  0
  -23.9560  -10.5965   21.4684 C   0  0  0  0  0  0  0  0  0  0  0  0
  -24.1478  -13.0591   20.8307 C   0  0  0  0  0  0  0  0  0  0  0  0
  -25.1048  -28.7360   20.1154 C   0  0  0  0  0  0  0  0  0  0  0  0
  -31.7854  -25.3434   22.1795 C   0  0  0  0  0  0  0  0  0  0  0  0
  -25.8028  -28.1437   21.1852 C   0  0  0  0  0  0  0  0  0  0  0  0
  -31.8720  -23.9435   22.2547 C   0  0  0  0  0  0  0  0  0  0  0  0
  -30.4994  -18.1663   23.8013 C   0  0  0  0  0  0  0  0  0  0  0  0
  -31.9936  -18.3295   21.9098 C   0  0  0  0  0  0  0  0  0  0  0  0
  -30.7700  -16.2850   22.3098 C   0  0  0  0  0  0  0  0  0  0  0  0
  -22.5935   -8.3492   22.4042 C   0  0  0  0  0  0  0  0  0  0  0  0
  -34.2444  -24.1158   22.6851 C   0  0  0  0  0  0  0  0  0  0  0  0
  -22.0903   -6.0661   22.1662 C   0  0  0  0  0  0  0  0  0  0  0  0
  -22.4123   -3.6743   20.7669 C   0  0  0  0  0  0  0  0  0  0  0  0
  -23.3588   -5.5015   22.0328 C   0  0  0  0  0  0  0  0  0  0  0  0
  -24.6603  -11.7571   20.9856 C   0  0  0  0  0  0  0  0  0  0  0  0
  -25.2052  -13.7887   20.3449 C   0  0  0  0  0  0  0  0  0  0  0  0
  -22.8335  -13.5638   21.1017 C   0  0  0  0  0  0  0  0  0  0  0  0
  -28.1019  -25.2654   21.4715 C   0  0  0  0  0  0  0  0  0  0  0  0
  -29.3662  -22.9763   19.8677 C   0  0  0  0  0  0  0  0  0  0  0  0
  -31.1608  -21.4292   17.7968 C   0  0  0  0  0  0  0  0  0  0  0  0
  -30.9412  -14.2381   20.8513 C   0  0  0  0  0  0  0  0  0  0  0  0
  -24.4931  -27.9089   19.0125 C   0  0  0  0  0  0  0  0  0  0  0  0
  -30.4307  -25.9652   21.9748 C   0  0  0  0  0  0  0  0  0  0  0  0
  -30.6074  -23.1479   22.0791 C   0  0  0  0  0  0  0  0  0  0  0  0
  -25.0588  -26.4936   18.9272 C   0  0  0  0  0  0  0  0  0  0  0  0
  -29.4339  -12.6780   18.0279 C   0  0  0  0  0  0  0  0  0  0  0  0
  -25.1206  -25.8591   20.3130 C   0  0  0  0  0  0  0  0  0  0  0  0
  -27.9988  -12.4082   18.4860 C   0  0  0  0  0  0  0  0  0  0  0  0
  -30.4374  -12.4852   19.1635 C   0  0  0  0  0  0  0  0  0  0  0  0
  -28.7050  -12.9674   20.8473 C   0  0  0  0  0  0  0  0  0  0  0  0
  -26.0484  -26.6516   21.2418 C   0  0  1  0  0  0  0  0  0  0  0  0
  -29.5305  -25.1524   21.0271 C   0  0  1  0  0  0  0  0  0  0  0  0
  -27.6516  -13.2119   19.7545 C   0  0  2  0  0  0  0  0  0  0  0  0
  -29.8705  -18.7787   25.0070 C   0  0  0  0  0  0  0  0  0  0  0  0
  -36.4287  -17.3154   21.5443 C   0  0  0  0  0  0  0  0  0  0  0  0
  -36.9774  -24.5927   20.5813 C   0  0  0  0  0  0  0  0  0  0  0  0
  -31.6452  -19.5778   16.1735 C   0  0  0  0  0  0  0  0  0  0  0  0
  -35.3996  -20.3209   19.5647 C   0  0  0  0  0  0  0  0  0  0  0  0
  -28.4450  -21.0010   22.0017 C   0  0  0  0  0  0  0  0  0  0  0  0
  -29.1221  -19.1398   20.4702 C   0  0  0  0  0  0  0  0  0  0  0  0
  -27.3300  -20.7316   19.7794 C   0  0  0  0  0  0  0  0  0  0  0  0
  -37.2800  -22.0615   22.3585 C   0  0  0  0  0  0  0  0  0  0  0  0
  -31.5926  -23.3346   15.5737 C   0  0  0  0  0  0  0  0  0  0  0  0
  -32.9752  -19.1268   21.0824 C   0  0  0  0  0  0  0  0  0  0  0  0
  -35.0049  -17.6004   21.0864 C   0  0  0  0  0  0  0  0  0  0  0  0
  -36.0376  -23.3919   20.5744 C   0  0  0  0  0  0  0  0  0  0  0  0
  -34.8517  -21.5118   21.7442 C   0  0  0  0  0  0  0  0  0  0  0  0
  -29.7336  -21.5146   19.8241 C   0  0  1  0  0  0  0  0  0  0  0  0
  -31.1372  -21.0015   16.3404 C   0  0  2  0  0  0  0  0  0  0  0  0
  -35.3384  -20.1846   21.0931 C   0  0  1  0  0  0  0  0  0  0  0  0
  -34.4505  -18.9746   21.5423 C   0  0  1  0  0  0  0  0  0  0  0  0
  -28.6765  -20.6166   20.5267 C   0  0  0  0  0  0  0  0  0  0  0  0
  -35.9264  -22.6205   21.9128 C   0  0  1  0  0  0  0  0  0  1  0  0
  -25.9435  -11.6620   20.6271 N   0  0  0  0  0  0  0  0  0  0  0  0
  -26.2461  -12.9135   20.2420 N   0  0  0  0  0  0  0  0  0  0  0  0
  -29.8109  -23.7075   20.9759 N   0  0  0  0  0  0  0  0  0  0  0  0
  -30.0463  -13.2800   20.3298 N   0  0  0  0  0  0  0  0  0  0  0  0
  -25.3368  -15.0872   19.9998 N   0  0  0  0  0  0  0  0  0  0  0  0
  -21.8668  -12.6783   21.5975 N   0  0  0  0  0  0  0  0  0  0  0  0
  -30.4474  -14.9556   21.9403 N   0  0  0  0  0  0  0  0  0  0  0  0
  -27.4336  -26.3547   20.9458 N   0  0  0  0  0  0  0  0  0  0  0  0
  -29.9535  -21.1907   18.4187 N   0  0  0  0  0  0  0  0  0  0  0  0
  -31.9936  -21.9051   15.5212 N   0  3  0  0  0  0  0  0  0  0  0  0
  -22.5208  -14.7608   20.8945 O   0  0  0  0  0  0  0  0  0  0  0  0
  -27.6381  -24.4256   22.2340 O   0  0  0  0  0  0  0  0  0  0  0  0
  -28.6982  -23.4580   18.9484 O   0  0  0  0  0  0  0  0  0  0  0  0
  -32.1523  -21.9220   18.3303 O   0  0  0  0  0  0  0  0  0  0  0  0
  -32.0525  -14.4283   20.3505 O   0  0  0  0  0  0  0  0  0  0  0  0
  -21.9288   -7.2529   22.8612 O   0  0  0  0  0  0  0  0  0  0  0  0
  -35.4518  -23.5193   22.9206 O   0  0  0  0  0  0  0  0  0  1  0  0
  -22.5666   -2.5251   20.0963 F   0  0  0  0  0  0  0  0  0  0  0  0
  -24.4264   -6.1028   22.5755 F   0  0  0  0  0  0  0  0  0  0  0  0
  1  2  1  0  0  0  0
  1  5  2  0  0  0  0
  2  6  2  0  0  0  0
  3  8  2  0  0  0  0
  3 18  1  0  0  0  0
  4  9  1  0  0  0  0
  4 18  2  0  0  0  0
  5 20  1  0  0  0  0
  6 22  1  0  0  0  0
  7 10  2  0  0  0  0
  7 21  1  0  0  0  0
  8 27  1  0  0  0  0
  9 27  2  0  0  0  0
 10 28  1  0  0  0  0
 11 12  2  0  0  0  0
 11 29  1  0  0  0  0
 12 30  1  0  0  0  0
 13 23  1  0  0  0  0
 13 28  2  0  0  0  0
 14 24  2  0  0  0  0
 14 25  1  0  0  0  0
 15 24  1  0  0  0  0
 15 26  2  0  0  0  0
 16 25  2  0  0  0  0
 16 26  1  0  0  0  0
 17 30  2  0  0  0  0
 17 31  1  0  0  0  0
 18 32  1  0  0  0  0
 19 32  1  0  0  0  0
 19 33  2  0  0  0  0
 19 34  1  0  0  0  0
 20 22  2  0  0  0  0
 20 39  1  0  0  0  0
 21 23  2  0  0  0  0
 21 40  1  0  0  0  0
 22 48  1  0  0  0  0
 23 41  1  0  0  0  0
 24 51  1  0  0  0  0
 25 61  1  0  0  0  0
 26 77  1  0  0  0  0
 27 86  1  0  0  0  0
 28 87  1  0  0  0  0
 29 31  2  0  0  0  0
 29 86  1  0  0  0  0
 30 88  1  0  0  0  0
 31 89  1  0  0  0  0
 32 71  2  0  0  0  0
 33 72  1  0  0  0  0
 33 75  1  0  0  0  0
 34 76  1  0  0  0  0
 34 81  2  0  0  0  0
 35 49  1  0  0  0  0
 35 78  1  0  0  0  0
 35 82  2  0  0  0  0
 36 65  1  0  0  0  0
 36 73  1  0  0  0  0
 36 83  2  0  0  0  0
 37 66  1  0  0  0  0
 37 79  1  0  0  0  0
 37 84  2  0  0  0  0
 38 74  1  0  0  0  0
 38 77  1  0  0  0  0
 38 85  2  0  0  0  0
 39 42  1  0  0  0  0
 40 49  1  0  0  0  0
 41 73  1  0  0  0  0
 42 44  1  0  0  0  0
 43 45  1  0  0  0  0
 43 46  1  0  0  0  0
 44 48  1  0  0  0  0
 45 50  1  0  0  0  0
 46 74  1  0  0  0  0
 47 50  1  0  0  0  0
 47 74  1  0  0  0  0
 48 78  1  0  0  0  0
 49 73  1  0  0  0  0
 50 72  1  0  0  0  0
 52 62  1  0  0  0  0
 53 63  1  0  0  0  0
 54 66  1  0  0  0  0
 55 67  1  0  0  0  0
 56 69  1  0  0  0  0
 57 69  1  0  0  0  0
 58 69  1  0  0  0  0
 59 70  1  0  0  0  0
 60 80  1  0  0  0  0
 61 68  1  0  0  0  0
 62 68  1  0  0  0  0
 63 70  1  0  0  0  0
 64 67  1  0  0  0  0
 64 70  1  0  0  0  0
 65 69  1  0  0  0  0
 65 79  1  0  0  0  0
 66 80  1  0  0  0  0
 67 68  1  0  0  0  0
 70 87  1  0  0  0  0
 71 72  1  0  0  0  0
M  CHG  1  80   1
M  ISO  4  38 100  70 101  77 100  87 101
M  END
> <Batch ID>
0137

> <Smiles>
CCC(Cc1cc(C)cc([100NH:0][100C:0](=O)N2CCCC(n3nc(-c4ccc(Oc5ccc(F)cc5F)cc4)c(C(N)=O)c3N)C2)c1)C(C)C[101C:1](C)(CC)[101O:1]c1ccc2c(c1)CN(C(=O)C(NC(=O)C(C)NC)C(C)(C)C)C(C(=O)NC1CCCc3ccccc31)C2

> <Shape>
0.279

> <Color>
0.172

> <Negative vol penalty>
0.000

$$$$

  -OEChem-04052302423D

 88 96  0     1  0  0  0  0  0999 V2000
  -23.6562   -7.9219   21.4510 C   0  0  0  0  0  0  0  0  0  0  0  0
  -24.4986   -9.0291   21.4514 C   0  0  0  0  0  0  0  0  0  0  0  0
  -22.8561  -30.0155   22.0481 C   0  0  0  0  0  0  0  0  0  0  0  0
  -23.7989  -28.8740   23.9573 C   0  0  0  0  0  0  0  0  0  0  0  0
  -22.2971   -8.0817   21.1837 C   0  0  0  0  0  0  0  0  0  0  0  0
  -23.9826  -10.2965   21.1834 C   0  0  0  0  0  0  0  0  0  0  0  0
  -25.7133  -13.8158   24.3871 C   0  0  0  0  0  0  0  0  0  0  0  0
  -21.6418  -30.1412   22.7229 C   0  0  0  0  0  0  0  0  0  0  0  0
  -22.5847  -28.9997   24.6322 C   0  0  0  0  0  0  0  0  0  0  0  0
  -27.0013  -14.3011   24.1648 C   0  0  0  0  0  0  0  0  0  0  0  0
  -18.1842  -30.4438   23.8077 C   0  0  0  0  0  0  0  0  0  0  0  0
  -17.0161  -30.1506   23.1040 C   0  0  0  0  0  0  0  0  0  0  0  0
  -26.0740  -16.2568   23.0996 C   0  0  0  0  0  0  0  0  0  0  0  0
  -28.8530  -21.4020   21.0568 C   0  0  0  0  0  0  0  0  0  0  0  0
  -29.0302  -22.7077   23.0818 C   0  0  0  0  0  0  0  0  0  0  0  0
  -17.8048  -27.8972   22.7335 C   0  0  0  0  0  0  0  0  0  0  0  0
  -23.9347  -29.3818   22.6653 C   0  0  0  0  0  0  0  0  0  0  0  0
  -26.2659  -30.1579   21.9792 C   0  0  0  0  0  0  0  0  0  0  0  0
  -21.7625   -9.3530   20.9219 C   0  0  0  0  0  0  0  0  0  0  0  0
  -24.5944  -14.5435   23.9570 C   0  0  0  0  0  0  0  0  0  0  0  0
  -22.6154  -10.4732   20.9111 C   0  0  0  0  0  0  0  0  0  0  0  0
  -24.7729  -15.7798   23.3200 C   0  0  0  0  0  0  0  0  0  0  0  0
  -29.1037  -20.2389   21.7847 C   0  0  0  0  0  0  0  0  0  0  0  0
  -29.3177  -20.3102   23.1612 C   0  0  0  0  0  0  0  0  0  0  0  0
  -28.8162  -22.6364   21.7053 C   0  0  0  0  0  0  0  0  0  0  0  0
  -21.5061  -29.6333   24.0149 C   0  0  0  0  0  0  0  0  0  0  0  0
  -27.1819  -15.5203   23.5184 C   0  0  0  0  0  0  0  0  0  0  0  0
  -19.1626  -29.4637   23.9742 C   0  0  0  0  0  0  0  0  0  0  0  0
  -16.8263  -28.8774   22.5669 C   0  0  0  0  0  0  0  0  0  0  0  0
  -29.2809  -21.5446   23.8098 C   0  0  0  0  0  0  0  0  0  0  0  0
  -18.9729  -28.1904   23.4372 C   0  0  0  0  0  0  0  0  0  0  0  0
  -25.1891  -29.2511   21.9686 C   0  0  0  0  0  0  0  0  0  0  0  0
  -27.2105  -29.5787   21.1675 C   0  0  0  0  0  0  0  0  0  0  0  0
  -26.4003  -31.4116   22.6618 C   0  0  0  0  0  0  0  0  0  0  0  0
  -22.2231  -14.0092   21.9089 C   0  0  0  0  0  0  0  0  0  0  0  0
  -30.0362  -15.9443   20.8182 C   0  0  0  0  0  0  0  0  0  0  0  0
  -21.0997  -16.8182   23.0793 C   0  0  0  0  0  0  0  0  0  0  0  0
  -21.7699  -19.7951   24.6076 C   0  0  0  0  0  0  0  0  0  0  0  0
  -28.3276  -23.9232   19.5953 C   0  0  0  0  0  0  0  0  0  0  0  0
  -20.2955   -9.4696   20.5918 C   0  0  0  0  0  0  0  0  0  0  0  0
  -23.2111  -14.0190   24.2283 C   0  0  0  0  0  0  0  0  0  0  0  0
  -23.6041  -16.6093   22.8568 C   0  0  0  0  0  0  0  0  0  0  0  0
  -19.7614  -10.8965   20.6869 C   0  0  0  0  0  0  0  0  0  0  0  0
  -27.6239  -26.6423   17.4071 C   0  0  0  0  0  0  0  0  0  0  0  0
  -20.7061  -11.8679   19.9864 C   0  0  0  0  0  0  0  0  0  0  0  0
  -27.0232  -27.7047   18.3305 C   0  0  0  0  0  0  0  0  0  0  0  0
  -27.1968  -25.2324   17.8115 C   0  0  0  0  0  0  0  0  0  0  0  0
  -26.8423  -25.9508   20.1412 C   0  0  0  0  0  0  0  0  0  0  0  0
  -22.0888  -11.8676   20.6494 C   0  0  1  0  0  0  0  0  0  0  0  0
  -22.1575  -14.5986   23.2894 C   0  0  1  0  0  0  0  0  0  0  0  0
  -27.2964  -27.3825   19.8128 C   0  0  2  0  0  0  0  0  0  0  0  0
  -29.5866  -19.0765   23.9589 C   0  0  0  0  0  0  0  0  0  0  0  0
  -20.6535  -21.8990   25.3978 C   0  0  0  0  0  0  0  0  0  0  0  0
  -30.0391  -17.2720   18.6777 C   0  0  0  0  0  0  0  0  0  0  0  0
  -32.1948  -16.7700   19.8073 C   0  0  0  0  0  0  0  0  0  0  0  0
  -20.9271  -17.8060   20.1975 C   0  0  0  0  0  0  0  0  0  0  0  0
  -20.7363  -20.1402   21.0826 C   0  0  0  0  0  0  0  0  0  0  0  0
  -18.9877  -18.4503   21.6391 C   0  0  0  0  0  0  0  0  0  0  0  0
  -22.5633  -19.2994   27.4155 C   0  0  0  0  0  0  0  0  0  0  0  0
  -29.1381  -18.9149   21.0614 C   0  0  0  0  0  0  0  0  0  0  0  0
  -30.5550  -15.6074   22.2154 C   0  0  0  0  0  0  0  0  0  0  0  0
  -30.5796  -18.4343   20.8421 C   0  0  0  0  0  0  0  0  0  0  0  0
  -29.4757  -15.0325   23.1228 C   0  0  0  0  0  0  0  0  0  1  0  0
  -21.2694  -18.2730   22.7136 C   0  0  1  0  0  0  0  0  0  0  0  0
  -21.1067  -20.4981   25.7783 C   0  0  2  0  0  0  0  0  0  0  0  0
  -30.7111  -17.1076   20.0529 C   0  0  0  0  0  0  0  0  0  0  0  0
  -20.5024  -18.6511   21.4151 C   0  0  0  0  0  0  0  0  0  0  0  0
  -25.4264  -28.1776   21.2102 N   0  0  0  0  0  0  0  0  0  0  0  0
  -26.6632  -28.4061   20.7366 N   0  0  0  0  0  0  0  0  0  0  0  0
  -22.2716  -16.0508   23.1395 N   0  0  0  0  0  0  0  0  0  0  0  0
  -27.4901  -24.9972   19.2269 N   0  0  0  0  0  0  0  0  0  0  0  0
  -28.4474  -29.9632   20.7875 N   0  0  0  0  0  0  0  0  0  0  0  0
  -25.3343  -31.8584   23.4545 N   0  0  0  0  0  0  0  0  0  0  0  0
  -28.5612  -23.8181   20.9661 N   0  0  0  0  0  0  0  0  0  0  0  0
  -22.0620  -12.6372   21.8747 N   0  0  0  0  0  0  0  0  0  0  0  0
  -20.8684  -19.0387   23.8889 N   0  0  0  0  0  0  0  0  0  0  0  0
  -22.0552  -20.6056   26.9227 N   0  3  0  0  0  0  0  0  0  0  0  0
  -27.4286  -32.1225   22.5584 O   0  0  0  0  0  0  0  0  0  0  0  0
  -22.4047  -14.7449   20.9458 O   0  0  0  0  0  0  0  0  0  0  0  0
  -29.1078  -15.3058   20.3167 O   0  0  0  0  0  0  0  0  0  0  0  0
  -19.9698  -16.3805   23.3102 O   0  0  0  0  0  0  0  0  0  0  0  0
  -22.9671  -19.9086   24.3538 O   0  0  0  0  0  0  0  0  0  0  0  0
  -28.8246  -23.1698   18.7543 O   0  0  0  0  0  0  0  0  0  0  0  0
  -20.3214  -29.7560   24.6738 O   0  0  0  0  0  0  0  0  0  0  0  0
  -28.4380  -15.9960   23.2995 O   0  0  0  0  0  0  0  0  0  1  0  0
  -15.7039  -28.5955   21.8925 F   0  0  0  0  0  0  0  0  0  0  0  0
  -29.4826  -21.6237   25.1326 F   0  0  0  0  0  0  0  0  0  0  0  0
  -19.9088  -27.2443   23.5950 F   0  0  0  0  0  0  0  0  0  0  0  0
  1  2  1  0  0  0  0
  1  5  2  0  0  0  0
  2  6  2  0  0  0  0
  3  8  2  0  0  0  0
  3 17  1  0  0  0  0
  4  9  1  0  0  0  0
  4 17  2  0  0  0  0
  5 19  1  0  0  0  0
  6 21  1  0  0  0  0
  7 10  2  0  0  0  0
  7 20  1  0  0  0  0
  8 26  1  0  0  0  0
  9 26  2  0  0  0  0
 10 27  1  0  0  0  0
 11 12  2  0  0  0  0
 11 28  1  0  0  0  0
 12 29  1  0  0  0  0
 13 22  1  0  0  0  0
 13 27  2  0  0  0  0
 14 23  1  0  0  0  0
 14 25  2  0  0  0  0
 15 25  1  0  0  0  0
 15 30  2  0  0  0  0
 16 29  2  0  0  0  0
 16 31  1  0  0  0  0
 17 32  1  0  0  0  0
 18 32  1  0  0  0  0
 18 33  2  0  0  0  0
 18 34  1  0  0  0  0
 19 21  2  0  0  0  0
 19 40  1  0  0  0  0
 20 22  2  0  0  0  0
 20 41  1  0  0  0  0
 21 49  1  0  0  0  0
 22 42  1  0  0  0  0
 23 24  2  0  0  0  0
 23 60  1  0  0  0  0
 24 30  1  0  0  0  0
 24 52  1  0  0  0  0
 25 74  1  0  0  0  0
 26 84  1  0  0  0  0
 27 85  1  0  0  0  0
 28 31  2  0  0  0  0
 28 84  1  0  0  0  0
 29 86  1  0  0  0  0
 30 87  1  0  0  0  0
 31 88  1  0  0  0  0
 32 68  2  0  0  0  0
 33 69  1  0  0  0  0
 33 72  1  0  0  0  0
 34 73  1  0  0  0  0
 34 78  2  0  0  0  0
 35 50  1  0  0  0  0
 35 75  1  0  0  0  0
 35 79  2  0  0  0  0
 36 61  1  0  0  0  0
 36 66  1  0  0  0  0
 36 80  2  0  0  0  0
 37 64  1  0  0  0  0
 37 70  1  0  0  0  0
 37 81  2  0  0  0  0
 38 65  1  0  0  0  0
 38 76  1  0  0  0  0
 38 82  2  0  0  0  0
 39 71  1  0  0  0  0
 39 74  1  0  0  0  0
 39 83  2  0  0  0  0
 40 43  1  0  0  0  0
 41 50  1  0  0  0  0
 42 70  1  0  0  0  0
 43 45  1  0  0  0  0
 44 46  1  0  0  0  0
 44 47  1  0  0  0  0
 45 49  1  0  0  0  0
 46 51  1  0  0  0  0
 47 71  1  0  0  0  0
 48 51  1  0  0  0  0
 48 71  1  0  0  0  0
 49 75  1  0  0  0  0
 50 70  1  0  0  0  0
 51 69  1  0  0  0  0
 53 65  1  0  0  0  0
 54 66  1  0  0  0  0
 55 66  1  0  0  0  0
 56 67  1  0  0  0  0
 57 67  1  0  0  0  0
 58 67  1  0  0  0  0
 59 77  1  0  0  0  0
 60 62  1  0  0  0  0
 61 63  1  0  0  0  0
 62 66  1  0  0  0  0
 63 85  1  0  0  0  0
 64 67  1  0  0  0  0
 64 76  1  0  0  0  0
 65 77  1  0  0  0  0
 68 69  1  0  0  0  0
M  CHG  1  77   1
M  ISO  4  39 100  63 101  74 100  85 101
M  END
> <Batch ID>
0137

> <Smiles>
CNC(C)C(=O)NC(C(=O)N1Cc2cc([101O:1][101CH2:1]CC(=O)C(C)(C)CCc3cc([100NH:0][100C:0](=O)N4CCCC(n5nc(-c6ccc(Oc7ccc(F)cc7F)cc6)c(C(N)=O)c5N)C4)cc(F)c3C)ccc2CC1C(=O)NC1CCCc2ccccc21)C(C)(C)C

> <Shape>
0.243

> <Color>
0.094

> <Negative vol penalty>
0.000

$$$$

  -OEChem-04052302423D

 83 91  0     1  0  0  0  0  0999 V2000
  -29.3625  -23.2519   16.1057 C   0  0  0  0  0  0  0  0  0  0  0  0
  -28.0446  -23.4876   16.4836 C   0  0  0  0  0  0  0  0  0  0  0  0
  -26.6095  -13.1194   20.6811 C   0  0  0  0  0  0  0  0  0  0  0  0
  -24.2598  -13.3897   20.1885 C   0  0  0  0  0  0  0  0  0  0  0  0
  -30.3938  -23.4354   17.0258 C   0  0  0  0  0  0  0  0  0  0  0  0
  -27.7570  -23.9059   17.7824 C   0  0  0  0  0  0  0  0  0  0  0  0
  -23.3115  -27.7458   19.5141 C   0  0  0  0  0  0  0  0  0  0  0  0
  -26.3274  -11.9485   21.3847 C   0  0  0  0  0  0  0  0  0  0  0  0
  -23.9776  -12.2187   20.8921 C   0  0  0  0  0  0  0  0  0  0  0  0
  -22.0380  -27.5306   20.0390 C   0  0  0  0  0  0  0  0  0  0  0  0
  -24.1648   -8.8871   20.3574 C   0  0  0  0  0  0  0  0  0  0  0  0
  -23.2850   -7.9769   19.7717 C   0  0  0  0  0  0  0  0  0  0  0  0
  -22.9130  -27.8276   22.2674 C   0  0  0  0  0  0  0  0  0  0  0  0
  -20.7545  -20.7282   20.0248 C   0  0  0  0  0  0  0  0  0  0  0  0
  -19.3423  -22.2904   21.2090 C   0  0  0  0  0  0  0  0  0  0  0  0
  -21.7452  -22.4436   21.4079 C   0  0  0  0  0  0  0  0  0  0  0  0
  -21.7989   -8.1955   21.6640 C   0  0  0  0  0  0  0  0  0  0  0  0
  -25.5757  -13.8400   20.0831 C   0  0  0  0  0  0  0  0  0  0  0  0
  -26.1670  -15.1673   17.9863 C   0  0  0  0  0  0  0  0  0  0  0  0
  -30.1197  -23.8655   18.3337 C   0  0  0  0  0  0  0  0  0  0  0  0
  -24.3993  -27.9931   20.3639 C   0  0  0  0  0  0  0  0  0  0  0  0
  -28.7855  -24.0940   18.7213 C   0  0  0  0  0  0  0  0  0  0  0  0
  -24.1988  -28.0481   21.7506 C   0  0  0  0  0  0  0  0  0  0  0  0
  -19.4828  -21.1978   20.3533 C   0  0  0  0  0  0  0  0  0  0  0  0
  -21.8857  -21.3510   20.5522 C   0  0  0  0  0  0  0  0  0  0  0  0
  -25.0115  -11.4982   21.4902 C   0  0  0  0  0  0  0  0  0  0  0  0
  -21.8391  -27.5686   21.4160 C   0  0  0  0  0  0  0  0  0  0  0  0
  -23.8617   -9.4515   21.5966 C   0  0  0  0  0  0  0  0  0  0  0  0
  -20.4736  -22.9132   21.7363 C   0  0  0  0  0  0  0  0  0  0  0  0
  -22.1021   -7.6311   20.4249 C   0  0  0  0  0  0  0  0  0  0  0  0
  -22.6788   -9.1057   22.2498 C   0  0  0  0  0  0  0  0  0  0  0  0
  -25.8665  -15.0499   19.3566 C   0  0  0  0  0  0  0  0  0  0  0  0
  -26.3618  -16.5129   17.7916 C   0  0  0  0  0  0  0  0  0  0  0  0
  -26.2617  -14.1509   16.9795 C   0  0  0  0  0  0  0  0  0  0  0  0
  -27.1463  -26.5168   20.9788 C   0  0  0  0  0  0  0  0  0  0  0  0
  -27.7124  -29.1557   22.7782 C   0  0  0  0  0  0  0  0  0  0  0  0
  -26.4426  -31.7960   24.5283 C   0  0  0  0  0  0  0  0  0  0  0  0
  -24.4026  -21.3776   20.6554 C   0  0  0  0  0  0  0  0  0  0  0  0
  -31.2634  -24.0044   19.3070 C   0  0  0  0  0  0  0  0  0  0  0  0
  -25.7617  -28.2496   19.7804 C   0  0  0  0  0  0  0  0  0  0  0  0
  -25.3296  -28.3298   22.7047 C   0  0  0  0  0  0  0  0  0  0  0  0
  -30.9078  -24.8102   20.5537 C   0  0  0  0  0  0  0  0  0  0  0  0
  -27.7966  -20.4606   20.0920 C   0  0  0  0  0  0  0  0  0  0  0  0
  -29.5691  -24.3508   21.1225 C   0  0  0  0  0  0  0  0  0  0  0  0
  -27.7136  -18.9812   19.7088 C   0  0  0  0  0  0  0  0  0  0  0  0
  -26.7719  -20.8271   21.1641 C   0  0  0  0  0  0  0  0  0  0  0  0
  -25.3031  -18.9756   20.4683 C   0  0  0  0  0  0  0  0  0  0  0  0
  -28.4357  -24.5726   20.1137 C   0  0  1  0  0  0  0  0  0  0  0  0
  -26.8942  -27.9828   20.7671 C   0  0  1  0  0  0  0  0  0  0  0  0
  -26.2725  -18.5734   19.3449 C   0  0  2  0  0  0  0  0  0  0  0  0
  -18.2732  -20.5319   19.7898 C   0  0  0  0  0  0  0  0  0  0  0  0
  -27.1508  -33.7590   25.9221 C   0  0  0  0  0  0  0  0  0  0  0  0
  -17.9994  -26.8912   23.1792 C   0  0  0  0  0  0  0  0  0  0  0  0
  -28.2881  -27.2836   25.1178 C   0  0  0  0  0  0  0  0  0  0  0  0
  -28.0488  -29.2448   26.6555 C   0  0  0  0  0  0  0  0  0  0  0  0
  -29.8493  -29.2282   24.9292 C   0  0  0  0  0  0  0  0  0  0  0  0
  -25.2176  -33.7229   22.6453 C   0  0  0  0  0  0  0  0  0  0  0  0
  -20.5234  -26.7680   23.2282 C   0  0  0  0  0  0  0  0  0  1  0  0
  -19.1941  -24.8110   22.3823 C   0  0  0  0  0  0  0  0  0  0  0  0
  -27.4466  -29.5498   24.2111 C   0  0  1  0  0  0  0  0  0  0  0  0
  -26.7992  -33.2716   24.5251 C   0  0  2  0  0  0  0  0  0  0  0  0
  -19.2181  -25.9803   23.3709 C   0  0  2  0  0  0  0  0  0  0  0  0
  -28.3871  -28.8193   25.2108 C   0  0  0  0  0  0  0  0  0  0  0  0
  -25.8690  -16.2270   19.9878 N   0  0  0  0  0  0  0  0  0  0  0  0
  -26.1737  -17.0969   19.0097 N   0  0  0  0  0  0  0  0  0  0  0  0
  -26.6442  -28.5678   22.0861 N   0  0  0  0  0  0  0  0  0  0  0  0
  -25.4295  -20.4145   20.7484 N   0  0  0  0  0  0  0  0  0  0  0  0
  -26.6739  -17.2417   16.6990 N   0  0  0  0  0  0  0  0  0  0  0  0
  -26.0314  -12.8192   17.3508 N   0  0  0  0  0  0  0  0  0  0  0  0
  -23.1777  -20.8741   20.2189 N   0  0  0  0  0  0  0  0  0  0  0  0
  -28.0478  -25.9666   20.0877 N   0  0  0  0  0  0  0  0  0  0  0  0
  -27.5391  -31.0050   24.2580 N   0  0  0  0  0  0  0  0  0  0  0  0
  -25.6539  -34.0802   24.0197 N   0  3  0  0  0  0  0  0  0  0  0  0
  -26.5582  -14.4140   15.7894 O   0  0  0  0  0  0  0  0  0  0  0  0
  -26.5670  -25.9286   21.8844 O   0  0  0  0  0  0  0  0  0  0  0  0
  -28.8246  -29.3683   22.2889 O   0  0  0  0  0  0  0  0  0  0  0  0
  -25.3058  -31.3860   24.7521 O   0  0  0  0  0  0  0  0  0  0  0  0
  -24.6028  -22.5668   20.9157 O   0  0  0  0  0  0  0  0  0  0  0  0
  -24.7358  -10.3555   22.1764 O   0  0  0  0  0  0  0  0  0  0  0  0
  -20.5972  -27.3583   21.9311 O   0  0  0  0  0  0  0  0  0  1  0  0
  -20.3354  -23.9864   22.5774 O   0  0  0  0  0  0  0  0  0  0  0  0
  -21.2566   -6.7582   19.8616 F   0  0  0  0  0  0  0  0  0  0  0  0
  -22.3816   -9.6454   23.4398 F   0  0  0  0  0  0  0  0  0  0  0  0
  1  2  1  0  0  0  0
  1  5  2  0  0  0  0
  2  6  2  0  0  0  0
  3  8  2  0  0  0  0
  3 18  1  0  0  0  0
  4  9  1  0  0  0  0
  4 18  2  0  0  0  0
  5 20  1  0  0  0  0
  6 22  1  0  0  0  0
  7 10  2  0  0  0  0
  7 21  1  0  0  0  0
  8 26  1  0  0  0  0
  9 26  2  0  0  0  0
 10 27  1  0  0  0  0
 11 12  2  0  0  0  0
 11 28  1  0  0  0  0
 12 30  1  0  0  0  0
 13 23  1  0  0  0  0
 13 27  2  0  0  0  0
 14 24  1  0  0  0  0
 14 25  2  0  0  0  0
 15 24  2  0  0  0  0
 15 29  1  0  0  0  0
 16 25  1  0  0  0  0
 16 29  2  0  0  0  0
 17 30  2  0  0  0  0
 17 31  1  0  0  0  0
 18 32  1  0  0  0  0
 19 32  1  0  0  0  0
 19 33  2  0  0  0  0
 19 34  1  0  0  0  0
 20 22  2  0  0  0  0
 20 39  1  0  0  0  0
 21 23  2  0  0  0  0
 21 40  1  0  0  0  0
 22 48  1  0  0  0  0
 23 41  1  0  0  0  0
 24 51  1  0  0  0  0
 25 70  1  0  0  0  0
 26 79  1  0  0  0  0
 27 80  1  0  0  0  0
 28 31  2  0  0  0  0
 28 79  1  0  0  0  0
 29 81  1  0  0  0  0
 30 82  1  0  0  0  0
 31 83  1  0  0  0  0
 32 64  2  0  0  0  0
 33 65  1  0  0  0  0
 33 68  1  0  0  0  0
 34 69  1  0  0  0  0
 34 74  2  0  0  0  0
 35 49  1  0  0  0  0
 35 71  1  0  0  0  0
 35 75  2  0  0  0  0
 36 60  1  0  0  0  0
 36 66  1  0  0  0  0
 36 76  2  0  0  0  0
 37 61  1  0  0  0  0
 37 72  1  0  0  0  0
 37 77  2  0  0  0  0
 38 67  1  0  0  0  0
 38 70  1  0  0  0  0
 38 78  2  0  0  0  0
 39 42  1  0  0  0  0
 40 49  1  0  0  0  0
 41 66  1  0  0  0  0
 42 44  1  0  0  0  0
 43 45  1  0  0  0  0
 43 46  1  0  0  0  0
 44 48  1  0  0  0  0
 45 50  1  0  0  0  0
 46 67  1  0  0  0  0
 47 50  1  0  0  0  0
 47 67  1  0  0  0  0
 48 71  1  0  0  0  0
 49 66  1  0  0  0  0
 50 65  1  0  0  0  0
 52 61  1  0  0  0  0
 53 62  1  0  0  0  0
 54 63  1  0  0  0  0
 55 63  1  0  0  0  0
 56 63  1  0  0  0  0
 57 73  1  0  0  0  0
 58 62  1  0  0  0  0
 58 80  1  0  0  0  0
 59 62  1  0  0  0  0
 59 81  1  0  0  0  0
 60 63  1  0  0  0  0
 60 72  1  0  0  0  0
 61 73  1  0  0  0  0
 64 65  1  0  0  0  0
M  CHG  1  73   1
M  ISO  4  38 100  58 101  70 100  80 101
M  END
> <Batch ID>
0137

> <Smiles>
CNC(C)C(=O)NC(C(=O)N1Cc2cc([101O:1][101CH2:1]C(C)COc3cc(C)cc([100NH:0][100C:0](=O)N4CCCC(n5nc(-c6ccc(Oc7ccc(F)cc7F)cc6)c(C(N)=O)c5N)C4)c3)ccc2CC1C(=O)NC1CCCc2ccccc21)C(C)(C)C

> <Shape>
0.241

> <Color>
0.056

> <Negative vol penalty>
0.000

$$$$

  -OEChem-04052302423D

 88 96  0     1  0  0  0  0  0999 V2000
  -27.9713  -24.8557   16.5272 C   0  0  0  0  0  0  0  0  0  0  0  0
  -26.8391  -24.9677   17.3277 C   0  0  0  0  0  0  0  0  0  0  0  0
  -29.5755  -17.8761   20.1634 C   0  0  0  0  0  0  0  0  0  0  0  0
  -27.2343  -18.4241   20.3988 C   0  0  0  0  0  0  0  0  0  0  0  0
  -29.1671  -25.4517   16.9257 C   0  0  0  0  0  0  0  0  0  0  0  0
  -26.9022  -25.6749   18.5278 C   0  0  0  0  0  0  0  0  0  0  0  0
  -22.9367  -28.7567   19.1777 C   0  0  0  0  0  0  0  0  0  0  0  0
  -29.2322  -16.6803   19.5327 C   0  0  0  0  0  0  0  0  0  0  0  0
  -26.8910  -17.2284   19.7679 C   0  0  0  0  0  0  0  0  0  0  0  0
  -21.7393  -28.1748   19.5920 C   0  0  0  0  0  0  0  0  0  0  0  0
  -28.1438  -13.6108   20.4369 C   0  0  0  0  0  0  0  0  0  0  0  0
  -28.8136  -12.4537   20.8344 C   0  0  0  0  0  0  0  0  0  0  0  0
  -22.1871  -28.8792   21.8553 C   0  0  0  0  0  0  0  0  0  0  0  0
  -24.3851  -22.2088   27.0117 C   0  0  0  0  0  0  0  0  0  0  0  0
  -25.6014  -21.8740   29.0721 C   0  0  0  0  0  0  0  0  0  0  0  0
  -23.1869  -21.9576   29.0946 C   0  0  0  0  0  0  0  0  0  0  0  0
  -29.6355  -12.1559   18.5821 C   0  0  0  0  0  0  0  0  0  0  0  0
  -28.5766  -18.7480   20.5965 C   0  0  0  0  0  0  0  0  0  0  0  0
  -29.1611  -21.2307   20.6388 C   0  0  0  0  0  0  0  0  0  0  0  0
  -29.2425  -26.1748   18.1266 C   0  0  0  0  0  0  0  0  0  0  0  0
  -23.7749  -29.3957   20.1026 C   0  0  0  0  0  0  0  0  0  0  0  0
  -28.1005  -26.2801   18.9434 C   0  0  0  0  0  0  0  0  0  0  0  0
  -23.3934  -29.4706   21.4498 C   0  0  0  0  0  0  0  0  0  0  0  0
  -25.5953  -22.0694   27.6910 C   0  0  0  0  0  0  0  0  0  0  0  0
  -27.8900  -16.3564   19.3349 C   0  0  0  0  0  0  0  0  0  0  0  0
  -21.3658  -28.2335   20.9314 C   0  0  0  0  0  0  0  0  0  0  0  0
  -28.2197  -14.0404   19.1120 C   0  0  0  0  0  0  0  0  0  0  0  0
  -23.1809  -22.1530   27.7135 C   0  0  0  0  0  0  0  0  0  0  0  0
  -29.5596  -11.7263   19.9070 C   0  0  0  0  0  0  0  0  0  0  0  0
  -24.3972  -21.8181   29.7739 C   0  0  0  0  0  0  0  0  0  0  0  0
  -28.9656  -13.3130   18.1846 C   0  0  0  0  0  0  0  0  0  0  0  0
  -28.9305  -19.9831   21.2487 C   0  0  0  0  0  0  0  0  0  0  0  0
  -29.4621  -22.0723   21.6817 C   0  0  0  0  0  0  0  0  0  0  0  0
  -29.1079  -21.5963   19.2535 C   0  0  0  0  0  0  0  0  0  0  0  0
  -26.7453  -28.9293   21.1337 C   0  0  0  0  0  0  0  0  0  0  0  0
  -26.2217  -31.7178   22.7062 C   0  0  0  0  0  0  0  0  0  0  0  0
  -23.9764  -33.9107   24.0465 C   0  0  0  0  0  0  0  0  0  0  0  0
  -28.1066  -22.0079   27.5010 C   0  0  0  0  0  0  0  0  0  0  0  0
  -30.5694  -26.7616   18.5386 C   0  0  0  0  0  0  0  0  0  0  0  0
  -25.0503  -30.0416   19.6351 C   0  0  0  0  0  0  0  0  0  0  0  0
  -24.2481  -30.1627   22.4788 C   0  0  0  0  0  0  0  0  0  0  0  0
  -30.4553  -27.8105   19.6418 C   0  0  0  0  0  0  0  0  0  0  0  0
  -31.3686  -22.0581   26.0749 C   0  0  0  0  0  0  0  0  0  0  0  0
  -29.5434  -27.3132   20.7590 C   0  0  0  0  0  0  0  0  0  0  0  0
  -31.1338  -21.6511   24.6184 C   0  0  0  0  0  0  0  0  0  0  0  0
  -30.4434  -21.3062   27.0300 C   0  0  0  0  0  0  0  0  0  0  0  0
  -28.7798  -20.9762   25.2432 C   0  0  0  0  0  0  0  0  0  0  0  0
  -28.1228  -27.0600   20.2400 C   0  0  1  0  0  0  0  0  0  0  0  0
  -26.0747  -30.2185   20.7517 C   0  0  1  0  0  0  0  0  0  0  0  0
  -29.6439  -21.7545   24.2375 C   0  0  2  0  0  0  0  0  0  0  0  0
  -23.8502  -36.0812   25.2996 C   0  0  0  0  0  0  0  0  0  0  0  0
  -18.7406  -26.1675   25.2743 C   0  0  0  0  0  0  0  0  0  0  0  0
  -17.7941  -26.3436   22.3127 C   0  0  0  0  0  0  0  0  0  0  0  0
  -27.0546  -30.2846   25.2679 C   0  0  0  0  0  0  0  0  0  0  0  0
  -26.0190  -32.1561   26.5690 C   0  0  0  0  0  0  0  0  0  0  0  0
  -27.9373  -32.6135   25.0413 C   0  0  0  0  0  0  0  0  0  0  0  0
  -22.4575  -35.2145   21.8666 C   0  0  0  0  0  0  0  0  0  0  0  0
  -20.5942  -24.6313   24.4522 C   0  0  0  0  0  0  0  0  0  0  0  0
  -20.1505  -27.1669   22.6753 C   0  0  0  0  0  0  0  0  0  1  0  0
  -22.0059  -23.0983   25.8745 C   0  0  0  0  0  0  0  0  0  0  0  0
  -25.6664  -32.0946   24.0585 C   0  0  1  0  0  0  0  0  0  0  0  0
  -23.8492  -35.4189   23.9306 C   0  0  2  0  0  0  0  0  0  0  0  0
  -19.2065  -25.2469   24.1398 C   0  0  2  0  0  0  0  0  0  0  0  0
  -19.2144  -25.9514   22.7496 C   0  0  1  0  0  0  0  0  0  0  0  0
  -20.6265  -23.7266   25.6918 C   0  0  2  0  0  0  0  0  0  0  0  0
  -26.6539  -31.7724   25.2154 C   0  0  0  0  0  0  0  0  0  0  0  0
  -29.0730  -20.0238   22.5761 N   0  0  0  0  0  0  0  0  0  0  0  0
  -29.3964  -21.3073   22.8090 N   0  0  0  0  0  0  0  0  0  0  0  0
  -25.4887  -30.7734   21.9736 N   0  0  0  0  0  0  0  0  0  0  0  0
  -29.0483  -21.4525   26.6091 N   0  0  0  0  0  0  0  0  0  0  0  0
  -29.7739  -23.3847   21.7354 N   0  0  0  0  0  0  0  0  0  0  0  0
  -28.7830  -20.6085   18.3138 N   0  0  0  0  0  0  0  0  0  0  0  0
  -26.8190  -22.1277   26.9790 N   0  0  0  0  0  0  0  0  0  0  0  0
  -27.4087  -28.3099   20.0917 N   0  0  0  0  0  0  0  0  0  0  0  0
  -25.2908  -33.5014   23.9679 N   0  0  0  0  0  0  0  0  0  0  0  0
  -22.5818  -35.7799   23.2347 N   0  3  0  0  0  0  0  0  0  0  0  0
  -29.3576  -22.7606   18.8589 O   0  0  0  0  0  0  0  0  0  0  0  0
  -26.6679  -28.5271   22.2887 O   0  0  0  0  0  0  0  0  0  0  0  0
  -27.2635  -32.2473   22.3114 O   0  0  0  0  0  0  0  0  0  0  0  0
  -23.0071  -33.1700   24.1959 O   0  0  0  0  0  0  0  0  0  0  0  0
  -28.4252  -22.3772   28.6342 O   0  0  0  0  0  0  0  0  0  0  0  0
  -19.6673  -22.6828   25.5286 O   0  0  0  0  0  0  0  0  0  0  0  0
  -27.5547  -15.1898   18.7192 O   0  0  0  0  0  0  0  0  0  0  0  0
  -20.1904  -27.6622   21.3412 O   0  0  0  0  0  0  0  0  0  1  0  0
  -21.9926  -22.2903   27.0465 O   0  0  0  0  0  0  0  0  0  0  0  0
  -30.2041  -10.6160   20.2891 F   0  0  0  0  0  0  0  0  0  0  0  0
  -24.4029  -21.6326   31.1006 F   0  0  0  0  0  0  0  0  0  0  0  0
  -29.0432  -13.7215   16.9107 F   0  0  0  0  0  0  0  0  0  0  0  0
  1  2  1  0  0  0  0
  1  5  2  0  0  0  0
  2  6  2  0  0  0  0
  3  8  2  0  0  0  0
  3 18  1  0  0  0  0
  4  9  1  0  0  0  0
  4 18  2  0  0  0  0
  5 20  1  0  0  0  0
  6 22  1  0  0  0  0
  7 10  2  0  0  0  0
  7 21  1  0  0  0  0
  8 25  1  0  0  0  0
  9 25  2  0  0  0  0
 10 26  1  0  0  0  0
 11 12  2  0  0  0  0
 11 27  1  0  0  0  0
 12 29  1  0  0  0  0
 13 23  1  0  0  0  0
 13 26  2  0  0  0  0
 14 24  1  0  0  0  0
 14 28  2  0  0  0  0
 15 24  2  0  0  0  0
 15 30  1  0  0  0  0
 16 28  1  0  0  0  0
 16 30  2  0  0  0  0
 17 29  2  0  0  0  0
 17 31  1  0  0  0  0
 18 32  1  0  0  0  0
 19 32  1  0  0  0  0
 19 33  2  0  0  0  0
 19 34  1  0  0  0  0
 20 22  2  0  0  0  0
 20 39  1  0  0  0  0
 21 23  2  0  0  0  0
 21 40  1  0  0  0  0
 22 48  1  0  0  0  0
 23 41  1  0  0  0  0
 24 73  1  0  0  0  0
 25 83  1  0  0  0  0
 26 84  1  0  0  0  0
 27 31  2  0  0  0  0
 27 83  1  0  0  0  0
 28 85  1  0  0  0  0
 29 86  1  0  0  0  0
 30 87  1  0  0  0  0
 31 88  1  0  0  0  0
 32 67  2  0  0  0  0
 33 68  1  0  0  0  0
 33 71  1  0  0  0  0
 34 72  1  0  0  0  0
 34 77  2  0  0  0  0
 35 49  1  0  0  0  0
 35 74  1  0  0  0  0
 35 78  2  0  0  0  0
 36 61  1  0  0  0  0
 36 69  1  0  0  0  0
 36 79  2  0  0  0  0
 37 62  1  0  0  0  0
 37 75  1  0  0  0  0
 37 80  2  0  0  0  0
 38 70  1  0  0  0  0
 38 73  1  0  0  0  0
 38 81  2  0  0  0  0
 39 42  1  0  0  0  0
 40 49  1  0  0  0  0
 41 69  1  0  0  0  0
 42 44  1  0  0  0  0
 43 45  1  0  0  0  0
 43 46  1  0  0  0  0
 44 48  1  0  0  0  0
 45 50  1  0  0  0  0
 46 70  1  0  0  0  0
 47 50  1  0  0  0  0
 47 70  1  0  0  0  0
 48 74  1  0  0  0  0
 49 69  1  0  0  0  0
 50 68  1  0  0  0  0
 51 62  1  0  0  0  0
 52 63  1  0  0  0  0
 53 64  1  0  0  0  0
 54 66  1  0  0  0  0
 55 66  1  0  0  0  0
 56 66  1  0  0  0  0
 57 76  1  0  0  0  0
 58 63  1  0  0  0  0
 58 65  1  0  0  0  0
 59 64  1  0  0  0  0
 59 84  1  0  0  0  0
 60 65  1  0  0  0  0
 60 85  1  0  0  0  0
 61 66  1  0  0  0  0
 61 75  1  0  0  0  0
 62 76  1  0  0  0  0
 63 64  1  0  0  0  0
 65 82  1  0  0  0  0
 67 68  1  0  0  0  0
M  CHG  1  76   1
M  ISO  4  38 100  59 101  73 100  84 101
M  END
> <Batch ID>
0137

> <Smiles>
CNC(C)C(=O)NC(C(=O)N1Cc2cc([101O:1][101CH2:1]C(C)C(C)CC(O)COc3cc(F)cc([100NH:0][100C:0](=O)N4CCCC(n5nc(-c6ccc(Oc7ccc(F)cc7F)cc6)c(C(N)=O)c5N)C4)c3)ccc2CC1C(=O)NC1CCCc2ccccc21)C(C)(C)C

> <Shape>
0.301

> <Color>
0.084

> <Negative vol penalty>
0.000

$$$$

  -OEChem-04052302423D

 84 92  0     1  0  0  0  0  0999 V2000
  -27.6544  -33.3235   27.1551 C   0  0  0  0  0  0  0  0  0  0  0  0
  -27.8567  -32.1896   26.3748 C   0  0  0  0  0  0  0  0  0  0  0  0
  -24.2775   -9.0928   21.4267 C   0  0  0  0  0  0  0  0  0  0  0  0
  -24.8715  -10.3056   23.4300 C   0  0  0  0  0  0  0  0  0  0  0  0
  -26.3608  -33.7931   27.3782 C   0  0  0  0  0  0  0  0  0  0  0  0
  -26.7651  -31.5240   25.8181 C   0  0  0  0  0  0  0  0  0  0  0  0
  -27.5198  -30.2718   20.9696 C   0  0  0  0  0  0  0  0  0  0  0  0
  -23.9682   -7.9719   22.1970 C   0  0  0  0  0  0  0  0  0  0  0  0
  -24.5621   -9.1847   24.2004 C   0  0  0  0  0  0  0  0  0  0  0  0
  -28.3189  -29.1578   20.7167 C   0  0  0  0  0  0  0  0  0  0  0  0
  -21.4102   -6.9117   24.1376 C   0  0  0  0  0  0  0  0  0  0  0  0
  -20.2266   -6.2328   23.8482 C   0  0  0  0  0  0  0  0  0  0  0  0
  -26.3391  -27.8243   20.3681 C   0  0  0  0  0  0  0  0  0  0  0  0
  -28.0873  -20.4549   20.9657 C   0  0  0  0  0  0  0  0  0  0  0  0
  -30.2331  -18.8734   20.1428 C   0  0  0  0  0  0  0  0  0  0  0  0
  -21.4912   -4.2285   23.3785 C   0  0  0  0  0  0  0  0  0  0  0  0
  -24.7292  -10.2597   22.0432 C   0  0  0  0  0  0  0  0  0  0  0  0
  -24.1797  -12.4600   20.8752 C   0  0  0  0  0  0  0  0  0  0  0  0
  -25.2535  -33.1385   26.8160 C   0  0  0  0  0  0  0  0  0  0  0  0
  -26.1218  -30.1678   20.9343 C   0  0  0  0  0  0  0  0  0  0  0  0
  -25.4553  -31.9845   26.0350 C   0  0  0  0  0  0  0  0  0  0  0  0
  -25.5245  -28.9391   20.6184 C   0  0  0  0  0  0  0  0  0  0  0  0
  -27.8689  -19.1367   20.5656 C   0  0  0  0  0  0  0  0  0  0  0  0
  -28.9418  -18.3458   20.1542 C   0  0  0  0  0  0  0  0  0  0  0  0
  -24.1105   -8.0178   23.5838 C   0  0  0  0  0  0  0  0  0  0  0  0
  -27.7286  -27.9331   20.4187 C   0  0  0  0  0  0  0  0  0  0  0  0
  -22.6343   -6.2491   24.0474 C   0  0  0  0  0  0  0  0  0  0  0  0
  -29.3786  -20.9825   20.9543 C   0  0  0  0  0  0  0  0  0  0  0  0
  -20.2671   -4.8912   23.4686 C   0  0  0  0  0  0  0  0  0  0  0  0
  -30.4514  -20.1917   20.5429 C   0  0  0  0  0  0  0  0  0  0  0  0
  -22.6748   -4.9074   23.6679 C   0  0  0  0  0  0  0  0  0  0  0  0
  -25.0495  -11.4178   21.2480 C   0  0  0  0  0  0  0  0  0  0  0  0
  -24.9609  -13.3094   20.1304 C   0  0  0  0  0  0  0  0  0  0  0  0
  -22.7898  -12.6440   21.1754 C   0  0  0  0  0  0  0  0  0  0  0  0
  -23.7878  -30.5780   23.0527 C   0  0  0  0  0  0  0  0  0  0  0  0
  -21.8868  -30.1104   20.4662 C   0  0  0  0  0  0  0  0  0  0  0  0
  -21.5210  -28.7915   17.3400 C   0  0  0  0  0  0  0  0  0  0  0  0
  -29.7090  -16.0996   19.3103 C   0  0  0  0  0  0  0  0  0  0  0  0
  -23.8708  -33.6560   27.1242 C   0  0  0  0  0  0  0  0  0  0  0  0
  -25.2742  -31.3851   21.1832 C   0  0  0  0  0  0  0  0  0  0  0  0
  -24.0285  -28.7794   20.5480 C   0  0  0  0  0  0  0  0  0  0  0  0
  -22.7940  -33.1108   26.1895 C   0  0  0  0  0  0  0  0  0  0  0  0
  -29.6215  -12.7014   18.2512 C   0  0  0  0  0  0  0  0  0  0  0  0
  -22.9455  -31.6020   26.0232 C   0  0  0  0  0  0  0  0  0  0  0  0
  -28.3527  -12.1503   18.9058 C   0  0  0  0  0  0  0  0  0  0  0  0
  -30.3388  -13.7007   19.1571 C   0  0  0  0  0  0  0  0  0  0  0  0
  -28.2321  -14.2471   20.3114 C   0  0  0  0  0  0  0  0  0  0  0  0
  -24.2985  -31.2495   25.3935 C   0  0  1  0  0  0  0  0  0  0  0  0
  -23.8546  -31.0444   21.6260 C   0  0  1  0  0  0  0  0  0  0  0  0
  -27.4403  -13.2853   19.4105 C   0  0  2  0  0  0  0  0  0  0  0  0
  -26.4753  -18.5979   20.5878 C   0  0  0  0  0  0  0  0  0  0  0  0
  -19.8410  -28.5376   15.4932 C   0  0  0  0  0  0  0  0  0  0  0  0
  -29.9289  -25.0972   22.0364 C   0  0  0  0  0  0  0  0  0  0  0  0
  -20.4701  -27.9269   22.0584 C   0  0  0  0  0  0  0  0  0  0  0  0
  -19.4910  -27.0928   19.9104 C   0  0  0  0  0  0  0  0  0  0  0  0
  -18.9510  -29.3912   20.7158 C   0  0  0  0  0  0  0  0  0  0  0  0
  -23.2139  -30.2972   15.4358 C   0  0  0  0  0  0  0  0  0  0  0  0
  -27.9659  -25.5687   20.5157 C   0  0  0  0  0  0  0  0  0  1  0  0
  -28.5313  -23.1980   21.1260 C   0  0  0  0  0  0  0  0  0  0  0  0
  -21.2591  -28.9076   19.8042 C   0  0  1  0  0  0  0  0  0  0  0  0
  -20.9728  -29.3842   16.0544 C   0  0  2  0  0  0  0  0  0  0  0  0
  -29.0982  -24.5935   20.8499 C   0  0  2  0  0  0  0  0  0  0  0  0
  -20.0710  -28.3318   20.6254 C   0  0  0  0  0  0  0  0  0  0  0  0
  -26.2884  -11.5874   20.7786 N   0  0  0  0  0  0  0  0  0  0  0  0
  -26.2027  -12.7460   20.1031 N   0  0  0  0  0  0  0  0  0  0  0  0
  -23.2425  -29.9974   20.8054 N   0  0  0  0  0  0  0  0  0  0  0  0
  -29.4137  -14.7491   19.5927 N   0  0  0  0  0  0  0  0  0  0  0  0
  -24.6998  -14.4756   19.5026 N   0  0  0  0  0  0  0  0  0  0  0  0
  -22.1404  -11.6757   21.9532 N   0  0  0  0  0  0  0  0  0  0  0  0
  -28.7408  -17.0045   19.7442 N   0  0  0  0  0  0  0  0  0  0  0  0
  -24.2712  -31.4941   23.9673 N   0  0  0  0  0  0  0  0  0  0  0  0
  -20.9043  -29.3248   18.4520 N   0  0  0  0  0  0  0  0  0  0  0  0
  -22.0475  -29.4737   15.0258 N   0  3  0  0  0  0  0  0  0  0  0  0
  -22.1388  -13.6292   20.7522 O   0  0  0  0  0  0  0  0  0  0  0  0
  -23.3300  -29.4696   23.3052 O   0  0  0  0  0  0  0  0  0  0  0  0
  -21.2013  -31.1159   20.6683 O   0  0  0  0  0  0  0  0  0  0  0  0
  -22.4051  -27.9379   17.3560 O   0  0  0  0  0  0  0  0  0  0  0  0
  -30.7315  -16.4269   18.7025 O   0  0  0  0  0  0  0  0  0  0  0  0
  -23.8085   -6.9243   24.3358 O   0  0  0  0  0  0  0  0  0  0  0  0
  -28.5063  -26.8439   20.1721 O   0  0  0  0  0  0  0  0  0  1  0  0
  -29.5920  -22.2778   21.3475 O   0  0  0  0  0  0  0  0  0  0  0  0
  -19.1303   -4.2389   23.1922 F   0  0  0  0  0  0  0  0  0  0  0  0
  -31.6942  -20.6929   20.5298 F   0  0  0  0  0  0  0  0  0  0  0  0
  -23.8477   -4.2652   23.5806 F   0  0  0  0  0  0  0  0  0  0  0  0
  1  2  1  0  0  0  0
  1  5  2  0  0  0  0
  2  6  2  0  0  0  0
  3  8  2  0  0  0  0
  3 17  1  0  0  0  0
  4  9  1  0  0  0  0
  4 17  2  0  0  0  0
  5 19  1  0  0  0  0
  6 21  1  0  0  0  0
  7 10  2  0  0  0  0
  7 20  1  0  0  0  0
  8 25  1  0  0  0  0
  9 25  2  0  0  0  0
 10 26  1  0  0  0  0
 11 12  2  0  0  0  0
 11 27  1  0  0  0  0
 12 29  1  0  0  0  0
 13 22  1  0  0  0  0
 13 26  2  0  0  0  0
 14 23  2  0  0  0  0
 14 28  1  0  0  0  0
 15 24  2  0  0  0  0
 15 30  1  0  0  0  0
 16 29  2  0  0  0  0
 16 31  1  0  0  0  0
 17 32  1  0  0  0  0
 18 32  1  0  0  0  0
 18 33  2  0  0  0  0
 18 34  1  0  0  0  0
 19 21  2  0  0  0  0
 19 39  1  0  0  0  0
 20 22  2  0  0  0  0
 20 40  1  0  0  0  0
 21 48  1  0  0  0  0
 22 41  1  0  0  0  0
 23 24  1  0  0  0  0
 23 51  1  0  0  0  0
 24 70  1  0  0  0  0
 25 79  1  0  0  0  0
 26 80  1  0  0  0  0
 27 31  2  0  0  0  0
 27 79  1  0  0  0  0
 28 30  2  0  0  0  0
 28 81  1  0  0  0  0
 29 82  1  0  0  0  0
 30 83  1  0  0  0  0
 31 84  1  0  0  0  0
 32 64  2  0  0  0  0
 33 65  1  0  0  0  0
 33 68  1  0  0  0  0
 34 69  1  0  0  0  0
 34 74  2  0  0  0  0
 35 49  1  0  0  0  0
 35 71  1  0  0  0  0
 35 75  2  0  0  0  0
 36 60  1  0  0  0  0
 36 66  1  0  0  0  0
 36 76  2  0  0  0  0
 37 61  1  0  0  0  0
 37 72  1  0  0  0  0
 37 77  2  0  0  0  0
 38 67  1  0  0  0  0
 38 70  1  0  0  0  0
 38 78  2  0  0  0  0
 39 42  1  0  0  0  0
 40 49  1  0  0  0  0
 41 66  1  0  0  0  0
 42 44  1  0  0  0  0
 43 45  1  0  0  0  0
 43 46  1  0  0  0  0
 44 48  1  0  0  0  0
 45 50  1  0  0  0  0
 46 67  1  0  0  0  0
 47 50  1  0  0  0  0
 47 67  1  0  0  0  0
 48 71  1  0  0  0  0
 49 66  1  0  0  0  0
 50 65  1  0  0  0  0
 52 61  1  0  0  0  0
 53 62  1  0  0  0  0
 54 63  1  0  0  0  0
 55 63  1  0  0  0  0
 56 63  1  0  0  0  0
 57 73  1  0  0  0  0
 58 62  1  0  0  0  0
 58 80  1  0  0  0  0
 59 62  1  0  0  0  0
 59 81  1  0  0  0  0
 60 63  1  0  0  0  0
 60 72  1  0  0  0  0
 61 73  1  0  0  0  0
 64 65  1  0  0  0  0
M  CHG  1  73   1
M  ISO  4  38 100  58 101  70 100  80 101
M  END
> <Batch ID>
0137

> <Smiles>
CNC(C)C(=O)NC(C(=O)N1Cc2cc([101O:1][101CH2:1]C(C)COc3cc(C)c([100NH:0][100C:0](=O)N4CCCC(n5nc(-c6ccc(Oc7ccc(F)cc7F)cc6)c(C(N)=O)c5N)C4)cc3F)ccc2CC1C(=O)NC1CCCc2ccccc21)C(C)(C)C

> <Shape>
0.340

> <Color>
0.141

> <Negative vol penalty>
0.000

$$$$

  -OEChem-04052302423D

 88 96  0     1  0  0  0  0  0999 V2000
  -26.7890  -37.5824   20.8861 C   0  0  0  0  0  0  0  0  0  0  0  0
  -27.3736  -36.3814   20.4969 C   0  0  0  0  0  0  0  0  0  0  0  0
  -24.6411   -9.6466   19.9348 C   0  0  0  0  0  0  0  0  0  0  0  0
  -24.4992   -9.8404   22.3388 C   0  0  0  0  0  0  0  0  0  0  0  0
  -25.9353  -37.6160   21.9879 C   0  0  0  0  0  0  0  0  0  0  0  0
  -27.1055  -35.2135   21.2100 C   0  0  0  0  0  0  0  0  0  0  0  0
  -26.6379  -29.5426   18.9455 C   0  0  0  0  0  0  0  0  0  0  0  0
  -24.4182   -8.2732   20.0323 C   0  0  0  0  0  0  0  0  0  0  0  0
  -24.2763   -8.4669   22.4364 C   0  0  0  0  0  0  0  0  0  0  0  0
  -27.5377  -28.4793   18.8857 C   0  0  0  0  0  0  0  0  0  0  0  0
  -21.6955   -6.3275   22.0086 C   0  0  0  0  0  0  0  0  0  0  0  0
  -20.6790   -5.8964   22.8610 C   0  0  0  0  0  0  0  0  0  0  0  0
  -26.5755  -27.5597   20.8976 C   0  0  0  0  0  0  0  0  0  0  0  0
  -27.9127  -20.1127   22.4800 C   0  0  0  0  0  0  0  0  0  0  0  0
  -22.2913   -4.6377   24.1469 C   0  0  0  0  0  0  0  0  0  0  0  0
  -24.6817  -10.4302   21.0881 C   0  0  0  0  0  0  0  0  0  0  0  0
  -23.9430  -12.8603   20.8495 C   0  0  0  0  0  0  0  0  0  0  0  0
  -25.6491  -36.4461   22.7090 C   0  0  0  0  0  0  0  0  0  0  0  0
  -25.7058  -29.6283   19.9896 C   0  0  0  0  0  0  0  0  0  0  0  0
  -26.2482  -35.2318   22.3233 C   0  0  0  0  0  0  0  0  0  0  0  0
  -25.6632  -28.6237   20.9669 C   0  0  0  0  0  0  0  0  0  0  0  0
  -27.4836  -21.4375   22.4009 C   0  0  0  0  0  0  0  0  0  0  0  0
  -26.2374  -21.7987   22.9130 C   0  0  0  0  0  0  0  0  0  0  0  0
  -25.8494  -19.5102   23.5831 C   0  0  0  0  0  0  0  0  0  0  0  0
  -27.0955  -19.1490   23.0710 C   0  0  0  0  0  0  0  0  0  0  0  0
  -24.2357   -7.6833   21.2831 C   0  0  0  0  0  0  0  0  0  0  0  0
  -27.5085  -27.4892   19.8634 C   0  0  0  0  0  0  0  0  0  0  0  0
  -23.0098   -5.9136   22.2253 C   0  0  0  0  0  0  0  0  0  0  0  0
  -20.9769   -5.0515   23.9302 C   0  0  0  0  0  0  0  0  0  0  0  0
  -23.3077   -5.0688   23.2945 C   0  0  0  0  0  0  0  0  0  0  0  0
  -25.4203  -20.8351   23.5041 C   0  0  0  0  0  0  0  0  0  0  0  0
  -24.9124  -11.8490   20.9880 C   0  0  0  0  0  0  0  0  0  0  0  0
  -24.6676  -14.0260   20.7991 C   0  0  0  0  0  0  0  0  0  0  0  0
  -22.5151  -12.7553   20.7732 C   0  0  0  0  0  0  0  0  0  0  0  0
  -25.1408  -31.7067   22.3273 C   0  0  0  0  0  0  0  0  0  0  0  0
  -22.5590  -29.8156   22.8568 C   0  0  0  0  0  0  0  0  0  0  0  0
  -21.0993  -26.7478   22.5322 C   0  0  0  0  0  0  0  0  0  0  0  0
  -28.7614  -17.3013   22.6742 C   0  0  0  0  0  0  0  0  0  0  0  0
  -24.7574  -36.5408   23.9217 C   0  0  0  0  0  0  0  0  0  0  0  0
  -24.7243  -30.7675   20.0251 C   0  0  0  0  0  0  0  0  0  0  0  0
  -24.6685  -28.6586   22.0973 C   0  0  0  0  0  0  0  0  0  0  0  0
  -24.2300  -35.1894   24.3969 C   0  0  0  0  0  0  0  0  0  0  0  0
  -29.6474  -14.7905   20.3103 C   0  0  0  0  0  0  0  0  0  0  0  0
  -25.3582  -34.1640   24.4478 C   0  0  0  0  0  0  0  0  0  0  0  0
  -28.4148  -13.8846   20.2645 C   0  0  0  0  0  0  0  0  0  0  0  0
  -29.9125  -15.3166   21.7198 C   0  0  0  0  0  0  0  0  0  0  0  0
  -27.5351  -15.0689   22.3165 C   0  0  0  0  0  0  0  0  0  0  0  0
  -25.9625  -33.9391   23.0565 C   0  0  1  0  0  0  0  0  0  0  0  0
  -24.1578  -31.0251   21.4180 C   0  0  1  0  0  0  0  0  0  0  0  0
  -27.1900  -14.5666   20.9050 C   0  0  2  0  0  0  0  0  0  0  0  0
  -24.9565  -18.4963   24.2222 C   0  0  0  0  0  0  0  0  0  0  0  0
  -24.7297  -23.4182   21.7337 C   0  0  0  0  0  0  0  0  0  0  0  0
  -18.9990  -25.4960   23.0968 C   0  0  0  0  0  0  0  0  0  0  0  0
  -28.7862  -21.4179   19.4903 C   0  0  0  0  0  0  0  0  0  0  0  0
  -23.4784  -29.5861   25.7571 C   0  0  0  0  0  0  0  0  0  0  0  0
  -21.9444  -27.6244   26.0152 C   0  0  0  0  0  0  0  0  0  0  0  0
  -21.0111  -29.8712   25.4643 C   0  0  0  0  0  0  0  0  0  0  0  0
  -30.1960  -24.2060   19.8880 C   0  0  0  0  0  0  0  0  0  0  0  0
  -28.4009  -24.1127   18.1511 C   0  0  0  0  0  0  0  0  0  0  0  0
  -20.4926  -26.2472   19.6791 C   0  0  0  0  0  0  0  0  0  0  0  0
  -28.3868  -22.4641   21.7543 C   0  0  0  0  0  0  0  0  0  0  0  0
  -25.7612  -23.2125   22.8388 C   0  0  0  0  0  0  0  0  0  0  0  0
  -27.9530  -25.2045   20.3518 C   0  0  0  0  0  0  0  0  0  1  0  0
  -22.2850  -28.5906   23.6954 C   0  0  1  0  0  0  0  0  0  0  0  0
  -19.7196  -26.3345   22.0526 C   0  0  2  0  0  0  0  0  0  0  0  0
  -28.1701  -22.6253   20.2247 C   0  0  1  0  0  0  0  0  0  0  0  0
  -22.1999  -28.9181   25.2129 C   0  0  0  0  0  0  0  0  0  0  0  0
  -28.6819  -24.0150   19.6703 C   0  0  0  0  0  0  0  0  0  0  0  0
  -26.1580  -12.3301   21.0232 N   0  0  0  0  0  0  0  0  0  0  0  0
  -25.9761  -13.6564   20.9060 N   0  0  0  0  0  0  0  0  0  0  0  0
  -23.7339  -29.7961   22.0918 N   0  0  0  0  0  0  0  0  0  0  0  0
  -28.7097  -15.9533   22.2608 N   0  0  0  0  0  0  0  0  0  0  0  0
  -24.3067  -15.3208   20.6742 N   0  0  0  0  0  0  0  0  0  0  0  0
  -21.9342  -11.4816   20.8409 N   0  0  0  0  0  0  0  0  0  0  0  0
  -27.5489  -17.8083   23.1406 N   0  0  0  0  0  0  0  0  0  0  0  0
  -25.1028  -33.0865   22.2638 N   0  0  0  0  0  0  0  0  0  0  0  0
  -21.0779  -27.9820   23.1468 N   0  0  0  0  0  0  0  0  0  0  0  0
  -19.8248  -25.5354   20.7991 N   0  3  0  0  0  0  0  0  0  0  0  0
  -21.7772  -13.7599   20.6323 O   0  0  0  0  0  0  0  0  0  0  0  0
  -25.8780  -31.0307   23.0353 O   0  0  0  0  0  0  0  0  0  0  0  0
  -21.7564  -30.7521   22.8741 O   0  0  0  0  0  0  0  0  0  0  0  0
  -22.0957  -26.0445   22.3803 O   0  0  0  0  0  0  0  0  0  0  0  0
  -29.7978  -17.9657   22.5931 O   0  0  0  0  0  0  0  0  0  0  0  0
  -24.0180   -6.3431   21.3786 O   0  0  0  0  0  0  0  0  0  0  0  0
  -28.3861  -26.4506   19.8078 O   0  0  0  0  0  0  0  0  0  1  0  0
  -20.0010   -4.6389   24.7496 F   0  0  0  0  0  0  0  0  0  0  0  0
  -24.5687   -4.6688   23.5084 F   0  0  0  0  0  0  0  0  0  0  0  0
  -24.2224  -21.1829   23.9978 F   0  0  0  0  0  0  0  0  0  0  0  0
  1  2  1  0  0  0  0
  1  5  2  0  0  0  0
  2  6  2  0  0  0  0
  3  8  2  0  0  0  0
  3 16  1  0  0  0  0
  4  9  1  0  0  0  0
  4 16  2  0  0  0  0
  5 18  1  0  0  0  0
  6 20  1  0  0  0  0
  7 10  2  0  0  0  0
  7 19  1  0  0  0  0
  8 26  1  0  0  0  0
  9 26  2  0  0  0  0
 10 27  1  0  0  0  0
 11 12  2  0  0  0  0
 11 28  1  0  0  0  0
 12 29  1  0  0  0  0
 13 21  1  0  0  0  0
 13 27  2  0  0  0  0
 14 22  2  0  0  0  0
 14 25  1  0  0  0  0
 15 29  2  0  0  0  0
 15 30  1  0  0  0  0
 16 32  1  0  0  0  0
 17 32  1  0  0  0  0
 17 33  2  0  0  0  0
 17 34  1  0  0  0  0
 18 20  2  0  0  0  0
 18 39  1  0  0  0  0
 19 21  2  0  0  0  0
 19 40  1  0  0  0  0
 20 48  1  0  0  0  0
 21 41  1  0  0  0  0
 22 23  1  0  0  0  0
 22 61  1  0  0  0  0
 23 31  2  0  0  0  0
 23 62  1  0  0  0  0
 24 25  2  0  0  0  0
 24 31  1  0  0  0  0
 24 51  1  0  0  0  0
 25 75  1  0  0  0  0
 26 84  1  0  0  0  0
 27 85  1  0  0  0  0
 28 30  2  0  0  0  0
 28 84  1  0  0  0  0
 29 86  1  0  0  0  0
 30 87  1  0  0  0  0
 31 88  1  0  0  0  0
 32 69  2  0  0  0  0
 33 70  1  0  0  0  0
 33 73  1  0  0  0  0
 34 74  1  0  0  0  0
 34 79  2  0  0  0  0
 35 49  1  0  0  0  0
 35 76  1  0  0  0  0
 35 80  2  0  0  0  0
 36 64  1  0  0  0  0
 36 71  1  0  0  0  0
 36 81  2  0  0  0  0
 37 65  1  0  0  0  0
 37 77  1  0  0  0  0
 37 82  2  0  0  0  0
 38 72  1  0  0  0  0
 38 75  1  0  0  0  0
 38 83  2  0  0  0  0
 39 42  1  0  0  0  0
 40 49  1  0  0  0  0
 41 71  1  0  0  0  0
 42 44  1  0  0  0  0
 43 45  1  0  0  0  0
 43 46  1  0  0  0  0
 44 48  1  0  0  0  0
 45 50  1  0  0  0  0
 46 72  1  0  0  0  0
 47 50  1  0  0  0  0
 47 72  1  0  0  0  0
 48 76  1  0  0  0  0
 49 71  1  0  0  0  0
 50 70  1  0  0  0  0
 52 62  1  0  0  0  0
 53 65  1  0  0  0  0
 54 66  1  0  0  0  0
 55 67  1  0  0  0  0
 56 67  1  0  0  0  0
 57 67  1  0  0  0  0
 58 68  1  0  0  0  0
 59 68  1  0  0  0  0
 60 78  1  0  0  0  0
 61 66  1  0  0  0  0
 63 68  1  0  0  0  0
 63 85  1  0  0  0  0
 64 67  1  0  0  0  0
 64 77  1  0  0  0  0
 65 78  1  0  0  0  0
 66 68  1  0  0  0  0
 69 70  1  0  0  0  0
M  CHG  1  78   1
M  ISO  4  38 100  63 101  75 100  85 101
M  END
> <Batch ID>
0137

> <Smiles>
CCc1c(CC(C)C(C)(C)[101CH2:1][101O:1]c2ccc3c(c2)CN(C(=O)C(NC(=O)C(C)NC)C(C)(C)C)C(C(=O)NC2CCCc4ccccc42)C3)cc([100NH:0][100C:0](=O)N2CCCC(n3nc(-c4ccc(Oc5ccc(F)cc5F)cc4)c(C(N)=O)c3N)C2)c(C)c1F

> <Shape>
0.322

> <Color>
0.109

> <Negative vol penalty>
0.000

$$$$

  -OEChem-04052302423D

 89 97  0     1  0  0  0  0  0999 V2000
  -16.3743  -26.9341   22.2021 C   0  0  0  0  0  0  0  0  0  0  0  0
  -17.5872  -26.4174   21.7579 C   0  0  0  0  0  0  0  0  0  0  0  0
  -23.9537  -14.3247   19.0344 C   0  0  0  0  0  0  0  0  0  0  0  0
  -25.3473  -15.2749   20.7642 C   0  0  0  0  0  0  0  0  0  0  0  0
  -16.3467  -28.1357   22.9086 C   0  0  0  0  0  0  0  0  0  0  0  0
  -18.7732  -27.1027   22.0191 C   0  0  0  0  0  0  0  0  0  0  0  0
  -22.4728  -24.0407   23.6259 C   0  0  0  0  0  0  0  0  0  0  0  0
  -30.0696  -24.7134   18.1424 C   0  0  0  0  0  0  0  0  0  0  0  0
  -29.1953  -23.7715   17.6003 C   0  0  0  0  0  0  0  0  0  0  0  0
  -24.3627  -13.0446   19.4081 C   0  0  0  0  0  0  0  0  0  0  0  0
  -25.7562  -13.9948   21.1379 C   0  0  0  0  0  0  0  0  0  0  0  0
  -23.1332  -23.2798   22.6622 C   0  0  0  0  0  0  0  0  0  0  0  0
  -23.6419  -10.8106   21.8418 C   0  0  0  0  0  0  0  0  0  0  0  0
  -22.6621   -9.8244   21.9552 C   0  0  0  0  0  0  0  0  0  0  0  0
  -24.9502  -24.8664   22.6633 C   0  0  0  0  0  0  0  0  0  0  0  0
  -29.9462  -23.5971   20.2815 C   0  0  0  0  0  0  0  0  0  0  0  0
  -23.7796   -8.5187   20.2571 C   0  0  0  0  0  0  0  0  0  0  0  0
  -24.4461  -15.4399   19.7124 C   0  0  0  0  0  0  0  0  0  0  0  0
  -22.9199  -17.4811   19.8219 C   0  0  0  0  0  0  0  0  0  0  0  0
  -17.5339  -28.8312   23.1870 C   0  0  0  0  0  0  0  0  0  0  0  0
  -23.0421  -25.2279   24.1084 C   0  0  0  0  0  0  0  0  0  0  0  0
  -18.7613  -28.3154   22.7289 C   0  0  0  0  0  0  0  0  0  0  0  0
  -24.2962  -25.6392   23.6350 C   0  0  0  0  0  0  0  0  0  0  0  0
  -30.4451  -24.6262   19.4830 C   0  0  0  0  0  0  0  0  0  0  0  0
  -29.0718  -22.6551   19.7394 C   0  0  0  0  0  0  0  0  0  0  0  0
  -28.6963  -22.7423   18.3988 C   0  0  0  0  0  0  0  0  0  0  0  0
  -25.2639  -12.8796   20.4599 C   0  0  0  0  0  0  0  0  0  0  0  0
  -24.3707  -23.6941   22.1786 C   0  0  0  0  0  0  0  0  0  0  0  0
  -24.6906  -10.6510   20.9359 C   0  0  0  0  0  0  0  0  0  0  0  0
  -22.7309   -8.6785   21.1630 C   0  0  0  0  0  0  0  0  0  0  0  0
  -24.7594   -9.5050   20.1436 C   0  0  0  0  0  0  0  0  0  0  0  0
  -24.0245  -16.7625   19.3265 C   0  0  0  0  0  0  0  0  0  0  0  0
  -22.9529  -18.6737   19.1414 C   0  0  0  0  0  0  0  0  0  0  0  0
  -21.9508  -17.1042   20.8090 C   0  0  0  0  0  0  0  0  0  0  0  0
  -22.2012  -28.2931   24.0778 C   0  0  0  0  0  0  0  0  0  0  0  0
  -24.8186  -28.6274   25.9644 C   0  0  0  0  0  0  0  0  0  0  0  0
  -27.8475  -27.4097   26.9594 C   0  0  0  0  0  0  0  0  0  0  0  0
  -27.3475  -21.7545   16.5144 C   0  0  0  0  0  0  0  0  0  0  0  0
  -17.4492  -30.1503   23.9132 C   0  0  0  0  0  0  0  0  0  0  0  0
  -22.3293  -26.0233   25.1675 C   0  0  0  0  0  0  0  0  0  0  0  0
  -24.9597  -26.8954   24.1354 C   0  0  0  0  0  0  0  0  0  0  0  0
  -18.7878  -30.6241   24.4736 C   0  0  0  0  0  0  0  0  0  0  0  0
  -24.3625  -20.5708   14.9762 C   0  0  0  0  0  0  0  0  0  0  0  0
  -19.8859  -30.4828   23.4244 C   0  0  0  0  0  0  0  0  0  0  0  0
  -23.8334  -19.5296   15.9652 C   0  0  0  0  0  0  0  0  0  0  0  0
  -25.8882  -20.5559   14.8992 C   0  0  0  0  0  0  0  0  0  0  0  0
  -26.0470  -19.6375   17.1797 C   0  0  0  0  0  0  0  0  0  0  0  0
  -20.0715  -29.0169   23.0141 C   0  0  1  0  0  0  0  0  0  0  0  0
  -22.7651  -27.4846   25.2118 C   0  0  1  0  0  0  0  0  0  0  0  0
  -24.5181  -19.6591   17.3400 C   0  0  2  0  0  0  0  0  0  0  0  0
  -30.4083  -19.7927   20.0156 C   0  0  0  0  0  0  0  0  0  0  0  0
  -28.6480  -20.6938   23.1356 C   0  0  0  0  0  0  0  0  0  0  0  0
  -29.7707  -27.9216   28.4880 C   0  0  0  0  0  0  0  0  0  0  0  0
  -30.0042  -27.6889   19.5681 C   0  0  0  0  0  0  0  0  0  0  0  0
  -29.6827  -26.5421   21.7601 C   0  0  0  0  0  0  0  0  0  0  0  0
  -31.7818  -27.8381   21.3121 C   0  0  0  0  0  0  0  0  0  0  0  0
  -25.7956  -30.7629   24.0163 C   0  0  0  0  0  0  0  0  0  0  0  0
  -28.0740  -30.5475   25.0315 C   0  0  0  0  0  0  0  0  0  0  0  0
  -26.1544  -31.3102   26.4300 C   0  0  0  0  0  0  0  0  0  0  0  0
  -27.4444  -24.9109   28.4931 C   0  0  0  0  0  0  0  0  0  0  0  0
  -31.3781  -25.6350   20.0631 C   0  0  0  0  0  0  0  0  0  0  0  0
  -28.9165  -20.0941   20.1335 C   0  0  0  0  0  0  0  0  0  0  0  0
  -29.0886  -21.7301   22.1053 C   0  0  0  0  0  0  0  0  0  0  0  0
  -26.9699  -21.6497   20.7459 C   0  0  0  0  0  0  0  0  0  0  0  0
  -26.4435  -22.9948   21.2457 C   0  0  0  0  0  0  0  0  0  1  0  0
  -26.2858  -28.8869   25.7212 C   0  0  1  0  0  0  0  0  0  0  0  0
  -28.4429  -27.1952   28.3392 C   0  0  2  0  0  0  0  0  0  0  0  0
  -28.5302  -21.5225   20.6533 C   0  0  0  0  0  0  0  0  0  0  0  0
  -30.7244  -26.9102   20.6893 C   0  0  0  0  0  0  0  0  0  0  0  0
  -26.5643  -30.3542   25.2887 C   0  0  0  0  0  0  0  0  0  0  0  0
  -24.7091  -17.4419   18.4024 N   0  0  0  0  0  0  0  0  0  0  0  0
  -24.0329  -18.5997   18.3118 N   0  0  0  0  0  0  0  0  0  0  0  0
  -24.2202  -27.6422   25.1663 N   0  0  0  0  0  0  0  0  0  0  0  0
  -26.4674  -20.6869   16.2380 N   0  0  0  0  0  0  0  0  0  0  0  0
  -22.1631  -19.7679   19.1776 N   0  0  0  0  0  0  0  0  0  0  0  0
  -22.0643  -15.8429   21.4094 N   0  0  0  0  0  0  0  0  0  0  0  0
  -27.8093  -21.7953   17.8295 N   0  0  0  0  0  0  0  0  0  0  0  0
  -20.8204  -28.3003   24.0241 N   0  0  0  0  0  0  0  0  0  0  0  0
  -26.9795  -28.4809   26.9386 N   0  0  0  0  0  0  0  0  0  0  0  0
  -28.6716  -25.7431   28.5846 N   0  3  0  0  0  0  0  0  0  0  0  0
  -21.0024  -17.8570   21.1368 O   0  0  0  0  0  0  0  0  0  0  0  0
  -22.9624  -28.8690   23.3093 O   0  0  0  0  0  0  0  0  0  0  0  0
  -24.2272  -29.2700   26.8356 O   0  0  0  0  0  0  0  0  0  0  0  0
  -28.1275  -26.7005   25.9955 O   0  0  0  0  0  0  0  0  0  0  0  0
  -27.6465  -22.5880   15.6554 O   0  0  0  0  0  0  0  0  0  0  0  0
  -25.6630  -11.6306   20.8250 O   0  0  0  0  0  0  0  0  0  0  0  0
  -25.0171  -22.9537   21.2375 O   0  0  0  0  0  0  0  0  0  1  0  0
  -21.7908   -7.7308   21.2731 F   0  0  0  0  0  0  0  0  0  0  0  0
  -25.7651   -9.3455   19.2725 F   0  0  0  0  0  0  0  0  0  0  0  0
  1  2  1  0  0  0  0
  1  5  2  0  0  0  0
  2  6  2  0  0  0  0
  3 10  2  0  0  0  0
  3 18  1  0  0  0  0
  4 11  1  0  0  0  0
  4 18  2  0  0  0  0
  5 20  1  0  0  0  0
  6 22  1  0  0  0  0
  7 12  2  0  0  0  0
  7 21  1  0  0  0  0
  8  9  2  0  0  0  0
  8 24  1  0  0  0  0
  9 26  1  0  0  0  0
 10 27  1  0  0  0  0
 11 27  2  0  0  0  0
 12 28  1  0  0  0  0
 13 14  2  0  0  0  0
 13 29  1  0  0  0  0
 14 30  1  0  0  0  0
 15 23  1  0  0  0  0
 15 28  2  0  0  0  0
 16 24  2  0  0  0  0
 16 25  1  0  0  0  0
 17 30  2  0  0  0  0
 17 31  1  0  0  0  0
 18 32  1  0  0  0  0
 19 32  1  0  0  0  0
 19 33  2  0  0  0  0
 19 34  1  0  0  0  0
 20 22  2  0  0  0  0
 20 39  1  0  0  0  0
 21 23  2  0  0  0  0
 21 40  1  0  0  0  0
 22 48  1  0  0  0  0
 23 41  1  0  0  0  0
 24 61  1  0  0  0  0
 25 26  2  0  0  0  0
 25 68  1  0  0  0  0
 26 77  1  0  0  0  0
 27 86  1  0  0  0  0
 28 87  1  0  0  0  0
 29 31  2  0  0  0  0
 29 86  1  0  0  0  0
 30 88  1  0  0  0  0
 31 89  1  0  0  0  0
 32 71  2  0  0  0  0
 33 72  1  0  0  0  0
 33 75  1  0  0  0  0
 34 76  1  0  0  0  0
 34 81  2  0  0  0  0
 35 49  1  0  0  0  0
 35 78  1  0  0  0  0
 35 82  2  0  0  0  0
 36 66  1  0  0  0  0
 36 73  1  0  0  0  0
 36 83  2  0  0  0  0
 37 67  1  0  0  0  0
 37 79  1  0  0  0  0
 37 84  2  0  0  0  0
 38 74  1  0  0  0  0
 38 77  1  0  0  0  0
 38 85  2  0  0  0  0
 39 42  1  0  0  0  0
 40 49  1  0  0  0  0
 41 73  1  0  0  0  0
 42 44  1  0  0  0  0
 43 45  1  0  0  0  0
 43 46  1  0  0  0  0
 44 48  1  0  0  0  0
 45 50  1  0  0  0  0
 46 74  1  0  0  0  0
 47 50  1  0  0  0  0
 47 74  1  0  0  0  0
 48 78  1  0  0  0  0
 49 73  1  0  0  0  0
 50 72  1  0  0  0  0
 51 62  1  0  0  0  0
 52 63  1  0  0  0  0
 53 67  1  0  0  0  0
 54 69  1  0  0  0  0
 55 69  1  0  0  0  0
 56 69  1  0  0  0  0
 57 70  1  0  0  0  0
 58 70  1  0  0  0  0
 59 70  1  0  0  0  0
 60 80  1  0  0  0  0
 61 69  1  0  0  0  0
 62 68  1  0  0  0  0
 63 68  1  0  0  0  0
 64 65  1  0  0  0  0
 64 68  1  0  0  0  0
 65 87  1  0  0  0  0
 66 70  1  0  0  0  0
 66 79  1  0  0  0  0
 67 80  1  0  0  0  0
 71 72  1  0  0  0  0
M  CHG  1  80   1
M  ISO  4  38 100  65 101  77 100  87 101
M  END
> <Batch ID>
0137

> <Smiles>
CCC(CC)(C[101CH2:1][101O:1]c1ccc2c(c1)CN(C(=O)C(NC(=O)C(C)NC)C(C)(C)C)C(C(=O)NC1CCCc3ccccc31)C2)c1cc(CC(C)(C)C)ccc1[100NH:0][100C:0](=O)N1CCCC(n2nc(-c3ccc(Oc4ccc(F)cc4F)cc3)c(C(N)=O)c2N)C1

> <Shape>
0.238

> <Color>
0.063

> <Negative vol penalty>
0.000

$$$$

  -OEChem-04052302423D

 84 92  0     1  0  0  0  0  0999 V2000
  -17.5596  -26.0658   21.0352 C   0  0  0  0  0  0  0  0  0  0  0  0
  -18.8161  -26.1649   20.4463 C   0  0  0  0  0  0  0  0  0  0  0  0
  -23.0633  -10.1812   21.8739 C   0  0  0  0  0  0  0  0  0  0  0  0
  -24.5834   -8.6953   20.7258 C   0  0  0  0  0  0  0  0  0  0  0  0
  -17.2665  -26.8075   22.1788 C   0  0  0  0  0  0  0  0  0  0  0  0
  -19.7799  -27.0067   21.0001 C   0  0  0  0  0  0  0  0  0  0  0  0
  -24.3414  -24.8238   21.2709 C   0  0  0  0  0  0  0  0  0  0  0  0
  -21.9803   -9.4489   21.3879 C   0  0  0  0  0  0  0  0  0  0  0  0
  -23.5004   -7.9628   20.2399 C   0  0  0  0  0  0  0  0  0  0  0  0
  -25.0861  -24.7571   20.0942 C   0  0  0  0  0  0  0  0  0  0  0  0
  -21.1488   -5.4872   18.9910 C   0  0  0  0  0  0  0  0  0  0  0  0
  -21.2252   -4.0959   19.0542 C   0  0  0  0  0  0  0  0  0  0  0  0
  -26.3694  -26.6721   20.8050 C   0  0  0  0  0  0  0  0  0  0  0  0
  -21.4416   -4.2169   21.4575 C   0  0  0  0  0  0  0  0  0  0  0  0
  -29.6964  -21.2452   18.2091 C   0  0  0  0  0  0  0  0  0  0  0  0
  -24.3649   -9.8045   21.5428 C   0  0  0  0  0  0  0  0  0  0  0  0
  -26.1842  -10.3477   23.2467 C   0  0  0  0  0  0  0  0  0  0  0  0
  -18.2305  -27.6515   22.7525 C   0  0  0  0  0  0  0  0  0  0  0  0
  -24.5982  -25.8236   22.2201 C   0  0  0  0  0  0  0  0  0  0  0  0
  -19.4991  -27.7615   22.1517 C   0  0  0  0  0  0  0  0  0  0  0  0
  -25.6282  -26.7478   21.9940 C   0  0  0  0  0  0  0  0  0  0  0  0
  -28.5850  -21.6681   17.5179 C   0  0  0  0  0  0  0  0  0  0  0  0
  -27.5604  -20.7376   17.8138 C   0  0  0  0  0  0  0  0  0  0  0  0
  -22.1988   -8.3396   20.5709 C   0  0  0  0  0  0  0  0  0  0  0  0
  -26.0984  -25.6830   19.8597 C   0  0  0  0  0  0  0  0  0  0  0  0
  -21.2189   -6.2434   20.1611 C   0  0  0  0  0  0  0  0  0  0  0  0
  -21.3716   -3.4607   20.2874 C   0  0  0  0  0  0  0  0  0  0  0  0
  -21.3653   -5.6083   21.3943 C   0  0  0  0  0  0  0  0  0  0  0  0
  -25.4841  -10.5610   22.0441 C   0  0  0  0  0  0  0  0  0  0  0  0
  -28.1190  -19.8122   18.6645 C   0  0  0  0  0  0  0  0  0  0  0  0
  -27.1499  -11.3242   23.2596 C   0  0  0  0  0  0  0  0  0  0  0  0
  -27.4961  -18.6811   19.2444 C   0  0  0  0  0  0  0  0  0  0  0  0
  -28.0676  -17.7808   20.1093 C   0  0  0  0  0  0  0  0  0  0  0  0
  -25.9798   -9.3554   24.2613 C   0  0  0  0  0  0  0  0  0  0  0  0
  -27.2787  -16.6504   20.6391 C   0  0  0  0  0  0  0  0  0  0  0  0
  -22.9254  -28.2284   23.4537 C   0  0  0  0  0  0  0  0  0  0  0  0
  -25.5225  -28.5376   25.3725 C   0  0  0  0  0  0  0  0  0  0  0  0
  -28.8586  -27.9932   25.8426 C   0  0  0  0  0  0  0  0  0  0  0  0
  -17.8518  -28.4696   23.9616 C   0  0  0  0  0  0  0  0  0  0  0  0
  -23.8036  -25.8656   23.4965 C   0  0  0  0  0  0  0  0  0  0  0  0
  -25.9571  -27.8281   22.9906 C   0  0  0  0  0  0  0  0  0  0  0  0
  -19.0521  -29.0532   24.7024 C   0  0  0  0  0  0  0  0  0  0  0  0
  -29.8085  -14.0142   20.3527 C   0  0  0  0  0  0  0  0  0  0  0  0
  -20.0300  -29.6874   23.7184 C   0  0  0  0  0  0  0  0  0  0  0  0
  -29.0188  -12.7967   20.8257 C   0  0  0  0  0  0  0  0  0  0  0  0
  -28.9289  -15.0069   19.5942 C   0  0  0  0  0  0  0  0  0  0  0  0
  -26.9309  -14.2182   20.8296 C   0  0  0  0  0  0  0  0  0  0  0  0
  -20.5793  -28.6449   22.7372 C   0  0  1  0  0  0  0  0  0  0  0  0
  -23.8099  -27.2397   24.1592 C   0  0  1  0  0  0  0  0  0  0  0  0
  -27.7863  -13.2286   21.6360 C   0  0  1  0  0  0  0  0  0  0  0  0
  -25.9304  -19.7478   16.1860 C   0  0  0  0  0  0  0  0  0  0  0  0
  -30.7063  -28.3922   27.4931 C   0  0  0  0  0  0  0  0  0  0  0  0
  -25.6467  -31.4653   24.5220 C   0  0  0  0  0  0  0  0  0  0  0  0
  -27.9855  -31.5520   25.4110 C   0  0  0  0  0  0  0  0  0  0  0  0
  -26.0848  -31.0652   26.9515 C   0  0  0  0  0  0  0  0  0  0  0  0
  -29.5197  -24.5615   18.2595 C   0  0  0  0  0  0  0  0  0  0  0  0
  -28.3133  -25.3477   16.2261 C   0  0  0  0  0  0  0  0  0  0  0  0
  -29.3413  -25.0927   26.1792 C   0  0  0  0  0  0  0  0  0  0  0  0
  -28.4900  -22.8836   16.6254 C   0  0  0  0  0  0  0  0  0  0  0  0
  -26.1735  -20.7641   17.3063 C   0  0  0  0  0  0  0  0  0  0  0  0
  -27.0075  -24.3316   18.1268 C   0  0  0  0  0  0  0  0  0  1  0  0
  -26.8225  -29.3013   25.2972 C   0  0  1  0  0  0  0  0  0  0  0  0
  -29.6306  -27.4267   27.0205 C   0  0  2  0  0  0  0  0  0  0  0  0
  -26.6276  -30.8269   25.5255 C   0  0  0  0  0  0  0  0  0  0  0  0
  -28.3288  -24.2639   17.3279 C   0  0  0  0  0  0  0  0  0  0  0  0
  -25.9642  -11.5922   21.3439 N   0  0  0  0  0  0  0  0  0  0  0  0
  -26.9762  -12.0356   22.1090 N   0  0  0  0  0  0  0  0  0  0  0  0
  -27.7272  -15.3596   20.3651 N   0  0  0  0  0  0  0  0  0  0  0  0
  -25.1479  -27.8316   24.2205 N   0  0  0  0  0  0  0  0  0  0  0  0
  -28.1222  -11.6352   24.1430 N   0  0  0  0  0  0  0  0  0  0  0  0
  -24.9428   -8.4283   24.0898 N   0  0  0  0  0  0  0  0  0  0  0  0
  -21.6013  -27.8414   23.3732 N   0  0  0  0  0  0  0  0  0  0  0  0
  -27.7255  -28.6650   26.2501 N   0  0  0  0  0  0  0  0  0  0  0  0
  -30.2852  -26.1426   26.6415 N   0  3  0  0  0  0  0  0  0  0  0  0
  -26.6851   -9.3031   25.2973 O   0  0  0  0  0  0  0  0  0  0  0  0
  -26.2664  -16.9186   21.2888 O   0  0  0  0  0  0  0  0  0  0  0  0
  -23.4081  -29.2663   23.0162 O   0  0  0  0  0  0  0  0  0  0  0  0
  -24.8672  -28.5606   26.4173 O   0  0  0  0  0  0  0  0  0  0  0  0
  -29.2260  -27.8567   24.6777 O   0  0  0  0  0  0  0  0  0  0  0  0
  -29.4208  -20.1144   18.9104 O   0  0  0  0  0  0  0  0  0  0  0  0
  -21.1422   -7.6246   20.0967 O   0  0  0  0  0  0  0  0  0  0  0  0
  -26.8265  -25.6205   18.7118 O   0  0  0  0  0  0  0  0  0  1  0  0
  -21.4433   -2.1246   20.3481 F   0  0  0  0  0  0  0  0  0  0  0  0
  -21.4321   -6.3293   22.5218 F   0  0  0  0  0  0  0  0  0  0  0  0
  1  2  1  0  0  0  0
  1  5  2  0  0  0  0
  2  6  2  0  0  0  0
  3  8  2  0  0  0  0
  3 16  1  0  0  0  0
  4  9  1  0  0  0  0
  4 16  2  0  0  0  0
  5 18  1  0  0  0  0
  6 20  1  0  0  0  0
  7 10  2  0  0  0  0
  7 19  1  0  0  0  0
  8 24  1  0  0  0  0
  9 24  2  0  0  0  0
 10 25  1  0  0  0  0
 11 12  2  0  0  0  0
 11 26  1  0  0  0  0
 12 27  1  0  0  0  0
 13 21  1  0  0  0  0
 13 25  2  0  0  0  0
 14 27  2  0  0  0  0
 14 28  1  0  0  0  0
 15 22  2  0  0  0  0
 15 80  1  0  0  0  0
 16 29  1  0  0  0  0
 17 29  1  0  0  0  0
 17 31  2  0  0  0  0
 17 34  1  0  0  0  0
 18 20  2  0  0  0  0
 18 39  1  0  0  0  0
 19 21  2  0  0  0  0
 19 40  1  0  0  0  0
 20 48  1  0  0  0  0
 21 41  1  0  0  0  0
 22 23  1  0  0  0  0
 22 59  1  0  0  0  0
 23 30  2  0  0  0  0
 23 60  1  0  0  0  0
 24 81  1  0  0  0  0
 25 82  1  0  0  0  0
 26 28  2  0  0  0  0
 26 81  1  0  0  0  0
 27 83  1  0  0  0  0
 28 84  1  0  0  0  0
 29 66  2  0  0  0  0
 30 32  1  0  0  0  0
 30 80  1  0  0  0  0
 31 67  1  0  0  0  0
 31 70  1  0  0  0  0
 32 33  2  0  0  0  0
 33 35  1  0  0  0  0
 34 71  1  0  0  0  0
 34 75  2  0  0  0  0
 35 68  1  0  0  0  0
 35 76  2  0  0  0  0
 36 49  1  0  0  0  0
 36 72  1  0  0  0  0
 36 77  2  0  0  0  0
 37 62  1  0  0  0  0
 37 69  1  0  0  0  0
 37 78  2  0  0  0  0
 38 63  1  0  0  0  0
 38 73  1  0  0  0  0
 38 79  2  0  0  0  0
 39 42  1  0  0  0  0
 40 49  1  0  0  0  0
 41 69  1  0  0  0  0
 42 44  1  0  0  0  0
 43 45  1  0  0  0  0
 43 46  1  0  0  0  0
 44 48  1  0  0  0  0
 45 50  1  0  0  0  0
 46 68  1  0  0  0  0
 47 50  1  0  0  0  0
 47 68  1  0  0  0  0
 48 72  1  0  0  0  0
 49 69  1  0  0  0  0
 50 67  1  0  0  0  0
 51 60  1  0  0  0  0
 52 63  1  0  0  0  0
 53 64  1  0  0  0  0
 54 64  1  0  0  0  0
 55 64  1  0  0  0  0
 56 65  1  0  0  0  0
 57 65  1  0  0  0  0
 58 74  1  0  0  0  0
 59 65  1  0  0  0  0
 61 65  1  0  0  0  0
 61 82  1  0  0  0  0
 62 64  1  0  0  0  0
 62 73  1  0  0  0  0
 63 74  1  0  0  0  0
 66 67  1  0  0  0  0
M  CHG  1  74   1
M  ISO  4  33 100  35 100  61 101  82 101
M  END
> <Batch ID>
0137

> <Smiles>
CCc1c(CC(C)(C)[101CH2:1][101O:1]c2ccc3c(c2)CN(C(=O)C(NC(=O)C(C)NC)C(C)(C)C)C(C(=O)NC2CCCc4ccccc42)C3)coc1C=[100CH:0][100C:0](=O)N1CCCC(n2nc(-c3ccc(Oc4ccc(F)cc4F)cc3)c(C(N)=O)c2N)C1

> <Shape>
0.232

> <Color>
0.079

> <Negative vol penalty>
0.000

$$$$

  -OEChem-04052302423D

 87 95  0     1  0  0  0  0  0999 V2000
  -37.7388  -25.2742   16.6758 C   0  0  0  0  0  0  0  0  0  0  0  0
  -36.9340  -25.5115   17.7855 C   0  0  0  0  0  0  0  0  0  0  0  0
  -23.0718   -9.8762   19.9301 C   0  0  0  0  0  0  0  0  0  0  0  0
  -23.8363   -9.8638   22.2219 C   0  0  0  0  0  0  0  0  0  0  0  0
  -37.1742  -25.2384   15.4015 C   0  0  0  0  0  0  0  0  0  0  0  0
  -35.5642  -25.7143   17.6214 C   0  0  0  0  0  0  0  0  0  0  0  0
  -31.1023  -23.9807   21.4414 C   0  0  0  0  0  0  0  0  0  0  0  0
  -22.3269   -8.7221   20.1722 C   0  0  0  0  0  0  0  0  0  0  0  0
  -23.0913   -8.7097   22.4641 C   0  0  0  0  0  0  0  0  0  0  0  0
  -30.3872  -24.6675   22.4216 C   0  0  0  0  0  0  0  0  0  0  0  0
  -19.8633   -7.9114   23.0667 C   0  0  0  0  0  0  0  0  0  0  0  0
  -19.1086   -7.8630   24.2387 C   0  0  0  0  0  0  0  0  0  0  0  0
  -28.6188  -25.0801   20.8337 C   0  0  0  0  0  0  0  0  0  0  0  0
  -29.5314  -17.8665   22.4103 C   0  0  0  0  0  0  0  0  0  0  0  0
  -30.6003  -19.8546   21.5491 C   0  0  0  0  0  0  0  0  0  0  0  0
  -31.1588  -17.6897   20.6334 C   0  0  0  0  0  0  0  0  0  0  0  0
  -20.3489   -5.9181   24.9571 C   0  0  0  0  0  0  0  0  0  0  0  0
  -23.8266  -10.4470   20.9549 C   0  0  0  0  0  0  0  0  0  0  0  0
  -24.1716  -12.9726   20.8544 C   0  0  0  0  0  0  0  0  0  0  0  0
  -35.7952  -25.4313   15.2227 C   0  0  0  0  0  0  0  0  0  0  0  0
  -30.5851  -23.8477   20.1448 C   0  0  0  0  0  0  0  0  0  0  0  0
  -34.9808  -25.6824   16.3434 C   0  0  0  0  0  0  0  0  0  0  0  0
  -29.3281  -24.3890   19.8396 C   0  0  0  0  0  0  0  0  0  0  0  0
  -29.7016  -19.2508   22.4285 C   0  0  0  0  0  0  0  0  0  0  0  0
  -30.2600  -17.0860   21.5127 C   0  0  0  0  0  0  0  0  0  0  0  0
  -22.3366   -8.1388   21.4393 C   0  0  0  0  0  0  0  0  0  0  0  0
  -29.1465  -25.2198   22.1170 C   0  0  0  0  0  0  0  0  0  0  0  0
  -20.8607   -6.9630   22.8398 C   0  0  0  0  0  0  0  0  0  0  0  0
  -19.3514   -6.8664   25.1840 C   0  0  0  0  0  0  0  0  0  0  0  0
  -31.3290  -19.0741   20.6515 C   0  0  0  0  0  0  0  0  0  0  0  0
  -21.1035   -5.9664   23.7850 C   0  0  0  0  0  0  0  0  0  0  0  0
  -24.5968  -11.6389   20.7052 C   0  0  0  0  0  0  0  0  0  0  0  0
  -25.2641  -13.7235   20.4950 C   0  0  0  0  0  0  0  0  0  0  0  0
  -27.2070  -24.0084   23.8511 C   0  0  0  0  0  0  0  0  0  0  0  0
  -27.5354  -22.7229   24.0569 C   0  0  0  0  0  0  0  0  0  0  0  0
  -22.9027  -13.4868   21.2800 C   0  0  0  0  0  0  0  0  0  0  0  0
  -31.5143  -24.7820   17.2523 C   0  0  0  0  0  0  0  0  0  0  0  0
  -28.9740  -23.0091   16.2901 C   0  0  0  0  0  0  0  0  0  0  0  0
  -25.9465  -21.6317   17.0540 C   0  0  0  0  0  0  0  0  0  0  0  0
  -30.7320  -14.7603   20.6671 C   0  0  0  0  0  0  0  0  0  0  0  0
  -35.2379  -25.4306   13.8212 C   0  0  0  0  0  0  0  0  0  0  0  0
  -31.3568  -23.0808   19.1062 C   0  0  0  0  0  0  0  0  0  0  0  0
  -28.7194  -24.2565   18.4683 C   0  0  0  0  0  0  0  0  0  0  0  0
  -33.7194  -25.2829   13.7697 C   0  0  0  0  0  0  0  0  0  0  0  0
  -29.6096  -12.3671   18.2818 C   0  0  0  0  0  0  0  0  0  0  0  0
  -33.0575  -26.2195   14.7755 C   0  0  0  0  0  0  0  0  0  0  0  0
  -28.1704  -12.0740   18.7119 C   0  0  0  0  0  0  0  0  0  0  0  0
  -30.5274  -12.5850   19.4834 C   0  0  0  0  0  0  0  0  0  0  0  0
  -28.6242  -13.3009   20.8742 C   0  0  0  0  0  0  0  0  0  0  0  0
  -33.4868  -25.8823   16.2085 C   0  0  1  0  0  0  0  0  0  0  0  0
  -30.9661  -23.4495   17.6784 C   0  0  1  0  0  0  0  0  0  0  0  0
  -27.6488  -13.1384   19.6970 C   0  0  2  0  0  0  0  0  0  0  0  0
  -27.3677  -26.1026   25.1988 C   0  0  0  0  0  0  0  0  0  0  0  0
  -24.0927  -20.2695   16.0513 C   0  0  0  0  0  0  0  0  0  0  0  0
  -25.3756  -21.7957   23.0092 C   0  0  0  0  0  0  0  0  0  0  0  0
  -26.4182  -20.7361   25.0066 C   0  0  0  0  0  0  0  0  0  0  0  0
  -27.9942  -25.4662   14.7695 C   0  0  0  0  0  0  0  0  0  0  0  0
  -25.7465  -24.3770   14.5969 C   0  0  0  0  0  0  0  0  0  0  0  0
  -27.7346  -23.3052   13.5379 C   0  0  0  0  0  0  0  0  0  0  0  0
  -26.3282  -19.4524   19.0196 C   0  0  0  0  0  0  0  0  0  0  0  0
  -28.9131  -20.0959   23.3990 C   0  0  0  0  0  0  0  0  0  0  0  0
  -27.5777  -20.5498   22.7897 C   0  0  0  0  0  0  0  0  0  0  0  0
  -28.0880  -25.1595   24.2458 C   0  0  2  0  0  0  0  0  0  1  0  0
  -27.5077  -23.2811   16.0558 C   0  0  1  0  0  0  0  0  0  0  0  0
  -25.3926  -20.2346   16.8398 C   0  0  2  0  0  0  0  0  0  0  0  0
  -26.7233  -21.4864   23.6919 C   0  0  0  0  0  0  0  0  0  0  0  0
  -27.2578  -24.1117   14.7655 C   0  0  0  0  0  0  0  0  0  0  0  0
  -25.8607  -11.5447   20.2836 N   0  0  0  0  0  0  0  0  0  0  0  0
  -26.2391  -12.8288   20.1648 N   0  0  0  0  0  0  0  0  0  0  0  0
  -29.5155  -23.5032   17.4853 N   0  0  0  0  0  0  0  0  0  0  0  0
  -29.9716  -13.6095   20.3701 N   0  0  0  0  0  0  0  0  0  0  0  0
  -25.4761  -15.0552   20.4322 N   0  0  0  0  0  0  0  0  0  0  0  0
  -21.8902  -12.5763   21.6120 N   0  0  0  0  0  0  0  0  0  0  0  0
  -30.0875  -15.6797   21.4942 N   0  0  0  0  0  0  0  0  0  0  0  0
  -32.7744  -24.7178   16.6888 N   0  0  0  0  0  0  0  0  0  0  0  0
  -26.8444  -21.9818   16.0679 N   0  0  0  0  0  0  0  0  0  0  0  0
  -25.1299  -19.5751   18.1502 N   0  3  0  0  0  0  0  0  0  0  0  0
  -22.6682  -14.7172   21.3477 O   0  0  0  0  0  0  0  0  0  0  0  0
  -30.8432  -25.7934   17.4208 O   0  0  0  0  0  0  0  0  0  0  0  0
  -29.6137  -22.3751   15.4471 O   0  0  0  0  0  0  0  0  0  0  0  0
  -25.6129  -22.3429   17.9992 O   0  0  0  0  0  0  0  0  0  0  0  0
  -31.8604  -14.9313   20.1986 O   0  0  0  0  0  0  0  0  0  0  0  0
  -21.6096   -7.0128   21.6760 O   0  0  0  0  0  0  0  0  0  0  0  0
  -28.4427  -25.8951   23.0772 O   0  0  0  0  0  0  0  0  0  1  0  0
  -18.6277   -6.8211   26.3101 F   0  0  0  0  0  0  0  0  0  0  0  0
  -32.1920  -19.6540   19.8071 F   0  0  0  0  0  0  0  0  0  0  0  0
  -22.0612   -5.0533   23.5732 F   0  0  0  0  0  0  0  0  0  0  0  0
  1  2  1  0  0  0  0
  1  5  2  0  0  0  0
  2  6  2  0  0  0  0
  3  8  2  0  0  0  0
  3 18  1  0  0  0  0
  4  9  1  0  0  0  0
  4 18  2  0  0  0  0
  5 20  1  0  0  0  0
  6 22  1  0  0  0  0
  7 10  2  0  0  0  0
  7 21  1  0  0  0  0
  8 26  1  0  0  0  0
  9 26  2  0  0  0  0
 10 27  1  0  0  0  0
 11 12  2  0  0  0  0
 11 28  1  0  0  0  0
 12 29  1  0  0  0  0
 13 23  1  0  0  0  0
 13 27  2  0  0  0  0
 14 24  2  0  0  0  0
 14 25  1  0  0  0  0
 15 24  1  0  0  0  0
 15 30  2  0  0  0  0
 16 25  2  0  0  0  0
 16 30  1  0  0  0  0
 17 29  2  0  0  0  0
 17 31  1  0  0  0  0
 18 32  1  0  0  0  0
 19 32  1  0  0  0  0
 19 33  2  0  0  0  0
 19 36  1  0  0  0  0
 20 22  2  0  0  0  0
 20 41  1  0  0  0  0
 21 23  2  0  0  0  0
 21 42  1  0  0  0  0
 22 50  1  0  0  0  0
 23 43  1  0  0  0  0
 24 61  1  0  0  0  0
 25 74  1  0  0  0  0
 26 83  1  0  0  0  0
 27 84  1  0  0  0  0
 28 31  2  0  0  0  0
 28 83  1  0  0  0  0
 29 85  1  0  0  0  0
 30 86  1  0  0  0  0
 31 87  1  0  0  0  0
 32 68  2  0  0  0  0
 33 69  1  0  0  0  0
 33 72  1  0  0  0  0
 34 35  2  0  0  0  0
 34 63  1  0  0  0  0
 35 66  1  0  0  0  0
 36 73  1  0  0  0  0
 36 78  2  0  0  0  0
 37 51  1  0  0  0  0
 37 75  1  0  0  0  0
 37 79  2  0  0  0  0
 38 64  1  0  0  0  0
 38 70  1  0  0  0  0
 38 80  2  0  0  0  0
 39 65  1  0  0  0  0
 39 76  1  0  0  0  0
 39 81  2  0  0  0  0
 40 71  1  0  0  0  0
 40 74  1  0  0  0  0
 40 82  2  0  0  0  0
 41 44  1  0  0  0  0
 42 51  1  0  0  0  0
 43 70  1  0  0  0  0
 44 46  1  0  0  0  0
 45 47  1  0  0  0  0
 45 48  1  0  0  0  0
 46 50  1  0  0  0  0
 47 52  1  0  0  0  0
 48 71  1  0  0  0  0
 49 52  1  0  0  0  0
 49 71  1  0  0  0  0
 50 75  1  0  0  0  0
 51 70  1  0  0  0  0
 52 69  1  0  0  0  0
 53 63  1  0  0  0  0
 54 65  1  0  0  0  0
 55 66  1  0  0  0  0
 56 66  1  0  0  0  0
 57 67  1  0  0  0  0
 58 67  1  0  0  0  0
 59 67  1  0  0  0  0
 60 77  1  0  0  0  0
 61 62  1  0  0  0  0
 62 66  1  0  0  0  0
 63 84  1  0  0  0  0
 64 67  1  0  0  0  0
 64 76  1  0  0  0  0
 65 77  1  0  0  0  0
 68 69  1  0  0  0  0
M  CHG  1  77   1
M  ISO  4  40 100  63 101  74 100  84 101
M  END
> <Batch ID>
0137

> <Smiles>
CNC(C)C(=O)NC(C(=O)N1Cc2cc([101O:1][101CH:1](C)C=CC(C)(C)CCc3cc(F)cc([100NH:0][100C:0](=O)N4CCCC(n5nc(-c6ccc(Oc7ccc(F)cc7F)cc6)c(C(N)=O)c5N)C4)c3)ccc2CC1C(=O)NC1CCCc2ccccc21)C(C)(C)C

> <Shape>
0.227

> <Color>
0.191

> <Negative vol penalty>
0.000

$$$$

  -OEChem-04052302423D

 84 92  0     1  0  0  0  0  0999 V2000
  -27.0803  -32.2210   27.8617 C   0  0  0  0  0  0  0  0  0  0  0  0
  -27.4641  -31.3323   26.8625 C   0  0  0  0  0  0  0  0  0  0  0  0
  -24.6033  -12.5097   19.7569 C   0  0  0  0  0  0  0  0  0  0  0  0
  -25.4700  -13.3101   21.8653 C   0  0  0  0  0  0  0  0  0  0  0  0
  -25.7294  -32.3881   28.1632 C   0  0  0  0  0  0  0  0  0  0  0  0
  -26.4972  -30.6093   26.1650 C   0  0  0  0  0  0  0  0  0  0  0  0
  -27.3354  -30.5598   21.1710 C   0  0  0  0  0  0  0  0  0  0  0  0
  -29.7277  -22.5571   22.9674 C   0  0  0  0  0  0  0  0  0  0  0  0
  -28.8498  -21.6703   23.5907 C   0  0  0  0  0  0  0  0  0  0  0  0
  -25.2461  -11.2880   19.9565 C   0  0  0  0  0  0  0  0  0  0  0  0
  -26.1128  -12.0884   22.0649 C   0  0  0  0  0  0  0  0  0  0  0  0
  -28.3166  -29.6892   20.6987 C   0  0  0  0  0  0  0  0  0  0  0  0
  -26.3629   -7.8308   20.0809 C   0  0  0  0  0  0  0  0  0  0  0  0
  -25.6402   -6.6671   19.8179 C   0  0  0  0  0  0  0  0  0  0  0  0
  -26.6036  -28.1182   20.0531 C   0  0  0  0  0  0  0  0  0  0  0  0
  -28.6008  -22.1927   20.8616 C   0  0  0  0  0  0  0  0  0  0  0  0
  -24.0112   -7.3020   21.4853 C   0  0  0  0  0  0  0  0  0  0  0  0
  -24.7153  -13.5208   20.7113 C   0  0  0  0  0  0  0  0  0  0  0  0
  -22.7495  -15.1347   20.9076 C   0  0  0  0  0  0  0  0  0  0  0  0
  -24.7447  -31.6739   27.4623 C   0  0  0  0  0  0  0  0  0  0  0  0
  -25.9792  -30.2107   21.0977 C   0  0  0  0  0  0  0  0  0  0  0  0
  -25.1318  -30.7660   26.4582 C   0  0  0  0  0  0  0  0  0  0  0  0
  -25.6070  -28.9872   20.5229 C   0  0  0  0  0  0  0  0  0  0  0  0
  -29.6032  -22.8183   21.6029 C   0  0  0  0  0  0  0  0  0  0  0  0
  -27.8474  -21.0447   22.8495 C   0  0  0  0  0  0  0  0  0  0  0  0
  -27.7229  -21.3059   21.4849 C   0  0  0  0  0  0  0  0  0  0  0  0
  -26.0008  -11.0773   21.1104 C   0  0  0  0  0  0  0  0  0  0  0  0
  -27.9510  -28.4670   20.1423 C   0  0  0  0  0  0  0  0  0  0  0  0
  -25.9098   -8.7300   21.0462 C   0  0  0  0  0  0  0  0  0  0  0  0
  -24.4643   -6.4027   20.5200 C   0  0  0  0  0  0  0  0  0  0  0  0
  -24.7339   -8.4656   21.7484 C   0  0  0  0  0  0  0  0  0  0  0  0
  -24.0520  -14.7832   20.5054 C   0  0  0  0  0  0  0  0  0  0  0  0
  -22.5959  -16.4307   20.4796 C   0  0  0  0  0  0  0  0  0  0  0  0
  -21.7663  -14.3590   21.6058 C   0  0  0  0  0  0  0  0  0  0  0  0
  -23.6677  -29.7332   23.2267 C   0  0  0  0  0  0  0  0  0  0  0  0
  -21.8141  -29.4767   20.5771 C   0  0  0  0  0  0  0  0  0  0  0  0
  -21.6098  -28.7970   17.2389 C   0  0  0  0  0  0  0  0  0  0  0  0
  -26.4647  -20.8428   19.3521 C   0  0  0  0  0  0  0  0  0  0  0  0
  -23.2998  -31.8528   27.8560 C   0  0  0  0  0  0  0  0  0  0  0  0
  -24.9314  -31.1724   21.5873 C   0  0  0  0  0  0  0  0  0  0  0  0
  -24.1636  -28.5741   20.4024 C   0  0  0  0  0  0  0  0  0  0  0  0
  -22.3153  -31.3272   26.8145 C   0  0  0  0  0  0  0  0  0  0  0  0
  -24.0966  -19.4557   17.0838 C   0  0  0  0  0  0  0  0  0  0  0  0
  -22.7340  -29.9406   26.3359 C   0  0  0  0  0  0  0  0  0  0  0  0
  -23.6934  -18.1349   17.7434 C   0  0  0  0  0  0  0  0  0  0  0  0
  -25.5772  -19.7665   17.2956 C   0  0  0  0  0  0  0  0  0  0  0  0
  -25.6214  -18.4129   19.3535 C   0  0  0  0  0  0  0  0  0  0  0  0
  -24.1110  -29.9820   25.6624 C   0  0  1  0  0  0  0  0  0  0  0  0
  -23.6099  -30.4921   21.9312 C   0  0  1  0  0  0  0  0  0  0  0  0
  -24.1242  -18.0891   19.2225 C   0  0  2  0  0  0  0  0  0  0  0  0
  -26.9217  -20.0987   23.5433 C   0  0  0  0  0  0  0  0  0  0  0  0
  -19.9546  -28.6314   15.3600 C   0  0  0  0  0  0  0  0  0  0  0  0
  -20.8618  -26.7863   21.6563 C   0  0  0  0  0  0  0  0  0  0  0  0
  -19.9929  -26.2551   19.3692 C   0  0  0  0  0  0  0  0  0  0  0  0
  -19.0660  -28.1950   20.6341 C   0  0  0  0  0  0  0  0  0  0  0  0
  -31.0940  -25.9024   18.7675 C   0  0  0  0  0  0  0  0  0  0  0  0
  -32.2654  -26.4205   20.9232 C   0  0  0  0  0  0  0  0  0  0  0  0
  -22.9485  -30.9523   15.7153 C   0  0  0  0  0  0  0  0  0  0  0  0
  -30.5538  -23.7784   20.9291 C   0  0  0  0  0  0  0  0  0  0  0  0
  -30.0170  -25.2161   20.9680 C   0  0  0  0  0  0  0  0  0  0  0  0
  -30.1787  -27.6551   20.3268 C   0  0  0  0  0  0  0  0  0  1  0  0
  -21.3979  -28.3448   19.6690 C   0  0  1  0  0  0  0  0  0  0  0  0
  -20.9283  -29.5348   16.1006 C   0  0  2  0  0  0  0  0  0  0  0  0
  -20.3570  -27.4020   20.3360 C   0  0  0  0  0  0  0  0  0  0  0  0
  -30.8902  -26.2820   20.2462 C   0  0  0  0  0  0  0  0  0  0  0  0
  -24.6810  -15.7758   19.8706 N   0  0  0  0  0  0  0  0  0  0  0  0
  -23.7699  -16.7637   19.8705 N   0  0  0  0  0  0  0  0  0  0  0  0
  -23.1765  -29.5459   20.9011 N   0  0  0  0  0  0  0  0  0  0  0  0
  -25.9114  -19.7090   18.7204 N   0  0  0  0  0  0  0  0  0  0  0  0
  -21.5725  -17.3066   20.5686 N   0  0  0  0  0  0  0  0  0  0  0  0
  -22.0884  -13.0449   21.9714 N   0  0  0  0  0  0  0  0  0  0  0  0
  -26.7107  -20.6808   20.7151 N   0  0  0  0  0  0  0  0  0  0  0  0
  -24.0011  -30.5104   24.3196 N   0  0  0  0  0  0  0  0  0  0  0  0
  -20.9367  -28.9634   18.4308 N   0  0  0  0  0  0  0  0  0  0  0  0
  -21.9405  -30.0332   15.1269 N   0  3  0  0  0  0  0  0  0  0  0  0
  -20.6297  -14.8121   21.8822 O   0  0  0  0  0  0  0  0  0  0  0  0
  -23.4262  -28.5319   23.2345 O   0  0  0  0  0  0  0  0  0  0  0  0
  -20.9630  -30.2744   20.9782 O   0  0  0  0  0  0  0  0  0  0  0  0
  -22.6345  -28.1360   17.0854 O   0  0  0  0  0  0  0  0  0  0  0  0
  -26.6774  -21.8901   18.7356 O   0  0  0  0  0  0  0  0  0  0  0  0
  -26.6280   -9.8852   21.3056 O   0  0  0  0  0  0  0  0  0  0  0  0
  -28.9068  -27.6152   19.6811 O   0  0  0  0  0  0  0  0  0  1  0  0
  -23.7696   -5.2860   20.2663 F   0  0  0  0  0  0  0  0  0  0  0  0
  -24.2930   -9.3264   22.6760 F   0  0  0  0  0  0  0  0  0  0  0  0
  1  2  1  0  0  0  0
  1  5  2  0  0  0  0
  2  6  2  0  0  0  0
  3 10  2  0  0  0  0
  3 18  1  0  0  0  0
  4 11  1  0  0  0  0
  4 18  2  0  0  0  0
  5 20  1  0  0  0  0
  6 22  1  0  0  0  0
  7 12  2  0  0  0  0
  7 21  1  0  0  0  0
  8  9  2  0  0  0  0
  8 24  1  0  0  0  0
  9 25  1  0  0  0  0
 10 27  1  0  0  0  0
 11 27  2  0  0  0  0
 12 28  1  0  0  0  0
 13 14  2  0  0  0  0
 13 29  1  0  0  0  0
 14 30  1  0  0  0  0
 15 23  1  0  0  0  0
 15 28  2  0  0  0  0
 16 24  2  0  0  0  0
 16 26  1  0  0  0  0
 17 30  2  0  0  0  0
 17 31  1  0  0  0  0
 18 32  1  0  0  0  0
 19 32  1  0  0  0  0
 19 33  2  0  0  0  0
 19 34  1  0  0  0  0
 20 22  2  0  0  0  0
 20 39  1  0  0  0  0
 21 23  2  0  0  0  0
 21 40  1  0  0  0  0
 22 48  1  0  0  0  0
 23 41  1  0  0  0  0
 24 59  1  0  0  0  0
 25 26  2  0  0  0  0
 25 51  1  0  0  0  0
 26 72  1  0  0  0  0
 27 81  1  0  0  0  0
 28 82  1  0  0  0  0
 29 31  2  0  0  0  0
 29 81  1  0  0  0  0
 30 83  1  0  0  0  0
 31 84  1  0  0  0  0
 32 66  2  0  0  0  0
 33 67  1  0  0  0  0
 33 70  1  0  0  0  0
 34 71  1  0  0  0  0
 34 76  2  0  0  0  0
 35 49  1  0  0  0  0
 35 73  1  0  0  0  0
 35 77  2  0  0  0  0
 36 62  1  0  0  0  0
 36 68  1  0  0  0  0
 36 78  2  0  0  0  0
 37 63  1  0  0  0  0
 37 74  1  0  0  0  0
 37 79  2  0  0  0  0
 38 69  1  0  0  0  0
 38 72  1  0  0  0  0
 38 80  2  0  0  0  0
 39 42  1  0  0  0  0
 40 49  1  0  0  0  0
 41 68  1  0  0  0  0
 42 44  1  0  0  0  0
 43 45  1  0  0  0  0
 43 46  1  0  0  0  0
 44 48  1  0  0  0  0
 45 50  1  0  0  0  0
 46 69  1  0  0  0  0
 47 50  1  0  0  0  0
 47 69  1  0  0  0  0
 48 73  1  0  0  0  0
 49 68  1  0  0  0  0
 50 67  1  0  0  0  0
 52 63  1  0  0  0  0
 53 64  1  0  0  0  0
 54 64  1  0  0  0  0
 55 64  1  0  0  0  0
 56 65  1  0  0  0  0
 57 65  1  0  0  0  0
 58 75  1  0  0  0  0
 59 60  1  0  0  0  0
 60 65  1  0  0  0  0
 61 65  1  0  0  0  0
 61 82  1  0  0  0  0
 62 64  1  0  0  0  0
 62 74  1  0  0  0  0
 63 75  1  0  0  0  0
 66 67  1  0  0  0  0
M  CHG  1  75   1
M  ISO  4  38 100  61 101  72 100  82 101
M  END
> <Batch ID>
0137

> <Smiles>
CNC(C)C(=O)NC(C(=O)N1Cc2cc([101O:1][101CH2:1]C(C)(C)CCc3ccc(C)c([100NH:0][100C:0](=O)N4CCCC(n5nc(-c6ccc(Oc7ccc(F)cc7F)cc6)c(C(N)=O)c5N)C4)c3)ccc2CC1C(=O)NC1CCCc2ccccc21)C(C)(C)C

> <Shape>
0.231

> <Color>
0.086

> <Negative vol penalty>
0.000

$$$$

  -OEChem-04052302423D

 86 94  0     1  0  0  0  0  0999 V2000
  -24.9685  -22.1935   16.3899 C   0  0  0  0  0  0  0  0  0  0  0  0
  -25.3804  -20.8897   16.1385 C   0  0  0  0  0  0  0  0  0  0  0  0
  -25.7024  -28.3262   20.6954 C   0  0  0  0  0  0  0  0  0  0  0  0
  -27.6252  -29.5250   19.8569 C   0  0  0  0  0  0  0  0  0  0  0  0
  -24.5941  -22.5658   17.6792 C   0  0  0  0  0  0  0  0  0  0  0  0
  -25.4068  -19.9546   17.1738 C   0  0  0  0  0  0  0  0  0  0  0  0
  -27.3245  -14.1714   17.2405 C   0  0  0  0  0  0  0  0  0  0  0  0
  -30.7766  -15.8275   23.3314 C   0  0  0  0  0  0  0  0  0  0  0  0
  -25.2499  -29.4886   21.3196 C   0  0  0  0  0  0  0  0  0  0  0  0
  -27.1726  -30.6874   20.4811 C   0  0  0  0  0  0  0  0  0  0  0  0
  -28.5044  -13.4816   17.5159 C   0  0  0  0  0  0  0  0  0  0  0  0
  -31.4670  -15.0311   22.4178 C   0  0  0  0  0  0  0  0  0  0  0  0
  -23.7746  -32.0534   23.4336 C   0  0  0  0  0  0  0  0  0  0  0  0
  -23.3144  -31.9494   24.7462 C   0  0  0  0  0  0  0  0  0  0  0  0
  -30.7714  -16.4891   20.6212 C   0  0  0  0  0  0  0  0  0  0  0  0
  -27.7271  -13.0602   19.7603 C   0  0  0  0  0  0  0  0  0  0  0  0
  -25.4809  -31.1368   25.4414 C   0  0  0  0  0  0  0  0  0  0  0  0
  -26.8901  -28.3444   19.9641 C   0  0  0  0  0  0  0  0  0  0  0  0
  -30.0810  -17.2854   21.5349 C   0  0  0  0  0  0  0  0  0  0  0  0
  -27.0609  -26.7084   18.0142 C   0  0  0  0  0  0  0  0  0  0  0  0
  -24.6281  -21.6375   18.7328 C   0  0  0  0  0  0  0  0  0  0  0  0
  -26.3401  -14.3204   18.2280 C   0  0  0  0  0  0  0  0  0  0  0  0
  -25.0099  -20.3048   18.4771 C   0  0  0  0  0  0  0  0  0  0  0  0
  -26.5345  -13.7502   19.4941 C   0  0  0  0  0  0  0  0  0  0  0  0
  -30.0835  -16.9546   22.8899 C   0  0  0  0  0  0  0  0  0  0  0  0
  -25.9850  -30.6692   21.2125 C   0  0  0  0  0  0  0  0  0  0  0  0
  -31.4644  -15.3619   21.0627 C   0  0  0  0  0  0  0  0  0  0  0  0
  -28.7071  -12.9284   18.7768 C   0  0  0  0  0  0  0  0  0  0  0  0
  -25.0880  -31.6991   23.1248 C   0  0  0  0  0  0  0  0  0  0  0  0
  -24.1675  -31.4911   25.7501 C   0  0  0  0  0  0  0  0  0  0  0  0
  -25.9411  -31.2408   24.1287 C   0  0  0  0  0  0  0  0  0  0  0  0
  -27.3584  -27.1439   19.3195 C   0  0  0  0  0  0  0  0  0  0  0  0
  -27.7436  -25.5238   17.8835 C   0  0  0  0  0  0  0  0  0  0  0  0
  -29.3672  -18.4565   21.0429 C   0  0  0  0  0  0  0  0  0  0  0  0
  -29.9249  -19.4879   20.3767 C   0  0  0  0  0  0  0  0  0  0  0  0
  -26.2409  -27.3201   17.0097 C   0  0  0  0  0  0  0  0  0  0  0  0
  -29.0630  -20.6019   19.9328 C   0  0  0  0  0  0  0  0  0  0  0  0
  -25.0164  -16.7952   19.7203 C   0  0  0  0  0  0  0  0  0  0  0  0
  -23.0930  -14.5075   20.9810 C   0  0  0  0  0  0  0  0  0  0  0  0
  -22.6499  -11.2250   21.8030 C   0  0  0  0  0  0  0  0  0  0  0  0
  -24.2049  -22.0922   20.1074 C   0  0  0  0  0  0  0  0  0  0  0  0
  -25.0614  -15.0444   17.9069 C   0  0  0  0  0  0  0  0  0  0  0  0
  -25.4999  -13.8645   20.5827 C   0  0  0  0  0  0  0  0  0  0  0  0
  -24.6867  -21.1619   21.2158 C   0  0  0  0  0  0  0  0  0  0  0  0
  -31.2661  -23.3992   20.8005 C   0  0  0  0  0  0  0  0  0  0  0  0
  -24.3464  -19.7202   20.8689 C   0  0  0  0  0  0  0  0  0  0  0  0
  -30.3897  -24.5909   20.4242 C   0  0  0  0  0  0  0  0  0  0  0  0
  -30.4416  -22.2294   21.3353 C   0  0  0  0  0  0  0  0  0  0  0  0
  -28.4726  -22.9921   20.0384 C   0  0  0  0  0  0  0  0  0  0  0  0
  -25.0758  -19.2786   19.5938 C   0  0  1  0  0  0  0  0  0  0  0  0
  -24.3491  -15.5775   19.1462 C   0  0  1  0  0  0  0  0  0  0  0  0
  -29.2772  -24.1635   19.4538 C   0  0  1  0  0  0  0  0  0  0  0  0
  -31.4779  -18.7872   24.8438 C   0  0  0  0  0  0  0  0  0  0  0  0
  -20.9897   -9.6644   22.8547 C   0  0  0  0  0  0  0  0  0  0  0  0
  -32.3892  -10.8701   19.4975 C   0  0  0  0  0  0  0  0  0  0  0  0
  -23.8367  -15.5791   23.7394 C   0  0  0  0  0  0  0  0  0  0  0  0
  -22.9499  -13.4560   24.7265 C   0  0  0  0  0  0  0  0  0  0  0  0
  -21.4243  -14.9775   23.4695 C   0  0  0  0  0  0  0  0  0  0  0  0
  -22.4199   -9.6167   19.3293 C   0  0  0  0  0  0  0  0  0  0  0  0
  -29.3547  -17.7849   23.8972 C   0  0  0  0  0  0  0  0  0  0  0  0
  -30.1143  -19.0750   24.2356 C   0  0  0  0  0  0  0  0  0  0  0  0
  -32.2526  -13.1956   20.4780 C   0  0  0  0  0  0  0  0  0  0  0  0
  -31.0314  -12.6653   18.3473 C   0  0  0  0  0  0  0  0  0  1  0  0
  -23.1431  -13.6231   22.2034 C   0  0  1  0  0  0  0  0  0  0  0  0
  -21.4949  -10.2716   21.5551 C   0  0  2  0  0  0  0  0  0  0  0  0
  -32.2752  -12.3680   19.1898 C   0  0  2  0  0  0  0  0  0  0  0  0
  -22.8590  -14.4082   23.5150 C   0  0  0  0  0  0  0  0  0  0  0  0
  -28.1669  -26.3041   19.9715 N   0  0  0  0  0  0  0  0  0  0  0  0
  -28.3832  -25.3291   19.0723 N   0  0  0  0  0  0  0  0  0  0  0  0
  -29.3481  -21.8773   20.4171 N   0  0  0  0  0  0  0  0  0  0  0  0
  -24.2691  -14.5873   20.2219 N   0  0  0  0  0  0  0  0  0  0  0  0
  -27.8530  -24.6400   16.8689 N   0  0  0  0  0  0  0  0  0  0  0  0
  -25.6125  -28.5364   17.3097 N   0  0  0  0  0  0  0  0  0  0  0  0
  -24.5695  -17.9875   19.1834 N   0  0  0  0  0  0  0  0  0  0  0  0
  -22.2159  -12.5254   21.9514 N   0  0  0  0  0  0  0  0  0  0  0  0
  -21.9217   -9.1642   20.6537 N   0  3  0  0  0  0  0  0  0  0  0  0
  -26.0573  -26.7952   15.8853 O   0  0  0  0  0  0  0  0  0  0  0  0
  -28.1388  -20.3338   19.1629 O   0  0  0  0  0  0  0  0  0  0  0  0
  -25.8722  -16.6629   20.5874 O   0  0  0  0  0  0  0  0  0  0  0  0
  -22.0466  -15.0999   20.7057 O   0  0  0  0  0  0  0  0  0  0  0  0
  -23.8197  -10.8529   21.8631 O   0  0  0  0  0  0  0  0  0  0  0  0
  -25.5436  -31.8037   21.8213 O   0  0  0  0  0  0  0  0  0  0  0  0
  -32.1414  -14.5779   20.1654 O   0  0  0  0  0  0  0  0  0  0  0  0
  -29.8581  -12.2551   19.0484 O   0  0  0  0  0  0  0  0  0  1  0  0
  -23.7259  -31.3927   27.0108 F   0  0  0  0  0  0  0  0  0  0  0  0
  -27.2042  -30.9001   23.8384 F   0  0  0  0  0  0  0  0  0  0  0  0
  1  2  1  0  0  0  0
  1  5  2  0  0  0  0
  2  6  2  0  0  0  0
  3  9  2  0  0  0  0
  3 18  1  0  0  0  0
  4 10  1  0  0  0  0
  4 18  2  0  0  0  0
  5 21  1  0  0  0  0
  6 23  1  0  0  0  0
  7 11  2  0  0  0  0
  7 22  1  0  0  0  0
  8 12  2  0  0  0  0
  8 25  1  0  0  0  0
  9 26  1  0  0  0  0
 10 26  2  0  0  0  0
 11 28  1  0  0  0  0
 12 27  1  0  0  0  0
 13 14  2  0  0  0  0
 13 29  1  0  0  0  0
 14 30  1  0  0  0  0
 15 19  1  0  0  0  0
 15 27  2  0  0  0  0
 16 24  1  0  0  0  0
 16 28  2  0  0  0  0
 17 30  2  0  0  0  0
 17 31  1  0  0  0  0
 18 32  1  0  0  0  0
 19 25  2  0  0  0  0
 19 34  1  0  0  0  0
 20 32  1  0  0  0  0
 20 33  2  0  0  0  0
 20 36  1  0  0  0  0
 21 23  2  0  0  0  0
 21 41  1  0  0  0  0
 22 24  2  0  0  0  0
 22 42  1  0  0  0  0
 23 50  1  0  0  0  0
 24 43  1  0  0  0  0
 25 60  1  0  0  0  0
 26 82  1  0  0  0  0
 27 83  1  0  0  0  0
 28 84  1  0  0  0  0
 29 31  2  0  0  0  0
 29 82  1  0  0  0  0
 30 85  1  0  0  0  0
 31 86  1  0  0  0  0
 32 68  2  0  0  0  0
 33 69  1  0  0  0  0
 33 72  1  0  0  0  0
 34 35  2  0  0  0  0
 35 37  1  0  0  0  0
 36 73  1  0  0  0  0
 36 77  2  0  0  0  0
 37 70  1  0  0  0  0
 37 78  2  0  0  0  0
 38 51  1  0  0  0  0
 38 74  1  0  0  0  0
 38 79  2  0  0  0  0
 39 64  1  0  0  0  0
 39 71  1  0  0  0  0
 39 80  2  0  0  0  0
 40 65  1  0  0  0  0
 40 75  1  0  0  0  0
 40 81  2  0  0  0  0
 41 44  1  0  0  0  0
 42 51  1  0  0  0  0
 43 71  1  0  0  0  0
 44 46  1  0  0  0  0
 45 47  1  0  0  0  0
 45 48  1  0  0  0  0
 46 50  1  0  0  0  0
 47 52  1  0  0  0  0
 48 70  1  0  0  0  0
 49 52  1  0  0  0  0
 49 70  1  0  0  0  0
 50 74  1  0  0  0  0
 51 71  1  0  0  0  0
 52 69  1  0  0  0  0
 53 61  1  0  0  0  0
 54 65  1  0  0  0  0
 55 66  1  0  0  0  0
 56 67  1  0  0  0  0
 57 67  1  0  0  0  0
 58 67  1  0  0  0  0
 59 76  1  0  0  0  0
 60 61  1  0  0  0  0
 62 66  1  0  0  0  0
 62 83  1  0  0  0  0
 63 66  1  0  0  0  0
 63 84  1  0  0  0  0
 64 67  1  0  0  0  0
 64 75  1  0  0  0  0
 65 76  1  0  0  0  0
 68 69  1  0  0  0  0
M  CHG  1  76   1
M  ISO  4  35 100  37 100  63 101  84 101
M  END
> <Batch ID>
0137

> <Smiles>
CCCc1ccc(OCC(C)[101CH2:1][101O:1]c2ccc3c(c2)CN(C(=O)C(NC(=O)C(C)NC)C(C)(C)C)C(C(=O)NC2CCCc4ccccc42)C3)cc1C=[100CH:0][100C:0](=O)N1CCCC(n2nc(-c3ccc(Oc4ccc(F)cc4F)cc3)c(C(N)=O)c2N)C1

> <Shape>
0.285

> <Color>
0.069

> <Negative vol penalty>
0.000

$$$$

  -OEChem-04052302423D

 86 94  0     1  0  0  0  0  0999 V2000
  -23.9521  -22.6085   19.0295 C   0  0  0  0  0  0  0  0  0  0  0  0
  -25.0173  -21.7647   18.7314 C   0  0  0  0  0  0  0  0  0  0  0  0
  -26.8957  -29.6597   20.0779 C   0  0  0  0  0  0  0  0  0  0  0  0
  -26.4108  -28.2494   21.9787 C   0  0  0  0  0  0  0  0  0  0  0  0
  -23.0470  -22.2595   20.0309 C   0  0  0  0  0  0  0  0  0  0  0  0
  -25.1785  -20.5718   19.4353 C   0  0  0  0  0  0  0  0  0  0  0  0
  -27.3331  -15.2711   17.2522 C   0  0  0  0  0  0  0  0  0  0  0  0
  -25.7720  -30.4343   20.3659 C   0  0  0  0  0  0  0  0  0  0  0  0
  -25.2870  -29.0240   22.2667 C   0  0  0  0  0  0  0  0  0  0  0  0
  -28.5915  -14.6739   17.3129 C   0  0  0  0  0  0  0  0  0  0  0  0
  -22.4269  -30.2289   19.9276 C   0  0  0  0  0  0  0  0  0  0  0  0
  -21.5933  -30.5799   18.8658 C   0  0  0  0  0  0  0  0  0  0  0  0
  -27.8823  -13.3881   19.2267 C   0  0  0  0  0  0  0  0  0  0  0  0
  -29.9006  -19.3218   20.2046 C   0  0  0  0  0  0  0  0  0  0  0  0
  -28.6066  -20.2870   22.0020 C   0  0  0  0  0  0  0  0  0  0  0  0
  -29.8953  -18.2794   22.3842 C   0  0  0  0  0  0  0  0  0  0  0  0
  -21.9925  -32.9180   19.3254 C   0  0  0  0  0  0  0  0  0  0  0  0
  -27.2151  -28.5672   20.8843 C   0  0  0  0  0  0  0  0  0  0  0  0
  -29.6859  -27.9585   21.0642 C   0  0  0  0  0  0  0  0  0  0  0  0
  -23.1916  -21.0571   20.7408 C   0  0  0  0  0  0  0  0  0  0  0  0
  -26.3417  -14.9388   18.1866 C   0  0  0  0  0  0  0  0  0  0  0  0
  -24.2752  -20.2071   20.4480 C   0  0  0  0  0  0  0  0  0  0  0  0
  -26.6113  -13.9806   19.1742 C   0  0  0  0  0  0  0  0  0  0  0  0
  -29.0397  -20.3126   20.6763 C   0  0  0  0  0  0  0  0  0  0  0  0
  -24.9677  -30.1164   21.4603 C   0  0  0  0  0  0  0  0  0  0  0  0
  -28.8672  -13.7344   18.3020 C   0  0  0  0  0  0  0  0  0  0  0  0
  -23.0433  -31.2223   20.6884 C   0  0  0  0  0  0  0  0  0  0  0  0
  -30.3284  -18.3051   21.0585 C   0  0  0  0  0  0  0  0  0  0  0  0
  -21.3761  -31.9245   18.5647 C   0  0  0  0  0  0  0  0  0  0  0  0
  -29.0344  -19.2704   22.8559 C   0  0  0  0  0  0  0  0  0  0  0  0
  -22.8261  -32.5669   20.3872 C   0  0  0  0  0  0  0  0  0  0  0  0
  -28.3754  -27.7664   20.5870 C   0  0  0  0  0  0  0  0  0  0  0  0
  -30.4112  -26.9405   20.4950 C   0  0  0  0  0  0  0  0  0  0  0  0
  -30.2014  -28.9669   21.9434 C   0  0  0  0  0  0  0  0  0  0  0  0
  -24.7232  -16.5396   20.4050 C   0  0  0  0  0  0  0  0  0  0  0  0
  -31.4334  -15.5314   19.0055 C   0  0  0  0  0  0  0  0  0  0  0  0
  -23.1078  -13.7410   20.6895 C   0  0  0  0  0  0  0  0  0  0  0  0
  -23.0843  -10.3540   20.2721 C   0  0  0  0  0  0  0  0  0  0  0  0
  -28.9369  -21.5169   18.4660 C   0  0  0  0  0  0  0  0  0  0  0  0
  -22.2150  -20.7452   21.8470 C   0  0  0  0  0  0  0  0  0  0  0  0
  -24.9808  -15.5723   18.0912 C   0  0  0  0  0  0  0  0  0  0  0  0
  -25.5749  -13.5741   20.1886 C   0  0  0  0  0  0  0  0  0  0  0  0
  -22.2427  -19.2847   22.2900 C   0  0  0  0  0  0  0  0  0  0  0  0
  -30.5113  -24.1246   16.6225 C   0  0  0  0  0  0  0  0  0  0  0  0
  -23.6802  -18.8130   22.4848 C   0  0  0  0  0  0  0  0  0  0  0  0
  -30.2667  -25.3709   17.4765 C   0  0  0  0  0  0  0  0  0  0  0  0
  -29.3165  -23.1731   16.6527 C   0  0  0  0  0  0  0  0  0  0  0  0
  -28.6144  -24.0397   18.8493 C   0  0  0  0  0  0  0  0  0  0  0  0
  -24.4696  -18.8927   21.1726 C   0  0  1  0  0  0  0  0  0  0  0  0
  -24.2121  -15.5379   19.4084 C   0  0  1  0  0  0  0  0  0  0  0  0
  -29.8158  -24.9976   18.9022 C   0  0  2  0  0  0  0  0  0  0  0  0
  -21.6378   -8.3350   20.6307 C   0  0  0  0  0  0  0  0  0  0  0  0
  -23.7218  -13.8349   23.6769 C   0  0  0  0  0  0  0  0  0  0  0  0
  -23.1130  -11.4099   23.8073 C   0  0  0  0  0  0  0  0  0  0  0  0
  -21.4031  -13.0876   23.1114 C   0  0  0  0  0  0  0  0  0  0  0  0
  -30.5104  -13.2242   15.9888 C   0  0  0  0  0  0  0  0  0  0  0  0
  -32.3323  -12.7411   17.6388 C   0  0  0  0  0  0  0  0  0  0  0  0
  -23.0487   -9.7222   17.3809 C   0  0  0  0  0  0  0  0  0  0  0  0
  -31.3526  -15.0450   17.5625 C   0  0  0  0  0  0  0  0  0  0  0  0
  -31.0821  -16.9903   19.2258 C   0  0  0  0  0  0  0  0  0  0  0  0
  -23.2737  -12.4904   21.5187 C   0  0  1  0  0  0  0  0  0  0  0  0
  -22.0575   -9.4224   19.6539 C   0  0  2  0  0  0  0  0  0  0  0  0
  -22.8983  -12.7146   23.0108 C   0  0  0  0  0  0  0  0  0  0  0  0
  -31.0529  -13.5472   17.3837 C   0  0  0  0  0  0  0  0  0  1  0  0
  -28.2714  -26.7095   19.7769 N   0  0  0  0  0  0  0  0  0  0  0  0
  -29.5257  -26.2284   19.7406 N   0  0  0  0  0  0  0  0  0  0  0  0
  -24.2615  -14.2263   20.0577 N   0  0  0  0  0  0  0  0  0  0  0  0
  -28.9487  -22.8605   18.0354 N   0  0  0  0  0  0  0  0  0  0  0  0
  -31.7137  -26.5939   20.5711 N   0  0  0  0  0  0  0  0  0  0  0  0
  -29.3189  -29.9373   22.4373 N   0  0  0  0  0  0  0  0  0  0  0  0
  -28.6035  -21.3448   19.8090 N   0  0  0  0  0  0  0  0  0  0  0  0
  -24.1278  -17.7829   20.3090 N   0  0  0  0  0  0  0  0  0  0  0  0
  -22.4908  -11.4537   20.8548 N   0  0  0  0  0  0  0  0  0  0  0  0
  -22.6166   -8.7700   18.4362 N   0  3  0  0  0  0  0  0  0  0  0  0
  -31.4121  -29.0160   22.2680 O   0  0  0  0  0  0  0  0  0  0  0  0
  -25.5923  -16.2085   21.2030 O   0  0  0  0  0  0  0  0  0  0  0  0
  -31.8009  -14.8109   19.9319 O   0  0  0  0  0  0  0  0  0  0  0  0
  -21.9942  -14.2639   20.5998 O   0  0  0  0  0  0  0  0  0  0  0  0
  -24.2919  -10.1269   20.2442 O   0  0  0  0  0  0  0  0  0  0  0  0
  -29.2295  -20.5896   17.7068 O   0  0  0  0  0  0  0  0  0  0  0  0
  -23.8712  -30.8722   21.7417 O   0  0  0  0  0  0  0  0  0  0  0  0
  -31.1766  -17.3281   20.5933 O   0  0  0  0  0  0  0  0  0  0  0  0
  -30.0948  -13.1504   18.3639 O   0  0  0  0  0  0  0  0  0  1  0  0
  -20.5768  -32.2615   17.5440 F   0  0  0  0  0  0  0  0  0  0  0  0
  -28.6169  -19.2444   24.1285 F   0  0  0  0  0  0  0  0  0  0  0  0
  -23.4164  -33.5258   21.1138 F   0  0  0  0  0  0  0  0  0  0  0  0
  1  2  1  0  0  0  0
  1  5  2  0  0  0  0
  2  6  2  0  0  0  0
  3  8  2  0  0  0  0
  3 18  1  0  0  0  0
  4  9  1  0  0  0  0
  4 18  2  0  0  0  0
  5 20  1  0  0  0  0
  6 22  1  0  0  0  0
  7 10  2  0  0  0  0
  7 21  1  0  0  0  0
  8 25  1  0  0  0  0
  9 25  2  0  0  0  0
 10 26  1  0  0  0  0
 11 12  2  0  0  0  0
 11 27  1  0  0  0  0
 12 29  1  0  0  0  0
 13 23  1  0  0  0  0
 13 26  2  0  0  0  0
 14 24  1  0  0  0  0
 14 28  2  0  0  0  0
 15 24  2  0  0  0  0
 15 30  1  0  0  0  0
 16 28  1  0  0  0  0
 16 30  2  0  0  0  0
 17 29  2  0  0  0  0
 17 31  1  0  0  0  0
 18 32  1  0  0  0  0
 19 32  1  0  0  0  0
 19 33  2  0  0  0  0
 19 34  1  0  0  0  0
 20 22  2  0  0  0  0
 20 40  1  0  0  0  0
 21 23  2  0  0  0  0
 21 41  1  0  0  0  0
 22 49  1  0  0  0  0
 23 42  1  0  0  0  0
 24 71  1  0  0  0  0
 25 81  1  0  0  0  0
 26 83  1  0  0  0  0
 27 31  2  0  0  0  0
 27 81  1  0  0  0  0
 28 82  1  0  0  0  0
 29 84  1  0  0  0  0
 30 85  1  0  0  0  0
 31 86  1  0  0  0  0
 32 65  2  0  0  0  0
 33 66  1  0  0  0  0
 33 69  1  0  0  0  0
 34 70  1  0  0  0  0
 34 75  2  0  0  0  0
 35 50  1  0  0  0  0
 35 72  1  0  0  0  0
 35 76  2  0  0  0  0
 36 59  1  0  0  0  0
 36 60  1  0  0  0  0
 36 77  2  0  0  0  0
 37 61  1  0  0  0  0
 37 67  1  0  0  0  0
 37 78  2  0  0  0  0
 38 62  1  0  0  0  0
 38 73  1  0  0  0  0
 38 79  2  0  0  0  0
 39 68  1  0  0  0  0
 39 71  1  0  0  0  0
 39 80  2  0  0  0  0
 40 43  1  0  0  0  0
 41 50  1  0  0  0  0
 42 67  1  0  0  0  0
 43 45  1  0  0  0  0
 44 46  1  0  0  0  0
 44 47  1  0  0  0  0
 45 49  1  0  0  0  0
 46 51  1  0  0  0  0
 47 68  1  0  0  0  0
 48 51  1  0  0  0  0
 48 68  1  0  0  0  0
 49 72  1  0  0  0  0
 50 67  1  0  0  0  0
 51 66  1  0  0  0  0
 52 62  1  0  0  0  0
 53 63  1  0  0  0  0
 54 63  1  0  0  0  0
 55 63  1  0  0  0  0
 56 64  1  0  0  0  0
 57 64  1  0  0  0  0
 58 74  1  0  0  0  0
 59 64  1  0  0  0  0
 60 82  1  0  0  0  0
 61 63  1  0  0  0  0
 61 73  1  0  0  0  0
 62 74  1  0  0  0  0
 64 83  1  0  0  0  0
 65 66  1  0  0  0  0
M  CHG  1  74   1
M  ISO  4  39 100  64 101  71 100  83 101
M  END
> <Batch ID>
0137

> <Smiles>
CNC(C)C(=O)NC(C(=O)N1Cc2cc([101O:1][101C:1](C)(C)CC(=O)COc3cc(F)cc([100NH:0][100C:0](=O)N4CCCC(n5nc(-c6ccc(Oc7ccc(F)cc7F)cc6)c(C(N)=O)c5N)C4)c3)ccc2CC1C(=O)NC1CCCc2ccccc21)C(C)(C)C

> <Shape>
0.254

> <Color>
0.064

> <Negative vol penalty>
0.000

$$$$

  -OEChem-04052302423D

 82 90  0     1  0  0  0  0  0999 V2000
  -17.9612  -30.3033   23.9541 C   0  0  0  0  0  0  0  0  0  0  0  0
  -19.3520  -30.3335   23.9503 C   0  0  0  0  0  0  0  0  0  0  0  0
  -25.7312  -13.6266   19.0574 C   0  0  0  0  0  0  0  0  0  0  0  0
  -25.1920  -13.6875   21.4116 C   0  0  0  0  0  0  0  0  0  0  0  0
  -17.2873  -29.2077   23.4159 C   0  0  0  0  0  0  0  0  0  0  0  0
  -20.0699  -29.2675   23.4093 C   0  0  0  0  0  0  0  0  0  0  0  0
  -25.3890  -29.5670   20.3887 C   0  0  0  0  0  0  0  0  0  0  0  0
  -25.6100  -12.2371   19.0655 C   0  0  0  0  0  0  0  0  0  0  0  0
  -25.0707  -12.2980   21.4198 C   0  0  0  0  0  0  0  0  0  0  0  0
  -26.7077  -29.3538   20.7880 C   0  0  0  0  0  0  0  0  0  0  0  0
  -22.7772   -9.9940   20.4967 C   0  0  0  0  0  0  0  0  0  0  0  0
  -21.6769   -9.4449   21.1550 C   0  0  0  0  0  0  0  0  0  0  0  0
  -25.7145  -23.5481   23.7829 C   0  0  0  0  0  0  0  0  0  0  0  0
  -25.8953  -24.8828   24.2180 C   0  0  0  0  0  0  0  0  0  0  0  0
  -26.5814  -27.0867   19.9735 C   0  0  0  0  0  0  0  0  0  0  0  0
  -23.1618   -8.2483   22.6385 C   0  0  0  0  0  0  0  0  0  0  0  0
  -25.5223  -14.3519   20.2304 C   0  0  0  0  0  0  0  0  0  0  0  0
  -24.6327  -16.7281   19.9661 C   0  0  0  0  0  0  0  0  0  0  0  0
  -17.9972  -28.1322   22.8593 C   0  0  0  0  0  0  0  0  0  0  0  0
  -24.6518  -28.5365   19.7878 C   0  0  0  0  0  0  0  0  0  0  0  0
  -19.4050  -28.1559   22.8644 C   0  0  0  0  0  0  0  0  0  0  0  0
  -25.2544  -27.2901   19.5653 C   0  0  0  0  0  0  0  0  0  0  0  0
  -25.2797  -11.5727   20.2467 C   0  0  0  0  0  0  0  0  0  0  0  0
  -27.3031  -28.1126   20.5830 C   0  0  0  0  0  0  0  0  0  0  0  0
  -24.0698   -9.6702   20.9091 C   0  0  0  0  0  0  0  0  0  0  0  0
  -21.8692   -8.5721   22.2259 C   0  0  0  0  0  0  0  0  0  0  0  0
  -24.2620   -8.7974   21.9801 C   0  0  0  0  0  0  0  0  0  0  0  0
  -25.6479  -15.7872   20.2228 C   0  0  0  0  0  0  0  0  0  0  0  0
  -25.2571  -17.9462   20.0785 C   0  0  0  0  0  0  0  0  0  0  0  0
  -26.9687  -23.0723   23.4786 C   0  0  0  0  0  0  0  0  0  0  0  0
  -27.2471  -25.1273   24.1487 C   0  0  0  0  0  0  0  0  0  0  0  0
  -23.2489  -16.5195   19.6540 C   0  0  0  0  0  0  0  0  0  0  0  0
  -22.0022  -26.9458   20.5313 C   0  0  0  0  0  0  0  0  0  0  0  0
  -22.4221  -25.6468   17.5888 C   0  0  0  0  0  0  0  0  0  0  0  0
  -24.5585  -24.8659   15.0446 C   0  0  0  0  0  0  0  0  0  0  0  0
  -28.7140  -21.4226   22.7181 C   0  0  0  0  0  0  0  0  0  0  0  0
  -17.2257  -26.9484   22.3320 C   0  0  0  0  0  0  0  0  0  0  0  0
  -23.2390  -28.7907   19.3386 C   0  0  0  0  0  0  0  0  0  0  0  0
  -24.5126  -26.1572   18.9059 C   0  0  0  0  0  0  0  0  0  0  0  0
  -18.0555  -26.0290   21.4396 C   0  0  0  0  0  0  0  0  0  0  0  0
  -30.1705  -19.1085   20.4376 C   0  0  0  0  0  0  0  0  0  0  0  0
  -19.4088  -25.7407   22.0817 C   0  0  0  0  0  0  0  0  0  0  0  0
  -29.0402  -18.1156   20.1573 C   0  0  0  0  0  0  0  0  0  0  0  0
  -30.1629  -19.5813   21.8902 C   0  0  0  0  0  0  0  0  0  0  0  0
  -27.7495  -19.1248   22.0815 C   0  0  0  0  0  0  0  0  0  0  0  0
  -20.2187  -27.0299   22.2642 C   0  0  1  0  0  0  0  0  0  0  0  0
  -22.4162  -27.5132   19.2030 C   0  0  1  0  0  0  0  0  0  0  0  0
  -27.6768  -18.6699   20.6147 C   0  0  2  0  0  0  0  0  0  0  0  0
  -24.6163  -23.7737   12.7860 C   0  0  0  0  0  0  0  0  0  0  0  0
  -22.2582  -22.9033   18.9140 C   0  0  0  0  0  0  0  0  0  0  0  0
  -23.2510  -21.9181   16.8375 C   0  0  0  0  0  0  0  0  0  0  0  0
  -21.0473  -23.0824   16.7332 C   0  0  0  0  0  0  0  0  0  0  0  0
  -31.2975  -27.4939   21.9837 C   0  0  0  0  0  0  0  0  0  0  0  0
  -30.6360  -28.6816   24.0737 C   0  0  0  0  0  0  0  0  0  0  0  0
  -25.4765  -27.3563   13.7353 C   0  0  0  0  0  0  0  0  0  0  0  0
  -29.0580  -28.6439   22.0977 C   0  0  0  0  0  0  0  0  0  1  0  0
  -29.5040  -26.4936   23.4053 C   0  0  0  0  0  0  0  0  0  0  0  0
  -23.1547  -24.4436   17.0460 C   0  0  1  0  0  0  0  0  0  0  0  0
  -24.4610  -25.0822   13.5452 C   0  0  2  0  0  0  0  0  0  0  0  0
  -22.4414  -23.1074   17.3969 C   0  0  0  0  0  0  0  0  0  0  0  0
  -30.1017  -27.8344   22.9014 C   0  0  0  0  0  0  0  0  0  0  0  0
  -26.8277  -16.3586   20.4788 N   0  0  0  0  0  0  0  0  0  0  0  0
  -26.5578  -17.6717   20.3834 N   0  0  0  0  0  0  0  0  0  0  0  0
  -23.1317  -26.4530   18.4901 N   0  0  0  0  0  0  0  0  0  0  0  0
  -28.8406  -20.0971   22.2514 N   0  0  0  0  0  0  0  0  0  0  0  0
  -24.8150  -19.2148   19.9451 N   0  0  0  0  0  0  0  0  0  0  0  0
  -22.7721  -15.2038   19.5781 N   0  0  0  0  0  0  0  0  0  0  0  0
  -27.4050  -21.8123   22.9992 N   0  0  0  0  0  0  0  0  0  0  0  0
  -20.8031  -27.4421   21.0060 N   0  0  0  0  0  0  0  0  0  0  0  0
  -23.3175  -24.6762   15.6149 N   0  0  0  0  0  0  0  0  0  0  0  0
  -25.5243  -26.0205   13.0870 N   0  3  0  0  0  0  0  0  0  0  0  0
  -22.4624  -17.4713   19.4325 O   0  0  0  0  0  0  0  0  0  0  0  0
  -22.7170  -26.1180   21.0839 O   0  0  0  0  0  0  0  0  0  0  0  0
  -21.2655  -25.8672   17.2210 O   0  0  0  0  0  0  0  0  0  0  0  0
  -25.6287  -24.8616   15.6488 O   0  0  0  0  0  0  0  0  0  0  0  0
  -29.6915  -22.1666   22.8322 O   0  0  0  0  0  0  0  0  0  0  0  0
  -27.9085  -24.0287   23.6990 O   0  0  0  0  0  0  0  0  0  0  0  0
  -25.1611  -10.2169   20.2550 O   0  0  0  0  0  0  0  0  0  0  0  0
  -28.5899  -27.9017   20.9724 O   0  0  0  0  0  0  0  0  0  1  0  0
  -20.8125   -8.0460   22.8590 F   0  0  0  0  0  0  0  0  0  0  0  0
  -25.5014   -8.4836   22.3816 F   0  0  0  0  0  0  0  0  0  0  0  0
  -28.0999  -26.6168   24.5608 S   0  0  0  0  0  0  0  0  0  0  0  0
  1  2  1  0  0  0  0
  1  5  2  0  0  0  0
  2  6  2  0  0  0  0
  3  8  2  0  0  0  0
  3 17  1  0  0  0  0
  4  9  1  0  0  0  0
  4 17  2  0  0  0  0
  5 19  1  0  0  0  0
  6 21  1  0  0  0  0
  7 10  2  0  0  0  0
  7 20  1  0  0  0  0
  8 23  1  0  0  0  0
  9 23  2  0  0  0  0
 10 24  1  0  0  0  0
 11 12  2  0  0  0  0
 11 25  1  0  0  0  0
 12 26  1  0  0  0  0
 13 14  1  0  0  0  0
 13 30  2  0  0  0  0
 14 31  2  0  0  0  0
 15 22  1  0  0  0  0
 15 24  2  0  0  0  0
 16 26  2  0  0  0  0
 16 27  1  0  0  0  0
 17 28  1  0  0  0  0
 18 28  1  0  0  0  0
 18 29  2  0  0  0  0
 18 32  1  0  0  0  0
 19 21  2  0  0  0  0
 19 37  1  0  0  0  0
 20 22  2  0  0  0  0
 20 38  1  0  0  0  0
 21 46  1  0  0  0  0
 22 39  1  0  0  0  0
 23 78  1  0  0  0  0
 24 79  1  0  0  0  0
 25 27  2  0  0  0  0
 25 78  1  0  0  0  0
 26 80  1  0  0  0  0
 27 81  1  0  0  0  0
 28 62  2  0  0  0  0
 29 63  1  0  0  0  0
 29 66  1  0  0  0  0
 30 68  1  0  0  0  0
 30 77  1  0  0  0  0
 31 77  1  0  0  0  0
 31 82  1  0  0  0  0
 32 67  1  0  0  0  0
 32 72  2  0  0  0  0
 33 47  1  0  0  0  0
 33 69  1  0  0  0  0
 33 73  2  0  0  0  0
 34 58  1  0  0  0  0
 34 64  1  0  0  0  0
 34 74  2  0  0  0  0
 35 59  1  0  0  0  0
 35 70  1  0  0  0  0
 35 75  2  0  0  0  0
 36 65  1  0  0  0  0
 36 68  1  0  0  0  0
 36 76  2  0  0  0  0
 37 40  1  0  0  0  0
 38 47  1  0  0  0  0
 39 64  1  0  0  0  0
 40 42  1  0  0  0  0
 41 43  1  0  0  0  0
 41 44  1  0  0  0  0
 42 46  1  0  0  0  0
 43 48  1  0  0  0  0
 44 65  1  0  0  0  0
 45 48  1  0  0  0  0
 45 65  1  0  0  0  0
 46 69  1  0  0  0  0
 47 64  1  0  0  0  0
 48 63  1  0  0  0  0
 49 59  1  0  0  0  0
 50 60  1  0  0  0  0
 51 60  1  0  0  0  0
 52 60  1  0  0  0  0
 53 61  1  0  0  0  0
 54 61  1  0  0  0  0
 55 71  1  0  0  0  0
 56 61  1  0  0  0  0
 56 79  1  0  0  0  0
 57 61  1  0  0  0  0
 57 82  1  0  0  0  0
 58 60  1  0  0  0  0
 58 70  1  0  0  0  0
 59 71  1  0  0  0  0
 62 63  1  0  0  0  0
M  CHG  1  71   1
M  ISO  4  36 100  56 101  68 100  79 101
M  END
> <Batch ID>
0137

> <Smiles>
CNC(C)C(=O)NC(C(=O)N1Cc2cc([101O:1][101CH2:1]C(C)(C)CSc3ccc([100NH:0][100C:0](=O)N4CCCC(n5nc(-c6ccc(Oc7ccc(F)cc7F)cc6)c(C(N)=O)c5N)C4)o3)ccc2CC1C(=O)NC1CCCc2ccccc21)C(C)(C)C

> <Shape>
0.225

> <Color>
0.070

> <Negative vol penalty>
0.000

$$$$

  -OEChem-04052302423D

 87 95  0     1  0  0  0  0  0999 V2000
  -30.9177  -34.4596   22.7381 C   0  0  0  0  0  0  0  0  0  0  0  0
  -30.8962  -33.6366   21.6167 C   0  0  0  0  0  0  0  0  0  0  0  0
  -26.8841  -12.3544   21.8661 C   0  0  0  0  0  0  0  0  0  0  0  0
  -26.3574  -14.0116   20.1888 C   0  0  0  0  0  0  0  0  0  0  0  0
  -30.2619  -34.0651   23.9035 C   0  0  0  0  0  0  0  0  0  0  0  0
  -30.2196  -32.4181   21.6603 C   0  0  0  0  0  0  0  0  0  0  0  0
  -26.4579  -27.9686   17.4928 C   0  0  0  0  0  0  0  0  0  0  0  0
  -25.5646  -11.9033   21.8348 C   0  0  0  0  0  0  0  0  0  0  0  0
  -25.0379  -13.5605   20.1574 C   0  0  0  0  0  0  0  0  0  0  0  0
  -26.4162  -26.6288   17.1096 C   0  0  0  0  0  0  0  0  0  0  0  0
  -23.6486   -9.9434   19.8547 C   0  0  0  0  0  0  0  0  0  0  0  0
  -23.4353   -8.5656   19.8161 C   0  0  0  0  0  0  0  0  0  0  0  0
  -25.2520  -26.0871   19.1517 C   0  0  0  0  0  0  0  0  0  0  0  0
  -30.3140  -22.3019   22.5133 C   0  0  0  0  0  0  0  0  0  0  0  0
  -29.6622  -21.4419   20.3516 C   0  0  0  0  0  0  0  0  0  0  0  0
  -22.2089   -8.6971   21.8935 C   0  0  0  0  0  0  0  0  0  0  0  0
  -27.2805  -13.4087   21.0432 C   0  0  0  0  0  0  0  0  0  0  0  0
  -29.7170  -13.4195   20.2876 C   0  0  0  0  0  0  0  0  0  0  0  0
  -29.5688  -32.8456   23.9584 C   0  0  0  0  0  0  0  0  0  0  0  0
  -25.9056  -28.3767   18.7155 C   0  0  0  0  0  0  0  0  0  0  0  0
  -29.5550  -32.0063   22.8280 C   0  0  0  0  0  0  0  0  0  0  0  0
  -25.2857  -27.4331   19.5470 C   0  0  0  0  0  0  0  0  0  0  0  0
  -29.8588  -23.5684   22.1467 C   0  0  0  0  0  0  0  0  0  0  0  0
  -29.3053  -23.7716   20.8826 C   0  0  0  0  0  0  0  0  0  0  0  0
  -30.2157  -21.2386   21.6157 C   0  0  0  0  0  0  0  0  0  0  0  0
  -24.6415  -12.5063   20.9804 C   0  0  0  0  0  0  0  0  0  0  0  0
  -25.8157  -25.6874   17.9404 C   0  0  0  0  0  0  0  0  0  0  0  0
  -23.1420  -10.6982   20.9128 C   0  0  0  0  0  0  0  0  0  0  0  0
  -29.2069  -22.7084   19.9850 C   0  0  0  0  0  0  0  0  0  0  0  0
  -22.7155   -7.9424   20.8354 C   0  0  0  0  0  0  0  0  0  0  0  0
  -22.4222  -10.0750   21.9322 C   0  0  0  0  0  0  0  0  0  0  0  0
  -28.6433  -13.8755   21.0756 C   0  0  0  0  0  0  0  0  0  0  0  0
  -30.7884  -14.1753   20.6967 C   0  0  0  0  0  0  0  0  0  0  0  0
  -29.7436  -12.4036   19.2762 C   0  0  0  0  0  0  0  0  0  0  0  0
  -27.0534  -29.7180   21.3589 C   0  0  0  0  0  0  0  0  0  0  0  0
  -23.9209  -29.8335   22.1935 C   0  0  0  0  0  0  0  0  0  0  0  0
  -20.7729  -28.5714   21.8136 C   0  0  0  0  0  0  0  0  0  0  0  0
  -31.2520  -19.5797   23.2033 C   0  0  0  0  0  0  0  0  0  0  0  0
  -28.9146  -32.4401   25.2555 C   0  0  0  0  0  0  0  0  0  0  0  0
  -25.9351  -29.8300   19.1021 C   0  0  0  0  0  0  0  0  0  0  0  0
  -24.6602  -27.8231   20.8605 C   0  0  0  0  0  0  0  0  0  0  0  0
  -27.9052  -31.3056   25.1000 C   0  0  0  0  0  0  0  0  0  0  0  0
  -32.4828  -16.5090   24.5199 C   0  0  0  0  0  0  0  0  0  0  0  0
  -28.4870  -30.1874   24.2410 C   0  0  0  0  0  0  0  0  0  0  0  0
  -31.7401  -15.4437   23.7101 C   0  0  0  0  0  0  0  0  0  0  0  0
  -31.5969  -17.7185   24.8133 C   0  0  0  0  0  0  0  0  0  0  0  0
  -30.2163  -17.2557   22.8261 C   0  0  0  0  0  0  0  0  0  0  0  0
  -28.8111  -30.6885   22.8284 C   0  0  1  0  0  0  0  0  0  0  0  0
  -25.7969  -30.0513   20.6053 C   0  0  1  0  0  0  0  0  0  0  0  0
  -31.0881  -16.0464   22.4503 C   0  0  2  0  0  0  0  0  0  0  0  0
  -28.9069  -24.6234   24.2124 C   0  0  0  0  0  0  0  0  0  0  0  0
  -29.7846  -25.8414   19.5512 C   0  0  0  0  0  0  0  0  0  0  0  0
  -25.3420  -21.6903   15.2215 C   0  0  0  0  0  0  0  0  0  0  0  0
  -18.4257  -28.8453   22.6578 C   0  0  0  0  0  0  0  0  0  0  0  0
  -24.6854  -28.4007   24.7766 C   0  0  0  0  0  0  0  0  0  0  0  0
  -22.2632  -27.8645   25.1140 C   0  0  0  0  0  0  0  0  0  0  0  0
  -23.0167  -30.2419   25.0595 C   0  0  0  0  0  0  0  0  0  0  0  0
  -19.7600  -29.2567   19.1185 C   0  0  0  0  0  0  0  0  0  0  0  0
  -29.9754  -24.6906   23.1256 C   0  0  0  0  0  0  0  0  0  0  0  0
  -28.8136  -25.1267   20.4850 C   0  0  0  0  0  0  0  0  0  0  0  0
  -25.8324  -21.5422   16.6548 C   0  0  0  0  0  0  0  0  0  0  0  0
  -26.8402  -23.9024   16.7485 C   0  0  0  0  0  0  0  0  0  1  0  0
  -27.5148  -22.1173   18.4220 C   0  0  0  0  0  0  0  0  0  0  0  0
  -22.9714  -28.9065   22.9132 C   0  0  1  0  0  0  0  0  0  0  0  0
  -19.4341  -29.2528   21.5949 C   0  0  2  0  0  0  0  0  0  0  0  0
  -27.0725  -22.3995   16.9766 C   0  0  1  0  0  0  0  0  0  0  0  0
  -23.2476  -28.8454   24.4420 C   0  0  0  0  0  0  0  0  0  0  0  0
  -29.0000  -14.8457   21.9214 N   0  0  0  0  0  0  0  0  0  0  0  0
  -30.3100  -15.0055   21.6673 N   0  0  0  0  0  0  0  0  0  0  0  0
  -24.7200  -29.2551   21.1972 N   0  0  0  0  0  0  0  0  0  0  0  0
  -31.0171  -18.2384   23.5730 N   0  0  0  0  0  0  0  0  0  0  0  0
  -32.0837  -14.2040   20.3174 N   0  0  0  0  0  0  0  0  0  0  0  0
  -28.5539  -11.7245   18.9799 N   0  0  0  0  0  0  0  0  0  0  0  0
  -30.6776  -19.9519   21.9883 N   0  0  0  0  0  0  0  0  0  0  0  0
  -27.6028  -30.7886   22.0381 N   0  0  0  0  0  0  0  0  0  0  0  0
  -21.6257  -29.3508   22.5663 N   0  0  0  0  0  0  0  0  0  0  0  0
  -18.8810  -28.8914   20.2591 N   0  3  0  0  0  0  0  0  0  0  0  0
  -30.7949  -12.0954   18.6652 O   0  0  0  0  0  0  0  0  0  0  0  0
  -27.4910  -28.5738   21.3277 O   0  0  0  0  0  0  0  0  0  0  0  0
  -23.9473  -31.0284   22.4990 O   0  0  0  0  0  0  0  0  0  0  0  0
  -21.0346  -27.4576   21.3649 O   0  0  0  0  0  0  0  0  0  0  0  0
  -31.9367  -20.3341   23.8989 O   0  0  0  0  0  0  0  0  0  0  0  0
  -23.3539  -12.0662   20.9494 O   0  0  0  0  0  0  0  0  0  0  0  0
  -25.7743  -24.3788   17.5690 O   0  0  0  0  0  0  0  0  0  1  0  0
  -28.6660  -22.8889   18.7389 O   0  0  0  0  0  0  0  0  0  0  0  0
  -22.5095   -6.6194   20.7974 F   0  0  0  0  0  0  0  0  0  0  0  0
  -21.9321  -10.7950   22.9506 F   0  0  0  0  0  0  0  0  0  0  0  0
  1  2  1  0  0  0  0
  1  5  2  0  0  0  0
  2  6  2  0  0  0  0
  3  8  2  0  0  0  0
  3 17  1  0  0  0  0
  4  9  1  0  0  0  0
  4 17  2  0  0  0  0
  5 19  1  0  0  0  0
  6 21  1  0  0  0  0
  7 10  2  0  0  0  0
  7 20  1  0  0  0  0
  8 26  1  0  0  0  0
  9 26  2  0  0  0  0
 10 27  1  0  0  0  0
 11 12  2  0  0  0  0
 11 28  1  0  0  0  0
 12 30  1  0  0  0  0
 13 22  1  0  0  0  0
 13 27  2  0  0  0  0
 14 23  1  0  0  0  0
 14 25  2  0  0  0  0
 15 25  1  0  0  0  0
 15 29  2  0  0  0  0
 16 30  2  0  0  0  0
 16 31  1  0  0  0  0
 17 32  1  0  0  0  0
 18 32  1  0  0  0  0
 18 33  2  0  0  0  0
 18 34  1  0  0  0  0
 19 21  2  0  0  0  0
 19 39  1  0  0  0  0
 20 22  2  0  0  0  0
 20 40  1  0  0  0  0
 21 48  1  0  0  0  0
 22 41  1  0  0  0  0
 23 24  2  0  0  0  0
 23 59  1  0  0  0  0
 24 29  1  0  0  0  0
 24 60  1  0  0  0  0
 25 74  1  0  0  0  0
 26 83  1  0  0  0  0
 27 84  1  0  0  0  0
 28 31  2  0  0  0  0
 28 83  1  0  0  0  0
 29 85  1  0  0  0  0
 30 86  1  0  0  0  0
 31 87  1  0  0  0  0
 32 68  2  0  0  0  0
 33 69  1  0  0  0  0
 33 72  1  0  0  0  0
 34 73  1  0  0  0  0
 34 78  2  0  0  0  0
 35 49  1  0  0  0  0
 35 75  1  0  0  0  0
 35 79  2  0  0  0  0
 36 64  1  0  0  0  0
 36 70  1  0  0  0  0
 36 80  2  0  0  0  0
 37 65  1  0  0  0  0
 37 76  1  0  0  0  0
 37 81  2  0  0  0  0
 38 71  1  0  0  0  0
 38 74  1  0  0  0  0
 38 82  2  0  0  0  0
 39 42  1  0  0  0  0
 40 49  1  0  0  0  0
 41 70  1  0  0  0  0
 42 44  1  0  0  0  0
 43 45  1  0  0  0  0
 43 46  1  0  0  0  0
 44 48  1  0  0  0  0
 45 50  1  0  0  0  0
 46 71  1  0  0  0  0
 47 50  1  0  0  0  0
 47 71  1  0  0  0  0
 48 75  1  0  0  0  0
 49 70  1  0  0  0  0
 50 69  1  0  0  0  0
 51 59  1  0  0  0  0
 52 60  1  0  0  0  0
 53 61  1  0  0  0  0
 54 65  1  0  0  0  0
 55 67  1  0  0  0  0
 56 67  1  0  0  0  0
 57 67  1  0  0  0  0
 58 77  1  0  0  0  0
 61 66  1  0  0  0  0
 62 66  1  0  0  0  0
 62 84  1  0  0  0  0
 63 66  1  0  0  0  0
 63 85  1  0  0  0  0
 64 67  1  0  0  0  0
 64 76  1  0  0  0  0
 65 77  1  0  0  0  0
 68 69  1  0  0  0  0
M  CHG  1  77   1
M  ISO  4  38 100  62 101  74 100  84 101
M  END
> <Batch ID>
0137

> <Smiles>
CCc1cc([100NH:0][100C:0](=O)N2CCCC(n3nc(-c4ccc(Oc5ccc(F)cc5F)cc4)c(C(N)=O)c3N)C2)cc(OCC(CC)[101CH2:1][101O:1]c2ccc3c(c2)CN(C(=O)C(NC(=O)C(C)NC)C(C)(C)C)C(C(=O)NC2CCCc4ccccc42)C3)c1CC

> <Shape>
0.287

> <Color>
0.082

> <Negative vol penalty>
0.000

$$$$

  -OEChem-04052302423D

 87 95  0     1  0  0  0  0  0999 V2000
  -18.9267  -30.6094   24.6926 C   0  0  0  0  0  0  0  0  0  0  0  0
  -20.2994  -30.5998   24.4662 C   0  0  0  0  0  0  0  0  0  0  0  0
  -24.0480  -13.2820   21.3245 C   0  0  0  0  0  0  0  0  0  0  0  0
  -26.2279  -13.2981   20.2829 C   0  0  0  0  0  0  0  0  0  0  0  0
  -18.1322  -29.5773   24.1953 C   0  0  0  0  0  0  0  0  0  0  0  0
  -20.8784  -29.5573   23.7434 C   0  0  0  0  0  0  0  0  0  0  0  0
  -25.6570  -29.9302   19.9314 C   0  0  0  0  0  0  0  0  0  0  0  0
  -31.3868  -22.7149   22.3143 C   0  0  0  0  0  0  0  0  0  0  0  0
  -23.8171  -12.0017   20.8215 C   0  0  0  0  0  0  0  0  0  0  0  0
  -25.9970  -12.0177   19.7799 C   0  0  0  0  0  0  0  0  0  0  0  0
  -27.0127  -29.6498   20.0965 C   0  0  0  0  0  0  0  0  0  0  0  0
  -31.6042  -23.7934   21.4568 C   0  0  0  0  0  0  0  0  0  0  0  0
  -22.7988   -8.5846   20.1132 C   0  0  0  0  0  0  0  0  0  0  0  0
  -22.2498   -7.6375   20.9776 C   0  0  0  0  0  0  0  0  0  0  0  0
  -26.6668  -27.4549   19.1572 C   0  0  0  0  0  0  0  0  0  0  0  0
  -29.4391  -23.4283   20.4487 C   0  0  0  0  0  0  0  0  0  0  0  0
  -24.1498   -7.8801   22.4501 C   0  0  0  0  0  0  0  0  0  0  0  0
  -25.2534  -13.9302   21.0552 C   0  0  0  0  0  0  0  0  0  0  0  0
  -26.0799  -15.5887   22.8085 C   0  0  0  0  0  0  0  0  0  0  0  0
  -18.7004  -28.5267   23.4578 C   0  0  0  0  0  0  0  0  0  0  0  0
  -24.7926  -28.9696   19.3871 C   0  0  0  0  0  0  0  0  0  0  0  0
  -20.0908  -28.5095   23.2370 C   0  0  0  0  0  0  0  0  0  0  0  0
  -25.3011  -27.7266   18.9839 C   0  0  0  0  0  0  0  0  0  0  0  0
  -30.1956  -21.9931   22.2389 C   0  0  0  0  0  0  0  0  0  0  0  0
  -29.2218  -22.3498   21.3061 C   0  0  0  0  0  0  0  0  0  0  0  0
  -24.7916  -11.3695   20.0492 C   0  0  0  0  0  0  0  0  0  0  0  0
  -27.5173  -28.4109   19.7120 C   0  0  0  0  0  0  0  0  0  0  0  0
  -30.6304  -24.1501   20.5240 C   0  0  0  0  0  0  0  0  0  0  0  0
  -24.0234   -9.1794   20.4172 C   0  0  0  0  0  0  0  0  0  0  0  0
  -22.9253   -7.2852   22.1461 C   0  0  0  0  0  0  0  0  0  0  0  0
  -24.6988   -8.8271   21.5857 C   0  0  0  0  0  0  0  0  0  0  0  0
  -25.4923  -15.2530   21.5740 C   0  0  0  0  0  0  0  0  0  0  0  0
  -26.0794  -16.9621   22.8268 C   0  0  0  0  0  0  0  0  0  0  0  0
  -31.6660  -28.2701   19.2517 C   0  0  0  0  0  0  0  0  0  0  0  0
  -26.5814  -14.7354   23.8458 C   0  0  0  0  0  0  0  0  0  0  0  0
  -32.1201  -27.0624   18.8598 C   0  0  0  0  0  0  0  0  0  0  0  0
  -22.2328  -27.4043   20.4363 C   0  0  0  0  0  0  0  0  0  0  0  0
  -22.1264  -26.3188   17.3814 C   0  0  0  0  0  0  0  0  0  0  0  0
  -23.7975  -25.6705   14.4772 C   0  0  0  0  0  0  0  0  0  0  0  0
  -26.9466  -21.8669   20.3382 C   0  0  0  0  0  0  0  0  0  0  0  0
  -17.8075  -27.4086   22.9809 C   0  0  0  0  0  0  0  0  0  0  0  0
  -23.3377  -29.2973   19.1909 C   0  0  0  0  0  0  0  0  0  0  0  0
  -24.4187  -26.6683   18.3757 C   0  0  0  0  0  0  0  0  0  0  0  0
  -18.4470  -26.5355   21.9043 C   0  0  0  0  0  0  0  0  0  0  0  0
  -23.8013  -20.2963   19.7749 C   0  0  0  0  0  0  0  0  0  0  0  0
  -19.8723  -26.1609   22.2977 C   0  0  0  0  0  0  0  0  0  0  0  0
  -24.0092  -18.8719   20.2943 C   0  0  0  0  0  0  0  0  0  0  0  0
  -25.0560  -20.8406   19.0943 C   0  0  0  0  0  0  0  0  0  0  0  0
  -26.4902  -19.3369   20.4176 C   0  0  0  0  0  0  0  0  0  0  0  0
  -20.7525  -27.4089   22.4362 C   0  0  1  0  0  0  0  0  0  0  0  0
  -22.4528  -28.0579   19.1014 C   0  0  1  0  0  0  0  0  0  0  0  0
  -25.2744  -18.7698   21.1686 C   0  0  2  0  0  0  0  0  0  0  0  0
  -29.9899  -20.8426   23.1700 C   0  0  0  0  0  0  0  0  0  0  0  0
  -34.1873  -26.9963   17.4261 C   0  0  0  0  0  0  0  0  0  0  0  0
  -31.9686  -29.7204   21.2451 C   0  0  0  0  0  0  0  0  0  0  0  0
  -23.4511  -24.7502   12.1685 C   0  0  0  0  0  0  0  0  0  0  0  0
  -22.0645  -23.4892   18.5213 C   0  0  0  0  0  0  0  0  0  0  0  0
  -22.6736  -22.6349   16.2481 C   0  0  0  0  0  0  0  0  0  0  0  0
  -20.5304  -23.8667   16.5826 C   0  0  0  0  0  0  0  0  0  0  0  0
  -24.5956  -28.2249   13.2136 C   0  0  0  0  0  0  0  0  0  0  0  0
  -32.6836  -26.7702   17.4871 C   0  0  0  0  0  0  0  0  0  0  0  0
  -32.0814  -25.8969   19.8176 C   0  0  0  0  0  0  0  0  0  0  0  0
  -29.6535  -29.1595   20.4415 C   0  0  0  0  0  0  0  0  0  1  0  0
  -31.0892  -28.6482   20.5989 C   0  0  1  0  0  0  0  0  0  0  0  0
  -22.7141  -25.1393   16.6448 C   0  0  1  0  0  0  0  0  0  0  0  0
  -23.4716  -26.0018   13.0321 C   0  0  2  0  0  0  0  0  0  0  0  0
  -22.0122  -23.8016   17.0124 C   0  0  0  0  0  0  0  0  0  0  0  0
  -25.1437  -16.3267   20.8600 N   0  0  0  0  0  0  0  0  0  0  0  0
  -25.5133  -17.3504   21.6483 N   0  0  0  0  0  0  0  0  0  0  0  0
  -23.0023  -27.0342   18.2102 N   0  0  0  0  0  0  0  0  0  0  0  0
  -26.2132  -20.7151   19.9832 N   0  0  0  0  0  0  0  0  0  0  0  0
  -26.5080  -17.8633   23.7360 N   0  0  0  0  0  0  0  0  0  0  0  0
  -26.5044  -13.3477   23.6649 N   0  0  0  0  0  0  0  0  0  0  0  0
  -28.0052  -21.6291   21.2142 N   0  0  0  0  0  0  0  0  0  0  0  0
  -21.1455  -27.8976   21.1319 N   0  0  0  0  0  0  0  0  0  0  0  0
  -22.6564  -25.4742   15.2260 N   0  0  0  0  0  0  0  0  0  0  0  0
  -24.4856  -26.9409   12.4746 N   0  3  0  0  0  0  0  0  0  0  0  0
  -27.0679  -15.1898   24.9089 O   0  0  0  0  0  0  0  0  0  0  0  0
  -22.9923  -26.5169   20.8071 O   0  0  0  0  0  0  0  0  0  0  0  0
  -20.9359  -26.5995   17.2216 O   0  0  0  0  0  0  0  0  0  0  0  0
  -24.9492  -25.5900   14.8988 O   0  0  0  0  0  0  0  0  0  0  0  0
  -26.6403  -22.9861   19.9191 O   0  0  0  0  0  0  0  0  0  0  0  0
  -24.5667  -10.1201   19.5584 O   0  0  0  0  0  0  0  0  0  0  0  0
  -30.8444  -25.2098   19.6818 O   0  0  0  0  0  0  0  0  0  0  0  0
  -28.8400  -28.1344   19.8727 O   0  0  0  0  0  0  0  0  0  1  0  0
  -22.3972   -6.3768   22.9768 F   0  0  0  0  0  0  0  0  0  0  0  0
  -25.8750   -9.3960   21.8837 F   0  0  0  0  0  0  0  0  0  0  0  0
  1  2  1  0  0  0  0
  1  5  2  0  0  0  0
  2  6  2  0  0  0  0
  3  9  2  0  0  0  0
  3 18  1  0  0  0  0
  4 10  1  0  0  0  0
  4 18  2  0  0  0  0
  5 20  1  0  0  0  0
  6 22  1  0  0  0  0
  7 11  2  0  0  0  0
  7 21  1  0  0  0  0
  8 12  2  0  0  0  0
  8 24  1  0  0  0  0
  9 26  1  0  0  0  0
 10 26  2  0  0  0  0
 11 27  1  0  0  0  0
 12 28  1  0  0  0  0
 13 14  2  0  0  0  0
 13 29  1  0  0  0  0
 14 30  1  0  0  0  0
 15 23  1  0  0  0  0
 15 27  2  0  0  0  0
 16 25  1  0  0  0  0
 16 28  2  0  0  0  0
 17 30  2  0  0  0  0
 17 31  1  0  0  0  0
 18 32  1  0  0  0  0
 19 32  1  0  0  0  0
 19 33  2  0  0  0  0
 19 35  1  0  0  0  0
 20 22  2  0  0  0  0
 20 41  1  0  0  0  0
 21 23  2  0  0  0  0
 21 42  1  0  0  0  0
 22 50  1  0  0  0  0
 23 43  1  0  0  0  0
 24 25  2  0  0  0  0
 24 53  1  0  0  0  0
 25 74  1  0  0  0  0
 26 83  1  0  0  0  0
 27 85  1  0  0  0  0
 28 84  1  0  0  0  0
 29 31  2  0  0  0  0
 29 83  1  0  0  0  0
 30 86  1  0  0  0  0
 31 87  1  0  0  0  0
 32 68  2  0  0  0  0
 33 69  1  0  0  0  0
 33 72  1  0  0  0  0
 34 36  2  0  0  0  0
 34 64  1  0  0  0  0
 35 73  1  0  0  0  0
 35 78  2  0  0  0  0
 36 61  1  0  0  0  0
 36 62  1  0  0  0  0
 37 51  1  0  0  0  0
 37 75  1  0  0  0  0
 37 79  2  0  0  0  0
 38 65  1  0  0  0  0
 38 70  1  0  0  0  0
 38 80  2  0  0  0  0
 39 66  1  0  0  0  0
 39 76  1  0  0  0  0
 39 81  2  0  0  0  0
 40 71  1  0  0  0  0
 40 74  1  0  0  0  0
 40 82  2  0  0  0  0
 41 44  1  0  0  0  0
 42 51  1  0  0  0  0
 43 70  1  0  0  0  0
 44 46  1  0  0  0  0
 45 47  1  0  0  0  0
 45 48  1  0  0  0  0
 46 50  1  0  0  0  0
 47 52  1  0  0  0  0
 48 71  1  0  0  0  0
 49 52  1  0  0  0  0
 49 71  1  0  0  0  0
 50 75  1  0  0  0  0
 51 70  1  0  0  0  0
 52 69  1  0  0  0  0
 54 61  1  0  0  0  0
 55 64  1  0  0  0  0
 56 66  1  0  0  0  0
 57 67  1  0  0  0  0
 58 67  1  0  0  0  0
 59 67  1  0  0  0  0
 60 77  1  0  0  0  0
 62 84  1  0  0  0  0
 63 64  1  0  0  0  0
 63 85  1  0  0  0  0
 65 67  1  0  0  0  0
 65 76  1  0  0  0  0
 66 77  1  0  0  0  0
 68 69  1  0  0  0  0
M  CHG  1  77   1
M  ISO  4  40 100  63 101  74 100  85 101
M  END
> <Batch ID>
0137

> <Smiles>
CCC(=CC(C)[101CH2:1][101O:1]c1ccc2c(c1)CN(C(=O)C(NC(=O)C(C)NC)C(C)(C)C)C(C(=O)NC1CCCc3ccccc31)C2)COc1ccc(C)c([100NH:0][100C:0](=O)N2CCCC(n3nc(-c4ccc(Oc5ccc(F)cc5F)cc4)c(C(N)=O)c3N)C2)c1

> <Shape>
0.229

> <Color>
0.078

> <Negative vol penalty>
0.000

$$$$

  -OEChem-04052302423D

 84 92  0     1  0  0  0  0  0999 V2000
  -21.5820   -4.4344   33.3809 C   0  0  0  0  0  0  0  0  0  0  0  0
  -22.6668   -5.3033   33.4412 C   0  0  0  0  0  0  0  0  0  0  0  0
  -33.4035  -11.7925   25.0746 C   0  0  0  0  0  0  0  0  0  0  0  0
  -23.1900   -9.8202   19.9301 C   0  0  0  0  0  0  0  0  0  0  0  0
  -23.5694   -9.9993   22.3094 C   0  0  0  0  0  0  0  0  0  0  0  0
  -20.7591   -4.4254   32.2554 C   0  0  0  0  0  0  0  0  0  0  0  0
  -22.9300   -6.1630   32.3754 C   0  0  0  0  0  0  0  0  0  0  0  0
  -25.2032  -11.8404   32.7001 C   0  0  0  0  0  0  0  0  0  0  0  0
  -32.8066  -11.8353   26.3345 C   0  0  0  0  0  0  0  0  0  0  0  0
  -32.6578  -12.1075   23.9385 C   0  0  0  0  0  0  0  0  0  0  0  0
  -22.4240   -8.6733   20.1385 C   0  0  0  0  0  0  0  0  0  0  0  0
  -22.8033   -8.8525   22.5178 C   0  0  0  0  0  0  0  0  0  0  0  0
  -26.4908  -12.3466   32.5276 C   0  0  0  0  0  0  0  0  0  0  0  0
  -23.2046   -5.5060   22.2518 C   0  0  0  0  0  0  0  0  0  0  0  0
  -23.7035   -4.5442   23.1302 C   0  0  0  0  0  0  0  0  0  0  0  0
  -25.9663  -12.8831   30.2350 C   0  0  0  0  0  0  0  0  0  0  0  0
  -21.7475   -4.8032   24.5245 C   0  0  0  0  0  0  0  0  0  0  0  0
  -23.7628  -10.4832   21.0155 C   0  0  0  0  0  0  0  0  0  0  0  0
  -24.1011  -13.0000   20.7730 C   0  0  0  0  0  0  0  0  0  0  0  0
  -21.0068   -5.2923   31.1794 C   0  0  0  0  0  0  0  0  0  0  0  0
  -24.2895  -11.8419   31.6364 C   0  0  0  0  0  0  0  0  0  0  0  0
  -22.1106   -6.1647   31.2338 C   0  0  0  0  0  0  0  0  0  0  0  0
  -24.6669  -12.3787   30.3973 C   0  0  0  0  0  0  0  0  0  0  0  0
  -31.4641  -12.1928   26.4585 C   0  0  0  0  0  0  0  0  0  0  0  0
  -30.7183  -12.5077   25.3225 C   0  0  0  0  0  0  0  0  0  0  0  0
  -31.3152  -12.4650   24.0625 C   0  0  0  0  0  0  0  0  0  0  0  0
  -22.2306   -8.1895   21.4324 C   0  0  0  0  0  0  0  0  0  0  0  0
  -26.8734  -12.8653   31.2941 C   0  0  0  0  0  0  0  0  0  0  0  0
  -21.9772   -6.1164   22.5097 C   0  0  0  0  0  0  0  0  0  0  0  0
  -22.9750   -4.1928   24.2666 C   0  0  0  0  0  0  0  0  0  0  0  0
  -21.2487   -5.7650   23.6461 C   0  0  0  0  0  0  0  0  0  0  0  0
  -24.5547  -11.6676   20.8008 C   0  0  0  0  0  0  0  0  0  0  0  0
  -25.2321  -13.7429   20.5376 C   0  0  0  0  0  0  0  0  0  0  0  0
  -22.7759  -13.5197   20.9447 C   0  0  0  0  0  0  0  0  0  0  0  0
  -22.7352   -9.5952   30.0114 C   0  0  0  0  0  0  0  0  0  0  0  0
  -21.2805  -12.1468   28.6345 C   0  0  0  0  0  0  0  0  0  0  0  0
  -21.3980  -15.4600   27.8247 C   0  0  0  0  0  0  0  0  0  0  0  0
  -31.0371  -12.7825   21.5789 C   0  0  0  0  0  0  0  0  0  0  0  0
  -20.1174   -5.2132   29.9639 C   0  0  0  0  0  0  0  0  0  0  0  0
  -22.8957  -11.3167   31.8463 C   0  0  0  0  0  0  0  0  0  0  0  0
  -23.7169  -12.4221   29.2293 C   0  0  0  0  0  0  0  0  0  0  0  0
  -20.2445   -6.4191   29.0366 C   0  0  0  0  0  0  0  0  0  0  0  0
  -29.5232  -13.4656   18.4296 C   0  0  0  0  0  0  0  0  0  0  0  0
  -21.7129   -6.7558   28.7970 C   0  0  0  0  0  0  0  0  0  0  0  0
  -28.0352  -13.2092   18.6794 C   0  0  0  0  0  0  0  0  0  0  0  0
  -30.4048  -12.4803   19.1949 C   0  0  0  0  0  0  0  0  0  0  0  0
  -28.6457  -12.1377   20.8853 C   0  0  0  0  0  0  0  0  0  0  0  0
  -22.4142   -7.1298   30.1084 C   0  0  1  0  0  0  0  0  0  0  0  0
  -22.2131  -10.8980   30.5478 C   0  0  1  0  0  0  0  0  0  0  0  0
  -27.7194  -13.1464   20.1866 C   0  0  2  0  0  0  0  0  0  0  0  0
  -29.2782  -12.8909   25.4606 C   0  0  0  0  0  0  0  0  0  0  0  0
  -20.0779  -17.2529   26.6671 C   0  0  0  0  0  0  0  0  0  0  0  0
  -22.0738  -10.9806   25.9289 C   0  0  0  0  0  0  0  0  0  0  0  0
  -21.5946  -13.2140   24.9040 C   0  0  0  0  0  0  0  0  0  0  0  0
  -19.7641  -11.9355   26.0165 C   0  0  0  0  0  0  0  0  0  0  0  0
  -30.1107  -15.3079   30.2011 C   0  0  0  0  0  0  0  0  0  0  0  0
  -30.9749  -13.0321   30.8020 C   0  0  0  0  0  0  0  0  0  0  0  0
  -21.2137  -17.0806   30.2942 C   0  0  0  0  0  0  0  0  0  0  0  0
  -30.8431  -12.2311   27.8341 C   0  0  0  0  0  0  0  0  0  0  0  0
  -30.7087  -13.6717   28.3468 C   0  0  0  0  0  0  0  0  0  0  0  0
  -28.6931  -13.2628   29.8153 C   0  0  0  0  0  0  0  0  0  1  0  0
  -21.5591  -13.0158   27.4319 C   0  0  1  0  0  0  0  0  0  0  0  0
  -20.3818  -16.5749   27.9940 C   0  0  2  0  0  0  0  0  0  0  0  0
  -21.2666  -12.2840   26.0916 C   0  0  0  0  0  0  0  0  0  0  0  0
  -30.1356  -13.8254   29.7848 C   0  0  0  0  0  0  0  0  0  0  0  0
  -25.8712  -11.5668   20.5990 N   0  0  0  0  0  0  0  0  0  0  0  0
  -26.2545  -12.8453   20.4421 N   0  0  0  0  0  0  0  0  0  0  0  0
  -22.3674  -11.8909   29.4826 N   0  0  0  0  0  0  0  0  0  0  0  0
  -30.0516  -12.4780   20.6162 N   0  0  0  0  0  0  0  0  0  0  0  0
  -25.4418  -15.0699   20.4050 N   0  0  0  0  0  0  0  0  0  0  0  0
  -21.7294  -12.6172   21.1787 N   0  0  0  0  0  0  0  0  0  0  0  0
  -30.5769  -12.7815   22.8953 N   0  0  0  0  0  0  0  0  0  0  0  0
  -22.0744   -8.4823   30.4954 N   0  0  0  0  0  0  0  0  0  0  0  0
  -20.7885  -14.2394   27.6252 N   0  0  0  0  0  0  0  0  0  0  0  0
  -20.8956  -17.6046   28.9410 N   0  3  0  0  0  0  0  0  0  0  0  0
  -22.5245  -14.7467   20.8758 O   0  0  0  0  0  0  0  0  0  0  0  0
  -23.6675   -9.5995   29.2161 O   0  0  0  0  0  0  0  0  0  0  0  0
  -20.1391  -11.7170   28.8187 O   0  0  0  0  0  0  0  0  0  0  0  0
  -22.6112  -15.6531   27.8617 O   0  0  0  0  0  0  0  0  0  0  0  0
  -32.1970  -13.0529   21.2572 O   0  0  0  0  0  0  0  0  0  0  0  0
  -21.4829   -7.0705   21.6362 O   0  0  0  0  0  0  0  0  0  0  0  0
  -28.1298  -13.3594   31.1229 O   0  0  0  0  0  0  0  0  0  1  0  0
  -23.4534   -3.2681   25.1093 F   0  0  0  0  0  0  0  0  0  0  0  0
  -20.0683   -6.3472   23.8985 F   0  0  0  0  0  0  0  0  0  0  0  0
  1  2  1  0  0  0  0
  1  6  2  0  0  0  0
  2  7  2  0  0  0  0
  3  9  2  0  0  0  0
  3 10  1  0  0  0  0
  4 11  2  0  0  0  0
  4 18  1  0  0  0  0
  5 12  1  0  0  0  0
  5 18  2  0  0  0  0
  6 20  1  0  0  0  0
  7 22  1  0  0  0  0
  8 13  2  0  0  0  0
  8 21  1  0  0  0  0
  9 24  1  0  0  0  0
 10 26  2  0  0  0  0
 11 27  1  0  0  0  0
 12 27  2  0  0  0  0
 13 28  1  0  0  0  0
 14 15  2  0  0  0  0
 14 29  1  0  0  0  0
 15 30  1  0  0  0  0
 16 23  1  0  0  0  0
 16 28  2  0  0  0  0
 17 30  2  0  0  0  0
 17 31  1  0  0  0  0
 18 32  1  0  0  0  0
 19 32  1  0  0  0  0
 19 33  2  0  0  0  0
 19 34  1  0  0  0  0
 20 22  2  0  0  0  0
 20 39  1  0  0  0  0
 21 23  2  0  0  0  0
 21 40  1  0  0  0  0
 22 48  1  0  0  0  0
 23 41  1  0  0  0  0
 24 25  2  0  0  0  0
 24 59  1  0  0  0  0
 25 26  1  0  0  0  0
 25 51  1  0  0  0  0
 26 72  1  0  0  0  0
 27 81  1  0  0  0  0
 28 82  1  0  0  0  0
 29 31  2  0  0  0  0
 29 81  1  0  0  0  0
 30 83  1  0  0  0  0
 31 84  1  0  0  0  0
 32 66  2  0  0  0  0
 33 67  1  0  0  0  0
 33 70  1  0  0  0  0
 34 71  1  0  0  0  0
 34 76  2  0  0  0  0
 35 49  1  0  0  0  0
 35 73  1  0  0  0  0
 35 77  2  0  0  0  0
 36 62  1  0  0  0  0
 36 68  1  0  0  0  0
 36 78  2  0  0  0  0
 37 63  1  0  0  0  0
 37 74  1  0  0  0  0
 37 79  2  0  0  0  0
 38 69  1  0  0  0  0
 38 72  1  0  0  0  0
 38 80  2  0  0  0  0
 39 42  1  0  0  0  0
 40 49  1  0  0  0  0
 41 68  1  0  0  0  0
 42 44  1  0  0  0  0
 43 45  1  0  0  0  0
 43 46  1  0  0  0  0
 44 48  1  0  0  0  0
 45 50  1  0  0  0  0
 46 69  1  0  0  0  0
 47 50  1  0  0  0  0
 47 69  1  0  0  0  0
 48 73  1  0  0  0  0
 49 68  1  0  0  0  0
 50 67  1  0  0  0  0
 52 63  1  0  0  0  0
 53 64  1  0  0  0  0
 54 64  1  0  0  0  0
 55 64  1  0  0  0  0
 56 65  1  0  0  0  0
 57 65  1  0  0  0  0
 58 75  1  0  0  0  0
 59 60  1  0  0  0  0
 60 65  1  0  0  0  0
 61 65  1  0  0  0  0
 61 82  1  0  0  0  0
 62 64  1  0  0  0  0
 62 74  1  0  0  0  0
 63 75  1  0  0  0  0
 66 67  1  0  0  0  0
M  CHG  1  75   1
M  ISO  4  38 100  61 101  72 100  82 101
M  END
> <Batch ID>
0137

> <Smiles>
CNC(C)C(=O)NC(C(=O)N1Cc2cc([101O:1][101CH2:1]C(C)(C)CCc3cccc([100NH:0][100C:0](=O)N4CCCC(n5nc(-c6ccc(Oc7ccc(F)cc7F)cc6)c(C(N)=O)c5N)C4)c3C)ccc2CC1C(=O)NC1CCCc2ccccc21)C(C)(C)C

> <Shape>
0.140

> <Color>
0.186

> <Negative vol penalty>
0.000

$$$$

  -OEChem-04052302423D

 84 92  0     1  0  0  0  0  0999 V2000
  -27.8925  -24.1707   26.2620 C   0  0  0  0  0  0  0  0  0  0  0  0
  -27.7857  -24.4947   24.9133 C   0  0  0  0  0  0  0  0  0  0  0  0
  -26.4485  -12.6793   21.7185 C   0  0  0  0  0  0  0  0  0  0  0  0
  -25.8034  -13.8398   19.7001 C   0  0  0  0  0  0  0  0  0  0  0  0
  -26.9406  -24.6376   27.1674 C   0  0  0  0  0  0  0  0  0  0  0  0
  -26.7263  -25.2850   24.4690 C   0  0  0  0  0  0  0  0  0  0  0  0
  -28.2152  -28.8983   21.2484 C   0  0  0  0  0  0  0  0  0  0  0  0
  -27.3926  -22.6267   17.6777 C   0  0  0  0  0  0  0  0  0  0  0  0
  -27.9963  -21.5521   18.3307 C   0  0  0  0  0  0  0  0  0  0  0  0
  -25.2119  -12.0344   21.7429 C   0  0  0  0  0  0  0  0  0  0  0  0
  -24.5668  -13.1949   19.7245 C   0  0  0  0  0  0  0  0  0  0  0  0
  -28.4700  -28.5131   19.9329 C   0  0  0  0  0  0  0  0  0  0  0  0
  -23.7311   -9.4269   20.1806 C   0  0  0  0  0  0  0  0  0  0  0  0
  -23.7197   -8.0564   20.4397 C   0  0  0  0  0  0  0  0  0  0  0  0
  -26.3004  -29.3391   19.2772 C   0  0  0  0  0  0  0  0  0  0  0  0
  -28.3747  -22.9430   20.2696 C   0  0  0  0  0  0  0  0  0  0  0  0
  -22.3517   -8.4373   22.3943 C   0  0  0  0  0  0  0  0  0  0  0  0
  -26.7442  -13.5820   20.6971 C   0  0  0  0  0  0  0  0  0  0  0  0
  -29.1990  -13.8062   20.0404 C   0  0  0  0  0  0  0  0  0  0  0  0
  -25.8743  -25.4420   26.7355 C   0  0  0  0  0  0  0  0  0  0  0  0
  -26.9946  -29.4978   21.5908 C   0  0  0  0  0  0  0  0  0  0  0  0
  -25.7585  -25.7621   25.3693 C   0  0  0  0  0  0  0  0  0  0  0  0
  -26.0336  -29.7332   20.5973 C   0  0  0  0  0  0  0  0  0  0  0  0
  -27.2801  -23.8595   18.3206 C   0  0  0  0  0  0  0  0  0  0  0  0
  -28.4873  -21.7102   19.6267 C   0  0  0  0  0  0  0  0  0  0  0  0
  -24.2711  -12.2922   20.7459 C   0  0  0  0  0  0  0  0  0  0  0  0
  -27.5114  -28.7309   18.9476 C   0  0  0  0  0  0  0  0  0  0  0  0
  -23.0528  -10.3026   21.0284 C   0  0  0  0  0  0  0  0  0  0  0  0
  -23.0300   -7.5615   21.5466 C   0  0  0  0  0  0  0  0  0  0  0  0
  -27.7711  -24.0176   19.6165 C   0  0  0  0  0  0  0  0  0  0  0  0
  -22.3631   -9.8078   22.1352 C   0  0  0  0  0  0  0  0  0  0  0  0
  -28.0212  -14.2489   20.6716 C   0  0  0  0  0  0  0  0  0  0  0  0
  -30.1220  -14.7874   20.3085 C   0  0  0  0  0  0  0  0  0  0  0  0
  -29.4375  -12.6146   19.2795 C   0  0  0  0  0  0  0  0  0  0  0  0
  -24.5850  -28.7375   23.5193 C   0  0  0  0  0  0  0  0  0  0  0  0
  -23.5167  -31.6912   22.7091 C   0  0  0  0  0  0  0  0  0  0  0  0
  -23.5269  -34.2605   20.4629 C   0  0  0  0  0  0  0  0  0  0  0  0
  -29.6418  -20.6072   21.5752 C   0  0  0  0  0  0  0  0  0  0  0  0
  -24.8436  -25.8840   27.7440 C   0  0  0  0  0  0  0  0  0  0  0  0
  -26.7459  -29.9318   23.0093 C   0  0  0  0  0  0  0  0  0  0  0  0
  -24.7154  -30.3918   20.9092 C   0  0  0  0  0  0  0  0  0  0  0  0
  -23.9599  -27.0268   27.2509 C   0  0  0  0  0  0  0  0  0  0  0  0
  -31.2080  -18.1143   23.5776 C   0  0  0  0  0  0  0  0  0  0  0  0
  -23.4651  -26.7466   25.8354 C   0  0  0  0  0  0  0  0  0  0  0  0
  -30.6805  -16.7997   22.9982 C   0  0  0  0  0  0  0  0  0  0  0  0
  -30.1410  -19.2075   23.5668 C   0  0  0  0  0  0  0  0  0  0  0  0
  -28.9758  -18.1253   21.6853 C   0  0  0  0  0  0  0  0  0  0  0  0
  -24.6374  -26.6375   24.8528 C   0  0  1  0  0  0  0  0  0  0  0  0
  -25.2630  -30.0665   23.3416 C   0  0  1  0  0  0  0  0  0  0  0  0
  -30.0343  -17.0124   21.6152 C   0  0  2  0  0  0  0  0  0  0  0  0
  -22.5263  -36.5257   20.0563 C   0  0  0  0  0  0  0  0  0  0  0  0
  -20.8830  -30.3800   21.9003 C   0  0  0  0  0  0  0  0  0  0  0  0
  -20.3055  -32.4716   20.6515 C   0  0  0  0  0  0  0  0  0  0  0  0
  -20.6368  -32.5478   23.1227 C   0  0  0  0  0  0  0  0  0  0  0  0
  -25.7729  -26.5226   15.0041 C   0  0  0  0  0  0  0  0  0  0  0  0
  -28.0810  -27.4963   14.8942 C   0  0  0  0  0  0  0  0  0  0  0  0
  -26.1836  -35.5646   20.4763 C   0  0  0  0  0  0  0  0  0  0  0  0
  -26.6243  -25.0195   17.6108 C   0  0  0  0  0  0  0  0  0  0  0  0
  -27.5702  -25.6508   16.5797 C   0  0  0  0  0  0  0  0  0  0  0  0
  -26.6323  -27.9795   16.8695 C   0  0  0  0  0  0  0  0  0  1  0  0
  -22.6418  -32.2480   21.6120 C   0  0  1  0  0  0  0  0  0  0  0  0
  -23.6991  -35.7577   20.6457 C   0  0  2  0  0  0  0  0  0  0  0  0
  -21.1407  -31.8977   21.8158 C   0  0  0  0  0  0  0  0  0  0  0  0
  -27.0171  -26.8971   15.8310 C   0  0  0  0  0  0  0  0  0  0  0  0
  -28.1788  -15.4201   21.2941 N   0  0  0  0  0  0  0  0  0  0  0  0
  -29.4665  -15.7216   21.0553 N   0  0  0  0  0  0  0  0  0  0  0  0
  -24.5167  -30.7923   22.3118 N   0  0  0  0  0  0  0  0  0  0  0  0
  -29.5767  -19.3557   22.2236 N   0  0  0  0  0  0  0  0  0  0  0  0
  -31.4222  -14.9335   19.9761 N   0  0  0  0  0  0  0  0  0  0  0  0
  -28.3792  -11.7133   19.1004 N   0  0  0  0  0  0  0  0  0  0  0  0
  -29.1022  -20.6192   20.2894 N   0  0  0  0  0  0  0  0  0  0  0  0
  -25.1368  -27.9529   24.5139 N   0  0  0  0  0  0  0  0  0  0  0  0
  -22.9190  -33.6792   21.5554 N   0  0  0  0  0  0  0  0  0  0  0  0
  -24.9479  -36.2209   19.9771 N   0  3  0  0  0  0  0  0  0  0  0  0
  -30.5602  -12.3488   18.7873 O   0  0  0  0  0  0  0  0  0  0  0  0
  -23.6308  -28.4461   22.8077 O   0  0  0  0  0  0  0  0  0  0  0  0
  -23.3246  -32.0465   23.8746 O   0  0  0  0  0  0  0  0  0  0  0  0
  -23.8916  -33.6668   19.4504 O   0  0  0  0  0  0  0  0  0  0  0  0
  -30.1641  -21.5887   22.1099 O   0  0  0  0  0  0  0  0  0  0  0  0
  -23.0644  -11.6629   20.7693 O   0  0  0  0  0  0  0  0  0  0  0  0
  -27.7573  -28.3553   17.6630 O   0  0  0  0  0  0  0  0  0  1  0  0
  -23.0179   -6.2452   21.7944 F   0  0  0  0  0  0  0  0  0  0  0  0
  -27.6675  -25.1982   20.2425 F   0  0  0  0  0  0  0  0  0  0  0  0
  -21.7087  -10.6441   22.9526 F   0  0  0  0  0  0  0  0  0  0  0  0
  1  2  1  0  0  0  0
  1  5  2  0  0  0  0
  2  6  2  0  0  0  0
  3 10  2  0  0  0  0
  3 18  1  0  0  0  0
  4 11  1  0  0  0  0
  4 18  2  0  0  0  0
  5 20  1  0  0  0  0
  6 22  1  0  0  0  0
  7 12  2  0  0  0  0
  7 21  1  0  0  0  0
  8  9  2  0  0  0  0
  8 24  1  0  0  0  0
  9 25  1  0  0  0  0
 10 26  1  0  0  0  0
 11 26  2  0  0  0  0
 12 27  1  0  0  0  0
 13 14  2  0  0  0  0
 13 28  1  0  0  0  0
 14 29  1  0  0  0  0
 15 23  1  0  0  0  0
 15 27  2  0  0  0  0
 16 25  2  0  0  0  0
 16 30  1  0  0  0  0
 17 29  2  0  0  0  0
 17 31  1  0  0  0  0
 18 32  1  0  0  0  0
 19 32  1  0  0  0  0
 19 33  2  0  0  0  0
 19 34  1  0  0  0  0
 20 22  2  0  0  0  0
 20 39  1  0  0  0  0
 21 23  2  0  0  0  0
 21 40  1  0  0  0  0
 22 48  1  0  0  0  0
 23 41  1  0  0  0  0
 24 30  2  0  0  0  0
 24 58  1  0  0  0  0
 25 71  1  0  0  0  0
 26 80  1  0  0  0  0
 27 81  1  0  0  0  0
 28 31  2  0  0  0  0
 28 80  1  0  0  0  0
 29 82  1  0  0  0  0
 30 83  1  0  0  0  0
 31 84  1  0  0  0  0
 32 65  2  0  0  0  0
 33 66  1  0  0  0  0
 33 69  1  0  0  0  0
 34 70  1  0  0  0  0
 34 75  2  0  0  0  0
 35 49  1  0  0  0  0
 35 72  1  0  0  0  0
 35 76  2  0  0  0  0
 36 61  1  0  0  0  0
 36 67  1  0  0  0  0
 36 77  2  0  0  0  0
 37 62  1  0  0  0  0
 37 73  1  0  0  0  0
 37 78  2  0  0  0  0
 38 68  1  0  0  0  0
 38 71  1  0  0  0  0
 38 79  2  0  0  0  0
 39 42  1  0  0  0  0
 40 49  1  0  0  0  0
 41 67  1  0  0  0  0
 42 44  1  0  0  0  0
 43 45  1  0  0  0  0
 43 46  1  0  0  0  0
 44 48  1  0  0  0  0
 45 50  1  0  0  0  0
 46 68  1  0  0  0  0
 47 50  1  0  0  0  0
 47 68  1  0  0  0  0
 48 72  1  0  0  0  0
 49 67  1  0  0  0  0
 50 66  1  0  0  0  0
 51 62  1  0  0  0  0
 52 63  1  0  0  0  0
 53 63  1  0  0  0  0
 54 63  1  0  0  0  0
 55 64  1  0  0  0  0
 56 64  1  0  0  0  0
 57 74  1  0  0  0  0
 58 59  1  0  0  0  0
 59 64  1  0  0  0  0
 60 64  1  0  0  0  0
 60 81  1  0  0  0  0
 61 63  1  0  0  0  0
 61 73  1  0  0  0  0
 62 74  1  0  0  0  0
 65 66  1  0  0  0  0
M  CHG  1  74   1
M  ISO  4  38 100  60 101  71 100  81 101
M  END
> <Batch ID>
0137

> <Smiles>
CNC(C)C(=O)NC(C(=O)N1Cc2cc([101O:1][101CH2:1]C(C)(C)CCc3ccc([100NH:0][100C:0](=O)N4CCCC(n5nc(-c6ccc(Oc7ccc(F)cc7F)cc6)c(C(N)=O)c5N)C4)cc3F)ccc2CC1C(=O)NC1CCCc2ccccc21)C(C)(C)C

> <Shape>
0.233

> <Color>
0.088

> <Negative vol penalty>
0.000

$$$$

  -OEChem-04052302423D

 84 92  0     1  0  0  0  0  0999 V2000
  -33.4038  -25.5608   19.1782 C   0  0  0  0  0  0  0  0  0  0  0  0
  -32.6710  -24.5783   19.8362 C   0  0  0  0  0  0  0  0  0  0  0  0
  -32.6208  -17.5309   23.4598 C   0  0  0  0  0  0  0  0  0  0  0  0
  -23.0819   -9.8628   19.9409 C   0  0  0  0  0  0  0  0  0  0  0  0
  -23.8388   -9.8749   22.2353 C   0  0  0  0  0  0  0  0  0  0  0  0
  -31.8181  -18.3948   24.2046 C   0  0  0  0  0  0  0  0  0  0  0  0
  -33.0984  -26.9067   19.3762 C   0  0  0  0  0  0  0  0  0  0  0  0
  -31.6329  -24.9413   20.6936 C   0  0  0  0  0  0  0  0  0  0  0  0
  -26.3868  -21.9171   21.6095 C   0  0  0  0  0  0  0  0  0  0  0  0
  -32.0380  -16.6433   22.5552 C   0  0  0  0  0  0  0  0  0  0  0  0
  -22.3424   -8.7069   20.1909 C   0  0  0  0  0  0  0  0  0  0  0  0
  -23.0993   -8.7189   22.4853 C   0  0  0  0  0  0  0  0  0  0  0  0
  -25.9762  -21.0312   22.6047 C   0  0  0  0  0  0  0  0  0  0  0  0
  -19.8736   -7.9084   23.0844 C   0  0  0  0  0  0  0  0  0  0  0  0
  -19.1154   -7.8664   24.2543 C   0  0  0  0  0  0  0  0  0  0  0  0
  -29.8498  -17.4835   23.1405 C   0  0  0  0  0  0  0  0  0  0  0  0
  -24.9203  -22.8528   23.7820 C   0  0  0  0  0  0  0  0  0  0  0  0
  -20.3638   -5.9346   24.9940 C   0  0  0  0  0  0  0  0  0  0  0  0
  -23.8301  -10.4468   20.9631 C   0  0  0  0  0  0  0  0  0  0  0  0
  -30.4326  -18.3711   24.0450 C   0  0  0  0  0  0  0  0  0  0  0  0
  -24.1618  -12.9732   20.8413 C   0  0  0  0  0  0  0  0  0  0  0  0
  -32.0498  -27.2860   20.2290 C   0  0  0  0  0  0  0  0  0  0  0  0
  -26.0760  -23.2816   21.6987 C   0  0  0  0  0  0  0  0  0  0  0  0
  -31.3140  -26.2936   20.9043 C   0  0  0  0  0  0  0  0  0  0  0  0
  -25.3259  -23.7535   22.7853 C   0  0  0  0  0  0  0  0  0  0  0  0
  -30.6525  -16.6196   22.3955 C   0  0  0  0  0  0  0  0  0  0  0  0
  -22.3511   -8.1349   21.4631 C   0  0  0  0  0  0  0  0  0  0  0  0
  -25.2453  -21.4995   23.6926 C   0  0  0  0  0  0  0  0  0  0  0  0
  -20.8769   -6.9635   22.8691 C   0  0  0  0  0  0  0  0  0  0  0  0
  -19.3604   -6.8795   25.2092 C   0  0  0  0  0  0  0  0  0  0  0  0
  -21.1220   -5.9767   23.8240 C   0  0  0  0  0  0  0  0  0  0  0  0
  -24.5947  -11.6406   20.7053 C   0  0  0  0  0  0  0  0  0  0  0  0
  -25.2513  -13.7269   20.4788 C   0  0  0  0  0  0  0  0  0  0  0  0
  -29.5763  -19.2947   24.8414 C   0  0  0  0  0  0  0  0  0  0  0  0
  -22.8887  -13.4842   21.2582 C   0  0  0  0  0  0  0  0  0  0  0  0
  -27.7747  -25.9598   21.9117 C   0  0  0  0  0  0  0  0  0  0  0  0
  -24.8667  -27.3668   21.6186 C   0  0  0  0  0  0  0  0  0  0  0  0
  -21.4823  -27.1280   21.9872 C   0  0  0  0  0  0  0  0  0  0  0  0
  -30.7129  -14.7950   20.6596 C   0  0  0  0  0  0  0  0  0  0  0  0
  -31.7875  -28.7550   20.4481 C   0  0  0  0  0  0  0  0  0  0  0  0
  -26.5033  -24.2197   20.6034 C   0  0  0  0  0  0  0  0  0  0  0  0
  -24.9489  -25.2056   22.9178 C   0  0  0  0  0  0  0  0  0  0  0  0
  -30.4295  -29.0432   21.0828 C   0  0  0  0  0  0  0  0  0  0  0  0
  -29.6115  -12.3746   18.2920 C   0  0  0  0  0  0  0  0  0  0  0  0
  -30.1861  -28.1140   22.2678 C   0  0  0  0  0  0  0  0  0  0  0  0
  -28.1725  -12.0775   18.7200 C   0  0  0  0  0  0  0  0  0  0  0  0
  -30.5241  -12.6082   19.4946 C   0  0  0  0  0  0  0  0  0  0  0  0
  -28.6124  -13.3260   20.8728 C   0  0  0  0  0  0  0  0  0  0  0  0
  -30.1645  -26.6467   21.8230 C   0  0  1  0  0  0  0  0  0  0  0  0
  -26.5727  -25.6749   21.0563 C   0  0  1  0  0  0  0  0  0  0  0  0
  -27.6418  -13.1478   19.6939 C   0  0  2  0  0  0  0  0  0  0  0  0
  -19.3712  -28.4543   21.7012 C   0  0  0  0  0  0  0  0  0  0  0  0
  -25.5011  -28.9214   24.1663 C   0  0  0  0  0  0  0  0  0  0  0  0
  -23.0669  -29.4772   24.3502 C   0  0  0  0  0  0  0  0  0  0  0  0
  -24.3781  -30.2620   22.3786 C   0  0  0  0  0  0  0  0  0  0  0  0
  -25.1822  -18.3735   23.9992 C   0  0  0  0  0  0  0  0  0  0  0  0
  -25.4962  -19.0957   26.3756 C   0  0  0  0  0  0  0  0  0  0  0  0
  -20.4118  -25.2142   19.9997 C   0  0  0  0  0  0  0  0  0  0  0  0
  -28.1609  -18.8903   25.2255 C   0  0  0  0  0  0  0  0  0  0  0  0
  -27.1437  -19.8745   24.6391 C   0  0  0  0  0  0  0  0  0  0  0  0
  -23.7920  -27.8110   22.5814 C   0  0  1  0  0  0  0  0  0  0  0  0
  -20.3399  -27.4788   21.0510 C   0  0  2  0  0  0  0  0  0  0  0  0
  -24.1931  -29.0908   23.3679 C   0  0  0  0  0  0  0  0  0  0  0  0
  -25.6723  -19.5008   24.9087 C   0  0  0  0  0  0  0  0  0  1  0  0
  -25.8604  -11.5496   20.2887 N   0  0  0  0  0  0  0  0  0  0  0  0
  -30.0305  -20.4511   25.2103 N   0  0  0  0  0  0  0  0  0  0  0  0
  -26.2322  -12.8346   20.1598 N   0  0  0  0  0  0  0  0  0  0  0  0
  -25.3953  -26.0846   21.8244 N   0  0  0  0  0  0  0  0  0  0  0  0
  -29.9598  -13.6375   20.3704 N   0  0  0  0  0  0  0  0  0  0  0  0
  -25.4564  -15.0591   20.4049 N   0  0  0  0  0  0  0  0  0  0  0  0
  -21.8800  -12.5712   21.5949 N   0  0  0  0  0  0  0  0  0  0  0  0
  -30.0608  -15.7181   21.4764 N   0  0  0  0  0  0  0  0  0  0  0  0
  -28.8993  -26.3267   21.1975 N   0  0  0  0  0  0  0  0  0  0  0  0
  -22.5716  -27.9512   21.7944 N   0  0  0  0  0  0  0  0  0  0  0  0
  -19.5860  -26.2507   20.6710 N   0  3  0  0  0  0  0  0  0  0  0  0
  -22.6473  -14.7139   21.3141 O   0  0  0  0  0  0  0  0  0  0  0  0
  -27.6879  -25.8560   23.1296 O   0  0  0  0  0  0  0  0  0  0  0  0
  -25.2189  -28.1266   20.7130 O   0  0  0  0  0  0  0  0  0  0  0  0
  -21.4138  -26.2175   22.8098 O   0  0  0  0  0  0  0  0  0  0  0  0
  -31.8419  -14.9679   20.1933 O   0  0  0  0  0  0  0  0  0  0  0  0
  -21.6294   -7.0070   21.7075 O   0  0  0  0  0  0  0  0  0  0  0  0
  -24.8439  -20.6371   24.6657 O   0  0  0  0  0  0  0  0  0  1  0  0
  -18.6332   -6.8402   26.3333 F   0  0  0  0  0  0  0  0  0  0  0  0
  -22.0853   -5.0669   23.6234 F   0  0  0  0  0  0  0  0  0  0  0  0
  1  2  1  0  0  0  0
  1  7  2  0  0  0  0
  2  8  2  0  0  0  0
  3  6  2  0  0  0  0
  3 10  1  0  0  0  0
  4 11  2  0  0  0  0
  4 19  1  0  0  0  0
  5 12  1  0  0  0  0
  5 19  2  0  0  0  0
  6 20  1  0  0  0  0
  7 22  1  0  0  0  0
  8 24  1  0  0  0  0
  9 13  2  0  0  0  0
  9 23  1  0  0  0  0
 10 26  2  0  0  0  0
 11 27  1  0  0  0  0
 12 27  2  0  0  0  0
 13 28  1  0  0  0  0
 14 15  2  0  0  0  0
 14 29  1  0  0  0  0
 15 30  1  0  0  0  0
 16 20  2  0  0  0  0
 16 26  1  0  0  0  0
 17 25  1  0  0  0  0
 17 28  2  0  0  0  0
 18 30  2  0  0  0  0
 18 31  1  0  0  0  0
 19 32  1  0  0  0  0
 20 34  1  0  0  0  0
 21 32  1  0  0  0  0
 21 33  2  0  0  0  0
 21 35  1  0  0  0  0
 22 24  2  0  0  0  0
 22 40  1  0  0  0  0
 23 25  2  0  0  0  0
 23 41  1  0  0  0  0
 24 49  1  0  0  0  0
 25 42  1  0  0  0  0
 26 72  1  0  0  0  0
 27 81  1  0  0  0  0
 28 82  1  0  0  0  0
 29 31  2  0  0  0  0
 29 81  1  0  0  0  0
 30 83  1  0  0  0  0
 31 84  1  0  0  0  0
 32 65  2  0  0  0  0
 33 67  1  0  0  0  0
 33 70  1  0  0  0  0
 34 59  1  0  0  0  0
 34 66  2  0  0  0  0
 35 71  1  0  0  0  0
 35 76  2  0  0  0  0
 36 50  1  0  0  0  0
 36 73  1  0  0  0  0
 36 77  2  0  0  0  0
 37 61  1  0  0  0  0
 37 68  1  0  0  0  0
 37 78  2  0  0  0  0
 38 62  1  0  0  0  0
 38 74  1  0  0  0  0
 38 79  2  0  0  0  0
 39 69  1  0  0  0  0
 39 72  1  0  0  0  0
 39 80  2  0  0  0  0
 40 43  1  0  0  0  0
 41 50  1  0  0  0  0
 42 68  1  0  0  0  0
 43 45  1  0  0  0  0
 44 46  1  0  0  0  0
 44 47  1  0  0  0  0
 45 49  1  0  0  0  0
 46 51  1  0  0  0  0
 47 69  1  0  0  0  0
 48 51  1  0  0  0  0
 48 69  1  0  0  0  0
 49 73  1  0  0  0  0
 50 68  1  0  0  0  0
 51 67  1  0  0  0  0
 52 62  1  0  0  0  0
 53 63  1  0  0  0  0
 54 63  1  0  0  0  0
 55 63  1  0  0  0  0
 56 64  1  0  0  0  0
 57 64  1  0  0  0  0
 58 75  1  0  0  0  0
 59 60  1  0  0  0  0
 60 64  1  0  0  0  0
 61 63  1  0  0  0  0
 61 74  1  0  0  0  0
 62 75  1  0  0  0  0
 64 82  1  0  0  0  0
 65 67  1  0  0  0  0
M  CHG  1  75   1
M  ISO  4  39 100  64 101  72 100  82 101
M  END
> <Batch ID>
0137

> <Smiles>
CNC(C)C(=O)NC(C(=O)N1Cc2cc([101O:1][101C:1](C)(C)CCC(=N)c3cccc([100NH:0][100C:0](=O)N4CCCC(n5nc(-c6ccc(Oc7ccc(F)cc7F)cc6)c(C(N)=O)c5N)C4)c3)ccc2CC1C(=O)NC1CCCc2ccccc21)C(C)(C)C

> <Shape>
0.261

> <Color>
0.188

> <Negative vol penalty>
0.000

$$$$

  -OEChem-04052302423D

 86 94  0     1  0  0  0  0  0999 V2000
  -25.0519  -17.9274   23.5427 C   0  0  0  0  0  0  0  0  0  0  0  0
  -25.9932  -18.8651   23.1303 C   0  0  0  0  0  0  0  0  0  0  0  0
  -26.4587  -12.8941   21.5630 C   0  0  0  0  0  0  0  0  0  0  0  0
  -26.0664  -13.7598   19.3418 C   0  0  0  0  0  0  0  0  0  0  0  0
  -28.3523  -23.7829   18.0238 C   0  0  0  0  0  0  0  0  0  0  0  0
  -23.7253  -18.0453   23.1304 C   0  0  0  0  0  0  0  0  0  0  0  0
  -25.6086  -19.9207   22.3043 C   0  0  0  0  0  0  0  0  0  0  0  0
  -27.1146  -26.7944   20.9626 C   0  0  0  0  0  0  0  0  0  0  0  0
  -28.8517  -22.8051   18.8840 C   0  0  0  0  0  0  0  0  0  0  0  0
  -25.2065  -12.2801   21.5449 C   0  0  0  0  0  0  0  0  0  0  0  0
  -24.8140  -13.1458   19.3237 C   0  0  0  0  0  0  0  0  0  0  0  0
  -27.4371  -27.6391   19.9014 C   0  0  0  0  0  0  0  0  0  0  0  0
  -23.8151   -9.4982   20.2190 C   0  0  0  0  0  0  0  0  0  0  0  0
  -23.7328   -8.1802   20.6681 C   0  0  0  0  0  0  0  0  0  0  0  0
  -25.1014  -27.7863   19.3165 C   0  0  0  0  0  0  0  0  0  0  0  0
  -28.6356  -21.1544   17.1330 C   0  0  0  0  0  0  0  0  0  0  0  0
  -22.1802   -8.8633   22.3885 C   0  0  0  0  0  0  0  0  0  0  0  0
  -26.8887  -13.6340   20.4614 C   0  0  0  0  0  0  0  0  0  0  0  0
  -27.9944  -23.4465   16.7183 C   0  0  0  0  0  0  0  0  0  0  0  0
  -29.4048  -13.7199   20.0495 C   0  0  0  0  0  0  0  0  0  0  0  0
  -23.3222  -19.1083   22.3069 C   0  0  0  0  0  0  0  0  0  0  0  0
  -25.7819  -26.4300   21.2026 C   0  0  0  0  0  0  0  0  0  0  0  0
  -24.2755  -20.0522   21.8795 C   0  0  0  0  0  0  0  0  0  0  0  0
  -24.7643  -26.9389   20.3830 C   0  0  0  0  0  0  0  0  0  0  0  0
  -28.9934  -21.4908   18.4386 C   0  0  0  0  0  0  0  0  0  0  0  0
  -24.3841  -12.4059   20.4253 C   0  0  0  0  0  0  0  0  0  0  0  0
  -26.4308  -28.1328   19.0764 C   0  0  0  0  0  0  0  0  0  0  0  0
  -23.0800  -10.4988   20.8547 C   0  0  0  0  0  0  0  0  0  0  0  0
  -28.1360  -22.1323   16.2729 C   0  0  0  0  0  0  0  0  0  0  0  0
  -22.9153   -7.8627   21.7528 C   0  0  0  0  0  0  0  0  0  0  0  0
  -22.2625  -10.1813   21.9394 C   0  0  0  0  0  0  0  0  0  0  0  0
  -28.1820  -14.2690   20.4797 C   0  0  0  0  0  0  0  0  0  0  0  0
  -30.3254  -14.7142   20.2735 C   0  0  0  0  0  0  0  0  0  0  0  0
  -27.9392  -25.8952   16.0368 C   0  0  0  0  0  0  0  0  0  0  0  0
  -27.4729  -26.8887   15.2675 C   0  0  0  0  0  0  0  0  0  0  0  0
  -27.4655  -24.5015   15.8207 C   0  0  0  0  0  0  0  0  0  0  0  0
  -29.6835  -12.4267   19.4966 C   0  0  0  0  0  0  0  0  0  0  0  0
  -24.1755  -23.6872   21.2245 C   0  0  0  0  0  0  0  0  0  0  0  0
  -21.7587  -25.5613   22.3057 C   0  0  0  0  0  0  0  0  0  0  0  0
  -20.3745  -28.6742   22.5083 C   0  0  0  0  0  0  0  0  0  0  0  0
  -29.9014  -20.6634   20.6380 C   0  0  0  0  0  0  0  0  0  0  0  0
  -21.8866  -19.1674   21.8485 C   0  0  0  0  0  0  0  0  0  0  0  0
  -25.4477  -25.5394   22.3677 C   0  0  0  0  0  0  0  0  0  0  0  0
  -23.3159  -26.5942   20.6106 C   0  0  0  0  0  0  0  0  0  0  0  0
  -21.4845  -20.5255   21.2790 C   0  0  0  0  0  0  0  0  0  0  0  0
  -31.1684  -18.4620   23.1332 C   0  0  0  0  0  0  0  0  0  0  0  0
  -22.5424  -21.0293   20.3024 C   0  0  0  0  0  0  0  0  0  0  0  0
  -30.6628  -17.0862   22.6934 C   0  0  0  0  0  0  0  0  0  0  0  0
  -30.1439  -19.5596   22.8511 C   0  0  0  0  0  0  0  0  0  0  0  0
  -29.1485  -18.2351   21.0279 C   0  0  0  0  0  0  0  0  0  0  0  0
  -23.8919  -21.2252   21.0038 C   0  0  1  0  0  0  0  0  0  0  0  0
  -24.1109  -24.8220   22.2073 C   0  0  1  0  0  0  0  0  0  0  0  0
  -30.1723  -17.1066   21.2324 C   0  0  2  0  0  0  0  0  0  0  0  0
  -18.3770  -29.8860   23.4241 C   0  0  0  0  0  0  0  0  0  0  0  0
  -20.0442  -24.4387   20.0451 C   0  0  0  0  0  0  0  0  0  0  0  0
  -18.4445  -26.3291   20.4132 C   0  0  0  0  0  0  0  0  0  0  0  0
  -18.8589  -24.6756   22.2345 C   0  0  0  0  0  0  0  0  0  0  0  0
  -22.0603  -30.3868   24.2357 C   0  0  0  0  0  0  0  0  0  0  0  0
  -28.8085  -21.8783   14.0059 C   0  0  0  0  0  0  0  0  0  0  0  0
  -27.8936  -28.3222   15.4263 C   0  0  0  0  0  0  0  0  0  0  0  0
  -26.7129  -29.2655   15.6605 C   0  0  0  0  0  0  0  0  0  0  0  0
  -25.8919  -28.9116   16.8949 C   0  0  0  0  0  0  0  0  0  1  0  0
  -20.6537  -26.3604   21.6580 C   0  0  1  0  0  0  0  0  0  0  0  0
  -19.8110  -29.4514   23.6842 C   0  0  2  0  0  0  0  0  0  0  0  0
  -19.5277  -25.4561   21.0820 C   0  0  0  0  0  0  0  0  0  0  0  0
  -28.3108  -15.5154   20.9423 N   0  0  0  0  0  0  0  0  0  0  0  0
  -29.6254  -15.7577   20.8040 N   0  0  0  0  0  0  0  0  0  0  0  0
  -23.0405  -25.7149   21.7588 N   0  0  0  0  0  0  0  0  0  0  0  0
  -29.7286  -19.5205   21.4472 N   0  0  0  0  0  0  0  0  0  0  0  0
  -31.6573  -14.7890   20.0666 N   0  0  0  0  0  0  0  0  0  0  0  0
  -28.6216  -11.5265   19.3342 N   0  0  0  0  0  0  0  0  0  0  0  0
  -29.5003  -20.4975   19.3128 N   0  0  0  0  0  0  0  0  0  0  0  0
  -23.8888  -22.4515   21.7723 N   0  0  0  0  0  0  0  0  0  0  0  0
  -20.1980  -27.3154   22.6624 N   0  0  0  0  0  0  0  0  0  0  0  0
  -20.6316  -30.6684   23.9418 N   0  3  0  0  0  0  0  0  0  0  0  0
  -26.6465  -24.2100   14.9561 O   0  0  0  0  0  0  0  0  0  0  0  0
  -30.8426  -12.0737   19.1720 O   0  0  0  0  0  0  0  0  0  0  0  0
  -24.4627  -23.9161   20.0554 O   0  0  0  0  0  0  0  0  0  0  0  0
  -21.4955  -24.8333   23.2661 O   0  0  0  0  0  0  0  0  0  0  0  0
  -20.9139  -29.2183   21.5472 O   0  0  0  0  0  0  0  0  0  0  0  0
  -30.3958  -21.7033   21.0808 O   0  0  0  0  0  0  0  0  0  0  0  0
  -23.1621  -11.8067   20.4072 O   0  0  0  0  0  0  0  0  0  0  0  0
  -27.7915  -21.7840   15.0010 O   0  0  0  0  0  0  0  0  0  0  0  0
  -26.7430  -28.9569   18.0394 O   0  0  0  0  0  0  0  0  0  1  0  0
  -22.8352   -6.5967   22.1830 F   0  0  0  0  0  0  0  0  0  0  0  0
  -21.5530  -11.1381   22.5534 F   0  0  0  0  0  0  0  0  0  0  0  0
  1  2  1  0  0  0  0
  1  6  2  0  0  0  0
  2  7  2  0  0  0  0
  3 10  2  0  0  0  0
  3 18  1  0  0  0  0
  4 11  1  0  0  0  0
  4 18  2  0  0  0  0
  5  9  2  0  0  0  0
  5 19  1  0  0  0  0
  6 21  1  0  0  0  0
  7 23  1  0  0  0  0
  8 12  2  0  0  0  0
  8 22  1  0  0  0  0
  9 25  1  0  0  0  0
 10 26  1  0  0  0  0
 11 26  2  0  0  0  0
 12 27  1  0  0  0  0
 13 14  2  0  0  0  0
 13 28  1  0  0  0  0
 14 30  1  0  0  0  0
 15 24  1  0  0  0  0
 15 27  2  0  0  0  0
 16 25  2  0  0  0  0
 16 29  1  0  0  0  0
 17 30  2  0  0  0  0
 17 31  1  0  0  0  0
 18 32  1  0  0  0  0
 19 29  2  0  0  0  0
 19 36  1  0  0  0  0
 20 32  1  0  0  0  0
 20 33  2  0  0  0  0
 20 37  1  0  0  0  0
 21 23  2  0  0  0  0
 21 42  1  0  0  0  0
 22 24  2  0  0  0  0
 22 43  1  0  0  0  0
 23 51  1  0  0  0  0
 24 44  1  0  0  0  0
 25 72  1  0  0  0  0
 26 82  1  0  0  0  0
 27 84  1  0  0  0  0
 28 31  2  0  0  0  0
 28 82  1  0  0  0  0
 29 83  1  0  0  0  0
 30 85  1  0  0  0  0
 31 86  1  0  0  0  0
 32 66  2  0  0  0  0
 33 67  1  0  0  0  0
 33 70  1  0  0  0  0
 34 35  2  0  0  0  0
 34 36  1  0  0  0  0
 35 60  1  0  0  0  0
 36 76  2  0  0  0  0
 37 71  1  0  0  0  0
 37 77  2  0  0  0  0
 38 52  1  0  0  0  0
 38 73  1  0  0  0  0
 38 78  2  0  0  0  0
 39 63  1  0  0  0  0
 39 68  1  0  0  0  0
 39 79  2  0  0  0  0
 40 64  1  0  0  0  0
 40 74  1  0  0  0  0
 40 80  2  0  0  0  0
 41 69  1  0  0  0  0
 41 72  1  0  0  0  0
 41 81  2  0  0  0  0
 42 45  1  0  0  0  0
 43 52  1  0  0  0  0
 44 68  1  0  0  0  0
 45 47  1  0  0  0  0
 46 48  1  0  0  0  0
 46 49  1  0  0  0  0
 47 51  1  0  0  0  0
 48 53  1  0  0  0  0
 49 69  1  0  0  0  0
 50 53  1  0  0  0  0
 50 69  1  0  0  0  0
 51 73  1  0  0  0  0
 52 68  1  0  0  0  0
 53 67  1  0  0  0  0
 54 64  1  0  0  0  0
 55 65  1  0  0  0  0
 56 65  1  0  0  0  0
 57 65  1  0  0  0  0
 58 75  1  0  0  0  0
 59 83  1  0  0  0  0
 60 61  1  0  0  0  0
 61 62  1  0  0  0  0
 62 84  1  0  0  0  0
 63 65  1  0  0  0  0
 63 74  1  0  0  0  0
 64 75  1  0  0  0  0
 66 67  1  0  0  0  0
M  CHG  1  75   1
M  ISO  4  41 100  62 101  72 100  84 101
M  END
> <Batch ID>
0137

> <Smiles>
CNC(C)C(=O)NC(C(=O)N1Cc2cc([101O:1][101CH2:1]CCC=CC(=O)c3ccc([100NH:0][100C:0](=O)N4CCCC(n5nc(-c6ccc(Oc7ccc(F)cc7F)cc6)c(C(N)=O)c5N)C4)cc3OC)ccc2CC1C(=O)NC1CCCc2ccccc21)C(C)(C)C

> <Shape>
0.241

> <Color>
0.058

> <Negative vol penalty>
0.000

$$$$

  -OEChem-04052302423D

 86 94  0     1  0  0  0  0  0999 V2000
  -18.1738  -26.1947   20.9410 C   0  0  0  0  0  0  0  0  0  0  0  0
  -19.2787  -26.5576   20.1774 C   0  0  0  0  0  0  0  0  0  0  0  0
  -26.4094  -11.0964   21.1990 C   0  0  0  0  0  0  0  0  0  0  0  0
  -25.7146  -11.9629   19.0535 C   0  0  0  0  0  0  0  0  0  0  0  0
  -17.7780  -26.9911   22.0147 C   0  0  0  0  0  0  0  0  0  0  0  0
  -19.9878  -27.7178   20.4866 C   0  0  0  0  0  0  0  0  0  0  0  0
  -25.0017  -27.0134   20.3931 C   0  0  0  0  0  0  0  0  0  0  0  0
  -25.1482  -10.5279   21.3778 C   0  0  0  0  0  0  0  0  0  0  0  0
  -24.4535  -11.3944   19.2322 C   0  0  0  0  0  0  0  0  0  0  0  0
  -25.6167  -26.9795   19.1423 C   0  0  0  0  0  0  0  0  0  0  0  0
  -23.4757   -7.7904   20.3093 C   0  0  0  0  0  0  0  0  0  0  0  0
  -23.4167   -6.4789   20.7804 C   0  0  0  0  0  0  0  0  0  0  0  0
  -28.7113  -20.8990   18.0775 C   0  0  0  0  0  0  0  0  0  0  0  0
  -27.5579  -21.5582   16.0596 C   0  0  0  0  0  0  0  0  0  0  0  0
  -26.3160  -29.2701   19.4308 C   0  0  0  0  0  0  0  0  0  0  0  0
  -28.1745  -19.2469   16.3983 C   0  0  0  0  0  0  0  0  0  0  0  0
  -22.1681   -7.2276   22.7085 C   0  0  0  0  0  0  0  0  0  0  0  0
  -26.6926  -11.8139   20.0369 C   0  0  0  0  0  0  0  0  0  0  0  0
  -28.1213  -21.8891   17.2919 C   0  0  0  0  0  0  0  0  0  0  0  0
  -29.1183  -11.8065   19.2474 C   0  0  0  0  0  0  0  0  0  0  0  0
  -18.4883  -28.1565   22.3432 C   0  0  0  0  0  0  0  0  0  0  0  0
  -25.0300  -28.1813   21.1687 C   0  0  0  0  0  0  0  0  0  0  0  0
  -19.6002  -28.5313   21.5650 C   0  0  0  0  0  0  0  0  0  0  0  0
  -25.7029  -29.3155   20.6922 C   0  0  0  0  0  0  0  0  0  0  0  0
  -28.7380  -19.5778   17.6307 C   0  0  0  0  0  0  0  0  0  0  0  0
  -24.1703  -10.6769   20.3944 C   0  0  0  0  0  0  0  0  0  0  0  0
  -26.2715  -28.1089   18.6598 C   0  0  0  0  0  0  0  0  0  0  0  0
  -22.8809   -8.8206   21.0379 C   0  0  0  0  0  0  0  0  0  0  0  0
  -27.5845  -20.2370   15.6128 C   0  0  0  0  0  0  0  0  0  0  0  0
  -22.7629   -6.1974   21.9800 C   0  0  0  0  0  0  0  0  0  0  0  0
  -22.2271   -8.5392   22.2374 C   0  0  0  0  0  0  0  0  0  0  0  0
  -27.9949  -12.4019   19.8519 C   0  0  0  0  0  0  0  0  0  0  0  0
  -30.0964  -12.7683   19.3182 C   0  0  0  0  0  0  0  0  0  0  0  0
  -28.0915  -23.3030   17.7700 C   0  0  0  0  0  0  0  0  0  0  0  0
  -29.2647  -10.5009   18.6733 C   0  0  0  0  0  0  0  0  0  0  0  0
  -22.8279  -30.1651   22.3173 C   0  0  0  0  0  0  0  0  0  0  0  0
  -25.3761  -31.5080   23.8090 C   0  0  0  0  0  0  0  0  0  0  0  0
  -28.7481  -32.0294   23.8795 C   0  0  0  0  0  0  0  0  0  0  0  0
  -29.9400  -18.7309   19.6762 C   0  0  0  0  0  0  0  0  0  0  0  0
  -17.9942  -29.0106   23.4838 C   0  0  0  0  0  0  0  0  0  0  0  0
  -24.3847  -28.1932   22.5274 C   0  0  0  0  0  0  0  0  0  0  0  0
  -25.7793  -30.5877   21.4947 C   0  0  0  0  0  0  0  0  0  0  0  0
  -19.0238  -30.0246   23.9759 C   0  0  0  0  0  0  0  0  0  0  0  0
  -31.4938  -16.4997   21.9750 C   0  0  0  0  0  0  0  0  0  0  0  0
  -19.6641  -30.7504   22.7968 C   0  0  0  0  0  0  0  0  0  0  0  0
  -30.8796  -15.1404   21.6323 C   0  0  0  0  0  0  0  0  0  0  0  0
  -30.4772  -17.6318   21.8392 C   0  0  0  0  0  0  0  0  0  0  0  0
  -29.1709  -16.3336   20.2028 C   0  0  0  0  0  0  0  0  0  0  0  0
  -20.4099  -29.7693   21.8843 C   0  0  1  0  0  0  0  0  0  0  0  0
  -24.0343  -29.5974   23.0101 C   0  0  1  0  0  0  0  0  0  0  0  0
  -30.1740  -15.1701   20.2624 C   0  0  2  0  0  0  0  0  0  0  0  0
  -30.5334  -33.1990   25.1994 C   0  0  0  0  0  0  0  0  0  0  0  0
  -24.5207  -34.1749   22.5983 C   0  0  0  0  0  0  0  0  0  0  0  0
  -26.7947  -35.0711   23.1404 C   0  0  0  0  0  0  0  0  0  0  0  0
  -25.2875  -34.3064   24.9751 C   0  0  0  0  0  0  0  0  0  0  0  0
  -25.3167  -26.5333   16.4626 C   0  0  0  0  0  0  0  0  0  0  0  0
  -27.5105  -27.0632   15.3682 C   0  0  0  0  0  0  0  0  0  0  0  0
  -30.1218  -29.4821   24.4984 C   0  0  0  0  0  0  0  0  0  0  0  0
  -26.4473  -20.9748   13.6587 C   0  0  0  0  0  0  0  0  0  0  0  0
  -27.4397  -24.3589   16.8877 C   0  0  0  0  0  0  0  0  0  0  0  0
  -27.5106  -25.7579   17.5146 C   0  0  0  0  0  0  0  0  0  0  0  0
  -26.3681  -32.5922   23.4631 C   0  0  1  0  0  0  0  0  0  0  0  0
  -29.7637  -31.9025   25.0006 C   0  0  2  0  0  0  0  0  0  0  0  0
  -25.7398  -34.0130   23.5280 C   0  0  0  0  0  0  0  0  0  0  0  0
  -26.7924  -26.8569   16.7060 C   0  0  0  0  0  0  0  0  0  1  0  0
  -28.2358  -13.6455   20.2756 N   0  0  0  0  0  0  0  0  0  0  0  0
  -29.5218  -13.8394   19.9370 N   0  0  0  0  0  0  0  0  0  0  0  0
  -25.1276  -30.5516   22.8143 N   0  0  0  0  0  0  0  0  0  0  0  0
  -29.8524  -17.5997   20.5150 N   0  0  0  0  0  0  0  0  0  0  0  0
  -31.3832  -12.7937   18.9110 N   0  0  0  0  0  0  0  0  0  0  0  0
  -28.1597   -9.6388   18.6837 N   0  0  0  0  0  0  0  0  0  0  0  0
  -29.3368  -18.5719   18.4290 N   0  0  0  0  0  0  0  0  0  0  0  0
  -21.6835  -29.4052   22.4672 N   0  0  0  0  0  0  0  0  0  0  0  0
  -27.5080  -32.4017   24.3535 N   0  0  0  0  0  0  0  0  0  0  0  0
  -30.7399  -30.8187   24.6949 N   0  3  0  0  0  0  0  0  0  0  0  0
  -28.5950  -23.5793   18.8564 O   0  0  0  0  0  0  0  0  0  0  0  0
  -30.3481  -10.1045   18.1807 O   0  0  0  0  0  0  0  0  0  0  0  0
  -22.9276  -31.2155   21.6941 O   0  0  0  0  0  0  0  0  0  0  0  0
  -24.8469  -31.5056   24.9232 O   0  0  0  0  0  0  0  0  0  0  0  0
  -29.0279  -31.8229   22.7007 O   0  0  0  0  0  0  0  0  0  0  0  0
  -30.5318  -19.7548   20.0272 O   0  0  0  0  0  0  0  0  0  0  0  0
  -22.9397  -10.1221   20.5684 O   0  0  0  0  0  0  0  0  0  0  0  0
  -27.0344  -19.9138   14.4106 O   0  0  0  0  0  0  0  0  0  0  0  0
  -26.8721  -28.0787   17.4390 O   0  0  0  0  0  0  0  0  0  1  0  0
  -22.7050   -4.9377   22.4314 F   0  0  0  0  0  0  0  0  0  0  0  0
  -21.6528   -9.5245   22.9411 F   0  0  0  0  0  0  0  0  0  0  0  0
  1  2  1  0  0  0  0
  1  5  2  0  0  0  0
  2  6  2  0  0  0  0
  3  8  2  0  0  0  0
  3 18  1  0  0  0  0
  4  9  1  0  0  0  0
  4 18  2  0  0  0  0
  5 21  1  0  0  0  0
  6 23  1  0  0  0  0
  7 10  2  0  0  0  0
  7 22  1  0  0  0  0
  8 26  1  0  0  0  0
  9 26  2  0  0  0  0
 10 27  1  0  0  0  0
 11 12  2  0  0  0  0
 11 28  1  0  0  0  0
 12 30  1  0  0  0  0
 13 19  1  0  0  0  0
 13 25  2  0  0  0  0
 14 19  2  0  0  0  0
 14 29  1  0  0  0  0
 15 24  1  0  0  0  0
 15 27  2  0  0  0  0
 16 25  1  0  0  0  0
 16 29  2  0  0  0  0
 17 30  2  0  0  0  0
 17 31  1  0  0  0  0
 18 32  1  0  0  0  0
 19 34  1  0  0  0  0
 20 32  1  0  0  0  0
 20 33  2  0  0  0  0
 20 35  1  0  0  0  0
 21 23  2  0  0  0  0
 21 40  1  0  0  0  0
 22 24  2  0  0  0  0
 22 41  1  0  0  0  0
 23 49  1  0  0  0  0
 24 42  1  0  0  0  0
 25 72  1  0  0  0  0
 26 82  1  0  0  0  0
 27 84  1  0  0  0  0
 28 31  2  0  0  0  0
 28 82  1  0  0  0  0
 29 83  1  0  0  0  0
 30 85  1  0  0  0  0
 31 86  1  0  0  0  0
 32 66  2  0  0  0  0
 33 67  1  0  0  0  0
 33 70  1  0  0  0  0
 34 60  1  0  0  0  0
 34 76  2  0  0  0  0
 35 71  1  0  0  0  0
 35 77  2  0  0  0  0
 36 50  1  0  0  0  0
 36 73  1  0  0  0  0
 36 78  2  0  0  0  0
 37 62  1  0  0  0  0
 37 68  1  0  0  0  0
 37 79  2  0  0  0  0
 38 63  1  0  0  0  0
 38 74  1  0  0  0  0
 38 80  2  0  0  0  0
 39 69  1  0  0  0  0
 39 72  1  0  0  0  0
 39 81  2  0  0  0  0
 40 43  1  0  0  0  0
 41 50  1  0  0  0  0
 42 68  1  0  0  0  0
 43 45  1  0  0  0  0
 44 46  1  0  0  0  0
 44 47  1  0  0  0  0
 45 49  1  0  0  0  0
 46 51  1  0  0  0  0
 47 69  1  0  0  0  0
 48 51  1  0  0  0  0
 48 69  1  0  0  0  0
 49 73  1  0  0  0  0
 50 68  1  0  0  0  0
 51 67  1  0  0  0  0
 52 63  1  0  0  0  0
 53 64  1  0  0  0  0
 54 64  1  0  0  0  0
 55 64  1  0  0  0  0
 56 65  1  0  0  0  0
 57 65  1  0  0  0  0
 58 75  1  0  0  0  0
 59 83  1  0  0  0  0
 60 61  1  0  0  0  0
 61 65  1  0  0  0  0
 62 64  1  0  0  0  0
 62 74  1  0  0  0  0
 63 75  1  0  0  0  0
 65 84  1  0  0  0  0
 66 67  1  0  0  0  0
M  CHG  1  75   1
M  ISO  4  39 100  65 101  72 100  84 101
M  END
> <Batch ID>
0137

> <Smiles>
CNC(C)C(=O)NC(C(=O)N1Cc2cc([101O:1][101C:1](C)(C)CCC(=O)c3cc([100NH:0][100C:0](=O)N4CCCC(n5nc(-c6ccc(Oc7ccc(F)cc7F)cc6)c(C(N)=O)c5N)C4)cc(OC)c3)ccc2CC1C(=O)NC1CCCc2ccccc21)C(C)(C)C

> <Shape>
0.337

> <Color>
0.079

> <Negative vol penalty>
0.000

$$$$

  -OEChem-04052302423D

 84 92  0     1  0  0  0  0  0999 V2000
  -34.1008  -30.4252   19.6888 C   0  0  0  0  0  0  0  0  0  0  0  0
  -33.0965  -30.1682   18.7610 C   0  0  0  0  0  0  0  0  0  0  0  0
  -27.9620  -21.9076   13.1577 C   0  0  0  0  0  0  0  0  0  0  0  0
  -26.1563  -14.5346   20.8073 C   0  0  0  0  0  0  0  0  0  0  0  0
  -26.4659  -14.5623   18.4113 C   0  0  0  0  0  0  0  0  0  0  0  0
  -34.1103  -29.7506   20.9090 C   0  0  0  0  0  0  0  0  0  0  0  0
  -32.1017  -29.2356   19.0524 C   0  0  0  0  0  0  0  0  0  0  0  0
  -26.2222  -29.4727   17.3551 C   0  0  0  0  0  0  0  0  0  0  0  0
  -27.4269  -23.1881   13.0177 C   0  0  0  0  0  0  0  0  0  0  0  0
  -28.2757  -21.4176   14.4255 C   0  0  0  0  0  0  0  0  0  0  0  0
  -25.1351  -13.5953   20.6645 C   0  0  0  0  0  0  0  0  0  0  0  0
  -25.4447  -13.6229   18.2686 C   0  0  0  0  0  0  0  0  0  0  0  0
  -25.5216  -28.8671   16.3128 C   0  0  0  0  0  0  0  0  0  0  0  0
  -24.8688  -10.2656   20.1399 C   0  0  0  0  0  0  0  0  0  0  0  0
  -24.8678   -9.1725   21.0063 C   0  0  0  0  0  0  0  0  0  0  0  0
  -24.8300  -27.1058   17.8090 C   0  0  0  0  0  0  0  0  0  0  0  0
  -27.5193  -23.4887   15.4131 C   0  0  0  0  0  0  0  0  0  0  0  0
  -22.6907   -9.8245   21.8263 C   0  0  0  0  0  0  0  0  0  0  0  0
  -26.8217  -15.0182   19.6807 C   0  0  0  0  0  0  0  0  0  0  0  0
  -29.2495  -15.7325   20.0017 C   0  0  0  0  0  0  0  0  0  0  0  0
  -33.1096  -28.8163   21.2194 C   0  0  0  0  0  0  0  0  0  0  0  0
  -26.2409  -28.8926   18.6316 C   0  0  0  0  0  0  0  0  0  0  0  0
  -32.0985  -28.5469   20.2773 C   0  0  0  0  0  0  0  0  0  0  0  0
  -25.5294  -27.7074   18.8664 C   0  0  0  0  0  0  0  0  0  0  0  0
  -27.2056  -23.9786   14.1453 C   0  0  0  0  0  0  0  0  0  0  0  0
  -28.0544  -22.2081   15.5532 C   0  0  0  0  0  0  0  0  0  0  0  0
  -24.7793  -13.1394   19.3952 C   0  0  0  0  0  0  0  0  0  0  0  0
  -24.8278  -27.6820   16.5390 C   0  0  0  0  0  0  0  0  0  0  0  0
  -23.7808  -11.1383   20.1168 C   0  0  0  0  0  0  0  0  0  0  0  0
  -23.7788   -8.9519   21.8495 C   0  0  0  0  0  0  0  0  0  0  0  0
  -22.6918  -10.9177   20.9600 C   0  0  0  0  0  0  0  0  0  0  0  0
  -27.8763  -15.9889   19.8274 C   0  0  0  0  0  0  0  0  0  0  0  0
  -29.8229  -16.9776   20.0893 C   0  0  0  0  0  0  0  0  0  0  0  0
  -29.9447  -14.4809   20.0775 C   0  0  0  0  0  0  0  0  0  0  0  0
  -28.5055  -27.7232   20.5311 C   0  0  0  0  0  0  0  0  0  0  0  0
  -26.0592  -27.4789   22.6474 C   0  0  0  0  0  0  0  0  0  0  0  0
  -22.6973  -27.2161   23.1717 C   0  0  0  0  0  0  0  0  0  0  0  0
  -28.2152  -22.3638   18.0624 C   0  0  0  0  0  0  0  0  0  0  0  0
  -33.1883  -28.0774   22.5318 C   0  0  0  0  0  0  0  0  0  0  0  0
  -26.9793  -29.5724   19.7519 C   0  0  0  0  0  0  0  0  0  0  0  0
  -25.5012  -27.0550   20.2237 C   0  0  0  0  0  0  0  0  0  0  0  0
  -31.8867  -27.3787   22.9165 C   0  0  0  0  0  0  0  0  0  0  0  0
  -28.8440  -21.4638   21.4494 C   0  0  0  0  0  0  0  0  0  0  0  0
  -31.3200  -26.6124   21.7256 C   0  0  0  0  0  0  0  0  0  0  0  0
  -28.7982  -19.9342   21.4325 C   0  0  0  0  0  0  0  0  0  0  0  0
  -27.8157  -22.0725   20.4977 C   0  0  0  0  0  0  0  0  0  0  0  0
  -27.8284  -20.0429   19.1013 C   0  0  0  0  0  0  0  0  0  0  0  0
  -30.9880  -27.5604   20.5669 C   0  0  1  0  0  0  0  0  0  0  0  0
  -27.3539  -28.6214   20.8844 C   0  0  1  0  0  0  0  0  0  0  0  0
  -28.8906  -19.3834   19.9959 C   0  0  2  0  0  0  0  0  0  0  0  0
  -27.6233  -26.2515   13.2234 C   0  0  0  0  0  0  0  0  0  0  0  0
  -21.0012  -26.9960   25.0081 C   0  0  0  0  0  0  0  0  0  0  0  0
  -26.8116  -24.5415   22.9869 C   0  0  0  0  0  0  0  0  0  0  0  0
  -24.5754  -24.1634   24.0475 C   0  0  0  0  0  0  0  0  0  0  0  0
  -26.2117  -25.7170   25.1112 C   0  0  0  0  0  0  0  0  0  0  0  0
  -22.7515  -25.6678   13.3967 C   0  0  0  0  0  0  0  0  0  0  0  0
  -23.7511  -23.5556   14.2455 C   0  0  0  0  0  0  0  0  0  0  0  0
  -21.3859  -29.7616   22.4236 C   0  0  0  0  0  0  0  0  0  0  0  0
  -25.2378  -25.4304   13.2997 C   0  0  0  0  0  0  0  0  0  0  0  0
  -24.0219  -25.6673   15.5655 C   0  0  0  0  0  0  0  0  0  1  0  0
  -26.6235  -25.3715   13.9924 C   0  0  1  0  0  0  0  0  0  0  0  0
  -25.0389  -26.4185   22.9842 C   0  0  1  0  0  0  0  0  0  0  0  0
  -21.7631  -27.9584   24.1102 C   0  0  2  0  0  0  0  0  0  0  0  0
  -25.6613  -25.2211   23.7563 C   0  0  0  0  0  0  0  0  0  0  0  0
  -23.9718  -25.0742   14.1413 C   0  0  0  0  0  0  0  0  0  0  0  0
  -27.5942  -17.2943   19.8055 N   0  0  0  0  0  0  0  0  0  0  0  0
  -28.7981  -17.8693   19.9673 N   0  0  0  0  0  0  0  0  0  0  0  0
  -26.2437  -27.7547   21.2851 N   0  0  0  0  0  0  0  0  0  0  0  0
  -27.9661  -21.5068   19.1552 N   0  0  0  0  0  0  0  0  0  0  0  0
  -31.0986  -17.3856   20.2581 N   0  0  0  0  0  0  0  0  0  0  0  0
  -29.2027  -13.2968   19.9688 N   0  0  0  0  0  0  0  0  0  0  0  0
  -28.3725  -21.7098   16.8409 N   0  0  0  0  0  0  0  0  0  0  0  0
  -29.7458  -28.2572   20.8240 N   0  0  0  0  0  0  0  0  0  0  0  0
  -23.9651  -27.0982   23.7008 N   0  0  0  0  0  0  0  0  0  0  0  0
  -20.7748  -28.7576   23.3322 N   0  3  0  0  0  0  0  0  0  0  0  0
  -31.1849  -14.4142   20.2535 O   0  0  0  0  0  0  0  0  0  0  0  0
  -28.2849  -26.6263   20.0312 O   0  0  0  0  0  0  0  0  0  0  0  0
  -26.6649  -28.0468   23.5596 O   0  0  0  0  0  0  0  0  0  0  0  0
  -22.3372  -26.7809   22.0802 O   0  0  0  0  0  0  0  0  0  0  0  0
  -28.3110  -23.5856   18.2045 O   0  0  0  0  0  0  0  0  0  0  0  0
  -23.7830  -12.2227   19.2555 O   0  0  0  0  0  0  0  0  0  0  0  0
  -24.1437  -27.0885   15.5232 O   0  0  0  0  0  0  0  0  0  1  0  0
  -23.7773   -7.9012   22.6803 F   0  0  0  0  0  0  0  0  0  0  0  0
  -21.6432  -11.7518   20.9414 F   0  0  0  0  0  0  0  0  0  0  0  0
  1  2  1  0  0  0  0
  1  6  2  0  0  0  0
  2  7  2  0  0  0  0
  3  9  2  0  0  0  0
  3 10  1  0  0  0  0
  4 11  2  0  0  0  0
  4 19  1  0  0  0  0
  5 12  1  0  0  0  0
  5 19  2  0  0  0  0
  6 21  1  0  0  0  0
  7 23  1  0  0  0  0
  8 13  2  0  0  0  0
  8 22  1  0  0  0  0
  9 25  1  0  0  0  0
 10 26  2  0  0  0  0
 11 27  1  0  0  0  0
 12 27  2  0  0  0  0
 13 28  1  0  0  0  0
 14 15  2  0  0  0  0
 14 29  1  0  0  0  0
 15 30  1  0  0  0  0
 16 24  1  0  0  0  0
 16 28  2  0  0  0  0
 17 25  2  0  0  0  0
 17 26  1  0  0  0  0
 18 30  2  0  0  0  0
 18 31  1  0  0  0  0
 19 32  1  0  0  0  0
 20 32  1  0  0  0  0
 20 33  2  0  0  0  0
 20 34  1  0  0  0  0
 21 23  2  0  0  0  0
 21 39  1  0  0  0  0
 22 24  2  0  0  0  0
 22 40  1  0  0  0  0
 23 48  1  0  0  0  0
 24 41  1  0  0  0  0
 25 61  1  0  0  0  0
 26 72  1  0  0  0  0
 27 81  1  0  0  0  0
 28 82  1  0  0  0  0
 29 31  2  0  0  0  0
 29 81  1  0  0  0  0
 30 83  1  0  0  0  0
 31 84  1  0  0  0  0
 32 66  2  0  0  0  0
 33 67  1  0  0  0  0
 33 70  1  0  0  0  0
 34 71  1  0  0  0  0
 34 76  2  0  0  0  0
 35 49  1  0  0  0  0
 35 73  1  0  0  0  0
 35 77  2  0  0  0  0
 36 62  1  0  0  0  0
 36 68  1  0  0  0  0
 36 78  2  0  0  0  0
 37 63  1  0  0  0  0
 37 74  1  0  0  0  0
 37 79  2  0  0  0  0
 38 69  1  0  0  0  0
 38 72  1  0  0  0  0
 38 80  2  0  0  0  0
 39 42  1  0  0  0  0
 40 49  1  0  0  0  0
 41 68  1  0  0  0  0
 42 44  1  0  0  0  0
 43 45  1  0  0  0  0
 43 46  1  0  0  0  0
 44 48  1  0  0  0  0
 45 50  1  0  0  0  0
 46 69  1  0  0  0  0
 47 50  1  0  0  0  0
 47 69  1  0  0  0  0
 48 73  1  0  0  0  0
 49 68  1  0  0  0  0
 50 67  1  0  0  0  0
 51 61  1  0  0  0  0
 52 63  1  0  0  0  0
 53 64  1  0  0  0  0
 54 64  1  0  0  0  0
 55 64  1  0  0  0  0
 56 65  1  0  0  0  0
 57 65  1  0  0  0  0
 58 75  1  0  0  0  0
 59 61  1  0  0  0  0
 59 65  1  0  0  0  0
 60 65  1  0  0  0  0
 60 82  1  0  0  0  0
 62 64  1  0  0  0  0
 62 74  1  0  0  0  0
 63 75  1  0  0  0  0
 66 67  1  0  0  0  0
M  CHG  1  75   1
M  ISO  4  38 100  60 101  72 100  82 101
M  END
> <Batch ID>
0137

> <Smiles>
CNC(C)C(=O)NC(C(=O)N1Cc2cc([101O:1][101CH2:1]C(C)(C)CC(C)c3cccc([100NH:0][100C:0](=O)N4CCCC(n5nc(-c6ccc(Oc7ccc(F)cc7F)cc6)c(C(N)=O)c5N)C4)c3)ccc2CC1C(=O)NC1CCCc2ccccc21)C(C)(C)C

> <Shape>
0.206

> <Color>
0.073

> <Negative vol penalty>
0.000

$$$$

  -OEChem-04052302423D

 85 93  0     1  0  0  0  0  0999 V2000
  -22.9019  -25.6952   16.7606 C   0  0  0  0  0  0  0  0  0  0  0  0
  -22.4989  -24.3647   16.7730 C   0  0  0  0  0  0  0  0  0  0  0  0
  -28.5598  -22.5414   20.9272 C   0  0  0  0  0  0  0  0  0  0  0  0
  -29.9399  -21.6660   19.1478 C   0  0  0  0  0  0  0  0  0  0  0  0
  -23.2745  -26.3177   17.9501 C   0  0  0  0  0  0  0  0  0  0  0  0
  -22.4568  -23.6597   17.9764 C   0  0  0  0  0  0  0  0  0  0  0  0
  -21.1867  -17.8064   19.0960 C   0  0  0  0  0  0  0  0  0  0  0  0
  -29.0422  -23.8246   20.6702 C   0  0  0  0  0  0  0  0  0  0  0  0
  -30.4223  -22.9493   18.8907 C   0  0  0  0  0  0  0  0  0  0  0  0
  -21.8861  -16.6064   19.2162 C   0  0  0  0  0  0  0  0  0  0  0  0
  -28.4908  -26.2891   18.4218 C   0  0  0  0  0  0  0  0  0  0  0  0
  -27.5658  -27.3321   18.3751 C   0  0  0  0  0  0  0  0  0  0  0  0
  -28.6980  -13.0884   20.8512 C   0  0  0  0  0  0  0  0  0  0  0  0
  -29.8860  -13.1887   18.7499 C   0  0  0  0  0  0  0  0  0  0  0  0
  -21.9164  -16.8712   21.6138 C   0  0  0  0  0  0  0  0  0  0  0  0
  -27.6158  -12.3647   18.8160 C   0  0  0  0  0  0  0  0  0  0  0  0
  -28.7119  -28.4301   20.1966 C   0  0  0  0  0  0  0  0  0  0  0  0
  -29.0087  -21.4620   20.1661 C   0  0  0  0  0  0  0  0  0  0  0  0
  -29.8507  -13.3964   20.1288 C   0  0  0  0  0  0  0  0  0  0  0  0
  -27.3820  -19.5212   19.8580 C   0  0  0  0  0  0  0  0  0  0  0  0
  -23.2486  -25.6156   19.1664 C   0  0  0  0  0  0  0  0  0  0  0  0
  -20.8558  -18.5546   20.2350 C   0  0  0  0  0  0  0  0  0  0  0  0
  -22.8061  -24.2774   19.1909 C   0  0  0  0  0  0  0  0  0  0  0  0
  -21.2105  -18.0791   21.5055 C   0  0  0  0  0  0  0  0  0  0  0  0
  -27.5805  -12.5725   20.1949 C   0  0  0  0  0  0  0  0  0  0  0  0
  -29.9735  -24.0286   19.6519 C   0  0  0  0  0  0  0  0  0  0  0  0
  -22.2536  -16.1400   20.4750 C   0  0  0  0  0  0  0  0  0  0  0  0
  -29.5263  -26.3166   19.3560 C   0  0  0  0  0  0  0  0  0  0  0  0
  -27.6764  -28.4026   19.2624 C   0  0  0  0  0  0  0  0  0  0  0  0
  -28.7685  -12.6728   18.0935 C   0  0  0  0  0  0  0  0  0  0  0  0
  -29.6368  -27.3871   20.2434 C   0  0  0  0  0  0  0  0  0  0  0  0
  -28.5111  -20.1361   20.4315 C   0  0  0  0  0  0  0  0  0  0  0  0
  -27.3387  -18.2759   20.4358 C   0  0  0  0  0  0  0  0  0  0  0  0
  -31.0162  -13.9339   20.8128 C   0  0  0  0  0  0  0  0  0  0  0  0
  -26.4554  -20.0301   18.8895 C   0  0  0  0  0  0  0  0  0  0  0  0
  -31.0127  -14.1663   22.2754 C   0  0  0  0  0  0  0  0  0  0  0  0
  -21.5771  -21.4629   21.2959 C   0  0  0  0  0  0  0  0  0  0  0  0
  -19.4262  -20.7278   23.6101 C   0  0  0  0  0  0  0  0  0  0  0  0
  -17.7939  -18.3146   25.3874 C   0  0  0  0  0  0  0  0  0  0  0  0
  -23.6548  -26.3405   20.4253 C   0  0  0  0  0  0  0  0  0  0  0  0
  -20.0777  -19.8337   20.0903 C   0  0  0  0  0  0  0  0  0  0  0  0
  -20.8615  -18.8345   22.7609 C   0  0  0  0  0  0  0  0  0  0  0  0
  -24.0018  -25.3946   21.5704 C   0  0  0  0  0  0  0  0  0  0  0  0
  -29.1875  -16.2601   24.5428 C   0  0  0  0  0  0  0  0  0  0  0  0
  -22.9026  -24.3562   21.7379 C   0  0  0  0  0  0  0  0  0  0  0  0
  -28.7524  -17.4343   23.6667 C   0  0  0  0  0  0  0  0  0  0  0  0
  -30.5543  -15.7279   24.1247 C   0  0  0  0  0  0  0  0  0  0  0  0
  -30.2001  -16.5148   21.8001 C   0  0  0  0  0  0  0  0  0  0  0  0
  -22.7817  -23.4817   20.4835 C   0  0  1  0  0  0  0  0  0  0  0  0
  -20.2430  -20.7717   21.2819 C   0  0  1  0  0  0  0  0  0  0  0  0
  -28.8115  -17.0615   22.1746 C   0  0  2  0  0  0  0  0  0  0  0  0
  -16.1246  -18.0208   27.2379 C   0  0  0  0  0  0  0  0  0  0  0  0
  -21.5746  -21.4368   25.6574 C   0  0  0  0  0  0  0  0  0  0  0  0
  -20.2177  -20.2445   27.3910 C   0  0  0  0  0  0  0  0  0  0  0  0
  -19.2786  -22.2442   26.2325 C   0  0  0  0  0  0  0  0  0  0  0  0
  -24.4403  -12.8226   23.3333 C   0  0  0  0  0  0  0  0  0  0  0  0
  -23.1990  -12.1421   21.2636 C   0  0  0  0  0  0  0  0  0  0  0  0
  -15.8975  -16.9003   23.6090 C   0  0  0  0  0  0  0  0  0  0  0  0
  -26.3324  -12.2394   20.9763 C   0  0  0  0  0  0  0  0  0  0  0  0
  -25.3831  -13.4433   21.0532 C   0  0  0  0  0  0  0  0  0  0  0  0
  -23.2816  -14.5510   21.9152 C   0  0  0  0  0  0  0  0  0  1  0  0
  -19.4982  -20.0673   24.9657 C   0  0  1  0  0  0  0  0  0  0  0  0
  -16.3267  -18.1387   25.7353 C   0  0  2  0  0  0  0  0  0  0  0  0
  -20.1507  -20.9847   26.0381 C   0  0  0  0  0  0  0  0  0  0  0  0
  -24.0893  -13.2299   21.8901 C   0  0  0  0  0  0  0  0  0  0  0  0
  -29.1395  -19.3466   21.3066 N   0  0  0  0  0  0  0  0  0  0  0  0
  -32.1275  -14.2422   20.2007 N   0  0  0  0  0  0  0  0  0  0  0  0
  -28.4027  -18.2228   21.2873 N   0  0  0  0  0  0  0  0  0  0  0  0
  -30.5868  -15.4182   22.6968 N   0  0  0  0  0  0  0  0  0  0  0  0
  -20.1055  -20.0829   22.5668 N   0  0  0  0  0  0  0  0  0  0  0  0
  -26.4945  -17.2321   20.2935 N   0  0  0  0  0  0  0  0  0  0  0  0
  -26.6468  -21.3294   18.3999 N   0  0  0  0  0  0  0  0  0  0  0  0
  -21.6007  -22.6545   20.5967 N   0  0  0  0  0  0  0  0  0  0  0  0
  -18.1389  -19.6458   25.2870 N   0  0  0  0  0  0  0  0  0  0  0  0
  -15.7853  -16.9091   25.0903 N   0  3  0  0  0  0  0  0  0  0  0  0
  -25.4768  -19.3589   18.4829 O   0  0  0  0  0  0  0  0  0  0  0  0
  -31.3886  -13.2238   22.9601 O   0  0  0  0  0  0  0  0  0  0  0  0
  -22.5152  -20.9535   21.8978 O   0  0  0  0  0  0  0  0  0  0  0  0
  -18.7848  -21.7734   23.4802 O   0  0  0  0  0  0  0  0  0  0  0  0
  -18.5583  -17.3660   25.2249 O   0  0  0  0  0  0  0  0  0  0  0  0
  -30.4443  -25.2807   19.4007 O   0  0  0  0  0  0  0  0  0  0  0  0
  -22.9369  -14.9693   20.5951 O   0  0  0  0  0  0  0  0  0  1  0  0
  -26.7889  -29.4049   19.2164 F   0  0  0  0  0  0  0  0  0  0  0  0
  -28.8022  -12.4735   16.7693 F   0  0  0  0  0  0  0  0  0  0  0  0
  -30.6302  -27.4196   21.1423 F   0  0  0  0  0  0  0  0  0  0  0  0
  1  2  1  0  0  0  0
  1  5  2  0  0  0  0
  2  6  2  0  0  0  0
  3  8  2  0  0  0  0
  3 18  1  0  0  0  0
  4  9  1  0  0  0  0
  4 18  2  0  0  0  0
  5 21  1  0  0  0  0
  6 23  1  0  0  0  0
  7 10  2  0  0  0  0
  7 22  1  0  0  0  0
  8 26  1  0  0  0  0
  9 26  2  0  0  0  0
 10 27  1  0  0  0  0
 11 12  2  0  0  0  0
 11 28  1  0  0  0  0
 12 29  1  0  0  0  0
 13 19  1  0  0  0  0
 13 25  2  0  0  0  0
 14 19  2  0  0  0  0
 14 30  1  0  0  0  0
 15 24  1  0  0  0  0
 15 27  2  0  0  0  0
 16 25  1  0  0  0  0
 16 30  2  0  0  0  0
 17 29  2  0  0  0  0
 17 31  1  0  0  0  0
 18 32  1  0  0  0  0
 19 34  1  0  0  0  0
 20 32  1  0  0  0  0
 20 33  2  0  0  0  0
 20 35  1  0  0  0  0
 21 23  2  0  0  0  0
 21 40  1  0  0  0  0
 22 24  2  0  0  0  0
 22 41  1  0  0  0  0
 23 49  1  0  0  0  0
 24 42  1  0  0  0  0
 25 59  1  0  0  0  0
 26 81  1  0  0  0  0
 27 82  1  0  0  0  0
 28 31  2  0  0  0  0
 28 81  1  0  0  0  0
 29 83  1  0  0  0  0
 30 84  1  0  0  0  0
 31 85  1  0  0  0  0
 32 66  2  0  0  0  0
 33 68  1  0  0  0  0
 33 71  1  0  0  0  0
 34 36  1  0  0  0  0
 34 67  2  0  0  0  0
 35 72  1  0  0  0  0
 35 76  2  0  0  0  0
 36 69  1  0  0  0  0
 36 77  2  0  0  0  0
 37 50  1  0  0  0  0
 37 73  1  0  0  0  0
 37 78  2  0  0  0  0
 38 62  1  0  0  0  0
 38 70  1  0  0  0  0
 38 79  2  0  0  0  0
 39 63  1  0  0  0  0
 39 74  1  0  0  0  0
 39 80  2  0  0  0  0
 40 43  1  0  0  0  0
 41 50  1  0  0  0  0
 42 70  1  0  0  0  0
 43 45  1  0  0  0  0
 44 46  1  0  0  0  0
 44 47  1  0  0  0  0
 45 49  1  0  0  0  0
 46 51  1  0  0  0  0
 47 69  1  0  0  0  0
 48 51  1  0  0  0  0
 48 69  1  0  0  0  0
 49 73  1  0  0  0  0
 50 70  1  0  0  0  0
 51 68  1  0  0  0  0
 52 63  1  0  0  0  0
 53 64  1  0  0  0  0
 54 64  1  0  0  0  0
 55 64  1  0  0  0  0
 56 65  1  0  0  0  0
 57 65  1  0  0  0  0
 58 75  1  0  0  0  0
 59 60  1  0  0  0  0
 60 65  1  0  0  0  0
 61 65  1  0  0  0  0
 61 82  1  0  0  0  0
 62 64  1  0  0  0  0
 62 74  1  0  0  0  0
 63 75  1  0  0  0  0
 66 68  1  0  0  0  0
M  CHG  1  75   1
M  ISO  4  34 100  36 100  61 101  82 101
M  END
> <Batch ID>
0137

> <Smiles>
CNC(C)C(=O)NC(C(=O)N1Cc2cc([101O:1][101CH2:1]C(C)(C)CCc3cc(F)cc([100C:0](=N)[100C:0](=O)N4CCCC(n5nc(-c6ccc(Oc7ccc(F)cc7F)cc6)c(C(N)=O)c5N)C4)c3)ccc2CC1C(=O)NC1CCCc2ccccc21)C(C)(C)C

> <Shape>
0.193

> <Color>
0.060

> <Negative vol penalty>
0.000

$$$$

  -OEChem-04052302423D

 85 93  0     1  0  0  0  0  0999 V2000
  -31.9660  -25.1625   15.2914 C   0  0  0  0  0  0  0  0  0  0  0  0
  -30.5898  -25.3652   15.2736 C   0  0  0  0  0  0  0  0  0  0  0  0
  -20.4367  -22.4626   23.7093 C   0  0  0  0  0  0  0  0  0  0  0  0
  -25.5969  -14.2242   18.6373 C   0  0  0  0  0  0  0  0  0  0  0  0
  -23.8620  -14.4015   20.3093 C   0  0  0  0  0  0  0  0  0  0  0  0
  -32.6353  -25.0369   16.5081 C   0  0  0  0  0  0  0  0  0  0  0  0
  -29.8818  -25.4413   16.4725 C   0  0  0  0  0  0  0  0  0  0  0  0
  -24.9907  -28.9356   17.6441 C   0  0  0  0  0  0  0  0  0  0  0  0
  -20.3276  -23.8373   23.4999 C   0  0  0  0  0  0  0  0  0  0  0  0
  -21.5524  -21.7715   23.2367 C   0  0  0  0  0  0  0  0  0  0  0  0
  -25.9433  -12.9661   19.1301 C   0  0  0  0  0  0  0  0  0  0  0  0
  -24.2084  -13.1434   20.8022 C   0  0  0  0  0  0  0  0  0  0  0  0
  -23.6235  -28.6628   17.6531 C   0  0  0  0  0  0  0  0  0  0  0  0
  -23.6891   -9.9115   19.9621 C   0  0  0  0  0  0  0  0  0  0  0  0
  -22.6540   -9.0202   20.2444 C   0  0  0  0  0  0  0  0  0  0  0  0
  -23.7157  -28.3098   20.0377 C   0  0  0  0  0  0  0  0  0  0  0  0
  -22.4498  -23.8298   22.3451 C   0  0  0  0  0  0  0  0  0  0  0  0
  -23.3605   -8.9310   22.5531 C   0  0  0  0  0  0  0  0  0  0  0  0
  -24.5562  -14.9419   19.2269 C   0  0  0  0  0  0  0  0  0  0  0  0
  -23.2576  -16.5314   17.7122 C   0  0  0  0  0  0  0  0  0  0  0  0
  -31.9366  -25.1212   17.7227 C   0  0  0  0  0  0  0  0  0  0  0  0
  -25.7341  -28.8868   18.8322 C   0  0  0  0  0  0  0  0  0  0  0  0
  -30.5421  -25.3154   17.7065 C   0  0  0  0  0  0  0  0  0  0  0  0
  -25.0917  -28.5849   20.0415 C   0  0  0  0  0  0  0  0  0  0  0  0
  -21.3341  -24.5209   22.8178 C   0  0  0  0  0  0  0  0  0  0  0  0
  -22.5589  -22.4551   22.5546 C   0  0  0  0  0  0  0  0  0  0  0  0
  -25.2491  -12.4257   20.2125 C   0  0  0  0  0  0  0  0  0  0  0  0
  -22.9864  -28.3470   18.8495 C   0  0  0  0  0  0  0  0  0  0  0  0
  -24.5600  -10.3125   20.9753 C   0  0  0  0  0  0  0  0  0  0  0  0
  -22.4897   -8.5300   21.5399 C   0  0  0  0  0  0  0  0  0  0  0  0
  -24.3957   -9.8223   22.2708 C   0  0  0  0  0  0  0  0  0  0  0  0
  -24.1982  -16.2417   18.7186 C   0  0  0  0  0  0  0  0  0  0  0  0
  -23.2867  -17.8999   17.5985 C   0  0  0  0  0  0  0  0  0  0  0  0
  -22.4312  -15.6430   16.9483 C   0  0  0  0  0  0  0  0  0  0  0  0
  -28.1788  -27.1455   19.8786 C   0  0  0  0  0  0  0  0  0  0  0  0
  -28.0414  -29.1783   22.4028 C   0  0  0  0  0  0  0  0  0  0  0  0
  -26.1850  -31.3308   24.2915 C   0  0  0  0  0  0  0  0  0  0  0  0
  -24.7803  -22.2792   21.3796 C   0  0  0  0  0  0  0  0  0  0  0  0
  -32.6963  -24.9322   19.0118 C   0  0  0  0  0  0  0  0  0  0  0  0
  -27.2029  -29.2098   18.8098 C   0  0  0  0  0  0  0  0  0  0  0  0
  -25.8407  -28.5392   21.3474 C   0  0  0  0  0  0  0  0  0  0  0  0
  -31.9281  -25.3991   20.2456 C   0  0  0  0  0  0  0  0  0  0  0  0
  -26.2143  -21.6445   18.1830 C   0  0  0  0  0  0  0  0  0  0  0  0
  -30.4931  -24.8832   20.2078 C   0  0  0  0  0  0  0  0  0  0  0  0
  -25.7694  -20.2155   17.8633 C   0  0  0  0  0  0  0  0  0  0  0  0
  -26.5235  -21.8233   19.6683 C   0  0  0  0  0  0  0  0  0  0  0  0
  -25.0072  -19.9743   20.2608 C   0  0  0  0  0  0  0  0  0  0  0  0
  -29.7428  -25.4283   18.9865 C   0  0  1  0  0  0  0  0  0  0  0  0
  -27.9610  -28.6273   19.9987 C   0  0  1  0  0  0  0  0  0  0  0  0
  -24.6221  -19.7624   18.7875 C   0  0  2  0  0  0  0  0  0  0  0  0
  -26.3362  -32.8117   26.3117 C   0  0  0  0  0  0  0  0  0  0  0  0
  -27.8861  -26.7248   24.2100 C   0  0  0  0  0  0  0  0  0  0  0  0
  -27.0951  -28.2204   26.0554 C   0  0  0  0  0  0  0  0  0  0  0  0
  -29.3588  -28.5572   25.0631 C   0  0  0  0  0  0  0  0  0  0  0  0
  -19.0559  -25.9462   21.2620 C   0  0  0  0  0  0  0  0  0  0  0  0
  -20.4416  -28.0238   21.3406 C   0  0  0  0  0  0  0  0  0  0  0  0
  -19.8948  -26.6949   17.9891 C   0  0  0  0  0  0  0  0  0  0  0  0
  -22.3013  -26.0850   17.7347 C   0  0  0  0  0  0  0  0  0  0  0  0
  -25.5763  -33.7536   22.7045 C   0  0  0  0  0  0  0  0  0  0  0  0
  -21.2153  -26.0116   22.5910 C   0  0  0  0  0  0  0  0  0  0  0  0
  -21.3128  -25.9837   20.0351 C   0  0  0  0  0  0  0  0  0  0  0  0
  -27.3112  -29.1944   23.7239 C   0  0  1  0  0  0  0  0  0  0  0  0
  -26.4744  -32.7318   24.7993 C   0  0  2  0  0  0  0  0  0  0  0  0
  -27.8988  -28.1731   24.7384 C   0  0  0  0  0  0  0  0  0  0  0  0
  -20.5005  -26.4847   21.2748 C   0  0  0  0  0  0  0  0  0  0  0  0
  -21.2604  -26.7206   18.6719 C   0  0  0  0  0  0  0  0  0  1  0  0
  -24.7825  -17.3380   19.2093 N   0  0  0  0  0  0  0  0  0  0  0  0
  -24.2075  -18.3299   18.5082 N   0  0  0  0  0  0  0  0  0  0  0  0
  -27.2764  -28.8564   21.2727 N   0  0  0  0  0  0  0  0  0  0  0  0
  -25.3905  -21.3775   20.4821 N   0  0  0  0  0  0  0  0  0  0  0  0
  -22.6144  -18.7653   16.8102 N   0  0  0  0  0  0  0  0  0  0  0  0
  -22.5267  -14.2661   17.1923 N   0  0  0  0  0  0  0  0  0  0  0  0
  -23.6924  -21.7528   22.0752 N   0  0  0  0  0  0  0  0  0  0  0  0
  -29.3388  -26.7995   19.2121 N   0  0  0  0  0  0  0  0  0  0  0  0
  -27.3353  -30.5777   24.1868 N   0  0  0  0  0  0  0  0  0  0  0  0
  -25.5298  -33.7095   24.1888 N   0  3  0  0  0  0  0  0  0  0  0  0
  -21.6437  -16.0565   16.0638 O   0  0  0  0  0  0  0  0  0  0  0  0
  -27.3561  -26.3732   20.3566 O   0  0  0  0  0  0  0  0  0  0  0  0
  -29.2446  -29.4485   22.3735 O   0  0  0  0  0  0  0  0  0  0  0  0
  -25.0514  -30.9420   24.0188 O   0  0  0  0  0  0  0  0  0  0  0  0
  -25.1756  -23.4415   21.5007 O   0  0  0  0  0  0  0  0  0  0  0  0
  -25.5867  -11.1981   20.6935 O   0  0  0  0  0  0  0  0  0  0  0  0
  -21.6521  -28.0796   18.8610 O   0  0  0  0  0  0  0  0  0  1  0  0
  -21.4947   -7.6753   21.8112 F   0  0  0  0  0  0  0  0  0  0  0  0
  -25.2285  -10.2048   23.2485 F   0  0  0  0  0  0  0  0  0  0  0  0
  1  2  1  0  0  0  0
  1  6  2  0  0  0  0
  2  7  2  0  0  0  0
  3  9  2  0  0  0  0
  3 10  1  0  0  0  0
  4 11  2  0  0  0  0
  4 19  1  0  0  0  0
  5 12  1  0  0  0  0
  5 19  2  0  0  0  0
  6 21  1  0  0  0  0
  7 23  1  0  0  0  0
  8 13  2  0  0  0  0
  8 22  1  0  0  0  0
  9 25  1  0  0  0  0
 10 26  2  0  0  0  0
 11 27  1  0  0  0  0
 12 27  2  0  0  0  0
 13 28  1  0  0  0  0
 14 15  2  0  0  0  0
 14 29  1  0  0  0  0
 15 30  1  0  0  0  0
 16 24  1  0  0  0  0
 16 28  2  0  0  0  0
 17 25  2  0  0  0  0
 17 26  1  0  0  0  0
 18 30  2  0  0  0  0
 18 31  1  0  0  0  0
 19 32  1  0  0  0  0
 20 32  1  0  0  0  0
 20 33  2  0  0  0  0
 20 34  1  0  0  0  0
 21 23  2  0  0  0  0
 21 39  1  0  0  0  0
 22 24  2  0  0  0  0
 22 40  1  0  0  0  0
 23 48  1  0  0  0  0
 24 41  1  0  0  0  0
 25 60  1  0  0  0  0
 26 73  1  0  0  0  0
 27 82  1  0  0  0  0
 28 83  1  0  0  0  0
 29 31  2  0  0  0  0
 29 82  1  0  0  0  0
 30 84  1  0  0  0  0
 31 85  1  0  0  0  0
 32 67  2  0  0  0  0
 33 68  1  0  0  0  0
 33 71  1  0  0  0  0
 34 72  1  0  0  0  0
 34 77  2  0  0  0  0
 35 49  1  0  0  0  0
 35 74  1  0  0  0  0
 35 78  2  0  0  0  0
 36 62  1  0  0  0  0
 36 69  1  0  0  0  0
 36 79  2  0  0  0  0
 37 63  1  0  0  0  0
 37 75  1  0  0  0  0
 37 80  2  0  0  0  0
 38 70  1  0  0  0  0
 38 73  1  0  0  0  0
 38 81  2  0  0  0  0
 39 42  1  0  0  0  0
 40 49  1  0  0  0  0
 41 69  1  0  0  0  0
 42 44  1  0  0  0  0
 43 45  1  0  0  0  0
 43 46  1  0  0  0  0
 44 48  1  0  0  0  0
 45 50  1  0  0  0  0
 46 70  1  0  0  0  0
 47 50  1  0  0  0  0
 47 70  1  0  0  0  0
 48 74  1  0  0  0  0
 49 69  1  0  0  0  0
 50 68  1  0  0  0  0
 51 63  1  0  0  0  0
 52 64  1  0  0  0  0
 53 64  1  0  0  0  0
 54 64  1  0  0  0  0
 55 65  1  0  0  0  0
 56 65  1  0  0  0  0
 57 66  1  0  0  0  0
 58 66  1  0  0  0  0
 59 76  1  0  0  0  0
 60 65  1  0  0  0  0
 61 65  1  0  0  0  0
 61 66  1  0  0  0  0
 62 64  1  0  0  0  0
 62 75  1  0  0  0  0
 63 76  1  0  0  0  0
 66 83  1  0  0  0  0
 67 68  1  0  0  0  0
M  CHG  1  76   1
M  ISO  4  38 100  66 101  73 100  83 101
M  END
> <Batch ID>
0137

> <Smiles>
CNC(C)C(=O)NC(C(=O)N1Cc2cc([101O:1][101C:1](C)(C)CC(C)(C)Cc3cccc([100NH:0][100C:0](=O)N4CCCC(n5nc(-c6ccc(Oc7ccc(F)cc7F)cc6)c(C(N)=O)c5N)C4)c3)ccc2CC1C(=O)NC1CCCc2ccccc21)C(C)(C)C

> <Shape>
0.215

> <Color>
0.067

> <Negative vol penalty>
0.000

$$$$

  -OEChem-04052302423D

 84 93  0     1  0  0  0  0  0999 V2000
  -28.7023  -24.7699   16.9768 C   0  0  0  0  0  0  0  0  0  0  0  0
  -27.4953  -24.9026   17.6557 C   0  0  0  0  0  0  0  0  0  0  0  0
  -27.8208  -15.2223   23.3312 C   0  0  0  0  0  0  0  0  0  0  0  0
  -26.0651  -15.8900   21.8118 C   0  0  0  0  0  0  0  0  0  0  0  0
  -29.8553  -25.3679   17.4835 C   0  0  0  0  0  0  0  0  0  0  0  0
  -27.4409  -25.6326   18.8425 C   0  0  0  0  0  0  0  0  0  0  0  0
  -23.4502  -28.7447   19.0276 C   0  0  0  0  0  0  0  0  0  0  0  0
  -21.7853  -25.1253   23.7671 C   0  0  0  0  0  0  0  0  0  0  0  0
  -21.7040  -23.9379   21.6646 C   0  0  0  0  0  0  0  0  0  0  0  0
  -23.0534  -24.5999   24.0149 C   0  0  0  0  0  0  0  0  0  0  0  0
  -22.9722  -23.4125   21.9123 C   0  0  0  0  0  0  0  0  0  0  0  0
  -27.2436  -13.9575   23.4424 C   0  0  0  0  0  0  0  0  0  0  0  0
  -25.4878  -14.6251   21.9229 C   0  0  0  0  0  0  0  0  0  0  0  0
  -22.2131  -28.1766   19.3288 C   0  0  0  0  0  0  0  0  0  0  0  0
  -26.0108  -11.5313   20.6678 C   0  0  0  0  0  0  0  0  0  0  0  0
  -25.5881  -10.9080   19.4938 C   0  0  0  0  0  0  0  0  0  0  0  0
  -22.4332  -28.9226   21.6123 C   0  0  0  0  0  0  0  0  0  0  0  0
  -23.3291  -10.8322   20.3472 C   0  0  0  0  0  0  0  0  0  0  0  0
  -27.2316  -16.1887   22.5159 C   0  0  0  0  0  0  0  0  0  0  0  0
  -28.7940  -17.9101   21.4656 C   0  0  0  0  0  0  0  0  0  0  0  0
  -29.8130  -26.1138   18.6721 C   0  0  0  0  0  0  0  0  0  0  0  0
  -24.1943  -29.3977   20.0208 C   0  0  0  0  0  0  0  0  0  0  0  0
  -28.5947  -26.2401   19.3664 C   0  0  0  0  0  0  0  0  0  0  0  0
  -23.6783  -29.5004   21.3205 C   0  0  0  0  0  0  0  0  0  0  0  0
  -21.1106  -24.7942   22.5920 C   0  0  0  0  0  0  0  0  0  0  0  0
  -23.6469  -23.7435   23.0875 C   0  0  0  0  0  0  0  0  0  0  0  0
  -26.0771  -13.6588   22.7383 C   0  0  0  0  0  0  0  0  0  0  0  0
  -21.7058  -28.2629   20.6219 C   0  0  0  0  0  0  0  0  0  0  0  0
  -25.0926  -11.8050   21.6817 C   0  0  0  0  0  0  0  0  0  0  0  0
  -24.2473  -10.5585   19.3334 C   0  0  0  0  0  0  0  0  0  0  0  0
  -23.7518  -11.4555   21.5213 C   0  0  0  0  0  0  0  0  0  0  0  0
  -27.8271  -17.4957   22.4010 C   0  0  0  0  0  0  0  0  0  0  0  0
  -29.0273  -19.2281   21.7738 C   0  0  0  0  0  0  0  0  0  0  0  0
  -29.4248  -17.1699   20.4121 C   0  0  0  0  0  0  0  0  0  0  0  0
  -27.0413  -28.9376   21.3573 C   0  0  0  0  0  0  0  0  0  0  0  0
  -26.3791  -31.7584   22.8157 C   0  0  0  0  0  0  0  0  0  0  0  0
  -24.0237  -33.9872   23.8792 C   0  0  0  0  0  0  0  0  0  0  0  0
  -25.7405  -23.4370   24.4547 C   0  0  0  0  0  0  0  0  0  0  0  0
  -31.0950  -26.7022   19.2058 C   0  0  0  0  0  0  0  0  0  0  0  0
  -25.5148  -30.0285   19.6734 C   0  0  0  0  0  0  0  0  0  0  0  0
  -24.4286  -30.2083   22.4180 C   0  0  0  0  0  0  0  0  0  0  0  0
  -30.8763  -27.7728   20.2718 C   0  0  0  0  0  0  0  0  0  0  0  0
  -28.9536  -22.2808   25.4630 C   0  0  0  0  0  0  0  0  0  0  0  0
  -17.6009  -25.9088   22.8182 C   0  0  0  0  0  0  0  0  0  0  0  0
  -29.8524  -27.3015   21.2996 C   0  0  0  0  0  0  0  0  0  0  0  0
  -29.1199  -20.9632   24.7023 C   0  0  0  0  0  0  0  0  0  0  0  0
  -17.9876  -26.4926   21.4734 C   0  0  0  0  0  0  0  0  0  0  0  0
  -18.9498  -25.6336   23.4645 C   0  0  0  0  0  0  0  0  0  0  0  0
  -27.5116  -22.4935   25.9204 C   0  0  0  0  0  0  0  0  0  0  0  0
  -26.6675  -21.0641   24.1000 C   0  0  0  0  0  0  0  0  0  0  0  0
  -28.4903  -27.0449   20.6437 C   0  0  1  0  0  0  0  0  0  0  0  0
  -26.4215  -30.2222   20.8849 C   0  0  1  0  0  0  0  0  0  0  0  0
  -28.0899  -20.8365   23.5627 C   0  0  2  0  0  0  0  0  0  0  0  0
  -19.2288  -25.6644   21.0453 C   0  0  1  0  0  0  0  0  0  0  0  0
  -18.7621  -24.4088   20.2944 C   0  0  0  0  0  0  0  0  0  0  0  0
  -23.7850  -36.1821   25.0720 C   0  0  0  0  0  0  0  0  0  0  0  0
  -26.9379  -30.3712   25.4753 C   0  0  0  0  0  0  0  0  0  0  0  0
  -25.7878  -32.2723   26.6289 C   0  0  0  0  0  0  0  0  0  0  0  0
  -27.8543  -32.6912   25.2960 C   0  0  0  0  0  0  0  0  0  0  0  0
  -22.7428  -35.2556   21.5320 C   0  0  0  0  0  0  0  0  0  0  0  0
  -20.1094  -26.5597   20.1675 C   0  0  0  0  0  0  0  0  0  1  0  0
  -25.6917  -32.1639   24.0971 C   0  0  1  0  0  0  0  0  0  0  0  0
  -23.9188  -35.4935   23.7227 C   0  0  2  0  0  0  0  0  0  0  0  0
  -26.5544  -31.8595   25.3544 C   0  0  0  0  0  0  0  0  0  0  0  0
  -27.4707  -18.4713   23.2408 N   0  0  0  0  0  0  0  0  0  0  0  0
  -28.2177  -19.5118   22.8341 N   0  0  0  0  0  0  0  0  0  0  0  0
  -19.8506  -25.3144   22.3468 N   0  0  3  0  0  0  0  0  0  0  0  0
  -25.7181  -30.8034   22.0302 N   0  0  0  0  0  0  0  0  0  0  0  0
  -26.5929  -22.3629   24.7873 N   0  0  0  0  0  0  0  0  0  0  0  0
  -29.8439  -20.1603   21.2387 N   0  0  0  0  0  0  0  0  0  0  0  0
  -29.0690  -15.8260   20.2339 N   0  0  0  0  0  0  0  0  0  0  0  0
  -24.9352  -23.2098   23.3392 N   0  0  0  0  0  0  0  0  0  0  0  0
  -27.8031  -28.2950   20.4000 N   0  0  0  0  0  0  0  0  0  0  0  0
  -25.3365  -33.5704   23.9424 N   0  0  0  0  0  0  0  0  0  0  0  0
  -22.7311  -35.8468   22.8948 N   0  3  0  0  0  0  0  0  0  0  0  0
  -30.2908  -17.6803   19.6617 O   0  0  0  0  0  0  0  0  0  0  0  0
  -26.8443  -28.5582   22.5058 O   0  0  0  0  0  0  0  0  0  0  0  0
  -27.4591  -32.2753   22.5190 O   0  0  0  0  0  0  0  0  0  0  0  0
  -23.0393  -33.2540   23.9432 O   0  0  0  0  0  0  0  0  0  0  0  0
  -25.7454  -24.4916   25.0948 O   0  0  0  0  0  0  0  0  0  0  0  0
  -25.5137  -12.4245   22.8464 O   0  0  0  0  0  0  0  0  0  0  0  0
  -20.4989  -27.7087   20.9187 O   0  0  0  0  0  0  0  0  0  1  0  0
  -23.8413   -9.9613   18.2053 F   0  0  0  0  0  0  0  0  0  0  0  0
  -22.8649  -11.7169   22.4913 F   0  0  0  0  0  0  0  0  0  0  0  0
  1  2  1  0  0  0  0
  1  5  2  0  0  0  0
  2  6  2  0  0  0  0
  3 12  2  0  0  0  0
  3 19  1  0  0  0  0
  4 13  1  0  0  0  0
  4 19  2  0  0  0  0
  5 21  1  0  0  0  0
  6 23  1  0  0  0  0
  7 14  2  0  0  0  0
  7 22  1  0  0  0  0
  8 10  2  0  0  0  0
  8 25  1  0  0  0  0
  9 11  1  0  0  0  0
  9 25  2  0  0  0  0
 10 26  1  0  0  0  0
 11 26  2  0  0  0  0
 12 27  1  0  0  0  0
 13 27  2  0  0  0  0
 14 28  1  0  0  0  0
 15 16  2  0  0  0  0
 15 29  1  0  0  0  0
 16 30  1  0  0  0  0
 17 24  1  0  0  0  0
 17 28  2  0  0  0  0
 18 30  2  0  0  0  0
 18 31  1  0  0  0  0
 19 32  1  0  0  0  0
 20 32  1  0  0  0  0
 20 33  2  0  0  0  0
 20 34  1  0  0  0  0
 21 23  2  0  0  0  0
 21 39  1  0  0  0  0
 22 24  2  0  0  0  0
 22 40  1  0  0  0  0
 23 51  1  0  0  0  0
 24 41  1  0  0  0  0
 25 67  1  0  0  0  0
 26 72  1  0  0  0  0
 27 81  1  0  0  0  0
 28 82  1  0  0  0  0
 29 31  2  0  0  0  0
 29 81  1  0  0  0  0
 30 83  1  0  0  0  0
 31 84  1  0  0  0  0
 32 65  2  0  0  0  0
 33 66  1  0  0  0  0
 33 70  1  0  0  0  0
 34 71  1  0  0  0  0
 34 76  2  0  0  0  0
 35 52  1  0  0  0  0
 35 73  1  0  0  0  0
 35 77  2  0  0  0  0
 36 62  1  0  0  0  0
 36 68  1  0  0  0  0
 36 78  2  0  0  0  0
 37 63  1  0  0  0  0
 37 74  1  0  0  0  0
 37 79  2  0  0  0  0
 38 69  1  0  0  0  0
 38 72  1  0  0  0  0
 38 80  2  0  0  0  0
 39 42  1  0  0  0  0
 40 52  1  0  0  0  0
 41 68  1  0  0  0  0
 42 45  1  0  0  0  0
 43 46  1  0  0  0  0
 43 49  1  0  0  0  0
 44 47  1  0  0  0  0
 44 48  1  0  0  0  0
 45 51  1  0  0  0  0
 46 53  1  0  0  0  0
 47 54  1  0  0  0  0
 48 67  1  0  0  0  0
 49 69  1  0  0  0  0
 50 53  1  0  0  0  0
 50 69  1  0  0  0  0
 51 73  1  0  0  0  0
 52 68  1  0  0  0  0
 53 66  1  0  0  0  0
 54 55  1  0  0  0  0
 54 61  1  0  0  0  0
 54 67  1  0  0  0  0
 56 63  1  0  0  0  0
 57 64  1  0  0  0  0
 58 64  1  0  0  0  0
 59 64  1  0  0  0  0
 60 75  1  0  0  0  0
 61 82  1  0  0  0  0
 62 64  1  0  0  0  0
 62 74  1  0  0  0  0
 63 75  1  0  0  0  0
 65 66  1  0  0  0  0
M  CHG  1  75   1
M  ISO  4  38 100  61 101  72 100  82 101
M  END
> <Batch ID>
0137

> <Smiles>
CNC(C)C(=O)NC(C(=O)N1Cc2cc([101O:1][101CH2:1]C3(C)CCCN3c3ccc([100NH:0][100C:0](=O)N4CCCC(n5nc(-c6ccc(Oc7ccc(F)cc7F)cc6)c(C(N)=O)c5N)C4)cc3)ccc2CC1C(=O)NC1CCCc2ccccc21)C(C)(C)C

> <Shape>
0.276

> <Color>
0.076

> <Negative vol penalty>
0.000

$$$$

  -OEChem-04052302423D

 87 95  0     1  0  0  0  0  0999 V2000
  -27.6189  -31.2247   25.4937 C   0  0  0  0  0  0  0  0  0  0  0  0
  -28.1480  -29.9862   25.8427 C   0  0  0  0  0  0  0  0  0  0  0  0
  -23.0011   -9.8915   19.9837 C   0  0  0  0  0  0  0  0  0  0  0  0
  -23.7218   -9.9503   22.2889 C   0  0  0  0  0  0  0  0  0  0  0  0
  -26.3104  -31.5480   25.8504 C   0  0  0  0  0  0  0  0  0  0  0  0
  -27.3691  -29.0707   26.5495 C   0  0  0  0  0  0  0  0  0  0  0  0
  -27.7240  -24.3739   24.6896 C   0  0  0  0  0  0  0  0  0  0  0  0
  -22.2342   -8.7578   20.2523 C   0  0  0  0  0  0  0  0  0  0  0  0
  -22.9548   -8.8167   22.5576 C   0  0  0  0  0  0  0  0  0  0  0  0
  -28.8660  -23.6441   25.0168 C   0  0  0  0  0  0  0  0  0  0  0  0
  -23.2003   -5.4762   22.0975 C   0  0  0  0  0  0  0  0  0  0  0  0
  -23.7865   -4.4616   22.8541 C   0  0  0  0  0  0  0  0  0  0  0  0
  -27.6236  -22.4770   26.7238 C   0  0  0  0  0  0  0  0  0  0  0  0
  -31.8422  -18.3577   24.1606 C   0  0  0  0  0  0  0  0  0  0  0  0
  -32.0525  -16.5585   22.5621 C   0  0  0  0  0  0  0  0  0  0  0  0
  -29.8728  -17.4577   23.0888 C   0  0  0  0  0  0  0  0  0  0  0  0
  -22.0593   -4.7100   24.5252 C   0  0  0  0  0  0  0  0  0  0  0  0
  -23.7450  -10.4877   21.0020 C   0  0  0  0  0  0  0  0  0  0  0  0
  -24.1305  -13.0027   20.8182 C   0  0  0  0  0  0  0  0  0  0  0  0
  -25.5119  -30.6322   26.5535 C   0  0  0  0  0  0  0  0  0  0  0  0
  -26.5241  -24.1681   25.3855 C   0  0  0  0  0  0  0  0  0  0  0  0
  -26.0491  -29.3826   26.9171 C   0  0  0  0  0  0  0  0  0  0  0  0
  -26.4672  -23.2037   26.4017 C   0  0  0  0  0  0  0  0  0  0  0  0
  -32.6388  -17.4582   23.4523 C   0  0  0  0  0  0  0  0  0  0  0  0
  -30.4591  -18.3574   23.9790 C   0  0  0  0  0  0  0  0  0  0  0  0
  -30.6695  -16.5582   22.3804 C   0  0  0  0  0  0  0  0  0  0  0  0
  -22.2110   -8.2204   21.5393 C   0  0  0  0  0  0  0  0  0  0  0  0
  -28.8166  -22.6975   26.0360 C   0  0  0  0  0  0  0  0  0  0  0  0
  -22.0437   -6.1078   22.5547 C   0  0  0  0  0  0  0  0  0  0  0  0
  -23.2160   -4.0785   24.0680 C   0  0  0  0  0  0  0  0  0  0  0  0
  -21.4732   -5.7246   23.7685 C   0  0  0  0  0  0  0  0  0  0  0  0
  -24.5379  -11.6585   20.7249 C   0  0  0  0  0  0  0  0  0  0  0  0
  -25.2409  -13.7242   20.4535 C   0  0  0  0  0  0  0  0  0  0  0  0
  -22.8617  -13.5503   21.2004 C   0  0  0  0  0  0  0  0  0  0  0  0
  -24.6523  -25.9745   27.2122 C   0  0  0  0  0  0  0  0  0  0  0  0
  -22.7149  -23.3744   27.1226 C   0  0  0  0  0  0  0  0  0  0  0  0
  -22.4084  -20.0033   26.6877 C   0  0  0  0  0  0  0  0  0  0  0  0
  -30.7198  -14.6865   20.6950 C   0  0  0  0  0  0  0  0  0  0  0  0
  -24.1189  -31.0449   26.9584 C   0  0  0  0  0  0  0  0  0  0  0  0
  -25.2941  -24.9446   25.0024 C   0  0  0  0  0  0  0  0  0  0  0  0
  -25.1981  -22.9305   27.1655 C   0  0  0  0  0  0  0  0  0  0  0  0
  -23.2350  -29.8739   27.3801 C   0  0  0  0  0  0  0  0  0  0  0  0
  -29.6063  -12.2257   18.3751 C   0  0  0  0  0  0  0  0  0  0  0  0
  -23.9879  -28.9541   28.3361 C   0  0  0  0  0  0  0  0  0  0  0  0
  -28.1549  -11.9694   18.7873 C   0  0  0  0  0  0  0  0  0  0  0  0
  -30.5044  -12.4733   19.5858 C   0  0  0  0  0  0  0  0  0  0  0  0
  -28.5864  -13.2665   20.9130 C   0  0  0  0  0  0  0  0  0  0  0  0
  -25.2273  -28.3531   27.6621 C   0  0  1  0  0  0  0  0  0  0  0  0
  -24.2606  -25.0173   26.1222 C   0  0  1  0  0  0  0  0  0  0  0  0
  -27.6311  -13.0760   19.7235 C   0  0  2  0  0  0  0  0  0  0  0  0
  -34.1175  -17.4585   23.6467 C   0  0  0  0  0  0  0  0  0  0  0  0
  -20.7049  -18.1608   26.7121 C   0  0  0  0  0  0  0  0  0  0  0  0
  -26.6522  -18.3721   25.3140 C   0  0  0  0  0  0  0  0  0  0  0  0
  -27.5423  -17.1260   27.2951 C   0  0  0  0  0  0  0  0  0  0  0  0
  -22.6772  -23.4529   30.1726 C   0  0  0  0  0  0  0  0  0  0  0  0
  -21.7909  -21.1114   30.1525 C   0  0  0  0  0  0  0  0  0  0  0  0
  -20.4669  -22.9533   29.1145 C   0  0  0  0  0  0  0  0  0  0  0  0
  -29.3808  -21.8129   28.6678 C   0  0  0  0  0  0  0  0  0  0  0  0
  -31.1729  -20.3964   27.6502 C   0  0  0  0  0  0  0  0  0  0  0  0
  -22.9271  -19.3288   23.8532 C   0  0  0  0  0  0  0  0  0  0  0  0
  -29.5961  -19.3322   24.7465 C   0  0  0  0  0  0  0  0  0  0  0  0
  -28.7066  -19.9897   27.0683 C   0  0  0  0  0  0  0  0  0  0  0  0
  -22.5591  -22.1278   27.9598 C   0  0  1  0  0  0  0  0  0  0  0  0
  -21.4425  -19.1787   25.8562 C   0  0  2  0  0  0  0  0  0  0  0  0
  -27.9114  -17.7890   25.9615 C   0  0  0  0  0  0  0  0  0  0  0  0
  -29.0858  -18.8159   26.1175 C   0  0  1  0  0  0  0  0  0  0  0  0
  -21.8981  -22.4176   29.3370 C   0  0  0  0  0  0  0  0  0  0  0  0
  -29.8014  -21.0298   27.4161 C   0  0  0  0  0  0  0  0  0  1  0  0
  -25.8080  -11.5307   20.3317 N   0  0  0  0  0  0  0  0  0  0  0  0
  -26.2081  -12.8040   20.1745 N   0  0  0  0  0  0  0  0  0  0  0  0
  -24.0240  -23.7197   26.7582 N   0  0  0  0  0  0  0  0  0  0  0  0
  -29.9476  -13.5370   20.4245 N   0  0  0  0  0  0  0  0  0  0  0  0
  -25.4744  -15.0496   20.3475 N   0  0  0  0  0  0  0  0  0  0  0  0
  -21.8293  -12.6673   21.5449 N   0  0  0  0  0  0  0  0  0  0  0  0
  -30.0739  -15.6443   21.4760 N   0  0  0  0  0  0  0  0  0  0  0  0
  -24.8477  -27.2718   26.7783 N   0  0  0  0  0  0  0  0  0  0  0  0
  -21.8283  -21.1713   27.1357 N   0  0  0  0  0  0  0  0  0  0  0  0
  -22.1754  -18.4480   24.7839 N   0  3  0  0  0  0  0  0  0  0  0  0
  -22.6448  -14.7857   21.2196 O   0  0  0  0  0  0  0  0  0  0  0  0
  -24.7671  -25.5666   28.3620 O   0  0  0  0  0  0  0  0  0  0  0  0
  -21.7114  -24.0140   26.7978 O   0  0  0  0  0  0  0  0  0  0  0  0
  -23.5609  -19.6453   26.9200 O   0  0  0  0  0  0  0  0  0  0  0  0
  -31.8593  -14.8240   20.2427 O   0  0  0  0  0  0  0  0  0  0  0  0
  -21.4625   -7.1144   21.8019 O   0  0  0  0  0  0  0  0  0  0  0  0
  -29.9356  -21.9807   26.3595 O   0  0  0  0  0  0  0  0  0  1  0  0
  -23.7781   -3.1031   24.7938 F   0  0  0  0  0  0  0  0  0  0  0  0
  -20.3614   -6.3269   24.2123 F   0  0  0  0  0  0  0  0  0  0  0  0
  1  2  1  0  0  0  0
  1  5  2  0  0  0  0
  2  6  2  0  0  0  0
  3  8  2  0  0  0  0
  3 18  1  0  0  0  0
  4  9  1  0  0  0  0
  4 18  2  0  0  0  0
  5 20  1  0  0  0  0
  6 22  1  0  0  0  0
  7 10  2  0  0  0  0
  7 21  1  0  0  0  0
  8 27  1  0  0  0  0
  9 27  2  0  0  0  0
 10 28  1  0  0  0  0
 11 12  2  0  0  0  0
 11 29  1  0  0  0  0
 12 30  1  0  0  0  0
 13 23  1  0  0  0  0
 13 28  2  0  0  0  0
 14 24  2  0  0  0  0
 14 25  1  0  0  0  0
 15 24  1  0  0  0  0
 15 26  2  0  0  0  0
 16 25  2  0  0  0  0
 16 26  1  0  0  0  0
 17 30  2  0  0  0  0
 17 31  1  0  0  0  0
 18 32  1  0  0  0  0
 19 32  1  0  0  0  0
 19 33  2  0  0  0  0
 19 34  1  0  0  0  0
 20 22  2  0  0  0  0
 20 39  1  0  0  0  0
 21 23  2  0  0  0  0
 21 40  1  0  0  0  0
 22 48  1  0  0  0  0
 23 41  1  0  0  0  0
 24 51  1  0  0  0  0
 25 61  1  0  0  0  0
 26 75  1  0  0  0  0
 27 84  1  0  0  0  0
 28 85  1  0  0  0  0
 29 31  2  0  0  0  0
 29 84  1  0  0  0  0
 30 86  1  0  0  0  0
 31 87  1  0  0  0  0
 32 69  2  0  0  0  0
 33 70  1  0  0  0  0
 33 73  1  0  0  0  0
 34 74  1  0  0  0  0
 34 79  2  0  0  0  0
 35 49  1  0  0  0  0
 35 76  1  0  0  0  0
 35 80  2  0  0  0  0
 36 63  1  0  0  0  0
 36 71  1  0  0  0  0
 36 81  2  0  0  0  0
 37 64  1  0  0  0  0
 37 77  1  0  0  0  0
 37 82  2  0  0  0  0
 38 72  1  0  0  0  0
 38 75  1  0  0  0  0
 38 83  2  0  0  0  0
 39 42  1  0  0  0  0
 40 49  1  0  0  0  0
 41 71  1  0  0  0  0
 42 44  1  0  0  0  0
 43 45  1  0  0  0  0
 43 46  1  0  0  0  0
 44 48  1  0  0  0  0
 45 50  1  0  0  0  0
 46 72  1  0  0  0  0
 47 50  1  0  0  0  0
 47 72  1  0  0  0  0
 48 76  1  0  0  0  0
 49 71  1  0  0  0  0
 50 70  1  0  0  0  0
 52 64  1  0  0  0  0
 53 65  1  0  0  0  0
 54 65  1  0  0  0  0
 55 67  1  0  0  0  0
 56 67  1  0  0  0  0
 57 67  1  0  0  0  0
 58 68  1  0  0  0  0
 59 68  1  0  0  0  0
 60 78  1  0  0  0  0
 61 66  1  0  0  0  0
 62 66  1  0  0  0  0
 62 68  1  0  0  0  0
 63 67  1  0  0  0  0
 63 77  1  0  0  0  0
 64 78  1  0  0  0  0
 65 66  1  0  0  0  0
 68 85  1  0  0  0  0
 69 70  1  0  0  0  0
M  CHG  1  78   1
M  ISO  4  38 100  68 101  75 100  85 101
M  END
> <Batch ID>
0137

> <Smiles>
CNC(C)C(=O)NC(C(=O)N1Cc2cc([101O:1][101C:1](C)(C)CC(Cc3cc(C)cc([100NH:0][100C:0](=O)N4CCCC(n5nc(-c6ccc(Oc7ccc(F)cc7F)cc6)c(C(N)=O)c5N)C4)c3)C(C)C)ccc2CC1C(=O)NC1CCCc2ccccc21)C(C)(C)C

> <Shape>
0.203

> <Color>
0.193

> <Negative vol penalty>
0.000

$$$$

  -OEChem-04052302423D

 90 99  0     1  0  0  0  0  0999 V2000
  -25.9731  -38.4143   26.0759 C   0  0  0  0  0  0  0  0  0  0  0  0
  -27.0460  -37.6766   25.5861 C   0  0  0  0  0  0  0  0  0  0  0  0
  -25.0423   -8.0332   21.3785 C   0  0  0  0  0  0  0  0  0  0  0  0
  -23.8893  -10.1531   21.4965 C   0  0  0  0  0  0  0  0  0  0  0  0
  -30.0061  -18.5166   21.7441 C   0  0  0  0  0  0  0  0  0  0  0  0
  -24.7934  -37.7678   26.4423 C   0  0  0  0  0  0  0  0  0  0  0  0
  -26.9403  -36.2916   25.4635 C   0  0  0  0  0  0  0  0  0  0  0  0
  -29.1787  -30.8631   21.3601 C   0  0  0  0  0  0  0  0  0  0  0  0
  -30.1689  -17.2427   21.2000 C   0  0  0  0  0  0  0  0  0  0  0  0
  -24.2197   -7.5297   22.3862 C   0  0  0  0  0  0  0  0  0  0  0  0
  -23.0667   -9.6496   22.5042 C   0  0  0  0  0  0  0  0  0  0  0  0
  -29.8001  -29.6194   21.4641 C   0  0  0  0  0  0  0  0  0  0  0  0
  -21.0761   -6.3153   22.6612 C   0  0  0  0  0  0  0  0  0  0  0  0
  -20.5399   -5.0399   22.4836 C   0  0  0  0  0  0  0  0  0  0  0  0
  -27.8334  -17.2080   20.5824 C   0  0  0  0  0  0  0  0  0  0  0  0
  -27.6856  -28.6190   22.0534 C   0  0  0  0  0  0  0  0  0  0  0  0
  -21.6472   -4.2938   24.4971 C   0  0  0  0  0  0  0  0  0  0  0  0
  -24.8771   -9.3449   20.9337 C   0  0  0  0  0  0  0  0  0  0  0  0
  -28.7569  -19.1363   21.7075 C   0  0  0  0  0  0  0  0  0  0  0  0
  -27.6706  -18.4820   21.1266 C   0  0  0  0  0  0  0  0  0  0  0  0
  -25.4975   -9.8186   18.5050 C   0  0  0  0  0  0  0  0  0  0  0  0
  -24.6697  -36.3753   26.3150 C   0  0  0  0  0  0  0  0  0  0  0  0
  -27.8059  -30.9963   21.6130 C   0  0  0  0  0  0  0  0  0  0  0  0
  -25.7583  -35.6256   25.8298 C   0  0  0  0  0  0  0  0  0  0  0  0
  -27.0487  -29.8651   21.9494 C   0  0  0  0  0  0  0  0  0  0  0  0
  -29.0825  -16.5883   20.6191 C   0  0  0  0  0  0  0  0  0  0  0  0
  -23.2319   -8.3378   22.9490 C   0  0  0  0  0  0  0  0  0  0  0  0
  -29.0541  -28.4976   21.8136 C   0  0  0  0  0  0  0  0  0  0  0  0
  -21.8980   -6.5799   23.7568 C   0  0  0  0  0  0  0  0  0  0  0  0
  -20.8254   -4.0292   23.4015 C   0  0  0  0  0  0  0  0  0  0  0  0
  -22.1835   -5.5692   24.6747 C   0  0  0  0  0  0  0  0  0  0  0  0
  -25.7269   -9.8658   19.8932 C   0  0  0  0  0  0  0  0  0  0  0  0
  -26.5896  -10.4441   17.9551 C   0  0  0  0  0  0  0  0  0  0  0  0
  -28.7031  -22.9167   21.9403 C   0  0  0  0  0  0  0  0  0  0  0  0
  -26.3550  -19.1060   21.0734 C   0  0  0  0  0  0  0  0  0  0  0  0
  -28.6102  -20.4830   22.2880 C   0  0  0  0  0  0  0  0  0  0  0  0
  -24.3957   -9.2593   17.7777 C   0  0  0  0  0  0  0  0  0  0  0  0
  -26.0605  -32.5994   23.7313 C   0  0  0  0  0  0  0  0  0  0  0  0
  -23.5869  -31.4912   21.9492 C   0  0  0  0  0  0  0  0  0  0  0  0
  -22.4059  -29.1374   19.7786 C   0  0  0  0  0  0  0  0  0  0  0  0
  -30.4196  -14.5383   20.0226 C   0  0  0  0  0  0  0  0  0  0  0  0
  -23.3915  -35.7156   26.7684 C   0  0  0  0  0  0  0  0  0  0  0  0
  -27.1455  -32.3401   21.4705 C   0  0  0  0  0  0  0  0  0  0  0  0
  -25.5680  -29.9511   22.2113 C   0  0  0  0  0  0  0  0  0  0  0  0
  -23.2281  -34.2871   26.2554 C   0  0  0  0  0  0  0  0  0  0  0  0
  -31.2279  -11.2988   18.7858 C   0  0  0  0  0  0  0  0  0  0  0  0
  -24.5192  -33.4986   26.4512 C   0  0  0  0  0  0  0  0  0  0  0  0
  -29.8870  -10.5613   18.7973 C   0  0  0  0  0  0  0  0  0  0  0  0
  -29.7662  -22.8244   19.8313 C   0  0  0  0  0  0  0  0  0  0  0  0
  -31.3671  -12.2414   19.9799 C   0  0  0  0  0  0  0  0  0  0  0  0
  -29.1661  -21.4497   20.1023 C   0  0  0  0  0  0  0  0  0  0  0  0
  -28.9196  -12.4537   20.1649 C   0  0  0  0  0  0  0  0  0  0  0  0
  -25.6733  -34.1244   25.6588 C   0  0  1  0  0  0  0  0  0  0  0  0
  -28.9846  -23.7840   20.7368 C   0  0  2  0  0  0  0  0  0  0  0  0
  -25.8402  -32.4504   22.2525 C   0  0  1  0  0  0  0  0  0  0  0  0
  -28.7064  -11.5409   18.9463 C   0  0  2  0  0  0  0  0  0  0  0  0
  -25.4641  -18.7426   19.9228 C   0  0  0  0  0  0  0  0  0  0  0  0
  -20.3337  -28.4740   18.5283 C   0  0  0  0  0  0  0  0  0  0  0  0
  -22.3877  -30.3858   24.5280 C   0  0  0  0  0  0  0  0  0  0  0  0
  -20.8766  -28.9593   23.1317 C   0  0  0  0  0  0  0  0  0  0  0  0
  -20.7346  -31.4451   22.9789 C   0  0  0  0  0  0  0  0  0  0  0  0
  -23.7435  -29.4603   17.1584 C   0  0  0  0  0  0  0  0  0  0  0  0
  -29.7661  -25.0347   21.0867 C   0  0  0  0  0  0  0  0  0  0  0  0
  -28.8628  -26.1348   21.6229 C   0  0  0  0  0  0  0  0  0  1  0  0
  -22.7236  -30.2530   21.9715 C   0  0  1  0  0  0  0  0  0  0  0  0
  -21.6323  -29.2639   18.4786 C   0  0  2  0  0  0  0  0  0  0  0  0
  -21.7089  -30.2592   23.1496 C   0  0  0  0  0  0  0  0  0  0  0  0
  -26.8747  -10.4732   20.2058 N   0  0  0  0  0  0  0  0  0  0  0  0
  -27.3763  -10.8133   19.0063 N   0  0  0  0  0  0  0  0  0  0  0  0
  -28.8074  -21.5435   21.5253 N   0  0  0  0  0  0  0  0  0  0  0  0
  -24.9694  -31.2882   22.0654 N   0  0  0  0  0  0  0  0  0  0  0  0
  -30.2150  -13.1426   20.0548 N   0  0  0  0  0  0  0  0  0  0  0  0
  -26.9442  -10.7088   16.6797 N   0  0  0  0  0  0  0  0  0  0  0  0
  -23.3576   -8.6538   18.4988 N   0  0  0  0  0  0  0  0  0  0  0  0
  -29.2484  -15.2938   20.0674 N   0  0  0  0  0  0  0  0  0  0  0  0
  -25.5697  -33.7792   24.2572 N   0  0  0  0  0  0  0  0  0  0  0  0
  -22.1072  -30.1613   20.6524 N   0  0  0  0  0  0  0  0  0  0  0  0
  -28.2799  -20.6095   23.5699 N   0  3  0  0  0  0  0  0  0  0  0  0
  -22.4478  -28.7565   17.3391 N   0  3  0  0  0  0  0  0  0  0  0  0
  -28.3988  -23.2583   23.0688 O   0  0  0  0  0  0  0  0  0  0  0  0
  -25.9242  -19.9114   21.8991 O   0  0  0  0  0  0  0  0  0  0  0  0
  -24.3415   -9.2810   16.5247 O   0  0  0  0  0  0  0  0  0  0  0  0
  -26.6320  -31.7091   24.3498 O   0  0  0  0  0  0  0  0  0  0  0  0
  -23.0549  -32.5972   21.8259 O   0  0  0  0  0  0  0  0  0  0  0  0
  -23.1934  -28.2198   19.9985 O   0  0  0  0  0  0  0  0  0  0  0  0
  -31.5488  -15.0268   19.9324 O   0  0  0  0  0  0  0  0  0  0  0  0
  -22.4289   -7.8468   23.9322 O   0  0  0  0  0  0  0  0  0  0  0  0
  -29.6583  -27.2826   21.9165 O   0  0  0  0  0  0  0  0  0  1  0  0
  -20.3092   -2.8050   23.2316 F   0  0  0  0  0  0  0  0  0  0  0  0
  -22.9714   -5.8177   25.7298 F   0  0  0  0  0  0  0  0  0  0  0  0
  1  2  1  0  0  0  0
  1  6  2  0  0  0  0
  2  7  2  0  0  0  0
  3 10  2  0  0  0  0
  3 18  1  0  0  0  0
  4 11  1  0  0  0  0
  4 18  2  0  0  0  0
  5  9  2  0  0  0  0
  5 19  1  0  0  0  0
  6 22  1  0  0  0  0
  7 24  1  0  0  0  0
  8 12  2  0  0  0  0
  8 23  1  0  0  0  0
  9 26  1  0  0  0  0
 10 27  1  0  0  0  0
 11 27  2  0  0  0  0
 12 28  1  0  0  0  0
 13 14  2  0  0  0  0
 13 29  1  0  0  0  0
 14 30  1  0  0  0  0
 15 20  1  0  0  0  0
 15 26  2  0  0  0  0
 16 25  1  0  0  0  0
 16 28  2  0  0  0  0
 17 30  2  0  0  0  0
 17 31  1  0  0  0  0
 18 32  1  0  0  0  0
 19 20  2  0  0  0  0
 19 36  1  0  0  0  0
 20 35  1  0  0  0  0
 21 32  1  0  0  0  0
 21 33  2  0  0  0  0
 21 37  1  0  0  0  0
 22 24  2  0  0  0  0
 22 42  1  0  0  0  0
 23 25  2  0  0  0  0
 23 43  1  0  0  0  0
 24 53  1  0  0  0  0
 25 44  1  0  0  0  0
 26 75  1  0  0  0  0
 27 87  1  0  0  0  0
 28 88  1  0  0  0  0
 29 31  2  0  0  0  0
 29 87  1  0  0  0  0
 30 89  1  0  0  0  0
 31 90  1  0  0  0  0
 32 68  2  0  0  0  0
 33 69  1  0  0  0  0
 33 73  1  0  0  0  0
 34 54  1  0  0  0  0
 34 70  1  0  0  0  0
 34 80  2  0  0  0  0
 35 57  1  0  0  0  0
 35 81  2  0  0  0  0
 36 70  1  0  0  0  0
 36 78  2  0  0  0  0
 37 74  1  0  0  0  0
 37 82  2  0  0  0  0
 38 55  1  0  0  0  0
 38 76  1  0  0  0  0
 38 83  2  0  0  0  0
 39 65  1  0  0  0  0
 39 71  1  0  0  0  0
 39 84  2  0  0  0  0
 40 66  1  0  0  0  0
 40 77  1  0  0  0  0
 40 85  2  0  0  0  0
 41 72  1  0  0  0  0
 41 75  1  0  0  0  0
 41 86  2  0  0  0  0
 42 45  1  0  0  0  0
 43 55  1  0  0  0  0
 44 71  1  0  0  0  0
 45 47  1  0  0  0  0
 46 48  1  0  0  0  0
 46 50  1  0  0  0  0
 47 53  1  0  0  0  0
 48 56  1  0  0  0  0
 49 51  1  0  0  0  0
 49 54  1  0  0  0  0
 50 72  1  0  0  0  0
 51 70  1  0  0  0  0
 52 56  1  0  0  0  0
 52 72  1  0  0  0  0
 53 76  1  0  0  0  0
 54 63  1  0  0  0  0
 55 71  1  0  0  0  0
 56 69  1  0  0  0  0
 58 66  1  0  0  0  0
 59 67  1  0  0  0  0
 60 67  1  0  0  0  0
 61 67  1  0  0  0  0
 62 79  1  0  0  0  0
 63 64  1  0  0  0  0
 64 88  1  0  0  0  0
 65 67  1  0  0  0  0
 65 77  1  0  0  0  0
 66 79  1  0  0  0  0
 68 69  1  0  0  0  0
M  CHG  2  78   1  79   1
M  ISO  4  41 100  64 101  75 100  88 101
M  END
> <Batch ID>
0137

> <Smiles>
CNC(C)C(=O)NC(C(=O)N1Cc2cc([101O:1][101CH2:1]CC3CCN(C(=N)c4ccc([100NH:0][100C:0](=O)N5CCCC(n6nc(-c7ccc(Oc8ccc(F)cc8F)cc7)c(C(N)=O)c6N)C5)cc4C(C)=O)C3=O)ccc2CC1C(=O)NC1CCCc2ccccc21)C(C)(C)C

> <Shape>
0.303

> <Color>
0.059

> <Negative vol penalty>
0.000

$$$$

  -OEChem-04052302423D

 82 90  0     1  0  0  0  0  0999 V2000
  -22.3537  -11.2823   19.4485 C   0  0  0  0  0  0  0  0  0  0  0  0
  -21.8843  -12.5695   19.6897 C   0  0  0  0  0  0  0  0  0  0  0  0
  -23.4309  -25.3343   15.7904 C   0  0  0  0  0  0  0  0  0  0  0  0
  -25.5377  -26.4654   15.4455 C   0  0  0  0  0  0  0  0  0  0  0  0
  -23.6732  -10.9536   19.7565 C   0  0  0  0  0  0  0  0  0  0  0  0
  -22.7339  -13.5285   20.2401 C   0  0  0  0  0  0  0  0  0  0  0  0
  -22.7775  -19.5332   19.0369 C   0  0  0  0  0  0  0  0  0  0  0  0
  -23.2622  -25.2275   14.4099 C   0  0  0  0  0  0  0  0  0  0  0  0
  -25.3691  -26.3585   14.0650 C   0  0  0  0  0  0  0  0  0  0  0  0
  -22.2345  -20.6282   19.7076 C   0  0  0  0  0  0  0  0  0  0  0  0
  -25.7427  -23.9856   11.6879 C   0  0  0  0  0  0  0  0  0  0  0  0
  -26.8409  -23.5750   10.9323 C   0  0  0  0  0  0  0  0  0  0  0  0
  -24.3580  -21.0135   20.7853 C   0  0  0  0  0  0  0  0  0  0  0  0
  -26.7675  -25.6506    9.6978 C   0  0  0  0  0  0  0  0  0  0  0  0
  -24.5686  -25.9533   16.3082 C   0  0  0  0  0  0  0  0  0  0  0  0
  -25.3782  -25.1422   18.5873 C   0  0  0  0  0  0  0  0  0  0  0  0
  -24.5422  -11.9118   20.3019 C   0  0  0  0  0  0  0  0  0  0  0  0
  -24.1140  -19.1629   19.2440 C   0  0  0  0  0  0  0  0  0  0  0  0
  -24.0659  -13.2120   20.5569 C   0  0  0  0  0  0  0  0  0  0  0  0
  -24.9163  -19.9150   20.1140 C   0  0  0  0  0  0  0  0  0  0  0  0
  -24.2313  -25.7395   13.5472 C   0  0  0  0  0  0  0  0  0  0  0  0
  -23.0239  -21.3668   20.5842 C   0  0  0  0  0  0  0  0  0  0  0  0
  -25.1569  -25.2287   11.4485 C   0  0  0  0  0  0  0  0  0  0  0  0
  -27.3533  -24.4075    9.9372 C   0  0  0  0  0  0  0  0  0  0  0  0
  -25.6693  -26.0612   10.4535 C   0  0  0  0  0  0  0  0  0  0  0  0
  -24.7431  -26.0645   17.7341 C   0  0  0  0  0  0  0  0  0  0  0  0
  -25.2808  -25.7061   19.8359 C   0  0  0  0  0  0  0  0  0  0  0  0
  -18.7177  -26.6391   22.8023 C   0  0  0  0  0  0  0  0  0  0  0  0
  -18.1701  -27.7807   22.3679 C   0  0  0  0  0  0  0  0  0  0  0  0
  -20.9299  -27.6173   22.7344 C   0  0  0  0  0  0  0  0  0  0  0  0
  -20.1333  -26.5844   23.0467 C   0  0  0  0  0  0  0  0  0  0  0  0
  -26.0005  -23.8879   18.2787 C   0  0  0  0  0  0  0  0  0  0  0  0
  -25.5755  -16.5800   20.3826 C   0  0  0  0  0  0  0  0  0  0  0  0
  -28.2506  -18.1618   19.4532 C   0  0  0  0  0  0  0  0  0  0  0  0
  -29.7543  -21.1413   18.7403 C   0  0  0  0  0  0  0  0  0  0  0  0
  -21.2691  -29.8856   21.8190 C   0  0  0  0  0  0  0  0  0  0  0  0
  -25.9466  -11.4966   20.6623 C   0  0  0  0  0  0  0  0  0  0  0  0
  -24.6922  -17.9953   18.4924 C   0  0  0  0  0  0  0  0  0  0  0  0
  -26.3626  -19.5711   20.3557 C   0  0  0  0  0  0  0  0  0  0  0  0
  -18.9847  -29.0147   22.1180 C   0  0  0  0  0  0  0  0  0  0  0  0
  -26.8893  -12.6745   20.8949 C   0  0  0  0  0  0  0  0  0  0  0  0
  -24.9657  -29.9396   22.0347 C   0  0  0  0  0  0  0  0  0  0  0  0
  -26.2276  -13.7195   21.7877 C   0  0  0  0  0  0  0  0  0  0  0  0
  -25.3750  -28.9208   20.9718 C   0  0  0  0  0  0  0  0  0  0  0  0
  -23.6295  -30.5986   21.7055 C   0  0  0  0  0  0  0  0  0  0  0  0
  -22.9345  -28.6173   20.4003 C   0  0  0  0  0  0  0  0  0  0  0  0
  -24.9640  -14.2868   21.1297 C   0  0  1  0  0  0  0  0  0  0  0  0
  -25.9213  -17.3978   19.1705 C   0  0  1  0  0  0  0  0  0  0  0  0
  -24.2509  -27.8983   20.7297 C   0  0  1  0  0  0  0  0  0  0  0  0
  -31.5450  -22.7190   17.9647 C   0  0  0  0  0  0  0  0  0  0  0  0
  -29.3137  -17.7732   22.2867 C   0  0  0  0  0  0  0  0  0  0  0  0
  -31.0225  -19.5407   21.8133 C   0  0  0  0  0  0  0  0  0  0  0  0
  -31.0094  -17.4322   20.4804 C   0  0  0  0  0  0  0  0  0  0  0  0
  -20.7746  -22.4920   23.6128 C   0  0  0  0  0  0  0  0  0  0  0  0
  -22.5935  -23.7230   24.8119 C   0  0  0  0  0  0  0  0  0  0  0  0
  -28.8188  -21.0082   15.9356 C   0  0  0  0  0  0  0  0  0  0  0  0
  -23.0366  -22.7407   22.5254 C   0  0  0  0  0  0  0  0  0  1  0  0
  -21.5356  -24.7553   22.7894 C   0  0  0  0  0  0  0  0  0  0  0  0
  -29.1905  -19.1474   20.1045 C   0  0  1  0  0  0  0  0  0  0  0  0
  -30.6180  -21.5794   17.5713 C   0  0  2  0  0  0  0  0  0  0  0  0
  -30.1063  -18.4789   21.1684 C   0  0  0  0  0  0  0  0  0  0  0  0
  -21.9868  -23.4249   23.4288 C   0  0  0  0  0  0  0  0  0  0  0  0
  -24.2767  -27.1331   18.3857 N   0  0  0  0  0  0  0  0  0  0  0  0
  -24.6188  -26.8857   19.6615 N   0  0  0  0  0  0  0  0  0  0  0  0
  -20.4454  -28.7934   22.1693 N   0  0  0  0  0  0  0  0  0  0  0  0
  -26.8801  -18.4169   19.6023 N   0  0  0  0  0  0  0  0  0  0  0  0
  -22.5921  -29.6023   21.4384 N   0  0  0  0  0  0  0  0  0  0  0  0
  -25.6976  -25.3029   21.0550 N   0  0  0  0  0  0  0  0  0  0  0  0
  -26.0120  -23.4580   16.9448 N   0  0  0  0  0  0  0  0  0  0  0  0
  -25.3150  -15.2509   20.1090 N   0  0  0  0  0  0  0  0  0  0  0  0
  -29.9139  -19.8003   19.0187 N   0  0  0  0  0  0  0  0  0  0  0  0
  -29.7638  -22.0379   16.4394 N   0  3  0  0  0  0  0  0  0  0  0  0
  -26.5162  -23.1619   19.1622 O   0  0  0  0  0  0  0  0  0  0  0  0
  -25.5485  -17.1150   21.4848 O   0  0  0  0  0  0  0  0  0  0  0  0
  -28.7155  -17.2048   18.8290 O   0  0  0  0  0  0  0  0  0  0  0  0
  -29.0151  -21.9124   19.3481 O   0  0  0  0  0  0  0  0  0  0  0  0
  -20.8415  -31.0473   21.8474 O   0  0  0  0  0  0  0  0  0  0  0  0
  -24.0672  -25.6353   12.2001 O   0  0  0  0  0  0  0  0  0  0  0  0
  -22.4926  -22.4430   21.2452 O   0  0  0  0  0  0  0  0  0  1  0  0
  -20.5878  -25.4109   23.6001 O   0  0  0  0  0  0  0  0  0  0  0  0
  -28.4089  -24.0137    9.2127 F   0  0  0  0  0  0  0  0  0  0  0  0
  -25.1115  -27.2570   10.2196 F   0  0  0  0  0  0  0  0  0  0  0  0
  1  2  1  0  0  0  0
  1  5  2  0  0  0  0
  2  6  2  0  0  0  0
  3  8  2  0  0  0  0
  3 15  1  0  0  0  0
  4  9  1  0  0  0  0
  4 15  2  0  0  0  0
  5 17  1  0  0  0  0
  6 19  1  0  0  0  0
  7 10  2  0  0  0  0
  7 18  1  0  0  0  0
  8 21  1  0  0  0  0
  9 21  2  0  0  0  0
 10 22  1  0  0  0  0
 11 12  2  0  0  0  0
 11 23  1  0  0  0  0
 12 24  1  0  0  0  0
 13 20  1  0  0  0  0
 13 22  2  0  0  0  0
 14 24  2  0  0  0  0
 14 25  1  0  0  0  0
 15 26  1  0  0  0  0
 16 26  1  0  0  0  0
 16 27  2  0  0  0  0
 16 32  1  0  0  0  0
 17 19  2  0  0  0  0
 17 37  1  0  0  0  0
 18 20  2  0  0  0  0
 18 38  1  0  0  0  0
 19 47  1  0  0  0  0
 20 39  1  0  0  0  0
 21 78  1  0  0  0  0
 22 79  1  0  0  0  0
 23 25  2  0  0  0  0
 23 78  1  0  0  0  0
 24 81  1  0  0  0  0
 25 82  1  0  0  0  0
 26 63  2  0  0  0  0
 27 64  1  0  0  0  0
 27 68  1  0  0  0  0
 28 29  2  0  0  0  0
 28 31  1  0  0  0  0
 29 40  1  0  0  0  0
 30 31  2  0  0  0  0
 30 65  1  0  0  0  0
 31 80  1  0  0  0  0
 32 69  1  0  0  0  0
 32 73  2  0  0  0  0
 33 48  1  0  0  0  0
 33 70  1  0  0  0  0
 33 74  2  0  0  0  0
 34 59  1  0  0  0  0
 34 66  1  0  0  0  0
 34 75  2  0  0  0  0
 35 60  1  0  0  0  0
 35 71  1  0  0  0  0
 35 76  2  0  0  0  0
 36 65  1  0  0  0  0
 36 67  1  0  0  0  0
 36 77  2  0  0  0  0
 37 41  1  0  0  0  0
 38 48  1  0  0  0  0
 39 66  1  0  0  0  0
 40 65  1  0  0  0  0
 41 43  1  0  0  0  0
 42 44  1  0  0  0  0
 42 45  1  0  0  0  0
 43 47  1  0  0  0  0
 44 49  1  0  0  0  0
 45 67  1  0  0  0  0
 46 49  1  0  0  0  0
 46 67  1  0  0  0  0
 47 70  1  0  0  0  0
 48 66  1  0  0  0  0
 49 64  1  0  0  0  0
 50 60  1  0  0  0  0
 51 61  1  0  0  0  0
 52 61  1  0  0  0  0
 53 61  1  0  0  0  0
 54 62  1  0  0  0  0
 55 62  1  0  0  0  0
 56 72  1  0  0  0  0
 57 62  1  0  0  0  0
 57 79  1  0  0  0  0
 58 62  1  0  0  0  0
 58 80  1  0  0  0  0
 59 61  1  0  0  0  0
 59 71  1  0  0  0  0
 60 72  1  0  0  0  0
 63 64  1  0  0  0  0
M  CHG  1  72   1
M  ISO  4  36 100  57 101  65 100  79 101
M  END
> <Batch ID>
0137

> <Smiles>
CNC(C)C(=O)NC(C(=O)N1Cc2cc([101O:1][101CH2:1]C(C)(C)COC3=C[100N:0]([100C:0](=O)N4CCCC(n5nc(-c6ccc(Oc7ccc(F)cc7F)cc6)c(C(N)=O)c5N)C4)CC=C3)ccc2CC1C(=O)NC1CCCc2ccccc21)C(C)(C)C

> <Shape>
0.194

> <Color>
0.064

> <Negative vol penalty>
0.000

$$$$

  -OEChem-04052302423D

 87 96  0     1  0  0  0  0  0999 V2000
  -26.4525  -39.0226   20.6021 C   0  0  0  0  0  0  0  0  0  0  0  0
  -27.4944  -38.1146   20.7619 C   0  0  0  0  0  0  0  0  0  0  0  0
  -31.8700  -19.0809   21.2418 C   0  0  0  0  0  0  0  0  0  0  0  0
  -22.6468  -13.5449   22.5707 C   0  0  0  0  0  0  0  0  0  0  0  0
  -23.8528  -11.6062   23.3606 C   0  0  0  0  0  0  0  0  0  0  0  0
  -25.2923  -38.8918   21.3641 C   0  0  0  0  0  0  0  0  0  0  0  0
  -27.3771  -37.0759   21.6848 C   0  0  0  0  0  0  0  0  0  0  0  0
  -27.8918  -30.1966   19.6107 C   0  0  0  0  0  0  0  0  0  0  0  0
  -30.9486  -20.1278   21.2191 C   0  0  0  0  0  0  0  0  0  0  0  0
  -31.4679  -17.7903   20.8979 C   0  0  0  0  0  0  0  0  0  0  0  0
  -21.8520  -13.5174   23.7166 C   0  0  0  0  0  0  0  0  0  0  0  0
  -23.0580  -11.5786   24.5065 C   0  0  0  0  0  0  0  0  0  0  0  0
  -28.1884  -28.8634   19.3266 C   0  0  0  0  0  0  0  0  0  0  0  0
  -19.1928  -11.7733   24.8617 C   0  0  0  0  0  0  0  0  0  0  0  0
  -17.8175  -11.9396   24.6997 C   0  0  0  0  0  0  0  0  0  0  0  0
  -27.7125  -28.2580   21.6190 C   0  0  0  0  0  0  0  0  0  0  0  0
  -29.2228  -18.5934   20.5087 C   0  0  0  0  0  0  0  0  0  0  0  0
  -17.8901  -13.9059   26.1016 C   0  0  0  0  0  0  0  0  0  0  0  0
  -23.6472  -12.5893   22.3926 C   0  0  0  0  0  0  0  0  0  0  0  0
  -24.0380  -12.5035   19.8732 C   0  0  0  0  0  0  0  0  0  0  0  0
  -25.1568  -37.8452   22.2899 C   0  0  0  0  0  0  0  0  0  0  0  0
  -27.4891  -30.5635   20.8978 C   0  0  0  0  0  0  0  0  0  0  0  0
  -26.2145  -36.9318   22.4610 C   0  0  0  0  0  0  0  0  0  0  0  0
  -27.4021  -29.5899   21.9063 C   0  0  0  0  0  0  0  0  0  0  0  0
  -29.6250  -19.8841   20.8526 C   0  0  0  0  0  0  0  0  0  0  0  0
  -30.1443  -17.5465   20.5314 C   0  0  0  0  0  0  0  0  0  0  0  0
  -22.0576  -12.5343   24.6845 C   0  0  0  0  0  0  0  0  0  0  0  0
  -28.0992  -27.8966   20.3284 C   0  0  0  0  0  0  0  0  0  0  0  0
  -19.9169  -12.6733   25.6437 C   0  0  0  0  0  0  0  0  0  0  0  0
  -17.1661  -13.0059   25.3196 C   0  0  0  0  0  0  0  0  0  0  0  0
  -19.2655  -13.7396   26.2637 C   0  0  0  0  0  0  0  0  0  0  0  0
  -24.4682  -12.6168   21.2088 C   0  0  0  0  0  0  0  0  0  0  0  0
  -25.1916  -12.5890   19.1326 C   0  0  0  0  0  0  0  0  0  0  0  0
  -22.7141  -12.3361   19.3489 C   0  0  0  0  0  0  0  0  0  0  0  0
  -27.5345  -24.3321   19.9885 C   0  0  0  0  0  0  0  0  0  0  0  0
  -26.3905  -33.3155   23.1990 C   0  0  0  0  0  0  0  0  0  0  0  0
  -24.6633  -30.8657   23.8514 C   0  0  0  0  0  0  0  0  0  0  0  0
  -22.6932  -28.0834   23.9728 C   0  0  0  0  0  0  0  0  0  0  0  0
  -30.5237  -15.0847   20.1551 C   0  0  0  0  0  0  0  0  0  0  0  0
  -23.9029  -37.7725   23.1249 C   0  0  0  0  0  0  0  0  0  0  0  0
  -27.2191  -31.9976   21.2642 C   0  0  0  0  0  0  0  0  0  0  0  0
  -26.9981  -30.0362   23.2849 C   0  0  0  0  0  0  0  0  0  0  0  0
  -23.7066  -36.4239   23.8127 C   0  0  0  0  0  0  0  0  0  0  0  0
  -29.8839  -11.6668   19.3898 C   0  0  0  0  0  0  0  0  0  0  0  0
  -25.0036  -35.9678   24.4734 C   0  0  0  0  0  0  0  0  0  0  0  0
  -28.3822  -11.5137   19.6420 C   0  0  0  0  0  0  0  0  0  0  0  0
  -26.7103  -21.9360   19.7725 C   0  0  0  0  0  0  0  0  0  0  0  0
  -27.5286  -22.7660   21.9907 C   0  0  0  0  0  0  0  0  0  0  0  0
  -30.5349  -12.6117   20.3983 C   0  0  0  0  0  0  0  0  0  0  0  0
  -28.0494  -21.2341   19.5471 C   0  0  0  0  0  0  0  0  0  0  0  0
  -28.8641  -22.0578   21.7584 C   0  0  0  0  0  0  0  0  0  0  0  0
  -28.3957  -13.7763   20.7679 C   0  0  0  0  0  0  0  0  0  0  0  0
  -26.1149  -35.7771   23.4341 C   0  0  1  0  0  0  0  0  0  0  0  0
  -26.0895  -32.1540   22.2981 C   0  0  1  0  0  0  0  0  0  0  0  0
  -27.6841  -12.8846   19.7373 C   0  0  2  0  0  0  0  0  0  0  0  0
  -26.8219  -23.1675   20.6861 C   0  0  0  0  0  0  0  0  0  0  0  0
  -25.4314  -23.6424   21.0221 C   0  0  0  0  0  0  0  0  0  0  0  0
  -20.7179  -27.1198   25.1840 C   0  0  0  0  0  0  0  0  0  0  0  0
  -26.4314  -30.2898   26.2692 C   0  0  0  0  0  0  0  0  0  0  0  0
  -24.7653  -28.5645   26.9875 C   0  0  0  0  0  0  0  0  0  0  0  0
  -24.0873  -30.9598   26.8265 C   0  0  0  0  0  0  0  0  0  0  0  0
  -21.1111  -27.8909   21.4790 C   0  0  0  0  0  0  0  0  0  0  0  0
  -27.6993  -25.5997   20.7995 C   0  0  0  0  0  0  0  0  0  1  0  0
  -24.4814  -29.6381   24.7076 C   0  0  1  0  0  0  0  0  0  0  0  0
  -21.1844  -27.9166   23.9755 C   0  0  2  0  0  0  0  0  0  0  0  0
  -24.9535  -29.8616   26.1720 C   0  0  0  0  0  0  0  0  0  0  0  0
  -25.7917  -12.7629   21.3137 N   0  0  0  0  0  0  0  0  0  0  0  0
  -26.2031  -12.7420   20.0345 N   0  0  0  0  0  0  0  0  0  0  0  0
  -28.7001  -20.9356   20.8293 N   0  0  0  0  0  0  0  0  0  0  0  0
  -25.8930  -31.0034   23.1961 N   0  0  0  0  0  0  0  0  0  0  0  0
  -29.8233  -13.8913   20.4309 N   0  0  0  0  0  0  0  0  0  0  0  0
  -25.4291  -12.5474   17.8043 N   0  0  0  0  0  0  0  0  0  0  0  0
  -22.2274  -11.0345   19.1663 N   0  0  0  0  0  0  0  0  0  0  0  0
  -29.7361  -16.2351   20.1833 N   0  0  0  0  0  0  0  0  0  0  0  0
  -25.9334  -34.5297   22.7232 N   0  0  0  0  0  0  0  0  0  0  0  0
  -23.0783  -29.2581   24.5836 N   0  0  0  0  0  0  0  0  0  0  0  0
  -20.7396  -27.2056   22.7436 N   0  3  0  0  0  0  0  0  0  0  0  0
  -21.9905  -13.3117   19.0356 O   0  0  0  0  0  0  0  0  0  0  0  0
  -27.9449  -24.2304   18.8333 O   0  0  0  0  0  0  0  0  0  0  0  0
  -26.9918  -33.1253   24.2497 O   0  0  0  0  0  0  0  0  0  0  0  0
  -23.7438  -31.6849   23.7685 O   0  0  0  0  0  0  0  0  0  0  0  0
  -23.4543  -27.2528   23.4815 O   0  0  0  0  0  0  0  0  0  0  0  0
  -31.7274  -15.0831   19.8851 O   0  0  0  0  0  0  0  0  0  0  0  0
  -21.2824  -12.5073   25.8030 O   0  0  0  0  0  0  0  0  0  0  0  0
  -28.3859  -26.5961   20.0431 O   0  0  0  0  0  0  0  0  0  1  0  0
  -15.8455  -13.1663   25.1627 F   0  0  0  0  0  0  0  0  0  0  0  0
  -19.9559  -14.6081   27.0152 F   0  0  0  0  0  0  0  0  0  0  0  0
  1  2  1  0  0  0  0
  1  6  2  0  0  0  0
  2  7  2  0  0  0  0
  3  9  2  0  0  0  0
  3 10  1  0  0  0  0
  4 11  2  0  0  0  0
  4 19  1  0  0  0  0
  5 12  1  0  0  0  0
  5 19  2  0  0  0  0
  6 21  1  0  0  0  0
  7 23  1  0  0  0  0
  8 13  2  0  0  0  0
  8 22  1  0  0  0  0
  9 25  1  0  0  0  0
 10 26  2  0  0  0  0
 11 27  1  0  0  0  0
 12 27  2  0  0  0  0
 13 28  1  0  0  0  0
 14 15  2  0  0  0  0
 14 29  1  0  0  0  0
 15 30  1  0  0  0  0
 16 24  1  0  0  0  0
 16 28  2  0  0  0  0
 17 25  2  0  0  0  0
 17 26  1  0  0  0  0
 18 30  2  0  0  0  0
 18 31  1  0  0  0  0
 19 32  1  0  0  0  0
 20 32  1  0  0  0  0
 20 33  2  0  0  0  0
 20 34  1  0  0  0  0
 21 23  2  0  0  0  0
 21 40  1  0  0  0  0
 22 24  2  0  0  0  0
 22 41  1  0  0  0  0
 23 53  1  0  0  0  0
 24 42  1  0  0  0  0
 25 69  1  0  0  0  0
 26 74  1  0  0  0  0
 27 84  1  0  0  0  0
 28 85  1  0  0  0  0
 29 31  2  0  0  0  0
 29 84  1  0  0  0  0
 30 86  1  0  0  0  0
 31 87  1  0  0  0  0
 32 67  2  0  0  0  0
 33 68  1  0  0  0  0
 33 72  1  0  0  0  0
 34 73  1  0  0  0  0
 34 78  2  0  0  0  0
 35 56  1  0  0  0  0
 35 63  1  0  0  0  0
 35 79  2  0  0  0  0
 36 54  1  0  0  0  0
 36 75  1  0  0  0  0
 36 80  2  0  0  0  0
 37 64  1  0  0  0  0
 37 70  1  0  0  0  0
 37 81  2  0  0  0  0
 38 65  1  0  0  0  0
 38 76  1  0  0  0  0
 38 82  2  0  0  0  0
 39 71  1  0  0  0  0
 39 74  1  0  0  0  0
 39 83  2  0  0  0  0
 40 43  1  0  0  0  0
 41 54  1  0  0  0  0
 42 70  1  0  0  0  0
 43 45  1  0  0  0  0
 44 46  1  0  0  0  0
 44 49  1  0  0  0  0
 45 53  1  0  0  0  0
 46 55  1  0  0  0  0
 47 50  1  0  0  0  0
 47 56  1  0  0  0  0
 48 51  1  0  0  0  0
 48 56  1  0  0  0  0
 49 71  1  0  0  0  0
 50 69  1  0  0  0  0
 51 69  1  0  0  0  0
 52 55  1  0  0  0  0
 52 71  1  0  0  0  0
 53 75  1  0  0  0  0
 54 70  1  0  0  0  0
 55 68  1  0  0  0  0
 56 57  1  0  0  0  0
 58 65  1  0  0  0  0
 59 66  1  0  0  0  0
 60 66  1  0  0  0  0
 61 66  1  0  0  0  0
 62 77  1  0  0  0  0
 63 85  1  0  0  0  0
 64 66  1  0  0  0  0
 64 76  1  0  0  0  0
 65 77  1  0  0  0  0
 67 68  1  0  0  0  0
M  CHG  1  77   1
M  ISO  4  39 100  63 101  74 100  85 101
M  END
> <Batch ID>
0137

> <Smiles>
CNC(C)C(=O)NC(C(=O)N1Cc2cc([101O:1][101CH2:1]C(=O)C3(C)CCN(c4cccc([100NH:0][100C:0](=O)N5CCCC(n6nc(-c7ccc(Oc8ccc(F)cc8F)cc7)c(C(N)=O)c6N)C5)c4)CC3)ccc2CC1C(=O)NC1CCCc2ccccc21)C(C)(C)C

> <Shape>
0.286

> <Color>
0.091

> <Negative vol penalty>
0.000

$$$$

  -OEChem-04052302423D

 82 90  0     1  0  0  0  0  0999 V2000
  -24.5450   -6.5645   24.8134 C   0  0  0  0  0  0  0  0  0  0  0  0
  -25.6697   -7.3309   24.5252 C   0  0  0  0  0  0  0  0  0  0  0  0
  -24.7292  -31.1137   21.0533 C   0  0  0  0  0  0  0  0  0  0  0  0
  -25.0852  -29.8161   23.0600 C   0  0  0  0  0  0  0  0  0  0  0  0
  -23.4286   -6.6264   23.9805 C   0  0  0  0  0  0  0  0  0  0  0  0
  -25.6791   -8.1588   23.4032 C   0  0  0  0  0  0  0  0  0  0  0  0
  -28.4267  -13.6060   22.8703 C   0  0  0  0  0  0  0  0  0  0  0  0
  -30.7524  -20.7729   20.8133 C   0  0  0  0  0  0  0  0  0  0  0  0
  -29.9276  -21.8067   20.3701 C   0  0  0  0  0  0  0  0  0  0  0  0
  -24.0351  -32.0698   21.7947 C   0  0  0  0  0  0  0  0  0  0  0  0
  -24.3911  -30.7723   23.8014 C   0  0  0  0  0  0  0  0  0  0  0  0
  -29.6443  -13.9918   22.3113 C   0  0  0  0  0  0  0  0  0  0  0  0
  -22.4811  -35.0313   23.2193 C   0  0  0  0  0  0  0  0  0  0  0  0
  -22.7751  -36.3742   22.9828 C   0  0  0  0  0  0  0  0  0  0  0  0
  -28.5135  -14.5650   20.2590 C   0  0  0  0  0  0  0  0  0  0  0  0
  -28.2259  -20.1962   19.7803 C   0  0  0  0  0  0  0  0  0  0  0  0
  -25.0713  -35.9847   23.6251 C   0  0  0  0  0  0  0  0  0  0  0  0
  -25.2542  -29.9868   21.6860 C   0  0  0  0  0  0  0  0  0  0  0  0
  -27.3530  -28.9668   20.6552 C   0  0  0  0  0  0  0  0  0  0  0  0
  -23.4206   -7.4628   22.8531 C   0  0  0  0  0  0  0  0  0  0  0  0
  -27.2429  -13.6868   22.1229 C   0  0  0  0  0  0  0  0  0  0  0  0
  -24.5620   -8.2309   22.5537 C   0  0  0  0  0  0  0  0  0  0  0  0
  -27.2818  -14.1821   20.8117 C   0  0  0  0  0  0  0  0  0  0  0  0
  -30.3140  -19.4507   20.7400 C   0  0  0  0  0  0  0  0  0  0  0  0
  -28.6643  -21.5184   19.8536 C   0  0  0  0  0  0  0  0  0  0  0  0
  -23.8661  -31.8992   23.1687 C   0  0  0  0  0  0  0  0  0  0  0  0
  -29.6882  -14.4686   21.0045 C   0  0  0  0  0  0  0  0  0  0  0  0
  -23.4823  -34.1651   23.6588 C   0  0  0  0  0  0  0  0  0  0  0  0
  -24.0702  -36.8509   23.1856 C   0  0  0  0  0  0  0  0  0  0  0  0
  -29.0507  -19.1624   20.2235 C   0  0  0  0  0  0  0  0  0  0  0  0
  -24.7774  -34.6418   23.8617 C   0  0  0  0  0  0  0  0  0  0  0  0
  -25.9708  -28.9985   20.9206 C   0  0  0  0  0  0  0  0  0  0  0  0
  -27.5307  -27.8373   19.8943 C   0  0  0  0  0  0  0  0  0  0  0  0
  -28.3840  -29.8771   21.0603 C   0  0  0  0  0  0  0  0  0  0  0  0
  -25.0902  -11.5852   21.0968 C   0  0  0  0  0  0  0  0  0  0  0  0
  -23.5189  -14.2536   20.1309 C   0  0  0  0  0  0  0  0  0  0  0  0
  -23.6765  -17.5390   19.2209 C   0  0  0  0  0  0  0  0  0  0  0  0
  -26.5464  -22.4550   18.8620 C   0  0  0  0  0  0  0  0  0  0  0  0
  -22.2083   -7.4604   21.9560 C   0  0  0  0  0  0  0  0  0  0  0  0
  -25.9338  -13.2919   22.7495 C   0  0  0  0  0  0  0  0  0  0  0  0
  -26.0364  -14.3075   19.9741 C   0  0  0  0  0  0  0  0  0  0  0  0
  -22.1589   -8.6461   20.9957 C   0  0  0  0  0  0  0  0  0  0  0  0
  -24.1488  -24.8003   17.6668 C   0  0  0  0  0  0  0  0  0  0  0  0
  -23.5140   -8.8463   20.3246 C   0  0  0  0  0  0  0  0  0  0  0  0
  -24.5228  -26.0990   18.3849 C   0  0  0  0  0  0  0  0  0  0  0  0
  -24.3505  -23.5789   18.5619 C   0  0  0  0  0  0  0  0  0  0  0  0
  -26.0581  -24.7641   19.8843 C   0  0  0  0  0  0  0  0  0  0  0  0
  -24.6012   -9.1598   21.3596 C   0  0  1  0  0  0  0  0  0  0  0  0
  -24.8643  -12.9324   21.7227 C   0  0  1  0  0  0  0  0  0  0  0  0
  -25.9332  -26.0163   19.0010 C   0  0  2  0  0  0  0  0  0  0  0  0
  -22.2327  -19.4405   18.4482 C   0  0  0  0  0  0  0  0  0  0  0  0
  -23.3731  -13.0092   17.3488 C   0  0  0  0  0  0  0  0  0  0  0  0
  -22.8065  -15.2730   16.4421 C   0  0  0  0  0  0  0  0  0  0  0  0
  -21.2838  -14.1715   18.0825 C   0  0  0  0  0  0  0  0  0  0  0  0
  -24.3710  -19.1793   21.5844 C   0  0  0  0  0  0  0  0  0  0  0  0
  -31.2080  -18.3362   21.2220 C   0  0  0  0  0  0  0  0  0  0  0  0
  -31.8787  -17.5476   20.0917 C   0  0  0  0  0  0  0  0  0  0  0  0
  -32.7195  -16.3744   20.5973 C   0  0  0  0  0  0  0  0  0  0  0  0
  -31.8678  -15.3573   21.3446 C   0  0  0  0  0  0  0  0  0  1  0  0
  -23.5031  -15.0888   18.8735 C   0  0  1  0  0  0  0  0  0  0  0  0
  -22.8558  -18.7428   19.6473 C   0  0  2  0  0  0  0  0  0  0  0  0
  -22.7656  -14.3816   17.7016 C   0  0  0  0  0  0  0  0  0  0  0  0
  -25.3169  -27.9708   20.3727 N   0  0  0  0  0  0  0  0  0  0  0  0
  -26.2924  -27.2828   19.7553 N   0  0  0  0  0  0  0  0  0  0  0  0
  -24.7816  -13.9028   20.6292 N   0  0  0  0  0  0  0  0  0  0  0  0
  -25.7100  -23.5648   19.1062 N   0  0  0  0  0  0  0  0  0  0  0  0
  -28.6239  -27.2742   19.3371 N   0  0  0  0  0  0  0  0  0  0  0  0
  -28.0278  -30.9861   21.8397 N   0  0  0  0  0  0  0  0  0  0  0  0
  -27.8272  -22.5685   19.4015 N   0  0  0  0  0  0  0  0  0  0  0  0
  -24.5089  -10.5392   21.7877 N   0  0  0  0  0  0  0  0  0  0  0  0
  -22.9325  -16.3784   19.2471 N   0  0  0  0  0  0  0  0  0  0  0  0
  -23.7133  -19.7249   20.3692 N   0  3  0  0  0  0  0  0  0  0  0  0
  -29.5832  -29.7207   20.7268 O   0  0  0  0  0  0  0  0  0  0  0  0
  -25.7424  -11.5011   20.0627 O   0  0  0  0  0  0  0  0  0  0  0  0
  -22.4504  -13.9306   20.6558 O   0  0  0  0  0  0  0  0  0  0  0  0
  -24.8583  -17.6207   18.8935 O   0  0  0  0  0  0  0  0  0  0  0  0
  -26.1640  -21.4880   18.1982 O   0  0  0  0  0  0  0  0  0  0  0  0
  -23.1891  -32.8321   23.8925 O   0  0  0  0  0  0  0  0  0  0  0  0
  -30.8755  -14.8451   20.4562 O   0  0  0  0  0  0  0  0  0  1  0  0
  -24.3526  -38.1401   22.9570 F   0  0  0  0  0  0  0  0  0  0  0  0
  -28.6207  -17.8951   20.1491 F   0  0  0  0  0  0  0  0  0  0  0  0
  -25.7436  -33.8142   24.2827 F   0  0  0  0  0  0  0  0  0  0  0  0
  1  2  1  0  0  0  0
  1  5  2  0  0  0  0
  2  6  2  0  0  0  0
  3 10  2  0  0  0  0
  3 18  1  0  0  0  0
  4 11  1  0  0  0  0
  4 18  2  0  0  0  0
  5 20  1  0  0  0  0
  6 22  1  0  0  0  0
  7 12  2  0  0  0  0
  7 21  1  0  0  0  0
  8  9  2  0  0  0  0
  8 24  1  0  0  0  0
  9 25  1  0  0  0  0
 10 26  1  0  0  0  0
 11 26  2  0  0  0  0
 12 27  1  0  0  0  0
 13 14  2  0  0  0  0
 13 28  1  0  0  0  0
 14 29  1  0  0  0  0
 15 23  1  0  0  0  0
 15 27  2  0  0  0  0
 16 25  2  0  0  0  0
 16 30  1  0  0  0  0
 17 29  2  0  0  0  0
 17 31  1  0  0  0  0
 18 32  1  0  0  0  0
 19 32  1  0  0  0  0
 19 33  2  0  0  0  0
 19 34  1  0  0  0  0
 20 22  2  0  0  0  0
 20 39  1  0  0  0  0
 21 23  2  0  0  0  0
 21 40  1  0  0  0  0
 22 48  1  0  0  0  0
 23 41  1  0  0  0  0
 24 30  2  0  0  0  0
 24 56  1  0  0  0  0
 25 69  1  0  0  0  0
 26 78  1  0  0  0  0
 27 79  1  0  0  0  0
 28 31  2  0  0  0  0
 28 78  1  0  0  0  0
 29 80  1  0  0  0  0
 30 81  1  0  0  0  0
 31 82  1  0  0  0  0
 32 63  2  0  0  0  0
 33 64  1  0  0  0  0
 33 67  1  0  0  0  0
 34 68  1  0  0  0  0
 34 73  2  0  0  0  0
 35 49  1  0  0  0  0
 35 70  1  0  0  0  0
 35 74  2  0  0  0  0
 36 60  1  0  0  0  0
 36 65  1  0  0  0  0
 36 75  2  0  0  0  0
 37 61  1  0  0  0  0
 37 71  1  0  0  0  0
 37 76  2  0  0  0  0
 38 66  1  0  0  0  0
 38 69  1  0  0  0  0
 38 77  2  0  0  0  0
 39 42  1  0  0  0  0
 40 49  1  0  0  0  0
 41 65  1  0  0  0  0
 42 44  1  0  0  0  0
 43 45  1  0  0  0  0
 43 46  1  0  0  0  0
 44 48  1  0  0  0  0
 45 50  1  0  0  0  0
 46 66  1  0  0  0  0
 47 50  1  0  0  0  0
 47 66  1  0  0  0  0
 48 70  1  0  0  0  0
 49 65  1  0  0  0  0
 50 64  1  0  0  0  0
 51 61  1  0  0  0  0
 52 62  1  0  0  0  0
 53 62  1  0  0  0  0
 54 62  1  0  0  0  0
 55 72  1  0  0  0  0
 56 57  1  0  0  0  0
 57 58  1  0  0  0  0
 58 59  1  0  0  0  0
 59 79  1  0  0  0  0
 60 62  1  0  0  0  0
 60 71  1  0  0  0  0
 61 72  1  0  0  0  0
 63 64  1  0  0  0  0
M  CHG  1  72   1
M  ISO  4  38 100  59 101  69 100  79 101
M  END
> <Batch ID>
0137

> <Smiles>
CNC(C)C(=O)NC(C(=O)N1Cc2cc([101O:1][101CH2:1]CCCc3ccc([100NH:0][100C:0](=O)N4CCCC(n5nc(-c6ccc(Oc7ccc(F)cc7F)cc6)c(C(N)=O)c5N)C4)cc3F)ccc2CC1C(=O)NC1CCCc2ccccc21)C(C)(C)C

> <Shape>
0.276

> <Color>
0.080

> <Negative vol penalty>
0.000

$$$$

  -OEChem-04052302423D

 88 96  0     1  0  0  0  0  0999 V2000
  -26.8414  -22.6303   18.5159 C   0  0  0  0  0  0  0  0  0  0  0  0
  -25.6951  -23.2069   19.0532 C   0  0  0  0  0  0  0  0  0  0  0  0
  -26.6589  -13.1029   20.4458 C   0  0  0  0  0  0  0  0  0  0  0  0
  -24.5044  -14.1926   20.5333 C   0  0  0  0  0  0  0  0  0  0  0  0
  -28.0966  -22.9930   19.0026 C   0  0  0  0  0  0  0  0  0  0  0  0
  -25.8032  -24.1459   20.0784 C   0  0  0  0  0  0  0  0  0  0  0  0
  -22.8142  -28.1687   19.3515 C   0  0  0  0  0  0  0  0  0  0  0  0
  -26.0446  -11.8704   20.6675 C   0  0  0  0  0  0  0  0  0  0  0  0
  -23.8901  -12.9601   20.7550 C   0  0  0  0  0  0  0  0  0  0  0  0
  -21.4595  -28.0165   19.6436 C   0  0  0  0  0  0  0  0  0  0  0  0
  -21.7162  -10.0550   20.9847 C   0  0  0  0  0  0  0  0  0  0  0  0
  -20.5606   -9.7658   20.2592 C   0  0  0  0  0  0  0  0  0  0  0  0
  -21.7993  -29.1158   21.7638 C   0  0  0  0  0  0  0  0  0  0  0  0
  -21.7999   -9.9868   18.1970 C   0  0  0  0  0  0  0  0  0  0  0  0
  -22.6116  -22.8619   22.7585 C   0  0  0  0  0  0  0  0  0  0  0  0
  -25.8889  -14.2640   20.3787 C   0  0  0  0  0  0  0  0  0  0  0  0
  -27.2971  -15.9141   19.0364 C   0  0  0  0  0  0  0  0  0  0  0  0
  -28.2207  -23.9441   20.0276 C   0  0  0  0  0  0  0  0  0  0  0  0
  -23.6752  -28.7870   20.2696 C   0  0  0  0  0  0  0  0  0  0  0  0
  -27.0611  -24.5207   20.5802 C   0  0  0  0  0  0  0  0  0  0  0  0
  -23.1640  -29.2770   21.4798 C   0  0  0  0  0  0  0  0  0  0  0  0
  -21.9995  -21.7546   20.7446 C   0  0  0  0  0  0  0  0  0  0  0  0
  -20.7585  -22.3777   20.8151 C   0  0  0  0  0  0  0  0  0  0  0  0
  -22.9493  -21.9959   21.7309 C   0  0  0  0  0  0  0  0  0  0  0  0
  -24.6602  -11.7990   20.8221 C   0  0  0  0  0  0  0  0  0  0  0  0
  -20.9524  -28.4874   20.8511 C   0  0  0  0  0  0  0  0  0  0  0  0
  -22.9137  -10.3103   20.3164 C   0  0  0  0  0  0  0  0  0  0  0  0
  -20.6024   -9.7316   18.8653 C   0  0  0  0  0  0  0  0  0  0  0  0
  -22.9556  -10.2761   18.9226 C   0  0  0  0  0  0  0  0  0  0  0  0
  -26.5230  -15.5376   20.1503 C   0  0  0  0  0  0  0  0  0  0  0  0
  -20.5188  -23.2263   21.8837 C   0  0  0  0  0  0  0  0  0  0  0  0
  -27.6660  -17.2112   19.2973 C   0  0  0  0  0  0  0  0  0  0  0  0
  -27.6509  -15.1590   17.8701 C   0  0  0  0  0  0  0  0  0  0  0  0
  -26.2409  -27.8704   21.9069 C   0  0  0  0  0  0  0  0  0  0  0  0
  -18.1724  -25.9880   22.0695 C   0  0  0  0  0  0  0  0  0  0  0  0
  -26.3287  -30.9972   22.7659 C   0  0  0  0  0  0  0  0  0  0  0  0
  -24.6401  -33.9309   23.2004 C   0  0  0  0  0  0  0  0  0  0  0  0
  -25.2596  -21.5480   22.6300 C   0  0  0  0  0  0  0  0  0  0  0  0
  -29.5963  -24.2693   20.5536 C   0  0  0  0  0  0  0  0  0  0  0  0
  -25.1289  -28.9674   19.9280 C   0  0  0  0  0  0  0  0  0  0  0  0
  -24.0425  -29.9663   22.4906 C   0  0  0  0  0  0  0  0  0  0  0  0
  -29.6439  -25.5490   21.3844 C   0  0  0  0  0  0  0  0  0  0  0  0
  -28.5388  -20.1957   22.9394 C   0  0  0  0  0  0  0  0  0  0  0  0
  -28.4963  -25.5763   22.3890 C   0  0  0  0  0  0  0  0  0  0  0  0
  -28.4661  -18.8850   22.1528 C   0  0  0  0  0  0  0  0  0  0  0  0
  -27.2382  -20.4804   23.6885 C   0  0  0  0  0  0  0  0  0  0  0  0
  -25.9523  -19.1338   22.0753 C   0  0  0  0  0  0  0  0  0  0  0  0
  -27.1387  -25.5614   21.6762 C   0  0  1  0  0  0  0  0  0  0  0  0
  -26.0130  -29.1526   21.1574 C   0  0  1  0  0  0  0  0  0  0  0  0
  -27.2163  -18.8368   21.2521 C   0  0  2  0  0  0  0  0  0  0  0  0
  -22.3091  -20.8288   19.6110 C   0  0  0  0  0  0  0  0  0  0  0  0
  -19.9954  -22.9117   18.4872 C   0  0  0  0  0  0  0  0  0  0  0  0
  -24.2952  -36.3704   23.6767 C   0  0  0  0  0  0  0  0  0  0  0  0
  -16.8216  -28.1056   21.9271 C   0  0  0  0  0  0  0  0  0  0  0  0
  -17.6008  -27.3027   24.1539 C   0  0  0  0  0  0  0  0  0  0  0  0
  -26.3969  -30.0677   25.6713 C   0  0  0  0  0  0  0  0  0  0  0  0
  -25.7740  -32.3936   26.3571 C   0  0  0  0  0  0  0  0  0  0  0  0
  -27.9195  -31.9827   25.1526 C   0  0  0  0  0  0  0  0  0  0  0  0
  -25.0676  -34.6638   20.3651 C   0  0  0  0  0  0  0  0  0  0  0  0
  -19.7149  -22.1426   19.7754 C   0  0  0  0  0  0  0  0  0  0  0  0
  -19.2935  -25.1245   22.6263 C   0  0  0  0  0  0  0  0  0  0  0  0
  -19.2765  -28.2064   22.5150 C   0  0  0  0  0  0  0  0  0  1  0  0
  -25.7364  -31.8145   23.8885 C   0  0  1  0  0  0  0  0  0  0  0  0
  -24.9574  -35.3499   22.7642 C   0  0  2  0  0  0  0  0  0  0  0  0
  -17.9741  -27.3996   22.6671 C   0  0  0  0  0  0  0  0  0  0  0  0
  -26.4403  -31.5500   25.2494 C   0  0  0  0  0  0  0  0  0  0  0  0
  -21.4166  -23.4855   22.8607 N   0  0  0  0  0  0  0  0  0  0  0  0
  -26.4064  -16.5162   21.0518 N   0  0  0  0  0  0  0  0  0  0  0  0
  -27.1123  -17.5205   20.5048 N   0  0  0  0  0  0  0  0  0  0  0  0
  -25.4580  -30.1130   22.1133 N   0  0  0  0  0  0  0  0  0  0  0  0
  -26.0982  -20.4221   22.7710 N   0  0  0  0  0  0  0  0  0  0  0  0
  -28.4068  -18.1058   18.6094 N   0  0  0  0  0  0  0  0  0  0  0  0
  -26.8004  -15.2106   16.7573 N   0  0  0  0  0  0  0  0  0  0  0  0
  -24.2283  -21.3866   21.7054 N   0  0  0  0  0  0  0  0  0  0  0  0
  -26.8289  -26.8740   21.1513 N   0  0  0  0  0  0  0  0  0  0  0  0
  -25.7856  -33.2053   23.4507 N   0  0  0  0  0  0  0  0  0  0  0  0
  -24.4786  -35.5832   21.3724 N   0  3  0  0  0  0  0  0  0  0  0  0
  -28.6821  -14.4463   17.8222 O   0  0  0  0  0  0  0  0  0  0  0  0
  -25.9093  -27.7915   23.0839 O   0  0  0  0  0  0  0  0  0  0  0  0
  -17.4685  -25.5765   21.1439 O   0  0  0  0  0  0  0  0  0  0  0  0
  -27.5183  -31.1432   22.4740 O   0  0  0  0  0  0  0  0  0  0  0  0
  -23.4910  -33.5094   23.3118 O   0  0  0  0  0  0  0  0  0  0  0  0
  -25.4591  -22.5889   23.2614 O   0  0  0  0  0  0  0  0  0  0  0  0
  -24.0603  -10.5965   21.0382 O   0  0  0  0  0  0  0  0  0  0  0  0
  -19.6306  -28.3395   21.1390 O   0  0  0  0  0  0  0  0  0  1  0  0
  -19.3053  -23.8613   21.9904 O   0  0  0  0  0  0  0  0  0  0  0  0
  -19.4930   -9.4523   18.1688 F   0  0  0  0  0  0  0  0  0  0  0  0
  -24.1033  -10.5193   18.2751 F   0  0  0  0  0  0  0  0  0  0  0  0
  1  2  1  0  0  0  0
  1  5  2  0  0  0  0
  2  6  2  0  0  0  0
  3  8  2  0  0  0  0
  3 16  1  0  0  0  0
  4  9  1  0  0  0  0
  4 16  2  0  0  0  0
  5 18  1  0  0  0  0
  6 20  1  0  0  0  0
  7 10  2  0  0  0  0
  7 19  1  0  0  0  0
  8 25  1  0  0  0  0
  9 25  2  0  0  0  0
 10 26  1  0  0  0  0
 11 12  2  0  0  0  0
 11 27  1  0  0  0  0
 12 28  1  0  0  0  0
 13 21  1  0  0  0  0
 13 26  2  0  0  0  0
 14 28  2  0  0  0  0
 14 29  1  0  0  0  0
 15 24  2  0  0  0  0
 15 67  1  0  0  0  0
 16 30  1  0  0  0  0
 17 30  1  0  0  0  0
 17 32  2  0  0  0  0
 17 33  1  0  0  0  0
 18 20  2  0  0  0  0
 18 39  1  0  0  0  0
 19 21  2  0  0  0  0
 19 40  1  0  0  0  0
 20 48  1  0  0  0  0
 21 41  1  0  0  0  0
 22 23  2  0  0  0  0
 22 24  1  0  0  0  0
 22 51  1  0  0  0  0
 23 31  1  0  0  0  0
 23 60  1  0  0  0  0
 24 74  1  0  0  0  0
 25 84  1  0  0  0  0
 26 85  1  0  0  0  0
 27 29  2  0  0  0  0
 27 84  1  0  0  0  0
 28 87  1  0  0  0  0
 29 88  1  0  0  0  0
 30 68  2  0  0  0  0
 31 67  2  0  0  0  0
 31 86  1  0  0  0  0
 32 69  1  0  0  0  0
 32 72  1  0  0  0  0
 33 73  1  0  0  0  0
 33 78  2  0  0  0  0
 34 49  1  0  0  0  0
 34 75  1  0  0  0  0
 34 79  2  0  0  0  0
 35 61  1  0  0  0  0
 35 65  1  0  0  0  0
 35 80  2  0  0  0  0
 36 63  1  0  0  0  0
 36 70  1  0  0  0  0
 36 81  2  0  0  0  0
 37 64  1  0  0  0  0
 37 76  1  0  0  0  0
 37 82  2  0  0  0  0
 38 71  1  0  0  0  0
 38 74  1  0  0  0  0
 38 83  2  0  0  0  0
 39 42  1  0  0  0  0
 40 49  1  0  0  0  0
 41 70  1  0  0  0  0
 42 44  1  0  0  0  0
 43 45  1  0  0  0  0
 43 46  1  0  0  0  0
 44 48  1  0  0  0  0
 45 50  1  0  0  0  0
 46 71  1  0  0  0  0
 47 50  1  0  0  0  0
 47 71  1  0  0  0  0
 48 75  1  0  0  0  0
 49 70  1  0  0  0  0
 50 69  1  0  0  0  0
 52 60  1  0  0  0  0
 53 64  1  0  0  0  0
 54 65  1  0  0  0  0
 55 65  1  0  0  0  0
 56 66  1  0  0  0  0
 57 66  1  0  0  0  0
 58 66  1  0  0  0  0
 59 77  1  0  0  0  0
 61 86  1  0  0  0  0
 62 65  1  0  0  0  0
 62 85  1  0  0  0  0
 63 66  1  0  0  0  0
 63 76  1  0  0  0  0
 64 77  1  0  0  0  0
 68 69  1  0  0  0  0
M  CHG  1  77   1
M  ISO  4  38 100  62 101  74 100  85 101
M  END
> <Batch ID>
0137

> <Smiles>
CCc1c(OCC(=O)C(C)(C)[101CH2:1][101O:1]c2ccc3c(c2)CN(C(=O)C(NC(=O)C(C)NC)C(C)(C)C)C(C(=O)NC2CCCc4ccccc42)C3)ncc([100NH:0][100C:0](=O)N2CCCC(n3nc(-c4ccc(Oc5ccc(F)cc5F)cc4)c(C(N)=O)c3N)C2)c1C

> <Shape>
0.258

> <Color>
0.051

> <Negative vol penalty>
0.000

$$$$

  -OEChem-04052302423D

 85 93  0     1  0  0  0  0  0999 V2000
  -29.3352  -21.5389   18.4486 C   0  0  0  0  0  0  0  0  0  0  0  0
  -28.0664  -21.9636   18.8294 C   0  0  0  0  0  0  0  0  0  0  0  0
  -27.6321  -14.4318   22.2608 C   0  0  0  0  0  0  0  0  0  0  0  0
  -26.1662  -15.4776   20.6500 C   0  0  0  0  0  0  0  0  0  0  0  0
  -21.1458  -23.0306   21.8943 C   0  0  0  0  0  0  0  0  0  0  0  0
  -30.4652  -22.1277   19.0146 C   0  0  0  0  0  0  0  0  0  0  0  0
  -27.9268  -22.9767   19.7774 C   0  0  0  0  0  0  0  0  0  0  0  0
  -24.4586  -26.4183   18.4462 C   0  0  0  0  0  0  0  0  0  0  0  0
  -22.3825  -22.4965   22.2559 C   0  0  0  0  0  0  0  0  0  0  0  0
  -27.1736  -13.1761   21.8629 C   0  0  0  0  0  0  0  0  0  0  0  0
  -25.7077  -14.2218   20.2520 C   0  0  0  0  0  0  0  0  0  0  0  0
  -23.1193  -26.0752   18.6262 C   0  0  0  0  0  0  0  0  0  0  0  0
  -26.1252   -9.7110   21.5200 C   0  0  0  0  0  0  0  0  0  0  0  0
  -25.8105   -8.7878   22.5172 C   0  0  0  0  0  0  0  0  0  0  0  0
  -23.0713  -27.3587   20.6682 C   0  0  0  0  0  0  0  0  0  0  0  0
  -21.9130  -22.9798   24.5760 C   0  0  0  0  0  0  0  0  0  0  0  0
  -24.1471  -10.3039   23.3958 C   0  0  0  0  0  0  0  0  0  0  0  0
  -27.1284  -15.5826   21.6545 C   0  0  0  0  0  0  0  0  0  0  0  0
  -20.2927  -23.5395   22.8736 C   0  0  0  0  0  0  0  0  0  0  0  0
  -28.6925  -17.5943   21.5357 C   0  0  0  0  0  0  0  0  0  0  0  0
  -30.3395  -23.1552   19.9628 C   0  0  0  0  0  0  0  0  0  0  0  0
  -25.1184  -27.2266   19.3830 C   0  0  0  0  0  0  0  0  0  0  0  0
  -29.0562  -23.5789   20.3576 C   0  0  0  0  0  0  0  0  0  0  0  0
  -24.4182  -27.7128   20.4963 C   0  0  0  0  0  0  0  0  0  0  0  0
  -22.7661  -22.4710   23.5967 C   0  0  0  0  0  0  0  0  0  0  0  0
  -26.2115  -13.0710   20.8585 C   0  0  0  0  0  0  0  0  0  0  0  0
  -22.4262  -26.5430   19.7388 C   0  0  0  0  0  0  0  0  0  0  0  0
  -25.4510  -10.9306   21.4608 C   0  0  0  0  0  0  0  0  0  0  0  0
  -24.8214   -9.0843   23.4550 C   0  0  0  0  0  0  0  0  0  0  0  0
  -20.6763  -23.5140   24.2144 C   0  0  0  0  0  0  0  0  0  0  0  0
  -24.4619  -11.2271   22.3986 C   0  0  0  0  0  0  0  0  0  0  0  0
  -27.6012  -16.8802   22.0655 C   0  0  0  0  0  0  0  0  0  0  0  0
  -28.7250  -18.7599   22.2616 C   0  0  0  0  0  0  0  0  0  0  0  0
  -18.9769  -24.1103   22.4833 C   0  0  0  0  0  0  0  0  0  0  0  0
  -29.5960  -17.2362   20.4816 C   0  0  0  0  0  0  0  0  0  0  0  0
  -27.6112  -26.8414   21.3172 C   0  0  0  0  0  0  0  0  0  0  0  0
  -27.1404  -29.9949   21.9139 C   0  0  0  0  0  0  0  0  0  0  0  0
  -24.9953  -32.6490   21.9448 C   0  0  0  0  0  0  0  0  0  0  0  0
  -24.5560  -21.8267   25.2482 C   0  0  0  0  0  0  0  0  0  0  0  0
  -31.5896  -23.7287   20.5818 C   0  0  0  0  0  0  0  0  0  0  0  0
  -26.5558  -27.6096   19.1604 C   0  0  0  0  0  0  0  0  0  0  0  0
  -25.0751  -28.6002   21.5207 C   0  0  0  0  0  0  0  0  0  0  0  0
  -31.3593  -25.0545   21.3026 C   0  0  0  0  0  0  0  0  0  0  0  0
  -27.5944  -20.5220   26.5686 C   0  0  0  0  0  0  0  0  0  0  0  0
  -30.1238  -24.9703   22.1933 C   0  0  0  0  0  0  0  0  0  0  0  0
  -28.0434  -19.5095   25.5126 C   0  0  0  0  0  0  0  0  0  0  0  0
  -26.0755  -20.5358   26.7315 C   0  0  0  0  0  0  0  0  0  0  0  0
  -25.7683  -19.7107   24.4306 C   0  0  0  0  0  0  0  0  0  0  0  0
  -28.8640  -24.6922   21.3644 C   0  0  1  0  0  0  0  0  0  0  0  0
  -27.2715  -28.0166   20.4447 C   0  0  1  0  0  0  0  0  0  0  0  0
  -27.2860  -19.7066   24.1848 C   0  0  2  0  0  0  0  0  0  0  0  0
  -24.8895  -35.0899   22.5179 C   0  0  0  0  0  0  0  0  0  0  0  0
  -27.0492  -29.2916   24.8816 C   0  0  0  0  0  0  0  0  0  0  0  0
  -26.0175  -31.5323   25.3095 C   0  0  0  0  0  0  0  0  0  0  0  0
  -28.3123  -31.3819   24.3432 C   0  0  0  0  0  0  0  0  0  0  0  0
  -18.2842  -26.8582   19.8450 C   0  0  0  0  0  0  0  0  0  0  0  0
  -18.3175  -26.9669   22.3377 C   0  0  0  0  0  0  0  0  0  0  0  0
  -24.3136  -33.3918   19.1622 C   0  0  0  0  0  0  0  0  0  0  0  0
  -18.7929  -24.7725   21.1199 C   0  0  0  0  0  0  0  0  0  0  0  0
  -20.4703  -26.7235   21.0796 C   0  0  0  0  0  0  0  0  0  1  0  0
  -26.3204  -30.7846   22.9053 C   0  0  1  0  0  0  0  0  0  0  0  0
  -25.1391  -34.0666   21.4210 C   0  0  2  0  0  0  0  0  0  0  0  0
  -26.9127  -30.7293   24.3418 C   0  0  0  0  0  0  0  0  0  0  0  0
  -18.9818  -26.3145   21.1121 C   0  0  0  0  0  0  0  0  0  0  0  0
  -26.9850  -17.5370   23.0519 N   0  0  0  0  0  0  0  0  0  0  0  0
  -17.9861  -24.0541   23.3169 N   0  0  0  0  0  0  0  0  0  0  0  0
  -27.6917  -18.6761   23.1477 N   0  0  0  0  0  0  0  0  0  0  0  0
  -26.4837  -28.9416   21.2620 N   0  0  0  0  0  0  0  0  0  0  0  0
  -25.4255  -20.7310   25.4337 N   0  0  0  0  0  0  0  0  0  0  0  0
  -29.5365  -19.8380   22.2219 N   0  0  0  0  0  0  0  0  0  0  0  0
  -29.4202  -16.0019   19.8415 N   0  0  0  0  0  0  0  0  0  0  0  0
  -24.0225  -21.9283   23.9638 N   0  0  0  0  0  0  0  0  0  0  0  0
  -28.4163  -25.9001   20.7048 N   0  0  0  0  0  0  0  0  0  0  0  0
  -26.2049  -32.1321   22.3581 N   0  0  0  0  0  0  0  0  0  0  0  0
  -24.1668  -34.3126   20.3187 N   0  3  0  0  0  0  0  0  0  0  0  0
  -30.5416  -17.9813   20.1293 O   0  0  0  0  0  0  0  0  0  0  0  0
  -27.1763  -26.7931   22.4619 O   0  0  0  0  0  0  0  0  0  0  0  0
  -28.3182  -30.3059   21.7196 O   0  0  0  0  0  0  0  0  0  0  0  0
  -23.9171  -32.0606   21.9868 O   0  0  0  0  0  0  0  0  0  0  0  0
  -24.3247  -22.6321   26.1536 O   0  0  0  0  0  0  0  0  0  0  0  0
  -25.7640  -11.8458   20.4697 O   0  0  0  0  0  0  0  0  0  0  0  0
  -21.1191  -26.2091   19.9174 O   0  0  0  0  0  0  0  0  0  1  0  0
  -24.5182   -8.1971   24.4116 F   0  0  0  0  0  0  0  0  0  0  0  0
  -19.8645  -24.0006   25.1641 F   0  0  0  0  0  0  0  0  0  0  0  0
  -23.8099  -12.3967   22.3460 F   0  0  0  0  0  0  0  0  0  0  0  0
  1  2  1  0  0  0  0
  1  6  2  0  0  0  0
  2  7  2  0  0  0  0
  3 10  2  0  0  0  0
  3 18  1  0  0  0  0
  4 11  1  0  0  0  0
  4 18  2  0  0  0  0
  5  9  2  0  0  0  0
  5 19  1  0  0  0  0
  6 21  1  0  0  0  0
  7 23  1  0  0  0  0
  8 12  2  0  0  0  0
  8 22  1  0  0  0  0
  9 25  1  0  0  0  0
 10 26  1  0  0  0  0
 11 26  2  0  0  0  0
 12 27  1  0  0  0  0
 13 14  2  0  0  0  0
 13 28  1  0  0  0  0
 14 29  1  0  0  0  0
 15 24  1  0  0  0  0
 15 27  2  0  0  0  0
 16 25  2  0  0  0  0
 16 30  1  0  0  0  0
 17 29  2  0  0  0  0
 17 31  1  0  0  0  0
 18 32  1  0  0  0  0
 19 30  2  0  0  0  0
 19 34  1  0  0  0  0
 20 32  1  0  0  0  0
 20 33  2  0  0  0  0
 20 35  1  0  0  0  0
 21 23  2  0  0  0  0
 21 40  1  0  0  0  0
 22 24  2  0  0  0  0
 22 41  1  0  0  0  0
 23 49  1  0  0  0  0
 24 42  1  0  0  0  0
 25 72  1  0  0  0  0
 26 81  1  0  0  0  0
 27 82  1  0  0  0  0
 28 31  2  0  0  0  0
 28 81  1  0  0  0  0
 29 83  1  0  0  0  0
 30 84  1  0  0  0  0
 31 85  1  0  0  0  0
 32 65  2  0  0  0  0
 33 67  1  0  0  0  0
 33 70  1  0  0  0  0
 34 59  1  0  0  0  0
 34 66  2  0  0  0  0
 35 71  1  0  0  0  0
 35 76  2  0  0  0  0
 36 50  1  0  0  0  0
 36 73  1  0  0  0  0
 36 77  2  0  0  0  0
 37 61  1  0  0  0  0
 37 68  1  0  0  0  0
 37 78  2  0  0  0  0
 38 62  1  0  0  0  0
 38 74  1  0  0  0  0
 38 79  2  0  0  0  0
 39 69  1  0  0  0  0
 39 72  1  0  0  0  0
 39 80  2  0  0  0  0
 40 43  1  0  0  0  0
 41 50  1  0  0  0  0
 42 68  1  0  0  0  0
 43 45  1  0  0  0  0
 44 46  1  0  0  0  0
 44 47  1  0  0  0  0
 45 49  1  0  0  0  0
 46 51  1  0  0  0  0
 47 69  1  0  0  0  0
 48 51  1  0  0  0  0
 48 69  1  0  0  0  0
 49 73  1  0  0  0  0
 50 68  1  0  0  0  0
 51 67  1  0  0  0  0
 52 62  1  0  0  0  0
 53 63  1  0  0  0  0
 54 63  1  0  0  0  0
 55 63  1  0  0  0  0
 56 64  1  0  0  0  0
 57 64  1  0  0  0  0
 58 75  1  0  0  0  0
 59 64  1  0  0  0  0
 60 64  1  0  0  0  0
 60 82  1  0  0  0  0
 61 63  1  0  0  0  0
 61 74  1  0  0  0  0
 62 75  1  0  0  0  0
 65 67  1  0  0  0  0
M  CHG  1  75   1
M  ISO  4  39 100  60 101  72 100  82 101
M  END
> <Batch ID>
0137

> <Smiles>
CNC(C)C(=O)NC(C(=O)N1Cc2cc([101O:1][101CH2:1]C(C)(C)CC(=N)c3ccc([100NH:0][100C:0](=O)N4CCCC(n5nc(-c6ccc(Oc7ccc(F)cc7F)cc6)c(C(N)=O)c5N)C4)cc3F)ccc2CC1C(=O)NC1CCCc2ccccc21)C(C)(C)C

> <Shape>
0.226

> <Color>
0.056

> <Negative vol penalty>
0.000

$$$$

  -OEChem-04052302423D

 84 92  0     1  0  0  0  0  0999 V2000
  -16.7715  -28.9302   23.8661 C   0  0  0  0  0  0  0  0  0  0  0  0
  -17.3679  -28.3066   22.7748 C   0  0  0  0  0  0  0  0  0  0  0  0
  -27.7477  -21.1750   14.9737 C   0  0  0  0  0  0  0  0  0  0  0  0
  -26.0803  -12.7590   21.4951 C   0  0  0  0  0  0  0  0  0  0  0  0
  -26.0343  -13.1956   19.1193 C   0  0  0  0  0  0  0  0  0  0  0  0
  -17.3785  -30.0411   24.4503 C   0  0  0  0  0  0  0  0  0  0  0  0
  -18.5712  -28.7943   22.2664 C   0  0  0  0  0  0  0  0  0  0  0  0
  -21.9019  -25.1080   21.2855 C   0  0  0  0  0  0  0  0  0  0  0  0
  -27.3813  -22.5106   15.1398 C   0  0  0  0  0  0  0  0  0  0  0  0
  -28.1734  -20.4269   16.0714 C   0  0  0  0  0  0  0  0  0  0  0  0
  -24.9285  -11.9816   21.3745 C   0  0  0  0  0  0  0  0  0  0  0  0
  -24.8826  -12.4181   18.9987 C   0  0  0  0  0  0  0  0  0  0  0  0
  -21.7132  -24.3741   20.1152 C   0  0  0  0  0  0  0  0  0  0  0  0
  -24.1271   -8.8572   20.3604 C   0  0  0  0  0  0  0  0  0  0  0  0
  -24.1016   -7.6294   21.0218 C   0  0  0  0  0  0  0  0  0  0  0  0
  -23.4111  -25.6932   19.0214 C   0  0  0  0  0  0  0  0  0  0  0  0
  -27.8665  -22.3501   17.5012 C   0  0  0  0  0  0  0  0  0  0  0  0
  -22.1813   -8.3555   22.2955 C   0  0  0  0  0  0  0  0  0  0  0  0
  -26.6332  -13.3661   20.3674 C   0  0  0  0  0  0  0  0  0  0  0  0
  -29.1574  -13.7349   20.3855 C   0  0  0  0  0  0  0  0  0  0  0  0
  -18.5949  -30.5368   23.9548 C   0  0  0  0  0  0  0  0  0  0  0  0
  -22.8406  -26.1488   21.3294 C   0  0  0  0  0  0  0  0  0  0  0  0
  -19.1944  -29.9137   22.8436 C   0  0  0  0  0  0  0  0  0  0  0  0
  -23.6117  -26.4370   20.1943 C   0  0  0  0  0  0  0  0  0  0  0  0
  -27.4407  -23.0981   16.4035 C   0  0  0  0  0  0  0  0  0  0  0  0
  -28.2329  -21.0144   17.3351 C   0  0  0  0  0  0  0  0  0  0  0  0
  -24.3297  -11.8111   20.1264 C   0  0  0  0  0  0  0  0  0  0  0  0
  -22.4658  -24.6686   18.9820 C   0  0  0  0  0  0  0  0  0  0  0  0
  -23.1797   -9.8341   20.6665 C   0  0  0  0  0  0  0  0  0  0  0  0
  -23.1287   -7.3785   21.9893 C   0  0  0  0  0  0  0  0  0  0  0  0
  -22.2068   -9.5833   21.6340 C   0  0  0  0  0  0  0  0  0  0  0  0
  -27.8227  -14.1698   20.4914 C   0  0  0  0  0  0  0  0  0  0  0  0
  -29.9050  -14.8707   20.5788 C   0  0  0  0  0  0  0  0  0  0  0  0
  -29.6751  -12.4216   20.1346 C   0  0  0  0  0  0  0  0  0  0  0  0
  -22.6913  -29.2843   21.8295 C   0  0  0  0  0  0  0  0  0  0  0  0
  -25.9261  -29.0584   21.7434 C   0  0  0  0  0  0  0  0  0  0  0  0
  -28.6838  -27.3450   20.6916 C   0  0  0  0  0  0  0  0  0  0  0  0
  -28.7817  -20.6838   19.7714 C   0  0  0  0  0  0  0  0  0  0  0  0
  -19.1891  -31.7690   24.5897 C   0  0  0  0  0  0  0  0  0  0  0  0
  -23.0511  -26.9134   22.6075 C   0  0  0  0  0  0  0  0  0  0  0  0
  -24.6467  -27.5312   20.1955 C   0  0  0  0  0  0  0  0  0  0  0  0
  -20.6542  -31.9955   24.2256 C   0  0  0  0  0  0  0  0  0  0  0  0
  -29.7711  -19.1077   22.8069 C   0  0  0  0  0  0  0  0  0  0  0  0
  -20.8642  -31.8225   22.7247 C   0  0  0  0  0  0  0  0  0  0  0  0
  -29.5109  -17.6224   22.5458 C   0  0  0  0  0  0  0  0  0  0  0  0
  -28.7087  -19.9924   22.1572 C   0  0  0  0  0  0  0  0  0  0  0  0
  -28.2330  -18.2680   20.4632 C   0  0  0  0  0  0  0  0  0  0  0  0
  -20.5123  -30.3981   22.2790 C   0  0  1  0  0  0  0  0  0  0  0  0
  -23.6708  -28.2896   22.3853 C   0  0  1  0  0  0  0  0  0  0  0  0
  -29.3131  -17.3405   21.0434 C   0  0  2  0  0  0  0  0  0  0  0  0
  -27.9840  -25.4691   15.7937 C   0  0  0  0  0  0  0  0  0  0  0  0
  -31.1914  -27.4259   20.7428 C   0  0  0  0  0  0  0  0  0  0  0  0
  -25.8969  -31.2416   19.6121 C   0  0  0  0  0  0  0  0  0  0  0  0
  -28.2512  -30.6140   19.0362 C   0  0  0  0  0  0  0  0  0  0  0  0
  -27.7129  -31.4715   21.3161 C   0  0  0  0  0  0  0  0  0  0  0  0
  -22.8023  -25.7693   16.3550 C   0  0  0  0  0  0  0  0  0  0  0  0
  -22.6965  -23.3967   15.5483 C   0  0  0  0  0  0  0  0  0  0  0  0
  -28.8528  -24.7717   22.1437 C   0  0  0  0  0  0  0  0  0  0  0  0
  -25.5719  -24.8324   16.1965 C   0  0  0  0  0  0  0  0  0  0  0  0
  -24.5681  -24.0731   17.0817 C   0  0  0  0  0  0  0  0  0  0  0  0
  -27.0416  -24.5527   16.5838 C   0  0  1  0  0  0  0  0  0  0  0  0
  -26.9754  -29.1436   20.6614 C   0  0  1  0  0  0  0  0  0  0  0  0
  -29.9370  -26.9045   21.4264 C   0  0  2  0  0  0  0  0  0  0  0  0
  -27.1883  -30.5983   20.1555 C   0  0  0  0  0  0  0  0  0  0  0  0
  -23.0883  -24.3097   16.7150 C   0  0  0  0  0  0  0  0  0  1  0  0
  -27.7249  -15.4797   20.7335 N   0  0  0  0  0  0  0  0  0  0  0  0
  -29.0076  -15.8777   20.7813 N   0  0  0  0  0  0  0  0  0  0  0  0
  -24.8111  -28.2545   21.4673 N   0  0  0  0  0  0  0  0  0  0  0  0
  -28.5795  -19.6721   20.7339 N   0  0  0  0  0  0  0  0  0  0  0  0
  -31.2359  -15.0964   20.5938 N   0  0  0  0  0  0  0  0  0  0  0  0
  -28.7677  -11.3679   19.9593 N   0  0  0  0  0  0  0  0  0  0  0  0
  -28.6648  -20.2540   18.4500 N   0  0  0  0  0  0  0  0  0  0  0  0
  -21.5785  -29.4825   22.6243 N   0  0  0  0  0  0  0  0  0  0  0  0
  -28.1757  -28.5188   21.2066 N   0  0  0  0  0  0  0  0  0  0  0  0
  -30.0124  -25.4170   21.4761 N   0  3  0  0  0  0  0  0  0  0  0  0
  -30.9062  -12.1864   20.0842 O   0  0  0  0  0  0  0  0  0  0  0  0
  -22.9284  -29.8326   20.7595 O   0  0  0  0  0  0  0  0  0  0  0  0
  -26.0932  -29.6765   22.7978 O   0  0  0  0  0  0  0  0  0  0  0  0
  -28.2057  -26.7131   19.7521 O   0  0  0  0  0  0  0  0  0  0  0  0
  -29.0665  -21.8397   20.0949 O   0  0  0  0  0  0  0  0  0  0  0  0
  -23.2059  -11.0523   20.0083 O   0  0  0  0  0  0  0  0  0  0  0  0
  -22.2831  -23.9543   17.8382 O   0  0  0  0  0  0  0  0  0  1  0  0
  -23.1034   -6.1989   22.6234 F   0  0  0  0  0  0  0  0  0  0  0  0
  -21.2933  -10.5175   21.9315 F   0  0  0  0  0  0  0  0  0  0  0  0
  1  2  1  0  0  0  0
  1  6  2  0  0  0  0
  2  7  2  0  0  0  0
  3  9  2  0  0  0  0
  3 10  1  0  0  0  0
  4 11  2  0  0  0  0
  4 19  1  0  0  0  0
  5 12  1  0  0  0  0
  5 19  2  0  0  0  0
  6 21  1  0  0  0  0
  7 23  1  0  0  0  0
  8 13  2  0  0  0  0
  8 22  1  0  0  0  0
  9 25  1  0  0  0  0
 10 26  2  0  0  0  0
 11 27  1  0  0  0  0
 12 27  2  0  0  0  0
 13 28  1  0  0  0  0
 14 15  2  0  0  0  0
 14 29  1  0  0  0  0
 15 30  1  0  0  0  0
 16 24  1  0  0  0  0
 16 28  2  0  0  0  0
 17 25  2  0  0  0  0
 17 26  1  0  0  0  0
 18 30  2  0  0  0  0
 18 31  1  0  0  0  0
 19 32  1  0  0  0  0
 20 32  1  0  0  0  0
 20 33  2  0  0  0  0
 20 34  1  0  0  0  0
 21 23  2  0  0  0  0
 21 39  1  0  0  0  0
 22 24  2  0  0  0  0
 22 40  1  0  0  0  0
 23 48  1  0  0  0  0
 24 41  1  0  0  0  0
 25 61  1  0  0  0  0
 26 72  1  0  0  0  0
 27 81  1  0  0  0  0
 28 82  1  0  0  0  0
 29 31  2  0  0  0  0
 29 81  1  0  0  0  0
 30 83  1  0  0  0  0
 31 84  1  0  0  0  0
 32 66  2  0  0  0  0
 33 67  1  0  0  0  0
 33 70  1  0  0  0  0
 34 71  1  0  0  0  0
 34 76  2  0  0  0  0
 35 49  1  0  0  0  0
 35 73  1  0  0  0  0
 35 77  2  0  0  0  0
 36 62  1  0  0  0  0
 36 68  1  0  0  0  0
 36 78  2  0  0  0  0
 37 63  1  0  0  0  0
 37 74  1  0  0  0  0
 37 79  2  0  0  0  0
 38 69  1  0  0  0  0
 38 72  1  0  0  0  0
 38 80  2  0  0  0  0
 39 42  1  0  0  0  0
 40 49  1  0  0  0  0
 41 68  1  0  0  0  0
 42 44  1  0  0  0  0
 43 45  1  0  0  0  0
 43 46  1  0  0  0  0
 44 48  1  0  0  0  0
 45 50  1  0  0  0  0
 46 69  1  0  0  0  0
 47 50  1  0  0  0  0
 47 69  1  0  0  0  0
 48 73  1  0  0  0  0
 49 68  1  0  0  0  0
 50 67  1  0  0  0  0
 51 61  1  0  0  0  0
 52 63  1  0  0  0  0
 53 64  1  0  0  0  0
 54 64  1  0  0  0  0
 55 64  1  0  0  0  0
 56 65  1  0  0  0  0
 57 65  1  0  0  0  0
 58 75  1  0  0  0  0
 59 60  1  0  0  0  0
 59 61  1  0  0  0  0
 60 65  1  0  0  0  0
 62 64  1  0  0  0  0
 62 74  1  0  0  0  0
 63 75  1  0  0  0  0
 65 82  1  0  0  0  0
 66 67  1  0  0  0  0
M  CHG  1  75   1
M  ISO  4  38 100  65 101  72 100  82 101
M  END
> <Batch ID>
0137

> <Smiles>
CNC(C)C(=O)NC(C(=O)N1Cc2cc([101O:1][101C:1](C)(C)CCC(C)c3cccc([100NH:0][100C:0](=O)N4CCCC(n5nc(-c6ccc(Oc7ccc(F)cc7F)cc6)c(C(N)=O)c5N)C4)c3)ccc2CC1C(=O)NC1CCCc2ccccc21)C(C)(C)C

> <Shape>
0.288

> <Color>
0.096

> <Negative vol penalty>
0.000

$$$$

  -OEChem-04052302423D

 86 94  0     1  0  0  0  0  0999 V2000
  -24.8233  -18.6359   17.8764 C   0  0  0  0  0  0  0  0  0  0  0  0
  -25.7114  -18.2924   18.8907 C   0  0  0  0  0  0  0  0  0  0  0  0
  -23.0754   -9.8687   19.9404 C   0  0  0  0  0  0  0  0  0  0  0  0
  -23.8352   -9.8746   22.2338 C   0  0  0  0  0  0  0  0  0  0  0  0
  -32.6559  -17.4866   23.4533 C   0  0  0  0  0  0  0  0  0  0  0  0
  -23.9465  -19.7056   18.0519 C   0  0  0  0  0  0  0  0  0  0  0  0
  -25.7240  -19.0192   20.0807 C   0  0  0  0  0  0  0  0  0  0  0  0
  -26.8176  -16.8558   25.7046 C   0  0  0  0  0  0  0  0  0  0  0  0
  -32.0653  -16.6036   22.5494 C   0  0  0  0  0  0  0  0  0  0  0  0
  -22.3311   -8.7157   20.1900 C   0  0  0  0  0  0  0  0  0  0  0  0
  -23.0909   -8.7216   22.4834 C   0  0  0  0  0  0  0  0  0  0  0  0
  -27.9617  -16.8498   26.5013 C   0  0  0  0  0  0  0  0  0  0  0  0
  -21.1049   -5.9848   23.8190 C   0  0  0  0  0  0  0  0  0  0  0  0
  -20.3486   -5.9411   24.9902 C   0  0  0  0  0  0  0  0  0  0  0  0
  -30.4745  -18.3395   24.0457 C   0  0  0  0  0  0  0  0  0  0  0  0
  -27.1885  -18.8444   27.6162 C   0  0  0  0  0  0  0  0  0  0  0  0
  -19.1047   -7.8791   24.2592 C   0  0  0  0  0  0  0  0  0  0  0  0
  -23.8275  -10.4481   20.9623 C   0  0  0  0  0  0  0  0  0  0  0  0
  -31.8605  -18.3545   24.2015 C   0  0  0  0  0  0  0  0  0  0  0  0
  -24.1703  -12.9732   20.8432 C   0  0  0  0  0  0  0  0  0  0  0  0
  -23.9417  -20.4398   19.2483 C   0  0  0  0  0  0  0  0  0  0  0  0
  -25.8539  -17.8640   25.8506 C   0  0  0  0  0  0  0  0  0  0  0  0
  -24.8472  -20.1006   20.2717 C   0  0  0  0  0  0  0  0  0  0  0  0
  -26.0318  -18.8594   26.8219 C   0  0  0  0  0  0  0  0  0  0  0  0
  -30.6792  -16.5886   22.3936 C   0  0  0  0  0  0  0  0  0  0  0  0
  -22.3388   -8.1422   21.4614 C   0  0  0  0  0  0  0  0  0  0  0  0
  -28.1488  -17.8459   27.4552 C   0  0  0  0  0  0  0  0  0  0  0  0
  -20.8612   -6.9757   22.8680 C   0  0  0  0  0  0  0  0  0  0  0  0
  -19.3485   -6.8882   25.2103 C   0  0  0  0  0  0  0  0  0  0  0  0
  -29.8838  -17.4565   23.1418 C   0  0  0  0  0  0  0  0  0  0  0  0
  -19.8611   -7.9228   23.0881 C   0  0  0  0  0  0  0  0  0  0  0  0
  -24.5971  -11.6388   20.7050 C   0  0  0  0  0  0  0  0  0  0  0  0
  -25.2628  -13.7224   20.4802 C   0  0  0  0  0  0  0  0  0  0  0  0
  -32.4919  -19.2983   25.1674 C   0  0  0  0  0  0  0  0  0  0  0  0
  -22.9000  -13.4893   21.2622 C   0  0  0  0  0  0  0  0  0  0  0  0
  -24.6821  -20.1371   23.9629 C   0  0  0  0  0  0  0  0  0  0  0  0
  -22.6531  -20.6126   26.4487 C   0  0  0  0  0  0  0  0  0  0  0  0
  -22.0437  -20.2989   29.7919 C   0  0  0  0  0  0  0  0  0  0  0  0
  -30.7293  -14.7658   20.6554 C   0  0  0  0  0  0  0  0  0  0  0  0
  -23.0081  -21.6177   19.3734 C   0  0  0  0  0  0  0  0  0  0  0  0
  -24.6124  -17.8411   25.0018 C   0  0  0  0  0  0  0  0  0  0  0  0
  -25.0173  -19.9527   27.0321 C   0  0  0  0  0  0  0  0  0  0  0  0
  -22.8267  -22.1013   20.8099 C   0  0  0  0  0  0  0  0  0  0  0  0
  -29.6141  -12.3532   18.2863 C   0  0  0  0  0  0  0  0  0  0  0  0
  -24.1773  -22.2134   21.5100 C   0  0  0  0  0  0  0  0  0  0  0  0
  -28.1743  -12.0620   18.7157 C   0  0  0  0  0  0  0  0  0  0  0  0
  -30.5293  -12.5813   19.4880 C   0  0  0  0  0  0  0  0  0  0  0  0
  -28.6225  -13.3060   20.8695 C   0  0  0  0  0  0  0  0  0  0  0  0
  -24.8738  -20.8494   21.5866 C   0  0  1  0  0  0  0  0  0  0  0  0
  -23.9439  -19.2074   24.8839 C   0  0  1  0  0  0  0  0  0  0  0  0
  -27.6497  -13.1335   19.6916 C   0  0  2  0  0  0  0  0  0  0  0  0
  -20.3142  -20.8137   31.5358 C   0  0  0  0  0  0  0  0  0  0  0  0
  -23.4847  -23.5480   26.4033 C   0  0  0  0  0  0  0  0  0  0  0  0
  -22.4964  -23.7912   28.6907 C   0  0  0  0  0  0  0  0  0  0  0  0
  -21.0405  -23.1616   26.7655 C   0  0  0  0  0  0  0  0  0  0  0  0
  -31.5987  -18.0096   29.9653 C   0  0  0  0  0  0  0  0  0  0  0  0
  -31.7433  -20.4451   29.4287 C   0  0  0  0  0  0  0  0  0  0  0  0
  -21.6995  -17.4368   30.4619 C   0  0  0  0  0  0  0  0  0  0  0  0
  -31.7437  -19.7353   26.4190 C   0  0  0  0  0  0  0  0  0  0  0  0
  -32.0500  -18.7871   27.5825 C   0  0  0  0  0  0  0  0  0  0  0  0
  -29.7481  -19.1087   28.6814 C   0  0  0  0  0  0  0  0  0  1  0  0
  -22.6696  -21.4657   27.6940 C   0  0  1  0  0  0  0  0  0  0  0  0
  -20.8364  -19.7789   30.5512 C   0  0  2  0  0  0  0  0  0  0  0  0
  -22.4430  -22.9722   27.3833 C   0  0  0  0  0  0  0  0  0  0  0  0
  -31.2761  -19.0719   28.8996 C   0  0  0  0  0  0  0  0  0  0  0  0
  -25.8619  -11.5426   20.2867 N   0  0  0  0  0  0  0  0  0  0  0  0
  -33.6839  -19.7571   24.9464 N   0  0  0  0  0  0  0  0  0  0  0  0
  -26.2393  -12.8261   20.1589 N   0  0  0  0  0  0  0  0  0  0  0  0
  -23.8231  -19.8906   26.1733 N   0  0  0  0  0  0  0  0  0  0  0  0
  -29.9706  -13.6120   20.3658 N   0  0  0  0  0  0  0  0  0  0  0  0
  -25.4737  -15.0538   20.4076 N   0  0  0  0  0  0  0  0  0  0  0  0
  -21.8878  -12.5804   21.5992 N   0  0  0  0  0  0  0  0  0  0  0  0
  -30.0823  -15.6908   21.4741 N   0  0  0  0  0  0  0  0  0  0  0  0
  -24.2939  -20.0441   22.6399 N   0  0  0  0  0  0  0  0  0  0  0  0
  -21.6819  -20.8870   28.5984 N   0  0  0  0  0  0  0  0  0  0  0  0
  -21.1928  -18.5465   31.3096 N   0  3  0  0  0  0  0  0  0  0  0  0
  -22.6642  -14.7200   21.3200 O   0  0  0  0  0  0  0  0  0  0  0  0
  -25.5394  -20.8846   24.4189 O   0  0  0  0  0  0  0  0  0  0  0  0
  -21.6370  -20.5821   25.7499 O   0  0  0  0  0  0  0  0  0  0  0  0
  -23.1924  -20.1970   30.2168 O   0  0  0  0  0  0  0  0  0  0  0  0
  -31.8585  -14.9343   20.1879 O   0  0  0  0  0  0  0  0  0  0  0  0
  -21.6124   -7.0173   21.7054 O   0  0  0  0  0  0  0  0  0  0  0  0
  -29.2650  -17.8428   28.2337 O   0  0  0  0  0  0  0  0  0  1  0  0
  -18.6212   -6.8452   26.3343 F   0  0  0  0  0  0  0  0  0  0  0  0
  -28.5504  -17.4514   23.0001 F   0  0  0  0  0  0  0  0  0  0  0  0
  -19.6216   -8.8764   22.1775 F   0  0  0  0  0  0  0  0  0  0  0  0
  1  2  1  0  0  0  0
  1  6  2  0  0  0  0
  2  7  2  0  0  0  0
  3 10  2  0  0  0  0
  3 18  1  0  0  0  0
  4 11  1  0  0  0  0
  4 18  2  0  0  0  0
  5  9  2  0  0  0  0
  5 19  1  0  0  0  0
  6 21  1  0  0  0  0
  7 23  1  0  0  0  0
  8 12  2  0  0  0  0
  8 22  1  0  0  0  0
  9 25  1  0  0  0  0
 10 26  1  0  0  0  0
 11 26  2  0  0  0  0
 12 27  1  0  0  0  0
 13 14  2  0  0  0  0
 13 28  1  0  0  0  0
 14 29  1  0  0  0  0
 15 19  2  0  0  0  0
 15 30  1  0  0  0  0
 16 24  1  0  0  0  0
 16 27  2  0  0  0  0
 17 29  2  0  0  0  0
 17 31  1  0  0  0  0
 18 32  1  0  0  0  0
 19 34  1  0  0  0  0
 20 32  1  0  0  0  0
 20 33  2  0  0  0  0
 20 35  1  0  0  0  0
 21 23  2  0  0  0  0
 21 40  1  0  0  0  0
 22 24  2  0  0  0  0
 22 41  1  0  0  0  0
 23 49  1  0  0  0  0
 24 42  1  0  0  0  0
 25 30  2  0  0  0  0
 25 73  1  0  0  0  0
 26 82  1  0  0  0  0
 27 83  1  0  0  0  0
 28 31  2  0  0  0  0
 28 82  1  0  0  0  0
 29 84  1  0  0  0  0
 30 85  1  0  0  0  0
 31 86  1  0  0  0  0
 32 66  2  0  0  0  0
 33 68  1  0  0  0  0
 33 71  1  0  0  0  0
 34 59  1  0  0  0  0
 34 67  2  0  0  0  0
 35 72  1  0  0  0  0
 35 77  2  0  0  0  0
 36 50  1  0  0  0  0
 36 74  1  0  0  0  0
 36 78  2  0  0  0  0
 37 62  1  0  0  0  0
 37 69  1  0  0  0  0
 37 79  2  0  0  0  0
 38 63  1  0  0  0  0
 38 75  1  0  0  0  0
 38 80  2  0  0  0  0
 39 70  1  0  0  0  0
 39 73  1  0  0  0  0
 39 81  2  0  0  0  0
 40 43  1  0  0  0  0
 41 50  1  0  0  0  0
 42 69  1  0  0  0  0
 43 45  1  0  0  0  0
 44 46  1  0  0  0  0
 44 47  1  0  0  0  0
 45 49  1  0  0  0  0
 46 51  1  0  0  0  0
 47 70  1  0  0  0  0
 48 51  1  0  0  0  0
 48 70  1  0  0  0  0
 49 74  1  0  0  0  0
 50 69  1  0  0  0  0
 51 68  1  0  0  0  0
 52 63  1  0  0  0  0
 53 64  1  0  0  0  0
 54 64  1  0  0  0  0
 55 64  1  0  0  0  0
 56 65  1  0  0  0  0
 57 65  1  0  0  0  0
 58 76  1  0  0  0  0
 59 60  1  0  0  0  0
 60 65  1  0  0  0  0
 61 65  1  0  0  0  0
 61 83  1  0  0  0  0
 62 64  1  0  0  0  0
 62 75  1  0  0  0  0
 63 76  1  0  0  0  0
 66 68  1  0  0  0  0
M  CHG  1  76   1
M  ISO  4  39 100  61 101  73 100  83 101
M  END
> <Batch ID>
0137

> <Smiles>
CNC(C)C(=O)NC(C(=O)N1Cc2cc([101O:1][101CH2:1]C(C)(C)CCC(=N)c3ccc([100NH:0][100C:0](=O)N4CCCC(n5nc(-c6ccc(Oc7ccc(F)cc7F)cc6)c(C(N)=O)c5N)C4)c(F)c3)ccc2CC1C(=O)NC1CCCc2ccccc21)C(C)(C)C

> <Shape>
0.162

> <Color>
0.188

> <Negative vol penalty>
0.000

$$$$

  -OEChem-04052302423D

 86 95  0     1  0  0  0  0  0999 V2000
  -17.1882  -25.0715   24.4168 C   0  0  0  0  0  0  0  0  0  0  0  0
  -17.9575  -24.1843   23.6708 C   0  0  0  0  0  0  0  0  0  0  0  0
  -25.8182  -15.6884   21.1999 C   0  0  0  0  0  0  0  0  0  0  0  0
  -26.9545  -15.2538   19.1126 C   0  0  0  0  0  0  0  0  0  0  0  0
  -17.3885  -26.4452   24.2876 C   0  0  0  0  0  0  0  0  0  0  0  0
  -18.9270  -24.6705   22.7943 C   0  0  0  0  0  0  0  0  0  0  0  0
  -26.5770  -23.1277   22.4428 C   0  0  0  0  0  0  0  0  0  0  0  0
  -28.1720  -25.2518   13.1326 C   0  0  0  0  0  0  0  0  0  0  0  0
  -27.3447  -24.5817   14.0337 C   0  0  0  0  0  0  0  0  0  0  0  0
  -25.6346  -14.3182   21.3853 C   0  0  0  0  0  0  0  0  0  0  0  0
  -26.7710  -13.8835   19.2980 C   0  0  0  0  0  0  0  0  0  0  0  0
  -27.9688  -23.0557   22.3798 C   0  0  0  0  0  0  0  0  0  0  0  0
  -23.5613  -11.9061   20.2419 C   0  0  0  0  0  0  0  0  0  0  0  0
  -22.3025  -11.4719   20.6574 C   0  0  0  0  0  0  0  0  0  0  0  0
  -30.1057  -24.6126   14.4323 C   0  0  0  0  0  0  0  0  0  0  0  0
  -28.0482  -25.2586   21.3853 C   0  0  0  0  0  0  0  0  0  0  0  0
  -23.2880  -10.5182   22.6465 C   0  0  0  0  0  0  0  0  0  0  0  0
  -26.4781  -16.1562   20.0635 C   0  0  0  0  0  0  0  0  0  0  0  0
  -27.7584  -18.3497   20.3028 C   0  0  0  0  0  0  0  0  0  0  0  0
  -18.3675  -26.9481   23.4163 C   0  0  0  0  0  0  0  0  0  0  0  0
  -25.9158  -24.2731   21.9909 C   0  0  0  0  0  0  0  0  0  0  0  0
  -19.1397  -26.0523   22.6524 C   0  0  0  0  0  0  0  0  0  0  0  0
  -29.2784  -23.9425   15.3335 C   0  0  0  0  0  0  0  0  0  0  0  0
  -26.6551  -25.3415   21.4574 C   0  0  0  0  0  0  0  0  0  0  0  0
  -29.5525  -25.2672   13.3318 C   0  0  0  0  0  0  0  0  0  0  0  0
  -27.8979  -23.9270   15.1342 C   0  0  0  0  0  0  0  0  0  0  0  0
  -26.1111  -13.4157   20.4344 C   0  0  0  0  0  0  0  0  0  0  0  0
  -28.7025  -24.1185   21.8521 C   0  0  0  0  0  0  0  0  0  0  0  0
  -24.6835  -11.6462   21.0286 C   0  0  0  0  0  0  0  0  0  0  0  0
  -22.1659  -10.7781   21.8597 C   0  0  0  0  0  0  0  0  0  0  0  0
  -24.5468  -10.9524   22.2309 C   0  0  0  0  0  0  0  0  0  0  0  0
  -26.6675  -17.5716   19.8711 C   0  0  0  0  0  0  0  0  0  0  0  0
  -27.4631  -19.6214   19.8763 C   0  0  0  0  0  0  0  0  0  0  0  0
  -31.0941  -23.4447   18.5855 C   0  0  0  0  0  0  0  0  0  0  0  0
  -31.3777  -23.7283   19.8611 C   0  0  0  0  0  0  0  0  0  0  0  0
  -28.9336  -17.9579   21.0247 C   0  0  0  0  0  0  0  0  0  0  0  0
  -22.6437  -26.0362   21.4800 C   0  0  0  0  0  0  0  0  0  0  0  0
  -24.6429  -28.1389   22.4759 C   0  0  0  0  0  0  0  0  0  0  0  0
  -27.0307  -30.0510   23.9858 C   0  0  0  0  0  0  0  0  0  0  0  0
  -25.6514  -23.1511   15.9695 C   0  0  0  0  0  0  0  0  0  0  0  0
  -18.5152  -28.4424   23.2752 C   0  0  0  0  0  0  0  0  0  0  0  0
  -24.4143  -24.3691   21.9828 C   0  0  0  0  0  0  0  0  0  0  0  0
  -25.8991  -26.5395   20.9514 C   0  0  0  0  0  0  0  0  0  0  0  0
  -31.8040  -22.4106   17.7635 C   0  0  0  0  0  0  0  0  0  0  0  0
  -30.0242  -24.1235   17.7770 C   0  0  0  0  0  0  0  0  0  0  0  0
  -19.8190  -28.8649   22.6030 C   0  0  0  0  0  0  0  0  0  0  0  0
  -31.3475  -22.7340   16.3452 C   0  0  0  0  0  0  0  0  0  0  0  0
  -23.1854  -21.5486   17.9765 C   0  0  0  0  0  0  0  0  0  0  0  0
  -20.0726  -28.0251   21.3550 C   0  0  0  0  0  0  0  0  0  0  0  0
  -23.9612  -20.4351   18.6838 C   0  0  0  0  0  0  0  0  0  0  0  0
  -23.6747  -21.7595   16.5448 C   0  0  0  0  0  0  0  0  0  0  0  0
  -25.8966  -20.8615   17.1156 C   0  0  0  0  0  0  0  0  0  0  0  0
  -29.9065  -23.2411   16.5200 C   0  0  2  0  0  0  0  0  0  0  0  0
  -20.2180  -26.5403   21.7094 C   0  0  1  0  0  0  0  0  0  0  0  0
  -23.8990  -25.7919   22.2648 C   0  0  1  0  0  0  0  0  0  0  0  0
  -25.4832  -20.6563   18.5821 C   0  0  2  0  0  0  0  0  0  0  0  0
  -30.4366  -25.9843   12.3684 C   0  0  0  0  0  0  0  0  0  0  0  0
  -31.6079  -25.8191   21.3471 C   0  0  0  0  0  0  0  0  0  0  0  0
  -27.4443  -32.3739   24.8406 C   0  0  0  0  0  0  0  0  0  0  0  0
  -24.9994  -29.1254   19.6117 C   0  0  0  0  0  0  0  0  0  0  0  0
  -26.2917  -31.0691   20.5173 C   0  0  0  0  0  0  0  0  0  0  0  0
  -23.8984  -30.7616   21.1496 C   0  0  0  0  0  0  0  0  0  0  0  0
  -27.4620  -29.0824   26.7489 C   0  0  0  0  0  0  0  0  0  0  0  0
  -30.7078  -24.7485   20.7388 C   0  0  2  0  0  0  0  0  0  1  0  0
  -25.6440  -29.2056   22.1105 C   0  0  1  0  0  0  0  0  0  0  0  0
  -26.9705  -30.9719   25.1911 C   0  0  2  0  0  0  0  0  0  0  0  0
  -25.2165  -30.0138   20.8530 C   0  0  0  0  0  0  0  0  0  0  0  0
  -25.7478  -18.2890   19.2204 N   0  0  0  0  0  0  0  0  0  0  0  0
  -26.2600  -19.5313   19.2401 N   0  0  0  0  0  0  0  0  0  0  0  0
  -24.8152  -26.8810   21.8858 N   0  0  0  0  0  0  0  0  0  0  0  0
  -25.1243  -21.9668   16.5269 N   0  0  0  0  0  0  0  0  0  0  0  0
  -28.1178  -20.7968   19.9871 N   0  0  0  0  0  0  0  0  0  0  0  0
  -29.0785  -16.6112   21.3849 N   0  0  0  0  0  0  0  0  0  0  0  0
  -27.0406  -23.2520   16.0382 N   0  0  0  0  0  0  0  0  0  0  0  0
  -21.5300  -26.2785   22.2613 N   0  0  0  0  0  0  0  0  0  0  0  0
  -25.8304  -30.0178   23.3080 N   0  0  0  0  0  0  0  0  0  0  0  0
  -27.8308  -30.4458   26.2884 N   0  3  0  0  0  0  0  0  0  0  0  0
  -29.8208  -18.7807   21.3553 O   0  0  0  0  0  0  0  0  0  0  0  0
  -22.6817  -26.0086   20.2555 O   0  0  0  0  0  0  0  0  0  0  0  0
  -23.7287  -28.4125   23.2587 O   0  0  0  0  0  0  0  0  0  0  0  0
  -28.0425  -29.4266   23.6745 O   0  0  0  0  0  0  0  0  0  0  0  0
  -24.9222  -24.0245   15.4928 O   0  0  0  0  0  0  0  0  0  0  0  0
  -25.9324  -12.0786   20.6151 O   0  0  0  0  0  0  0  0  0  0  0  0
  -30.0612  -24.0436   21.7977 O   0  0  0  0  0  0  0  0  0  1  0  0
  -20.9568  -10.3626   22.2593 F   0  0  0  0  0  0  0  0  0  0  0  0
  -25.6210  -10.7008   22.9916 F   0  0  0  0  0  0  0  0  0  0  0  0
  1  2  1  0  0  0  0
  1  5  2  0  0  0  0
  2  6  2  0  0  0  0
  3 10  2  0  0  0  0
  3 18  1  0  0  0  0
  4 11  1  0  0  0  0
  4 18  2  0  0  0  0
  5 20  1  0  0  0  0
  6 22  1  0  0  0  0
  7 12  2  0  0  0  0
  7 21  1  0  0  0  0
  8  9  2  0  0  0  0
  8 25  1  0  0  0  0
  9 26  1  0  0  0  0
 10 27  1  0  0  0  0
 11 27  2  0  0  0  0
 12 28  1  0  0  0  0
 13 14  2  0  0  0  0
 13 29  1  0  0  0  0
 14 30  1  0  0  0  0
 15 23  1  0  0  0  0
 15 25  2  0  0  0  0
 16 24  1  0  0  0  0
 16 28  2  0  0  0  0
 17 30  2  0  0  0  0
 17 31  1  0  0  0  0
 18 32  1  0  0  0  0
 19 32  1  0  0  0  0
 19 33  2  0  0  0  0
 19 36  1  0  0  0  0
 20 22  2  0  0  0  0
 20 41  1  0  0  0  0
 21 24  2  0  0  0  0
 21 42  1  0  0  0  0
 22 54  1  0  0  0  0
 23 26  2  0  0  0  0
 23 53  1  0  0  0  0
 24 43  1  0  0  0  0
 25 57  1  0  0  0  0
 26 74  1  0  0  0  0
 27 83  1  0  0  0  0
 28 84  1  0  0  0  0
 29 31  2  0  0  0  0
 29 83  1  0  0  0  0
 30 85  1  0  0  0  0
 31 86  1  0  0  0  0
 32 68  2  0  0  0  0
 33 69  1  0  0  0  0
 33 72  1  0  0  0  0
 34 35  2  0  0  0  0
 34 44  1  0  0  0  0
 34 45  1  0  0  0  0
 35 64  1  0  0  0  0
 36 73  1  0  0  0  0
 36 78  2  0  0  0  0
 37 55  1  0  0  0  0
 37 75  1  0  0  0  0
 37 79  2  0  0  0  0
 38 65  1  0  0  0  0
 38 70  1  0  0  0  0
 38 80  2  0  0  0  0
 39 66  1  0  0  0  0
 39 76  1  0  0  0  0
 39 81  2  0  0  0  0
 40 71  1  0  0  0  0
 40 74  1  0  0  0  0
 40 82  2  0  0  0  0
 41 46  1  0  0  0  0
 42 55  1  0  0  0  0
 43 70  1  0  0  0  0
 44 47  1  0  0  0  0
 45 53  1  0  0  0  0
 46 49  1  0  0  0  0
 47 53  1  0  0  0  0
 48 50  1  0  0  0  0
 48 51  1  0  0  0  0
 49 54  1  0  0  0  0
 50 56  1  0  0  0  0
 51 71  1  0  0  0  0
 52 56  1  0  0  0  0
 52 71  1  0  0  0  0
 54 75  1  0  0  0  0
 55 70  1  0  0  0  0
 56 69  1  0  0  0  0
 58 64  1  0  0  0  0
 59 66  1  0  0  0  0
 60 67  1  0  0  0  0
 61 67  1  0  0  0  0
 62 67  1  0  0  0  0
 63 77  1  0  0  0  0
 64 84  1  0  0  0  0
 65 67  1  0  0  0  0
 65 76  1  0  0  0  0
 66 77  1  0  0  0  0
 68 69  1  0  0  0  0
M  CHG  1  77   1
M  ISO  4  40 100  64 101  74 100  84 101
M  END
> <Batch ID>
0137

> <Smiles>
CNC(C)C(=O)NC(C(=O)N1Cc2cc([101O:1][101CH:1](C)C=C3CCC(c4cc(C)ccc4[100NH:0][100C:0](=O)N4CCCC(n5nc(-c6ccc(Oc7ccc(F)cc7F)cc6)c(C(N)=O)c5N)C4)C3)ccc2CC1C(=O)NC1CCCc2ccccc21)C(C)(C)C

> <Shape>
0.234

> <Color>
0.054

> <Negative vol penalty>
0.000

$$$$

  -OEChem-04052302423D

 83 91  0     1  0  0  0  0  0999 V2000
  -25.9884  -34.9436   24.5144 C   0  0  0  0  0  0  0  0  0  0  0  0
  -26.5439  -33.7714   24.0117 C   0  0  0  0  0  0  0  0  0  0  0  0
  -27.0914  -10.4977   20.5267 C   0  0  0  0  0  0  0  0  0  0  0  0
  -26.6231  -11.3558   18.3174 C   0  0  0  0  0  0  0  0  0  0  0  0
  -24.7084  -34.9260   25.0668 C   0  0  0  0  0  0  0  0  0  0  0  0
  -25.8202  -32.5806   24.0622 C   0  0  0  0  0  0  0  0  0  0  0  0
  -26.0498  -29.9820   19.7217 C   0  0  0  0  0  0  0  0  0  0  0  0
  -26.0538   -9.5758   20.3887 C   0  0  0  0  0  0  0  0  0  0  0  0
  -25.5854  -10.4338   18.1793 C   0  0  0  0  0  0  0  0  0  0  0  0
  -27.2140  -29.2555   19.4754 C   0  0  0  0  0  0  0  0  0  0  0  0
  -22.6813   -9.5701   20.6131 C   0  0  0  0  0  0  0  0  0  0  0  0
  -21.8098   -9.4102   21.6904 C   0  0  0  0  0  0  0  0  0  0  0  0
  -27.6883  -20.9992   15.9925 C   0  0  0  0  0  0  0  0  0  0  0  0
  -27.7223  -19.6674   16.4705 C   0  0  0  0  0  0  0  0  0  0  0  0
  -26.1007  -27.2396   20.1935 C   0  0  0  0  0  0  0  0  0  0  0  0
  -22.4218   -7.0778   21.8394 C   0  0  0  0  0  0  0  0  0  0  0  0
  -27.3760  -11.3877   19.4911 C   0  0  0  0  0  0  0  0  0  0  0  0
  -29.7975  -12.1612   19.2772 C   0  0  0  0  0  0  0  0  0  0  0  0
  -23.9648  -33.7363   25.1154 C   0  0  0  0  0  0  0  0  0  0  0  0
  -24.9038  -29.3435   20.2170 C   0  0  0  0  0  0  0  0  0  0  0  0
  -24.5295  -32.5468   24.6170 C   0  0  0  0  0  0  0  0  0  0  0  0
  -24.9225  -27.9597   20.4429 C   0  0  0  0  0  0  0  0  0  0  0  0
  -25.3008   -9.5438   19.2150 C   0  0  0  0  0  0  0  0  0  0  0  0
  -27.2405  -27.8846   19.7140 C   0  0  0  0  0  0  0  0  0  0  0  0
  -23.4230   -8.4837   20.1489 C   0  0  0  0  0  0  0  0  0  0  0  0
  -21.6801   -8.1641   22.3036 C   0  0  0  0  0  0  0  0  0  0  0  0
  -23.2933   -7.2376   20.7621 C   0  0  0  0  0  0  0  0  0  0  0  0
  -28.4474  -12.3406   19.6333 C   0  0  0  0  0  0  0  0  0  0  0  0
  -27.9208  -21.8029   17.0843 C   0  0  0  0  0  0  0  0  0  0  0  0
  -30.4011  -13.3493   19.6098 C   0  0  0  0  0  0  0  0  0  0  0  0
  -27.9735  -19.7522   17.8202 C   0  0  0  0  0  0  0  0  0  0  0  0
  -30.4479  -11.0225   18.6975 C   0  0  0  0  0  0  0  0  0  0  0  0
  -23.1650  -29.5929   22.8662 C   0  0  0  0  0  0  0  0  0  0  0  0
  -21.2318  -27.4896   21.3295 C   0  0  0  0  0  0  0  0  0  0  0  0
  -20.9019  -25.0556   18.9603 C   0  0  0  0  0  0  0  0  0  0  0  0
  -28.3726  -18.9417   20.1718 C   0  0  0  0  0  0  0  0  0  0  0  0
  -22.6038  -33.7570   25.7649 C   0  0  0  0  0  0  0  0  0  0  0  0
  -23.6477  -30.1367   20.4522 C   0  0  0  0  0  0  0  0  0  0  0  0
  -23.7126  -27.2234   20.9551 C   0  0  0  0  0  0  0  0  0  0  0  0
  -21.7553  -32.5302   25.4404 C   0  0  0  0  0  0  0  0  0  0  0  0
  -30.0231  -17.0141   22.6693 C   0  0  0  0  0  0  0  0  0  0  0  0
  -22.5772  -31.2552   25.5999 C   0  0  0  0  0  0  0  0  0  0  0  0
  -29.9345  -15.5813   22.1388 C   0  0  0  0  0  0  0  0  0  0  0  0
  -28.7615  -17.8152   22.3523 C   0  0  0  0  0  0  0  0  0  0  0  0
  -28.2763  -16.3823   20.4080 C   0  0  0  0  0  0  0  0  0  0  0  0
  -23.7660  -31.2403   24.6313 C   0  0  1  0  0  0  0  0  0  0  0  0
  -22.6976  -29.4715   21.4433 C   0  0  1  0  0  0  0  0  0  0  0  0
  -29.5505  -15.5557   20.6463 C   0  0  2  0  0  0  0  0  0  0  0  0
  -19.2086  -23.4971   17.9597 C   0  0  0  0  0  0  0  0  0  0  0  0
  -29.3134  -26.2135   16.8612 C   0  0  0  0  0  0  0  0  0  0  0  0
  -21.4145  -25.7087   23.8003 C   0  0  0  0  0  0  0  0  0  0  0  0
  -20.5341  -23.8172   22.4164 C   0  0  0  0  0  0  0  0  0  0  0  0
  -19.1346  -25.8496   22.7822 C   0  0  0  0  0  0  0  0  0  0  0  0
  -30.4942  -23.4262   16.9056 C   0  0  0  0  0  0  0  0  0  0  0  0
  -21.2158  -26.2539   16.2724 C   0  0  0  0  0  0  0  0  0  0  0  0
  -28.0142  -23.3025   17.2651 C   0  0  0  0  0  0  0  0  0  0  0  0
  -28.2180  -25.8068   19.0949 C   0  0  0  0  0  0  0  0  0  1  0  0
  -21.1396  -25.9850   21.2481 C   0  0  1  0  0  0  0  0  0  0  0  0
  -19.8802  -24.8575   17.8551 C   0  0  2  0  0  0  0  0  0  0  0  0
  -29.3502  -25.3678   18.1497 C   0  0  1  0  0  0  0  0  0  0  0  0
  -20.5793  -25.3540   22.5539 C   0  0  0  0  0  0  0  0  0  0  0  0
  -29.3527  -23.8329   17.8541 C   0  0  2  0  0  0  0  0  0  0  0  0
  -28.2071  -13.5476   20.1525 N   0  0  0  0  0  0  0  0  0  0  0  0
  -29.4143  -14.1373   20.1251 N   0  0  0  0  0  0  0  0  0  0  0  0
  -22.5104  -28.0441   21.1757 N   0  0  0  0  0  0  0  0  0  0  0  0
  -28.4620  -17.7490   20.9203 N   0  0  0  0  0  0  0  0  0  0  0  0
  -31.6744  -13.7864   19.5088 N   0  0  0  0  0  0  0  0  0  0  0  0
  -29.6793   -9.8841   18.4191 N   0  0  0  0  0  0  0  0  0  0  0  0
  -28.1158  -18.7526   18.8143 N   0  0  0  0  0  0  0  0  0  0  0  0
  -23.3258  -30.8962   23.2963 N   0  0  0  0  0  0  0  0  0  0  0  0
  -20.3532  -25.6882   20.0557 N   0  0  0  0  0  0  0  0  0  0  0  0
  -20.5352  -24.9568   16.5202 N   0  3  0  0  0  0  0  0  0  0  0  0
  -31.6774  -11.0089   18.4494 O   0  0  0  0  0  0  0  0  0  0  0  0
  -23.3635  -28.5792   23.5255 O   0  0  0  0  0  0  0  0  0  0  0  0
  -20.2061  -28.1491   21.5154 O   0  0  0  0  0  0  0  0  0  0  0  0
  -22.0690  -24.6828   18.8631 O   0  0  0  0  0  0  0  0  0  0  0  0
  -28.5404  -20.0480   20.6913 O   0  0  0  0  0  0  0  0  0  0  0  0
  -28.0958  -21.0506   18.2023 O   0  0  0  0  0  0  0  0  0  0  0  0
  -29.5903  -23.1476   19.0935 O   0  0  0  0  0  0  0  0  0  0  0  0
  -24.2884   -8.6442   19.0798 O   0  0  0  0  0  0  0  0  0  0  0  0
  -28.3757  -27.1732   19.4750 O   0  0  0  0  0  0  0  0  0  1  0  0
  -20.8443   -8.0111   23.3390 F   0  0  0  0  0  0  0  0  0  0  0  0
  -24.0041   -6.1906   20.3213 F   0  0  0  0  0  0  0  0  0  0  0  0
  1  2  1  0  0  0  0
  1  5  2  0  0  0  0
  2  6  2  0  0  0  0
  3  8  2  0  0  0  0
  3 17  1  0  0  0  0
  4  9  1  0  0  0  0
  4 17  2  0  0  0  0
  5 19  1  0  0  0  0
  6 21  1  0  0  0  0
  7 10  2  0  0  0  0
  7 20  1  0  0  0  0
  8 23  1  0  0  0  0
  9 23  2  0  0  0  0
 10 24  1  0  0  0  0
 11 12  2  0  0  0  0
 11 25  1  0  0  0  0
 12 26  1  0  0  0  0
 13 14  1  0  0  0  0
 13 29  2  0  0  0  0
 14 31  2  0  0  0  0
 15 22  1  0  0  0  0
 15 24  2  0  0  0  0
 16 26  2  0  0  0  0
 16 27  1  0  0  0  0
 17 28  1  0  0  0  0
 18 28  1  0  0  0  0
 18 30  2  0  0  0  0
 18 32  1  0  0  0  0
 19 21  2  0  0  0  0
 19 37  1  0  0  0  0
 20 22  2  0  0  0  0
 20 38  1  0  0  0  0
 21 46  1  0  0  0  0
 22 39  1  0  0  0  0
 23 80  1  0  0  0  0
 24 81  1  0  0  0  0
 25 27  2  0  0  0  0
 25 80  1  0  0  0  0
 26 82  1  0  0  0  0
 27 83  1  0  0  0  0
 28 63  2  0  0  0  0
 29 56  1  0  0  0  0
 29 78  1  0  0  0  0
 30 64  1  0  0  0  0
 30 67  1  0  0  0  0
 31 69  1  0  0  0  0
 31 78  1  0  0  0  0
 32 68  1  0  0  0  0
 32 73  2  0  0  0  0
 33 47  1  0  0  0  0
 33 70  1  0  0  0  0
 33 74  2  0  0  0  0
 34 58  1  0  0  0  0
 34 65  1  0  0  0  0
 34 75  2  0  0  0  0
 35 59  1  0  0  0  0
 35 71  1  0  0  0  0
 35 76  2  0  0  0  0
 36 66  1  0  0  0  0
 36 69  1  0  0  0  0
 36 77  2  0  0  0  0
 37 40  1  0  0  0  0
 38 47  1  0  0  0  0
 39 65  1  0  0  0  0
 40 42  1  0  0  0  0
 41 43  1  0  0  0  0
 41 44  1  0  0  0  0
 42 46  1  0  0  0  0
 43 48  1  0  0  0  0
 44 66  1  0  0  0  0
 45 48  1  0  0  0  0
 45 66  1  0  0  0  0
 46 70  1  0  0  0  0
 47 65  1  0  0  0  0
 48 64  1  0  0  0  0
 49 59  1  0  0  0  0
 50 60  1  0  0  0  0
 51 61  1  0  0  0  0
 52 61  1  0  0  0  0
 53 61  1  0  0  0  0
 54 62  1  0  0  0  0
 55 72  1  0  0  0  0
 56 62  1  0  0  0  0
 57 60  1  0  0  0  0
 57 81  1  0  0  0  0
 58 61  1  0  0  0  0
 58 71  1  0  0  0  0
 59 72  1  0  0  0  0
 60 62  1  0  0  0  0
 62 79  1  0  0  0  0
 63 64  1  0  0  0  0
M  CHG  1  72   1
M  ISO  4  36 100  57 101  69 100  81 101
M  END
> <Batch ID>
0137

> <Smiles>
CNC(C)C(=O)NC(C(=O)N1Cc2cc([101O:1][101CH2:1]C(C)C(C)(O)Cc3ccc([100NH:0][100C:0](=O)N4CCCC(n5nc(-c6ccc(Oc7ccc(F)cc7F)cc6)c(C(N)=O)c5N)C4)o3)ccc2CC1C(=O)NC1CCCc2ccccc21)C(C)(C)C

> <Shape>
0.299

> <Color>
0.090

> <Negative vol penalty>
0.000

$$$$

  -OEChem-04052302423D

 85 93  0     1  0  0  0  0  0999 V2000
  -23.3941   -7.8802   21.7647 C   0  0  0  0  0  0  0  0  0  0  0  0
  -24.0821   -8.8286   21.0147 C   0  0  0  0  0  0  0  0  0  0  0  0
  -26.8126  -30.0092   21.0185 C   0  0  0  0  0  0  0  0  0  0  0  0
  -26.4503  -28.4078   22.7909 C   0  0  0  0  0  0  0  0  0  0  0  0
  -22.1451   -8.1898   22.3015 C   0  0  0  0  0  0  0  0  0  0  0  0
  -23.5209  -10.0870   20.8001 C   0  0  0  0  0  0  0  0  0  0  0  0
  -26.8554  -13.8400   21.4642 C   0  0  0  0  0  0  0  0  0  0  0  0
  -25.7440  -30.7721   21.4894 C   0  0  0  0  0  0  0  0  0  0  0  0
  -25.3817  -29.1707   23.2618 C   0  0  0  0  0  0  0  0  0  0  0  0
  -27.7622  -14.0762   20.4318 C   0  0  0  0  0  0  0  0  0  0  0  0
  -23.3394  -33.3275   22.4396 C   0  0  0  0  0  0  0  0  0  0  0  0
  -23.5188  -34.7077   22.5315 C   0  0  0  0  0  0  0  0  0  0  0  0
  -26.4028  -15.9165   19.6671 C   0  0  0  0  0  0  0  0  0  0  0  0
  -29.4812  -19.6562   19.7493 C   0  0  0  0  0  0  0  0  0  0  0  0
  -28.3812  -20.4447   21.7505 C   0  0  0  0  0  0  0  0  0  0  0  0
  -29.6328  -18.3786   21.7943 C   0  0  0  0  0  0  0  0  0  0  0  0
  -25.3488  -34.3674   24.0717 C   0  0  0  0  0  0  0  0  0  0  0  0
  -27.1657  -28.8270   21.6693 C   0  0  0  0  0  0  0  0  0  0  0  0
  -29.6218  -28.1466   21.5577 C   0  0  0  0  0  0  0  0  0  0  0  0
  -21.5727   -9.4559   22.1015 C   0  0  0  0  0  0  0  0  0  0  0  0
  -25.7080  -14.6347   21.5995 C   0  0  0  0  0  0  0  0  0  0  0  0
  -22.2625  -10.4134   21.3336 C   0  0  0  0  0  0  0  0  0  0  0  0
  -25.4844  -15.6899   20.7036 C   0  0  0  0  0  0  0  0  0  0  0  0
  -28.6973  -20.6076   20.4018 C   0  0  0  0  0  0  0  0  0  0  0  0
  -25.0286  -30.3529   22.6110 C   0  0  0  0  0  0  0  0  0  0  0  0
  -27.5344  -15.1128   19.5313 C   0  0  0  0  0  0  0  0  0  0  0  0
  -24.1647  -32.4672   23.1638 C   0  0  0  0  0  0  0  0  0  0  0  0
  -29.9489  -18.5416   20.4455 C   0  0  0  0  0  0  0  0  0  0  0  0
  -24.5235  -35.2277   23.3475 C   0  0  0  0  0  0  0  0  0  0  0  0
  -28.8489  -19.3301   22.4468 C   0  0  0  0  0  0  0  0  0  0  0  0
  -25.1694  -32.9872   23.9798 C   0  0  0  0  0  0  0  0  0  0  0  0
  -28.2691  -28.0382   21.1830 C   0  0  0  0  0  0  0  0  0  0  0  0
  -30.2613  -27.1820   20.8180 C   0  0  0  0  0  0  0  0  0  0  0  0
  -30.2445  -29.0393   22.4910 C   0  0  0  0  0  0  0  0  0  0  0  0
  -22.5779  -14.0914   21.4945 C   0  0  0  0  0  0  0  0  0  0  0  0
  -22.4018  -17.2054   22.3856 C   0  0  0  0  0  0  0  0  0  0  0  0
  -23.8809  -20.2795   22.4820 C   0  0  0  0  0  0  0  0  0  0  0  0
  -28.4406  -22.0519   18.3537 C   0  0  0  0  0  0  0  0  0  0  0  0
  -20.1992   -9.7283   22.6617 C   0  0  0  0  0  0  0  0  0  0  0  0
  -24.7534  -14.3839   22.7345 C   0  0  0  0  0  0  0  0  0  0  0  0
  -24.2783  -16.5848   20.8175 C   0  0  0  0  0  0  0  0  0  0  0  0
  -19.8414  -11.2117   22.7031 C   0  0  0  0  0  0  0  0  0  0  0  0
  -29.9313  -24.8121   16.6696 C   0  0  0  0  0  0  0  0  0  0  0  0
  -20.1925  -11.8827   21.3789 C   0  0  0  0  0  0  0  0  0  0  0  0
  -29.8028  -25.9611   17.6724 C   0  0  0  0  0  0  0  0  0  0  0  0
  -28.7136  -23.8903   16.7042 C   0  0  0  0  0  0  0  0  0  0  0  0
  -28.2346  -24.5232   19.0364 C   0  0  0  0  0  0  0  0  0  0  0  0
  -21.6979  -11.7978   21.0996 C   0  0  1  0  0  0  0  0  0  0  0  0
  -23.3539  -14.9304   22.4701 C   0  0  1  0  0  0  0  0  0  0  0  0
  -29.4664  -25.4419   19.0841 C   0  0  2  0  0  0  0  0  0  0  0  0
  -33.3040  -16.2944   17.6343 C   0  0  0  0  0  0  0  0  0  0  0  0
  -24.1891  -22.6975   23.0783 C   0  0  0  0  0  0  0  0  0  0  0  0
  -20.5561  -17.6545   19.9978 C   0  0  0  0  0  0  0  0  0  0  0  0
  -20.9539  -20.1143   20.2416 C   0  0  0  0  0  0  0  0  0  0  0  0
  -19.8643  -18.8398   22.0884 C   0  0  0  0  0  0  0  0  0  0  0  0
  -30.4596  -15.8387   16.4834 C   0  0  0  0  0  0  0  0  0  0  0  0
  -25.2614  -19.5999   25.0101 C   0  0  0  0  0  0  0  0  0  0  0  0
  -32.1916  -15.5104   18.3204 C   0  0  0  0  0  0  0  0  0  0  0  0
  -29.7842  -15.0151   18.7665 C   0  0  0  0  0  0  0  0  0  1  0  0
  -30.4860  -17.4300   18.4129 C   0  0  0  0  0  0  0  0  0  0  0  0
  -22.3350  -18.5245   21.6545 C   0  0  1  0  0  0  0  0  0  0  0  0
  -24.0530  -21.2795   23.6110 C   0  0  2  0  0  0  0  0  0  0  0  0
  -20.9492  -18.7654   20.9920 C   0  0  0  0  0  0  0  0  0  0  0  0
  -30.7394  -15.9629   17.9944 C   0  0  2  0  0  0  0  0  0  0  0  0
  -28.0605  -27.0805   20.2757 N   0  0  0  0  0  0  0  0  0  0  0  0
  -29.2906  -26.5783   20.0740 N   0  0  0  0  0  0  0  0  0  0  0  0
  -23.3709  -16.2954   21.9402 N   0  0  0  0  0  0  0  0  0  0  0  0
  -28.4581  -23.4344   18.0723 N   0  0  0  0  0  0  0  0  0  0  0  0
  -31.5536  -26.7999   20.7379 N   0  0  0  0  0  0  0  0  0  0  0  0
  -29.4405  -29.9684   23.1651 N   0  0  0  0  0  0  0  0  0  0  0  0
  -28.2205  -21.7393   19.6948 N   0  0  0  0  0  0  0  0  0  0  0  0
  -22.4143  -12.7771   21.8885 N   0  0  0  0  0  0  0  0  0  0  0  0
  -22.7210  -19.5469   22.6210 N   0  0  0  0  0  0  0  0  0  0  0  0
  -25.2711  -20.9575   24.4070 N   0  3  0  0  0  0  0  0  0  0  0  0
  -31.4799  -29.0247   22.7081 O   0  0  0  0  0  0  0  0  0  0  0  0
  -22.1575  -14.5993   20.4616 O   0  0  0  0  0  0  0  0  0  0  0  0
  -21.6275  -16.9932   23.3222 O   0  0  0  0  0  0  0  0  0  0  0  0
  -24.6922  -20.1626   21.5662 O   0  0  0  0  0  0  0  0  0  0  0  0
  -28.6356  -21.2083   17.4750 O   0  0  0  0  0  0  0  0  0  0  0  0
  -23.9859  -31.0972   23.0709 O   0  0  0  0  0  0  0  0  0  0  0  0
  -28.4175  -15.3451   18.5223 O   0  0  0  0  0  0  0  0  0  1  0  0
  -30.7186  -17.6065   19.8043 O   0  0  0  0  0  0  0  0  0  0  0  0
  -24.6966  -36.5531   23.4345 F   0  0  0  0  0  0  0  0  0  0  0  0
  -28.5436  -19.1724   23.7415 F   0  0  0  0  0  0  0  0  0  0  0  0
  -25.9662  -32.1656   24.6770 F   0  0  0  0  0  0  0  0  0  0  0  0
  1  2  1  0  0  0  0
  1  5  2  0  0  0  0
  2  6  2  0  0  0  0
  3  8  2  0  0  0  0
  3 18  1  0  0  0  0
  4  9  1  0  0  0  0
  4 18  2  0  0  0  0
  5 20  1  0  0  0  0
  6 22  1  0  0  0  0
  7 10  2  0  0  0  0
  7 21  1  0  0  0  0
  8 25  1  0  0  0  0
  9 25  2  0  0  0  0
 10 26  1  0  0  0  0
 11 12  2  0  0  0  0
 11 27  1  0  0  0  0
 12 29  1  0  0  0  0
 13 23  1  0  0  0  0
 13 26  2  0  0  0  0
 14 24  1  0  0  0  0
 14 28  2  0  0  0  0
 15 24  2  0  0  0  0
 15 30  1  0  0  0  0
 16 28  1  0  0  0  0
 16 30  2  0  0  0  0
 17 29  2  0  0  0  0
 17 31  1  0  0  0  0
 18 32  1  0  0  0  0
 19 32  1  0  0  0  0
 19 33  2  0  0  0  0
 19 34  1  0  0  0  0
 20 22  2  0  0  0  0
 20 39  1  0  0  0  0
 21 23  2  0  0  0  0
 21 40  1  0  0  0  0
 22 48  1  0  0  0  0
 23 41  1  0  0  0  0
 24 71  1  0  0  0  0
 25 80  1  0  0  0  0
 26 81  1  0  0  0  0
 27 31  2  0  0  0  0
 27 80  1  0  0  0  0
 28 82  1  0  0  0  0
 29 83  1  0  0  0  0
 30 84  1  0  0  0  0
 31 85  1  0  0  0  0
 32 65  2  0  0  0  0
 33 66  1  0  0  0  0
 33 69  1  0  0  0  0
 34 70  1  0  0  0  0
 34 75  2  0  0  0  0
 35 49  1  0  0  0  0
 35 72  1  0  0  0  0
 35 76  2  0  0  0  0
 36 61  1  0  0  0  0
 36 67  1  0  0  0  0
 36 77  2  0  0  0  0
 37 62  1  0  0  0  0
 37 73  1  0  0  0  0
 37 78  2  0  0  0  0
 38 68  1  0  0  0  0
 38 71  1  0  0  0  0
 38 79  2  0  0  0  0
 39 42  1  0  0  0  0
 40 49  1  0  0  0  0
 41 67  1  0  0  0  0
 42 44  1  0  0  0  0
 43 45  1  0  0  0  0
 43 46  1  0  0  0  0
 44 48  1  0  0  0  0
 45 50  1  0  0  0  0
 46 68  1  0  0  0  0
 47 50  1  0  0  0  0
 47 68  1  0  0  0  0
 48 72  1  0  0  0  0
 49 67  1  0  0  0  0
 50 66  1  0  0  0  0
 51 58  1  0  0  0  0
 52 62  1  0  0  0  0
 53 63  1  0  0  0  0
 54 63  1  0  0  0  0
 55 63  1  0  0  0  0
 56 64  1  0  0  0  0
 57 74  1  0  0  0  0
 58 64  1  0  0  0  0
 59 64  1  0  0  0  0
 59 81  1  0  0  0  0
 60 64  1  0  0  0  0
 60 82  1  0  0  0  0
 61 63  1  0  0  0  0
 61 73  1  0  0  0  0
 62 74  1  0  0  0  0
 65 66  1  0  0  0  0
M  CHG  1  74   1
M  ISO  4  38 100  59 101  71 100  81 101
M  END
> <Batch ID>
0137

> <Smiles>
CCC(C)(COc1cc(F)cc([100NH:0][100C:0](=O)N2CCCC(n3nc(-c4ccc(Oc5ccc(F)cc5F)cc4)c(C(N)=O)c3N)C2)c1)[101CH2:1][101O:1]c1ccc2c(c1)CN(C(=O)C(NC(=O)C(C)NC)C(C)(C)C)C(C(=O)NC1CCCc3ccccc31)C2

> <Shape>
0.255

> <Color>
0.083

> <Negative vol penalty>
0.000

$$$$

  -OEChem-04052302423D

 88 96  0     1  0  0  0  0  0999 V2000
  -29.7741  -24.4927   17.8902 C   0  0  0  0  0  0  0  0  0  0  0  0
  -28.3949  -24.6737   17.9137 C   0  0  0  0  0  0  0  0  0  0  0  0
  -27.3924  -15.7808   20.7941 C   0  0  0  0  0  0  0  0  0  0  0  0
  -25.2071  -15.8807   19.7685 C   0  0  0  0  0  0  0  0  0  0  0  0
  -30.5511  -24.9252   18.9639 C   0  0  0  0  0  0  0  0  0  0  0  0
  -27.7918  -25.2863   19.0116 C   0  0  0  0  0  0  0  0  0  0  0  0
  -22.8940  -28.9623   18.9458 C   0  0  0  0  0  0  0  0  0  0  0  0
  -19.3439  -24.6720   22.3097 C   0  0  0  0  0  0  0  0  0  0  0  0
  -20.6030  -24.1309   22.5695 C   0  0  0  0  0  0  0  0  0  0  0  0
  -27.2688  -14.3975   20.9228 C   0  0  0  0  0  0  0  0  0  0  0  0
  -25.0835  -14.4973   19.8971 C   0  0  0  0  0  0  0  0  0  0  0  0
  -21.5440  -28.7309   19.2059 C   0  0  0  0  0  0  0  0  0  0  0  0
  -24.0398  -11.0372   20.2820 C   0  0  0  0  0  0  0  0  0  0  0  0
  -22.8275  -10.5358   20.7557 C   0  0  0  0  0  0  0  0  0  0  0  0
  -21.8571  -29.4904   21.4740 C   0  0  0  0  0  0  0  0  0  0  0  0
  -20.2130  -22.4243   20.9044 C   0  0  0  0  0  0  0  0  0  0  0  0
  -23.1166  -11.7766   22.8085 C   0  0  0  0  0  0  0  0  0  0  0  0
  -26.3615  -16.5225   20.2171 C   0  0  0  0  0  0  0  0  0  0  0  0
  -27.0315  -18.6595   18.9955 C   0  0  0  0  0  0  0  0  0  0  0  0
  -29.9584  -25.5522   20.0713 C   0  0  0  0  0  0  0  0  0  0  0  0
  -23.7395  -29.4500   19.9526 C   0  0  0  0  0  0  0  0  0  0  0  0
  -28.5615  -25.7264   20.1018 C   0  0  0  0  0  0  0  0  0  0  0  0
  -23.2169  -29.7296   21.2234 C   0  0  0  0  0  0  0  0  0  0  0  0
  -18.5193  -24.0892   21.3474 C   0  0  0  0  0  0  0  0  0  0  0  0
  -21.0376  -23.0071   21.8668 C   0  0  0  0  0  0  0  0  0  0  0  0
  -26.1144  -13.7557   20.4742 C   0  0  0  0  0  0  0  0  0  0  0  0
  -21.0259  -28.9922   20.4709 C   0  0  0  0  0  0  0  0  0  0  0  0
  -24.7906  -11.9082   21.0715 C   0  0  0  0  0  0  0  0  0  0  0  0
  -18.9539  -22.9654   20.6447 C   0  0  0  0  0  0  0  0  0  0  0  0
  -22.3658  -10.9055   22.0190 C   0  0  0  0  0  0  0  0  0  0  0  0
  -24.3289  -12.2780   22.3347 C   0  0  0  0  0  0  0  0  0  0  0  0
  -26.4883  -17.9516   20.0844 C   0  0  0  0  0  0  0  0  0  0  0  0
  -26.9220  -19.9804   19.3556 C   0  0  0  0  0  0  0  0  0  0  0  0
  -27.5855  -18.1670   17.7682 C   0  0  0  0  0  0  0  0  0  0  0  0
  -26.3297  -28.3532   21.4329 C   0  0  0  0  0  0  0  0  0  0  0  0
  -17.9588  -27.0968   20.8186 C   0  0  0  0  0  0  0  0  0  0  0  0
  -26.3370  -31.3065   22.7748 C   0  0  0  0  0  0  0  0  0  0  0  0
  -24.5730  -34.0902   23.6613 C   0  0  0  0  0  0  0  0  0  0  0  0
  -23.2575  -22.9129   23.0539 C   0  0  0  0  0  0  0  0  0  0  0  0
  -30.8342  -25.9602   21.2294 C   0  0  0  0  0  0  0  0  0  0  0  0
  -25.1877  -29.7196   19.6484 C   0  0  0  0  0  0  0  0  0  0  0  0
  -24.0781  -30.2732   22.3330 C   0  0  0  0  0  0  0  0  0  0  0  0
  -30.1596  -26.9378   22.1883 C   0  0  0  0  0  0  0  0  0  0  0  0
  -26.8130  -22.8129   23.2156 C   0  0  0  0  0  0  0  0  0  0  0  0
  -28.7471  -26.4688   22.5226 C   0  0  0  0  0  0  0  0  0  0  0  0
  -27.1830  -21.6231   22.3270 C   0  0  0  0  0  0  0  0  0  0  0  0
  -25.5275  -22.5567   24.0002 C   0  0  0  0  0  0  0  0  0  0  0  0
  -24.7456  -20.9556   22.2990 C   0  0  0  0  0  0  0  0  0  0  0  0
  -27.8733  -26.4091   21.2639 C   0  0  1  0  0  0  0  0  0  0  0  0
  -26.0678  -29.7313   20.8944 C   0  0  1  0  0  0  0  0  0  0  0  0
  -25.9984  -21.1924   21.4399 C   0  0  2  0  0  0  0  0  0  0  0  0
  -18.5682  -21.1438   16.1815 C   0  0  0  0  0  0  0  0  0  0  0  0
  -24.8442  -36.3221   24.7761 C   0  0  0  0  0  0  0  0  0  0  0  0
  -17.6767  -25.6562   18.7725 C   0  0  0  0  0  0  0  0  0  0  0  0
  -15.6682  -26.4117   20.0170 C   0  0  0  0  0  0  0  0  0  0  0  0
  -26.4320  -29.9323   25.4974 C   0  0  0  0  0  0  0  0  0  0  0  0
  -25.7494  -32.1039   26.5396 C   0  0  0  0  0  0  0  0  0  0  0  0
  -27.9037  -31.9438   25.2922 C   0  0  0  0  0  0  0  0  0  0  0  0
  -23.7378  -35.5408   21.2206 C   0  0  0  0  0  0  0  0  0  0  0  0
  -17.1575  -24.6893   21.0795 C   0  0  0  0  0  0  0  0  0  0  0  0
  -19.0738  -27.7206   19.9935 C   0  0  0  0  0  0  0  0  0  1  0  0
  -17.9385  -21.8329   17.3787 C   0  0  0  0  0  0  0  0  0  0  0  0
  -18.8163  -21.7310   18.6166 C   0  0  0  0  0  0  0  0  0  0  0  0
  -25.7247  -31.9208   24.0104 C   0  0  1  0  0  0  0  0  0  0  0  0
  -24.8528  -35.5680   23.4555 C   0  0  2  0  0  0  0  0  0  0  0  0
  -17.1312  -25.9564   20.1830 C   0  0  0  0  0  0  0  0  0  0  0  0
  -26.4364  -31.4632   25.3147 C   0  0  0  0  0  0  0  0  0  0  0  0
  -26.0652  -18.7562   21.0630 N   0  0  0  0  0  0  0  0  0  0  0  0
  -26.3427  -19.9833   20.5904 N   0  0  0  0  0  0  0  0  0  0  0  0
  -25.4889  -30.5142   21.9881 N   0  0  0  0  0  0  0  0  0  0  0  0
  -24.4484  -22.1572   23.0942 N   0  0  0  0  0  0  0  0  0  0  0  0
  -27.2657  -21.1280   18.7334 N   0  0  0  0  0  0  0  0  0  0  0  0
  -27.6209  -16.7815   17.5597 N   0  0  0  0  0  0  0  0  0  0  0  0
  -22.3164  -22.4572   22.1313 N   0  0  0  0  0  0  0  0  0  0  0  0
  -27.4393  -27.7371   20.8864 N   0  0  0  0  0  0  0  0  0  0  0  0
  -25.7372  -33.3641   23.7977 N   0  0  0  0  0  0  0  0  0  0  0  0
  -23.8226  -36.1709   22.5633 N   0  3  0  0  0  0  0  0  0  0  0  0
  -28.0508  -18.9321   16.8899 O   0  0  0  0  0  0  0  0  0  0  0  0
  -25.5814  -27.8842   22.2825 O   0  0  0  0  0  0  0  0  0  0  0  0
  -17.7112  -27.5165   21.9518 O   0  0  0  0  0  0  0  0  0  0  0  0
  -27.5221  -31.5274   22.5134 O   0  0  0  0  0  0  0  0  0  0  0  0
  -23.4353  -33.6270   23.7011 O   0  0  0  0  0  0  0  0  0  0  0  0
  -23.0963  -23.9083   23.7646 O   0  0  0  0  0  0  0  0  0  0  0  0
  -25.9936  -12.4057   20.5994 O   0  0  0  0  0  0  0  0  0  0  0  0
  -19.7087  -28.7666   20.7277 O   0  0  0  0  0  0  0  0  0  1  0  0
  -18.1606  -22.3839   19.7018 O   0  0  0  0  0  0  0  0  0  0  0  0
  -21.2009  -10.4252   22.4732 F   0  0  0  0  0  0  0  0  0  0  0  0
  -25.0452  -13.1154   23.0973 F   0  0  0  0  0  0  0  0  0  0  0  0
  1  2  1  0  0  0  0
  1  5  2  0  0  0  0
  2  6  2  0  0  0  0
  3 10  2  0  0  0  0
  3 18  1  0  0  0  0
  4 11  1  0  0  0  0
  4 18  2  0  0  0  0
  5 20  1  0  0  0  0
  6 22  1  0  0  0  0
  7 12  2  0  0  0  0
  7 21  1  0  0  0  0
  8  9  2  0  0  0  0
  8 24  1  0  0  0  0
  9 25  1  0  0  0  0
 10 26  1  0  0  0  0
 11 26  2  0  0  0  0
 12 27  1  0  0  0  0
 13 14  2  0  0  0  0
 13 28  1  0  0  0  0
 14 30  1  0  0  0  0
 15 23  1  0  0  0  0
 15 27  2  0  0  0  0
 16 25  2  0  0  0  0
 16 29  1  0  0  0  0
 17 30  2  0  0  0  0
 17 31  1  0  0  0  0
 18 32  1  0  0  0  0
 19 32  1  0  0  0  0
 19 33  2  0  0  0  0
 19 34  1  0  0  0  0
 20 22  2  0  0  0  0
 20 40  1  0  0  0  0
 21 23  2  0  0  0  0
 21 41  1  0  0  0  0
 22 49  1  0  0  0  0
 23 42  1  0  0  0  0
 24 29  2  0  0  0  0
 24 60  1  0  0  0  0
 25 74  1  0  0  0  0
 26 84  1  0  0  0  0
 27 85  1  0  0  0  0
 28 31  2  0  0  0  0
 28 84  1  0  0  0  0
 29 86  1  0  0  0  0
 30 87  1  0  0  0  0
 31 88  1  0  0  0  0
 32 68  2  0  0  0  0
 33 69  1  0  0  0  0
 33 72  1  0  0  0  0
 34 73  1  0  0  0  0
 34 78  2  0  0  0  0
 35 50  1  0  0  0  0
 35 75  1  0  0  0  0
 35 79  2  0  0  0  0
 36 61  1  0  0  0  0
 36 66  1  0  0  0  0
 36 80  2  0  0  0  0
 37 64  1  0  0  0  0
 37 70  1  0  0  0  0
 37 81  2  0  0  0  0
 38 65  1  0  0  0  0
 38 76  1  0  0  0  0
 38 82  2  0  0  0  0
 39 71  1  0  0  0  0
 39 74  1  0  0  0  0
 39 83  2  0  0  0  0
 40 43  1  0  0  0  0
 41 50  1  0  0  0  0
 42 70  1  0  0  0  0
 43 45  1  0  0  0  0
 44 46  1  0  0  0  0
 44 47  1  0  0  0  0
 45 49  1  0  0  0  0
 46 51  1  0  0  0  0
 47 71  1  0  0  0  0
 48 51  1  0  0  0  0
 48 71  1  0  0  0  0
 49 75  1  0  0  0  0
 50 70  1  0  0  0  0
 51 69  1  0  0  0  0
 52 62  1  0  0  0  0
 53 65  1  0  0  0  0
 54 66  1  0  0  0  0
 55 66  1  0  0  0  0
 56 67  1  0  0  0  0
 57 67  1  0  0  0  0
 58 67  1  0  0  0  0
 59 77  1  0  0  0  0
 60 66  1  0  0  0  0
 61 85  1  0  0  0  0
 62 63  1  0  0  0  0
 63 86  1  0  0  0  0
 64 67  1  0  0  0  0
 64 76  1  0  0  0  0
 65 77  1  0  0  0  0
 68 69  1  0  0  0  0
M  CHG  1  77   1
M  ISO  4  39 100  61 101  74 100  85 101
M  END
> <Batch ID>
0137

> <Smiles>
CCCOc1cc([100NH:0][100C:0](=O)N2CCCC(n3nc(-c4ccc(Oc5ccc(F)cc5F)cc4)c(C(N)=O)c3N)C2)ccc1CC(C)(C)C(=O)[101CH2:1][101O:1]c1ccc2c(c1)CN(C(=O)C(NC(=O)C(C)NC)C(C)(C)C)C(C(=O)NC1CCCc3ccccc31)C2

> <Shape>
0.267

> <Color>
0.058

> <Negative vol penalty>
0.000

$$$$

  -OEChem-04052302423D

 84 92  0     1  0  0  0  0  0999 V2000
  -35.2252  -32.2542   21.3191 C   0  0  0  0  0  0  0  0  0  0  0  0
  -34.7565  -31.1351   21.9997 C   0  0  0  0  0  0  0  0  0  0  0  0
  -23.0874   -9.8895   19.9091 C   0  0  0  0  0  0  0  0  0  0  0  0
  -23.8674   -9.8434   22.1952 C   0  0  0  0  0  0  0  0  0  0  0  0
  -34.5309  -32.7356   20.2100 C   0  0  0  0  0  0  0  0  0  0  0  0
  -33.5924  -30.4974   21.5723 C   0  0  0  0  0  0  0  0  0  0  0  0
  -34.0626  -25.4561   21.4756 C   0  0  0  0  0  0  0  0  0  0  0  0
  -32.6420  -17.4891   23.5199 C   0  0  0  0  0  0  0  0  0  0  0  0
  -32.0362  -16.6304   22.6027 C   0  0  0  0  0  0  0  0  0  0  0  0
  -22.3565   -8.7232   20.1349 C   0  0  0  0  0  0  0  0  0  0  0  0
  -23.1364   -8.6771   22.4211 C   0  0  0  0  0  0  0  0  0  0  0  0
  -33.9741  -24.7849   22.6944 C   0  0  0  0  0  0  0  0  0  0  0  0
  -19.9212   -7.8332   23.0301 C   0  0  0  0  0  0  0  0  0  0  0  0
  -19.1751   -7.7553   24.2060 C   0  0  0  0  0  0  0  0  0  0  0  0
  -31.6829  -24.2105   22.2049 C   0  0  0  0  0  0  0  0  0  0  0  0
  -30.4707  -18.3230   24.1734 C   0  0  0  0  0  0  0  0  0  0  0  0
  -20.4408   -5.8110   24.8804 C   0  0  0  0  0  0  0  0  0  0  0  0
  -23.8430  -10.4496   20.9392 C   0  0  0  0  0  0  0  0  0  0  0  0
  -24.1604  -12.9801   20.8829 C   0  0  0  0  0  0  0  0  0  0  0  0
  -33.3630  -32.0977   19.7629 C   0  0  0  0  0  0  0  0  0  0  0  0
  -32.9566  -25.5189   20.6158 C   0  0  0  0  0  0  0  0  0  0  0  0
  -32.8811  -30.9715   20.4570 C   0  0  0  0  0  0  0  0  0  0  0  0
  -31.7607  -24.8809   20.9747 C   0  0  0  0  0  0  0  0  0  0  0  0
  -31.8593  -18.3354   24.3053 C   0  0  0  0  0  0  0  0  0  0  0  0
  -29.8649  -17.4644   23.2562 C   0  0  0  0  0  0  0  0  0  0  0  0
  -30.6476  -16.6181   22.4708 C   0  0  0  0  0  0  0  0  0  0  0  0
  -22.3810   -8.1170   21.3909 C   0  0  0  0  0  0  0  0  0  0  0  0
  -32.7833  -24.1644   23.0605 C   0  0  0  0  0  0  0  0  0  0  0  0
  -20.9272   -6.8999   22.7793 C   0  0  0  0  0  0  0  0  0  0  0  0
  -19.4348   -6.7443   25.1311 C   0  0  0  0  0  0  0  0  0  0  0  0
  -21.1869   -5.8889   23.7045 C   0  0  0  0  0  0  0  0  0  0  0  0
  -24.5987  -11.6540   20.7064 C   0  0  0  0  0  0  0  0  0  0  0  0
  -25.2423  -13.7492   20.5301 C   0  0  0  0  0  0  0  0  0  0  0  0
  -22.8889  -13.4727   21.3261 C   0  0  0  0  0  0  0  0  0  0  0  0
  -31.1660  -27.8633   19.4320 C   0  0  0  0  0  0  0  0  0  0  0  0
  -29.8270  -25.4521   17.7246 C   0  0  0  0  0  0  0  0  0  0  0  0
  -29.1620  -22.1157   17.4535 C   0  0  0  0  0  0  0  0  0  0  0  0
  -30.6999  -14.8416   20.6854 C   0  0  0  0  0  0  0  0  0  0  0  0
  -32.6206  -32.6830   18.5878 C   0  0  0  0  0  0  0  0  0  0  0  0
  -33.0764  -26.2241   19.2926 C   0  0  0  0  0  0  0  0  0  0  0  0
  -30.5506  -24.9019   20.0781 C   0  0  0  0  0  0  0  0  0  0  0  0
  -31.6017  -31.7266   17.9735 C   0  0  0  0  0  0  0  0  0  0  0  0
  -29.5870  -12.4804   18.2640 C   0  0  0  0  0  0  0  0  0  0  0  0
  -30.7609  -31.0700   19.0637 C   0  0  0  0  0  0  0  0  0  0  0  0
  -28.1540  -12.1640   18.6980 C   0  0  0  0  0  0  0  0  0  0  0  0
  -30.5105  -12.6862   19.4633 C   0  0  0  0  0  0  0  0  0  0  0  0
  -28.6092  -13.3560   20.8795 C   0  0  0  0  0  0  0  0  0  0  0  0
  -31.6358  -30.2376   20.0090 C   0  0  1  0  0  0  0  0  0  0  0  0
  -31.7299  -26.6631   18.7254 C   0  0  1  0  0  0  0  0  0  0  0  0
  -27.6277  -13.2046   19.7059 C   0  0  2  0  0  0  0  0  0  0  0  0
  -28.3755  -17.4745   23.1339 C   0  0  0  0  0  0  0  0  0  0  0  0
  -28.0169  -20.4498   15.9667 C   0  0  0  0  0  0  0  0  0  0  0  0
  -27.1171  -26.3802   18.7758 C   0  0  0  0  0  0  0  0  0  0  0  0
  -26.1636  -24.1786   18.0603 C   0  0  0  0  0  0  0  0  0  0  0  0
  -27.1317  -25.7277   16.3616 C   0  0  0  0  0  0  0  0  0  0  0  0
  -34.9001  -21.0410   26.0959 C   0  0  0  0  0  0  0  0  0  0  0  0
  -32.7022  -22.0416   26.7708 C   0  0  0  0  0  0  0  0  0  0  0  0
  -31.6848  -20.6498   16.9580 C   0  0  0  0  0  0  0  0  0  0  0  0
  -32.5153  -19.2665   25.2963 C   0  0  0  0  0  0  0  0  0  0  0  0
  -32.8449  -20.6221   24.6560 C   0  0  0  0  0  0  0  0  0  0  0  0
  -33.8905  -22.9205   24.7584 C   0  0  0  0  0  0  0  0  0  1  0  0
  -28.6765  -24.4991   17.9416 C   0  0  1  0  0  0  0  0  0  0  0  0
  -29.3277  -21.1463   16.2972 C   0  0  2  0  0  0  0  0  0  0  0  0
  -27.2943  -25.1975   17.8028 C   0  0  0  0  0  0  0  0  0  0  0  0
  -33.5813  -21.6402   25.5730 C   0  0  0  0  0  0  0  0  0  0  0  0
  -25.8606  -11.5812   20.2749 N   0  0  0  0  0  0  0  0  0  0  0  0
  -26.2245  -12.8712   20.1772 N   0  0  0  0  0  0  0  0  0  0  0  0
  -30.7156  -25.6095   18.7976 N   0  0  0  0  0  0  0  0  0  0  0  0
  -29.9498  -13.6883   20.3723 N   0  0  0  0  0  0  0  0  0  0  0  0
  -25.4397  -15.0841   20.4904 N   0  0  0  0  0  0  0  0  0  0  0  0
  -21.8885  -12.5454   21.6480 N   0  0  0  0  0  0  0  0  0  0  0  0
  -30.0513  -15.7386   21.5334 N   0  0  0  0  0  0  0  0  0  0  0  0
  -31.9855  -28.9753   19.3936 N   0  0  0  0  0  0  0  0  0  0  0  0
  -28.8826  -23.3923   17.0137 N   0  0  0  0  0  0  0  0  0  0  0  0
  -30.3406  -20.1063   16.6342 N   0  3  0  0  0  0  0  0  0  0  0  0
  -22.6418  -14.6991   21.4179 O   0  0  0  0  0  0  0  0  0  0  0  0
  -30.0680  -27.7867   19.9707 O   0  0  0  0  0  0  0  0  0  0  0  0
  -29.9374  -26.0299   16.6403 O   0  0  0  0  0  0  0  0  0  0  0  0
  -29.2661  -21.7739   18.6295 O   0  0  0  0  0  0  0  0  0  0  0  0
  -31.8232  -15.0332   20.2127 O   0  0  0  0  0  0  0  0  0  0  0  0
  -21.6676   -6.9790   21.6117 O   0  0  0  0  0  0  0  0  0  0  0  0
  -32.6941  -23.5091   24.2499 O   0  0  0  0  0  0  0  0  0  1  0  0
  -18.7192   -6.6706   26.2610 F   0  0  0  0  0  0  0  0  0  0  0  0
  -22.1528   -4.9902   23.4696 F   0  0  0  0  0  0  0  0  0  0  0  0
  1  2  1  0  0  0  0
  1  5  2  0  0  0  0
  2  6  2  0  0  0  0
  3 10  2  0  0  0  0
  3 18  1  0  0  0  0
  4 11  1  0  0  0  0
  4 18  2  0  0  0  0
  5 20  1  0  0  0  0
  6 22  1  0  0  0  0
  7 12  2  0  0  0  0
  7 21  1  0  0  0  0
  8  9  2  0  0  0  0
  8 24  1  0  0  0  0
  9 26  1  0  0  0  0
 10 27  1  0  0  0  0
 11 27  2  0  0  0  0
 12 28  1  0  0  0  0
 13 14  2  0  0  0  0
 13 29  1  0  0  0  0
 14 30  1  0  0  0  0
 15 23  1  0  0  0  0
 15 28  2  0  0  0  0
 16 24  2  0  0  0  0
 16 25  1  0  0  0  0
 17 30  2  0  0  0  0
 17 31  1  0  0  0  0
 18 32  1  0  0  0  0
 19 32  1  0  0  0  0
 19 33  2  0  0  0  0
 19 34  1  0  0  0  0
 20 22  2  0  0  0  0
 20 39  1  0  0  0  0
 21 23  2  0  0  0  0
 21 40  1  0  0  0  0
 22 48  1  0  0  0  0
 23 41  1  0  0  0  0
 24 59  1  0  0  0  0
 25 26  2  0  0  0  0
 25 51  1  0  0  0  0
 26 72  1  0  0  0  0
 27 81  1  0  0  0  0
 28 82  1  0  0  0  0
 29 31  2  0  0  0  0
 29 81  1  0  0  0  0
 30 83  1  0  0  0  0
 31 84  1  0  0  0  0
 32 66  2  0  0  0  0
 33 67  1  0  0  0  0
 33 70  1  0  0  0  0
 34 71  1  0  0  0  0
 34 76  2  0  0  0  0
 35 49  1  0  0  0  0
 35 73  1  0  0  0  0
 35 77  2  0  0  0  0
 36 62  1  0  0  0  0
 36 68  1  0  0  0  0
 36 78  2  0  0  0  0
 37 63  1  0  0  0  0
 37 74  1  0  0  0  0
 37 79  2  0  0  0  0
 38 69  1  0  0  0  0
 38 72  1  0  0  0  0
 38 80  2  0  0  0  0
 39 42  1  0  0  0  0
 40 49  1  0  0  0  0
 41 68  1  0  0  0  0
 42 44  1  0  0  0  0
 43 45  1  0  0  0  0
 43 46  1  0  0  0  0
 44 48  1  0  0  0  0
 45 50  1  0  0  0  0
 46 69  1  0  0  0  0
 47 50  1  0  0  0  0
 47 69  1  0  0  0  0
 48 73  1  0  0  0  0
 49 68  1  0  0  0  0
 50 67  1  0  0  0  0
 52 63  1  0  0  0  0
 53 64  1  0  0  0  0
 54 64  1  0  0  0  0
 55 64  1  0  0  0  0
 56 65  1  0  0  0  0
 57 65  1  0  0  0  0
 58 75  1  0  0  0  0
 59 60  1  0  0  0  0
 60 65  1  0  0  0  0
 61 65  1  0  0  0  0
 61 82  1  0  0  0  0
 62 64  1  0  0  0  0
 62 74  1  0  0  0  0
 63 75  1  0  0  0  0
 66 67  1  0  0  0  0
M  CHG  1  75   1
M  ISO  4  38 100  61 101  72 100  82 101
M  END
> <Batch ID>
0137

> <Smiles>
CNC(C)C(=O)NC(C(=O)N1Cc2cc([101O:1][101CH2:1]C(C)(C)CCc3ccc([100NH:0][100C:0](=O)N4CCCC(n5nc(-c6ccc(Oc7ccc(F)cc7F)cc6)c(C(N)=O)c5N)C4)c(C)c3)ccc2CC1C(=O)NC1CCCc2ccccc21)C(C)(C)C

> <Shape>
0.233

> <Color>
0.201

> <Negative vol penalty>
0.000

$$$$

  -OEChem-04052302423D

 84 92  0     1  0  0  0  0  0999 V2000
  -17.1441  -28.0927   19.5822 C   0  0  0  0  0  0  0  0  0  0  0  0
  -17.8856  -29.2673   19.5055 C   0  0  0  0  0  0  0  0  0  0  0  0
  -30.9888  -22.5530   21.4559 C   0  0  0  0  0  0  0  0  0  0  0  0
  -24.2281  -14.1355   19.5450 C   0  0  0  0  0  0  0  0  0  0  0  0
  -25.9090  -14.6539   21.2012 C   0  0  0  0  0  0  0  0  0  0  0  0
  -17.3711  -27.1931   20.6230 C   0  0  0  0  0  0  0  0  0  0  0  0
  -18.8539  -29.5435   20.4701 C   0  0  0  0  0  0  0  0  0  0  0  0
  -26.4656  -31.0816   19.6193 C   0  0  0  0  0  0  0  0  0  0  0  0
  -30.3724  -21.5828   20.6657 C   0  0  0  0  0  0  0  0  0  0  0  0
  -31.0810  -23.8682   21.0004 C   0  0  0  0  0  0  0  0  0  0  0  0
  -24.4355  -12.7732   19.7609 C   0  0  0  0  0  0  0  0  0  0  0  0
  -26.1164  -13.2916   21.4171 C   0  0  0  0  0  0  0  0  0  0  0  0
  -27.8547  -31.2098   19.6080 C   0  0  0  0  0  0  0  0  0  0  0  0
  -24.2664   -9.1612   20.1352 C   0  0  0  0  0  0  0  0  0  0  0  0
  -23.1417   -8.3452   20.2567 C   0  0  0  0  0  0  0  0  0  0  0  0
  -27.9672  -30.3050   21.8477 C   0  0  0  0  0  0  0  0  0  0  0  0
  -29.9404  -23.2430   18.9644 C   0  0  0  0  0  0  0  0  0  0  0  0
  -22.4151   -9.6312   22.1686 C   0  0  0  0  0  0  0  0  0  0  0  0
  -24.9648  -15.0759   20.2651 C   0  0  0  0  0  0  0  0  0  0  0  0
  -23.8367  -17.3205   20.7087 C   0  0  0  0  0  0  0  0  0  0  0  0
  -18.3493  -27.4538   21.5954 C   0  0  0  0  0  0  0  0  0  0  0  0
  -25.8225  -30.5496   20.7404 C   0  0  0  0  0  0  0  0  0  0  0  0
  -19.0933  -28.6472   21.5256 C   0  0  0  0  0  0  0  0  0  0  0  0
  -26.5771  -30.1625   21.8601 C   0  0  0  0  0  0  0  0  0  0  0  0
  -29.8483  -21.9278   19.4200 C   0  0  0  0  0  0  0  0  0  0  0  0
  -25.3797  -12.3512   20.6970 C   0  0  0  0  0  0  0  0  0  0  0  0
  -28.6035  -30.8227   20.7195 C   0  0  0  0  0  0  0  0  0  0  0  0
  -30.5568  -24.2131   19.7547 C   0  0  0  0  0  0  0  0  0  0  0  0
  -24.4655  -10.2122   21.0305 C   0  0  0  0  0  0  0  0  0  0  0  0
  -22.2161   -8.5802   21.2734 C   0  0  0  0  0  0  0  0  0  0  0  0
  -23.5399  -10.4472   22.0471 C   0  0  0  0  0  0  0  0  0  0  0  0
  -24.7514  -16.4833   20.0422 C   0  0  0  0  0  0  0  0  0  0  0  0
  -24.0212  -18.5553   20.1362 C   0  0  0  0  0  0  0  0  0  0  0  0
  -22.9038  -17.0098   21.7522 C   0  0  0  0  0  0  0  0  0  0  0  0
  -22.5814  -29.5503   22.3443 C   0  0  0  0  0  0  0  0  0  0  0  0
  -31.3241  -27.8142   19.5094 C   0  0  0  0  0  0  0  0  0  0  0  0
  -24.6358  -27.3891   23.0649 C   0  0  0  0  0  0  0  0  0  0  0  0
  -26.7535  -25.0798   22.7735 C   0  0  0  0  0  0  0  0  0  0  0  0
  -28.6501  -21.1163   17.3579 C   0  0  0  0  0  0  0  0  0  0  0  0
  -18.5260  -26.4740   22.7283 C   0  0  0  0  0  0  0  0  0  0  0  0
  -24.3233  -30.4505   20.8204 C   0  0  0  0  0  0  0  0  0  0  0  0
  -25.8397  -29.6277   23.0572 C   0  0  0  0  0  0  0  0  0  0  0  0
  -19.8298  -26.6631   23.4994 C   0  0  0  0  0  0  0  0  0  0  0  0
  -25.3837  -20.6145   16.0328 C   0  0  0  0  0  0  0  0  0  0  0  0
  -20.0505  -28.1377   23.8213 C   0  0  0  0  0  0  0  0  0  0  0  0
  -24.7655  -19.5789   16.9749 C   0  0  0  0  0  0  0  0  0  0  0  0
  -26.8707  -20.3532   15.8001 C   0  0  0  0  0  0  0  0  0  0  0  0
  -27.0586  -19.1884   17.9628 C   0  0  0  0  0  0  0  0  0  0  0  0
  -20.1696  -28.9704   22.5391 C   0  0  1  0  0  0  0  0  0  0  0  0
  -23.8411  -29.2148   21.6013 C   0  0  1  0  0  0  0  0  0  0  0  0
  -25.5766  -19.4480   18.2789 C   0  0  2  0  0  0  0  0  0  0  0  0
  -27.9156  -22.9804   23.5080 C   0  0  0  0  0  0  0  0  0  0  0  0
  -24.9768  -28.6611   25.8162 C   0  0  0  0  0  0  0  0  0  0  0  0
  -26.3202  -26.6607   26.4961 C   0  0  0  0  0  0  0  0  0  0  0  0
  -23.9290  -26.3904   25.8389 C   0  0  0  0  0  0  0  0  0  0  0  0
  -26.0109  -23.6599   20.2852 C   0  0  0  0  0  0  0  0  0  0  0  0
  -32.0000  -28.9048   20.3258 C   0  0  0  0  0  0  0  0  0  0  0  0
  -31.2834  -26.4422   20.1535 C   0  0  0  0  0  0  0  0  0  0  0  0
  -32.0058  -30.2697   19.6449 C   0  0  0  0  0  0  0  0  0  0  0  0
  -30.6035  -30.8278   19.4320 C   0  0  0  0  0  0  0  0  0  1  0  0
  -25.6540  -26.8935   24.0603 C   0  0  1  0  0  0  0  0  0  0  0  0
  -26.8043  -23.5675   22.6518 C   0  0  2  0  0  0  0  0  0  0  0  0
  -25.2276  -27.1670   25.5303 C   0  0  0  0  0  0  0  0  0  0  0  0
  -25.4639  -17.1315   19.1168 N   0  0  0  0  0  0  0  0  0  0  0  0
  -24.9969  -18.3890   19.1978 N   0  0  0  0  0  0  0  0  0  0  0  0
  -24.7747  -28.7103   22.6226 N   0  0  0  0  0  0  0  0  0  0  0  0
  -27.5756  -20.2453   17.0793 N   0  0  0  0  0  0  0  0  0  0  0  0
  -23.4423  -19.7561   20.3488 N   0  0  0  0  0  0  0  0  0  0  0  0
  -22.8441  -15.6915   22.2244 N   0  0  0  0  0  0  0  0  0  0  0  0
  -29.2220  -20.9419   18.6177 N   0  0  0  0  0  0  0  0  0  0  0  0
  -21.4827  -28.8096   21.9522 N   0  0  0  0  0  0  0  0  0  0  0  0
  -25.8720  -25.4839   23.7538 N   0  0  0  0  0  0  0  0  0  0  0  0
  -27.0421  -23.1695   21.2355 N   0  3  0  0  0  0  0  0  0  0  0  0
  -22.1341  -17.8720   22.2397 O   0  0  0  0  0  0  0  0  0  0  0  0
  -22.6036  -30.4163   23.2110 O   0  0  0  0  0  0  0  0  0  0  0  0
  -30.8609  -28.0164   18.3882 O   0  0  0  0  0  0  0  0  0  0  0  0
  -23.7372  -26.6295   22.6923 O   0  0  0  0  0  0  0  0  0  0  0  0
  -27.4310  -25.8276   22.0719 O   0  0  0  0  0  0  0  0  0  0  0  0
  -29.0172  -21.9732   16.5498 O   0  0  0  0  0  0  0  0  0  0  0  0
  -25.5822  -11.0219   20.9081 O   0  0  0  0  0  0  0  0  0  0  0  0
  -30.6477  -25.5094   19.3055 O   0  0  0  0  0  0  0  0  0  0  0  0
  -29.9597  -30.9463   20.7000 O   0  0  0  0  0  0  0  0  0  1  0  0
  -21.1353   -7.7975   21.3890 F   0  0  0  0  0  0  0  0  0  0  0  0
  -23.7252  -11.4561   22.9094 F   0  0  0  0  0  0  0  0  0  0  0  0
  1  2  1  0  0  0  0
  1  6  2  0  0  0  0
  2  7  2  0  0  0  0
  3  9  1  0  0  0  0
  3 10  2  0  0  0  0
  4 11  2  0  0  0  0
  4 19  1  0  0  0  0
  5 12  1  0  0  0  0
  5 19  2  0  0  0  0
  6 21  1  0  0  0  0
  7 23  1  0  0  0  0
  8 13  2  0  0  0  0
  8 22  1  0  0  0  0
  9 25  2  0  0  0  0
 10 28  1  0  0  0  0
 11 26  1  0  0  0  0
 12 26  2  0  0  0  0
 13 27  1  0  0  0  0
 14 15  2  0  0  0  0
 14 29  1  0  0  0  0
 15 30  1  0  0  0  0
 16 24  1  0  0  0  0
 16 27  2  0  0  0  0
 17 25  1  0  0  0  0
 17 28  2  0  0  0  0
 18 30  2  0  0  0  0
 18 31  1  0  0  0  0
 19 32  1  0  0  0  0
 20 32  1  0  0  0  0
 20 33  2  0  0  0  0
 20 34  1  0  0  0  0
 21 23  2  0  0  0  0
 21 40  1  0  0  0  0
 22 24  2  0  0  0  0
 22 41  1  0  0  0  0
 23 49  1  0  0  0  0
 24 42  1  0  0  0  0
 25 70  1  0  0  0  0
 26 80  1  0  0  0  0
 27 82  1  0  0  0  0
 28 81  1  0  0  0  0
 29 31  2  0  0  0  0
 29 80  1  0  0  0  0
 30 83  1  0  0  0  0
 31 84  1  0  0  0  0
 32 64  2  0  0  0  0
 33 65  1  0  0  0  0
 33 68  1  0  0  0  0
 34 69  1  0  0  0  0
 34 74  2  0  0  0  0
 35 50  1  0  0  0  0
 35 71  1  0  0  0  0
 35 75  2  0  0  0  0
 36 57  1  0  0  0  0
 36 58  1  0  0  0  0
 36 76  2  0  0  0  0
 37 61  1  0  0  0  0
 37 66  1  0  0  0  0
 37 77  2  0  0  0  0
 38 62  1  0  0  0  0
 38 72  1  0  0  0  0
 38 78  2  0  0  0  0
 39 67  1  0  0  0  0
 39 70  1  0  0  0  0
 39 79  2  0  0  0  0
 40 43  1  0  0  0  0
 41 50  1  0  0  0  0
 42 66  1  0  0  0  0
 43 45  1  0  0  0  0
 44 46  1  0  0  0  0
 44 47  1  0  0  0  0
 45 49  1  0  0  0  0
 46 51  1  0  0  0  0
 47 67  1  0  0  0  0
 48 51  1  0  0  0  0
 48 67  1  0  0  0  0
 49 71  1  0  0  0  0
 50 66  1  0  0  0  0
 51 65  1  0  0  0  0
 52 62  1  0  0  0  0
 53 63  1  0  0  0  0
 54 63  1  0  0  0  0
 55 63  1  0  0  0  0
 56 73  1  0  0  0  0
 57 59  1  0  0  0  0
 58 81  1  0  0  0  0
 59 60  1  0  0  0  0
 60 82  1  0  0  0  0
 61 63  1  0  0  0  0
 61 72  1  0  0  0  0
 62 73  1  0  0  0  0
 64 65  1  0  0  0  0
M  CHG  1  73   1
M  ISO  4  39 100  60 101  70 100  82 101
M  END
> <Batch ID>
0137

> <Smiles>
CNC(C)C(=O)NC(C(=O)N1Cc2cc([101O:1][101CH2:1]CCC(=O)COc3cccc([100NH:0][100C:0](=O)N4CCCC(n5nc(-c6ccc(Oc7ccc(F)cc7F)cc6)c(C(N)=O)c5N)C4)c3)ccc2CC1C(=O)NC1CCCc2ccccc21)C(C)(C)C

> <Shape>
0.209

> <Color>
0.094

> <Negative vol penalty>
0.000

$$$$

  -OEChem-04052302423D

 88 96  0     1  0  0  0  0  0999 V2000
  -22.5478  -32.8774   24.9393 C   0  0  0  0  0  0  0  0  0  0  0  0
  -23.5554  -32.0092   24.5312 C   0  0  0  0  0  0  0  0  0  0  0  0
  -26.8513  -12.2056   21.2569 C   0  0  0  0  0  0  0  0  0  0  0  0
  -25.7478  -14.1145   20.2693 C   0  0  0  0  0  0  0  0  0  0  0  0
  -21.2231  -32.4433   24.9646 C   0  0  0  0  0  0  0  0  0  0  0  0
  -23.2388  -30.7060   24.1491 C   0  0  0  0  0  0  0  0  0  0  0  0
  -25.6187  -29.2925   19.9085 C   0  0  0  0  0  0  0  0  0  0  0  0
  -31.8255  -22.9584   20.1286 C   0  0  0  0  0  0  0  0  0  0  0  0
  -31.6995  -21.8041   20.9015 C   0  0  0  0  0  0  0  0  0  0  0  0
  -25.6113  -11.6623   21.5925 C   0  0  0  0  0  0  0  0  0  0  0  0
  -24.5077  -13.5712   20.6048 C   0  0  0  0  0  0  0  0  0  0  0  0
  -26.9589  -28.9258   20.0225 C   0  0  0  0  0  0  0  0  0  0  0  0
  -23.1228   -9.9849   20.0347 C   0  0  0  0  0  0  0  0  0  0  0  0
  -22.9177   -8.6296   19.7769 C   0  0  0  0  0  0  0  0  0  0  0  0
  -26.3185  -26.6002   19.9983 C   0  0  0  0  0  0  0  0  0  0  0  0
  -29.5610  -22.6746   19.3356 C   0  0  0  0  0  0  0  0  0  0  0  0
  -22.5189   -8.2426   22.1281 C   0  0  0  0  0  0  0  0  0  0  0  0
  -26.9196  -13.4318   20.5953 C   0  0  0  0  0  0  0  0  0  0  0  0
  -28.9218  -13.7942   19.0567 C   0  0  0  0  0  0  0  0  0  0  0  0
  -20.8890  -31.1372   24.5734 C   0  0  0  0  0  0  0  0  0  0  0  0
  -24.6156  -28.3143   19.8494 C   0  0  0  0  0  0  0  0  0  0  0  0
  -21.9085  -30.2537   24.1705 C   0  0  0  0  0  0  0  0  0  0  0  0
  -24.9664  -26.9570   19.8809 C   0  0  0  0  0  0  0  0  0  0  0  0
  -30.7562  -23.3937   19.3456 C   0  0  0  0  0  0  0  0  0  0  0  0
  -30.5043  -21.0851   20.8914 C   0  0  0  0  0  0  0  0  0  0  0  0
  -24.4394  -12.3451   21.2664 C   0  0  0  0  0  0  0  0  0  0  0  0
  -27.3088  -27.5796   20.0703 C   0  0  0  0  0  0  0  0  0  0  0  0
  -23.0260  -10.4691   21.3393 C   0  0  0  0  0  0  0  0  0  0  0  0
  -29.4350  -21.5203   20.1085 C   0  0  0  0  0  0  0  0  0  0  0  0
  -22.6157   -7.7584   20.8235 C   0  0  0  0  0  0  0  0  0  0  0  0
  -22.7240   -9.5980   22.3859 C   0  0  0  0  0  0  0  0  0  0  0  0
  -28.2004  -13.9938   20.2489 C   0  0  0  0  0  0  0  0  0  0  0  0
  -30.0644  -14.5392   19.2179 C   0  0  0  0  0  0  0  0  0  0  0  0
  -28.5889  -13.0060   17.9062 C   0  0  0  0  0  0  0  0  0  0  0  0
  -22.1195  -27.5486   21.6623 C   0  0  0  0  0  0  0  0  0  0  0  0
  -21.4994  -25.4704   19.2501 C   0  0  0  0  0  0  0  0  0  0  0  0
  -22.6881  -23.6340   16.6306 C   0  0  0  0  0  0  0  0  0  0  0  0
  -31.3672  -19.3551   22.5066 C   0  0  0  0  0  0  0  0  0  0  0  0
  -19.4487  -30.6987   24.6625 C   0  0  0  0  0  0  0  0  0  0  0  0
  -23.1767  -28.7258   19.6995 C   0  0  0  0  0  0  0  0  0  0  0  0
  -23.9293  -25.8678   19.8006 C   0  0  0  0  0  0  0  0  0  0  0  0
  -19.1524  -29.4191   23.8847 C   0  0  0  0  0  0  0  0  0  0  0  0
  -33.0062  -16.1961   22.6142 C   0  0  0  0  0  0  0  0  0  0  0  0
  -20.2147  -28.3625   24.1706 C   0  0  0  0  0  0  0  0  0  0  0  0
  -32.0282  -15.2559   21.9060 C   0  0  0  0  0  0  0  0  0  0  0  0
  -32.2780  -17.2454   23.4524 C   0  0  0  0  0  0  0  0  0  0  0  0
  -30.2782  -17.0755   22.0237 C   0  0  0  0  0  0  0  0  0  0  0  0
  -21.6020  -28.8403   23.7250 C   0  0  1  0  0  0  0  0  0  0  0  0
  -22.1969  -27.6533   20.1654 C   0  0  1  0  0  0  0  0  0  0  0  0
  -30.9636  -16.0415   21.1154 C   0  0  2  0  0  0  0  0  0  0  0  0
  -24.6799  -18.2788   17.8837 C   0  0  0  0  0  0  0  0  0  0  0  0
  -30.0295  -27.1199   16.8582 C   0  0  0  0  0  0  0  0  0  0  0  0
  -21.9494  -22.0032   14.8722 C   0  0  0  0  0  0  0  0  0  0  0  0
  -21.3860  -23.2604   21.3508 C   0  0  0  0  0  0  0  0  0  0  0  0
  -21.6004  -21.5869   19.5011 C   0  0  0  0  0  0  0  0  0  0  0  0
  -19.6255  -23.1088   19.5810 C   0  0  0  0  0  0  0  0  0  0  0  0
  -31.3551  -26.2623   20.4308 C   0  0  0  0  0  0  0  0  0  0  0  0
  -23.4899  -25.4552   14.4398 C   0  0  0  0  0  0  0  0  0  0  0  0
  -30.8932  -24.6451   18.5078 C   0  0  0  0  0  0  0  0  0  0  0  0
  -25.9892  -19.0267   17.6897 C   0  0  0  0  0  0  0  0  0  0  0  0
  -30.7797  -27.1678   18.1843 C   0  0  0  0  0  0  0  0  0  0  0  0
  -26.4995  -19.6113   19.0037 C   0  0  0  0  0  0  0  0  0  0  0  0
  -27.8320  -20.3240   18.8219 C   0  0  0  0  0  0  0  0  0  0  0  0
  -29.0000  -25.9768   19.5939 C   0  0  0  0  0  0  0  0  0  1  0  0
  -21.8858  -24.0439   18.9420 C   0  0  1  0  0  0  0  0  0  0  0  0
  -22.1866  -23.4675   15.2075 C   0  0  2  0  0  0  0  0  0  0  0  0
  -21.1440  -23.0203   19.8472 C   0  0  0  0  0  0  0  0  0  0  0  0
  -30.4899  -25.9963   19.1764 C   0  0  2  0  0  0  0  0  0  0  0  0
  -28.8317  -14.8020   21.1045 N   0  0  0  0  0  0  0  0  0  0  0  0
  -29.9620  -15.1169   20.4492 N   0  0  0  0  0  0  0  0  0  0  0  0
  -22.5355  -26.3209   19.6611 N   0  0  0  0  0  0  0  0  0  0  0  0
  -31.2884  -17.9523   22.6366 N   0  0  0  0  0  0  0  0  0  0  0  0
  -31.1366  -14.7499   18.4253 N   0  0  0  0  0  0  0  0  0  0  0  0
  -27.3760  -12.3037   17.9057 N   0  0  0  0  0  0  0  0  0  0  0  0
  -30.3925  -19.9132   21.6802 N   0  0  0  0  0  0  0  0  0  0  0  0
  -21.7409  -28.7203   22.2894 N   0  0  0  0  0  0  0  0  0  0  0  0
  -21.6532  -23.8573   17.5139 N   0  0  0  0  0  0  0  0  0  0  0  0
  -23.1795  -24.0160   14.2409 N   0  3  0  0  0  0  0  0  0  0  0  0
  -29.3522  -12.9138   16.9150 O   0  0  0  0  0  0  0  0  0  0  0  0
  -22.3823  -26.4832   22.2078 O   0  0  0  0  0  0  0  0  0  0  0  0
  -20.3229  -25.8190   19.1236 O   0  0  0  0  0  0  0  0  0  0  0  0
  -23.8785  -23.5687   16.9293 O   0  0  0  0  0  0  0  0  0  0  0  0
  -32.2519  -20.0097   23.0641 O   0  0  0  0  0  0  0  0  0  0  0  0
  -23.2292  -11.8152   21.5935 O   0  0  0  0  0  0  0  0  0  0  0  0
  -28.6162  -27.2189   20.1822 O   0  0  0  0  0  0  0  0  0  1  0  0
  -28.2588  -20.8318   20.0841 O   0  0  0  0  0  0  0  0  0  0  0  0
  -22.4172   -6.4571   20.5756 F   0  0  0  0  0  0  0  0  0  0  0  0
  -22.6286  -10.0576   23.6411 F   0  0  0  0  0  0  0  0  0  0  0  0
  1  2  1  0  0  0  0
  1  5  2  0  0  0  0
  2  6  2  0  0  0  0
  3 10  2  0  0  0  0
  3 18  1  0  0  0  0
  4 11  1  0  0  0  0
  4 18  2  0  0  0  0
  5 20  1  0  0  0  0
  6 22  1  0  0  0  0
  7 12  2  0  0  0  0
  7 21  1  0  0  0  0
  8  9  2  0  0  0  0
  8 24  1  0  0  0  0
  9 25  1  0  0  0  0
 10 26  1  0  0  0  0
 11 26  2  0  0  0  0
 12 27  1  0  0  0  0
 13 14  2  0  0  0  0
 13 28  1  0  0  0  0
 14 30  1  0  0  0  0
 15 23  1  0  0  0  0
 15 27  2  0  0  0  0
 16 24  2  0  0  0  0
 16 29  1  0  0  0  0
 17 30  2  0  0  0  0
 17 31  1  0  0  0  0
 18 32  1  0  0  0  0
 19 32  1  0  0  0  0
 19 33  2  0  0  0  0
 19 34  1  0  0  0  0
 20 22  2  0  0  0  0
 20 39  1  0  0  0  0
 21 23  2  0  0  0  0
 21 40  1  0  0  0  0
 22 48  1  0  0  0  0
 23 41  1  0  0  0  0
 24 59  1  0  0  0  0
 25 29  2  0  0  0  0
 25 75  1  0  0  0  0
 26 84  1  0  0  0  0
 27 85  1  0  0  0  0
 28 31  2  0  0  0  0
 28 84  1  0  0  0  0
 29 86  1  0  0  0  0
 30 87  1  0  0  0  0
 31 88  1  0  0  0  0
 32 69  2  0  0  0  0
 33 70  1  0  0  0  0
 33 73  1  0  0  0  0
 34 74  1  0  0  0  0
 34 79  2  0  0  0  0
 35 49  1  0  0  0  0
 35 76  1  0  0  0  0
 35 80  2  0  0  0  0
 36 65  1  0  0  0  0
 36 71  1  0  0  0  0
 36 81  2  0  0  0  0
 37 66  1  0  0  0  0
 37 77  1  0  0  0  0
 37 82  2  0  0  0  0
 38 72  1  0  0  0  0
 38 75  1  0  0  0  0
 38 83  2  0  0  0  0
 39 42  1  0  0  0  0
 40 49  1  0  0  0  0
 41 71  1  0  0  0  0
 42 44  1  0  0  0  0
 43 45  1  0  0  0  0
 43 46  1  0  0  0  0
 44 48  1  0  0  0  0
 45 50  1  0  0  0  0
 46 72  1  0  0  0  0
 47 50  1  0  0  0  0
 47 72  1  0  0  0  0
 48 76  1  0  0  0  0
 49 71  1  0  0  0  0
 50 70  1  0  0  0  0
 51 60  1  0  0  0  0
 52 61  1  0  0  0  0
 53 66  1  0  0  0  0
 54 67  1  0  0  0  0
 55 67  1  0  0  0  0
 56 67  1  0  0  0  0
 57 68  1  0  0  0  0
 58 78  1  0  0  0  0
 59 68  1  0  0  0  0
 60 62  1  0  0  0  0
 61 68  1  0  0  0  0
 62 63  1  0  0  0  0
 63 86  1  0  0  0  0
 64 68  1  0  0  0  0
 64 85  1  0  0  0  0
 65 67  1  0  0  0  0
 65 77  1  0  0  0  0
 66 78  1  0  0  0  0
 69 70  1  0  0  0  0
M  CHG  1  78   1
M  ISO  4  38 100  64 101  75 100  85 101
M  END
> <Batch ID>
0137

> <Smiles>
CCCCOc1cc(CC(C)(CC)[101CH2:1][101O:1]c2ccc3c(c2)CN(C(=O)C(NC(=O)C(C)NC)C(C)(C)C)C(C(=O)NC2CCCc4ccccc42)C3)ccc1[100NH:0][100C:0](=O)N1CCCC(n2nc(-c3ccc(Oc4ccc(F)cc4F)cc3)c(C(N)=O)c2N)C1

> <Shape>
0.290

> <Color>
0.077

> <Negative vol penalty>
0.000

$$$$

  -OEChem-04052302423D

 84 92  0     1  0  0  0  0  0999 V2000
  -28.7930  -25.9288   27.8032 C   0  0  0  0  0  0  0  0  0  0  0  0
  -29.8384  -25.0826   27.4474 C   0  0  0  0  0  0  0  0  0  0  0  0
  -22.9761   -9.9355   19.9809 C   0  0  0  0  0  0  0  0  0  0  0  0
  -23.7108   -9.9581   22.2824 C   0  0  0  0  0  0  0  0  0  0  0  0
  -27.6553  -26.0046   27.0009 C   0  0  0  0  0  0  0  0  0  0  0  0
  -29.7462  -24.3110   26.2896 C   0  0  0  0  0  0  0  0  0  0  0  0
  -34.3171  -22.7789   22.5126 C   0  0  0  0  0  0  0  0  0  0  0  0
  -30.6040  -18.2547   24.0334 C   0  0  0  0  0  0  0  0  0  0  0  0
  -22.1958   -8.8090   20.2411 C   0  0  0  0  0  0  0  0  0  0  0  0
  -22.9304   -8.8316   22.5426 C   0  0  0  0  0  0  0  0  0  0  0  0
  -35.0884  -21.6236   22.3938 C   0  0  0  0  0  0  0  0  0  0  0  0
  -31.9892  -18.2194   24.1931 C   0  0  0  0  0  0  0  0  0  0  0  0
  -23.1290   -5.4937   22.0426 C   0  0  0  0  0  0  0  0  0  0  0  0
  -23.7060   -4.4628   22.7841 C   0  0  0  0  0  0  0  0  0  0  0  0
  -33.6235  -20.8325   20.6482 C   0  0  0  0  0  0  0  0  0  0  0  0
  -32.1312  -16.4370   22.5683 C   0  0  0  0  0  0  0  0  0  0  0  0
  -21.9919   -4.7146   24.4680 C   0  0  0  0  0  0  0  0  0  0  0  0
  -23.7337  -10.5100   21.0016 C   0  0  0  0  0  0  0  0  0  0  0  0
  -24.1514  -13.0217   20.8445 C   0  0  0  0  0  0  0  0  0  0  0  0
  -27.5531  -25.2407   25.8276 C   0  0  0  0  0  0  0  0  0  0  0  0
  -33.1850  -22.9650   21.7063 C   0  0  0  0  0  0  0  0  0  0  0  0
  -28.6054  -24.3757   25.4716 C   0  0  0  0  0  0  0  0  0  0  0  0
  -32.8409  -21.9922   20.7570 C   0  0  0  0  0  0  0  0  0  0  0  0
  -29.9823  -17.3811   23.1412 C   0  0  0  0  0  0  0  0  0  0  0  0
  -30.7459  -16.4723   22.4086 C   0  0  0  0  0  0  0  0  0  0  0  0
  -22.1729   -8.2571   21.5219 C   0  0  0  0  0  0  0  0  0  0  0  0
  -34.7400  -20.6489   21.4635 C   0  0  0  0  0  0  0  0  0  0  0  0
  -32.7528  -17.3106   23.4606 C   0  0  0  0  0  0  0  0  0  0  0  0
  -21.9835   -6.1352   22.5138 C   0  0  0  0  0  0  0  0  0  0  0  0
  -23.1374   -4.0732   23.9968 C   0  0  0  0  0  0  0  0  0  0  0  0
  -21.4149   -5.7456   23.7265 C   0  0  0  0  0  0  0  0  0  0  0  0
  -24.5405  -11.6733   20.7333 C   0  0  0  0  0  0  0  0  0  0  0  0
  -25.2692  -13.7326   20.4816 C   0  0  0  0  0  0  0  0  0  0  0  0
  -22.8922  -13.5815   21.2405 C   0  0  0  0  0  0  0  0  0  0  0  0
  -30.0723  -23.3045   22.2539 C   0  0  0  0  0  0  0  0  0  0  0  0
  -29.9676  -23.8610   19.0599 C   0  0  0  0  0  0  0  0  0  0  0  0
  -31.4094  -23.4354   15.9961 C   0  0  0  0  0  0  0  0  0  0  0  0
  -30.7617  -14.6197   20.7016 C   0  0  0  0  0  0  0  0  0  0  0  0
  -26.2835  -25.3209   25.0174 C   0  0  0  0  0  0  0  0  0  0  0  0
  -32.3788  -24.2290   21.8283 C   0  0  0  0  0  0  0  0  0  0  0  0
  -31.6467  -22.1533   19.8534 C   0  0  0  0  0  0  0  0  0  0  0  0
  -26.4232  -24.7507   23.6083 C   0  0  0  0  0  0  0  0  0  0  0  0
  -29.6022  -12.2008   18.3603 C   0  0  0  0  0  0  0  0  0  0  0  0
  -27.1340  -23.4015   23.6463 C   0  0  0  0  0  0  0  0  0  0  0  0
  -28.1500  -11.9589   18.7781 C   0  0  0  0  0  0  0  0  0  0  0  0
  -30.5105  -12.4225   19.5684 C   0  0  0  0  0  0  0  0  0  0  0  0
  -28.6109  -13.2255   20.9159 C   0  0  0  0  0  0  0  0  0  0  0  0
  -28.5532  -23.5414   24.2101 C   0  0  1  0  0  0  0  0  0  0  0  0
  -30.9509  -24.0790   21.3127 C   0  0  1  0  0  0  0  0  0  0  0  0
  -27.6463  -13.0614   19.7300 C   0  0  2  0  0  0  0  0  0  0  0  0
  -28.4969  -17.4413   22.9906 C   0  0  0  0  0  0  0  0  0  0  0  0
  -31.0715  -23.9725   13.5682 C   0  0  0  0  0  0  0  0  0  0  0  0
  -27.8396  -21.6820   18.8766 C   0  0  0  0  0  0  0  0  0  0  0  0
  -28.2338  -21.6021   16.4055 C   0  0  0  0  0  0  0  0  0  0  0  0
  -27.3929  -23.6978   17.4654 C   0  0  0  0  0  0  0  0  0  0  0  0
  -37.0905  -17.0684   21.2821 C   0  0  0  0  0  0  0  0  0  0  0  0
  -37.0170  -17.0437   23.7832 C   0  0  0  0  0  0  0  0  0  0  0  0
  -33.9240  -24.9912   15.8707 C   0  0  0  0  0  0  0  0  0  0  0  0
  -36.1558  -19.0570   22.5204 C   0  0  0  0  0  0  0  0  0  1  0  0
  -34.8793  -16.8774   22.4878 C   0  0  0  0  0  0  0  0  0  0  0  0
  -29.7961  -23.0023   17.8302 C   0  0  1  0  0  0  0  0  0  0  0  0
  -31.7054  -24.4175   14.8770 C   0  0  2  0  0  0  0  0  0  0  0  0
  -28.3370  -22.4918   17.6626 C   0  0  0  0  0  0  0  0  0  0  0  0
  -36.2836  -17.5174   22.5153 C   0  0  0  0  0  0  0  0  0  0  0  0
  -25.8064  -11.5334   20.3311 N   0  0  0  0  0  0  0  0  0  0  0  0
  -26.2225  -12.8030   20.1863 N   0  0  0  0  0  0  0  0  0  0  0  0
  -30.8865  -23.4036   20.0151 N   0  0  0  0  0  0  0  0  0  0  0  0
  -29.9728  -13.4837   20.4225 N   0  0  0  0  0  0  0  0  0  0  0  0
  -25.5197  -15.0559   20.3893 N   0  0  0  0  0  0  0  0  0  0  0  0
  -21.8502  -12.7082   21.5809 N   0  0  0  0  0  0  0  0  0  0  0  0
  -30.1331  -15.5768   21.4974 N   0  0  0  0  0  0  0  0  0  0  0  0
  -29.4444  -24.0834   23.2070 N   0  0  0  0  0  0  0  0  0  0  0  0
  -30.2843  -23.7954   16.7072 N   0  0  0  0  0  0  0  0  0  0  0  0
  -33.1762  -24.5385   14.6695 N   0  3  0  0  0  0  0  0  0  0  0  0
  -22.6919  -14.8193   21.2751 O   0  0  0  0  0  0  0  0  0  0  0  0
  -29.9705  -22.0902   22.1241 O   0  0  0  0  0  0  0  0  0  0  0  0
  -29.3158  -24.9029   19.1657 O   0  0  0  0  0  0  0  0  0  0  0  0
  -32.1046  -22.4458   16.2151 O   0  0  0  0  0  0  0  0  0  0  0  0
  -31.9003  -14.7474   20.2442 O   0  0  0  0  0  0  0  0  0  0  0  0
  -21.4113   -7.1580   21.7762 O   0  0  0  0  0  0  0  0  0  0  0  0
  -35.4907  -19.5200   21.3459 O   0  0  0  0  0  0  0  0  0  1  0  0
  -34.1137  -17.2763   23.6177 O   0  0  0  0  0  0  0  0  0  0  0  0
  -23.6908   -3.0821   24.7080 F   0  0  0  0  0  0  0  0  0  0  0  0
  -20.3138   -6.3573   24.1838 F   0  0  0  0  0  0  0  0  0  0  0  0
  1  2  1  0  0  0  0
  1  5  2  0  0  0  0
  2  6  2  0  0  0  0
  3  9  2  0  0  0  0
  3 18  1  0  0  0  0
  4 10  1  0  0  0  0
  4 18  2  0  0  0  0
  5 20  1  0  0  0  0
  6 22  1  0  0  0  0
  7 11  2  0  0  0  0
  7 21  1  0  0  0  0
  8 12  2  0  0  0  0
  8 24  1  0  0  0  0
  9 26  1  0  0  0  0
 10 26  2  0  0  0  0
 11 27  1  0  0  0  0
 12 28  1  0  0  0  0
 13 14  2  0  0  0  0
 13 29  1  0  0  0  0
 14 30  1  0  0  0  0
 15 23  1  0  0  0  0
 15 27  2  0  0  0  0
 16 25  1  0  0  0  0
 16 28  2  0  0  0  0
 17 30  2  0  0  0  0
 17 31  1  0  0  0  0
 18 32  1  0  0  0  0
 19 32  1  0  0  0  0
 19 33  2  0  0  0  0
 19 34  1  0  0  0  0
 20 22  2  0  0  0  0
 20 39  1  0  0  0  0
 21 23  2  0  0  0  0
 21 40  1  0  0  0  0
 22 48  1  0  0  0  0
 23 41  1  0  0  0  0
 24 25  2  0  0  0  0
 24 51  1  0  0  0  0
 25 71  1  0  0  0  0
 26 80  1  0  0  0  0
 27 81  1  0  0  0  0
 28 82  1  0  0  0  0
 29 31  2  0  0  0  0
 29 80  1  0  0  0  0
 30 83  1  0  0  0  0
 31 84  1  0  0  0  0
 32 65  2  0  0  0  0
 33 66  1  0  0  0  0
 33 69  1  0  0  0  0
 34 70  1  0  0  0  0
 34 75  2  0  0  0  0
 35 49  1  0  0  0  0
 35 72  1  0  0  0  0
 35 76  2  0  0  0  0
 36 61  1  0  0  0  0
 36 67  1  0  0  0  0
 36 77  2  0  0  0  0
 37 62  1  0  0  0  0
 37 73  1  0  0  0  0
 37 78  2  0  0  0  0
 38 68  1  0  0  0  0
 38 71  1  0  0  0  0
 38 79  2  0  0  0  0
 39 42  1  0  0  0  0
 40 49  1  0  0  0  0
 41 67  1  0  0  0  0
 42 44  1  0  0  0  0
 43 45  1  0  0  0  0
 43 46  1  0  0  0  0
 44 48  1  0  0  0  0
 45 50  1  0  0  0  0
 46 68  1  0  0  0  0
 47 50  1  0  0  0  0
 47 68  1  0  0  0  0
 48 72  1  0  0  0  0
 49 67  1  0  0  0  0
 50 66  1  0  0  0  0
 52 62  1  0  0  0  0
 53 63  1  0  0  0  0
 54 63  1  0  0  0  0
 55 63  1  0  0  0  0
 56 64  1  0  0  0  0
 57 64  1  0  0  0  0
 58 74  1  0  0  0  0
 59 64  1  0  0  0  0
 59 81  1  0  0  0  0
 60 64  1  0  0  0  0
 60 82  1  0  0  0  0
 61 63  1  0  0  0  0
 61 73  1  0  0  0  0
 62 74  1  0  0  0  0
 65 66  1  0  0  0  0
M  CHG  1  74   1
M  ISO  4  38 100  59 101  71 100  81 101
M  END
> <Batch ID>
0137

> <Smiles>
CNC(C)C(=O)NC(C(=O)N1Cc2cc([101O:1][101CH2:1]C(C)(C)COc3ccc(C)c([100NH:0][100C:0](=O)N4CCCC(n5nc(-c6ccc(Oc7ccc(F)cc7F)cc6)c(C(N)=O)c5N)C4)c3)ccc2CC1C(=O)NC1CCCc2ccccc21)C(C)(C)C

> <Shape>
0.220

> <Color>
0.200

> <Negative vol penalty>
0.000

$$$$

  -OEChem-04052302423D

 85 93  0     1  0  0  0  0  0999 V2000
  -24.9533  -18.9528   25.3923 C   0  0  0  0  0  0  0  0  0  0  0  0
  -25.8321  -19.5250   24.4782 C   0  0  0  0  0  0  0  0  0  0  0  0
  -23.1597   -9.8664   21.4876 C   0  0  0  0  0  0  0  0  0  0  0  0
  -23.8699  -10.8172   23.5921 C   0  0  0  0  0  0  0  0  0  0  0  0
  -23.6699  -19.4758   25.5450 C   0  0  0  0  0  0  0  0  0  0  0  0
  -25.4276  -20.6199   23.7153 C   0  0  0  0  0  0  0  0  0  0  0  0
  -28.9473  -24.2554   23.5160 C   0  0  0  0  0  0  0  0  0  0  0  0
  -30.9312  -19.0160   18.4602 C   0  0  0  0  0  0  0  0  0  0  0  0
  -30.8321  -17.7342   19.0011 C   0  0  0  0  0  0  0  0  0  0  0  0
  -22.4672   -8.8679   22.1725 C   0  0  0  0  0  0  0  0  0  0  0  0
  -23.1773   -9.8187   24.2769 C   0  0  0  0  0  0  0  0  0  0  0  0
  -30.0200  -24.0562   22.6481 C   0  0  0  0  0  0  0  0  0  0  0  0
  -23.1925   -5.9682   23.7505 C   0  0  0  0  0  0  0  0  0  0  0  0
  -23.3286   -4.6569   23.2948 C   0  0  0  0  0  0  0  0  0  0  0  0
  -28.9680  -25.4990   21.0261 C   0  0  0  0  0  0  0  0  0  0  0  0
  -29.1554  -18.5189   20.5536 C   0  0  0  0  0  0  0  0  0  0  0  0
  -20.9468   -4.5450   22.9055 C   0  0  0  0  0  0  0  0  0  0  0  0
  -23.8612  -10.8410   22.1974 C   0  0  0  0  0  0  0  0  0  0  0  0
  -24.0834  -13.1283   21.0900 C   0  0  0  0  0  0  0  0  0  0  0  0
  -23.2528  -20.5837   24.7905 C   0  0  0  0  0  0  0  0  0  0  0  0
  -27.8699  -25.0706   23.1405 C   0  0  0  0  0  0  0  0  0  0  0  0
  -24.1370  -21.1574   23.8570 C   0  0  0  0  0  0  0  0  0  0  0  0
  -27.8840  -25.7090   21.8921 C   0  0  0  0  0  0  0  0  0  0  0  0
  -30.1424  -20.0494   18.9660 C   0  0  0  0  0  0  0  0  0  0  0  0
  -29.2545  -19.8008   20.0126 C   0  0  0  0  0  0  0  0  0  0  0  0
  -29.9442  -17.4856   20.0478 C   0  0  0  0  0  0  0  0  0  0  0  0
  -22.4760   -8.8440   23.5671 C   0  0  0  0  0  0  0  0  0  0  0  0
  -30.0292  -24.6757   21.4018 C   0  0  0  0  0  0  0  0  0  0  0  0
  -21.9335   -6.5678   23.7837 C   0  0  0  0  0  0  0  0  0  0  0  0
  -22.2058   -3.9453   22.8723 C   0  0  0  0  0  0  0  0  0  0  0  0
  -20.8107   -5.8562   23.3612 C   0  0  0  0  0  0  0  0  0  0  0  0
  -24.5772  -11.8724   21.4906 C   0  0  0  0  0  0  0  0  0  0  0  0
  -25.1456  -13.7301   20.4606 C   0  0  0  0  0  0  0  0  0  0  0  0
  -22.7810  -13.6999   21.2707 C   0  0  0  0  0  0  0  0  0  0  0  0
  -24.7571  -24.6086   22.6921 C   0  0  0  0  0  0  0  0  0  0  0  0
  -24.7297  -27.8304   22.3151 C   0  0  0  0  0  0  0  0  0  0  0  0
  -26.4497  -30.6693   21.5221 C   0  0  0  0  0  0  0  0  0  0  0  0
  -30.5501  -15.0457   20.2100 C   0  0  0  0  0  0  0  0  0  0  0  0
  -21.8398  -21.0844   24.9564 C   0  0  0  0  0  0  0  0  0  0  0  0
  -26.7328  -25.2968   24.0988 C   0  0  0  0  0  0  0  0  0  0  0  0
  -26.7612  -26.6101   21.4495 C   0  0  0  0  0  0  0  0  0  0  0  0
  -21.6164  -22.4798   24.3791 C   0  0  0  0  0  0  0  0  0  0  0  0
  -29.6035  -11.8386   18.9872 C   0  0  0  0  0  0  0  0  0  0  0  0
  -22.2271  -22.5850   22.9853 C   0  0  0  0  0  0  0  0  0  0  0  0
  -28.1708  -11.6648   19.4965 C   0  0  0  0  0  0  0  0  0  0  0  0
  -30.4810  -12.5705   20.0011 C   0  0  0  0  0  0  0  0  0  0  0  0
  -28.5126  -13.6796   20.9833 C   0  0  0  0  0  0  0  0  0  0  0  0
  -23.7435  -22.3614   23.0291 C   0  0  1  0  0  0  0  0  0  0  0  0
  -25.4464  -25.7365   23.4067 C   0  0  1  0  0  0  0  0  0  0  0  0
  -27.5743  -13.0050   19.9693 C   0  0  2  0  0  0  0  0  0  0  0  0
  -26.9559  -20.8000   20.0807 C   0  0  0  0  0  0  0  0  0  0  0  0
  -26.1495  -33.1474   21.2650 C   0  0  0  0  0  0  0  0  0  0  0  0
  -23.3229  -27.3805   19.6452 C   0  0  0  0  0  0  0  0  0  0  0  0
  -23.9005  -29.7358   19.0233 C   0  0  0  0  0  0  0  0  0  0  0  0
  -22.4277  -29.2916   20.9870 C   0  0  0  0  0  0  0  0  0  0  0  0
  -31.3867  -23.6991   16.8571 C   0  0  0  0  0  0  0  0  0  0  0  0
  -33.1771  -24.0701   18.5729 C   0  0  0  0  0  0  0  0  0  0  0  0
  -28.4245  -31.2463   23.6496 C   0  0  0  0  0  0  0  0  0  0  0  0
  -30.2679  -21.4285   18.3647 C   0  0  0  0  0  0  0  0  0  0  0  0
  -28.3985  -20.8910   20.5688 C   0  0  0  0  0  0  0  0  0  0  0  0
  -31.5304  -22.1438   18.8655 C   0  0  0  0  0  0  0  0  0  0  0  0
  -30.7958  -24.5445   19.1543 C   0  0  0  0  0  0  0  0  0  1  0  0
  -24.8967  -28.7715   21.1466 C   0  0  1  0  0  0  0  0  0  0  0  0
  -26.5360  -32.0200   22.2096 C   0  0  2  0  0  0  0  0  0  0  0  0
  -23.6574  -28.7764   20.2078 C   0  0  0  0  0  0  0  0  0  0  0  0
  -31.7278  -23.6002   18.3557 C   0  0  0  0  0  0  0  0  0  0  0  0
  -25.8538  -11.6860   21.1446 N   0  0  0  0  0  0  0  0  0  0  0  0
  -26.1710  -12.8328   20.5199 N   0  0  0  0  0  0  0  0  0  0  0  0
  -25.6691  -26.7947   22.4194 N   0  0  0  0  0  0  0  0  0  0  0  0
  -29.8546  -13.8329   20.3998 N   0  0  0  0  0  0  0  0  0  0  0  0
  -25.2931  -14.9339   19.8678 N   0  0  0  0  0  0  0  0  0  0  0  0
  -21.8072  -12.9456   21.9393 N   0  0  0  0  0  0  0  0  0  0  0  0
  -29.8418  -16.1831   20.5963 N   0  0  0  0  0  0  0  0  0  0  0  0
  -24.4158  -23.5490   23.5108 N   0  0  0  0  0  0  0  0  0  0  0  0
  -25.2205  -30.0752   21.7156 N   0  0  0  0  0  0  0  0  0  0  0  0
  -27.9236  -32.2672   22.6936 N   0  3  0  0  0  0  0  0  0  0  0  0
  -22.4845  -14.8392   20.8373 O   0  0  0  0  0  0  0  0  0  0  0  0
  -24.5489  -24.6941   21.4875 O   0  0  0  0  0  0  0  0  0  0  0  0
  -23.8042  -28.0118   23.1103 O   0  0  0  0  0  0  0  0  0  0  0  0
  -27.3785  -30.1908   20.8748 O   0  0  0  0  0  0  0  0  0  0  0  0
  -31.6794  -15.0755   19.7141 O   0  0  0  0  0  0  0  0  0  0  0  0
  -21.8001   -7.8700   24.2357 O   0  0  0  0  0  0  0  0  0  0  0  0
  -31.0747  -24.4824   20.5524 O   0  0  0  0  0  0  0  0  0  1  0  0
  -22.3369   -2.6867   22.4333 F   0  0  0  0  0  0  0  0  0  0  0  0
  -19.5988   -6.4274   23.3897 F   0  0  0  0  0  0  0  0  0  0  0  0
  1  2  1  0  0  0  0
  1  5  2  0  0  0  0
  2  6  2  0  0  0  0
  3 10  2  0  0  0  0
  3 18  1  0  0  0  0
  4 11  1  0  0  0  0
  4 18  2  0  0  0  0
  5 20  1  0  0  0  0
  6 22  1  0  0  0  0
  7 12  2  0  0  0  0
  7 21  1  0  0  0  0
  8  9  2  0  0  0  0
  8 24  1  0  0  0  0
  9 26  1  0  0  0  0
 10 27  1  0  0  0  0
 11 27  2  0  0  0  0
 12 28  1  0  0  0  0
 13 14  2  0  0  0  0
 13 29  1  0  0  0  0
 14 30  1  0  0  0  0
 15 23  1  0  0  0  0
 15 28  2  0  0  0  0
 16 25  1  0  0  0  0
 16 26  2  0  0  0  0
 17 30  2  0  0  0  0
 17 31  1  0  0  0  0
 18 32  1  0  0  0  0
 19 32  1  0  0  0  0
 19 33  2  0  0  0  0
 19 34  1  0  0  0  0
 20 22  2  0  0  0  0
 20 39  1  0  0  0  0
 21 23  2  0  0  0  0
 21 40  1  0  0  0  0
 22 48  1  0  0  0  0
 23 41  1  0  0  0  0
 24 25  2  0  0  0  0
 24 59  1  0  0  0  0
 25 60  1  0  0  0  0
 26 73  1  0  0  0  0
 27 82  1  0  0  0  0
 28 83  1  0  0  0  0
 29 31  2  0  0  0  0
 29 82  1  0  0  0  0
 30 84  1  0  0  0  0
 31 85  1  0  0  0  0
 32 67  2  0  0  0  0
 33 68  1  0  0  0  0
 33 71  1  0  0  0  0
 34 72  1  0  0  0  0
 34 77  2  0  0  0  0
 35 49  1  0  0  0  0
 35 74  1  0  0  0  0
 35 78  2  0  0  0  0
 36 63  1  0  0  0  0
 36 69  1  0  0  0  0
 36 79  2  0  0  0  0
 37 64  1  0  0  0  0
 37 75  1  0  0  0  0
 37 80  2  0  0  0  0
 38 70  1  0  0  0  0
 38 73  1  0  0  0  0
 38 81  2  0  0  0  0
 39 42  1  0  0  0  0
 40 49  1  0  0  0  0
 41 69  1  0  0  0  0
 42 44  1  0  0  0  0
 43 45  1  0  0  0  0
 43 46  1  0  0  0  0
 44 48  1  0  0  0  0
 45 50  1  0  0  0  0
 46 70  1  0  0  0  0
 47 50  1  0  0  0  0
 47 70  1  0  0  0  0
 48 74  1  0  0  0  0
 49 69  1  0  0  0  0
 50 68  1  0  0  0  0
 51 60  1  0  0  0  0
 52 64  1  0  0  0  0
 53 65  1  0  0  0  0
 54 65  1  0  0  0  0
 55 65  1  0  0  0  0
 56 66  1  0  0  0  0
 57 66  1  0  0  0  0
 58 76  1  0  0  0  0
 59 61  1  0  0  0  0
 61 66  1  0  0  0  0
 62 66  1  0  0  0  0
 62 83  1  0  0  0  0
 63 65  1  0  0  0  0
 63 75  1  0  0  0  0
 64 76  1  0  0  0  0
 67 68  1  0  0  0  0
M  CHG  1  76   1
M  ISO  4  38 100  62 101  73 100  83 101
M  END
> <Batch ID>
0137

> <Smiles>
CCc1cc([100NH:0][100C:0](=O)N2CCCC(n3nc(-c4ccc(Oc5ccc(F)cc5F)cc4)c(C(N)=O)c3N)C2)ccc1CCC(C)(C)[101CH2:1][101O:1]c1ccc2c(c1)CN(C(=O)C(NC(=O)C(C)NC)C(C)(C)C)C(C(=O)NC1CCCc3ccccc31)C2

> <Shape>
0.271

> <Color>
0.162

> <Negative vol penalty>
0.000

$$$$

  -OEChem-04052302423D

 90100  0     1  0  0  0  0  0999 V2000
  -22.0863   -8.2846   20.7537 C   0  0  0  0  0  0  0  0  0  0  0  0
  -21.8382   -9.6461   20.8954 C   0  0  0  0  0  0  0  0  0  0  0  0
  -18.3291  -28.3838   23.7633 C   0  0  0  0  0  0  0  0  0  0  0  0
  -28.2796  -25.0685   21.0258 C   0  0  0  0  0  0  0  0  0  0  0  0
  -29.2853  -26.9468   22.1650 C   0  0  0  0  0  0  0  0  0  0  0  0
  -23.3474   -7.7719   21.0547 C   0  0  0  0  0  0  0  0  0  0  0  0
  -22.8510  -10.4957   21.3393 C   0  0  0  0  0  0  0  0  0  0  0  0
  -18.0586  -27.0631   23.4055 C   0  0  0  0  0  0  0  0  0  0  0  0
  -23.1347  -14.7631   18.6275 C   0  0  0  0  0  0  0  0  0  0  0  0
  -19.4471  -29.0332   23.2396 C   0  0  0  0  0  0  0  0  0  0  0  0
  -29.0925  -24.1951   21.7481 C   0  0  0  0  0  0  0  0  0  0  0  0
  -30.0983  -26.0733   22.8873 C   0  0  0  0  0  0  0  0  0  0  0  0
  -22.1933  -15.7546   18.9003 C   0  0  0  0  0  0  0  0  0  0  0  0
  -32.9284  -24.2985   22.3667 C   0  0  0  0  0  0  0  0  0  0  0  0
  -34.2795  -24.6225   22.4892 C   0  0  0  0  0  0  0  0  0  0  0  0
  -20.0239  -27.0411   22.0005 C   0  0  0  0  0  0  0  0  0  0  0  0
  -23.8257  -16.9296   20.2322 C   0  0  0  0  0  0  0  0  0  0  0  0
  -34.0464  -24.6853   24.8932 C   0  0  0  0  0  0  0  0  0  0  0  0
  -28.3760  -26.4444   21.2342 C   0  0  0  0  0  0  0  0  0  0  0  0
  -27.4866  -27.5013   19.0895 C   0  0  0  0  0  0  0  0  0  0  0  0
  -18.9059  -26.3917   22.5241 C   0  0  0  0  0  0  0  0  0  0  0  0
  -24.3789   -8.6170   21.4932 C   0  0  0  0  0  0  0  0  0  0  0  0
  -24.4276  -14.8419   19.1648 C   0  0  0  0  0  0  0  0  0  0  0  0
  -24.1267   -9.9936   21.6477 C   0  0  0  0  0  0  0  0  0  0  0  0
  -24.7824  -15.9391   19.9626 C   0  0  0  0  0  0  0  0  0  0  0  0
  -20.2944  -28.3619   22.3582 C   0  0  0  0  0  0  0  0  0  0  0  0
  -30.0019  -24.6974   22.6789 C   0  0  0  0  0  0  0  0  0  0  0  0
  -22.5378  -16.8366   19.7051 C   0  0  0  0  0  0  0  0  0  0  0  0
  -32.1362  -24.1679   23.5073 C   0  0  0  0  0  0  0  0  0  0  0  0
  -34.8386  -24.8159   23.7524 C   0  0  0  0  0  0  0  0  0  0  0  0
  -32.6953  -24.3613   24.7706 C   0  0  0  0  0  0  0  0  0  0  0  0
  -27.5368  -27.3472   20.4879 C   0  0  0  0  0  0  0  0  0  0  0  0
  -26.5385  -28.4739   18.8852 C   0  0  0  0  0  0  0  0  0  0  0  0
  -28.2303  -26.8257   18.0668 C   0  0  0  0  0  0  0  0  0  0  0  0
  -26.1467  -13.0466   21.1460 C   0  0  0  0  0  0  0  0  0  0  0  0
  -28.5001  -15.1442   20.3819 C   0  0  0  0  0  0  0  0  0  0  0  0
  -28.7982  -18.7080   19.9043 C   0  0  0  0  0  0  0  0  0  0  0  0
  -21.8410  -30.3306   22.0775 C   0  0  0  0  0  0  0  0  0  0  0  0
  -25.7121   -8.0097   21.8517 C   0  0  0  0  0  0  0  0  0  0  0  0
  -25.4396  -13.7779   18.8392 C   0  0  0  0  0  0  0  0  0  0  0  0
  -26.1633  -16.0810   20.5471 C   0  0  0  0  0  0  0  0  0  0  0  0
  -26.8391   -9.0337   21.9579 C   0  0  0  0  0  0  0  0  0  0  0  0
  -24.5944  -32.3100   20.9921 C   0  0  0  0  0  0  0  0  0  0  0  0
  -19.7257  -23.9998   22.5894 C   0  0  0  0  0  0  0  0  0  0  0  0
  -18.3350  -24.8150   20.6304 C   0  0  0  0  0  0  0  0  0  0  0  0
  -26.3884  -10.2409   22.7743 C   0  0  0  0  0  0  0  0  0  0  0  0
  -25.6546  -31.2759   20.6067 C   0  0  0  0  0  0  0  0  0  0  0  0
  -19.4311  -22.5534   22.1845 C   0  0  0  0  0  0  0  0  0  0  0  0
  -18.0426  -23.3634   20.2472 C   0  0  0  0  0  0  0  0  0  0  0  0
  -20.4336  -22.6239   19.8186 C   0  0  0  0  0  0  0  0  0  0  0  0
  -18.6561  -20.9329   20.3911 C   0  0  0  0  0  0  0  0  0  0  0  0
  -21.5149  -21.5547   20.0005 C   0  0  0  0  0  0  0  0  0  0  0  0
  -19.7302  -19.8590   20.5813 C   0  0  0  0  0  0  0  0  0  0  0  0
  -23.7885  -31.8681   22.2124 C   0  0  0  0  0  0  0  0  0  0  0  0
  -24.2487  -29.4977   21.7240 C   0  0  0  0  0  0  0  0  0  0  0  0
  -18.6110  -24.9543   22.1351 C   0  0  0  0  0  0  0  0  0  0  0  0
  -25.2067  -10.9509   22.1028 C   0  0  1  0  0  0  0  0  0  0  0  0
  -26.5708  -13.6969   19.8596 C   0  0  1  0  0  0  0  0  0  0  0  0
  -25.0427  -29.8688   20.4609 C   0  0  2  0  0  0  0  0  0  0  0  0
  -19.1601  -22.3728   20.6669 C   0  0  0  0  0  0  0  0  0  0  0  0
  -21.0090  -20.1171   19.7570 C   0  0  0  0  0  0  0  0  0  0  0  0
  -20.7394  -19.8872   18.2566 C   0  0  0  0  0  0  0  0  0  0  0  0
  -30.4053  -20.0384   18.5099 C   0  0  0  0  0  0  0  0  0  0  0  0
  -30.1309  -15.3259   22.9543 C   0  0  0  0  0  0  0  0  0  0  0  0
  -30.7068  -17.6838   22.3403 C   0  0  0  0  0  0  0  0  0  0  0  0
  -31.4208  -15.8029   20.8655 C   0  0  0  0  0  0  0  0  0  0  0  0
  -26.6010  -20.0745   18.4676 C   0  0  0  0  0  0  0  0  0  0  0  0
  -22.0985  -19.1213   20.1980 C   0  0  0  0  0  0  0  0  0  1  0  0
  -28.9810  -16.4615   20.9408 C   0  0  1  0  0  0  0  0  0  0  0  0
  -29.0121  -19.4338   18.5883 C   0  0  2  0  0  0  0  0  0  0  0  0
  -30.2827  -16.3104   21.7776 C   0  0  0  0  0  0  0  0  0  0  0  0
  -26.6883  -28.1571   21.1268 N   0  0  0  0  0  0  0  0  0  0  0  0
  -26.0960  -28.8296   20.1253 N   0  0  0  0  0  0  0  0  0  0  0  0
  -27.1155  -15.0115   20.2050 N   0  0  0  0  0  0  0  0  0  0  0  0
  -23.2358  -30.5285   22.0005 N   0  0  0  0  0  0  0  0  0  0  0  0
  -26.0486  -29.0511   17.7675 N   0  0  0  0  0  0  0  0  0  0  0  0
  -29.4512  -27.3765   17.6541 N   0  0  0  0  0  0  0  0  0  0  0  0
  -21.4295  -29.0221   21.8259 N   0  0  0  0  0  0  0  0  0  0  0  0
  -25.6668  -11.7597   20.9944 N   0  0  0  0  0  0  0  0  0  0  0  0
  -29.1035  -17.3671   19.8036 N   0  0  0  0  0  0  0  0  0  0  0  0
  -28.0146  -20.5301   18.4332 N   0  3  0  0  0  0  0  0  0  0  0  0
  -27.8163  -25.7739   17.5229 O   0  0  0  0  0  0  0  0  0  0  0  0
  -26.2488  -13.6660   22.1985 O   0  0  0  0  0  0  0  0  0  0  0  0
  -29.3231  -14.2680   20.1054 O   0  0  0  0  0  0  0  0  0  0  0  0
  -28.4035  -19.2747   20.9210 O   0  0  0  0  0  0  0  0  0  0  0  0
  -21.0661  -31.2594   22.3200 O   0  0  0  0  0  0  0  0  0  0  0  0
  -30.7952  -23.8454   23.3840 O   0  0  0  0  0  0  0  0  0  0  0  0
  -21.6110  -17.8157   19.9763 O   0  0  0  0  0  0  0  0  0  1  0  0
  -36.1364  -25.1255   23.8701 F   0  0  0  0  0  0  0  0  0  0  0  0
  -31.9395  -24.2361   25.8701 F   0  0  0  0  0  0  0  0  0  0  0  0
  1  2  1  0  0  0  0
  1  6  2  0  0  0  0
  2  7  2  0  0  0  0
  3  8  2  0  0  0  0
  3 10  1  0  0  0  0
  4 11  2  0  0  0  0
  4 19  1  0  0  0  0
  5 12  1  0  0  0  0
  5 19  2  0  0  0  0
  6 22  1  0  0  0  0
  7 24  1  0  0  0  0
  8 21  1  0  0  0  0
  9 13  2  0  0  0  0
  9 23  1  0  0  0  0
 10 26  2  0  0  0  0
 11 27  1  0  0  0  0
 12 27  2  0  0  0  0
 13 28  1  0  0  0  0
 14 15  2  0  0  0  0
 14 29  1  0  0  0  0
 15 30  1  0  0  0  0
 16 21  2  0  0  0  0
 16 26  1  0  0  0  0
 17 25  1  0  0  0  0
 17 28  2  0  0  0  0
 18 30  2  0  0  0  0
 18 31  1  0  0  0  0
 19 32  1  0  0  0  0
 20 32  1  0  0  0  0
 20 33  2  0  0  0  0
 20 34  1  0  0  0  0
 21 56  1  0  0  0  0
 22 24  2  0  0  0  0
 22 39  1  0  0  0  0
 23 25  2  0  0  0  0
 23 40  1  0  0  0  0
 24 57  1  0  0  0  0
 25 41  1  0  0  0  0
 26 78  1  0  0  0  0
 27 87  1  0  0  0  0
 28 88  1  0  0  0  0
 29 31  2  0  0  0  0
 29 87  1  0  0  0  0
 30 89  1  0  0  0  0
 31 90  1  0  0  0  0
 32 72  2  0  0  0  0
 33 73  1  0  0  0  0
 33 76  1  0  0  0  0
 34 77  1  0  0  0  0
 34 82  2  0  0  0  0
 35 58  1  0  0  0  0
 35 79  1  0  0  0  0
 35 83  2  0  0  0  0
 36 69  1  0  0  0  0
 36 74  1  0  0  0  0
 36 84  2  0  0  0  0
 37 70  1  0  0  0  0
 37 80  1  0  0  0  0
 37 85  2  0  0  0  0
 38 75  1  0  0  0  0
 38 78  1  0  0  0  0
 38 86  2  0  0  0  0
 39 42  1  0  0  0  0
 40 58  1  0  0  0  0
 41 74  1  0  0  0  0
 42 46  1  0  0  0  0
 43 47  1  0  0  0  0
 43 54  1  0  0  0  0
 44 48  1  0  0  0  0
 44 56  1  0  0  0  0
 45 49  1  0  0  0  0
 45 56  1  0  0  0  0
 46 57  1  0  0  0  0
 47 59  1  0  0  0  0
 48 60  1  0  0  0  0
 49 60  1  0  0  0  0
 50 52  1  0  0  0  0
 50 60  1  0  0  0  0
 51 53  1  0  0  0  0
 51 60  1  0  0  0  0
 52 61  1  0  0  0  0
 53 61  1  0  0  0  0
 54 75  1  0  0  0  0
 55 59  1  0  0  0  0
 55 75  1  0  0  0  0
 57 79  1  0  0  0  0
 58 74  1  0  0  0  0
 59 73  1  0  0  0  0
 61 62  1  0  0  0  0
 61 68  1  0  0  0  0
 63 70  1  0  0  0  0
 64 71  1  0  0  0  0
 65 71  1  0  0  0  0
 66 71  1  0  0  0  0
 67 81  1  0  0  0  0
 68 88  1  0  0  0  0
 69 71  1  0  0  0  0
 69 80  1  0  0  0  0
 70 81  1  0  0  0  0
 72 73  1  0  0  0  0
M  CHG  1  81   1
M  ISO  4  38 100  68 101  78 100  88 101
M  END
> <Batch ID>
0137

> <Smiles>
CNC(C)C(=O)NC(C(=O)N1Cc2cc([101O:1][101CH2:1]C3(C)CCC4(CCC(c5cccc([100NH:0][100C:0](=O)N6CCCC(n7nc(-c8ccc(Oc9ccc(F)cc9F)cc8)c(C(N)=O)c7N)C6)c5)CC4)CC3)ccc2CC1C(=O)NC1CCCc2ccccc21)C(C)(C)C

> <Shape>
0.260

> <Color>
0.067

> <Negative vol penalty>
0.000

$$$$

  -OEChem-04052302423D

 85 94  0     1  0  0  0  0  0999 V2000
  -21.5272  -31.7877   14.7308 C   0  0  0  0  0  0  0  0  0  0  0  0
  -22.7139  -31.2108   15.1716 C   0  0  0  0  0  0  0  0  0  0  0  0
  -26.7699  -19.8360   19.2568 C   0  0  0  0  0  0  0  0  0  0  0  0
  -23.6147   -9.7731   21.4444 C   0  0  0  0  0  0  0  0  0  0  0  0
  -22.6056  -11.8069   20.6183 C   0  0  0  0  0  0  0  0  0  0  0  0
  -20.9308  -32.8062   15.4731 C   0  0  0  0  0  0  0  0  0  0  0  0
  -23.3055  -31.6527   16.3544 C   0  0  0  0  0  0  0  0  0  0  0  0
  -24.8721  -27.8338   19.2881 C   0  0  0  0  0  0  0  0  0  0  0  0
  -27.0348  -18.4672   19.1627 C   0  0  0  0  0  0  0  0  0  0  0  0
  -22.4890   -9.5348   22.2328 C   0  0  0  0  0  0  0  0  0  0  0  0
  -21.4798  -11.5685   21.4067 C   0  0  0  0  0  0  0  0  0  0  0  0
  -26.0660  -27.2070   18.9337 C   0  0  0  0  0  0  0  0  0  0  0  0
  -19.3557   -8.3383   21.8043 C   0  0  0  0  0  0  0  0  0  0  0  0
  -18.8315   -7.0457   21.8120 C   0  0  0  0  0  0  0  0  0  0  0  0
  -27.5959  -22.1054   20.1929 C   0  0  0  0  0  0  0  0  0  0  0  0
  -27.2301  -28.4872   20.6145 C   0  0  0  0  0  0  0  0  0  0  0  0
  -29.0559  -18.7457   20.4614 C   0  0  0  0  0  0  0  0  0  0  0  0
  -19.2026   -6.9095   24.1954 C   0  0  0  0  0  0  0  0  0  0  0  0
  -27.6525  -20.6899   19.9616 C   0  0  0  0  0  0  0  0  0  0  0  0
  -23.6730  -10.9092   20.6372 C   0  0  0  0  0  0  0  0  0  0  0  0
  -25.0540  -10.7273   18.5000 C   0  0  0  0  0  0  0  0  0  0  0  0
  -21.5103  -33.2542   16.6706 C   0  0  0  0  0  0  0  0  0  0  0  0
  -24.8502  -28.8016   20.3027 C   0  0  0  0  0  0  0  0  0  0  0  0
  -22.7170  -32.6791   17.1127 C   0  0  0  0  0  0  0  0  0  0  0  0
  -26.0342  -29.1230   20.9817 C   0  0  0  0  0  0  0  0  0  0  0  0
  -28.1664  -17.9299   19.7596 C   0  0  0  0  0  0  0  0  0  0  0  0
  -21.4216  -10.4325   22.2139 C   0  0  0  0  0  0  0  0  0  0  0  0
  -27.2457  -27.5357   19.5950 C   0  0  0  0  0  0  0  0  0  0  0  0
  -19.8034   -8.9165   22.9921 C   0  0  0  0  0  0  0  0  0  0  0  0
  -18.7549   -6.3313   23.0076 C   0  0  0  0  0  0  0  0  0  0  0  0
  -19.7268   -8.2020   24.1877 C   0  0  0  0  0  0  0  0  0  0  0  0
  -28.7860  -20.1252   20.5543 C   0  0  0  0  0  0  0  0  0  0  0  0
  -24.8358  -11.1562   19.8230 C   0  0  0  0  0  0  0  0  0  0  0  0
  -28.6566  -22.5691   20.9342 C   0  0  0  0  0  0  0  0  0  0  0  0
  -26.2975  -11.2158   18.1813 C   0  0  0  0  0  0  0  0  0  0  0  0
  -30.3542  -24.3380   18.0745 C   0  0  0  0  0  0  0  0  0  0  0  0
  -24.2082   -9.9563   17.6364 C   0  0  0  0  0  0  0  0  0  0  0  0
  -29.5971  -24.8512   19.0576 C   0  0  0  0  0  0  0  0  0  0  0  0
  -24.1194  -31.8920   20.4394 C   0  0  0  0  0  0  0  0  0  0  0  0
  -24.5462  -31.4527   23.6248 C   0  0  0  0  0  0  0  0  0  0  0  0
  -25.9875  -29.6409   26.1322 C   0  0  0  0  0  0  0  0  0  0  0  0
  -29.5049  -15.8397   20.1907 C   0  0  0  0  0  0  0  0  0  0  0  0
  -20.8538  -34.3903   17.4142 C   0  0  0  0  0  0  0  0  0  0  0  0
  -23.5494  -29.4492   20.6913 C   0  0  0  0  0  0  0  0  0  0  0  0
  -26.0605  -30.1405   22.0918 C   0  0  0  0  0  0  0  0  0  0  0  0
  -21.3467  -34.5435   18.8508 C   0  0  0  0  0  0  0  0  0  0  0  0
  -30.4772  -12.4145   20.1882 C   0  0  0  0  0  0  0  0  0  0  0  0
  -22.8695  -34.4727   18.9031 C   0  0  0  0  0  0  0  0  0  0  0  0
  -29.1616  -11.6643   19.9678 C   0  0  0  0  0  0  0  0  0  0  0  0
  -30.2856  -13.6493   21.0670 C   0  0  0  0  0  0  0  0  0  0  0  0
  -27.9210  -13.8238   20.3979 C   0  0  0  0  0  0  0  0  0  0  0  0
  -23.3761  -33.1143   18.4036 C   0  0  1  0  0  0  0  0  0  0  0  0
  -23.7360  -30.7928   21.3893 C   0  0  1  0  0  0  0  0  0  0  0  0
  -28.0518  -12.6085   19.4653 C   0  0  2  0  0  0  0  0  0  0  0  0
  -26.1834  -29.5458   28.6321 C   0  0  0  0  0  0  0  0  0  0  0  0
  -26.5058  -33.7906   23.5578 C   0  0  0  0  0  0  0  0  0  0  0  0
  -27.3581  -33.0496   25.7922 C   0  0  0  0  0  0  0  0  0  0  0  0
  -24.9813  -33.7637   25.5401 C   0  0  0  0  0  0  0  0  0  0  0  0
  -24.7434  -26.9578   26.2436 C   0  0  0  0  0  0  0  0  0  0  0  0
  -28.9438  -23.9826   21.3771 C   0  0  0  0  0  0  0  0  0  0  0  0
  -29.9926  -24.6941   20.5107 C   0  0  0  0  0  0  0  0  0  0  0  0
  -28.3251  -25.5929   18.7486 C   0  0  0  0  0  0  0  0  0  1  0  0
  -25.7197  -31.5490   24.5696 C   0  0  1  0  0  0  0  0  0  0  0  0
  -25.4152  -29.0604   27.4127 C   0  0  2  0  0  0  0  0  0  0  0  0
  -26.1414  -33.0204   24.8427 C   0  0  0  0  0  0  0  0  0  0  0  0
  -25.8588  -11.8627   20.3113 N   0  0  0  0  0  0  0  0  0  0  0  0
  -26.7318  -11.8814   19.2897 N   0  0  0  0  0  0  0  0  0  0  0  0
  -24.7643  -30.7507   22.4310 N   0  0  0  0  0  0  0  0  0  0  0  0
  -29.2218  -14.4990   20.5272 N   0  0  0  0  0  0  0  0  0  0  0  0
  -27.0509  -11.1366   17.0639 N   0  0  0  0  0  0  0  0  0  0  0  0
  -22.9630   -9.5351   18.1226 N   0  0  0  0  0  0  0  0  0  0  0  0
  -28.4242  -16.5405   19.6561 N   0  0  0  0  0  0  0  0  0  0  0  0
  -23.2047  -32.1040   19.4256 N   0  0  0  0  0  0  0  0  0  0  0  0
  -25.3431  -30.8035   25.7657 N   0  0  0  0  0  0  0  0  0  0  0  0
  -25.4776  -27.5718   27.3799 N   0  3  0  0  0  0  0  0  0  0  0  0
  -24.5535   -9.6360   16.4738 O   0  0  0  0  0  0  0  0  0  0  0  0
  -25.1668  -32.5036   20.6142 O   0  0  0  0  0  0  0  0  0  0  0  0
  -23.4734  -31.9749   23.9380 O   0  0  0  0  0  0  0  0  0  0  0  0
  -26.9161  -29.1175   25.5203 O   0  0  0  0  0  0  0  0  0  0  0  0
  -30.6307  -16.3221   20.3385 O   0  0  0  0  0  0  0  0  0  0  0  0
  -20.3228  -10.2001   22.9829 O   0  0  0  0  0  0  0  0  0  0  0  0
  -28.4125  -26.9259   19.2506 O   0  0  0  0  0  0  0  0  0  1  0  0
  -18.2501   -5.0906   23.0151 F   0  0  0  0  0  0  0  0  0  0  0  0
  -20.1543   -8.7527   25.3322 F   0  0  0  0  0  0  0  0  0  0  0  0
  -29.7327  -21.3186   21.3624 S   0  0  0  0  0  0  0  0  0  0  0  0
  1  2  1  0  0  0  0
  1  6  2  0  0  0  0
  2  7  2  0  0  0  0
  3  9  2  0  0  0  0
  3 19  1  0  0  0  0
  4 10  2  0  0  0  0
  4 20  1  0  0  0  0
  5 11  1  0  0  0  0
  5 20  2  0  0  0  0
  6 22  1  0  0  0  0
  7 24  1  0  0  0  0
  8 12  2  0  0  0  0
  8 23  1  0  0  0  0
  9 26  1  0  0  0  0
 10 27  1  0  0  0  0
 11 27  2  0  0  0  0
 12 28  1  0  0  0  0
 13 14  2  0  0  0  0
 13 29  1  0  0  0  0
 14 30  1  0  0  0  0
 15 19  1  0  0  0  0
 15 34  2  0  0  0  0
 16 25  1  0  0  0  0
 16 28  2  0  0  0  0
 17 26  2  0  0  0  0
 17 32  1  0  0  0  0
 18 30  2  0  0  0  0
 18 31  1  0  0  0  0
 19 32  2  0  0  0  0
 20 33  1  0  0  0  0
 21 33  1  0  0  0  0
 21 35  2  0  0  0  0
 21 37  1  0  0  0  0
 22 24  2  0  0  0  0
 22 43  1  0  0  0  0
 23 25  2  0  0  0  0
 23 44  1  0  0  0  0
 24 52  1  0  0  0  0
 25 45  1  0  0  0  0
 26 72  1  0  0  0  0
 27 81  1  0  0  0  0
 28 82  1  0  0  0  0
 29 31  2  0  0  0  0
 29 81  1  0  0  0  0
 30 83  1  0  0  0  0
 31 84  1  0  0  0  0
 32 85  1  0  0  0  0
 33 66  2  0  0  0  0
 34 60  1  0  0  0  0
 34 85  1  0  0  0  0
 35 67  1  0  0  0  0
 35 70  1  0  0  0  0
 36 38  2  0  0  0  0
 37 71  1  0  0  0  0
 37 76  2  0  0  0  0
 38 61  1  0  0  0  0
 38 62  1  0  0  0  0
 39 53  1  0  0  0  0
 39 73  1  0  0  0  0
 39 77  2  0  0  0  0
 40 63  1  0  0  0  0
 40 68  1  0  0  0  0
 40 78  2  0  0  0  0
 41 64  1  0  0  0  0
 41 74  1  0  0  0  0
 41 79  2  0  0  0  0
 42 69  1  0  0  0  0
 42 72  1  0  0  0  0
 42 80  2  0  0  0  0
 43 46  1  0  0  0  0
 44 53  1  0  0  0  0
 45 68  1  0  0  0  0
 46 48  1  0  0  0  0
 47 49  1  0  0  0  0
 47 50  1  0  0  0  0
 48 52  1  0  0  0  0
 49 54  1  0  0  0  0
 50 69  1  0  0  0  0
 51 54  1  0  0  0  0
 51 69  1  0  0  0  0
 52 73  1  0  0  0  0
 53 68  1  0  0  0  0
 54 67  1  0  0  0  0
 55 64  1  0  0  0  0
 56 65  1  0  0  0  0
 57 65  1  0  0  0  0
 58 65  1  0  0  0  0
 59 75  1  0  0  0  0
 60 61  1  0  0  0  0
 62 82  1  0  0  0  0
 63 65  1  0  0  0  0
 63 74  1  0  0  0  0
 64 75  1  0  0  0  0
 66 67  1  0  0  0  0
M  CHG  1  75   1
M  ISO  4  42 100  62 101  72 100  82 101
M  END
> <Batch ID>
0137

> <Smiles>
C=C(CCc1cc2ccc([100NH:0][100C:0](=O)N3CCCC(n4nc(-c5ccc(Oc6ccc(F)cc6F)cc5)c(C(N)=O)c4N)C3)cc2s1)[101CH2:1][101O:1]c1ccc2c(c1)CN(C(=O)C(NC(=O)C(C)NC)C(C)(C)C)C(C(=O)NC1CCCc3ccccc31)C2

> <Shape>
0.288

> <Color>
0.098

> <Negative vol penalty>
0.000

$$$$

  -OEChem-04052302423D

 85 94  0     1  0  0  0  0  0999 V2000
  -26.9972  -32.8841   23.6640 C   0  0  0  0  0  0  0  0  0  0  0  0
  -27.7593  -31.7230   23.7440 C   0  0  0  0  0  0  0  0  0  0  0  0
  -22.9997   -9.8943   19.9826 C   0  0  0  0  0  0  0  0  0  0  0  0
  -23.7242   -9.9470   22.2868 C   0  0  0  0  0  0  0  0  0  0  0  0
  -25.7092  -32.9093   24.1973 C   0  0  0  0  0  0  0  0  0  0  0  0
  -27.2342  -30.5866   24.3583 C   0  0  0  0  0  0  0  0  0  0  0  0
  -29.6994  -19.2506   22.3183 C   0  0  0  0  0  0  0  0  0  0  0  0
  -28.1065  -26.3639   21.7027 C   0  0  0  0  0  0  0  0  0  0  0  0
  -29.5271  -17.8643   22.3233 C   0  0  0  0  0  0  0  0  0  0  0  0
  -22.2328   -8.7602   20.2497 C   0  0  0  0  0  0  0  0  0  0  0  0
  -22.9572   -8.8130   22.5539 C   0  0  0  0  0  0  0  0  0  0  0  0
  -29.3835  -25.8108   21.7874 C   0  0  0  0  0  0  0  0  0  0  0  0
  -23.2008   -5.4736   22.0850 C   0  0  0  0  0  0  0  0  0  0  0  0
  -23.7878   -4.4569   22.8382 C   0  0  0  0  0  0  0  0  0  0  0  0
  -31.1969  -17.5997   20.5661 C   0  0  0  0  0  0  0  0  0  0  0  0
  -28.5716  -24.1963   23.3854 C   0  0  0  0  0  0  0  0  0  0  0  0
  -22.0635   -4.7017   24.5126 C   0  0  0  0  0  0  0  0  0  0  0  0
  -23.7454  -10.4877   21.0012 C   0  0  0  0  0  0  0  0  0  0  0  0
  -24.1315  -13.0030   20.8231 C   0  0  0  0  0  0  0  0  0  0  0  0
  -25.1644  -31.7697   24.8099 C   0  0  0  0  0  0  0  0  0  0  0  0
  -27.0532  -25.8434   22.4681 C   0  0  0  0  0  0  0  0  0  0  0  0
  -25.9382  -30.5970   24.9015 C   0  0  0  0  0  0  0  0  0  0  0  0
  -30.6182  -19.7682   21.4343 C   0  0  0  0  0  0  0  0  0  0  0  0
  -31.3443  -18.9666   20.5846 C   0  0  0  0  0  0  0  0  0  0  0  0
  -27.2816  -24.7429   23.3065 C   0  0  0  0  0  0  0  0  0  0  0  0
  -30.2710  -17.0443   21.4529 C   0  0  0  0  0  0  0  0  0  0  0  0
  -22.2115   -8.2196   21.5353 C   0  0  0  0  0  0  0  0  0  0  0  0
  -29.6168  -24.7287   22.6310 C   0  0  0  0  0  0  0  0  0  0  0  0
  -22.0451   -6.1044   22.5456 C   0  0  0  0  0  0  0  0  0  0  0  0
  -23.2192   -4.0709   24.0520 C   0  0  0  0  0  0  0  0  0  0  0  0
  -21.4765   -5.7185   23.7594 C   0  0  0  0  0  0  0  0  0  0  0  0
  -24.5383  -11.6588   20.7258 C   0  0  0  0  0  0  0  0  0  0  0  0
  -25.2415  -13.7250   20.4585 C   0  0  0  0  0  0  0  0  0  0  0  0
  -22.8635  -13.5501   21.2088 C   0  0  0  0  0  0  0  0  0  0  0  0
  -25.1594  -26.9882   24.7499 C   0  0  0  0  0  0  0  0  0  0  0  0
  -23.6724  -24.1252   24.4114 C   0  0  0  0  0  0  0  0  0  0  0  0
  -23.8627  -20.8583   23.4430 C   0  0  0  0  0  0  0  0  0  0  0  0
  -30.7212  -14.6848   20.6934 C   0  0  0  0  0  0  0  0  0  0  0  0
  -23.7853  -31.8594   25.4138 C   0  0  0  0  0  0  0  0  0  0  0  0
  -25.6755  -26.4343   22.3452 C   0  0  0  0  0  0  0  0  0  0  0  0
  -32.0845  -20.1176   19.9643 C   0  0  0  0  0  0  0  0  0  0  0  0
  -26.1800  -24.1342   24.1339 C   0  0  0  0  0  0  0  0  0  0  0  0
  -23.1629  -30.4986   25.7156 C   0  0  0  0  0  0  0  0  0  0  0  0
  -29.6030  -12.2302   18.3692 C   0  0  0  0  0  0  0  0  0  0  0  0
  -24.1691  -29.5964   26.4229 C   0  0  0  0  0  0  0  0  0  0  0  0
  -28.1522  -11.9733   18.7831 C   0  0  0  0  0  0  0  0  0  0  0  0
  -30.5032  -12.4745   19.5791 C   0  0  0  0  0  0  0  0  0  0  0  0
  -28.5876  -13.2650   20.9113 C   0  0  0  0  0  0  0  0  0  0  0  0
  -25.3943  -29.3365   25.5382 C   0  0  1  0  0  0  0  0  0  0  0  0
  -24.7934  -26.1509   23.5572 C   0  0  1  0  0  0  0  0  0  0  0  0
  -27.6303  -13.0778   19.7230 C   0  0  2  0  0  0  0  0  0  0  0  0
  -31.2540  -21.0460   20.9373 C   0  0  1  0  0  0  0  0  0  0  0  0
  -30.2713  -21.9805   20.2394 C   0  0  0  0  0  0  0  0  0  0  0  0
  -22.4965  -18.7568   23.3218 C   0  0  0  0  0  0  0  0  0  0  0  0
  -24.0075  -23.7367   27.4191 C   0  0  0  0  0  0  0  0  0  0  0  0
  -23.5162  -21.3041   27.0893 C   0  0  0  0  0  0  0  0  0  0  0  0
  -21.7916  -23.0122   26.5142 C   0  0  0  0  0  0  0  0  0  0  0  0
  -33.8783  -23.4360   22.4592 C   0  0  0  0  0  0  0  0  0  0  0  0
  -33.2579  -22.9732   20.0863 C   0  0  0  0  0  0  0  0  0  0  0  0
  -24.1220  -20.7216   20.4980 C   0  0  0  0  0  0  0  0  0  0  0  0
  -32.0858  -21.7620   21.9974 C   0  0  0  0  0  0  0  0  0  0  0  0
  -31.6852  -24.2646   21.5528 C   0  0  0  0  0  0  0  0  0  1  0  0
  -23.8271  -22.7597   25.0361 C   0  0  1  0  0  0  0  0  0  0  0  0
  -22.9458  -20.0077   22.5827 C   0  0  2  0  0  0  0  0  0  0  0  0
  -23.3070  -22.7156   26.5007 C   0  0  0  0  0  0  0  0  0  0  0  0
  -32.7014  -23.1027   21.5156 C   0  0  0  0  0  0  0  0  0  0  0  0
  -25.8077  -11.5317   20.3302 N   0  0  0  0  0  0  0  0  0  0  0  0
  -26.2080  -12.8052   20.1756 N   0  0  0  0  0  0  0  0  0  0  0  0
  -24.8518  -24.7513   23.9839 N   0  0  0  0  0  0  0  0  0  0  0  0
  -29.9482  -13.5363   20.4213 N   0  0  0  0  0  0  0  0  0  0  0  0
  -25.4754  -15.0505   20.3553 N   0  0  0  0  0  0  0  0  0  0  0  0
  -21.8314  -12.6665   21.5527 N   0  0  0  0  0  0  0  0  0  0  0  0
  -30.0769  -15.6409   21.4779 N   0  0  0  0  0  0  0  0  0  0  0  0
  -25.0862  -28.3497   24.5253 N   0  0  0  0  0  0  0  0  0  0  0  0
  -23.1625  -21.8220   24.1375 N   0  0  0  0  0  0  0  0  0  0  0  0
  -23.6461  -19.5903   21.3351 N   0  3  0  0  0  0  0  0  0  0  0  0
  -22.6471  -14.7855   21.2314 O   0  0  0  0  0  0  0  0  0  0  0  0
  -25.4828  -26.4397   25.7969 O   0  0  0  0  0  0  0  0  0  0  0  0
  -22.5458  -24.6152   24.3001 O   0  0  0  0  0  0  0  0  0  0  0  0
  -25.0780  -20.6828   23.4967 O   0  0  0  0  0  0  0  0  0  0  0  0
  -31.8600  -14.8231   20.2396 O   0  0  0  0  0  0  0  0  0  0  0  0
  -21.4631   -7.1131   21.7964 O   0  0  0  0  0  0  0  0  0  0  0  0
  -30.8625  -24.1873   22.7162 O   0  0  0  0  0  0  0  0  0  1  0  0
  -23.7821   -3.0935   24.7744 F   0  0  0  0  0  0  0  0  0  0  0  0
  -20.3656   -6.3200   24.2066 F   0  0  0  0  0  0  0  0  0  0  0  0
  1  2  1  0  0  0  0
  1  5  2  0  0  0  0
  2  6  2  0  0  0  0
  3 10  2  0  0  0  0
  3 18  1  0  0  0  0
  4 11  1  0  0  0  0
  4 18  2  0  0  0  0
  5 20  1  0  0  0  0
  6 22  1  0  0  0  0
  7  9  2  0  0  0  0
  7 23  1  0  0  0  0
  8 12  2  0  0  0  0
  8 21  1  0  0  0  0
  9 26  1  0  0  0  0
 10 27  1  0  0  0  0
 11 27  2  0  0  0  0
 12 28  1  0  0  0  0
 13 14  2  0  0  0  0
 13 29  1  0  0  0  0
 14 30  1  0  0  0  0
 15 24  1  0  0  0  0
 15 26  2  0  0  0  0
 16 25  1  0  0  0  0
 16 28  2  0  0  0  0
 17 30  2  0  0  0  0
 17 31  1  0  0  0  0
 18 32  1  0  0  0  0
 19 32  1  0  0  0  0
 19 33  2  0  0  0  0
 19 34  1  0  0  0  0
 20 22  2  0  0  0  0
 20 39  1  0  0  0  0
 21 25  2  0  0  0  0
 21 40  1  0  0  0  0
 22 49  1  0  0  0  0
 23 24  2  0  0  0  0
 23 52  1  0  0  0  0
 24 41  1  0  0  0  0
 25 42  1  0  0  0  0
 26 73  1  0  0  0  0
 27 82  1  0  0  0  0
 28 83  1  0  0  0  0
 29 31  2  0  0  0  0
 29 82  1  0  0  0  0
 30 84  1  0  0  0  0
 31 85  1  0  0  0  0
 32 67  2  0  0  0  0
 33 68  1  0  0  0  0
 33 71  1  0  0  0  0
 34 72  1  0  0  0  0
 34 77  2  0  0  0  0
 35 50  1  0  0  0  0
 35 74  1  0  0  0  0
 35 78  2  0  0  0  0
 36 63  1  0  0  0  0
 36 69  1  0  0  0  0
 36 79  2  0  0  0  0
 37 64  1  0  0  0  0
 37 75  1  0  0  0  0
 37 80  2  0  0  0  0
 38 70  1  0  0  0  0
 38 73  1  0  0  0  0
 38 81  2  0  0  0  0
 39 43  1  0  0  0  0
 40 50  1  0  0  0  0
 41 52  1  0  0  0  0
 42 69  1  0  0  0  0
 43 45  1  0  0  0  0
 44 46  1  0  0  0  0
 44 47  1  0  0  0  0
 45 49  1  0  0  0  0
 46 51  1  0  0  0  0
 47 70  1  0  0  0  0
 48 51  1  0  0  0  0
 48 70  1  0  0  0  0
 49 74  1  0  0  0  0
 50 69  1  0  0  0  0
 51 68  1  0  0  0  0
 52 53  1  0  0  0  0
 52 61  1  0  0  0  0
 54 64  1  0  0  0  0
 55 65  1  0  0  0  0
 56 65  1  0  0  0  0
 57 65  1  0  0  0  0
 58 66  1  0  0  0  0
 59 66  1  0  0  0  0
 60 76  1  0  0  0  0
 61 66  1  0  0  0  0
 62 66  1  0  0  0  0
 62 83  1  0  0  0  0
 63 65  1  0  0  0  0
 63 75  1  0  0  0  0
 64 76  1  0  0  0  0
 67 68  1  0  0  0  0
M  CHG  1  76   1
M  ISO  4  38 100  62 101  73 100  83 101
M  END
> <Batch ID>
0137

> <Smiles>
CNC(C)C(=O)NC(C(=O)N1Cc2cc([101O:1][101CH2:1]C(C)(C)CC3(C)Cc4cc([100NH:0][100C:0](=O)N5CCCC(n6nc(-c7ccc(Oc8ccc(F)cc8F)cc7)c(C(N)=O)c6N)C5)ccc43)ccc2CC1C(=O)NC1CCCc2ccccc21)C(C)(C)C

> <Shape>
0.252

> <Color>
0.197

> <Negative vol penalty>
0.000

$$$$

  -OEChem-04052302423D

 83 92  0     1  0  0  0  0  0999 V2000
  -26.3986  -36.8408   24.3126 C   0  0  0  0  0  0  0  0  0  0  0  0
  -27.1011  -35.7424   23.8276 C   0  0  0  0  0  0  0  0  0  0  0  0
  -23.8371   -8.7418   20.1340 C   0  0  0  0  0  0  0  0  0  0  0  0
  -22.8798  -10.6951   21.1852 C   0  0  0  0  0  0  0  0  0  0  0  0
  -25.1270  -36.6683   24.8578 C   0  0  0  0  0  0  0  0  0  0  0  0
  -26.5328  -34.4704   23.8886 C   0  0  0  0  0  0  0  0  0  0  0  0
  -27.7487  -19.7509   17.5819 C   0  0  0  0  0  0  0  0  0  0  0  0
  -27.2021  -29.9404   19.8221 C   0  0  0  0  0  0  0  0  0  0  0  0
  -27.8087  -18.3716   17.7953 C   0  0  0  0  0  0  0  0  0  0  0  0
  -22.9581   -7.9270   20.8474 C   0  0  0  0  0  0  0  0  0  0  0  0
  -22.0006   -9.8803   21.8986 C   0  0  0  0  0  0  0  0  0  0  0  0
  -28.0276  -28.8172   19.7966 C   0  0  0  0  0  0  0  0  0  0  0  0
  -22.7079   -6.6730   23.9762 C   0  0  0  0  0  0  0  0  0  0  0  0
  -23.2296   -5.5266   24.5754 C   0  0  0  0  0  0  0  0  0  0  0  0
  -29.7005  -18.6377   19.3108 C   0  0  0  0  0  0  0  0  0  0  0  0
  -26.2354  -27.4865   20.7112 C   0  0  0  0  0  0  0  0  0  0  0  0
  -21.7318   -4.1589   23.2627 C   0  0  0  0  0  0  0  0  0  0  0  0
  -23.7980  -10.1259   20.3029 C   0  0  0  0  0  0  0  0  0  0  0  0
  -24.4933  -11.5453   18.3005 C   0  0  0  0  0  0  0  0  0  0  0  0
  -24.5389  -35.3950   24.9167 C   0  0  0  0  0  0  0  0  0  0  0  0
  -25.8883  -29.8473   20.3033 C   0  0  0  0  0  0  0  0  0  0  0  0
  -28.6686  -20.5308   18.2438 C   0  0  0  0  0  0  0  0  0  0  0  0
  -25.2528  -34.2805   24.4364 C   0  0  0  0  0  0  0  0  0  0  0  0
  -29.6156  -19.9907   19.0809 C   0  0  0  0  0  0  0  0  0  0  0  0
  -25.3943  -28.6095   20.7393 C   0  0  0  0  0  0  0  0  0  0  0  0
  -28.7784  -17.8185   18.6541 C   0  0  0  0  0  0  0  0  0  0  0  0
  -22.0398   -8.4963   21.7296 C   0  0  0  0  0  0  0  0  0  0  0  0
  -27.5453  -27.5906   20.2439 C   0  0  0  0  0  0  0  0  0  0  0  0
  -21.6980   -6.5624   23.0203 C   0  0  0  0  0  0  0  0  0  0  0  0
  -22.7416   -4.2695   24.2186 C   0  0  0  0  0  0  0  0  0  0  0  0
  -21.2100   -5.3054   22.6635 C   0  0  0  0  0  0  0  0  0  0  0  0
  -24.7063  -10.9680   19.5667 C   0  0  0  0  0  0  0  0  0  0  0  0
  -25.6454  -12.2482   18.0455 C   0  0  0  0  0  0  0  0  0  0  0  0
  -23.3557  -11.4543   17.4326 C   0  0  0  0  0  0  0  0  0  0  0  0
  -24.2843  -31.1582   22.7142 C   0  0  0  0  0  0  0  0  0  0  0  0
  -28.6452  -24.2600   19.3390 C   0  0  0  0  0  0  0  0  0  0  0  0
  -21.7624  -29.6420   21.3489 C   0  0  0  0  0  0  0  0  0  0  0  0
  -20.6362  -27.1073   19.3605 C   0  0  0  0  0  0  0  0  0  0  0  0
  -29.7025  -15.7024   19.6614 C   0  0  0  0  0  0  0  0  0  0  0  0
  -23.1815  -35.2513   25.5582 C   0  0  0  0  0  0  0  0  0  0  0  0
  -25.0019  -31.0625   20.2993 C   0  0  0  0  0  0  0  0  0  0  0  0
  -30.2185  -21.3223   19.4220 C   0  0  0  0  0  0  0  0  0  0  0  0
  -23.9849  -28.4522   21.2464 C   0  0  0  0  0  0  0  0  0  0  0  0
  -22.4968  -33.9236   25.2438 C   0  0  0  0  0  0  0  0  0  0  0  0
  -30.1013  -12.2526   20.4468 C   0  0  0  0  0  0  0  0  0  0  0  0
  -23.4717  -32.7644   25.4238 C   0  0  0  0  0  0  0  0  0  0  0  0
  -28.7158  -11.6584   20.1837 C   0  0  0  0  0  0  0  0  0  0  0  0
  -30.0125  -13.6579   21.0393 C   0  0  0  0  0  0  0  0  0  0  0  0
  -27.8000  -14.0077   20.0139 C   0  0  0  0  0  0  0  0  0  0  0  0
  -29.1443  -21.9442   18.4560 C   0  0  2  0  0  0  0  0  0  0  0  0
  -24.6599  -32.8884   24.4624 C   0  0  1  0  0  0  0  0  0  0  0  0
  -23.8463  -30.9624   21.2903 C   0  0  1  0  0  0  0  0  0  0  0  0
  -27.8386  -12.6185   19.3565 C   0  0  2  0  0  0  0  0  0  0  0  0
  -18.5208  -26.1006   18.4610 C   0  0  0  0  0  0  0  0  0  0  0  0
  -21.2111  -28.3757   24.0697 C   0  0  0  0  0  0  0  0  0  0  0  0
  -19.7419  -26.7076   22.9177 C   0  0  0  0  0  0  0  0  0  0  0  0
  -19.1703  -29.1344   22.8394 C   0  0  0  0  0  0  0  0  0  0  0  0
  -21.4435  -27.6245   16.5605 C   0  0  0  0  0  0  0  0  0  0  0  0
  -28.1176  -22.8631   19.0972 C   0  0  0  0  0  0  0  0  0  0  0  0
  -27.7150  -25.2271   20.0417 C   0  0  0  0  0  0  0  0  0  1  0  0
  -21.1301  -28.2785   21.4909 C   0  0  1  0  0  0  0  0  0  0  0  0
  -19.6452  -27.0935   18.2106 C   0  0  2  0  0  0  0  0  0  0  0  0
  -20.3406  -28.1271   22.8217 C   0  0  0  0  0  0  0  0  0  0  0  0
  -25.8998  -11.2773   20.0802 N   0  0  0  0  0  0  0  0  0  0  0  0
  -26.4473  -12.0565   19.1319 N   0  0  0  0  0  0  0  0  0  0  0  0
  -23.1591  -29.6709   21.2287 N   0  0  0  0  0  0  0  0  0  0  0  0
  -29.1694  -14.5124   20.2004 N   0  0  0  0  0  0  0  0  0  0  0  0
  -26.0406  -13.0054   17.0001 N   0  0  0  0  0  0  0  0  0  0  0  0
  -22.2568  -10.6906   17.8492 N   0  0  0  0  0  0  0  0  0  0  0  0
  -28.8181  -16.4162   18.8533 N   0  0  0  0  0  0  0  0  0  0  0  0
  -24.2763  -32.4762   23.1292 N   0  0  0  0  0  0  0  0  0  0  0  0
  -20.3245  -28.0753   20.2917 N   0  0  0  0  0  0  0  0  0  0  0  0
  -20.3297  -26.7180   16.9413 N   0  3  0  0  0  0  0  0  0  0  0  0
  -23.3215  -12.0196   16.3133 O   0  0  0  0  0  0  0  0  0  0  0  0
  -24.6042  -30.1852   23.3871 O   0  0  0  0  0  0  0  0  0  0  0  0
  -29.7647  -24.5917   18.9500 O   0  0  0  0  0  0  0  0  0  0  0  0
  -21.0431  -30.6440   21.3378 O   0  0  0  0  0  0  0  0  0  0  0  0
  -21.5892  -26.3342   19.4278 O   0  0  0  0  0  0  0  0  0  0  0  0
  -30.8670  -16.0479   19.8771 O   0  0  0  0  0  0  0  0  0  0  0  0
  -21.1817   -7.7015   22.4257 O   0  0  0  0  0  0  0  0  0  0  0  0
  -28.3492  -26.4929   20.2207 O   0  0  0  0  0  0  0  0  0  1  0  0
  -23.2438   -3.1686   24.7930 F   0  0  0  0  0  0  0  0  0  0  0  0
  -20.2408   -5.1927   21.7450 F   0  0  0  0  0  0  0  0  0  0  0  0
  1  2  1  0  0  0  0
  1  5  2  0  0  0  0
  2  6  2  0  0  0  0
  3 10  2  0  0  0  0
  3 18  1  0  0  0  0
  4 11  1  0  0  0  0
  4 18  2  0  0  0  0
  5 20  1  0  0  0  0
  6 23  1  0  0  0  0
  7  9  2  0  0  0  0
  7 22  1  0  0  0  0
  8 12  2  0  0  0  0
  8 21  1  0  0  0  0
  9 26  1  0  0  0  0
 10 27  1  0  0  0  0
 11 27  2  0  0  0  0
 12 28  1  0  0  0  0
 13 14  2  0  0  0  0
 13 29  1  0  0  0  0
 14 30  1  0  0  0  0
 15 24  1  0  0  0  0
 15 26  2  0  0  0  0
 16 25  1  0  0  0  0
 16 28  2  0  0  0  0
 17 30  2  0  0  0  0
 17 31  1  0  0  0  0
 18 32  1  0  0  0  0
 19 32  1  0  0  0  0
 19 33  2  0  0  0  0
 19 34  1  0  0  0  0
 20 23  2  0  0  0  0
 20 40  1  0  0  0  0
 21 25  2  0  0  0  0
 21 41  1  0  0  0  0
 22 24  2  0  0  0  0
 22 50  1  0  0  0  0
 23 51  1  0  0  0  0
 24 42  1  0  0  0  0
 25 43  1  0  0  0  0
 26 70  1  0  0  0  0
 27 80  1  0  0  0  0
 28 81  1  0  0  0  0
 29 31  2  0  0  0  0
 29 80  1  0  0  0  0
 30 82  1  0  0  0  0
 31 83  1  0  0  0  0
 32 64  2  0  0  0  0
 33 65  1  0  0  0  0
 33 68  1  0  0  0  0
 34 69  1  0  0  0  0
 34 74  2  0  0  0  0
 35 52  1  0  0  0  0
 35 71  1  0  0  0  0
 35 75  2  0  0  0  0
 36 59  1  0  0  0  0
 36 60  1  0  0  0  0
 36 76  2  0  0  0  0
 37 61  1  0  0  0  0
 37 66  1  0  0  0  0
 37 77  2  0  0  0  0
 38 62  1  0  0  0  0
 38 72  1  0  0  0  0
 38 78  2  0  0  0  0
 39 67  1  0  0  0  0
 39 70  1  0  0  0  0
 39 79  2  0  0  0  0
 40 44  1  0  0  0  0
 41 52  1  0  0  0  0
 42 50  1  0  0  0  0
 43 66  1  0  0  0  0
 44 46  1  0  0  0  0
 45 47  1  0  0  0  0
 45 48  1  0  0  0  0
 46 51  1  0  0  0  0
 47 53  1  0  0  0  0
 48 67  1  0  0  0  0
 49 53  1  0  0  0  0
 49 67  1  0  0  0  0
 50 59  1  0  0  0  0
 51 71  1  0  0  0  0
 52 66  1  0  0  0  0
 53 65  1  0  0  0  0
 54 62  1  0  0  0  0
 55 63  1  0  0  0  0
 56 63  1  0  0  0  0
 57 63  1  0  0  0  0
 58 73  1  0  0  0  0
 60 81  1  0  0  0  0
 61 63  1  0  0  0  0
 61 72  1  0  0  0  0
 62 73  1  0  0  0  0
 64 65  1  0  0  0  0
M  CHG  1  73   1
M  ISO  4  39 100  60 101  70 100  81 101
M  END
> <Batch ID>
0137

> <Smiles>
CNC(C)C(=O)NC(C(=O)N1Cc2cc([101O:1][101CH2:1]C(=O)CC3Cc4cc([100NH:0][100C:0](=O)N5CCCC(n6nc(-c7ccc(Oc8ccc(F)cc8F)cc7)c(C(N)=O)c6N)C5)ccc43)ccc2CC1C(=O)NC1CCCc2ccccc21)C(C)(C)C

> <Shape>
0.338

> <Color>
0.112

> <Negative vol penalty>
0.000

$$$$

  -OEChem-04052302423D

 86 94  0     1  0  0  0  0  0999 V2000
  -27.9141  -21.8699   26.8274 C   0  0  0  0  0  0  0  0  0  0  0  0
  -28.6716  -21.8735   25.6606 C   0  0  0  0  0  0  0  0  0  0  0  0
  -22.9948   -9.8987   19.9905 C   0  0  0  0  0  0  0  0  0  0  0  0
  -23.7140   -9.9643   22.2960 C   0  0  0  0  0  0  0  0  0  0  0  0
  -26.7246  -22.5947   26.8872 C   0  0  0  0  0  0  0  0  0  0  0  0
  -28.2394  -22.6012   24.5523 C   0  0  0  0  0  0  0  0  0  0  0  0
  -31.9732  -25.2561   22.3948 C   0  0  0  0  0  0  0  0  0  0  0  0
  -30.6945  -19.7981   21.3366 C   0  0  0  0  0  0  0  0  0  0  0  0
  -29.7638  -19.2637   22.2275 C   0  0  0  0  0  0  0  0  0  0  0  0
  -22.2247   -8.7681   20.2629 C   0  0  0  0  0  0  0  0  0  0  0  0
  -22.9438   -8.8337   22.5685 C   0  0  0  0  0  0  0  0  0  0  0  0
  -32.8628  -24.5572   21.5799 C   0  0  0  0  0  0  0  0  0  0  0  0
  -21.4512   -5.7531   23.7900 C   0  0  0  0  0  0  0  0  0  0  0  0
  -22.0326   -4.7413   24.5540 C   0  0  0  0  0  0  0  0  0  0  0  0
  -31.6795  -25.3383   19.6283 C   0  0  0  0  0  0  0  0  0  0  0  0
  -31.2098  -17.5755   20.5418 C   0  0  0  0  0  0  0  0  0  0  0  0
  -23.7627   -4.4777   22.8884 C   0  0  0  0  0  0  0  0  0  0  0  0
  -23.7395  -10.4968   21.0071 C   0  0  0  0  0  0  0  0  0  0  0  0
  -24.1318  -13.0100   20.8141 C   0  0  0  0  0  0  0  0  0  0  0  0
  -26.2825  -23.3394   25.7824 C   0  0  0  0  0  0  0  0  0  0  0  0
  -30.9217  -25.9937   21.8320 C   0  0  0  0  0  0  0  0  0  0  0  0
  -27.0421  -23.3356   24.5969 C   0  0  0  0  0  0  0  0  0  0  0  0
  -30.7794  -26.0477   20.4381 C   0  0  0  0  0  0  0  0  0  0  0  0
  -31.4175  -18.9540   20.4937 C   0  0  0  0  0  0  0  0  0  0  0  0
  -29.5561  -17.8852   22.2756 C   0  0  0  0  0  0  0  0  0  0  0  0
  -30.2791  -17.0411   21.4327 C   0  0  0  0  0  0  0  0  0  0  0  0
  -22.1991   -8.2356   21.5519 C   0  0  0  0  0  0  0  0  0  0  0  0
  -32.7143  -24.5959   20.1966 C   0  0  0  0  0  0  0  0  0  0  0  0
  -22.0255   -6.1272   22.5751 C   0  0  0  0  0  0  0  0  0  0  0  0
  -23.1884   -4.1036   24.1032 C   0  0  0  0  0  0  0  0  0  0  0  0
  -23.1813   -5.4896   22.1243 C   0  0  0  0  0  0  0  0  0  0  0  0
  -24.5357  -11.6643   20.7262 C   0  0  0  0  0  0  0  0  0  0  0  0
  -25.2443  -13.7272   20.4475 C   0  0  0  0  0  0  0  0  0  0  0  0
  -22.8642  -13.5624   21.1933 C   0  0  0  0  0  0  0  0  0  0  0  0
  -27.7500  -25.8590   21.9923 C   0  0  0  0  0  0  0  0  0  0  0  0
  -27.9355  -28.5995   20.2668 C   0  0  0  0  0  0  0  0  0  0  0  0
  -29.7337  -30.5625   18.1314 C   0  0  0  0  0  0  0  0  0  0  0  0
  -30.7256  -14.6759   20.6892 C   0  0  0  0  0  0  0  0  0  0  0  0
  -24.9661  -24.0691   25.8786 C   0  0  0  0  0  0  0  0  0  0  0  0
  -29.9866  -26.7638   22.7236 C   0  0  0  0  0  0  0  0  0  0  0  0
  -29.6794  -26.8414   19.7835 C   0  0  0  0  0  0  0  0  0  0  0  0
  -24.7688  -25.1163   24.7856 C   0  0  0  0  0  0  0  0  0  0  0  0
  -29.6072  -12.2093   18.3779 C   0  0  0  0  0  0  0  0  0  0  0  0
  -25.1419  -24.5421   23.4226 C   0  0  0  0  0  0  0  0  0  0  0  0
  -28.1549  -11.9583   18.7900 C   0  0  0  0  0  0  0  0  0  0  0  0
  -30.5052  -12.4590   19.5883 C   0  0  0  0  0  0  0  0  0  0  0  0
  -28.5883  -13.2623   20.9111 C   0  0  0  0  0  0  0  0  0  0  0  0
  -26.6191  -24.1326   23.3821 C   0  0  1  0  0  0  0  0  0  0  0  0
  -28.6442  -27.0643   22.0641 C   0  0  1  0  0  0  0  0  0  0  0  0
  -27.6333  -13.0699   19.7217 C   0  0  2  0  0  0  0  0  0  0  0  0
  -28.5533  -17.3406   23.2405 C   0  0  0  0  0  0  0  0  0  0  0  0
  -29.6079  -32.7259   16.8659 C   0  0  0  0  0  0  0  0  0  0  0  0
  -35.5164  -22.3955   17.8501 C   0  0  0  0  0  0  0  0  0  0  0  0
  -26.0646  -27.3003   18.2366 C   0  0  0  0  0  0  0  0  0  0  0  0
  -26.7285  -29.0711   16.5959 C   0  0  0  0  0  0  0  0  0  0  0  0
  -25.5761  -29.7059   18.7152 C   0  0  0  0  0  0  0  0  0  0  0  0
  -36.2156  -20.4105   20.1293 C   0  0  0  0  0  0  0  0  0  0  0  0
  -35.2053  -19.3598   18.1078 C   0  0  0  0  0  0  0  0  0  0  0  0
  -32.0817  -31.6662   19.5555 C   0  0  0  0  0  0  0  0  0  0  0  0
  -32.4245  -19.5332   19.5297 C   0  0  0  0  0  0  0  0  0  0  0  0
  -33.8174  -19.6283   20.1678 C   0  0  0  0  0  0  0  0  0  0  0  0
  -34.1580  -22.7242   19.9349 C   0  0  0  0  0  0  0  0  0  1  0  0
  -27.9828  -28.9355   18.7958 C   0  0  1  0  0  0  0  0  0  0  0  0
  -30.0503  -32.0470   18.1529 C   0  0  2  0  0  0  0  0  0  0  0  0
  -34.4883  -21.7414   18.7922 C   0  0  2  0  0  0  0  0  0  0  0  0
  -26.6077  -28.7366   18.0980 C   0  0  0  0  0  0  0  0  0  0  0  0
  -34.9178  -20.3105   19.2929 C   0  0  0  0  0  0  0  0  0  0  0  0
  -25.8057  -11.5318   20.3343 N   0  0  0  0  0  0  0  0  0  0  0  0
  -26.2094  -12.8034   20.1726 N   0  0  0  0  0  0  0  0  0  0  0  0
  -28.7867  -27.5723   20.6981 N   0  0  0  0  0  0  0  0  0  0  0  0
  -29.9506  -13.5274   20.4225 N   0  0  0  0  0  0  0  0  0  0  0  0
  -25.4815  -15.0515   20.3366 N   0  0  0  0  0  0  0  0  0  0  0  0
  -21.8292  -12.6834   21.5404 N   0  0  0  0  0  0  0  0  0  0  0  0
  -30.0817  -15.6383   21.4662 N   0  0  0  0  0  0  0  0  0  0  0  0
  -27.4624  -25.2978   23.2218 N   0  0  0  0  0  0  0  0  0  0  0  0
  -28.5086  -30.2933   18.7039 N   0  0  0  0  0  0  0  0  0  0  0  0
  -31.5158  -32.2618   18.3177 N   0  3  0  0  0  0  0  0  0  0  0  0
  -22.6506  -14.7984   21.2076 O   0  0  0  0  0  0  0  0  0  0  0  0
  -27.3494  -25.4680   20.9022 O   0  0  0  0  0  0  0  0  0  0  0  0
  -27.1767  -29.2302   21.0071 O   0  0  0  0  0  0  0  0  0  0  0  0
  -30.4953  -29.7259   17.6512 O   0  0  0  0  0  0  0  0  0  0  0  0
  -31.8658  -14.8087   20.2373 O   0  0  0  0  0  0  0  0  0  0  0  0
  -21.4475   -7.1325   21.8181 O   0  0  0  0  0  0  0  0  0  0  0  0
  -33.5808  -23.9142   19.3990 O   0  0  0  0  0  0  0  0  0  1  0  0
  -23.7475   -3.1330   24.8378 F   0  0  0  0  0  0  0  0  0  0  0  0
  -23.7383   -5.8455   20.9586 F   0  0  0  0  0  0  0  0  0  0  0  0
  1  2  1  0  0  0  0
  1  5  2  0  0  0  0
  2  6  2  0  0  0  0
  3 10  2  0  0  0  0
  3 18  1  0  0  0  0
  4 11  1  0  0  0  0
  4 18  2  0  0  0  0
  5 20  1  0  0  0  0
  6 22  1  0  0  0  0
  7 12  2  0  0  0  0
  7 21  1  0  0  0  0
  8  9  2  0  0  0  0
  8 24  1  0  0  0  0
  9 25  1  0  0  0  0
 10 27  1  0  0  0  0
 11 27  2  0  0  0  0
 12 28  1  0  0  0  0
 13 14  2  0  0  0  0
 13 29  1  0  0  0  0
 14 30  1  0  0  0  0
 15 23  1  0  0  0  0
 15 28  2  0  0  0  0
 16 24  2  0  0  0  0
 16 26  1  0  0  0  0
 17 30  2  0  0  0  0
 17 31  1  0  0  0  0
 18 32  1  0  0  0  0
 19 32  1  0  0  0  0
 19 33  2  0  0  0  0
 19 34  1  0  0  0  0
 20 22  2  0  0  0  0
 20 39  1  0  0  0  0
 21 23  2  0  0  0  0
 21 40  1  0  0  0  0
 22 48  1  0  0  0  0
 23 41  1  0  0  0  0
 24 60  1  0  0  0  0
 25 26  2  0  0  0  0
 25 51  1  0  0  0  0
 26 74  1  0  0  0  0
 27 83  1  0  0  0  0
 28 84  1  0  0  0  0
 29 31  2  0  0  0  0
 29 83  1  0  0  0  0
 30 85  1  0  0  0  0
 31 86  1  0  0  0  0
 32 68  2  0  0  0  0
 33 69  1  0  0  0  0
 33 72  1  0  0  0  0
 34 73  1  0  0  0  0
 34 78  2  0  0  0  0
 35 49  1  0  0  0  0
 35 75  1  0  0  0  0
 35 79  2  0  0  0  0
 36 63  1  0  0  0  0
 36 70  1  0  0  0  0
 36 80  2  0  0  0  0
 37 64  1  0  0  0  0
 37 76  1  0  0  0  0
 37 81  2  0  0  0  0
 38 71  1  0  0  0  0
 38 74  1  0  0  0  0
 38 82  2  0  0  0  0
 39 42  1  0  0  0  0
 40 49  1  0  0  0  0
 41 70  1  0  0  0  0
 42 44  1  0  0  0  0
 43 45  1  0  0  0  0
 43 46  1  0  0  0  0
 44 48  1  0  0  0  0
 45 50  1  0  0  0  0
 46 71  1  0  0  0  0
 47 50  1  0  0  0  0
 47 71  1  0  0  0  0
 48 75  1  0  0  0  0
 49 70  1  0  0  0  0
 50 69  1  0  0  0  0
 52 64  1  0  0  0  0
 53 65  1  0  0  0  0
 54 66  1  0  0  0  0
 55 66  1  0  0  0  0
 56 66  1  0  0  0  0
 57 67  1  0  0  0  0
 58 67  1  0  0  0  0
 59 77  1  0  0  0  0
 60 61  1  0  0  0  0
 61 67  1  0  0  0  0
 62 65  1  0  0  0  0
 62 84  1  0  0  0  0
 63 66  1  0  0  0  0
 63 76  1  0  0  0  0
 64 77  1  0  0  0  0
 65 67  1  0  0  0  0
 68 69  1  0  0  0  0
M  CHG  1  77   1
M  ISO  4  38 100  62 101  74 100  84 101
M  END
> <Batch ID>
0137

> <Smiles>
CNC(C)C(=O)NC(C(=O)N1Cc2cc([101O:1][101CH2:1]C(C)C(C)(C)CCc3ccc(C)c([100NH:0][100C:0](=O)N4CCCC(n5nc(-c6ccc(Oc7ccc(F)cc7F)cc6)c(C(N)=O)c5N)C4)c3)ccc2CC1C(=O)NC1CCCc2ccccc21)C(C)(C)C

> <Shape>
0.236

> <Color>
0.194

> <Negative vol penalty>
0.000

$$$$

  -OEChem-04052302423D

 88 96  0     1  0  0  0  0  0999 V2000
  -28.6133  -25.1115   16.3906 C   0  0  0  0  0  0  0  0  0  0  0  0
  -27.4460  -25.1542   17.1463 C   0  0  0  0  0  0  0  0  0  0  0  0
  -25.3404  -13.5013   19.9780 C   0  0  0  0  0  0  0  0  0  0  0  0
  -23.4780  -14.8645   20.6923 C   0  0  0  0  0  0  0  0  0  0  0  0
  -29.7677  -25.7388   16.8572 C   0  0  0  0  0  0  0  0  0  0  0  0
  -27.4328  -25.8233   18.3696 C   0  0  0  0  0  0  0  0  0  0  0  0
  -23.3266  -28.7298   18.9499 C   0  0  0  0  0  0  0  0  0  0  0  0
  -24.8764  -12.4519   20.7710 C   0  0  0  0  0  0  0  0  0  0  0  0
  -23.0139  -13.8150   21.4853 C   0  0  0  0  0  0  0  0  0  0  0  0
  -22.1371  -28.0897   19.2953 C   0  0  0  0  0  0  0  0  0  0  0  0
  -22.4843  -10.0683   20.5984 C   0  0  0  0  0  0  0  0  0  0  0  0
  -22.4655   -8.7914   20.0376 C   0  0  0  0  0  0  0  0  0  0  0  0
  -22.4650  -28.7354   21.5964 C   0  0  0  0  0  0  0  0  0  0  0  0
  -26.4862  -23.6312   22.6627 C   0  0  0  0  0  0  0  0  0  0  0  0
  -24.2964  -22.8495   22.0063 C   0  0  0  0  0  0  0  0  0  0  0  0
  -23.9637   -8.0107   21.7648 C   0  0  0  0  0  0  0  0  0  0  0  0
  -24.6412  -14.7077   19.9387 C   0  0  0  0  0  0  0  0  0  0  0  0
  -24.7937  -16.0511   17.7754 C   0  0  0  0  0  0  0  0  0  0  0  0
  -29.7660  -26.4242   18.0823 C   0  0  0  0  0  0  0  0  0  0  0  0
  -24.1010  -29.3691   19.9286 C   0  0  0  0  0  0  0  0  0  0  0  0
  -28.5886  -26.4592   18.8537 C   0  0  0  0  0  0  0  0  0  0  0  0
  -23.6625  -29.3850   21.2604 C   0  0  0  0  0  0  0  0  0  0  0  0
  -25.8987  -24.5271   23.5559 C   0  0  0  0  0  0  0  0  0  0  0  0
  -24.5100  -24.5841   23.6744 C   0  0  0  0  0  0  0  0  0  0  0  0
  -25.6850  -22.7924   21.8878 C   0  0  0  0  0  0  0  0  0  0  0  0
  -23.7131  -12.6087   21.5246 C   0  0  0  0  0  0  0  0  0  0  0  0
  -21.7076  -28.0900   20.6192 C   0  0  0  0  0  0  0  0  0  0  0  0
  -23.2429  -10.3166   21.7424 C   0  0  0  0  0  0  0  0  0  0  0  0
  -23.7088  -23.7454   22.8996 C   0  0  0  0  0  0  0  0  0  0  0  0
  -23.2051   -7.7625   20.6208 C   0  0  0  0  0  0  0  0  0  0  0  0
  -23.9825   -9.2878   22.3256 C   0  0  0  0  0  0  0  0  0  0  0  0
  -25.1203  -15.7924   19.1201 C   0  0  0  0  0  0  0  0  0  0  0  0
  -25.5025  -17.1851   17.4620 C   0  0  0  0  0  0  0  0  0  0  0  0
  -23.9271  -15.3309   16.8889 C   0  0  0  0  0  0  0  0  0  0  0  0
  -27.0431  -28.9816   21.0677 C   0  0  0  0  0  0  0  0  0  0  0  0
  -20.3259  -24.8343   22.1892 C   0  0  0  0  0  0  0  0  0  0  0  0
  -26.3476  -31.6948   22.7039 C   0  0  0  0  0  0  0  0  0  0  0  0
  -23.9657  -33.7558   24.0175 C   0  0  0  0  0  0  0  0  0  0  0  0
  -27.6433  -21.6978   20.7418 C   0  0  0  0  0  0  0  0  0  0  0  0
  -31.0511  -27.0468   18.5677 C   0  0  0  0  0  0  0  0  0  0  0  0
  -25.3681  -30.0779   19.5353 C   0  0  0  0  0  0  0  0  0  0  0  0
  -24.4471  -30.0746   22.3454 C   0  0  0  0  0  0  0  0  0  0  0  0
  -30.8514  -28.0536   19.6976 C   0  0  0  0  0  0  0  0  0  0  0  0
  -29.5119  -19.5346   18.6191 C   0  0  0  0  0  0  0  0  0  0  0  0
  -29.9153  -27.4856   20.7595 C   0  0  0  0  0  0  0  0  0  0  0  0
  -28.5657  -18.3559   18.3794 C   0  0  0  0  0  0  0  0  0  0  0  0
  -29.3925  -20.0774   20.0421 C   0  0  0  0  0  0  0  0  0  0  0  0
  -27.0820  -19.2419   20.2234 C   0  0  0  0  0  0  0  0  0  0  0  0
  -28.5279  -27.1962   20.1740 C   0  0  1  0  0  0  0  0  0  0  0  0
  -26.3386  -30.2564   20.6987 C   0  0  1  0  0  0  0  0  0  0  0  0
  -27.1195  -18.7027   18.7841 C   0  0  2  0  0  0  0  0  0  0  0  0
  -26.7783  -25.4147   24.3742 C   0  0  0  0  0  0  0  0  0  0  0  0
  -23.9623  -25.0562   26.0752 C   0  0  0  0  0  0  0  0  0  0  0  0
  -23.7040  -35.8775   25.3318 C   0  0  0  0  0  0  0  0  0  0  0  0
  -19.0087  -24.0896   20.1794 C   0  0  0  0  0  0  0  0  0  0  0  0
  -18.1300  -25.9417   21.5965 C   0  0  0  0  0  0  0  0  0  0  0  0
  -27.1314  -30.2103   25.2517 C   0  0  0  0  0  0  0  0  0  0  0  0
  -25.9715  -31.9974   26.5667 C   0  0  0  0  0  0  0  0  0  0  0  0
  -27.9307  -32.5772   25.1356 C   0  0  0  0  0  0  0  0  0  0  0  0
  -22.4866  -35.0725   21.8182 C   0  0  0  0  0  0  0  0  0  0  0  0
  -23.8748  -25.5410   24.6320 C   0  0  0  0  0  0  0  0  0  0  0  0
  -21.6158  -24.1123   21.8318 C   0  0  0  0  0  0  0  0  0  0  0  0
  -20.1636  -26.3364   20.1753 C   0  0  0  0  0  0  0  0  0  1  0  0
  -25.7236  -32.0055   24.0429 C   0  0  1  0  0  0  0  0  0  0  0  0
  -23.7844  -35.2612   23.9439 C   0  0  2  0  0  0  0  0  0  0  0  0
  -19.4109  -25.3055   21.0362 C   0  0  0  0  0  0  0  0  0  0  0  0
  -26.6753  -31.6828   25.2294 C   0  0  0  0  0  0  0  0  0  0  0  0
  -25.9705  -16.6897   19.6261 N   0  0  0  0  0  0  0  0  0  0  0  0
  -26.1842  -17.5233   18.5938 N   0  0  0  0  0  0  0  0  0  0  0  0
  -25.6824  -30.7481   21.9119 N   0  0  0  0  0  0  0  0  0  0  0  0
  -27.9955  -20.3879   20.3536 N   0  0  0  0  0  0  0  0  0  0  0  0
  -25.6029  -17.9159   16.3314 N   0  0  0  0  0  0  0  0  0  0  0  0
  -23.2768  -14.1875   17.3729 N   0  0  0  0  0  0  0  0  0  0  0  0
  -26.2818  -21.8819   20.9809 N   0  0  0  0  0  0  0  0  0  0  0  0
  -27.7719  -28.4224   20.0354 N   0  0  0  0  0  0  0  0  0  0  0  0
  -25.2972  -33.3993   23.9810 N   0  0  0  0  0  0  0  0  0  0  0  0
  -22.5331  -35.5968   23.2074 N   0  3  0  0  0  0  0  0  0  0  0  0
  -23.7479  -15.6812   15.6978 O   0  0  0  0  0  0  0  0  0  0  0  0
  -26.9348  -28.5388   22.2052 O   0  0  0  0  0  0  0  0  0  0  0  0
  -20.0121  -25.0038   23.3700 O   0  0  0  0  0  0  0  0  0  0  0  0
  -27.3830  -32.2761   22.3697 O   0  0  0  0  0  0  0  0  0  0  0  0
  -23.0209  -32.9745   24.1030 O   0  0  0  0  0  0  0  0  0  0  0  0
  -28.4833  -22.5973   20.8276 O   0  0  0  0  0  0  0  0  0  0  0  0
  -23.2599  -11.5847   22.2984 O   0  0  0  0  0  0  0  0  0  0  0  0
  -22.3396  -23.7873   23.0026 O   0  0  0  0  0  0  0  0  0  0  0  0
  -20.5473  -27.4655   20.9591 O   0  0  0  0  0  0  0  0  0  1  0  0
  -23.1857   -6.5359   20.0830 F   0  0  0  0  0  0  0  0  0  0  0  0
  -24.7122   -9.5199   23.4253 F   0  0  0  0  0  0  0  0  0  0  0  0
  1  2  1  0  0  0  0
  1  5  2  0  0  0  0
  2  6  2  0  0  0  0
  3  8  2  0  0  0  0
  3 17  1  0  0  0  0
  4  9  1  0  0  0  0
  4 17  2  0  0  0  0
  5 19  1  0  0  0  0
  6 21  1  0  0  0  0
  7 10  2  0  0  0  0
  7 20  1  0  0  0  0
  8 26  1  0  0  0  0
  9 26  2  0  0  0  0
 10 27  1  0  0  0  0
 11 12  2  0  0  0  0
 11 28  1  0  0  0  0
 12 30  1  0  0  0  0
 13 22  1  0  0  0  0
 13 27  2  0  0  0  0
 14 23  2  0  0  0  0
 14 25  1  0  0  0  0
 15 25  2  0  0  0  0
 15 29  1  0  0  0  0
 16 30  2  0  0  0  0
 16 31  1  0  0  0  0
 17 32  1  0  0  0  0
 18 32  1  0  0  0  0
 18 33  2  0  0  0  0
 18 34  1  0  0  0  0
 19 21  2  0  0  0  0
 19 40  1  0  0  0  0
 20 22  2  0  0  0  0
 20 41  1  0  0  0  0
 21 49  1  0  0  0  0
 22 42  1  0  0  0  0
 23 24  1  0  0  0  0
 23 52  1  0  0  0  0
 24 29  2  0  0  0  0
 24 61  1  0  0  0  0
 25 74  1  0  0  0  0
 26 84  1  0  0  0  0
 27 86  1  0  0  0  0
 28 31  2  0  0  0  0
 28 84  1  0  0  0  0
 29 85  1  0  0  0  0
 30 87  1  0  0  0  0
 31 88  1  0  0  0  0
 32 68  2  0  0  0  0
 33 69  1  0  0  0  0
 33 72  1  0  0  0  0
 34 73  1  0  0  0  0
 34 78  2  0  0  0  0
 35 50  1  0  0  0  0
 35 75  1  0  0  0  0
 35 79  2  0  0  0  0
 36 62  1  0  0  0  0
 36 66  1  0  0  0  0
 36 80  2  0  0  0  0
 37 64  1  0  0  0  0
 37 70  1  0  0  0  0
 37 81  2  0  0  0  0
 38 65  1  0  0  0  0
 38 76  1  0  0  0  0
 38 82  2  0  0  0  0
 39 71  1  0  0  0  0
 39 74  1  0  0  0  0
 39 83  2  0  0  0  0
 40 43  1  0  0  0  0
 41 50  1  0  0  0  0
 42 70  1  0  0  0  0
 43 45  1  0  0  0  0
 44 46  1  0  0  0  0
 44 47  1  0  0  0  0
 45 49  1  0  0  0  0
 46 51  1  0  0  0  0
 47 71  1  0  0  0  0
 48 51  1  0  0  0  0
 48 71  1  0  0  0  0
 49 75  1  0  0  0  0
 50 70  1  0  0  0  0
 51 69  1  0  0  0  0
 53 61  1  0  0  0  0
 54 65  1  0  0  0  0
 55 66  1  0  0  0  0
 56 66  1  0  0  0  0
 57 67  1  0  0  0  0
 58 67  1  0  0  0  0
 59 67  1  0  0  0  0
 60 77  1  0  0  0  0
 62 85  1  0  0  0  0
 63 66  1  0  0  0  0
 63 86  1  0  0  0  0
 64 67  1  0  0  0  0
 64 76  1  0  0  0  0
 65 77  1  0  0  0  0
 68 69  1  0  0  0  0
M  CHG  1  77   1
M  ISO  4  39 100  63 101  74 100  86 101
M  END
> <Batch ID>
0137

> <Smiles>
CCc1c(C)cc([100NH:0][100C:0](=O)N2CCCC(n3nc(-c4ccc(Oc5ccc(F)cc5F)cc4)c(C(N)=O)c3N)C2)cc1OCC(=O)C(C)(C)[101CH2:1][101O:1]c1ccc2c(c1)CN(C(=O)C(NC(=O)C(C)NC)C(C)(C)C)C(C(=O)NC1CCCc3ccccc31)C2

> <Shape>
0.303

> <Color>
0.074

> <Negative vol penalty>
0.000

$$$$

  -OEChem-04052302423D

 85 93  0     1  0  0  0  0  0999 V2000
  -30.3124  -24.2726   18.5978 C   0  0  0  0  0  0  0  0  0  0  0  0
  -29.0223  -24.3670   19.1096 C   0  0  0  0  0  0  0  0  0  0  0  0
  -28.6249  -15.4615   22.0156 C   0  0  0  0  0  0  0  0  0  0  0  0
  -26.3195  -16.1810   22.0815 C   0  0  0  0  0  0  0  0  0  0  0  0
  -31.3389  -25.0356   19.1527 C   0  0  0  0  0  0  0  0  0  0  0  0
  -28.7581  -25.2239   20.1776 C   0  0  0  0  0  0  0  0  0  0  0  0
  -24.5347  -27.9336   19.4955 C   0  0  0  0  0  0  0  0  0  0  0  0
  -21.6774  -24.8900   23.9922 C   0  0  0  0  0  0  0  0  0  0  0  0
  -21.2833  -23.5809   22.0002 C   0  0  0  0  0  0  0  0  0  0  0  0
  -23.0185  -24.5070   23.9786 C   0  0  0  0  0  0  0  0  0  0  0  0
  -22.6245  -23.1979   21.9866 C   0  0  0  0  0  0  0  0  0  0  0  0
  -28.2250  -14.1546   22.2940 C   0  0  0  0  0  0  0  0  0  0  0  0
  -25.9196  -14.8740   22.3599 C   0  0  0  0  0  0  0  0  0  0  0  0
  -23.3202  -27.2878   19.7226 C   0  0  0  0  0  0  0  0  0  0  0  0
  -25.4406  -11.9995   20.6487 C   0  0  0  0  0  0  0  0  0  0  0  0
  -24.3476  -11.4940   19.9449 C   0  0  0  0  0  0  0  0  0  0  0  0
  -23.1871  -28.3170   21.9003 C   0  0  0  0  0  0  0  0  0  0  0  0
  -23.1654  -11.1550   22.0244 C   0  0  0  0  0  0  0  0  0  0  0  0
  -27.6721  -16.4748   21.9094 C   0  0  0  0  0  0  0  0  0  0  0  0
  -28.7812  -18.2779   20.4859 C   0  0  0  0  0  0  0  0  0  0  0  0
  -31.0852  -25.9094   20.2217 C   0  0  0  0  0  0  0  0  0  0  0  0
  -25.0908  -28.7688   20.4750 C   0  0  0  0  0  0  0  0  0  0  0  0
  -29.7825  -25.9983   20.7482 C   0  0  0  0  0  0  0  0  0  0  0  0
  -24.4075  -28.9743   21.6821 C   0  0  0  0  0  0  0  0  0  0  0  0
  -20.8097  -24.4269   23.0030 C   0  0  0  0  0  0  0  0  0  0  0  0
  -23.4921  -23.6610   22.9758 C   0  0  0  0  0  0  0  0  0  0  0  0
  -26.8724  -13.8608   22.4662 C   0  0  0  0  0  0  0  0  0  0  0  0
  -22.6476  -27.4771   20.9263 C   0  0  0  0  0  0  0  0  0  0  0  0
  -25.3961  -12.0827   22.0404 C   0  0  0  0  0  0  0  0  0  0  0  0
  -23.2100  -11.0718   20.6327 C   0  0  0  0  0  0  0  0  0  0  0  0
  -24.2585  -11.6605   22.7282 C   0  0  0  0  0  0  0  0  0  0  0  0
  -28.0846  -17.8252   21.6224 C   0  0  0  0  0  0  0  0  0  0  0  0
  -28.9301  -19.6280   20.6896 C   0  0  0  0  0  0  0  0  0  0  0  0
  -29.2514  -17.5437   19.3477 C   0  0  0  0  0  0  0  0  0  0  0  0
  -27.7735  -28.7491   22.1800 C   0  0  0  0  0  0  0  0  0  0  0  0
  -26.7027  -31.6452   23.1744 C   0  0  0  0  0  0  0  0  0  0  0  0
  -24.0568  -33.7450   23.6608 C   0  0  0  0  0  0  0  0  0  0  0  0
  -25.8480  -23.6412   23.8677 C   0  0  0  0  0  0  0  0  0  0  0  0
  -32.2366  -26.6787   20.8193 C   0  0  0  0  0  0  0  0  0  0  0  0
  -26.3886  -29.4793   20.2039 C   0  0  0  0  0  0  0  0  0  0  0  0
  -24.9520  -29.8769   22.7579 C   0  0  0  0  0  0  0  0  0  0  0  0
  -31.7975  -27.8418   21.7052 C   0  0  0  0  0  0  0  0  0  0  0  0
  -29.3076  -22.8666   24.1972 C   0  0  0  0  0  0  0  0  0  0  0  0
  -30.6936  -27.3985   22.6600 C   0  0  0  0  0  0  0  0  0  0  0  0
  -29.4511  -21.5301   23.4657 C   0  0  0  0  0  0  0  0  0  0  0  0
  -27.9806  -22.9626   24.9479 C   0  0  0  0  0  0  0  0  0  0  0  0
  -26.9307  -21.3545   23.4049 C   0  0  0  0  0  0  0  0  0  0  0  0
  -29.4513  -26.9349   21.8899 C   0  0  1  0  0  0  0  0  0  0  0  0
  -27.1154  -29.9024   21.4767 C   0  0  1  0  0  0  0  0  0  0  0  0
  -28.2235  -21.2371   22.5810 C   0  0  2  0  0  0  0  0  0  0  0  0
  -16.6124  -27.7190   22.2885 C   0  0  0  0  0  0  0  0  0  0  0  0
  -18.4801  -23.5998   23.2646 C   0  0  0  0  0  0  0  0  0  0  0  0
  -22.8408  -35.8663   24.2253 C   0  0  0  0  0  0  0  0  0  0  0  0
  -27.0315  -30.6439   26.0378 C   0  0  0  0  0  0  0  0  0  0  0  0
  -25.5925  -32.5477   26.7948 C   0  0  0  0  0  0  0  0  0  0  0  0
  -27.7700  -33.0043   25.6668 C   0  0  0  0  0  0  0  0  0  0  0  0
  -18.8258  -27.5190   20.1605 C   0  0  0  0  0  0  0  0  0  0  0  0
  -24.2593  -34.7379   20.8801 C   0  0  0  0  0  0  0  0  0  0  0  0
  -18.0996  -27.9294   22.5506 C   0  0  0  0  0  0  0  0  0  0  0  0
  -18.8599  -25.5767   21.7419 C   0  0  0  0  0  0  0  0  0  0  0  0
  -20.5264  -27.5087   22.0013 C   0  0  0  0  0  0  0  0  0  1  0  0
  -19.3504  -24.8437   23.0180 C   0  0  2  0  0  0  0  0  0  0  0  0
  -25.8275  -32.1310   24.3044 C   0  0  1  0  0  0  0  0  0  0  0  0
  -23.8497  -35.2048   23.2994 C   0  0  2  0  0  0  0  0  0  0  0  0
  -26.5458  -32.0631   25.6816 C   0  0  0  0  0  0  0  0  0  0  0  0
  -19.0697  -27.1229   21.6394 C   0  0  1  0  0  0  0  0  0  0  0  0
  -27.8102  -18.8079   22.4844 N   0  0  0  0  0  0  0  0  0  0  0  0
  -28.3371  -19.8916   21.8893 N   0  0  0  0  0  0  0  0  0  0  0  0
  -26.2272  -30.5442   22.4480 N   0  0  0  0  0  0  0  0  0  0  0  0
  -26.8628  -22.6772   24.0457 N   0  0  0  0  0  0  0  0  0  0  0  0
  -29.5092  -20.6035   19.9579 N   0  0  0  0  0  0  0  0  0  0  0  0
  -28.4000  -17.4064   18.2428 N   0  0  0  0  0  0  0  0  0  0  0  0
  -24.8545  -23.2720   22.9615 N   0  0  0  0  0  0  0  0  0  0  0  0
  -28.7005  -28.0746   21.4085 N   0  0  0  0  0  0  0  0  0  0  0  0
  -25.3807  -33.4681   23.9287 N   0  0  0  0  0  0  0  0  0  0  0  0
  -23.3531  -35.3264   21.8995 N   0  3  0  0  0  0  0  0  0  0  0  0
  -30.3866  -17.0108   19.3179 O   0  0  0  0  0  0  0  0  0  0  0  0
  -27.4641  -28.4912   23.3374 O   0  0  0  0  0  0  0  0  0  0  0  0
  -27.7656  -32.2257   22.9401 O   0  0  0  0  0  0  0  0  0  0  0  0
  -23.1357  -32.9325   23.7049 O   0  0  0  0  0  0  0  0  0  0  0  0
  -25.8739  -24.7264   24.4539 O   0  0  0  0  0  0  0  0  0  0  0  0
  -26.4818  -12.5855   22.7376 O   0  0  0  0  0  0  0  0  0  0  0  0
  -21.4623  -26.8474   21.1508 O   0  0  0  0  0  0  0  0  0  1  0  0
  -22.1598  -10.5878   19.9566 F   0  0  0  0  0  0  0  0  0  0  0  0
  -24.2094  -11.7391   24.0651 F   0  0  0  0  0  0  0  0  0  0  0  0
  1  2  1  0  0  0  0
  1  5  2  0  0  0  0
  2  6  2  0  0  0  0
  3 12  2  0  0  0  0
  3 19  1  0  0  0  0
  4 13  1  0  0  0  0
  4 19  2  0  0  0  0
  5 21  1  0  0  0  0
  6 23  1  0  0  0  0
  7 14  2  0  0  0  0
  7 22  1  0  0  0  0
  8 10  2  0  0  0  0
  8 25  1  0  0  0  0
  9 11  1  0  0  0  0
  9 25  2  0  0  0  0
 10 26  1  0  0  0  0
 11 26  2  0  0  0  0
 12 27  1  0  0  0  0
 13 27  2  0  0  0  0
 14 28  1  0  0  0  0
 15 16  2  0  0  0  0
 15 29  1  0  0  0  0
 16 30  1  0  0  0  0
 17 24  1  0  0  0  0
 17 28  2  0  0  0  0
 18 30  2  0  0  0  0
 18 31  1  0  0  0  0
 19 32  1  0  0  0  0
 20 32  1  0  0  0  0
 20 33  2  0  0  0  0
 20 34  1  0  0  0  0
 21 23  2  0  0  0  0
 21 39  1  0  0  0  0
 22 24  2  0  0  0  0
 22 40  1  0  0  0  0
 23 48  1  0  0  0  0
 24 41  1  0  0  0  0
 25 62  1  0  0  0  0
 26 73  1  0  0  0  0
 27 82  1  0  0  0  0
 28 83  1  0  0  0  0
 29 31  2  0  0  0  0
 29 82  1  0  0  0  0
 30 84  1  0  0  0  0
 31 85  1  0  0  0  0
 32 67  2  0  0  0  0
 33 68  1  0  0  0  0
 33 71  1  0  0  0  0
 34 72  1  0  0  0  0
 34 77  2  0  0  0  0
 35 49  1  0  0  0  0
 35 74  1  0  0  0  0
 35 78  2  0  0  0  0
 36 63  1  0  0  0  0
 36 69  1  0  0  0  0
 36 79  2  0  0  0  0
 37 64  1  0  0  0  0
 37 75  1  0  0  0  0
 37 80  2  0  0  0  0
 38 70  1  0  0  0  0
 38 73  1  0  0  0  0
 38 81  2  0  0  0  0
 39 42  1  0  0  0  0
 40 49  1  0  0  0  0
 41 69  1  0  0  0  0
 42 44  1  0  0  0  0
 43 45  1  0  0  0  0
 43 46  1  0  0  0  0
 44 48  1  0  0  0  0
 45 50  1  0  0  0  0
 46 70  1  0  0  0  0
 47 50  1  0  0  0  0
 47 70  1  0  0  0  0
 48 74  1  0  0  0  0
 49 69  1  0  0  0  0
 50 68  1  0  0  0  0
 51 59  1  0  0  0  0
 52 62  1  0  0  0  0
 53 64  1  0  0  0  0
 54 65  1  0  0  0  0
 55 65  1  0  0  0  0
 56 65  1  0  0  0  0
 57 66  1  0  0  0  0
 58 76  1  0  0  0  0
 59 66  1  0  0  0  0
 60 62  1  0  0  0  0
 60 66  1  0  0  0  0
 61 66  1  0  0  0  0
 61 83  1  0  0  0  0
 63 65  1  0  0  0  0
 63 75  1  0  0  0  0
 64 76  1  0  0  0  0
 67 68  1  0  0  0  0
M  CHG  1  76   1
M  ISO  4  38 100  61 101  73 100  83 101
M  END
> <Batch ID>
0137

> <Smiles>
CCC(C)(CC(C)c1ccc([100NH:0][100C:0](=O)N2CCCC(n3nc(-c4ccc(Oc5ccc(F)cc5F)cc4)c(C(N)=O)c3N)C2)cc1)[101CH2:1][101O:1]c1ccc2c(c1)CN(C(=O)C(NC(=O)C(C)NC)C(C)(C)C)C(C(=O)NC1CCCc3ccccc31)C2

> <Shape>
0.283

> <Color>
0.061

> <Negative vol penalty>
0.000

$$$$

  -OEChem-04052302423D

 88 96  0     1  0  0  0  0  0999 V2000
  -32.3952  -13.9693   20.8907 C   0  0  0  0  0  0  0  0  0  0  0  0
  -31.6328  -15.1325   20.9262 C   0  0  0  0  0  0  0  0  0  0  0  0
  -26.9240  -25.1225   19.3401 C   0  0  0  0  0  0  0  0  0  0  0  0
  -28.7731  -26.6503   19.6298 C   0  0  0  0  0  0  0  0  0  0  0  0
  -31.8161  -12.7700   20.4779 C   0  0  0  0  0  0  0  0  0  0  0  0
  -30.2911  -15.0972   20.5480 C   0  0  0  0  0  0  0  0  0  0  0  0
  -25.7104  -18.4004   22.9169 C   0  0  0  0  0  0  0  0  0  0  0  0
  -23.4765  -28.3790   28.0613 C   0  0  0  0  0  0  0  0  0  0  0  0
  -27.8193  -24.0960   19.0395 C   0  0  0  0  0  0  0  0  0  0  0  0
  -29.6684  -25.6238   19.3292 C   0  0  0  0  0  0  0  0  0  0  0  0
  -25.0842  -19.5728   22.4961 C   0  0  0  0  0  0  0  0  0  0  0  0
  -29.8686  -22.0038   20.7294 C   0  0  0  0  0  0  0  0  0  0  0  0
  -23.0057  -27.6270   29.1377 C   0  0  0  0  0  0  0  0  0  0  0  0
  -29.6595  -20.7638   21.3330 C   0  0  0  0  0  0  0  0  0  0  0  0
  -23.3533  -18.2634   21.4432 C   0  0  0  0  0  0  0  0  0  0  0  0
  -22.0945  -25.9995   27.6021 C   0  0  0  0  0  0  0  0  0  0  0  0
  -29.4267  -19.7432   19.1556 C   0  0  0  0  0  0  0  0  0  0  0  0
  -27.4009  -26.3997   19.6352 C   0  0  0  0  0  0  0  0  0  0  0  0
  -25.4554  -27.9669   19.1189 C   0  0  0  0  0  0  0  0  0  0  0  0
  -30.4641  -12.7181   20.1036 C   0  0  0  0  0  0  0  0  0  0  0  0
  -25.1677  -17.1483   22.5941 C   0  0  0  0  0  0  0  0  0  0  0  0
  -29.6938  -13.8964   20.1286 C   0  0  0  0  0  0  0  0  0  0  0  0
  -23.9732  -17.0766   21.8633 C   0  0  0  0  0  0  0  0  0  0  0  0
  -22.5653  -26.7515   26.5257 C   0  0  0  0  0  0  0  0  0  0  0  0
  -23.2563  -27.9413   26.7553 C   0  0  0  0  0  0  0  0  0  0  0  0
  -29.1914  -24.3466   19.0341 C   0  0  0  0  0  0  0  0  0  0  0  0
  -23.9071  -19.5044   21.7567 C   0  0  0  0  0  0  0  0  0  0  0  0
  -29.8567  -22.1135   19.3388 C   0  0  0  0  0  0  0  0  0  0  0  0
  -22.3147  -26.4373   28.9081 C   0  0  0  0  0  0  0  0  0  0  0  0
  -29.4385  -19.6335   20.5461 C   0  0  0  0  0  0  0  0  0  0  0  0
  -29.6358  -20.9832   18.5520 C   0  0  0  0  0  0  0  0  0  0  0  0
  -26.4766  -27.4607   19.9452 C   0  0  0  0  0  0  0  0  0  0  0  0
  -24.8668  -28.9565   19.8678 C   0  0  0  0  0  0  0  0  0  0  0  0
  -25.0730  -27.5774   17.7931 C   0  0  0  0  0  0  0  0  0  0  0  0
  -26.1606  -14.6385   20.9153 C   0  0  0  0  0  0  0  0  0  0  0  0
  -23.4336  -13.2946   22.0466 C   0  0  0  0  0  0  0  0  0  0  0  0
  -20.2838  -13.7348   23.2840 C   0  0  0  0  0  0  0  0  0  0  0  0
  -24.4460  -29.9211   25.7497 C   0  0  0  0  0  0  0  0  0  0  0  0
  -29.8947  -11.4082   19.6194 C   0  0  0  0  0  0  0  0  0  0  0  0
  -25.8409  -15.8934   23.0783 C   0  0  0  0  0  0  0  0  0  0  0  0
  -23.3388  -15.7576   21.5080 C   0  0  0  0  0  0  0  0  0  0  0  0
  -28.3687  -11.3801   19.5926 C   0  0  0  0  0  0  0  0  0  0  0  0
  -25.8478  -32.1206   23.3261 C   0  0  0  0  0  0  0  0  0  0  0  0
  -27.8226  -12.6505   18.9486 C   0  0  0  0  0  0  0  0  0  0  0  0
  -26.0696  -31.2227   22.1068 C   0  0  0  0  0  0  0  0  0  0  0  0
  -26.1203  -31.3791   24.6336 C   0  0  0  0  0  0  0  0  0  0  0  0
  -25.6175  -29.2137   23.5719 C   0  0  0  0  0  0  0  0  0  0  0  0
  -28.2287  -13.8935   19.7496 C   0  0  1  0  0  0  0  0  0  0  0  0
  -25.4766  -14.6633   22.2529 C   0  0  1  0  0  0  0  0  0  0  0  0
  -25.2925  -29.8977   22.2340 C   0  0  2  0  0  0  0  0  0  0  0  0
  -18.2831  -12.4473   24.0822 C   0  0  0  0  0  0  0  0  0  0  0  0
  -22.7078  -12.6358   19.1571 C   0  0  0  0  0  0  0  0  0  0  0  0
  -20.3541  -12.2383   19.9122 C   0  0  0  0  0  0  0  0  0  0  0  0
  -22.2034  -10.8187   20.7997 C   0  0  0  0  0  0  0  0  0  0  0  0
  -23.0458  -26.1199   22.1066 C   0  0  0  0  0  0  0  0  0  0  0  0
  -24.7943  -24.4396   22.7042 C   0  0  0  0  0  0  0  0  0  0  0  0
  -21.9306  -23.1678   20.6821 C   0  0  0  0  0  0  0  0  0  0  0  0
  -20.9792  -21.8500   22.5578 C   0  0  0  0  0  0  0  0  0  0  0  0
  -20.4497  -14.9276   25.9875 C   0  0  0  0  0  0  0  0  0  0  0  0
  -22.3123  -26.2530   25.1233 C   0  0  0  0  0  0  0  0  0  0  0  0
  -23.5719  -25.6106   24.5236 C   0  0  0  0  0  0  0  0  0  0  0  0
  -22.3031  -23.8890   23.1424 C   0  0  0  0  0  0  0  0  0  0  0  0
  -23.4535  -21.8021   22.1700 C   0  0  0  0  0  0  0  0  0  1  0  0
  -22.0027  -13.2179   21.5716 C   0  0  1  0  0  0  0  0  0  0  0  0
  -19.5802  -13.1309   24.4860 C   0  0  2  0  0  0  0  0  0  0  0  0
  -21.8298  -12.2527   20.3650 C   0  0  0  0  0  0  0  0  0  0  0  0
  -23.4123  -24.9910   23.0914 C   0  0  0  0  0  0  0  0  0  0  0  0
  -22.1991  -22.7073   22.1218 C   0  0  0  0  0  0  0  0  0  0  0  0
  -26.5361  -28.0778   21.1282 N   0  0  0  0  0  0  0  0  0  0  0  0
  -25.5450  -28.9821   21.0508 N   0  0  0  0  0  0  0  0  0  0  0  0
  -24.0383  -14.5587   21.9989 N   0  0  0  0  0  0  0  0  0  0  0  0
  -25.3471  -30.1364   24.6856 N   0  0  0  0  0  0  0  0  0  0  0  0
  -23.8405  -29.7986   19.6231 N   0  0  0  0  0  0  0  0  0  0  0  0
  -24.1073  -26.5727   17.6443 N   0  0  0  0  0  0  0  0  0  0  0  0
  -23.7429  -28.7191   25.6756 N   0  0  0  0  0  0  0  0  0  0  0  0
  -27.4002  -14.0280   20.9285 N   0  0  0  0  0  0  0  0  0  0  0  0
  -21.2034  -12.8636   22.7395 N   0  0  0  0  0  0  0  0  0  0  0  0
  -19.2622  -14.1893   25.4858 N   0  3  0  0  0  0  0  0  0  0  0  0
  -25.5849  -28.0933   16.7707 O   0  0  0  0  0  0  0  0  0  0  0  0
  -25.6043  -15.1351   19.9428 O   0  0  0  0  0  0  0  0  0  0  0  0
  -23.9920  -12.2720   22.4519 O   0  0  0  0  0  0  0  0  0  0  0  0
  -20.0391  -14.8649   22.8674 O   0  0  0  0  0  0  0  0  0  0  0  0
  -24.2883  -30.7547   26.6454 O   0  0  0  0  0  0  0  0  0  0  0  0
  -30.0653  -23.3451   18.7411 O   0  0  0  0  0  0  0  0  0  0  0  0
  -23.2905  -20.6542   21.3417 O   0  0  0  0  0  0  0  0  0  1  0  0
  -21.8631  -25.7150   29.9418 F   0  0  0  0  0  0  0  0  0  0  0  0
  -29.2392  -18.4426   21.1258 F   0  0  0  0  0  0  0  0  0  0  0  0
  -29.6244  -21.0821   17.2156 F   0  0  0  0  0  0  0  0  0  0  0  0
  1  2  1  0  0  0  0
  1  5  2  0  0  0  0
  2  6  2  0  0  0  0
  3  9  2  0  0  0  0
  3 18  1  0  0  0  0
  4 10  1  0  0  0  0
  4 18  2  0  0  0  0
  5 20  1  0  0  0  0
  6 22  1  0  0  0  0
  7 11  2  0  0  0  0
  7 21  1  0  0  0  0
  8 13  2  0  0  0  0
  8 25  1  0  0  0  0
  9 26  1  0  0  0  0
 10 26  2  0  0  0  0
 11 27  1  0  0  0  0
 12 14  2  0  0  0  0
 12 28  1  0  0  0  0
 13 29  1  0  0  0  0
 14 30  1  0  0  0  0
 15 23  1  0  0  0  0
 15 27  2  0  0  0  0
 16 24  1  0  0  0  0
 16 29  2  0  0  0  0
 17 30  2  0  0  0  0
 17 31  1  0  0  0  0
 18 32  1  0  0  0  0
 19 32  1  0  0  0  0
 19 33  2  0  0  0  0
 19 34  1  0  0  0  0
 20 22  2  0  0  0  0
 20 39  1  0  0  0  0
 21 23  2  0  0  0  0
 21 40  1  0  0  0  0
 22 48  1  0  0  0  0
 23 41  1  0  0  0  0
 24 25  2  0  0  0  0
 24 60  1  0  0  0  0
 25 75  1  0  0  0  0
 26 84  1  0  0  0  0
 27 85  1  0  0  0  0
 28 31  2  0  0  0  0
 28 84  1  0  0  0  0
 29 86  1  0  0  0  0
 30 87  1  0  0  0  0
 31 88  1  0  0  0  0
 32 69  2  0  0  0  0
 33 70  1  0  0  0  0
 33 73  1  0  0  0  0
 34 74  1  0  0  0  0
 34 79  2  0  0  0  0
 35 49  1  0  0  0  0
 35 76  1  0  0  0  0
 35 80  2  0  0  0  0
 36 64  1  0  0  0  0
 36 71  1  0  0  0  0
 36 81  2  0  0  0  0
 37 65  1  0  0  0  0
 37 77  1  0  0  0  0
 37 82  2  0  0  0  0
 38 72  1  0  0  0  0
 38 75  1  0  0  0  0
 38 83  2  0  0  0  0
 39 42  1  0  0  0  0
 40 49  1  0  0  0  0
 41 71  1  0  0  0  0
 42 44  1  0  0  0  0
 43 45  1  0  0  0  0
 43 46  1  0  0  0  0
 44 48  1  0  0  0  0
 45 50  1  0  0  0  0
 46 72  1  0  0  0  0
 47 50  1  0  0  0  0
 47 72  1  0  0  0  0
 48 76  1  0  0  0  0
 49 71  1  0  0  0  0
 50 70  1  0  0  0  0
 51 65  1  0  0  0  0
 52 66  1  0  0  0  0
 53 66  1  0  0  0  0
 54 66  1  0  0  0  0
 55 67  1  0  0  0  0
 56 67  1  0  0  0  0
 57 68  1  0  0  0  0
 58 68  1  0  0  0  0
 59 78  1  0  0  0  0
 60 61  1  0  0  0  0
 61 67  1  0  0  0  0
 62 67  1  0  0  0  0
 62 68  1  0  0  0  0
 63 68  1  0  0  0  0
 63 85  1  0  0  0  0
 64 66  1  0  0  0  0
 64 77  1  0  0  0  0
 65 78  1  0  0  0  0
 69 70  1  0  0  0  0
M  CHG  1  78   1
M  ISO  4  38 100  63 101  75 100  85 101
M  END
> <Batch ID>
0137

> <Smiles>
CNC(C)C(=O)NC(C(=O)N1Cc2cc([101O:1][101CH2:1]C(C)(C)CC(C)(C)CCc3cc(F)ccc3[100NH:0][100C:0](=O)N3CCCC(n4nc(-c5ccc(Oc6ccc(F)cc6F)cc5)c(C(N)=O)c4N)C3)ccc2CC1C(=O)NC1CCCc2ccccc21)C(C)(C)C

> <Shape>
0.240

> <Color>
0.060

> <Negative vol penalty>
0.000

$$$$

  -OEChem-04052302423D

 86 95  0     1  0  0  0  0  0999 V2000
  -17.3312  -30.5739   23.5861 C   0  0  0  0  0  0  0  0  0  0  0  0
  -18.5826  -30.6538   24.1885 C   0  0  0  0  0  0  0  0  0  0  0  0
  -25.8300  -14.4053   21.3411 C   0  0  0  0  0  0  0  0  0  0  0  0
  -27.1568  -13.9077   23.2979 C   0  0  0  0  0  0  0  0  0  0  0  0
  -16.9939  -29.4534   22.8280 C   0  0  0  0  0  0  0  0  0  0  0  0
  -19.4972  -29.6127   24.0340 C   0  0  0  0  0  0  0  0  0  0  0  0
  -30.4895  -23.8778   17.4509 C   0  0  0  0  0  0  0  0  0  0  0  0
  -25.9811  -30.7745   21.1183 C   0  0  0  0  0  0  0  0  0  0  0  0
  -30.0731  -22.9120   18.3643 C   0  0  0  0  0  0  0  0  0  0  0  0
  -24.9228  -13.4095   21.7030 C   0  0  0  0  0  0  0  0  0  0  0  0
  -26.2495  -12.9119   23.6598 C   0  0  0  0  0  0  0  0  0  0  0  0
  -27.3180  -30.9566   20.7639 C   0  0  0  0  0  0  0  0  0  0  0  0
  -24.7244  -10.0396   21.5319 C   0  0  0  0  0  0  0  0  0  0  0  0
  -24.2829   -9.1721   20.5330 C   0  0  0  0  0  0  0  0  0  0  0  0
  -27.7073  -28.5787   20.9683 C   0  0  0  0  0  0  0  0  0  0  0  0
  -30.6891  -24.3846   20.1638 C   0  0  0  0  0  0  0  0  0  0  0  0
  -22.0071   -9.8850   20.9197 C   0  0  0  0  0  0  0  0  0  0  0  0
  -26.9470  -14.6543   22.1385 C   0  0  0  0  0  0  0  0  0  0  0  0
  -28.6401  -15.7540   20.5791 C   0  0  0  0  0  0  0  0  0  0  0  0
  -17.9085  -28.4023   22.6563 C   0  0  0  0  0  0  0  0  0  0  0  0
  -25.4979  -29.4903   21.3845 C   0  0  0  0  0  0  0  0  0  0  0  0
  -19.1715  -28.4764   23.2741 C   0  0  0  0  0  0  0  0  0  0  0  0
  -31.0028  -25.1197   17.8788 C   0  0  0  0  0  0  0  0  0  0  0  0
  -26.3661  -28.3886   21.3117 C   0  0  0  0  0  0  0  0  0  0  0  0
  -31.1346  -25.3734   19.2617 C   0  0  0  0  0  0  0  0  0  0  0  0
  -30.1644  -23.1695   19.7238 C   0  0  0  0  0  0  0  0  0  0  0  0
  -25.1325  -12.6628   22.8624 C   0  0  0  0  0  0  0  0  0  0  0  0
  -28.1790  -29.8614   20.6893 C   0  0  0  0  0  0  0  0  0  0  0  0
  -23.8073  -10.8298   22.2249 C   0  0  0  0  0  0  0  0  0  0  0  0
  -22.9242   -9.0948   20.2268 C   0  0  0  0  0  0  0  0  0  0  0  0
  -22.4487  -10.7526   21.9188 C   0  0  0  0  0  0  0  0  0  0  0  0
  -27.8848  -15.6825   21.7649 C   0  0  0  0  0  0  0  0  0  0  0  0
  -29.3696  -16.9108   20.7059 C   0  0  0  0  0  0  0  0  0  0  0  0
  -28.6786  -14.8552   19.4627 C   0  0  0  0  0  0  0  0  0  0  0  0
  -22.5624  -27.3534   22.3291 C   0  0  0  0  0  0  0  0  0  0  0  0
  -24.1204  -25.8247   20.1735 C   0  0  0  0  0  0  0  0  0  0  0  0
  -25.0906  -23.8179   17.5912 C   0  0  0  0  0  0  0  0  0  0  0  0
  -29.7616  -22.2991   22.0533 C   0  0  0  0  0  0  0  0  0  0  0  0
  -17.4813  -27.1901   21.8670 C   0  0  0  0  0  0  0  0  0  0  0  0
  -24.0802  -29.2543   21.8298 C   0  0  0  0  0  0  0  0  0  0  0  0
  -31.3696  -26.1217   16.8018 C   0  0  0  0  0  0  0  0  0  0  0  0
  -25.8107  -27.0297   21.6402 C   0  0  0  0  0  0  0  0  0  0  0  0
  -18.6454  -26.2985   21.4425 C   0  0  0  0  0  0  0  0  0  0  0  0
  -30.9659  -27.5564   17.1440 C   0  0  0  0  0  0  0  0  0  0  0  0
  -30.0757  -19.9386   24.7003 C   0  0  0  0  0  0  0  0  0  0  0  0
  -19.5911  -26.0606   22.6155 C   0  0  0  0  0  0  0  0  0  0  0  0
  -29.5959  -18.6268   24.0751 C   0  0  0  0  0  0  0  0  0  0  0  0
  -29.2727  -21.1354   24.1938 C   0  0  0  0  0  0  0  0  0  0  0  0
  -32.6410  -27.3564   19.0867 C   0  0  0  0  0  0  0  0  0  0  0  0
  -28.7193  -19.9483   22.1072 C   0  0  0  0  0  0  0  0  0  0  0  0
  -20.1999  -27.3786   23.1093 C   0  0  1  0  0  0  0  0  0  0  0  0
  -23.4954  -27.9306   21.3055 C   0  0  1  0  0  0  0  0  0  0  0  0
  -31.9605  -28.2753   18.0692 C   0  0  2  0  0  0  0  0  0  0  0  0
  -29.5409  -18.7222   22.5377 C   0  0  2  0  0  0  0  0  0  0  0  0
  -22.8387  -23.1262   16.7263 C   0  0  0  0  0  0  0  0  0  0  0  0
  -30.7013  -30.4012   17.6794 C   0  0  0  0  0  0  0  0  0  0  0  0
  -32.3263  -30.2315   19.5765 C   0  0  0  0  0  0  0  0  0  0  0  0
  -26.2831  -25.0697   22.1876 C   0  0  0  0  0  0  0  0  0  0  0  0
  -26.8029  -23.0706   20.7729 C   0  0  0  0  0  0  0  0  0  0  0  0
  -24.5473  -23.3091   21.8110 C   0  0  0  0  0  0  0  0  0  0  0  0
  -25.9088  -20.9804   17.3946 C   0  0  0  0  0  0  0  0  0  0  0  0
  -30.1274  -28.9724   19.6546 C   0  0  0  0  0  0  0  0  0  1  0  0
  -25.1814  -24.7979   19.8685 C   0  0  1  0  0  0  0  0  0  0  0  0
  -24.3247  -22.8044   16.7601 C   0  0  2  0  0  0  0  0  0  0  0  0
  -31.2789  -29.4639   18.7526 C   0  0  0  0  0  0  0  0  0  0  0  0
  -25.7047  -24.0880   21.1490 C   0  0  0  0  0  0  0  0  0  0  0  0
  -28.1136  -16.7118   22.5848 N   0  0  0  0  0  0  0  0  0  0  0  0
  -29.0208  -17.4410   21.9131 N   0  0  0  0  0  0  0  0  0  0  0  0
  -31.6995  -26.5220   19.8019 N   0  0  0  0  0  0  0  0  0  0  0  0
  -24.4804  -26.8703   21.0324 N   0  0  0  0  0  0  0  0  0  0  0  0
  -29.2682  -21.1633   22.7296 N   0  0  0  0  0  0  0  0  0  0  0  0
  -30.2690  -17.5160   19.9014 N   0  0  0  0  0  0  0  0  0  0  0  0
  -29.6053  -13.8040   19.4830 N   0  0  0  0  0  0  0  0  0  0  0  0
  -29.7374  -22.1979   20.6627 N   0  0  0  0  0  0  0  0  0  0  0  0
  -21.2616  -27.8077   22.2244 N   0  0  0  0  0  0  0  0  0  0  0  0
  -24.6033  -23.8952   18.8788 N   0  0  0  0  0  0  0  0  0  0  0  0
  -24.4965  -21.4358   17.3245 N   0  3  0  0  0  0  0  0  0  0  0  0
  -27.9252  -14.9903   18.4689 O   0  0  0  0  0  0  0  0  0  0  0  0
  -22.9897  -26.5532   23.1530 O   0  0  0  0  0  0  0  0  0  0  0  0
  -23.0002  -25.7025   19.6699 O   0  0  0  0  0  0  0  0  0  0  0  0
  -26.0298  -24.4725   17.1441 O   0  0  0  0  0  0  0  0  0  0  0  0
  -30.2004  -23.2777   22.6631 O   0  0  0  0  0  0  0  0  0  0  0  0
  -24.2473  -11.6912   23.2159 O   0  0  0  0  0  0  0  0  0  0  0  0
  -29.4819  -30.0458   20.3383 O   0  0  0  0  0  0  0  0  0  1  0  0
  -22.5005   -8.2628   19.2664 F   0  0  0  0  0  0  0  0  0  0  0  0
  -21.5630  -11.5101   22.5802 F   0  0  0  0  0  0  0  0  0  0  0  0
  1  2  1  0  0  0  0
  1  5  2  0  0  0  0
  2  6  2  0  0  0  0
  3 10  2  0  0  0  0
  3 18  1  0  0  0  0
  4 11  1  0  0  0  0
  4 18  2  0  0  0  0
  5 20  1  0  0  0  0
  6 22  1  0  0  0  0
  7  9  2  0  0  0  0
  7 23  1  0  0  0  0
  8 12  2  0  0  0  0
  8 21  1  0  0  0  0
  9 26  1  0  0  0  0
 10 27  1  0  0  0  0
 11 27  2  0  0  0  0
 12 28  1  0  0  0  0
 13 14  2  0  0  0  0
 13 29  1  0  0  0  0
 14 30  1  0  0  0  0
 15 24  1  0  0  0  0
 15 28  2  0  0  0  0
 16 25  1  0  0  0  0
 16 26  2  0  0  0  0
 17 30  2  0  0  0  0
 17 31  1  0  0  0  0
 18 32  1  0  0  0  0
 19 32  1  0  0  0  0
 19 33  2  0  0  0  0
 19 34  1  0  0  0  0
 20 22  2  0  0  0  0
 20 39  1  0  0  0  0
 21 24  2  0  0  0  0
 21 40  1  0  0  0  0
 22 51  1  0  0  0  0
 23 25  2  0  0  0  0
 23 41  1  0  0  0  0
 24 42  1  0  0  0  0
 25 69  1  0  0  0  0
 26 74  1  0  0  0  0
 27 83  1  0  0  0  0
 28 84  1  0  0  0  0
 29 31  2  0  0  0  0
 29 83  1  0  0  0  0
 30 85  1  0  0  0  0
 31 86  1  0  0  0  0
 32 67  2  0  0  0  0
 33 68  1  0  0  0  0
 33 72  1  0  0  0  0
 34 73  1  0  0  0  0
 34 78  2  0  0  0  0
 35 52  1  0  0  0  0
 35 75  1  0  0  0  0
 35 79  2  0  0  0  0
 36 63  1  0  0  0  0
 36 70  1  0  0  0  0
 36 80  2  0  0  0  0
 37 64  1  0  0  0  0
 37 76  1  0  0  0  0
 37 81  2  0  0  0  0
 38 71  1  0  0  0  0
 38 74  1  0  0  0  0
 38 82  2  0  0  0  0
 39 43  1  0  0  0  0
 40 52  1  0  0  0  0
 41 44  1  0  0  0  0
 42 70  1  0  0  0  0
 43 46  1  0  0  0  0
 44 53  1  0  0  0  0
 45 47  1  0  0  0  0
 45 48  1  0  0  0  0
 46 51  1  0  0  0  0
 47 54  1  0  0  0  0
 48 71  1  0  0  0  0
 49 53  1  0  0  0  0
 49 69  1  0  0  0  0
 50 54  1  0  0  0  0
 50 71  1  0  0  0  0
 51 75  1  0  0  0  0
 52 70  1  0  0  0  0
 53 65  1  0  0  0  0
 54 68  1  0  0  0  0
 55 64  1  0  0  0  0
 56 65  1  0  0  0  0
 57 65  1  0  0  0  0
 58 66  1  0  0  0  0
 59 66  1  0  0  0  0
 60 66  1  0  0  0  0
 61 77  1  0  0  0  0
 62 65  1  0  0  0  0
 62 84  1  0  0  0  0
 63 66  1  0  0  0  0
 63 76  1  0  0  0  0
 64 77  1  0  0  0  0
 67 68  1  0  0  0  0
M  CHG  1  77   1
M  ISO  4  38 100  62 101  74 100  84 101
M  END
> <Batch ID>
0137

> <Smiles>
CNC(C)C(=O)NC(C(=O)N1Cc2cc([101O:1][101CH2:1]C(C)(C)C3CCc4ccc([100NH:0][100C:0](=O)N5CCCC(n6nc(-c7ccc(Oc8ccc(F)cc8F)cc7)c(C(N)=O)c6N)C5)cc4NC3)ccc2CC1C(=O)NC1CCCc2ccccc21)C(C)(C)C

> <Shape>
0.253

> <Color>
0.060

> <Negative vol penalty>
0.000

$$$$

  -OEChem-04052302423D

 85 93  0     1  0  0  0  0  0999 V2000
  -18.1918  -25.4741   23.0398 C   0  0  0  0  0  0  0  0  0  0  0  0
  -19.2953  -25.4433   22.1932 C   0  0  0  0  0  0  0  0  0  0  0  0
  -30.4314  -15.6697   22.6853 C   0  0  0  0  0  0  0  0  0  0  0  0
  -32.2603  -17.0275   21.8800 C   0  0  0  0  0  0  0  0  0  0  0  0
  -30.0855  -27.0805   20.5974 C   0  0  0  0  0  0  0  0  0  0  0  0
  -32.2916  -26.1231   20.8285 C   0  0  0  0  0  0  0  0  0  0  0  0
  -17.6660  -26.6974   23.4534 C   0  0  0  0  0  0  0  0  0  0  0  0
  -19.8730  -26.6357   21.7589 C   0  0  0  0  0  0  0  0  0  0  0  0
  -25.8149  -27.6775   20.7032 C   0  0  0  0  0  0  0  0  0  0  0  0
  -29.5720  -26.1033   21.4499 C   0  0  0  0  0  0  0  0  0  0  0  0
  -31.7781  -25.1458   21.6811 C   0  0  0  0  0  0  0  0  0  0  0  0
  -30.7137  -14.7118   21.7115 C   0  0  0  0  0  0  0  0  0  0  0  0
  -32.5426  -16.0696   20.9062 C   0  0  0  0  0  0  0  0  0  0  0  0
  -26.5719  -27.6877   19.5324 C   0  0  0  0  0  0  0  0  0  0  0  0
  -31.1793  -11.7411   19.6688 C   0  0  0  0  0  0  0  0  0  0  0  0
  -31.1905  -10.4023   20.0600 C   0  0  0  0  0  0  0  0  0  0  0  0
  -26.3141  -30.0822   19.3938 C   0  0  0  0  0  0  0  0  0  0  0  0
  -32.9595  -10.8776   21.6355 C   0  0  0  0  0  0  0  0  0  0  0  0
  -31.2046  -16.8276   22.7695 C   0  0  0  0  0  0  0  0  0  0  0  0
  -31.4453  -27.0904   20.2866 C   0  0  0  0  0  0  0  0  0  0  0  0
  -31.4381  -17.8848   25.0794 C   0  0  0  0  0  0  0  0  0  0  0  0
  -18.2435  -27.9054   23.0317 C   0  0  0  0  0  0  0  0  0  0  0  0
  -25.2918  -28.8702   21.2230 C   0  0  0  0  0  0  0  0  0  0  0  0
  -19.3536  -27.8763   22.1662 C   0  0  0  0  0  0  0  0  0  0  0  0
  -25.5530  -30.0848   20.5727 C   0  0  0  0  0  0  0  0  0  0  0  0
  -30.4183  -25.1360   21.9919 C   0  0  0  0  0  0  0  0  0  0  0  0
  -31.7694  -14.9117   20.8220 C   0  0  0  0  0  0  0  0  0  0  0  0
  -26.8192  -28.8898   18.8760 C   0  0  0  0  0  0  0  0  0  0  0  0
  -32.0582  -12.6481   20.2608 C   0  0  0  0  0  0  0  0  0  0  0  0
  -32.0806   -9.9705   21.0434 C   0  0  0  0  0  0  0  0  0  0  0  0
  -32.9483  -12.2164   21.2441 C   0  0  0  0  0  0  0  0  0  0  0  0
  -30.9131  -17.8178   23.7749 C   0  0  0  0  0  0  0  0  0  0  0  0
  -30.8530  -18.9998   25.6280 C   0  0  0  0  0  0  0  0  0  0  0  0
  -31.9940  -28.1347   19.3752 C   0  0  0  0  0  0  0  0  0  0  0  0
  -32.3712  -17.0169   25.7364 C   0  0  0  0  0  0  0  0  0  0  0  0
  -22.3665  -29.9807   21.7825 C   0  0  0  0  0  0  0  0  0  0  0  0
  -23.9829  -32.4421   23.1430 C   0  0  0  0  0  0  0  0  0  0  0  0
  -26.8667  -34.2561   23.3425 C   0  0  0  0  0  0  0  0  0  0  0  0
  -28.5714  -23.9926   23.2678 C   0  0  0  0  0  0  0  0  0  0  0  0
  -17.6110  -29.2034   23.4674 C   0  0  0  0  0  0  0  0  0  0  0  0
  -24.4997  -28.8456   22.5014 C   0  0  0  0  0  0  0  0  0  0  0  0
  -25.0312  -31.3952   21.1008 C   0  0  0  0  0  0  0  0  0  0  0  0
  -18.5118  -30.4187   23.2626 C   0  0  0  0  0  0  0  0  0  0  0  0
  -26.8800  -21.6601   25.3596 C   0  0  0  0  0  0  0  0  0  0  0  0
  -19.1405  -30.3892   21.8732 C   0  0  0  0  0  0  0  0  0  0  0  0
  -27.7732  -20.4183   25.3141 C   0  0  0  0  0  0  0  0  0  0  0  0
  -26.8360  -22.3768   24.0111 C   0  0  0  0  0  0  0  0  0  0  0  0
  -29.0414  -21.4672   23.3962 C   0  0  0  0  0  0  0  0  0  0  0  0
  -20.0234  -29.1483   21.6934 C   0  0  1  0  0  0  0  0  0  0  0  0
  -23.5838  -30.0552   22.6602 C   0  0  1  0  0  0  0  0  0  0  0  0
  -29.1687  -20.7482   24.7492 C   0  0  2  0  0  0  0  0  0  0  0  0
  -27.8738  -36.2318   24.5171 C   0  0  0  0  0  0  0  0  0  0  0  0
  -22.3770  -34.3212   21.3541 C   0  0  0  0  0  0  0  0  0  0  0  0
  -24.0466  -36.1169   21.8599 C   0  0  0  0  0  0  0  0  0  0  0  0
  -22.6865  -35.1264   23.7015 C   0  0  0  0  0  0  0  0  0  0  0  0
  -30.3882  -31.0380   16.4248 C   0  0  0  0  0  0  0  0  0  0  0  0
  -29.2319  -29.1137   15.3290 C   0  0  0  0  0  0  0  0  0  0  0  0
  -28.9883  -32.5943   24.5657 C   0  0  0  0  0  0  0  0  0  0  0  0
  -31.0790  -29.1948   18.7784 C   0  0  0  0  0  0  0  0  0  0  0  0
  -30.4947  -28.7085   17.4485 C   0  0  0  0  0  0  0  0  0  0  0  0
  -28.3194  -30.0788   17.4647 C   0  0  0  0  0  0  0  0  0  1  0  0
  -24.5362  -33.7585   22.6530 C   0  0  1  0  0  0  0  0  0  0  0  0
  -27.6824  -34.7232   24.5345 C   0  0  2  0  0  0  0  0  0  0  0  0
  -23.4199  -34.8060   22.3809 C   0  0  0  0  0  0  0  0  0  0  0  0
  -29.6104  -29.7368   16.6900 C   0  0  0  0  0  0  0  0  0  0  0  0
  -30.0601  -18.8110   23.5107 N   0  0  0  0  0  0  0  0  0  0  0  0
  -33.2564  -28.1457   19.0811 N   0  0  0  0  0  0  0  0  0  0  0  0
  -30.0444  -19.5126   24.6567 N   0  0  0  0  0  0  0  0  0  0  0  0
  -24.2567  -31.3183   22.3505 N   0  0  0  0  0  0  0  0  0  0  0  0
  -28.1935  -22.6609   23.5405 N   0  0  0  0  0  0  0  0  0  0  0  0
  -30.9564  -19.5817   26.8417 N   0  0  0  0  0  0  0  0  0  0  0  0
  -32.8743  -15.9175   25.0276 N   0  0  0  0  0  0  0  0  0  0  0  0
  -29.8957  -24.1438   22.8580 N   0  0  0  0  0  0  0  0  0  0  0  0
  -21.2937  -29.3307   22.3623 N   0  0  0  0  0  0  0  0  0  0  0  0
  -25.5228  -34.1798   23.6416 N   0  0  0  0  0  0  0  0  0  0  0  0
  -29.0262  -34.0789   24.5271 N   0  3  0  0  0  0  0  0  0  0  0  0
  -32.7351  -17.2013   26.9226 O   0  0  0  0  0  0  0  0  0  0  0  0
  -22.3977  -30.4774   20.6627 O   0  0  0  0  0  0  0  0  0  0  0  0
  -23.3378  -32.4109   24.1939 O   0  0  0  0  0  0  0  0  0  0  0  0
  -27.3708  -33.9894   22.2538 O   0  0  0  0  0  0  0  0  0  0  0  0
  -27.7865  -24.9330   23.4149 O   0  0  0  0  0  0  0  0  0  0  0  0
  -32.0453  -13.9771   19.8717 O   0  0  0  0  0  0  0  0  0  0  0  0
  -27.5572  -28.9026   17.7327 O   0  0  0  0  0  0  0  0  0  1  0  0
  -32.0902   -8.6852   21.4202 F   0  0  0  0  0  0  0  0  0  0  0  0
  -33.7942  -13.0834   21.8173 F   0  0  0  0  0  0  0  0  0  0  0  0
  1  2  1  0  0  0  0
  1  7  2  0  0  0  0
  2  8  2  0  0  0  0
  3 12  2  0  0  0  0
  3 19  1  0  0  0  0
  4 13  1  0  0  0  0
  4 19  2  0  0  0  0
  5 10  2  0  0  0  0
  5 20  1  0  0  0  0
  6 11  1  0  0  0  0
  6 20  2  0  0  0  0
  7 22  1  0  0  0  0
  8 24  1  0  0  0  0
  9 14  2  0  0  0  0
  9 23  1  0  0  0  0
 10 26  1  0  0  0  0
 11 26  2  0  0  0  0
 12 27  1  0  0  0  0
 13 27  2  0  0  0  0
 14 28  1  0  0  0  0
 15 16  2  0  0  0  0
 15 29  1  0  0  0  0
 16 30  1  0  0  0  0
 17 25  1  0  0  0  0
 17 28  2  0  0  0  0
 18 30  2  0  0  0  0
 18 31  1  0  0  0  0
 19 32  1  0  0  0  0
 20 34  1  0  0  0  0
 21 32  1  0  0  0  0
 21 33  2  0  0  0  0
 21 35  1  0  0  0  0
 22 24  2  0  0  0  0
 22 40  1  0  0  0  0
 23 25  2  0  0  0  0
 23 41  1  0  0  0  0
 24 49  1  0  0  0  0
 25 42  1  0  0  0  0
 26 73  1  0  0  0  0
 27 82  1  0  0  0  0
 28 83  1  0  0  0  0
 29 31  2  0  0  0  0
 29 82  1  0  0  0  0
 30 84  1  0  0  0  0
 31 85  1  0  0  0  0
 32 66  2  0  0  0  0
 33 68  1  0  0  0  0
 33 71  1  0  0  0  0
 34 59  1  0  0  0  0
 34 67  2  0  0  0  0
 35 72  1  0  0  0  0
 35 77  2  0  0  0  0
 36 50  1  0  0  0  0
 36 74  1  0  0  0  0
 36 78  2  0  0  0  0
 37 62  1  0  0  0  0
 37 69  1  0  0  0  0
 37 79  2  0  0  0  0
 38 63  1  0  0  0  0
 38 75  1  0  0  0  0
 38 80  2  0  0  0  0
 39 70  1  0  0  0  0
 39 73  1  0  0  0  0
 39 81  2  0  0  0  0
 40 43  1  0  0  0  0
 41 50  1  0  0  0  0
 42 69  1  0  0  0  0
 43 45  1  0  0  0  0
 44 46  1  0  0  0  0
 44 47  1  0  0  0  0
 45 49  1  0  0  0  0
 46 51  1  0  0  0  0
 47 70  1  0  0  0  0
 48 51  1  0  0  0  0
 48 70  1  0  0  0  0
 49 74  1  0  0  0  0
 50 69  1  0  0  0  0
 51 68  1  0  0  0  0
 52 63  1  0  0  0  0
 53 64  1  0  0  0  0
 54 64  1  0  0  0  0
 55 64  1  0  0  0  0
 56 65  1  0  0  0  0
 57 65  1  0  0  0  0
 58 76  1  0  0  0  0
 59 60  1  0  0  0  0
 60 65  1  0  0  0  0
 61 65  1  0  0  0  0
 61 83  1  0  0  0  0
 62 64  1  0  0  0  0
 62 75  1  0  0  0  0
 63 76  1  0  0  0  0
 66 68  1  0  0  0  0
M  CHG  1  76   1
M  ISO  4  39 100  61 101  73 100  83 101
M  END
> <Batch ID>
0137

> <Smiles>
CNC(C)C(=O)NC(C(=O)N1Cc2cc([101O:1][101CH2:1]C(C)(C)CCC(=N)c3ccc([100NH:0][100C:0](=O)N4CCCC(n5nc(-c6ccc(Oc7ccc(F)cc7F)cc6)c(C(N)=O)c5N)C4)cc3)ccc2CC1C(=O)NC1CCCc2ccccc21)C(C)(C)C

> <Shape>
0.213

> <Color>
0.095

> <Negative vol penalty>
0.000

$$$$

  -OEChem-04052302423D

 85 93  0     1  0  0  0  0  0999 V2000
  -26.8119  -23.6656   18.2992 C   0  0  0  0  0  0  0  0  0  0  0  0
  -25.6427  -24.2519   18.7731 C   0  0  0  0  0  0  0  0  0  0  0  0
  -27.3148  -15.9579   21.3782 C   0  0  0  0  0  0  0  0  0  0  0  0
  -25.9805  -16.6894   19.5016 C   0  0  0  0  0  0  0  0  0  0  0  0
  -28.0294  -23.9400   18.9206 C   0  0  0  0  0  0  0  0  0  0  0  0
  -25.6903  -25.1122   19.8695 C   0  0  0  0  0  0  0  0  0  0  0  0
  -22.9279  -29.2993   19.1748 C   0  0  0  0  0  0  0  0  0  0  0  0
  -19.2022  -23.4087   19.8090 C   0  0  0  0  0  0  0  0  0  0  0  0
  -27.2507  -14.6449   20.9120 C   0  0  0  0  0  0  0  0  0  0  0  0
  -25.9164  -15.3763   19.0353 C   0  0  0  0  0  0  0  0  0  0  0  0
  -21.5475  -29.1850   19.3335 C   0  0  0  0  0  0  0  0  0  0  0  0
  -18.8347  -24.6445   20.3413 C   0  0  0  0  0  0  0  0  0  0  0  0
  -28.7551  -12.7695   18.5345 C   0  0  0  0  0  0  0  0  0  0  0  0
  -29.9350  -12.0256   18.5280 C   0  0  0  0  0  0  0  0  0  0  0  0
  -21.7310  -30.1195   21.5499 C   0  0  0  0  0  0  0  0  0  0  0  0
  -20.4194  -24.3412   22.1396 C   0  0  0  0  0  0  0  0  0  0  0  0
  -28.9246  -10.4099   20.0132 C   0  0  0  0  0  0  0  0  0  0  0  0
  -26.6796  -16.9802   20.6730 C   0  0  0  0  0  0  0  0  0  0  0  0
  -27.7177  -19.3044   20.8397 C   0  0  0  0  0  0  0  0  0  0  0  0
  -28.0933  -24.8116   20.0191 C   0  0  0  0  0  0  0  0  0  0  0  0
  -23.7229  -29.8153   20.2083 C   0  0  0  0  0  0  0  0  0  0  0  0
  -26.9096  -25.3975   20.5070 C   0  0  0  0  0  0  0  0  0  0  0  0
  -23.1210  -30.2416   21.4008 C   0  0  0  0  0  0  0  0  0  0  0  0
  -20.1783  -22.6391   20.4421 C   0  0  0  0  0  0  0  0  0  0  0  0
  -20.7869  -23.1054   21.6073 C   0  0  0  0  0  0  0  0  0  0  0  0
  -26.5515  -14.3540   19.7406 C   0  0  0  0  0  0  0  0  0  0  0  0
  -20.9492  -29.5924   20.5223 C   0  0  0  0  0  0  0  0  0  0  0  0
  -19.4433  -25.1108   21.5065 C   0  0  0  0  0  0  0  0  0  0  0  0
  -27.6599  -12.3336   19.2804 C   0  0  0  0  0  0  0  0  0  0  0  0
  -30.0198  -10.8458   19.2673 C   0  0  0  0  0  0  0  0  0  0  0  0
  -27.7447  -11.1539   20.0197 C   0  0  0  0  0  0  0  0  0  0  0  0
  -26.7450  -18.3367   21.1544 C   0  0  0  0  0  0  0  0  0  0  0  0
  -27.3344  -20.4187   21.5454 C   0  0  0  0  0  0  0  0  0  0  0  0
  -28.8651  -19.2051   19.9857 C   0  0  0  0  0  0  0  0  0  0  0  0
  -26.0929  -28.6791   21.9959 C   0  0  0  0  0  0  0  0  0  0  0  0
  -26.2146  -31.7323   23.0847 C   0  0  0  0  0  0  0  0  0  0  0  0
  -24.6005  -34.6981   23.5799 C   0  0  0  0  0  0  0  0  0  0  0  0
  -22.0663  -22.3183   23.6297 C   0  0  0  0  0  0  0  0  0  0  0  0
  -29.4258  -25.0407   20.6875 C   0  0  0  0  0  0  0  0  0  0  0  0
  -25.2073  -29.9569   20.0112 C   0  0  0  0  0  0  0  0  0  0  0  0
  -23.9275  -30.8212   22.5331 C   0  0  0  0  0  0  0  0  0  0  0  0
  -29.4433  -26.2567   21.6102 C   0  0  0  0  0  0  0  0  0  0  0  0
  -25.0154  -21.7128   25.5306 C   0  0  0  0  0  0  0  0  0  0  0  0
  -28.2103  -26.2632   22.5082 C   0  0  0  0  0  0  0  0  0  0  0  0
  -25.8846  -20.8715   24.5932 C   0  0  0  0  0  0  0  0  0  0  0  0
  -23.5339  -21.3658   25.3943 C   0  0  0  0  0  0  0  0  0  0  0  0
  -23.8774  -20.5745   23.0866 C   0  0  0  0  0  0  0  0  0  0  0  0
  -26.9240  -26.3554   21.6784 C   0  0  1  0  0  0  0  0  0  0  0  0
  -25.9812  -30.0186   21.3245 C   0  0  1  0  0  0  0  0  0  0  0  0
  -25.3712  -20.9338   23.1412 C   0  0  2  0  0  0  0  0  0  0  0  0
  -20.5519  -21.3193   19.8494 C   0  0  0  0  0  0  0  0  0  0  0  0
  -16.0909  -27.4753   23.7156 C   0  0  0  0  0  0  0  0  0  0  0  0
  -24.9483  -36.9962   24.5261 C   0  0  0  0  0  0  0  0  0  0  0  0
  -25.9826  -30.6018   25.9093 C   0  0  0  0  0  0  0  0  0  0  0  0
  -25.3839  -32.8991   26.7046 C   0  0  0  0  0  0  0  0  0  0  0  0
  -27.6145  -32.4816   25.6688 C   0  0  0  0  0  0  0  0  0  0  0  0
  -16.7376  -29.1573   21.1906 C   0  0  0  0  0  0  0  0  0  0  0  0
  -24.0798  -35.9803   20.9639 C   0  0  0  0  0  0  0  0  0  0  0  0
  -17.3776  -28.2589   23.4853 C   0  0  0  0  0  0  0  0  0  0  0  0
  -19.1188  -29.2685   22.0057 C   0  0  0  0  0  0  0  0  0  1  0  0
  -18.0808  -27.0519   21.3286 C   0  0  0  0  0  0  0  0  0  0  0  0
  -25.5519  -32.4944   24.2068 C   0  0  1  0  0  0  0  0  0  0  0  0
  -25.0075  -36.1291   23.2782 C   0  0  2  0  0  0  0  0  0  0  0  0
  -26.1180  -32.1065   25.6019 C   0  0  0  0  0  0  0  0  0  0  0  0
  -17.8205  -28.4192   22.0027 C   0  0  2  0  0  0  0  0  0  0  0  0
  -25.8138  -18.7958   21.9947 N   0  0  0  0  0  0  0  0  0  0  0  0
  -26.1998  -20.0643   22.2142 N   0  0  0  0  0  0  0  0  0  0  0  0
  -25.3760  -30.9334   22.2947 N   0  0  0  0  0  0  0  0  0  0  0  0
  -23.1176  -21.4501   23.9927 N   0  0  0  0  0  0  0  0  0  0  0  0
  -27.8606  -21.6572   21.6531 N   0  0  0  0  0  0  0  0  0  0  0  0
  -29.1117  -17.9876   19.3368 N   0  0  0  0  0  0  0  0  0  0  0  0
  -21.7804  -22.3385   22.2649 N   0  0  0  0  0  0  0  0  0  0  0  0
  -26.7113  -27.7133   21.2251 N   0  0  0  0  0  0  0  0  0  0  0  0
  -25.6912  -33.9088   23.8775 N   0  0  0  0  0  0  0  0  0  0  0  0
  -24.1022  -36.7197   22.2522 N   0  3  0  0  0  0  0  0  0  0  0  0
  -29.6577  -20.1626   19.8164 O   0  0  0  0  0  0  0  0  0  0  0  0
  -25.6522  -28.5330   23.1300 O   0  0  0  0  0  0  0  0  0  0  0  0
  -27.4304  -31.8474   22.9111 O   0  0  0  0  0  0  0  0  0  0  0  0
  -23.4315  -34.3193   23.5578 O   0  0  0  0  0  0  0  0  0  0  0  0
  -21.4822  -23.0145   24.4640 O   0  0  0  0  0  0  0  0  0  0  0  0
  -26.4890  -13.0729   19.2852 O   0  0  0  0  0  0  0  0  0  0  0  0
  -19.6021  -29.4813   20.6801 O   0  0  0  0  0  0  0  0  0  1  0  0
  -19.0820  -26.3250   22.0291 O   0  0  0  0  0  0  0  0  0  0  0  0
  -31.1524  -10.1307   19.2598 F   0  0  0  0  0  0  0  0  0  0  0  0
  -26.6955  -10.7295   20.7373 F   0  0  0  0  0  0  0  0  0  0  0  0
  1  2  1  0  0  0  0
  1  5  2  0  0  0  0
  2  6  2  0  0  0  0
  3  9  2  0  0  0  0
  3 18  1  0  0  0  0
  4 10  1  0  0  0  0
  4 18  2  0  0  0  0
  5 20  1  0  0  0  0
  6 22  1  0  0  0  0
  7 11  2  0  0  0  0
  7 21  1  0  0  0  0
  8 12  2  0  0  0  0
  8 24  1  0  0  0  0
  9 26  1  0  0  0  0
 10 26  2  0  0  0  0
 11 27  1  0  0  0  0
 12 28  1  0  0  0  0
 13 14  2  0  0  0  0
 13 29  1  0  0  0  0
 14 30  1  0  0  0  0
 15 23  1  0  0  0  0
 15 27  2  0  0  0  0
 16 25  1  0  0  0  0
 16 28  2  0  0  0  0
 17 30  2  0  0  0  0
 17 31  1  0  0  0  0
 18 32  1  0  0  0  0
 19 32  1  0  0  0  0
 19 33  2  0  0  0  0
 19 34  1  0  0  0  0
 20 22  2  0  0  0  0
 20 39  1  0  0  0  0
 21 23  2  0  0  0  0
 21 40  1  0  0  0  0
 22 48  1  0  0  0  0
 23 41  1  0  0  0  0
 24 25  2  0  0  0  0
 24 51  1  0  0  0  0
 25 72  1  0  0  0  0
 26 81  1  0  0  0  0
 27 82  1  0  0  0  0
 28 83  1  0  0  0  0
 29 31  2  0  0  0  0
 29 81  1  0  0  0  0
 30 84  1  0  0  0  0
 31 85  1  0  0  0  0
 32 66  2  0  0  0  0
 33 67  1  0  0  0  0
 33 70  1  0  0  0  0
 34 71  1  0  0  0  0
 34 76  2  0  0  0  0
 35 49  1  0  0  0  0
 35 73  1  0  0  0  0
 35 77  2  0  0  0  0
 36 62  1  0  0  0  0
 36 68  1  0  0  0  0
 36 78  2  0  0  0  0
 37 63  1  0  0  0  0
 37 74  1  0  0  0  0
 37 79  2  0  0  0  0
 38 69  1  0  0  0  0
 38 72  1  0  0  0  0
 38 80  2  0  0  0  0
 39 42  1  0  0  0  0
 40 49  1  0  0  0  0
 41 68  1  0  0  0  0
 42 44  1  0  0  0  0
 43 45  1  0  0  0  0
 43 46  1  0  0  0  0
 44 48  1  0  0  0  0
 45 50  1  0  0  0  0
 46 69  1  0  0  0  0
 47 50  1  0  0  0  0
 47 69  1  0  0  0  0
 48 73  1  0  0  0  0
 49 68  1  0  0  0  0
 50 67  1  0  0  0  0
 52 59  1  0  0  0  0
 53 63  1  0  0  0  0
 54 64  1  0  0  0  0
 55 64  1  0  0  0  0
 56 64  1  0  0  0  0
 57 65  1  0  0  0  0
 58 75  1  0  0  0  0
 59 65  1  0  0  0  0
 60 65  1  0  0  0  0
 60 82  1  0  0  0  0
 61 65  1  0  0  0  0
 61 83  1  0  0  0  0
 62 64  1  0  0  0  0
 62 74  1  0  0  0  0
 63 75  1  0  0  0  0
 66 67  1  0  0  0  0
M  CHG  1  75   1
M  ISO  4  38 100  60 101  72 100  82 101
M  END
> <Batch ID>
0137

> <Smiles>
CCC(C)(COc1ccc(C)c([100NH:0][100C:0](=O)N2CCCC(n3nc(-c4ccc(Oc5ccc(F)cc5F)cc4)c(C(N)=O)c3N)C2)c1)[101CH2:1][101O:1]c1ccc2c(c1)CN(C(=O)C(NC(=O)C(C)NC)C(C)(C)C)C(C(=O)NC1CCCc3ccccc31)C2

> <Shape>
0.285

> <Color>
0.061

> <Negative vol penalty>
0.000

$$$$

  -OEChem-04052302423D

 84 93  0     1  0  0  0  0  0999 V2000
  -29.9416  -25.6488   16.2576 C   0  0  0  0  0  0  0  0  0  0  0  0
  -28.7489  -25.4878   16.9554 C   0  0  0  0  0  0  0  0  0  0  0  0
  -24.1770   -9.8339   22.5178 C   0  0  0  0  0  0  0  0  0  0  0  0
  -22.3836  -11.0262   21.4226 C   0  0  0  0  0  0  0  0  0  0  0  0
  -30.9672  -26.4211   16.8014 C   0  0  0  0  0  0  0  0  0  0  0  0
  -28.5815  -26.0982   18.1979 C   0  0  0  0  0  0  0  0  0  0  0  0
  -22.9050  -21.3600   22.0495 C   0  0  0  0  0  0  0  0  0  0  0  0
  -24.0644  -28.3387   18.6688 C   0  0  0  0  0  0  0  0  0  0  0  0
  -23.8780  -20.3607   22.0627 C   0  0  0  0  0  0  0  0  0  0  0  0
  -23.2477   -8.9746   23.1040 C   0  0  0  0  0  0  0  0  0  0  0  0
  -21.4543  -10.1669   22.0088 C   0  0  0  0  0  0  0  0  0  0  0  0
  -22.9702  -27.5162   18.9335 C   0  0  0  0  0  0  0  0  0  0  0  0
  -21.4167   -6.2846   22.1853 C   0  0  0  0  0  0  0  0  0  0  0  0
  -21.6948   -4.9179   22.1652 C   0  0  0  0  0  0  0  0  0  0  0  0
  -23.0956  -28.1109   21.2680 C   0  0  0  0  0  0  0  0  0  0  0  0
  -21.6326  -20.0998   20.4278 C   0  0  0  0  0  0  0  0  0  0  0  0
  -21.6518   -4.8737   24.5805 C   0  0  0  0  0  0  0  0  0  0  0  0
  -23.7449  -10.8598   21.6771 C   0  0  0  0  0  0  0  0  0  0  0  0
  -25.3515  -11.5834   19.8324 C   0  0  0  0  0  0  0  0  0  0  0  0
  -21.7823  -21.2295   21.2321 C   0  0  0  0  0  0  0  0  0  0  0  0
  -30.8086  -27.0492   18.0468 C   0  0  0  0  0  0  0  0  0  0  0  0
  -24.6903  -29.0462   19.7053 C   0  0  0  0  0  0  0  0  0  0  0  0
  -29.6064  -26.8785   18.7594 C   0  0  0  0  0  0  0  0  0  0  0  0
  -24.1959  -28.9437   21.0134 C   0  0  0  0  0  0  0  0  0  0  0  0
  -23.7284  -19.2309   21.2584 C   0  0  0  0  0  0  0  0  0  0  0  0
  -21.8864   -9.1411   22.8495 C   0  0  0  0  0  0  0  0  0  0  0  0
  -22.4874  -27.4000   20.2337 C   0  0  0  0  0  0  0  0  0  0  0  0
  -21.2562   -6.9459   23.4030 C   0  0  0  0  0  0  0  0  0  0  0  0
  -21.8123   -4.2125   23.3628 C   0  0  0  0  0  0  0  0  0  0  0  0
  -22.6057  -19.1004   20.4409 C   0  0  0  0  0  0  0  0  0  0  0  0
  -21.3737   -6.2405   24.6005 C   0  0  0  0  0  0  0  0  0  0  0  0
  -24.7044  -11.7481   21.0717 C   0  0  0  0  0  0  0  0  0  0  0  0
  -26.1570  -12.6898   19.7160 C   0  0  0  0  0  0  0  0  0  0  0  0
  -25.2348  -10.5251   18.8722 C   0  0  0  0  0  0  0  0  0  0  0  0
  -27.6039  -29.0536   20.9757 C   0  0  0  0  0  0  0  0  0  0  0  0
  -26.4379  -31.5663   22.6637 C   0  0  0  0  0  0  0  0  0  0  0  0
  -23.7183  -33.1975   23.9245 C   0  0  0  0  0  0  0  0  0  0  0  0
  -25.8918  -18.1938   22.0269 C   0  0  0  0  0  0  0  0  0  0  0  0
  -31.9632  -27.8354   18.6155 C   0  0  0  0  0  0  0  0  0  0  0  0
  -25.8529  -29.9500   19.3990 C   0  0  0  0  0  0  0  0  0  0  0  0
  -24.8195  -29.6980   22.1582 C   0  0  0  0  0  0  0  0  0  0  0  0
  -31.5651  -28.7557   19.7666 C   0  0  0  0  0  0  0  0  0  0  0  0
  -28.5636  -15.8659   22.3720 C   0  0  0  0  0  0  0  0  0  0  0  0
  -20.1260  -22.5248   22.6135 C   0  0  0  0  0  0  0  0  0  0  0  0
  -30.6787  -28.0133   20.7615 C   0  0  0  0  0  0  0  0  0  0  0  0
  -20.5179  -23.9430   23.0157 C   0  0  0  0  0  0  0  0  0  0  0  0
  -27.9377  -14.5318   21.9591 C   0  0  0  0  0  0  0  0  0  0  0  0
  -21.3417  -23.6548   20.8008 C   0  0  0  0  0  0  0  0  0  0  0  0
  -27.5752  -16.7430   23.1386 C   0  0  0  0  0  0  0  0  0  0  0  0
  -25.6643  -15.6319   22.0508 C   0  0  0  0  0  0  0  0  0  0  0  0
  -20.7422  -22.2985   21.2170 C   0  0  1  0  0  0  0  0  0  0  0  0
  -29.3776  -27.5450   20.0987 C   0  0  1  0  0  0  0  0  0  0  0  0
  -26.7333  -30.2237   20.6144 C   0  0  1  0  0  0  0  0  0  0  0  0
  -20.6257  -24.6757   21.6828 C   0  0  2  0  0  0  0  0  0  0  0  0
  -26.6018  -14.7410   21.2195 C   0  0  2  0  0  0  0  0  0  0  0  0
  -23.0837  -35.2028   25.2933 C   0  0  0  0  0  0  0  0  0  0  0  0
  -27.3220  -30.1138   25.1971 C   0  0  0  0  0  0  0  0  0  0  0  0
  -25.8504  -31.6554   26.5109 C   0  0  0  0  0  0  0  0  0  0  0  0
  -27.7619  -32.5757   25.1988 C   0  0  0  0  0  0  0  0  0  0  0  0
  -22.1572  -34.3673   21.6989 C   0  0  0  0  0  0  0  0  0  0  0  0
  -21.3614  -25.9945   21.7870 C   0  0  0  0  0  0  0  0  0  1  0  0
  -25.7159  -31.7274   23.9796 C   0  0  1  0  0  0  0  0  0  0  0  0
  -23.3169  -34.6612   23.8915 C   0  0  2  0  0  0  0  0  0  0  0  0
  -26.6518  -31.5022   25.2006 C   0  0  0  0  0  0  0  0  0  0  0  0
  -25.0676  -12.8706   21.6979 N   0  0  0  0  0  0  0  0  0  0  0  0
  -25.9517  -13.4212   20.8487 N   0  0  0  0  0  0  0  0  0  0  0  0
  -25.9578  -30.5639   21.8090 N   0  0  0  0  0  0  0  0  0  0  0  0
  -26.3353  -16.9005   22.3753 N   0  0  0  0  0  0  0  0  0  0  0  0
  -27.0139  -13.0986   18.7562 N   0  0  0  0  0  0  0  0  0  0  0  0
  -24.3613   -9.4646   19.1495 N   0  0  0  0  0  0  0  0  0  0  0  0
  -24.7186  -18.2175   21.2734 N   0  0  0  0  0  0  0  0  0  0  0  0
  -28.4532  -28.6503   19.9631 N   0  0  0  0  0  0  0  0  0  0  0  0
  -25.0885  -33.0440   23.9424 N   0  0  0  0  0  0  0  0  0  0  0  0
  -22.0632  -34.8368   23.1052 N   0  3  0  0  0  0  0  0  0  0  0  0
  -25.8980  -10.5117   17.8075 O   0  0  0  0  0  0  0  0  0  0  0  0
  -27.5130  -28.5547   22.0913 O   0  0  0  0  0  0  0  0  0  0  0  0
  -27.3883  -32.3075   22.4007 O   0  0  0  0  0  0  0  0  0  0  0  0
  -22.8984  -32.2821   23.9372 O   0  0  0  0  0  0  0  0  0  0  0  0
  -26.5220  -19.2045   22.3483 O   0  0  0  0  0  0  0  0  0  0  0  0
  -20.9794   -8.3026   23.4212 O   0  0  0  0  0  0  0  0  0  0  0  0
  -21.4200  -26.5973   20.4949 O   0  0  0  0  0  0  0  0  0  1  0  0
  -22.0778   -2.8997   23.3433 F   0  0  0  0  0  0  0  0  0  0  0  0
  -22.4522  -18.0196   19.6627 F   0  0  0  0  0  0  0  0  0  0  0  0
  -21.2194   -6.8701   25.7734 F   0  0  0  0  0  0  0  0  0  0  0  0
  1  2  1  0  0  0  0
  1  5  2  0  0  0  0
  2  6  2  0  0  0  0
  3 10  2  0  0  0  0
  3 18  1  0  0  0  0
  4 11  1  0  0  0  0
  4 18  2  0  0  0  0
  5 21  1  0  0  0  0
  6 23  1  0  0  0  0
  7  9  2  0  0  0  0
  7 20  1  0  0  0  0
  8 12  2  0  0  0  0
  8 22  1  0  0  0  0
  9 25  1  0  0  0  0
 10 26  1  0  0  0  0
 11 26  2  0  0  0  0
 12 27  1  0  0  0  0
 13 14  2  0  0  0  0
 13 28  1  0  0  0  0
 14 29  1  0  0  0  0
 15 24  1  0  0  0  0
 15 27  2  0  0  0  0
 16 20  2  0  0  0  0
 16 30  1  0  0  0  0
 17 29  2  0  0  0  0
 17 31  1  0  0  0  0
 18 32  1  0  0  0  0
 19 32  1  0  0  0  0
 19 33  2  0  0  0  0
 19 34  1  0  0  0  0
 20 51  1  0  0  0  0
 21 23  2  0  0  0  0
 21 39  1  0  0  0  0
 22 24  2  0  0  0  0
 22 40  1  0  0  0  0
 23 52  1  0  0  0  0
 24 41  1  0  0  0  0
 25 30  2  0  0  0  0
 25 71  1  0  0  0  0
 26 80  1  0  0  0  0
 27 81  1  0  0  0  0
 28 31  2  0  0  0  0
 28 80  1  0  0  0  0
 29 82  1  0  0  0  0
 30 83  1  0  0  0  0
 31 84  1  0  0  0  0
 32 65  2  0  0  0  0
 33 66  1  0  0  0  0
 33 69  1  0  0  0  0
 34 70  1  0  0  0  0
 34 75  2  0  0  0  0
 35 53  1  0  0  0  0
 35 72  1  0  0  0  0
 35 76  2  0  0  0  0
 36 62  1  0  0  0  0
 36 67  1  0  0  0  0
 36 77  2  0  0  0  0
 37 63  1  0  0  0  0
 37 73  1  0  0  0  0
 37 78  2  0  0  0  0
 38 68  1  0  0  0  0
 38 71  1  0  0  0  0
 38 79  2  0  0  0  0
 39 42  1  0  0  0  0
 40 53  1  0  0  0  0
 41 67  1  0  0  0  0
 42 45  1  0  0  0  0
 43 47  1  0  0  0  0
 43 49  1  0  0  0  0
 44 46  1  0  0  0  0
 44 51  1  0  0  0  0
 45 52  1  0  0  0  0
 46 54  1  0  0  0  0
 47 55  1  0  0  0  0
 48 51  1  0  0  0  0
 48 54  1  0  0  0  0
 49 68  1  0  0  0  0
 50 55  1  0  0  0  0
 50 68  1  0  0  0  0
 52 72  1  0  0  0  0
 53 67  1  0  0  0  0
 54 61  1  0  0  0  0
 55 66  1  0  0  0  0
 56 63  1  0  0  0  0
 57 64  1  0  0  0  0
 58 64  1  0  0  0  0
 59 64  1  0  0  0  0
 60 74  1  0  0  0  0
 61 81  1  0  0  0  0
 62 64  1  0  0  0  0
 62 73  1  0  0  0  0
 63 74  1  0  0  0  0
 65 66  1  0  0  0  0
M  CHG  1  74   1
M  ISO  4  38 100  61 101  71 100  81 101
M  END
> <Batch ID>
0137

> <Smiles>
CNC(C)C(=O)NC(C(=O)N1Cc2cc([101O:1][101CH2:1]C3CCC(c4ccc([100NH:0][100C:0](=O)N5CCCC(n6nc(-c7ccc(Oc8ccc(F)cc8F)cc7)c(C(N)=O)c6N)C5)c(F)c4)C3)ccc2CC1C(=O)NC1CCCc2ccccc21)C(C)(C)C

> <Shape>
0.264

> <Color>
0.088

> <Negative vol penalty>
0.000

$$$$

  -OEChem-04052302423D

 84 92  0     1  0  0  0  0  0999 V2000
  -31.3683  -20.8563   18.2118 C   0  0  0  0  0  0  0  0  0  0  0  0
  -31.0149  -21.2962   19.4834 C   0  0  0  0  0  0  0  0  0  0  0  0
  -23.5479   -9.4634   20.0906 C   0  0  0  0  0  0  0  0  0  0  0  0
  -24.0297   -9.8621   22.4242 C   0  0  0  0  0  0  0  0  0  0  0  0
  -28.9146  -19.5233   23.7265 C   0  0  0  0  0  0  0  0  0  0  0  0
  -31.2623  -19.0190   23.4596 C   0  0  0  0  0  0  0  0  0  0  0  0
  -31.4430  -21.7648   17.1568 C   0  0  0  0  0  0  0  0  0  0  0  0
  -30.7370  -22.6453   19.7010 C   0  0  0  0  0  0  0  0  0  0  0  0
  -26.5867  -23.3441   22.5173 C   0  0  0  0  0  0  0  0  0  0  0  0
  -28.5900  -18.4528   22.8932 C   0  0  0  0  0  0  0  0  0  0  0  0
  -30.9377  -17.9486   22.6264 C   0  0  0  0  0  0  0  0  0  0  0  0
  -22.9817   -8.2314   20.4179 C   0  0  0  0  0  0  0  0  0  0  0  0
  -23.4634   -8.6301   22.7516 C   0  0  0  0  0  0  0  0  0  0  0  0
  -26.7115  -23.1553   23.8930 C   0  0  0  0  0  0  0  0  0  0  0  0
  -20.0601   -7.0894   21.6800 C   0  0  0  0  0  0  0  0  0  0  0  0
  -18.8428   -6.7570   21.0856 C   0  0  0  0  0  0  0  0  0  0  0  0
  -26.8721  -25.5426   24.1999 C   0  0  0  0  0  0  0  0  0  0  0  0
  -19.8636   -4.8094   20.0846 C   0  0  0  0  0  0  0  0  0  0  0  0
  -24.0720  -10.2787   21.0937 C   0  0  0  0  0  0  0  0  0  0  0  0
  -30.2508  -19.8064   24.0097 C   0  0  0  0  0  0  0  0  0  0  0  0
  -24.0024  -12.7949   20.6791 C   0  0  0  0  0  0  0  0  0  0  0  0
  -31.1565  -23.1241   17.3596 C   0  0  0  0  0  0  0  0  0  0  0  0
  -26.6146  -24.6351   21.9705 C   0  0  0  0  0  0  0  0  0  0  0  0
  -30.8092  -23.5730   18.6480 C   0  0  0  0  0  0  0  0  0  0  0  0
  -26.7449  -25.7452   22.8172 C   0  0  0  0  0  0  0  0  0  0  0  0
  -29.6015  -17.6655   22.3432 C   0  0  0  0  0  0  0  0  0  0  0  0
  -22.9394   -7.8148   21.7485 C   0  0  0  0  0  0  0  0  0  0  0  0
  -26.8572  -24.2545   24.7342 C   0  0  0  0  0  0  0  0  0  0  0  0
  -21.1791   -6.2819   21.4768 C   0  0  0  0  0  0  0  0  0  0  0  0
  -18.7446   -5.6170   20.2879 C   0  0  0  0  0  0  0  0  0  0  0  0
  -21.0808   -5.1418   20.6791 C   0  0  0  0  0  0  0  0  0  0  0  0
  -24.6576  -11.5512   20.7561 C   0  0  0  0  0  0  0  0  0  0  0  0
  -24.9896  -13.6816   20.3247 C   0  0  0  0  0  0  0  0  0  0  0  0
  -30.5977  -20.9501   24.8997 C   0  0  0  0  0  0  0  0  0  0  0  0
  -22.6247  -13.1195   20.9076 C   0  0  0  0  0  0  0  0  0  0  0  0
  -28.5115  -26.1668   19.9311 C   0  0  0  0  0  0  0  0  0  0  0  0
  -26.2722  -28.4977   20.2040 C   0  0  0  0  0  0  0  0  0  0  0  0
  -23.7853  -29.9236   22.0557 C   0  0  0  0  0  0  0  0  0  0  0  0
  -30.1512  -15.6977   20.8694 C   0  0  0  0  0  0  0  0  0  0  0  0
  -31.2967  -24.0765   16.1986 C   0  0  0  0  0  0  0  0  0  0  0  0
  -26.4519  -24.8234   20.4871 C   0  0  0  0  0  0  0  0  0  0  0  0
  -26.7605  -27.1530   22.2822 C   0  0  0  0  0  0  0  0  0  0  0  0
  -30.6222  -25.4258   16.4328 C   0  0  0  0  0  0  0  0  0  0  0  0
  -29.7292  -12.8745   18.7414 C   0  0  0  0  0  0  0  0  0  0  0  0
  -30.9743  -25.9657   17.8153 C   0  0  0  0  0  0  0  0  0  0  0  0
  -28.3182  -12.3808   19.0695 C   0  0  0  0  0  0  0  0  0  0  0  0
  -30.4507  -13.3956   19.9829 C   0  0  0  0  0  0  0  0  0  0  0  0
  -28.3053  -13.9184   21.0752 C   0  0  0  0  0  0  0  0  0  0  0  0
  -30.4763  -25.0243   18.9186 C   0  0  1  0  0  0  0  0  0  0  0  0
  -27.0101  -26.1528   19.9888 C   0  0  1  0  0  0  0  0  0  0  0  0
  -27.5153  -13.4439   19.8445 C   0  0  2  0  0  0  0  0  0  0  0  0
  -22.1653  -31.8400   22.0349 C   0  0  0  0  0  0  0  0  0  0  0  0
  -28.5361  -30.4160   20.9144 C   0  0  0  0  0  0  0  0  0  0  0  0
  -26.8164  -32.0106   21.7908 C   0  0  0  0  0  0  0  0  0  0  0  0
  -26.8051  -31.3676   19.3806 C   0  0  0  0  0  0  0  0  0  0  0  0
  -26.4858  -21.8223   26.6878 C   0  0  0  0  0  0  0  0  0  0  0  0
  -28.2613  -23.1353   27.8672 C   0  0  0  0  0  0  0  0  0  0  0  0
  -21.4525  -28.1039   22.1318 C   0  0  0  0  0  0  0  0  0  0  0  0
  -29.6451  -21.3789   26.0056 C   0  0  0  0  0  0  0  0  0  0  0  0
  -28.6537  -22.4244   25.4846 C   0  0  0  0  0  0  0  0  0  0  0  0
  -26.0687  -29.6832   21.1162 C   0  0  1  0  0  0  0  0  0  0  0  0
  -22.3853  -30.3770   21.6828 C   0  0  2  0  0  0  0  0  0  0  0  0
  -27.0583  -30.8428   20.8107 C   0  0  0  0  0  0  0  0  0  0  0  0
  -27.5940  -22.8618   26.5156 C   0  0  0  0  0  0  0  0  0  1  0  0
  -25.9602  -11.6362   20.4732 N   0  0  0  0  0  0  0  0  0  0  0  0
  -31.7128  -21.5900   24.7359 N   0  0  0  0  0  0  0  0  0  0  0  0
  -26.1315  -12.9439   20.2149 N   0  0  0  0  0  0  0  0  0  0  0  0
  -26.6044  -27.2849   20.8242 N   0  0  0  0  0  0  0  0  0  0  0  0
  -29.6325  -14.4019   20.6632 N   0  0  0  0  0  0  0  0  0  0  0  0
  -24.9836  -15.0126   20.0992 N   0  0  0  0  0  0  0  0  0  0  0  0
  -21.7456  -12.0880   21.2646 N   0  0  0  0  0  0  0  0  0  0  0  0
  -29.2706  -16.5782   21.4970 N   0  0  0  0  0  0  0  0  0  0  0  0
  -29.0524  -25.1886   19.1186 N   0  0  0  0  0  0  0  0  0  0  0  0
  -24.6620  -30.0516   20.9991 N   0  0  0  0  0  0  0  0  0  0  0  0
  -21.3675  -29.5618   22.4043 N   0  3  0  0  0  0  0  0  0  0  0  0
  -22.1830  -14.2869   20.7824 O   0  0  0  0  0  0  0  0  0  0  0  0
  -29.1331  -27.0040   20.5748 O   0  0  0  0  0  0  0  0  0  0  0  0
  -26.1343  -28.6408   18.9865 O   0  0  0  0  0  0  0  0  0  0  0  0
  -24.0732  -29.5018   23.1736 O   0  0  0  0  0  0  0  0  0  0  0  0
  -31.2826  -16.0116   20.4908 O   0  0  0  0  0  0  0  0  0  0  0  0
  -22.3867   -6.6128   22.0683 O   0  0  0  0  0  0  0  0  0  0  0  0
  -26.9798  -24.0730   26.0773 O   0  0  0  0  0  0  0  0  0  1  0  0
  -17.5752   -5.2970   19.7183 F   0  0  0  0  0  0  0  0  0  0  0  0
  -22.1521   -4.3615   20.4811 F   0  0  0  0  0  0  0  0  0  0  0  0
  1  2  1  0  0  0  0
  1  7  2  0  0  0  0
  2  8  2  0  0  0  0
  3 12  2  0  0  0  0
  3 19  1  0  0  0  0
  4 13  1  0  0  0  0
  4 19  2  0  0  0  0
  5 10  2  0  0  0  0
  5 20  1  0  0  0  0
  6 11  1  0  0  0  0
  6 20  2  0  0  0  0
  7 22  1  0  0  0  0
  8 24  1  0  0  0  0
  9 14  2  0  0  0  0
  9 23  1  0  0  0  0
 10 26  1  0  0  0  0
 11 26  2  0  0  0  0
 12 27  1  0  0  0  0
 13 27  2  0  0  0  0
 14 28  1  0  0  0  0
 15 16  2  0  0  0  0
 15 29  1  0  0  0  0
 16 30  1  0  0  0  0
 17 25  1  0  0  0  0
 17 28  2  0  0  0  0
 18 30  2  0  0  0  0
 18 31  1  0  0  0  0
 19 32  1  0  0  0  0
 20 34  1  0  0  0  0
 21 32  1  0  0  0  0
 21 33  2  0  0  0  0
 21 35  1  0  0  0  0
 22 24  2  0  0  0  0
 22 40  1  0  0  0  0
 23 25  2  0  0  0  0
 23 41  1  0  0  0  0
 24 49  1  0  0  0  0
 25 42  1  0  0  0  0
 26 72  1  0  0  0  0
 27 81  1  0  0  0  0
 28 82  1  0  0  0  0
 29 31  2  0  0  0  0
 29 81  1  0  0  0  0
 30 83  1  0  0  0  0
 31 84  1  0  0  0  0
 32 65  2  0  0  0  0
 33 67  1  0  0  0  0
 33 70  1  0  0  0  0
 34 59  1  0  0  0  0
 34 66  2  0  0  0  0
 35 71  1  0  0  0  0
 35 76  2  0  0  0  0
 36 50  1  0  0  0  0
 36 73  1  0  0  0  0
 36 77  2  0  0  0  0
 37 61  1  0  0  0  0
 37 68  1  0  0  0  0
 37 78  2  0  0  0  0
 38 62  1  0  0  0  0
 38 74  1  0  0  0  0
 38 79  2  0  0  0  0
 39 69  1  0  0  0  0
 39 72  1  0  0  0  0
 39 80  2  0  0  0  0
 40 43  1  0  0  0  0
 41 50  1  0  0  0  0
 42 68  1  0  0  0  0
 43 45  1  0  0  0  0
 44 46  1  0  0  0  0
 44 47  1  0  0  0  0
 45 49  1  0  0  0  0
 46 51  1  0  0  0  0
 47 69  1  0  0  0  0
 48 51  1  0  0  0  0
 48 69  1  0  0  0  0
 49 73  1  0  0  0  0
 50 68  1  0  0  0  0
 51 67  1  0  0  0  0
 52 62  1  0  0  0  0
 53 63  1  0  0  0  0
 54 63  1  0  0  0  0
 55 63  1  0  0  0  0
 56 64  1  0  0  0  0
 57 64  1  0  0  0  0
 58 75  1  0  0  0  0
 59 60  1  0  0  0  0
 60 64  1  0  0  0  0
 61 63  1  0  0  0  0
 61 74  1  0  0  0  0
 62 75  1  0  0  0  0
 64 82  1  0  0  0  0
 65 67  1  0  0  0  0
M  CHG  1  75   1
M  ISO  4  39 100  64 101  72 100  82 101
M  END
> <Batch ID>
0137

> <Smiles>
CNC(C)C(=O)NC(C(=O)N1Cc2cc([101O:1][101C:1](C)(C)CCC(=N)c3ccc([100NH:0][100C:0](=O)N4CCCC(n5nc(-c6ccc(Oc7ccc(F)cc7F)cc6)c(C(N)=O)c5N)C4)cc3)ccc2CC1C(=O)NC1CCCc2ccccc21)C(C)(C)C

> <Shape>
0.287

> <Color>
0.170

> <Negative vol penalty>
0.000

$$$$

  -OEChem-04052302423D

 86 94  0     1  0  0  0  0  0999 V2000
  -34.2790  -31.2564   20.9961 C   0  0  0  0  0  0  0  0  0  0  0  0
  -34.4403  -30.2215   21.9117 C   0  0  0  0  0  0  0  0  0  0  0  0
  -23.2026   -9.8392   20.0206 C   0  0  0  0  0  0  0  0  0  0  0  0
  -23.9122   -9.9944   22.3248 C   0  0  0  0  0  0  0  0  0  0  0  0
  -33.0734  -31.3971   20.3101 C   0  0  0  0  0  0  0  0  0  0  0  0
  -33.3956  -29.3273   22.1428 C   0  0  0  0  0  0  0  0  0  0  0  0
  -33.8739  -23.3549   23.4103 C   0  0  0  0  0  0  0  0  0  0  0  0
  -22.5020   -8.6696   20.3150 C   0  0  0  0  0  0  0  0  0  0  0  0
  -23.2115   -8.8247   22.6193 C   0  0  0  0  0  0  0  0  0  0  0  0
  -33.8305  -22.6439   24.6088 C   0  0  0  0  0  0  0  0  0  0  0  0
  -21.3137   -6.0767   24.0562 C   0  0  0  0  0  0  0  0  0  0  0  0
  -20.5349   -6.0602   25.2132 C   0  0  0  0  0  0  0  0  0  0  0  0
  -31.4877  -22.1945   24.2503 C   0  0  0  0  0  0  0  0  0  0  0  0
  -31.2897  -16.8053   24.9684 C   0  0  0  0  0  0  0  0  0  0  0  0
  -33.1872  -16.7373   23.4745 C   0  0  0  0  0  0  0  0  0  0  0  0
  -19.2270   -7.9034   24.3592 C   0  0  0  0  0  0  0  0  0  0  0  0
  -23.9077  -10.5016   21.0255 C   0  0  0  0  0  0  0  0  0  0  0  0
  -24.1470  -13.0297   20.7825 C   0  0  0  0  0  0  0  0  0  0  0  0
  -32.0167  -30.4984   20.5257 C   0  0  0  0  0  0  0  0  0  0  0  0
  -32.7200  -23.5004   22.6268 C   0  0  0  0  0  0  0  0  0  0  0  0
  -32.1742  -29.4569   21.4600 C   0  0  0  0  0  0  0  0  0  0  0  0
  -31.5197  -22.9055   23.0410 C   0  0  0  0  0  0  0  0  0  0  0  0
  -30.5931  -15.9419   24.1230 C   0  0  0  0  0  0  0  0  0  0  0  0
  -31.1936  -15.4760   22.9533 C   0  0  0  0  0  0  0  0  0  0  0  0
  -22.5065   -8.1624   21.6144 C   0  0  0  0  0  0  0  0  0  0  0  0
  -32.6366  -22.0660   25.0304 C   0  0  0  0  0  0  0  0  0  0  0  0
  -21.0492   -7.0066   23.0506 C   0  0  0  0  0  0  0  0  0  0  0  0
  -32.5868  -17.2031   24.6441 C   0  0  0  0  0  0  0  0  0  0  0  0
  -19.4916   -6.9735   25.3648 C   0  0  0  0  0  0  0  0  0  0  0  0
  -32.4907  -15.8737   22.6291 C   0  0  0  0  0  0  0  0  0  0  0  0
  -20.0058   -7.9199   23.2022 C   0  0  0  0  0  0  0  0  0  0  0  0
  -24.6321  -11.7096   20.7218 C   0  0  0  0  0  0  0  0  0  0  0  0
  -25.2147  -13.8057   20.4024 C   0  0  0  0  0  0  0  0  0  0  0  0
  -22.8475  -13.5116   21.1498 C   0  0  0  0  0  0  0  0  0  0  0  0
  -30.9738  -25.9671   21.6421 C   0  0  0  0  0  0  0  0  0  0  0  0
  -29.4139  -23.6850   19.9448 C   0  0  0  0  0  0  0  0  0  0  0  0
  -28.5721  -20.3952   19.6048 C   0  0  0  0  0  0  0  0  0  0  0  0
  -30.9648  -14.0532   20.8871 C   0  0  0  0  0  0  0  0  0  0  0  0
  -30.7157  -30.7191   19.7955 C   0  0  0  0  0  0  0  0  0  0  0  0
  -32.7898  -24.2477   21.3233 C   0  0  0  0  0  0  0  0  0  0  0  0
  -30.2577  -23.0155   22.2263 C   0  0  0  0  0  0  0  0  0  0  0  0
  -29.7892  -29.5061   19.8217 C   0  0  0  0  0  0  0  0  0  0  0  0
  -29.3902  -12.9910   17.8755 C   0  0  0  0  0  0  0  0  0  0  0  0
  -29.7006  -28.9324   21.2323 C   0  0  0  0  0  0  0  0  0  0  0  0
  -27.9549  -12.6810   18.3067 C   0  0  0  0  0  0  0  0  0  0  0  0
  -30.4024  -12.6005   18.9510 C   0  0  0  0  0  0  0  0  0  0  0  0
  -28.7009  -12.8446   20.7158 C   0  0  0  0  0  0  0  0  0  0  0  0
  -31.0729  -28.4521   21.7197 C   0  0  1  0  0  0  0  0  0  0  0  0
  -31.4329  -24.7691   20.8602 C   0  0  1  0  0  0  0  0  0  0  0  0
  -27.6405  -13.2804   19.6914 C   0  0  2  0  0  0  0  0  0  0  0  0
  -28.1468  -16.2773   23.6877 C   0  0  0  0  0  0  0  0  0  0  0  0
  -27.2556  -18.8400   18.1401 C   0  0  0  0  0  0  0  0  0  0  0  0
  -26.8243  -24.6979   21.2009 C   0  0  0  0  0  0  0  0  0  0  0  0
  -25.7218  -22.5706   20.4749 C   0  0  0  0  0  0  0  0  0  0  0  0
  -26.6542  -24.1350   18.7702 C   0  0  0  0  0  0  0  0  0  0  0  0
  -34.7786  -18.7726   27.8838 C   0  0  0  0  0  0  0  0  0  0  0  0
  -32.6966  -19.8726   28.7304 C   0  0  0  0  0  0  0  0  0  0  0  0
  -30.9843  -18.8335   18.8968 C   0  0  0  0  0  0  0  0  0  0  0  0
  -29.2050  -15.5327   24.4955 C   0  0  0  0  0  0  0  0  0  0  0  0
  -33.7875  -20.7105   26.6096 C   0  0  0  0  0  0  0  0  0  1  0  0
  -32.5948  -18.4839   26.6479 C   0  0  0  0  0  0  0  0  0  0  0  0
  -28.2346  -22.7788   20.2038 C   0  0  1  0  0  0  0  0  0  0  0  0
  -28.6170  -19.4625   18.4079 C   0  0  2  0  0  0  0  0  0  0  0  0
  -26.8819  -23.5450   20.1790 C   0  0  0  0  0  0  0  0  0  0  0  0
  -33.4673  -19.4627   27.4623 C   0  0  0  0  0  0  0  0  0  0  0  0
  -25.9085  -11.6466   20.3335 N   0  0  0  0  0  0  0  0  0  0  0  0
  -26.2345  -12.9369   20.1467 N   0  0  0  0  0  0  0  0  0  0  0  0
  -30.3753  -23.7615   20.9625 N   0  0  0  0  0  0  0  0  0  0  0  0
  -30.0427  -13.2081   20.2341 N   0  0  0  0  0  0  0  0  0  0  0  0
  -25.3712  -15.1395   20.2651 N   0  0  0  0  0  0  0  0  0  0  0  0
  -21.8672  -12.5784   21.5137 N   0  0  0  0  0  0  0  0  0  0  0  0
  -30.4999  -14.5989   22.0832 N   0  0  0  0  0  0  0  0  0  0  0  0
  -31.4019  -27.1747   21.1244 N   0  0  0  0  0  0  0  0  0  0  0  0
  -28.3276  -21.6987   19.2275 N   0  0  0  0  0  0  0  0  0  0  0  0
  -29.5976  -18.3651   18.6430 N   0  3  0  0  0  0  0  0  0  0  0  0
  -22.5592  -14.7323   21.1392 O   0  0  0  0  0  0  0  0  0  0  0  0
  -30.2811  -25.8079   22.6404 O   0  0  0  0  0  0  0  0  0  0  0  0
  -29.4833  -24.2967   18.8758 O   0  0  0  0  0  0  0  0  0  0  0  0
  -28.7338  -20.0058   20.7592 O   0  0  0  0  0  0  0  0  0  0  0  0
  -32.0742  -14.2979   20.4060 O   0  0  0  0  0  0  0  0  0  0  0  0
  -21.8227   -7.0212   21.9021 O   0  0  0  0  0  0  0  0  0  0  0  0
  -32.5913  -21.3722   26.2002 O   0  0  0  0  0  0  0  0  0  1  0  0
  -33.2714  -18.0513   25.4745 O   0  0  0  0  0  0  0  0  0  0  0  0
  -18.7428   -6.9566   26.4753 F   0  0  0  0  0  0  0  0  0  0  0  0
  -33.0787  -15.4329   21.5076 F   0  0  0  0  0  0  0  0  0  0  0  0
  -19.7462   -8.8148   22.2391 F   0  0  0  0  0  0  0  0  0  0  0  0
  1  2  1  0  0  0  0
  1  5  2  0  0  0  0
  2  6  2  0  0  0  0
  3  8  2  0  0  0  0
  3 17  1  0  0  0  0
  4  9  1  0  0  0  0
  4 17  2  0  0  0  0
  5 19  1  0  0  0  0
  6 21  1  0  0  0  0
  7 10  2  0  0  0  0
  7 20  1  0  0  0  0
  8 25  1  0  0  0  0
  9 25  2  0  0  0  0
 10 26  1  0  0  0  0
 11 12  2  0  0  0  0
 11 27  1  0  0  0  0
 12 29  1  0  0  0  0
 13 22  1  0  0  0  0
 13 26  2  0  0  0  0
 14 23  1  0  0  0  0
 14 28  2  0  0  0  0
 15 28  1  0  0  0  0
 15 30  2  0  0  0  0
 16 29  2  0  0  0  0
 16 31  1  0  0  0  0
 17 32  1  0  0  0  0
 18 32  1  0  0  0  0
 18 33  2  0  0  0  0
 18 34  1  0  0  0  0
 19 21  2  0  0  0  0
 19 39  1  0  0  0  0
 20 22  2  0  0  0  0
 20 40  1  0  0  0  0
 21 48  1  0  0  0  0
 22 41  1  0  0  0  0
 23 24  2  0  0  0  0
 23 59  1  0  0  0  0
 24 30  1  0  0  0  0
 24 72  1  0  0  0  0
 25 81  1  0  0  0  0
 26 82  1  0  0  0  0
 27 31  2  0  0  0  0
 27 81  1  0  0  0  0
 28 83  1  0  0  0  0
 29 84  1  0  0  0  0
 30 85  1  0  0  0  0
 31 86  1  0  0  0  0
 32 66  2  0  0  0  0
 33 67  1  0  0  0  0
 33 70  1  0  0  0  0
 34 71  1  0  0  0  0
 34 76  2  0  0  0  0
 35 49  1  0  0  0  0
 35 73  1  0  0  0  0
 35 77  2  0  0  0  0
 36 62  1  0  0  0  0
 36 68  1  0  0  0  0
 36 78  2  0  0  0  0
 37 63  1  0  0  0  0
 37 74  1  0  0  0  0
 37 79  2  0  0  0  0
 38 69  1  0  0  0  0
 38 72  1  0  0  0  0
 38 80  2  0  0  0  0
 39 42  1  0  0  0  0
 40 49  1  0  0  0  0
 41 68  1  0  0  0  0
 42 44  1  0  0  0  0
 43 45  1  0  0  0  0
 43 46  1  0  0  0  0
 44 48  1  0  0  0  0
 45 50  1  0  0  0  0
 46 69  1  0  0  0  0
 47 50  1  0  0  0  0
 47 69  1  0  0  0  0
 48 73  1  0  0  0  0
 49 68  1  0  0  0  0
 50 67  1  0  0  0  0
 51 59  1  0  0  0  0
 52 63  1  0  0  0  0
 53 64  1  0  0  0  0
 54 64  1  0  0  0  0
 55 64  1  0  0  0  0
 56 65  1  0  0  0  0
 57 65  1  0  0  0  0
 58 75  1  0  0  0  0
 60 65  1  0  0  0  0
 60 82  1  0  0  0  0
 61 65  1  0  0  0  0
 61 83  1  0  0  0  0
 62 64  1  0  0  0  0
 62 74  1  0  0  0  0
 63 75  1  0  0  0  0
 66 67  1  0  0  0  0
M  CHG  1  75   1
M  ISO  4  38 100  60 101  72 100  82 101
M  END
> <Batch ID>
0137

> <Smiles>
CCc1cc(OCC(C)(C)[101CH2:1][101O:1]c2ccc3c(c2)CN(C(=O)C(NC(=O)C(C)NC)C(C)(C)C)C(C(=O)NC2CCCc4ccccc42)C3)cc(F)c1[100NH:0][100C:0](=O)N1CCCC(n2nc(-c3ccc(Oc4ccc(F)cc4F)cc3)c(C(N)=O)c2N)C1

> <Shape>
0.234

> <Color>
0.191

> <Negative vol penalty>
0.000

$$$$

  -OEChem-04052302423D

 84 92  0     1  0  0  0  0  0999 V2000
  -31.8100  -26.0555   19.1919 C   0  0  0  0  0  0  0  0  0  0  0  0
  -30.5484  -25.9956   18.6087 C   0  0  0  0  0  0  0  0  0  0  0  0
  -26.6903  -14.7506   21.4266 C   0  0  0  0  0  0  0  0  0  0  0  0
  -24.4789  -14.8634   20.4601 C   0  0  0  0  0  0  0  0  0  0  0  0
  -31.9379  -26.3784   20.5422 C   0  0  0  0  0  0  0  0  0  0  0  0
  -29.4137  -26.2574   19.3758 C   0  0  0  0  0  0  0  0  0  0  0  0
  -22.8503  -29.0794   18.8528 C   0  0  0  0  0  0  0  0  0  0  0  0
  -26.3334  -13.5866   22.1074 C   0  0  0  0  0  0  0  0  0  0  0  0
  -24.1220  -13.6993   21.1409 C   0  0  0  0  0  0  0  0  0  0  0  0
  -21.5199  -28.7712   19.1334 C   0  0  0  0  0  0  0  0  0  0  0  0
  -24.5905  -10.3705   20.7948 C   0  0  0  0  0  0  0  0  0  0  0  0
  -23.8978   -9.3915   20.0825 C   0  0  0  0  0  0  0  0  0  0  0  0
  -21.8672  -29.3963   21.4372 C   0  0  0  0  0  0  0  0  0  0  0  0
  -20.6959  -21.9684   19.2869 C   0  0  0  0  0  0  0  0  0  0  0  0
  -18.9917  -23.4775   20.0961 C   0  0  0  0  0  0  0  0  0  0  0  0
  -21.2923  -23.7815   20.7681 C   0  0  0  0  0  0  0  0  0  0  0  0
  -22.0484   -9.5770   21.6261 C   0  0  0  0  0  0  0  0  0  0  0  0
  -25.7630  -15.3890   20.6030 C   0  0  0  0  0  0  0  0  0  0  0  0
  -26.6972  -16.6856   18.6146 C   0  0  0  0  0  0  0  0  0  0  0  0
  -30.8049  -26.6538   21.3239 C   0  0  0  0  0  0  0  0  0  0  0  0
  -23.7035  -29.5388   19.8664 C   0  0  0  0  0  0  0  0  0  0  0  0
  -29.5265  -26.5830   20.7382 C   0  0  0  0  0  0  0  0  0  0  0  0
  -23.2074  -29.7121   21.1663 C   0  0  0  0  0  0  0  0  0  0  0  0
  -19.3610  -22.3700   19.3327 C   0  0  0  0  0  0  0  0  0  0  0  0
  -21.6616  -22.6741   20.0047 C   0  0  0  0  0  0  0  0  0  0  0  0
  -25.0493  -13.0610   21.9645 C   0  0  0  0  0  0  0  0  0  0  0  0
  -21.0289  -28.9268   20.4263 C   0  0  0  0  0  0  0  0  0  0  0  0
  -24.0122  -10.9527   21.9228 C   0  0  0  0  0  0  0  0  0  0  0  0
  -19.9573  -24.1832   20.8138 C   0  0  0  0  0  0  0  0  0  0  0  0
  -22.6267   -8.9948   20.4982 C   0  0  0  0  0  0  0  0  0  0  0  0
  -22.7411  -10.5560   22.3384 C   0  0  0  0  0  0  0  0  0  0  0  0
  -26.1308  -16.5917   19.9000 C   0  0  0  0  0  0  0  0  0  0  0  0
  -26.8558  -18.0339   18.4068 C   0  0  0  0  0  0  0  0  0  0  0  0
  -27.0484  -15.6467   17.6909 C   0  0  0  0  0  0  0  0  0  0  0  0
  -26.3816  -28.4667   21.2012 C   0  0  0  0  0  0  0  0  0  0  0  0
  -26.3013  -31.3247   22.7334 C   0  0  0  0  0  0  0  0  0  0  0  0
  -24.4459  -33.9633   23.8479 C   0  0  0  0  0  0  0  0  0  0  0  0
  -24.0999  -22.8558   20.6113 C   0  0  0  0  0  0  0  0  0  0  0  0
  -30.9900  -26.9521   22.7907 C   0  0  0  0  0  0  0  0  0  0  0  0
  -25.1290  -29.8924   19.5416 C   0  0  0  0  0  0  0  0  0  0  0  0
  -24.0770  -30.2213   22.2857 C   0  0  0  0  0  0  0  0  0  0  0  0
  -29.7627  -27.5826   23.4437 C   0  0  0  0  0  0  0  0  0  0  0  0
  -27.5813  -22.1289   20.7816 C   0  0  0  0  0  0  0  0  0  0  0  0
  -28.4990  -26.8260   23.0470 C   0  0  0  0  0  0  0  0  0  0  0  0
  -27.6565  -20.6363   20.4519 C   0  0  0  0  0  0  0  0  0  0  0  0
  -26.3419  -22.4651   21.6091 C   0  0  0  0  0  0  0  0  0  0  0  0
  -25.1457  -20.5081   20.7101 C   0  0  0  0  0  0  0  0  0  0  0  0
  -28.2736  -26.8848   21.5314 C   0  0  1  0  0  0  0  0  0  0  0  0
  -26.0445  -29.8634   20.7615 C   0  0  1  0  0  0  0  0  0  0  0  0
  -26.3433  -20.1313   19.8226 C   0  0  2  0  0  0  0  0  0  0  0  0
  -18.3284  -21.6155   18.5656 C   0  0  0  0  0  0  0  0  0  0  0  0
  -24.6536  -36.1287   25.0992 C   0  0  0  0  0  0  0  0  0  0  0  0
  -26.5367  -29.7837   25.3563 C   0  0  0  0  0  0  0  0  0  0  0  0
  -25.7923  -31.8508   26.5568 C   0  0  0  0  0  0  0  0  0  0  0  0
  -27.9134  -31.8685   25.2441 C   0  0  0  0  0  0  0  0  0  0  0  0
  -17.9218  -26.7551   23.4605 C   0  0  0  0  0  0  0  0  0  0  0  0
  -16.9712  -27.9844   21.4992 C   0  0  0  0  0  0  0  0  0  0  0  0
  -23.4765  -35.5290   21.5311 C   0  0  0  0  0  0  0  0  0  0  0  0
  -19.4374  -28.1677   22.0222 C   0  0  0  0  0  0  0  0  0  1  0  0
  -18.4741  -26.0187   21.1084 C   0  0  0  0  0  0  0  0  0  0  0  0
  -25.7001  -31.8300   24.0227 C   0  0  1  0  0  0  0  0  0  0  0  0
  -24.6554  -35.4624   23.7321 C   0  0  2  0  0  0  0  0  0  0  0  0
  -26.4695  -31.3218   25.2745 C   0  0  0  0  0  0  0  0  0  0  0  0
  -18.2078  -27.2325   22.0239 C   0  0  0  0  0  0  0  0  0  0  0  0
  -25.9425  -17.7854   20.4688 N   0  0  0  0  0  0  0  0  0  0  0  0
  -26.3932  -18.6421   19.5366 N   0  0  0  0  0  0  0  0  0  0  0  0
  -25.4652  -30.5474   21.9194 N   0  0  0  0  0  0  0  0  0  0  0  0
  -25.1360  -21.9598   20.9494 N   0  0  0  0  0  0  0  0  0  0  0  0
  -27.3446  -18.7469   17.3699 N   0  0  0  0  0  0  0  0  0  0  0  0
  -26.8184  -14.3154   18.0636 N   0  0  0  0  0  0  0  0  0  0  0  0
  -23.0178  -22.2662   19.9586 N   0  0  0  0  0  0  0  0  0  0  0  0
  -27.7306  -28.1711   21.1507 N   0  0  0  0  0  0  0  0  0  0  0  0
  -25.6440  -33.2831   23.9049 N   0  0  0  0  0  0  0  0  0  0  0  0
  -23.5740  -36.0745   22.9095 N   0  3  0  0  0  0  0  0  0  0  0  0
  -27.5664  -15.8911   16.5749 O   0  0  0  0  0  0  0  0  0  0  0  0
  -25.4845  -27.7135   21.5611 O   0  0  0  0  0  0  0  0  0  0  0  0
  -27.4674  -31.6152   22.4552 O   0  0  0  0  0  0  0  0  0  0  0  0
  -23.3310  -33.4477   23.8879 O   0  0  0  0  0  0  0  0  0  0  0  0
  -24.1796  -24.0623   20.8565 O   0  0  0  0  0  0  0  0  0  0  0  0
  -24.7009  -11.9251   22.6284 O   0  0  0  0  0  0  0  0  0  0  0  0
  -19.7309  -28.6261   20.7031 O   0  0  0  0  0  0  0  0  0  1  0  0
  -19.5943  -25.2709   21.5641 O   0  0  0  0  0  0  0  0  0  0  0  0
  -21.9610   -8.0558   19.8132 F   0  0  0  0  0  0  0  0  0  0  0  0
  -22.1799  -11.1126   23.4206 F   0  0  0  0  0  0  0  0  0  0  0  0
  1  2  1  0  0  0  0
  1  5  2  0  0  0  0
  2  6  2  0  0  0  0
  3  8  2  0  0  0  0
  3 18  1  0  0  0  0
  4  9  1  0  0  0  0
  4 18  2  0  0  0  0
  5 20  1  0  0  0  0
  6 22  1  0  0  0  0
  7 10  2  0  0  0  0
  7 21  1  0  0  0  0
  8 26  1  0  0  0  0
  9 26  2  0  0  0  0
 10 27  1  0  0  0  0
 11 12  2  0  0  0  0
 11 28  1  0  0  0  0
 12 30  1  0  0  0  0
 13 23  1  0  0  0  0
 13 27  2  0  0  0  0
 14 24  1  0  0  0  0
 14 25  2  0  0  0  0
 15 24  2  0  0  0  0
 15 29  1  0  0  0  0
 16 25  1  0  0  0  0
 16 29  2  0  0  0  0
 17 30  2  0  0  0  0
 17 31  1  0  0  0  0
 18 32  1  0  0  0  0
 19 32  1  0  0  0  0
 19 33  2  0  0  0  0
 19 34  1  0  0  0  0
 20 22  2  0  0  0  0
 20 39  1  0  0  0  0
 21 23  2  0  0  0  0
 21 40  1  0  0  0  0
 22 48  1  0  0  0  0
 23 41  1  0  0  0  0
 24 51  1  0  0  0  0
 25 71  1  0  0  0  0
 26 80  1  0  0  0  0
 27 81  1  0  0  0  0
 28 31  2  0  0  0  0
 28 80  1  0  0  0  0
 29 82  1  0  0  0  0
 30 83  1  0  0  0  0
 31 84  1  0  0  0  0
 32 65  2  0  0  0  0
 33 66  1  0  0  0  0
 33 69  1  0  0  0  0
 34 70  1  0  0  0  0
 34 75  2  0  0  0  0
 35 49  1  0  0  0  0
 35 72  1  0  0  0  0
 35 76  2  0  0  0  0
 36 61  1  0  0  0  0
 36 67  1  0  0  0  0
 36 77  2  0  0  0  0
 37 62  1  0  0  0  0
 37 73  1  0  0  0  0
 37 78  2  0  0  0  0
 38 68  1  0  0  0  0
 38 71  1  0  0  0  0
 38 79  2  0  0  0  0
 39 42  1  0  0  0  0
 40 49  1  0  0  0  0
 41 67  1  0  0  0  0
 42 44  1  0  0  0  0
 43 45  1  0  0  0  0
 43 46  1  0  0  0  0
 44 48  1  0  0  0  0
 45 50  1  0  0  0  0
 46 68  1  0  0  0  0
 47 50  1  0  0  0  0
 47 68  1  0  0  0  0
 48 72  1  0  0  0  0
 49 67  1  0  0  0  0
 50 66  1  0  0  0  0
 52 62  1  0  0  0  0
 53 63  1  0  0  0  0
 54 63  1  0  0  0  0
 55 63  1  0  0  0  0
 56 64  1  0  0  0  0
 57 64  1  0  0  0  0
 58 74  1  0  0  0  0
 59 64  1  0  0  0  0
 59 81  1  0  0  0  0
 60 64  1  0  0  0  0
 60 82  1  0  0  0  0
 61 63  1  0  0  0  0
 61 73  1  0  0  0  0
 62 74  1  0  0  0  0
 65 66  1  0  0  0  0
M  CHG  1  74   1
M  ISO  4  38 100  59 101  71 100  81 101
M  END
> <Batch ID>
0137

> <Smiles>
CNC(C)C(=O)NC(C(=O)N1Cc2cc([101O:1][101CH2:1]C(C)(C)COc3cc(C)cc([100NH:0][100C:0](=O)N4CCCC(n5nc(-c6ccc(Oc7ccc(F)cc7F)cc6)c(C(N)=O)c5N)C4)c3)ccc2CC1C(=O)NC1CCCc2ccccc21)C(C)(C)C

> <Shape>
0.290

> <Color>
0.062

> <Negative vol penalty>
0.000

$$$$

  -OEChem-04052302423D

 87 95  0     1  0  0  0  0  0999 V2000
  -29.3635  -25.5194   16.6234 C   0  0  0  0  0  0  0  0  0  0  0  0
  -27.9892  -25.6804   16.7680 C   0  0  0  0  0  0  0  0  0  0  0  0
  -28.2560  -18.6931   23.4819 C   0  0  0  0  0  0  0  0  0  0  0  0
  -27.8817  -20.7425   22.2584 C   0  0  0  0  0  0  0  0  0  0  0  0
  -30.2134  -25.7992   17.6926 C   0  0  0  0  0  0  0  0  0  0  0  0
  -27.4640  -26.1204   17.9825 C   0  0  0  0  0  0  0  0  0  0  0  0
  -22.5722  -29.7151   18.7915 C   0  0  0  0  0  0  0  0  0  0  0  0
  -17.9293  -23.4327   21.1233 C   0  0  0  0  0  0  0  0  0  0  0  0
  -18.6194  -22.7116   22.0976 C   0  0  0  0  0  0  0  0  0  0  0  0
  -29.1602  -18.2753   22.5055 C   0  0  0  0  0  0  0  0  0  0  0  0
  -28.7860  -20.3247   21.2820 C   0  0  0  0  0  0  0  0  0  0  0  0
  -21.2436  -29.4341   19.1075 C   0  0  0  0  0  0  0  0  0  0  0  0
  -29.0345  -16.9294   19.4075 C   0  0  0  0  0  0  0  0  0  0  0  0
  -28.9375  -15.6132   18.9562 C   0  0  0  0  0  0  0  0  0  0  0  0
  -19.8175  -24.9215   20.8877 C   0  0  0  0  0  0  0  0  0  0  0  0
  -21.7138  -29.8586   21.4351 C   0  0  0  0  0  0  0  0  0  0  0  0
  -31.1977  -15.1920   19.6986 C   0  0  0  0  0  0  0  0  0  0  0  0
  -27.6167  -19.9267   23.3584 C   0  0  0  0  0  0  0  0  0  0  0  0
  -20.5076  -24.2003   21.8621 C   0  0  0  0  0  0  0  0  0  0  0  0
  -26.9671  -21.1035   25.5265 C   0  0  0  0  0  0  0  0  0  0  0  0
  -29.6990  -26.2520   18.9178 C   0  0  0  0  0  0  0  0  0  0  0  0
  -23.4856  -30.0599   19.7981 C   0  0  0  0  0  0  0  0  0  0  0  0
  -28.3077  -26.4052   19.0696 C   0  0  0  0  0  0  0  0  0  0  0  0
  -23.0527  -30.1460   21.1290 C   0  0  0  0  0  0  0  0  0  0  0  0
  -18.5283  -24.5377   20.5183 C   0  0  0  0  0  0  0  0  0  0  0  0
  -19.9085  -23.0954   22.4670 C   0  0  0  0  0  0  0  0  0  0  0  0
  -29.4252  -19.0911   21.4055 C   0  0  0  0  0  0  0  0  0  0  0  0
  -20.8149  -29.5030   20.4298 C   0  0  0  0  0  0  0  0  0  0  0  0
  -30.2132  -17.3770   20.0044 C   0  0  0  0  0  0  0  0  0  0  0  0
  -30.0191  -14.7445   19.1018 C   0  0  0  0  0  0  0  0  0  0  0  0
  -31.2947  -16.5083   20.1499 C   0  0  0  0  0  0  0  0  0  0  0  0
  -26.6821  -20.3586   24.3664 C   0  0  0  0  0  0  0  0  0  0  0  0
  -25.7505  -21.2523   26.1464 C   0  0  0  0  0  0  0  0  0  0  0  0
  -21.8534  -24.6274   22.2253 C   0  0  0  0  0  0  0  0  0  0  0  0
  -28.2194  -21.6151   26.0013 C   0  0  0  0  0  0  0  0  0  0  0  0
  -26.1731  -28.7867   20.9204 C   0  0  0  0  0  0  0  0  0  0  0  0
  -17.7802  -27.5450   20.7077 C   0  0  0  0  0  0  0  0  0  0  0  0
  -26.2728  -31.5131   22.6751 C   0  0  0  0  0  0  0  0  0  0  0  0
  -24.5740  -34.1195   24.0778 C   0  0  0  0  0  0  0  0  0  0  0  0
  -20.1199  -21.2293   24.1461 C   0  0  0  0  0  0  0  0  0  0  0  0
  -30.6533  -26.4964   20.0599 C   0  0  0  0  0  0  0  0  0  0  0  0
  -24.9089  -30.3861   19.4373 C   0  0  0  0  0  0  0  0  0  0  0  0
  -23.9890  -30.5314   22.2440 C   0  0  0  0  0  0  0  0  0  0  0  0
  -30.0468  -27.3168   21.1954 C   0  0  0  0  0  0  0  0  0  0  0  0
  -21.5054  -19.0894   26.6317 C   0  0  0  0  0  0  0  0  0  0  0  0
  -28.6613  -26.7893   21.5542 C   0  0  0  0  0  0  0  0  0  0  0  0
  -23.0161  -19.2445   26.4424 C   0  0  0  0  0  0  0  0  0  0  0  0
  -20.7604  -19.1229   25.2984 C   0  0  0  0  0  0  0  0  0  0  0  0
  -22.5655  -20.4412   24.2626 C   0  0  0  0  0  0  0  0  0  0  0  0
  -27.7018  -26.9042   20.3635 C   0  0  1  0  0  0  0  0  0  0  0  0
  -25.8738  -30.2256   20.6081 C   0  0  1  0  0  0  0  0  0  0  0  0
  -23.3526  -20.4787   25.5827 C   0  0  2  0  0  0  0  0  0  0  0  0
  -22.6744  -25.2974   21.1645 C   0  0  0  0  0  0  0  0  0  0  0  0
  -24.9214  -36.1680   25.4849 C   0  0  0  0  0  0  0  0  0  0  0  0
  -16.1637  -27.1873   18.8103 C   0  0  0  0  0  0  0  0  0  0  0  0
  -15.8426  -25.9471   20.9346 C   0  0  0  0  0  0  0  0  0  0  0  0
  -26.5580  -29.7584   25.1549 C   0  0  0  0  0  0  0  0  0  0  0  0
  -25.9489  -31.7480   26.5474 C   0  0  0  0  0  0  0  0  0  0  0  0
  -28.0111  -31.7938   25.1445 C   0  0  0  0  0  0  0  0  0  0  0  0
  -23.5701  -35.9010   21.9383 C   0  0  0  0  0  0  0  0  0  0  0  0
  -17.7795  -25.3190   19.4623 C   0  0  0  0  0  0  0  0  0  0  0  0
  -18.8347  -28.2939   19.9076 C   0  0  0  0  0  0  0  0  0  1  0  0
  -25.7479  -31.9346   24.0263 C   0  0  1  0  0  0  0  0  0  0  0  0
  -24.8382  -35.6143   24.0710 C   0  0  2  0  0  0  0  0  0  0  0  0
  -16.9107  -26.5005   19.9711 C   0  0  0  0  0  0  0  0  0  0  0  0
  -26.5490  -31.2995   25.1977 C   0  0  0  0  0  0  0  0  0  0  0  0
  -25.3863  -20.0553   24.2537 N   0  0  0  0  0  0  0  0  0  0  0  0
  -24.8461  -20.6122   25.3510 N   0  0  0  0  0  0  0  0  0  0  0  0
  -25.3723  -30.8349   21.8415 N   0  0  0  0  0  0  0  0  0  0  0  0
  -21.1256  -20.3217   24.5405 N   0  0  0  0  0  0  0  0  0  0  0  0
  -25.3768  -21.8669   27.2888 N   0  0  0  0  0  0  0  0  0  0  0  0
  -29.3719  -21.3713   25.2419 N   0  0  0  0  0  0  0  0  0  0  0  0
  -20.5901  -22.3482   23.4595 N   0  0  0  0  0  0  0  0  0  0  0  0
  -27.2421  -28.2684   20.2147 N   0  0  0  0  0  0  0  0  0  0  0  0
  -25.7451  -33.3935   24.0261 N   0  0  0  0  0  0  0  0  0  0  0  0
  -23.7481  -36.3298   23.3494 N   0  3  0  0  0  0  0  0  0  0  0  0
  -22.3642  -24.4738   23.3345 O   0  0  0  0  0  0  0  0  0  0  0  0
  -28.3163  -22.2550   27.0759 O   0  0  0  0  0  0  0  0  0  0  0  0
  -25.4861  -28.1912   21.7420 O   0  0  0  0  0  0  0  0  0  0  0  0
  -17.6120  -27.7927   21.9044 O   0  0  0  0  0  0  0  0  0  0  0  0
  -27.4367  -31.7822   22.3676 O   0  0  0  0  0  0  0  0  0  0  0  0
  -23.4420  -33.6434   24.1279 O   0  0  0  0  0  0  0  0  0  0  0  0
  -18.9322  -21.0422   24.4226 O   0  0  0  0  0  0  0  0  0  0  0  0
  -30.3076  -18.6838   20.4526 O   0  0  0  0  0  0  0  0  0  0  0  0
  -19.5189  -29.2286   20.7411 O   0  0  0  0  0  0  0  0  0  1  0  0
  -29.9253  -13.4801   18.6697 F   0  0  0  0  0  0  0  0  0  0  0  0
  -32.4292  -16.9322   20.7236 F   0  0  0  0  0  0  0  0  0  0  0  0
  1  2  1  0  0  0  0
  1  5  2  0  0  0  0
  2  6  2  0  0  0  0
  3 10  2  0  0  0  0
  3 18  1  0  0  0  0
  4 11  1  0  0  0  0
  4 18  2  0  0  0  0
  5 21  1  0  0  0  0
  6 23  1  0  0  0  0
  7 12  2  0  0  0  0
  7 22  1  0  0  0  0
  8  9  2  0  0  0  0
  8 25  1  0  0  0  0
  9 26  1  0  0  0  0
 10 27  1  0  0  0  0
 11 27  2  0  0  0  0
 12 28  1  0  0  0  0
 13 14  2  0  0  0  0
 13 29  1  0  0  0  0
 14 30  1  0  0  0  0
 15 19  1  0  0  0  0
 15 25  2  0  0  0  0
 16 24  1  0  0  0  0
 16 28  2  0  0  0  0
 17 30  2  0  0  0  0
 17 31  1  0  0  0  0
 18 32  1  0  0  0  0
 19 26  2  0  0  0  0
 19 34  1  0  0  0  0
 20 32  1  0  0  0  0
 20 33  2  0  0  0  0
 20 35  1  0  0  0  0
 21 23  2  0  0  0  0
 21 41  1  0  0  0  0
 22 24  2  0  0  0  0
 22 42  1  0  0  0  0
 23 50  1  0  0  0  0
 24 43  1  0  0  0  0
 25 61  1  0  0  0  0
 26 73  1  0  0  0  0
 27 84  1  0  0  0  0
 28 85  1  0  0  0  0
 29 31  2  0  0  0  0
 29 84  1  0  0  0  0
 30 86  1  0  0  0  0
 31 87  1  0  0  0  0
 32 67  2  0  0  0  0
 33 68  1  0  0  0  0
 33 71  1  0  0  0  0
 34 53  1  0  0  0  0
 34 77  2  0  0  0  0
 35 72  1  0  0  0  0
 35 78  2  0  0  0  0
 36 51  1  0  0  0  0
 36 74  1  0  0  0  0
 36 79  2  0  0  0  0
 37 62  1  0  0  0  0
 37 65  1  0  0  0  0
 37 80  2  0  0  0  0
 38 63  1  0  0  0  0
 38 69  1  0  0  0  0
 38 81  2  0  0  0  0
 39 64  1  0  0  0  0
 39 75  1  0  0  0  0
 39 82  2  0  0  0  0
 40 70  1  0  0  0  0
 40 73  1  0  0  0  0
 40 83  2  0  0  0  0
 41 44  1  0  0  0  0
 42 51  1  0  0  0  0
 43 69  1  0  0  0  0
 44 46  1  0  0  0  0
 45 47  1  0  0  0  0
 45 48  1  0  0  0  0
 46 50  1  0  0  0  0
 47 52  1  0  0  0  0
 48 70  1  0  0  0  0
 49 52  1  0  0  0  0
 49 70  1  0  0  0  0
 50 74  1  0  0  0  0
 51 69  1  0  0  0  0
 52 68  1  0  0  0  0
 54 64  1  0  0  0  0
 55 65  1  0  0  0  0
 56 65  1  0  0  0  0
 57 66  1  0  0  0  0
 58 66  1  0  0  0  0
 59 66  1  0  0  0  0
 60 76  1  0  0  0  0
 61 65  1  0  0  0  0
 62 85  1  0  0  0  0
 63 66  1  0  0  0  0
 63 75  1  0  0  0  0
 64 76  1  0  0  0  0
 67 68  1  0  0  0  0
M  CHG  1  76   1
M  ISO  4  40 100  62 101  73 100  85 101
M  END
> <Batch ID>
0137

> <Smiles>
CNC(C)C(=O)NC(C(=O)N1Cc2cc([101O:1][101CH2:1]C(=O)C(C)(C)Cc3ccc([100NH:0][100C:0](=O)N4CCCC(n5nc(-c6ccc(Oc7ccc(F)cc7F)cc6)c(C(N)=O)c5N)C4)c(C(C)=O)c3)ccc2CC1C(=O)NC1CCCc2ccccc21)C(C)(C)C

> <Shape>
0.243

> <Color>
0.053

> <Negative vol penalty>
0.000

$$$$

  -OEChem-04052302423D

 87 95  0     1  0  0  0  0  0999 V2000
  -21.0214  -27.5775   27.9251 C   0  0  0  0  0  0  0  0  0  0  0  0
  -22.2406  -27.5764   27.2550 C   0  0  0  0  0  0  0  0  0  0  0  0
  -26.6580  -12.2535   21.7675 C   0  0  0  0  0  0  0  0  0  0  0  0
  -26.0250  -13.8361   20.0553 C   0  0  0  0  0  0  0  0  0  0  0  0
  -27.6172  -19.5589   22.1204 C   0  0  0  0  0  0  0  0  0  0  0  0
  -19.8980  -27.0082   27.3269 C   0  0  0  0  0  0  0  0  0  0  0  0
  -22.3374  -27.0049   25.9867 C   0  0  0  0  0  0  0  0  0  0  0  0
  -25.8816  -28.8880   21.3609 C   0  0  0  0  0  0  0  0  0  0  0  0
  -25.3522  -11.7643   21.7982 C   0  0  0  0  0  0  0  0  0  0  0  0
  -24.7190  -13.3469   20.0860 C   0  0  0  0  0  0  0  0  0  0  0  0
  -27.1227  -28.4569   20.8945 C   0  0  0  0  0  0  0  0  0  0  0  0
  -22.2707   -9.8550   22.0705 C   0  0  0  0  0  0  0  0  0  0  0  0
  -26.2751  -19.9346   22.1758 C   0  0  0  0  0  0  0  0  0  0  0  0
  -22.0968   -8.4712   22.0894 C   0  0  0  0  0  0  0  0  0  0  0  0
  -26.0194  -27.0804   19.2490 C   0  0  0  0  0  0  0  0  0  0  0  0
  -26.8409  -22.0924   21.2478 C   0  0  0  0  0  0  0  0  0  0  0  0
  -23.2533   -8.2970   19.9753 C   0  0  0  0  0  0  0  0  0  0  0  0
  -26.9944  -13.2894   20.8960 C   0  0  0  0  0  0  0  0  0  0  0  0
  -28.5713  -20.4499   21.6289 C   0  0  0  0  0  0  0  0  0  0  0  0
  -29.4020  -13.3432   20.0543 C   0  0  0  0  0  0  0  0  0  0  0  0
  -19.9788  -26.4381   26.0466 C   0  0  0  0  0  0  0  0  0  0  0  0
  -24.6978  -28.4094   20.7810 C   0  0  0  0  0  0  0  0  0  0  0  0
  -21.2143  -26.4263   25.3714 C   0  0  0  0  0  0  0  0  0  0  0  0
  -24.7646  -27.5090   19.7082 C   0  0  0  0  0  0  0  0  0  0  0  0
  -28.1831  -21.7166   21.1925 C   0  0  0  0  0  0  0  0  0  0  0  0
  -24.3827  -12.3110   20.9575 C   0  0  0  0  0  0  0  0  0  0  0  0
  -27.1917  -27.5507   19.8403 C   0  0  0  0  0  0  0  0  0  0  0  0
  -22.9358  -10.4599   21.0039 C   0  0  0  0  0  0  0  0  0  0  0  0
  -25.8869  -21.2013   21.7395 C   0  0  0  0  0  0  0  0  0  0  0  0
  -22.5882   -7.6921   21.0418 C   0  0  0  0  0  0  0  0  0  0  0  0
  -23.4272   -9.6808   19.9564 C   0  0  0  0  0  0  0  0  0  0  0  0
  -28.3431  -13.7956   20.8642 C   0  0  0  0  0  0  0  0  0  0  0  0
  -30.4641  -14.1428   20.3995 C   0  0  0  0  0  0  0  0  0  0  0  0
  -29.9662  -20.0319   21.5818 C   0  0  0  0  0  0  0  0  0  0  0  0
  -29.4236  -12.2941   19.0773 C   0  0  0  0  0  0  0  0  0  0  0  0
  -30.6948  -19.6442   22.8114 C   0  0  0  0  0  0  0  0  0  0  0  0
  -22.2059  -26.7352   21.8254 C   0  0  0  0  0  0  0  0  0  0  0  0
  -29.8533  -25.2254   19.0245 C   0  0  0  0  0  0  0  0  0  0  0  0
  -21.0363  -27.3674   18.8666 C   0  0  0  0  0  0  0  0  0  0  0  0
  -21.6718  -28.1578   15.6080 C   0  0  0  0  0  0  0  0  0  0  0  0
  -18.7482  -25.7925   25.4605 C   0  0  0  0  0  0  0  0  0  0  0  0
  -23.3675  -28.9048   21.2781 C   0  0  0  0  0  0  0  0  0  0  0  0
  -23.5236  -26.9807   19.0380 C   0  0  0  0  0  0  0  0  0  0  0  0
  -18.8490  -25.5416   23.9581 C   0  0  0  0  0  0  0  0  0  0  0  0
  -32.2419  -16.6563   24.0505 C   0  0  0  0  0  0  0  0  0  0  0  0
  -20.1926  -24.9080   23.6116 C   0  0  0  0  0  0  0  0  0  0  0  0
  -31.4862  -15.5416   23.3279 C   0  0  0  0  0  0  0  0  0  0  0  0
  -31.3297  -17.8383   24.3620 C   0  0  0  0  0  0  0  0  0  0  0  0
  -29.8737  -17.2810   22.4337 C   0  0  0  0  0  0  0  0  0  0  0  0
  -21.3535  -25.8382   23.9840 C   0  0  1  0  0  0  0  0  0  0  0  0
  -22.2171  -27.9574   20.9515 C   0  0  1  0  0  0  0  0  0  0  0  0
  -30.7689  -16.0814   22.0777 C   0  0  2  0  0  0  0  0  0  0  0  0
  -20.5154  -28.5708   13.4195 C   0  0  0  0  0  0  0  0  0  0  0  0
  -31.5849  -23.4074   18.7853 C   0  0  0  0  0  0  0  0  0  0  0  0
  -29.9329  -23.8000   16.9666 C   0  0  0  0  0  0  0  0  0  0  0  0
  -20.5934  -24.3666   18.5371 C   0  0  0  0  0  0  0  0  0  0  0  0
  -20.3543  -24.7429   16.0734 C   0  0  0  0  0  0  0  0  0  0  0  0
  -18.7407  -25.7974   17.6568 C   0  0  0  0  0  0  0  0  0  0  0  0
  -22.7026  -30.9277   15.4535 C   0  0  0  0  0  0  0  0  0  0  0  0
  -29.1940  -22.7006   20.6571 C   0  0  0  0  0  0  0  0  0  0  0  0
  -28.4640  -25.8140   18.8299 C   0  0  0  0  0  0  0  0  0  1  0  0
  -29.1521  -22.7688   19.1238 C   0  0  0  0  0  0  0  0  0  0  0  0
  -21.1043  -26.6848   17.5218 C   0  0  1  0  0  0  0  0  0  0  0  0
  -21.0662  -29.2027   14.6884 C   0  0  2  0  0  0  0  0  0  0  0  0
  -30.1229  -23.7985   18.4940 C   0  0  0  0  0  0  0  0  0  0  0  0
  -20.2217  -25.4062   17.4610 C   0  0  0  0  0  0  0  0  0  0  0  0
  -28.7001  -14.8042   21.6638 N   0  0  0  0  0  0  0  0  0  0  0  0
  -30.6559  -19.9693   20.4766 N   0  0  0  0  0  0  0  0  0  0  0  0
  -29.9952  -14.9921   21.3581 N   0  0  0  0  0  0  0  0  0  0  0  0
  -30.6374  -18.3024   23.1614 N   0  0  0  0  0  0  0  0  0  0  0  0
  -22.2464  -27.4901   19.5641 N   0  0  0  0  0  0  0  0  0  0  0  0
  -31.7440  -14.1951   19.9736 N   0  0  0  0  0  0  0  0  0  0  0  0
  -28.2449  -11.5717   18.8464 N   0  0  0  0  0  0  0  0  0  0  0  0
  -21.4943  -26.8898   22.9998 N   0  0  0  0  0  0  0  0  0  0  0  0
  -20.7569  -27.6983   16.5316 N   0  0  0  0  0  0  0  0  0  0  0  0
  -22.0932  -30.2116   14.3033 N   0  3  0  0  0  0  0  0  0  0  0  0
  -30.4618  -11.9950   18.4399 O   0  0  0  0  0  0  0  0  0  0  0  0
  -31.2728  -20.5543   23.3911 O   0  0  0  0  0  0  0  0  0  0  0  0
  -22.7976  -25.7261   21.4605 O   0  0  0  0  0  0  0  0  0  0  0  0
  -30.7354  -25.8810   19.5847 O   0  0  0  0  0  0  0  0  0  0  0  0
  -19.9508  -27.7831   19.2796 O   0  0  0  0  0  0  0  0  0  0  0  0
  -22.8388  -27.7836   15.5139 O   0  0  0  0  0  0  0  0  0  0  0  0
  -23.1083  -11.8338   20.9870 O   0  0  0  0  0  0  0  0  0  0  0  0
  -28.4018  -27.1278   19.3835 O   0  0  0  0  0  0  0  0  0  1  0  0
  -24.5981  -21.5621   21.7935 F   0  0  0  0  0  0  0  0  0  0  0  0
  -22.4225   -6.3631   21.0609 F   0  0  0  0  0  0  0  0  0  0  0  0
  -24.0680  -10.2561   18.9297 F   0  0  0  0  0  0  0  0  0  0  0  0
  1  2  1  0  0  0  0
  1  6  2  0  0  0  0
  2  7  2  0  0  0  0
  3  9  2  0  0  0  0
  3 18  1  0  0  0  0
  4 10  1  0  0  0  0
  4 18  2  0  0  0  0
  5 13  2  0  0  0  0
  5 19  1  0  0  0  0
  6 21  1  0  0  0  0
  7 23  1  0  0  0  0
  8 11  2  0  0  0  0
  8 22  1  0  0  0  0
  9 26  1  0  0  0  0
 10 26  2  0  0  0  0
 11 27  1  0  0  0  0
 12 14  2  0  0  0  0
 12 28  1  0  0  0  0
 13 29  1  0  0  0  0
 14 30  1  0  0  0  0
 15 24  1  0  0  0  0
 15 27  2  0  0  0  0
 16 25  1  0  0  0  0
 16 29  2  0  0  0  0
 17 30  2  0  0  0  0
 17 31  1  0  0  0  0
 18 32  1  0  0  0  0
 19 25  2  0  0  0  0
 19 34  1  0  0  0  0
 20 32  1  0  0  0  0
 20 33  2  0  0  0  0
 20 35  1  0  0  0  0
 21 23  2  0  0  0  0
 21 41  1  0  0  0  0
 22 24  2  0  0  0  0
 22 42  1  0  0  0  0
 23 50  1  0  0  0  0
 24 43  1  0  0  0  0
 25 60  1  0  0  0  0
 26 83  1  0  0  0  0
 27 84  1  0  0  0  0
 28 31  2  0  0  0  0
 28 83  1  0  0  0  0
 29 85  1  0  0  0  0
 30 86  1  0  0  0  0
 31 87  1  0  0  0  0
 32 67  2  0  0  0  0
 33 69  1  0  0  0  0
 33 72  1  0  0  0  0
 34 36  1  0  0  0  0
 34 68  2  0  0  0  0
 35 73  1  0  0  0  0
 35 77  2  0  0  0  0
 36 70  1  0  0  0  0
 36 78  2  0  0  0  0
 37 51  1  0  0  0  0
 37 74  1  0  0  0  0
 37 79  2  0  0  0  0
 38 61  1  0  0  0  0
 38 65  1  0  0  0  0
 38 80  2  0  0  0  0
 39 63  1  0  0  0  0
 39 71  1  0  0  0  0
 39 81  2  0  0  0  0
 40 64  1  0  0  0  0
 40 75  1  0  0  0  0
 40 82  2  0  0  0  0
 41 44  1  0  0  0  0
 42 51  1  0  0  0  0
 43 71  1  0  0  0  0
 44 46  1  0  0  0  0
 45 47  1  0  0  0  0
 45 48  1  0  0  0  0
 46 50  1  0  0  0  0
 47 52  1  0  0  0  0
 48 70  1  0  0  0  0
 49 52  1  0  0  0  0
 49 70  1  0  0  0  0
 50 74  1  0  0  0  0
 51 71  1  0  0  0  0
 52 69  1  0  0  0  0
 53 64  1  0  0  0  0
 54 65  1  0  0  0  0
 55 65  1  0  0  0  0
 56 66  1  0  0  0  0
 57 66  1  0  0  0  0
 58 66  1  0  0  0  0
 59 76  1  0  0  0  0
 60 62  1  0  0  0  0
 61 84  1  0  0  0  0
 62 65  1  0  0  0  0
 63 66  1  0  0  0  0
 63 75  1  0  0  0  0
 64 76  1  0  0  0  0
 67 69  1  0  0  0  0
M  CHG  1  76   1
M  ISO  4  34 100  36 100  61 101  84 101
M  END
> <Batch ID>
0137

> <Smiles>
CNC(C)C(=O)NC(C(=O)N1Cc2cc([101O:1][101CH2:1]C(=O)C(C)(C)CCc3cc(F)ccc3[100C:0](=N)[100C:0](=O)N3CCCC(n4nc(-c5ccc(Oc6ccc(F)cc6F)cc5)c(C(N)=O)c4N)C3)ccc2CC1C(=O)NC1CCCc2ccccc21)C(C)(C)C

> <Shape>
0.263

> <Color>
0.089

> <Negative vol penalty>
0.000

$$$$

  -OEChem-04052302423D

 88 96  0     1  0  0  0  0  0999 V2000
  -23.4255  -21.9492   16.5865 C   0  0  0  0  0  0  0  0  0  0  0  0
  -24.5331  -22.3273   17.3386 C   0  0  0  0  0  0  0  0  0  0  0  0
  -23.6610   -9.7677   21.5964 C   0  0  0  0  0  0  0  0  0  0  0  0
  -24.2464  -10.9101   23.6431 C   0  0  0  0  0  0  0  0  0  0  0  0
  -22.8079  -22.8730   15.7444 C   0  0  0  0  0  0  0  0  0  0  0  0
  -25.0245  -23.6291   17.2482 C   0  0  0  0  0  0  0  0  0  0  0  0
  -26.1047  -25.6168   21.7789 C   0  0  0  0  0  0  0  0  0  0  0  0
  -23.0917   -8.7321   22.3372 C   0  0  0  0  0  0  0  0  0  0  0  0
  -23.6770   -9.8745   24.3840 C   0  0  0  0  0  0  0  0  0  0  0  0
  -27.2963  -25.2166   22.3820 C   0  0  0  0  0  0  0  0  0  0  0  0
  -20.5797   -8.8794   25.2991 C   0  0  0  0  0  0  0  0  0  0  0  0
  -19.7576   -9.2273   26.3709 C   0  0  0  0  0  0  0  0  0  0  0  0
  -28.3475  -27.2596   21.6469 C   0  0  0  0  0  0  0  0  0  0  0  0
  -29.3276  -20.0699   21.6294 C   0  0  0  0  0  0  0  0  0  0  0  0
  -27.1031  -20.9976   21.4636 C   0  0  0  0  0  0  0  0  0  0  0  0
  -27.7487  -19.1476   20.0502 C   0  0  0  0  0  0  0  0  0  0  0  0
  -21.2327   -8.0547   27.8829 C   0  0  0  0  0  0  0  0  0  0  0  0
  -24.2384  -10.8568   22.2493 C   0  0  0  0  0  0  0  0  0  0  0  0
  -24.1871  -13.0905   21.0183 C   0  0  0  0  0  0  0  0  0  0  0  0
  -23.2861  -24.1896   15.6509 C   0  0  0  0  0  0  0  0  0  0  0  0
  -26.0285  -26.8385   21.0947 C   0  0  0  0  0  0  0  0  0  0  0  0
  -24.4135  -24.5710   16.4030 C   0  0  0  0  0  0  0  0  0  0  0  0
  -27.1530  -27.6742   21.0381 C   0  0  0  0  0  0  0  0  0  0  0  0
  -28.3709  -20.9958   22.0452 C   0  0  0  0  0  0  0  0  0  0  0  0
  -29.0165  -19.1458   20.6318 C   0  0  0  0  0  0  0  0  0  0  0  0
  -23.0996   -8.7855   23.7310 C   0  0  0  0  0  0  0  0  0  0  0  0
  -28.4187  -26.0367   22.3136 C   0  0  0  0  0  0  0  0  0  0  0  0
  -21.7283   -8.1191   25.5192 C   0  0  0  0  0  0  0  0  0  0  0  0
  -26.7919  -20.0735   20.4661 C   0  0  0  0  0  0  0  0  0  0  0  0
  -20.0841   -8.8149   27.6628 C   0  0  0  0  0  0  0  0  0  0  0  0
  -22.0548   -7.7067   26.8111 C   0  0  0  0  0  0  0  0  0  0  0  0
  -24.8272  -11.9266   21.4846 C   0  0  0  0  0  0  0  0  0  0  0  0
  -25.1709  -13.7803   20.3529 C   0  0  0  0  0  0  0  0  0  0  0  0
  -22.8250  -13.5106   21.1729 C   0  0  0  0  0  0  0  0  0  0  0  0
  -25.4377  -27.6943   18.0910 C   0  0  0  0  0  0  0  0  0  0  0  0
  -25.5232  -30.6876   19.3378 C   0  0  0  0  0  0  0  0  0  0  0  0
  -26.6183  -32.7642   21.8148 C   0  0  0  0  0  0  0  0  0  0  0  0
  -30.3994  -15.7054   20.0335 C   0  0  0  0  0  0  0  0  0  0  0  0
  -22.6143  -25.1395   14.6912 C   0  0  0  0  0  0  0  0  0  0  0  0
  -24.7283  -27.2679   20.4723 C   0  0  0  0  0  0  0  0  0  0  0  0
  -27.1176  -29.0047   20.3331 C   0  0  0  0  0  0  0  0  0  0  0  0
  -22.9684  -26.6041   14.9358 C   0  0  0  0  0  0  0  0  0  0  0  0
  -29.8219  -12.3598   18.9612 C   0  0  0  0  0  0  0  0  0  0  0  0
  -24.4732  -26.7648   15.1265 C   0  0  0  0  0  0  0  0  0  0  0  0
  -28.4215  -12.0431   19.4889 C   0  0  0  0  0  0  0  0  0  0  0  0
  -30.6058  -13.2389   19.9331 C   0  0  0  0  0  0  0  0  0  0  0  0
  -28.5197  -14.1645   20.8633 C   0  0  0  0  0  0  0  0  0  0  0  0
  -24.9609  -25.9809   16.3509 C   0  0  1  0  0  0  0  0  0  0  0  0
  -24.9089  -28.2977   19.3614 C   0  0  1  0  0  0  0  0  0  0  0  0
  -27.6707  -13.3265   19.8920 C   0  0  2  0  0  0  0  0  0  0  0  0
  -26.5591  -35.1652   22.5421 C   0  0  0  0  0  0  0  0  0  0  0  0
  -23.3211  -18.2725   20.4508 C   0  0  0  0  0  0  0  0  0  0  0  0
  -21.9969  -20.2988   21.1127 C   0  0  0  0  0  0  0  0  0  0  0  0
  -27.5902  -31.3825   17.2037 C   0  0  0  0  0  0  0  0  0  0  0  0
  -28.1788  -33.4188   18.5361 C   0  0  0  0  0  0  0  0  0  0  0  0
  -25.8762  -33.1571   17.6129 C   0  0  0  0  0  0  0  0  0  0  0  0
  -28.5385  -24.4310   24.6869 C   0  0  0  0  0  0  0  0  0  0  0  0
  -30.9787  -24.1739   24.1682 C   0  0  0  0  0  0  0  0  0  0  0  0
  -25.2412  -32.0847   24.3448 C   0  0  0  0  0  0  0  0  0  0  0  0
  -28.7084  -21.9955   23.1240 C   0  0  0  0  0  0  0  0  0  0  0  0
  -30.0392  -18.1561   20.1864 C   0  0  0  0  0  0  0  0  0  0  0  0
  -29.2915  -23.2864   22.5318 C   0  0  0  0  0  0  0  0  0  0  0  0
  -24.4674  -20.5108   20.7127 C   0  0  0  0  0  0  0  0  0  0  0  0
  -26.6000  -31.7213   19.5640 C   0  0  1  0  0  0  0  0  0  0  0  0
  -25.8938  -33.8022   22.6527 C   0  0  2  0  0  0  0  0  0  0  0  0
  -23.1828  -19.7886   20.2970 C   0  0  0  0  0  0  0  0  0  0  0  0
  -27.0628  -32.3940   18.2409 C   0  0  0  0  0  0  0  0  0  0  0  0
  -29.5841  -24.3881   23.5705 C   0  0  0  0  0  0  0  0  0  1  0  0
  -26.1178  -11.8763   21.1441 N   0  0  0  0  0  0  0  0  0  0  0  0
  -26.2966  -13.0172   20.4568 N   0  0  0  0  0  0  0  0  0  0  0  0
  -25.8251  -29.3773   19.7349 N   0  0  0  0  0  0  0  0  0  0  0  0
  -29.8394  -14.4399   20.2739 N   0  0  0  0  0  0  0  0  0  0  0  0
  -25.1743  -14.9590   19.6949 N   0  0  0  0  0  0  0  0  0  0  0  0
  -21.9471  -12.6823   21.8854 N   0  0  0  0  0  0  0  0  0  0  0  0
  -24.6400  -26.6942   17.5685 N   0  0  0  0  0  0  0  0  0  0  0  0
  -26.0704  -32.6524   20.5544 N   0  0  0  0  0  0  0  0  0  0  0  0
  -29.6039  -16.7908   20.3794 N   0  0  0  0  0  0  0  0  0  0  0  0
  -25.8873  -33.3974   24.0870 N   0  3  0  0  0  0  0  0  0  0  0  0
  -22.3950  -14.5806   20.6793 O   0  0  0  0  0  0  0  0  0  0  0  0
  -26.4908  -28.1064   17.6189 O   0  0  0  0  0  0  0  0  0  0  0  0
  -24.4509  -31.0316   18.8343 O   0  0  0  0  0  0  0  0  0  0  0  0
  -27.5768  -32.1199   22.2350 O   0  0  0  0  0  0  0  0  0  0  0  0
  -31.5229  -15.8568   19.5417 O   0  0  0  0  0  0  0  0  0  0  0  0
  -22.5439   -7.7752   24.4542 O   0  0  0  0  0  0  0  0  0  0  0  0
  -25.5549  -20.0756   19.8982 O   0  0  0  0  0  0  0  0  0  0  0  0
  -29.5832  -25.6483   22.9009 O   0  0  0  0  0  0  0  0  0  1  0  0
  -19.2953   -9.1504   28.6921 F   0  0  0  0  0  0  0  0  0  0  0  0
  -23.1575   -6.9772   27.0290 F   0  0  0  0  0  0  0  0  0  0  0  0
  1  2  1  0  0  0  0
  1  5  2  0  0  0  0
  2  6  2  0  0  0  0
  3  8  2  0  0  0  0
  3 18  1  0  0  0  0
  4  9  1  0  0  0  0
  4 18  2  0  0  0  0
  5 20  1  0  0  0  0
  6 22  1  0  0  0  0
  7 10  2  0  0  0  0
  7 21  1  0  0  0  0
  8 26  1  0  0  0  0
  9 26  2  0  0  0  0
 10 27  1  0  0  0  0
 11 12  2  0  0  0  0
 11 28  1  0  0  0  0
 12 30  1  0  0  0  0
 13 23  1  0  0  0  0
 13 27  2  0  0  0  0
 14 24  1  0  0  0  0
 14 25  2  0  0  0  0
 15 24  2  0  0  0  0
 15 29  1  0  0  0  0
 16 25  1  0  0  0  0
 16 29  2  0  0  0  0
 17 30  2  0  0  0  0
 17 31  1  0  0  0  0
 18 32  1  0  0  0  0
 19 32  1  0  0  0  0
 19 33  2  0  0  0  0
 19 34  1  0  0  0  0
 20 22  2  0  0  0  0
 20 39  1  0  0  0  0
 21 23  2  0  0  0  0
 21 40  1  0  0  0  0
 22 48  1  0  0  0  0
 23 41  1  0  0  0  0
 24 60  1  0  0  0  0
 25 61  1  0  0  0  0
 26 84  1  0  0  0  0
 27 86  1  0  0  0  0
 28 31  2  0  0  0  0
 28 84  1  0  0  0  0
 29 85  1  0  0  0  0
 30 87  1  0  0  0  0
 31 88  1  0  0  0  0
 32 69  2  0  0  0  0
 33 70  1  0  0  0  0
 33 73  1  0  0  0  0
 34 74  1  0  0  0  0
 34 79  2  0  0  0  0
 35 49  1  0  0  0  0
 35 75  1  0  0  0  0
 35 80  2  0  0  0  0
 36 64  1  0  0  0  0
 36 71  1  0  0  0  0
 36 81  2  0  0  0  0
 37 65  1  0  0  0  0
 37 76  1  0  0  0  0
 37 82  2  0  0  0  0
 38 72  1  0  0  0  0
 38 77  1  0  0  0  0
 38 83  2  0  0  0  0
 39 42  1  0  0  0  0
 40 49  1  0  0  0  0
 41 71  1  0  0  0  0
 42 44  1  0  0  0  0
 43 45  1  0  0  0  0
 43 46  1  0  0  0  0
 44 48  1  0  0  0  0
 45 50  1  0  0  0  0
 46 72  1  0  0  0  0
 47 50  1  0  0  0  0
 47 72  1  0  0  0  0
 48 75  1  0  0  0  0
 49 71  1  0  0  0  0
 50 70  1  0  0  0  0
 51 65  1  0  0  0  0
 52 66  1  0  0  0  0
 53 66  1  0  0  0  0
 54 67  1  0  0  0  0
 55 67  1  0  0  0  0
 56 67  1  0  0  0  0
 57 68  1  0  0  0  0
 58 68  1  0  0  0  0
 59 78  1  0  0  0  0
 60 62  1  0  0  0  0
 61 77  1  0  0  0  0
 62 68  1  0  0  0  0
 63 66  1  0  0  0  0
 63 85  1  0  0  0  0
 64 67  1  0  0  0  0
 64 76  1  0  0  0  0
 65 78  1  0  0  0  0
 68 86  1  0  0  0  0
 69 70  1  0  0  0  0
M  CHG  1  78   1
M  ISO  4  38 100  68 101  77 100  86 101
M  END
> <Batch ID>
0137

> <Smiles>
CNC(C)C(=O)NC(C(=O)N1Cc2cc([101O:1][101C:1](C)(C)CCc3cc(C[100NH:0][100C:0](=O)N4CCCC(n5nc(-c6ccc(Oc7ccc(F)cc7F)cc6)c(C(N)=O)c5N)C4)cc(OCC(C)C)c3)ccc2CC1C(=O)NC1CCCc2ccccc21)C(C)(C)C

> <Shape>
0.218

> <Color>
0.144

> <Negative vol penalty>
0.000

$$$$

  -OEChem-04052302423D

 85 93  0     1  0  0  0  0  0999 V2000
  -24.7488  -21.2374   17.6451 C   0  0  0  0  0  0  0  0  0  0  0  0
  -24.9563  -20.5319   18.8261 C   0  0  0  0  0  0  0  0  0  0  0  0
  -22.9987   -9.8934   19.9834 C   0  0  0  0  0  0  0  0  0  0  0  0
  -23.7212   -9.9494   22.2882 C   0  0  0  0  0  0  0  0  0  0  0  0
  -25.6426  -22.2380   17.2660 C   0  0  0  0  0  0  0  0  0  0  0  0
  -26.0585  -20.8259   19.6280 C   0  0  0  0  0  0  0  0  0  0  0  0
  -28.0777  -20.9918   26.4991 C   0  0  0  0  0  0  0  0  0  0  0  0
  -32.6655  -17.4254   23.4337 C   0  0  0  0  0  0  0  0  0  0  0  0
  -32.0591  -16.5349   22.5478 C   0  0  0  0  0  0  0  0  0  0  0  0
  -22.2310   -8.7602   20.2515 C   0  0  0  0  0  0  0  0  0  0  0  0
  -22.9534   -8.8161   22.5563 C   0  0  0  0  0  0  0  0  0  0  0  0
  -29.0861  -20.5178   27.3371 C   0  0  0  0  0  0  0  0  0  0  0  0
  -21.4682   -5.7270   23.7653 C   0  0  0  0  0  0  0  0  0  0  0  0
  -22.0526   -4.7126   24.5236 C   0  0  0  0  0  0  0  0  0  0  0  0
  -30.5199  -22.3210   26.6218 C   0  0  0  0  0  0  0  0  0  0  0  0
  -30.5024  -18.3489   23.9860 C   0  0  0  0  0  0  0  0  0  0  0  0
  -23.7807   -4.4601   22.8542 C   0  0  0  0  0  0  0  0  0  0  0  0
  -23.7438  -10.4880   21.0017 C   0  0  0  0  0  0  0  0  0  0  0  0
  -24.1312  -13.0029   20.8201 C   0  0  0  0  0  0  0  0  0  0  0  0
  -26.7509  -22.5511   18.0686 C   0  0  0  0  0  0  0  0  0  0  0  0
  -28.2871  -22.1296   25.7066 C   0  0  0  0  0  0  0  0  0  0  0  0
  -26.9687  -21.8308   19.2586 C   0  0  0  0  0  0  0  0  0  0  0  0
  -29.5117  -22.8089   25.7765 C   0  0  0  0  0  0  0  0  0  0  0  0
  -31.8872  -18.3324   24.1529 C   0  0  0  0  0  0  0  0  0  0  0  0
  -29.8960  -17.4585   23.1000 C   0  0  0  0  0  0  0  0  0  0  0  0
  -30.6744  -16.5514   22.3809 C   0  0  0  0  0  0  0  0  0  0  0  0
  -22.2083   -8.2215   21.5379 C   0  0  0  0  0  0  0  0  0  0  0  0
  -30.3084  -21.1807   27.3964 C   0  0  0  0  0  0  0  0  0  0  0  0
  -22.0401   -6.1080   22.5513 C   0  0  0  0  0  0  0  0  0  0  0  0
  -23.2088   -4.0792   24.0681 C   0  0  0  0  0  0  0  0  0  0  0  0
  -23.1963   -5.4746   22.0958 C   0  0  0  0  0  0  0  0  0  0  0  0
  -24.5375  -11.6584   20.7252 C   0  0  0  0  0  0  0  0  0  0  0  0
  -25.2420  -13.7238   20.4554 C   0  0  0  0  0  0  0  0  0  0  0  0
  -22.8632  -13.5512   21.2038 C   0  0  0  0  0  0  0  0  0  0  0  0
  -28.3230  -22.7111   22.5819 C   0  0  0  0  0  0  0  0  0  0  0  0
  -28.6223  -25.7914   23.5535 C   0  0  0  0  0  0  0  0  0  0  0  0
  -29.5770  -27.9807   25.9912 C   0  0  0  0  0  0  0  0  0  0  0  0
  -30.7219  -14.6814   20.6936 C   0  0  0  0  0  0  0  0  0  0  0  0
  -27.7156  -23.6086   17.5936 C   0  0  0  0  0  0  0  0  0  0  0  0
  -27.1798  -22.6437   24.8279 C   0  0  0  0  0  0  0  0  0  0  0  0
  -29.7796  -24.0466   24.9611 C   0  0  0  0  0  0  0  0  0  0  0  0
  -28.6523  -24.1143   18.6877 C   0  0  0  0  0  0  0  0  0  0  0  0
  -29.6046  -12.2238   18.3722 C   0  0  0  0  0  0  0  0  0  0  0  0
  -29.2406  -22.9442   19.4697 C   0  0  0  0  0  0  0  0  0  0  0  0
  -28.1533  -11.9682   18.7852 C   0  0  0  0  0  0  0  0  0  0  0  0
  -30.5038  -12.4694   19.5825 C   0  0  0  0  0  0  0  0  0  0  0  0
  -28.5874  -13.2629   20.9118 C   0  0  0  0  0  0  0  0  0  0  0  0
  -28.1390  -22.1376   20.1677 C   0  0  1  0  0  0  0  0  0  0  0  0
  -27.6831  -23.5130   23.6796 C   0  0  1  0  0  0  0  0  0  0  0  0
  -27.6311  -13.0744   19.7229 C   0  0  2  0  0  0  0  0  0  0  0  0
  -28.4108  -17.5005   22.9390 C   0  0  0  0  0  0  0  0  0  0  0  0
  -29.7372  -30.4367   26.4806 C   0  0  0  0  0  0  0  0  0  0  0  0
  -33.2906  -21.8717   28.8388 C   0  0  0  0  0  0  0  0  0  0  0  0
  -31.0882  -25.9841   21.7668 C   0  0  0  0  0  0  0  0  0  0  0  0
  -31.7304  -28.0683   22.9964 C   0  0  0  0  0  0  0  0  0  0  0  0
  -29.5967  -27.9907   21.7063 C   0  0  0  0  0  0  0  0  0  0  0  0
  -33.4448  -18.8396   28.9240 C   0  0  0  0  0  0  0  0  0  0  0  0
  -34.8173  -19.8139   27.0930 C   0  0  0  0  0  0  0  0  0  0  0  0
  -27.7221  -27.7623   28.2870 C   0  0  0  0  0  0  0  0  0  0  0  0
  -32.5438  -19.2976   25.1099 C   0  0  0  0  0  0  0  0  0  0  0  0
  -32.6480  -18.7018   26.5202 C   0  0  0  0  0  0  0  0  0  0  0  0
  -29.7818  -26.7034   23.8744 C   0  0  1  0  0  0  0  0  0  0  0  0
  -28.8780  -29.1869   26.5919 C   0  0  2  0  0  0  0  0  0  0  0  0
  -32.6408  -20.9566   27.8034 C   0  0  1  0  0  0  0  0  0  1  0  0
  -30.5452  -27.1622   22.6000 C   0  0  0  0  0  0  0  0  0  0  0  0
  -33.3645  -19.5934   27.5761 C   0  0  0  0  0  0  0  0  0  0  0  0
  -25.8072  -11.5300   20.3309 N   0  0  0  0  0  0  0  0  0  0  0  0
  -26.2083  -12.8031   20.1747 N   0  0  0  0  0  0  0  0  0  0  0  0
  -28.6680  -24.5064   24.1125 N   0  0  0  0  0  0  0  0  0  0  0  0
  -29.9485  -13.5328   20.4226 N   0  0  0  0  0  0  0  0  0  0  0  0
  -25.4766  -15.0491   20.3504 N   0  0  0  0  0  0  0  0  0  0  0  0
  -21.8304  -12.6686   21.5482 N   0  0  0  0  0  0  0  0  0  0  0  0
  -30.0774  -15.6389   21.4761 N   0  0  0  0  0  0  0  0  0  0  0  0
  -27.6883  -22.8237   21.3596 N   0  0  0  0  0  0  0  0  0  0  0  0
  -29.2331  -27.7972   24.6686 N   0  0  0  0  0  0  0  0  0  0  0  0
  -28.5796  -28.9485   28.0324 N   0  3  0  0  0  0  0  0  0  0  0  0
  -22.6474  -14.7867   21.2244 O   0  0  0  0  0  0  0  0  0  0  0  0
  -29.3197  -22.0410   22.8253 O   0  0  0  0  0  0  0  0  0  0  0  0
  -27.7062  -26.2065   22.8392 O   0  0  0  0  0  0  0  0  0  0  0  0
  -30.3536  -27.2742   26.6303 O   0  0  0  0  0  0  0  0  0  0  0  0
  -31.8612  -14.8184   20.2406 O   0  0  0  0  0  0  0  0  0  0  0  0
  -21.4592   -7.1158   21.8000 O   0  0  0  0  0  0  0  0  0  0  0  0
  -31.2946  -20.7197   28.2131 O   0  0  0  0  0  0  0  0  0  1  0  0
  -23.7708   -3.1061   24.7972 F   0  0  0  0  0  0  0  0  0  0  0  0
  -23.7509   -5.8370   20.9310 F   0  0  0  0  0  0  0  0  0  0  0  0
  1  2  1  0  0  0  0
  1  5  2  0  0  0  0
  2  6  2  0  0  0  0
  3 10  2  0  0  0  0
  3 18  1  0  0  0  0
  4 11  1  0  0  0  0
  4 18  2  0  0  0  0
  5 20  1  0  0  0  0
  6 22  1  0  0  0  0
  7 12  2  0  0  0  0
  7 21  1  0  0  0  0
  8  9  2  0  0  0  0
  8 24  1  0  0  0  0
  9 26  1  0  0  0  0
 10 27  1  0  0  0  0
 11 27  2  0  0  0  0
 12 28  1  0  0  0  0
 13 14  2  0  0  0  0
 13 29  1  0  0  0  0
 14 30  1  0  0  0  0
 15 23  1  0  0  0  0
 15 28  2  0  0  0  0
 16 24  2  0  0  0  0
 16 25  1  0  0  0  0
 17 30  2  0  0  0  0
 17 31  1  0  0  0  0
 18 32  1  0  0  0  0
 19 32  1  0  0  0  0
 19 33  2  0  0  0  0
 19 34  1  0  0  0  0
 20 22  2  0  0  0  0
 20 39  1  0  0  0  0
 21 23  2  0  0  0  0
 21 40  1  0  0  0  0
 22 48  1  0  0  0  0
 23 41  1  0  0  0  0
 24 60  1  0  0  0  0
 25 26  2  0  0  0  0
 25 51  1  0  0  0  0
 26 73  1  0  0  0  0
 27 82  1  0  0  0  0
 28 83  1  0  0  0  0
 29 31  2  0  0  0  0
 29 82  1  0  0  0  0
 30 84  1  0  0  0  0
 31 85  1  0  0  0  0
 32 67  2  0  0  0  0
 33 68  1  0  0  0  0
 33 71  1  0  0  0  0
 34 72  1  0  0  0  0
 34 77  2  0  0  0  0
 35 49  1  0  0  0  0
 35 74  1  0  0  0  0
 35 78  2  0  0  0  0
 36 62  1  0  0  0  0
 36 69  1  0  0  0  0
 36 79  2  0  0  0  0
 37 63  1  0  0  0  0
 37 75  1  0  0  0  0
 37 80  2  0  0  0  0
 38 70  1  0  0  0  0
 38 73  1  0  0  0  0
 38 81  2  0  0  0  0
 39 42  1  0  0  0  0
 40 49  1  0  0  0  0
 41 69  1  0  0  0  0
 42 44  1  0  0  0  0
 43 45  1  0  0  0  0
 43 46  1  0  0  0  0
 44 48  1  0  0  0  0
 45 50  1  0  0  0  0
 46 70  1  0  0  0  0
 47 50  1  0  0  0  0
 47 70  1  0  0  0  0
 48 74  1  0  0  0  0
 49 69  1  0  0  0  0
 50 68  1  0  0  0  0
 52 63  1  0  0  0  0
 53 64  1  0  0  0  0
 54 65  1  0  0  0  0
 55 65  1  0  0  0  0
 56 65  1  0  0  0  0
 57 66  1  0  0  0  0
 58 66  1  0  0  0  0
 59 76  1  0  0  0  0
 60 61  1  0  0  0  0
 61 66  1  0  0  0  0
 62 65  1  0  0  0  0
 62 75  1  0  0  0  0
 63 76  1  0  0  0  0
 64 66  1  0  0  0  0
 64 83  1  0  0  0  0
 67 68  1  0  0  0  0
M  CHG  1  76   1
M  ISO  4  38 100  64 101  73 100  83 101
M  END
> <Batch ID>
0137

> <Smiles>
CNC(C)C(=O)NC(C(=O)N1Cc2cc([101O:1][101CH:1](C)C(C)(C)CCc3ccc([100NH:0][100C:0](=O)N4CCCC(n5nc(-c6ccc(Oc7ccc(F)cc7F)cc6)c(C(N)=O)c5N)C4)c(C)c3)ccc2CC1C(=O)NC1CCCc2ccccc21)C(C)(C)C

> <Shape>
0.212

> <Color>
0.202

> <Negative vol penalty>
0.000

$$$$

  -OEChem-04052302423D

 86 94  0     1  0  0  0  0  0999 V2000
  -18.6181  -26.0196   23.1779 C   0  0  0  0  0  0  0  0  0  0  0  0
  -19.4997  -25.7276   22.1420 C   0  0  0  0  0  0  0  0  0  0  0  0
  -27.6844  -13.4683   20.8304 C   0  0  0  0  0  0  0  0  0  0  0  0
  -29.6150  -14.3324   19.6630 C   0  0  0  0  0  0  0  0  0  0  0  0
  -29.8584  -24.6306   18.5149 C   0  0  0  0  0  0  0  0  0  0  0  0
  -18.5027  -27.3280   23.6455 C   0  0  0  0  0  0  0  0  0  0  0  0
  -20.2656  -26.7442   21.5724 C   0  0  0  0  0  0  0  0  0  0  0  0
  -25.9719  -26.2768   19.3986 C   0  0  0  0  0  0  0  0  0  0  0  0
  -29.2811  -23.8001   19.4754 C   0  0  0  0  0  0  0  0  0  0  0  0
  -27.5292  -12.4893   19.8491 C   0  0  0  0  0  0  0  0  0  0  0  0
  -29.4599  -13.3533   18.6817 C   0  0  0  0  0  0  0  0  0  0  0  0
  -26.4737  -26.1178   18.1076 C   0  0  0  0  0  0  0  0  0  0  0  0
  -28.9348   -9.5200   19.0486 C   0  0  0  0  0  0  0  0  0  0  0  0
  -28.6828   -8.2143   19.4697 C   0  0  0  0  0  0  0  0  0  0  0  0
  -26.8027  -28.5022   17.9481 C   0  0  0  0  0  0  0  0  0  0  0  0
  -31.1755  -22.3083   19.3242 C   0  0  0  0  0  0  0  0  0  0  0  0
  -26.5894   -8.2293   18.2636 C   0  0  0  0  0  0  0  0  0  0  0  0
  -28.7273  -14.3900   20.7373 C   0  0  0  0  0  0  0  0  0  0  0  0
  -31.0942  -24.2999   17.9589 C   0  0  0  0  0  0  0  0  0  0  0  0
  -29.6452  -15.3080   22.9332 C   0  0  0  0  0  0  0  0  0  0  0  0
  -19.2747  -28.3594   23.0879 C   0  0  0  0  0  0  0  0  0  0  0  0
  -25.8713  -27.5531   19.9709 C   0  0  0  0  0  0  0  0  0  0  0  0
  -20.1594  -28.0679   22.0321 C   0  0  0  0  0  0  0  0  0  0  0  0
  -26.3016  -28.6745   19.2475 C   0  0  0  0  0  0  0  0  0  0  0  0
  -29.9396  -22.6390   19.8801 C   0  0  0  0  0  0  0  0  0  0  0  0
  -28.4169  -12.4317   18.7748 C   0  0  0  0  0  0  0  0  0  0  0  0
  -26.8865  -27.2308   17.3811 C   0  0  0  0  0  0  0  0  0  0  0  0
  -28.0140  -10.1804   18.2350 C   0  0  0  0  0  0  0  0  0  0  0  0
  -27.5102   -7.5689   19.0772 C   0  0  0  0  0  0  0  0  0  0  0  0
  -31.7527  -23.1388   18.3636 C   0  0  0  0  0  0  0  0  0  0  0  0
  -26.8414   -9.5350   17.8425 C   0  0  0  0  0  0  0  0  0  0  0  0
  -28.8877  -15.4019   21.7503 C   0  0  0  0  0  0  0  0  0  0  0  0
  -29.4738  -16.5242   23.5481 C   0  0  0  0  0  0  0  0  0  0  0  0
  -31.7060  -25.1891   16.9306 C   0  0  0  0  0  0  0  0  0  0  0  0
  -30.4334  -14.2190   23.4315 C   0  0  0  0  0  0  0  0  0  0  0  0
  -23.4760  -29.3533   21.0318 C   0  0  0  0  0  0  0  0  0  0  0  0
  -25.8830  -31.3036   21.9936 C   0  0  0  0  0  0  0  0  0  0  0  0
  -29.1137  -32.3298   21.5988 C   0  0  0  0  0  0  0  0  0  0  0  0
  -28.1334  -21.9778   21.5069 C   0  0  0  0  0  0  0  0  0  0  0  0
  -19.0808  -29.7666   23.5948 C   0  0  0  0  0  0  0  0  0  0  0  0
  -25.3527  -27.7051   21.3746 C   0  0  0  0  0  0  0  0  0  0  0  0
  -26.2333  -30.0642   19.8241 C   0  0  0  0  0  0  0  0  0  0  0  0
  -20.2023  -30.7198   23.1898 C   0  0  0  0  0  0  0  0  0  0  0  0
  -26.3252  -20.1112   23.9407 C   0  0  0  0  0  0  0  0  0  0  0  0
  -20.5314  -30.5585   21.7091 C   0  0  0  0  0  0  0  0  0  0  0  0
  -26.8505  -18.6843   23.7670 C   0  0  0  0  0  0  0  0  0  0  0  0
  -26.2147  -20.8415   22.6036 C   0  0  0  0  0  0  0  0  0  0  0  0
  -27.9642  -19.4137   21.6188 C   0  0  0  0  0  0  0  0  0  0  0  0
  -21.0254  -29.1389   21.4053 C   0  0  1  0  0  0  0  0  0  0  0  0
  -24.8155  -29.1031   21.6649 C   0  0  1  0  0  0  0  0  0  0  0  0
  -28.1542  -18.6598   22.9452 C   0  0  2  0  0  0  0  0  0  0  0  0
  -30.7855  -33.9668   22.5060 C   0  0  0  0  0  0  0  0  0  0  0  0
  -24.4927  -33.5587   20.4798 C   0  0  0  0  0  0  0  0  0  0  0  0
  -26.6232  -34.8671   20.6122 C   0  0  0  0  0  0  0  0  0  0  0  0
  -25.4288  -34.2170   22.7035 C   0  0  0  0  0  0  0  0  0  0  0  0
  -30.3544  -28.4565   14.2455 C   0  0  0  0  0  0  0  0  0  0  0  0
  -28.5686  -26.9054   13.4419 C   0  0  0  0  0  0  0  0  0  0  0  0
  -30.9420  -30.1656   22.4546 C   0  0  0  0  0  0  0  0  0  0  0  0
  -30.9905  -26.4561   16.4832 C   0  0  0  0  0  0  0  0  0  0  0  0
  -30.0642  -26.1568   15.3005 C   0  0  0  0  0  0  0  0  0  0  0  0
  -28.3444  -28.0297   15.6805 C   0  0  0  0  0  0  0  0  0  1  0  0
  -26.6462  -32.4472   21.3703 C   0  0  1  0  0  0  0  0  0  0  0  0
  -30.2291  -32.5548   22.6036 C   0  0  2  0  0  0  0  0  0  0  0  0
  -25.7973  -33.7466   21.2796 C   0  0  0  0  0  0  0  0  0  0  0  0
  -29.3396  -27.3882   14.6895 C   0  0  0  0  0  0  0  0  0  0  0  0
  -28.2802  -16.5842   21.6196 N   0  0  0  0  0  0  0  0  0  0  0  0
  -32.8526  -24.8875   16.4065 N   0  0  0  0  0  0  0  0  0  0  0  0
  -28.6556  -17.2444   22.7283 N   0  0  0  0  0  0  0  0  0  0  0  0
  -25.7129  -30.1618   21.1979 N   0  0  0  0  0  0  0  0  0  0  0  0
  -27.4881  -20.7806   21.8827 N   0  0  0  0  0  0  0  0  0  0  0  0
  -29.9445  -17.0370   24.7048 N   0  0  0  0  0  0  0  0  0  0  0  0
  -30.5012  -13.0418   22.6739 N   0  0  0  0  0  0  0  0  0  0  0  0
  -29.3530  -21.7955   20.8558 N   0  0  0  0  0  0  0  0  0  0  0  0
  -22.4031  -28.9836   21.8203 N   0  0  0  0  0  0  0  0  0  0  0  0
  -27.8744  -32.5886   22.1449 N   0  0  0  0  0  0  0  0  0  0  0  0
  -31.3426  -31.5934   22.3654 N   0  3  0  0  0  0  0  0  0  0  0  0
  -31.0458  -14.2817   24.5245 O   0  0  0  0  0  0  0  0  0  0  0  0
  -23.4200  -29.8466   19.9114 O   0  0  0  0  0  0  0  0  0  0  0  0
  -25.4596  -31.4164   23.1467 O   0  0  0  0  0  0  0  0  0  0  0  0
  -29.3214  -31.9649   20.4437 O   0  0  0  0  0  0  0  0  0  0  0  0
  -27.6536  -23.0836   21.7693 O   0  0  0  0  0  0  0  0  0  0  0  0
  -28.2660  -11.4763   17.8172 O   0  0  0  0  0  0  0  0  0  0  0  0
  -27.3761  -27.0784   16.1206 O   0  0  0  0  0  0  0  0  0  1  0  0
  -27.2691   -6.3146   19.4804 F   0  0  0  0  0  0  0  0  0  0  0  0
  -32.9408  -22.8108   17.8357 F   0  0  0  0  0  0  0  0  0  0  0  0
  -25.9537  -10.1638   17.0600 F   0  0  0  0  0  0  0  0  0  0  0  0
  1  2  1  0  0  0  0
  1  6  2  0  0  0  0
  2  7  2  0  0  0  0
  3 10  2  0  0  0  0
  3 18  1  0  0  0  0
  4 11  1  0  0  0  0
  4 18  2  0  0  0  0
  5  9  2  0  0  0  0
  5 19  1  0  0  0  0
  6 21  1  0  0  0  0
  7 23  1  0  0  0  0
  8 12  2  0  0  0  0
  8 22  1  0  0  0  0
  9 25  1  0  0  0  0
 10 26  1  0  0  0  0
 11 26  2  0  0  0  0
 12 27  1  0  0  0  0
 13 14  2  0  0  0  0
 13 28  1  0  0  0  0
 14 29  1  0  0  0  0
 15 24  1  0  0  0  0
 15 27  2  0  0  0  0
 16 25  2  0  0  0  0
 16 30  1  0  0  0  0
 17 29  2  0  0  0  0
 17 31  1  0  0  0  0
 18 32  1  0  0  0  0
 19 30  2  0  0  0  0
 19 34  1  0  0  0  0
 20 32  1  0  0  0  0
 20 33  2  0  0  0  0
 20 35  1  0  0  0  0
 21 23  2  0  0  0  0
 21 40  1  0  0  0  0
 22 24  2  0  0  0  0
 22 41  1  0  0  0  0
 23 49  1  0  0  0  0
 24 42  1  0  0  0  0
 25 73  1  0  0  0  0
 26 82  1  0  0  0  0
 27 83  1  0  0  0  0
 28 31  2  0  0  0  0
 28 82  1  0  0  0  0
 29 84  1  0  0  0  0
 30 85  1  0  0  0  0
 31 86  1  0  0  0  0
 32 66  2  0  0  0  0
 33 68  1  0  0  0  0
 33 71  1  0  0  0  0
 34 59  1  0  0  0  0
 34 67  2  0  0  0  0
 35 72  1  0  0  0  0
 35 77  2  0  0  0  0
 36 50  1  0  0  0  0
 36 74  1  0  0  0  0
 36 78  2  0  0  0  0
 37 62  1  0  0  0  0
 37 69  1  0  0  0  0
 37 79  2  0  0  0  0
 38 63  1  0  0  0  0
 38 75  1  0  0  0  0
 38 80  2  0  0  0  0
 39 70  1  0  0  0  0
 39 73  1  0  0  0  0
 39 81  2  0  0  0  0
 40 43  1  0  0  0  0
 41 50  1  0  0  0  0
 42 69  1  0  0  0  0
 43 45  1  0  0  0  0
 44 46  1  0  0  0  0
 44 47  1  0  0  0  0
 45 49  1  0  0  0  0
 46 51  1  0  0  0  0
 47 70  1  0  0  0  0
 48 51  1  0  0  0  0
 48 70  1  0  0  0  0
 49 74  1  0  0  0  0
 50 69  1  0  0  0  0
 51 68  1  0  0  0  0
 52 63  1  0  0  0  0
 53 64  1  0  0  0  0
 54 64  1  0  0  0  0
 55 64  1  0  0  0  0
 56 65  1  0  0  0  0
 57 65  1  0  0  0  0
 58 76  1  0  0  0  0
 59 60  1  0  0  0  0
 60 65  1  0  0  0  0
 61 65  1  0  0  0  0
 61 83  1  0  0  0  0
 62 64  1  0  0  0  0
 62 75  1  0  0  0  0
 63 76  1  0  0  0  0
 66 68  1  0  0  0  0
M  CHG  1  76   1
M  ISO  4  39 100  61 101  73 100  83 101
M  END
> <Batch ID>
0137

> <Smiles>
CNC(C)C(=O)NC(C(=O)N1Cc2cc([101O:1][101CH2:1]C(C)(C)CCC(=N)c3ccc([100NH:0][100C:0](=O)N4CCCC(n5nc(-c6ccc(Oc7ccc(F)cc7F)cc6)c(C(N)=O)c5N)C4)cc3F)ccc2CC1C(=O)NC1CCCc2ccccc21)C(C)(C)C

> <Shape>
0.238

> <Color>
0.039

> <Negative vol penalty>
0.000

$$$$

  -OEChem-04052302423D

 86 95  0     1  0  0  0  0  0999 V2000
  -28.6238  -24.3371   16.7316 C   0  0  0  0  0  0  0  0  0  0  0  0
  -27.4256  -24.4650   17.4268 C   0  0  0  0  0  0  0  0  0  0  0  0
  -27.7503  -13.1416   20.2332 C   0  0  0  0  0  0  0  0  0  0  0  0
  -27.7904  -14.3799   22.3073 C   0  0  0  0  0  0  0  0  0  0  0  0
  -18.1515  -21.1531   23.5918 C   0  0  0  0  0  0  0  0  0  0  0  0
  -29.7842  -24.9278   17.2301 C   0  0  0  0  0  0  0  0  0  0  0  0
  -27.3874  -25.1829   18.6217 C   0  0  0  0  0  0  0  0  0  0  0  0
  -23.4054  -28.3002   18.8885 C   0  0  0  0  0  0  0  0  0  0  0  0
  -18.4029  -19.7885   23.7336 C   0  0  0  0  0  0  0  0  0  0  0  0
  -29.0389  -12.6727   20.4882 C   0  0  0  0  0  0  0  0  0  0  0  0
  -29.0791  -13.9109   22.5624 C   0  0  0  0  0  0  0  0  0  0  0  0
  -22.1711  -27.7313   19.1993 C   0  0  0  0  0  0  0  0  0  0  0  0
  -32.4581  -11.4366   20.4201 C   0  0  0  0  0  0  0  0  0  0  0  0
  -33.3775  -11.4593   19.3714 C   0  0  0  0  0  0  0  0  0  0  0  0
  -19.6964  -21.2450   21.7366 C   0  0  0  0  0  0  0  0  0  0  0  0
  -22.4211  -28.4533   21.4874 C   0  0  0  0  0  0  0  0  0  0  0  0
  -33.1262  -13.8563   19.2029 C   0  0  0  0  0  0  0  0  0  0  0  0
  -27.1260  -13.9953   21.1427 C   0  0  0  0  0  0  0  0  0  0  0  0
  -18.7983  -21.8814   22.5932 C   0  0  0  0  0  0  0  0  0  0  0  0
  -24.5804  -13.8802   21.2617 C   0  0  0  0  0  0  0  0  0  0  0  0
  -29.7582  -25.6614   18.4266 C   0  0  0  0  0  0  0  0  0  0  0  0
  -24.1631  -28.9415   19.8790 C   0  0  0  0  0  0  0  0  0  0  0  0
  -28.5488  -25.7829   19.1373 C   0  0  0  0  0  0  0  0  0  0  0  0
  -23.6635  -29.0318   21.1861 C   0  0  0  0  0  0  0  0  0  0  0  0
  -19.3011  -19.1521   22.8770 C   0  0  0  0  0  0  0  0  0  0  0  0
  -19.9479  -19.8803   21.8784 C   0  0  0  0  0  0  0  0  0  0  0  0
  -29.7033  -13.0573   21.6527 C   0  0  0  0  0  0  0  0  0  0  0  0
  -21.6801  -27.8052   20.4995 C   0  0  0  0  0  0  0  0  0  0  0  0
  -31.8727  -12.6238   20.8602 C   0  0  0  0  0  0  0  0  0  0  0  0
  -33.7116  -12.6691   18.7628 C   0  0  0  0  0  0  0  0  0  0  0  0
  -32.2068  -13.8336   20.2516 C   0  0  0  0  0  0  0  0  0  0  0  0
  -25.7951  -14.4805   20.8796 C   0  0  0  0  0  0  0  0  0  0  0  0
  -23.6123  -14.7254   20.7769 C   0  0  0  0  0  0  0  0  0  0  0  0
  -17.2514  -23.6649   22.1858 C   0  0  0  0  0  0  0  0  0  0  0  0
  -18.5301  -23.3282   22.4438 C   0  0  0  0  0  0  0  0  0  0  0  0
  -19.5627  -24.3730   22.5702 C   0  0  0  0  0  0  0  0  0  0  0  0
  -19.3097  -25.6337   22.1451 C   0  0  0  0  0  0  0  0  0  0  0  0
  -24.3479  -12.6672   21.9899 C   0  0  0  0  0  0  0  0  0  0  0  0
  -27.0257  -28.4625   21.1751 C   0  0  0  0  0  0  0  0  0  0  0  0
  -26.3871  -31.2693   22.6706 C   0  0  0  0  0  0  0  0  0  0  0  0
  -24.0495  -33.4914   23.7863 C   0  0  0  0  0  0  0  0  0  0  0  0
  -21.5797  -19.8443   19.9595 C   0  0  0  0  0  0  0  0  0  0  0  0
  -31.0478  -26.2421   18.9503 C   0  0  0  0  0  0  0  0  0  0  0  0
  -25.4804  -29.5735   19.5217 C   0  0  0  0  0  0  0  0  0  0  0  0
  -24.4288  -29.7270   22.2813 C   0  0  0  0  0  0  0  0  0  0  0  0
  -16.8129  -25.0808   21.9863 C   0  0  0  0  0  0  0  0  0  0  0  0
  -17.9550  -26.0163   21.5861 C   0  0  0  0  0  0  0  0  0  0  0  0
  -30.8445  -27.3020   20.0299 C   0  0  0  0  0  0  0  0  0  0  0  0
  -23.9557  -18.6461   17.5939 C   0  0  0  0  0  0  0  0  0  0  0  0
  -29.8326  -26.8220   21.0655 C   0  0  0  0  0  0  0  0  0  0  0  0
  -24.5461  -17.4062   18.2692 C   0  0  0  0  0  0  0  0  0  0  0  0
  -23.6595  -19.7545   18.6026 C   0  0  0  0  0  0  0  0  0  0  0  0
  -23.4215  -18.1091   20.4205 C   0  0  0  0  0  0  0  0  0  0  0  0
  -28.4619  -26.5746   20.4241 C   0  0  1  0  0  0  0  0  0  0  0  0
  -26.4025  -29.7531   20.7237 C   0  0  1  0  0  0  0  0  0  0  0  0
  -23.6760  -16.9413   19.4535 C   0  0  2  0  0  0  0  0  0  0  0  0
  -19.5521  -17.6895   23.0529 C   0  0  0  0  0  0  0  0  0  0  0  0
  -20.8687  -23.9433   23.1912 C   0  0  0  0  0  0  0  0  0  0  0  0
  -23.8301  -35.6744   25.0044 C   0  0  0  0  0  0  0  0  0  0  0  0
  -26.9763  -29.8538   25.3086 C   0  0  0  0  0  0  0  0  0  0  0  0
  -25.8444  -31.7451   26.4960 C   0  0  0  0  0  0  0  0  0  0  0  0
  -27.8950  -32.1739   25.1417 C   0  0  0  0  0  0  0  0  0  0  0  0
  -22.7419  -34.7862   21.4684 C   0  0  0  0  0  0  0  0  0  0  0  0
  -20.3043  -26.7639   22.1362 C   0  0  0  0  0  0  0  0  0  1  0  0
  -25.7166  -31.6629   23.9646 C   0  0  1  0  0  0  0  0  0  0  0  0
  -23.9457  -34.9994   23.6465 C   0  0  2  0  0  0  0  0  0  0  0  0
  -26.5943  -31.3440   25.2077 C   0  0  0  0  0  0  0  0  0  0  0  0
  -25.6175  -15.6189   20.2040 N   0  0  0  0  0  0  0  0  0  0  0  0
  -24.2799  -15.7407   20.1577 N   0  0  0  0  0  0  0  0  0  0  0  0
  -25.7146  -30.3237   21.8836 N   0  0  0  0  0  0  0  0  0  0  0  0
  -22.8276  -19.2420   19.6934 N   0  0  0  0  0  0  0  0  0  0  0  0
  -22.2636  -14.6915   20.8241 N   0  0  0  0  0  0  0  0  0  0  0  0
  -25.4552  -11.9198   22.4138 N   0  0  0  0  0  0  0  0  0  0  0  0
  -20.8630  -19.2512   20.9983 N   0  0  0  0  0  0  0  0  0  0  0  0
  -27.7742  -27.8285   20.2019 N   0  0  0  0  0  0  0  0  0  0  0  0
  -25.3622  -33.0715   23.8287 N   0  0  0  0  0  0  0  0  0  0  0  0
  -22.7484  -35.3634   22.8372 N   0  3  0  0  0  0  0  0  0  0  0  0
  -23.1923  -12.2497   22.2425 O   0  0  0  0  0  0  0  0  0  0  0  0
  -26.8423  -28.0717   22.3220 O   0  0  0  0  0  0  0  0  0  0  0  0
  -27.4644  -31.7873   22.3657 O   0  0  0  0  0  0  0  0  0  0  0  0
  -23.0646  -32.7594   23.8549 O   0  0  0  0  0  0  0  0  0  0  0  0
  -21.1646  -20.7976   19.2956 O   0  0  0  0  0  0  0  0  0  0  0  0
  -30.9607  -12.5997   21.9020 O   0  0  0  0  0  0  0  0  0  0  0  0
  -20.4759  -27.2501   20.8056 O   0  0  0  0  0  0  0  0  0  1  0  0
  -34.5956  -12.6909   17.7567 F   0  0  0  0  0  0  0  0  0  0  0  0
  -31.6485  -14.9775   20.6708 F   0  0  0  0  0  0  0  0  0  0  0  0
  1  2  1  0  0  0  0
  1  6  2  0  0  0  0
  2  7  2  0  0  0  0
  3 10  2  0  0  0  0
  3 18  1  0  0  0  0
  4 11  1  0  0  0  0
  4 18  2  0  0  0  0
  5  9  2  0  0  0  0
  5 19  1  0  0  0  0
  6 21  1  0  0  0  0
  7 23  1  0  0  0  0
  8 12  2  0  0  0  0
  8 22  1  0  0  0  0
  9 25  1  0  0  0  0
 10 27  1  0  0  0  0
 11 27  2  0  0  0  0
 12 28  1  0  0  0  0
 13 14  2  0  0  0  0
 13 29  1  0  0  0  0
 14 30  1  0  0  0  0
 15 19  2  0  0  0  0
 15 26  1  0  0  0  0
 16 24  1  0  0  0  0
 16 28  2  0  0  0  0
 17 30  2  0  0  0  0
 17 31  1  0  0  0  0
 18 32  1  0  0  0  0
 19 35  1  0  0  0  0
 20 32  1  0  0  0  0
 20 33  2  0  0  0  0
 20 38  1  0  0  0  0
 21 23  2  0  0  0  0
 21 43  1  0  0  0  0
 22 24  2  0  0  0  0
 22 44  1  0  0  0  0
 23 54  1  0  0  0  0
 24 45  1  0  0  0  0
 25 26  2  0  0  0  0
 25 57  1  0  0  0  0
 26 74  1  0  0  0  0
 27 83  1  0  0  0  0
 28 84  1  0  0  0  0
 29 31  2  0  0  0  0
 29 83  1  0  0  0  0
 30 85  1  0  0  0  0
 31 86  1  0  0  0  0
 32 68  2  0  0  0  0
 33 69  1  0  0  0  0
 33 72  1  0  0  0  0
 34 35  2  0  0  0  0
 34 46  1  0  0  0  0
 35 36  1  0  0  0  0
 36 37  2  0  0  0  0
 36 58  1  0  0  0  0
 37 47  1  0  0  0  0
 37 64  1  0  0  0  0
 38 73  1  0  0  0  0
 38 78  2  0  0  0  0
 39 55  1  0  0  0  0
 39 75  1  0  0  0  0
 39 79  2  0  0  0  0
 40 65  1  0  0  0  0
 40 70  1  0  0  0  0
 40 80  2  0  0  0  0
 41 66  1  0  0  0  0
 41 76  1  0  0  0  0
 41 81  2  0  0  0  0
 42 71  1  0  0  0  0
 42 74  1  0  0  0  0
 42 82  2  0  0  0  0
 43 48  1  0  0  0  0
 44 55  1  0  0  0  0
 45 70  1  0  0  0  0
 46 47  1  0  0  0  0
 48 50  1  0  0  0  0
 49 51  1  0  0  0  0
 49 52  1  0  0  0  0
 50 54  1  0  0  0  0
 51 56  1  0  0  0  0
 52 71  1  0  0  0  0
 53 56  1  0  0  0  0
 53 71  1  0  0  0  0
 54 75  1  0  0  0  0
 55 70  1  0  0  0  0
 56 69  1  0  0  0  0
 59 66  1  0  0  0  0
 60 67  1  0  0  0  0
 61 67  1  0  0  0  0
 62 67  1  0  0  0  0
 63 77  1  0  0  0  0
 64 84  1  0  0  0  0
 65 67  1  0  0  0  0
 65 76  1  0  0  0  0
 66 77  1  0  0  0  0
 68 69  1  0  0  0  0
M  CHG  1  77   1
M  ISO  4  42 100  64 101  74 100  84 101
M  END
> <Batch ID>
0137

> <Smiles>
CNC(C)C(=O)NC(C(=O)N1Cc2cc([101O:1][101CH2:1]C3=C(C)C(c4ccc(C)c([100NH:0][100C:0](=O)N5CCCC(n6nc(-c7ccc(Oc8ccc(F)cc8F)cc7)c(C(N)=O)c6N)C5)c4)=CCC3)ccc2CC1C(=O)NC1CCCc2ccccc21)C(C)(C)C

> <Shape>
0.273

> <Color>
0.085

> <Negative vol penalty>
0.000

$$$$

  -OEChem-04052302423D

 85 93  0     1  0  0  0  0  0999 V2000
  -28.3195  -34.0206   24.5381 C   0  0  0  0  0  0  0  0  0  0  0  0
  -28.4303  -32.7476   23.9879 C   0  0  0  0  0  0  0  0  0  0  0  0
  -24.5709   -9.2359   21.8085 C   0  0  0  0  0  0  0  0  0  0  0  0
  -23.3348  -10.8861   23.0679 C   0  0  0  0  0  0  0  0  0  0  0  0
  -27.1214  -34.4223   25.1272 C   0  0  0  0  0  0  0  0  0  0  0  0
  -27.3432  -31.8752   24.0275 C   0  0  0  0  0  0  0  0  0  0  0  0
  -26.5885  -29.5101   19.6137 C   0  0  0  0  0  0  0  0  0  0  0  0
  -25.5998  -21.9005   19.3268 C   0  0  0  0  0  0  0  0  0  0  0  0
  -24.8213  -20.8519   18.8372 C   0  0  0  0  0  0  0  0  0  0  0  0
  -24.1005   -8.2349   22.6584 C   0  0  0  0  0  0  0  0  0  0  0  0
  -22.8644   -9.8850   23.9178 C   0  0  0  0  0  0  0  0  0  0  0  0
  -27.4284  -28.4385   19.3138 C   0  0  0  0  0  0  0  0  0  0  0  0
  -21.2594   -6.4485   23.0700 C   0  0  0  0  0  0  0  0  0  0  0  0
  -20.7955   -5.2689   22.4878 C   0  0  0  0  0  0  0  0  0  0  0  0
  -25.7049  -26.9008   20.0097 C   0  0  0  0  0  0  0  0  0  0  0  0
  -27.2469  -20.3139   20.1059 C   0  0  0  0  0  0  0  0  0  0  0  0
  -22.4706   -4.0143   23.6949 C   0  0  0  0  0  0  0  0  0  0  0  0
  -24.1881  -10.5615   22.0133 C   0  0  0  0  0  0  0  0  0  0  0  0
  -24.0743  -12.0541   19.9477 C   0  0  0  0  0  0  0  0  0  0  0  0
  -26.0161  -33.5579   25.1654 C   0  0  0  0  0  0  0  0  0  0  0  0
  -25.3023  -29.2850   20.1250 C   0  0  0  0  0  0  0  0  0  0  0  0
  -26.1296  -32.2653   24.6189 C   0  0  0  0  0  0  0  0  0  0  0  0
  -24.8497  -27.9713   20.3129 C   0  0  0  0  0  0  0  0  0  0  0  0
  -26.8127  -21.6315   19.9612 C   0  0  0  0  0  0  0  0  0  0  0  0
  -25.2555  -19.5342   18.9819 C   0  0  0  0  0  0  0  0  0  0  0  0
  -26.4683  -19.2652   19.6162 C   0  0  0  0  0  0  0  0  0  0  0  0
  -23.2472   -8.5594   23.7130 C   0  0  0  0  0  0  0  0  0  0  0  0
  -26.9877  -27.1337   19.5145 C   0  0  0  0  0  0  0  0  0  0  0  0
  -22.3290   -6.4110   23.9646 C   0  0  0  0  0  0  0  0  0  0  0  0
  -21.4010   -4.0518   22.8002 C   0  0  0  0  0  0  0  0  0  0  0  0
  -22.9345   -5.1939   24.2771 C   0  0  0  0  0  0  0  0  0  0  0  0
  -24.6741  -11.5961   21.1361 C   0  0  0  0  0  0  0  0  0  0  0  0
  -24.9200  -13.0361   19.4926 C   0  0  0  0  0  0  0  0  0  0  0  0
  -22.8612  -11.6299   19.3120 C   0  0  0  0  0  0  0  0  0  0  0  0
  -23.8033  -30.0202   22.8298 C   0  0  0  0  0  0  0  0  0  0  0  0
  -21.2384  -28.7608   21.2944 C   0  0  0  0  0  0  0  0  0  0  0  0
  -20.0507  -26.6718   18.8711 C   0  0  0  0  0  0  0  0  0  0  0  0
  -28.6189  -25.6631   20.2926 C   0  0  0  0  0  0  0  0  0  1  0  0
  -28.1096  -17.5131   20.3793 C   0  0  0  0  0  0  0  0  0  0  0  0
  -24.7568  -34.0198   25.8550 C   0  0  0  0  0  0  0  0  0  0  0  0
  -24.3988  -30.4512   20.4183 C   0  0  0  0  0  0  0  0  0  0  0  0
  -23.4703  -27.6755   20.8403 C   0  0  0  0  0  0  0  0  0  0  0  0
  -23.5333  -33.1695   25.5225 C   0  0  0  0  0  0  0  0  0  0  0  0
  -29.5778  -14.3283   20.9948 C   0  0  0  0  0  0  0  0  0  0  0  0
  -23.8712  -31.6854   25.6235 C   0  0  0  0  0  0  0  0  0  0  0  0
  -28.3836  -13.3713   20.9887 C   0  0  0  0  0  0  0  0  0  0  0  0
  -29.2231  -15.6738   21.6253 C   0  0  0  0  0  0  0  0  0  0  0  0
  -26.8459  -15.3759   21.0511 C   0  0  0  0  0  0  0  0  0  0  0  0
  -24.9648  -31.2991   24.6203 C   0  0  1  0  0  0  0  0  0  0  0  0
  -23.2966  -30.1164   21.4185 C   0  0  1  0  0  0  0  0  0  0  0  0
  -27.1366  -14.0301   20.3670 C   0  0  2  0  0  0  0  0  0  0  0  0
  -24.4005  -18.4309   18.4484 C   0  0  0  0  0  0  0  0  0  0  0  0
  -17.9077  -25.8229   17.8790 C   0  0  0  0  0  0  0  0  0  0  0  0
  -30.3910  -24.9368   18.7025 C   0  0  0  0  0  0  0  0  0  0  0  0
  -30.4245  -24.0920   21.0482 C   0  0  0  0  0  0  0  0  0  0  0  0
  -20.8448  -26.9385   23.7099 C   0  0  0  0  0  0  0  0  0  0  0  0
  -19.3441  -25.5125   22.3019 C   0  0  0  0  0  0  0  0  0  0  0  0
  -18.7331  -27.8866   22.7632 C   0  0  0  0  0  0  0  0  0  0  0  0
  -20.7070  -27.7848   16.2085 C   0  0  0  0  0  0  0  0  0  0  0  0
  -27.6542  -22.7664   20.4903 C   0  0  0  0  0  0  0  0  0  0  0  0
  -28.6430  -23.2731   19.4305 C   0  0  0  0  0  0  0  0  0  0  0  0
  -20.6346  -27.3823   21.1751 C   0  0  1  0  0  0  0  0  0  0  0  0
  -19.0029  -26.8744   17.7915 C   0  0  2  0  0  0  0  0  0  0  0  0
  -29.5060  -24.4811   19.8766 C   0  0  0  0  0  0  0  0  0  0  0  0
  -19.9159  -26.9353   22.4794 C   0  0  0  0  0  0  0  0  0  0  0  0
  -25.8129  -12.2345   21.4182 N   0  0  0  0  0  0  0  0  0  0  0  0
  -25.9355  -13.1037   20.4006 N   0  0  0  0  0  0  0  0  0  0  0  0
  -22.6265  -28.8495   21.1181 N   0  0  0  0  0  0  0  0  0  0  0  0
  -28.0348  -16.2401   20.9832 N   0  0  0  0  0  0  0  0  0  0  0  0
  -24.8866  -13.8397   18.4084 N   0  0  0  0  0  0  0  0  0  0  0  0
  -22.1131  -10.6090   19.9139 N   0  0  0  0  0  0  0  0  0  0  0  0
  -26.9268  -17.9336   19.7722 N   0  0  0  0  0  0  0  0  0  0  0  0
  -24.4090  -31.1738   23.2900 N   0  0  0  0  0  0  0  0  0  0  0  0
  -19.7723  -27.4148   19.9988 N   0  0  0  0  0  0  0  0  0  0  0  0
  -19.6277  -26.7908   16.4411 N   0  3  0  0  0  0  0  0  0  0  0  0
  -22.4612  -12.1297   18.2332 O   0  0  0  0  0  0  0  0  0  0  0  0
  -23.6543  -28.9771   23.4554 O   0  0  0  0  0  0  0  0  0  0  0  0
  -20.5045  -29.7243   21.5280 O   0  0  0  0  0  0  0  0  0  0  0  0
  -21.0173  -25.9260   18.7297 O   0  0  0  0  0  0  0  0  0  0  0  0
  -28.6210  -26.1761   21.4055 O   0  0  0  0  0  0  0  0  0  0  0  0
  -29.1543  -18.1692   20.3757 O   0  0  0  0  0  0  0  0  0  0  0  0
  -22.7879   -7.5829   24.5424 O   0  0  0  0  0  0  0  0  0  0  0  0
  -27.8057  -26.0859   19.2232 O   0  0  0  0  0  0  0  0  0  1  0  0
  -20.9545   -2.9190   22.2423 F   0  0  0  0  0  0  0  0  0  0  0  0
  -23.9617   -5.1515   25.1367 F   0  0  0  0  0  0  0  0  0  0  0  0
  1  2  1  0  0  0  0
  1  5  2  0  0  0  0
  2  6  2  0  0  0  0
  3 10  2  0  0  0  0
  3 18  1  0  0  0  0
  4 11  1  0  0  0  0
  4 18  2  0  0  0  0
  5 20  1  0  0  0  0
  6 22  1  0  0  0  0
  7 12  2  0  0  0  0
  7 21  1  0  0  0  0
  8  9  2  0  0  0  0
  8 24  1  0  0  0  0
  9 25  1  0  0  0  0
 10 27  1  0  0  0  0
 11 27  2  0  0  0  0
 12 28  1  0  0  0  0
 13 14  2  0  0  0  0
 13 29  1  0  0  0  0
 14 30  1  0  0  0  0
 15 23  1  0  0  0  0
 15 28  2  0  0  0  0
 16 24  2  0  0  0  0
 16 26  1  0  0  0  0
 17 30  2  0  0  0  0
 17 31  1  0  0  0  0
 18 32  1  0  0  0  0
 19 32  1  0  0  0  0
 19 33  2  0  0  0  0
 19 34  1  0  0  0  0
 20 22  2  0  0  0  0
 20 40  1  0  0  0  0
 21 23  2  0  0  0  0
 21 41  1  0  0  0  0
 22 49  1  0  0  0  0
 23 42  1  0  0  0  0
 24 60  1  0  0  0  0
 25 26  2  0  0  0  0
 25 52  1  0  0  0  0
 26 72  1  0  0  0  0
 27 82  1  0  0  0  0
 28 83  1  0  0  0  0
 29 31  2  0  0  0  0
 29 82  1  0  0  0  0
 30 84  1  0  0  0  0
 31 85  1  0  0  0  0
 32 66  2  0  0  0  0
 33 67  1  0  0  0  0
 33 70  1  0  0  0  0
 34 71  1  0  0  0  0
 34 76  2  0  0  0  0
 35 50  1  0  0  0  0
 35 73  1  0  0  0  0
 35 77  2  0  0  0  0
 36 62  1  0  0  0  0
 36 68  1  0  0  0  0
 36 78  2  0  0  0  0
 37 63  1  0  0  0  0
 37 74  1  0  0  0  0
 37 79  2  0  0  0  0
 38 64  1  0  0  0  0
 38 80  2  0  0  0  0
 38 83  1  0  0  0  0
 39 69  1  0  0  0  0
 39 72  1  0  0  0  0
 39 81  2  0  0  0  0
 40 43  1  0  0  0  0
 41 50  1  0  0  0  0
 42 68  1  0  0  0  0
 43 45  1  0  0  0  0
 44 46  1  0  0  0  0
 44 47  1  0  0  0  0
 45 49  1  0  0  0  0
 46 51  1  0  0  0  0
 47 69  1  0  0  0  0
 48 51  1  0  0  0  0
 48 69  1  0  0  0  0
 49 73  1  0  0  0  0
 50 68  1  0  0  0  0
 51 67  1  0  0  0  0
 53 63  1  0  0  0  0
 54 64  1  0  0  0  0
 55 64  1  0  0  0  0
 56 65  1  0  0  0  0
 57 65  1  0  0  0  0
 58 65  1  0  0  0  0
 59 75  1  0  0  0  0
 60 61  1  0  0  0  0
 61 64  1  0  0  0  0
 62 65  1  0  0  0  0
 62 74  1  0  0  0  0
 63 75  1  0  0  0  0
 66 67  1  0  0  0  0
M  CHG  1  75   1
M  ISO  4  38 101  39 100  72 100  83 101
M  END
> <Batch ID>
0137

> <Smiles>
CNC(C)C(=O)NC(C(=O)N1Cc2cc([101O:1][101C:1](=O)C(C)(C)CCc3ccc(C)c([100NH:0][100C:0](=O)N4CCCC(n5nc(-c6ccc(Oc7ccc(F)cc7F)cc6)c(C(N)=O)c5N)C4)c3)ccc2CC1C(=O)NC1CCCc2ccccc21)C(C)(C)C

> <Shape>
0.329

> <Color>
0.088

> <Negative vol penalty>
0.000

$$$$

  -OEChem-04052302423D

 86 94  0     1  0  0  0  0  0999 V2000
  -31.0118  -25.7223   17.8705 C   0  0  0  0  0  0  0  0  0  0  0  0
  -29.6346  -25.5727   17.9974 C   0  0  0  0  0  0  0  0  0  0  0  0
  -24.1174  -13.6026   21.8352 C   0  0  0  0  0  0  0  0  0  0  0  0
  -25.0177  -14.1083   19.6510 C   0  0  0  0  0  0  0  0  0  0  0  0
  -31.7360  -26.3742   18.8677 C   0  0  0  0  0  0  0  0  0  0  0  0
  -28.9807  -26.0741   19.1224 C   0  0  0  0  0  0  0  0  0  0  0  0
  -23.3534  -28.4806   19.3426 C   0  0  0  0  0  0  0  0  0  0  0  0
  -24.1956  -23.3711   20.8700 C   0  0  0  0  0  0  0  0  0  0  0  0
  -24.4883  -12.2671   21.6788 C   0  0  0  0  0  0  0  0  0  0  0  0
  -25.3887  -12.7728   19.4947 C   0  0  0  0  0  0  0  0  0  0  0  0
  -22.1196  -27.9484   19.7142 C   0  0  0  0  0  0  0  0  0  0  0  0
  -23.3238  -23.9529   21.7904 C   0  0  0  0  0  0  0  0  0  0  0  0
  -23.3244   -9.5310   20.0715 C   0  0  0  0  0  0  0  0  0  0  0  0
  -22.3939   -8.5548   20.4274 C   0  0  0  0  0  0  0  0  0  0  0  0
  -21.4381  -23.1818   20.4916 C   0  0  0  0  0  0  0  0  0  0  0  0
  -22.3997  -28.8616   21.9293 C   0  0  0  0  0  0  0  0  0  0  0  0
  -23.9420   -7.6744   22.0601 C   0  0  0  0  0  0  0  0  0  0  0  0
  -24.3821  -14.5232   20.8212 C   0  0  0  0  0  0  0  0  0  0  0  0
  -22.3099  -22.6001   19.5712 C   0  0  0  0  0  0  0  0  0  0  0  0
  -24.7698  -16.9400   21.5398 C   0  0  0  0  0  0  0  0  0  0  0  0
  -31.0894  -26.8923   20.0009 C   0  0  0  0  0  0  0  0  0  0  0  0
  -24.1259  -29.1992   20.2663 C   0  0  0  0  0  0  0  0  0  0  0  0
  -29.6971  -26.7324   20.1364 C   0  0  0  0  0  0  0  0  0  0  0  0
  -23.6418  -29.4041   21.5662 C   0  0  0  0  0  0  0  0  0  0  0  0
  -23.6887  -22.6947   19.7604 C   0  0  0  0  0  0  0  0  0  0  0  0
  -25.1240  -11.8522   20.5086 C   0  0  0  0  0  0  0  0  0  0  0  0
  -21.9451  -23.8583   21.6012 C   0  0  0  0  0  0  0  0  0  0  0  0
  -21.6438  -28.1364   21.0086 C   0  0  0  0  0  0  0  0  0  0  0  0
  -24.5638   -9.5789   20.7098 C   0  0  0  0  0  0  0  0  0  0  0  0
  -22.7027   -7.6265   21.4217 C   0  0  0  0  0  0  0  0  0  0  0  0
  -24.8726   -8.6506   21.7041 C   0  0  0  0  0  0  0  0  0  0  0  0
  -23.9986  -15.9028   20.9819 C   0  0  0  0  0  0  0  0  0  0  0  0
  -23.9621  -18.0482   21.4625 C   0  0  0  0  0  0  0  0  0  0  0  0
  -21.7539  -21.8994   18.4216 C   0  0  0  0  0  0  0  0  0  0  0  0
  -26.0977  -16.9049   22.0795 C   0  0  0  0  0  0  0  0  0  0  0  0
  -20.4389  -21.2223   18.4955 C   0  0  0  0  0  0  0  0  0  0  0  0
  -27.0004  -28.8140   21.5674 C   0  0  0  0  0  0  0  0  0  0  0  0
  -26.3946  -31.7424   22.8242 C   0  0  0  0  0  0  0  0  0  0  0  0
  -24.0823  -34.0670   23.7711 C   0  0  0  0  0  0  0  0  0  0  0  0
  -31.9209  -27.5477   21.0750 C   0  0  0  0  0  0  0  0  0  0  0  0
  -25.4426  -29.7897   19.8419 C   0  0  0  0  0  0  0  0  0  0  0  0
  -24.4234  -30.1854   22.5895 C   0  0  0  0  0  0  0  0  0  0  0  0
  -31.1008  -28.3800   22.0573 C   0  0  0  0  0  0  0  0  0  0  0  0
  -19.0543  -18.4887   20.3575 C   0  0  0  0  0  0  0  0  0  0  0  0
  -29.8685  -27.6057   22.5142 C   0  0  0  0  0  0  0  0  0  0  0  0
  -20.2774  -17.6377   20.6975 C   0  0  0  0  0  0  0  0  0  0  0  0
  -19.1984  -19.1527   18.9919 C   0  0  0  0  0  0  0  0  0  0  0  0
  -21.6701  -19.1232   19.1878 C   0  0  0  0  0  0  0  0  0  0  0  0
  -28.9485  -27.2845   21.3301 C   0  0  1  0  0  0  0  0  0  0  0  0
  -26.3794  -30.0653   21.0141 C   0  0  1  0  0  0  0  0  0  0  0  0
  -21.5733  -18.4585   20.5721 C   0  0  2  0  0  0  0  0  0  0  0  0
  -26.2779  -22.5084   16.9027 C   0  0  0  0  0  0  0  0  0  0  0  0
  -23.8890  -36.3475   24.8003 C   0  0  0  0  0  0  0  0  0  0  0  0
  -19.1435  -25.6303   24.3178 C   0  0  0  0  0  0  0  0  0  0  0  0
  -27.0059  -30.5537   25.5670 C   0  0  0  0  0  0  0  0  0  0  0  0
  -25.8981  -32.5469   26.6006 C   0  0  0  0  0  0  0  0  0  0  0  0
  -27.9355  -32.8449   25.1924 C   0  0  0  0  0  0  0  0  0  0  0  0
  -22.7557  -35.1675   21.3653 C   0  0  0  0  0  0  0  0  0  0  0  0
  -24.6449  -22.0811   18.7904 C   0  0  0  0  0  0  0  0  0  0  0  0
  -25.2800  -23.1302   17.8667 C   0  0  0  0  0  0  0  0  0  0  0  0
  -19.8393  -24.8874   22.0044 C   0  0  0  0  0  0  0  0  0  0  0  0
  -20.2810  -27.2478   22.7432 C   0  0  0  0  0  0  0  0  0  1  0  0
  -25.7411  -32.2495   24.0870 C   0  0  1  0  0  0  0  0  0  0  0  0
  -23.9854  -35.5582   23.5040 C   0  0  2  0  0  0  0  0  0  0  0  0
  -19.3290  -26.0535   22.8556 C   0  0  2  0  0  0  0  0  0  0  0  0
  -26.6311  -32.0323   25.3433 C   0  0  0  0  0  0  0  0  0  0  0  0
  -22.7935  -16.3152   20.5800 N   0  0  0  0  0  0  0  0  0  0  0  0
  -22.3612  -21.8224   17.2697 N   0  0  0  0  0  0  0  0  0  0  0  0
  -22.8012  -17.6238   20.8858 N   0  0  0  0  0  0  0  0  0  0  0  0
  -20.4547  -19.8930   18.8940 N   0  0  0  0  0  0  0  0  0  0  0  0
  -25.7079  -30.7375   22.1283 N   0  0  0  0  0  0  0  0  0  0  0  0
  -24.1386  -19.3345   21.8323 N   0  0  0  0  0  0  0  0  0  0  0  0
  -26.7861  -15.6841   22.0814 N   0  0  0  0  0  0  0  0  0  0  0  0
  -28.1841  -28.4538   20.9522 N   0  0  0  0  0  0  0  0  0  0  0  0
  -25.3931  -33.6437   23.8350 N   0  0  0  0  0  0  0  0  0  0  0  0
  -22.7810  -35.8595   22.6796 N   0  3  0  0  0  0  0  0  0  0  0  0
  -26.6509  -17.9225   22.5612 O   0  0  0  0  0  0  0  0  0  0  0  0
  -19.4731  -21.9117   18.1949 O   0  0  0  0  0  0  0  0  0  0  0  0
  -26.4473  -28.2200   22.4856 O   0  0  0  0  0  0  0  0  0  0  0  0
  -27.4712  -32.2254   22.4645 O   0  0  0  0  0  0  0  0  0  0  0  0
  -23.0942  -33.3500   23.9128 O   0  0  0  0  0  0  0  0  0  0  0  0
  -25.4863  -10.5491   20.3558 O   0  0  0  0  0  0  0  0  0  0  0  0
  -21.0889  -24.4309   22.5053 O   0  0  0  0  0  0  0  0  0  0  0  0
  -20.4401  -27.6174   21.3741 O   0  0  0  0  0  0  0  0  0  1  0  0
  -21.8084   -6.6901   21.7645 F   0  0  0  0  0  0  0  0  0  0  0  0
  -26.0611   -8.6924   22.3217 F   0  0  0  0  0  0  0  0  0  0  0  0
  1  2  1  0  0  0  0
  1  5  2  0  0  0  0
  2  6  2  0  0  0  0
  3  9  2  0  0  0  0
  3 18  1  0  0  0  0
  4 10  1  0  0  0  0
  4 18  2  0  0  0  0
  5 21  1  0  0  0  0
  6 23  1  0  0  0  0
  7 11  2  0  0  0  0
  7 22  1  0  0  0  0
  8 12  2  0  0  0  0
  8 25  1  0  0  0  0
  9 26  1  0  0  0  0
 10 26  2  0  0  0  0
 11 28  1  0  0  0  0
 12 27  1  0  0  0  0
 13 14  2  0  0  0  0
 13 29  1  0  0  0  0
 14 30  1  0  0  0  0
 15 19  1  0  0  0  0
 15 27  2  0  0  0  0
 16 24  1  0  0  0  0
 16 28  2  0  0  0  0
 17 30  2  0  0  0  0
 17 31  1  0  0  0  0
 18 32  1  0  0  0  0
 19 25  2  0  0  0  0
 19 34  1  0  0  0  0
 20 32  1  0  0  0  0
 20 33  2  0  0  0  0
 20 35  1  0  0  0  0
 21 23  2  0  0  0  0
 21 40  1  0  0  0  0
 22 24  2  0  0  0  0
 22 41  1  0  0  0  0
 23 49  1  0  0  0  0
 24 42  1  0  0  0  0
 25 59  1  0  0  0  0
 26 82  1  0  0  0  0
 27 83  1  0  0  0  0
 28 84  1  0  0  0  0
 29 31  2  0  0  0  0
 29 82  1  0  0  0  0
 30 85  1  0  0  0  0
 31 86  1  0  0  0  0
 32 67  2  0  0  0  0
 33 69  1  0  0  0  0
 33 72  1  0  0  0  0
 34 36  1  0  0  0  0
 34 68  2  0  0  0  0
 35 73  1  0  0  0  0
 35 77  2  0  0  0  0
 36 70  1  0  0  0  0
 36 78  2  0  0  0  0
 37 50  1  0  0  0  0
 37 74  1  0  0  0  0
 37 79  2  0  0  0  0
 38 63  1  0  0  0  0
 38 71  1  0  0  0  0
 38 80  2  0  0  0  0
 39 64  1  0  0  0  0
 39 75  1  0  0  0  0
 39 81  2  0  0  0  0
 40 43  1  0  0  0  0
 41 50  1  0  0  0  0
 42 71  1  0  0  0  0
 43 45  1  0  0  0  0
 44 46  1  0  0  0  0
 44 47  1  0  0  0  0
 45 49  1  0  0  0  0
 46 51  1  0  0  0  0
 47 70  1  0  0  0  0
 48 51  1  0  0  0  0
 48 70  1  0  0  0  0
 49 74  1  0  0  0  0
 50 71  1  0  0  0  0
 51 69  1  0  0  0  0
 52 60  1  0  0  0  0
 53 64  1  0  0  0  0
 54 65  1  0  0  0  0
 55 66  1  0  0  0  0
 56 66  1  0  0  0  0
 57 66  1  0  0  0  0
 58 76  1  0  0  0  0
 59 60  1  0  0  0  0
 61 65  1  0  0  0  0
 61 83  1  0  0  0  0
 62 65  1  0  0  0  0
 62 84  1  0  0  0  0
 63 66  1  0  0  0  0
 63 75  1  0  0  0  0
 64 76  1  0  0  0  0
 67 69  1  0  0  0  0
M  CHG  1  76   1
M  ISO  4  34 100  36 100  62 101  84 101
M  END
> <Batch ID>
0137

> <Smiles>
CCCc1ccc(OCC(C)[101CH2:1][101O:1]c2ccc3c(c2)CN(C(=O)C(NC(=O)C(C)NC)C(C)(C)C)C(C(=O)NC2CCCc4ccccc42)C3)cc1[100C:0](=N)[100C:0](=O)N1CCCC(n2nc(-c3ccc(Oc4ccc(F)cc4F)cc3)c(C(N)=O)c2N)C1

> <Shape>
0.270

> <Color>
0.071

> <Negative vol penalty>
0.000

$$$$

  -OEChem-04052302423D

 87 95  0     1  0  0  0  0  0999 V2000
  -26.7096  -23.7431   26.0296 C   0  0  0  0  0  0  0  0  0  0  0  0
  -27.6381  -23.2936   25.0962 C   0  0  0  0  0  0  0  0  0  0  0  0
  -23.2130   -9.7344   19.9680 C   0  0  0  0  0  0  0  0  0  0  0  0
  -23.8965   -9.8806   22.2807 C   0  0  0  0  0  0  0  0  0  0  0  0
  -25.9554  -24.8859   25.7665 C   0  0  0  0  0  0  0  0  0  0  0  0
  -27.8121  -23.9861   23.8984 C   0  0  0  0  0  0  0  0  0  0  0  0
  -32.6944  -24.6194   22.7123 C   0  0  0  0  0  0  0  0  0  0  0  0
  -22.5336   -8.5479   20.2438 C   0  0  0  0  0  0  0  0  0  0  0  0
  -23.2171   -8.6940   22.5565 C   0  0  0  0  0  0  0  0  0  0  0  0
  -33.3647  -23.5246   22.1683 C   0  0  0  0  0  0  0  0  0  0  0  0
  -21.3617   -5.8936   23.9469 C   0  0  0  0  0  0  0  0  0  0  0  0
  -20.5720   -5.8495   25.0958 C   0  0  0  0  0  0  0  0  0  0  0  0
  -33.0895  -24.4600   19.9619 C   0  0  0  0  0  0  0  0  0  0  0  0
  -29.1730  -19.6383   22.1798 C   0  0  0  0  0  0  0  0  0  0  0  0
  -30.7727  -18.0567   20.5299 C   0  0  0  0  0  0  0  0  0  0  0  0
  -19.2352   -7.6743   24.2470 C   0  0  0  0  0  0  0  0  0  0  0  0
  -23.8945  -10.4008   20.9865 C   0  0  0  0  0  0  0  0  0  0  0  0
  -24.0845  -12.9356   20.7711 C   0  0  0  0  0  0  0  0  0  0  0  0
  -26.1272  -25.5982   24.5691 C   0  0  0  0  0  0  0  0  0  0  0  0
  -32.2062  -25.6391   21.8827 C   0  0  0  0  0  0  0  0  0  0  0  0
  -27.0586  -25.1387   23.6184 C   0  0  0  0  0  0  0  0  0  0  0  0
  -32.4156  -25.5680   20.4981 C   0  0  0  0  0  0  0  0  0  0  0  0
  -29.0777  -18.2481   22.2409 C   0  0  0  0  0  0  0  0  0  0  0  0
  -30.0681  -20.2378   21.2937 C   0  0  0  0  0  0  0  0  0  0  0  0
  -29.8775  -17.4573   21.4160 C   0  0  0  0  0  0  0  0  0  0  0  0
  -22.5356   -8.0277   21.5380 C   0  0  0  0  0  0  0  0  0  0  0  0
  -33.5598  -23.4434   20.7927 C   0  0  0  0  0  0  0  0  0  0  0  0
  -21.0882   -6.8280   22.9480 C   0  0  0  0  0  0  0  0  0  0  0  0
  -30.8680  -19.4470   20.4688 C   0  0  0  0  0  0  0  0  0  0  0  0
  -19.5088   -6.7398   25.2459 C   0  0  0  0  0  0  0  0  0  0  0  0
  -20.0249   -7.7183   23.0981 C   0  0  0  0  0  0  0  0  0  0  0  0
  -24.5970  -11.6262   20.7021 C   0  0  0  0  0  0  0  0  0  0  0  0
  -25.1398  -13.7369   20.4094 C   0  0  0  0  0  0  0  0  0  0  0  0
  -22.7719  -13.3871   21.1300 C   0  0  0  0  0  0  0  0  0  0  0  0
  -29.3253  -26.8114   21.2274 C   0  0  0  0  0  0  0  0  0  0  0  0
  -31.0275  -29.0027   19.5472 C   0  0  0  0  0  0  0  0  0  0  0  0
  -33.9120  -29.7889   17.9015 C   0  0  0  0  0  0  0  0  0  0  0  0
  -30.5230  -15.1289   20.7029 C   0  0  0  0  0  0  0  0  0  0  0  0
  -25.2554  -26.8010   24.3086 C   0  0  0  0  0  0  0  0  0  0  0  0
  -31.5088  -26.8266   22.4876 C   0  0  0  0  0  0  0  0  0  0  0  0
  -31.9289  -26.6463   19.5660 C   0  0  0  0  0  0  0  0  0  0  0  0
  -25.7671  -27.6909   23.1787 C   0  0  0  0  0  0  0  0  0  0  0  0
  -29.6359  -12.5574   18.4057 C   0  0  0  0  0  0  0  0  0  0  0  0
  -26.1583  -26.8468   21.9699 C   0  0  0  0  0  0  0  0  0  0  0  0
  -28.2038  -12.1936   18.8040 C   0  0  0  0  0  0  0  0  0  0  0  0
  -30.4960  -12.8909   19.6234 C   0  0  0  0  0  0  0  0  0  0  0  0
  -28.5045  -13.5491   20.9157 C   0  0  0  0  0  0  0  0  0  0  0  0
  -27.2938  -25.8769   22.3185 C   0  0  1  0  0  0  0  0  0  0  0  0
  -30.6026  -27.5545   21.4995 C   0  0  1  0  0  0  0  0  0  0  0  0
  -27.5827  -13.2683   19.7177 C   0  0  2  0  0  0  0  0  0  0  0  0
  -28.1103  -17.6331   23.1996 C   0  0  0  0  0  0  0  0  0  0  0  0
  -28.9934  -22.3506   20.4765 C   0  0  0  0  0  0  0  0  0  0  0  0
  -33.6984  -18.6784   16.8483 C   0  0  0  0  0  0  0  0  0  0  0  0
  -34.9947  -31.6404   16.5987 C   0  0  0  0  0  0  0  0  0  0  0  0
  -29.2900  -28.3177   17.1343 C   0  0  0  0  0  0  0  0  0  0  0  0
  -30.9857  -29.4481   15.6801 C   0  0  0  0  0  0  0  0  0  0  0  0
  -29.7657  -30.7564   17.4186 C   0  0  0  0  0  0  0  0  0  0  0  0
  -35.4735  -20.0614   18.9835 C   0  0  0  0  0  0  0  0  0  0  0  0
  -36.1221  -30.0279   19.8552 C   0  0  0  0  0  0  0  0  0  0  0  0
  -30.1577  -21.7273   21.2409 C   0  0  0  0  0  0  0  0  0  0  0  0
  -33.5890  -20.1379   17.2732 C   0  0  0  0  0  0  0  0  0  0  0  0
  -33.8451  -21.9832   18.9373 C   0  0  0  0  0  0  0  0  0  1  0  0
  -33.1251  -19.6912   19.7607 C   0  0  0  0  0  0  0  0  0  0  0  0
  -31.5394  -29.1013   18.1304 C   0  0  1  0  0  0  0  0  0  0  0  0
  -34.8102  -31.0108   17.9707 C   0  0  2  0  0  0  0  0  0  0  0  0
  -30.4028  -29.3845   17.1079 C   0  0  0  0  0  0  0  0  0  0  0  0
  -34.0023  -20.4525   18.7395 C   0  0  2  0  0  0  0  0  0  0  0  0
  -25.8782  -11.5932   20.3261 N   0  0  0  0  0  0  0  0  0  0  0  0
  -26.1796  -12.8917   20.1554 N   0  0  0  0  0  0  0  0  0  0  0  0
  -31.2471  -27.7841   20.2049 N   0  0  0  0  0  0  0  0  0  0  0  0
  -29.8467  -13.9189   20.4398 N   0  0  0  0  0  0  0  0  0  0  0  0
  -25.2703  -15.0749   20.2870 N   0  0  0  0  0  0  0  0  0  0  0  0
  -21.8073  -12.4306   21.4747 N   0  0  0  0  0  0  0  0  0  0  0  0
  -29.7939  -16.0436   21.4622 N   0  0  0  0  0  0  0  0  0  0  0  0
  -28.5613  -26.5745   22.3542 N   0  0  0  0  0  0  0  0  0  0  0  0
  -32.5935  -30.1097   18.1465 N   0  0  0  0  0  0  0  0  0  0  0  0
  -36.1521  -30.6378   18.5010 N   0  3  0  0  0  0  0  0  0  0  0  0
  -22.4588  -14.6018   21.1287 O   0  0  0  0  0  0  0  0  0  0  0  0
  -29.0523  -26.4791   20.0799 O   0  0  0  0  0  0  0  0  0  0  0  0
  -30.4602  -29.9737   20.0541 O   0  0  0  0  0  0  0  0  0  0  0  0
  -34.3369  -28.6632   17.6511 O   0  0  0  0  0  0  0  0  0  0  0  0
  -31.6541  -15.3492   20.2625 O   0  0  0  0  0  0  0  0  0  0  0  0
  -21.8726   -6.8700   21.8075 O   0  0  0  0  0  0  0  0  0  0  0  0
  -34.2131  -22.3755   20.2591 O   0  0  0  0  0  0  0  0  0  1  0  0
  -31.7521  -20.0194   19.5921 O   0  0  0  0  0  0  0  0  0  0  0  0
  -18.7497   -6.6964   26.3486 F   0  0  0  0  0  0  0  0  0  0  0  0
  -19.7566   -8.6175   22.1413 F   0  0  0  0  0  0  0  0  0  0  0  0
  1  2  1  0  0  0  0
  1  5  2  0  0  0  0
  2  6  2  0  0  0  0
  3  8  2  0  0  0  0
  3 17  1  0  0  0  0
  4  9  1  0  0  0  0
  4 17  2  0  0  0  0
  5 19  1  0  0  0  0
  6 21  1  0  0  0  0
  7 10  2  0  0  0  0
  7 20  1  0  0  0  0
  8 26  1  0  0  0  0
  9 26  2  0  0  0  0
 10 27  1  0  0  0  0
 11 12  2  0  0  0  0
 11 28  1  0  0  0  0
 12 30  1  0  0  0  0
 13 22  1  0  0  0  0
 13 27  2  0  0  0  0
 14 23  2  0  0  0  0
 14 24  1  0  0  0  0
 15 25  2  0  0  0  0
 15 29  1  0  0  0  0
 16 30  2  0  0  0  0
 16 31  1  0  0  0  0
 17 32  1  0  0  0  0
 18 32  1  0  0  0  0
 18 33  2  0  0  0  0
 18 34  1  0  0  0  0
 19 21  2  0  0  0  0
 19 39  1  0  0  0  0
 20 22  2  0  0  0  0
 20 40  1  0  0  0  0
 21 48  1  0  0  0  0
 22 41  1  0  0  0  0
 23 25  1  0  0  0  0
 23 51  1  0  0  0  0
 24 29  2  0  0  0  0
 24 60  1  0  0  0  0
 25 74  1  0  0  0  0
 26 83  1  0  0  0  0
 27 84  1  0  0  0  0
 28 31  2  0  0  0  0
 28 83  1  0  0  0  0
 29 85  1  0  0  0  0
 30 86  1  0  0  0  0
 31 87  1  0  0  0  0
 32 68  2  0  0  0  0
 33 69  1  0  0  0  0
 33 72  1  0  0  0  0
 34 73  1  0  0  0  0
 34 78  2  0  0  0  0
 35 49  1  0  0  0  0
 35 75  1  0  0  0  0
 35 79  2  0  0  0  0
 36 64  1  0  0  0  0
 36 70  1  0  0  0  0
 36 80  2  0  0  0  0
 37 65  1  0  0  0  0
 37 76  1  0  0  0  0
 37 81  2  0  0  0  0
 38 71  1  0  0  0  0
 38 74  1  0  0  0  0
 38 82  2  0  0  0  0
 39 42  1  0  0  0  0
 40 49  1  0  0  0  0
 41 70  1  0  0  0  0
 42 44  1  0  0  0  0
 43 45  1  0  0  0  0
 43 46  1  0  0  0  0
 44 48  1  0  0  0  0
 45 50  1  0  0  0  0
 46 71  1  0  0  0  0
 47 50  1  0  0  0  0
 47 71  1  0  0  0  0
 48 75  1  0  0  0  0
 49 70  1  0  0  0  0
 50 69  1  0  0  0  0
 52 60  1  0  0  0  0
 53 61  1  0  0  0  0
 54 65  1  0  0  0  0
 55 66  1  0  0  0  0
 56 66  1  0  0  0  0
 57 66  1  0  0  0  0
 58 67  1  0  0  0  0
 59 77  1  0  0  0  0
 61 67  1  0  0  0  0
 62 67  1  0  0  0  0
 62 84  1  0  0  0  0
 63 67  1  0  0  0  0
 63 85  1  0  0  0  0
 64 66  1  0  0  0  0
 64 76  1  0  0  0  0
 65 77  1  0  0  0  0
 68 69  1  0  0  0  0
M  CHG  1  77   1
M  ISO  4  38 100  62 101  74 100  84 101
M  END
> <Batch ID>
0137

> <Smiles>
CCc1cc(C)c([100NH:0][100C:0](=O)N2CCCC(n3nc(-c4ccc(Oc5ccc(F)cc5F)cc4)c(C(N)=O)c3N)C2)cc1OCC(C)(CC)[101CH2:1][101O:1]c1ccc2c(c1)CN(C(=O)C(NC(=O)C(C)NC)C(C)(C)C)C(C(=O)NC1CCCc3ccccc31)C2

> <Shape>
0.222

> <Color>
0.188

> <Negative vol penalty>
0.000

$$$$

  -OEChem-04052302423D

 84 92  0     1  0  0  0  0  0999 V2000
  -17.9463  -13.9019   23.9848 C   0  0  0  0  0  0  0  0  0  0  0  0
  -18.7862  -14.8191   23.3612 C   0  0  0  0  0  0  0  0  0  0  0  0
  -22.9802   -9.9363   19.9927 C   0  0  0  0  0  0  0  0  0  0  0  0
  -23.7121   -9.9776   22.2948 C   0  0  0  0  0  0  0  0  0  0  0  0
  -16.6114  -14.2284   24.2197 C   0  0  0  0  0  0  0  0  0  0  0  0
  -18.2912  -16.0630   22.9712 C   0  0  0  0  0  0  0  0  0  0  0  0
  -21.4149  -19.8620   24.1775 C   0  0  0  0  0  0  0  0  0  0  0  0
  -22.1979   -8.8132   20.2615 C   0  0  0  0  0  0  0  0  0  0  0  0
  -22.9297   -8.8545   22.5637 C   0  0  0  0  0  0  0  0  0  0  0  0
  -22.5271  -20.0560   23.3594 C   0  0  0  0  0  0  0  0  0  0  0  0
  -23.1241   -5.5122   22.0926 C   0  0  0  0  0  0  0  0  0  0  0  0
  -23.6987   -4.4868   22.8436 C   0  0  0  0  0  0  0  0  0  0  0  0
  -21.3765  -21.8514   22.2315 C   0  0  0  0  0  0  0  0  0  0  0  0
  -31.6768  -18.2282   20.0055 C   0  0  0  0  0  0  0  0  0  0  0  0
  -29.4608  -18.5596   20.9089 C   0  0  0  0  0  0  0  0  0  0  0  0
  -30.2462  -19.9492   19.0953 C   0  0  0  0  0  0  0  0  0  0  0  0
  -21.9829   -4.7555   24.5232 C   0  0  0  0  0  0  0  0  0  0  0  0
  -23.7374  -10.5185   21.0094 C   0  0  0  0  0  0  0  0  0  0  0  0
  -24.1589  -13.0281   20.8313 C   0  0  0  0  0  0  0  0  0  0  0  0
  -16.1022  -15.4806   23.8411 C   0  0  0  0  0  0  0  0  0  0  0  0
  -20.2692  -20.6553   24.0212 C   0  0  0  0  0  0  0  0  0  0  0  0
  -16.9478  -16.4061   23.2000 C   0  0  0  0  0  0  0  0  0  0  0  0
  -20.2521  -21.6671   23.0505 C   0  0  0  0  0  0  0  0  0  0  0  0
  -30.6764  -17.8755   20.9112 C   0  0  0  0  0  0  0  0  0  0  0  0
  -31.4617  -19.2651   19.0975 C   0  0  0  0  0  0  0  0  0  0  0  0
  -22.1727   -8.2723   21.5470 C   0  0  0  0  0  0  0  0  0  0  0  0
  -22.5069  -21.0489   22.3843 C   0  0  0  0  0  0  0  0  0  0  0  0
  -21.9789   -6.1593   22.5569 C   0  0  0  0  0  0  0  0  0  0  0  0
  -29.2457  -19.5965   20.0010 C   0  0  0  0  0  0  0  0  0  0  0  0
  -23.1281   -4.1085   24.0588 C   0  0  0  0  0  0  0  0  0  0  0  0
  -21.4083   -5.7809   23.7722 C   0  0  0  0  0  0  0  0  0  0  0  0
  -24.5461  -11.6783   20.7322 C   0  0  0  0  0  0  0  0  0  0  0  0
  -25.2781  -13.7343   20.4637 C   0  0  0  0  0  0  0  0  0  0  0  0
  -22.9001  -13.5931   21.2209 C   0  0  0  0  0  0  0  0  0  0  0  0
  -17.2361  -20.0893   23.2572 C   0  0  0  0  0  0  0  0  0  0  0  0
  -25.8300  -20.7165   20.8271 C   0  0  0  0  0  0  0  0  0  0  0  0
  -16.8822  -23.2398   23.9441 C   0  0  0  0  0  0  0  0  0  0  0  0
  -18.3173  -26.3237   24.2213 C   0  0  0  0  0  0  0  0  0  0  0  0
  -30.7882  -14.5887   20.6975 C   0  0  0  0  0  0  0  0  0  0  0  0
  -14.6404  -15.7703   24.0733 C   0  0  0  0  0  0  0  0  0  0  0  0
  -19.0878  -20.4510   24.9295 C   0  0  0  0  0  0  0  0  0  0  0  0
  -19.0543  -22.5591   22.8559 C   0  0  0  0  0  0  0  0  0  0  0  0
  -14.2887  -17.2519   23.9670 C   0  0  0  0  0  0  0  0  0  0  0  0
  -29.6061  -12.1810   18.3560 C   0  0  0  0  0  0  0  0  0  0  0  0
  -14.9247  -17.8637   22.7228 C   0  0  0  0  0  0  0  0  0  0  0  0
  -28.1551  -11.9426   18.7775 C   0  0  0  0  0  0  0  0  0  0  0  0
  -30.5150  -12.4037   19.5628 C   0  0  0  0  0  0  0  0  0  0  0  0
  -28.6202  -13.2275   20.9062 C   0  0  0  0  0  0  0  0  0  0  0  0
  -16.4543  -17.7750   22.7846 C   0  0  1  0  0  0  0  0  0  0  0  0
  -17.7827  -20.9766   24.3396 C   0  0  1  0  0  0  0  0  0  0  0  0
  -27.6555  -13.0534   19.7208 C   0  0  2  0  0  0  0  0  0  0  0  0
  -17.7667  -28.7112   24.7635 C   0  0  0  0  0  0  0  0  0  0  0  0
  -15.6073  -23.5683   21.1915 C   0  0  0  0  0  0  0  0  0  0  0  0
  -15.9525  -26.0390   21.4034 C   0  0  0  0  0  0  0  0  0  0  0  0
  -14.4788  -24.8439   23.0228 C   0  0  0  0  0  0  0  0  0  0  0  0
  -20.1591  -26.3439   26.5378 C   0  0  0  0  0  0  0  0  0  0  0  0
  -30.9058  -16.7666   21.8815 C   0  0  0  0  0  0  0  0  0  0  0  0
  -24.7148  -20.3873   21.7982 C   0  0  0  0  0  0  0  0  0  1  0  0
  -27.0778  -19.8650   20.9411 C   0  0  0  0  0  0  0  0  0  0  0  0
  -16.9831  -24.5236   23.1563 C   0  0  1  0  0  0  0  0  0  0  0  0
  -18.2419  -27.3753   25.3134 C   0  0  2  0  0  0  0  0  0  0  0  0
  -15.7774  -24.7258   22.1956 C   0  0  0  0  0  0  0  0  0  0  0  0
  -25.8124  -11.5331   20.3328 N   0  0  0  0  0  0  0  0  0  0  0  0
  -26.2305  -12.8009   20.1776 N   0  0  0  0  0  0  0  0  0  0  0  0
  -17.9215  -22.3160   23.7644 N   0  0  0  0  0  0  0  0  0  0  0  0
  -29.9860  -13.4706   20.4159 N   0  0  0  0  0  0  0  0  0  0  0  0
  -32.4733  -19.6212   18.1816 N   0  0  0  0  0  0  0  0  0  0  0  0
  -25.5306  -15.0564   20.3605 N   0  0  0  0  0  0  0  0  0  0  0  0
  -21.8564  -12.7243   21.5675 N   0  0  0  0  0  0  0  0  0  0  0  0
  -16.9844  -18.7935   23.6656 N   0  0  0  0  0  0  0  0  0  0  0  0
  -17.1521  -25.5914   24.1360 N   0  0  0  0  0  0  0  0  0  0  0  0
  -30.2080  -15.5564   21.5085 N   0  0  0  0  0  0  0  0  0  0  0  0
  -19.5816  -27.5730   25.9356 N   0  3  0  0  0  0  0  0  0  0  0  0
  -22.7015  -14.8315   21.2447 O   0  0  0  0  0  0  0  0  0  0  0  0
  -17.0547  -20.5470   22.1350 O   0  0  0  0  0  0  0  0  0  0  0  0
  -25.7288  -21.6196   19.9981 O   0  0  0  0  0  0  0  0  0  0  0  0
  -15.9204  -23.0661   24.6967 O   0  0  0  0  0  0  0  0  0  0  0  0
  -19.3093  -26.1698   23.5121 O   0  0  0  0  0  0  0  0  0  0  0  0
  -31.9345  -14.7177   20.2544 O   0  0  0  0  0  0  0  0  0  0  0  0
  -21.4092   -7.1766   21.8097 O   0  0  0  0  0  0  0  0  0  0  0  0
  -23.5908  -21.2401   21.5840 O   0  0  0  0  0  0  0  0  0  1  0  0
  -28.0478  -20.2712   19.9989 O   0  0  0  0  0  0  0  0  0  0  0  0
  -23.6791   -3.1227   24.7792 F   0  0  0  0  0  0  0  0  0  0  0  0
  -20.3075   -6.3981   24.2228 F   0  0  0  0  0  0  0  0  0  0  0  0
  1  2  1  0  0  0  0
  1  5  2  0  0  0  0
  2  6  2  0  0  0  0
  3  8  2  0  0  0  0
  3 18  1  0  0  0  0
  4  9  1  0  0  0  0
  4 18  2  0  0  0  0
  5 20  1  0  0  0  0
  6 22  1  0  0  0  0
  7 10  2  0  0  0  0
  7 21  1  0  0  0  0
  8 26  1  0  0  0  0
  9 26  2  0  0  0  0
 10 27  1  0  0  0  0
 11 12  2  0  0  0  0
 11 28  1  0  0  0  0
 12 30  1  0  0  0  0
 13 23  1  0  0  0  0
 13 27  2  0  0  0  0
 14 24  2  0  0  0  0
 14 25  1  0  0  0  0
 15 24  1  0  0  0  0
 15 29  2  0  0  0  0
 16 25  2  0  0  0  0
 16 29  1  0  0  0  0
 17 30  2  0  0  0  0
 17 31  1  0  0  0  0
 18 32  1  0  0  0  0
 19 32  1  0  0  0  0
 19 33  2  0  0  0  0
 19 34  1  0  0  0  0
 20 22  2  0  0  0  0
 20 40  1  0  0  0  0
 21 23  2  0  0  0  0
 21 41  1  0  0  0  0
 22 49  1  0  0  0  0
 23 42  1  0  0  0  0
 24 57  1  0  0  0  0
 25 67  1  0  0  0  0
 26 80  1  0  0  0  0
 27 81  1  0  0  0  0
 28 31  2  0  0  0  0
 28 80  1  0  0  0  0
 29 82  1  0  0  0  0
 30 83  1  0  0  0  0
 31 84  1  0  0  0  0
 32 63  2  0  0  0  0
 33 64  1  0  0  0  0
 33 68  1  0  0  0  0
 34 69  1  0  0  0  0
 34 74  2  0  0  0  0
 35 50  1  0  0  0  0
 35 70  1  0  0  0  0
 35 75  2  0  0  0  0
 36 58  1  0  0  0  0
 36 59  1  0  0  0  0
 36 76  2  0  0  0  0
 37 60  1  0  0  0  0
 37 65  1  0  0  0  0
 37 77  2  0  0  0  0
 38 61  1  0  0  0  0
 38 71  1  0  0  0  0
 38 78  2  0  0  0  0
 39 66  1  0  0  0  0
 39 72  1  0  0  0  0
 39 79  2  0  0  0  0
 40 43  1  0  0  0  0
 41 50  1  0  0  0  0
 42 65  1  0  0  0  0
 43 45  1  0  0  0  0
 44 46  1  0  0  0  0
 44 47  1  0  0  0  0
 45 49  1  0  0  0  0
 46 51  1  0  0  0  0
 47 66  1  0  0  0  0
 48 51  1  0  0  0  0
 48 66  1  0  0  0  0
 49 70  1  0  0  0  0
 50 65  1  0  0  0  0
 51 64  1  0  0  0  0
 52 61  1  0  0  0  0
 53 62  1  0  0  0  0
 54 62  1  0  0  0  0
 55 62  1  0  0  0  0
 56 73  1  0  0  0  0
 57 72  1  0  0  0  0
 58 81  1  0  0  0  0
 59 82  1  0  0  0  0
 60 62  1  0  0  0  0
 60 71  1  0  0  0  0
 61 73  1  0  0  0  0
 63 64  1  0  0  0  0
M  CHG  1  73   1
M  ISO  4  39 100  58 101  72 100  81 101
M  END
> <Batch ID>
0137

> <Smiles>
CNC(C)C(=O)NC(C(=O)N1Cc2cc([101O:1][101CH2:1]C(=O)COc3cc(N)cc(C[100NH:0][100C:0](=O)N4CCCC(n5nc(-c6ccc(Oc7ccc(F)cc7F)cc6)c(C(N)=O)c5N)C4)c3)ccc2CC1C(=O)NC1CCCc2ccccc21)C(C)(C)C

> <Shape>
0.215

> <Color>
0.193

> <Negative vol penalty>
0.000

$$$$

  -OEChem-04052302423D

 85 93  0     1  0  0  0  0  0999 V2000
  -15.7908  -27.1710   22.7875 C   0  0  0  0  0  0  0  0  0  0  0  0
  -17.0210  -26.5908   22.4954 C   0  0  0  0  0  0  0  0  0  0  0  0
  -23.8237   -8.4252   20.1495 C   0  0  0  0  0  0  0  0  0  0  0  0
  -23.2183  -10.5035   21.2223 C   0  0  0  0  0  0  0  0  0  0  0  0
  -29.6387  -16.9593   20.8393 C   0  0  0  0  0  0  0  0  0  0  0  0
  -15.6390  -28.5550   22.7139 C   0  0  0  0  0  0  0  0  0  0  0  0
  -18.1000  -27.3944   22.1285 C   0  0  0  0  0  0  0  0  0  0  0  0
  -22.3896  -26.0776   24.4760 C   0  0  0  0  0  0  0  0  0  0  0  0
  -22.8362   -7.7616   20.8775 C   0  0  0  0  0  0  0  0  0  0  0  0
  -22.2306   -9.8400   21.9503 C   0  0  0  0  0  0  0  0  0  0  0  0
  -28.9600  -17.9852   21.4968 C   0  0  0  0  0  0  0  0  0  0  0  0
  -23.0653  -24.9600   23.9879 C   0  0  0  0  0  0  0  0  0  0  0  0
  -20.7131   -5.4541   22.7192 C   0  0  0  0  0  0  0  0  0  0  0  0
  -21.0474   -4.2335   23.3056 C   0  0  0  0  0  0  0  0  0  0  0  0
  -24.5913  -26.4065   22.8055 C   0  0  0  0  0  0  0  0  0  0  0  0
  -27.2704  -17.9742   19.7698 C   0  0  0  0  0  0  0  0  0  0  0  0
  -22.7738   -5.3259   24.5952 C   0  0  0  0  0  0  0  0  0  0  0  0
  -24.0148   -9.7961   20.3219 C   0  0  0  0  0  0  0  0  0  0  0  0
  -29.1334  -16.4408   19.6470 C   0  0  0  0  0  0  0  0  0  0  0  0
  -24.8968  -11.0927   18.3098 C   0  0  0  0  0  0  0  0  0  0  0  0
  -16.7192  -29.3766   22.3553 C   0  0  0  0  0  0  0  0  0  0  0  0
  -22.8037  -27.3700   24.1230 C   0  0  0  0  0  0  0  0  0  0  0  0
  -17.9621  -28.7906   22.0488 C   0  0  0  0  0  0  0  0  0  0  0  0
  -23.9208  -27.5389   23.2924 C   0  0  0  0  0  0  0  0  0  0  0  0
  -27.9493  -16.9483   19.1123 C   0  0  0  0  0  0  0  0  0  0  0  0
  -22.0396   -8.4690   21.7779 C   0  0  0  0  0  0  0  0  0  0  0  0
  -24.1645  -25.1242   23.1503 C   0  0  0  0  0  0  0  0  0  0  0  0
  -27.7758  -18.4926   20.9621 C   0  0  0  0  0  0  0  0  0  0  0  0
  -21.4092   -6.6107   23.0707 C   0  0  0  0  0  0  0  0  0  0  0  0
  -22.0777   -4.1693   24.2436 C   0  0  0  0  0  0  0  0  0  0  0  0
  -22.4396   -6.5465   24.0088 C   0  0  0  0  0  0  0  0  0  0  0  0
  -25.0352  -10.4820   19.5706 C   0  0  0  0  0  0  0  0  0  0  0  0
  -26.1436  -11.5989   18.0347 C   0  0  0  0  0  0  0  0  0  0  0  0
  -29.8632  -15.3704   18.9810 C   0  0  0  0  0  0  0  0  0  0  0  0
  -23.7441  -11.1935   17.4630 C   0  0  0  0  0  0  0  0  0  0  0  0
  -30.6732  -14.3976   19.7495 C   0  0  0  0  0  0  0  0  0  0  0  0
  -21.4772  -29.8043   22.5680 C   0  0  0  0  0  0  0  0  0  0  0  0
  -26.2908  -21.7688   21.4554 C   0  0  0  0  0  0  0  0  0  0  0  0
  -24.1806  -31.3503   23.4755 C   0  0  0  0  0  0  0  0  0  0  0  0
  -27.4511  -31.1501   24.4299 C   0  0  0  0  0  0  0  0  0  0  0  0
  -16.4942  -30.8638   22.2435 C   0  0  0  0  0  0  0  0  0  0  0  0
  -22.0805  -28.5658   24.6794 C   0  0  0  0  0  0  0  0  0  0  0  0
  -24.4179  -28.9054   22.9001 C   0  0  0  0  0  0  0  0  0  0  0  0
  -17.7872  -31.6746   22.2108 C   0  0  0  0  0  0  0  0  0  0  0  0
  -30.5873  -10.8581   20.3164 C   0  0  0  0  0  0  0  0  0  0  0  0
  -18.7834  -31.0519   21.2379 C   0  0  0  0  0  0  0  0  0  0  0  0
  -29.1156  -10.5027   20.1073 C   0  0  0  0  0  0  0  0  0  0  0  0
  -30.7445  -12.2415   20.9391 C   0  0  0  0  0  0  0  0  0  0  0  0
  -28.5894  -12.9778   19.9581 C   0  0  0  0  0  0  0  0  0  0  0  0
  -19.1628  -29.6307   21.6711 C   0  0  1  0  0  0  0  0  0  0  0  0
  -22.2753  -29.8253   23.8409 C   0  0  1  0  0  0  0  0  0  0  0  0
  -28.3915  -11.5987   19.3053 C   0  0  2  0  0  0  0  0  0  0  0  0
  -27.3857  -16.4104   17.8375 C   0  0  0  0  0  0  0  0  0  0  0  0
  -29.4084  -32.5851   25.0678 C   0  0  0  0  0  0  0  0  0  0  0  0
  -24.5982  -32.0802   20.5425 C   0  0  0  0  0  0  0  0  0  0  0  0
  -26.9712  -32.6558   21.0958 C   0  0  0  0  0  0  0  0  0  0  0  0
  -25.1024  -33.9217   22.1578 C   0  0  0  0  0  0  0  0  0  0  0  0
  -27.6144  -29.9326   27.1225 C   0  0  0  0  0  0  0  0  0  0  0  0
  -25.4980  -22.8172   20.6889 C   0  0  0  0  0  0  0  0  0  0  0  0
  -26.3626  -20.3992   20.8087 C   0  0  0  0  0  0  0  0  0  0  0  0
  -25.4518  -24.1638   21.3963 C   0  0  0  0  0  0  0  0  0  1  0  0
  -25.5544  -31.5412   22.8794 C   0  0  1  0  0  0  0  0  0  0  0  0
  -28.2082  -31.8002   25.5738 C   0  0  2  0  0  0  0  0  0  0  0  0
  -25.5463  -32.5238   21.6745 C   0  0  0  0  0  0  0  0  0  0  0  0
  -26.2724  -10.5892   20.0624 N   0  0  0  0  0  0  0  0  0  0  0  0
  -29.8532  -15.1958   17.6884 N   0  0  0  0  0  0  0  0  0  0  0  0
  -26.9228  -11.2730   19.1056 N   0  0  0  0  0  0  0  0  0  0  0  0
  -30.0158  -13.2514   20.1741 N   0  0  0  0  0  0  0  0  0  0  0  0
  -23.6735  -30.0432   23.4646 N   0  0  0  0  0  0  0  0  0  0  0  0
  -26.6385  -12.2865   16.9836 N   0  0  0  0  0  0  0  0  0  0  0  0
  -22.5428  -10.6178   17.8985 N   0  0  0  0  0  0  0  0  0  0  0  0
  -20.1152  -29.6716   22.7600 N   0  0  0  0  0  0  0  0  0  0  0  0
  -26.4229  -31.9500   23.9780 N   0  0  0  0  0  0  0  0  0  0  0  0
  -28.6930  -30.7642   26.5291 N   0  3  0  0  0  0  0  0  0  0  0  0
  -23.7827  -11.7625   16.3458 O   0  0  0  0  0  0  0  0  0  0  0  0
  -31.8428  -14.7108   19.9294 O   0  0  0  0  0  0  0  0  0  0  0  0
  -22.0542  -29.9029   21.4914 O   0  0  0  0  0  0  0  0  0  0  0  0
  -26.8428  -22.0075   22.5283 O   0  0  0  0  0  0  0  0  0  0  0  0
  -23.5825  -32.3239   23.9404 O   0  0  0  0  0  0  0  0  0  0  0  0
  -27.7449  -30.0449   23.9795 O   0  0  0  0  0  0  0  0  0  0  0  0
  -21.0757   -7.8219   22.4883 O   0  0  0  0  0  0  0  0  0  0  0  0
  -27.1080  -19.5058   21.6085 O   0  0  0  0  0  0  0  0  0  0  0  0
  -24.8254  -24.0351   22.6720 O   0  0  0  0  0  0  0  0  0  1  0  0
  -22.3976   -2.9974   24.8078 F   0  0  0  0  0  0  0  0  0  0  0  0
  -23.1111   -7.6544   24.3515 F   0  0  0  0  0  0  0  0  0  0  0  0
  1  2  1  0  0  0  0
  1  6  2  0  0  0  0
  2  7  2  0  0  0  0
  3  9  2  0  0  0  0
  3 18  1  0  0  0  0
  4 10  1  0  0  0  0
  4 18  2  0  0  0  0
  5 11  2  0  0  0  0
  5 19  1  0  0  0  0
  6 21  1  0  0  0  0
  7 23  1  0  0  0  0
  8 12  2  0  0  0  0
  8 22  1  0  0  0  0
  9 26  1  0  0  0  0
 10 26  2  0  0  0  0
 11 28  1  0  0  0  0
 12 27  1  0  0  0  0
 13 14  2  0  0  0  0
 13 29  1  0  0  0  0
 14 30  1  0  0  0  0
 15 24  1  0  0  0  0
 15 27  2  0  0  0  0
 16 25  1  0  0  0  0
 16 28  2  0  0  0  0
 17 30  2  0  0  0  0
 17 31  1  0  0  0  0
 18 32  1  0  0  0  0
 19 25  2  0  0  0  0
 19 34  1  0  0  0  0
 20 32  1  0  0  0  0
 20 33  2  0  0  0  0
 20 35  1  0  0  0  0
 21 23  2  0  0  0  0
 21 41  1  0  0  0  0
 22 24  2  0  0  0  0
 22 42  1  0  0  0  0
 23 50  1  0  0  0  0
 24 43  1  0  0  0  0
 25 53  1  0  0  0  0
 26 81  1  0  0  0  0
 27 83  1  0  0  0  0
 28 82  1  0  0  0  0
 29 31  2  0  0  0  0
 29 81  1  0  0  0  0
 30 84  1  0  0  0  0
 31 85  1  0  0  0  0
 32 65  2  0  0  0  0
 33 67  1  0  0  0  0
 33 70  1  0  0  0  0
 34 36  1  0  0  0  0
 34 66  2  0  0  0  0
 35 71  1  0  0  0  0
 35 75  2  0  0  0  0
 36 68  1  0  0  0  0
 36 76  2  0  0  0  0
 37 51  1  0  0  0  0
 37 72  1  0  0  0  0
 37 77  2  0  0  0  0
 38 59  1  0  0  0  0
 38 60  1  0  0  0  0
 38 78  2  0  0  0  0
 39 62  1  0  0  0  0
 39 69  1  0  0  0  0
 39 79  2  0  0  0  0
 40 63  1  0  0  0  0
 40 73  1  0  0  0  0
 40 80  2  0  0  0  0
 41 44  1  0  0  0  0
 42 51  1  0  0  0  0
 43 69  1  0  0  0  0
 44 46  1  0  0  0  0
 45 47  1  0  0  0  0
 45 48  1  0  0  0  0
 46 50  1  0  0  0  0
 47 52  1  0  0  0  0
 48 68  1  0  0  0  0
 49 52  1  0  0  0  0
 49 68  1  0  0  0  0
 50 72  1  0  0  0  0
 51 69  1  0  0  0  0
 52 67  1  0  0  0  0
 54 63  1  0  0  0  0
 55 64  1  0  0  0  0
 56 64  1  0  0  0  0
 57 64  1  0  0  0  0
 58 74  1  0  0  0  0
 59 61  1  0  0  0  0
 60 82  1  0  0  0  0
 61 83  1  0  0  0  0
 62 64  1  0  0  0  0
 62 73  1  0  0  0  0
 63 74  1  0  0  0  0
 65 67  1  0  0  0  0
M  CHG  1  74   1
M  ISO  4  34 100  36 100  61 101  83 101
M  END
> <Batch ID>
0137

> <Smiles>
CNC(C)C(=O)NC(C(=O)N1Cc2cc([101O:1][101CH2:1]CC(=O)COc3ccc([100C:0](=N)[100C:0](=O)N4CCCC(n5nc(-c6ccc(Oc7ccc(F)cc7F)cc6)c(C(N)=O)c5N)C4)c(C)c3)ccc2CC1C(=O)NC1CCCc2ccccc21)C(C)(C)C

> <Shape>
0.267

> <Color>
0.088

> <Negative vol penalty>
0.000

$$$$

  -OEChem-04052302423D

 86 94  0     1  0  0  0  0  0999 V2000
  -20.9141  -13.1173   31.3290 C   0  0  0  0  0  0  0  0  0  0  0  0
  -22.2500  -12.9952   31.6940 C   0  0  0  0  0  0  0  0  0  0  0  0
  -23.2492   -9.7863   20.5313 C   0  0  0  0  0  0  0  0  0  0  0  0
  -24.0187  -10.2087   22.7821 C   0  0  0  0  0  0  0  0  0  0  0  0
  -20.5089  -12.7481   30.0481 C   0  0  0  0  0  0  0  0  0  0  0  0
  -23.1833  -12.5152   30.7745 C   0  0  0  0  0  0  0  0  0  0  0  0
  -27.1752  -14.8374   24.6160 C   0  0  0  0  0  0  0  0  0  0  0  0
  -22.5830   -8.6434   20.9735 C   0  0  0  0  0  0  0  0  0  0  0  0
  -23.3525   -9.0658   23.2244 C   0  0  0  0  0  0  0  0  0  0  0  0
  -26.8037  -15.7443   23.6244 C   0  0  0  0  0  0  0  0  0  0  0  0
  -20.1861   -8.1723   23.9963 C   0  0  0  0  0  0  0  0  0  0  0  0
  -19.4393   -8.2728   25.1701 C   0  0  0  0  0  0  0  0  0  0  0  0
  -25.8932  -17.2076   25.3123 C   0  0  0  0  0  0  0  0  0  0  0  0
  -30.0466  -17.9045   22.4081 C   0  0  0  0  0  0  0  0  0  0  0  0
  -30.7639  -19.7903   21.0792 C   0  0  0  0  0  0  0  0  0  0  0  0
  -32.1098  -17.7854   21.1566 C   0  0  0  0  0  0  0  0  0  0  0  0
  -20.8076   -6.5608   26.1871 C   0  0  0  0  0  0  0  0  0  0  0  0
  -23.9671  -10.5689   21.4356 C   0  0  0  0  0  0  0  0  0  0  0  0
  -24.1437  -13.0587   20.9088 C   0  0  0  0  0  0  0  0  0  0  0  0
  -21.4362  -12.2517   29.1171 C   0  0  0  0  0  0  0  0  0  0  0  0
  -26.8983  -15.1042   25.9646 C   0  0  0  0  0  0  0  0  0  0  0  0
  -22.7982  -12.1599   29.4691 C   0  0  0  0  0  0  0  0  0  0  0  0
  -26.2646  -16.3037   26.3193 C   0  0  0  0  0  0  0  0  0  0  0  0
  -29.8371  -19.2014   21.9394 C   0  0  0  0  0  0  0  0  0  0  0  0
  -31.1830  -17.1965   22.0168 C   0  0  0  0  0  0  0  0  0  0  0  0
  -22.6346   -8.2831   22.3201 C   0  0  0  0  0  0  0  0  0  0  0  0
  -26.1600  -16.9282   23.9722 C   0  0  0  0  0  0  0  0  0  0  0  0
  -21.2436   -7.2661   23.9178 C   0  0  0  0  0  0  0  0  0  0  0  0
  -19.7501   -7.4670   26.2655 C   0  0  0  0  0  0  0  0  0  0  0  0
  -31.9002  -19.0823   20.6877 C   0  0  0  0  0  0  0  0  0  0  0  0
  -21.5543   -6.4604   25.0132 C   0  0  0  0  0  0  0  0  0  0  0  0
  -24.6559  -11.7493   20.9793 C   0  0  0  0  0  0  0  0  0  0  0  0
  -25.1830  -13.8078   20.4138 C   0  0  0  0  0  0  0  0  0  0  0  0
  -22.8446  -13.5536   21.2596 C   0  0  0  0  0  0  0  0  0  0  0  0
  -25.1499  -13.6984   28.2163 C   0  0  0  0  0  0  0  0  0  0  0  0
  -26.4958  -15.9530   30.1209 C   0  0  0  0  0  0  0  0  0  0  0  0
  -27.9784  -19.0158   30.3820 C   0  0  0  0  0  0  0  0  0  0  0  0
  -30.9529  -14.1850   20.6980 C   0  0  0  0  0  0  0  0  0  0  0  0
  -20.9446  -11.8742   27.7419 C   0  0  0  0  0  0  0  0  0  0  0  0
  -27.3296  -14.1281   27.0245 C   0  0  0  0  0  0  0  0  0  0  0  0
  -25.9627  -16.6467   27.7545 C   0  0  0  0  0  0  0  0  0  0  0  0
  -21.9145  -10.9668   26.9921 C   0  0  0  0  0  0  0  0  0  0  0  0
  -29.2981  -12.8022   17.8648 C   0  0  0  0  0  0  0  0  0  0  0  0
  -23.3194  -11.5478   27.0492 C   0  0  0  0  0  0  0  0  0  0  0  0
  -27.8848  -12.5115   18.3726 C   0  0  0  0  0  0  0  0  0  0  0  0
  -30.3490  -12.5448   18.9425 C   0  0  0  0  0  0  0  0  0  0  0  0
  -28.6986  -12.9545   20.7263 C   0  0  0  0  0  0  0  0  0  0  0  0
  -23.8258  -11.6114   28.4957 C   0  0  1  0  0  0  0  0  0  0  0  0
  -26.5374  -14.2653   28.3211 C   0  0  1  0  0  0  0  0  0  0  0  0
  -27.5995  -13.2531   19.6924 C   0  0  2  0  0  0  0  0  0  0  0  0
  -28.9345  -20.6037   32.0736 C   0  0  0  0  0  0  0  0  0  0  0  0
  -27.6008  -20.5734   20.1267 C   0  0  0  0  0  0  0  0  0  0  0  0
  -23.6739  -16.7298   30.9832 C   0  0  0  0  0  0  0  0  0  0  0  0
  -24.6138  -18.8662   31.8890 C   0  0  0  0  0  0  0  0  0  0  0  0
  -25.3541  -16.6799   32.8350 C   0  0  0  0  0  0  0  0  0  0  0  0
  -25.9256  -21.5674   22.6014 C   0  0  0  0  0  0  0  0  0  0  0  0
  -24.8363  -19.8514   21.1464 C   0  0  0  0  0  0  0  0  0  0  0  0
  -30.6584  -18.9182   29.1302 C   0  0  0  0  0  0  0  0  0  0  0  0
  -28.6052  -19.9693   22.3642 C   0  0  0  0  0  0  0  0  0  0  0  0
  -31.4075  -15.8098   22.5179 C   0  0  0  0  0  0  0  0  0  0  0  0
  -25.7669  -19.1948   23.3687 C   0  0  0  0  0  0  0  0  0  1  0  0
  -26.1359  -17.3611   30.5292 C   0  0  1  0  0  0  0  0  0  0  0  0
  -29.2332  -19.4690   31.1061 C   0  0  2  0  0  0  0  0  0  0  0  0
  -27.3821  -19.7743   21.4268 C   0  0  1  0  0  0  0  0  0  0  0  0
  -24.9482  -17.4022   31.5318 C   0  0  0  0  0  0  0  0  0  0  0  0
  -26.0045  -20.1015   22.1310 C   0  0  0  0  0  0  0  0  0  0  0  0
  -25.9222  -11.6679   20.5621 N   0  0  0  0  0  0  0  0  0  0  0  0
  -26.2143  -12.9355   20.2248 N   0  0  0  0  0  0  0  0  0  0  0  0
  -26.3984  -15.6573   28.7538 N   0  0  0  0  0  0  0  0  0  0  0  0
  -30.0206  -13.2781   20.1674 N   0  0  0  0  0  0  0  0  0  0  0  0
  -25.3062  -15.1210   20.1260 N   0  0  0  0  0  0  0  0  0  0  0  0
  -21.8955  -12.6481   21.7533 N   0  0  0  0  0  0  0  0  0  0  0  0
  -25.0657  -12.3552   28.5296 N   0  0  0  0  0  0  0  0  0  0  0  0
  -27.3640  -17.9667   31.0325 N   0  0  0  0  0  0  0  0  0  0  0  0
  -30.5598  -14.8426   21.8572 N   0  0  0  0  0  0  0  0  0  0  0  0
  -30.2535  -19.9416   30.1281 N   0  3  0  0  0  0  0  0  0  0  0  0
  -22.5292  -14.7600   21.1235 O   0  0  0  0  0  0  0  0  0  0  0  0
  -24.2239  -14.4262   27.8777 O   0  0  0  0  0  0  0  0  0  0  0  0
  -26.8571  -15.1473   30.9822 O   0  0  0  0  0  0  0  0  0  0  0  0
  -27.5807  -19.5424   29.3451 O   0  0  0  0  0  0  0  0  0  0  0  0
  -32.0518  -14.3971   20.1742 O   0  0  0  0  0  0  0  0  0  0  0  0
  -21.9845   -7.1681   22.7520 O   0  0  0  0  0  0  0  0  0  0  0  0
  -25.7956  -17.8149   23.0063 O   0  0  0  0  0  0  0  0  0  1  0  0
  -19.0339   -7.5647   27.3932 F   0  0  0  0  0  0  0  0  0  0  0  0
  -32.7905  -19.6483   19.8625 F   0  0  0  0  0  0  0  0  0  0  0  0
  -22.5699   -5.5887   24.9442 F   0  0  0  0  0  0  0  0  0  0  0  0
  1  2  1  0  0  0  0
  1  5  2  0  0  0  0
  2  6  2  0  0  0  0
  3  8  2  0  0  0  0
  3 18  1  0  0  0  0
  4  9  1  0  0  0  0
  4 18  2  0  0  0  0
  5 20  1  0  0  0  0
  6 22  1  0  0  0  0
  7 10  2  0  0  0  0
  7 21  1  0  0  0  0
  8 26  1  0  0  0  0
  9 26  2  0  0  0  0
 10 27  1  0  0  0  0
 11 12  2  0  0  0  0
 11 28  1  0  0  0  0
 12 29  1  0  0  0  0
 13 23  1  0  0  0  0
 13 27  2  0  0  0  0
 14 24  2  0  0  0  0
 14 25  1  0  0  0  0
 15 24  1  0  0  0  0
 15 30  2  0  0  0  0
 16 25  2  0  0  0  0
 16 30  1  0  0  0  0
 17 29  2  0  0  0  0
 17 31  1  0  0  0  0
 18 32  1  0  0  0  0
 19 32  1  0  0  0  0
 19 33  2  0  0  0  0
 19 34  1  0  0  0  0
 20 22  2  0  0  0  0
 20 39  1  0  0  0  0
 21 23  2  0  0  0  0
 21 40  1  0  0  0  0
 22 48  1  0  0  0  0
 23 41  1  0  0  0  0
 24 59  1  0  0  0  0
 25 60  1  0  0  0  0
 26 82  1  0  0  0  0
 27 83  1  0  0  0  0
 28 31  2  0  0  0  0
 28 82  1  0  0  0  0
 29 84  1  0  0  0  0
 30 85  1  0  0  0  0
 31 86  1  0  0  0  0
 32 67  2  0  0  0  0
 33 68  1  0  0  0  0
 33 71  1  0  0  0  0
 34 72  1  0  0  0  0
 34 77  2  0  0  0  0
 35 49  1  0  0  0  0
 35 73  1  0  0  0  0
 35 78  2  0  0  0  0
 36 62  1  0  0  0  0
 36 69  1  0  0  0  0
 36 79  2  0  0  0  0
 37 63  1  0  0  0  0
 37 74  1  0  0  0  0
 37 80  2  0  0  0  0
 38 70  1  0  0  0  0
 38 75  1  0  0  0  0
 38 81  2  0  0  0  0
 39 42  1  0  0  0  0
 40 49  1  0  0  0  0
 41 69  1  0  0  0  0
 42 44  1  0  0  0  0
 43 45  1  0  0  0  0
 43 46  1  0  0  0  0
 44 48  1  0  0  0  0
 45 50  1  0  0  0  0
 46 70  1  0  0  0  0
 47 50  1  0  0  0  0
 47 70  1  0  0  0  0
 48 73  1  0  0  0  0
 49 69  1  0  0  0  0
 50 68  1  0  0  0  0
 51 63  1  0  0  0  0
 52 64  1  0  0  0  0
 53 65  1  0  0  0  0
 54 65  1  0  0  0  0
 55 65  1  0  0  0  0
 56 66  1  0  0  0  0
 57 66  1  0  0  0  0
 58 76  1  0  0  0  0
 59 64  1  0  0  0  0
 60 75  1  0  0  0  0
 61 66  1  0  0  0  0
 61 83  1  0  0  0  0
 62 65  1  0  0  0  0
 62 74  1  0  0  0  0
 63 76  1  0  0  0  0
 64 66  1  0  0  0  0
 67 68  1  0  0  0  0
M  CHG  1  76   1
M  ISO  4  38 100  61 101  75 100  83 101
M  END
> <Batch ID>
0137

> <Smiles>
CNC(C)C(=O)NC(C(=O)N1Cc2cc([101O:1][101CH2:1]C(C)(C)C(C)Cc3cc(F)cc(C[100NH:0][100C:0](=O)N4CCCC(n5nc(-c6ccc(Oc7ccc(F)cc7F)cc6)c(C(N)=O)c5N)C4)c3)ccc2CC1C(=O)NC1CCCc2ccccc21)C(C)(C)C

> <Shape>
0.177

> <Color>
0.166

> <Negative vol penalty>
0.000

$$$$

  -OEChem-04052302423D

 85 93  0     1  0  0  0  0  0999 V2000
  -25.9560  -17.0271   13.9456 C   0  0  0  0  0  0  0  0  0  0  0  0
  -26.8858  -16.6275   14.9001 C   0  0  0  0  0  0  0  0  0  0  0  0
  -26.0546  -29.9830   19.8315 C   0  0  0  0  0  0  0  0  0  0  0  0
  -25.3146  -28.8957   21.8582 C   0  0  0  0  0  0  0  0  0  0  0  0
  -24.6287  -17.2425   14.3143 C   0  0  0  0  0  0  0  0  0  0  0  0
  -26.4891  -16.4442   16.2243 C   0  0  0  0  0  0  0  0  0  0  0  0
  -28.3517  -12.1877   18.2388 C   0  0  0  0  0  0  0  0  0  0  0  0
  -28.1593  -18.8477   24.3048 C   0  0  0  0  0  0  0  0  0  0  0  0
  -27.1990  -19.8593   24.3016 C   0  0  0  0  0  0  0  0  0  0  0  0
  -24.8317  -30.6479   19.7417 C   0  0  0  0  0  0  0  0  0  0  0  0
  -24.0917  -29.5606   21.7684 C   0  0  0  0  0  0  0  0  0  0  0  0
  -29.6842  -12.2071   18.6483 C   0  0  0  0  0  0  0  0  0  0  0  0
  -20.6408  -30.6959   21.8777 C   0  0  0  0  0  0  0  0  0  0  0  0
  -19.4811  -29.9529   22.0984 C   0  0  0  0  0  0  0  0  0  0  0  0
  -28.9721  -12.5367   20.9294 C   0  0  0  0  0  0  0  0  0  0  0  0
  -29.3398  -19.9625   22.5158 C   0  0  0  0  0  0  0  0  0  0  0  0
  -20.0512  -28.5125   20.2443 C   0  0  0  0  0  0  0  0  0  0  0  0
  -26.2960  -29.1069   20.8898 C   0  0  0  0  0  0  0  0  0  0  0  0
  -28.7205  -28.8610   21.6441 C   0  0  0  0  0  0  0  0  0  0  0  0
  -24.2135  -17.0523   15.6417 C   0  0  0  0  0  0  0  0  0  0  0  0
  -27.3179  -12.3539   19.1716 C   0  0  0  0  0  0  0  0  0  0  0  0
  -25.1553  -16.6585   16.6114 C   0  0  0  0  0  0  0  0  0  0  0  0
  -27.6272  -12.5165   20.5295 C   0  0  0  0  0  0  0  0  0  0  0  0
  -29.2297  -18.8993   23.4119 C   0  0  0  0  0  0  0  0  0  0  0  0
  -27.3090  -20.9225   23.4054 C   0  0  0  0  0  0  0  0  0  0  0  0
  -28.3794  -20.9741   22.5125 C   0  0  0  0  0  0  0  0  0  0  0  0
  -23.8503  -30.4367   20.7101 C   0  0  0  0  0  0  0  0  0  0  0  0
  -29.9947  -12.3845   19.9933 C   0  0  0  0  0  0  0  0  0  0  0  0
  -21.5056  -30.3473   20.8403 C   0  0  0  0  0  0  0  0  0  0  0  0
  -19.1863  -28.8612   21.2817 C   0  0  0  0  0  0  0  0  0  0  0  0
  -21.2108  -29.2556   20.0236 C   0  0  0  0  0  0  0  0  0  0  0  0
  -27.5589  -28.4194   20.9828 C   0  0  0  0  0  0  0  0  0  0  0  0
  -29.6347  -27.8565   21.4399 C   0  0  0  0  0  0  0  0  0  0  0  0
  -28.9525  -30.0710   22.3774 C   0  0  0  0  0  0  0  0  0  0  0  0
  -25.0092  -14.4956   19.6036 C   0  0  0  0  0  0  0  0  0  0  0  0
  -24.0674  -12.4357   21.9257 C   0  0  0  0  0  0  0  0  0  0  0  0
  -24.9081   -9.9546   24.1129 C   0  0  0  0  0  0  0  0  0  0  0  0
  -29.0957  -22.0098   20.3306 C   0  0  0  0  0  0  0  0  0  0  0  0
  -22.7782  -17.3432   16.0021 C   0  0  0  0  0  0  0  0  0  0  0  0
  -25.8848  -12.3038   18.7175 C   0  0  0  0  0  0  0  0  0  0  0  0
  -26.5538  -12.6789   21.5735 C   0  0  0  0  0  0  0  0  0  0  0  0
  -22.3595  -16.7644   17.3511 C   0  0  0  0  0  0  0  0  0  0  0  0
  -30.7796  -24.4133   18.3145 C   0  0  0  0  0  0  0  0  0  0  0  0
  -23.4128  -17.0673   18.4120 C   0  0  0  0  0  0  0  0  0  0  0  0
  -30.2551  -25.7538   18.8342 C   0  0  0  0  0  0  0  0  0  0  0  0
  -29.6932  -23.3393   18.3180 C   0  0  0  0  0  0  0  0  0  0  0  0
  -28.4794  -24.4982   20.1217 C   0  0  0  0  0  0  0  0  0  0  0  0
  -24.7582  -16.4252   18.0529 C   0  0  1  0  0  0  0  0  0  0  0  0
  -24.9278  -12.9973   19.6821 C   0  0  1  0  0  0  0  0  0  0  0  0
  -29.5547  -25.5944   20.1979 C   0  0  2  0  0  0  0  0  0  0  0  0
  -26.2651  -21.9916   23.4238 C   0  0  0  0  0  0  0  0  0  0  0  0
  -23.9330   -8.4970   25.9079 C   0  0  0  0  0  0  0  0  0  0  0  0
  -24.1120  -14.7939   23.8615 C   0  0  0  0  0  0  0  0  0  0  0  0
  -24.0727  -13.1529   25.7520 C   0  0  0  0  0  0  0  0  0  0  0  0
  -22.1668  -13.2478   24.1454 C   0  0  0  0  0  0  0  0  0  0  0  0
  -31.4603  -12.3032   22.7749 C   0  0  0  0  0  0  0  0  0  0  0  0
  -33.0623  -13.6396   21.3792 C   0  0  0  0  0  0  0  0  0  0  0  0
  -25.5255   -7.4845   22.6041 C   0  0  0  0  0  0  0  0  0  0  0  0
  -30.2676  -17.8053   23.4163 C   0  0  0  0  0  0  0  0  0  0  0  0
  -29.9427  -16.6392   22.4758 C   0  0  0  0  0  0  0  0  0  0  0  0
  -31.0162  -15.5438   22.4861 C   0  0  0  0  0  0  0  0  0  0  0  0
  -30.6312  -14.3894   21.5558 C   0  0  0  0  0  0  0  0  0  0  0  0
  -24.3733  -12.2681   23.3945 C   0  0  1  0  0  0  0  0  0  0  0  0
  -24.2509   -8.6224   24.4260 C   0  0  2  0  0  0  0  0  0  0  0  0
  -23.7017  -13.3646   24.2686 C   0  0  0  0  0  0  0  0  0  0  0  0
  -31.6079  -13.1958   21.5410 C   0  0  0  0  0  0  0  0  0  1  0  0
  -27.7179  -27.2272   20.4019 N   0  0  0  0  0  0  0  0  0  0  0  0
  -28.9903  -26.9112   20.6974 N   0  0  0  0  0  0  0  0  0  0  0  0
  -25.1680  -12.6292   21.0789 N   0  0  0  0  0  0  0  0  0  0  0  0
  -29.0772  -23.2418   19.6432 N   0  0  0  0  0  0  0  0  0  0  0  0
  -30.9190  -27.6984   21.8249 N   0  0  0  0  0  0  0  0  0  0  0  0
  -27.9049  -30.9953   22.4899 N   0  0  0  0  0  0  0  0  0  0  0  0
  -28.5090  -22.0462   21.5951 N   0  0  0  0  0  0  0  0  0  0  0  0
  -24.7375  -15.0089   18.3497 N   0  0  0  0  0  0  0  0  0  0  0  0
  -23.9821  -10.9057   23.7400 N   0  0  0  0  0  0  0  0  0  0  0  0
  -25.1504   -7.4981   24.0415 N   0  3  0  0  0  0  0  0  0  0  0  0
  -30.0611  -30.3325   22.9029 O   0  0  0  0  0  0  0  0  0  0  0  0
  -25.2958  -15.1385   20.6067 O   0  0  0  0  0  0  0  0  0  0  0  0
  -22.8956  -12.3893   21.5429 O   0  0  0  0  0  0  0  0  0  0  0  0
  -26.1211  -10.1345   24.1948 O   0  0  0  0  0  0  0  0  0  0  0  0
  -29.6193  -21.0036   19.8453 O   0  0  0  0  0  0  0  0  0  0  0  0
  -22.6569  -31.0855   20.6229 O   0  0  0  0  0  0  0  0  0  0  0  0
  -31.2946  -12.4045   20.3956 O   0  0  0  0  0  0  0  0  0  1  0  0
  -18.0734  -28.1469   21.4948 F   0  0  0  0  0  0  0  0  0  0  0  0
  -22.0384  -28.9151   19.0262 F   0  0  0  0  0  0  0  0  0  0  0  0
  1  2  1  0  0  0  0
  1  5  2  0  0  0  0
  2  6  2  0  0  0  0
  3 10  2  0  0  0  0
  3 18  1  0  0  0  0
  4 11  1  0  0  0  0
  4 18  2  0  0  0  0
  5 20  1  0  0  0  0
  6 22  1  0  0  0  0
  7 12  2  0  0  0  0
  7 21  1  0  0  0  0
  8  9  2  0  0  0  0
  8 24  1  0  0  0  0
  9 25  1  0  0  0  0
 10 27  1  0  0  0  0
 11 27  2  0  0  0  0
 12 28  1  0  0  0  0
 13 14  2  0  0  0  0
 13 29  1  0  0  0  0
 14 30  1  0  0  0  0
 15 23  1  0  0  0  0
 15 28  2  0  0  0  0
 16 24  2  0  0  0  0
 16 26  1  0  0  0  0
 17 30  2  0  0  0  0
 17 31  1  0  0  0  0
 18 32  1  0  0  0  0
 19 32  1  0  0  0  0
 19 33  2  0  0  0  0
 19 34  1  0  0  0  0
 20 22  2  0  0  0  0
 20 39  1  0  0  0  0
 21 23  2  0  0  0  0
 21 40  1  0  0  0  0
 22 48  1  0  0  0  0
 23 41  1  0  0  0  0
 24 59  1  0  0  0  0
 25 26  2  0  0  0  0
 25 51  1  0  0  0  0
 26 73  1  0  0  0  0
 27 82  1  0  0  0  0
 28 83  1  0  0  0  0
 29 31  2  0  0  0  0
 29 82  1  0  0  0  0
 30 84  1  0  0  0  0
 31 85  1  0  0  0  0
 32 67  2  0  0  0  0
 33 68  1  0  0  0  0
 33 71  1  0  0  0  0
 34 72  1  0  0  0  0
 34 77  2  0  0  0  0
 35 49  1  0  0  0  0
 35 74  1  0  0  0  0
 35 78  2  0  0  0  0
 36 63  1  0  0  0  0
 36 69  1  0  0  0  0
 36 79  2  0  0  0  0
 37 64  1  0  0  0  0
 37 75  1  0  0  0  0
 37 80  2  0  0  0  0
 38 70  1  0  0  0  0
 38 73  1  0  0  0  0
 38 81  2  0  0  0  0
 39 42  1  0  0  0  0
 40 49  1  0  0  0  0
 41 69  1  0  0  0  0
 42 44  1  0  0  0  0
 43 45  1  0  0  0  0
 43 46  1  0  0  0  0
 44 48  1  0  0  0  0
 45 50  1  0  0  0  0
 46 70  1  0  0  0  0
 47 50  1  0  0  0  0
 47 70  1  0  0  0  0
 48 74  1  0  0  0  0
 49 69  1  0  0  0  0
 50 68  1  0  0  0  0
 52 64  1  0  0  0  0
 53 65  1  0  0  0  0
 54 65  1  0  0  0  0
 55 65  1  0  0  0  0
 56 66  1  0  0  0  0
 57 66  1  0  0  0  0
 58 76  1  0  0  0  0
 59 60  1  0  0  0  0
 60 61  1  0  0  0  0
 61 62  1  0  0  0  0
 62 66  1  0  0  0  0
 63 65  1  0  0  0  0
 63 75  1  0  0  0  0
 64 76  1  0  0  0  0
 66 83  1  0  0  0  0
 67 68  1  0  0  0  0
M  CHG  1  76   1
M  ISO  4  38 100  66 101  73 100  83 101
M  END
> <Batch ID>
0137

> <Smiles>
CNC(C)C(=O)NC(C(=O)N1Cc2cc([101O:1][101C:1](C)(C)CCCCc3ccc(C)c([100NH:0][100C:0](=O)N4CCCC(n5nc(-c6ccc(Oc7ccc(F)cc7F)cc6)c(C(N)=O)c5N)C4)c3)ccc2CC1C(=O)NC1CCCc2ccccc21)C(C)(C)C

> <Shape>
0.258

> <Color>
0.074

> <Negative vol penalty>
0.000

$$$$

  -OEChem-04052302423D

 83 91  0     1  0  0  0  0  0999 V2000
  -21.0210  -33.3959   19.0299 C   0  0  0  0  0  0  0  0  0  0  0  0
  -22.2305  -32.7268   19.1869 C   0  0  0  0  0  0  0  0  0  0  0  0
  -24.5186   -9.5849   21.8227 C   0  0  0  0  0  0  0  0  0  0  0  0
  -24.5454  -10.9624   23.8074 C   0  0  0  0  0  0  0  0  0  0  0  0
  -20.0572  -33.3368   20.0356 C   0  0  0  0  0  0  0  0  0  0  0  0
  -22.4774  -31.9989   20.3504 C   0  0  0  0  0  0  0  0  0  0  0  0
  -24.5171  -27.4608   19.4069 C   0  0  0  0  0  0  0  0  0  0  0  0
  -24.1355   -8.4855   22.5909 C   0  0  0  0  0  0  0  0  0  0  0  0
  -24.1622   -9.8630   24.5756 C   0  0  0  0  0  0  0  0  0  0  0  0
  -25.8775  -27.4247   19.1042 C   0  0  0  0  0  0  0  0  0  0  0  0
  -22.7999   -5.4009   23.9753 C   0  0  0  0  0  0  0  0  0  0  0  0
  -21.7736   -4.5934   23.4853 C   0  0  0  0  0  0  0  0  0  0  0  0
  -26.3582  -26.7581   21.3722 C   0  0  0  0  0  0  0  0  0  0  0  0
  -29.5747  -20.0216   19.8766 C   0  0  0  0  0  0  0  0  0  0  0  0
  -20.2732   -6.4870   23.5073 C   0  0  0  0  0  0  0  0  0  0  0  0
  -27.4016  -19.9564   20.4623 C   0  0  0  0  0  0  0  0  0  0  0  0
  -24.7237  -10.8233   22.4310 C   0  0  0  0  0  0  0  0  0  0  0  0
  -24.2751  -12.8897   21.0039 C   0  0  0  0  0  0  0  0  0  0  0  0
  -20.2885  -32.5999   21.2078 C   0  0  0  0  0  0  0  0  0  0  0  0
  -24.0671  -27.1559   20.6996 C   0  0  0  0  0  0  0  0  0  0  0  0
  -21.5163  -31.9309   21.3733 C   0  0  0  0  0  0  0  0  0  0  0  0
  -24.9913  -26.7885   21.6880 C   0  0  0  0  0  0  0  0  0  0  0  0
  -28.5254  -19.1745   20.3106 C   0  0  0  0  0  0  0  0  0  0  0  0
  -23.9572   -8.6245   23.9673 C   0  0  0  0  0  0  0  0  0  0  0  0
  -26.7986  -27.0761   20.0877 C   0  0  0  0  0  0  0  0  0  0  0  0
  -22.5629   -6.7515   24.2314 C   0  0  0  0  0  0  0  0  0  0  0  0
  -20.5103   -5.1364   23.2513 C   0  0  0  0  0  0  0  0  0  0  0  0
  -21.2996   -7.2945   23.9974 C   0  0  0  0  0  0  0  0  0  0  0  0
  -25.1200  -11.9593   21.6381 C   0  0  0  0  0  0  0  0  0  0  0  0
  -29.0603  -21.2955   19.7765 C   0  0  0  0  0  0  0  0  0  0  0  0
  -25.1327  -13.7661   20.3851 C   0  0  0  0  0  0  0  0  0  0  0  0
  -22.8431  -12.9560   20.9768 C   0  0  0  0  0  0  0  0  0  0  0  0
  -22.5134  -28.7505   22.9682 C   0  0  0  0  0  0  0  0  0  0  0  0
  -22.5140  -25.8660   24.4521 C   0  0  0  0  0  0  0  0  0  0  0  0
  -23.9605  -22.7968   24.8187 C   0  0  0  0  0  0  0  0  0  0  0  0
  -29.7012  -16.9489   20.4127 C   0  0  0  0  0  0  0  0  0  0  0  0
  -19.2355  -32.6041   22.2876 C   0  0  0  0  0  0  0  0  0  0  0  0
  -22.5940  -27.1735   21.0029 C   0  0  0  0  0  0  0  0  0  0  0  0
  -24.5579  -26.4327   23.0859 C   0  0  0  0  0  0  0  0  0  0  0  0
  -19.4255  -31.5032   23.3279 C   0  0  0  0  0  0  0  0  0  0  0  0
  -30.1305  -13.5028   19.6271 C   0  0  0  0  0  0  0  0  0  0  0  0
  -20.8804  -31.4435   23.7824 C   0  0  0  0  0  0  0  0  0  0  0  0
  -28.7957  -12.8706   20.0281 C   0  0  0  0  0  0  0  0  0  0  0  0
  -30.5416  -14.6170   20.5880 C   0  0  0  0  0  0  0  0  0  0  0  0
  -28.1917  -15.0234   21.2061 C   0  0  0  0  0  0  0  0  0  0  0  0
  -21.8113  -31.1105   22.6103 C   0  0  1  0  0  0  0  0  0  0  0  0
  -22.2918  -27.3439   22.4885 C   0  0  1  0  0  0  0  0  0  0  0  0
  -27.7041  -13.9396   20.2307 C   0  0  2  0  0  0  0  0  0  0  0  0
  -23.7613  -20.6698   26.1353 C   0  0  0  0  0  0  0  0  0  0  0  0
  -23.7494  -27.2520   26.8734 C   0  0  0  0  0  0  0  0  0  0  0  0
  -24.3916  -24.9963   27.7495 C   0  0  0  0  0  0  0  0  0  0  0  0
  -21.9852  -25.5669   27.4235 C   0  0  0  0  0  0  0  0  0  0  0  0
  -31.6509  -25.1694   21.5930 C   0  0  0  0  0  0  0  0  0  0  0  0
  -32.2485  -24.3705   19.3020 C   0  0  0  0  0  0  0  0  0  0  0  0
  -23.4900  -21.1926   22.3765 C   0  0  0  0  0  0  0  0  0  0  0  0
  -29.7116  -22.5938   19.3644 C   0  0  0  0  0  0  0  0  0  0  0  0
  -30.3118  -23.3252   20.5729 C   0  0  0  0  0  0  0  0  0  0  0  0
  -30.1035  -25.6909   19.6441 C   0  0  0  0  0  0  0  0  0  0  0  0
  -28.9281  -26.1112   20.5238 C   0  0  0  0  0  0  0  0  0  1  0  0
  -23.4457  -25.1525   25.4018 C   0  0  1  0  0  0  0  0  0  0  0  0
  -23.3648  -21.4012   24.8623 C   0  0  2  0  0  0  0  0  0  0  0  0
  -23.4016  -25.7505   26.8363 C   0  0  0  0  0  0  0  0  0  0  0  0
  -31.0747  -24.6482   20.2592 C   0  0  0  0  0  0  0  0  0  0  0  0
  -26.4149  -12.2201   21.4402 N   0  0  0  0  0  0  0  0  0  0  0  0
  -27.7386  -21.2439   20.1352 N   0  0  0  0  0  0  0  0  0  0  0  0
  -26.3901  -13.3244   20.6746 N   0  0  0  0  0  0  0  0  0  0  0  0
  -23.1074  -26.4706   23.3349 N   0  0  0  0  0  0  0  0  0  0  0  0
  -29.4603  -15.5948   20.7273 N   0  0  0  0  0  0  0  0  0  0  0  0
  -24.9262  -14.8638   19.6269 N   0  0  0  0  0  0  0  0  0  0  0  0
  -22.1158  -11.9760   21.6658 N   0  0  0  0  0  0  0  0  0  0  0  0
  -28.5900  -17.7798   20.5520 N   0  0  0  0  0  0  0  0  0  0  0  0
  -21.7549  -29.6968   22.3059 N   0  0  0  0  0  0  0  0  0  0  0  0
  -23.0942  -23.7382   25.3329 N   0  0  0  0  0  0  0  0  0  0  0  0
  -23.8331  -20.6013   23.6954 N   0  3  0  0  0  0  0  0  0  0  0  0
  -22.2267  -13.8480   20.3461 O   0  0  0  0  0  0  0  0  0  0  0  0
  -23.3121  -28.9614   23.8733 O   0  0  0  0  0  0  0  0  0  0  0  0
  -21.3035  -25.8800   24.6889 O   0  0  0  0  0  0  0  0  0  0  0  0
  -25.0836  -23.0281   24.3763 O   0  0  0  0  0  0  0  0  0  0  0  0
  -30.8044  -17.3377   20.0205 O   0  0  0  0  0  0  0  0  0  0  0  0
  -23.5831   -7.5520   24.7172 O   0  0  0  0  0  0  0  0  0  0  0  0
  -28.1271  -27.0407   19.7951 O   0  0  0  0  0  0  0  0  0  1  0  0
  -19.5252   -4.3612   22.7792 F   0  0  0  0  0  0  0  0  0  0  0  0
  -21.0662   -8.5915   24.2404 F   0  0  0  0  0  0  0  0  0  0  0  0
  1  2  1  0  0  0  0
  1  5  2  0  0  0  0
  2  6  2  0  0  0  0
  3  8  2  0  0  0  0
  3 17  1  0  0  0  0
  4  9  1  0  0  0  0
  4 17  2  0  0  0  0
  5 19  1  0  0  0  0
  6 21  1  0  0  0  0
  7 10  2  0  0  0  0
  7 20  1  0  0  0  0
  8 24  1  0  0  0  0
  9 24  2  0  0  0  0
 10 25  1  0  0  0  0
 11 12  2  0  0  0  0
 11 26  1  0  0  0  0
 12 27  1  0  0  0  0
 13 22  1  0  0  0  0
 13 25  2  0  0  0  0
 14 23  1  0  0  0  0
 14 30  2  0  0  0  0
 15 27  2  0  0  0  0
 15 28  1  0  0  0  0
 16 23  2  0  0  0  0
 16 65  1  0  0  0  0
 17 29  1  0  0  0  0
 18 29  1  0  0  0  0
 18 31  2  0  0  0  0
 18 32  1  0  0  0  0
 19 21  2  0  0  0  0
 19 37  1  0  0  0  0
 20 22  2  0  0  0  0
 20 38  1  0  0  0  0
 21 46  1  0  0  0  0
 22 39  1  0  0  0  0
 23 71  1  0  0  0  0
 24 80  1  0  0  0  0
 25 81  1  0  0  0  0
 26 28  2  0  0  0  0
 26 80  1  0  0  0  0
 27 82  1  0  0  0  0
 28 83  1  0  0  0  0
 29 64  2  0  0  0  0
 30 56  1  0  0  0  0
 30 65  1  0  0  0  0
 31 66  1  0  0  0  0
 31 69  1  0  0  0  0
 32 70  1  0  0  0  0
 32 75  2  0  0  0  0
 33 47  1  0  0  0  0
 33 72  1  0  0  0  0
 33 76  2  0  0  0  0
 34 60  1  0  0  0  0
 34 67  1  0  0  0  0
 34 77  2  0  0  0  0
 35 61  1  0  0  0  0
 35 73  1  0  0  0  0
 35 78  2  0  0  0  0
 36 68  1  0  0  0  0
 36 71  1  0  0  0  0
 36 79  2  0  0  0  0
 37 40  1  0  0  0  0
 38 47  1  0  0  0  0
 39 67  1  0  0  0  0
 40 42  1  0  0  0  0
 41 43  1  0  0  0  0
 41 44  1  0  0  0  0
 42 46  1  0  0  0  0
 43 48  1  0  0  0  0
 44 68  1  0  0  0  0
 45 48  1  0  0  0  0
 45 68  1  0  0  0  0
 46 72  1  0  0  0  0
 47 67  1  0  0  0  0
 48 66  1  0  0  0  0
 49 61  1  0  0  0  0
 50 62  1  0  0  0  0
 51 62  1  0  0  0  0
 52 62  1  0  0  0  0
 53 63  1  0  0  0  0
 54 63  1  0  0  0  0
 55 74  1  0  0  0  0
 56 57  1  0  0  0  0
 57 63  1  0  0  0  0
 58 59  1  0  0  0  0
 58 63  1  0  0  0  0
 59 81  1  0  0  0  0
 60 62  1  0  0  0  0
 60 73  1  0  0  0  0
 61 74  1  0  0  0  0
 64 66  1  0  0  0  0
M  CHG  1  74   1
M  ISO  4  36 100  59 101  71 100  81 101
M  END
> <Batch ID>
0137

> <Smiles>
CNC(C)C(=O)NC(C(=O)N1Cc2cc([101O:1][101CH2:1]CC(C)(C)CCc3cc([100NH:0][100C:0](=O)N4CCCC(n5nc(-c6ccc(Oc7ccc(F)cc7F)cc6)c(C(N)=O)c5N)C4)c[nH]3)ccc2CC1C(=O)NC1CCCc2ccccc21)C(C)(C)C

> <Shape>
0.253

> <Color>
0.132

> <Negative vol penalty>
0.000

$$$$

  -OEChem-04052302423D

 86 94  0     1  0  0  0  0  0999 V2000
  -25.1246  -37.7614   22.1145 C   0  0  0  0  0  0  0  0  0  0  0  0
  -25.9603  -36.6866   21.8284 C   0  0  0  0  0  0  0  0  0  0  0  0
  -24.3421   -8.6180   21.4054 C   0  0  0  0  0  0  0  0  0  0  0  0
  -24.3004  -10.3297   23.1099 C   0  0  0  0  0  0  0  0  0  0  0  0
  -23.9551  -37.5583   22.8458 C   0  0  0  0  0  0  0  0  0  0  0  0
  -25.6273  -35.4080   22.2744 C   0  0  0  0  0  0  0  0  0  0  0  0
  -26.7050  -30.1093   19.3990 C   0  0  0  0  0  0  0  0  0  0  0  0
  -29.3212  -20.0883   19.0145 C   0  0  0  0  0  0  0  0  0  0  0  0
  -29.3459  -18.6962   18.9298 C   0  0  0  0  0  0  0  0  0  0  0  0
  -23.9781   -7.6634   22.3551 C   0  0  0  0  0  0  0  0  0  0  0  0
  -23.9363   -9.3751   24.0596 C   0  0  0  0  0  0  0  0  0  0  0  0
  -27.7062  -29.1500   19.5443 C   0  0  0  0  0  0  0  0  0  0  0  0
  -21.1562   -6.6626   23.9261 C   0  0  0  0  0  0  0  0  0  0  0  0
  -20.1577   -5.7521   23.5803 C   0  0  0  0  0  0  0  0  0  0  0  0
  -26.9108  -20.0553   18.8536 C   0  0  0  0  0  0  0  0  0  0  0  0
  -26.2580  -27.8652   20.9834 C   0  0  0  0  0  0  0  0  0  0  0  0
  -21.7062   -3.9276   23.9129 C   0  0  0  0  0  0  0  0  0  0  0  0
  -24.5033   -9.9511   21.7828 C   0  0  0  0  0  0  0  0  0  0  0  0
  -26.9355  -18.6633   18.7688 C   0  0  0  0  0  0  0  0  0  0  0  0
  -24.0191  -11.7131   20.0028 C   0  0  0  0  0  0  0  0  0  0  0  0
  -23.6028  -36.2750   23.2927 C   0  0  0  0  0  0  0  0  0  0  0  0
  -25.4746  -29.9589   20.0548 C   0  0  0  0  0  0  0  0  0  0  0  0
  -24.4527  -35.1877   23.0135 C   0  0  0  0  0  0  0  0  0  0  0  0
  -25.2419  -28.8227   20.8428 C   0  0  0  0  0  0  0  0  0  0  0  0
  -28.1037  -20.7679   18.9764 C   0  0  0  0  0  0  0  0  0  0  0  0
  -28.1531  -17.9837   18.8070 C   0  0  0  0  0  0  0  0  0  0  0  0
  -23.7752   -8.0420   23.6822 C   0  0  0  0  0  0  0  0  0  0  0  0
  -27.4838  -28.0291   20.3389 C   0  0  0  0  0  0  0  0  0  0  0  0
  -22.4298   -6.2056   24.2653 C   0  0  0  0  0  0  0  0  0  0  0  0
  -20.4327   -4.3846   23.5738 C   0  0  0  0  0  0  0  0  0  0  0  0
  -22.7047   -4.8382   24.2587 C   0  0  0  0  0  0  0  0  0  0  0  0
  -24.8798  -10.9376   20.8024 C   0  0  0  0  0  0  0  0  0  0  0  0
  -24.8612  -12.4896   19.2449 C   0  0  0  0  0  0  0  0  0  0  0  0
  -25.6718  -17.9486   18.6384 C   0  0  0  0  0  0  0  0  0  0  0  0
  -22.5864  -11.7302   19.9499 C   0  0  0  0  0  0  0  0  0  0  0  0
  -23.8883  -31.6157   22.2552 C   0  0  0  0  0  0  0  0  0  0  0  0
  -21.5547  -29.4466   21.6454 C   0  0  0  0  0  0  0  0  0  0  0  0
  -29.1657  -23.0418   19.1859 C   0  0  0  0  0  0  0  0  0  0  0  0
  -20.7107  -26.3420   20.5069 C   0  0  0  0  0  0  0  0  0  0  0  0
  -29.3384  -15.7617   18.7447 C   0  0  0  0  0  0  0  0  0  0  0  0
  -22.3525  -36.1124   24.1205 C   0  0  0  0  0  0  0  0  0  0  0  0
  -24.3952  -30.9894   19.8664 C   0  0  0  0  0  0  0  0  0  0  0  0
  -23.9310  -28.6042   21.5516 C   0  0  0  0  0  0  0  0  0  0  0  0
  -21.8818  -34.6648   24.2349 C   0  0  0  0  0  0  0  0  0  0  0  0
  -29.8753  -12.2450   18.5962 C   0  0  0  0  0  0  0  0  0  0  0  0
  -23.0539  -33.7469   24.5670 C   0  0  0  0  0  0  0  0  0  0  0  0
  -28.5527  -11.6552   19.0912 C   0  0  0  0  0  0  0  0  0  0  0  0
  -30.2407  -13.5255   19.3450 C   0  0  0  0  0  0  0  0  0  0  0  0
  -27.8713  -13.9654   19.8565 C   0  0  0  0  0  0  0  0  0  0  0  0
  -24.1132  -33.7818   23.4587 C   0  0  1  0  0  0  0  0  0  0  0  0
  -23.3664  -30.9898   20.9929 C   0  0  1  0  0  0  0  0  0  0  0  0
  -27.4288  -12.7099   19.0873 C   0  0  2  0  0  0  0  0  0  0  0  0
  -24.4591  -18.5714   19.2631 C   0  0  0  0  0  0  0  0  0  0  0  0
  -18.7293  -24.8403   20.1660 C   0  0  0  0  0  0  0  0  0  0  0  0
  -21.4726  -28.8788   24.6422 C   0  0  0  0  0  0  0  0  0  0  0  0
  -20.2168  -26.7724   24.1379 C   0  0  0  0  0  0  0  0  0  0  0  0
  -19.2309  -28.9840   23.5385 C   0  0  0  0  0  0  0  0  0  0  0  0
  -21.1660  -26.2112   17.5855 C   0  0  0  0  0  0  0  0  0  0  0  0
  -28.6956  -24.4886   19.2441 C   0  0  0  0  0  0  0  0  0  0  0  0
  -29.8494  -25.4761   19.3805 C   0  0  0  0  0  0  0  0  0  0  0  0
  -29.3586  -26.9165   19.3886 C   0  0  0  0  0  0  0  0  0  1  0  0
  -21.1819  -28.0930   22.2000 C   0  0  1  0  0  0  0  0  0  0  0  0
  -19.6392  -25.8826   19.5347 C   0  0  2  0  0  0  0  0  0  0  0  0
  -20.5511  -28.1868   23.6180 C   0  0  0  0  0  0  0  0  0  0  0  0
  -26.1698  -11.1975   20.5736 N   0  0  0  0  0  0  0  0  0  0  0  0
  -26.1259  -12.1450   19.6216 N   0  0  0  0  0  0  0  0  0  0  0  0
  -22.9093  -29.6430   21.3414 N   0  0  0  0  0  0  0  0  0  0  0  0
  -29.1305  -14.4794   19.2954 N   0  0  0  0  0  0  0  0  0  0  0  0
  -24.6358  -13.4265   18.2994 N   0  0  0  0  0  0  0  0  0  0  0  0
  -21.8762  -10.8684   20.7969 N   0  0  0  0  0  0  0  0  0  0  0  0
  -28.0794  -22.1802   19.0617 N   0  0  0  0  0  0  0  0  0  0  0  0
  -28.2025  -16.5702   18.7212 N   0  0  0  0  0  0  0  0  0  0  0  0
  -23.6901  -32.9812   22.3298 N   0  0  0  0  0  0  0  0  0  0  0  0
  -20.3205  -27.4665   21.2031 N   0  0  0  0  0  0  0  0  0  0  0  0
  -20.2633  -25.2874   18.3193 N   0  3  0  0  0  0  0  0  0  0  0  0
  -25.5293  -16.8721   18.0588 O   0  0  0  0  0  0  0  0  0  0  0  0
  -21.9550  -12.4755   19.1629 O   0  0  0  0  0  0  0  0  0  0  0  0
  -24.4293  -30.9117   23.0998 O   0  0  0  0  0  0  0  0  0  0  0  0
  -20.6753  -30.2959   21.4810 O   0  0  0  0  0  0  0  0  0  0  0  0
  -30.3530  -22.7400   19.2457 O   0  0  0  0  0  0  0  0  0  0  0  0
  -21.7848  -25.7594   20.6385 O   0  0  0  0  0  0  0  0  0  0  0  0
  -30.4362  -16.1068   18.2999 O   0  0  0  0  0  0  0  0  0  0  0  0
  -23.4198   -7.1108   24.6091 O   0  0  0  0  0  0  0  0  0  0  0  0
  -28.4596  -27.0916   20.4829 O   0  0  0  0  0  0  0  0  0  1  0  0
  -19.4733   -3.5103   23.2432 F   0  0  0  0  0  0  0  0  0  0  0  0
  -23.9260   -4.3931   24.5847 F   0  0  0  0  0  0  0  0  0  0  0  0
  1  2  1  0  0  0  0
  1  5  2  0  0  0  0
  2  6  2  0  0  0  0
  3 10  2  0  0  0  0
  3 18  1  0  0  0  0
  4 11  1  0  0  0  0
  4 18  2  0  0  0  0
  5 21  1  0  0  0  0
  6 23  1  0  0  0  0
  7 12  2  0  0  0  0
  7 22  1  0  0  0  0
  8  9  2  0  0  0  0
  8 25  1  0  0  0  0
  9 26  1  0  0  0  0
 10 27  1  0  0  0  0
 11 27  2  0  0  0  0
 12 28  1  0  0  0  0
 13 14  2  0  0  0  0
 13 29  1  0  0  0  0
 14 30  1  0  0  0  0
 15 19  1  0  0  0  0
 15 25  2  0  0  0  0
 16 24  1  0  0  0  0
 16 28  2  0  0  0  0
 17 30  2  0  0  0  0
 17 31  1  0  0  0  0
 18 32  1  0  0  0  0
 19 26  2  0  0  0  0
 19 34  1  0  0  0  0
 20 32  1  0  0  0  0
 20 33  2  0  0  0  0
 20 35  1  0  0  0  0
 21 23  2  0  0  0  0
 21 41  1  0  0  0  0
 22 24  2  0  0  0  0
 22 42  1  0  0  0  0
 23 50  1  0  0  0  0
 24 43  1  0  0  0  0
 25 71  1  0  0  0  0
 26 72  1  0  0  0  0
 27 83  1  0  0  0  0
 28 84  1  0  0  0  0
 29 31  2  0  0  0  0
 29 83  1  0  0  0  0
 30 85  1  0  0  0  0
 31 86  1  0  0  0  0
 32 65  2  0  0  0  0
 33 66  1  0  0  0  0
 33 69  1  0  0  0  0
 34 53  1  0  0  0  0
 34 76  2  0  0  0  0
 35 70  1  0  0  0  0
 35 77  2  0  0  0  0
 36 51  1  0  0  0  0
 36 73  1  0  0  0  0
 36 78  2  0  0  0  0
 37 62  1  0  0  0  0
 37 67  1  0  0  0  0
 37 79  2  0  0  0  0
 38 59  1  0  0  0  0
 38 71  1  0  0  0  0
 38 80  2  0  0  0  0
 39 63  1  0  0  0  0
 39 74  1  0  0  0  0
 39 81  2  0  0  0  0
 40 68  1  0  0  0  0
 40 72  1  0  0  0  0
 40 82  2  0  0  0  0
 41 44  1  0  0  0  0
 42 51  1  0  0  0  0
 43 67  1  0  0  0  0
 44 46  1  0  0  0  0
 45 47  1  0  0  0  0
 45 48  1  0  0  0  0
 46 50  1  0  0  0  0
 47 52  1  0  0  0  0
 48 68  1  0  0  0  0
 49 52  1  0  0  0  0
 49 68  1  0  0  0  0
 50 73  1  0  0  0  0
 51 67  1  0  0  0  0
 52 66  1  0  0  0  0
 54 63  1  0  0  0  0
 55 64  1  0  0  0  0
 56 64  1  0  0  0  0
 57 64  1  0  0  0  0
 58 75  1  0  0  0  0
 59 60  1  0  0  0  0
 60 61  1  0  0  0  0
 61 84  1  0  0  0  0
 62 64  1  0  0  0  0
 62 74  1  0  0  0  0
 63 75  1  0  0  0  0
 65 66  1  0  0  0  0
M  CHG  1  75   1
M  ISO  4  40 100  61 101  72 100  84 101
M  END
> <Batch ID>
0137

> <Smiles>
CNC(C)C(=O)NC(C(=O)N1Cc2cc([101O:1][101CH2:1]CCC(=O)Nc3ccc([100NH:0][100C:0](=O)N4CCCC(n5nc(-c6ccc(Oc7ccc(F)cc7F)cc6)c(C(N)=O)c5N)C4)c(C(C)=O)c3)ccc2CC1C(=O)NC1CCCc2ccccc21)C(C)(C)C

> <Shape>
0.338

> <Color>
0.091

> <Negative vol penalty>
0.000

$$$$

  -OEChem-04052302423D

 84 92  0     1  0  0  0  0  0999 V2000
  -31.2118  -30.7693   15.5361 C   0  0  0  0  0  0  0  0  0  0  0  0
  -30.2556  -29.7642   15.4321 C   0  0  0  0  0  0  0  0  0  0  0  0
  -28.3681  -20.3574   14.4354 C   0  0  0  0  0  0  0  0  0  0  0  0
  -26.4664  -13.0764   21.4518 C   0  0  0  0  0  0  0  0  0  0  0  0
  -26.1680  -13.7476   19.1502 C   0  0  0  0  0  0  0  0  0  0  0  0
  -28.8244  -20.4252   15.7518 C   0  0  0  0  0  0  0  0  0  0  0  0
  -31.8954  -30.9581   16.7365 C   0  0  0  0  0  0  0  0  0  0  0  0
  -29.9832  -28.9465   16.5283 C   0  0  0  0  0  0  0  0  0  0  0  0
  -25.0184  -28.2659   17.2581 C   0  0  0  0  0  0  0  0  0  0  0  0
  -27.4798  -21.3194   13.9548 C   0  0  0  0  0  0  0  0  0  0  0  0
  -25.2092  -12.4726   21.4388 C   0  0  0  0  0  0  0  0  0  0  0  0
  -24.9107  -13.1437   19.1371 C   0  0  0  0  0  0  0  0  0  0  0  0
  -24.3717  -27.3533   16.4259 C   0  0  0  0  0  0  0  0  0  0  0  0
  -23.8391   -9.5958   20.3072 C   0  0  0  0  0  0  0  0  0  0  0  0
  -23.7257   -8.3228   20.8658 C   0  0  0  0  0  0  0  0  0  0  0  0
  -27.5039  -22.4170   16.1069 C   0  0  0  0  0  0  0  0  0  0  0  0
  -24.4803  -25.6928   18.1723 C   0  0  0  0  0  0  0  0  0  0  0  0
  -22.1163   -9.1652   22.4588 C   0  0  0  0  0  0  0  0  0  0  0  0
  -26.9458  -13.7140   20.3075 C   0  0  0  0  0  0  0  0  0  0  0  0
  -28.3923  -21.4550   16.5875 C   0  0  0  0  0  0  0  0  0  0  0  0
  -29.4765  -13.7449   19.9874 C   0  0  0  0  0  0  0  0  0  0  0  0
  -31.6243  -30.1486   17.8509 C   0  0  0  0  0  0  0  0  0  0  0  0
  -25.4113  -27.8948   18.5521 C   0  0  0  0  0  0  0  0  0  0  0  0
  -30.6647  -29.1238   17.7444 C   0  0  0  0  0  0  0  0  0  0  0  0
  -25.1295  -26.6034   19.0200 C   0  0  0  0  0  0  0  0  0  0  0  0
  -27.0476  -22.3492   14.7906 C   0  0  0  0  0  0  0  0  0  0  0  0
  -24.4313  -12.5062   20.2814 C   0  0  0  0  0  0  0  0  0  0  0  0
  -24.1051  -26.0656   16.8819 C   0  0  0  0  0  0  0  0  0  0  0  0
  -23.0913  -10.6537   20.8244 C   0  0  0  0  0  0  0  0  0  0  0  0
  -22.8642   -8.1075   21.9416 C   0  0  0  0  0  0  0  0  0  0  0  0
  -22.2299  -10.4383   21.9002 C   0  0  0  0  0  0  0  0  0  0  0  0
  -28.2443  -14.3385   20.3206 C   0  0  0  0  0  0  0  0  0  0  0  0
  -30.3987  -14.7481   20.1595 C   0  0  0  0  0  0  0  0  0  0  0  0
  -28.8676  -21.5253   17.9607 C   0  0  0  0  0  0  0  0  0  0  0  0
  -29.3979  -20.4990   18.6592 C   0  0  0  0  0  0  0  0  0  0  0  0
  -29.7620  -12.4062   19.5605 C   0  0  0  0  0  0  0  0  0  0  0  0
  -29.8467  -20.7330   20.0510 C   0  0  0  0  0  0  0  0  0  0  0  0
  -28.1930  -27.6680   20.0734 C   0  0  0  0  0  0  0  0  0  0  0  0
  -26.2990  -27.0522   22.6337 C   0  0  0  0  0  0  0  0  0  0  0  0
  -23.2941  -25.9473   23.8157 C   0  0  0  0  0  0  0  0  0  0  0  0
  -32.4225  -30.3599   19.1129 C   0  0  0  0  0  0  0  0  0  0  0  0
  -26.0841  -28.8993   19.4470 C   0  0  0  0  0  0  0  0  0  0  0  0
  -25.5125  -26.1617   20.4080 C   0  0  0  0  0  0  0  0  0  0  0  0
  -31.8078  -29.6937   20.3412 C   0  0  0  0  0  0  0  0  0  0  0  0
  -31.2004  -18.7183   22.6901 C   0  0  0  0  0  0  0  0  0  0  0  0
  -31.3909  -28.2621   20.0194 C   0  0  0  0  0  0  0  0  0  0  0  0
  -30.6749  -17.3191   22.3712 C   0  0  0  0  0  0  0  0  0  0  0  0
  -30.1922  -19.7951   22.3026 C   0  0  0  0  0  0  0  0  0  0  0  0
  -29.2328  -18.3293   20.5477 C   0  0  0  0  0  0  0  0  0  0  0  0
  -30.3236  -28.2325   18.9188 C   0  0  1  0  0  0  0  0  0  0  0  0
  -26.8990  -28.2535   20.5634 C   0  0  1  0  0  0  0  0  0  0  0  0
  -30.2353  -17.2164   20.8999 C   0  0  2  0  0  0  0  0  0  0  0  0
  -22.0548  -25.5229   25.9561 C   0  0  0  0  0  0  0  0  0  0  0  0
  -27.9312  -24.5118   23.0723 C   0  0  0  0  0  0  0  0  0  0  0  0
  -26.1063  -23.6814   24.5717 C   0  0  0  0  0  0  0  0  0  0  0  0
  -27.3570  -25.7569   25.1638 C   0  0  0  0  0  0  0  0  0  0  0  0
  -22.1375  -23.3821   14.1852 C   0  0  0  0  0  0  0  0  0  0  0  0
  -23.7462  -24.1861   12.4378 C   0  0  0  0  0  0  0  0  0  0  0  0
  -21.1863  -27.9044   23.1188 C   0  0  0  0  0  0  0  0  0  0  0  0
  -26.0871  -23.3909   14.2695 C   0  0  0  0  0  0  0  0  0  0  0  0
  -24.6285  -22.9716   14.5003 C   0  0  0  0  0  0  0  0  0  0  0  0
  -23.6845  -25.3098   14.6665 C   0  0  0  0  0  0  0  0  0  1  0  0
  -25.7056  -25.8084   23.2501 C   0  0  1  0  0  0  0  0  0  0  0  0
  -22.3443  -26.5250   24.8494 C   0  0  2  0  0  0  0  0  0  0  0  0
  -26.7694  -24.9470   23.9876 C   0  0  0  0  0  0  0  0  0  0  0  0
  -23.5505  -23.9460   13.9453 C   0  0  0  0  0  0  0  0  0  0  0  0
  -28.3689  -15.6196   20.6775 N   0  0  0  0  0  0  0  0  0  0  0  0
  -29.6904  -15.8391   20.5697 N   0  0  0  0  0  0  0  0  0  0  0  0
  -29.7690  -19.6469   20.9115 N   0  0  0  0  0  0  0  0  0  0  0  0
  -26.1739  -27.1780   21.2429 N   0  0  0  0  0  0  0  0  0  0  0  0
  -31.7382  -14.7946   19.9986 N   0  0  0  0  0  0  0  0  0  0  0  0
  -28.6974  -11.5032   19.4360 N   0  0  0  0  0  0  0  0  0  0  0  0
  -29.0284  -28.5828   19.4612 N   0  0  0  0  0  0  0  0  0  0  0  0
  -24.6074  -26.2575   24.0990 N   0  0  0  0  0  0  0  0  0  0  0  0
  -21.0528  -26.9058   24.2106 N   0  3  0  0  0  0  0  0  0  0  0  0
  -30.9287  -12.0176   19.3130 O   0  0  0  0  0  0  0  0  0  0  0  0
  -30.2401  -21.8662   20.2948 O   0  0  0  0  0  0  0  0  0  0  0  0
  -28.4177  -26.4749   20.2397 O   0  0  0  0  0  0  0  0  0  0  0  0
  -26.8468  -27.8849   23.3604 O   0  0  0  0  0  0  0  0  0  0  0  0
  -22.9098  -25.2838   22.8551 O   0  0  0  0  0  0  0  0  0  0  0  0
  -23.2045  -11.9168   20.2683 O   0  0  0  0  0  0  0  0  0  0  0  0
  -23.4746  -25.1727   16.0713 O   0  0  0  0  0  0  0  0  0  1  0  0
  -22.7542   -6.8846   22.4769 F   0  0  0  0  0  0  0  0  0  0  0  0
  -21.5080  -11.4504   22.4006 F   0  0  0  0  0  0  0  0  0  0  0  0
  1  2  1  0  0  0  0
  1  7  2  0  0  0  0
  2  8  2  0  0  0  0
  3  6  1  0  0  0  0
  3 10  2  0  0  0  0
  4 11  2  0  0  0  0
  4 19  1  0  0  0  0
  5 12  1  0  0  0  0
  5 19  2  0  0  0  0
  6 20  2  0  0  0  0
  7 22  1  0  0  0  0
  8 24  1  0  0  0  0
  9 13  2  0  0  0  0
  9 23  1  0  0  0  0
 10 26  1  0  0  0  0
 11 27  1  0  0  0  0
 12 27  2  0  0  0  0
 13 28  1  0  0  0  0
 14 15  2  0  0  0  0
 14 29  1  0  0  0  0
 15 30  1  0  0  0  0
 16 20  1  0  0  0  0
 16 26  2  0  0  0  0
 17 25  1  0  0  0  0
 17 28  2  0  0  0  0
 18 30  2  0  0  0  0
 18 31  1  0  0  0  0
 19 32  1  0  0  0  0
 20 34  1  0  0  0  0
 21 32  1  0  0  0  0
 21 33  2  0  0  0  0
 21 36  1  0  0  0  0
 22 24  2  0  0  0  0
 22 41  1  0  0  0  0
 23 25  2  0  0  0  0
 23 42  1  0  0  0  0
 24 50  1  0  0  0  0
 25 43  1  0  0  0  0
 26 60  1  0  0  0  0
 27 81  1  0  0  0  0
 28 82  1  0  0  0  0
 29 31  2  0  0  0  0
 29 81  1  0  0  0  0
 30 83  1  0  0  0  0
 31 84  1  0  0  0  0
 32 67  2  0  0  0  0
 33 68  1  0  0  0  0
 33 71  1  0  0  0  0
 34 35  2  0  0  0  0
 35 37  1  0  0  0  0
 36 72  1  0  0  0  0
 36 76  2  0  0  0  0
 37 69  1  0  0  0  0
 37 77  2  0  0  0  0
 38 51  1  0  0  0  0
 38 73  1  0  0  0  0
 38 78  2  0  0  0  0
 39 63  1  0  0  0  0
 39 70  1  0  0  0  0
 39 79  2  0  0  0  0
 40 64  1  0  0  0  0
 40 74  1  0  0  0  0
 40 80  2  0  0  0  0
 41 44  1  0  0  0  0
 42 51  1  0  0  0  0
 43 70  1  0  0  0  0
 44 46  1  0  0  0  0
 45 47  1  0  0  0  0
 45 48  1  0  0  0  0
 46 50  1  0  0  0  0
 47 52  1  0  0  0  0
 48 69  1  0  0  0  0
 49 52  1  0  0  0  0
 49 69  1  0  0  0  0
 50 73  1  0  0  0  0
 51 70  1  0  0  0  0
 52 68  1  0  0  0  0
 53 64  1  0  0  0  0
 54 65  1  0  0  0  0
 55 65  1  0  0  0  0
 56 65  1  0  0  0  0
 57 66  1  0  0  0  0
 58 66  1  0  0  0  0
 59 75  1  0  0  0  0
 60 61  1  0  0  0  0
 61 66  1  0  0  0  0
 62 66  1  0  0  0  0
 62 82  1  0  0  0  0
 63 65  1  0  0  0  0
 63 74  1  0  0  0  0
 64 75  1  0  0  0  0
 67 68  1  0  0  0  0
M  CHG  1  75   1
M  ISO  4  35 100  37 100  62 101  82 101
M  END
> <Batch ID>
0137

> <Smiles>
CNC(C)C(=O)NC(C(=O)N1Cc2cc([101O:1][101CH2:1]C(C)(C)CCc3cccc(C=[100CH:0][100C:0](=O)N4CCCC(n5nc(-c6ccc(Oc7ccc(F)cc7F)cc6)c(C(N)=O)c5N)C4)c3)ccc2CC1C(=O)NC1CCCc2ccccc21)C(C)(C)C

> <Shape>
0.203

> <Color>
0.079

> <Negative vol penalty>
0.000

$$$$

  -OEChem-04052302423D

 84 92  0     1  0  0  0  0  0999 V2000
  -23.5309   -6.4345   23.7413 C   0  0  0  0  0  0  0  0  0  0  0  0
  -24.8060   -6.9880   23.6848 C   0  0  0  0  0  0  0  0  0  0  0  0
  -23.3300  -30.7314   22.1168 C   0  0  0  0  0  0  0  0  0  0  0  0
  -22.8559  -28.4424   22.7272 C   0  0  0  0  0  0  0  0  0  0  0  0
  -22.5071   -6.9638   22.9567 C   0  0  0  0  0  0  0  0  0  0  0  0
  -25.0583   -8.0705   22.8428 C   0  0  0  0  0  0  0  0  0  0  0  0
  -29.0705  -13.9891   22.4086 C   0  0  0  0  0  0  0  0  0  0  0  0
  -21.9855  -30.9257   21.8006 C   0  0  0  0  0  0  0  0  0  0  0  0
  -21.5112  -28.6366   22.4110 C   0  0  0  0  0  0  0  0  0  0  0  0
  -29.9574  -14.6281   21.5432 C   0  0  0  0  0  0  0  0  0  0  0  0
  -18.7966  -30.0512   23.8429 C   0  0  0  0  0  0  0  0  0  0  0  0
  -17.8449  -29.5657   24.7396 C   0  0  0  0  0  0  0  0  0  0  0  0
  -30.3187  -22.4548   20.2628 C   0  0  0  0  0  0  0  0  0  0  0  0
  -28.0924  -15.5098   20.2927 C   0  0  0  0  0  0  0  0  0  0  0  0
  -16.9358  -28.1481   23.0073 C   0  0  0  0  0  0  0  0  0  0  0  0
  -23.7653  -29.4897   22.5801 C   0  0  0  0  0  0  0  0  0  0  0  0
  -30.0437  -21.1303   20.6792 C   0  0  0  0  0  0  0  0  0  0  0  0
  -25.7725  -29.4928   24.1544 C   0  0  0  0  0  0  0  0  0  0  0  0
  -22.7446   -8.0595   22.1119 C   0  0  0  0  0  0  0  0  0  0  0  0
  -27.6858  -14.0970   22.2159 C   0  0  0  0  0  0  0  0  0  0  0  0
  -24.0370   -8.6142   22.0452 C   0  0  0  0  0  0  0  0  0  0  0  0
  -27.1901  -14.8734   21.1587 C   0  0  0  0  0  0  0  0  0  0  0  0
  -21.0761  -29.8783   21.9477 C   0  0  0  0  0  0  0  0  0  0  0  0
  -29.4685  -15.3862   20.4833 C   0  0  0  0  0  0  0  0  0  0  0  0
  -18.8179  -29.5852   22.5283 C   0  0  0  0  0  0  0  0  0  0  0  0
  -16.9145  -28.6142   24.3219 C   0  0  0  0  0  0  0  0  0  0  0  0
  -17.8875  -28.6336   22.1105 C   0  0  0  0  0  0  0  0  0  0  0  0
  -25.1542  -29.2883   22.9063 C   0  0  0  0  0  0  0  0  0  0  0  0
  -28.8865  -21.1953   21.4199 C   0  0  0  0  0  0  0  0  0  0  0  0
  -27.0890  -29.1629   23.9434 C   0  0  0  0  0  0  0  0  0  0  0  0
  -29.3098  -23.2346   20.7785 C   0  0  0  0  0  0  0  0  0  0  0  0
  -30.9967  -19.5468   19.1038 C   0  0  0  0  0  0  0  0  0  0  0  0
  -30.8243  -19.9058   20.3918 C   0  0  0  0  0  0  0  0  0  0  0  0
  -25.2074  -29.9407   25.3936 C   0  0  0  0  0  0  0  0  0  0  0  0
  -25.3402  -12.0426   21.5980 C   0  0  0  0  0  0  0  0  0  0  0  0
  -23.4669  -14.6590   22.0075 C   0  0  0  0  0  0  0  0  0  0  0  0
  -23.1903  -18.0602   21.9612 C   0  0  0  0  0  0  0  0  0  0  0  0
  -29.8214  -25.5811   20.0178 C   0  0  0  0  0  0  0  0  0  0  0  0
  -21.6179   -8.5672   21.2473 C   0  0  0  0  0  0  0  0  0  0  0  0
  -26.7420  -13.4236   23.1741 C   0  0  0  0  0  0  0  0  0  0  0  0
  -25.7120  -15.0375   20.9204 C   0  0  0  0  0  0  0  0  0  0  0  0
  -21.8765   -9.9529   20.6614 C   0  0  0  0  0  0  0  0  0  0  0  0
  -30.4182  -29.0576   20.5025 C   0  0  0  0  0  0  0  0  0  0  0  0
  -23.2838  -10.0318   20.0783 C   0  0  0  0  0  0  0  0  0  0  0  0
  -29.1952  -29.5287   21.2928 C   0  0  0  0  0  0  0  0  0  0  0  0
  -30.0506  -27.9939   19.4694 C   0  0  0  0  0  0  0  0  0  0  0  0
  -28.0853  -27.3145   20.7904 C   0  0  0  0  0  0  0  0  0  0  0  0
  -24.3439   -9.8046   21.1628 C   0  0  1  0  0  0  0  0  0  0  0  0
  -25.3585  -13.1808   22.5788 C   0  0  1  0  0  0  0  0  0  0  0  0
  -28.4163  -28.3392   21.8877 C   0  0  2  0  0  0  0  0  0  0  0  0
  -28.0754  -20.1910   22.1267 C   0  0  0  0  0  0  0  0  0  0  0  0
  -32.7238  -19.5435   21.9960 C   0  0  0  0  0  0  0  0  0  0  0  0
  -21.5246  -19.9060   22.3016 C   0  0  0  0  0  0  0  0  0  0  0  0
  -22.2467  -14.0582   19.2762 C   0  0  0  0  0  0  0  0  0  0  0  0
  -21.3254  -16.3861   19.2533 C   0  0  0  0  0  0  0  0  0  0  0  0
  -20.6025  -14.7779   21.0178 C   0  0  0  0  0  0  0  0  0  0  0  0
  -24.7399  -19.2011   24.2098 C   0  0  0  0  0  0  0  0  0  0  0  0
  -31.7596  -18.3583   18.5873 C   0  0  0  0  0  0  0  0  0  0  0  0
  -31.3193  -19.1220   21.5853 C   0  0  0  0  0  0  0  0  0  0  0  0
  -30.8887  -17.4063   17.7663 C   0  0  0  0  0  0  0  0  0  0  0  0
  -29.7621  -16.7707   18.5721 C   0  0  0  0  0  0  0  0  0  1  0  0
  -22.9365  -15.7460   21.1042 C   0  0  1  0  0  0  0  0  0  0  0  0
  -22.5863  -19.0353   22.9555 C   0  0  2  0  0  0  0  0  0  0  0  0
  -21.8057  -15.2376   20.1659 C   0  0  0  0  0  0  0  0  0  0  0  0
  -26.0077  -28.8617   21.9717 N   0  0  0  0  0  0  0  0  0  0  0  0
  -27.1759  -28.7956   22.6328 N   0  0  0  0  0  0  0  0  0  0  0  0
  -24.8296  -14.3544   21.8808 N   0  0  0  0  0  0  0  0  0  0  0  0
  -29.3188  -26.8966   20.1060 N   0  0  0  0  0  0  0  0  0  0  0  0
  -28.1693  -29.1542   24.7530 N   0  0  0  0  0  0  0  0  0  0  0  0
  -23.8380  -30.2363   25.4353 N   0  0  0  0  0  0  0  0  0  0  0  0
  -29.0584  -24.6262   20.6891 N   0  0  0  0  0  0  0  0  0  0  0  0
  -24.5120  -10.9986   21.9632 N   0  0  0  0  0  0  0  0  0  0  0  0
  -22.5392  -16.8449   21.9777 N   0  0  0  0  0  0  0  0  0  0  0  0
  -23.6428  -19.9241   23.5166 N   0  3  0  0  0  0  0  0  0  0  0  0
  -25.8997  -30.0906   26.4289 O   0  0  0  0  0  0  0  0  0  0  0  0
  -26.0256  -12.1076   20.5843 O   0  0  0  0  0  0  0  0  0  0  0  0
  -22.7020  -14.1057   22.8014 O   0  0  0  0  0  0  0  0  0  0  0  0
  -24.1421  -18.3491   21.2393 O   0  0  0  0  0  0  0  0  0  0  0  0
  -30.8673  -25.3250   19.4158 O   0  0  0  0  0  0  0  0  0  0  0  0
  -28.4327  -22.4745   21.4851 O   0  0  0  0  0  0  0  0  0  0  0  0
  -19.7639  -30.0675   21.6395 O   0  0  0  0  0  0  0  0  0  0  0  0
  -30.3319  -16.0103   19.6367 O   0  0  0  0  0  0  0  0  0  1  0  0
  -16.0016  -28.1469   25.1835 F   0  0  0  0  0  0  0  0  0  0  0  0
  -17.9038  -28.1813   20.8492 F   0  0  0  0  0  0  0  0  0  0  0  0
  1  2  1  0  0  0  0
  1  5  2  0  0  0  0
  2  6  2  0  0  0  0
  3  8  2  0  0  0  0
  3 16  1  0  0  0  0
  4  9  1  0  0  0  0
  4 16  2  0  0  0  0
  5 19  1  0  0  0  0
  6 21  1  0  0  0  0
  7 10  2  0  0  0  0
  7 20  1  0  0  0  0
  8 23  1  0  0  0  0
  9 23  2  0  0  0  0
 10 24  1  0  0  0  0
 11 12  2  0  0  0  0
 11 25  1  0  0  0  0
 12 26  1  0  0  0  0
 13 17  1  0  0  0  0
 13 31  2  0  0  0  0
 14 22  1  0  0  0  0
 14 24  2  0  0  0  0
 15 26  2  0  0  0  0
 15 27  1  0  0  0  0
 16 28  1  0  0  0  0
 17 29  2  0  0  0  0
 17 33  1  0  0  0  0
 18 28  1  0  0  0  0
 18 30  2  0  0  0  0
 18 34  1  0  0  0  0
 19 21  2  0  0  0  0
 19 39  1  0  0  0  0
 20 22  2  0  0  0  0
 20 40  1  0  0  0  0
 21 48  1  0  0  0  0
 22 41  1  0  0  0  0
 23 81  1  0  0  0  0
 24 82  1  0  0  0  0
 25 27  2  0  0  0  0
 25 81  1  0  0  0  0
 26 83  1  0  0  0  0
 27 84  1  0  0  0  0
 28 65  2  0  0  0  0
 29 51  1  0  0  0  0
 29 80  1  0  0  0  0
 30 66  1  0  0  0  0
 30 69  1  0  0  0  0
 31 71  1  0  0  0  0
 31 80  1  0  0  0  0
 32 33  2  0  0  0  0
 32 58  1  0  0  0  0
 33 59  1  0  0  0  0
 34 70  1  0  0  0  0
 34 75  2  0  0  0  0
 35 49  1  0  0  0  0
 35 72  1  0  0  0  0
 35 76  2  0  0  0  0
 36 62  1  0  0  0  0
 36 67  1  0  0  0  0
 36 77  2  0  0  0  0
 37 63  1  0  0  0  0
 37 73  1  0  0  0  0
 37 78  2  0  0  0  0
 38 68  1  0  0  0  0
 38 71  1  0  0  0  0
 38 79  2  0  0  0  0
 39 42  1  0  0  0  0
 40 49  1  0  0  0  0
 41 67  1  0  0  0  0
 42 44  1  0  0  0  0
 43 45  1  0  0  0  0
 43 46  1  0  0  0  0
 44 48  1  0  0  0  0
 45 50  1  0  0  0  0
 46 68  1  0  0  0  0
 47 50  1  0  0  0  0
 47 68  1  0  0  0  0
 48 72  1  0  0  0  0
 49 67  1  0  0  0  0
 50 66  1  0  0  0  0
 52 59  1  0  0  0  0
 53 63  1  0  0  0  0
 54 64  1  0  0  0  0
 55 64  1  0  0  0  0
 56 64  1  0  0  0  0
 57 74  1  0  0  0  0
 58 60  1  0  0  0  0
 60 61  1  0  0  0  0
 61 82  1  0  0  0  0
 62 64  1  0  0  0  0
 62 73  1  0  0  0  0
 63 74  1  0  0  0  0
 65 66  1  0  0  0  0
M  CHG  1  74   1
M  ISO  4  38 100  61 101  71 100  82 101
M  END
> <Batch ID>
0137

> <Smiles>
CCC(=CCC[101CH2:1][101O:1]c1ccc2c(c1)CN(C(=O)C(NC(=O)C(C)NC)C(C)(C)C)C(C(=O)NC1CCCc3ccccc31)C2)c1cc([100NH:0][100C:0](=O)N2CCCC(n3nc(-c4ccc(Oc5ccc(F)cc5F)cc4)c(C(N)=O)c3N)C2)oc1C

> <Shape>
0.281

> <Color>
0.072

> <Negative vol penalty>
0.000

$$$$

  -OEChem-04052302423D

 86 94  0     1  0  0  0  0  0999 V2000
  -30.9269  -24.6126   28.1551 C   0  0  0  0  0  0  0  0  0  0  0  0
  -31.5031  -23.6449   27.3384 C   0  0  0  0  0  0  0  0  0  0  0  0
  -23.0665   -9.8683   19.9437 C   0  0  0  0  0  0  0  0  0  0  0  0
  -23.8250   -9.8746   22.2375 C   0  0  0  0  0  0  0  0  0  0  0  0
  -29.7124  -25.1945   27.7944 C   0  0  0  0  0  0  0  0  0  0  0  0
  -30.8643  -23.2577   26.1609 C   0  0  0  0  0  0  0  0  0  0  0  0
  -34.0513  -22.9308   22.2390 C   0  0  0  0  0  0  0  0  0  0  0  0
  -22.3167   -8.7193   20.1947 C   0  0  0  0  0  0  0  0  0  0  0  0
  -23.0751   -8.7256   22.4886 C   0  0  0  0  0  0  0  0  0  0  0  0
  -34.8574  -21.7956   22.1665 C   0  0  0  0  0  0  0  0  0  0  0  0
  -19.8425   -7.9450   23.0902 C   0  0  0  0  0  0  0  0  0  0  0  0
  -19.0847   -7.9105   24.2606 C   0  0  0  0  0  0  0  0  0  0  0  0
  -33.3501  -20.8361   20.5459 C   0  0  0  0  0  0  0  0  0  0  0  0
  -30.5018  -18.3105   24.0396 C   0  0  0  0  0  0  0  0  0  0  0  0
  -32.0864  -16.5658   22.5469 C   0  0  0  0  0  0  0  0  0  0  0  0
  -20.3157   -5.9678   25.0006 C   0  0  0  0  0  0  0  0  0  0  0  0
  -23.8208  -10.4459   20.9650 C   0  0  0  0  0  0  0  0  0  0  0  0
  -24.1755  -12.9691   20.8417 C   0  0  0  0  0  0  0  0  0  0  0  0
  -29.0632  -24.8212   26.6070 C   0  0  0  0  0  0  0  0  0  0  0  0
  -32.8808  -23.0228   21.4723 C   0  0  0  0  0  0  0  0  0  0  0  0
  -29.6393  -23.8342   25.7846 C   0  0  0  0  0  0  0  0  0  0  0  0
  -32.5322  -21.9747   20.6085 C   0  0  0  0  0  0  0  0  0  0  0  0
  -31.8877  -18.3197   24.1966 C   0  0  0  0  0  0  0  0  0  0  0  0
  -30.7004  -16.5566   22.3899 C   0  0  0  0  0  0  0  0  0  0  0  0
  -22.3209   -8.1479   21.4672 C   0  0  0  0  0  0  0  0  0  0  0  0
  -34.5053  -20.7468   21.3221 C   0  0  0  0  0  0  0  0  0  0  0  0
  -20.8370   -6.9908   22.8748 C   0  0  0  0  0  0  0  0  0  0  0  0
  -32.6800  -17.4474   23.4503 C   0  0  0  0  0  0  0  0  0  0  0  0
  -19.3213   -6.9220   25.2159 C   0  0  0  0  0  0  0  0  0  0  0  0
  -29.9081  -17.4289   23.1362 C   0  0  0  0  0  0  0  0  0  0  0  0
  -21.0736   -6.0023   23.8300 C   0  0  0  0  0  0  0  0  0  0  0  0
  -24.5960  -11.6325   20.7061 C   0  0  0  0  0  0  0  0  0  0  0  0
  -25.2717  -13.7125   20.4781 C   0  0  0  0  0  0  0  0  0  0  0  0
  -22.9074  -13.4920   21.2591 C   0  0  0  0  0  0  0  0  0  0  0  0
  -29.7836  -23.2990   22.1314 C   0  0  0  0  0  0  0  0  0  0  0  0
  -29.5265  -23.6250   18.9143 C   0  0  0  0  0  0  0  0  0  0  0  0
  -30.8538  -23.0312   15.8268 C   0  0  0  0  0  0  0  0  0  0  0  0
  -30.7430  -14.7306   20.6549 C   0  0  0  0  0  0  0  0  0  0  0  0
  -27.7284  -25.4441   26.2827 C   0  0  0  0  0  0  0  0  0  0  0  0
  -32.0362  -24.2654   21.5419 C   0  0  0  0  0  0  0  0  0  0  0  0
  -31.2965  -22.0328   19.7494 C   0  0  0  0  0  0  0  0  0  0  0  0
  -27.3020  -25.2487   24.8300 C   0  0  0  0  0  0  0  0  0  0  0  0
  -29.6178  -12.3192   18.2892 C   0  0  0  0  0  0  0  0  0  0  0  0
  -27.5095  -23.7990   24.4031 C   0  0  0  0  0  0  0  0  0  0  0  0
  -28.1764  -12.0355   18.7183 C   0  0  0  0  0  0  0  0  0  0  0  0
  -30.5333  -12.5450   19.4911 C   0  0  0  0  0  0  0  0  0  0  0  0
  -28.6292  -13.2811   20.8702 C   0  0  0  0  0  0  0  0  0  0  0  0
  -28.9892  -23.4056   24.4869 C   0  0  1  0  0  0  0  0  0  0  0  0
  -30.5943  -24.0333   21.1012 C   0  0  1  0  0  0  0  0  0  0  0  0
  -27.6563  -13.1111   19.6920 C   0  0  2  0  0  0  0  0  0  0  0  0
  -33.5899  -19.5335   27.4423 C   0  0  0  0  0  0  0  0  0  0  0  0
  -30.3964  -23.3844   13.3848 C   0  0  0  0  0  0  0  0  0  0  0  0
  -36.9542  -17.3454   23.7540 C   0  0  0  0  0  0  0  0  0  0  0  0
  -27.4711  -21.3708   18.9758 C   0  0  0  0  0  0  0  0  0  0  0  0
  -27.7648  -21.1295   16.5012 C   0  0  0  0  0  0  0  0  0  0  0  0
  -26.8951  -23.2664   17.4496 C   0  0  0  0  0  0  0  0  0  0  0  0
  -33.3044  -24.6548   15.4838 C   0  0  0  0  0  0  0  0  0  0  0  0
  -32.5058  -19.2701   25.1682 C   0  0  0  0  0  0  0  0  0  0  0  0
  -32.9301  -18.5707   26.4678 C   0  0  0  0  0  0  0  0  0  0  0  0
  -36.0193  -19.2801   22.4233 C   0  0  0  0  0  0  0  0  0  1  0  0
  -34.8057  -17.0803   22.4491 C   0  0  0  0  0  0  0  0  0  0  0  0
  -29.3344  -22.6766   17.7556 C   0  0  1  0  0  0  0  0  0  0  0  0
  -31.0681  -23.9409   14.6306 C   0  0  2  0  0  0  0  0  0  0  0  0
  -36.1777  -17.7589   22.4980 C   0  0  2  0  0  0  0  0  0  0  0  0
  -27.8887  -22.1086   17.6880 C   0  0  0  0  0  0  0  0  0  0  0  0
  -25.8607  -11.5297   20.2888 N   0  0  0  0  0  0  0  0  0  0  0  0
  -26.2442  -12.8111   20.1589 N   0  0  0  0  0  0  0  0  0  0  0  0
  -30.4999  -23.2662   19.8575 N   0  0  0  0  0  0  0  0  0  0  0  0
  -29.9790  -13.5799   20.3667 N   0  0  0  0  0  0  0  0  0  0  0  0
  -25.4889  -15.0428   20.4034 N   0  0  0  0  0  0  0  0  0  0  0  0
  -21.8906  -12.5884   21.5970 N   0  0  0  0  0  0  0  0  0  0  0  0
  -30.0998  -15.6601   21.4716 N   0  0  0  0  0  0  0  0  0  0  0  0
  -29.7184  -23.9371   23.3554 N   0  0  0  0  0  0  0  0  0  0  0  0
  -29.7472  -23.4039   16.5601 N   0  0  0  0  0  0  0  0  0  0  0  0
  -32.5238  -24.0945   14.3508 N   0  3  0  0  0  0  0  0  0  0  0  0
  -22.6773  -14.7238   21.3146 O   0  0  0  0  0  0  0  0  0  0  0  0
  -29.2550  -22.2333   21.8371 O   0  0  0  0  0  0  0  0  0  0  0  0
  -28.8432  -24.6502   18.9763 O   0  0  0  0  0  0  0  0  0  0  0  0
  -31.5921  -22.0826   16.0829 O   0  0  0  0  0  0  0  0  0  0  0  0
  -31.8732  -14.8929   20.1877 O   0  0  0  0  0  0  0  0  0  0  0  0
  -21.5891   -7.0269   21.7126 O   0  0  0  0  0  0  0  0  0  0  0  0
  -35.2900  -19.6373   21.2499 O   0  0  0  0  0  0  0  0  0  1  0  0
  -34.0431  -17.4436   23.5924 O   0  0  0  0  0  0  0  0  0  0  0  0
  -18.5944   -6.8900   26.3405 F   0  0  0  0  0  0  0  0  0  0  0  0
  -28.5750  -17.4287   22.9935 F   0  0  0  0  0  0  0  0  0  0  0  0
  -22.0284   -5.0837   23.6293 F   0  0  0  0  0  0  0  0  0  0  0  0
  1  2  1  0  0  0  0
  1  5  2  0  0  0  0
  2  6  2  0  0  0  0
  3  8  2  0  0  0  0
  3 17  1  0  0  0  0
  4  9  1  0  0  0  0
  4 17  2  0  0  0  0
  5 19  1  0  0  0  0
  6 21  1  0  0  0  0
  7 10  2  0  0  0  0
  7 20  1  0  0  0  0
  8 25  1  0  0  0  0
  9 25  2  0  0  0  0
 10 26  1  0  0  0  0
 11 12  2  0  0  0  0
 11 27  1  0  0  0  0
 12 29  1  0  0  0  0
 13 22  1  0  0  0  0
 13 26  2  0  0  0  0
 14 23  1  0  0  0  0
 14 30  2  0  0  0  0
 15 24  2  0  0  0  0
 15 28  1  0  0  0  0
 16 29  2  0  0  0  0
 16 31  1  0  0  0  0
 17 32  1  0  0  0  0
 18 32  1  0  0  0  0
 18 33  2  0  0  0  0
 18 34  1  0  0  0  0
 19 21  2  0  0  0  0
 19 39  1  0  0  0  0
 20 22  2  0  0  0  0
 20 40  1  0  0  0  0
 21 48  1  0  0  0  0
 22 41  1  0  0  0  0
 23 28  2  0  0  0  0
 23 58  1  0  0  0  0
 24 30  1  0  0  0  0
 24 72  1  0  0  0  0
 25 81  1  0  0  0  0
 26 82  1  0  0  0  0
 27 31  2  0  0  0  0
 27 81  1  0  0  0  0
 28 83  1  0  0  0  0
 29 84  1  0  0  0  0
 30 85  1  0  0  0  0
 31 86  1  0  0  0  0
 32 66  2  0  0  0  0
 33 67  1  0  0  0  0
 33 70  1  0  0  0  0
 34 71  1  0  0  0  0
 34 76  2  0  0  0  0
 35 49  1  0  0  0  0
 35 73  1  0  0  0  0
 35 77  2  0  0  0  0
 36 62  1  0  0  0  0
 36 68  1  0  0  0  0
 36 78  2  0  0  0  0
 37 63  1  0  0  0  0
 37 74  1  0  0  0  0
 37 79  2  0  0  0  0
 38 69  1  0  0  0  0
 38 72  1  0  0  0  0
 38 80  2  0  0  0  0
 39 42  1  0  0  0  0
 40 49  1  0  0  0  0
 41 68  1  0  0  0  0
 42 44  1  0  0  0  0
 43 45  1  0  0  0  0
 43 46  1  0  0  0  0
 44 48  1  0  0  0  0
 45 50  1  0  0  0  0
 46 69  1  0  0  0  0
 47 50  1  0  0  0  0
 47 69  1  0  0  0  0
 48 73  1  0  0  0  0
 49 68  1  0  0  0  0
 50 67  1  0  0  0  0
 51 59  1  0  0  0  0
 52 63  1  0  0  0  0
 53 64  1  0  0  0  0
 54 65  1  0  0  0  0
 55 65  1  0  0  0  0
 56 65  1  0  0  0  0
 57 75  1  0  0  0  0
 58 59  1  0  0  0  0
 60 64  1  0  0  0  0
 60 82  1  0  0  0  0
 61 64  1  0  0  0  0
 61 83  1  0  0  0  0
 62 65  1  0  0  0  0
 62 74  1  0  0  0  0
 63 75  1  0  0  0  0
 66 67  1  0  0  0  0
M  CHG  1  75   1
M  ISO  4  38 100  60 101  72 100  82 101
M  END
> <Batch ID>
0137

> <Smiles>
CCCc1cc(F)c([100NH:0][100C:0](=O)N2CCCC(n3nc(-c4ccc(Oc5ccc(F)cc5F)cc4)c(C(N)=O)c3N)C2)cc1OCC(C)[101CH2:1][101O:1]c1ccc2c(c1)CN(C(=O)C(NC(=O)C(C)NC)C(C)(C)C)C(C(=O)NC1CCCc3ccccc31)C2

> <Shape>
0.213

> <Color>
0.189

> <Negative vol penalty>
0.000

$$$$

  -OEChem-04052302423D

 85 93  0     1  0  0  0  0  0999 V2000
  -24.8953  -35.9456   22.9917 C   0  0  0  0  0  0  0  0  0  0  0  0
  -25.7641  -35.3883   22.0590 C   0  0  0  0  0  0  0  0  0  0  0  0
  -22.3215  -10.5487   22.3898 C   0  0  0  0  0  0  0  0  0  0  0  0
  -22.0419  -10.4448   19.9923 C   0  0  0  0  0  0  0  0  0  0  0  0
  -24.5266  -35.2169   24.1217 C   0  0  0  0  0  0  0  0  0  0  0  0
  -26.2655  -34.1022   22.2563 C   0  0  0  0  0  0  0  0  0  0  0  0
  -28.3036  -28.2840   18.6078 C   0  0  0  0  0  0  0  0  0  0  0  0
  -25.6573  -21.7289   18.2577 C   0  0  0  0  0  0  0  0  0  0  0  0
  -24.5913  -20.8557   18.4740 C   0  0  0  0  0  0  0  0  0  0  0  0
  -21.7638   -9.2759   22.5100 C   0  0  0  0  0  0  0  0  0  0  0  0
  -21.4842   -9.1720   20.1125 C   0  0  0  0  0  0  0  0  0  0  0  0
  -29.3824  -27.4085   18.4918 C   0  0  0  0  0  0  0  0  0  0  0  0
  -22.7547   -6.0716   22.0818 C   0  0  0  0  0  0  0  0  0  0  0  0
  -23.3918   -5.1617   22.9255 C   0  0  0  0  0  0  0  0  0  0  0  0
  -28.6138  -26.2129   20.4409 C   0  0  0  0  0  0  0  0  0  0  0  0
  -26.8145  -20.0089   17.0169 C   0  0  0  0  0  0  0  0  0  0  0  0
  -21.3848   -4.9935   24.2599 C   0  0  0  0  0  0  0  0  0  0  0  0
  -22.4605  -11.1332   21.1309 C   0  0  0  0  0  0  0  0  0  0  0  0
  -24.3960  -12.7682   20.8335 C   0  0  0  0  0  0  0  0  0  0  0  0
  -25.0162  -33.9176   24.3281 C   0  0  0  0  0  0  0  0  0  0  0  0
  -27.3762  -28.1369   19.6494 C   0  0  0  0  0  0  0  0  0  0  0  0
  -25.9041  -33.3559   23.3908 C   0  0  0  0  0  0  0  0  0  0  0  0
  -27.5227  -27.0863   20.5664 C   0  0  0  0  0  0  0  0  0  0  0  0
  -26.7689  -21.3056   17.5291 C   0  0  0  0  0  0  0  0  0  0  0  0
  -25.7485  -19.1357   17.2332 C   0  0  0  0  0  0  0  0  0  0  0  0
  -24.6369  -19.5591   17.9618 C   0  0  0  0  0  0  0  0  0  0  0  0
  -21.3452   -8.5875   21.3714 C   0  0  0  0  0  0  0  0  0  0  0  0
  -29.5392  -26.3745   19.4101 C   0  0  0  0  0  0  0  0  0  0  0  0
  -21.4326   -6.4425   22.3272 C   0  0  0  0  0  0  0  0  0  0  0  0
  -22.7069   -4.6227   24.0145 C   0  0  0  0  0  0  0  0  0  0  0  0
  -20.7476   -5.9035   23.4162 C   0  0  0  0  0  0  0  0  0  0  0  0
  -23.0360  -12.4483   21.0061 C   0  0  0  0  0  0  0  0  0  0  0  0
  -24.4207  -14.1400   20.7703 C   0  0  0  0  0  0  0  0  0  0  0  0
  -25.5351  -11.9026   20.7386 C   0  0  0  0  0  0  0  0  0  0  0  0
  -26.4515  -29.9372   22.1004 C   0  0  0  0  0  0  0  0  0  0  0  0
  -28.9824  -22.1813   18.3826 C   0  0  0  0  0  0  0  0  0  0  0  0
  -24.2615  -27.5783   22.5032 C   0  0  0  0  0  0  0  0  0  0  0  0
  -23.3861  -24.3196   21.9919 C   0  0  0  0  0  0  0  0  0  0  0  0
  -22.3738  -18.9675   18.8972 C   0  0  0  0  0  0  0  0  0  0  0  0
  -24.6266  -33.1867   25.5886 C   0  0  0  0  0  0  0  0  0  0  0  0
  -26.2031  -29.0734   19.7449 C   0  0  0  0  0  0  0  0  0  0  0  0
  -26.5435  -26.8728   21.6907 C   0  0  0  0  0  0  0  0  0  0  0  0
  -24.9071  -31.6872   25.5346 C   0  0  0  0  0  0  0  0  0  0  0  0
  -20.8139  -17.5489   21.7662 C   0  0  0  0  0  0  0  0  0  0  0  0
  -26.3075  -31.4253   24.9895 C   0  0  0  0  0  0  0  0  0  0  0  0
  -21.3648  -16.1217   21.8100 C   0  0  0  0  0  0  0  0  0  0  0  0
  -20.5792  -18.0224   20.3329 C   0  0  0  0  0  0  0  0  0  0  0  0
  -22.2874  -16.4643   19.4822 C   0  0  0  0  0  0  0  0  0  0  0  0
  -26.4497  -31.9542   23.5571 C   0  0  1  0  0  0  0  0  0  0  0  0
  -25.6056  -29.1415   21.1469 C   0  0  1  0  0  0  0  0  0  0  0  0
  -22.6011  -15.9668   20.9027 C   0  0  2  0  0  0  0  0  0  0  0  0
  -25.8257  -17.7514   16.6754 C   0  0  0  0  0  0  0  0  0  0  0  0
  -21.9400  -22.2687   21.9976 C   0  0  0  0  0  0  0  0  0  0  0  0
  -25.2207  -27.3523   25.3908 C   0  0  0  0  0  0  0  0  0  0  0  0
  -24.0725  -25.1315   25.5251 C   0  0  0  0  0  0  0  0  0  0  0  0
  -22.7416  -27.1980   25.1000 C   0  0  0  0  0  0  0  0  0  0  0  0
  -31.7067  -23.5517   18.5341 C   0  0  0  0  0  0  0  0  0  0  0  0
  -30.0981  -24.7879   17.0727 C   0  0  0  0  0  0  0  0  0  0  0  0
  -22.2330  -24.9839   19.3484 C   0  0  0  0  0  0  0  0  0  0  0  0
  -27.9207  -22.2477   17.2977 C   0  0  0  0  0  0  0  0  0  0  0  0
  -29.2632  -23.4959   19.1049 C   0  0  0  0  0  0  0  0  0  0  0  0
  -24.2201  -26.2771   23.2675 C   0  0  1  0  0  0  0  0  0  0  0  0
  -22.1030  -23.6896   21.4807 C   0  0  2  0  0  0  0  0  0  0  0  0
  -24.0834  -26.4947   24.8009 C   0  0  0  0  0  0  0  0  0  0  0  0
  -30.3965  -24.3481   18.5075 C   0  0  0  0  0  0  0  0  0  1  0  0
  -22.2534  -13.5298   21.0500 N   0  0  0  0  0  0  0  0  0  0  0  0
  -23.1246  -14.5427   20.9041 N   0  0  0  0  0  0  0  0  0  0  0  0
  -25.4166  -27.8186   21.7456 N   0  0  0  0  0  0  0  0  0  0  0  0
  -21.7942  -17.8495   19.5336 N   0  0  0  0  0  0  0  0  0  0  0  0
  -25.4246  -15.0289   20.6140 N   0  0  0  0  0  0  0  0  0  0  0  0
  -25.3314  -10.5185   20.8231 N   0  0  0  0  0  0  0  0  0  0  0  0
  -23.5441  -18.6872   18.1925 N   0  0  0  0  0  0  0  0  0  0  0  0
  -25.8185  -31.0504   22.6196 N   0  0  0  0  0  0  0  0  0  0  0  0
  -23.1421  -25.4911   22.6771 N   0  0  0  0  0  0  0  0  0  0  0  0
  -22.1028  -23.6508   19.9909 N   0  3  0  0  0  0  0  0  0  0  0  0
  -26.7010  -12.3443   20.6000 O   0  0  0  0  0  0  0  0  0  0  0  0
  -27.5933  -29.5676   22.3479 O   0  0  0  0  0  0  0  0  0  0  0  0
  -29.6079  -21.1507   18.6271 O   0  0  0  0  0  0  0  0  0  0  0  0
  -23.3013  -28.3497   22.5699 O   0  0  0  0  0  0  0  0  0  0  0  0
  -24.4936  -23.8204   21.8055 O   0  0  0  0  0  0  0  0  0  0  0  0
  -21.8843  -20.0957   18.9943 O   0  0  0  0  0  0  0  0  0  0  0  0
  -20.8011   -7.3454   21.4883 O   0  0  0  0  0  0  0  0  0  0  0  0
  -30.5917  -25.5189   19.2996 O   0  0  0  0  0  0  0  0  0  1  0  0
  -23.3184   -3.7478   24.8237 F   0  0  0  0  0  0  0  0  0  0  0  0
  -19.4770   -6.2551   23.6564 F   0  0  0  0  0  0  0  0  0  0  0  0
  1  2  1  0  0  0  0
  1  5  2  0  0  0  0
  2  6  2  0  0  0  0
  3 10  2  0  0  0  0
  3 18  1  0  0  0  0
  4 11  1  0  0  0  0
  4 18  2  0  0  0  0
  5 20  1  0  0  0  0
  6 22  1  0  0  0  0
  7 12  2  0  0  0  0
  7 21  1  0  0  0  0
  8  9  2  0  0  0  0
  8 24  1  0  0  0  0
  9 26  1  0  0  0  0
 10 27  1  0  0  0  0
 11 27  2  0  0  0  0
 12 28  1  0  0  0  0
 13 14  2  0  0  0  0
 13 29  1  0  0  0  0
 14 30  1  0  0  0  0
 15 23  1  0  0  0  0
 15 28  2  0  0  0  0
 16 24  2  0  0  0  0
 16 25  1  0  0  0  0
 17 30  2  0  0  0  0
 17 31  1  0  0  0  0
 18 32  1  0  0  0  0
 19 32  1  0  0  0  0
 19 33  2  0  0  0  0
 19 34  1  0  0  0  0
 20 22  2  0  0  0  0
 20 40  1  0  0  0  0
 21 23  2  0  0  0  0
 21 41  1  0  0  0  0
 22 49  1  0  0  0  0
 23 42  1  0  0  0  0
 24 60  1  0  0  0  0
 25 26  2  0  0  0  0
 25 52  1  0  0  0  0
 26 72  1  0  0  0  0
 27 82  1  0  0  0  0
 28 83  1  0  0  0  0
 29 31  2  0  0  0  0
 29 82  1  0  0  0  0
 30 84  1  0  0  0  0
 31 85  1  0  0  0  0
 32 66  2  0  0  0  0
 33 67  1  0  0  0  0
 33 70  1  0  0  0  0
 34 71  1  0  0  0  0
 34 76  2  0  0  0  0
 35 50  1  0  0  0  0
 35 73  1  0  0  0  0
 35 77  2  0  0  0  0
 36 60  1  0  0  0  0
 36 61  1  0  0  0  0
 36 78  2  0  0  0  0
 37 62  1  0  0  0  0
 37 68  1  0  0  0  0
 37 79  2  0  0  0  0
 38 63  1  0  0  0  0
 38 74  1  0  0  0  0
 38 80  2  0  0  0  0
 39 69  1  0  0  0  0
 39 72  1  0  0  0  0
 39 81  2  0  0  0  0
 40 43  1  0  0  0  0
 41 50  1  0  0  0  0
 42 68  1  0  0  0  0
 43 45  1  0  0  0  0
 44 46  1  0  0  0  0
 44 47  1  0  0  0  0
 45 49  1  0  0  0  0
 46 51  1  0  0  0  0
 47 69  1  0  0  0  0
 48 51  1  0  0  0  0
 48 69  1  0  0  0  0
 49 73  1  0  0  0  0
 50 68  1  0  0  0  0
 51 67  1  0  0  0  0
 53 63  1  0  0  0  0
 54 64  1  0  0  0  0
 55 64  1  0  0  0  0
 56 64  1  0  0  0  0
 57 65  1  0  0  0  0
 58 65  1  0  0  0  0
 59 75  1  0  0  0  0
 61 65  1  0  0  0  0
 62 64  1  0  0  0  0
 62 74  1  0  0  0  0
 63 75  1  0  0  0  0
 65 83  1  0  0  0  0
 66 67  1  0  0  0  0
M  CHG  1  75   1
M  ISO  4  39 100  65 101  72 100  83 101
M  END
> <Batch ID>
0137

> <Smiles>
CNC(C)C(=O)NC(C(=O)N1Cc2cc([101O:1][101C:1](C)(C)CC(=O)Cc3ccc([100NH:0][100C:0](=O)N4CCCC(n5nc(-c6ccc(Oc7ccc(F)cc7F)cc6)c(C(N)=O)c5N)C4)c(C)c3)ccc2CC1C(=O)NC1CCCc2ccccc21)C(C)(C)C

> <Shape>
0.255

> <Color>
0.113

> <Negative vol penalty>
0.000

$$$$

  -OEChem-04052302423D

 86 94  0     1  0  0  0  0  0999 V2000
  -30.6375  -25.6723   17.2851 C   0  0  0  0  0  0  0  0  0  0  0  0
  -29.2535  -25.5884   17.3994 C   0  0  0  0  0  0  0  0  0  0  0  0
  -27.9392  -15.8014   19.5432 C   0  0  0  0  0  0  0  0  0  0  0  0
  -25.6387  -16.4778   19.8387 C   0  0  0  0  0  0  0  0  0  0  0  0
  -31.3919  -26.1968   18.3338 C   0  0  0  0  0  0  0  0  0  0  0  0
  -28.6233  -26.0280   18.5630 C   0  0  0  0  0  0  0  0  0  0  0  0
  -23.1352  -28.7125   18.9880 C   0  0  0  0  0  0  0  0  0  0  0  0
  -27.5988  -14.4933   19.8877 C   0  0  0  0  0  0  0  0  0  0  0  0
  -25.2983  -15.1697   20.1832 C   0  0  0  0  0  0  0  0  0  0  0  0
  -21.8725  -28.2193   19.3136 C   0  0  0  0  0  0  0  0  0  0  0  0
  -26.1521  -11.8224   18.4024 C   0  0  0  0  0  0  0  0  0  0  0  0
  -26.6632  -10.7908   17.6149 C   0  0  0  0  0  0  0  0  0  0  0  0
  -23.6958  -23.7166   22.9998 C   0  0  0  0  0  0  0  0  0  0  0  0
  -22.9212  -24.8925   24.9630 C   0  0  0  0  0  0  0  0  0  0  0  0
  -22.1925  -28.9251   21.5981 C   0  0  0  0  0  0  0  0  0  0  0  0
  -25.2893  -24.7082   24.5212 C   0  0  0  0  0  0  0  0  0  0  0  0
  -27.7793   -9.8677   19.5486 C   0  0  0  0  0  0  0  0  0  0  0  0
  -26.9591  -16.7937   19.5188 C   0  0  0  0  0  0  0  0  0  0  0  0
  -22.6482  -24.1700   23.8015 C   0  0  0  0  0  0  0  0  0  0  0  0
  -27.3114  -18.7126   17.8752 C   0  0  0  0  0  0  0  0  0  0  0  0
  -30.7697  -26.6519   19.5069 C   0  0  0  0  0  0  0  0  0  0  0  0
  -23.9419  -29.3069   19.9690 C   0  0  0  0  0  0  0  0  0  0  0  0
  -29.3702  -26.5578   19.6289 C   0  0  0  0  0  0  0  0  0  0  0  0
  -23.4640  -29.4273   21.2818 C   0  0  0  0  0  0  0  0  0  0  0  0
  -25.0163  -23.9857   23.3597 C   0  0  0  0  0  0  0  0  0  0  0  0
  -26.2784  -14.1775   20.2077 C   0  0  0  0  0  0  0  0  0  0  0  0
  -21.4021  -28.3229   20.6194 C   0  0  0  0  0  0  0  0  0  0  0  0
  -26.4547  -11.8767   19.7630 C   0  0  0  0  0  0  0  0  0  0  0  0
  -27.4768   -9.8134   18.1880 C   0  0  0  0  0  0  0  0  0  0  0  0
  -24.2417  -25.1616   25.3229 C   0  0  0  0  0  0  0  0  0  0  0  0
  -27.2682  -10.8993   20.3361 C   0  0  0  0  0  0  0  0  0  0  0  0
  -27.3102  -18.1452   19.1636 C   0  0  0  0  0  0  0  0  0  0  0  0
  -27.7172  -20.0100   18.0718 C   0  0  0  0  0  0  0  0  0  0  0  0
  -21.2369  -23.8805   23.4188 C   0  0  0  0  0  0  0  0  0  0  0  0
  -26.9755  -18.1199   16.6136 C   0  0  0  0  0  0  0  0  0  0  0  0
  -26.7852  -28.6557   21.2320 C   0  0  0  0  0  0  0  0  0  0  0  0
  -26.3352  -31.4962   22.7325 C   0  0  0  0  0  0  0  0  0  0  0  0
  -24.1495  -33.8557   23.8736 C   0  0  0  0  0  0  0  0  0  0  0  0
  -27.4468  -23.7062   22.7589 C   0  0  0  0  0  0  0  0  0  0  0  0
  -31.6312  -27.1674   20.6325 C   0  0  0  0  0  0  0  0  0  0  0  0
  -25.2907  -29.8580   19.5958 C   0  0  0  0  0  0  0  0  0  0  0  0
  -24.2827  -30.0751   22.3674 C   0  0  0  0  0  0  0  0  0  0  0  0
  -30.8536  -27.9574   21.6820 C   0  0  0  0  0  0  0  0  0  0  0  0
  -30.3790  -22.6968   21.0095 C   0  0  0  0  0  0  0  0  0  0  0  0
  -29.5788  -27.2161   22.0720 C   0  0  0  0  0  0  0  0  0  0  0  0
  -29.9233  -21.4703   20.2157 C   0  0  0  0  0  0  0  0  0  0  0  0
  -29.7145  -22.7620   22.3835 C   0  0  0  0  0  0  0  0  0  0  0  0
  -27.7930  -21.4492   21.5751 C   0  0  0  0  0  0  0  0  0  0  0  0
  -28.6477  -27.0472   20.8653 C   0  0  1  0  0  0  0  0  0  0  0  0
  -26.2361  -29.9816   20.7868 C   0  0  1  0  0  0  0  0  0  0  0  0
  -28.3860  -21.3751   20.1586 C   0  0  2  0  0  0  0  0  0  0  0  0
  -24.0768  -36.0481   25.0924 C   0  0  0  0  0  0  0  0  0  0  0  0
  -26.8686  -30.0479   25.3646 C   0  0  0  0  0  0  0  0  0  0  0  0
  -25.8671  -32.0043   26.5636 C   0  0  0  0  0  0  0  0  0  0  0  0
  -27.9239  -32.3081   25.1851 C   0  0  0  0  0  0  0  0  0  0  0  0
  -18.2893  -24.6507   20.1891 C   0  0  0  0  0  0  0  0  0  0  0  0
  -17.5461  -26.6453   21.4968 C   0  0  0  0  0  0  0  0  0  0  0  0
  -22.8956  -35.2270   21.5701 C   0  0  0  0  0  0  0  0  0  0  0  0
  -20.6804  -24.3785   22.0922 C   0  0  0  0  0  0  0  0  0  0  0  0
  -19.4955  -25.3197   22.3299 C   0  0  0  0  0  0  0  0  0  0  0  0
  -19.6921  -26.7275   20.1876 C   0  0  0  0  0  0  0  0  0  1  0  0
  -25.7049  -31.9297   24.0339 C   0  0  1  0  0  0  0  0  0  0  0  0
  -24.1355  -35.3672   23.7338 C   0  0  2  0  0  0  0  0  0  0  0  0
  -26.5763  -31.5585   25.2670 C   0  0  0  0  0  0  0  0  0  0  0  0
  -18.7782  -25.8295   21.0492 C   0  0  0  0  0  0  0  0  0  0  0  0
  -27.6857  -19.0112   20.1087 N   0  0  0  0  0  0  0  0  0  0  0  0
  -20.4706  -23.2040   24.2160 N   0  0  0  0  0  0  0  0  0  0  0  0
  -27.9267  -20.1358   19.4136 N   0  0  0  0  0  0  0  0  0  0  0  0
  -25.5975  -30.5929   21.9542 N   0  0  0  0  0  0  0  0  0  0  0  0
  -28.2589  -22.6704   22.2506 N   0  0  0  0  0  0  0  0  0  0  0  0
  -27.9119  -21.0440   17.2260 N   0  0  0  0  0  0  0  0  0  0  0  0
  -26.5783  -16.7761   16.5914 N   0  0  0  0  0  0  0  0  0  0  0  0
  -26.0807  -23.5253   22.5455 N   0  0  0  0  0  0  0  0  0  0  0  0
  -27.9501  -28.2845   20.5881 N   0  0  0  0  0  0  0  0  0  0  0  0
  -25.4348  -33.3572   23.9011 N   0  0  0  0  0  0  0  0  0  0  0  0
  -22.9530  -35.8029   22.9383 N   0  3  0  0  0  0  0  0  0  0  0  0
  -27.0420  -18.7584   15.5359 O   0  0  0  0  0  0  0  0  0  0  0  0
  -26.1965  -28.0175   22.0967 O   0  0  0  0  0  0  0  0  0  0  0  0
  -27.4382  -31.9480   22.4146 O   0  0  0  0  0  0  0  0  0  0  0  0
  -23.1230  -33.1847   23.9544 O   0  0  0  0  0  0  0  0  0  0  0  0
  -27.9297  -24.6951   23.3167 O   0  0  0  0  0  0  0  0  0  0  0  0
  -25.9459  -12.9011   20.5436 O   0  0  0  0  0  0  0  0  0  0  0  0
  -20.1702  -27.8418   20.9401 O   0  0  0  0  0  0  0  0  0  1  0  0
  -27.9662   -8.8220   17.4319 F   0  0  0  0  0  0  0  0  0  0  0  0
  -24.5040  -25.8528   26.4398 F   0  0  0  0  0  0  0  0  0  0  0  0
  -27.5614  -10.9455   21.6429 F   0  0  0  0  0  0  0  0  0  0  0  0
  1  2  1  0  0  0  0
  1  5  2  0  0  0  0
  2  6  2  0  0  0  0
  3  8  2  0  0  0  0
  3 18  1  0  0  0  0
  4  9  1  0  0  0  0
  4 18  2  0  0  0  0
  5 21  1  0  0  0  0
  6 23  1  0  0  0  0
  7 10  2  0  0  0  0
  7 22  1  0  0  0  0
  8 26  1  0  0  0  0
  9 26  2  0  0  0  0
 10 27  1  0  0  0  0
 11 12  2  0  0  0  0
 11 28  1  0  0  0  0
 12 29  1  0  0  0  0
 13 19  2  0  0  0  0
 13 25  1  0  0  0  0
 14 19  1  0  0  0  0
 14 30  2  0  0  0  0
 15 24  1  0  0  0  0
 15 27  2  0  0  0  0
 16 25  2  0  0  0  0
 16 30  1  0  0  0  0
 17 29  2  0  0  0  0
 17 31  1  0  0  0  0
 18 32  1  0  0  0  0
 19 34  1  0  0  0  0
 20 32  1  0  0  0  0
 20 33  2  0  0  0  0
 20 35  1  0  0  0  0
 21 23  2  0  0  0  0
 21 40  1  0  0  0  0
 22 24  2  0  0  0  0
 22 41  1  0  0  0  0
 23 49  1  0  0  0  0
 24 42  1  0  0  0  0
 25 73  1  0  0  0  0
 26 82  1  0  0  0  0
 27 83  1  0  0  0  0
 28 31  2  0  0  0  0
 28 82  1  0  0  0  0
 29 84  1  0  0  0  0
 30 85  1  0  0  0  0
 31 86  1  0  0  0  0
 32 66  2  0  0  0  0
 33 68  1  0  0  0  0
 33 71  1  0  0  0  0
 34 59  1  0  0  0  0
 34 67  2  0  0  0  0
 35 72  1  0  0  0  0
 35 77  2  0  0  0  0
 36 50  1  0  0  0  0
 36 74  1  0  0  0  0
 36 78  2  0  0  0  0
 37 62  1  0  0  0  0
 37 69  1  0  0  0  0
 37 79  2  0  0  0  0
 38 63  1  0  0  0  0
 38 75  1  0  0  0  0
 38 80  2  0  0  0  0
 39 70  1  0  0  0  0
 39 73  1  0  0  0  0
 39 81  2  0  0  0  0
 40 43  1  0  0  0  0
 41 50  1  0  0  0  0
 42 69  1  0  0  0  0
 43 45  1  0  0  0  0
 44 46  1  0  0  0  0
 44 47  1  0  0  0  0
 45 49  1  0  0  0  0
 46 51  1  0  0  0  0
 47 70  1  0  0  0  0
 48 51  1  0  0  0  0
 48 70  1  0  0  0  0
 49 74  1  0  0  0  0
 50 69  1  0  0  0  0
 51 68  1  0  0  0  0
 52 63  1  0  0  0  0
 53 64  1  0  0  0  0
 54 64  1  0  0  0  0
 55 64  1  0  0  0  0
 56 65  1  0  0  0  0
 57 65  1  0  0  0  0
 58 76  1  0  0  0  0
 59 60  1  0  0  0  0
 60 65  1  0  0  0  0
 61 65  1  0  0  0  0
 61 83  1  0  0  0  0
 62 64  1  0  0  0  0
 62 75  1  0  0  0  0
 63 76  1  0  0  0  0
 66 68  1  0  0  0  0
M  CHG  1  76   1
M  ISO  4  39 100  61 101  73 100  83 101
M  END
> <Batch ID>
0137

> <Smiles>
CNC(C)C(=O)NC(C(=O)N1Cc2cc([101O:1][101CH2:1]C(C)(C)CCC(=N)c3cc(F)cc([100NH:0][100C:0](=O)N4CCCC(n5nc(-c6ccc(Oc7ccc(F)cc7F)cc6)c(C(N)=O)c5N)C4)c3)ccc2CC1C(=O)NC1CCCc2ccccc21)C(C)(C)C

> <Shape>
0.291

> <Color>
0.056

> <Negative vol penalty>
0.000

$$$$

  -OEChem-04052302423D

 85 93  0     1  0  0  0  0  0999 V2000
  -20.8033  -23.6004   22.1400 C   0  0  0  0  0  0  0  0  0  0  0  0
  -22.1373  -23.3321   21.8502 C   0  0  0  0  0  0  0  0  0  0  0  0
  -34.0254  -25.5890   20.0866 C   0  0  0  0  0  0  0  0  0  0  0  0
  -22.6146  -29.0939   20.9573 C   0  0  0  0  0  0  0  0  0  0  0  0
  -23.9927  -28.7898   22.9183 C   0  0  0  0  0  0  0  0  0  0  0  0
  -34.6150  -24.3300   20.1994 C   0  0  0  0  0  0  0  0  0  0  0  0
  -20.0303  -22.6487   22.8037 C   0  0  0  0  0  0  0  0  0  0  0  0
  -22.6993  -22.1122   22.2248 C   0  0  0  0  0  0  0  0  0  0  0  0
  -26.9606  -18.9336   19.1845 C   0  0  0  0  0  0  0  0  0  0  0  0
  -32.6725  -25.6994   19.7653 C   0  0  0  0  0  0  0  0  0  0  0  0
  -21.5434  -29.4685   21.7682 C   0  0  0  0  0  0  0  0  0  0  0  0
  -22.9214  -29.1645   23.7292 C   0  0  0  0  0  0  0  0  0  0  0  0
  -28.3426  -18.8322   19.3382 C   0  0  0  0  0  0  0  0  0  0  0  0
  -18.3396  -30.1584   23.3441 C   0  0  0  0  0  0  0  0  0  0  0  0
  -17.0883  -29.6103   23.0624 C   0  0  0  0  0  0  0  0  0  0  0  0
  -32.4989  -23.2916   19.6694 C   0  0  0  0  0  0  0  0  0  0  0  0
  -28.0438  -16.8291   20.6487 C   0  0  0  0  0  0  0  0  0  0  0  0
  -17.9780  -27.3933   23.4236 C   0  0  0  0  0  0  0  0  0  0  0  0
  -23.8393  -28.7545   21.5323 C   0  0  0  0  0  0  0  0  0  0  0  0
  -33.8518  -23.1812   19.9908 C   0  0  0  0  0  0  0  0  0  0  0  0
  -25.9262  -29.2096   20.1375 C   0  0  0  0  0  0  0  0  0  0  0  0
  -20.5804  -21.4126   23.1780 C   0  0  0  0  0  0  0  0  0  0  0  0
  -26.1079  -17.9881   19.7719 C   0  0  0  0  0  0  0  0  0  0  0  0
  -21.9332  -21.1435   22.8952 C   0  0  0  0  0  0  0  0  0  0  0  0
  -26.6515  -16.9193   20.4988 C   0  0  0  0  0  0  0  0  0  0  0  0
  -31.9093  -24.5507   19.5566 C   0  0  0  0  0  0  0  0  0  0  0  0
  -21.6968  -29.5039   23.1541 C   0  0  0  0  0  0  0  0  0  0  0  0
  -28.8843  -17.7815   20.0728 C   0  0  0  0  0  0  0  0  0  0  0  0
  -19.4102  -29.3239   23.6655 C   0  0  0  0  0  0  0  0  0  0  0  0
  -16.9075  -28.2278   23.1022 C   0  0  0  0  0  0  0  0  0  0  0  0
  -19.2294  -27.9414   23.7053 C   0  0  0  0  0  0  0  0  0  0  0  0
  -24.9462  -28.3668   20.6952 C   0  0  0  0  0  0  0  0  0  0  0  0
  -26.7456  -28.3631   19.4314 C   0  0  0  0  0  0  0  0  0  0  0  0
  -34.4832  -21.8363   20.1117 C   0  0  0  0  0  0  0  0  0  0  0  0
  -26.0819  -30.6306   20.2478 C   0  0  0  0  0  0  0  0  0  0  0  0
  -23.8046  -18.0979   21.9597 C   0  0  0  0  0  0  0  0  0  0  0  0
  -23.4175  -14.9821   21.1446 C   0  0  0  0  0  0  0  0  0  0  0  0
  -24.7783  -12.1392   19.8358 C   0  0  0  0  0  0  0  0  0  0  0  0
  -29.6358  -23.6243   18.9917 C   0  0  0  0  0  0  0  0  0  0  0  0
  -19.7185  -20.4340   23.9356 C   0  0  0  0  0  0  0  0  0  0  0  0
  -24.6207  -18.0966   19.5744 C   0  0  0  0  0  0  0  0  0  0  0  0
  -25.7803  -15.8667   21.1324 C   0  0  0  0  0  0  0  0  0  0  0  0
  -20.2870  -19.0176   23.9654 C   0  0  0  0  0  0  0  0  0  0  0  0
  -26.1676  -23.4881   18.1978 C   0  0  0  0  0  0  0  0  0  0  0  0
  -21.7714  -19.0454   24.3157 C   0  0  0  0  0  0  0  0  0  0  0  0
  -25.6213  -24.8145   18.7308 C   0  0  0  0  0  0  0  0  0  0  0  0
  -27.2561  -22.9174   19.1050 C   0  0  0  0  0  0  0  0  0  0  0  0
  -27.8106  -25.1667   19.9432 C   0  0  0  0  0  0  0  0  0  0  0  0
  -22.5721  -19.8220   23.2633 C   0  0  1  0  0  0  0  0  0  0  0  0
  -23.8204  -17.3655   20.6479 C   0  0  1  0  0  0  0  0  0  0  0  0
  -26.7571  -25.8128   19.0286 C   0  0  2  0  0  0  0  0  0  0  0  0
  -24.2293   -9.7424   19.3346 C   0  0  0  0  0  0  0  0  0  0  0  0
  -23.6880  -14.3033   24.1070 C   0  0  0  0  0  0  0  0  0  0  0  0
  -24.0851  -11.9194   23.4530 C   0  0  0  0  0  0  0  0  0  0  0  0
  -21.9147  -13.0177   22.8999 C   0  0  0  0  0  0  0  0  0  0  0  0
  -33.1163  -17.6393   20.5908 C   0  0  0  0  0  0  0  0  0  0  0  0
  -31.7867  -18.4153   22.5583 C   0  0  0  0  0  0  0  0  0  0  0  0
  -25.2420  -12.5180   16.9374 C   0  0  0  0  0  0  0  0  0  0  0  0
  -33.6604  -20.5755   19.8862 C   0  0  0  0  0  0  0  0  0  0  0  0
  -33.0253  -20.1104   21.2003 C   0  0  0  0  0  0  0  0  0  0  0  0
  -30.9792  -18.8967   20.2255 C   0  0  0  0  0  0  0  0  0  1  0  0
  -23.9961  -13.6722   21.6225 C   0  0  1  0  0  0  0  0  0  0  0  0
  -24.2630  -11.1633   18.7935 C   0  0  2  0  0  0  0  0  0  0  0  0
  -23.4376  -13.2489   23.0104 C   0  0  0  0  0  0  0  0  0  0  0  0
  -32.2291  -18.7781   21.1242 C   0  0  0  0  0  0  0  0  0  0  0  0
  -25.1248  -27.0834   20.3713 N   0  0  0  0  0  0  0  0  0  0  0  0
  -35.7394  -21.7303   20.4135 N   0  0  0  0  0  0  0  0  0  0  0  0
  -26.2266  -27.1134   19.6023 N   0  0  0  0  0  0  0  0  0  0  0  0
  -24.3321  -16.0200   20.9162 N   0  0  0  0  0  0  0  0  0  0  0  0
  -28.3001  -23.9174   19.3396 N   0  0  0  0  0  0  0  0  0  0  0  0
  -27.8521  -28.5732   18.6873 N   0  0  0  0  0  0  0  0  0  0  0  0
  -25.1512  -31.3474   21.0121 N   0  0  0  0  0  0  0  0  0  0  0  0
  -30.5350  -24.6630   19.2304 N   0  0  0  0  0  0  0  0  0  0  0  0
  -22.7744  -19.0107   22.0821 N   0  0  0  0  0  0  0  0  0  0  0  0
  -23.7494  -12.7047   20.5588 N   0  0  0  0  0  0  0  0  0  0  0  0
  -25.1365  -11.1857   17.5862 N   0  3  0  0  0  0  0  0  0  0  0  0
  -27.0093  -31.2485   19.6718 O   0  0  0  0  0  0  0  0  0  0  0  0
  -24.6626  -17.8520   22.7994 O   0  0  0  0  0  0  0  0  0  0  0  0
  -22.1998  -15.0787   20.9732 O   0  0  0  0  0  0  0  0  0  0  0  0
  -25.9742  -12.3735   19.9953 O   0  0  0  0  0  0  0  0  0  0  0  0
  -29.9536  -22.5421   18.4918 O   0  0  0  0  0  0  0  0  0  0  0  0
  -20.6517  -29.8697   23.9457 O   0  0  0  0  0  0  0  0  0  0  0  0
  -30.2328  -17.6805   20.2248 O   0  0  0  0  0  0  0  0  0  1  0  0
  -15.7054  -27.7017   22.8331 F   0  0  0  0  0  0  0  0  0  0  0  0
  -20.2538  -27.1348   24.0146 F   0  0  0  0  0  0  0  0  0  0  0  0
  1  2  1  0  0  0  0
  1  7  2  0  0  0  0
  2  8  2  0  0  0  0
  3  6  2  0  0  0  0
  3 10  1  0  0  0  0
  4 11  2  0  0  0  0
  4 19  1  0  0  0  0
  5 12  1  0  0  0  0
  5 19  2  0  0  0  0
  6 20  1  0  0  0  0
  7 22  1  0  0  0  0
  8 24  1  0  0  0  0
  9 13  2  0  0  0  0
  9 23  1  0  0  0  0
 10 26  2  0  0  0  0
 11 27  1  0  0  0  0
 12 27  2  0  0  0  0
 13 28  1  0  0  0  0
 14 15  2  0  0  0  0
 14 29  1  0  0  0  0
 15 30  1  0  0  0  0
 16 20  2  0  0  0  0
 16 26  1  0  0  0  0
 17 25  1  0  0  0  0
 17 28  2  0  0  0  0
 18 30  2  0  0  0  0
 18 31  1  0  0  0  0
 19 32  1  0  0  0  0
 20 34  1  0  0  0  0
 21 32  1  0  0  0  0
 21 33  2  0  0  0  0
 21 35  1  0  0  0  0
 22 24  2  0  0  0  0
 22 40  1  0  0  0  0
 23 25  2  0  0  0  0
 23 41  1  0  0  0  0
 24 49  1  0  0  0  0
 25 42  1  0  0  0  0
 26 73  1  0  0  0  0
 27 82  1  0  0  0  0
 28 83  1  0  0  0  0
 29 31  2  0  0  0  0
 29 82  1  0  0  0  0
 30 84  1  0  0  0  0
 31 85  1  0  0  0  0
 32 66  2  0  0  0  0
 33 68  1  0  0  0  0
 33 71  1  0  0  0  0
 34 59  1  0  0  0  0
 34 67  2  0  0  0  0
 35 72  1  0  0  0  0
 35 77  2  0  0  0  0
 36 50  1  0  0  0  0
 36 74  1  0  0  0  0
 36 78  2  0  0  0  0
 37 62  1  0  0  0  0
 37 69  1  0  0  0  0
 37 79  2  0  0  0  0
 38 63  1  0  0  0  0
 38 75  1  0  0  0  0
 38 80  2  0  0  0  0
 39 70  1  0  0  0  0
 39 73  1  0  0  0  0
 39 81  2  0  0  0  0
 40 43  1  0  0  0  0
 41 50  1  0  0  0  0
 42 69  1  0  0  0  0
 43 45  1  0  0  0  0
 44 46  1  0  0  0  0
 44 47  1  0  0  0  0
 45 49  1  0  0  0  0
 46 51  1  0  0  0  0
 47 70  1  0  0  0  0
 48 51  1  0  0  0  0
 48 70  1  0  0  0  0
 49 74  1  0  0  0  0
 50 69  1  0  0  0  0
 51 68  1  0  0  0  0
 52 63  1  0  0  0  0
 53 64  1  0  0  0  0
 54 64  1  0  0  0  0
 55 64  1  0  0  0  0
 56 65  1  0  0  0  0
 57 65  1  0  0  0  0
 58 76  1  0  0  0  0
 59 60  1  0  0  0  0
 60 65  1  0  0  0  0
 61 65  1  0  0  0  0
 61 83  1  0  0  0  0
 62 64  1  0  0  0  0
 62 75  1  0  0  0  0
 63 76  1  0  0  0  0
 66 68  1  0  0  0  0
M  CHG  1  76   1
M  ISO  4  39 100  61 101  73 100  83 101
M  END
> <Batch ID>
0137

> <Smiles>
CNC(C)C(=O)NC(C(=O)N1Cc2cc([101O:1][101CH2:1]C(C)(C)CCC(=N)c3cccc([100NH:0][100C:0](=O)N4CCCC(n5nc(-c6ccc(Oc7ccc(F)cc7F)cc6)c(C(N)=O)c5N)C4)c3)ccc2CC1C(=O)NC1CCCc2ccccc21)C(C)(C)C

> <Shape>
0.217

> <Color>
0.072

> <Negative vol penalty>
0.000

$$$$

  -OEChem-04052302423D

 87 95  0     1  0  0  0  0  0999 V2000
  -36.2477  -12.9195   24.8196 C   0  0  0  0  0  0  0  0  0  0  0  0
  -35.4418  -13.9443   25.3027 C   0  0  0  0  0  0  0  0  0  0  0  0
  -23.0538   -9.8791   19.9571 C   0  0  0  0  0  0  0  0  0  0  0  0
  -23.8636   -9.8754   22.2334 C   0  0  0  0  0  0  0  0  0  0  0  0
  -35.6651  -11.7580   24.3168 C   0  0  0  0  0  0  0  0  0  0  0  0
  -34.0537  -13.8031   25.2942 C   0  0  0  0  0  0  0  0  0  0  0  0
  -31.4359  -17.3199   27.5262 C   0  0  0  0  0  0  0  0  0  0  0  0
  -22.3152   -8.7250   20.2180 C   0  0  0  0  0  0  0  0  0  0  0  0
  -23.1249   -8.7213   22.4943 C   0  0  0  0  0  0  0  0  0  0  0  0
  -31.2884  -18.6009   26.9961 C   0  0  0  0  0  0  0  0  0  0  0  0
  -19.3990   -7.9225   21.7296 C   0  0  0  0  0  0  0  0  0  0  0  0
  -18.0818   -7.8789   21.2728 C   0  0  0  0  0  0  0  0  0  0  0  0
  -29.2126  -17.3513   20.1836 C   0  0  0  0  0  0  0  0  0  0  0  0
  -29.0530  -18.0416   26.2824 C   0  0  0  0  0  0  0  0  0  0  0  0
  -29.6476  -19.6920   20.5945 C   0  0  0  0  0  0  0  0  0  0  0  0
  -18.6119   -5.9418   19.9298 C   0  0  0  0  0  0  0  0  0  0  0  0
  -23.8281  -10.4543   20.9648 C   0  0  0  0  0  0  0  0  0  0  0  0
  -29.9977  -17.0119   21.2854 C   0  0  0  0  0  0  0  0  0  0  0  0
  -24.1681  -12.9799   20.8489 C   0  0  0  0  0  0  0  0  0  0  0  0
  -34.2687  -11.6085   24.2910 C   0  0  0  0  0  0  0  0  0  0  0  0
  -30.3952  -16.3850   27.4286 C   0  0  0  0  0  0  0  0  0  0  0  0
  -33.4475  -12.6286   24.8129 C   0  0  0  0  0  0  0  0  0  0  0  0
  -29.1888  -16.7503   26.8144 C   0  0  0  0  0  0  0  0  0  0  0  0
  -30.6077  -18.0125   22.0418 C   0  0  0  0  0  0  0  0  0  0  0  0
  -22.3507   -8.1461   21.4865 C   0  0  0  0  0  0  0  0  0  0  0  0
  -30.0979  -18.9610   26.3715 C   0  0  0  0  0  0  0  0  0  0  0  0
  -20.3227   -6.9759   21.2864 C   0  0  0  0  0  0  0  0  0  0  0  0
  -30.4327  -19.3526   21.6964 C   0  0  0  0  0  0  0  0  0  0  0  0
  -17.6882   -6.8885   20.3729 C   0  0  0  0  0  0  0  0  0  0  0  0
  -29.0376  -18.6913   19.8381 C   0  0  0  0  0  0  0  0  0  0  0  0
  -19.9291   -5.9855   20.3866 C   0  0  0  0  0  0  0  0  0  0  0  0
  -24.5918  -11.6461   20.6958 C   0  0  0  0  0  0  0  0  0  0  0  0
  -25.2523  -13.7307   20.4654 C   0  0  0  0  0  0  0  0  0  0  0  0
  -31.0550  -23.1477   24.4229 C   0  0  0  0  0  0  0  0  0  0  0  0
  -30.1625  -15.6039   21.6219 C   0  0  0  0  0  0  0  0  0  0  0  0
  -22.9073  -13.4941   21.2979 C   0  0  0  0  0  0  0  0  0  0  0  0
  -30.7929  -21.8383   24.2847 C   0  0  0  0  0  0  0  0  0  0  0  0
  -30.7666  -14.6497   20.6639 C   0  0  0  0  0  0  0  0  0  0  0  0
  -30.0555  -13.5429   26.0464 C   0  0  0  0  0  0  0  0  0  0  0  0
  -27.1937  -13.5766   27.5733 C   0  0  0  0  0  0  0  0  0  0  0  0
  -24.6857  -15.4090   28.9871 C   0  0  0  0  0  0  0  0  0  0  0  0
  -33.6915  -10.3272   23.7430 C   0  0  0  0  0  0  0  0  0  0  0  0
  -30.5603  -15.0159   28.0292 C   0  0  0  0  0  0  0  0  0  0  0  0
  -28.0339  -15.7901   26.7016 C   0  0  0  0  0  0  0  0  0  0  0  0
  -32.2185  -10.4517   23.3671 C   0  0  0  0  0  0  0  0  0  0  0  0
  -29.5410  -12.4009   18.1545 C   0  0  0  0  0  0  0  0  0  0  0  0
  -31.4414  -11.0833   24.5124 C   0  0  0  0  0  0  0  0  0  0  0  0
  -28.1225  -12.0838   18.6270 C   0  0  0  0  0  0  0  0  0  0  0  0
  -30.4910  -12.5960   19.3317 C   0  0  0  0  0  0  0  0  0  0  0  0
  -28.6162  -13.3220   20.7830 C   0  0  0  0  0  0  0  0  0  0  0  0
  -31.9344  -12.5099   24.7856 C   0  0  1  0  0  0  0  0  0  0  0  0
  -29.6235  -13.9785   27.4180 C   0  0  1  0  0  0  0  0  0  0  0  0
  -27.6218  -13.1456   19.6222 C   0  0  2  0  0  0  0  0  0  0  0  0
  -33.8063  -17.4419   24.1272 C   0  0  0  0  0  0  0  0  0  0  0  0
  -22.4598  -15.1583   30.1185 C   0  0  0  0  0  0  0  0  0  0  0  0
  -25.8883  -13.0102   24.8742 C   0  0  0  0  0  0  0  0  0  0  0  0
  -23.6976  -13.7071   25.8660 C   0  0  0  0  0  0  0  0  0  0  0  0
  -24.9134  -11.7358   26.7925 C   0  0  0  0  0  0  0  0  0  0  0  0
  -25.6762  -16.6742   31.4725 C   0  0  0  0  0  0  0  0  0  0  0  0
  -31.4518  -17.6576   23.2247 C   0  0  0  0  0  0  0  0  0  0  0  0
  -31.1305  -20.8584   25.3769 C   0  0  0  0  0  0  0  0  0  1  0  0
  -30.1580  -21.3017   23.0310 C   0  0  0  0  0  0  0  0  0  0  0  0
  -32.9504  -17.7709   22.9143 C   0  0  0  0  0  0  0  0  0  0  0  0
  -25.8052  -14.0604   27.2314 C   0  0  1  0  0  0  0  0  0  0  0  0
  -23.9635  -15.2719   30.3153 C   0  0  2  0  0  0  0  0  0  0  0  0
  -25.0984  -13.1461   26.1913 C   0  0  0  0  0  0  0  0  0  0  0  0
  -25.8472  -11.5519   20.2496 N   0  0  0  0  0  0  0  0  0  0  0  0
  -29.7990  -15.0962   22.7670 N   0  0  0  0  0  0  0  0  0  0  0  0
  -26.2216  -12.8359   20.1190 N   0  0  0  0  0  0  0  0  0  0  0  0
  -29.9687  -13.5831   20.2745 N   0  0  0  0  0  0  0  0  0  0  0  0
  -28.2463  -14.4613   27.2987 N   0  0  0  0  0  0  0  0  0  0  0  0
  -25.4616  -15.0625   20.3939 N   0  0  0  0  0  0  0  0  0  0  0  0
  -21.9026  -12.5836   21.6530 N   0  0  0  0  0  0  0  0  0  0  0  0
  -31.3235  -12.9954   26.0034 N   0  0  0  0  0  0  0  0  0  0  0  0
  -25.0930  -14.1857   28.4985 N   0  0  0  0  0  0  0  0  0  0  0  0
  -24.2365  -16.4560   31.1780 N   0  3  0  0  0  0  0  0  0  0  0  0
  -22.6728  -14.7245   21.3660 O   0  0  0  0  0  0  0  0  0  0  0  0
  -31.9121  -14.9054   20.3164 O   0  0  0  0  0  0  0  0  0  0  0  0
  -29.2942  -13.6911   25.0977 O   0  0  0  0  0  0  0  0  0  0  0  0
  -27.3385  -12.4579   28.0725 O   0  0  0  0  0  0  0  0  0  0  0  0
  -24.8668  -16.4926   28.4361 O   0  0  0  0  0  0  0  0  0  0  0  0
  -21.6298   -7.0201   21.7415 O   0  0  0  0  0  0  0  0  0  0  0  0
  -29.9515  -20.2105   25.8527 O   0  0  0  0  0  0  0  0  0  1  0  0
  -31.0239  -20.3501   22.4272 O   0  0  0  0  0  0  0  0  0  0  0  0
  -16.4229   -6.8457   19.9355 F   0  0  0  0  0  0  0  0  0  0  0  0
  -28.2834  -19.0173   18.7801 F   0  0  0  0  0  0  0  0  0  0  0  0
  -20.8116   -5.0726   19.9582 F   0  0  0  0  0  0  0  0  0  0  0  0
  1  2  1  0  0  0  0
  1  5  2  0  0  0  0
  2  6  2  0  0  0  0
  3  8  2  0  0  0  0
  3 17  1  0  0  0  0
  4  9  1  0  0  0  0
  4 17  2  0  0  0  0
  5 20  1  0  0  0  0
  6 22  1  0  0  0  0
  7 10  2  0  0  0  0
  7 21  1  0  0  0  0
  8 25  1  0  0  0  0
  9 25  2  0  0  0  0
 10 26  1  0  0  0  0
 11 12  2  0  0  0  0
 11 27  1  0  0  0  0
 12 29  1  0  0  0  0
 13 18  2  0  0  0  0
 13 30  1  0  0  0  0
 14 23  1  0  0  0  0
 14 26  2  0  0  0  0
 15 28  1  0  0  0  0
 15 30  2  0  0  0  0
 16 29  2  0  0  0  0
 16 31  1  0  0  0  0
 17 32  1  0  0  0  0
 18 24  1  0  0  0  0
 18 35  1  0  0  0  0
 19 32  1  0  0  0  0
 19 33  2  0  0  0  0
 19 36  1  0  0  0  0
 20 22  2  0  0  0  0
 20 42  1  0  0  0  0
 21 23  2  0  0  0  0
 21 43  1  0  0  0  0
 22 51  1  0  0  0  0
 23 44  1  0  0  0  0
 24 28  2  0  0  0  0
 24 60  1  0  0  0  0
 25 82  1  0  0  0  0
 26 83  1  0  0  0  0
 27 31  2  0  0  0  0
 27 82  1  0  0  0  0
 28 84  1  0  0  0  0
 29 85  1  0  0  0  0
 30 86  1  0  0  0  0
 31 87  1  0  0  0  0
 32 67  2  0  0  0  0
 33 69  1  0  0  0  0
 33 72  1  0  0  0  0
 34 37  2  0  0  0  0
 35 38  1  0  0  0  0
 35 68  2  0  0  0  0
 36 73  1  0  0  0  0
 36 77  2  0  0  0  0
 37 61  1  0  0  0  0
 37 62  1  0  0  0  0
 38 70  1  0  0  0  0
 38 78  2  0  0  0  0
 39 52  1  0  0  0  0
 39 74  1  0  0  0  0
 39 79  2  0  0  0  0
 40 64  1  0  0  0  0
 40 71  1  0  0  0  0
 40 80  2  0  0  0  0
 41 65  1  0  0  0  0
 41 75  1  0  0  0  0
 41 81  2  0  0  0  0
 42 45  1  0  0  0  0
 43 52  1  0  0  0  0
 44 71  1  0  0  0  0
 45 47  1  0  0  0  0
 46 48  1  0  0  0  0
 46 49  1  0  0  0  0
 47 51  1  0  0  0  0
 48 53  1  0  0  0  0
 49 70  1  0  0  0  0
 50 53  1  0  0  0  0
 50 70  1  0  0  0  0
 51 74  1  0  0  0  0
 52 71  1  0  0  0  0
 53 69  1  0  0  0  0
 54 63  1  0  0  0  0
 55 65  1  0  0  0  0
 56 66  1  0  0  0  0
 57 66  1  0  0  0  0
 58 66  1  0  0  0  0
 59 76  1  0  0  0  0
 60 63  1  0  0  0  0
 61 83  1  0  0  0  0
 62 84  1  0  0  0  0
 64 66  1  0  0  0  0
 64 75  1  0  0  0  0
 65 76  1  0  0  0  0
 67 69  1  0  0  0  0
M  CHG  1  76   1
M  ISO  4  35 100  38 100  61 101  83 101
M  END
> <Batch ID>
0137

> <Smiles>
C=C(COc1cc(F)cc([100C:0](=N)[100C:0](=O)N2CCCC(n3nc(-c4ccc(Oc5ccc(F)cc5F)cc4)c(C(N)=O)c3N)C2)c1CCC)[101CH2:1][101O:1]c1ccc2c(c1)CN(C(=O)C(NC(=O)C(C)NC)C(C)(C)C)C(C(=O)NC1CCCc3ccccc31)C2

> <Shape>
0.178

> <Color>
0.181

> <Negative vol penalty>
0.000

$$$$

  -OEChem-04052302423D

 89 97  0     1  0  0  0  0  0999 V2000
  -19.2645  -26.3374   17.4430 C   0  0  0  0  0  0  0  0  0  0  0  0
  -20.6465  -26.4961   17.4294 C   0  0  0  0  0  0  0  0  0  0  0  0
  -26.1595  -12.0026   21.2585 C   0  0  0  0  0  0  0  0  0  0  0  0
  -25.7961  -12.3283   18.8923 C   0  0  0  0  0  0  0  0  0  0  0  0
  -18.4451  -27.4036   17.8113 C   0  0  0  0  0  0  0  0  0  0  0  0
  -21.2099  -27.7216   17.7831 C   0  0  0  0  0  0  0  0  0  0  0  0
  -25.1742  -27.2121   20.8928 C   0  0  0  0  0  0  0  0  0  0  0  0
  -24.8130  -11.6769   21.4205 C   0  0  0  0  0  0  0  0  0  0  0  0
  -24.4496  -12.0025   19.0542 C   0  0  0  0  0  0  0  0  0  0  0  0
  -26.3864  -26.8279   20.3213 C   0  0  0  0  0  0  0  0  0  0  0  0
  -22.8186   -8.9964   20.9004 C   0  0  0  0  0  0  0  0  0  0  0  0
  -22.5103   -7.8851   21.6849 C   0  0  0  0  0  0  0  0  0  0  0  0
  -27.1242  -29.1243   20.3570 C   0  0  0  0  0  0  0  0  0  0  0  0
  -29.6090  -18.2086   14.7629 C   0  0  0  0  0  0  0  0  0  0  0  0
  -30.2613  -20.1732   16.0087 C   0  0  0  0  0  0  0  0  0  0  0  0
  -21.2402   -9.2938   23.1814 C   0  0  0  0  0  0  0  0  0  0  0  0
  -26.6511  -12.3284   19.9944 C   0  0  0  0  0  0  0  0  0  0  0  0
  -29.1020  -11.7840   19.5422 C   0  0  0  0  0  0  0  0  0  0  0  0
  -18.9992  -28.6399   18.1790 C   0  0  0  0  0  0  0  0  0  0  0  0
  -24.9232  -28.5591   21.1911 C   0  0  0  0  0  0  0  0  0  0  0  0
  -20.3971  -28.8058   18.1553 C   0  0  0  0  0  0  0  0  0  0  0  0
  -25.9090  -29.5227   20.9346 C   0  0  0  0  0  0  0  0  0  0  0  0
  -29.2555  -19.0128   13.6795 C   0  0  0  0  0  0  0  0  0  0  0  0
  -29.9079  -20.9775   14.9252 C   0  0  0  0  0  0  0  0  0  0  0  0
  -29.4050  -20.3973   13.7607 C   0  0  0  0  0  0  0  0  0  0  0  0
  -30.1118  -18.7887   15.9275 C   0  0  0  0  0  0  0  0  0  0  0  0
  -23.9580  -11.6768   20.3184 C   0  0  0  0  0  0  0  0  0  0  0  0
  -27.3606  -27.7844   20.0507 C   0  0  0  0  0  0  0  0  0  0  0  0
  -22.3377  -10.2565   21.2564 C   0  0  0  0  0  0  0  0  0  0  0  0
  -21.7211   -8.0338   22.8254 C   0  0  0  0  0  0  0  0  0  0  0  0
  -21.5485  -10.4052   22.3969 C   0  0  0  0  0  0  0  0  0  0  0  0
  -28.0419  -12.6656   19.8265 C   0  0  0  0  0  0  0  0  0  0  0  0
  -30.2123  -12.5903   19.4818 C   0  0  0  0  0  0  0  0  0  0  0  0
  -29.0846  -10.3633   19.3497 C   0  0  0  0  0  0  0  0  0  0  0  0
  -22.7925  -30.7111   20.2254 C   0  0  0  0  0  0  0  0  0  0  0  0
  -24.1714  -32.5354   22.5261 C   0  0  0  0  0  0  0  0  0  0  0  0
  -26.9099  -33.1813   24.4574 C   0  0  0  0  0  0  0  0  0  0  0  0
  -30.9857  -18.3872   18.2560 C   0  0  0  0  0  0  0  0  0  0  0  0
  -18.0711  -29.7776   18.5241 C   0  0  0  0  0  0  0  0  0  0  0  0
  -23.6209  -28.9537   21.8320 C   0  0  0  0  0  0  0  0  0  0  0  0
  -25.6968  -30.9790   21.2547 C   0  0  0  0  0  0  0  0  0  0  0  0
  -18.7632  -30.9307   19.2461 C   0  0  0  0  0  0  0  0  0  0  0  0
  -31.9619  -16.6910   21.2303 C   0  0  0  0  0  0  0  0  0  0  0  0
  -20.0686  -31.2930   18.5449 C   0  0  0  0  0  0  0  0  0  0  0  0
  -31.1685  -15.3833   21.1789 C   0  0  0  0  0  0  0  0  0  0  0  0
  -31.1553  -17.8657   20.6796 C   0  0  0  0  0  0  0  0  0  0  0  0
  -29.8001  -16.3510   19.2874 C   0  0  0  0  0  0  0  0  0  0  0  0
  -21.0470  -30.1123   18.5563 C   0  0  1  0  0  0  0  0  0  0  0  0
  -23.2718  -30.4236   21.6201 C   0  0  1  0  0  0  0  0  0  0  0  0
  -30.5948  -15.1272   19.7716 C   0  0  2  0  0  0  0  0  0  0  0  0
  -28.7189  -18.3670   12.4442 C   0  0  0  0  0  0  0  0  0  0  0  0
  -29.0264  -21.2596   12.5986 C   0  0  0  0  0  0  0  0  0  0  0  0
  -27.7511  -34.7598   26.2176 C   0  0  0  0  0  0  0  0  0  0  0  0
  -24.5892  -34.6817   20.3980 C   0  0  0  0  0  0  0  0  0  0  0  0
  -26.2315  -35.7847   21.9325 C   0  0  0  0  0  0  0  0  0  0  0  0
  -23.8459  -35.5492   22.6228 C   0  0  0  0  0  0  0  0  0  0  0  0
  -29.3279  -25.3716   14.2083 C   0  0  0  0  0  0  0  0  0  0  0  0
  -27.3469  -25.1882   15.7183 C   0  0  0  0  0  0  0  0  0  0  0  0
  -29.4943  -27.6127   16.7190 C   0  0  0  0  0  0  0  0  0  0  0  0
  -31.0028  -26.4691   18.3241 C   0  0  0  0  0  0  0  0  0  0  0  0
  -27.2681  -30.9910   26.4154 C   0  0  0  0  0  0  0  0  0  0  0  0
  -30.0795  -22.4731   15.0390 C   0  0  0  0  0  0  0  0  0  0  0  0
  -28.7361  -23.1712   15.2973 C   0  0  0  0  0  0  0  0  0  0  0  0
  -29.7273  -25.0325   16.7236 C   0  0  0  0  0  0  0  0  0  0  0  0
  -28.5247  -26.2717   18.6320 C   0  0  0  0  0  0  0  0  0  1  0  0
  -25.3295  -33.5026   22.5723 C   0  0  1  0  0  0  0  0  0  0  0  0
  -27.0547  -33.4352   25.9471 C   0  0  2  0  0  0  0  0  0  0  0  0
  -25.0026  -34.8525   21.8735 C   0  0  0  0  0  0  0  0  0  0  0  0
  -28.7972  -24.7249   15.5040 C   0  0  0  0  0  0  0  0  0  0  0  0
  -29.6495  -26.3455   17.5715 C   0  0  0  0  0  0  0  0  0  0  0  0
  -28.4427  -13.9347   19.9391 N   0  0  0  0  0  0  0  0  0  0  0  0
  -29.7671  -13.8564   19.7245 N   0  0  0  0  0  0  0  0  0  0  0  0
  -24.4046  -31.3159   21.8747 N   0  0  0  0  0  0  0  0  0  0  0  0
  -30.6473  -17.5527   19.3422 N   0  0  0  0  0  0  0  0  0  0  0  0
  -31.5162  -12.3327   19.2453 N   0  0  0  0  0  0  0  0  0  0  0  0
  -27.8587   -9.6909   19.4462 N   0  0  0  0  0  0  0  0  0  0  0  0
  -30.4720  -17.9718   17.0279 N   0  0  0  0  0  0  0  0  0  0  0  0
  -21.6746  -29.9885   19.8545 N   0  0  0  0  0  0  0  0  0  0  0  0
  -25.6979  -33.6314   23.9781 N   0  0  0  0  0  0  0  0  0  0  0  0
  -27.8505  -32.3474   26.5830 N   0  3  0  0  0  0  0  0  0  0  0  0
  -30.1279   -9.7073   19.1159 O   0  0  0  0  0  0  0  0  0  0  0  0
  -23.3915  -31.5292   19.5372 O   0  0  0  0  0  0  0  0  0  0  0  0
  -23.1015  -32.8473   23.0548 O   0  0  0  0  0  0  0  0  0  0  0  0
  -27.7859  -32.6413   23.7855 O   0  0  0  0  0  0  0  0  0  0  0  0
  -31.7025  -19.3809   18.3997 O   0  0  0  0  0  0  0  0  0  0  0  0
  -22.6440  -11.3587   20.4760 O   0  0  0  0  0  0  0  0  0  0  0  0
  -28.5516  -27.4099   19.4890 O   0  0  0  0  0  0  0  0  0  1  0  0
  -21.4239   -6.9662   23.5778 F   0  0  0  0  0  0  0  0  0  0  0  0
  -21.0827  -11.6130   22.7433 F   0  0  0  0  0  0  0  0  0  0  0  0
  1  2  1  0  0  0  0
  1  5  2  0  0  0  0
  2  6  2  0  0  0  0
  3  8  2  0  0  0  0
  3 17  1  0  0  0  0
  4  9  1  0  0  0  0
  4 17  2  0  0  0  0
  5 19  1  0  0  0  0
  6 21  1  0  0  0  0
  7 10  2  0  0  0  0
  7 20  1  0  0  0  0
  8 27  1  0  0  0  0
  9 27  2  0  0  0  0
 10 28  1  0  0  0  0
 11 12  2  0  0  0  0
 11 29  1  0  0  0  0
 12 30  1  0  0  0  0
 13 22  1  0  0  0  0
 13 28  2  0  0  0  0
 14 23  2  0  0  0  0
 14 26  1  0  0  0  0
 15 24  1  0  0  0  0
 15 26  2  0  0  0  0
 16 30  2  0  0  0  0
 16 31  1  0  0  0  0
 17 32  1  0  0  0  0
 18 32  1  0  0  0  0
 18 33  2  0  0  0  0
 18 34  1  0  0  0  0
 19 21  2  0  0  0  0
 19 39  1  0  0  0  0
 20 22  2  0  0  0  0
 20 40  1  0  0  0  0
 21 48  1  0  0  0  0
 22 41  1  0  0  0  0
 23 25  1  0  0  0  0
 23 51  1  0  0  0  0
 24 25  2  0  0  0  0
 24 62  1  0  0  0  0
 25 52  1  0  0  0  0
 26 77  1  0  0  0  0
 27 86  1  0  0  0  0
 28 87  1  0  0  0  0
 29 31  2  0  0  0  0
 29 86  1  0  0  0  0
 30 88  1  0  0  0  0
 31 89  1  0  0  0  0
 32 71  2  0  0  0  0
 33 72  1  0  0  0  0
 33 75  1  0  0  0  0
 34 76  1  0  0  0  0
 34 81  2  0  0  0  0
 35 49  1  0  0  0  0
 35 78  1  0  0  0  0
 35 82  2  0  0  0  0
 36 66  1  0  0  0  0
 36 73  1  0  0  0  0
 36 83  2  0  0  0  0
 37 67  1  0  0  0  0
 37 79  1  0  0  0  0
 37 84  2  0  0  0  0
 38 74  1  0  0  0  0
 38 77  1  0  0  0  0
 38 85  2  0  0  0  0
 39 42  1  0  0  0  0
 40 49  1  0  0  0  0
 41 73  1  0  0  0  0
 42 44  1  0  0  0  0
 43 45  1  0  0  0  0
 43 46  1  0  0  0  0
 44 48  1  0  0  0  0
 45 50  1  0  0  0  0
 46 74  1  0  0  0  0
 47 50  1  0  0  0  0
 47 74  1  0  0  0  0
 48 78  1  0  0  0  0
 49 73  1  0  0  0  0
 50 72  1  0  0  0  0
 53 67  1  0  0  0  0
 54 68  1  0  0  0  0
 55 68  1  0  0  0  0
 56 68  1  0  0  0  0
 57 69  1  0  0  0  0
 58 69  1  0  0  0  0
 59 70  1  0  0  0  0
 60 70  1  0  0  0  0
 61 80  1  0  0  0  0
 62 63  1  0  0  0  0
 63 69  1  0  0  0  0
 64 69  1  0  0  0  0
 64 70  1  0  0  0  0
 65 70  1  0  0  0  0
 65 87  1  0  0  0  0
 66 68  1  0  0  0  0
 66 79  1  0  0  0  0
 67 80  1  0  0  0  0
 71 72  1  0  0  0  0
M  CHG  1  80   1
M  ISO  4  38 100  65 101  77 100  87 101
M  END
> <Batch ID>
0137

> <Smiles>
CNC(C)C(=O)NC(C(=O)N1Cc2cc([101O:1][101CH2:1]C(C)(C)CC(C)(C)CCc3cc([100NH:0][100C:0](=O)N4CCCC(n5nc(-c6ccc(Oc7ccc(F)cc7F)cc6)c(C(N)=O)c5N)C4)cc(C)c3C)ccc2CC1C(=O)NC1CCCc2ccccc21)C(C)(C)C

> <Shape>
0.268

> <Color>
0.091

> <Negative vol penalty>
0.000

$$$$

  -OEChem-04052302423D

 88 96  0     1  0  0  0  0  0999 V2000
  -28.8554  -36.4332   18.4597 C   0  0  0  0  0  0  0  0  0  0  0  0
  -29.1143  -35.4076   19.3633 C   0  0  0  0  0  0  0  0  0  0  0  0
  -23.5820   -9.6599   19.9333 C   0  0  0  0  0  0  0  0  0  0  0  0
  -24.0837   -9.8920   22.2852 C   0  0  0  0  0  0  0  0  0  0  0  0
  -27.5601  -36.9306   18.3239 C   0  0  0  0  0  0  0  0  0  0  0  0
  -28.0780  -34.8796   20.1326 C   0  0  0  0  0  0  0  0  0  0  0  0
  -28.1605  -29.8187   20.2918 C   0  0  0  0  0  0  0  0  0  0  0  0
  -29.9521  -20.2347   20.8679 C   0  0  0  0  0  0  0  0  0  0  0  0
  -30.0344  -18.8434   20.9235 C   0  0  0  0  0  0  0  0  0  0  0  0
  -23.0312   -8.4014   20.1750 C   0  0  0  0  0  0  0  0  0  0  0  0
  -23.5328   -8.6335   22.5269 C   0  0  0  0  0  0  0  0  0  0  0  0
  -29.0880  -29.2235   21.1458 C   0  0  0  0  0  0  0  0  0  0  0  0
  -21.9326   -5.6351   23.8180 C   0  0  0  0  0  0  0  0  0  0  0  0
  -21.0772   -5.4999   24.9114 C   0  0  0  0  0  0  0  0  0  0  0  0
  -27.3501  -28.8780   22.7826 C   0  0  0  0  0  0  0  0  0  0  0  0
  -28.2175  -18.7995   22.5154 C   0  0  0  0  0  0  0  0  0  0  0  0
  -19.5942   -7.1502   23.9551 C   0  0  0  0  0  0  0  0  0  0  0  0
  -24.1084  -10.4052   20.9885 C   0  0  0  0  0  0  0  0  0  0  0  0
  -24.0101  -12.9440   20.7598 C   0  0  0  0  0  0  0  0  0  0  0  0
  -26.5056  -36.4019   19.0849 C   0  0  0  0  0  0  0  0  0  0  0  0
  -26.8208  -29.9580   20.6819 C   0  0  0  0  0  0  0  0  0  0  0  0
  -26.7675  -35.3714   20.0079 C   0  0  0  0  0  0  0  0  0  0  0  0
  -26.4070  -29.4730   21.9307 C   0  0  0  0  0  0  0  0  0  0  0  0
  -29.0025  -20.9084   21.6361 C   0  0  0  0  0  0  0  0  0  0  0  0
  -28.1352  -20.1908   22.4598 C   0  0  0  0  0  0  0  0  0  0  0  0
  -29.1672  -18.1258   21.7472 C   0  0  0  0  0  0  0  0  0  0  0  0
  -23.0065   -7.8882   21.4718 C   0  0  0  0  0  0  0  0  0  0  0  0
  -28.6835  -28.7557   22.3926 C   0  0  0  0  0  0  0  0  0  0  0  0
  -21.6189   -6.5279   22.7932 C   0  0  0  0  0  0  0  0  0  0  0  0
  -19.9079   -6.2574   24.9800 C   0  0  0  0  0  0  0  0  0  0  0  0
  -20.4497   -7.2854   22.8618 C   0  0  0  0  0  0  0  0  0  0  0  0
  -24.6781  -11.7050   20.7394 C   0  0  0  0  0  0  0  0  0  0  0  0
  -24.9849  -13.8646   20.4619 C   0  0  0  0  0  0  0  0  0  0  0  0
  -22.6317  -13.2367   21.0245 C   0  0  0  0  0  0  0  0  0  0  0  0
  -24.8709  -32.4206   21.1690 C   0  0  0  0  0  0  0  0  0  0  0  0
  -29.5090  -24.5859   22.7233 C   0  0  0  0  0  0  0  0  0  0  0  0
  -22.6510  -30.0862   21.5503 C   0  0  0  0  0  0  0  0  0  0  0  0
  -21.9718  -26.8327   22.3249 C   0  0  0  0  0  0  0  0  0  0  0  0
  -30.1319  -15.8893   21.1038 C   0  0  0  0  0  0  0  0  0  0  0  0
  -25.1308  -37.0043   18.9376 C   0  0  0  0  0  0  0  0  0  0  0  0
  -25.8272  -30.5782   19.7382 C   0  0  0  0  0  0  0  0  0  0  0  0
  -24.9762  -29.5802   22.3886 C   0  0  0  0  0  0  0  0  0  0  0  0
  -24.0192  -36.1347   19.5193 C   0  0  0  0  0  0  0  0  0  0  0  0
  -29.7157  -13.2249   18.7790 C   0  0  0  0  0  0  0  0  0  0  0  0
  -24.4067  -35.6295   20.9055 C   0  0  0  0  0  0  0  0  0  0  0  0
  -28.3130  -12.6939   19.0834 C   0  0  0  0  0  0  0  0  0  0  0  0
  -30.4448  -13.6615   20.0485 C   0  0  0  0  0  0  0  0  0  0  0  0
  -28.3056  -14.0806   21.1963 C   0  0  0  0  0  0  0  0  0  0  0  0
  -25.6653  -34.7557   20.8422 C   0  0  1  0  0  0  0  0  0  0  0  0
  -24.5950  -31.1319   20.4472 C   0  0  1  0  0  0  0  0  0  0  0  0
  -27.5077  -13.6890   19.9418 C   0  0  2  0  0  0  0  0  0  0  0  0
  -25.7106  -20.7869   22.6889 C   0  0  0  0  0  0  0  0  0  0  0  0
  -20.0603  -25.2283   22.5888 C   0  0  0  0  0  0  0  0  0  0  0  0
  -21.9596  -31.3558   24.2373 C   0  0  0  0  0  0  0  0  0  0  0  0
  -20.7760  -29.2377   24.8547 C   0  0  0  0  0  0  0  0  0  0  0  0
  -19.9858  -30.5844   22.9092 C   0  0  0  0  0  0  0  0  0  0  0  0
  -32.3886  -25.6660   22.8535 C   0  0  0  0  0  0  0  0  0  0  0  0
  -31.7075  -26.9842   24.8628 C   0  0  0  0  0  0  0  0  0  0  0  0
  -22.9961  -25.0776   20.1733 C   0  0  0  0  0  0  0  0  0  0  0  0
  -28.9332  -22.4116   21.5599 C   0  0  0  0  0  0  0  0  0  0  0  0
  -27.1092  -20.8906   23.2895 C   0  0  0  0  0  0  0  0  0  0  0  0
  -29.5851  -23.0684   22.7751 C   0  0  0  0  0  0  0  0  0  0  0  0
  -30.0979  -25.3377   23.9071 C   0  0  0  0  0  0  0  0  0  0  0  0
  -30.6810  -27.4861   22.6246 C   0  0  0  0  0  0  0  0  0  1  0  0
  -22.1409  -29.2764   22.7177 C   0  0  1  0  0  0  0  0  0  0  0  0
  -21.1039  -25.7938   21.6380 C   0  0  2  0  0  0  0  0  0  0  0  0
  -21.2430  -30.1131   23.6722 C   0  0  0  0  0  0  0  0  0  0  0  0
  -31.2018  -26.3602   23.5441 C   0  0  0  0  0  0  0  0  0  0  0  0
  -25.9768  -11.8241   20.4511 N   0  0  0  0  0  0  0  0  0  0  0  0
  -26.1327  -13.1488   20.2876 N   0  0  0  0  0  0  0  0  0  0  0  0
  -24.0435  -30.2000   21.4329 N   0  0  0  0  0  0  0  0  0  0  0  0
  -29.6237  -14.6067   20.8083 N   0  0  0  0  0  0  0  0  0  0  0  0
  -24.9636  -15.2084   20.3346 N   0  0  0  0  0  0  0  0  0  0  0  0
  -21.7663  -12.1727   21.3133 N   0  0  0  0  0  0  0  0  0  0  0  0
  -29.2492  -16.7123   21.8025 N   0  0  0  0  0  0  0  0  0  0  0  0
  -25.3385  -33.4333   20.3535 N   0  0  0  0  0  0  0  0  0  0  0  0
  -21.4796  -28.1082   22.1463 N   0  0  0  0  0  0  0  0  0  0  0  0
  -21.9421  -24.6681   21.1368 N   0  3  0  0  0  0  0  0  0  0  0  0
  -22.1773  -14.4054   20.9893 O   0  0  0  0  0  0  0  0  0  0  0  0
  -24.6727  -32.4912   22.3763 O   0  0  0  0  0  0  0  0  0  0  0  0
  -28.9800  -25.1870   21.7887 O   0  0  0  0  0  0  0  0  0  0  0  0
  -21.8439  -30.5930   20.7671 O   0  0  0  0  0  0  0  0  0  0  0  0
  -22.9830  -26.5414   22.9598 O   0  0  0  0  0  0  0  0  0  0  0  0
  -31.2563  -16.2419   20.7385 O   0  0  0  0  0  0  0  0  0  0  0  0
  -22.4689   -6.6604   21.7080 O   0  0  0  0  0  0  0  0  0  0  0  0
  -29.5869  -28.1750   23.2284 O   0  0  0  0  0  0  0  0  0  1  0  0
  -19.0858   -6.1263   26.0292 F   0  0  0  0  0  0  0  0  0  0  0  0
  -20.1424   -8.1439   21.8797 F   0  0  0  0  0  0  0  0  0  0  0  0
  1  2  1  0  0  0  0
  1  5  2  0  0  0  0
  2  6  2  0  0  0  0
  3 10  2  0  0  0  0
  3 18  1  0  0  0  0
  4 11  1  0  0  0  0
  4 18  2  0  0  0  0
  5 20  1  0  0  0  0
  6 22  1  0  0  0  0
  7 12  2  0  0  0  0
  7 21  1  0  0  0  0
  8  9  2  0  0  0  0
  8 24  1  0  0  0  0
  9 26  1  0  0  0  0
 10 27  1  0  0  0  0
 11 27  2  0  0  0  0
 12 28  1  0  0  0  0
 13 14  2  0  0  0  0
 13 29  1  0  0  0  0
 14 30  1  0  0  0  0
 15 23  1  0  0  0  0
 15 28  2  0  0  0  0
 16 25  1  0  0  0  0
 16 26  2  0  0  0  0
 17 30  2  0  0  0  0
 17 31  1  0  0  0  0
 18 32  1  0  0  0  0
 19 32  1  0  0  0  0
 19 33  2  0  0  0  0
 19 34  1  0  0  0  0
 20 22  2  0  0  0  0
 20 40  1  0  0  0  0
 21 23  2  0  0  0  0
 21 41  1  0  0  0  0
 22 49  1  0  0  0  0
 23 42  1  0  0  0  0
 24 25  2  0  0  0  0
 24 60  1  0  0  0  0
 25 61  1  0  0  0  0
 26 75  1  0  0  0  0
 27 85  1  0  0  0  0
 28 86  1  0  0  0  0
 29 31  2  0  0  0  0
 29 85  1  0  0  0  0
 30 87  1  0  0  0  0
 31 88  1  0  0  0  0
 32 69  2  0  0  0  0
 33 70  1  0  0  0  0
 33 73  1  0  0  0  0
 34 74  1  0  0  0  0
 34 79  2  0  0  0  0
 35 50  1  0  0  0  0
 35 76  1  0  0  0  0
 35 80  2  0  0  0  0
 36 62  1  0  0  0  0
 36 63  1  0  0  0  0
 36 81  2  0  0  0  0
 37 65  1  0  0  0  0
 37 71  1  0  0  0  0
 37 82  2  0  0  0  0
 38 66  1  0  0  0  0
 38 77  1  0  0  0  0
 38 83  2  0  0  0  0
 39 72  1  0  0  0  0
 39 75  1  0  0  0  0
 39 84  2  0  0  0  0
 40 43  1  0  0  0  0
 41 50  1  0  0  0  0
 42 71  1  0  0  0  0
 43 45  1  0  0  0  0
 44 46  1  0  0  0  0
 44 47  1  0  0  0  0
 45 49  1  0  0  0  0
 46 51  1  0  0  0  0
 47 72  1  0  0  0  0
 48 51  1  0  0  0  0
 48 72  1  0  0  0  0
 49 76  1  0  0  0  0
 50 71  1  0  0  0  0
 51 70  1  0  0  0  0
 52 61  1  0  0  0  0
 53 66  1  0  0  0  0
 54 67  1  0  0  0  0
 55 67  1  0  0  0  0
 56 67  1  0  0  0  0
 57 68  1  0  0  0  0
 58 68  1  0  0  0  0
 59 78  1  0  0  0  0
 60 62  1  0  0  0  0
 63 68  1  0  0  0  0
 64 68  1  0  0  0  0
 64 86  1  0  0  0  0
 65 67  1  0  0  0  0
 65 77  1  0  0  0  0
 66 78  1  0  0  0  0
 69 70  1  0  0  0  0
M  CHG  1  78   1
M  ISO  4  39 100  64 101  75 100  86 101
M  END
> <Batch ID>
0137

> <Smiles>
CCc1cc([100NH:0][100C:0](=O)N2CCCC(n3nc(-c4ccc(Oc5ccc(F)cc5F)cc4)c(C(N)=O)c3N)C2)ccc1CCC(=O)CC(C)(C)[101CH2:1][101O:1]c1ccc2c(c1)CN(C(=O)C(NC(=O)C(C)NC)C(C)(C)C)C(C(=O)NC1CCCc3ccccc31)C2

> <Shape>
0.296

> <Color>
0.152

> <Negative vol penalty>
0.000

$$$$

  -OEChem-04052302423D

 87 95  0     1  0  0  0  0  0999 V2000
  -26.7527  -22.0818   16.5043 C   0  0  0  0  0  0  0  0  0  0  0  0
  -27.1808  -20.7983   16.8239 C   0  0  0  0  0  0  0  0  0  0  0  0
  -26.7420  -29.1553   19.3209 C   0  0  0  0  0  0  0  0  0  0  0  0
  -25.7106  -28.0613   21.2121 C   0  0  0  0  0  0  0  0  0  0  0  0
  -25.6706  -22.6403   17.1813 C   0  0  0  0  0  0  0  0  0  0  0  0
  -26.5195  -20.0683   17.8122 C   0  0  0  0  0  0  0  0  0  0  0  0
  -27.8704  -15.3749   18.4047 C   0  0  0  0  0  0  0  0  0  0  0  0
  -25.5499  -29.8316   19.0619 C   0  0  0  0  0  0  0  0  0  0  0  0
  -24.5185  -28.7376   20.9531 C   0  0  0  0  0  0  0  0  0  0  0  0
  -29.0877  -15.0074   18.9765 C   0  0  0  0  0  0  0  0  0  0  0  0
  -21.3109  -30.4484   21.0066 C   0  0  0  0  0  0  0  0  0  0  0  0
  -20.6406  -31.0201   22.0880 C   0  0  0  0  0  0  0  0  0  0  0  0
  -27.9487  -14.4503   21.0286 C   0  0  0  0  0  0  0  0  0  0  0  0
  -28.1671  -20.5458   23.6028 C   0  0  0  0  0  0  0  0  0  0  0  0
  -29.3502  -18.8054   24.7893 C   0  0  0  0  0  0  0  0  0  0  0  0
  -30.0415  -19.4330   22.5610 C   0  0  0  0  0  0  0  0  0  0  0  0
  -22.5703  -32.3964   22.5565 C   0  0  0  0  0  0  0  0  0  0  0  0
  -26.8224  -28.2701   20.3960 C   0  0  0  0  0  0  0  0  0  0  0  0
  -29.1117  -27.9978   21.4881 C   0  0  0  0  0  0  0  0  0  0  0  0
  -25.0042  -21.9209   18.1869 C   0  0  0  0  0  0  0  0  0  0  0  0
  -26.6826  -15.2931   19.1454 C   0  0  0  0  0  0  0  0  0  0  0  0
  -25.4103  -20.6054   18.4902 C   0  0  0  0  0  0  0  0  0  0  0  0
  -26.7173  -14.8149   20.4631 C   0  0  0  0  0  0  0  0  0  0  0  0
  -28.3310  -19.7565   24.7411 C   0  0  0  0  0  0  0  0  0  0  0  0
  -29.0223  -20.3840   22.5128 C   0  0  0  0  0  0  0  0  0  0  0  0
  -24.4381  -29.6227   19.8780 C   0  0  0  0  0  0  0  0  0  0  0  0
  -29.1274  -14.5478   20.2896 C   0  0  0  0  0  0  0  0  0  0  0  0
  -22.6109  -30.8506   20.7001 C   0  0  0  0  0  0  0  0  0  0  0  0
  -30.2055  -18.6436   23.6993 C   0  0  0  0  0  0  0  0  0  0  0  0
  -21.2703  -31.9941   22.8629 C   0  0  0  0  0  0  0  0  0  0  0  0
  -23.2406  -31.8246   21.4750 C   0  0  0  0  0  0  0  0  0  0  0  0
  -28.0534  -27.5708   20.6637 C   0  0  0  0  0  0  0  0  0  0  0  0
  -30.0378  -26.9865   21.4093 C   0  0  0  0  0  0  0  0  0  0  0  0
  -29.2455  -29.2008   22.2565 C   0  0  0  0  0  0  0  0  0  0  0  0
  -24.5044  -17.3880   20.1306 C   0  0  0  0  0  0  0  0  0  0  0  0
  -22.9507  -14.7181   21.1205 C   0  0  0  0  0  0  0  0  0  0  0  0
  -23.1318  -11.4462   22.0736 C   0  0  0  0  0  0  0  0  0  0  0  0
  -29.6176  -21.1523   20.1886 C   0  0  0  0  0  0  0  0  0  0  0  0
  -23.8339  -22.5706   18.8823 C   0  0  0  0  0  0  0  0  0  0  0  0
  -25.3740  -15.6680   18.5054 C   0  0  0  0  0  0  0  0  0  0  0  0
  -25.4676  -14.6890   21.2942 C   0  0  0  0  0  0  0  0  0  0  0  0
  -23.4827  -21.9006   20.2067 C   0  0  0  0  0  0  0  0  0  0  0  0
  -31.5920  -23.5540   18.4535 C   0  0  0  0  0  0  0  0  0  0  0  0
  -23.3779  -20.3949   20.0158 C   0  0  0  0  0  0  0  0  0  0  0  0
  -31.0089  -24.8957   18.9031 C   0  0  0  0  0  0  0  0  0  0  0  0
  -30.5079  -22.4897   18.2929 C   0  0  0  0  0  0  0  0  0  0  0  0
  -29.0572  -23.6474   19.9129 C   0  0  0  0  0  0  0  0  0  0  0  0
  -24.7256  -19.8042   19.5827 C   0  0  1  0  0  0  0  0  0  0  0  0
  -24.2947  -16.0310   19.5206 C   0  0  1  0  0  0  0  0  0  0  0  0
  -30.1189  -24.7335   20.1510 C   0  0  2  0  0  0  0  0  0  0  0  0
  -25.2662  -19.1749   27.0157 C   0  0  0  0  0  0  0  0  0  0  0  0
  -21.7000   -9.5418   22.8614 C   0  0  0  0  0  0  0  0  0  0  0  0
  -22.7756  -15.9966   23.8854 C   0  0  0  0  0  0  0  0  0  0  0  0
  -22.2233  -13.7396   24.8175 C   0  0  0  0  0  0  0  0  0  0  0  0
  -20.7016  -14.8062   23.1532 C   0  0  0  0  0  0  0  0  0  0  0  0
  -33.7998  -15.6682   20.9471 C   0  0  0  0  0  0  0  0  0  0  0  0
  -32.9771  -13.4913   21.8553 C   0  0  0  0  0  0  0  0  0  0  0  0
  -23.8564   -9.7822   19.7359 C   0  0  0  0  0  0  0  0  0  0  0  0
  -27.4167  -19.9291   25.9065 C   0  0  0  0  0  0  0  0  0  0  0  0
  -26.1800  -19.0226   25.8100 C   0  0  0  0  0  0  0  0  0  0  0  0
  -32.0663  -15.6922   22.7474 C   0  0  0  0  0  0  0  0  0  0  0  0
  -31.5942  -17.1245   22.5079 C   0  0  0  0  0  0  0  0  0  0  0  0
  -31.4823  -14.8652   20.3867 C   0  0  0  0  0  0  0  0  0  1  0  0
  -22.9342  -13.8990   22.3884 C   0  0  1  0  0  0  0  0  0  0  0  0
  -22.3247  -10.2297   21.6575 C   0  0  2  0  0  0  0  0  0  0  0  0
  -22.1826  -14.6144   23.5464 C   0  0  0  0  0  0  0  0  0  0  0  0
  -32.5597  -14.9269   21.4908 C   0  0  0  0  0  0  0  0  0  0  0  0
  -28.2848  -26.3811   20.1023 N   0  0  0  0  0  0  0  0  0  0  0  0
  -29.4991  -26.0519   20.5747 N   0  0  0  0  0  0  0  0  0  0  0  0
  -24.2135  -15.0740   20.6259 N   0  0  0  0  0  0  0  0  0  0  0  0
  -29.7076  -22.3889   19.5153 N   0  0  0  0  0  0  0  0  0  0  0  0
  -31.2523  -26.8146   21.9731 N   0  0  0  0  0  0  0  0  0  0  0  0
  -28.1999  -30.1336   22.2249 N   0  0  0  0  0  0  0  0  0  0  0  0
  -28.8559  -21.1856   21.3562 N   0  0  0  0  0  0  0  0  0  0  0  0
  -24.5365  -18.4192   19.2113 N   0  0  0  0  0  0  0  0  0  0  0  0
  -22.3776  -12.5996   22.0277 N   0  0  0  0  0  0  0  0  0  0  0  0
  -23.1957   -9.2462   20.9538 N   0  3  0  0  0  0  0  0  0  0  0  0
  -30.2693  -29.4490   22.9375 O   0  0  0  0  0  0  0  0  0  0  0  0
  -24.6266  -17.4920   21.3454 O   0  0  0  0  0  0  0  0  0  0  0  0
  -21.8828  -15.0247   20.5846 O   0  0  0  0  0  0  0  0  0  0  0  0
  -24.3121  -11.3794   22.4097 O   0  0  0  0  0  0  0  0  0  0  0  0
  -30.1975  -20.1448   19.7755 O   0  0  0  0  0  0  0  0  0  0  0  0
  -23.2748  -30.2827   19.6257 O   0  0  0  0  0  0  0  0  0  0  0  0
  -30.3143  -14.1890   20.8503 O   0  0  0  0  0  0  0  0  0  1  0  0
  -31.2057  -17.7096   23.7466 O   0  0  0  0  0  0  0  0  0  0  0  0
  -20.6259  -32.5441   23.9004 F   0  0  0  0  0  0  0  0  0  0  0  0
  -24.4889  -32.2160   21.1848 F   0  0  0  0  0  0  0  0  0  0  0  0
  1  2  1  0  0  0  0
  1  5  2  0  0  0  0
  2  6  2  0  0  0  0
  3  8  2  0  0  0  0
  3 18  1  0  0  0  0
  4  9  1  0  0  0  0
  4 18  2  0  0  0  0
  5 20  1  0  0  0  0
  6 22  1  0  0  0  0
  7 10  2  0  0  0  0
  7 21  1  0  0  0  0
  8 26  1  0  0  0  0
  9 26  2  0  0  0  0
 10 27  1  0  0  0  0
 11 12  2  0  0  0  0
 11 28  1  0  0  0  0
 12 30  1  0  0  0  0
 13 23  1  0  0  0  0
 13 27  2  0  0  0  0
 14 24  1  0  0  0  0
 14 25  2  0  0  0  0
 15 24  2  0  0  0  0
 15 29  1  0  0  0  0
 16 25  1  0  0  0  0
 16 29  2  0  0  0  0
 17 30  2  0  0  0  0
 17 31  1  0  0  0  0
 18 32  1  0  0  0  0
 19 32  1  0  0  0  0
 19 33  2  0  0  0  0
 19 34  1  0  0  0  0
 20 22  2  0  0  0  0
 20 39  1  0  0  0  0
 21 23  2  0  0  0  0
 21 40  1  0  0  0  0
 22 48  1  0  0  0  0
 23 41  1  0  0  0  0
 24 59  1  0  0  0  0
 25 74  1  0  0  0  0
 26 83  1  0  0  0  0
 27 84  1  0  0  0  0
 28 31  2  0  0  0  0
 28 83  1  0  0  0  0
 29 85  1  0  0  0  0
 30 86  1  0  0  0  0
 31 87  1  0  0  0  0
 32 68  2  0  0  0  0
 33 69  1  0  0  0  0
 33 72  1  0  0  0  0
 34 73  1  0  0  0  0
 34 78  2  0  0  0  0
 35 49  1  0  0  0  0
 35 75  1  0  0  0  0
 35 79  2  0  0  0  0
 36 64  1  0  0  0  0
 36 70  1  0  0  0  0
 36 80  2  0  0  0  0
 37 65  1  0  0  0  0
 37 76  1  0  0  0  0
 37 81  2  0  0  0  0
 38 71  1  0  0  0  0
 38 74  1  0  0  0  0
 38 82  2  0  0  0  0
 39 42  1  0  0  0  0
 40 49  1  0  0  0  0
 41 70  1  0  0  0  0
 42 44  1  0  0  0  0
 43 45  1  0  0  0  0
 43 46  1  0  0  0  0
 44 48  1  0  0  0  0
 45 50  1  0  0  0  0
 46 71  1  0  0  0  0
 47 50  1  0  0  0  0
 47 71  1  0  0  0  0
 48 75  1  0  0  0  0
 49 70  1  0  0  0  0
 50 69  1  0  0  0  0
 51 60  1  0  0  0  0
 52 65  1  0  0  0  0
 53 66  1  0  0  0  0
 54 66  1  0  0  0  0
 55 66  1  0  0  0  0
 56 67  1  0  0  0  0
 57 67  1  0  0  0  0
 58 77  1  0  0  0  0
 59 60  1  0  0  0  0
 61 62  1  0  0  0  0
 61 67  1  0  0  0  0
 62 85  1  0  0  0  0
 63 67  1  0  0  0  0
 63 84  1  0  0  0  0
 64 66  1  0  0  0  0
 64 76  1  0  0  0  0
 65 77  1  0  0  0  0
 68 69  1  0  0  0  0
M  CHG  1  77   1
M  ISO  4  38 100  63 101  74 100  84 101
M  END
> <Batch ID>
0137

> <Smiles>
CCCc1cc([100NH:0][100C:0](=O)N2CCCC(n3nc(-c4ccc(Oc5ccc(F)cc5F)cc4)c(C(N)=O)c3N)C2)cc(OCCC(C)(C)[101CH2:1][101O:1]c2ccc3c(c2)CN(C(=O)C(NC(=O)C(C)NC)C(C)(C)C)C(C(=O)NC2CCCc4ccccc42)C3)c1

> <Shape>
0.225

> <Color>
0.064

> <Negative vol penalty>
0.000

$$$$

  -OEChem-04052302423D

 86 95  0     1  0  0  0  0  0999 V2000
  -28.5643  -37.5543   24.9201 C   0  0  0  0  0  0  0  0  0  0  0  0
  -29.0491  -36.3866   24.3396 C   0  0  0  0  0  0  0  0  0  0  0  0
  -24.3326   -9.0003   21.5001 C   0  0  0  0  0  0  0  0  0  0  0  0
  -24.6547  -10.5503   23.3252 C   0  0  0  0  0  0  0  0  0  0  0  0
  -29.3413  -20.4968   19.2835 C   0  0  0  0  0  0  0  0  0  0  0  0
  -26.9376  -20.5142   19.5264 C   0  0  0  0  0  0  0  0  0  0  0  0
  -27.3870  -37.5237   25.6663 C   0  0  0  0  0  0  0  0  0  0  0  0
  -28.3573  -35.1874   24.5060 C   0  0  0  0  0  0  0  0  0  0  0  0
  -27.8371  -30.6419   20.4349 C   0  0  0  0  0  0  0  0  0  0  0  0
  -29.3103  -19.1180   19.0751 C   0  0  0  0  0  0  0  0  0  0  0  0
  -26.9065  -19.1354   19.3180 C   0  0  0  0  0  0  0  0  0  0  0  0
  -24.0872   -7.9754   22.4138 C   0  0  0  0  0  0  0  0  0  0  0  0
  -24.4092   -9.5254   24.2389 C   0  0  0  0  0  0  0  0  0  0  0  0
  -28.5143  -29.4321   20.2881 C   0  0  0  0  0  0  0  0  0  0  0  0
  -21.5217   -6.9264   24.3505 C   0  0  0  0  0  0  0  0  0  0  0  0
  -20.4382   -6.0835   24.1035 C   0  0  0  0  0  0  0  0  0  0  0  0
  -26.7549  -28.3076   21.4960 C   0  0  0  0  0  0  0  0  0  0  0  0
  -21.9334   -4.1878   24.0137 C   0  0  0  0  0  0  0  0  0  0  0  0
  -24.6164  -10.2878   21.9558 C   0  0  0  0  0  0  0  0  0  0  0  0
  -28.1549  -21.1950   19.5093 C   0  0  0  0  0  0  0  0  0  0  0  0
  -23.9262  -12.2190   20.4386 C   0  0  0  0  0  0  0  0  0  0  0  0
  -26.6753  -36.3254   25.8339 C   0  0  0  0  0  0  0  0  0  0  0  0
  -26.6170  -30.6956   21.1240 C   0  0  0  0  0  0  0  0  0  0  0  0
  -27.1701  -35.1405   25.2563 C   0  0  0  0  0  0  0  0  0  0  0  0
  -26.0629  -29.5189   21.6479 C   0  0  0  0  0  0  0  0  0  0  0  0
  -28.0929  -18.4373   19.0923 C   0  0  0  0  0  0  0  0  0  0  0  0
  -24.1254   -8.2379   23.7832 C   0  0  0  0  0  0  0  0  0  0  0  0
  -27.9746  -28.2652   20.8212 C   0  0  0  0  0  0  0  0  0  0  0  0
  -22.8111   -6.4001   24.4290 C   0  0  0  0  0  0  0  0  0  0  0  0
  -20.6440   -4.7142   23.9351 C   0  0  0  0  0  0  0  0  0  0  0  0
  -23.0169   -5.0308   24.2607 C   0  0  0  0  0  0  0  0  0  0  0  0
  -24.8706  -11.3468   21.0124 C   0  0  0  0  0  0  0  0  0  0  0  0
  -24.6662  -13.0339   19.6171 C   0  0  0  0  0  0  0  0  0  0  0  0
  -28.1876  -22.6519   19.7296 C   0  0  0  0  0  0  0  0  0  0  0  0
  -22.5071  -12.2865   20.6311 C   0  0  0  0  0  0  0  0  0  0  0  0
  -25.5857  -32.1623   23.7486 C   0  0  0  0  0  0  0  0  0  0  0  0
  -22.7197  -30.9542   22.8275 C   0  0  0  0  0  0  0  0  0  0  0  0
  -21.0043  -28.5799   21.0762 C   0  0  0  0  0  0  0  0  0  0  0  0
  -29.1462  -16.1934   18.6428 C   0  0  0  0  0  0  0  0  0  0  0  0
  -25.4327  -36.3325   26.6886 C   0  0  0  0  0  0  0  0  0  0  0  0
  -25.8858  -32.0039   21.2505 C   0  0  0  0  0  0  0  0  0  0  0  0
  -24.7459  -29.5195   22.3787 C   0  0  0  0  0  0  0  0  0  0  0  0
  -24.5594  -35.0941   26.5042 C   0  0  0  0  0  0  0  0  0  0  0  0
  -29.4859  -12.6895   18.1094 C   0  0  0  0  0  0  0  0  0  0  0  0
  -28.1015  -24.2643   16.4885 C   0  0  0  0  0  0  0  0  0  0  0  0
  -25.4124  -33.8298   26.5364 C   0  0  0  0  0  0  0  0  0  0  0  0
  -28.2378  -12.0996   18.7699 C   0  0  0  0  0  0  0  0  0  0  0  0
  -27.5717  -25.3563   17.4121 C   0  0  0  0  0  0  0  0  0  0  0  0
  -27.9453  -22.9897   17.3082 C   0  0  0  0  0  0  0  0  0  0  0  0
  -30.0301  -13.8842   18.8906 C   0  0  0  0  0  0  0  0  0  0  0  0
  -27.8017  -14.3511   19.8318 C   0  0  0  0  0  0  0  0  0  0  0  0
  -26.4348  -33.8249   25.3935 C   0  0  1  0  0  0  0  0  0  0  0  0
  -24.9029  -32.0287   22.4169 C   0  0  1  0  0  0  0  0  0  0  0  0
  -27.1794  -13.1856   19.0457 C   0  0  2  0  0  0  0  0  0  0  0  0
  -28.0614  -24.9408   18.8026 C   0  0  2  0  0  0  0  0  0  0  0  0
  -18.6703  -27.8279   20.5431 C   0  0  0  0  0  0  0  0  0  0  0  0
  -22.4773  -29.7381   25.6154 C   0  0  0  0  0  0  0  0  0  0  0  0
  -20.6603  -28.2574   24.7356 C   0  0  0  0  0  0  0  0  0  0  0  0
  -20.3635  -30.7341   24.7243 C   0  0  0  0  0  0  0  0  0  0  0  0
  -21.3995  -29.0231   18.1768 C   0  0  0  0  0  0  0  0  0  0  0  0
  -29.4569  -25.4558   19.1218 C   0  0  0  0  0  0  0  0  0  0  0  0
  -29.4417  -26.9253   19.5142 C   0  0  0  0  0  0  0  0  0  1  0  0
  -21.9679  -29.6707   23.0852 C   0  0  1  0  0  0  0  0  0  0  0  0
  -19.8446  -28.6880   20.1026 C   0  0  2  0  0  0  0  0  0  0  0  0
  -21.3930  -29.6000   24.5281 C   0  0  0  0  0  0  0  0  0  0  0  0
  -26.1155  -11.5852   20.5910 N   0  0  0  0  0  0  0  0  0  0  0  0
  -25.9584  -12.6164   19.7436 N   0  0  0  0  0  0  0  0  0  0  0  0
  -28.0888  -23.4675   18.6943 N   0  0  0  0  0  0  0  0  0  0  0  0
  -24.0723  -30.8245   22.4818 N   0  0  0  0  0  0  0  0  0  0  0  0
  -28.9729  -14.8736   19.1106 N   0  0  0  0  0  0  0  0  0  0  0  0
  -24.3310  -14.0597   18.8060 N   0  0  0  0  0  0  0  0  0  0  0  0
  -21.9079  -11.3744   21.5105 N   0  0  0  0  0  0  0  0  0  0  0  0
  -28.0613  -17.0366   18.8805 N   0  0  0  0  0  0  0  0  0  0  0  0
  -25.7954  -33.4694   24.1448 N   0  0  0  0  0  0  0  0  0  0  0  0
  -20.9603  -29.5699   22.0350 N   0  0  0  0  0  0  0  0  0  0  0  0
  -28.3141  -23.1228   20.9667 N   0  3  0  0  0  0  0  0  0  0  0  0
  -20.2666  -28.2467   18.7432 N   0  3  0  0  0  0  0  0  0  0  0  0
  -21.7893  -13.1201   20.0282 O   0  0  0  0  0  0  0  0  0  0  0  0
  -25.8979  -31.1541   24.3714 O   0  0  0  0  0  0  0  0  0  0  0  0
  -22.1268  -32.0317   22.9222 O   0  0  0  0  0  0  0  0  0  0  0  0
  -21.8613  -27.7025   20.9965 O   0  0  0  0  0  0  0  0  0  0  0  0
  -30.1698  -16.5423   18.0490 O   0  0  0  0  0  0  0  0  0  0  0  0
  -23.8857   -7.2381   24.6751 O   0  0  0  0  0  0  0  0  0  0  0  0
  -28.6339  -27.0831   20.6799 O   0  0  0  0  0  0  0  0  0  1  0  0
  -19.6032   -3.9046   23.6994 F   0  0  0  0  0  0  0  0  0  0  0  0
  -24.2532   -4.5192   24.3362 F   0  0  0  0  0  0  0  0  0  0  0  0
  1  2  1  0  0  0  0
  1  7  2  0  0  0  0
  2  8  2  0  0  0  0
  3 12  2  0  0  0  0
  3 19  1  0  0  0  0
  4 13  1  0  0  0  0
  4 19  2  0  0  0  0
  5 10  2  0  0  0  0
  5 20  1  0  0  0  0
  6 11  1  0  0  0  0
  6 20  2  0  0  0  0
  7 22  1  0  0  0  0
  8 24  1  0  0  0  0
  9 14  2  0  0  0  0
  9 23  1  0  0  0  0
 10 26  1  0  0  0  0
 11 26  2  0  0  0  0
 12 27  1  0  0  0  0
 13 27  2  0  0  0  0
 14 28  1  0  0  0  0
 15 16  2  0  0  0  0
 15 29  1  0  0  0  0
 16 30  1  0  0  0  0
 17 25  1  0  0  0  0
 17 28  2  0  0  0  0
 18 30  2  0  0  0  0
 18 31  1  0  0  0  0
 19 32  1  0  0  0  0
 20 34  1  0  0  0  0
 21 32  1  0  0  0  0
 21 33  2  0  0  0  0
 21 35  1  0  0  0  0
 22 24  2  0  0  0  0
 22 40  1  0  0  0  0
 23 25  2  0  0  0  0
 23 41  1  0  0  0  0
 24 52  1  0  0  0  0
 25 42  1  0  0  0  0
 26 73  1  0  0  0  0
 27 83  1  0  0  0  0
 28 84  1  0  0  0  0
 29 31  2  0  0  0  0
 29 83  1  0  0  0  0
 30 85  1  0  0  0  0
 31 86  1  0  0  0  0
 32 66  2  0  0  0  0
 33 67  1  0  0  0  0
 33 71  1  0  0  0  0
 34 68  1  0  0  0  0
 34 76  2  0  0  0  0
 35 72  1  0  0  0  0
 35 78  2  0  0  0  0
 36 53  1  0  0  0  0
 36 74  1  0  0  0  0
 36 79  2  0  0  0  0
 37 63  1  0  0  0  0
 37 69  1  0  0  0  0
 37 80  2  0  0  0  0
 38 64  1  0  0  0  0
 38 75  1  0  0  0  0
 38 81  2  0  0  0  0
 39 70  1  0  0  0  0
 39 73  1  0  0  0  0
 39 82  2  0  0  0  0
 40 43  1  0  0  0  0
 41 53  1  0  0  0  0
 42 69  1  0  0  0  0
 43 46  1  0  0  0  0
 44 47  1  0  0  0  0
 44 50  1  0  0  0  0
 45 48  1  0  0  0  0
 45 49  1  0  0  0  0
 46 52  1  0  0  0  0
 47 54  1  0  0  0  0
 48 55  1  0  0  0  0
 49 68  1  0  0  0  0
 50 70  1  0  0  0  0
 51 54  1  0  0  0  0
 51 70  1  0  0  0  0
 52 74  1  0  0  0  0
 53 69  1  0  0  0  0
 54 67  1  0  0  0  0
 55 61  1  0  0  0  0
 55 68  1  0  0  0  0
 56 64  1  0  0  0  0
 57 65  1  0  0  0  0
 58 65  1  0  0  0  0
 59 65  1  0  0  0  0
 60 77  1  0  0  0  0
 61 62  1  0  0  0  0
 62 84  1  0  0  0  0
 63 65  1  0  0  0  0
 63 75  1  0  0  0  0
 64 77  1  0  0  0  0
 66 67  1  0  0  0  0
M  CHG  2  76   1  77   1
M  ISO  4  39 100  62 101  73 100  84 101
M  END
> <Batch ID>
0137

> <Smiles>
CNC(C)C(=O)NC(C(=O)N1Cc2cc([101O:1][101CH2:1]CC3CCCN3C(=N)c3ccc([100NH:0][100C:0](=O)N4CCCC(n5nc(-c6ccc(Oc7ccc(F)cc7F)cc6)c(C(N)=O)c5N)C4)cc3)ccc2CC1C(=O)NC1CCCc2ccccc21)C(C)(C)C

> <Shape>
0.340

> <Color>
0.098

> <Negative vol penalty>
0.000

$$$$

  -OEChem-04052302423D

 87 95  0     1  0  0  0  0  0999 V2000
  -20.4327  -33.9290   19.9917 C   0  0  0  0  0  0  0  0  0  0  0  0
  -21.5583  -33.1536   19.7323 C   0  0  0  0  0  0  0  0  0  0  0  0
  -24.1251   -9.7025   21.6937 C   0  0  0  0  0  0  0  0  0  0  0  0
  -24.7251  -10.9895   23.6484 C   0  0  0  0  0  0  0  0  0  0  0  0
  -19.7379  -33.7683   21.1897 C   0  0  0  0  0  0  0  0  0  0  0  0
  -21.9902  -32.2176   20.6713 C   0  0  0  0  0  0  0  0  0  0  0  0
  -24.5752  -26.7837   19.5327 C   0  0  0  0  0  0  0  0  0  0  0  0
  -23.7431   -8.6389   22.5113 C   0  0  0  0  0  0  0  0  0  0  0  0
  -24.3431   -9.9259   24.4659 C   0  0  0  0  0  0  0  0  0  0  0  0
  -25.9038  -26.3611   19.5206 C   0  0  0  0  0  0  0  0  0  0  0  0
  -21.0890   -7.8012   24.4313 C   0  0  0  0  0  0  0  0  0  0  0  0
  -19.8821   -7.1637   24.1440 C   0  0  0  0  0  0  0  0  0  0  0  0
  -25.6663  -25.5692   21.7868 C   0  0  0  0  0  0  0  0  0  0  0  0
  -30.2113  -19.2381   18.8908 C   0  0  0  0  0  0  0  0  0  0  0  0
  -28.0602  -19.5354   19.9498 C   0  0  0  0  0  0  0  0  0  0  0  0
  -21.0611   -5.0811   23.8126 C   0  0  0  0  0  0  0  0  0  0  0  0
  -24.6162  -10.8778   22.2623 C   0  0  0  0  0  0  0  0  0  0  0  0
  -24.2021  -13.0372   20.9687 C   0  0  0  0  0  0  0  0  0  0  0  0
  -20.1559  -32.8231   22.1397 C   0  0  0  0  0  0  0  0  0  0  0  0
  -23.7841  -26.6118   20.6777 C   0  0  0  0  0  0  0  0  0  0  0  0
  -21.3010  -32.0450   21.8837 C   0  0  0  0  0  0  0  0  0  0  0  0
  -24.3273  -25.9881   21.8100 C   0  0  0  0  0  0  0  0  0  0  0  0
  -30.2997  -20.6146   18.6838 C   0  0  0  0  0  0  0  0  0  0  0  0
  -29.0915  -18.6985   19.5237 C   0  0  0  0  0  0  0  0  0  0  0  0
  -23.8521   -8.7506   23.8974 C   0  0  0  0  0  0  0  0  0  0  0  0
  -26.4504  -25.7564   20.6487 C   0  0  0  0  0  0  0  0  0  0  0  0
  -22.2820   -7.0788   24.4092 C   0  0  0  0  0  0  0  0  0  0  0  0
  -28.1486  -20.9120   19.7428 C   0  0  0  0  0  0  0  0  0  0  0  0
  -29.2684  -21.4516   19.1098 C   0  0  0  0  0  0  0  0  0  0  0  0
  -19.8682   -5.8037   23.8347 C   0  0  0  0  0  0  0  0  0  0  0  0
  -22.2681   -5.7187   24.0999 C   0  0  0  0  0  0  0  0  0  0  0  0
  -25.0114  -11.9767   21.4182 C   0  0  0  0  0  0  0  0  0  0  0  0
  -25.0416  -13.8093   20.2035 C   0  0  0  0  0  0  0  0  0  0  0  0
  -22.8154  -13.3008   21.2202 C   0  0  0  0  0  0  0  0  0  0  0  0
  -22.2738  -28.5693   22.6754 C   0  0  0  0  0  0  0  0  0  0  0  0
  -21.1440  -25.7957   23.9214 C   0  0  0  0  0  0  0  0  0  0  0  0
  -21.5614  -22.4382   24.3684 C   0  0  0  0  0  0  0  0  0  0  0  0
  -29.9368  -16.3300   19.3749 C   0  0  0  0  0  0  0  0  0  0  0  0
  -19.4002  -32.7183   23.4407 C   0  0  0  0  0  0  0  0  0  0  0  0
  -22.3449  -27.0489   20.6656 C   0  0  0  0  0  0  0  0  0  0  0  0
  -23.5142  -25.7619   23.0575 C   0  0  0  0  0  0  0  0  0  0  0  0
  -19.7043  -31.4419   24.2207 C   0  0  0  0  0  0  0  0  0  0  0  0
  -29.7142  -12.8888   18.4885 C   0  0  0  0  0  0  0  0  0  0  0  0
  -21.2086  -31.1945   24.2741 C   0  0  0  0  0  0  0  0  0  0  0  0
  -28.4043  -12.4320   19.1347 C   0  0  0  0  0  0  0  0  0  0  0  0
  -30.4551  -13.8997   19.3619 C   0  0  0  0  0  0  0  0  0  0  0  0
  -28.3482  -14.6027   20.4277 C   0  0  0  0  0  0  0  0  0  0  0  0
  -21.7862  -31.0017   22.8668 C   0  0  1  0  0  0  0  0  0  0  0  0
  -21.7815  -27.2886   22.0629 C   0  0  1  0  0  0  0  0  0  0  0  0
  -27.5345  -13.6329   19.5553 C   0  0  2  0  0  0  0  0  0  0  0  0
  -31.2318  -21.5401   16.5481 C   0  0  0  0  0  0  0  0  0  0  0  0
  -20.4925  -20.4486   25.4623 C   0  0  0  0  0  0  0  0  0  0  0  0
  -22.1491  -26.7528   26.6387 C   0  0  0  0  0  0  0  0  0  0  0  0
  -21.9284  -24.4017   27.4706 C   0  0  0  0  0  0  0  0  0  0  0  0
  -19.9097  -25.6405   26.6874 C   0  0  0  0  0  0  0  0  0  0  0  0
  -30.7182  -25.3219   18.2841 C   0  0  0  0  0  0  0  0  0  0  0  0
  -30.6454  -25.8465   20.7297 C   0  0  0  0  0  0  0  0  0  0  0  0
  -21.2152  -21.0530   21.7760 C   0  0  0  0  0  0  0  0  0  0  0  0
  -26.0790  -21.9692   19.2381 C   0  0  0  0  0  0  0  0  0  0  0  0
  -31.5058  -21.1739   18.0037 C   0  0  0  0  0  0  0  0  0  0  0  0
  -28.4897  -25.5614   19.4408 C   0  0  0  0  0  0  0  0  0  1  0  0
  -29.9619  -23.5700   19.9389 C   0  0  0  0  0  0  0  0  0  0  0  0
  -21.6065  -24.8385   24.9933 C   0  0  1  0  0  0  0  0  0  0  0  0
  -20.6066  -21.2717   24.1886 C   0  0  2  0  0  0  0  0  0  0  0  0
  -21.4146  -25.4142   26.4248 C   0  0  0  0  0  0  0  0  0  0  0  0
  -29.9477  -25.0746   19.5951 C   0  0  0  0  0  0  0  0  0  0  0  0
  -26.2685  -12.0639   20.9755 N   0  0  0  0  0  0  0  0  0  0  0  0
  -26.2554  -13.1884   20.2397 N   0  0  0  0  0  0  0  0  0  0  0  0
  -22.1138  -26.2124   22.9986 N   0  0  0  0  0  0  0  0  0  0  0  0
  -29.5703  -15.0112   19.7175 N   0  0  0  0  0  0  0  0  0  0  0  0
  -24.8526  -14.9520   19.5101 N   0  0  0  0  0  0  0  0  0  0  0  0
  -22.1010  -12.4056   22.0280 N   0  0  0  0  0  0  0  0  0  0  0  0
  -29.0021  -17.3002   19.7349 N   0  0  0  0  0  0  0  0  0  0  0  0
  -21.4943  -29.6710   22.3785 N   0  0  0  0  0  0  0  0  0  0  0  0
  -20.8998  -23.5849   24.7538 N   0  0  0  0  0  0  0  0  0  0  0  0
  -21.0799  -20.3791   23.0930 N   0  3  0  0  0  0  0  0  0  0  0  0
  -22.2231  -14.2917   20.7294 O   0  0  0  0  0  0  0  0  0  0  0  0
  -23.2851  -28.5585   23.3673 O   0  0  0  0  0  0  0  0  0  0  0  0
  -19.9640  -26.1545   23.8993 O   0  0  0  0  0  0  0  0  0  0  0  0
  -22.7733  -22.3408   24.1888 O   0  0  0  0  0  0  0  0  0  0  0  0
  -30.9889  -16.5773   18.7800 O   0  0  0  0  0  0  0  0  0  0  0  0
  -23.4793   -7.7130   24.6954 O   0  0  0  0  0  0  0  0  0  0  0  0
  -27.1343  -21.7182   20.1640 O   0  0  0  0  0  0  0  0  0  0  0  0
  -27.7471  -25.3436   20.6397 O   0  0  0  0  0  0  0  0  0  1  0  0
  -29.3508  -22.8045   18.9082 O   0  0  0  0  0  0  0  0  0  0  0  0
  -18.7089   -5.1912   23.5603 F   0  0  0  0  0  0  0  0  0  0  0  0
  -23.4108   -5.0191   24.0782 F   0  0  0  0  0  0  0  0  0  0  0  0
  1  2  1  0  0  0  0
  1  5  2  0  0  0  0
  2  6  2  0  0  0  0
  3  8  2  0  0  0  0
  3 17  1  0  0  0  0
  4  9  1  0  0  0  0
  4 17  2  0  0  0  0
  5 19  1  0  0  0  0
  6 21  1  0  0  0  0
  7 10  2  0  0  0  0
  7 20  1  0  0  0  0
  8 25  1  0  0  0  0
  9 25  2  0  0  0  0
 10 26  1  0  0  0  0
 11 12  2  0  0  0  0
 11 27  1  0  0  0  0
 12 30  1  0  0  0  0
 13 22  1  0  0  0  0
 13 26  2  0  0  0  0
 14 23  1  0  0  0  0
 14 24  2  0  0  0  0
 15 24  1  0  0  0  0
 15 28  2  0  0  0  0
 16 30  2  0  0  0  0
 16 31  1  0  0  0  0
 17 32  1  0  0  0  0
 18 32  1  0  0  0  0
 18 33  2  0  0  0  0
 18 34  1  0  0  0  0
 19 21  2  0  0  0  0
 19 39  1  0  0  0  0
 20 22  2  0  0  0  0
 20 40  1  0  0  0  0
 21 48  1  0  0  0  0
 22 41  1  0  0  0  0
 23 29  2  0  0  0  0
 23 60  1  0  0  0  0
 24 73  1  0  0  0  0
 25 82  1  0  0  0  0
 26 84  1  0  0  0  0
 27 31  2  0  0  0  0
 27 82  1  0  0  0  0
 28 29  1  0  0  0  0
 28 83  1  0  0  0  0
 29 85  1  0  0  0  0
 30 86  1  0  0  0  0
 31 87  1  0  0  0  0
 32 67  2  0  0  0  0
 33 68  1  0  0  0  0
 33 71  1  0  0  0  0
 34 72  1  0  0  0  0
 34 77  2  0  0  0  0
 35 49  1  0  0  0  0
 35 74  1  0  0  0  0
 35 78  2  0  0  0  0
 36 63  1  0  0  0  0
 36 69  1  0  0  0  0
 36 79  2  0  0  0  0
 37 64  1  0  0  0  0
 37 75  1  0  0  0  0
 37 80  2  0  0  0  0
 38 70  1  0  0  0  0
 38 73  1  0  0  0  0
 38 81  2  0  0  0  0
 39 42  1  0  0  0  0
 40 49  1  0  0  0  0
 41 69  1  0  0  0  0
 42 44  1  0  0  0  0
 43 45  1  0  0  0  0
 43 46  1  0  0  0  0
 44 48  1  0  0  0  0
 45 50  1  0  0  0  0
 46 70  1  0  0  0  0
 47 50  1  0  0  0  0
 47 70  1  0  0  0  0
 48 74  1  0  0  0  0
 49 69  1  0  0  0  0
 50 68  1  0  0  0  0
 51 60  1  0  0  0  0
 52 64  1  0  0  0  0
 53 65  1  0  0  0  0
 54 65  1  0  0  0  0
 55 65  1  0  0  0  0
 56 66  1  0  0  0  0
 57 66  1  0  0  0  0
 58 76  1  0  0  0  0
 59 83  1  0  0  0  0
 61 66  1  0  0  0  0
 61 84  1  0  0  0  0
 62 66  1  0  0  0  0
 62 85  1  0  0  0  0
 63 65  1  0  0  0  0
 63 75  1  0  0  0  0
 64 76  1  0  0  0  0
 67 68  1  0  0  0  0
M  CHG  1  76   1
M  ISO  4  38 100  61 101  73 100  84 101
M  END
> <Batch ID>
0137

> <Smiles>
CCc1cc([100NH:0][100C:0](=O)N2CCCC(n3nc(-c4ccc(Oc5ccc(F)cc5F)cc4)c(C(N)=O)c3N)C2)cc(OC)c1OCC(C)(C)[101CH2:1][101O:1]c1ccc2c(c1)CN(C(=O)C(NC(=O)C(C)NC)C(C)(C)C)C(C(=O)NC1CCCc3ccccc31)C2

> <Shape>
0.253

> <Color>
0.143

> <Negative vol penalty>
0.000

$$$$
