
  -OEChem-04052302453D

 86 94  0     1  0  0  0  0  0999 V2000
  -28.6681  -26.2312   27.5437 C   0  0  0  0  0  0  0  0  0  0  0  0
  -29.7268  -25.3972   27.1987 C   0  0  0  0  0  0  0  0  0  0  0  0
  -23.0664   -9.8680   19.9442 C   0  0  0  0  0  0  0  0  0  0  0  0
  -23.8248   -9.8749   22.2381 C   0  0  0  0  0  0  0  0  0  0  0  0
  -27.4951  -26.2149   26.7902 C   0  0  0  0  0  0  0  0  0  0  0  0
  -29.6127  -24.5456   26.1004 C   0  0  0  0  0  0  0  0  0  0  0  0
  -34.0696  -22.9087   22.2324 C   0  0  0  0  0  0  0  0  0  0  0  0
  -22.3164   -8.7192   20.1956 C   0  0  0  0  0  0  0  0  0  0  0  0
  -23.0747   -8.7261   22.4895 C   0  0  0  0  0  0  0  0  0  0  0  0
  -34.8757  -21.7737   22.1564 C   0  0  0  0  0  0  0  0  0  0  0  0
  -19.8420   -7.9462   23.0912 C   0  0  0  0  0  0  0  0  0  0  0  0
  -19.0841   -7.9122   24.2616 C   0  0  0  0  0  0  0  0  0  0  0  0
  -33.3666  -20.8178   20.5353 C   0  0  0  0  0  0  0  0  0  0  0  0
  -31.9242  -18.2999   24.1903 C   0  0  0  0  0  0  0  0  0  0  0  0
  -32.0887  -16.5505   22.5321 C   0  0  0  0  0  0  0  0  0  0  0  0
  -20.3148   -5.9695   25.0022 C   0  0  0  0  0  0  0  0  0  0  0  0
  -23.8207  -10.4459   20.9655 C   0  0  0  0  0  0  0  0  0  0  0  0
  -24.1758  -12.9690   20.8414 C   0  0  0  0  0  0  0  0  0  0  0  0
  -27.3702  -25.3697   25.6764 C   0  0  0  0  0  0  0  0  0  0  0  0
  -32.8982  -23.0023   21.4672 C   0  0  0  0  0  0  0  0  0  0  0  0
  -28.4364  -24.5171   25.3320 C   0  0  0  0  0  0  0  0  0  0  0  0
  -32.5488  -21.9561   20.6014 C   0  0  0  0  0  0  0  0  0  0  0  0
  -30.5367  -18.3054   24.0469 C   0  0  0  0  0  0  0  0  0  0  0  0
  -29.9252  -17.4334   23.1461 C   0  0  0  0  0  0  0  0  0  0  0  0
  -30.7012  -16.5559   22.3888 C   0  0  0  0  0  0  0  0  0  0  0  0
  -22.3205   -8.1483   21.4683 C   0  0  0  0  0  0  0  0  0  0  0  0
  -34.5228  -20.7268   21.3100 C   0  0  0  0  0  0  0  0  0  0  0  0
  -20.8363   -6.9918   22.8762 C   0  0  0  0  0  0  0  0  0  0  0  0
  -32.7002  -17.4225   23.4329 C   0  0  0  0  0  0  0  0  0  0  0  0
  -19.3205   -6.9239   25.2172 C   0  0  0  0  0  0  0  0  0  0  0  0
  -21.0727   -6.0035   23.8317 C   0  0  0  0  0  0  0  0  0  0  0  0
  -24.5962  -11.6323   20.7062 C   0  0  0  0  0  0  0  0  0  0  0  0
  -25.2721  -13.7121   20.4776 C   0  0  0  0  0  0  0  0  0  0  0  0
  -22.9078  -13.4922   21.2586 C   0  0  0  0  0  0  0  0  0  0  0  0
  -29.8017  -23.2768   22.1304 C   0  0  0  0  0  0  0  0  0  0  0  0
  -29.5410  -23.6100   18.9143 C   0  0  0  0  0  0  0  0  0  0  0  0
  -30.8649  -23.0232   15.8240 C   0  0  0  0  0  0  0  0  0  0  0  0
  -30.7436  -14.7294   20.6543 C   0  0  0  0  0  0  0  0  0  0  0  0
  -26.0651  -25.3529   24.9206 C   0  0  0  0  0  0  0  0  0  0  0  0
  -32.0536  -24.2447   21.5405 C   0  0  0  0  0  0  0  0  0  0  0  0
  -31.3121  -22.0161   19.7438 C   0  0  0  0  0  0  0  0  0  0  0  0
  -26.1647  -24.6926   23.5479 C   0  0  0  0  0  0  0  0  0  0  0  0
  -29.6182  -12.3175   18.2893 C   0  0  0  0  0  0  0  0  0  0  0  0
  -26.9239  -23.3731   23.6440 C   0  0  0  0  0  0  0  0  0  0  0  0
  -28.1767  -12.0342   18.7184 C   0  0  0  0  0  0  0  0  0  0  0  0
  -30.5336  -12.5435   19.4912 C   0  0  0  0  0  0  0  0  0  0  0  0
  -28.6296  -13.2803   20.8699 C   0  0  0  0  0  0  0  0  0  0  0  0
  -28.3600  -23.5972   24.1328 C   0  0  1  0  0  0  0  0  0  0  0  0
  -30.6112  -24.0134   21.1009 C   0  0  1  0  0  0  0  0  0  0  0  0
  -27.6566  -13.1101   19.6917 C   0  0  2  0  0  0  0  0  0  0  0  0
  -29.5769  -18.7831   26.3134 C   0  0  0  0  0  0  0  0  0  0  0  0
  -27.9877  -18.1644   21.7326 C   0  0  0  0  0  0  0  0  0  0  0  0
  -30.4047  -23.3818   13.3833 C   0  0  0  0  0  0  0  0  0  0  0  0
  -36.9747  -17.3202   23.7315 C   0  0  0  0  0  0  0  0  0  0  0  0
  -27.4859  -21.3554   18.9730 C   0  0  0  0  0  0  0  0  0  0  0  0
  -27.7768  -21.1197   16.4975 C   0  0  0  0  0  0  0  0  0  0  0  0
  -26.9079  -23.2545   17.4518 C   0  0  0  0  0  0  0  0  0  0  0  0
  -33.3149  -24.6478   15.4819 C   0  0  0  0  0  0  0  0  0  0  0  0
  -29.7292  -19.2546   24.8705 C   0  0  0  0  0  0  0  0  0  0  0  0
  -28.4360  -17.4417   22.9979 C   0  0  0  0  0  0  0  0  0  0  0  0
  -36.0381  -19.2578   22.4062 C   0  0  0  0  0  0  0  0  0  1  0  0
  -34.8247  -17.0578   22.4284 C   0  0  0  0  0  0  0  0  0  0  0  0
  -29.3477  -22.6642   17.7537 C   0  0  1  0  0  0  0  0  0  0  0  0
  -31.0777  -23.9356   14.6295 C   0  0  2  0  0  0  0  0  0  0  0  0
  -36.1967  -17.7364   22.4773 C   0  0  2  0  0  0  0  0  0  0  0  0
  -27.9019  -22.0962   17.6865 C   0  0  0  0  0  0  0  0  0  0  0  0
  -25.8608  -11.5291   20.2890 N   0  0  0  0  0  0  0  0  0  0  0  0
  -26.2445  -12.8105   20.1587 N   0  0  0  0  0  0  0  0  0  0  0  0
  -30.5155  -23.2491   19.8556 N   0  0  0  0  0  0  0  0  0  0  0  0
  -29.9795  -13.5787   20.3665 N   0  0  0  0  0  0  0  0  0  0  0  0
  -25.4895  -15.0424   20.4025 N   0  0  0  0  0  0  0  0  0  0  0  0
  -21.8909  -12.5889   21.5967 N   0  0  0  0  0  0  0  0  0  0  0  0
  -30.1005  -15.6592   21.4707 N   0  0  0  0  0  0  0  0  0  0  0  0
  -29.1878  -24.0982   23.0566 N   0  0  0  0  0  0  0  0  0  0  0  0
  -29.7590  -23.3941   16.5593 N   0  0  0  0  0  0  0  0  0  0  0  0
  -32.5331  -24.0900   14.3485 N   0  3  0  0  0  0  0  0  0  0  0  0
  -22.6779  -14.7241   21.3137 O   0  0  0  0  0  0  0  0  0  0  0  0
  -29.7376  -22.0538   22.0867 O   0  0  0  0  0  0  0  0  0  0  0  0
  -28.8577  -24.6349   18.9794 O   0  0  0  0  0  0  0  0  0  0  0  0
  -31.6035  -22.0741   16.0771 O   0  0  0  0  0  0  0  0  0  0  0  0
  -31.8739  -14.8914   20.1871 O   0  0  0  0  0  0  0  0  0  0  0  0
  -21.5885   -7.0274   21.7140 O   0  0  0  0  0  0  0  0  0  0  0  0
  -35.3074  -19.6175   21.2344 O   0  0  0  0  0  0  0  0  0  1  0  0
  -34.0634  -17.4184   23.5734 O   0  0  0  0  0  0  0  0  0  0  0  0
  -18.5936   -6.8923   26.3418 F   0  0  0  0  0  0  0  0  0  0  0  0
  -22.0274   -5.0847   23.6313 F   0  0  0  0  0  0  0  0  0  0  0  0
  1  2  1  0  0  0  0
  1  5  2  0  0  0  0
  2  6  2  0  0  0  0
  3  8  2  0  0  0  0
  3 17  1  0  0  0  0
  4  9  1  0  0  0  0
  4 17  2  0  0  0  0
  5 19  1  0  0  0  0
  6 21  1  0  0  0  0
  7 10  2  0  0  0  0
  7 20  1  0  0  0  0
  8 26  1  0  0  0  0
  9 26  2  0  0  0  0
 10 27  1  0  0  0  0
 11 12  2  0  0  0  0
 11 28  1  0  0  0  0
 12 30  1  0  0  0  0
 13 22  1  0  0  0  0
 13 27  2  0  0  0  0
 14 23  1  0  0  0  0
 14 29  2  0  0  0  0
 15 25  2  0  0  0  0
 15 29  1  0  0  0  0
 16 30  2  0  0  0  0
 16 31  1  0  0  0  0
 17 32  1  0  0  0  0
 18 32  1  0  0  0  0
 18 33  2  0  0  0  0
 18 34  1  0  0  0  0
 19 21  2  0  0  0  0
 19 39  1  0  0  0  0
 20 22  2  0  0  0  0
 20 40  1  0  0  0  0
 21 48  1  0  0  0  0
 22 41  1  0  0  0  0
 23 24  2  0  0  0  0
 23 59  1  0  0  0  0
 24 25  1  0  0  0  0
 24 60  1  0  0  0  0
 25 73  1  0  0  0  0
 26 82  1  0  0  0  0
 27 83  1  0  0  0  0
 28 31  2  0  0  0  0
 28 82  1  0  0  0  0
 29 84  1  0  0  0  0
 30 85  1  0  0  0  0
 31 86  1  0  0  0  0
 32 67  2  0  0  0  0
 33 68  1  0  0  0  0
 33 71  1  0  0  0  0
 34 72  1  0  0  0  0
 34 77  2  0  0  0  0
 35 49  1  0  0  0  0
 35 74  1  0  0  0  0
 35 78  2  0  0  0  0
 36 63  1  0  0  0  0
 36 69  1  0  0  0  0
 36 79  2  0  0  0  0
 37 64  1  0  0  0  0
 37 75  1  0  0  0  0
 37 80  2  0  0  0  0
 38 70  1  0  0  0  0
 38 73  1  0  0  0  0
 38 81  2  0  0  0  0
 39 42  1  0  0  0  0
 40 49  1  0  0  0  0
 41 69  1  0  0  0  0
 42 44  1  0  0  0  0
 43 45  1  0  0  0  0
 43 46  1  0  0  0  0
 44 48  1  0  0  0  0
 45 50  1  0  0  0  0
 46 70  1  0  0  0  0
 47 50  1  0  0  0  0
 47 70  1  0  0  0  0
 48 74  1  0  0  0  0
 49 69  1  0  0  0  0
 50 68  1  0  0  0  0
 51 59  1  0  0  0  0
 52 60  1  0  0  0  0
 53 64  1  0  0  0  0
 54 65  1  0  0  0  0
 55 66  1  0  0  0  0
 56 66  1  0  0  0  0
 57 66  1  0  0  0  0
 58 76  1  0  0  0  0
 61 65  1  0  0  0  0
 61 83  1  0  0  0  0
 62 65  1  0  0  0  0
 62 84  1  0  0  0  0
 63 66  1  0  0  0  0
 63 75  1  0  0  0  0
 64 76  1  0  0  0  0
 67 68  1  0  0  0  0
M  CHG  1  76   1
M  ISO  4  38 100  61 101  73 100  83 101
M  END
> <Batch ID>
0138

> <Smiles>
CCc1cc(OCC(C)[101CH2:1][101O:1]c2ccc3c(c2)CN(C(=O)C(NC(=O)C(C)NC)C(C)(C)C)C(C(=O)NC2CCCc4ccccc42)C3)cc([100NH:0][100C:0](=O)N2CCCC(n3nc(-c4ccc(Oc5ccc(F)cc5F)cc4)c(C(N)=O)c3N)C2)c1CC

> <Shape>
0.215

> <Color>
0.186

> <Negative vol penalty>
0.000

$$$$

  -OEChem-04052302453D

 86 95  0     1  0  0  0  0  0999 V2000
  -16.4091  -28.9249   23.7089 C   0  0  0  0  0  0  0  0  0  0  0  0
  -16.9042  -28.9556   22.4091 C   0  0  0  0  0  0  0  0  0  0  0  0
  -26.3456  -13.7256   21.2955 C   0  0  0  0  0  0  0  0  0  0  0  0
  -26.1709  -15.5396   19.7094 C   0  0  0  0  0  0  0  0  0  0  0  0
  -32.0165  -23.3185   17.1866 C   0  0  0  0  0  0  0  0  0  0  0  0
  -17.1256  -29.5294   24.7409 C   0  0  0  0  0  0  0  0  0  0  0  0
  -18.1156  -29.5918   22.1405 C   0  0  0  0  0  0  0  0  0  0  0  0
  -23.6165  -25.9983   19.1878 C   0  0  0  0  0  0  0  0  0  0  0  0
  -32.1447  -22.2930   18.1232 C   0  0  0  0  0  0  0  0  0  0  0  0
  -24.9548  -13.6279   21.3371 C   0  0  0  0  0  0  0  0  0  0  0  0
  -24.7800  -15.4419   19.7509 C   0  0  0  0  0  0  0  0  0  0  0  0
  -24.6436  -25.4332   18.4315 C   0  0  0  0  0  0  0  0  0  0  0  0
  -22.4916  -12.3173   19.4271 C   0  0  0  0  0  0  0  0  0  0  0  0
  -21.9290  -11.0427   19.3594 C   0  0  0  0  0  0  0  0  0  0  0  0
  -25.9359  -27.4656   18.6484 C   0  0  0  0  0  0  0  0  0  0  0  0
  -31.2625  -20.7170   16.5185 C   0  0  0  0  0  0  0  0  0  0  0  0
  -20.8953  -11.3845   21.5163 C   0  0  0  0  0  0  0  0  0  0  0  0
  -26.9536  -14.6814   20.4817 C   0  0  0  0  0  0  0  0  0  0  0  0
  -31.5113  -23.0434   15.9158 C   0  0  0  0  0  0  0  0  0  0  0  0
  -29.3020  -13.7837   20.0496 C   0  0  0  0  0  0  0  0  0  0  0  0
  -18.3512  -30.1649   24.4864 C   0  0  0  0  0  0  0  0  0  0  0  0
  -23.7519  -27.2952   19.6909 C   0  0  0  0  0  0  0  0  0  0  0  0
  -18.8485  -30.2065   23.1699 C   0  0  0  0  0  0  0  0  0  0  0  0
  -24.9157  -28.0323   19.4171 C   0  0  0  0  0  0  0  0  0  0  0  0
  -31.1343  -21.7426   15.5818 C   0  0  0  0  0  0  0  0  0  0  0  0
  -31.7677  -20.9922   17.7892 C   0  0  0  0  0  0  0  0  0  0  0  0
  -24.1720  -14.4860   20.5647 C   0  0  0  0  0  0  0  0  0  0  0  0
  -25.8003  -26.1652   18.1623 C   0  0  0  0  0  0  0  0  0  0  0  0
  -22.2562  -13.1254   20.5395 C   0  0  0  0  0  0  0  0  0  0  0  0
  -21.1308  -10.5763   20.4040 C   0  0  0  0  0  0  0  0  0  0  0  0
  -21.4580  -12.6590   21.5840 C   0  0  0  0  0  0  0  0  0  0  0  0
  -28.3903  -14.7832   20.4388 C   0  0  0  0  0  0  0  0  0  0  0  0
  -30.5354  -14.3731   20.1834 C   0  0  0  0  0  0  0  0  0  0  0  0
  -28.1257  -25.7574   15.4578 C   0  0  0  0  0  0  0  0  0  0  0  0
  -27.1587  -26.2173   16.2584 C   0  0  0  0  0  0  0  0  0  1  0  0
  -31.3864  -24.1439   14.9483 C   0  0  0  0  0  0  0  0  0  0  0  0
  -29.0561  -12.4425   19.6066 C   0  0  0  0  0  0  0  0  0  0  0  0
  -22.2357  -30.0780   21.6990 C   0  0  0  0  0  0  0  0  0  0  0  0
  -25.2147  -29.9765   22.4243 C   0  0  0  0  0  0  0  0  0  0  0  0
  -28.2501  -30.1555   23.9706 C   0  0  0  0  0  0  0  0  0  0  0  0
  -32.3812  -20.0546   20.0455 C   0  0  0  0  0  0  0  0  0  0  0  0
  -19.0666  -30.8454   25.6265 C   0  0  0  0  0  0  0  0  0  0  0  0
  -22.6454  -27.9663   20.4583 C   0  0  0  0  0  0  0  0  0  0  0  0
  -25.0031  -29.4365   19.9495 C   0  0  0  0  0  0  0  0  0  0  0  0
  -28.5535  -26.3914   14.1688 C   0  0  0  0  0  0  0  0  0  0  0  0
  -29.0230  -24.6017   15.7747 C   0  0  0  0  0  0  0  0  0  0  0  0
  -20.5257  -31.1736   25.3208 C   0  0  0  0  0  0  0  0  0  0  0  0
  -32.8245  -17.7357   22.7107 C   0  0  0  0  0  0  0  0  0  0  0  0
  -20.6506  -31.8185   23.9441 C   0  0  0  0  0  0  0  0  0  0  0  0
  -31.8250  -16.6215   22.3919 C   0  0  0  0  0  0  0  0  0  0  0  0
  -30.0302  -26.0414   14.1139 C   0  0  0  0  0  0  0  0  0  0  0  0
  -32.2751  -19.1129   22.3427 C   0  0  0  0  0  0  0  0  0  0  0  0
  -30.7897  -18.1247   20.6438 C   0  0  0  0  0  0  0  0  0  0  0  0
  -20.1710  -30.8653   22.8428 C   0  0  1  0  0  0  0  0  0  0  0  0
  -23.1609  -28.9044   21.5643 C   0  0  1  0  0  0  0  0  0  0  0  0
  -31.3239  -16.7132   20.9372 C   0  0  2  0  0  0  0  0  0  0  0  0
  -30.5891  -21.4211   14.2285 C   0  0  0  0  0  0  0  0  0  0  0  0
  -29.7493  -31.7582   25.1877 C   0  0  0  0  0  0  0  0  0  0  0  0
  -25.9660  -31.2820   19.7719 C   0  0  0  0  0  0  0  0  0  0  0  0
  -28.0506  -32.1362   20.8641 C   0  0  0  0  0  0  0  0  0  0  0  0
  -25.8169  -32.8599   21.7064 C   0  0  0  0  0  0  0  0  0  0  0  0
  -28.1950  -28.5170   26.4346 C   0  0  0  0  0  0  0  0  0  0  0  0
  -26.6023  -30.4976   22.1480 C   0  0  1  0  0  0  0  0  0  0  0  0
  -28.6601  -30.7057   25.3247 C   0  0  2  0  0  0  0  0  0  0  0  0
  -26.6032  -31.6661   21.1222 C   0  0  0  0  0  0  0  0  0  0  0  0
  -28.9930  -15.9212   20.7935 N   0  0  0  0  0  0  0  0  0  0  0  0
  -30.2967  -15.6404   20.6277 N   0  0  0  0  0  0  0  0  0  0  0  0
  -30.1904  -24.8486   14.9327 N   0  0  0  0  0  0  0  0  0  0  0  0
  -24.4947  -29.4831   21.3294 N   0  0  0  0  0  0  0  0  0  0  0  0
  -31.8236  -19.1258   20.9495 N   0  0  0  0  0  0  0  0  0  0  0  0
  -31.7900  -13.9259   19.9633 N   0  0  0  0  0  0  0  0  0  0  0  0
  -28.8786  -12.2137   18.2353 N   0  0  0  0  0  0  0  0  0  0  0  0
  -31.8983  -19.9511   18.7414 N   0  0  0  0  0  0  0  0  0  0  0  0
  -21.1800  -29.8656   22.5649 N   0  0  0  0  0  0  0  0  0  0  0  0
  -27.1752  -30.8407   23.4451 N   0  0  0  0  0  0  0  0  0  0  0  0
  -29.1722  -29.6101   26.1956 N   0  3  0  0  0  0  0  0  0  0  0  0
  -32.3549  -24.3735   14.2270 O   0  0  0  0  0  0  0  0  0  0  0  0
  -28.9792  -11.4779   20.4049 O   0  0  0  0  0  0  0  0  0  0  0  0
  -22.4627  -31.1022   21.0656 O   0  0  0  0  0  0  0  0  0  0  0  0
  -24.7763  -30.0099   23.5775 O   0  0  0  0  0  0  0  0  0  0  0  0
  -28.8281  -29.2145   23.4313 O   0  0  0  0  0  0  0  0  0  0  0  0
  -33.2448  -20.8630   20.3958 O   0  0  0  0  0  0  0  0  0  0  0  0
  -22.8148  -14.3908   20.6048 O   0  0  0  0  0  0  0  0  0  0  0  0
  -26.8010  -25.6058   17.4271 O   0  0  0  0  0  0  0  0  0  1  0  0
  -20.5893   -9.3530   20.3381 F   0  0  0  0  0  0  0  0  0  0  0  0
  -21.2273  -13.4312   22.6546 F   0  0  0  0  0  0  0  0  0  0  0  0
  1  2  1  0  0  0  0
  1  6  2  0  0  0  0
  2  7  2  0  0  0  0
  3 10  2  0  0  0  0
  3 18  1  0  0  0  0
  4 11  1  0  0  0  0
  4 18  2  0  0  0  0
  5  9  2  0  0  0  0
  5 19  1  0  0  0  0
  6 21  1  0  0  0  0
  7 23  1  0  0  0  0
  8 12  2  0  0  0  0
  8 22  1  0  0  0  0
  9 26  1  0  0  0  0
 10 27  1  0  0  0  0
 11 27  2  0  0  0  0
 12 28  1  0  0  0  0
 13 14  2  0  0  0  0
 13 29  1  0  0  0  0
 14 30  1  0  0  0  0
 15 24  1  0  0  0  0
 15 28  2  0  0  0  0
 16 25  1  0  0  0  0
 16 26  2  0  0  0  0
 17 30  2  0  0  0  0
 17 31  1  0  0  0  0
 18 32  1  0  0  0  0
 19 25  2  0  0  0  0
 19 36  1  0  0  0  0
 20 32  1  0  0  0  0
 20 33  2  0  0  0  0
 20 37  1  0  0  0  0
 21 23  2  0  0  0  0
 21 42  1  0  0  0  0
 22 24  2  0  0  0  0
 22 43  1  0  0  0  0
 23 54  1  0  0  0  0
 24 44  1  0  0  0  0
 25 57  1  0  0  0  0
 26 73  1  0  0  0  0
 27 83  1  0  0  0  0
 28 84  1  0  0  0  0
 29 31  2  0  0  0  0
 29 83  1  0  0  0  0
 30 85  1  0  0  0  0
 31 86  1  0  0  0  0
 32 66  2  0  0  0  0
 33 67  1  0  0  0  0
 33 71  1  0  0  0  0
 34 35  2  0  0  0  0
 34 45  1  0  0  0  0
 34 46  1  0  0  0  0
 35 84  1  0  0  0  0
 36 68  1  0  0  0  0
 36 77  2  0  0  0  0
 37 72  1  0  0  0  0
 37 78  2  0  0  0  0
 38 55  1  0  0  0  0
 38 74  1  0  0  0  0
 38 79  2  0  0  0  0
 39 63  1  0  0  0  0
 39 69  1  0  0  0  0
 39 80  2  0  0  0  0
 40 64  1  0  0  0  0
 40 75  1  0  0  0  0
 40 81  2  0  0  0  0
 41 70  1  0  0  0  0
 41 73  1  0  0  0  0
 41 82  2  0  0  0  0
 42 47  1  0  0  0  0
 43 55  1  0  0  0  0
 44 69  1  0  0  0  0
 45 51  1  0  0  0  0
 46 68  1  0  0  0  0
 47 49  1  0  0  0  0
 48 50  1  0  0  0  0
 48 52  1  0  0  0  0
 49 54  1  0  0  0  0
 50 56  1  0  0  0  0
 51 68  1  0  0  0  0
 52 70  1  0  0  0  0
 53 56  1  0  0  0  0
 53 70  1  0  0  0  0
 54 74  1  0  0  0  0
 55 69  1  0  0  0  0
 56 67  1  0  0  0  0
 58 64  1  0  0  0  0
 59 65  1  0  0  0  0
 60 65  1  0  0  0  0
 61 65  1  0  0  0  0
 62 76  1  0  0  0  0
 63 65  1  0  0  0  0
 63 75  1  0  0  0  0
 64 76  1  0  0  0  0
 66 67  1  0  0  0  0
M  CHG  1  76   1
M  ISO  4  35 101  41 100  73 100  84 101
M  END
> <Batch ID>
0138

> <Smiles>
CNC(C)C(=O)NC(C(=O)N1Cc2cc([101O:1][101CH:1]=C3CCN(C(=O)c4ccc([100NH:0][100C:0](=O)N5CCCC(n6nc(-c7ccc(Oc8ccc(F)cc8F)cc7)c(C(N)=O)c6N)C5)cc4C)C3)ccc2CC1C(=O)NC1CCCc2ccccc21)C(C)(C)C

> <Shape>
0.257

> <Color>
0.059

> <Negative vol penalty>
0.000

$$$$

  -OEChem-04052302453D

 86 96  0     1  0  0  0  0  0999 V2000
  -16.6284  -29.9845   23.4850 C   0  0  0  0  0  0  0  0  0  0  0  0
  -17.7254  -30.7121   23.9351 C   0  0  0  0  0  0  0  0  0  0  0  0
  -26.7646  -15.7019   19.2390 C   0  0  0  0  0  0  0  0  0  0  0  0
  -26.3880  -15.9467   21.6128 C   0  0  0  0  0  0  0  0  0  0  0  0
  -16.8107  -28.7106   22.9487 C   0  0  0  0  0  0  0  0  0  0  0  0
  -19.0055  -30.1657   23.8500 C   0  0  0  0  0  0  0  0  0  0  0  0
  -28.1130  -26.2434   24.7200 C   0  0  0  0  0  0  0  0  0  0  0  0
  -25.8333  -32.0738   22.8225 C   0  0  0  0  0  0  0  0  0  0  0  0
  -28.3540  -25.2257   23.7949 C   0  0  0  0  0  0  0  0  0  0  0  0
  -26.4395  -14.3483   19.3270 C   0  0  0  0  0  0  0  0  0  0  0  0
  -26.0628  -14.5931   21.7008 C   0  0  0  0  0  0  0  0  0  0  0  0
  -27.0924  -31.9242   23.4023 C   0  0  0  0  0  0  0  0  0  0  0  0
  -23.6368  -12.4679   19.5322 C   0  0  0  0  0  0  0  0  0  0  0  0
  -22.7819  -11.9423   18.5635 C   0  0  0  0  0  0  0  0  0  0  0  0
  -30.7326  -25.2712   24.2993 C   0  0  0  0  0  0  0  0  0  0  0  0
  -27.2957  -29.7466   22.3844 C   0  0  0  0  0  0  0  0  0  0  0  0
  -24.5007  -10.3823   17.8932 C   0  0  0  0  0  0  0  0  0  0  0  0
  -26.7389  -16.5011   20.3819 C   0  0  0  0  0  0  0  0  0  0  0  0
  -26.1966  -18.9705   20.0421 C   0  0  0  0  0  0  0  0  0  0  0  0
  -18.0947  -28.1521   22.8480 C   0  0  0  0  0  0  0  0  0  0  0  0
  -25.2905  -31.0546   22.0269 C   0  0  0  0  0  0  0  0  0  0  0  0
  -19.2051  -28.8825   23.3130 C   0  0  0  0  0  0  0  0  0  0  0  0
  -29.1891  -26.7711   25.4160 C   0  0  0  0  0  0  0  0  0  0  0  0
  -30.4864  -26.2879   25.2077 C   0  0  0  0  0  0  0  0  0  0  0  0
  -26.0307  -29.8868   21.7936 C   0  0  0  0  0  0  0  0  0  0  0  0
  -29.6549  -24.7432   23.5856 C   0  0  0  0  0  0  0  0  0  0  0  0
  -26.0886  -13.7939   20.5579 C   0  0  0  0  0  0  0  0  0  0  0  0
  -27.8226  -30.7593   23.1857 C   0  0  0  0  0  0  0  0  0  0  0  0
  -24.9237  -11.9508   19.6814 C   0  0  0  0  0  0  0  0  0  0  0  0
  -23.2138  -10.8994   17.7440 C   0  0  0  0  0  0  0  0  0  0  0  0
  -25.3556  -10.9080   18.8619 C   0  0  0  0  0  0  0  0  0  0  0  0
  -27.0751  -17.8993   20.2917 C   0  0  0  0  0  0  0  0  0  0  0  0
  -27.0004  -20.0841   20.0556 C   0  0  0  0  0  0  0  0  0  0  0  0
  -24.7805  -18.9599   19.8180 C   0  0  0  0  0  0  0  0  0  0  0  0
  -22.7167  -29.1981   22.2076 C   0  0  0  0  0  0  0  0  0  0  0  0
  -23.6841  -28.2352   19.2650 C   0  0  0  0  0  0  0  0  0  0  0  0
  -26.2355  -27.8790   17.0266 C   0  0  0  0  0  0  0  0  0  0  0  0
  -31.0920  -23.1108   22.3142 C   0  0  0  0  0  0  0  0  0  0  0  0
  -18.2370  -26.7525   22.3045 C   0  0  0  0  0  0  0  0  0  0  0  0
  -23.9424  -31.2426   21.3868 C   0  0  0  0  0  0  0  0  0  0  0  0
  -31.4768  -26.9705   26.1005 C   0  0  0  0  0  0  0  0  0  0  0  0
  -25.5014  -28.7715   20.9309 C   0  0  0  0  0  0  0  0  0  0  0  0
  -19.6668  -26.3967   21.9050 C   0  0  0  0  0  0  0  0  0  0  0  0
  -32.0446  -20.5054   20.0823 C   0  0  0  0  0  0  0  0  0  0  0  0
  -20.6462  -26.8164   22.9966 C   0  0  0  0  0  0  0  0  0  0  0  0
  -30.7644  -19.6833   19.9172 C   0  0  0  0  0  0  0  0  0  0  0  0
  -30.8556  -29.4378   25.7597 C   0  0  0  0  0  0  0  0  0  0  0  0
  -32.1975  -21.0372   21.5062 C   0  0  0  0  0  0  0  0  0  0  0  0
  -29.7598  -20.9594   21.8536 C   0  0  0  0  0  0  0  0  0  0  0  0
  -20.6120  -28.3339   23.2147 C   0  0  1  0  0  0  0  0  0  0  0  0
  -29.1759  -27.8401   26.4654 C   0  0  1  0  0  0  0  0  0  0  0  0
  -23.2689  -29.9254   21.0144 C   0  0  1  0  0  0  0  0  0  0  0  0
  -30.6749  -28.1798   26.6068 C   0  0  1  0  0  0  0  0  0  0  0  0
  -29.5293  -20.4568   20.4190 C   0  0  2  0  0  0  0  0  0  0  0  0
  -29.5859  -30.2236   26.0499 C   0  0  1  0  0  0  0  0  0  0  0  0
  -26.7262  -27.0252   14.7184 C   0  0  0  0  0  0  0  0  0  0  0  0
  -30.4175  -32.2670   24.8420 C   0  0  0  0  0  0  0  0  0  0  0  0
  -23.5776  -25.3688   20.3053 C   0  0  0  0  0  0  0  0  0  0  0  0
  -24.9523  -24.6751   18.3312 C   0  0  0  0  0  0  0  0  0  0  0  0
  -22.6912  -25.6705   17.9863 C   0  0  0  0  0  0  0  0  0  0  0  0
  -27.3213  -29.4887   26.9125 C   0  0  0  0  0  0  0  0  0  0  0  0
  -27.1054  -30.5509   16.0975 C   0  0  0  0  0  0  0  0  0  0  0  0
  -24.5958  -27.1523   18.7406 C   0  0  1  0  0  0  0  0  0  0  0  0
  -26.3414  -28.2356   15.5548 C   0  0  2  0  0  0  0  0  0  0  0  0
  -29.2761  -31.2723   24.9967 C   0  0  1  0  0  0  0  0  0  1  0  0
  -23.9637  -25.7367   18.8587 C   0  0  0  0  0  0  0  0  0  0  0  0
  -28.3402  -18.2966   20.4520 N   0  0  0  0  0  0  0  0  0  0  0  0
  -28.2625  -19.6299   20.3026 N   0  0  0  0  0  0  0  0  0  0  0  0
  -24.1758  -28.9999   20.3323 N   0  0  0  0  0  0  0  0  0  0  0  0
  -30.9914  -21.7622   21.9118 N   0  0  0  0  0  0  0  0  0  0  0  0
  -26.7438  -21.3978   19.8801 N   0  0  0  0  0  0  0  0  0  0  0  0
  -24.1101  -17.7293   19.8378 N   0  0  0  0  0  0  0  0  0  0  0  0
  -29.8752  -23.7058   22.6459 N   0  0  0  0  0  0  0  0  0  0  0  0
  -21.3481  -29.0115   22.1690 N   0  0  0  0  0  0  0  0  0  0  0  0
  -24.9464  -27.5382   17.3780 N   0  0  0  0  0  0  0  0  0  0  0  0
  -28.5099  -29.1479   26.0651 N   0  3  2  0  0  0  0  0  0  0  0  0
  -27.3705  -29.2941   15.3511 N   0  3  0  0  0  0  0  0  0  0  0  0
  -24.1315  -20.0090   19.5903 O   0  0  0  0  0  0  0  0  0  0  0  0
  -23.4763  -28.8320   23.0968 O   0  0  0  0  0  0  0  0  0  0  0  0
  -22.5793  -28.4014   18.7420 O   0  0  0  0  0  0  0  0  0  0  0  0
  -27.2005  -27.8971   17.7875 O   0  0  0  0  0  0  0  0  0  0  0  0
  -32.1741  -23.7029   22.3350 O   0  0  0  0  0  0  0  0  0  0  0  0
  -25.7710  -12.4732   20.6441 O   0  0  0  0  0  0  0  0  0  0  0  0
  -29.0590  -30.6096   23.7544 O   0  0  0  0  0  0  0  0  0  1  0  0
  -22.3922  -10.3937   16.8149 F   0  0  0  0  0  0  0  0  0  0  0  0
  -26.5904  -10.4063   19.0012 F   0  0  0  0  0  0  0  0  0  0  0  0
  1  2  1  0  0  0  0
  1  5  2  0  0  0  0
  2  6  2  0  0  0  0
  3 10  2  0  0  0  0
  3 18  1  0  0  0  0
  4 11  1  0  0  0  0
  4 18  2  0  0  0  0
  5 20  1  0  0  0  0
  6 22  1  0  0  0  0
  7  9  2  0  0  0  0
  7 23  1  0  0  0  0
  8 12  2  0  0  0  0
  8 21  1  0  0  0  0
  9 26  1  0  0  0  0
 10 27  1  0  0  0  0
 11 27  2  0  0  0  0
 12 28  1  0  0  0  0
 13 14  2  0  0  0  0
 13 29  1  0  0  0  0
 14 30  1  0  0  0  0
 15 24  1  0  0  0  0
 15 26  2  0  0  0  0
 16 25  1  0  0  0  0
 16 28  2  0  0  0  0
 17 30  2  0  0  0  0
 17 31  1  0  0  0  0
 18 32  1  0  0  0  0
 19 32  1  0  0  0  0
 19 33  2  0  0  0  0
 19 34  1  0  0  0  0
 20 22  2  0  0  0  0
 20 39  1  0  0  0  0
 21 25  2  0  0  0  0
 21 40  1  0  0  0  0
 22 50  1  0  0  0  0
 23 24  2  0  0  0  0
 23 51  1  0  0  0  0
 24 41  1  0  0  0  0
 25 42  1  0  0  0  0
 26 73  1  0  0  0  0
 27 83  1  0  0  0  0
 28 84  1  0  0  0  0
 29 31  2  0  0  0  0
 29 83  1  0  0  0  0
 30 85  1  0  0  0  0
 31 86  1  0  0  0  0
 32 67  2  0  0  0  0
 33 68  1  0  0  0  0
 33 71  1  0  0  0  0
 34 72  1  0  0  0  0
 34 78  2  0  0  0  0
 35 52  1  0  0  0  0
 35 74  1  0  0  0  0
 35 79  2  0  0  0  0
 36 63  1  0  0  0  0
 36 69  1  0  0  0  0
 36 80  2  0  0  0  0
 37 64  1  0  0  0  0
 37 75  1  0  0  0  0
 37 81  2  0  0  0  0
 38 70  1  0  0  0  0
 38 73  1  0  0  0  0
 38 82  2  0  0  0  0
 39 43  1  0  0  0  0
 40 52  1  0  0  0  0
 41 53  1  0  0  0  0
 42 69  1  0  0  0  0
 43 45  1  0  0  0  0
 44 46  1  0  0  0  0
 44 48  1  0  0  0  0
 45 50  1  0  0  0  0
 46 54  1  0  0  0  0
 47 53  1  0  0  0  0
 47 55  1  0  0  0  0
 48 70  1  0  0  0  0
 49 54  1  0  0  0  0
 49 70  1  0  0  0  0
 50 74  1  0  0  0  0
 51 53  1  0  0  0  0
 51 76  1  0  0  0  0
 52 69  1  0  0  0  0
 54 68  1  0  0  0  0
 55 65  1  0  0  0  0
 55 76  1  0  0  0  0
 56 64  1  0  0  0  0
 57 65  1  0  0  0  0
 58 66  1  0  0  0  0
 59 66  1  0  0  0  0
 60 66  1  0  0  0  0
 61 76  1  0  0  0  0
 62 77  1  0  0  0  0
 63 66  1  0  0  0  0
 63 75  1  0  0  0  0
 64 77  1  0  0  0  0
 65 84  1  0  0  0  0
 67 68  1  0  0  0  0
M  CHG  2  76   1  77   1
M  ISO  4  38 100  65 101  73 100  84 101
M  END
> <Batch ID>
0138

> <Smiles>
CNC(C)C(=O)NC(C(=O)N1Cc2cc([101O:1][101CH:1](C)C3CC4Cc5cc([100NH:0][100C:0](=O)N6CCCC(n7nc(-c8ccc(Oc9ccc(F)cc9F)cc8)c(C(N)=O)c7N)C6)ccc5C4N3C)ccc2CC1C(=O)NC1CCCc2ccccc21)C(C)(C)C

> <Shape>
0.225

> <Color>
0.099

> <Negative vol penalty>
0.000

$$$$

  -OEChem-04052302453D

 86 94  0     1  0  0  0  0  0999 V2000
  -30.2464  -31.8181   26.3379 C   0  0  0  0  0  0  0  0  0  0  0  0
  -29.6338  -31.0499   25.3530 C   0  0  0  0  0  0  0  0  0  0  0  0
  -23.0279   -9.8838   20.0237 C   0  0  0  0  0  0  0  0  0  0  0  0
  -23.8093   -9.9576   22.3086 C   0  0  0  0  0  0  0  0  0  0  0  0
  -29.9237  -17.1732   19.7790 C   0  0  0  0  0  0  0  0  0  0  0  0
  -31.6122  -31.6780   26.5806 C   0  0  0  0  0  0  0  0  0  0  0  0
  -30.3869  -30.1420   24.6094 C   0  0  0  0  0  0  0  0  0  0  0  0
  -28.5378  -24.7130   22.4617 C   0  0  0  0  0  0  0  0  0  0  0  0
  -29.2588  -18.2840   19.2596 C   0  0  0  0  0  0  0  0  0  0  0  0
  -22.2564   -8.7612   20.3237 C   0  0  0  0  0  0  0  0  0  0  0  0
  -23.0378   -8.8350   22.6087 C   0  0  0  0  0  0  0  0  0  0  0  0
  -28.0818  -24.3059   21.2086 C   0  0  0  0  0  0  0  0  0  0  0  0
  -20.9944   -6.2043   24.0655 C   0  0  0  0  0  0  0  0  0  0  0  0
  -20.2483   -6.2253   25.2438 C   0  0  0  0  0  0  0  0  0  0  0  0
  -30.3078  -23.5661   20.6456 C   0  0  0  0  0  0  0  0  0  0  0  0
  -27.8465  -18.3546   21.2186 C   0  0  0  0  0  0  0  0  0  0  0  0
  -19.0481   -8.1658   24.4493 C   0  0  0  0  0  0  0  0  0  0  0  0
  -23.8044  -10.4820   21.0161 C   0  0  0  0  0  0  0  0  0  0  0  0
  -29.5499  -16.6530   21.0182 C   0  0  0  0  0  0  0  0  0  0  0  0
  -24.2112  -12.9908   20.7969 C   0  0  0  0  0  0  0  0  0  0  0  0
  -32.3806  -30.7610   25.8462 C   0  0  0  0  0  0  0  0  0  0  0  0
  -29.8867  -24.5594   22.8126 C   0  0  0  0  0  0  0  0  0  0  0  0
  -31.7645  -29.9905   24.8416 C   0  0  0  0  0  0  0  0  0  0  0  0
  -30.7778  -23.9697   21.9047 C   0  0  0  0  0  0  0  0  0  0  0  0
  -28.5114  -17.2437   21.7380 C   0  0  0  0  0  0  0  0  0  0  0  0
  -28.2202  -18.8747   19.9794 C   0  0  0  0  0  0  0  0  0  0  0  0
  -22.2613   -8.2367   21.6162 C   0  0  0  0  0  0  0  0  0  0  0  0
  -28.9674  -23.7350   20.2993 C   0  0  0  0  0  0  0  0  0  0  0  0
  -20.7674   -7.1641   23.0791 C   0  0  0  0  0  0  0  0  0  0  0  0
  -19.2751   -7.2060   25.4358 C   0  0  0  0  0  0  0  0  0  0  0  0
  -19.7943   -8.1448   23.2710 C   0  0  0  0  0  0  0  0  0  0  0  0
  -24.6020  -11.6414   20.7066 C   0  0  0  0  0  0  0  0  0  0  0  0
  -25.3192  -13.6967   20.3961 C   0  0  0  0  0  0  0  0  0  0  0  0
  -30.2616  -15.4928   21.5371 C   0  0  0  0  0  0  0  0  0  0  0  0
  -22.9587  -13.5557   21.2065 C   0  0  0  0  0  0  0  0  0  0  0  0
  -30.8526  -14.4832   20.6290 C   0  0  0  0  0  0  0  0  0  0  0  0
  -32.2424  -26.5467   23.5907 C   0  0  0  0  0  0  0  0  0  0  0  0
  -33.8502  -23.7908   24.1756 C   0  0  0  0  0  0  0  0  0  0  0  0
  -34.1909  -20.4501   23.5664 C   0  0  0  0  0  0  0  0  0  0  0  0
  -33.8629  -30.6788   26.1120 C   0  0  0  0  0  0  0  0  0  0  0  0
  -30.3572  -24.9792   24.1782 C   0  0  0  0  0  0  0  0  0  0  0  0
  -32.2316  -23.7641   22.2404 C   0  0  0  0  0  0  0  0  0  0  0  0
  -34.5164  -29.4252   25.5362 C   0  0  0  0  0  0  0  0  0  0  0  0
  -29.6000  -12.1601   18.2019 C   0  0  0  0  0  0  0  0  0  0  0  0
  -34.0590  -29.1969   24.0990 C   0  0  0  0  0  0  0  0  0  0  0  0
  -28.1681  -11.8997   18.6684 C   0  0  0  0  0  0  0  0  0  0  0  0
  -30.5402  -12.3816   19.3822 C   0  0  0  0  0  0  0  0  0  0  0  0
  -28.6671  -13.2168   20.7759 C   0  0  0  0  0  0  0  0  0  0  0  0
  -32.5429  -28.9771   24.0309 C   0  0  1  0  0  0  0  0  0  0  0  0
  -31.8581  -25.2459   24.2372 C   0  0  1  0  0  0  0  0  0  0  0  0
  -27.6828  -13.0158   19.6105 C   0  0  2  0  0  0  0  0  0  0  0  0
  -28.6107  -17.5567   24.2237 C   0  0  0  0  0  0  0  0  0  0  0  0
  -35.0837  -18.1177   23.8118 C   0  0  0  0  0  0  0  0  0  0  0  0
  -36.0445  -24.8249   22.3247 C   0  0  0  0  0  0  0  0  0  0  0  0
  -36.9455  -22.4921   22.2040 C   0  0  0  0  0  0  0  0  0  0  0  0
  -36.8736  -23.6878   24.3921 C   0  0  0  0  0  0  0  0  0  0  0  0
  -27.4396  -22.3948   16.5326 C   0  0  0  0  0  0  0  0  0  0  0  0
  -25.5177  -21.4279   17.8053 C   0  0  0  0  0  0  0  0  0  0  0  0
  -32.2418  -19.8039   25.6977 C   0  0  0  0  0  0  0  0  0  0  0  0
  -28.0918  -16.7072   23.0677 C   0  0  0  0  0  0  0  0  0  0  0  0
  -27.8792  -20.5777   18.1881 C   0  0  0  0  0  0  0  0  0  0  0  0
  -27.1676  -22.9072   18.9835 C   0  0  0  0  0  0  0  0  0  1  0  0
  -34.7182  -22.8653   23.3577 C   0  0  1  0  0  0  0  0  0  0  0  0
  -34.3688  -19.2685   24.5027 C   0  0  2  0  0  0  0  0  0  0  0  0
  -36.1185  -23.4730   23.0622 C   0  0  0  0  0  0  0  0  0  0  0  0
  -27.0038  -21.8209   17.8969 C   0  0  0  0  0  0  0  0  0  0  0  0
  -25.8599  -11.4962   20.2817 N   0  0  0  0  0  0  0  0  0  0  0  0
  -30.4268  -15.2672   22.8112 N   0  0  0  0  0  0  0  0  0  0  0  0
  -26.2691  -12.7635   20.1013 N   0  0  0  0  0  0  0  0  0  0  0  0
  -30.0321  -13.4213   20.2749 N   0  0  0  0  0  0  0  0  0  0  0  0
  -32.6447  -24.1965   23.5857 N   0  0  0  0  0  0  0  0  0  0  0  0
  -25.5637  -15.0184   20.2705 N   0  0  0  0  0  0  0  0  0  0  0  0
  -21.9265  -12.6872   21.5867 N   0  0  0  0  0  0  0  0  0  0  0  0
  -27.5591  -19.9764   19.4626 N   0  0  0  0  0  0  0  0  0  0  0  0
  -32.2081  -27.6316   24.4458 N   0  0  0  0  0  0  0  0  0  0  0  0
  -34.7571  -21.5980   24.0794 N   0  0  0  0  0  0  0  0  0  0  0  0
  -33.0435  -18.7806   24.9785 N   0  3  0  0  0  0  0  0  0  0  0  0
  -22.7553  -14.7935   21.2188 O   0  0  0  0  0  0  0  0  0  0  0  0
  -32.0085  -14.6945   20.2862 O   0  0  0  0  0  0  0  0  0  0  0  0
  -32.5487  -26.5645   22.4043 O   0  0  0  0  0  0  0  0  0  0  0  0
  -34.2245  -24.1351   25.2994 O   0  0  0  0  0  0  0  0  0  0  0  0
  -33.6112  -20.3627   22.4862 O   0  0  0  0  0  0  0  0  0  0  0  0
  -21.5084   -7.1414   21.9095 O   0  0  0  0  0  0  0  0  0  0  0  0
  -28.5252  -23.3374   19.0753 O   0  0  0  0  0  0  0  0  0  1  0  0
  -18.5577   -7.2251   26.5667 F   0  0  0  0  0  0  0  0  0  0  0  0
  -19.5709   -9.0688   22.3264 F   0  0  0  0  0  0  0  0  0  0  0  0
  1  2  1  0  0  0  0
  1  6  2  0  0  0  0
  2  7  2  0  0  0  0
  3 10  2  0  0  0  0
  3 18  1  0  0  0  0
  4 11  1  0  0  0  0
  4 18  2  0  0  0  0
  5  9  2  0  0  0  0
  5 19  1  0  0  0  0
  6 21  1  0  0  0  0
  7 23  1  0  0  0  0
  8 12  2  0  0  0  0
  8 22  1  0  0  0  0
  9 26  1  0  0  0  0
 10 27  1  0  0  0  0
 11 27  2  0  0  0  0
 12 28  1  0  0  0  0
 13 14  2  0  0  0  0
 13 29  1  0  0  0  0
 14 30  1  0  0  0  0
 15 24  1  0  0  0  0
 15 28  2  0  0  0  0
 16 25  1  0  0  0  0
 16 26  2  0  0  0  0
 17 30  2  0  0  0  0
 17 31  1  0  0  0  0
 18 32  1  0  0  0  0
 19 25  2  0  0  0  0
 19 34  1  0  0  0  0
 20 32  1  0  0  0  0
 20 33  2  0  0  0  0
 20 35  1  0  0  0  0
 21 23  2  0  0  0  0
 21 40  1  0  0  0  0
 22 24  2  0  0  0  0
 22 41  1  0  0  0  0
 23 49  1  0  0  0  0
 24 42  1  0  0  0  0
 25 60  1  0  0  0  0
 26 74  1  0  0  0  0
 27 83  1  0  0  0  0
 28 84  1  0  0  0  0
 29 31  2  0  0  0  0
 29 83  1  0  0  0  0
 30 85  1  0  0  0  0
 31 86  1  0  0  0  0
 32 67  2  0  0  0  0
 33 69  1  0  0  0  0
 33 72  1  0  0  0  0
 34 36  1  0  0  0  0
 34 68  2  0  0  0  0
 35 73  1  0  0  0  0
 35 78  2  0  0  0  0
 36 70  1  0  0  0  0
 36 79  2  0  0  0  0
 37 50  1  0  0  0  0
 37 75  1  0  0  0  0
 37 80  2  0  0  0  0
 38 63  1  0  0  0  0
 38 71  1  0  0  0  0
 38 81  2  0  0  0  0
 39 64  1  0  0  0  0
 39 76  1  0  0  0  0
 39 82  2  0  0  0  0
 40 43  1  0  0  0  0
 41 50  1  0  0  0  0
 42 71  1  0  0  0  0
 43 45  1  0  0  0  0
 44 46  1  0  0  0  0
 44 47  1  0  0  0  0
 45 49  1  0  0  0  0
 46 51  1  0  0  0  0
 47 70  1  0  0  0  0
 48 51  1  0  0  0  0
 48 70  1  0  0  0  0
 49 75  1  0  0  0  0
 50 71  1  0  0  0  0
 51 69  1  0  0  0  0
 52 60  1  0  0  0  0
 53 64  1  0  0  0  0
 54 65  1  0  0  0  0
 55 65  1  0  0  0  0
 56 65  1  0  0  0  0
 57 66  1  0  0  0  0
 58 66  1  0  0  0  0
 59 77  1  0  0  0  0
 61 66  1  0  0  0  0
 61 74  1  0  0  0  0
 62 66  1  0  0  0  0
 62 84  1  0  0  0  0
 63 65  1  0  0  0  0
 63 76  1  0  0  0  0
 64 77  1  0  0  0  0
 67 69  1  0  0  0  0
M  CHG  1  77   1
M  ISO  4  34 100  36 100  62 101  84 101
M  END
> <Batch ID>
0138

> <Smiles>
CCc1cc(NCC(C)(C)[101CH2:1][101O:1]c2ccc3c(c2)CN(C(=O)C(NC(=O)C(C)NC)C(C)(C)C)C(C(=O)NC2CCCc4ccccc42)C3)ccc1[100C:0](=N)[100C:0](=O)N1CCCC(n2nc(-c3ccc(Oc4ccc(F)cc4F)cc3)c(C(N)=O)c2N)C1

> <Shape>
0.214

> <Color>
0.193

> <Negative vol penalty>
0.000

$$$$

  -OEChem-04052302453D

 82 90  0     1  0  0  0  0  0999 V2000
  -29.6167   -5.9672   17.6788 C   0  0  0  0  0  0  0  0  0  0  0  0
  -28.3160   -6.4468   17.5629 C   0  0  0  0  0  0  0  0  0  0  0  0
  -26.7808  -28.3126   18.8681 C   0  0  0  0  0  0  0  0  0  0  0  0
  -25.8984  -27.0516   20.7304 C   0  0  0  0  0  0  0  0  0  0  0  0
  -21.5537  -19.0049   20.3399 C   0  0  0  0  0  0  0  0  0  0  0  0
  -20.5544  -18.5425   18.1894 C   0  0  0  0  0  0  0  0  0  0  0  0
  -30.4849   -6.5289   18.6141 C   0  0  0  0  0  0  0  0  0  0  0  0
  -27.8822   -7.4878   18.3831 C   0  0  0  0  0  0  0  0  0  0  0  0
  -23.5041  -13.1577   18.3630 C   0  0  0  0  0  0  0  0  0  0  0  0
  -22.5917  -19.6914   19.7100 C   0  0  0  0  0  0  0  0  0  0  0  0
  -21.5924  -19.2291   17.5595 C   0  0  0  0  0  0  0  0  0  0  0  0
  -26.3105  -29.4926   19.4442 C   0  0  0  0  0  0  0  0  0  0  0  0
  -25.4282  -28.2317   21.3066 C   0  0  0  0  0  0  0  0  0  0  0  0
  -22.4664  -13.7198   19.1053 C   0  0  0  0  0  0  0  0  0  0  0  0
  -22.8066  -30.3284   20.9041 C   0  0  0  0  0  0  0  0  0  0  0  0
  -21.5107  -30.3261   21.4200 C   0  0  0  0  0  0  0  0  0  0  0  0
  -24.0782  -14.6662   20.6303 C   0  0  0  0  0  0  0  0  0  0  0  0
  -22.3806  -30.8690   23.6076 C   0  0  0  0  0  0  0  0  0  0  0  0
  -26.5746  -27.0920   19.5111 C   0  0  0  0  0  0  0  0  0  0  0  0
  -20.5350  -18.4303   19.5796 C   0  0  0  0  0  0  0  0  0  0  0  0
  -28.3197  -25.2753   19.1090 C   0  0  0  0  0  0  0  0  0  0  0  0
  -30.0645   -7.5838   19.4394 C   0  0  0  0  0  0  0  0  0  0  0  0
  -24.8383  -13.3368   18.7556 C   0  0  0  0  0  0  0  0  0  0  0  0
  -28.7451   -8.0633   19.3312 C   0  0  0  0  0  0  0  0  0  0  0  0
  -25.1310  -14.1075   19.8899 C   0  0  0  0  0  0  0  0  0  0  0  0
  -22.6110  -19.8036   18.3198 C   0  0  0  0  0  0  0  0  0  0  0  0
  -25.6343  -29.4522   20.6635 C   0  0  0  0  0  0  0  0  0  0  0  0
  -22.7532  -14.4718   20.2407 C   0  0  0  0  0  0  0  0  0  0  0  0
  -23.8896  -30.6009   21.7400 C   0  0  0  0  0  0  0  0  0  0  0  0
  -21.2976  -30.5965   22.7717 C   0  0  0  0  0  0  0  0  0  0  0  0
  -23.6765  -30.8712   23.0917 C   0  0  0  0  0  0  0  0  0  0  0  0
  -27.0596  -25.8727   18.9162 C   0  0  0  0  0  0  0  0  0  0  0  0
  -28.2868  -24.1451   18.3292 C   0  0  0  0  0  0  0  0  0  0  0  0
  -19.4231  -17.6946   20.2544 C   0  0  0  0  0  0  0  0  0  0  0  0
  -29.4214  -25.7036   19.9204 C   0  0  0  0  0  0  0  0  0  0  0  0
  -27.1898  -11.3988   19.6603 C   0  0  0  0  0  0  0  0  0  0  0  0
  -28.9433  -14.1266   19.5821 C   0  0  0  0  0  0  0  0  0  0  0  0
  -29.0076  -17.5351   19.7416 C   0  0  0  0  0  0  0  0  0  0  0  0
  -23.8364  -20.7055   16.3120 C   0  0  0  0  0  0  0  0  0  0  0  0
  -31.0242   -8.1273   20.4682 C   0  0  0  0  0  0  0  0  0  0  0  0
  -25.9475  -12.7461   17.9290 C   0  0  0  0  0  0  0  0  0  0  0  0
  -26.5476  -14.3465   20.3422 C   0  0  0  0  0  0  0  0  0  0  0  0
  -30.6027   -9.4782   21.0407 C   0  0  0  0  0  0  0  0  0  0  0  0
  -26.2766  -22.3991   14.3487 C   0  0  0  0  0  0  0  0  0  0  0  0
  -29.1244   -9.4609   21.4165 C   0  0  0  0  0  0  0  0  0  0  0  0
  -26.8732  -23.4236   15.3164 C   0  0  0  0  0  0  0  0  0  0  0  0
  -24.7773  -22.2120   14.5741 C   0  0  0  0  0  0  0  0  0  0  0  0
  -24.9883  -22.9225   16.9236 C   0  0  0  0  0  0  0  0  0  0  0  0
  -28.2452   -9.2077   20.1858 C   0  0  1  0  0  0  0  0  0  0  0  0
  -27.2439  -12.5631   18.7121 C   0  0  1  0  0  0  0  0  0  0  0  0
  -26.5088  -23.0970   16.7780 C   0  0  2  0  0  0  0  0  0  0  0  0
  -30.5920  -19.4802   19.6850 C   0  0  0  0  0  0  0  0  0  0  0  0
  -29.7951  -13.5131   22.4470 C   0  0  0  0  0  0  0  0  0  0  0  0
  -30.5635  -15.8869   22.6531 C   0  0  0  0  0  0  0  0  0  0  0  0
  -31.6250  -14.3752   20.9766 C   0  0  0  0  0  0  0  0  0  0  0  0
  -27.7295  -18.6548   17.3185 C   0  0  0  0  0  0  0  0  0  0  0  0
  -19.6576  -16.9730   21.5750 C   0  0  0  0  0  0  0  0  0  0  0  0
  -19.4381  -15.4661   21.4649 C   0  0  0  0  0  0  0  0  0  0  0  0
  -20.4113  -14.7868   20.5092 C   0  0  0  0  0  0  0  0  0  1  0  0
  -29.2739  -15.2139   20.5758 C   0  0  1  0  0  0  0  0  0  0  0  0
  -29.6882  -18.5718   18.8662 C   0  0  2  0  0  0  0  0  0  0  0  0
  -30.2875  -14.7414   21.6560 C   0  0  0  0  0  0  0  0  0  0  0  0
  -26.2829  -25.1794   18.0794 N   0  0  0  0  0  0  0  0  0  0  0  0
  -18.2427  -17.6670   19.7194 N   0  0  0  0  0  0  0  0  0  0  0  0
  -27.0570  -24.1348   17.7395 N   0  0  0  0  0  0  0  0  0  0  0  0
  -27.5970  -13.7429   19.5044 N   0  0  0  0  0  0  0  0  0  0  0  0
  -24.5081  -21.9010   15.9797 N   0  0  0  0  0  0  0  0  0  0  0  0
  -29.1901  -23.1690   18.0973 N   0  0  0  0  0  0  0  0  0  0  0  0
  -29.2873  -26.8880   20.6578 N   0  0  0  0  0  0  0  0  0  0  0  0
  -23.6658  -20.5014   17.6809 N   0  0  0  0  0  0  0  0  0  0  0  0
  -28.1223  -10.4139   19.3957 N   0  0  0  0  0  0  0  0  0  0  0  0
  -29.7256  -16.3590   19.7928 N   0  0  0  0  0  0  0  0  0  0  0  0
  -28.6715  -19.4167   18.1781 N   0  3  0  0  0  0  0  0  0  0  0  0
  -30.4990  -25.0640   19.9768 O   0  0  0  0  0  0  0  0  0  0  0  0
  -26.3642  -11.3948   20.5658 O   0  0  0  0  0  0  0  0  0  0  0  0
  -29.8452  -13.6409   18.8948 O   0  0  0  0  0  0  0  0  0  0  0  0
  -27.9471  -17.7485   20.3250 O   0  0  0  0  0  0  0  0  0  0  0  0
  -23.4658  -19.9075   15.4473 O   0  0  0  0  0  0  0  0  0  0  0  0
  -25.1755  -30.6035   21.2261 O   0  0  0  0  0  0  0  0  0  0  0  0
  -21.7422  -15.0211   20.9674 O   0  0  0  0  0  0  0  0  0  1  0  0
  -20.0530  -30.5958   23.2666 F   0  0  0  0  0  0  0  0  0  0  0  0
  -24.7128  -31.1349   23.8994 F   0  0  0  0  0  0  0  0  0  0  0  0
  1  2  1  0  0  0  0
  1  7  2  0  0  0  0
  2  8  2  0  0  0  0
  3 12  2  0  0  0  0
  3 19  1  0  0  0  0
  4 13  1  0  0  0  0
  4 19  2  0  0  0  0
  5 10  2  0  0  0  0
  5 20  1  0  0  0  0
  6 11  1  0  0  0  0
  6 20  2  0  0  0  0
  7 22  1  0  0  0  0
  8 24  1  0  0  0  0
  9 14  2  0  0  0  0
  9 23  1  0  0  0  0
 10 26  1  0  0  0  0
 11 26  2  0  0  0  0
 12 27  1  0  0  0  0
 13 27  2  0  0  0  0
 14 28  1  0  0  0  0
 15 16  2  0  0  0  0
 15 29  1  0  0  0  0
 16 30  1  0  0  0  0
 17 25  1  0  0  0  0
 17 28  2  0  0  0  0
 18 30  2  0  0  0  0
 18 31  1  0  0  0  0
 19 32  1  0  0  0  0
 20 34  1  0  0  0  0
 21 32  1  0  0  0  0
 21 33  2  0  0  0  0
 21 35  1  0  0  0  0
 22 24  2  0  0  0  0
 22 40  1  0  0  0  0
 23 25  2  0  0  0  0
 23 41  1  0  0  0  0
 24 49  1  0  0  0  0
 25 42  1  0  0  0  0
 26 70  1  0  0  0  0
 27 79  1  0  0  0  0
 28 80  1  0  0  0  0
 29 31  2  0  0  0  0
 29 79  1  0  0  0  0
 30 81  1  0  0  0  0
 31 82  1  0  0  0  0
 32 63  2  0  0  0  0
 33 65  1  0  0  0  0
 33 68  1  0  0  0  0
 34 57  1  0  0  0  0
 34 64  2  0  0  0  0
 35 69  1  0  0  0  0
 35 74  2  0  0  0  0
 36 50  1  0  0  0  0
 36 71  1  0  0  0  0
 36 75  2  0  0  0  0
 37 60  1  0  0  0  0
 37 66  1  0  0  0  0
 37 76  2  0  0  0  0
 38 61  1  0  0  0  0
 38 72  1  0  0  0  0
 38 77  2  0  0  0  0
 39 67  1  0  0  0  0
 39 70  1  0  0  0  0
 39 78  2  0  0  0  0
 40 43  1  0  0  0  0
 41 50  1  0  0  0  0
 42 66  1  0  0  0  0
 43 45  1  0  0  0  0
 44 46  1  0  0  0  0
 44 47  1  0  0  0  0
 45 49  1  0  0  0  0
 46 51  1  0  0  0  0
 47 67  1  0  0  0  0
 48 51  1  0  0  0  0
 48 67  1  0  0  0  0
 49 71  1  0  0  0  0
 50 66  1  0  0  0  0
 51 65  1  0  0  0  0
 52 61  1  0  0  0  0
 53 62  1  0  0  0  0
 54 62  1  0  0  0  0
 55 62  1  0  0  0  0
 56 73  1  0  0  0  0
 57 58  1  0  0  0  0
 58 59  1  0  0  0  0
 59 80  1  0  0  0  0
 60 62  1  0  0  0  0
 60 72  1  0  0  0  0
 61 73  1  0  0  0  0
 63 65  1  0  0  0  0
M  CHG  1  73   1
M  ISO  4  39 100  59 101  70 100  80 101
M  END
> <Batch ID>
0138

> <Smiles>
CNC(C)C(=O)NC(C(=O)N1Cc2cc([101O:1][101CH2:1]CCC(=N)c3ccc([100NH:0][100C:0](=O)N4CCCC(n5nc(-c6ccc(Oc7ccc(F)cc7F)cc6)c(C(N)=O)c5N)C4)cc3)ccc2CC1C(=O)NC1CCCc2ccccc21)C(C)(C)C

> <Shape>
0.206

> <Color>
0.066

> <Negative vol penalty>
0.000

$$$$

  -OEChem-04052302453D

 88 97  0     1  0  0  0  0  0999 V2000
  -21.6598  -33.7699   21.5869 C   0  0  0  0  0  0  0  0  0  0  0  0
  -22.9174  -33.1890   21.7151 C   0  0  0  0  0  0  0  0  0  0  0  0
  -23.1486   -9.7654   19.9745 C   0  0  0  0  0  0  0  0  0  0  0  0
  -23.7375   -9.9792   22.3078 C   0  0  0  0  0  0  0  0  0  0  0  0
  -20.5305  -33.0930   22.0454 C   0  0  0  0  0  0  0  0  0  0  0  0
  -23.0464  -31.9311   22.3030 C   0  0  0  0  0  0  0  0  0  0  0  0
  -27.0824  -27.5705   20.8193 C   0  0  0  0  0  0  0  0  0  0  0  0
  -29.2143  -19.5971   22.1169 C   0  0  0  0  0  0  0  0  0  0  0  0
  -29.0994  -18.2101   22.2086 C   0  0  0  0  0  0  0  0  0  0  0  0
  -22.4310   -8.6044   20.2619 C   0  0  0  0  0  0  0  0  0  0  0  0
  -23.0199   -8.8182   22.5953 C   0  0  0  0  0  0  0  0  0  0  0  0
  -28.3041  -27.1944   21.3761 C   0  0  0  0  0  0  0  0  0  0  0  0
  -23.4721   -5.4786   22.3242 C   0  0  0  0  0  0  0  0  0  0  0  0
  -24.0703   -4.5378   23.1625 C   0  0  0  0  0  0  0  0  0  0  0  0
  -27.1883  -25.4747   22.6476 C   0  0  0  0  0  0  0  0  0  0  0  0
  -30.8606  -17.9562   20.5742 C   0  0  0  0  0  0  0  0  0  0  0  0
  -22.2432   -4.7692   24.7261 C   0  0  0  0  0  0  0  0  0  0  0  0
  -23.8019  -10.4528   20.9974 C   0  0  0  0  0  0  0  0  0  0  0  0
  -24.0591  -12.9736   20.7024 C   0  0  0  0  0  0  0  0  0  0  0  0
  -20.6447  -31.8220   22.6304 C   0  0  0  0  0  0  0  0  0  0  0  0
  -25.9010  -26.9075   21.1814 C   0  0  0  0  0  0  0  0  0  0  0  0
  -21.9177  -31.2372   22.7710 C   0  0  0  0  0  0  0  0  0  0  0  0
  -25.9533  -25.8426   22.0921 C   0  0  0  0  0  0  0  0  0  0  0  0
  -30.1523  -20.1638   21.2538 C   0  0  0  0  0  0  0  0  0  0  0  0
  -29.9226  -17.3896   21.4373 C   0  0  0  0  0  0  0  0  0  0  0  0
  -22.3666   -8.1307   21.5723 C   0  0  0  0  0  0  0  0  0  0  0  0
  -28.3568  -26.1483   22.2925 C   0  0  0  0  0  0  0  0  0  0  0  0
  -22.2594   -6.0647   22.6869 C   0  0  0  0  0  0  0  0  0  0  0  0
  -23.4559   -4.1831   24.3634 C   0  0  0  0  0  0  0  0  0  0  0  0
  -30.9754  -19.3433   20.4825 C   0  0  0  0  0  0  0  0  0  0  0  0
  -21.6449   -5.7100   23.8879 C   0  0  0  0  0  0  0  0  0  0  0  0
  -24.5437  -11.6519   20.7010 C   0  0  0  0  0  0  0  0  0  0  0  0
  -25.1468  -13.7386   20.3586 C   0  0  0  0  0  0  0  0  0  0  0  0
  -22.7433  -13.4659   20.9889 C   0  0  0  0  0  0  0  0  0  0  0  0
  -23.1855  -27.7712   22.5898 C   0  0  0  0  0  0  0  0  0  0  0  0
  -22.2992  -24.7359   21.8662 C   0  0  0  0  0  0  0  0  0  0  0  0
  -23.2415  -21.5310   21.1682 C   0  0  0  0  0  0  0  0  0  0  0  0
  -30.5436  -15.0239   20.8338 C   0  0  0  0  0  0  0  0  0  0  0  0
  -19.4004  -31.1495   23.1540 C   0  0  0  0  0  0  0  0  0  0  0  0
  -24.5950  -27.3077   20.5516 C   0  0  0  0  0  0  0  0  0  0  0  0
  -24.7165  -25.0853   22.4986 C   0  0  0  0  0  0  0  0  0  0  0  0
  -19.5823  -29.6583   23.4252 C   0  0  0  0  0  0  0  0  0  0  0  0
  -29.6948  -12.3917   18.5914 C   0  0  0  0  0  0  0  0  0  0  0  0
  -20.8768  -29.4092   24.1927 C   0  0  0  0  0  0  0  0  0  0  0  0
  -28.2392  -12.0734   18.9404 C   0  0  0  0  0  0  0  0  0  0  0  0
  -32.5685  -22.8859   23.8041 C   0  0  0  0  0  0  0  0  0  0  0  0
  -30.5104  -12.7499   19.8325 C   0  0  0  0  0  0  0  0  0  0  0  0
  -28.4820  -13.4965   21.0147 C   0  0  0  0  0  0  0  0  0  0  0  0
  -32.0333  -21.7498   22.9572 C   0  0  0  0  0  0  0  0  0  0  0  0
  -22.0957  -29.8636   23.3806 C   0  0  1  0  0  0  0  0  0  0  0  0
  -23.3817  -26.8999   21.3815 C   0  0  1  0  0  0  0  0  0  0  0  0
  -27.6052  -13.1931   19.7888 C   0  0  2  0  0  0  0  0  0  0  0  0
  -32.2137  -24.1194   22.9887 C   0  0  2  0  0  0  0  0  0  0  0  0
  -30.8374  -23.8192   22.3902 C   0  0  2  0  0  0  0  0  0  0  0  0
  -28.9715  -22.3378   20.7323 C   0  0  0  0  0  0  0  0  0  0  0  0
  -22.2913  -19.2650   20.6582 C   0  0  0  0  0  0  0  0  0  0  0  0
  -29.9700  -24.3143   24.6985 C   0  0  0  0  0  0  0  0  0  0  0  0
  -21.5820  -24.3767   24.8101 C   0  0  0  0  0  0  0  0  0  0  0  0
  -21.5581  -21.9021   24.4304 C   0  0  0  0  0  0  0  0  0  0  0  0
  -19.9497  -23.3653   23.2078 C   0  0  0  0  0  0  0  0  0  0  0  0
  -24.5535  -21.4496   18.5166 C   0  0  0  0  0  0  0  0  0  0  0  0
  -30.2748  -21.6671   21.1589 C   0  0  1  0  0  0  0  0  0  0  0  0
  -22.3940  -23.3997   22.5624 C   0  0  1  0  0  0  0  0  0  0  0  0
  -22.8109  -20.5699   20.0749 C   0  0  2  0  0  0  0  0  0  0  0  0
  -29.6974  -24.4088   23.2050 C   0  0  1  0  0  0  0  0  0  1  0  0
  -21.3942  -23.2763   23.7467 C   0  0  0  0  0  0  0  0  0  0  0  0
  -25.8385  -11.5779   20.3815 N   0  0  0  0  0  0  0  0  0  0  0  0
  -26.1767  -12.8627   20.1789 N   0  0  0  0  0  0  0  0  0  0  0  0
  -23.4627  -25.5183   21.8600 N   0  0  0  0  0  0  0  0  0  0  0  0
  -29.8512  -13.8201   20.5841 N   0  0  0  0  0  0  0  0  0  0  0  0
  -25.3132  -15.0683   20.1955 N   0  0  0  0  0  0  0  0  0  0  0  0
  -21.7433  -12.5433   21.3251 N   0  0  0  0  0  0  0  0  0  0  0  0
  -29.8046  -15.9805   21.5290 N   0  0  0  0  0  0  0  0  0  0  0  0
  -22.4112  -28.8915   22.3559 N   0  0  0  0  0  0  0  0  0  0  0  0
  -22.2216  -22.3867   21.5268 N   0  0  0  0  0  0  0  0  0  0  0  0
  -30.7206  -22.2922   22.4429 N   0  3  1  0  0  0  0  0  0  0  0  0
  -23.9589  -20.2590   19.1768 N   0  3  0  0  0  0  0  0  0  0  0  0
  -22.4586  -14.6863   20.9320 O   0  0  0  0  0  0  0  0  0  0  0  0
  -23.6975  -27.4501   23.6559 O   0  0  0  0  0  0  0  0  0  0  0  0
  -21.2343  -25.0699   21.3409 O   0  0  0  0  0  0  0  0  0  0  0  0
  -24.3687  -21.5209   21.6580 O   0  0  0  0  0  0  0  0  0  0  0  0
  -31.6970  -15.2039   20.4348 O   0  0  0  0  0  0  0  0  0  0  0  0
  -33.1708  -24.2685   21.9434 O   0  0  0  0  0  0  0  0  0  0  0  0
  -21.6663   -6.9980   21.8533 O   0  0  0  0  0  0  0  0  0  0  0  0
  -29.5477  -25.7796   22.8380 O   0  0  0  0  0  0  0  0  0  1  0  0
  -24.0297   -3.2786   25.1676 F   0  0  0  0  0  0  0  0  0  0  0  0
  -31.8797  -19.8784   19.6504 F   0  0  0  0  0  0  0  0  0  0  0  0
  -20.4793   -6.2688   24.2411 F   0  0  0  0  0  0  0  0  0  0  0  0
  1  2  1  0  0  0  0
  1  5  2  0  0  0  0
  2  6  2  0  0  0  0
  3 10  2  0  0  0  0
  3 18  1  0  0  0  0
  4 11  1  0  0  0  0
  4 18  2  0  0  0  0
  5 20  1  0  0  0  0
  6 22  1  0  0  0  0
  7 12  2  0  0  0  0
  7 21  1  0  0  0  0
  8  9  2  0  0  0  0
  8 24  1  0  0  0  0
  9 25  1  0  0  0  0
 10 26  1  0  0  0  0
 11 26  2  0  0  0  0
 12 27  1  0  0  0  0
 13 14  2  0  0  0  0
 13 28  1  0  0  0  0
 14 29  1  0  0  0  0
 15 23  1  0  0  0  0
 15 27  2  0  0  0  0
 16 25  2  0  0  0  0
 16 30  1  0  0  0  0
 17 29  2  0  0  0  0
 17 31  1  0  0  0  0
 18 32  1  0  0  0  0
 19 32  1  0  0  0  0
 19 33  2  0  0  0  0
 19 34  1  0  0  0  0
 20 22  2  0  0  0  0
 20 39  1  0  0  0  0
 21 23  2  0  0  0  0
 21 40  1  0  0  0  0
 22 50  1  0  0  0  0
 23 41  1  0  0  0  0
 24 30  2  0  0  0  0
 24 62  1  0  0  0  0
 25 73  1  0  0  0  0
 26 84  1  0  0  0  0
 27 85  1  0  0  0  0
 28 31  2  0  0  0  0
 28 84  1  0  0  0  0
 29 86  1  0  0  0  0
 30 87  1  0  0  0  0
 31 88  1  0  0  0  0
 32 67  2  0  0  0  0
 33 68  1  0  0  0  0
 33 71  1  0  0  0  0
 34 72  1  0  0  0  0
 34 78  2  0  0  0  0
 35 51  1  0  0  0  0
 35 74  1  0  0  0  0
 35 79  2  0  0  0  0
 36 63  1  0  0  0  0
 36 69  1  0  0  0  0
 36 80  2  0  0  0  0
 37 64  1  0  0  0  0
 37 75  1  0  0  0  0
 37 81  2  0  0  0  0
 38 70  1  0  0  0  0
 38 73  1  0  0  0  0
 38 82  2  0  0  0  0
 39 42  1  0  0  0  0
 40 51  1  0  0  0  0
 41 69  1  0  0  0  0
 42 44  1  0  0  0  0
 43 45  1  0  0  0  0
 43 47  1  0  0  0  0
 44 50  1  0  0  0  0
 45 52  1  0  0  0  0
 46 49  1  0  0  0  0
 46 53  1  0  0  0  0
 47 70  1  0  0  0  0
 48 52  1  0  0  0  0
 48 70  1  0  0  0  0
 49 76  1  0  0  0  0
 50 74  1  0  0  0  0
 51 69  1  0  0  0  0
 52 68  1  0  0  0  0
 53 54  1  0  0  0  0
 53 83  1  0  0  0  0
 54 65  1  0  0  0  0
 54 76  1  0  0  0  0
 55 62  1  0  0  0  0
 56 64  1  0  0  0  0
 57 65  1  0  0  0  0
 58 66  1  0  0  0  0
 59 66  1  0  0  0  0
 60 66  1  0  0  0  0
 61 77  1  0  0  0  0
 62 76  1  0  0  0  0
 63 66  1  0  0  0  0
 63 75  1  0  0  0  0
 64 77  1  0  0  0  0
 65 85  1  0  0  0  0
 67 68  1  0  0  0  0
M  CHG  2  76   1  77   1
M  ISO  4  38 100  65 101  73 100  85 101
M  END
> <Batch ID>
0138

> <Smiles>
CNC(C)C(=O)NC(C(=O)N1Cc2cc([101O:1][101CH:1](C)C3C(O)CCN3C(C)c3ccc([100NH:0][100C:0](=O)N4CCCC(n5nc(-c6ccc(Oc7ccc(F)cc7F)cc6)c(C(N)=O)c5N)C4)cc3F)ccc2CC1C(=O)NC1CCCc2ccccc21)C(C)(C)C

> <Shape>
0.255

> <Color>
0.186

> <Negative vol penalty>
0.000

$$$$

  -OEChem-04052302453D

 84 92  0     1  0  0  0  0  0999 V2000
  -27.7376  -24.2674   16.9009 C   0  0  0  0  0  0  0  0  0  0  0  0
  -26.5706  -24.5291   17.6117 C   0  0  0  0  0  0  0  0  0  0  0  0
  -19.4510  -21.4941   19.6191 C   0  0  0  0  0  0  0  0  0  0  0  0
  -26.6565  -13.5634   20.7715 C   0  0  0  0  0  0  0  0  0  0  0  0
  -24.3390  -13.7704   20.1211 C   0  0  0  0  0  0  0  0  0  0  0  0
  -19.2407  -22.6221   20.4121 C   0  0  0  0  0  0  0  0  0  0  0  0
  -28.9603  -24.7459   17.3699 C   0  0  0  0  0  0  0  0  0  0  0  0
  -26.6259  -25.2686   18.7927 C   0  0  0  0  0  0  0  0  0  0  0  0
  -22.9858  -28.7791   19.0588 C   0  0  0  0  0  0  0  0  0  0  0  0
  -20.7477  -21.0322   19.3933 C   0  0  0  0  0  0  0  0  0  0  0  0
  -26.3472  -12.4216   21.5105 C   0  0  0  0  0  0  0  0  0  0  0  0
  -24.0296  -12.6285   20.8601 C   0  0  0  0  0  0  0  0  0  0  0  0
  -21.7057  -28.3443   19.3995 C   0  0  0  0  0  0  0  0  0  0  0  0
  -24.2973   -9.2795   20.4957 C   0  0  0  0  0  0  0  0  0  0  0  0
  -23.4693   -8.3284   19.8997 C   0  0  0  0  0  0  0  0  0  0  0  0
  -21.6238  -22.8264   20.7536 C   0  0  0  0  0  0  0  0  0  0  0  0
  -22.0669  -29.0783   21.6689 C   0  0  0  0  0  0  0  0  0  0  0  0
  -21.8638   -8.6085   21.6832 C   0  0  0  0  0  0  0  0  0  0  0  0
  -25.6524  -14.2379   20.0768 C   0  0  0  0  0  0  0  0  0  0  0  0
  -20.3271  -23.2883   20.9794 C   0  0  0  0  0  0  0  0  0  0  0  0
  -26.3560  -15.4770   17.9609 C   0  0  0  0  0  0  0  0  0  0  0  0
  -29.0293  -25.4998   18.5521 C   0  0  0  0  0  0  0  0  0  0  0  0
  -23.8215  -29.3577   20.0248 C   0  0  0  0  0  0  0  0  0  0  0  0
  -27.8509  -25.7565   19.2786 C   0  0  0  0  0  0  0  0  0  0  0  0
  -23.3562  -29.5219   21.3373 C   0  0  0  0  0  0  0  0  0  0  0  0
  -21.8341  -21.6983   19.9605 C   0  0  0  0  0  0  0  0  0  0  0  0
  -25.0337  -11.9541   21.5548 C   0  0  0  0  0  0  0  0  0  0  0  0
  -21.2471  -28.4913   20.7053 C   0  0  0  0  0  0  0  0  0  0  0  0
  -23.9087   -9.8951   21.6855 C   0  0  0  0  0  0  0  0  0  0  0  0
  -22.2525   -7.9929   20.4934 C   0  0  0  0  0  0  0  0  0  0  0  0
  -22.6919   -9.5597   22.2793 C   0  0  0  0  0  0  0  0  0  0  0  0
  -25.9712  -15.4178   19.3138 C   0  0  0  0  0  0  0  0  0  0  0  0
  -26.5435  -16.8153   17.7155 C   0  0  0  0  0  0  0  0  0  0  0  0
  -20.1005  -24.4949   21.8276 C   0  0  0  0  0  0  0  0  0  0  0  0
  -26.5284  -14.4170   17.0109 C   0  0  0  0  0  0  0  0  0  0  0  0
  -26.6426  -28.6134   21.2863 C   0  0  0  0  0  0  0  0  0  0  0  0
  -26.3178  -31.4971   22.7358 C   0  0  0  0  0  0  0  0  0  0  0  0
  -24.2371  -33.9652   23.8431 C   0  0  0  0  0  0  0  0  0  0  0  0
  -24.3388  -21.7727   20.2192 C   0  0  0  0  0  0  0  0  0  0  0  0
  -30.3800  -25.9556   19.0446 C   0  0  0  0  0  0  0  0  0  0  0  0
  -25.1898  -29.8459   19.6351 C   0  0  0  0  0  0  0  0  0  0  0  0
  -24.2067  -30.1553   22.4069 C   0  0  0  0  0  0  0  0  0  0  0  0
  -30.3038  -27.0500   20.1061 C   0  0  0  0  0  0  0  0  0  0  0  0
  -27.7742  -20.8888   19.9124 C   0  0  0  0  0  0  0  0  0  0  0  0
  -29.2664  -26.6942   21.1662 C   0  0  0  0  0  0  0  0  0  0  0  0
  -27.7365  -19.3922   19.5950 C   0  0  0  0  0  0  0  0  0  0  0  0
  -26.6788  -21.2868   20.9000 C   0  0  0  0  0  0  0  0  0  0  0  0
  -25.2833  -19.3804   20.2020 C   0  0  0  0  0  0  0  0  0  0  0  0
  -27.8668  -26.5760   20.5507 C   0  0  1  0  0  0  0  0  0  0  0  0
  -26.1459  -29.9524   20.8191 C   0  0  1  0  0  0  0  0  0  0  0  0
  -26.3272  -18.9434   19.1614 C   0  0  2  0  0  0  0  0  0  0  0  0
  -24.2611  -36.1808   25.0212 C   0  0  0  0  0  0  0  0  0  0  0  0
  -26.8056  -30.0768   25.3919 C   0  0  0  0  0  0  0  0  0  0  0  0
  -25.8918  -32.0945   26.5590 C   0  0  0  0  0  0  0  0  0  0  0  0
  -27.9518  -32.2880   25.1654 C   0  0  0  0  0  0  0  0  0  0  0  0
  -18.4605  -26.1529   23.9250 C   0  0  0  0  0  0  0  0  0  0  0  0
  -17.3438  -27.2745   22.0020 C   0  0  0  0  0  0  0  0  0  0  0  0
  -23.0280  -35.3443   21.5204 C   0  0  0  0  0  0  0  0  0  0  0  0
  -18.8874  -25.3731   21.5304 C   0  0  0  0  0  0  0  0  0  0  0  0
  -19.8011  -27.6250   22.3830 C   0  0  0  0  0  0  0  0  0  1  0  0
  -25.7129  -31.9801   24.0319 C   0  0  1  0  0  0  0  0  0  0  0  0
  -24.2844  -35.4732   23.6753 C   0  0  2  0  0  0  0  0  0  0  0  0
  -26.5750  -31.5961   25.2676 C   0  0  0  0  0  0  0  0  0  0  0  0
  -18.6544  -26.5936   22.4627 C   0  0  0  0  0  0  0  0  0  0  0  0
  -25.9173  -16.6226   19.8877 N   0  0  0  0  0  0  0  0  0  0  0  0
  -26.2707  -17.4515   18.8907 N   0  0  0  0  0  0  0  0  0  0  0  0
  -25.5394  -30.6108   21.9779 N   0  0  0  0  0  0  0  0  0  0  0  0
  -25.3713  -20.8326   20.4214 N   0  0  0  0  0  0  0  0  0  0  0  0
  -26.9137  -17.4982   16.6114 N   0  0  0  0  0  0  0  0  0  0  0  0
  -26.2941  -13.1001   17.4294 N   0  0  0  0  0  0  0  0  0  0  0  0
  -23.1511  -21.2287   19.7313 N   0  0  0  0  0  0  0  0  0  0  0  0
  -27.3061  -27.8891   20.3144 N   0  0  0  0  0  0  0  0  0  0  0  0
  -25.5010  -33.4148   23.8738 N   0  0  0  0  0  0  0  0  0  0  0  0
  -23.1164  -35.9425   22.8774 N   0  3  0  0  0  0  0  0  0  0  0  0
  -20.8882  -24.7263   22.7400 O   0  0  0  0  0  0  0  0  0  0  0  0
  -26.8957  -14.6299   15.8306 O   0  0  0  0  0  0  0  0  0  0  0  0
  -26.4402  -28.2640   22.4433 O   0  0  0  0  0  0  0  0  0  0  0  0
  -27.4366  -31.8973   22.4045 O   0  0  0  0  0  0  0  0  0  0  0  0
  -23.1843  -33.3386   23.9412 O   0  0  0  0  0  0  0  0  0  0  0  0
  -24.5052  -22.9759   20.4352 O   0  0  0  0  0  0  0  0  0  0  0  0
  -24.7315  -10.8398   22.2756 O   0  0  0  0  0  0  0  0  0  0  0  0
  -19.9982  -28.0672   21.0406 O   0  0  0  0  0  0  0  0  0  1  0  0
  -21.4567   -7.0806   19.9202 F   0  0  0  0  0  0  0  0  0  0  0  0
  -22.3126  -10.1486   23.4217 F   0  0  0  0  0  0  0  0  0  0  0  0
  1  2  1  0  0  0  0
  1  7  2  0  0  0  0
  2  8  2  0  0  0  0
  3  6  2  0  0  0  0
  3 10  1  0  0  0  0
  4 11  2  0  0  0  0
  4 19  1  0  0  0  0
  5 12  1  0  0  0  0
  5 19  2  0  0  0  0
  6 20  1  0  0  0  0
  7 22  1  0  0  0  0
  8 24  1  0  0  0  0
  9 13  2  0  0  0  0
  9 23  1  0  0  0  0
 10 26  2  0  0  0  0
 11 27  1  0  0  0  0
 12 27  2  0  0  0  0
 13 28  1  0  0  0  0
 14 15  2  0  0  0  0
 14 29  1  0  0  0  0
 15 30  1  0  0  0  0
 16 20  2  0  0  0  0
 16 26  1  0  0  0  0
 17 25  1  0  0  0  0
 17 28  2  0  0  0  0
 18 30  2  0  0  0  0
 18 31  1  0  0  0  0
 19 32  1  0  0  0  0
 20 34  1  0  0  0  0
 21 32  1  0  0  0  0
 21 33  2  0  0  0  0
 21 35  1  0  0  0  0
 22 24  2  0  0  0  0
 22 40  1  0  0  0  0
 23 25  2  0  0  0  0
 23 41  1  0  0  0  0
 24 49  1  0  0  0  0
 25 42  1  0  0  0  0
 26 71  1  0  0  0  0
 27 81  1  0  0  0  0
 28 82  1  0  0  0  0
 29 31  2  0  0  0  0
 29 81  1  0  0  0  0
 30 83  1  0  0  0  0
 31 84  1  0  0  0  0
 32 65  2  0  0  0  0
 33 66  1  0  0  0  0
 33 69  1  0  0  0  0
 34 59  1  0  0  0  0
 34 75  2  0  0  0  0
 35 70  1  0  0  0  0
 35 76  2  0  0  0  0
 36 50  1  0  0  0  0
 36 72  1  0  0  0  0
 36 77  2  0  0  0  0
 37 61  1  0  0  0  0
 37 67  1  0  0  0  0
 37 78  2  0  0  0  0
 38 62  1  0  0  0  0
 38 73  1  0  0  0  0
 38 79  2  0  0  0  0
 39 68  1  0  0  0  0
 39 71  1  0  0  0  0
 39 80  2  0  0  0  0
 40 43  1  0  0  0  0
 41 50  1  0  0  0  0
 42 67  1  0  0  0  0
 43 45  1  0  0  0  0
 44 46  1  0  0  0  0
 44 47  1  0  0  0  0
 45 49  1  0  0  0  0
 46 51  1  0  0  0  0
 47 68  1  0  0  0  0
 48 51  1  0  0  0  0
 48 68  1  0  0  0  0
 49 72  1  0  0  0  0
 50 67  1  0  0  0  0
 51 66  1  0  0  0  0
 52 62  1  0  0  0  0
 53 63  1  0  0  0  0
 54 63  1  0  0  0  0
 55 63  1  0  0  0  0
 56 64  1  0  0  0  0
 57 64  1  0  0  0  0
 58 74  1  0  0  0  0
 59 64  1  0  0  0  0
 60 64  1  0  0  0  0
 60 82  1  0  0  0  0
 61 63  1  0  0  0  0
 61 73  1  0  0  0  0
 62 74  1  0  0  0  0
 65 66  1  0  0  0  0
M  CHG  1  74   1
M  ISO  4  39 100  60 101  71 100  82 101
M  END
> <Batch ID>
0138

> <Smiles>
CNC(C)C(=O)NC(C(=O)N1Cc2cc([101O:1][101CH2:1]C(C)(C)CC(=O)c3cccc([100NH:0][100C:0](=O)N4CCCC(n5nc(-c6ccc(Oc7ccc(F)cc7F)cc6)c(C(N)=O)c5N)C4)c3)ccc2CC1C(=O)NC1CCCc2ccccc21)C(C)(C)C

> <Shape>
0.301

> <Color>
0.089

> <Negative vol penalty>
0.000

$$$$

  -OEChem-04052302453D

 84 92  0     1  0  0  0  0  0999 V2000
  -26.1209  -11.6091   21.0918 C   0  0  0  0  0  0  0  0  0  0  0  0
  -26.7502  -12.8493   21.1271 C   0  0  0  0  0  0  0  0  0  0  0  0
  -29.7419  -20.1162   17.9981 C   0  0  0  0  0  0  0  0  0  0  0  0
  -28.3941  -20.2219   20.0004 C   0  0  0  0  0  0  0  0  0  0  0  0
  -24.7995  -11.5112   20.6577 C   0  0  0  0  0  0  0  0  0  0  0  0
  -26.0587  -13.9923   20.7273 C   0  0  0  0  0  0  0  0  0  0  0  0
  -25.5527  -20.9948   22.1507 C   0  0  0  0  0  0  0  0  0  0  0  0
  -24.9076  -31.2531   21.8293 C   0  0  0  0  0  0  0  0  0  0  0  0
  -25.9443  -30.4827   21.3028 C   0  0  0  0  0  0  0  0  0  0  0  0
  -30.1451  -18.8249   18.3376 C   0  0  0  0  0  0  0  0  0  0  0  0
  -28.7973  -18.9305   20.3400 C   0  0  0  0  0  0  0  0  0  0  0  0
  -25.5903  -22.2304   21.5060 C   0  0  0  0  0  0  0  0  0  0  0  0
  -29.7533  -15.7992   21.9182 C   0  0  0  0  0  0  0  0  0  0  0  0
  -30.1311  -15.5645   23.2402 C   0  0  0  0  0  0  0  0  0  0  0  0
  -23.2858  -21.9515   20.8499 C   0  0  0  0  0  0  0  0  0  0  0  0
  -31.8875  -17.2102   23.0305 C   0  0  0  0  0  0  0  0  0  0  0  0
  -28.8664  -20.8148   18.8295 C   0  0  0  0  0  0  0  0  0  0  0  0
  -27.3313  -22.5154   17.7075 C   0  0  0  0  0  0  0  0  0  0  0  0
  -24.0885  -12.6549   20.2616 C   0  0  0  0  0  0  0  0  0  0  0  0
  -24.3826  -20.2220   22.1405 C   0  0  0  0  0  0  0  0  0  0  0  0
  -24.7271  -13.9095   20.2863 C   0  0  0  0  0  0  0  0  0  0  0  0
  -23.2351  -20.7076   21.4974 C   0  0  0  0  0  0  0  0  0  0  0  0
  -23.5825  -30.9401   21.5260 C   0  0  0  0  0  0  0  0  0  0  0  0
  -23.2943  -29.8567   20.6960 C   0  0  0  0  0  0  0  0  0  0  0  0
  -25.6561  -29.3993   20.4729 C   0  0  0  0  0  0  0  0  0  0  0  0
  -29.6728  -18.2320   19.5086 C   0  0  0  0  0  0  0  0  0  0  0  0
  -24.4576  -22.7076   20.8530 C   0  0  0  0  0  0  0  0  0  0  0  0
  -30.4427  -16.7393   21.1522 C   0  0  0  0  0  0  0  0  0  0  0  0
  -24.3310  -29.0862   20.1695 C   0  0  0  0  0  0  0  0  0  0  0  0
  -31.1981  -16.2700   23.7964 C   0  0  0  0  0  0  0  0  0  0  0  0
  -31.5097  -17.4448   21.7084 C   0  0  0  0  0  0  0  0  0  0  0  0
  -28.4500  -22.1491   18.4796 C   0  0  0  0  0  0  0  0  0  0  0  0
  -27.3768  -23.8876   17.6667 C   0  0  0  0  0  0  0  0  0  0  0  0
  -26.3397  -21.6893   17.0831 C   0  0  0  0  0  0  0  0  0  0  0  0
  -23.6007  -17.3503   21.0243 C   0  0  0  0  0  0  0  0  0  0  0  0
  -20.7998  -17.9512   22.5462 C   0  0  0  0  0  0  0  0  0  0  0  0
  -18.6158  -20.2596   23.7906 C   0  0  0  0  0  0  0  0  0  0  0  0
  -28.0866  -28.8140   20.1625 C   0  0  0  0  0  0  0  0  0  0  0  0
  -22.6771  -12.4930   19.7551 C   0  0  0  0  0  0  0  0  0  0  0  0
  -24.3503  -18.9034   22.8634 C   0  0  0  0  0  0  0  0  0  0  0  0
  -21.9480  -19.9257   21.4746 C   0  0  0  0  0  0  0  0  0  0  0  0
  -21.8944  -13.8026   19.7038 C   0  0  0  0  0  0  0  0  0  0  0  0
  -31.0180  -27.1063   19.0820 C   0  0  0  0  0  0  0  0  0  0  0  0
  -22.7356  -14.9026   19.0641 C   0  0  0  0  0  0  0  0  0  0  0  0
  -30.5192  -25.6945   18.7654 C   0  0  0  0  0  0  0  0  0  0  0  0
  -30.3045  -27.7012   20.2947 C   0  0  0  0  0  0  0  0  0  0  0  0
  -28.3391  -26.2670   19.9084 C   0  0  0  0  0  0  0  0  0  0  0  0
  -24.0024  -15.1757   19.8841 C   0  0  1  0  0  0  0  0  0  0  0  0
  -23.2597  -17.9677   22.3511 C   0  0  1  0  0  0  0  0  0  0  0  0
  -28.9825  -25.6513   18.6551 C   0  0  2  0  0  0  0  0  0  0  0  0
  -22.4906  -31.7802   22.1026 C   0  0  0  0  0  0  0  0  0  0  0  0
  -21.4813  -29.9693   18.9677 C   0  0  0  0  0  0  0  0  0  0  0  0
  -16.3950  -20.4493   24.9437 C   0  0  0  0  0  0  0  0  0  0  0  0
  -19.3832  -17.3467   19.9123 C   0  0  0  0  0  0  0  0  0  0  0  0
  -17.3368  -18.4514   20.8397 C   0  0  0  0  0  0  0  0  0  0  0  0
  -18.2581  -16.4113   21.9405 C   0  0  0  0  0  0  0  0  0  0  0  0
  -19.8222  -21.5802   26.1485 C   0  0  0  0  0  0  0  0  0  0  0  0
  -21.8746  -29.5172   20.3699 C   0  0  0  0  0  0  0  0  0  0  0  0
  -23.5085  -25.7098   18.9471 C   0  0  0  0  0  0  0  0  0  0  0  0
  -23.2951  -24.3406   19.5733 C   0  0  0  0  0  0  0  0  0  1  0  0
  -23.8617  -26.7620   19.9866 C   0  0  0  0  0  0  0  0  0  0  0  0
  -19.4941  -18.6055   22.1637 C   0  0  1  0  0  0  0  0  0  0  0  0
  -17.9016  -20.3528   25.1269 C   0  0  2  0  0  0  0  0  0  0  0  0
  -18.6427  -17.7178   21.2126 C   0  0  0  0  0  0  0  0  0  0  0  0
  -29.1547  -23.2034   18.8989 N   0  0  0  0  0  0  0  0  0  0  0  0
  -28.4772  -24.2457   18.3884 N   0  0  0  0  0  0  0  0  0  0  0  0
  -21.9684  -18.6393   22.1903 N   0  0  0  0  0  0  0  0  0  0  0  0
  -28.8525  -27.6299   20.1175 N   0  0  0  0  0  0  0  0  0  0  0  0
  -26.5824  -24.8106   17.0841 N   0  0  0  0  0  0  0  0  0  0  0  0
  -26.4427  -20.2988   17.2250 N   0  0  0  0  0  0  0  0  0  0  0  0
  -26.7215  -28.6262   19.9485 N   0  0  0  0  0  0  0  0  0  0  0  0
  -23.6873  -15.9715   21.0510 N   0  0  0  0  0  0  0  0  0  0  0  0
  -18.8281  -18.9500   23.4152 N   0  0  0  0  0  0  0  0  0  0  0  0
  -18.3618  -21.5553   25.8774 N   0  3  0  0  0  0  0  0  0  0  0  0
  -25.3996  -22.1692   16.4053 O   0  0  0  0  0  0  0  0  0  0  0  0
  -23.7710  -18.0715   20.0483 O   0  0  0  0  0  0  0  0  0  0  0  0
  -20.7832  -16.8731   23.1453 O   0  0  0  0  0  0  0  0  0  0  0  0
  -18.9484  -21.2496   23.1427 O   0  0  0  0  0  0  0  0  0  0  0  0
  -28.6072  -29.9169   20.3482 O   0  0  0  0  0  0  0  0  0  0  0  0
  -30.0659  -16.9718   19.8401 O   0  0  0  0  0  0  0  0  0  0  0  0
  -24.4918  -23.9130   20.2224 O   0  0  0  0  0  0  0  0  0  1  0  0
  -24.0463  -28.0215   19.3547 O   0  0  0  0  0  0  0  0  0  0  0  0
  -31.5598  -16.0456   25.0664 F   0  0  0  0  0  0  0  0  0  0  0  0
  -32.1750  -18.3501   20.9779 F   0  0  0  0  0  0  0  0  0  0  0  0
  1  2  1  0  0  0  0
  1  5  2  0  0  0  0
  2  6  2  0  0  0  0
  3 10  2  0  0  0  0
  3 17  1  0  0  0  0
  4 11  1  0  0  0  0
  4 17  2  0  0  0  0
  5 19  1  0  0  0  0
  6 21  1  0  0  0  0
  7 12  2  0  0  0  0
  7 20  1  0  0  0  0
  8  9  1  0  0  0  0
  8 23  2  0  0  0  0
  9 25  2  0  0  0  0
 10 26  1  0  0  0  0
 11 26  2  0  0  0  0
 12 27  1  0  0  0  0
 13 14  2  0  0  0  0
 13 28  1  0  0  0  0
 14 30  1  0  0  0  0
 15 22  1  0  0  0  0
 15 27  2  0  0  0  0
 16 30  2  0  0  0  0
 16 31  1  0  0  0  0
 17 32  1  0  0  0  0
 18 32  1  0  0  0  0
 18 33  2  0  0  0  0
 18 34  1  0  0  0  0
 19 21  2  0  0  0  0
 19 39  1  0  0  0  0
 20 22  2  0  0  0  0
 20 40  1  0  0  0  0
 21 48  1  0  0  0  0
 22 41  1  0  0  0  0
 23 24  1  0  0  0  0
 23 51  1  0  0  0  0
 24 29  2  0  0  0  0
 24 58  1  0  0  0  0
 25 29  1  0  0  0  0
 25 71  1  0  0  0  0
 26 80  1  0  0  0  0
 27 81  1  0  0  0  0
 28 31  2  0  0  0  0
 28 80  1  0  0  0  0
 29 82  1  0  0  0  0
 30 83  1  0  0  0  0
 31 84  1  0  0  0  0
 32 65  2  0  0  0  0
 33 66  1  0  0  0  0
 33 69  1  0  0  0  0
 34 70  1  0  0  0  0
 34 75  2  0  0  0  0
 35 49  1  0  0  0  0
 35 72  1  0  0  0  0
 35 76  2  0  0  0  0
 36 62  1  0  0  0  0
 36 67  1  0  0  0  0
 36 77  2  0  0  0  0
 37 63  1  0  0  0  0
 37 73  1  0  0  0  0
 37 78  2  0  0  0  0
 38 68  1  0  0  0  0
 38 71  1  0  0  0  0
 38 79  2  0  0  0  0
 39 42  1  0  0  0  0
 40 49  1  0  0  0  0
 41 67  1  0  0  0  0
 42 44  1  0  0  0  0
 43 45  1  0  0  0  0
 43 46  1  0  0  0  0
 44 48  1  0  0  0  0
 45 50  1  0  0  0  0
 46 68  1  0  0  0  0
 47 50  1  0  0  0  0
 47 68  1  0  0  0  0
 48 72  1  0  0  0  0
 49 67  1  0  0  0  0
 50 66  1  0  0  0  0
 52 58  1  0  0  0  0
 53 63  1  0  0  0  0
 54 64  1  0  0  0  0
 55 64  1  0  0  0  0
 56 64  1  0  0  0  0
 57 74  1  0  0  0  0
 59 60  1  0  0  0  0
 59 61  1  0  0  0  0
 60 81  1  0  0  0  0
 61 82  1  0  0  0  0
 62 64  1  0  0  0  0
 62 73  1  0  0  0  0
 63 74  1  0  0  0  0
 65 66  1  0  0  0  0
M  CHG  1  74   1
M  ISO  4  38 100  60 101  71 100  81 101
M  END
> <Batch ID>
0138

> <Smiles>
CCc1c(C)ccc([100NH:0][100C:0](=O)N2CCCC(n3nc(-c4ccc(Oc5ccc(F)cc5F)cc4)c(C(N)=O)c3N)C2)c1OCC[101CH2:1][101O:1]c1ccc2c(c1)CN(C(=O)C(NC(=O)C(C)NC)C(C)(C)C)C(C(=O)NC1CCCc3ccccc31)C2

> <Shape>
0.213

> <Color>
0.065

> <Negative vol penalty>
0.000

$$$$

  -OEChem-04052302453D

 86 94  0     1  0  0  0  0  0999 V2000
  -28.7317  -23.7393   17.3622 C   0  0  0  0  0  0  0  0  0  0  0  0
  -27.5572  -23.8895   18.0925 C   0  0  0  0  0  0  0  0  0  0  0  0
  -26.4126  -13.1255   21.2581 C   0  0  0  0  0  0  0  0  0  0  0  0
  -24.5193  -13.5279   19.8122 C   0  0  0  0  0  0  0  0  0  0  0  0
  -29.8822  -24.4274   17.7454 C   0  0  0  0  0  0  0  0  0  0  0  0
  -27.5328  -24.7270   19.2071 C   0  0  0  0  0  0  0  0  0  0  0  0
  -23.4243  -27.6854   19.3247 C   0  0  0  0  0  0  0  0  0  0  0  0
  -25.8257  -11.9385   21.6964 C   0  0  0  0  0  0  0  0  0  0  0  0
  -23.9324  -12.3408   20.2505 C   0  0  0  0  0  0  0  0  0  0  0  0
  -22.2309  -27.1011   19.7466 C   0  0  0  0  0  0  0  0  0  0  0  0
  -24.2587   -9.0317   19.6470 C   0  0  0  0  0  0  0  0  0  0  0  0
  -23.7020   -8.1914   18.6830 C   0  0  0  0  0  0  0  0  0  0  0  0
  -22.5370  -28.0699   21.9345 C   0  0  0  0  0  0  0  0  0  0  0  0
  -21.6029  -21.0223   18.5934 C   0  0  0  0  0  0  0  0  0  0  0  0
  -21.9286  -22.6249   20.3718 C   0  0  0  0  0  0  0  0  0  0  0  0
  -21.5450   -8.3935   19.7524 C   0  0  0  0  0  0  0  0  0  0  0  0
  -25.7594  -13.9202   20.3161 C   0  0  0  0  0  0  0  0  0  0  0  0
  -19.8502  -22.5925   19.1405 C   0  0  0  0  0  0  0  0  0  0  0  0
  -27.2353  -15.3120   18.7693 C   0  0  0  0  0  0  0  0  0  0  0  0
  -29.8693  -25.2812   18.8596 C   0  0  0  0  0  0  0  0  0  0  0  0
  -24.1899  -28.4586   20.2092 C   0  0  0  0  0  0  0  0  0  0  0  0
  -28.6845  -25.4261   19.6064 C   0  0  0  0  0  0  0  0  0  0  0  0
  -23.7385  -28.6650   21.5206 C   0  0  0  0  0  0  0  0  0  0  0  0
  -20.3259  -21.5348   18.3654 C   0  0  0  0  0  0  0  0  0  0  0  0
  -22.4043  -21.5673   19.5967 C   0  0  0  0  0  0  0  0  0  0  0  0
  -24.5856  -11.5461   21.1925 C   0  0  0  0  0  0  0  0  0  0  0  0
  -21.7884  -27.2909   21.0524 C   0  0  0  0  0  0  0  0  0  0  0  0
  -23.4586   -9.5529   20.6639 C   0  0  0  0  0  0  0  0  0  0  0  0
  -20.6516  -23.1375   20.1437 C   0  0  0  0  0  0  0  0  0  0  0  0
  -22.3451   -7.8723   18.7356 C   0  0  0  0  0  0  0  0  0  0  0  0
  -22.1018   -9.2338   20.7165 C   0  0  0  0  0  0  0  0  0  0  0  0
  -26.3649  -15.1468   19.8634 C   0  0  0  0  0  0  0  0  0  0  0  0
  -27.5257  -16.6544   18.7612 C   0  0  0  0  0  0  0  0  0  0  0  0
  -18.5161  -23.1344   18.9059 C   0  0  0  0  0  0  0  0  0  0  0  0
  -27.7364  -14.3390   17.8431 C   0  0  0  0  0  0  0  0  0  0  0  0
  -27.1203  -28.2392   21.4209 C   0  0  0  0  0  0  0  0  0  0  0  0
  -26.4119  -31.1587   22.6444 C   0  0  0  0  0  0  0  0  0  0  0  0
  -24.0196  -33.3859   23.6258 C   0  0  0  0  0  0  0  0  0  0  0  0
  -24.6245  -21.4710   20.7833 C   0  0  0  0  0  0  0  0  0  0  0  0
  -31.1503  -25.9674   19.2633 C   0  0  0  0  0  0  0  0  0  0  0  0
  -25.4615  -29.1041   19.7309 C   0  0  0  0  0  0  0  0  0  0  0  0
  -24.5132  -29.5032   22.5033 C   0  0  0  0  0  0  0  0  0  0  0  0
  -30.9408  -27.1257   20.2352 C   0  0  0  0  0  0  0  0  0  0  0  0
  -27.9029  -20.4220   21.6934 C   0  0  0  0  0  0  0  0  0  0  0  0
  -29.9937  -26.7154   21.3584 C   0  0  0  0  0  0  0  0  0  0  0  0
  -27.9619  -18.9670   21.2224 C   0  0  0  0  0  0  0  0  0  0  0  0
  -26.5219  -20.7873   22.2349 C   0  0  0  0  0  0  0  0  0  0  0  0
  -25.4620  -19.0402   20.8587 C   0  0  0  0  0  0  0  0  0  0  0  0
  -28.6117  -26.3446   20.8069 C   0  0  1  0  0  0  0  0  0  0  0  0
  -26.4209  -29.4478   20.8661 C   0  0  1  0  0  0  0  0  0  0  0  0
  -26.8148  -18.6442   20.2449 C   0  0  2  0  0  0  0  0  0  0  0  0
  -19.4899  -20.9305   17.2846 C   0  0  0  0  0  0  0  0  0  0  0  0
  -17.3801  -22.5224   19.6687 C   0  0  0  0  0  0  0  0  0  0  0  0
  -23.7474  -35.6740   24.6199 C   0  0  0  0  0  0  0  0  0  0  0  0
  -18.1678  -25.5331   22.5057 C   0  0  0  0  0  0  0  0  0  0  0  0
  -27.1692  -30.0548   25.3863 C   0  0  0  0  0  0  0  0  0  0  0  0
  -25.9985  -32.0116   26.4202 C   0  0  0  0  0  0  0  0  0  0  0  0
  -27.9722  -32.3809   24.9400 C   0  0  0  0  0  0  0  0  0  0  0  0
  -22.5634  -34.3734   21.2461 C   0  0  0  0  0  0  0  0  0  0  0  0
  -20.5278  -26.3711   22.8470 C   0  0  0  0  0  0  0  0  0  1  0  0
  -20.1276  -23.9478   22.3174 C   0  0  0  0  0  0  0  0  0  0  0  0
  -25.7752  -31.6579   23.9190 C   0  0  1  0  0  0  0  0  0  0  0  0
  -23.8407  -34.8652   23.3354 C   0  0  2  0  0  0  0  0  0  0  0  0
  -19.5704  -25.1886   23.0211 C   0  0  2  0  0  0  0  0  0  0  0  0
  -26.7150  -31.5089   25.1487 C   0  0  0  0  0  0  0  0  0  0  0  0
  -26.1187  -16.2927   20.5040 N   0  0  0  0  0  0  0  0  0  0  0  0
  -26.8387  -17.1908   19.8103 N   0  0  0  0  0  0  0  0  0  0  0  0
  -25.7534  -30.1081   21.9898 N   0  0  0  0  0  0  0  0  0  0  0  0
  -25.4861  -20.4574   21.2535 N   0  0  0  0  0  0  0  0  0  0  0  0
  -28.2993  -17.4165   17.9592 N   0  0  0  0  0  0  0  0  0  0  0  0
  -27.3374  -13.0041   17.9954 N   0  0  0  0  0  0  0  0  0  0  0  0
  -23.7012  -21.0458   19.8285 N   0  0  0  0  0  0  0  0  0  0  0  0
  -27.8585  -27.5381   20.4865 N   0  0  0  0  0  0  0  0  0  0  0  0
  -25.3510  -33.0283   23.6538 N   0  0  0  0  0  0  0  0  0  0  0  0
  -22.5969  -35.0914   22.5462 N   0  3  0  0  0  0  0  0  0  0  0  0
  -18.2578  -24.0505   18.1266 O   0  0  0  0  0  0  0  0  0  0  0  0
  -28.5279  -14.6415   16.9182 O   0  0  0  0  0  0  0  0  0  0  0  0
  -27.0004  -27.9640   22.6090 O   0  0  0  0  0  0  0  0  0  0  0  0
  -27.4512  -31.6864   22.2406 O   0  0  0  0  0  0  0  0  0  0  0  0
  -23.0731  -32.6246   23.8131 O   0  0  0  0  0  0  0  0  0  0  0  0
  -24.7178  -22.6364   21.1770 O   0  0  0  0  0  0  0  0  0  0  0  0
  -24.0127  -10.3877   21.6198 O   0  0  0  0  0  0  0  0  0  0  0  0
  -20.6242  -26.7212   21.4670 O   0  0  0  0  0  0  0  0  0  1  0  0
  -20.2040  -24.1771   20.9165 O   0  0  0  0  0  0  0  0  0  0  0  0
  -21.8103   -7.0665   17.8089 F   0  0  0  0  0  0  0  0  0  0  0  0
  -21.3279   -9.7324   21.6903 F   0  0  0  0  0  0  0  0  0  0  0  0
  1  2  1  0  0  0  0
  1  5  2  0  0  0  0
  2  6  2  0  0  0  0
  3  8  2  0  0  0  0
  3 17  1  0  0  0  0
  4  9  1  0  0  0  0
  4 17  2  0  0  0  0
  5 20  1  0  0  0  0
  6 22  1  0  0  0  0
  7 10  2  0  0  0  0
  7 21  1  0  0  0  0
  8 26  1  0  0  0  0
  9 26  2  0  0  0  0
 10 27  1  0  0  0  0
 11 12  2  0  0  0  0
 11 28  1  0  0  0  0
 12 30  1  0  0  0  0
 13 23  1  0  0  0  0
 13 27  2  0  0  0  0
 14 24  2  0  0  0  0
 14 25  1  0  0  0  0
 15 25  2  0  0  0  0
 15 29  1  0  0  0  0
 16 30  2  0  0  0  0
 16 31  1  0  0  0  0
 17 32  1  0  0  0  0
 18 24  1  0  0  0  0
 18 29  2  0  0  0  0
 18 34  1  0  0  0  0
 19 32  1  0  0  0  0
 19 33  2  0  0  0  0
 19 35  1  0  0  0  0
 20 22  2  0  0  0  0
 20 40  1  0  0  0  0
 21 23  2  0  0  0  0
 21 41  1  0  0  0  0
 22 49  1  0  0  0  0
 23 42  1  0  0  0  0
 24 52  1  0  0  0  0
 25 72  1  0  0  0  0
 26 82  1  0  0  0  0
 27 83  1  0  0  0  0
 28 31  2  0  0  0  0
 28 82  1  0  0  0  0
 29 84  1  0  0  0  0
 30 85  1  0  0  0  0
 31 86  1  0  0  0  0
 32 66  2  0  0  0  0
 33 67  1  0  0  0  0
 33 70  1  0  0  0  0
 34 53  1  0  0  0  0
 34 76  2  0  0  0  0
 35 71  1  0  0  0  0
 35 77  2  0  0  0  0
 36 50  1  0  0  0  0
 36 73  1  0  0  0  0
 36 78  2  0  0  0  0
 37 62  1  0  0  0  0
 37 68  1  0  0  0  0
 37 79  2  0  0  0  0
 38 63  1  0  0  0  0
 38 74  1  0  0  0  0
 38 80  2  0  0  0  0
 39 69  1  0  0  0  0
 39 72  1  0  0  0  0
 39 81  2  0  0  0  0
 40 43  1  0  0  0  0
 41 50  1  0  0  0  0
 42 68  1  0  0  0  0
 43 45  1  0  0  0  0
 44 46  1  0  0  0  0
 44 47  1  0  0  0  0
 45 49  1  0  0  0  0
 46 51  1  0  0  0  0
 47 69  1  0  0  0  0
 48 51  1  0  0  0  0
 48 69  1  0  0  0  0
 49 73  1  0  0  0  0
 50 68  1  0  0  0  0
 51 67  1  0  0  0  0
 54 63  1  0  0  0  0
 55 64  1  0  0  0  0
 56 65  1  0  0  0  0
 57 65  1  0  0  0  0
 58 65  1  0  0  0  0
 59 75  1  0  0  0  0
 60 64  1  0  0  0  0
 60 83  1  0  0  0  0
 61 64  1  0  0  0  0
 61 84  1  0  0  0  0
 62 65  1  0  0  0  0
 62 74  1  0  0  0  0
 63 75  1  0  0  0  0
 66 67  1  0  0  0  0
M  CHG  1  75   1
M  ISO  4  39 100  60 101  72 100  83 101
M  END
> <Batch ID>
0138

> <Smiles>
CNC(C)C(=O)NC(C(=O)N1Cc2cc([101O:1][101CH2:1]C(C)COc3cc([100NH:0][100C:0](=O)N4CCCC(n5nc(-c6ccc(Oc7ccc(F)cc7F)cc6)c(C(N)=O)c5N)C4)cc(C)c3C(C)=O)ccc2CC1C(=O)NC1CCCc2ccccc21)C(C)(C)C

> <Shape>
0.275

> <Color>
0.066

> <Negative vol penalty>
0.000

$$$$

  -OEChem-04052302453D

 85 93  0     1  0  0  0  0  0999 V2000
  -24.0127   -7.9944   21.7034 C   0  0  0  0  0  0  0  0  0  0  0  0
  -24.6384   -9.0593   21.0631 C   0  0  0  0  0  0  0  0  0  0  0  0
  -22.0353  -28.3982   21.3046 C   0  0  0  0  0  0  0  0  0  0  0  0
  -22.9771  -27.3745   23.2800 C   0  0  0  0  0  0  0  0  0  0  0  0
  -22.6807   -8.1062   22.0998 C   0  0  0  0  0  0  0  0  0  0  0  0
  -23.9320  -10.2363   20.8180 C   0  0  0  0  0  0  0  0  0  0  0  0
  -26.6069  -14.3815   21.9617 C   0  0  0  0  0  0  0  0  0  0  0  0
  -20.7595  -28.2937   21.8586 C   0  0  0  0  0  0  0  0  0  0  0  0
  -21.7012  -27.2701   23.8341 C   0  0  0  0  0  0  0  0  0  0  0  0
  -27.5799  -14.7836   21.0478 C   0  0  0  0  0  0  0  0  0  0  0  0
  -18.8959  -29.9414   24.1488 C   0  0  0  0  0  0  0  0  0  0  0  0
  -18.0569  -31.0520   24.0580 C   0  0  0  0  0  0  0  0  0  0  0  0
  -26.0669  -16.4497   20.1792 C   0  0  0  0  0  0  0  0  0  0  0  0
  -29.2540  -22.2208   22.8312 C   0  0  0  0  0  0  0  0  0  0  0  0
  -29.4975  -20.9692   20.7791 C   0  0  0  0  0  0  0  0  0  0  0  0
  -16.4538  -29.7393   22.8154 C   0  0  0  0  0  0  0  0  0  0  0  0
  -23.1441  -27.9385   22.0153 C   0  0  0  0  0  0  0  0  0  0  0  0
  -25.3604  -29.1219   21.5730 C   0  0  0  0  0  0  0  0  0  0  0  0
  -21.9605   -9.2887   21.8680 C   0  0  0  0  0  0  0  0  0  0  0  0
  -25.3506  -15.0042   21.9840 C   0  0  0  0  0  0  0  0  0  0  0  0
  -22.5887  -10.3636   21.2105 C   0  0  0  0  0  0  0  0  0  0  0  0
  -25.0806  -16.0553   21.0961 C   0  0  0  0  0  0  0  0  0  0  0  0
  -29.6338  -21.0955   23.5626 C   0  0  0  0  0  0  0  0  0  0  0  0
  -29.9456  -19.9070   22.9023 C   0  0  0  0  0  0  0  0  0  0  0  0
  -29.1857  -22.1576   21.4394 C   0  0  0  0  0  0  0  0  0  0  0  0
  -29.8774  -19.8439   21.5105 C   0  0  0  0  0  0  0  0  0  0  0  0
  -20.5925  -27.7297   23.1234 C   0  0  0  0  0  0  0  0  0  0  0  0
  -27.3090  -15.8159   20.1544 C   0  0  0  0  0  0  0  0  0  0  0  0
  -18.5139  -28.7298   23.5728 C   0  0  0  0  0  0  0  0  0  0  0  0
  -16.8358  -30.9509   23.3913 C   0  0  0  0  0  0  0  0  0  0  0  0
  -17.2929  -28.6287   22.9061 C   0  0  0  0  0  0  0  0  0  0  0  0
  -24.4622  -28.0456   21.4432 C   0  0  0  0  0  0  0  0  0  0  0  0
  -26.4630  -28.7381   20.8495 C   0  0  0  0  0  0  0  0  0  0  0  0
  -25.2113  -30.3580   22.2840 C   0  0  0  0  0  0  0  0  0  0  0  0
  -22.3602  -14.0398   21.5031 C   0  0  0  0  0  0  0  0  0  0  0  0
  -21.6470  -17.0596   22.4490 C   0  0  0  0  0  0  0  0  0  0  0  0
  -22.6559  -20.3013   22.7963 C   0  0  0  0  0  0  0  0  0  0  0  0
  -28.6832  -23.4081   19.3110 C   0  0  0  0  0  0  0  0  0  0  0  0
  -20.5086   -9.3454   22.2724 C   0  0  0  0  0  0  0  0  0  0  0  0
  -24.3212  -14.5766   22.9939 C   0  0  0  0  0  0  0  0  0  0  0  0
  -23.7548  -16.7699   21.0930 C   0  0  0  0  0  0  0  0  0  0  0  0
  -19.9420  -10.7624   22.3109 C   0  0  0  0  0  0  0  0  0  0  0  0
  -27.7297  -26.0350   17.1047 C   0  0  0  0  0  0  0  0  0  0  0  0
  -20.3393  -11.5305   21.0543 C   0  0  0  0  0  0  0  0  0  0  0  0
  -26.8703  -26.9498   17.9804 C   0  0  0  0  0  0  0  0  0  0  0  0
  -27.5164  -24.5609   17.4443 C   0  0  0  0  0  0  0  0  0  0  0  0
  -26.8253  -25.1346   19.7383 C   0  0  0  0  0  0  0  0  0  0  0  0
  -21.8632  -11.6656   20.9490 C   0  0  1  0  0  0  0  0  0  0  0  0
  -22.8964  -14.9358   22.5835 C   0  0  1  0  0  0  0  0  0  0  0  0
  -27.0541  -26.6324   19.4774 C   0  0  2  0  0  0  0  0  0  0  0  0
  -29.6976  -21.1894   25.0520 C   0  0  0  0  0  0  0  0  0  0  0  0
  -29.2254  -17.6820   23.8061 C   0  0  0  0  0  0  0  0  0  0  0  0
  -21.8401  -22.5467   23.5642 C   0  0  0  0  0  0  0  0  0  0  0  0
  -30.4002  -16.9684   17.4211 C   0  0  0  0  0  0  0  0  0  0  0  0
  -20.0329  -17.3504   19.8760 C   0  0  0  0  0  0  0  0  0  0  0  0
  -20.0488  -19.8291   20.2285 C   0  0  0  0  0  0  0  0  0  0  0  0
  -18.9524  -18.3400   21.9028 C   0  0  0  0  0  0  0  0  0  0  0  0
  -24.7287  -20.4632   24.9026 C   0  0  0  0  0  0  0  0  0  0  0  0
  -30.3527  -18.7018   23.6905 C   0  0  0  0  0  0  0  0  0  0  0  0
  -30.1337  -18.5383   19.3997 C   0  0  0  0  0  0  0  0  0  0  0  0
  -29.6208  -16.0613   19.6529 C   0  0  0  0  0  0  0  0  0  1  0  0
  -21.4756  -18.3865   21.7498 C   0  0  1  0  0  0  0  0  0  0  0  0
  -22.5583  -21.2670   23.9634 C   0  0  2  0  0  0  0  0  0  0  0  0
  -30.4825  -17.1142   18.9447 C   0  0  1  0  0  0  0  0  0  0  0  0
  -20.1518  -18.4619   20.9378 C   0  0  0  0  0  0  0  0  0  0  0  0
  -24.9518  -27.0527   20.6959 N   0  0  0  0  0  0  0  0  0  0  0  0
  -26.1695  -27.5035   20.3496 N   0  0  0  0  0  0  0  0  0  0  0  0
  -22.7786  -16.3113   22.0951 N   0  0  0  0  0  0  0  0  0  0  0  0
  -27.7112  -24.3347   18.8781 N   0  0  0  0  0  0  0  0  0  0  0  0
  -27.6452  -29.3396   20.5985 N   0  0  0  0  0  0  0  0  0  0  0  0
  -24.0143  -30.5913   22.9747 N   0  0  0  0  0  0  0  0  0  0  0  0
  -28.8013  -23.3012   20.6963 N   0  0  0  0  0  0  0  0  0  0  0  0
  -30.1834  -18.6725   20.8366 N   0  0  0  0  0  0  0  0  0  0  0  0
  -22.3417  -12.7001   21.8409 N   0  0  0  0  0  0  0  0  0  0  0  0
  -21.6033  -19.4107   22.7809 N   0  0  0  0  0  0  0  0  0  0  0  0
  -23.9190  -21.6253   24.4545 N   0  3  0  0  0  0  0  0  0  0  0  0
  -26.1065  -31.2367   22.2926 O   0  0  0  0  0  0  0  0  0  0  0  0
  -21.9893  -14.5281   20.4420 O   0  0  0  0  0  0  0  0  0  0  0  0
  -20.8115  -16.7035   23.2837 O   0  0  0  0  0  0  0  0  0  0  0  0
  -23.5721  -20.3359   21.9779 O   0  0  0  0  0  0  0  0  0  0  0  0
  -29.3798  -22.7773   18.5117 O   0  0  0  0  0  0  0  0  0  0  0  0
  -19.3477  -27.6279   23.6645 O   0  0  0  0  0  0  0  0  0  0  0  0
  -28.2568  -16.2099   19.2609 O   0  0  0  0  0  0  0  0  0  1  0  0
  -16.0295  -32.0170   23.3056 F   0  0  0  0  0  0  0  0  0  0  0  0
  -16.9200  -27.4670   22.3518 F   0  0  0  0  0  0  0  0  0  0  0  0
  1  2  1  0  0  0  0
  1  5  2  0  0  0  0
  2  6  2  0  0  0  0
  3  8  2  0  0  0  0
  3 17  1  0  0  0  0
  4  9  1  0  0  0  0
  4 17  2  0  0  0  0
  5 19  1  0  0  0  0
  6 21  1  0  0  0  0
  7 10  2  0  0  0  0
  7 20  1  0  0  0  0
  8 27  1  0  0  0  0
  9 27  2  0  0  0  0
 10 28  1  0  0  0  0
 11 12  2  0  0  0  0
 11 29  1  0  0  0  0
 12 30  1  0  0  0  0
 13 22  1  0  0  0  0
 13 28  2  0  0  0  0
 14 23  2  0  0  0  0
 14 25  1  0  0  0  0
 15 25  2  0  0  0  0
 15 26  1  0  0  0  0
 16 30  2  0  0  0  0
 16 31  1  0  0  0  0
 17 32  1  0  0  0  0
 18 32  1  0  0  0  0
 18 33  2  0  0  0  0
 18 34  1  0  0  0  0
 19 21  2  0  0  0  0
 19 39  1  0  0  0  0
 20 22  2  0  0  0  0
 20 40  1  0  0  0  0
 21 48  1  0  0  0  0
 22 41  1  0  0  0  0
 23 24  1  0  0  0  0
 23 51  1  0  0  0  0
 24 26  2  0  0  0  0
 24 59  1  0  0  0  0
 25 72  1  0  0  0  0
 26 73  1  0  0  0  0
 27 82  1  0  0  0  0
 28 83  1  0  0  0  0
 29 31  2  0  0  0  0
 29 82  1  0  0  0  0
 30 84  1  0  0  0  0
 31 85  1  0  0  0  0
 32 66  2  0  0  0  0
 33 67  1  0  0  0  0
 33 70  1  0  0  0  0
 34 71  1  0  0  0  0
 34 77  2  0  0  0  0
 35 49  1  0  0  0  0
 35 74  1  0  0  0  0
 35 78  2  0  0  0  0
 36 62  1  0  0  0  0
 36 68  1  0  0  0  0
 36 79  2  0  0  0  0
 37 63  1  0  0  0  0
 37 75  1  0  0  0  0
 37 80  2  0  0  0  0
 38 69  1  0  0  0  0
 38 72  1  0  0  0  0
 38 81  2  0  0  0  0
 39 42  1  0  0  0  0
 40 49  1  0  0  0  0
 41 68  1  0  0  0  0
 42 44  1  0  0  0  0
 43 45  1  0  0  0  0
 43 46  1  0  0  0  0
 44 48  1  0  0  0  0
 45 50  1  0  0  0  0
 46 69  1  0  0  0  0
 47 50  1  0  0  0  0
 47 69  1  0  0  0  0
 48 74  1  0  0  0  0
 49 68  1  0  0  0  0
 50 67  1  0  0  0  0
 52 59  1  0  0  0  0
 53 63  1  0  0  0  0
 54 64  1  0  0  0  0
 55 65  1  0  0  0  0
 56 65  1  0  0  0  0
 57 65  1  0  0  0  0
 58 76  1  0  0  0  0
 60 64  1  0  0  0  0
 60 73  1  0  0  0  0
 61 64  1  0  0  0  0
 61 83  1  0  0  0  0
 62 65  1  0  0  0  0
 62 75  1  0  0  0  0
 63 76  1  0  0  0  0
 66 67  1  0  0  0  0
M  CHG  1  76   1
M  ISO  4  38 100  61 101  72 100  83 101
M  END
> <Batch ID>
0138

> <Smiles>
CCc1c(C)cc([100NH:0][100C:0](=O)N2CCCC(n3nc(-c4ccc(Oc5ccc(F)cc5F)cc4)c(C(N)=O)c3N)C2)cc1NCC(C)[101CH2:1][101O:1]c1ccc2c(c1)CN(C(=O)C(NC(=O)C(C)NC)C(C)(C)C)C(C(=O)NC1CCCc3ccccc31)C2

> <Shape>
0.247

> <Color>
0.086

> <Negative vol penalty>
0.000

$$$$

  -OEChem-04052302453D

 88 97  0     1  0  0  0  0  0999 V2000
  -28.2445  -35.7108   23.4442 C   0  0  0  0  0  0  0  0  0  0  0  0
  -28.4669  -34.3595   23.1992 C   0  0  0  0  0  0  0  0  0  0  0  0
  -23.1950  -10.1578   22.0290 C   0  0  0  0  0  0  0  0  0  0  0  0
  -24.6898   -8.6016   20.9423 C   0  0  0  0  0  0  0  0  0  0  0  0
  -27.0043  -36.1374   23.9173 C   0  0  0  0  0  0  0  0  0  0  0  0
  -27.4494  -33.4339   23.4282 C   0  0  0  0  0  0  0  0  0  0  0  0
  -26.9925  -30.0780   19.6634 C   0  0  0  0  0  0  0  0  0  0  0  0
  -22.1545   -9.2356   21.9186 C   0  0  0  0  0  0  0  0  0  0  0  0
  -23.6492   -7.6792   20.8319 C   0  0  0  0  0  0  0  0  0  0  0  0
  -27.9197  -29.0376   19.6218 C   0  0  0  0  0  0  0  0  0  0  0  0
  -21.4763   -4.7746   20.5877 C   0  0  0  0  0  0  0  0  0  0  0  0
  -21.7474   -3.4471   20.9191 C   0  0  0  0  0  0  0  0  0  0  0  0
  -28.3812  -20.7941   18.6182 C   0  0  0  0  0  0  0  0  0  0  0  0
  -26.3021  -27.5635   20.6365 C   0  0  0  0  0  0  0  0  0  0  0  0
  -26.8107  -22.2994   17.5268 C   0  0  0  0  0  0  0  0  0  0  0  0
  -22.3393   -4.1276   23.1605 C   0  0  0  0  0  0  0  0  0  0  0  0
  -24.4627   -9.8409   21.5408 C   0  0  0  0  0  0  0  0  0  0  0  0
  -26.4489  -10.9243   22.7193 C   0  0  0  0  0  0  0  0  0  0  0  0
  -25.9681  -35.2178   24.1430 C   0  0  0  0  0  0  0  0  0  0  0  0
  -25.7147  -29.8714   20.2028 C   0  0  0  0  0  0  0  0  0  0  0  0
  -26.1946  -33.8485   23.9060 C   0  0  0  0  0  0  0  0  0  0  0  0
  -27.5206  -19.7495   18.3300 C   0  0  0  0  0  0  0  0  0  0  0  0
  -25.3597  -28.6022   20.6815 C   0  0  0  0  0  0  0  0  0  0  0  0
  -26.3203  -19.9682   17.6488 C   0  0  0  0  0  0  0  0  0  0  0  0
  -25.9506  -21.2372   17.2398 C   0  0  0  0  0  0  0  0  0  0  0  0
  -28.0171  -22.0796   18.2116 C   0  0  0  0  0  0  0  0  0  0  0  0
  -22.3815   -7.9963   21.3201 C   0  0  0  0  0  0  0  0  0  0  0  0
  -27.5756  -27.7809   20.1110 C   0  0  0  0  0  0  0  0  0  0  0  0
  -21.6368   -5.7786   21.5427 C   0  0  0  0  0  0  0  0  0  0  0  0
  -22.1789   -3.1236   22.2055 C   0  0  0  0  0  0  0  0  0  0  0  0
  -22.0682   -5.4551   22.8291 C   0  0  0  0  0  0  0  0  0  0  0  0
  -25.5379  -10.7934   21.6541 C   0  0  0  0  0  0  0  0  0  0  0  0
  -27.2642  -11.9654   22.3479 C   0  0  0  0  0  0  0  0  0  0  0  0
  -26.5493  -10.1720   23.9357 C   0  0  0  0  0  0  0  0  0  0  0  0
  -24.0945  -31.0765   22.6577 C   0  0  0  0  0  0  0  0  0  0  0  0
  -21.6743  -29.2994   21.4301 C   0  0  0  0  0  0  0  0  0  0  0  0
  -28.6712  -24.5114   18.1687 C   0  0  0  0  0  0  0  0  0  0  0  0
  -20.7134  -26.6272   19.5373 C   0  0  0  0  0  0  0  0  0  0  0  0
  -25.9198  -16.4188   18.4250 C   0  0  0  0  0  0  0  0  0  0  0  0
  -24.6597  -35.7206   24.6997 C   0  0  0  0  0  0  0  0  0  0  0  0
  -24.7170  -30.9969   20.2159 C   0  0  0  0  0  0  0  0  0  0  0  0
  -27.6862  -18.2964   18.6358 C   0  0  0  0  0  0  0  0  0  0  0  0
  -23.9940  -28.3232   21.2520 C   0  0  0  0  0  0  0  0  0  0  0  0
  -25.5842  -18.6837   17.4752 C   0  0  0  0  0  0  0  0  0  0  0  0
  -23.5142  -34.7213   24.5604 C   0  0  0  0  0  0  0  0  0  0  0  0
  -28.6033  -13.7918   18.0625 C   0  0  0  0  0  0  0  0  0  0  0  0
  -23.9624  -33.3309   24.9992 C   0  0  0  0  0  0  0  0  0  0  0  0
  -28.5162  -13.0221   19.3790 C   0  0  0  0  0  0  0  0  0  0  0  0
  -28.1694  -15.2467   18.2098 C   0  0  0  0  0  0  0  0  0  0  0  0
  -26.2733  -14.2197   19.4661 C   0  0  0  0  0  0  0  0  0  0  0  0
  -25.1079  -32.8170   24.1187 C   0  0  1  0  0  0  0  0  0  0  0  0
  -23.6184  -30.8095   21.2578 C   0  0  1  0  0  0  0  0  0  0  0  0
  -27.3633  -13.5052   20.2776 C   0  0  1  0  0  0  0  0  0  0  0  0
  -18.6682  -25.4056   18.7484 C   0  0  0  0  0  0  0  0  0  0  0  0
  -24.4945  -22.9896   16.1653 C   0  0  0  0  0  0  0  0  0  0  0  0
  -23.4419  -21.0447   17.3677 C   0  0  0  0  0  0  0  0  0  0  0  0
  -24.5203  -20.7196   15.1512 C   0  0  0  0  0  0  0  0  0  0  0  0
  -21.3600  -28.0457   24.1940 C   0  0  0  0  0  0  0  0  0  0  0  0
  -20.0100  -26.2215   23.1365 C   0  0  0  0  0  0  0  0  0  0  0  0
  -19.2067  -28.5812   23.0404 C   0  0  0  0  0  0  0  0  0  0  0  0
  -21.3506  -27.1577   16.6962 C   0  0  0  0  0  0  0  0  0  0  0  0
  -29.8383  -25.3596   18.6613 C   0  0  0  0  0  0  0  0  0  0  0  0
  -29.4351  -26.7832   19.0144 C   0  0  0  0  0  0  0  0  0  1  0  0
  -21.1815  -27.8856   21.6233 C   0  0  1  0  0  0  0  0  0  0  0  0
  -19.6813  -26.4948   18.4320 C   0  0  2  0  0  0  0  0  0  0  0  0
  -24.6741  -21.4782   16.5126 C   0  0  0  0  0  0  0  0  0  0  0  0
  -20.4660  -27.6889   22.9897 C   0  0  0  0  0  0  0  0  0  0  0  0
  -25.7535  -11.6805   20.6792 N   0  0  0  0  0  0  0  0  0  0  0  0
  -26.8094  -12.3789   21.1303 N   0  0  0  0  0  0  0  0  0  0  0  0
  -23.0556  -29.4577   21.2488 N   0  0  0  0  0  0  0  0  0  0  0  0
  -26.4370  -17.6827   18.1413 N   0  0  0  0  0  0  0  0  0  0  0  0
  -26.8069  -15.3801   18.7405 N   0  0  0  0  0  0  0  0  0  0  0  0
  -28.3185  -12.5583   22.9472 N   0  0  0  0  0  0  0  0  0  0  0  0
  -25.6317   -9.1363   24.1585 N   0  0  0  0  0  0  0  0  0  0  0  0
  -28.8586  -23.1575   18.4908 N   0  0  0  0  0  0  0  0  0  0  0  0
  -24.5977  -32.3493   22.8477 N   0  0  0  0  0  0  0  0  0  0  0  0
  -20.3498  -27.5812   20.4640 N   0  0  0  0  0  0  0  0  0  0  0  0
  -20.3452  -26.1584   17.1409 N   0  3  0  0  0  0  0  0  0  0  0  0
  -27.4165  -10.4218   24.8070 O   0  0  0  0  0  0  0  0  0  0  0  0
  -24.0101  -30.1936   23.5033 O   0  0  0  0  0  0  0  0  0  0  0  0
  -20.8628  -30.2284   21.4326 O   0  0  0  0  0  0  0  0  0  0  0  0
  -27.7164  -24.9982   17.5724 O   0  0  0  0  0  0  0  0  0  0  0  0
  -21.7378  -25.9493   19.5767 O   0  0  0  0  0  0  0  0  0  0  0  0
  -24.6949  -16.2266   18.4254 O   0  0  0  0  0  0  0  0  0  0  0  0
  -21.3664   -7.0960   21.2123 O   0  0  0  0  0  0  0  0  0  0  0  0
  -28.4853  -26.7567   20.0720 O   0  0  0  0  0  0  0  0  0  1  0  0
  -22.4377   -1.8485   22.5241 F   0  0  0  0  0  0  0  0  0  0  0  0
  -22.2231   -6.4151   23.7511 F   0  0  0  0  0  0  0  0  0  0  0  0
  1  2  1  0  0  0  0
  1  5  2  0  0  0  0
  2  6  2  0  0  0  0
  3  8  2  0  0  0  0
  3 17  1  0  0  0  0
  4  9  1  0  0  0  0
  4 17  2  0  0  0  0
  5 19  1  0  0  0  0
  6 21  1  0  0  0  0
  7 10  2  0  0  0  0
  7 20  1  0  0  0  0
  8 27  1  0  0  0  0
  9 27  2  0  0  0  0
 10 28  1  0  0  0  0
 11 12  2  0  0  0  0
 11 29  1  0  0  0  0
 12 30  1  0  0  0  0
 13 22  2  0  0  0  0
 13 26  1  0  0  0  0
 14 23  1  0  0  0  0
 14 28  2  0  0  0  0
 15 25  1  0  0  0  0
 15 26  2  0  0  0  0
 16 30  2  0  0  0  0
 16 31  1  0  0  0  0
 17 32  1  0  0  0  0
 18 32  1  0  0  0  0
 18 33  2  0  0  0  0
 18 34  1  0  0  0  0
 19 21  2  0  0  0  0
 19 40  1  0  0  0  0
 20 23  2  0  0  0  0
 20 41  1  0  0  0  0
 21 51  1  0  0  0  0
 22 24  1  0  0  0  0
 22 42  1  0  0  0  0
 23 43  1  0  0  0  0
 24 25  2  0  0  0  0
 24 44  1  0  0  0  0
 25 66  1  0  0  0  0
 26 75  1  0  0  0  0
 27 85  1  0  0  0  0
 28 86  1  0  0  0  0
 29 31  2  0  0  0  0
 29 85  1  0  0  0  0
 30 87  1  0  0  0  0
 31 88  1  0  0  0  0
 32 68  2  0  0  0  0
 33 69  1  0  0  0  0
 33 73  1  0  0  0  0
 34 74  1  0  0  0  0
 34 79  2  0  0  0  0
 35 52  1  0  0  0  0
 35 76  1  0  0  0  0
 35 80  2  0  0  0  0
 36 64  1  0  0  0  0
 36 70  1  0  0  0  0
 36 81  2  0  0  0  0
 37 62  1  0  0  0  0
 37 75  1  0  0  0  0
 37 82  2  0  0  0  0
 38 65  1  0  0  0  0
 38 77  1  0  0  0  0
 38 83  2  0  0  0  0
 39 71  1  0  0  0  0
 39 72  1  0  0  0  0
 39 84  2  0  0  0  0
 40 45  1  0  0  0  0
 41 52  1  0  0  0  0
 42 71  1  0  0  0  0
 43 70  1  0  0  0  0
 44 71  1  0  0  0  0
 45 47  1  0  0  0  0
 46 48  1  0  0  0  0
 46 49  1  0  0  0  0
 47 51  1  0  0  0  0
 48 53  1  0  0  0  0
 49 72  1  0  0  0  0
 50 53  1  0  0  0  0
 50 72  1  0  0  0  0
 51 76  1  0  0  0  0
 52 70  1  0  0  0  0
 53 69  1  0  0  0  0
 54 65  1  0  0  0  0
 55 66  1  0  0  0  0
 56 66  1  0  0  0  0
 57 66  1  0  0  0  0
 58 67  1  0  0  0  0
 59 67  1  0  0  0  0
 60 67  1  0  0  0  0
 61 78  1  0  0  0  0
 62 63  1  0  0  0  0
 63 86  1  0  0  0  0
 64 67  1  0  0  0  0
 64 77  1  0  0  0  0
 65 78  1  0  0  0  0
 68 69  1  0  0  0  0
M  CHG  1  78   1
M  ISO  4  39 100  63 101  71 100  86 101
M  END
> <Batch ID>
0138

> <Smiles>
CNC(C)C(=O)NC(C(=O)N1Cc2cc([101O:1][101CH2:1]CC(=O)Nc3cc4c(c(C(C)(C)C)c3)C[100N:0]([100C:0](=O)N3CCCC(n5nc(-c6ccc(Oc7ccc(F)cc7F)cc6)c(C(N)=O)c5N)C3)C4)ccc2CC1C(=O)NC1CCCc2ccccc21)C(C)(C)C

> <Shape>
0.302

> <Color>
0.096

> <Negative vol penalty>
0.000

$$$$

  -OEChem-04052302453D

 88 97  0     1  0  0  0  0  0999 V2000
  -19.4561  -29.4532   20.2285 C   0  0  0  0  0  0  0  0  0  0  0  0
  -20.3556  -28.5687   20.8149 C   0  0  0  0  0  0  0  0  0  0  0  0
  -32.4466  -17.8014   23.3828 C   0  0  0  0  0  0  0  0  0  0  0  0
  -23.1157   -9.8136   20.0212 C   0  0  0  0  0  0  0  0  0  0  0  0
  -23.7546  -10.0165   22.3423 C   0  0  0  0  0  0  0  0  0  0  0  0
  -18.3553  -29.9086   20.9529 C   0  0  0  0  0  0  0  0  0  0  0  0
  -20.1555  -28.1399   22.1266 C   0  0  0  0  0  0  0  0  0  0  0  0
  -20.8528  -23.1533   22.6680 C   0  0  0  0  0  0  0  0  0  0  0  0
  -31.6053  -18.7182   24.0131 C   0  0  0  0  0  0  0  0  0  0  0  0
  -31.9125  -16.8396   22.5254 C   0  0  0  0  0  0  0  0  0  0  0  0
  -22.3669   -8.6771   20.3266 C   0  0  0  0  0  0  0  0  0  0  0  0
  -23.0058   -8.8800   22.6478 C   0  0  0  0  0  0  0  0  0  0  0  0
  -22.1690  -22.6972   22.7274 C   0  0  0  0  0  0  0  0  0  0  0  0
  -19.7555   -8.1006   23.1466 C   0  0  0  0  0  0  0  0  0  0  0  0
  -18.9387   -8.1489   24.2762 C   0  0  0  0  0  0  0  0  0  0  0  0
  -22.0071  -22.5614   25.1304 C   0  0  0  0  0  0  0  0  0  0  0  0
  -29.6956  -17.7112   22.9286 C   0  0  0  0  0  0  0  0  0  0  0  0
  -20.1518   -6.2914   25.2329 C   0  0  0  0  0  0  0  0  0  0  0  0
  -23.8096  -10.4832   21.0290 C   0  0  0  0  0  0  0  0  0  0  0  0
  -24.1417  -12.9935   20.7191 C   0  0  0  0  0  0  0  0  0  0  0  0
  -18.1363  -29.4776   22.2709 C   0  0  0  0  0  0  0  0  0  0  0  0
  -20.1062  -23.3276   23.8422 C   0  0  0  0  0  0  0  0  0  0  0  0
  -19.0514  -28.5910   22.8698 C   0  0  0  0  0  0  0  0  0  0  0  0
  -20.6808  -23.0174   25.0831 C   0  0  0  0  0  0  0  0  0  0  0  0
  -30.2298  -18.6731   23.7860 C   0  0  0  0  0  0  0  0  0  0  0  0
  -30.5370  -16.7944   22.2983 C   0  0  0  0  0  0  0  0  0  0  0  0
  -22.3119   -8.2103   21.6399 C   0  0  0  0  0  0  0  0  0  0  0  0
  -22.7472  -22.4039   23.9589 C   0  0  0  0  0  0  0  0  0  0  0  0
  -20.7705   -7.1476   23.0601 C   0  0  0  0  0  0  0  0  0  0  0  0
  -19.1368   -7.2443   25.3193 C   0  0  0  0  0  0  0  0  0  0  0  0
  -20.9686   -6.2431   24.1032 C   0  0  0  0  0  0  0  0  0  0  0  0
  -24.5838  -11.6569   20.7140 C   0  0  0  0  0  0  0  0  0  0  0  0
  -25.2467  -13.7220   20.3521 C   0  0  0  0  0  0  0  0  0  0  0  0
  -26.2275  -22.3665   24.8641 C   0  0  0  0  0  0  0  0  0  0  0  0
  -27.2505  -21.6455   25.3516 C   0  0  0  0  0  0  0  0  0  0  0  0
  -22.8479  -13.5286   21.0280 C   0  0  0  0  0  0  0  0  0  0  0  0
  -18.7291  -25.8069   25.2776 C   0  0  0  0  0  0  0  0  0  0  0  0
  -17.5848  -23.5188   27.2720 C   0  0  0  0  0  0  0  0  0  0  0  0
  -17.9381  -20.3975   28.6061 C   0  0  0  0  0  0  0  0  0  0  0  0
  -30.6897  -14.8354   20.7218 C   0  0  0  0  0  0  0  0  0  0  0  0
  -16.9580  -30.0342   23.0303 C   0  0  0  0  0  0  0  0  0  0  0  0
  -18.6790  -23.7949   23.7592 C   0  0  0  0  0  0  0  0  0  0  0  0
  -19.9153  -23.1681   26.3714 C   0  0  0  0  0  0  0  0  0  0  0  0
  -26.6925  -23.3481   23.8304 C   0  0  0  0  0  0  0  0  0  0  0  0
  -16.6134  -29.2397   24.2874 C   0  0  0  0  0  0  0  0  0  0  0  0
  -28.2045  -23.3707   24.0374 C   0  0  0  0  0  0  0  0  0  0  0  0
  -29.7156  -12.2241   18.5062 C   0  0  0  0  0  0  0  0  0  0  0  0
  -17.8742  -28.9400   25.0919 C   0  0  0  0  0  0  0  0  0  0  0  0
  -28.2572  -11.9537   18.8835 C   0  0  0  0  0  0  0  0  0  0  0  0
  -30.5652  -12.5602   19.7305 C   0  0  0  0  0  0  0  0  0  0  0  0
  -28.5842  -13.3755   20.9471 C   0  0  0  0  0  0  0  0  0  0  0  0
  -18.8549  -28.0836   24.2819 C   0  0  1  0  0  0  0  0  0  0  0  0
  -28.5584  -22.0388   24.7110 C   0  0  2  0  0  0  0  0  0  0  0  0
  -18.1805  -24.4258   25.0557 C   0  0  1  0  0  0  0  0  0  0  0  0
  -27.6754  -13.0961   19.7390 C   0  0  2  0  0  0  0  0  0  0  0  0
  -27.2253  -20.5717   26.3846 C   0  0  0  0  0  0  0  0  0  0  0  0
  -16.8674  -18.8198   30.2376 C   0  0  0  0  0  0  0  0  0  0  0  0
  -30.3351  -21.5304   23.0352 C   0  0  0  0  0  0  0  0  0  0  0  0
  -27.9684  -20.8149   22.6187 C   0  0  0  0  0  0  0  0  0  0  0  0
  -18.7257  -25.1441   29.5886 C   0  0  0  0  0  0  0  0  0  0  0  0
  -18.4823  -23.1178   31.0387 C   0  0  0  0  0  0  0  0  0  0  0  0
  -16.4637  -24.1662   30.0147 C   0  0  0  0  0  0  0  0  0  0  0  0
  -17.4501  -18.3715   26.5046 C   0  0  0  0  0  0  0  0  0  0  0  0
  -29.3175  -19.6679   24.4701 C   0  0  0  0  0  0  0  0  0  0  0  0
  -24.7777  -22.2865   25.1916 C   0  0  0  0  0  0  0  0  0  1  0  0
  -18.0681  -22.8743   28.5487 C   0  0  1  0  0  0  0  0  0  0  0  0
  -16.9484  -19.2603   28.7843 C   0  0  2  0  0  0  0  0  0  0  0  0
  -29.0490  -21.0008   23.7058 C   0  0  0  0  0  0  0  0  0  0  0  0
  -17.9503  -23.8245   29.7737 C   0  0  0  0  0  0  0  0  0  0  0  0
  -25.8693  -11.5403   20.3709 N   0  0  0  0  0  0  0  0  0  0  0  0
  -26.2445  -12.8129   20.1568 N   0  0  0  0  0  0  0  0  0  0  0  0
  -18.5251  -23.6342   26.2384 N   0  0  0  0  0  0  0  0  0  0  0  0
  -29.9548  -13.6536   20.4900 N   0  0  0  0  0  0  0  0  0  0  0  0
  -25.4524  -15.0451   20.1806 N   0  0  0  0  0  0  0  0  0  0  0  0
  -21.8254  -12.6396   21.3864 N   0  0  0  0  0  0  0  0  0  0  0  0
  -29.9948  -15.8176   21.4267 N   0  0  0  0  0  0  0  0  0  0  0  0
  -18.4269  -26.7012   24.2685 N   0  0  0  0  0  0  0  0  0  0  0  0
  -17.3215  -21.6283   28.6850 N   0  0  0  0  0  0  0  0  0  0  0  0
  -17.3535  -18.0871   27.9595 N   0  3  0  0  0  0  0  0  0  0  0  0
  -22.6014  -14.7572   20.9714 O   0  0  0  0  0  0  0  0  0  0  0  0
  -19.3773  -26.0439   26.2902 O   0  0  0  0  0  0  0  0  0  0  0  0
  -16.4140  -23.8991   27.1921 O   0  0  0  0  0  0  0  0  0  0  0  0
  -19.1387  -20.2126   28.4195 O   0  0  0  0  0  0  0  0  0  0  0  0
  -31.8407  -14.9770   20.3008 O   0  0  0  0  0  0  0  0  0  0  0  0
  -21.5811   -7.1015   21.9383 O   0  0  0  0  0  0  0  0  0  0  0  0
  -24.0319  -21.9592   24.0198 O   0  0  0  0  0  0  0  0  0  1  0  0
  -18.3533   -7.2918   26.4047 F   0  0  0  0  0  0  0  0  0  0  0  0
  -21.9428   -5.3261   24.0263 F   0  0  0  0  0  0  0  0  0  0  0  0
  1  2  1  0  0  0  0
  1  6  2  0  0  0  0
  2  7  2  0  0  0  0
  3  9  2  0  0  0  0
  3 10  1  0  0  0  0
  4 11  2  0  0  0  0
  4 19  1  0  0  0  0
  5 12  1  0  0  0  0
  5 19  2  0  0  0  0
  6 21  1  0  0  0  0
  7 23  1  0  0  0  0
  8 13  2  0  0  0  0
  8 22  1  0  0  0  0
  9 25  1  0  0  0  0
 10 26  2  0  0  0  0
 11 27  1  0  0  0  0
 12 27  2  0  0  0  0
 13 28  1  0  0  0  0
 14 15  2  0  0  0  0
 14 29  1  0  0  0  0
 15 30  1  0  0  0  0
 16 24  1  0  0  0  0
 16 28  2  0  0  0  0
 17 25  2  0  0  0  0
 17 26  1  0  0  0  0
 18 30  2  0  0  0  0
 18 31  1  0  0  0  0
 19 32  1  0  0  0  0
 20 32  1  0  0  0  0
 20 33  2  0  0  0  0
 20 36  1  0  0  0  0
 21 23  2  0  0  0  0
 21 41  1  0  0  0  0
 22 24  2  0  0  0  0
 22 42  1  0  0  0  0
 23 52  1  0  0  0  0
 24 43  1  0  0  0  0
 25 64  1  0  0  0  0
 26 76  1  0  0  0  0
 27 85  1  0  0  0  0
 28 86  1  0  0  0  0
 29 31  2  0  0  0  0
 29 85  1  0  0  0  0
 30 87  1  0  0  0  0
 31 88  1  0  0  0  0
 32 70  2  0  0  0  0
 33 71  1  0  0  0  0
 33 74  1  0  0  0  0
 34 35  2  0  0  0  0
 34 44  1  0  0  0  0
 34 65  1  0  0  0  0
 35 53  1  0  0  0  0
 35 56  1  0  0  0  0
 36 75  1  0  0  0  0
 36 80  2  0  0  0  0
 37 54  1  0  0  0  0
 37 77  1  0  0  0  0
 37 81  2  0  0  0  0
 38 66  1  0  0  0  0
 38 72  1  0  0  0  0
 38 82  2  0  0  0  0
 39 67  1  0  0  0  0
 39 78  1  0  0  0  0
 39 83  2  0  0  0  0
 40 73  1  0  0  0  0
 40 76  1  0  0  0  0
 40 84  2  0  0  0  0
 41 45  1  0  0  0  0
 42 54  1  0  0  0  0
 43 72  1  0  0  0  0
 44 46  1  0  0  0  0
 45 48  1  0  0  0  0
 46 53  1  0  0  0  0
 47 49  1  0  0  0  0
 47 50  1  0  0  0  0
 48 52  1  0  0  0  0
 49 55  1  0  0  0  0
 50 73  1  0  0  0  0
 51 55  1  0  0  0  0
 51 73  1  0  0  0  0
 52 77  1  0  0  0  0
 53 68  1  0  0  0  0
 54 72  1  0  0  0  0
 55 71  1  0  0  0  0
 57 67  1  0  0  0  0
 58 68  1  0  0  0  0
 59 68  1  0  0  0  0
 60 69  1  0  0  0  0
 61 69  1  0  0  0  0
 62 69  1  0  0  0  0
 63 79  1  0  0  0  0
 64 68  1  0  0  0  0
 65 86  1  0  0  0  0
 66 69  1  0  0  0  0
 66 78  1  0  0  0  0
 67 79  1  0  0  0  0
 70 71  1  0  0  0  0
M  CHG  1  79   1
M  ISO  4  40 100  65 101  76 100  86 101
M  END
> <Batch ID>
0138

> <Smiles>
CNC(C)C(=O)NC(C(=O)N1Cc2cc([101O:1][101CH2:1]C3=C(C)C(C(C)(C)Cc4cccc([100NH:0][100C:0](=O)N5CCCC(n6nc(-c7ccc(Oc8ccc(F)cc8F)cc7)c(C(N)=O)c6N)C5)c4)CC3)ccc2CC1C(=O)NC1CCCc2ccccc21)C(C)(C)C

> <Shape>
0.204

> <Color>
0.208

> <Negative vol penalty>
0.000

$$$$

  -OEChem-04052302453D

 87 95  0     1  0  0  0  0  0999 V2000
  -25.6042  -37.1790   22.2472 C   0  0  0  0  0  0  0  0  0  0  0  0
  -26.3456  -36.0765   21.8350 C   0  0  0  0  0  0  0  0  0  0  0  0
  -23.3174  -10.0575   23.5286 C   0  0  0  0  0  0  0  0  0  0  0  0
  -23.9654  -10.2853   21.2123 C   0  0  0  0  0  0  0  0  0  0  0  0
  -24.5458  -37.0119   23.1394 C   0  0  0  0  0  0  0  0  0  0  0  0
  -26.0299  -34.8061   22.3156 C   0  0  0  0  0  0  0  0  0  0  0  0
  -26.4656  -29.5070   19.2768 C   0  0  0  0  0  0  0  0  0  0  0  0
  -22.5123   -8.9681   23.1963 C   0  0  0  0  0  0  0  0  0  0  0  0
  -23.1603   -9.1958   20.8800 C   0  0  0  0  0  0  0  0  0  0  0  0
  -27.4380  -28.5079   19.2681 C   0  0  0  0  0  0  0  0  0  0  0  0
  -22.9241   -5.6806   22.5209 C   0  0  0  0  0  0  0  0  0  0  0  0
  -22.9909   -4.5521   23.3380 C   0  0  0  0  0  0  0  0  0  0  0  0
  -30.6524  -19.9073   19.4248 C   0  0  0  0  0  0  0  0  0  0  0  0
  -26.1634  -27.2617   20.8934 C   0  0  0  0  0  0  0  0  0  0  0  0
  -28.4387  -19.8899   20.3923 C   0  0  0  0  0  0  0  0  0  0  0  0
  -20.6360   -4.7705   23.8320 C   0  0  0  0  0  0  0  0  0  0  0  0
  -24.0440  -10.7162   22.5366 C   0  0  0  0  0  0  0  0  0  0  0  0
  -30.8985  -18.6451   19.9650 C   0  0  0  0  0  0  0  0  0  0  0  0
  -26.2316  -11.8139   23.2557 C   0  0  0  0  0  0  0  0  0  0  0  0
  -24.2108  -35.7376   23.6237 C   0  0  0  0  0  0  0  0  0  0  0  0
  -25.3383  -29.3959   20.1033 C   0  0  0  0  0  0  0  0  0  0  0  0
  -24.9669  -34.6220   23.2161 C   0  0  0  0  0  0  0  0  0  0  0  0
  -25.1769  -28.2595   20.9088 C   0  0  0  0  0  0  0  0  0  0  0  0
  -29.9146  -18.0052   20.7188 C   0  0  0  0  0  0  0  0  0  0  0  0
  -28.6847  -18.6276   20.9325 C   0  0  0  0  0  0  0  0  0  0  0  0
  -22.4338   -8.5372   21.8720 C   0  0  0  0  0  0  0  0  0  0  0  0
  -27.2884  -27.3864   20.0787 C   0  0  0  0  0  0  0  0  0  0  0  0
  -21.7133   -6.3542   22.3595 C   0  0  0  0  0  0  0  0  0  0  0  0
  -29.4225  -20.5298   19.6385 C   0  0  0  0  0  0  0  0  0  0  0  0
  -21.8469   -4.0970   23.9935 C   0  0  0  0  0  0  0  0  0  0  0  0
  -20.5693   -5.8991   23.0150 C   0  0  0  0  0  0  0  0  0  0  0  0
  -24.8754  -11.8420   22.8792 C   0  0  0  0  0  0  0  0  0  0  0  0
  -26.5545  -13.1308   23.4746 C   0  0  0  0  0  0  0  0  0  0  0  0
  -33.1658  -18.2716   20.6108 C   0  0  0  0  0  0  0  0  0  0  0  0
  -32.1945  -18.0244   19.7223 C   0  0  0  0  0  0  0  0  0  0  0  0
  -27.1200  -10.6973   23.3949 C   0  0  0  0  0  0  0  0  0  0  0  0
  -24.1556  -31.0845   22.5227 C   0  0  0  0  0  0  0  0  0  0  0  0
  -28.6691  -24.0713   19.6208 C   0  0  0  0  0  0  0  0  0  0  0  0
  -21.6731  -29.0153   22.2433 C   0  0  0  0  0  0  0  0  0  0  0  0
  -20.5490  -25.9605   21.2177 C   0  0  0  0  0  0  0  0  0  0  0  0
  -26.4021  -18.4952   21.9901 C   0  0  0  0  0  0  0  0  0  0  0  0
  -23.0883  -35.6129   24.6232 C   0  0  0  0  0  0  0  0  0  0  0  0
  -24.2853  -30.4697   20.0812 C   0  0  0  0  0  0  0  0  0  0  0  0
  -23.9750  -28.0828   21.7991 C   0  0  0  0  0  0  0  0  0  0  0  0
  -22.5814  -34.1832   24.7946 C   0  0  0  0  0  0  0  0  0  0  0  0
  -23.6088  -17.2341   23.8023 C   0  0  0  0  0  0  0  0  0  0  0  0
  -23.7515  -33.2165   24.9462 C   0  0  0  0  0  0  0  0  0  0  0  0
  -23.8008  -15.7166   23.7547 C   0  0  0  0  0  0  0  0  0  0  0  0
  -24.0432  -17.9020   22.4989 C   0  0  0  0  0  0  0  0  0  0  0  0
  -25.5952  -16.0530   22.0071 C   0  0  0  0  0  0  0  0  0  0  0  0
  -24.6394  -33.2246   23.6960 C   0  0  1  0  0  0  0  0  0  0  0  0
  -23.4315  -30.4955   21.3452 C   0  0  1  0  0  0  0  0  0  0  0  0
  -25.2320  -15.3430   23.3215 C   0  0  2  0  0  0  0  0  0  0  0  0
  -32.4645  -17.1503   18.5310 C   0  0  0  0  0  0  0  0  0  0  0  0
  -30.4737  -16.7120   22.7928 C   0  0  0  0  0  0  0  0  0  0  0  0
  -18.4805  -24.5410   21.1580 C   0  0  0  0  0  0  0  0  0  0  0  0
  -22.0037  -28.4126   25.2161 C   0  0  0  0  0  0  0  0  0  0  0  0
  -20.6045  -26.3630   24.8850 C   0  0  0  0  0  0  0  0  0  0  0  0
  -19.6317  -28.6187   24.4509 C   0  0  0  0  0  0  0  0  0  0  0  0
  -20.5703  -25.8497   18.2603 C   0  0  0  0  0  0  0  0  0  0  0  0
  -30.1713  -16.6485   21.3006 C   0  0  0  0  0  0  0  0  0  0  0  0
  -27.7995  -25.0790   20.3443 C   0  0  0  0  0  0  0  0  0  1  0  0
  -28.2949  -22.6162   19.8146 C   0  0  0  0  0  0  0  0  0  0  0  0
  -21.3306  -27.6700   22.8367 C   0  0  1  0  0  0  0  0  0  0  0  0
  -19.3303  -25.5554   20.4085 C   0  0  2  0  0  0  0  0  0  0  0  0
  -20.9164  -27.7700   24.3319 C   0  0  0  0  0  0  0  0  0  0  0  0
  -24.3713  -13.0788   22.8593 N   0  0  0  0  0  0  0  0  0  0  0  0
  -25.4163  -13.8400   23.2260 N   0  0  0  0  0  0  0  0  0  0  0  0
  -22.9761  -29.1630   21.7470 N   0  0  0  0  0  0  0  0  0  0  0  0
  -25.4101  -17.5053   22.1539 N   0  0  0  0  0  0  0  0  0  0  0  0
  -27.6981  -13.7398   23.8537 N   0  0  0  0  0  0  0  0  0  0  0  0
  -26.6252   -9.4128   23.1309 N   0  0  0  0  0  0  0  0  0  0  0  0
  -27.6707  -17.9969   21.6953 N   0  0  0  0  0  0  0  0  0  0  0  0
  -24.0253  -32.4556   22.6349 N   0  0  0  0  0  0  0  0  0  0  0  0
  -20.3094  -27.0902   21.9712 N   0  0  0  0  0  0  0  0  0  0  0  0
  -19.7471  -24.9521   19.1111 N   0  3  0  0  0  0  0  0  0  0  0  0
  -28.3128  -10.8329   23.7589 O   0  0  0  0  0  0  0  0  0  0  0  0
  -24.7846  -30.3493   23.2747 O   0  0  0  0  0  0  0  0  0  0  0  0
  -29.6203  -24.4136   18.9199 O   0  0  0  0  0  0  0  0  0  0  0  0
  -20.8140  -29.9000   22.2145 O   0  0  0  0  0  0  0  0  0  0  0  0
  -21.6066  -25.3351   21.1876 O   0  0  0  0  0  0  0  0  0  0  0  0
  -26.1510  -19.6949   22.1299 O   0  0  0  0  0  0  0  0  0  0  0  0
  -21.6485   -7.4739   21.5474 O   0  0  0  0  0  0  0  0  0  0  0  0
  -28.2363  -26.4100   20.0726 O   0  0  0  0  0  0  0  0  0  1  0  0
  -29.1798  -21.7740   19.1065 O   0  0  0  0  0  0  0  0  0  0  0  0
  -21.9108   -3.0124   24.7769 F   0  0  0  0  0  0  0  0  0  0  0  0
  -19.4030   -6.5412   22.8629 F   0  0  0  0  0  0  0  0  0  0  0  0
  1  2  1  0  0  0  0
  1  5  2  0  0  0  0
  2  6  2  0  0  0  0
  3  8  2  0  0  0  0
  3 17  1  0  0  0  0
  4  9  1  0  0  0  0
  4 17  2  0  0  0  0
  5 20  1  0  0  0  0
  6 22  1  0  0  0  0
  7 10  2  0  0  0  0
  7 21  1  0  0  0  0
  8 26  1  0  0  0  0
  9 26  2  0  0  0  0
 10 27  1  0  0  0  0
 11 12  2  0  0  0  0
 11 28  1  0  0  0  0
 12 30  1  0  0  0  0
 13 18  1  0  0  0  0
 13 29  2  0  0  0  0
 14 23  1  0  0  0  0
 14 27  2  0  0  0  0
 15 25  2  0  0  0  0
 15 29  1  0  0  0  0
 16 30  2  0  0  0  0
 16 31  1  0  0  0  0
 17 32  1  0  0  0  0
 18 24  2  0  0  0  0
 18 35  1  0  0  0  0
 19 32  1  0  0  0  0
 19 33  2  0  0  0  0
 19 36  1  0  0  0  0
 20 22  2  0  0  0  0
 20 42  1  0  0  0  0
 21 23  2  0  0  0  0
 21 43  1  0  0  0  0
 22 51  1  0  0  0  0
 23 44  1  0  0  0  0
 24 25  1  0  0  0  0
 24 61  1  0  0  0  0
 25 73  1  0  0  0  0
 26 83  1  0  0  0  0
 27 84  1  0  0  0  0
 28 31  2  0  0  0  0
 28 83  1  0  0  0  0
 29 85  1  0  0  0  0
 30 86  1  0  0  0  0
 31 87  1  0  0  0  0
 32 67  2  0  0  0  0
 33 68  1  0  0  0  0
 33 71  1  0  0  0  0
 34 35  2  0  0  0  0
 35 54  1  0  0  0  0
 36 72  1  0  0  0  0
 36 77  2  0  0  0  0
 37 52  1  0  0  0  0
 37 74  1  0  0  0  0
 37 78  2  0  0  0  0
 38 62  1  0  0  0  0
 38 63  1  0  0  0  0
 38 79  2  0  0  0  0
 39 64  1  0  0  0  0
 39 69  1  0  0  0  0
 39 80  2  0  0  0  0
 40 65  1  0  0  0  0
 40 75  1  0  0  0  0
 40 81  2  0  0  0  0
 41 70  1  0  0  0  0
 41 73  1  0  0  0  0
 41 82  2  0  0  0  0
 42 45  1  0  0  0  0
 43 52  1  0  0  0  0
 44 69  1  0  0  0  0
 45 47  1  0  0  0  0
 46 48  1  0  0  0  0
 46 49  1  0  0  0  0
 47 51  1  0  0  0  0
 48 53  1  0  0  0  0
 49 70  1  0  0  0  0
 50 53  1  0  0  0  0
 50 70  1  0  0  0  0
 51 74  1  0  0  0  0
 52 69  1  0  0  0  0
 53 68  1  0  0  0  0
 55 61  1  0  0  0  0
 56 65  1  0  0  0  0
 57 66  1  0  0  0  0
 58 66  1  0  0  0  0
 59 66  1  0  0  0  0
 60 76  1  0  0  0  0
 62 84  1  0  0  0  0
 63 85  1  0  0  0  0
 64 66  1  0  0  0  0
 64 75  1  0  0  0  0
 65 76  1  0  0  0  0
 67 68  1  0  0  0  0
M  CHG  1  76   1
M  ISO  4  41 100  62 101  73 100  84 101
M  END
> <Batch ID>
0138

> <Smiles>
C=C(C)c1cc(OCC(=O)[101CH2:1][101O:1]c2ccc3c(c2)CN(C(=O)C(NC(=O)C(C)NC)C(C)(C)C)C(C(=O)NC2CCCc4ccccc42)C3)cc([100NH:0][100C:0](=O)N2CCCC(n3nc(-c4ccc(Oc5ccc(F)cc5F)cc4)c(C(N)=O)c3N)C2)c1CC

> <Shape>
0.292

> <Color>
0.085

> <Negative vol penalty>
0.000

$$$$

  -OEChem-04052302453D

 83 91  0     1  0  0  0  0  0999 V2000
  -28.7348  -23.7354   17.3736 C   0  0  0  0  0  0  0  0  0  0  0  0
  -27.5604  -23.8858   18.1041 C   0  0  0  0  0  0  0  0  0  0  0  0
  -26.4119  -13.1126   21.2507 C   0  0  0  0  0  0  0  0  0  0  0  0
  -24.5142  -13.5173   19.8114 C   0  0  0  0  0  0  0  0  0  0  0  0
  -29.8850  -24.4249   17.7553 C   0  0  0  0  0  0  0  0  0  0  0  0
  -27.5359  -24.7249   19.2175 C   0  0  0  0  0  0  0  0  0  0  0  0
  -23.4253  -27.6804   19.3324 C   0  0  0  0  0  0  0  0  0  0  0  0
  -20.3227  -21.5295   18.3821 C   0  0  0  0  0  0  0  0  0  0  0  0
  -21.5995  -21.0148   18.6066 C   0  0  0  0  0  0  0  0  0  0  0  0
  -25.8255  -11.9258   21.6902 C   0  0  0  0  0  0  0  0  0  0  0  0
  -23.9277  -12.3304   20.2508 C   0  0  0  0  0  0  0  0  0  0  0  0
  -22.2325  -27.0959   19.7557 C   0  0  0  0  0  0  0  0  0  0  0  0
  -24.2495   -9.0215   19.6444 C   0  0  0  0  0  0  0  0  0  0  0  0
  -23.6889   -8.1821   18.6817 C   0  0  0  0  0  0  0  0  0  0  0  0
  -22.5388  -28.0682   21.9420 C   0  0  0  0  0  0  0  0  0  0  0  0
  -21.9331  -22.6170   20.3839 C   0  0  0  0  0  0  0  0  0  0  0  0
  -21.5357   -8.3853   19.7584 C   0  0  0  0  0  0  0  0  0  0  0  0
  -25.7562  -13.9084   20.3113 C   0  0  0  0  0  0  0  0  0  0  0  0
  -27.2281  -15.2999   18.7605 C   0  0  0  0  0  0  0  0  0  0  0  0
  -29.8719  -25.2804   18.8682 C   0  0  0  0  0  0  0  0  0  0  0  0
  -24.1907  -28.4556   20.2155 C   0  0  0  0  0  0  0  0  0  0  0  0
  -28.6873  -25.4254   19.6153 C   0  0  0  0  0  0  0  0  0  0  0  0
  -23.7397  -28.6636   21.5268 C   0  0  0  0  0  0  0  0  0  0  0  0
  -19.8511  -22.5881   19.1585 C   0  0  0  0  0  0  0  0  0  0  0  0
  -22.4047  -21.5585   19.6074 C   0  0  0  0  0  0  0  0  0  0  0  0
  -24.5834  -11.5347   21.1903 C   0  0  0  0  0  0  0  0  0  0  0  0
  -21.7905  -27.2873   21.0615 C   0  0  0  0  0  0  0  0  0  0  0  0
  -23.4532   -9.5427   20.6642 C   0  0  0  0  0  0  0  0  0  0  0  0
  -20.6563  -23.1318   20.1594 C   0  0  0  0  0  0  0  0  0  0  0  0
  -22.3320   -7.8640   18.7387 C   0  0  0  0  0  0  0  0  0  0  0  0
  -22.0963   -9.2246   20.7211 C   0  0  0  0  0  0  0  0  0  0  0  0
  -26.3612  -15.1348   19.8574 C   0  0  0  0  0  0  0  0  0  0  0  0
  -27.5195  -16.6421   18.7522 C   0  0  0  0  0  0  0  0  0  0  0  0
  -27.7254  -14.3270   17.8321 C   0  0  0  0  0  0  0  0  0  0  0  0
  -27.1218  -28.2401   21.4262 C   0  0  0  0  0  0  0  0  0  0  0  0
  -26.4117  -31.1609   22.6458 C   0  0  0  0  0  0  0  0  0  0  0  0
  -24.0182  -33.3878   23.6249 C   0  0  0  0  0  0  0  0  0  0  0  0
  -24.6287  -21.4597   20.7866 C   0  0  0  0  0  0  0  0  0  0  0  0
  -31.1526  -25.9680   19.2703 C   0  0  0  0  0  0  0  0  0  0  0  0
  -25.4616  -29.1013   19.7357 C   0  0  0  0  0  0  0  0  0  0  0  0
  -24.5142  -29.5038   22.5079 C   0  0  0  0  0  0  0  0  0  0  0  0
  -30.9426  -27.1276   20.2406 C   0  0  0  0  0  0  0  0  0  0  0  0
  -27.9093  -20.4076   21.6853 C   0  0  0  0  0  0  0  0  0  0  0  0
  -29.9963  -26.7183   21.3648 C   0  0  0  0  0  0  0  0  0  0  0  0
  -27.9656  -18.9530   21.2133 C   0  0  0  0  0  0  0  0  0  0  0  0
  -26.5304  -20.7737   22.2316 C   0  0  0  0  0  0  0  0  0  0  0  0
  -25.4646  -19.0283   20.8579 C   0  0  0  0  0  0  0  0  0  0  0  0
  -28.6143  -26.3457   20.8144 C   0  0  1  0  0  0  0  0  0  0  0  0
  -26.4212  -29.4474   20.8700 C   0  0  1  0  0  0  0  0  0  0  0  0
  -26.8150  -18.6316   20.2394 C   0  0  2  0  0  0  0  0  0  0  0  0
  -18.4820  -23.1264   18.9040 C   0  0  0  0  0  0  0  0  0  0  0  0
  -23.7448  -35.6771   24.6157 C   0  0  0  0  0  0  0  0  0  0  0  0
  -18.1717  -25.5290   22.5189 C   0  0  0  0  0  0  0  0  0  0  0  0
  -27.1710  -30.0616   25.3890 C   0  0  0  0  0  0  0  0  0  0  0  0
  -25.9994  -32.0190   26.4205 C   0  0  0  0  0  0  0  0  0  0  0  0
  -27.9722  -32.3876   24.9389 C   0  0  0  0  0  0  0  0  0  0  0  0
  -22.5603  -34.3707   21.2443 C   0  0  0  0  0  0  0  0  0  0  0  0
  -20.5312  -26.3692   22.8579 C   0  0  0  0  0  0  0  0  0  1  0  0
  -20.1326  -23.9449   22.3320 C   0  0  0  0  0  0  0  0  0  0  0  0
  -25.7753  -31.6615   23.9199 C   0  0  1  0  0  0  0  0  0  0  0  0
  -23.8381  -34.8665   23.3324 C   0  0  2  0  0  0  0  0  0  0  0  0
  -19.5748  -25.1864   23.0341 C   0  0  2  0  0  0  0  0  0  0  0  0
  -26.7156  -31.5149   25.1494 C   0  0  0  0  0  0  0  0  0  0  0  0
  -26.1179  -16.2805   20.4994 N   0  0  0  0  0  0  0  0  0  0  0  0
  -26.8364  -17.1784   19.8039 N   0  0  0  0  0  0  0  0  0  0  0  0
  -25.7537  -30.1088   21.9930 N   0  0  0  0  0  0  0  0  0  0  0  0
  -25.4911  -20.4452   21.2534 N   0  0  0  0  0  0  0  0  0  0  0  0
  -28.2910  -17.4041   17.9481 N   0  0  0  0  0  0  0  0  0  0  0  0
  -27.3258  -12.9924   17.9849 N   0  0  0  0  0  0  0  0  0  0  0  0
  -23.7020  -21.0359   19.8347 N   0  0  0  0  0  0  0  0  0  0  0  0
  -27.8601  -27.5382   20.4926 N   0  0  0  0  0  0  0  0  0  0  0  0
  -25.3499  -33.0312   23.6528 N   0  0  0  0  0  0  0  0  0  0  0  0
  -22.5939  -35.0906   22.5434 N   0  3  0  0  0  0  0  0  0  0  0  0
  -28.5140  -14.6295   16.9047 O   0  0  0  0  0  0  0  0  0  0  0  0
  -27.0026  -27.9666   22.6148 O   0  0  0  0  0  0  0  0  0  0  0  0
  -27.4505  -31.6887   22.2407 O   0  0  0  0  0  0  0  0  0  0  0  0
  -23.0723  -32.6261   23.8137 O   0  0  0  0  0  0  0  0  0  0  0  0
  -24.7243  -22.6249   21.1807 O   0  0  0  0  0  0  0  0  0  0  0  0
  -24.0110  -10.3765   21.6187 O   0  0  0  0  0  0  0  0  0  0  0  0
  -20.6268  -26.7174   21.4774 O   0  0  0  0  0  0  0  0  0  1  0  0
  -20.2082  -24.1721   20.9308 O   0  0  0  0  0  0  0  0  0  0  0  0
  -21.7935   -7.0592   17.8132 F   0  0  0  0  0  0  0  0  0  0  0  0
  -21.3260   -9.7233   21.6978 F   0  0  0  0  0  0  0  0  0  0  0  0
  1  2  1  0  0  0  0
  1  5  2  0  0  0  0
  2  6  2  0  0  0  0
  3 10  2  0  0  0  0
  3 18  1  0  0  0  0
  4 11  1  0  0  0  0
  4 18  2  0  0  0  0
  5 20  1  0  0  0  0
  6 22  1  0  0  0  0
  7 12  2  0  0  0  0
  7 21  1  0  0  0  0
  8  9  2  0  0  0  0
  8 24  1  0  0  0  0
  9 25  1  0  0  0  0
 10 26  1  0  0  0  0
 11 26  2  0  0  0  0
 12 27  1  0  0  0  0
 13 14  2  0  0  0  0
 13 28  1  0  0  0  0
 14 30  1  0  0  0  0
 15 23  1  0  0  0  0
 15 27  2  0  0  0  0
 16 25  2  0  0  0  0
 16 29  1  0  0  0  0
 17 30  2  0  0  0  0
 17 31  1  0  0  0  0
 18 32  1  0  0  0  0
 19 32  1  0  0  0  0
 19 33  2  0  0  0  0
 19 34  1  0  0  0  0
 20 22  2  0  0  0  0
 20 39  1  0  0  0  0
 21 23  2  0  0  0  0
 21 40  1  0  0  0  0
 22 48  1  0  0  0  0
 23 41  1  0  0  0  0
 24 29  2  0  0  0  0
 24 51  1  0  0  0  0
 25 70  1  0  0  0  0
 26 79  1  0  0  0  0
 27 80  1  0  0  0  0
 28 31  2  0  0  0  0
 28 79  1  0  0  0  0
 29 81  1  0  0  0  0
 30 82  1  0  0  0  0
 31 83  1  0  0  0  0
 32 64  2  0  0  0  0
 33 65  1  0  0  0  0
 33 68  1  0  0  0  0
 34 69  1  0  0  0  0
 34 74  2  0  0  0  0
 35 49  1  0  0  0  0
 35 71  1  0  0  0  0
 35 75  2  0  0  0  0
 36 60  1  0  0  0  0
 36 66  1  0  0  0  0
 36 76  2  0  0  0  0
 37 61  1  0  0  0  0
 37 72  1  0  0  0  0
 37 77  2  0  0  0  0
 38 67  1  0  0  0  0
 38 70  1  0  0  0  0
 38 78  2  0  0  0  0
 39 42  1  0  0  0  0
 40 49  1  0  0  0  0
 41 66  1  0  0  0  0
 42 44  1  0  0  0  0
 43 45  1  0  0  0  0
 43 46  1  0  0  0  0
 44 48  1  0  0  0  0
 45 50  1  0  0  0  0
 46 67  1  0  0  0  0
 47 50  1  0  0  0  0
 47 67  1  0  0  0  0
 48 71  1  0  0  0  0
 49 66  1  0  0  0  0
 50 65  1  0  0  0  0
 52 61  1  0  0  0  0
 53 62  1  0  0  0  0
 54 63  1  0  0  0  0
 55 63  1  0  0  0  0
 56 63  1  0  0  0  0
 57 73  1  0  0  0  0
 58 62  1  0  0  0  0
 58 80  1  0  0  0  0
 59 62  1  0  0  0  0
 59 81  1  0  0  0  0
 60 63  1  0  0  0  0
 60 72  1  0  0  0  0
 61 73  1  0  0  0  0
 64 65  1  0  0  0  0
M  CHG  1  73   1
M  ISO  4  38 100  58 101  70 100  80 101
M  END
> <Batch ID>
0138

> <Smiles>
CNC(C)C(=O)NC(C(=O)N1Cc2cc([101O:1][101CH2:1]C(C)COc3cc([100NH:0][100C:0](=O)N4CCCC(n5nc(-c6ccc(Oc7ccc(F)cc7F)cc6)c(C(N)=O)c5N)C4)ccc3C)ccc2CC1C(=O)NC1CCCc2ccccc21)C(C)(C)C

> <Shape>
0.279

> <Color>
0.067

> <Negative vol penalty>
0.000

$$$$

  -OEChem-04052302453D

 91101  0     1  0  0  0  0  0999 V2000
  -25.6058  -35.4629   21.8373 C   0  0  0  0  0  0  0  0  0  0  0  0
  -26.2218  -34.2157   21.8549 C   0  0  0  0  0  0  0  0  0  0  0  0
  -25.6111  -21.5977   18.3566 C   0  0  0  0  0  0  0  0  0  0  0  0
  -24.4061   -9.2738   22.1010 C   0  0  0  0  0  0  0  0  0  0  0  0
  -22.9289  -10.9448   21.1721 C   0  0  0  0  0  0  0  0  0  0  0  0
  -26.4141  -22.6602   18.7723 C   0  0  0  0  0  0  0  0  0  0  0  0
  -24.2933  -35.5973   22.2883 C   0  0  0  0  0  0  0  0  0  0  0  0
  -25.5261  -33.1022   22.3246 C   0  0  0  0  0  0  0  0  0  0  0  0
  -26.1026  -29.0509   19.3414 C   0  0  0  0  0  0  0  0  0  0  0  0
  -23.4667   -8.9951   23.0936 C   0  0  0  0  0  0  0  0  0  0  0  0
  -21.9894  -10.6659   22.1647 C   0  0  0  0  0  0  0  0  0  0  0  0
  -27.2980  -28.3423   19.4537 C   0  0  0  0  0  0  0  0  0  0  0  0
  -20.5838   -7.2508   23.3756 C   0  0  0  0  0  0  0  0  0  0  0  0
  -20.3169   -5.9111   23.6576 C   0  0  0  0  0  0  0  0  0  0  0  0
  -28.1913  -21.1131   19.2974 C   0  0  0  0  0  0  0  0  0  0  0  0
  -27.8734  -18.7114   18.9320 C   0  0  0  0  0  0  0  0  0  0  0  0
  -26.1908  -26.7055   20.8372 C   0  0  0  0  0  0  0  0  0  0  0  0
  -25.7828  -17.8908   18.0467 C   0  0  0  0  0  0  0  0  0  0  0  0
  -21.0374   -6.2479   25.9390 C   0  0  0  0  0  0  0  0  0  0  0  0
  -26.0876  -20.2775   18.4056 C   0  0  0  0  0  0  0  0  0  0  0  0
  -27.3970  -20.0316   18.8830 C   0  0  0  0  0  0  0  0  0  0  0  0
  -24.1373  -10.2487   21.1402 C   0  0  0  0  0  0  0  0  0  0  0  0
  -27.7017  -22.4183   19.2419 C   0  0  0  0  0  0  0  0  0  0  0  0
  -25.2144   -9.9291   18.8500 C   0  0  0  0  0  0  0  0  0  0  0  0
  -23.5779  -34.4831   22.7547 C   0  0  0  0  0  0  0  0  0  0  0  0
  -24.9429  -28.5971   19.9861 C   0  0  0  0  0  0  0  0  0  0  0  0
  -24.2033  -33.2220   22.7835 C   0  0  0  0  0  0  0  0  0  0  0  0
  -24.9813  -27.4087   20.7294 C   0  0  0  0  0  0  0  0  0  0  0  0
  -25.2932  -19.1960   17.9912 C   0  0  0  0  0  0  0  0  0  0  0  0
  -27.0704  -17.6489   18.5162 C   0  0  0  0  0  0  0  0  0  0  0  0
  -22.2583   -9.6911   23.1255 C   0  0  0  0  0  0  0  0  0  0  0  0
  -27.3430  -27.1710   20.2041 C   0  0  0  0  0  0  0  0  0  0  0  0
  -21.0776   -8.0891   24.3752 C   0  0  0  0  0  0  0  0  0  0  0  0
  -20.5437   -5.4097   24.9393 C   0  0  0  0  0  0  0  0  0  0  0  0
  -21.3043   -7.5877   25.6569 C   0  0  0  0  0  0  0  0  0  0  0  0
  -25.1075  -10.5376   20.1150 C   0  0  0  0  0  0  0  0  0  0  0  0
  -26.2874  -10.5507   18.2595 C   0  0  0  0  0  0  0  0  0  0  0  0
  -29.4513  -23.8055   17.4085 C   0  0  0  0  0  0  0  0  0  0  0  0
  -28.5492  -23.5419   19.6795 C   0  0  0  0  0  0  0  0  0  0  0  0
  -24.4151   -8.8946   18.2613 C   0  0  0  0  0  0  0  0  0  0  0  0
  -23.0296  -29.7605   22.2421 C   0  0  0  0  0  0  0  0  0  0  0  0
  -21.2535  -27.1382   21.5410 C   0  0  0  0  0  0  0  0  0  0  0  0
  -21.1392  -23.9684   20.2816 C   0  0  0  0  0  0  0  0  0  0  0  0
  -28.8231  -15.9088   19.0125 C   0  0  0  0  0  0  0  0  0  0  0  0
  -22.1774  -34.6861   23.2763 C   0  0  0  0  0  0  0  0  0  0  0  0
  -23.6548  -29.3586   19.8331 C   0  0  0  0  0  0  0  0  0  0  0  0
  -23.7592  -26.8682   21.4243 C   0  0  0  0  0  0  0  0  0  0  0  0
  -30.4550  -24.7306   16.7831 C   0  0  0  0  0  0  0  0  0  0  0  0
  -21.3826  -33.3895   23.4080 C   0  0  0  0  0  0  0  0  0  0  0  0
  -31.2279  -25.2471   17.9959 C   0  0  0  0  0  0  0  0  0  0  0  0
  -30.4086  -12.7377   19.3402 C   0  0  0  0  0  0  0  0  0  0  0  0
  -22.2238  -32.3145   24.0887 C   0  0  0  0  0  0  0  0  0  0  0  0
  -29.2388  -11.7576   19.4548 C   0  0  0  0  0  0  0  0  0  0  0  0
  -30.1146  -14.0573   20.0514 C   0  0  0  0  0  0  0  0  0  0  0  0
  -27.6891  -13.7286   19.7718 C   0  0  0  0  0  0  0  0  0  0  0  0
  -23.4732  -31.9861   23.2624 C   0  0  1  0  0  0  0  0  0  0  0  0
  -22.6591  -29.0799   20.9548 C   0  0  1  0  0  0  0  0  0  0  0  0
  -27.9127  -12.4089   19.0155 C   0  0  2  0  0  0  0  0  0  0  0  0
  -30.2250  -25.2676   19.1524 C   0  0  1  0  0  0  0  0  0  0  0  0
  -23.8999  -19.3860   17.4764 C   0  0  0  0  0  0  0  0  0  0  0  0
  -19.5539  -22.0658   19.8761 C   0  0  0  0  0  0  0  0  0  0  0  0
  -21.3190  -26.4532   24.5136 C   0  0  0  0  0  0  0  0  0  0  0  0
  -20.5779  -24.1354   23.9245 C   0  0  0  0  0  0  0  0  0  0  0  0
  -19.1075  -26.0827   23.4062 C   0  0  0  0  0  0  0  0  0  0  0  0
  -21.5977  -24.0569   17.3592 C   0  0  0  0  0  0  0  0  0  0  0  0
  -29.4184  -26.5556   19.2193 C   0  0  0  0  0  0  0  0  0  1  0  0
  -21.2043  -25.7151   22.0421 C   0  0  1  0  0  0  0  0  0  0  0  0
  -20.1969  -23.3125   19.2885 C   0  0  2  0  0  0  0  0  0  0  0  0
  -20.5759  -25.6076   23.4602 C   0  0  0  0  0  0  0  0  0  0  0  0
  -26.0385  -11.4738   20.3171 N   0  0  0  0  0  0  0  0  0  0  0  0
  -26.7406  -11.4582   19.1713 N   0  0  0  0  0  0  0  0  0  0  0  0
  -29.3334  -24.1445   18.8017 N   0  0  0  0  0  0  0  0  0  0  0  0
  -22.5252  -27.6519   21.2499 N   0  0  0  0  0  0  0  0  0  0  0  0
  -28.8457  -14.6179   19.5816 N   0  0  0  0  0  0  0  0  0  0  0  0
  -26.8781  -10.4041   17.0545 N   0  0  0  0  0  0  0  0  0  0  0  0
  -23.3513   -8.3669   19.0058 N   0  0  0  0  0  0  0  0  0  0  0  0
  -27.5664  -16.3228   18.5722 N   0  0  0  0  0  0  0  0  0  0  0  0
  -23.1296  -31.1351   22.1433 N   0  0  0  0  0  0  0  0  0  0  0  0
  -20.5047  -24.9459   21.0187 N   0  0  0  0  0  0  0  0  0  0  0  0
  -28.5106  -23.9331   20.9498 N   0  3  0  0  0  0  0  0  0  0  0  0
  -20.9349  -22.9231   18.0537 N   0  3  0  0  0  0  0  0  0  0  0  0
  -28.7927  -22.9366   16.8655 O   0  0  0  0  0  0  0  0  0  0  0  0
  -24.6478   -8.4398   17.1157 O   0  0  0  0  0  0  0  0  0  0  0  0
  -23.2099  -29.0883   23.2508 O   0  0  0  0  0  0  0  0  0  0  0  0
  -20.2017  -27.7685   21.4058 O   0  0  0  0  0  0  0  0  0  0  0  0
  -22.3191  -23.6434   20.3950 O   0  0  0  0  0  0  0  0  0  0  0  0
  -29.8482  -16.5854   18.8977 O   0  0  0  0  0  0  0  0  0  0  0  0
  -21.3413   -9.4191   24.0938 O   0  0  0  0  0  0  0  0  0  0  0  0
  -28.5087  -26.4779   20.3160 O   0  0  0  0  0  0  0  0  0  1  0  0
  -20.2859   -4.1235   25.2105 F   0  0  0  0  0  0  0  0  0  0  0  0
  -21.7774   -8.3884   26.6217 F   0  0  0  0  0  0  0  0  0  0  0  0
  1  2  1  0  0  0  0
  1  7  2  0  0  0  0
  2  8  2  0  0  0  0
  3  6  2  0  0  0  0
  3 20  1  0  0  0  0
  4 10  2  0  0  0  0
  4 22  1  0  0  0  0
  5 11  1  0  0  0  0
  5 22  2  0  0  0  0
  6 23  1  0  0  0  0
  7 25  1  0  0  0  0
  8 27  1  0  0  0  0
  9 12  2  0  0  0  0
  9 26  1  0  0  0  0
 10 31  1  0  0  0  0
 11 31  2  0  0  0  0
 12 32  1  0  0  0  0
 13 14  2  0  0  0  0
 13 33  1  0  0  0  0
 14 34  1  0  0  0  0
 15 21  1  0  0  0  0
 15 23  2  0  0  0  0
 16 21  1  0  0  0  0
 16 30  2  0  0  0  0
 17 28  1  0  0  0  0
 17 32  2  0  0  0  0
 18 29  2  0  0  0  0
 18 30  1  0  0  0  0
 19 34  2  0  0  0  0
 19 35  1  0  0  0  0
 20 21  2  0  0  0  0
 20 29  1  0  0  0  0
 22 36  1  0  0  0  0
 23 39  1  0  0  0  0
 24 36  1  0  0  0  0
 24 37  2  0  0  0  0
 24 40  1  0  0  0  0
 25 27  2  0  0  0  0
 25 45  1  0  0  0  0
 26 28  2  0  0  0  0
 26 46  1  0  0  0  0
 27 56  1  0  0  0  0
 28 47  1  0  0  0  0
 29 60  1  0  0  0  0
 30 77  1  0  0  0  0
 31 88  1  0  0  0  0
 32 89  1  0  0  0  0
 33 35  2  0  0  0  0
 33 88  1  0  0  0  0
 34 90  1  0  0  0  0
 35 91  1  0  0  0  0
 36 70  2  0  0  0  0
 37 71  1  0  0  0  0
 37 75  1  0  0  0  0
 38 48  1  0  0  0  0
 38 72  1  0  0  0  0
 38 82  2  0  0  0  0
 39 72  1  0  0  0  0
 39 80  2  0  0  0  0
 40 76  1  0  0  0  0
 40 83  2  0  0  0  0
 41 57  1  0  0  0  0
 41 78  1  0  0  0  0
 41 84  2  0  0  0  0
 42 67  1  0  0  0  0
 42 73  1  0  0  0  0
 42 85  2  0  0  0  0
 43 68  1  0  0  0  0
 43 79  1  0  0  0  0
 43 86  2  0  0  0  0
 44 74  1  0  0  0  0
 44 77  1  0  0  0  0
 44 87  2  0  0  0  0
 45 49  1  0  0  0  0
 46 57  1  0  0  0  0
 47 73  1  0  0  0  0
 48 50  1  0  0  0  0
 49 52  1  0  0  0  0
 50 59  1  0  0  0  0
 51 53  1  0  0  0  0
 51 54  1  0  0  0  0
 52 56  1  0  0  0  0
 53 58  1  0  0  0  0
 54 74  1  0  0  0  0
 55 58  1  0  0  0  0
 55 74  1  0  0  0  0
 56 78  1  0  0  0  0
 57 73  1  0  0  0  0
 58 71  1  0  0  0  0
 59 66  1  0  0  0  0
 59 72  1  0  0  0  0
 61 68  1  0  0  0  0
 62 69  1  0  0  0  0
 63 69  1  0  0  0  0
 64 69  1  0  0  0  0
 65 81  1  0  0  0  0
 66 89  1  0  0  0  0
 67 69  1  0  0  0  0
 67 79  1  0  0  0  0
 68 81  1  0  0  0  0
 70 71  1  0  0  0  0
M  CHG  2  80   1  81   1
M  ISO  4  44 100  66 101  77 100  89 101
M  END
> <Batch ID>
0138

> <Smiles>
CNC(C)C(=O)NC(C(=O)N1Cc2cc([101O:1][101CH2:1]C3CCC(=O)N3C(=N)c3ccc4c(C)cc([100NH:0][100C:0](=O)N5CCCC(n6nc(-c7ccc(Oc8ccc(F)cc8F)cc7)c(C(N)=O)c6N)C5)cc4c3)ccc2CC1C(=O)NC1CCCc2ccccc21)C(C)(C)C

> <Shape>
0.276

> <Color>
0.087

> <Negative vol penalty>
0.000

$$$$

  -OEChem-04052302453D

 84 93  0     1  0  0  0  0  0999 V2000
  -16.3506  -27.1668   25.8424 C   0  0  0  0  0  0  0  0  0  0  0  0
  -17.5363  -26.4412   25.7881 C   0  0  0  0  0  0  0  0  0  0  0  0
  -32.7016  -18.9659   21.5773 C   0  0  0  0  0  0  0  0  0  0  0  0
  -22.7186  -10.6200   20.9553 C   0  0  0  0  0  0  0  0  0  0  0  0
  -24.4913   -9.0633   21.4763 C   0  0  0  0  0  0  0  0  0  0  0  0
  -16.2095  -28.3274   25.0828 C   0  0  0  0  0  0  0  0  0  0  0  0
  -18.5813  -26.8752   24.9732 C   0  0  0  0  0  0  0  0  0  0  0  0
  -31.7502  -19.7987   22.1660 C   0  0  0  0  0  0  0  0  0  0  0  0
  -24.5802  -26.3700   26.0973 C   0  0  0  0  0  0  0  0  0  0  0  0
  -32.3365  -17.6954   21.1319 C   0  0  0  0  0  0  0  0  0  0  0  0
  -21.8946   -9.9949   21.8912 C   0  0  0  0  0  0  0  0  0  0  0  0
  -23.6673   -8.4383   22.4123 C   0  0  0  0  0  0  0  0  0  0  0  0
  -25.5413  -25.4560   25.6675 C   0  0  0  0  0  0  0  0  0  0  0  0
  -21.1151   -6.2209   22.3974 C   0  0  0  0  0  0  0  0  0  0  0  0
  -21.0786   -4.8265   22.3999 C   0  0  0  0  0  0  0  0  0  0  0  0
  -30.0683  -18.0907   21.8642 C   0  0  0  0  0  0  0  0  0  0  0  0
  -26.1843  -26.9709   23.9037 C   0  0  0  0  0  0  0  0  0  0  0  0
  -21.8724   -4.8098   24.6817 C   0  0  0  0  0  0  0  0  0  0  0  0
  -24.0169  -10.1541   20.7478 C   0  0  0  0  0  0  0  0  0  0  0  0
  -24.6329  -10.9385   18.3998 C   0  0  0  0  0  0  0  0  0  0  0  0
  -30.4335  -19.3611   22.3095 C   0  0  0  0  0  0  0  0  0  0  0  0
  -17.2568  -28.7812   24.2656 C   0  0  0  0  0  0  0  0  0  0  0  0
  -24.4062  -27.5886   25.4257 C   0  0  0  0  0  0  0  0  0  0  0  0
  -18.4536  -28.0422   24.2009 C   0  0  0  0  0  0  0  0  0  0  0  0
  -25.2220  -27.8997   24.3285 C   0  0  0  0  0  0  0  0  0  0  0  0
  -31.0198  -17.2579   21.2754 C   0  0  0  0  0  0  0  0  0  0  0  0
  -22.3690   -8.9041   22.6197 C   0  0  0  0  0  0  0  0  0  0  0  0
  -26.3416  -25.7552   24.5688 C   0  0  0  0  0  0  0  0  0  0  0  0
  -21.5304   -6.9097   23.5371 C   0  0  0  0  0  0  0  0  0  0  0  0
  -21.4572   -4.1210   23.5420 C   0  0  0  0  0  0  0  0  0  0  0  0
  -21.9090   -6.2042   24.6792 C   0  0  0  0  0  0  0  0  0  0  0  0
  -24.8684  -10.7990   19.7807 C   0  0  0  0  0  0  0  0  0  0  0  0
  -25.7298  -11.6196   17.9315 C   0  0  0  0  0  0  0  0  0  0  0  0
  -23.5218  -10.4925   17.6109 C   0  0  0  0  0  0  0  0  0  0  0  0
  -22.0161  -28.9511   23.8335 C   0  0  0  0  0  0  0  0  0  0  0  0
  -24.0345  -31.4891   23.7507 C   0  0  0  0  0  0  0  0  0  0  0  0
  -27.2425  -32.6453   23.8877 C   0  0  0  0  0  0  0  0  0  0  0  0
  -29.3875  -15.3693   20.8840 C   0  0  0  0  0  0  0  0  0  0  0  0
  -17.0403  -30.0155   23.4265 C   0  0  0  0  0  0  0  0  0  0  0  0
  -23.3832  -28.5752   25.9182 C   0  0  0  0  0  0  0  0  0  0  0  0
  -25.0888  -29.2030   23.5855 C   0  0  0  0  0  0  0  0  0  0  0  0
  -18.3330  -30.6121   22.8757 C   0  0  0  0  0  0  0  0  0  0  0  0
  -30.2764  -11.8763   19.5677 C   0  0  0  0  0  0  0  0  0  0  0  0
  -29.1829  -21.5550   22.1367 C   0  0  0  0  0  0  0  0  0  0  0  0
  -29.7500  -20.5943   24.4115 C   0  0  0  0  0  0  0  0  0  0  0  0
  -19.2145  -29.5186   22.2807 C   0  0  0  0  0  0  0  0  0  0  0  0
  -28.1300  -22.4551   22.7828 C   0  0  0  0  0  0  0  0  0  0  0  0
  -28.6957  -21.4968   25.0519 C   0  0  0  0  0  0  0  0  0  0  0  0
  -29.0298  -11.5955   18.7320 C   0  0  0  0  0  0  0  0  0  0  0  0
  -30.5100  -13.3676   19.7733 C   0  0  0  0  0  0  0  0  0  0  0  0
  -28.0795  -13.3192   20.3617 C   0  0  0  0  0  0  0  0  0  0  0  0
  -29.3985  -20.2679   22.9503 C   0  0  0  0  0  0  0  0  0  0  0  0
  -19.6190  -28.4944   23.3479 C   0  0  1  0  0  0  0  0  0  0  0  0
  -22.9426  -29.5653   24.8445 C   0  0  1  0  0  0  0  0  0  0  0  0
  -28.4800  -22.7810   24.2406 C   0  0  0  0  0  0  0  0  0  0  0  0
  -27.8635  -12.5528   19.0475 C   0  0  2  0  0  0  0  0  0  0  0  0
  -28.5802  -34.7642   23.7525 C   0  0  0  0  0  0  0  0  0  0  0  0
  -23.6558  -31.5322   20.7234 C   0  0  0  0  0  0  0  0  0  0  0  0
  -25.6857  -32.9886   20.5602 C   0  0  0  0  0  0  0  0  0  0  0  0
  -23.6765  -33.7873   21.8043 C   0  0  0  0  0  0  0  0  0  0  0  0
  -28.2963  -32.2919   26.6306 C   0  0  0  0  0  0  0  0  0  0  0  0
  -27.3908  -23.6431   24.8762 C   0  0  0  0  0  0  0  0  0  1  0  0
  -25.1139  -31.9664   22.8094 C   0  0  1  0  0  0  0  0  0  0  0  0
  -27.8706  -33.7829   24.6724 C   0  0  2  0  0  0  0  0  0  0  0  0
  -24.5344  -32.5432   21.4869 C   0  0  0  0  0  0  0  0  0  0  0  0
  -26.0243  -11.3473   20.1646 N   0  0  0  0  0  0  0  0  0  0  0  0
  -26.5249  -11.8378   19.0179 N   0  0  0  0  0  0  0  0  0  0  0  0
  -24.0700  -30.1321   24.1015 N   0  0  0  0  0  0  0  0  0  0  0  0
  -29.3452  -14.0615   20.3416 N   0  0  0  0  0  0  0  0  0  0  0  0
  -26.0822  -12.0470   16.7004 N   0  0  0  0  0  0  0  0  0  0  0  0
  -23.5799   -9.2151   17.0371 N   0  0  0  0  0  0  0  0  0  0  0  0
  -30.6490  -15.9671   20.8221 N   0  0  0  0  0  0  0  0  0  0  0  0
  -20.6800  -29.0222   24.1787 N   0  0  0  0  0  0  0  0  0  0  0  0
  -25.9280  -32.9107   23.5671 N   0  0  0  0  0  0  0  0  0  0  0  0
  -28.8633  -33.2523   25.6491 N   0  3  0  0  0  0  0  0  0  0  0  0
  -22.5146  -11.2119   17.4070 O   0  0  0  0  0  0  0  0  0  0  0  0
  -22.4791  -28.4511   22.8150 O   0  0  0  0  0  0  0  0  0  0  0  0
  -23.1951  -32.2924   24.1653 O   0  0  0  0  0  0  0  0  0  0  0  0
  -27.8577  -31.6250   23.5858 O   0  0  0  0  0  0  0  0  0  0  0  0
  -28.3823  -15.9102   21.3499 O   0  0  0  0  0  0  0  0  0  0  0  0
  -21.5653   -8.2941   23.5333 O   0  0  0  0  0  0  0  0  0  0  0  0
  -27.2801  -24.8646   24.1468 O   0  0  0  0  0  0  0  0  0  1  0  0
  -21.4207   -2.7820   23.5448 F   0  0  0  0  0  0  0  0  0  0  0  0
  -22.3077   -6.8605   25.7775 F   0  0  0  0  0  0  0  0  0  0  0  0
  1  2  1  0  0  0  0
  1  6  2  0  0  0  0
  2  7  2  0  0  0  0
  3  8  2  0  0  0  0
  3 10  1  0  0  0  0
  4 11  2  0  0  0  0
  4 19  1  0  0  0  0
  5 12  1  0  0  0  0
  5 19  2  0  0  0  0
  6 22  1  0  0  0  0
  7 24  1  0  0  0  0
  8 21  1  0  0  0  0
  9 13  2  0  0  0  0
  9 23  1  0  0  0  0
 10 26  2  0  0  0  0
 11 27  1  0  0  0  0
 12 27  2  0  0  0  0
 13 28  1  0  0  0  0
 14 15  2  0  0  0  0
 14 29  1  0  0  0  0
 15 30  1  0  0  0  0
 16 21  2  0  0  0  0
 16 26  1  0  0  0  0
 17 25  1  0  0  0  0
 17 28  2  0  0  0  0
 18 30  2  0  0  0  0
 18 31  1  0  0  0  0
 19 32  1  0  0  0  0
 20 32  1  0  0  0  0
 20 33  2  0  0  0  0
 20 34  1  0  0  0  0
 21 52  1  0  0  0  0
 22 24  2  0  0  0  0
 22 39  1  0  0  0  0
 23 25  2  0  0  0  0
 23 40  1  0  0  0  0
 24 53  1  0  0  0  0
 25 41  1  0  0  0  0
 26 72  1  0  0  0  0
 27 81  1  0  0  0  0
 28 82  1  0  0  0  0
 29 31  2  0  0  0  0
 29 81  1  0  0  0  0
 30 83  1  0  0  0  0
 31 84  1  0  0  0  0
 32 66  2  0  0  0  0
 33 67  1  0  0  0  0
 33 70  1  0  0  0  0
 34 71  1  0  0  0  0
 34 76  2  0  0  0  0
 35 54  1  0  0  0  0
 35 73  1  0  0  0  0
 35 77  2  0  0  0  0
 36 63  1  0  0  0  0
 36 68  1  0  0  0  0
 36 78  2  0  0  0  0
 37 64  1  0  0  0  0
 37 74  1  0  0  0  0
 37 79  2  0  0  0  0
 38 69  1  0  0  0  0
 38 72  1  0  0  0  0
 38 80  2  0  0  0  0
 39 42  1  0  0  0  0
 40 54  1  0  0  0  0
 41 68  1  0  0  0  0
 42 46  1  0  0  0  0
 43 49  1  0  0  0  0
 43 50  1  0  0  0  0
 44 47  1  0  0  0  0
 44 52  1  0  0  0  0
 45 48  1  0  0  0  0
 45 52  1  0  0  0  0
 46 53  1  0  0  0  0
 47 55  1  0  0  0  0
 48 55  1  0  0  0  0
 49 56  1  0  0  0  0
 50 69  1  0  0  0  0
 51 56  1  0  0  0  0
 51 69  1  0  0  0  0
 53 73  1  0  0  0  0
 54 68  1  0  0  0  0
 55 62  1  0  0  0  0
 56 67  1  0  0  0  0
 57 64  1  0  0  0  0
 58 65  1  0  0  0  0
 59 65  1  0  0  0  0
 60 65  1  0  0  0  0
 61 75  1  0  0  0  0
 62 82  1  0  0  0  0
 63 65  1  0  0  0  0
 63 74  1  0  0  0  0
 64 75  1  0  0  0  0
 66 67  1  0  0  0  0
M  CHG  1  75   1
M  ISO  4  38 100  62 101  72 100  82 101
M  END
> <Batch ID>
0138

> <Smiles>
CNC(C)C(=O)NC(C(=O)N1Cc2cc([101O:1][101CH2:1]C3CCC(c4cccc([100NH:0][100C:0](=O)N5CCCC(n6nc(-c7ccc(Oc8ccc(F)cc8F)cc7)c(C(N)=O)c6N)C5)c4)CC3)ccc2CC1C(=O)NC1CCCc2ccccc21)C(C)(C)C

> <Shape>
0.258

> <Color>
0.109

> <Negative vol penalty>
0.000

$$$$

  -OEChem-04052302453D

 84 93  0     1  0  0  0  0  0999 V2000
  -23.3057  -12.2890   17.1928 C   0  0  0  0  0  0  0  0  0  0  0  0
  -22.7963  -13.4902   17.6757 C   0  0  0  0  0  0  0  0  0  0  0  0
  -29.9311  -26.3938   19.3122 C   0  0  0  0  0  0  0  0  0  0  0  0
  -29.7559  -26.1879   21.7130 C   0  0  0  0  0  0  0  0  0  0  0  0
  -24.2747  -11.6008   17.9218 C   0  0  0  0  0  0  0  0  0  0  0  0
  -23.2548  -14.0032   18.8886 C   0  0  0  0  0  0  0  0  0  0  0  0
  -23.9908  -19.9058   20.3461 C   0  0  0  0  0  0  0  0  0  0  0  0
  -18.7519  -26.8503   22.9688 C   0  0  0  0  0  0  0  0  0  0  0  0
  -31.3095  -26.1973   19.3959 C   0  0  0  0  0  0  0  0  0  0  0  0
  -31.1343  -25.9914   21.7967 C   0  0  0  0  0  0  0  0  0  0  0  0
  -23.1949  -20.8026   21.0574 C   0  0  0  0  0  0  0  0  0  0  0  0
  -34.9246  -26.1079   19.0129 C   0  0  0  0  0  0  0  0  0  0  0  0
  -17.7676  -27.6615   22.4044 C   0  0  0  0  0  0  0  0  0  0  0  0
  -35.7479  -26.9507   18.2663 C   0  0  0  0  0  0  0  0  0  0  0  0
  -24.4672  -20.3389   23.0538 C   0  0  0  0  0  0  0  0  0  0  0  0
  -19.4161  -29.3811   22.0010 C   0  0  0  0  0  0  0  0  0  0  0  0
  -34.8668  -28.8622   19.4525 C   0  0  0  0  0  0  0  0  0  0  0  0
  -29.1543  -26.3892   20.4707 C   0  0  0  0  0  0  0  0  0  0  0  0
  -26.7387  -25.6060   20.2281 C   0  0  0  0  0  0  0  0  0  0  0  0
  -24.7523  -12.1106   19.1395 C   0  0  0  0  0  0  0  0  0  0  0  0
  -25.0257  -19.2094   20.9868 C   0  0  0  0  0  0  0  0  0  0  0  0
  -24.2300  -13.3205   19.6352 C   0  0  0  0  0  0  0  0  0  0  0  0
  -20.0683  -27.3045   23.0495 C   0  0  0  0  0  0  0  0  0  0  0  0
  -25.2764  -19.4357   22.3477 C   0  0  0  0  0  0  0  0  0  0  0  0
  -20.4004  -28.5699   22.5656 C   0  0  0  0  0  0  0  0  0  0  0  0
  -31.9111  -25.9961   20.6381 C   0  0  0  0  0  0  0  0  0  0  0  0
  -23.4311  -21.0171   22.4121 C   0  0  0  0  0  0  0  0  0  0  0  0
  -34.0723  -26.6422   19.9793 C   0  0  0  0  0  0  0  0  0  0  0  0
  -18.0997  -28.9269   21.9204 C   0  0  0  0  0  0  0  0  0  0  0  0
  -35.7190  -28.3279   18.4861 C   0  0  0  0  0  0  0  0  0  0  0  0
  -34.0434  -28.0193   20.1991 C   0  0  0  0  0  0  0  0  0  0  0  0
  -27.7305  -26.5927   20.3850 C   0  0  0  0  0  0  0  0  0  0  0  0
  -25.5578  -26.3071   20.2029 C   0  0  0  0  0  0  0  0  0  0  0  0
  -26.8727  -24.1830   20.1154 C   0  0  0  0  0  0  0  0  0  0  0  0
  -25.6592  -16.1445   21.5420 C   0  0  0  0  0  0  0  0  0  0  0  0
  -28.4524  -17.3318   22.6867 C   0  0  0  0  0  0  0  0  0  0  0  0
  -30.1483  -19.9809   24.0108 C   0  0  0  0  0  0  0  0  0  0  0  0
  -22.2104  -30.2834   22.1997 C   0  0  0  0  0  0  0  0  0  0  0  0
  -25.7659  -11.3071   19.9151 C   0  0  0  0  0  0  0  0  0  0  0  0
  -25.8923  -18.2655   20.1993 C   0  0  0  0  0  0  0  0  0  0  0  0
  -26.3880  -18.7285   23.0776 C   0  0  0  0  0  0  0  0  0  0  0  0
  -26.4705  -12.1074   21.0076 C   0  0  0  0  0  0  0  0  0  0  0  0
  -24.6870  -31.2805   19.8440 C   0  0  0  0  0  0  0  0  0  0  0  0
  -20.4963  -25.4780   24.7257 C   0  0  0  0  0  0  0  0  0  0  0  0
  -25.4581  -12.9095   21.8190 C   0  0  0  0  0  0  0  0  0  0  0  0
  -20.6722  -24.0642   24.1805 C   0  0  0  0  0  0  0  0  0  0  0  0
  -25.6180  -30.0687   19.7618 C   0  0  0  0  0  0  0  0  0  0  0  0
  -21.7393  -25.4955   22.6055 C   0  0  0  0  0  0  0  0  0  0  0  0
  -24.1647  -31.4993   21.2628 C   0  0  0  0  0  0  0  0  0  0  0  0
  -24.4655  -29.1134   21.7981 C   0  0  0  0  0  0  0  0  0  0  0  0
  -21.0999  -26.4174   23.6606 C   0  0  1  0  0  0  0  0  0  0  0  0
  -24.7201  -13.9218   20.9346 C   0  0  1  0  0  0  0  0  0  0  0  0
  -26.5899  -17.2262   21.0714 C   0  0  1  0  0  0  0  0  0  0  0  0
  -21.9328  -24.1640   23.3285 C   0  0  2  0  0  0  0  0  0  0  0  0
  -24.9656  -28.8143   20.3754 C   0  0  2  0  0  0  0  0  0  0  0  0
  -32.1038  -21.3031   24.8622 C   0  0  0  0  0  0  0  0  0  0  0  0
  -27.9022  -15.7983   25.2666 C   0  0  0  0  0  0  0  0  0  0  0  0
  -29.6347  -17.2112   26.3938 C   0  0  0  0  0  0  0  0  0  0  0  0
  -30.2806  -15.7256   24.4968 C   0  0  0  0  0  0  0  0  0  0  0  0
  -30.7860  -20.9987   21.3059 C   0  0  0  0  0  0  0  0  0  0  0  0
  -22.1075  -22.9927   22.3856 C   0  0  0  0  0  0  0  0  0  1  0  0
  -28.9368  -17.8161   24.0320 C   0  0  1  0  0  0  0  0  0  0  0  0
  -31.4958  -20.5886   23.6653 C   0  0  2  0  0  0  0  0  0  0  0  0
  -29.1663  -16.6498   25.0343 C   0  0  0  0  0  0  0  0  0  0  0  0
  -27.2239  -27.8266   20.4543 N   0  0  0  0  0  0  0  0  0  0  0  0
  -25.9009  -27.6200   20.3405 N   0  0  0  0  0  0  0  0  0  0  0  0
  -27.2037  -17.8105   22.2655 N   0  0  0  0  0  0  0  0  0  0  0  0
  -23.5566  -30.2702   21.7772 N   0  0  0  0  0  0  0  0  0  0  0  0
  -24.2700  -25.9225   20.0767 N   0  0  0  0  0  0  0  0  0  0  0  0
  -28.1586  -23.6274   20.1609 N   0  0  0  0  0  0  0  0  0  0  0  0
  -21.7318  -29.0494   22.6385 N   0  0  0  0  0  0  0  0  0  0  0  0
  -25.5587  -15.0726   20.6757 N   0  0  0  0  0  0  0  0  0  0  0  0
  -30.1241  -18.6230   23.7721 N   0  0  0  0  0  0  0  0  0  0  0  0
  -31.3513  -21.5716   22.5546 N   0  3  0  0  0  0  0  0  0  0  0  0
  -25.8828  -23.4280   19.9620 O   0  0  0  0  0  0  0  0  0  0  0  0
  -25.0766  -16.2721   22.6125 O   0  0  0  0  0  0  0  0  0  0  0  0
  -29.1593  -16.5628   22.0305 O   0  0  0  0  0  0  0  0  0  0  0  0
  -29.2121  -20.6437   24.4520 O   0  0  0  0  0  0  0  0  0  0  0  0
  -21.5242  -31.3074   22.1487 O   0  0  0  0  0  0  0  0  0  0  0  0
  -33.2561  -25.8041   20.7202 O   0  0  0  0  0  0  0  0  0  0  0  0
  -22.6553  -21.8914   23.1090 O   0  0  0  0  0  0  0  0  0  1  0  0
  -17.1537  -29.7052   21.3786 F   0  0  0  0  0  0  0  0  0  0  0  0
  -36.5108  -29.1370   17.7702 F   0  0  0  0  0  0  0  0  0  0  0  0
  -33.2276  -28.5384   21.1269 F   0  0  0  0  0  0  0  0  0  0  0  0
  1  2  1  0  0  0  0
  1  5  2  0  0  0  0
  2  6  2  0  0  0  0
  3  9  2  0  0  0  0
  3 18  1  0  0  0  0
  4 10  1  0  0  0  0
  4 18  2  0  0  0  0
  5 20  1  0  0  0  0
  6 22  1  0  0  0  0
  7 11  2  0  0  0  0
  7 21  1  0  0  0  0
  8 13  2  0  0  0  0
  8 23  1  0  0  0  0
  9 26  1  0  0  0  0
 10 26  2  0  0  0  0
 11 27  1  0  0  0  0
 12 14  2  0  0  0  0
 12 28  1  0  0  0  0
 13 29  1  0  0  0  0
 14 30  1  0  0  0  0
 15 24  1  0  0  0  0
 15 27  2  0  0  0  0
 16 25  1  0  0  0  0
 16 29  2  0  0  0  0
 17 30  2  0  0  0  0
 17 31  1  0  0  0  0
 18 32  1  0  0  0  0
 19 32  1  0  0  0  0
 19 33  2  0  0  0  0
 19 34  1  0  0  0  0
 20 22  2  0  0  0  0
 20 39  1  0  0  0  0
 21 24  2  0  0  0  0
 21 40  1  0  0  0  0
 22 52  1  0  0  0  0
 23 25  2  0  0  0  0
 23 51  1  0  0  0  0
 24 41  1  0  0  0  0
 25 71  1  0  0  0  0
 26 80  1  0  0  0  0
 27 81  1  0  0  0  0
 28 31  2  0  0  0  0
 28 80  1  0  0  0  0
 29 82  1  0  0  0  0
 30 83  1  0  0  0  0
 31 84  1  0  0  0  0
 32 65  2  0  0  0  0
 33 66  1  0  0  0  0
 33 69  1  0  0  0  0
 34 70  1  0  0  0  0
 34 75  2  0  0  0  0
 35 53  1  0  0  0  0
 35 72  1  0  0  0  0
 35 76  2  0  0  0  0
 36 62  1  0  0  0  0
 36 67  1  0  0  0  0
 36 77  2  0  0  0  0
 37 63  1  0  0  0  0
 37 73  1  0  0  0  0
 37 78  2  0  0  0  0
 38 68  1  0  0  0  0
 38 71  1  0  0  0  0
 38 79  2  0  0  0  0
 39 42  1  0  0  0  0
 40 53  1  0  0  0  0
 41 67  1  0  0  0  0
 42 45  1  0  0  0  0
 43 47  1  0  0  0  0
 43 49  1  0  0  0  0
 44 46  1  0  0  0  0
 44 51  1  0  0  0  0
 45 52  1  0  0  0  0
 46 54  1  0  0  0  0
 47 55  1  0  0  0  0
 48 51  1  0  0  0  0
 48 54  1  0  0  0  0
 49 68  1  0  0  0  0
 50 55  1  0  0  0  0
 50 68  1  0  0  0  0
 52 72  1  0  0  0  0
 53 67  1  0  0  0  0
 54 61  1  0  0  0  0
 55 66  1  0  0  0  0
 56 63  1  0  0  0  0
 57 64  1  0  0  0  0
 58 64  1  0  0  0  0
 59 64  1  0  0  0  0
 60 74  1  0  0  0  0
 61 81  1  0  0  0  0
 62 64  1  0  0  0  0
 62 73  1  0  0  0  0
 63 74  1  0  0  0  0
 65 66  1  0  0  0  0
M  CHG  1  74   1
M  ISO  4  38 100  61 101  71 100  81 101
M  END
> <Batch ID>
0138

> <Smiles>
CNC(C)C(=O)NC(C(=O)N1Cc2cc([101O:1][101CH2:1]C3CCC(c4ccc(F)cc4[100NH:0][100C:0](=O)N4CCCC(n5nc(-c6ccc(Oc7ccc(F)cc7F)cc6)c(C(N)=O)c5N)C4)C3)ccc2CC1C(=O)NC1CCCc2ccccc21)C(C)(C)C

> <Shape>
0.181

> <Color>
0.088

> <Negative vol penalty>
0.000

$$$$

  -OEChem-04052302453D

 85 93  0     1  0  0  0  0  0999 V2000
  -26.1665  -33.1229   18.5982 C   0  0  0  0  0  0  0  0  0  0  0  0
  -26.5940  -31.8787   19.0507 C   0  0  0  0  0  0  0  0  0  0  0  0
  -23.0681   -9.9008   19.9211 C   0  0  0  0  0  0  0  0  0  0  0  0
  -23.8568   -9.8513   22.2042 C   0  0  0  0  0  0  0  0  0  0  0  0
  -25.0735  -33.7446   19.2006 C   0  0  0  0  0  0  0  0  0  0  0  0
  -25.9295  -31.2560   20.1067 C   0  0  0  0  0  0  0  0  0  0  0  0
  -25.0749  -26.3411   19.2359 C   0  0  0  0  0  0  0  0  0  0  0  0
  -31.3011  -19.1141   20.7153 C   0  0  0  0  0  0  0  0  0  0  0  0
  -31.1351  -17.7298   20.6750 C   0  0  0  0  0  0  0  0  0  0  0  0
  -22.3297   -8.7400   20.1509 C   0  0  0  0  0  0  0  0  0  0  0  0
  -23.1184   -8.6905   22.4341 C   0  0  0  0  0  0  0  0  0  0  0  0
  -26.1486  -25.4682   19.4064 C   0  0  0  0  0  0  0  0  0  0  0  0
  -19.8997   -7.8701   23.0566 C   0  0  0  0  0  0  0  0  0  0  0  0
  -19.1576   -7.7987   24.2355 C   0  0  0  0  0  0  0  0  0  0  0  0
  -25.2955  -24.8523   21.5771 C   0  0  0  0  0  0  0  0  0  0  0  0
  -29.5266  -17.8704   22.4722 C   0  0  0  0  0  0  0  0  0  0  0  0
  -20.4121   -5.8461   24.9068 C   0  0  0  0  0  0  0  0  0  0  0  0
  -23.8317  -10.4565   20.9477 C   0  0  0  0  0  0  0  0  0  0  0  0
  -24.1669  -12.9846   20.8876 C   0  0  0  0  0  0  0  0  0  0  0  0
  -24.3893  -33.1248   20.2581 C   0  0  0  0  0  0  0  0  0  0  0  0
  -24.1077  -26.4845   20.2411 C   0  0  0  0  0  0  0  0  0  0  0  0
  -24.8272  -31.8706   20.7247 C   0  0  0  0  0  0  0  0  0  0  0  0
  -24.2091  -25.7258   21.4159 C   0  0  0  0  0  0  0  0  0  0  0  0
  -30.5800  -19.8767   21.6342 C   0  0  0  0  0  0  0  0  0  0  0  0
  -30.2478  -17.1080   21.5534 C   0  0  0  0  0  0  0  0  0  0  0  0
  -29.6927  -19.2548   22.5126 C   0  0  0  0  0  0  0  0  0  0  0  0
  -22.3549   -8.1348   21.4074 C   0  0  0  0  0  0  0  0  0  0  0  0
  -26.2606  -24.7258   20.5783 C   0  0  0  0  0  0  0  0  0  0  0  0
  -20.8979   -6.9295   22.8027 C   0  0  0  0  0  0  0  0  0  0  0  0
  -19.4138   -6.7867   25.1606 C   0  0  0  0  0  0  0  0  0  0  0  0
  -21.1541   -5.9175   23.7278 C   0  0  0  0  0  0  0  0  0  0  0  0
  -24.5951  -11.6553   20.7107 C   0  0  0  0  0  0  0  0  0  0  0  0
  -25.2529  -13.7456   20.5298 C   0  0  0  0  0  0  0  0  0  0  0  0
  -22.9008  -13.4867   21.3354 C   0  0  0  0  0  0  0  0  0  0  0  0
  -23.1094  -28.8873   22.0670 C   0  0  0  0  0  0  0  0  0  0  0  0
  -20.8826  -26.7277   23.0155 C   0  0  0  0  0  0  0  0  0  0  0  0
  -19.9947  -23.4531   23.3834 C   0  0  0  0  0  0  0  0  0  0  0  0
  -30.7188  -14.7991   20.6624 C   0  0  0  0  0  0  0  0  0  0  0  0
  -23.2426  -33.8571   20.9089 C   0  0  0  0  0  0  0  0  0  0  0  0
  -22.9412  -27.4105   20.0307 C   0  0  0  0  0  0  0  0  0  0  0  0
  -23.1864  -25.8282   22.5168 C   0  0  0  0  0  0  0  0  0  0  0  0
  -22.3611  -32.9612   21.7754 C   0  0  0  0  0  0  0  0  0  0  0  0
  -29.5794  -12.4437   18.2477 C   0  0  0  0  0  0  0  0  0  0  0  0
  -23.2192  -32.0805   22.6782 C   0  0  0  0  0  0  0  0  0  0  0  0
  -28.1459  -12.1379   18.6878 C   0  0  0  0  0  0  0  0  0  0  0  0
  -30.5091  -12.6440   19.4432 C   0  0  0  0  0  0  0  0  0  0  0  0
  -28.6183  -13.3287   20.8663 C   0  0  0  0  0  0  0  0  0  0  0  0
  -24.1169  -31.1521   21.8513 C   0  0  1  0  0  0  0  0  0  0  0  0
  -22.2921  -27.8600   21.3360 C   0  0  1  0  0  0  0  0  0  0  0  0
  -27.6311  -13.1832   19.6968 C   0  0  2  0  0  0  0  0  0  0  0  0
  -18.1285  -22.0004   24.2226 C   0  0  0  0  0  0  0  0  0  0  0  0
  -21.7304  -27.3030   25.8895 C   0  0  0  0  0  0  0  0  0  0  0  0
  -20.5560  -25.2033   26.5826 C   0  0  0  0  0  0  0  0  0  0  0  0
  -19.2625  -27.0730   25.5560 C   0  0  0  0  0  0  0  0  0  0  0  0
  -31.0454  -24.0385   20.1388 C   0  0  0  0  0  0  0  0  0  0  0  0
  -29.7578  -24.2854   22.2763 C   0  0  0  0  0  0  0  0  0  0  0  0
  -27.6613  -19.6212   23.9143 C   0  0  0  0  0  0  0  0  0  0  0  0
  -19.5809  -22.2431   20.7143 C   0  0  0  0  0  0  0  0  0  0  0  0
  -30.7792  -21.3730   21.6555 C   0  0  0  0  0  0  0  0  0  0  0  0
  -29.6177  -22.1015   20.9652 C   0  0  0  0  0  0  0  0  0  0  0  0
  -28.5337  -24.2145   20.1013 C   0  0  0  0  0  0  0  0  0  1  0  0
  -20.7996  -25.6860   24.1050 C   0  0  1  0  0  0  0  0  0  0  0  0
  -18.7256  -22.7060   23.0150 C   0  0  2  0  0  0  0  0  0  0  0  0
  -20.6076  -26.3156   25.5136 C   0  0  0  0  0  0  0  0  0  0  0  0
  -29.7500  -23.6488   20.8751 C   0  0  0  0  0  0  0  0  0  0  0  0
  -25.8547  -11.5730   20.2742 N   0  0  0  0  0  0  0  0  0  0  0  0
  -26.2274  -12.8603   20.1739 N   0  0  0  0  0  0  0  0  0  0  0  0
  -22.0676  -26.7519   22.2666 N   0  0  0  0  0  0  0  0  0  0  0  0
  -29.9592  -13.6509   20.3535 N   0  0  0  0  0  0  0  0  0  0  0  0
  -25.4597  -15.0790   20.4881 N   0  0  0  0  0  0  0  0  0  0  0  0
  -21.8950  -12.5669   21.6622 N   0  0  0  0  0  0  0  0  0  0  0  0
  -30.0799  -15.7016   21.5122 N   0  0  0  0  0  0  0  0  0  0  0  0
  -28.9553  -20.0115   23.4498 N   0  0  0  0  0  0  0  0  0  0  0  0
  -23.3526  -30.0356   21.3378 N   0  0  0  0  0  0  0  0  0  0  0  0
  -19.7368  -24.7673   23.7112 N   0  0  0  0  0  0  0  0  0  0  0  0
  -19.0111  -21.6850   21.9676 N   0  3  0  0  0  0  0  0  0  0  0  0
  -22.6628  -14.7149   21.4270 O   0  0  0  0  0  0  0  0  0  0  0  0
  -23.4899  -28.6559   23.2086 O   0  0  0  0  0  0  0  0  0  0  0  0
  -19.9282  -27.4871   22.8309 O   0  0  0  0  0  0  0  0  0  0  0  0
  -21.1034  -22.9227   23.3841 O   0  0  0  0  0  0  0  0  0  0  0  0
  -31.8415  -14.9823   20.1851 O   0  0  0  0  0  0  0  0  0  0  0  0
  -21.6343   -7.0022   21.6322 O   0  0  0  0  0  0  0  0  0  0  0  0
  -27.3079  -23.8735   20.7475 O   0  0  0  0  0  0  0  0  0  1  0  0
  -18.7022   -6.7192   26.2934 F   0  0  0  0  0  0  0  0  0  0  0  0
  -22.1126   -5.0117   23.4900 F   0  0  0  0  0  0  0  0  0  0  0  0
  1  2  1  0  0  0  0
  1  5  2  0  0  0  0
  2  6  2  0  0  0  0
  3 10  2  0  0  0  0
  3 18  1  0  0  0  0
  4 11  1  0  0  0  0
  4 18  2  0  0  0  0
  5 20  1  0  0  0  0
  6 22  1  0  0  0  0
  7 12  2  0  0  0  0
  7 21  1  0  0  0  0
  8  9  2  0  0  0  0
  8 24  1  0  0  0  0
  9 25  1  0  0  0  0
 10 27  1  0  0  0  0
 11 27  2  0  0  0  0
 12 28  1  0  0  0  0
 13 14  2  0  0  0  0
 13 29  1  0  0  0  0
 14 30  1  0  0  0  0
 15 23  1  0  0  0  0
 15 28  2  0  0  0  0
 16 25  2  0  0  0  0
 16 26  1  0  0  0  0
 17 30  2  0  0  0  0
 17 31  1  0  0  0  0
 18 32  1  0  0  0  0
 19 32  1  0  0  0  0
 19 33  2  0  0  0  0
 19 34  1  0  0  0  0
 20 22  2  0  0  0  0
 20 39  1  0  0  0  0
 21 23  2  0  0  0  0
 21 40  1  0  0  0  0
 22 48  1  0  0  0  0
 23 41  1  0  0  0  0
 24 26  2  0  0  0  0
 24 59  1  0  0  0  0
 25 72  1  0  0  0  0
 26 73  1  0  0  0  0
 27 82  1  0  0  0  0
 28 83  1  0  0  0  0
 29 31  2  0  0  0  0
 29 82  1  0  0  0  0
 30 84  1  0  0  0  0
 31 85  1  0  0  0  0
 32 66  2  0  0  0  0
 33 67  1  0  0  0  0
 33 70  1  0  0  0  0
 34 71  1  0  0  0  0
 34 77  2  0  0  0  0
 35 49  1  0  0  0  0
 35 74  1  0  0  0  0
 35 78  2  0  0  0  0
 36 62  1  0  0  0  0
 36 68  1  0  0  0  0
 36 79  2  0  0  0  0
 37 63  1  0  0  0  0
 37 75  1  0  0  0  0
 37 80  2  0  0  0  0
 38 69  1  0  0  0  0
 38 72  1  0  0  0  0
 38 81  2  0  0  0  0
 39 42  1  0  0  0  0
 40 49  1  0  0  0  0
 41 68  1  0  0  0  0
 42 44  1  0  0  0  0
 43 45  1  0  0  0  0
 43 46  1  0  0  0  0
 44 48  1  0  0  0  0
 45 50  1  0  0  0  0
 46 69  1  0  0  0  0
 47 50  1  0  0  0  0
 47 69  1  0  0  0  0
 48 74  1  0  0  0  0
 49 68  1  0  0  0  0
 50 67  1  0  0  0  0
 51 63  1  0  0  0  0
 52 64  1  0  0  0  0
 53 64  1  0  0  0  0
 54 64  1  0  0  0  0
 55 65  1  0  0  0  0
 56 65  1  0  0  0  0
 57 73  1  0  0  0  0
 58 76  1  0  0  0  0
 59 60  1  0  0  0  0
 60 65  1  0  0  0  0
 61 65  1  0  0  0  0
 61 83  1  0  0  0  0
 62 64  1  0  0  0  0
 62 75  1  0  0  0  0
 63 76  1  0  0  0  0
 66 67  1  0  0  0  0
M  CHG  1  76   1
M  ISO  4  38 100  61 101  72 100  83 101
M  END
> <Batch ID>
0138

> <Smiles>
CNc1cc([100NH:0][100C:0](=O)N2CCCC(n3nc(-c4ccc(Oc5ccc(F)cc5F)cc4)c(C(N)=O)c3N)C2)ccc1CCC(C)(C)[101CH2:1][101O:1]c1ccc2c(c1)CN(C(=O)C(NC(=O)C(C)NC)C(C)(C)C)C(C(=O)NC1CCCc3ccccc31)C2

> <Shape>
0.291

> <Color>
0.216

> <Negative vol penalty>
0.000

$$$$

  -OEChem-04052302453D

 89 97  0     1  0  0  0  0  0999 V2000
  -28.5036  -24.5021   16.7306 C   0  0  0  0  0  0  0  0  0  0  0  0
  -27.3243  -24.6205   17.4590 C   0  0  0  0  0  0  0  0  0  0  0  0
  -24.7283  -13.1896   20.7588 C   0  0  0  0  0  0  0  0  0  0  0  0
  -22.9057  -14.6504   21.3762 C   0  0  0  0  0  0  0  0  0  0  0  0
  -29.6708  -25.1088   17.1925 C   0  0  0  0  0  0  0  0  0  0  0  0
  -27.3118  -25.3449   18.6505 C   0  0  0  0  0  0  0  0  0  0  0  0
  -23.3035  -28.4184   19.0136 C   0  0  0  0  0  0  0  0  0  0  0  0
  -24.2118  -12.1944   21.5885 C   0  0  0  0  0  0  0  0  0  0  0  0
  -22.3891  -13.6552   22.2059 C   0  0  0  0  0  0  0  0  0  0  0  0
  -22.0852  -27.8374   19.3626 C   0  0  0  0  0  0  0  0  0  0  0  0
  -24.1672  -11.4812   24.8921 C   0  0  0  0  0  0  0  0  0  0  0  0
  -25.0599  -10.8012   25.7204 C   0  0  0  0  0  0  0  0  0  0  0  0
  -22.3919  -28.5755   21.6386 C   0  0  0  0  0  0  0  0  0  0  0  0
  -26.2032  -23.3813   23.0138 C   0  0  0  0  0  0  0  0  0  0  0  0
  -23.9974  -22.6525   22.3502 C   0  0  0  0  0  0  0  0  0  0  0  0
  -24.4642   -8.7177   24.6520 C   0  0  0  0  0  0  0  0  0  0  0  0
  -24.0753  -14.4176   20.6527 C   0  0  0  0  0  0  0  0  0  0  0  0
  -24.2469  -24.4522   23.9426 C   0  0  0  0  0  0  0  0  0  0  0  0
  -24.3156  -15.6560   18.4355 C   0  0  0  0  0  0  0  0  0  0  0  0
  -29.6704  -25.8490   18.3852 C   0  0  0  0  0  0  0  0  0  0  0  0
  -24.0817  -29.0740   19.9785 C   0  0  0  0  0  0  0  0  0  0  0  0
  -28.4805  -25.9609   19.1295 C   0  0  0  0  0  0  0  0  0  0  0  0
  -23.6185  -29.1663   21.2988 C   0  0  0  0  0  0  0  0  0  0  0  0
  -25.6343  -24.3382   23.8542 C   0  0  0  0  0  0  0  0  0  0  0  0
  -25.3848  -22.5385   22.2618 C   0  0  0  0  0  0  0  0  0  0  0  0
  -23.0421  -12.4272   22.3120 C   0  0  0  0  0  0  0  0  0  0  0  0
  -21.6305  -27.9133   20.6758 C   0  0  0  0  0  0  0  0  0  0  0  0
  -23.4229  -10.7795   23.9437 C   0  0  0  0  0  0  0  0  0  0  0  0
  -23.4284  -23.6094   23.1907 C   0  0  0  0  0  0  0  0  0  0  0  0
  -25.2084   -9.4194   25.6004 C   0  0  0  0  0  0  0  0  0  0  0  0
  -23.5715   -9.3978   23.8236 C   0  0  0  0  0  0  0  0  0  0  0  0
  -24.6087  -15.4463   19.7963 C   0  0  0  0  0  0  0  0  0  0  0  0
  -25.0715  -16.7483   18.0858 C   0  0  0  0  0  0  0  0  0  0  0  0
  -23.6454  -25.4497   24.8211 C   0  0  0  0  0  0  0  0  0  0  0  0
  -23.4385  -14.9287   17.5652 C   0  0  0  0  0  0  0  0  0  0  0  0
  -26.9853  -28.6350   21.1950 C   0  0  0  0  0  0  0  0  0  0  0  0
  -20.1016  -24.7837   22.3616 C   0  0  0  0  0  0  0  0  0  0  0  0
  -26.3574  -31.4431   22.6926 C   0  0  0  0  0  0  0  0  0  0  0  0
  -24.0271  -33.6451   23.8622 C   0  0  0  0  0  0  0  0  0  0  0  0
  -27.3208  -21.3230   21.2031 C   0  0  0  0  0  0  0  0  0  0  0  0
  -30.9677  -26.4473   18.8687 C   0  0  0  0  0  0  0  0  0  0  0  0
  -25.3810  -29.7188   19.5803 C   0  0  0  0  0  0  0  0  0  0  0  0
  -24.4066  -29.8765   22.3678 C   0  0  0  0  0  0  0  0  0  0  0  0
  -30.7831  -27.5111   19.9478 C   0  0  0  0  0  0  0  0  0  0  0  0
  -29.1446  -19.0000   19.2145 C   0  0  0  0  0  0  0  0  0  0  0  0
  -29.8066  -27.0258   21.0145 C   0  0  0  0  0  0  0  0  0  0  0  0
  -28.1596  -17.8469   19.0090 C   0  0  0  0  0  0  0  0  0  0  0  0
  -29.0205  -19.6102   20.6095 C   0  0  0  0  0  0  0  0  0  0  0  0
  -26.6777  -18.8682   20.7833 C   0  0  0  0  0  0  0  0  0  0  0  0
  -28.4211  -26.7592   20.4138 C   0  0  1  0  0  0  0  0  0  0  0  0
  -26.3348  -29.9158   20.7545 C   0  0  1  0  0  0  0  0  0  0  0  0
  -26.7204  -18.2639   19.3703 C   0  0  2  0  0  0  0  0  0  0  0  0
  -26.5358  -25.2276   24.6469 C   0  0  0  0  0  0  0  0  0  0  0  0
  -22.7471  -24.9534   25.9137 C   0  0  0  0  0  0  0  0  0  0  0  0
  -23.8174  -35.8325   25.0740 C   0  0  0  0  0  0  0  0  0  0  0  0
  -18.7971  -23.9951   20.3602 C   0  0  0  0  0  0  0  0  0  0  0  0
  -17.9591  -25.9400   21.6739 C   0  0  0  0  0  0  0  0  0  0  0  0
  -27.0377  -30.0498   25.3205 C   0  0  0  0  0  0  0  0  0  0  0  0
  -25.9184  -31.9351   26.5292 C   0  0  0  0  0  0  0  0  0  0  0  0
  -27.9245  -32.3791   25.1147 C   0  0  0  0  0  0  0  0  0  0  0  0
  -22.6393  -34.9114   21.5755 C   0  0  0  0  0  0  0  0  0  0  0  0
  -21.3710  -24.0010   22.0640 C   0  0  0  0  0  0  0  0  0  0  0  0
  -20.0327  -26.1971   20.2792 C   0  0  0  0  0  0  0  0  0  1  0  0
  -25.7195  -31.8366   24.0030 C   0  0  1  0  0  0  0  0  0  0  0  0
  -23.9021  -35.1510   23.7171 C   0  0  2  0  0  0  0  0  0  0  0  0
  -19.2266  -25.2339   21.1697 C   0  0  0  0  0  0  0  0  0  0  0  0
  -26.6358  -31.5350   25.2224 C   0  0  0  0  0  0  0  0  0  0  0  0
  -25.4827  -16.3339   20.2783 N   0  0  0  0  0  0  0  0  0  0  0  0
  -25.7454  -17.1119   19.2144 N   0  0  0  0  0  0  0  0  0  0  0  0
  -25.6736  -30.4854   21.9303 N   0  0  0  0  0  0  0  0  0  0  0  0
  -27.6308  -19.9849   20.8801 N   0  0  0  0  0  0  0  0  0  0  0  0
  -25.2188  -17.4234   16.9261 N   0  0  0  0  0  0  0  0  0  0  0  0
  -22.7377  -13.8327   18.0868 N   0  0  0  0  0  0  0  0  0  0  0  0
  -25.9632  -21.5670   21.4076 N   0  0  0  0  0  0  0  0  0  0  0  0
  -27.7130  -28.0038   20.2043 N   0  0  0  0  0  0  0  0  0  0  0  0
  -25.3452  -33.2404   23.8695 N   0  0  0  0  0  0  0  0  0  0  0  0
  -22.6781  -35.4967   22.9404 N   0  3  0  0  0  0  0  0  0  0  0  0
  -23.8184  -26.6640   24.7263 O   0  0  0  0  0  0  0  0  0  0  0  0
  -23.2933  -15.2314   16.3566 O   0  0  0  0  0  0  0  0  0  0  0  0
  -26.8391  -28.2488   22.3488 O   0  0  0  0  0  0  0  0  0  0  0  0
  -19.7715  -25.0181   23.5267 O   0  0  0  0  0  0  0  0  0  0  0  0
  -27.4195  -31.9715   22.3543 O   0  0  0  0  0  0  0  0  0  0  0  0
  -23.0530  -32.9024   23.9630 O   0  0  0  0  0  0  0  0  0  0  0  0
  -28.1921  -22.1942   21.2651 O   0  0  0  0  0  0  0  0  0  0  0  0
  -22.5377  -11.4562   23.1215 O   0  0  0  0  0  0  0  0  0  0  0  0
  -22.0599  -23.7044   23.2630 O   0  0  0  0  0  0  0  0  0  0  0  0
  -20.4420  -27.3465   21.0193 O   0  0  0  0  0  0  0  0  0  1  0  0
  -26.0669   -8.7667   26.3949 F   0  0  0  0  0  0  0  0  0  0  0  0
  -22.8601   -8.7184   22.9136 F   0  0  0  0  0  0  0  0  0  0  0  0
  1  2  1  0  0  0  0
  1  5  2  0  0  0  0
  2  6  2  0  0  0  0
  3  8  2  0  0  0  0
  3 17  1  0  0  0  0
  4  9  1  0  0  0  0
  4 17  2  0  0  0  0
  5 20  1  0  0  0  0
  6 22  1  0  0  0  0
  7 10  2  0  0  0  0
  7 21  1  0  0  0  0
  8 26  1  0  0  0  0
  9 26  2  0  0  0  0
 10 27  1  0  0  0  0
 11 12  2  0  0  0  0
 11 28  1  0  0  0  0
 12 30  1  0  0  0  0
 13 23  1  0  0  0  0
 13 27  2  0  0  0  0
 14 24  2  0  0  0  0
 14 25  1  0  0  0  0
 15 25  2  0  0  0  0
 15 29  1  0  0  0  0
 16 30  2  0  0  0  0
 16 31  1  0  0  0  0
 17 32  1  0  0  0  0
 18 24  1  0  0  0  0
 18 29  2  0  0  0  0
 18 34  1  0  0  0  0
 19 32  1  0  0  0  0
 19 33  2  0  0  0  0
 19 35  1  0  0  0  0
 20 22  2  0  0  0  0
 20 41  1  0  0  0  0
 21 23  2  0  0  0  0
 21 42  1  0  0  0  0
 22 50  1  0  0  0  0
 23 43  1  0  0  0  0
 24 53  1  0  0  0  0
 25 74  1  0  0  0  0
 26 85  1  0  0  0  0
 27 87  1  0  0  0  0
 28 31  2  0  0  0  0
 28 85  1  0  0  0  0
 29 86  1  0  0  0  0
 30 88  1  0  0  0  0
 31 89  1  0  0  0  0
 32 68  2  0  0  0  0
 33 69  1  0  0  0  0
 33 72  1  0  0  0  0
 34 54  1  0  0  0  0
 34 78  2  0  0  0  0
 35 73  1  0  0  0  0
 35 79  2  0  0  0  0
 36 51  1  0  0  0  0
 36 75  1  0  0  0  0
 36 80  2  0  0  0  0
 37 62  1  0  0  0  0
 37 66  1  0  0  0  0
 37 81  2  0  0  0  0
 38 64  1  0  0  0  0
 38 70  1  0  0  0  0
 38 82  2  0  0  0  0
 39 65  1  0  0  0  0
 39 76  1  0  0  0  0
 39 83  2  0  0  0  0
 40 71  1  0  0  0  0
 40 74  1  0  0  0  0
 40 84  2  0  0  0  0
 41 44  1  0  0  0  0
 42 51  1  0  0  0  0
 43 70  1  0  0  0  0
 44 46  1  0  0  0  0
 45 47  1  0  0  0  0
 45 48  1  0  0  0  0
 46 50  1  0  0  0  0
 47 52  1  0  0  0  0
 48 71  1  0  0  0  0
 49 52  1  0  0  0  0
 49 71  1  0  0  0  0
 50 75  1  0  0  0  0
 51 70  1  0  0  0  0
 52 69  1  0  0  0  0
 55 65  1  0  0  0  0
 56 66  1  0  0  0  0
 57 66  1  0  0  0  0
 58 67  1  0  0  0  0
 59 67  1  0  0  0  0
 60 67  1  0  0  0  0
 61 77  1  0  0  0  0
 62 86  1  0  0  0  0
 63 66  1  0  0  0  0
 63 87  1  0  0  0  0
 64 67  1  0  0  0  0
 64 76  1  0  0  0  0
 65 77  1  0  0  0  0
 68 69  1  0  0  0  0
M  CHG  1  77   1
M  ISO  4  40 100  63 101  74 100  87 101
M  END
> <Batch ID>
0138

> <Smiles>
CNC(C)C(=O)NC(C(=O)N1Cc2cc([101O:1][101CH2:1]C(C)(C)C(=O)COc3cc([100NH:0][100C:0](=O)N4CCCC(n5nc(-c6ccc(Oc7ccc(F)cc7F)cc6)c(C(N)=O)c5N)C4)cc(C)c3C(C)=O)ccc2CC1C(=O)NC1CCCc2ccccc21)C(C)(C)C

> <Shape>
0.269

> <Color>
0.055

> <Negative vol penalty>
0.000

$$$$

  -OEChem-04052302453D

 86 94  0     1  0  0  0  0  0999 V2000
  -23.9521  -22.6085   19.0295 C   0  0  0  0  0  0  0  0  0  0  0  0
  -25.0173  -21.7647   18.7314 C   0  0  0  0  0  0  0  0  0  0  0  0
  -26.8957  -29.6597   20.0779 C   0  0  0  0  0  0  0  0  0  0  0  0
  -26.4108  -28.2494   21.9787 C   0  0  0  0  0  0  0  0  0  0  0  0
  -23.0470  -22.2595   20.0309 C   0  0  0  0  0  0  0  0  0  0  0  0
  -25.1785  -20.5718   19.4353 C   0  0  0  0  0  0  0  0  0  0  0  0
  -27.3331  -15.2711   17.2522 C   0  0  0  0  0  0  0  0  0  0  0  0
  -25.7720  -30.4343   20.3659 C   0  0  0  0  0  0  0  0  0  0  0  0
  -25.2870  -29.0240   22.2667 C   0  0  0  0  0  0  0  0  0  0  0  0
  -28.5915  -14.6739   17.3129 C   0  0  0  0  0  0  0  0  0  0  0  0
  -22.4269  -30.2289   19.9276 C   0  0  0  0  0  0  0  0  0  0  0  0
  -21.5933  -30.5799   18.8658 C   0  0  0  0  0  0  0  0  0  0  0  0
  -27.8823  -13.3881   19.2267 C   0  0  0  0  0  0  0  0  0  0  0  0
  -29.9006  -19.3218   20.2046 C   0  0  0  0  0  0  0  0  0  0  0  0
  -28.6066  -20.2870   22.0020 C   0  0  0  0  0  0  0  0  0  0  0  0
  -29.8953  -18.2794   22.3842 C   0  0  0  0  0  0  0  0  0  0  0  0
  -21.9925  -32.9180   19.3254 C   0  0  0  0  0  0  0  0  0  0  0  0
  -27.2151  -28.5672   20.8843 C   0  0  0  0  0  0  0  0  0  0  0  0
  -29.6859  -27.9585   21.0642 C   0  0  0  0  0  0  0  0  0  0  0  0
  -23.1916  -21.0571   20.7408 C   0  0  0  0  0  0  0  0  0  0  0  0
  -26.3417  -14.9388   18.1866 C   0  0  0  0  0  0  0  0  0  0  0  0
  -24.2752  -20.2071   20.4480 C   0  0  0  0  0  0  0  0  0  0  0  0
  -26.6113  -13.9806   19.1742 C   0  0  0  0  0  0  0  0  0  0  0  0
  -29.0397  -20.3126   20.6763 C   0  0  0  0  0  0  0  0  0  0  0  0
  -24.9677  -30.1164   21.4603 C   0  0  0  0  0  0  0  0  0  0  0  0
  -28.8672  -13.7344   18.3020 C   0  0  0  0  0  0  0  0  0  0  0  0
  -23.0433  -31.2223   20.6884 C   0  0  0  0  0  0  0  0  0  0  0  0
  -30.3284  -18.3051   21.0585 C   0  0  0  0  0  0  0  0  0  0  0  0
  -21.3761  -31.9245   18.5647 C   0  0  0  0  0  0  0  0  0  0  0  0
  -29.0344  -19.2704   22.8559 C   0  0  0  0  0  0  0  0  0  0  0  0
  -22.8261  -32.5669   20.3872 C   0  0  0  0  0  0  0  0  0  0  0  0
  -28.3754  -27.7664   20.5870 C   0  0  0  0  0  0  0  0  0  0  0  0
  -30.4112  -26.9405   20.4950 C   0  0  0  0  0  0  0  0  0  0  0  0
  -30.2014  -28.9669   21.9434 C   0  0  0  0  0  0  0  0  0  0  0  0
  -24.7232  -16.5396   20.4050 C   0  0  0  0  0  0  0  0  0  0  0  0
  -31.4334  -15.5314   19.0055 C   0  0  0  0  0  0  0  0  0  0  0  0
  -23.1078  -13.7410   20.6895 C   0  0  0  0  0  0  0  0  0  0  0  0
  -23.0843  -10.3540   20.2721 C   0  0  0  0  0  0  0  0  0  0  0  0
  -28.9369  -21.5169   18.4660 C   0  0  0  0  0  0  0  0  0  0  0  0
  -22.2150  -20.7452   21.8470 C   0  0  0  0  0  0  0  0  0  0  0  0
  -24.9808  -15.5723   18.0912 C   0  0  0  0  0  0  0  0  0  0  0  0
  -25.5749  -13.5741   20.1886 C   0  0  0  0  0  0  0  0  0  0  0  0
  -22.2427  -19.2847   22.2900 C   0  0  0  0  0  0  0  0  0  0  0  0
  -30.5113  -24.1246   16.6225 C   0  0  0  0  0  0  0  0  0  0  0  0
  -23.6802  -18.8130   22.4848 C   0  0  0  0  0  0  0  0  0  0  0  0
  -30.2667  -25.3709   17.4765 C   0  0  0  0  0  0  0  0  0  0  0  0
  -29.3165  -23.1731   16.6527 C   0  0  0  0  0  0  0  0  0  0  0  0
  -28.6144  -24.0397   18.8493 C   0  0  0  0  0  0  0  0  0  0  0  0
  -24.4696  -18.8927   21.1726 C   0  0  1  0  0  0  0  0  0  0  0  0
  -24.2121  -15.5379   19.4084 C   0  0  1  0  0  0  0  0  0  0  0  0
  -29.8158  -24.9976   18.9022 C   0  0  2  0  0  0  0  0  0  0  0  0
  -21.6378   -8.3350   20.6307 C   0  0  0  0  0  0  0  0  0  0  0  0
  -23.7218  -13.8349   23.6769 C   0  0  0  0  0  0  0  0  0  0  0  0
  -23.1130  -11.4099   23.8073 C   0  0  0  0  0  0  0  0  0  0  0  0
  -21.4031  -13.0876   23.1114 C   0  0  0  0  0  0  0  0  0  0  0  0
  -30.5104  -13.2242   15.9888 C   0  0  0  0  0  0  0  0  0  0  0  0
  -32.3323  -12.7411   17.6388 C   0  0  0  0  0  0  0  0  0  0  0  0
  -23.0487   -9.7222   17.3809 C   0  0  0  0  0  0  0  0  0  0  0  0
  -31.3526  -15.0450   17.5625 C   0  0  0  0  0  0  0  0  0  0  0  0
  -31.0821  -16.9903   19.2258 C   0  0  0  0  0  0  0  0  0  0  0  0
  -23.2737  -12.4904   21.5187 C   0  0  1  0  0  0  0  0  0  0  0  0
  -22.0575   -9.4224   19.6539 C   0  0  2  0  0  0  0  0  0  0  0  0
  -22.8983  -12.7146   23.0108 C   0  0  0  0  0  0  0  0  0  0  0  0
  -31.0529  -13.5472   17.3837 C   0  0  0  0  0  0  0  0  0  1  0  0
  -28.2714  -26.7095   19.7769 N   0  0  0  0  0  0  0  0  0  0  0  0
  -29.5257  -26.2284   19.7406 N   0  0  0  0  0  0  0  0  0  0  0  0
  -24.2615  -14.2263   20.0577 N   0  0  0  0  0  0  0  0  0  0  0  0
  -28.9487  -22.8605   18.0354 N   0  0  0  0  0  0  0  0  0  0  0  0
  -31.7137  -26.5939   20.5711 N   0  0  0  0  0  0  0  0  0  0  0  0
  -29.3189  -29.9373   22.4373 N   0  0  0  0  0  0  0  0  0  0  0  0
  -28.6035  -21.3448   19.8090 N   0  0  0  0  0  0  0  0  0  0  0  0
  -24.1278  -17.7829   20.3090 N   0  0  0  0  0  0  0  0  0  0  0  0
  -22.4908  -11.4537   20.8548 N   0  0  0  0  0  0  0  0  0  0  0  0
  -22.6166   -8.7700   18.4362 N   0  3  0  0  0  0  0  0  0  0  0  0
  -31.4121  -29.0160   22.2680 O   0  0  0  0  0  0  0  0  0  0  0  0
  -25.5923  -16.2085   21.2030 O   0  0  0  0  0  0  0  0  0  0  0  0
  -31.8009  -14.8109   19.9319 O   0  0  0  0  0  0  0  0  0  0  0  0
  -21.9942  -14.2639   20.5998 O   0  0  0  0  0  0  0  0  0  0  0  0
  -24.2919  -10.1269   20.2442 O   0  0  0  0  0  0  0  0  0  0  0  0
  -29.2295  -20.5896   17.7068 O   0  0  0  0  0  0  0  0  0  0  0  0
  -23.8712  -30.8722   21.7417 O   0  0  0  0  0  0  0  0  0  0  0  0
  -31.1766  -17.3281   20.5933 O   0  0  0  0  0  0  0  0  0  0  0  0
  -30.0948  -13.1504   18.3639 O   0  0  0  0  0  0  0  0  0  1  0  0
  -20.5768  -32.2615   17.5440 F   0  0  0  0  0  0  0  0  0  0  0  0
  -28.6169  -19.2444   24.1285 F   0  0  0  0  0  0  0  0  0  0  0  0
  -23.4164  -33.5258   21.1138 F   0  0  0  0  0  0  0  0  0  0  0  0
  1  2  1  0  0  0  0
  1  5  2  0  0  0  0
  2  6  2  0  0  0  0
  3  8  2  0  0  0  0
  3 18  1  0  0  0  0
  4  9  1  0  0  0  0
  4 18  2  0  0  0  0
  5 20  1  0  0  0  0
  6 22  1  0  0  0  0
  7 10  2  0  0  0  0
  7 21  1  0  0  0  0
  8 25  1  0  0  0  0
  9 25  2  0  0  0  0
 10 26  1  0  0  0  0
 11 12  2  0  0  0  0
 11 27  1  0  0  0  0
 12 29  1  0  0  0  0
 13 23  1  0  0  0  0
 13 26  2  0  0  0  0
 14 24  1  0  0  0  0
 14 28  2  0  0  0  0
 15 24  2  0  0  0  0
 15 30  1  0  0  0  0
 16 28  1  0  0  0  0
 16 30  2  0  0  0  0
 17 29  2  0  0  0  0
 17 31  1  0  0  0  0
 18 32  1  0  0  0  0
 19 32  1  0  0  0  0
 19 33  2  0  0  0  0
 19 34  1  0  0  0  0
 20 22  2  0  0  0  0
 20 40  1  0  0  0  0
 21 23  2  0  0  0  0
 21 41  1  0  0  0  0
 22 49  1  0  0  0  0
 23 42  1  0  0  0  0
 24 71  1  0  0  0  0
 25 81  1  0  0  0  0
 26 83  1  0  0  0  0
 27 31  2  0  0  0  0
 27 81  1  0  0  0  0
 28 82  1  0  0  0  0
 29 84  1  0  0  0  0
 30 85  1  0  0  0  0
 31 86  1  0  0  0  0
 32 65  2  0  0  0  0
 33 66  1  0  0  0  0
 33 69  1  0  0  0  0
 34 70  1  0  0  0  0
 34 75  2  0  0  0  0
 35 50  1  0  0  0  0
 35 72  1  0  0  0  0
 35 76  2  0  0  0  0
 36 59  1  0  0  0  0
 36 60  1  0  0  0  0
 36 77  2  0  0  0  0
 37 61  1  0  0  0  0
 37 67  1  0  0  0  0
 37 78  2  0  0  0  0
 38 62  1  0  0  0  0
 38 73  1  0  0  0  0
 38 79  2  0  0  0  0
 39 68  1  0  0  0  0
 39 71  1  0  0  0  0
 39 80  2  0  0  0  0
 40 43  1  0  0  0  0
 41 50  1  0  0  0  0
 42 67  1  0  0  0  0
 43 45  1  0  0  0  0
 44 46  1  0  0  0  0
 44 47  1  0  0  0  0
 45 49  1  0  0  0  0
 46 51  1  0  0  0  0
 47 68  1  0  0  0  0
 48 51  1  0  0  0  0
 48 68  1  0  0  0  0
 49 72  1  0  0  0  0
 50 67  1  0  0  0  0
 51 66  1  0  0  0  0
 52 62  1  0  0  0  0
 53 63  1  0  0  0  0
 54 63  1  0  0  0  0
 55 63  1  0  0  0  0
 56 64  1  0  0  0  0
 57 64  1  0  0  0  0
 58 74  1  0  0  0  0
 59 64  1  0  0  0  0
 60 82  1  0  0  0  0
 61 63  1  0  0  0  0
 61 73  1  0  0  0  0
 62 74  1  0  0  0  0
 64 83  1  0  0  0  0
 65 66  1  0  0  0  0
M  CHG  1  74   1
M  ISO  4  39 100  64 101  71 100  83 101
M  END
> <Batch ID>
0138

> <Smiles>
CNC(C)C(=O)NC(C(=O)N1Cc2cc([101O:1][101C:1](C)(C)CC(=O)COc3cc(F)cc([100NH:0][100C:0](=O)N4CCCC(n5nc(-c6ccc(Oc7ccc(F)cc7F)cc6)c(C(N)=O)c5N)C4)c3)ccc2CC1C(=O)NC1CCCc2ccccc21)C(C)(C)C

> <Shape>
0.254

> <Color>
0.064

> <Negative vol penalty>
0.000

$$$$

  -OEChem-04052302453D

 89 97  0     1  0  0  0  0  0999 V2000
  -18.4308  -26.4436   23.0858 C   0  0  0  0  0  0  0  0  0  0  0  0
  -19.6282  -26.1285   22.4517 C   0  0  0  0  0  0  0  0  0  0  0  0
  -24.4070   -8.0972   20.8677 C   0  0  0  0  0  0  0  0  0  0  0  0
  -23.3530  -10.2507   20.5701 C   0  0  0  0  0  0  0  0  0  0  0  0
  -18.0302  -27.7746   23.1946 C   0  0  0  0  0  0  0  0  0  0  0  0
  -20.4254  -27.1442   21.9250 C   0  0  0  0  0  0  0  0  0  0  0  0
  -25.3285  -26.5407   23.0385 C   0  0  0  0  0  0  0  0  0  0  0  0
  -23.3678   -7.7051   21.7114 C   0  0  0  0  0  0  0  0  0  0  0  0
  -22.3137   -9.8586   21.4138 C   0  0  0  0  0  0  0  0  0  0  0  0
  -26.0406  -25.6039   22.2907 C   0  0  0  0  0  0  0  0  0  0  0  0
  -22.4483   -8.2004   24.9260 C   0  0  0  0  0  0  0  0  0  0  0  0
  -22.7881   -7.5514   26.1130 C   0  0  0  0  0  0  0  0  0  0  0  0
  -26.9475  -27.3829   20.9371 C   0  0  0  0  0  0  0  0  0  0  0  0
  -28.1273  -17.0912   18.9440 C   0  0  0  0  0  0  0  0  0  0  0  0
  -29.9928  -17.3088   20.4638 C   0  0  0  0  0  0  0  0  0  0  0  0
  -21.5163   -5.6177   25.4196 C   0  0  0  0  0  0  0  0  0  0  0  0
  -24.3997   -9.3700   20.2970 C   0  0  0  0  0  0  0  0  0  0  0  0
  -25.5408   -9.6160   18.0288 C   0  0  0  0  0  0  0  0  0  0  0  0
  -18.8275  -28.8079   22.6776 C   0  0  0  0  0  0  0  0  0  0  0  0
  -25.4122  -27.9069   22.7337 C   0  0  0  0  0  0  0  0  0  0  0  0
  -20.0344  -28.4902   22.0259 C   0  0  0  0  0  0  0  0  0  0  0  0
  -26.2375  -28.3351   21.6841 C   0  0  0  0  0  0  0  0  0  0  0  0
  -28.0859  -18.4776   18.7963 C   0  0  0  0  0  0  0  0  0  0  0  0
  -29.9514  -18.6952   20.3161 C   0  0  0  0  0  0  0  0  0  0  0  0
  -29.0807  -16.5068   19.7778 C   0  0  0  0  0  0  0  0  0  0  0  0
  -22.3212   -8.5858   21.9845 C   0  0  0  0  0  0  0  0  0  0  0  0
  -26.8480  -26.0247   21.2380 C   0  0  0  0  0  0  0  0  0  0  0  0
  -21.6426   -7.5581   23.9858 C   0  0  0  0  0  0  0  0  0  0  0  0
  -28.9980  -19.2796   19.4823 C   0  0  0  0  0  0  0  0  0  0  0  0
  -22.3221   -6.2600   26.3598 C   0  0  0  0  0  0  0  0  0  0  0  0
  -21.1766   -6.2667   24.2327 C   0  0  0  0  0  0  0  0  0  0  0  0
  -25.4732   -9.7758   19.4258 C   0  0  0  0  0  0  0  0  0  0  0  0
  -26.7519  -10.1614   17.6790 C   0  0  0  0  0  0  0  0  0  0  0  0
  -24.5935   -9.0274   17.1278 C   0  0  0  0  0  0  0  0  0  0  0  0
  -23.3389  -30.1278   21.7993 C   0  0  0  0  0  0  0  0  0  0  0  0
  -28.2242  -22.8539   19.9610 C   0  0  0  0  0  0  0  0  0  0  0  0
  -25.8772  -32.1083   22.1957 C   0  0  0  0  0  0  0  0  0  0  0  0
  -29.2668  -32.4842   22.3213 C   0  0  0  0  0  0  0  0  0  0  0  0
  -30.2401  -14.3095   20.1951 C   0  0  0  0  0  0  0  0  0  0  0  0
  -18.3299  -30.2281   22.7775 C   0  0  0  0  0  0  0  0  0  0  0  0
  -24.6586  -28.9070   23.5669 C   0  0  0  0  0  0  0  0  0  0  0  0
  -26.3775  -29.7922   21.3293 C   0  0  0  0  0  0  0  0  0  0  0  0
  -19.4138  -31.2726   22.5237 C   0  0  0  0  0  0  0  0  0  0  0  0
  -31.1434  -10.9546   19.4168 C   0  0  0  0  0  0  0  0  0  0  0  0
  -20.2240  -30.9105   21.2830 C   0  0  0  0  0  0  0  0  0  0  0  0
  -29.7982  -10.2585   19.1976 C   0  0  0  0  0  0  0  0  0  0  0  0
  -31.0695  -11.9920   20.5358 C   0  0  0  0  0  0  0  0  0  0  0  0
  -28.6506  -12.2874   20.1741 C   0  0  0  0  0  0  0  0  0  0  0  0
  -20.9385  -29.5657   21.4637 C   0  0  1  0  0  0  0  0  0  0  0  0
  -24.4165  -30.2273   22.8418 C   0  0  1  0  0  0  0  0  0  0  0  0
  -28.6587  -11.2797   19.0130 C   0  0  2  0  0  0  0  0  0  0  0  0
  -27.4199  -18.9442   16.4246 C   0  0  0  0  0  0  0  0  0  0  0  0
  -31.0455  -34.2286   22.6225 C   0  0  0  0  0  0  0  0  0  0  0  0
  -32.9964  -18.1914   20.5160 C   0  0  0  0  0  0  0  0  0  0  0  0
  -32.3632  -20.0614   18.9912 C   0  0  0  0  0  0  0  0  0  0  0  0
  -33.2826  -20.5516   21.2717 C   0  0  0  0  0  0  0  0  0  0  0  0
  -25.4098  -33.0746   19.3395 C   0  0  0  0  0  0  0  0  0  0  0  0
  -27.7105  -34.0617   19.3712 C   0  0  0  0  0  0  0  0  0  0  0  0
  -25.9815  -34.8812   20.9716 C   0  0  0  0  0  0  0  0  0  0  0  0
  -30.3104  -31.1658   24.7567 C   0  0  0  0  0  0  0  0  0  0  0  0
  -27.0578  -19.0853   17.9001 C   0  0  0  0  0  0  0  0  0  0  0  0
  -30.9373  -19.5371   21.0570 C   0  0  0  0  0  0  0  0  0  0  0  0
  -27.3999  -23.7406   20.8717 C   0  0  0  0  0  0  0  0  0  1  0  0
  -28.1419  -21.3665   20.2359 C   0  0  0  0  0  0  0  0  0  0  0  0
  -27.0023  -32.5937   21.3140 C   0  0  1  0  0  0  0  0  0  0  0  0
  -30.1648  -33.1997   23.3143 C   0  0  2  0  0  0  0  0  0  0  0  0
  -32.3805  -19.6055   20.4605 C   0  0  0  0  0  0  0  0  0  0  0  0
  -26.5221  -33.6251   20.2543 C   0  0  0  0  0  0  0  0  0  0  0  0
  -26.5553  -10.3755   19.9292 N   0  0  0  0  0  0  0  0  0  0  0  0
  -27.3143  -10.5974   18.8426 N   0  0  0  0  0  0  0  0  0  0  0  0
  -25.6158  -30.7311   22.1694 N   0  0  0  0  0  0  0  0  0  0  0  0
  -29.9700  -12.9280   20.2913 N   0  0  0  0  0  0  0  0  0  0  0  0
  -27.3800  -10.3057   16.4928 N   0  0  0  0  0  0  0  0  0  0  0  0
  -23.3999   -8.5150   17.6542 N   0  0  0  0  0  0  0  0  0  0  0  0
  -29.1216  -15.0985   19.9285 N   0  0  0  0  0  0  0  0  0  0  0  0
  -22.1131  -29.7250   22.2939 N   0  0  0  0  0  0  0  0  0  0  0  0
  -28.0364  -33.0969   22.2118 N   0  0  0  0  0  0  0  0  0  0  0  0
  -31.0453  -32.2221   24.0143 N   0  3  0  0  0  0  0  0  0  0  0  0
  -24.8067   -8.9429   15.8945 O   0  0  0  0  0  0  0  0  0  0  0  0
  -23.6000  -30.3979   20.6329 O   0  0  0  0  0  0  0  0  0  0  0  0
  -28.9178  -23.3135   19.0549 O   0  0  0  0  0  0  0  0  0  0  0  0
  -25.2578  -32.9202   22.8877 O   0  0  0  0  0  0  0  0  0  0  0  0
  -29.6227  -31.4842   21.7017 O   0  0  0  0  0  0  0  0  0  0  0  0
  -31.3839  -14.7568   20.3117 O   0  0  0  0  0  0  0  0  0  0  0  0
  -21.3068   -8.2035   22.8075 O   0  0  0  0  0  0  0  0  0  0  0  0
  -27.5437  -25.1124   20.5061 O   0  0  0  0  0  0  0  0  0  1  0  0
  -28.9583  -20.6461   19.3368 O   0  0  0  0  0  0  0  0  0  0  0  0
  -22.6497   -5.6363   27.4990 F   0  0  0  0  0  0  0  0  0  0  0  0
  -20.4031   -5.6441   23.3327 F   0  0  0  0  0  0  0  0  0  0  0  0
  1  2  1  0  0  0  0
  1  5  2  0  0  0  0
  2  6  2  0  0  0  0
  3  8  2  0  0  0  0
  3 17  1  0  0  0  0
  4  9  1  0  0  0  0
  4 17  2  0  0  0  0
  5 19  1  0  0  0  0
  6 21  1  0  0  0  0
  7 10  2  0  0  0  0
  7 20  1  0  0  0  0
  8 26  1  0  0  0  0
  9 26  2  0  0  0  0
 10 27  1  0  0  0  0
 11 12  2  0  0  0  0
 11 28  1  0  0  0  0
 12 30  1  0  0  0  0
 13 22  1  0  0  0  0
 13 27  2  0  0  0  0
 14 23  1  0  0  0  0
 14 25  2  0  0  0  0
 15 24  2  0  0  0  0
 15 25  1  0  0  0  0
 16 30  2  0  0  0  0
 16 31  1  0  0  0  0
 17 32  1  0  0  0  0
 18 32  1  0  0  0  0
 18 33  2  0  0  0  0
 18 34  1  0  0  0  0
 19 21  2  0  0  0  0
 19 40  1  0  0  0  0
 20 22  2  0  0  0  0
 20 41  1  0  0  0  0
 21 49  1  0  0  0  0
 22 42  1  0  0  0  0
 23 29  2  0  0  0  0
 23 61  1  0  0  0  0
 24 29  1  0  0  0  0
 24 62  1  0  0  0  0
 25 75  1  0  0  0  0
 26 85  1  0  0  0  0
 27 86  1  0  0  0  0
 28 31  2  0  0  0  0
 28 85  1  0  0  0  0
 29 87  1  0  0  0  0
 30 88  1  0  0  0  0
 31 89  1  0  0  0  0
 32 69  2  0  0  0  0
 33 70  1  0  0  0  0
 33 73  1  0  0  0  0
 34 74  1  0  0  0  0
 34 79  2  0  0  0  0
 35 50  1  0  0  0  0
 35 76  1  0  0  0  0
 35 80  2  0  0  0  0
 36 63  1  0  0  0  0
 36 64  1  0  0  0  0
 36 81  2  0  0  0  0
 37 65  1  0  0  0  0
 37 71  1  0  0  0  0
 37 82  2  0  0  0  0
 38 66  1  0  0  0  0
 38 77  1  0  0  0  0
 38 83  2  0  0  0  0
 39 72  1  0  0  0  0
 39 75  1  0  0  0  0
 39 84  2  0  0  0  0
 40 43  1  0  0  0  0
 41 50  1  0  0  0  0
 42 71  1  0  0  0  0
 43 45  1  0  0  0  0
 44 46  1  0  0  0  0
 44 47  1  0  0  0  0
 45 49  1  0  0  0  0
 46 51  1  0  0  0  0
 47 72  1  0  0  0  0
 48 51  1  0  0  0  0
 48 72  1  0  0  0  0
 49 76  1  0  0  0  0
 50 71  1  0  0  0  0
 51 70  1  0  0  0  0
 52 61  1  0  0  0  0
 53 66  1  0  0  0  0
 54 67  1  0  0  0  0
 55 67  1  0  0  0  0
 56 67  1  0  0  0  0
 57 68  1  0  0  0  0
 58 68  1  0  0  0  0
 59 68  1  0  0  0  0
 60 78  1  0  0  0  0
 62 67  1  0  0  0  0
 63 86  1  0  0  0  0
 64 87  1  0  0  0  0
 65 68  1  0  0  0  0
 65 77  1  0  0  0  0
 66 78  1  0  0  0  0
 69 70  1  0  0  0  0
M  CHG  1  78   1
M  ISO  4  39 100  63 101  75 100  86 101
M  END
> <Batch ID>
0138

> <Smiles>
CCc1cc([100NH:0][100C:0](=O)N2CCCC(n3nc(-c4ccc(Oc5ccc(F)cc5F)cc4)c(C(N)=O)c3N)C2)cc(CC(C)(C)C)c1OCC(=O)[101CH2:1][101O:1]c1ccc2c(c1)CN(C(=O)C(NC(=O)C(C)NC)C(C)(C)C)C(C(=O)NC1CCCc3ccccc31)C2

> <Shape>
0.275

> <Color>
0.093

> <Negative vol penalty>
0.000

$$$$

  -OEChem-04052302453D

 85 94  0     1  0  0  0  0  0999 V2000
  -24.8396  -28.1212   19.9264 C   0  0  0  0  0  0  0  0  0  0  0  0
  -25.7408  -27.5459   19.0377 C   0  0  0  0  0  0  0  0  0  0  0  0
  -27.2476  -19.1145   25.8343 C   0  0  0  0  0  0  0  0  0  0  0  0
  -23.9981   -8.6168   19.8045 C   0  0  0  0  0  0  0  0  0  0  0  0
  -22.9784  -10.1370   21.3813 C   0  0  0  0  0  0  0  0  0  0  0  0
  -25.3096  -28.8817   20.9950 C   0  0  0  0  0  0  0  0  0  0  0  0
  -27.1125  -27.7209   19.2240 C   0  0  0  0  0  0  0  0  0  0  0  0
  -32.8808  -25.1175   23.6063 C   0  0  0  0  0  0  0  0  0  0  0  0
  -28.1329  -20.0723   26.3475 C   0  0  0  0  0  0  0  0  0  0  0  0
  -23.3204   -7.5500   20.3947 C   0  0  0  0  0  0  0  0  0  0  0  0
  -22.3006   -9.0702   21.9715 C   0  0  0  0  0  0  0  0  0  0  0  0
  -32.8483  -24.6978   24.9354 C   0  0  0  0  0  0  0  0  0  0  0  0
  -19.5635   -7.1967   21.3248 C   0  0  0  0  0  0  0  0  0  0  0  0
  -18.2113   -7.3728   21.6186 C   0  0  0  0  0  0  0  0  0  0  0  0
  -27.1980  -17.0447   24.2334 C   0  0  0  0  0  0  0  0  0  0  0  0
  -30.7962  -23.5058   24.5025 C   0  0  0  0  0  0  0  0  0  0  0  0
  -29.9988  -19.1155   25.1081 C   0  0  0  0  0  0  0  0  0  0  0  0
  -18.6679   -6.9756   23.9576 C   0  0  0  0  0  0  0  0  0  0  0  0
  -27.7444  -18.1442   24.9464 C   0  0  0  0  0  0  0  0  0  0  0  0
  -23.8271   -9.9103   20.2979 C   0  0  0  0  0  0  0  0  0  0  0  0
  -24.0819  -11.8186   18.6242 C   0  0  0  0  0  0  0  0  0  0  0  0
  -26.6875  -29.0760   21.1867 C   0  0  0  0  0  0  0  0  0  0  0  0
  -31.8638  -24.7429   22.7165 C   0  0  0  0  0  0  0  0  0  0  0  0
  -27.6073  -28.4652   20.3103 C   0  0  0  0  0  0  0  0  0  0  0  0
  -30.8195  -23.9200   23.1619 C   0  0  0  0  0  0  0  0  0  0  0  0
  -29.4834  -20.0706   25.9894 C   0  0  0  0  0  0  0  0  0  0  0  0
  -29.0950  -18.1764   24.6146 C   0  0  0  0  0  0  0  0  0  0  0  0
  -22.4716   -7.7767   21.4782 C   0  0  0  0  0  0  0  0  0  0  0  0
  -31.8044  -23.8942   25.3844 C   0  0  0  0  0  0  0  0  0  0  0  0
  -20.4678   -6.9099   22.3474 C   0  0  0  0  0  0  0  0  0  0  0  0
  -17.7635   -7.2623   22.9350 C   0  0  0  0  0  0  0  0  0  0  0  0
  -20.0200   -6.7994   23.6638 C   0  0  0  0  0  0  0  0  0  0  0  0
  -24.5273  -11.0126   19.6890 C   0  0  0  0  0  0  0  0  0  0  0  0
  -25.1028  -12.7148   18.4216 C   0  0  0  0  0  0  0  0  0  0  0  0
  -28.2368  -16.4873   23.5245 C   0  0  0  0  0  0  0  0  0  0  0  0
  -22.8550  -11.7622   17.8844 C   0  0  0  0  0  0  0  0  0  0  0  0
  -29.6891  -26.3094   21.0076 C   0  0  0  0  0  0  0  0  0  0  0  0
  -29.0791  -23.3601   19.8025 C   0  0  0  0  0  0  0  0  0  0  0  0
  -29.2164  -19.9755   20.2176 C   0  0  0  0  0  0  0  0  0  0  0  0
  -29.3964  -14.8815   21.9678 C   0  0  0  0  0  0  0  0  0  0  0  0
  -27.1415  -29.9018   22.3645 C   0  0  0  0  0  0  0  0  0  0  0  0
  -31.9276  -25.1819   21.2792 C   0  0  0  0  0  0  0  0  0  0  0  0
  -29.7141  -23.4734   22.2416 C   0  0  0  0  0  0  0  0  0  0  0  0
  -28.5773  -30.3971   22.2251 C   0  0  0  0  0  0  0  0  0  0  0  0
  -29.8488  -13.1531   18.8880 C   0  0  0  0  0  0  0  0  0  0  0  0
  -29.4909  -29.2418   21.8438 C   0  0  0  0  0  0  0  0  0  0  0  0
  -28.4931  -12.4864   18.6440 C   0  0  0  0  0  0  0  0  0  0  0  0
  -30.2169  -13.1637   20.3707 C   0  0  0  0  0  0  0  0  0  0  0  0
  -27.8411  -13.0678   21.0154 C   0  0  0  0  0  0  0  0  0  0  0  0
  -29.1027  -28.6673   20.4755 C   0  0  1  0  0  0  0  0  0  0  0  0
  -30.5675  -25.1647   20.5883 C   0  0  1  0  0  0  0  0  0  0  0  0
  -27.3975  -13.0913   19.5436 C   0  0  2  0  0  0  0  0  0  0  0  0
  -28.6066  -17.8247   19.0776 C   0  0  0  0  0  0  0  0  0  0  0  0
  -26.1523  -23.7992   20.5450 C   0  0  0  0  0  0  0  0  0  0  0  0
  -25.7875  -21.3367   20.2777 C   0  0  0  0  0  0  0  0  0  0  0  0
  -26.5127  -22.7077   18.3239 C   0  0  0  0  0  0  0  0  0  0  0  0
  -32.2368  -22.0194   28.4923 C   0  0  0  0  0  0  0  0  0  0  0  0
  -33.9079  -22.3847   26.6635 C   0  0  0  0  0  0  0  0  0  0  0  0
  -32.0387  -19.0896   20.1251 C   0  0  0  0  0  0  0  0  0  0  0  0
  -31.7387  -21.1153   26.2082 C   0  0  0  0  0  0  0  0  0  0  0  0
  -28.1622  -22.2209   20.1771 C   0  0  1  0  0  0  0  0  0  0  0  0
  -29.6927  -18.8663   19.2972 C   0  0  2  0  0  0  0  0  0  0  0  0
  -26.6733  -22.5259   19.8490 C   0  0  0  0  0  0  0  0  0  0  0  0
  -32.4182  -22.2505   26.9897 C   0  0  0  0  0  0  0  0  0  1  0  0
  -25.7370  -11.3655   20.1318 N   0  0  0  0  0  0  0  0  0  0  0  0
  -26.0605  -12.4031   19.3413 N   0  0  0  0  0  0  0  0  0  0  0  0
  -29.8176  -23.9339   20.8471 N   0  0  0  0  0  0  0  0  0  0  0  0
  -29.1342  -13.7545   21.1604 N   0  0  0  0  0  0  0  0  0  0  0  0
  -25.2658  -13.7312   17.5482 N   0  0  0  0  0  0  0  0  0  0  0  0
  -21.9151  -10.7793   18.2232 N   0  0  0  0  0  0  0  0  0  0  0  0
  -30.3286  -21.0325   26.5163 N   0  0  0  0  0  0  0  0  0  0  0  0
  -28.2833  -15.3756   22.6472 N   0  0  0  0  0  0  0  0  0  0  0  0
  -29.8499  -27.4506   20.2451 N   0  0  0  0  0  0  0  0  0  0  0  0
  -28.6903  -21.0357   19.5101 N   0  0  0  0  0  0  0  0  0  0  0  0
  -30.8848  -18.1868   19.8787 N   0  3  0  0  0  0  0  0  0  0  0  0
  -22.6068  -12.5495   16.9399 O   0  0  0  0  0  0  0  0  0  0  0  0
  -28.9211  -26.1672   21.9519 O   0  0  0  0  0  0  0  0  0  0  0  0
  -29.1432  -23.7228   18.6252 O   0  0  0  0  0  0  0  0  0  0  0  0
  -29.2990  -19.9067   21.4419 O   0  0  0  0  0  0  0  0  0  0  0  0
  -30.5194  -15.3887   22.0294 O   0  0  0  0  0  0  0  0  0  0  0  0
  -29.3918  -17.1666   23.7488 O   0  0  0  0  0  0  0  0  0  0  0  0
  -21.8100   -6.7360   22.0541 O   0  0  0  0  0  0  0  0  0  0  0  0
  -31.7699  -23.4837   26.6814 O   0  0  0  0  0  0  0  0  0  1  0  0
  -16.4653   -7.4330   23.2172 F   0  0  0  0  0  0  0  0  0  0  0  0
  -20.8843   -6.5252   24.6505 F   0  0  0  0  0  0  0  0  0  0  0  0
  1  2  1  0  0  0  0
  1  6  2  0  0  0  0
  2  7  2  0  0  0  0
  3  9  2  0  0  0  0
  3 19  1  0  0  0  0
  4 10  2  0  0  0  0
  4 20  1  0  0  0  0
  5 11  1  0  0  0  0
  5 20  2  0  0  0  0
  6 22  1  0  0  0  0
  7 24  1  0  0  0  0
  8 12  2  0  0  0  0
  8 23  1  0  0  0  0
  9 26  1  0  0  0  0
 10 28  1  0  0  0  0
 11 28  2  0  0  0  0
 12 29  1  0  0  0  0
 13 14  2  0  0  0  0
 13 30  1  0  0  0  0
 14 31  1  0  0  0  0
 15 19  1  0  0  0  0
 15 35  2  0  0  0  0
 16 25  1  0  0  0  0
 16 29  2  0  0  0  0
 17 26  2  0  0  0  0
 17 27  1  0  0  0  0
 18 31  2  0  0  0  0
 18 32  1  0  0  0  0
 19 27  2  0  0  0  0
 20 33  1  0  0  0  0
 21 33  1  0  0  0  0
 21 34  2  0  0  0  0
 21 36  1  0  0  0  0
 22 24  2  0  0  0  0
 22 41  1  0  0  0  0
 23 25  2  0  0  0  0
 23 42  1  0  0  0  0
 24 50  1  0  0  0  0
 25 43  1  0  0  0  0
 26 71  1  0  0  0  0
 27 81  1  0  0  0  0
 28 82  1  0  0  0  0
 29 83  1  0  0  0  0
 30 32  2  0  0  0  0
 30 82  1  0  0  0  0
 31 84  1  0  0  0  0
 32 85  1  0  0  0  0
 33 65  2  0  0  0  0
 34 66  1  0  0  0  0
 34 69  1  0  0  0  0
 35 72  1  0  0  0  0
 35 81  1  0  0  0  0
 36 70  1  0  0  0  0
 36 76  2  0  0  0  0
 37 51  1  0  0  0  0
 37 73  1  0  0  0  0
 37 77  2  0  0  0  0
 38 61  1  0  0  0  0
 38 67  1  0  0  0  0
 38 78  2  0  0  0  0
 39 62  1  0  0  0  0
 39 74  1  0  0  0  0
 39 79  2  0  0  0  0
 40 68  1  0  0  0  0
 40 72  1  0  0  0  0
 40 80  2  0  0  0  0
 41 44  1  0  0  0  0
 42 51  1  0  0  0  0
 43 67  1  0  0  0  0
 44 46  1  0  0  0  0
 45 47  1  0  0  0  0
 45 48  1  0  0  0  0
 46 50  1  0  0  0  0
 47 52  1  0  0  0  0
 48 68  1  0  0  0  0
 49 52  1  0  0  0  0
 49 68  1  0  0  0  0
 50 73  1  0  0  0  0
 51 67  1  0  0  0  0
 52 66  1  0  0  0  0
 53 62  1  0  0  0  0
 54 63  1  0  0  0  0
 55 63  1  0  0  0  0
 56 63  1  0  0  0  0
 57 64  1  0  0  0  0
 58 64  1  0  0  0  0
 59 75  1  0  0  0  0
 60 64  1  0  0  0  0
 60 71  1  0  0  0  0
 61 63  1  0  0  0  0
 61 74  1  0  0  0  0
 62 75  1  0  0  0  0
 64 83  1  0  0  0  0
 65 66  1  0  0  0  0
M  CHG  1  75   1
M  ISO  4  40 100  64 101  72 100  83 101
M  END
> <Batch ID>
0138

> <Smiles>
CNC(C)C(=O)NC(C(=O)N1Cc2cc([101O:1][101C:1](C)(C)CNc3ccc4cc([100NH:0][100C:0](=O)N5CCCC(n6nc(-c7ccc(Oc8ccc(F)cc8F)cc7)c(C(N)=O)c6N)C5)oc4c3)ccc2CC1C(=O)NC1CCCc2ccccc21)C(C)(C)C

> <Shape>
0.226

> <Color>
0.086

> <Negative vol penalty>
0.000

$$$$

  -OEChem-04052302453D

 86 95  0     1  0  0  0  0  0999 V2000
  -30.3477  -32.5366   25.2088 C   0  0  0  0  0  0  0  0  0  0  0  0
  -29.8789  -31.3203   24.7225 C   0  0  0  0  0  0  0  0  0  0  0  0
  -32.3822  -18.7355   21.4562 C   0  0  0  0  0  0  0  0  0  0  0  0
  -23.2225   -9.8891   21.5432 C   0  0  0  0  0  0  0  0  0  0  0  0
  -23.9150  -10.9316   23.6098 C   0  0  0  0  0  0  0  0  0  0  0  0
  -31.5295  -19.8014   21.7430 C   0  0  0  0  0  0  0  0  0  0  0  0
  -29.4447  -33.5215   25.6068 C   0  0  0  0  0  0  0  0  0  0  0  0
  -28.5067  -31.0880   24.6351 C   0  0  0  0  0  0  0  0  0  0  0  0
  -27.1736  -28.9557   20.2395 C   0  0  0  0  0  0  0  0  0  0  0  0
  -31.8560  -17.5183   21.0233 C   0  0  0  0  0  0  0  0  0  0  0  0
  -22.5181   -8.9257   22.2652 C   0  0  0  0  0  0  0  0  0  0  0  0
  -23.2105   -9.9682   24.3318 C   0  0  0  0  0  0  0  0  0  0  0  0
  -27.4068  -27.5884   20.0985 C   0  0  0  0  0  0  0  0  0  0  0  0
  -19.5631   -8.6998   23.8931 C   0  0  0  0  0  0  0  0  0  0  0  0
  -18.2737   -8.3836   23.4655 C   0  0  0  0  0  0  0  0  0  0  0  0
  -29.6243  -18.4331   21.1642 C   0  0  0  0  0  0  0  0  0  0  0  0
  -25.0868  -27.1481   20.5913 C   0  0  0  0  0  0  0  0  0  0  0  0
  -18.9480   -6.0881   23.1294 C   0  0  0  0  0  0  0  0  0  0  0  0
  -23.9210  -10.8920   22.2155 C   0  0  0  0  0  0  0  0  0  0  0  0
  -30.1506  -19.6503   21.5970 C   0  0  0  0  0  0  0  0  0  0  0  0
  -24.1657  -13.1256   21.0078 C   0  0  0  0  0  0  0  0  0  0  0  0
  -28.0608  -33.3048   25.5152 C   0  0  0  0  0  0  0  0  0  0  0  0
  -25.8955  -29.4296   20.5688 C   0  0  0  0  0  0  0  0  0  0  0  0
  -27.5844  -32.0705   25.0336 C   0  0  0  0  0  0  0  0  0  0  0  0
  -24.8394  -28.5220   20.7334 C   0  0  0  0  0  0  0  0  0  0  0  0
  -30.4770  -17.3672   20.8773 C   0  0  0  0  0  0  0  0  0  0  0  0
  -22.5121   -8.9652   23.6595 C   0  0  0  0  0  0  0  0  0  0  0  0
  -26.3640  -26.6842   20.2772 C   0  0  0  0  0  0  0  0  0  0  0  0
  -20.5451   -7.7102   23.9388 C   0  0  0  0  0  0  0  0  0  0  0  0
  -17.9661   -7.0778   23.0836 C   0  0  0  0  0  0  0  0  0  0  0  0
  -20.2375   -6.4043   23.5570 C   0  0  0  0  0  0  0  0  0  0  0  0
  -24.6493  -11.8871   21.4702 C   0  0  0  0  0  0  0  0  0  0  0  0
  -25.2372  -13.6937   20.3631 C   0  0  0  0  0  0  0  0  0  0  0  0
  -28.0656  -22.7693   21.0751 C   0  0  0  0  0  0  0  0  0  0  0  0
  -29.2488  -20.7762   21.8993 C   0  0  0  0  0  0  0  0  0  0  0  0
  -22.8641  -13.7104   21.1484 C   0  0  0  0  0  0  0  0  0  0  0  0
  -24.6661  -31.0588   23.0055 C   0  0  0  0  0  0  0  0  0  0  0  0
  -21.9974  -31.0455   21.1616 C   0  0  0  0  0  0  0  0  0  0  0  0
  -20.2091  -29.5589   18.6639 C   0  0  0  0  0  0  0  0  0  0  0  0
  -30.6503  -14.9737   20.1109 C   0  0  0  0  0  0  0  0  0  0  0  0
  -27.1236  -34.3815   26.0019 C   0  0  0  0  0  0  0  0  0  0  0  0
  -25.6543  -30.9092   20.6910 C   0  0  0  0  0  0  0  0  0  0  0  0
  -23.4443  -28.9808   21.0677 C   0  0  0  0  0  0  0  0  0  0  0  0
  -25.6848  -34.1974   25.5261 C   0  0  0  0  0  0  0  0  0  0  0  0
  -29.7014  -11.7183   19.0249 C   0  0  0  0  0  0  0  0  0  0  0  0
  -25.2381  -32.7523   25.7234 C   0  0  0  0  0  0  0  0  0  0  0  0
  -28.2627  -11.5739   19.5263 C   0  0  0  0  0  0  0  0  0  0  0  0
  -29.2272  -22.9147   19.0218 C   0  0  0  0  0  0  0  0  0  0  0  0
  -30.5716  -12.4918   20.0139 C   0  0  0  0  0  0  0  0  0  0  0  0
  -29.4281  -21.5039   19.5629 C   0  0  0  0  0  0  0  0  0  0  0  0
  -28.5983  -13.6528   20.9236 C   0  0  0  0  0  0  0  0  0  0  0  0
  -26.1033  -31.7902   24.9004 C   0  0  1  0  0  0  0  0  0  0  0  0
  -27.9650  -23.4322   19.7222 C   0  0  2  0  0  0  0  0  0  0  0  0
  -24.4285  -31.2472   21.5339 C   0  0  1  0  0  0  0  0  0  0  0  0
  -27.6676  -12.9367   19.9313 C   0  0  2  0  0  0  0  0  0  0  0  0
  -18.0475  -29.7536   17.4041 C   0  0  0  0  0  0  0  0  0  0  0  0
  -20.5010  -29.8868   23.5550 C   0  0  0  0  0  0  0  0  0  0  0  0
  -18.6569  -29.2285   21.9948 C   0  0  0  0  0  0  0  0  0  0  0  0
  -19.2428  -31.6358   22.2851 C   0  0  0  0  0  0  0  0  0  0  0  0
  -21.6117  -29.9490   16.0871 C   0  0  0  0  0  0  0  0  0  0  0  0
  -27.9177  -24.9444   19.8135 C   0  0  0  0  0  0  0  0  0  1  0  0
  -20.8122  -30.1241   21.0029 C   0  0  1  0  0  0  0  0  0  0  0  0
  -19.5197  -30.1332   17.4394 C   0  0  2  0  0  0  0  0  0  0  0  0
  -19.8298  -30.2097   22.2051 C   0  0  0  0  0  0  0  0  0  0  0  0
  -25.9285  -11.6798   21.1467 N   0  0  0  0  0  0  0  0  0  0  0  0
  -26.2577  -12.7957   20.4740 N   0  0  0  0  0  0  0  0  0  0  0  0
  -28.9285  -21.6266   20.9404 N   0  0  0  0  0  0  0  0  0  0  0  0
  -23.2603  -30.4370   21.1829 N   0  0  0  0  0  0  0  0  0  0  0  0
  -29.9471  -13.7736   20.3482 N   0  0  0  0  0  0  0  0  0  0  0  0
  -25.3966  -14.8687   19.7178 N   0  0  0  0  0  0  0  0  0  0  0  0
  -21.8798  -12.9914   21.8401 N   0  0  0  0  0  0  0  0  0  0  0  0
  -29.9433  -16.1304   20.4376 N   0  0  0  0  0  0  0  0  0  0  0  0
  -25.7056  -31.8173   23.5091 N   0  0  0  0  0  0  0  0  0  0  0  0
  -20.2102  -30.4514   19.7149 N   0  0  0  0  0  0  0  0  0  0  0  0
  -28.7704  -20.9173   23.1320 N   0  3  0  0  0  0  0  0  0  0  0  0
  -20.1657  -29.6261   16.1957 N   0  3  0  0  0  0  0  0  0  0  0  0
  -27.5102  -23.0756   22.1147 O   0  0  0  0  0  0  0  0  0  0  0  0
  -22.5777  -14.8300   20.6605 O   0  0  0  0  0  0  0  0  0  0  0  0
  -23.9578  -30.2840   23.6376 O   0  0  0  0  0  0  0  0  0  0  0  0
  -21.8100  -32.2611   21.2558 O   0  0  0  0  0  0  0  0  0  0  0  0
  -20.6945  -28.4300   18.6869 O   0  0  0  0  0  0  0  0  0  0  0  0
  -31.7848  -14.9760   19.6263 O   0  0  0  0  0  0  0  0  0  0  0  0
  -21.8246   -8.0255   24.3643 O   0  0  0  0  0  0  0  0  0  0  0  0
  -26.5890  -25.3490   20.1408 O   0  0  0  0  0  0  0  0  0  1  0  0
  -16.7274   -6.7740   22.6745 F   0  0  0  0  0  0  0  0  0  0  0  0
  -21.1764   -5.4490   23.5999 F   0  0  0  0  0  0  0  0  0  0  0  0
  1  2  1  0  0  0  0
  1  7  2  0  0  0  0
  2  8  2  0  0  0  0
  3  6  2  0  0  0  0
  3 10  1  0  0  0  0
  4 11  2  0  0  0  0
  4 19  1  0  0  0  0
  5 12  1  0  0  0  0
  5 19  2  0  0  0  0
  6 20  1  0  0  0  0
  7 22  1  0  0  0  0
  8 24  1  0  0  0  0
  9 13  2  0  0  0  0
  9 23  1  0  0  0  0
 10 26  2  0  0  0  0
 11 27  1  0  0  0  0
 12 27  2  0  0  0  0
 13 28  1  0  0  0  0
 14 15  2  0  0  0  0
 14 29  1  0  0  0  0
 15 30  1  0  0  0  0
 16 20  2  0  0  0  0
 16 26  1  0  0  0  0
 17 25  1  0  0  0  0
 17 28  2  0  0  0  0
 18 30  2  0  0  0  0
 18 31  1  0  0  0  0
 19 32  1  0  0  0  0
 20 35  1  0  0  0  0
 21 32  1  0  0  0  0
 21 33  2  0  0  0  0
 21 36  1  0  0  0  0
 22 24  2  0  0  0  0
 22 41  1  0  0  0  0
 23 25  2  0  0  0  0
 23 42  1  0  0  0  0
 24 52  1  0  0  0  0
 25 43  1  0  0  0  0
 26 72  1  0  0  0  0
 27 83  1  0  0  0  0
 28 84  1  0  0  0  0
 29 31  2  0  0  0  0
 29 83  1  0  0  0  0
 30 85  1  0  0  0  0
 31 86  1  0  0  0  0
 32 65  2  0  0  0  0
 33 66  1  0  0  0  0
 33 70  1  0  0  0  0
 34 53  1  0  0  0  0
 34 67  1  0  0  0  0
 34 77  2  0  0  0  0
 35 67  1  0  0  0  0
 35 75  2  0  0  0  0
 36 71  1  0  0  0  0
 36 78  2  0  0  0  0
 37 54  1  0  0  0  0
 37 73  1  0  0  0  0
 37 79  2  0  0  0  0
 38 62  1  0  0  0  0
 38 68  1  0  0  0  0
 38 80  2  0  0  0  0
 39 63  1  0  0  0  0
 39 74  1  0  0  0  0
 39 81  2  0  0  0  0
 40 69  1  0  0  0  0
 40 72  1  0  0  0  0
 40 82  2  0  0  0  0
 41 44  1  0  0  0  0
 42 54  1  0  0  0  0
 43 68  1  0  0  0  0
 44 46  1  0  0  0  0
 45 47  1  0  0  0  0
 45 49  1  0  0  0  0
 46 52  1  0  0  0  0
 47 55  1  0  0  0  0
 48 50  1  0  0  0  0
 48 53  1  0  0  0  0
 49 69  1  0  0  0  0
 50 67  1  0  0  0  0
 51 55  1  0  0  0  0
 51 69  1  0  0  0  0
 52 73  1  0  0  0  0
 53 61  1  0  0  0  0
 54 68  1  0  0  0  0
 55 66  1  0  0  0  0
 56 63  1  0  0  0  0
 57 64  1  0  0  0  0
 58 64  1  0  0  0  0
 59 64  1  0  0  0  0
 60 76  1  0  0  0  0
 61 84  1  0  0  0  0
 62 64  1  0  0  0  0
 62 74  1  0  0  0  0
 63 76  1  0  0  0  0
 65 66  1  0  0  0  0
M  CHG  2  75   1  76   1
M  ISO  4  40 100  61 101  72 100  84 101
M  END
> <Batch ID>
0138

> <Smiles>
CNC(C)C(=O)NC(C(=O)N1Cc2cc([101O:1][101CH2:1]C3CCN(C(=N)c4cccc([100NH:0][100C:0](=O)N5CCCC(n6nc(-c7ccc(Oc8ccc(F)cc8F)cc7)c(C(N)=O)c6N)C5)c4)C3=O)ccc2CC1C(=O)NC1CCCc2ccccc21)C(C)(C)C

> <Shape>
0.333

> <Color>
0.168

> <Negative vol penalty>
0.000

$$$$

  -OEChem-04052302453D

 85 93  0     1  0  0  0  0  0999 V2000
  -32.8584  -16.6671   22.1315 C   0  0  0  0  0  0  0  0  0  0  0  0
  -31.6783  -17.3950   22.2451 C   0  0  0  0  0  0  0  0  0  0  0  0
  -28.4822  -26.1405   19.8876 C   0  0  0  0  0  0  0  0  0  0  0  0
  -26.3849  -25.2098   19.1312 C   0  0  0  0  0  0  0  0  0  0  0  0
  -32.9222  -15.5753   21.2667 C   0  0  0  0  0  0  0  0  0  0  0  0
  -30.5616  -17.0322   21.4930 C   0  0  0  0  0  0  0  0  0  0  0  0
  -24.6907  -17.4414   23.1875 C   0  0  0  0  0  0  0  0  0  0  0  0
  -20.8246  -26.6142   24.0313 C   0  0  0  0  0  0  0  0  0  0  0  0
  -20.5990  -25.2635   23.7662 C   0  0  0  0  0  0  0  0  0  0  0  0
  -29.1119  -24.9200   19.6437 C   0  0  0  0  0  0  0  0  0  0  0  0
  -27.0146  -23.9892   18.8872 C   0  0  0  0  0  0  0  0  0  0  0  0
  -23.7023  -18.3888   22.9243 C   0  0  0  0  0  0  0  0  0  0  0  0
  -27.9929  -20.5223   18.4042 C   0  0  0  0  0  0  0  0  0  0  0  0
  -27.3462  -19.3624   18.8308 C   0  0  0  0  0  0  0  0  0  0  0  0
  -22.8930  -17.0297   21.1030 C   0  0  0  0  0  0  0  0  0  0  0  0
  -20.2575  -25.7789   21.4307 C   0  0  0  0  0  0  0  0  0  0  0  0
  -27.4154  -20.1621   21.1096 C   0  0  0  0  0  0  0  0  0  0  0  0
  -27.1187  -26.2854   19.6314 C   0  0  0  0  0  0  0  0  0  0  0  0
  -26.3152  -28.6187   18.9853 C   0  0  0  0  0  0  0  0  0  0  0  0
  -31.8027  -15.1930   20.5109 C   0  0  0  0  0  0  0  0  0  0  0  0
  -24.7946  -16.2843   22.4022 C   0  0  0  0  0  0  0  0  0  0  0  0
  -30.6108  -15.9351   20.6163 C   0  0  0  0  0  0  0  0  0  0  0  0
  -23.8819  -16.0679   21.3599 C   0  0  0  0  0  0  0  0  0  0  0  0
  -20.7666  -27.5473   22.9961 C   0  0  0  0  0  0  0  0  0  0  0  0
  -20.4831  -27.1297   21.6958 C   0  0  0  0  0  0  0  0  0  0  0  0
  -20.3155  -24.8458   22.4659 C   0  0  0  0  0  0  0  0  0  0  0  0
  -28.3781  -23.8444   19.1434 C   0  0  0  0  0  0  0  0  0  0  0  0
  -22.8051  -18.1845   21.8801 C   0  0  0  0  0  0  0  0  0  0  0  0
  -28.3509  -21.5021   19.3303 C   0  0  0  0  0  0  0  0  0  0  0  0
  -27.0574  -19.1823   20.1835 C   0  0  0  0  0  0  0  0  0  0  0  0
  -28.0622  -21.3219   20.6830 C   0  0  0  0  0  0  0  0  0  0  0  0
  -26.4676  -27.5457   19.8837 C   0  0  0  0  0  0  0  0  0  0  0  0
  -25.6330  -29.5718   19.7013 C   0  0  0  0  0  0  0  0  0  0  0  0
  -21.1331  -22.7971   21.8946 C   0  0  0  0  0  0  0  0  0  0  0  0
  -26.7512  -28.7428   17.6251 C   0  0  0  0  0  0  0  0  0  0  0  0
  -20.9654  -21.3429   21.5952 C   0  0  0  0  0  0  0  0  0  0  0  0
  -27.0227  -15.0617   20.4931 C   0  0  0  0  0  0  0  0  0  0  0  0
  -21.9744  -29.1671   24.4514 C   0  0  0  0  0  0  0  0  0  0  0  0
  -24.9851  -12.5404   20.3762 C   0  0  0  0  0  0  0  0  0  0  0  0
  -21.7930  -11.3775   20.7008 C   0  0  0  0  0  0  0  0  0  0  0  0
  -31.9340  -14.0345   19.5542 C   0  0  0  0  0  0  0  0  0  0  0  0
  -25.8496  -15.2591   22.7159 C   0  0  0  0  0  0  0  0  0  0  0  0
  -23.9382  -14.8325   20.5002 C   0  0  0  0  0  0  0  0  0  0  0  0
  -30.5927  -13.4873   19.0726 C   0  0  0  0  0  0  0  0  0  0  0  0
  -24.9513  -31.1405   24.1614 C   0  0  0  0  0  0  0  0  0  0  0  0
  -29.6704  -14.6277   18.6536 C   0  0  0  0  0  0  0  0  0  0  0  0
  -25.6773  -30.5217   22.9676 C   0  0  0  0  0  0  0  0  0  0  0  0
  -24.2110  -30.0829   24.9742 C   0  0  0  0  0  0  0  0  0  0  0  0
  -23.9801  -28.6391   22.9782 C   0  0  0  0  0  0  0  0  0  0  0  0
  -29.3706  -15.5574   19.8357 C   0  0  1  0  0  0  0  0  0  0  0  0
  -26.1851  -14.3638   21.5271 C   0  0  1  0  0  0  0  0  0  0  0  0
  -24.7156  -29.6775   22.1127 C   0  0  2  0  0  0  0  0  0  0  0  0
  -21.6662  -28.0763   19.6981 C   0  0  0  0  0  0  0  0  0  0  0  0
  -20.4320   -9.2782   20.5067 C   0  0  0  0  0  0  0  0  0  0  0  0
  -25.0924  -12.7550   17.3344 C   0  0  0  0  0  0  0  0  0  0  0  0
  -23.0447  -11.3182   17.2304 C   0  0  0  0  0  0  0  0  0  0  0  0
  -25.1503  -10.4161   18.2179 C   0  0  0  0  0  0  0  0  0  0  0  0
  -20.9904  -11.4965   23.5470 C   0  0  0  0  0  0  0  0  0  0  0  0
  -20.4157  -28.1105   20.5716 C   0  0  0  0  0  0  0  0  0  0  0  0
  -22.1413  -20.4676   21.9317 C   0  0  0  0  0  0  0  0  0  1  0  0
  -21.0121  -28.9879   23.3043 C   0  0  2  0  0  0  0  0  0  0  0  0
  -23.8225  -12.1452   19.4981 C   0  0  1  0  0  0  0  0  0  0  0  0
  -21.2284  -10.1774   21.4393 C   0  0  2  0  0  0  0  0  0  0  0  0
  -24.2773  -11.6829   18.0850 C   0  0  0  0  0  0  0  0  0  0  0  0
  -25.9259  -27.7933   21.0793 N   0  0  0  0  0  0  0  0  0  0  0  0
  -20.0881  -23.4853   22.1991 N   0  0  0  0  0  0  0  0  0  0  0  0
  -25.4266  -29.0329   20.9371 N   0  0  0  0  0  0  0  0  0  0  0  0
  -24.9916  -13.8626   20.8425 N   0  0  0  0  0  0  0  0  0  0  0  0
  -23.3247  -29.2878   24.1224 N   0  0  0  0  0  0  0  0  0  0  0  0
  -25.1956  -30.8100   19.3881 N   0  0  0  0  0  0  0  0  0  0  0  0
  -27.4386  -27.6688   17.0432 N   0  0  0  0  0  0  0  0  0  0  0  0
  -28.3836  -14.9611   20.7101 N   0  0  0  0  0  0  0  0  0  0  0  0
  -23.0717  -11.1400   20.2427 N   0  0  0  0  0  0  0  0  0  0  0  0
  -19.7648  -29.7649   23.5987 N   0  3  0  0  0  0  0  0  0  0  0  0
  -20.3308  -10.6232   22.5423 N   0  3  0  0  0  0  0  0  0  0  0  0
  -26.5521  -29.7817   16.9510 O   0  0  0  0  0  0  0  0  0  0  0  0
  -19.9042  -20.9692   21.1211 O   0  0  0  0  0  0  0  0  0  0  0  0
  -26.4748  -15.6467   19.5661 O   0  0  0  0  0  0  0  0  0  0  0  0
  -21.5369  -29.2016   25.6044 O   0  0  0  0  0  0  0  0  0  0  0  0
  -25.8517  -11.7045   20.6446 O   0  0  0  0  0  0  0  0  0  0  0  0
  -21.1615  -12.4199   20.5427 O   0  0  0  0  0  0  0  0  0  0  0  0
  -28.9922  -22.6534   18.9050 O   0  0  0  0  0  0  0  0  0  0  0  0
  -21.8398  -19.1079   21.6207 O   0  0  0  0  0  0  0  0  0  1  0  0
  -26.4350  -18.0691   20.5929 F   0  0  0  0  0  0  0  0  0  0  0  0
  -28.4026  -22.2602   21.5772 F   0  0  0  0  0  0  0  0  0  0  0  0
  1  2  1  0  0  0  0
  1  5  2  0  0  0  0
  2  6  2  0  0  0  0
  3 10  2  0  0  0  0
  3 18  1  0  0  0  0
  4 11  1  0  0  0  0
  4 18  2  0  0  0  0
  5 20  1  0  0  0  0
  6 22  1  0  0  0  0
  7 12  2  0  0  0  0
  7 21  1  0  0  0  0
  8  9  2  0  0  0  0
  8 24  1  0  0  0  0
  9 26  1  0  0  0  0
 10 27  1  0  0  0  0
 11 27  2  0  0  0  0
 12 28  1  0  0  0  0
 13 14  2  0  0  0  0
 13 29  1  0  0  0  0
 14 30  1  0  0  0  0
 15 23  1  0  0  0  0
 15 28  2  0  0  0  0
 16 25  1  0  0  0  0
 16 26  2  0  0  0  0
 17 30  2  0  0  0  0
 17 31  1  0  0  0  0
 18 32  1  0  0  0  0
 19 32  1  0  0  0  0
 19 33  2  0  0  0  0
 19 35  1  0  0  0  0
 20 22  2  0  0  0  0
 20 41  1  0  0  0  0
 21 23  2  0  0  0  0
 21 42  1  0  0  0  0
 22 50  1  0  0  0  0
 23 43  1  0  0  0  0
 24 25  2  0  0  0  0
 24 61  1  0  0  0  0
 25 59  1  0  0  0  0
 26 66  1  0  0  0  0
 27 82  1  0  0  0  0
 28 83  1  0  0  0  0
 29 31  2  0  0  0  0
 29 82  1  0  0  0  0
 30 84  1  0  0  0  0
 31 85  1  0  0  0  0
 32 65  2  0  0  0  0
 33 67  1  0  0  0  0
 33 70  1  0  0  0  0
 34 36  1  0  0  0  0
 34 66  2  0  0  0  0
 35 71  1  0  0  0  0
 35 76  2  0  0  0  0
 36 60  1  0  0  0  0
 36 77  2  0  0  0  0
 37 51  1  0  0  0  0
 37 72  1  0  0  0  0
 37 78  2  0  0  0  0
 38 61  1  0  0  0  0
 38 69  1  0  0  0  0
 38 79  2  0  0  0  0
 39 62  1  0  0  0  0
 39 68  1  0  0  0  0
 39 80  2  0  0  0  0
 40 63  1  0  0  0  0
 40 73  1  0  0  0  0
 40 81  2  0  0  0  0
 41 44  1  0  0  0  0
 42 51  1  0  0  0  0
 43 68  1  0  0  0  0
 44 46  1  0  0  0  0
 45 47  1  0  0  0  0
 45 48  1  0  0  0  0
 46 50  1  0  0  0  0
 47 52  1  0  0  0  0
 48 69  1  0  0  0  0
 49 52  1  0  0  0  0
 49 69  1  0  0  0  0
 50 72  1  0  0  0  0
 51 68  1  0  0  0  0
 52 67  1  0  0  0  0
 53 59  1  0  0  0  0
 54 63  1  0  0  0  0
 55 64  1  0  0  0  0
 56 64  1  0  0  0  0
 57 64  1  0  0  0  0
 58 75  1  0  0  0  0
 60 83  1  0  0  0  0
 61 74  1  0  0  0  0
 62 64  1  0  0  0  0
 62 73  1  0  0  0  0
 63 75  1  0  0  0  0
 65 67  1  0  0  0  0
M  CHG  2  74   1  75   1
M  ISO  4  38 100  60 101  61 100  83 101
M  END
> <Batch ID>
0138

> <Smiles>
CCc1cc(NCC(=O)[101CH2:1][101O:1]c2ccc3c(c2)CN(C(=O)C(NC(=O)C(C)NC)C(C)(C)C)C(C(=O)NC2CCCc4ccccc42)C3)ccc1[100C:0](=N)[100C:0](=O)N1CCCC(n2nc(-c3ccc(Oc4ccc(F)cc4F)cc3)c(C(N)=O)c2N)C1

> <Shape>
0.248

> <Color>
0.054

> <Negative vol penalty>
0.000

$$$$

  -OEChem-04052302453D

 87 96  0     1  0  0  0  0  0999 V2000
  -18.6961  -30.7392   24.0646 C   0  0  0  0  0  0  0  0  0  0  0  0
  -20.0765  -30.6606   23.9104 C   0  0  0  0  0  0  0  0  0  0  0  0
  -23.6344  -14.2604   21.9419 C   0  0  0  0  0  0  0  0  0  0  0  0
  -25.7803  -14.4947   20.8569 C   0  0  0  0  0  0  0  0  0  0  0  0
  -17.8937  -29.6545   23.7130 C   0  0  0  0  0  0  0  0  0  0  0  0
  -20.6553  -29.4969   23.4054 C   0  0  0  0  0  0  0  0  0  0  0  0
  -25.6069  -29.1033   19.8230 C   0  0  0  0  0  0  0  0  0  0  0  0
  -23.4195  -13.0636   21.2584 C   0  0  0  0  0  0  0  0  0  0  0  0
  -25.5654  -13.2979   20.1735 C   0  0  0  0  0  0  0  0  0  0  0  0
  -26.9449  -28.8258   20.0994 C   0  0  0  0  0  0  0  0  0  0  0  0
  -24.4042   -9.8389   21.5119 C   0  0  0  0  0  0  0  0  0  0  0  0
  -23.9086   -8.7569   22.2394 C   0  0  0  0  0  0  0  0  0  0  0  0
  -26.5753  -26.5101   19.5333 C   0  0  0  0  0  0  0  0  0  0  0  0
  -33.0338  -22.0909   20.3839 C   0  0  0  0  0  0  0  0  0  0  0  0
  -31.3252  -20.4420   20.8294 C   0  0  0  0  0  0  0  0  0  0  0  0
  -30.7007  -22.7074   20.2684 C   0  0  0  0  0  0  0  0  0  0  0  0
  -21.9688   -8.6783   20.8013 C   0  0  0  0  0  0  0  0  0  0  0  0
  -24.8148  -14.9760   21.7411 C   0  0  0  0  0  0  0  0  0  0  0  0
  -25.0904  -16.3982   23.8409 C   0  0  0  0  0  0  0  0  0  0  0  0
  -18.4622  -28.4805   23.1944 C   0  0  0  0  0  0  0  0  0  0  0  0
  -24.7389  -28.0825   19.4095 C   0  0  0  0  0  0  0  0  0  0  0  0
  -19.8599  -28.3950   23.0477 C   0  0  0  0  0  0  0  0  0  0  0  0
  -25.2273  -26.7778   19.2498 C   0  0  0  0  0  0  0  0  0  0  0  0
  -32.6725  -20.7862   20.7194 C   0  0  0  0  0  0  0  0  0  0  0  0
  -32.0479  -23.0516   20.1585 C   0  0  0  0  0  0  0  0  0  0  0  0
  -30.3393  -21.4026   20.6039 C   0  0  0  0  0  0  0  0  0  0  0  0
  -24.3850  -12.5823   20.3742 C   0  0  0  0  0  0  0  0  0  0  0  0
  -27.4286  -27.5285   19.9574 C   0  0  0  0  0  0  0  0  0  0  0  0
  -23.6820  -10.3407   20.4291 C   0  0  0  0  0  0  0  0  0  0  0  0
  -22.6910   -8.1766   21.8841 C   0  0  0  0  0  0  0  0  0  0  0  0
  -22.4644   -9.7604   20.0738 C   0  0  0  0  0  0  0  0  0  0  0  0
  -25.0371  -16.2126   22.4464 C   0  0  0  0  0  0  0  0  0  0  0  0
  -25.3228  -17.7426   23.9997 C   0  0  0  0  0  0  0  0  0  0  0  0
  -31.7922  -28.4033   21.3046 C   0  0  0  0  0  0  0  0  0  0  0  0
  -24.9431  -15.4410   24.8981 C   0  0  0  0  0  0  0  0  0  0  0  0
  -31.0575  -27.8183   20.3464 C   0  0  0  0  0  0  0  0  0  0  0  0
  -22.0895  -26.7776   20.5849 C   0  0  0  0  0  0  0  0  0  0  0  0
  -22.0858  -25.1852   17.7588 C   0  0  0  0  0  0  0  0  0  0  0  0
  -24.5215  -23.5698   15.6433 C   0  0  0  0  0  0  0  0  0  0  0  0
  -27.8678  -21.8838   20.5243 C   0  0  0  0  0  0  0  0  0  0  0  0
  -17.5582  -27.3168   22.8727 C   0  0  0  0  0  0  0  0  0  0  0  0
  -23.3047  -28.4034   19.0895 C   0  0  0  0  0  0  0  0  0  0  0  0
  -24.3414  -25.6503   18.7892 C   0  0  0  0  0  0  0  0  0  0  0  0
  -18.2182  -26.2577   21.9935 C   0  0  0  0  0  0  0  0  0  0  0  0
  -33.4178  -25.7861   18.1204 C   0  0  0  0  0  0  0  0  0  0  0  0
  -24.5638  -21.9538   21.8493 C   0  0  0  0  0  0  0  0  0  0  0  0
  -19.6129  -25.9252   22.5141 C   0  0  0  0  0  0  0  0  0  0  0  0
  -32.8406  -27.0087   18.8269 C   0  0  0  0  0  0  0  0  0  0  0  0
  -24.3173  -20.5076   22.2853 C   0  0  0  0  0  0  0  0  0  0  0  0
  -33.6393  -24.6239   19.0889 C   0  0  0  0  0  0  0  0  0  0  0  0
  -25.3872  -22.0263   20.5647 C   0  0  0  0  0  0  0  0  0  0  0  0
  -31.8204  -25.4773   20.5484 C   0  0  0  0  0  0  0  0  0  0  0  0
  -26.4032  -19.8306   21.0292 C   0  0  0  0  0  0  0  0  0  0  0  0
  -20.5231  -27.1589   22.4801 C   0  0  1  0  0  0  0  0  0  0  0  0
  -31.5653  -26.6350   19.5819 C   0  0  1  0  0  0  0  0  0  0  0  0
  -22.3878  -27.1868   19.1702 C   0  0  1  0  0  0  0  0  0  0  0  0
  -25.6330  -19.7078   22.3541 C   0  0  2  0  0  0  0  0  0  0  0  0
  -33.7267  -19.7592   20.9605 C   0  0  0  0  0  0  0  0  0  0  0  0
  -24.5210  -23.1695   13.1660 C   0  0  0  0  0  0  0  0  0  0  0  0
  -20.8850  -22.4770   18.4891 C   0  0  0  0  0  0  0  0  0  0  0  0
  -22.2653  -21.4523   16.6689 C   0  0  0  0  0  0  0  0  0  0  0  0
  -20.5390  -23.1640   16.1094 C   0  0  0  0  0  0  0  0  0  0  0  0
  -27.1356  -24.9163   15.3081 C   0  0  0  0  0  0  0  0  0  0  0  0
  -29.6765  -28.3034   20.0068 C   0  0  0  0  0  0  0  0  0  1  0  0
  -22.6698  -23.8840   17.2641 C   0  0  1  0  0  0  0  0  0  0  0  0
  -25.0202  -24.0576   14.2950 C   0  0  2  0  0  0  0  0  0  0  0  0
  -21.6021  -22.7592   17.1538 C   0  0  0  0  0  0  0  0  0  0  0  0
  -25.2206  -17.3482   21.7677 N   0  0  0  0  0  0  0  0  0  0  0  0
  -25.3915  -18.2603   22.7398 N   0  0  0  0  0  0  0  0  0  0  0  0
  -32.4049  -24.3393   19.8274 N   0  0  2  0  0  0  0  0  0  0  0  0
  -22.9452  -26.0132   18.4948 N   0  0  0  0  0  0  0  0  0  0  0  0
  -26.6206  -21.2493   20.7053 N   0  0  0  0  0  0  0  0  0  0  0  0
  -25.4730  -18.5204   25.0927 N   0  0  0  0  0  0  0  0  0  0  0  0
  -24.7089  -14.1015   24.5588 N   0  0  0  0  0  0  0  0  0  0  0  0
  -28.9708  -21.0523   20.7153 N   0  0  0  0  0  0  0  0  0  0  0  0
  -20.9878  -27.4071   21.1321 N   0  0  0  0  0  0  0  0  0  0  0  0
  -23.3460  -24.1912   16.0084 N   0  0  0  0  0  0  0  0  0  0  0  0
  -26.5101  -24.0633   14.2649 N   0  3  0  0  0  0  0  0  0  0  0  0
  -25.0008  -15.7667   26.1081 O   0  0  0  0  0  0  0  0  0  0  0  0
  -22.8049  -25.9509   21.1383 O   0  0  0  0  0  0  0  0  0  0  0  0
  -20.9125  -25.4602   17.4956 O   0  0  0  0  0  0  0  0  0  0  0  0
  -25.1134  -22.7196   16.3046 O   0  0  0  0  0  0  0  0  0  0  0  0
  -27.9516  -23.0834   20.2489 O   0  0  0  0  0  0  0  0  0  0  0  0
  -24.1757  -11.4144   19.7073 O   0  0  0  0  0  0  0  0  0  0  0  0
  -28.7341  -27.2547   20.2271 O   0  0  0  0  0  0  0  0  0  1  0  0
  -22.2160   -7.1365   22.5819 F   0  0  0  0  0  0  0  0  0  0  0  0
  -21.7667  -10.2373   19.0338 F   0  0  0  0  0  0  0  0  0  0  0  0
  1  2  1  0  0  0  0
  1  5  2  0  0  0  0
  2  6  2  0  0  0  0
  3  8  2  0  0  0  0
  3 18  1  0  0  0  0
  4  9  1  0  0  0  0
  4 18  2  0  0  0  0
  5 20  1  0  0  0  0
  6 22  1  0  0  0  0
  7 10  2  0  0  0  0
  7 21  1  0  0  0  0
  8 27  1  0  0  0  0
  9 27  2  0  0  0  0
 10 28  1  0  0  0  0
 11 12  2  0  0  0  0
 11 29  1  0  0  0  0
 12 30  1  0  0  0  0
 13 23  1  0  0  0  0
 13 28  2  0  0  0  0
 14 24  2  0  0  0  0
 14 25  1  0  0  0  0
 15 24  1  0  0  0  0
 15 26  2  0  0  0  0
 16 25  2  0  0  0  0
 16 26  1  0  0  0  0
 17 30  2  0  0  0  0
 17 31  1  0  0  0  0
 18 32  1  0  0  0  0
 19 32  1  0  0  0  0
 19 33  2  0  0  0  0
 19 35  1  0  0  0  0
 20 22  2  0  0  0  0
 20 41  1  0  0  0  0
 21 23  2  0  0  0  0
 21 42  1  0  0  0  0
 22 54  1  0  0  0  0
 23 43  1  0  0  0  0
 24 58  1  0  0  0  0
 25 70  1  0  0  0  0
 26 75  1  0  0  0  0
 27 84  1  0  0  0  0
 28 85  1  0  0  0  0
 29 31  2  0  0  0  0
 29 84  1  0  0  0  0
 30 86  1  0  0  0  0
 31 87  1  0  0  0  0
 32 68  2  0  0  0  0
 33 69  1  0  0  0  0
 33 73  1  0  0  0  0
 34 36  2  0  0  0  0
 35 74  1  0  0  0  0
 35 79  2  0  0  0  0
 36 55  1  0  0  0  0
 36 64  1  0  0  0  0
 37 56  1  0  0  0  0
 37 76  1  0  0  0  0
 37 80  2  0  0  0  0
 38 65  1  0  0  0  0
 38 71  1  0  0  0  0
 38 81  2  0  0  0  0
 39 66  1  0  0  0  0
 39 77  1  0  0  0  0
 39 82  2  0  0  0  0
 40 72  1  0  0  0  0
 40 75  1  0  0  0  0
 40 83  2  0  0  0  0
 41 44  1  0  0  0  0
 42 56  1  0  0  0  0
 43 71  1  0  0  0  0
 44 47  1  0  0  0  0
 45 48  1  0  0  0  0
 45 50  1  0  0  0  0
 46 49  1  0  0  0  0
 46 51  1  0  0  0  0
 47 54  1  0  0  0  0
 48 55  1  0  0  0  0
 49 57  1  0  0  0  0
 50 70  1  0  0  0  0
 51 72  1  0  0  0  0
 52 55  1  0  0  0  0
 52 70  1  0  0  0  0
 53 57  1  0  0  0  0
 53 72  1  0  0  0  0
 54 76  1  0  0  0  0
 56 71  1  0  0  0  0
 57 69  1  0  0  0  0
 59 66  1  0  0  0  0
 60 67  1  0  0  0  0
 61 67  1  0  0  0  0
 62 67  1  0  0  0  0
 63 78  1  0  0  0  0
 64 85  1  0  0  0  0
 65 67  1  0  0  0  0
 65 77  1  0  0  0  0
 66 78  1  0  0  0  0
 68 69  1  0  0  0  0
M  CHG  1  78   1
M  ISO  4  40 100  64 101  75 100  85 101
M  END
> <Batch ID>
0138

> <Smiles>
C=C(C1CCCN(c2cc(C)cc([100NH:0][100C:0](=O)N3CCCC(n4nc(-c5ccc(Oc6ccc(F)cc6F)cc5)c(C(N)=O)c4N)C3)c2)C1)[101CH2:1][101O:1]c1ccc2c(c1)CN(C(=O)C(NC(=O)C(C)NC)C(C)(C)C)C(C(=O)NC1CCCc3ccccc31)C2

> <Shape>
0.230

> <Color>
0.066

> <Negative vol penalty>
0.000

$$$$

  -OEChem-04052302453D

 83 91  0     1  0  0  0  0  0999 V2000
  -18.9409  -28.6683   22.6726 C   0  0  0  0  0  0  0  0  0  0  0  0
  -20.1768  -28.3381   23.2170 C   0  0  0  0  0  0  0  0  0  0  0  0
  -26.1014  -13.3538   21.2495 C   0  0  0  0  0  0  0  0  0  0  0  0
  -25.9605  -13.6463   18.8554 C   0  0  0  0  0  0  0  0  0  0  0  0
  -27.4430  -23.3334   15.4795 C   0  0  0  0  0  0  0  0  0  0  0  0
  -18.1933  -27.6968   22.0103 C   0  0  0  0  0  0  0  0  0  0  0  0
  -20.6709  -27.0395   23.0889 C   0  0  0  0  0  0  0  0  0  0  0  0
  -24.0036  -22.4496   17.8848 C   0  0  0  0  0  0  0  0  0  0  0  0
  -27.9009  -22.6427   16.6015 C   0  0  0  0  0  0  0  0  0  0  0  0
  -24.9304  -12.5964   21.2259 C   0  0  0  0  0  0  0  0  0  0  0  0
  -24.7895  -12.8887   18.8318 C   0  0  0  0  0  0  0  0  0  0  0  0
  -23.8189  -22.4158   16.5034 C   0  0  0  0  0  0  0  0  0  0  0  0
  -22.1753  -10.2829   21.7476 C   0  0  0  0  0  0  0  0  0  0  0  0
  -22.1529   -9.1002   22.4868 C   0  0  0  0  0  0  0  0  0  0  0  0
  -23.8586  -24.8270   16.4450 C   0  0  0  0  0  0  0  0  0  0  0  0
  -28.1059  -20.6309   15.2795 C   0  0  0  0  0  0  0  0  0  0  0  0
  -24.0012   -8.2506   21.1833 C   0  0  0  0  0  0  0  0  0  0  0  0
  -26.6164  -13.8789   20.0642 C   0  0  0  0  0  0  0  0  0  0  0  0
  -27.3165  -22.6728   14.2574 C   0  0  0  0  0  0  0  0  0  0  0  0
  -29.1457  -14.1917   19.9527 C   0  0  0  0  0  0  0  0  0  0  0  0
  -18.6737  -26.3828   21.8854 C   0  0  0  0  0  0  0  0  0  0  0  0
  -24.1064  -23.6747   18.5594 C   0  0  0  0  0  0  0  0  0  0  0  0
  -19.9421  -26.0509   22.4033 C   0  0  0  0  0  0  0  0  0  0  0  0
  -24.0471  -24.8737   17.8347 C   0  0  0  0  0  0  0  0  0  0  0  0
  -27.6479  -21.3216   14.1574 C   0  0  0  0  0  0  0  0  0  0  0  0
  -28.2324  -21.2915   16.5015 C   0  0  0  0  0  0  0  0  0  0  0  0
  -24.2744  -12.3638   20.0171 C   0  0  0  0  0  0  0  0  0  0  0  0
  -23.7435  -23.6046   15.7836 C   0  0  0  0  0  0  0  0  0  0  0  0
  -23.1105  -10.4494   20.7262 C   0  0  0  0  0  0  0  0  0  0  0  0
  -23.0659   -8.0841   22.2047 C   0  0  0  0  0  0  0  0  0  0  0  0
  -24.0235   -9.4333   20.4440 C   0  0  0  0  0  0  0  0  0  0  0  0
  -27.8257  -14.6619   20.0880 C   0  0  0  0  0  0  0  0  0  0  0  0
  -29.9232  -15.3203   20.0439 C   0  0  0  0  0  0  0  0  0  0  0  0
  -26.8229  -23.4374   13.0723 C   0  0  0  0  0  0  0  0  0  0  0  0
  -29.6261  -12.8544   19.7615 C   0  0  0  0  0  0  0  0  0  0  0  0
  -22.4171  -25.1405   20.8180 C   0  0  0  0  0  0  0  0  0  0  0  0
  -24.8424  -27.2908   20.6902 C   0  0  0  0  0  0  0  0  0  0  0  0
  -27.3847  -28.6870   18.8917 C   0  0  0  0  0  0  0  0  0  0  0  0
  -28.8803  -21.0972   18.9282 C   0  0  0  0  0  0  0  0  0  0  0  0
  -17.8267  -25.3730   21.1518 C   0  0  0  0  0  0  0  0  0  0  0  0
  -24.3321  -23.6938   20.0463 C   0  0  0  0  0  0  0  0  0  0  0  0
  -24.1721  -26.2147   18.5089 C   0  0  0  0  0  0  0  0  0  0  0  0
  -18.2261  -23.9319   21.4521 C   0  0  0  0  0  0  0  0  0  0  0  0
  -29.9700  -19.6866   22.0104 C   0  0  0  0  0  0  0  0  0  0  0  0
  -19.7298  -23.7653   21.2927 C   0  0  0  0  0  0  0  0  0  0  0  0
  -29.6695  -18.1943   21.8525 C   0  0  0  0  0  0  0  0  0  0  0  0
  -28.8978  -20.5537   21.3529 C   0  0  0  0  0  0  0  0  0  0  0  0
  -28.3148  -18.7407   19.7901 C   0  0  0  0  0  0  0  0  0  0  0  0
  -20.4861  -24.6373   22.3029 C   0  0  1  0  0  0  0  0  0  0  0  0
  -23.9088  -25.0065   20.6982 C   0  0  1  0  0  0  0  0  0  0  0  0
  -29.4008  -17.8263   20.3801 C   0  0  2  0  0  0  0  0  0  0  0  0
  -27.5204  -20.5900   12.8611 C   0  0  0  0  0  0  0  0  0  0  0  0
  -29.1664  -30.4480   19.0394 C   0  0  0  0  0  0  0  0  0  0  0  0
  -22.7341  -29.4558   20.2690 C   0  0  0  0  0  0  0  0  0  0  0  0
  -24.5583  -30.9825   19.4882 C   0  0  0  0  0  0  0  0  0  0  0  0
  -24.5899  -30.0944   21.8191 C   0  0  0  0  0  0  0  0  0  0  0  0
  -29.5452  -26.6955   18.5382 C   0  0  0  0  0  0  0  0  0  0  0  0
  -25.5505  -23.0148   12.3496 C   0  0  0  0  0  0  0  0  0  0  0  0
  -24.5079  -24.1291   12.3013 C   0  0  0  0  0  0  0  0  0  0  0  0
  -24.1217  -24.6489   13.6806 C   0  0  0  0  0  0  0  0  0  1  0  0
  -25.1200  -28.5432   19.8943 C   0  0  1  0  0  0  0  0  0  0  0  0
  -28.8302  -28.9801   19.2511 C   0  0  2  0  0  0  0  0  0  0  0  0
  -24.2462  -29.7439   20.3549 C   0  0  0  0  0  0  0  0  0  0  0  0
  -27.7643  -15.9859   20.2528 N   0  0  0  0  0  0  0  0  0  0  0  0
  -27.4761  -24.4741   12.6491 N   0  0  0  0  0  0  0  0  0  0  0  0
  -29.0555  -16.3574   20.2218 N   0  0  0  0  0  0  0  0  0  0  0  0
  -24.3855  -26.1811   19.9652 N   0  0  0  0  0  0  0  0  0  0  0  0
  -28.7004  -20.1506   19.9589 N   0  0  0  0  0  0  0  0  0  0  0  0
  -31.2577  -15.5167   19.9886 N   0  0  0  0  0  0  0  0  0  0  0  0
  -28.6914  -11.8125   19.6900 N   0  0  0  0  0  0  0  0  0  0  0  0
  -28.6974  -20.5907   17.6418 N   0  0  0  0  0  0  0  0  0  0  0  0
  -21.8967  -24.6132   21.9845 N   0  0  0  0  0  0  0  0  0  0  0  0
  -26.5567  -28.7780   19.9906 N   0  0  0  0  0  0  0  0  0  0  0  0
  -29.7491  -28.1615   18.4105 N   0  3  0  0  0  0  0  0  0  0  0  0
  -30.8490  -12.5892   19.6736 O   0  0  0  0  0  0  0  0  0  0  0  0
  -21.7851  -25.6835   19.9194 O   0  0  0  0  0  0  0  0  0  0  0  0
  -25.0311  -27.2947   21.9092 O   0  0  0  0  0  0  0  0  0  0  0  0
  -27.0254  -28.4092   17.7497 O   0  0  0  0  0  0  0  0  0  0  0  0
  -29.2015  -22.2640   19.1675 O   0  0  0  0  0  0  0  0  0  0  0  0
  -23.1319  -11.6244   19.9937 O   0  0  0  0  0  0  0  0  0  0  0  0
  -23.5627  -23.5744   14.4352 O   0  0  0  0  0  0  0  0  0  1  0  0
  -23.0454   -6.9491   22.9156 F   0  0  0  0  0  0  0  0  0  0  0  0
  -24.9251   -9.5880   19.4647 F   0  0  0  0  0  0  0  0  0  0  0  0
  1  2  1  0  0  0  0
  1  6  2  0  0  0  0
  2  7  2  0  0  0  0
  3 10  2  0  0  0  0
  3 18  1  0  0  0  0
  4 11  1  0  0  0  0
  4 18  2  0  0  0  0
  5  9  2  0  0  0  0
  5 19  1  0  0  0  0
  6 21  1  0  0  0  0
  7 23  1  0  0  0  0
  8 12  2  0  0  0  0
  8 22  1  0  0  0  0
  9 26  1  0  0  0  0
 10 27  1  0  0  0  0
 11 27  2  0  0  0  0
 12 28  1  0  0  0  0
 13 14  2  0  0  0  0
 13 29  1  0  0  0  0
 14 30  1  0  0  0  0
 15 24  1  0  0  0  0
 15 28  2  0  0  0  0
 16 25  1  0  0  0  0
 16 26  2  0  0  0  0
 17 30  2  0  0  0  0
 17 31  1  0  0  0  0
 18 32  1  0  0  0  0
 19 25  2  0  0  0  0
 19 34  1  0  0  0  0
 20 32  1  0  0  0  0
 20 33  2  0  0  0  0
 20 35  1  0  0  0  0
 21 23  2  0  0  0  0
 21 40  1  0  0  0  0
 22 24  2  0  0  0  0
 22 41  1  0  0  0  0
 23 49  1  0  0  0  0
 24 42  1  0  0  0  0
 25 52  1  0  0  0  0
 26 71  1  0  0  0  0
 27 80  1  0  0  0  0
 28 81  1  0  0  0  0
 29 31  2  0  0  0  0
 29 80  1  0  0  0  0
 30 82  1  0  0  0  0
 31 83  1  0  0  0  0
 32 64  2  0  0  0  0
 33 66  1  0  0  0  0
 33 69  1  0  0  0  0
 34 58  1  0  0  0  0
 34 65  2  0  0  0  0
 35 70  1  0  0  0  0
 35 75  2  0  0  0  0
 36 50  1  0  0  0  0
 36 72  1  0  0  0  0
 36 76  2  0  0  0  0
 37 61  1  0  0  0  0
 37 67  1  0  0  0  0
 37 77  2  0  0  0  0
 38 62  1  0  0  0  0
 38 73  1  0  0  0  0
 38 78  2  0  0  0  0
 39 68  1  0  0  0  0
 39 71  1  0  0  0  0
 39 79  2  0  0  0  0
 40 43  1  0  0  0  0
 41 50  1  0  0  0  0
 42 67  1  0  0  0  0
 43 45  1  0  0  0  0
 44 46  1  0  0  0  0
 44 47  1  0  0  0  0
 45 49  1  0  0  0  0
 46 51  1  0  0  0  0
 47 68  1  0  0  0  0
 48 51  1  0  0  0  0
 48 68  1  0  0  0  0
 49 72  1  0  0  0  0
 50 67  1  0  0  0  0
 51 66  1  0  0  0  0
 53 62  1  0  0  0  0
 54 63  1  0  0  0  0
 55 63  1  0  0  0  0
 56 63  1  0  0  0  0
 57 74  1  0  0  0  0
 58 59  1  0  0  0  0
 59 60  1  0  0  0  0
 60 81  1  0  0  0  0
 61 63  1  0  0  0  0
 61 73  1  0  0  0  0
 62 74  1  0  0  0  0
 64 66  1  0  0  0  0
M  CHG  1  74   1
M  ISO  4  39 100  60 101  71 100  81 101
M  END
> <Batch ID>
0138

> <Smiles>
CNC(C)C(=O)NC(C(=O)N1Cc2cc([101O:1][101CH2:1]CCC(=N)c3ccc([100NH:0][100C:0](=O)N4CCCC(n5nc(-c6ccc(Oc7ccc(F)cc7F)cc6)c(C(N)=O)c5N)C4)cc3C)ccc2CC1C(=O)NC1CCCc2ccccc21)C(C)(C)C

> <Shape>
0.246

> <Color>
0.062

> <Negative vol penalty>
0.000

$$$$

  -OEChem-04052302453D

 84 93  0     1  0  0  0  0  0999 V2000
  -40.9337  -16.6185   12.1337 C   0  0  0  0  0  0  0  0  0  0  0  0
  -40.4335  -16.7774   13.4221 C   0  0  0  0  0  0  0  0  0  0  0  0
  -23.0751   -9.8687   19.9398 C   0  0  0  0  0  0  0  0  0  0  0  0
  -23.8348   -9.8740   22.2333 C   0  0  0  0  0  0  0  0  0  0  0  0
  -40.9617  -17.7041   11.2592 C   0  0  0  0  0  0  0  0  0  0  0  0
  -39.9621  -18.0223   13.8372 C   0  0  0  0  0  0  0  0  0  0  0  0
  -35.2928  -19.1069   17.6487 C   0  0  0  0  0  0  0  0  0  0  0  0
  -22.3309   -8.7156   20.1890 C   0  0  0  0  0  0  0  0  0  0  0  0
  -23.0904   -8.7209   22.4825 C   0  0  0  0  0  0  0  0  0  0  0  0
  -35.2428  -19.4035   19.0101 C   0  0  0  0  0  0  0  0  0  0  0  0
  -19.8619   -7.9238   23.0841 C   0  0  0  0  0  0  0  0  0  0  0  0
  -19.1048   -7.8834   24.2549 C   0  0  0  0  0  0  0  0  0  0  0  0
  -35.1246  -21.7554   18.4871 C   0  0  0  0  0  0  0  0  0  0  0  0
  -31.8498  -17.5129   21.6672 C   0  0  0  0  0  0  0  0  0  0  0  0
  -20.3455   -5.9451   24.9903 C   0  0  0  0  0  0  0  0  0  0  0  0
  -29.9206  -17.8237   22.7433 C   0  0  0  0  0  0  0  0  0  0  0  0
  -23.8272  -10.4478   20.9620 C   0  0  0  0  0  0  0  0  0  0  0  0
  -24.1698  -12.9729   20.8436 C   0  0  0  0  0  0  0  0  0  0  0  0
  -40.4815  -18.9606   11.6606 C   0  0  0  0  0  0  0  0  0  0  0  0
  -35.2701  -20.1346   16.6950 C   0  0  0  0  0  0  0  0  0  0  0  0
  -39.9850  -19.1261   12.9677 C   0  0  0  0  0  0  0  0  0  0  0  0
  -35.1719  -21.4691   17.1142 C   0  0  0  0  0  0  0  0  0  0  0  0
  -30.5864  -16.9332   21.9336 C   0  0  0  0  0  0  0  0  0  0  0  0
  -22.3385   -8.1417   21.4603 C   0  0  0  0  0  0  0  0  0  0  0  0
  -35.1615  -20.7281   19.4295 C   0  0  0  0  0  0  0  0  0  0  0  0
  -20.8608   -6.9748   22.8663 C   0  0  0  0  0  0  0  0  0  0  0  0
  -19.3466   -6.8940   25.2080 C   0  0  0  0  0  0  0  0  0  0  0  0
  -21.1026   -5.9855   23.8194 C   0  0  0  0  0  0  0  0  0  0  0  0
  -24.5967  -11.6386   20.7051 C   0  0  0  0  0  0  0  0  0  0  0  0
  -31.8659  -18.7165   22.3328 C   0  0  0  0  0  0  0  0  0  0  0  0
  -25.2623  -13.7223   20.4809 C   0  0  0  0  0  0  0  0  0  0  0  0
  -22.8995  -13.4889   21.2627 C   0  0  0  0  0  0  0  0  0  0  0  0
  -32.9935  -19.6655   22.3350 C   0  0  0  0  0  0  0  0  0  0  0  0
  -37.2734  -21.1536   14.4472 C   0  0  0  0  0  0  0  0  0  0  0  0
  -34.8005  -23.1069   13.6779 C   0  0  0  0  0  0  0  0  0  0  0  0
  -31.9524  -24.7036   14.6707 C   0  0  0  0  0  0  0  0  0  0  0  0
  -30.7287  -14.7661   20.6569 C   0  0  0  0  0  0  0  0  0  0  0  0
  -40.5759  -20.1160   10.6957 C   0  0  0  0  0  0  0  0  0  0  0  0
  -35.2979  -19.7966   15.2296 C   0  0  0  0  0  0  0  0  0  0  0  0
  -35.1239  -22.6080   16.1298 C   0  0  0  0  0  0  0  0  0  0  0  0
  -39.7113  -21.3107   11.0896 C   0  0  0  0  0  0  0  0  0  0  0  0
  -29.6139  -12.3539   18.2872 C   0  0  0  0  0  0  0  0  0  0  0  0
  -31.6227  -23.0140   22.4757 C   0  0  0  0  0  0  0  0  0  0  0  0
  -39.8870  -21.6317   12.5705 C   0  0  0  0  0  0  0  0  0  0  0  0
  -28.1741  -12.0625   18.7164 C   0  0  0  0  0  0  0  0  0  0  0  0
  -33.0304  -23.2127   23.0280 C   0  0  0  0  0  0  0  0  0  0  0  0
  -31.3949  -21.5126   22.5967 C   0  0  0  0  0  0  0  0  0  0  0  0
  -30.5289  -12.5818   19.4891 C   0  0  0  0  0  0  0  0  0  0  0  0
  -28.6220  -13.3061   20.8705 C   0  0  0  0  0  0  0  0  0  0  0  0
  -39.4416  -20.4548   13.4468 C   0  0  1  0  0  0  0  0  0  0  0  0
  -35.7872  -20.9502   14.3595 C   0  0  1  0  0  0  0  0  0  0  0  0
  -27.6493  -13.1338   19.6924 C   0  0  2  0  0  0  0  0  0  0  0  0
  -33.8067  -21.9932   22.5218 C   0  0  2  0  0  0  0  0  0  0  0  0
  -30.1713  -26.2592   13.8309 C   0  0  0  0  0  0  0  0  0  0  0  0
  -36.7446  -25.4482   13.8988 C   0  0  0  0  0  0  0  0  0  0  0  0
  -34.7718  -26.9865   13.9979 C   0  0  0  0  0  0  0  0  0  0  0  0
  -35.1592  -25.5871   11.9696 C   0  0  0  0  0  0  0  0  0  0  0  0
  -29.8212  -22.7050   15.1431 C   0  0  0  0  0  0  0  0  0  0  0  0
  -34.4043  -22.1991   21.1379 C   0  0  0  0  0  0  0  0  0  1  0  0
  -34.3568  -24.4868   14.0998 C   0  0  1  0  0  0  0  0  0  0  0  0
  -30.5804  -24.8080   14.0295 C   0  0  2  0  0  0  0  0  0  0  0  0
  -35.2609  -25.6060   13.5104 C   0  0  0  0  0  0  0  0  0  0  0  0
  -25.8615  -11.5426   20.2869 N   0  0  0  0  0  0  0  0  0  0  0  0
  -26.2389  -12.8261   20.1595 N   0  0  0  0  0  0  0  0  0  0  0  0
  -32.7532  -20.9592   22.4586 N   0  0  0  0  0  0  0  0  0  0  0  0
  -35.1602  -22.2267   14.7083 N   0  0  0  0  0  0  0  0  0  0  0  0
  -29.9702  -13.6123   20.3669 N   0  0  0  0  0  0  0  0  0  0  0  0
  -25.4732  -15.0537   20.4088 N   0  0  0  0  0  0  0  0  0  0  0  0
  -21.8872  -12.5799   21.5993 N   0  0  0  0  0  0  0  0  0  0  0  0
  -30.0815  -15.6909   21.4757 N   0  0  0  0  0  0  0  0  0  0  0  0
  -37.9979  -20.4091   13.5361 N   0  0  0  0  0  0  0  0  0  0  0  0
  -32.9508  -24.5957   13.7259 N   0  0  0  0  0  0  0  0  0  0  0  0
  -34.2352  -19.2050   22.2144 N   0  3  0  0  0  0  0  0  0  0  0  0
  -29.5568  -24.1440   14.8852 N   0  3  0  0  0  0  0  0  0  0  0  0
  -22.6636  -14.7196   21.3208 O   0  0  0  0  0  0  0  0  0  0  0  0
  -37.7289  -21.9298   15.2790 O   0  0  0  0  0  0  0  0  0  0  0  0
  -34.8201  -22.8182   12.4788 O   0  0  0  0  0  0  0  0  0  0  0  0
  -32.1217  -24.7201   15.8879 O   0  0  0  0  0  0  0  0  0  0  0  0
  -31.8580  -14.9347   20.1896 O   0  0  0  0  0  0  0  0  0  0  0  0
  -30.6936  -18.9135   22.9912 O   0  0  0  0  0  0  0  0  0  0  0  0
  -21.6121   -7.0167   21.7038 O   0  0  0  0  0  0  0  0  0  0  0  0
  -35.1132  -21.0204   20.7577 O   0  0  0  0  0  0  0  0  0  1  0  0
  -18.6205   -6.8563   26.3329 F   0  0  0  0  0  0  0  0  0  0  0  0
  -22.0616   -5.0718   23.6164 F   0  0  0  0  0  0  0  0  0  0  0  0
  1  2  1  0  0  0  0
  1  5  2  0  0  0  0
  2  6  2  0  0  0  0
  3  8  2  0  0  0  0
  3 17  1  0  0  0  0
  4  9  1  0  0  0  0
  4 17  2  0  0  0  0
  5 19  1  0  0  0  0
  6 21  1  0  0  0  0
  7 10  2  0  0  0  0
  7 20  1  0  0  0  0
  8 24  1  0  0  0  0
  9 24  2  0  0  0  0
 10 25  1  0  0  0  0
 11 12  2  0  0  0  0
 11 26  1  0  0  0  0
 12 27  1  0  0  0  0
 13 22  1  0  0  0  0
 13 25  2  0  0  0  0
 14 23  1  0  0  0  0
 14 30  2  0  0  0  0
 15 27  2  0  0  0  0
 15 28  1  0  0  0  0
 16 23  2  0  0  0  0
 16 80  1  0  0  0  0
 17 29  1  0  0  0  0
 18 29  1  0  0  0  0
 18 31  2  0  0  0  0
 18 32  1  0  0  0  0
 19 21  2  0  0  0  0
 19 38  1  0  0  0  0
 20 22  2  0  0  0  0
 20 39  1  0  0  0  0
 21 50  1  0  0  0  0
 22 40  1  0  0  0  0
 23 70  1  0  0  0  0
 24 81  1  0  0  0  0
 25 82  1  0  0  0  0
 26 28  2  0  0  0  0
 26 81  1  0  0  0  0
 27 83  1  0  0  0  0
 28 84  1  0  0  0  0
 29 63  2  0  0  0  0
 30 33  1  0  0  0  0
 30 80  1  0  0  0  0
 31 64  1  0  0  0  0
 31 68  1  0  0  0  0
 32 69  1  0  0  0  0
 32 75  2  0  0  0  0
 33 65  1  0  0  0  0
 33 73  2  0  0  0  0
 34 51  1  0  0  0  0
 34 71  1  0  0  0  0
 34 76  2  0  0  0  0
 35 60  1  0  0  0  0
 35 66  1  0  0  0  0
 35 77  2  0  0  0  0
 36 61  1  0  0  0  0
 36 72  1  0  0  0  0
 36 78  2  0  0  0  0
 37 67  1  0  0  0  0
 37 70  1  0  0  0  0
 37 79  2  0  0  0  0
 38 41  1  0  0  0  0
 39 51  1  0  0  0  0
 40 66  1  0  0  0  0
 41 44  1  0  0  0  0
 42 45  1  0  0  0  0
 42 48  1  0  0  0  0
 43 46  1  0  0  0  0
 43 47  1  0  0  0  0
 44 50  1  0  0  0  0
 45 52  1  0  0  0  0
 46 53  1  0  0  0  0
 47 65  1  0  0  0  0
 48 67  1  0  0  0  0
 49 52  1  0  0  0  0
 49 67  1  0  0  0  0
 50 71  1  0  0  0  0
 51 66  1  0  0  0  0
 52 64  1  0  0  0  0
 53 59  1  0  0  0  0
 53 65  1  0  0  0  0
 54 61  1  0  0  0  0
 55 62  1  0  0  0  0
 56 62  1  0  0  0  0
 57 62  1  0  0  0  0
 58 74  1  0  0  0  0
 59 82  1  0  0  0  0
 60 62  1  0  0  0  0
 60 72  1  0  0  0  0
 61 74  1  0  0  0  0
 63 64  1  0  0  0  0
M  CHG  2  73   1  74   1
M  ISO  4  37 100  59 101  70 100  82 101
M  END
> <Batch ID>
0138

> <Smiles>
CNC(C)C(=O)NC(C(=O)N1Cc2cc([101O:1][101CH2:1]C3CCCN3C(=N)c3cc([100NH:0][100C:0](=O)N4CCCC(n5nc(-c6ccc(Oc7ccc(F)cc7F)cc6)c(C(N)=O)c5N)C4)co3)ccc2CC1C(=O)NC1CCCc2ccccc21)C(C)(C)C

> <Shape>
0.170

> <Color>
0.184

> <Negative vol penalty>
0.000

$$$$

  -OEChem-04052302453D

 88 96  0     1  0  0  0  0  0999 V2000
  -23.9187  -15.4510   32.8275 C   0  0  0  0  0  0  0  0  0  0  0  0
  -24.9633  -15.9101   32.0315 C   0  0  0  0  0  0  0  0  0  0  0  0
  -23.0004   -9.8939   19.9810 C   0  0  0  0  0  0  0  0  0  0  0  0
  -23.7253   -9.9450   22.2852 C   0  0  0  0  0  0  0  0  0  0  0  0
  -22.5984  -15.6927   32.4505 C   0  0  0  0  0  0  0  0  0  0  0  0
  -24.6880  -16.6103   30.8575 C   0  0  0  0  0  0  0  0  0  0  0  0
  -27.5984  -20.7194   30.3185 C   0  0  0  0  0  0  0  0  0  0  0  0
  -22.2337   -8.7596   20.2474 C   0  0  0  0  0  0  0  0  0  0  0  0
  -22.9585   -8.8106   22.5515 C   0  0  0  0  0  0  0  0  0  0  0  0
  -28.9079  -20.5196   29.8838 C   0  0  0  0  0  0  0  0  0  0  0  0
  -23.2025   -5.4716   22.0799 C   0  0  0  0  0  0  0  0  0  0  0  0
  -23.7898   -4.4544   22.8322 C   0  0  0  0  0  0  0  0  0  0  0  0
  -28.2541  -21.1433   27.6471 C   0  0  0  0  0  0  0  0  0  0  0  0
  -29.8796  -17.4485   23.0987 C   0  0  0  0  0  0  0  0  0  0  0  0
  -32.0580  -16.5510   22.5637 C   0  0  0  0  0  0  0  0  0  0  0  0
  -22.0657   -4.6977   24.5072 C   0  0  0  0  0  0  0  0  0  0  0  0
  -23.7463  -10.4866   20.9999 C   0  0  0  0  0  0  0  0  0  0  0  0
  -24.1319  -13.0021   20.8237 C   0  0  0  0  0  0  0  0  0  0  0  0
  -22.3069  -16.4047   31.2762 C   0  0  0  0  0  0  0  0  0  0  0  0
  -26.6029  -21.1228   29.4171 C   0  0  0  0  0  0  0  0  0  0  0  0
  -23.3625  -16.8607   30.4638 C   0  0  0  0  0  0  0  0  0  0  0  0
  -26.9333  -21.3500   28.0734 C   0  0  0  0  0  0  0  0  0  0  0  0
  -30.4681  -18.3456   23.9900 C   0  0  0  0  0  0  0  0  0  0  0  0
  -32.6465  -17.4482   23.4550 C   0  0  0  0  0  0  0  0  0  0  0  0
  -31.8516  -18.3456   24.1681 C   0  0  0  0  0  0  0  0  0  0  0  0
  -30.6746  -16.5511   22.3856 C   0  0  0  0  0  0  0  0  0  0  0  0
  -22.2127   -8.2179   21.5326 C   0  0  0  0  0  0  0  0  0  0  0  0
  -29.2353  -20.7287   28.5473 C   0  0  0  0  0  0  0  0  0  0  0  0
  -22.0468   -6.1020   22.5413 C   0  0  0  0  0  0  0  0  0  0  0  0
  -23.2214   -4.0674   24.0458 C   0  0  0  0  0  0  0  0  0  0  0  0
  -21.4784   -5.7150   23.7549 C   0  0  0  0  0  0  0  0  0  0  0  0
  -24.5389  -11.6581   20.7253 C   0  0  0  0  0  0  0  0  0  0  0  0
  -25.2418  -13.7246   20.4594 C   0  0  0  0  0  0  0  0  0  0  0  0
  -22.8640  -13.5488   21.2101 C   0  0  0  0  0  0  0  0  0  0  0  0
  -23.8801  -19.8607   28.3697 C   0  0  0  0  0  0  0  0  0  0  0  0
  -23.5673  -22.7344   26.8980 C   0  0  0  0  0  0  0  0  0  0  0  0
  -25.0770  -25.5233   25.6372 C   0  0  0  0  0  0  0  0  0  0  0  0
  -30.7214  -14.6849   20.6940 C   0  0  0  0  0  0  0  0  0  0  0  0
  -20.8634  -16.6005   30.8854 C   0  0  0  0  0  0  0  0  0  0  0  0
  -25.2008  -21.3599   29.9073 C   0  0  0  0  0  0  0  0  0  0  0  0
  -25.9058  -21.8031   27.0698 C   0  0  0  0  0  0  0  0  0  0  0  0
  -20.6612  -17.6753   29.8205 C   0  0  0  0  0  0  0  0  0  0  0  0
  -29.6031  -12.2320   18.3681 C   0  0  0  0  0  0  0  0  0  0  0  0
  -21.6658  -17.4987   28.6862 C   0  0  0  0  0  0  0  0  0  0  0  0
  -28.1524  -11.9746   18.7821 C   0  0  0  0  0  0  0  0  0  0  0  0
  -30.5035  -12.4754   19.5780 C   0  0  0  0  0  0  0  0  0  0  0  0
  -28.5881  -13.2646   20.9112 C   0  0  0  0  0  0  0  0  0  0  0  0
  -23.1046  -17.6455   29.1958 C   0  0  1  0  0  0  0  0  0  0  0  0
  -24.1573  -21.2740   28.7977 C   0  0  1  0  0  0  0  0  0  0  0  0
  -27.6305  -13.0783   19.7229 C   0  0  2  0  0  0  0  0  0  0  0  0
  -29.5946  -19.2958   24.7419 C   0  0  0  0  0  0  0  0  0  0  0  0
  -34.1034  -15.6552   25.5433 C   0  0  0  0  0  0  0  0  0  0  0  0
  -24.5637  -27.6807   24.4626 C   0  0  0  0  0  0  0  0  0  0  0  0
  -34.8651  -18.7654   23.2730 C   0  0  0  0  0  0  0  0  0  0  0  0
  -34.7637  -16.3628   22.6723 C   0  0  0  0  0  0  0  0  0  0  0  0
  -23.1535  -21.2114   24.2867 C   0  0  0  0  0  0  0  0  0  0  0  0
  -23.5966  -23.3447   23.0534 C   0  0  0  0  0  0  0  0  0  0  0  0
  -21.6434  -23.1807   24.5963 C   0  0  0  0  0  0  0  0  0  0  0  0
  -31.7403  -17.8409   27.0835 C   0  0  0  0  0  0  0  0  0  0  0  0
  -33.0914  -19.8940   27.4927 C   0  0  0  0  0  0  0  0  0  0  0  0
  -26.1811  -27.1321   27.8624 C   0  0  0  0  0  0  0  0  0  0  0  0
  -32.4889  -19.3178   25.1331 C   0  0  0  0  0  0  0  0  0  0  0  0
  -34.5717  -17.0349   25.0897 C   0  0  0  0  0  0  0  0  0  0  0  0
  -30.6884  -20.1157   26.7672 C   0  0  0  0  0  0  0  0  0  1  0  0
  -23.9776  -23.3007   25.5602 C   0  0  1  0  0  0  0  0  0  0  0  0
  -24.7681  -26.9999   25.8070 C   0  0  2  0  0  0  0  0  0  0  0  0
  -34.1301  -17.4277   23.6273 C   0  0  0  0  0  0  0  0  0  0  0  0
  -23.1120  -22.7490   24.3924 C   0  0  0  0  0  0  0  0  0  0  0  0
  -31.9819  -19.2856   26.6051 C   0  0  0  0  0  0  0  0  0  0  0  0
  -25.8082  -11.5314   20.3293 N   0  0  0  0  0  0  0  0  0  0  0  0
  -26.2084  -12.8051   20.1756 N   0  0  0  0  0  0  0  0  0  0  0  0
  -24.5474  -22.0151   27.5965 N   0  0  0  0  0  0  0  0  0  0  0  0
  -29.9485  -13.5365   20.4212 N   0  0  0  0  0  0  0  0  0  0  0  0
  -25.4755  -15.0502   20.3573 N   0  0  0  0  0  0  0  0  0  0  0  0
  -21.8320  -12.6648   21.5535 N   0  0  0  0  0  0  0  0  0  0  0  0
  -30.0771  -15.6403   21.4794 N   0  0  0  0  0  0  0  0  0  0  0  0
  -23.4325  -19.0418   29.3888 N   0  0  0  0  0  0  0  0  0  0  0  0
  -23.9357  -24.7522   25.7011 N   0  0  0  0  0  0  0  0  0  0  0  0
  -25.8862  -27.6848   26.5154 N   0  3  0  0  0  0  0  0  0  0  0  0
  -22.6474  -14.7841   21.2337 O   0  0  0  0  0  0  0  0  0  0  0  0
  -24.0576  -19.5374   27.2011 O   0  0  0  0  0  0  0  0  0  0  0  0
  -22.4215  -22.9294   27.3115 O   0  0  0  0  0  0  0  0  0  0  0  0
  -26.2162  -25.0970   25.4614 O   0  0  0  0  0  0  0  0  0  0  0  0
  -31.8601  -14.8237   20.2401 O   0  0  0  0  0  0  0  0  0  0  0  0
  -21.4645   -7.1111   21.7929 O   0  0  0  0  0  0  0  0  0  0  0  0
  -30.5126  -20.5338   28.1202 O   0  0  0  0  0  0  0  0  0  1  0  0
  -23.7846   -3.0895   24.7674 F   0  0  0  0  0  0  0  0  0  0  0  0
  -20.3676   -6.3160   24.2027 F   0  0  0  0  0  0  0  0  0  0  0  0
  1  2  1  0  0  0  0
  1  5  2  0  0  0  0
  2  6  2  0  0  0  0
  3  8  2  0  0  0  0
  3 17  1  0  0  0  0
  4  9  1  0  0  0  0
  4 17  2  0  0  0  0
  5 19  1  0  0  0  0
  6 21  1  0  0  0  0
  7 10  2  0  0  0  0
  7 20  1  0  0  0  0
  8 27  1  0  0  0  0
  9 27  2  0  0  0  0
 10 28  1  0  0  0  0
 11 12  2  0  0  0  0
 11 29  1  0  0  0  0
 12 30  1  0  0  0  0
 13 22  1  0  0  0  0
 13 28  2  0  0  0  0
 14 23  2  0  0  0  0
 14 26  1  0  0  0  0
 15 24  1  0  0  0  0
 15 26  2  0  0  0  0
 16 30  2  0  0  0  0
 16 31  1  0  0  0  0
 17 32  1  0  0  0  0
 18 32  1  0  0  0  0
 18 33  2  0  0  0  0
 18 34  1  0  0  0  0
 19 21  2  0  0  0  0
 19 39  1  0  0  0  0
 20 22  2  0  0  0  0
 20 40  1  0  0  0  0
 21 48  1  0  0  0  0
 22 41  1  0  0  0  0
 23 25  1  0  0  0  0
 23 51  1  0  0  0  0
 24 25  2  0  0  0  0
 24 67  1  0  0  0  0
 25 62  1  0  0  0  0
 26 76  1  0  0  0  0
 27 85  1  0  0  0  0
 28 86  1  0  0  0  0
 29 31  2  0  0  0  0
 29 85  1  0  0  0  0
 30 87  1  0  0  0  0
 31 88  1  0  0  0  0
 32 70  2  0  0  0  0
 33 71  1  0  0  0  0
 33 74  1  0  0  0  0
 34 75  1  0  0  0  0
 34 80  2  0  0  0  0
 35 49  1  0  0  0  0
 35 77  1  0  0  0  0
 35 81  2  0  0  0  0
 36 65  1  0  0  0  0
 36 72  1  0  0  0  0
 36 82  2  0  0  0  0
 37 66  1  0  0  0  0
 37 78  1  0  0  0  0
 37 83  2  0  0  0  0
 38 73  1  0  0  0  0
 38 76  1  0  0  0  0
 38 84  2  0  0  0  0
 39 42  1  0  0  0  0
 40 49  1  0  0  0  0
 41 72  1  0  0  0  0
 42 44  1  0  0  0  0
 43 45  1  0  0  0  0
 43 46  1  0  0  0  0
 44 48  1  0  0  0  0
 45 50  1  0  0  0  0
 46 73  1  0  0  0  0
 47 50  1  0  0  0  0
 47 73  1  0  0  0  0
 48 77  1  0  0  0  0
 49 72  1  0  0  0  0
 50 71  1  0  0  0  0
 52 63  1  0  0  0  0
 53 66  1  0  0  0  0
 54 67  1  0  0  0  0
 55 67  1  0  0  0  0
 56 68  1  0  0  0  0
 57 68  1  0  0  0  0
 58 68  1  0  0  0  0
 59 69  1  0  0  0  0
 60 69  1  0  0  0  0
 61 79  1  0  0  0  0
 62 69  1  0  0  0  0
 63 67  1  0  0  0  0
 64 69  1  0  0  0  0
 64 86  1  0  0  0  0
 65 68  1  0  0  0  0
 65 78  1  0  0  0  0
 66 79  1  0  0  0  0
 70 71  1  0  0  0  0
M  CHG  1  79   1
M  ISO  4  38 100  64 101  76 100  86 101
M  END
> <Batch ID>
0138

> <Smiles>
CCC(C)(C)c1cc([100NH:0][100C:0](=O)N2CCCC(n3nc(-c4ccc(Oc5ccc(F)cc5F)cc4)c(C(N)=O)c3N)C2)cc(C)c1CC(C)(C)[101CH2:1][101O:1]c1ccc2c(c1)CN(C(=O)C(NC(=O)C(C)NC)C(C)(C)C)C(C(=O)NC1CCCc3ccccc31)C2

> <Shape>
0.170

> <Color>
0.193

> <Negative vol penalty>
0.000

$$$$

  -OEChem-04052302453D

 84 92  0     1  0  0  0  0  0999 V2000
  -22.5136  -23.5085   22.4355 C   0  0  0  0  0  0  0  0  0  0  0  0
  -23.6667  -22.7441   22.5820 C   0  0  0  0  0  0  0  0  0  0  0  0
  -32.2119  -17.9130   16.1924 C   0  0  0  0  0  0  0  0  0  0  0  0
  -26.9019  -28.9816   19.5640 C   0  0  0  0  0  0  0  0  0  0  0  0
  -25.8826  -26.8988   20.2423 C   0  0  0  0  0  0  0  0  0  0  0  0
  -21.2616  -22.9191   22.6059 C   0  0  0  0  0  0  0  0  0  0  0  0
  -23.5684  -21.3900   22.9001 C   0  0  0  0  0  0  0  0  0  0  0  0
  -26.6581  -18.5092   20.1073 C   0  0  0  0  0  0  0  0  0  0  0  0
  -32.6445  -17.5668   17.4725 C   0  0  0  0  0  0  0  0  0  0  0  0
  -31.8283  -19.2256   15.9171 C   0  0  0  0  0  0  0  0  0  0  0  0
  -25.7523  -29.6702   19.9510 C   0  0  0  0  0  0  0  0  0  0  0  0
  -24.7330  -27.5875   20.6294 C   0  0  0  0  0  0  0  0  0  0  0  0
  -28.0054  -18.4881   20.4651 C   0  0  0  0  0  0  0  0  0  0  0  0
  -23.2239  -32.0183   21.0951 C   0  0  0  0  0  0  0  0  0  0  0  0
  -23.3878  -33.1919   21.8308 C   0  0  0  0  0  0  0  0  0  0  0  0
  -27.6666  -16.3831   21.5935 C   0  0  0  0  0  0  0  0  0  0  0  0
  -24.5216  -31.9474   23.5636 C   0  0  0  0  0  0  0  0  0  0  0  0
  -26.9670  -27.5958   19.7096 C   0  0  0  0  0  0  0  0  0  0  0  0
  -29.2787  -26.5920   20.1043 C   0  0  0  0  0  0  0  0  0  0  0  0
  -21.1477  -21.5549   22.9168 C   0  0  0  0  0  0  0  0  0  0  0  0
  -25.8010  -17.4710   20.5000 C   0  0  0  0  0  0  0  0  0  0  0  0
  -22.3138  -20.7821   23.0762 C   0  0  0  0  0  0  0  0  0  0  0  0
  -26.3093  -16.3921   21.2373 C   0  0  0  0  0  0  0  0  0  0  0  0
  -32.6933  -18.5330   18.4773 C   0  0  0  0  0  0  0  0  0  0  0  0
  -32.3096  -19.8455   18.2020 C   0  0  0  0  0  0  0  0  0  0  0  0
  -31.8771  -20.1918   16.9219 C   0  0  0  0  0  0  0  0  0  0  0  0
  -24.6678  -28.9732   20.4837 C   0  0  0  0  0  0  0  0  0  0  0  0
  -28.5092  -17.4264   21.2108 C   0  0  0  0  0  0  0  0  0  0  0  0
  -23.7088  -30.8091   21.5936 C   0  0  0  0  0  0  0  0  0  0  0  0
  -24.0367  -33.1565   23.0650 C   0  0  0  0  0  0  0  0  0  0  0  0
  -24.3577  -30.7737   22.8278 C   0  0  0  0  0  0  0  0  0  0  0  0
  -28.1540  -26.8838   19.3095 C   0  0  0  0  0  0  0  0  0  0  0  0
  -30.1226  -25.9050   19.2661 C   0  0  0  0  0  0  0  0  0  0  0  0
  -29.5376  -26.9131   21.4774 C   0  0  0  0  0  0  0  0  0  0  0  0
  -23.1959  -17.2766   22.3108 C   0  0  0  0  0  0  0  0  0  0  0  0
  -23.1706  -14.2066   21.2632 C   0  0  0  0  0  0  0  0  0  0  0  0
  -24.9216  -11.5574   20.0132 C   0  0  0  0  0  0  0  0  0  0  0  0
  -31.0328  -22.0084   15.3943 C   0  0  0  0  0  0  0  0  0  0  0  0
  -19.7739  -20.9730   23.1380 C   0  0  0  0  0  0  0  0  0  0  0  0
  -24.3560  -17.4953   20.0832 C   0  0  0  0  0  0  0  0  0  0  0  0
  -25.4354  -15.2429   21.6663 C   0  0  0  0  0  0  0  0  0  0  0  0
  -19.7464  -19.4471   23.1053 C   0  0  0  0  0  0  0  0  0  0  0  0
  -29.9336  -25.1984   14.2574 C   0  0  0  0  0  0  0  0  0  0  0  0
  -20.8825  -18.8745   23.9469 C   0  0  0  0  0  0  0  0  0  0  0  0
  -29.4652  -25.8973   15.5358 C   0  0  0  0  0  0  0  0  0  0  0  0
  -29.6058  -23.7064   14.2739 C   0  0  0  0  0  0  0  0  0  0  0  0
  -29.6108  -23.6787   16.7373 C   0  0  0  0  0  0  0  0  0  0  0  0
  -22.2476  -19.3046   23.3965 C   0  0  1  0  0  0  0  0  0  0  0  0
  -23.4622  -16.6402   20.9760 C   0  0  1  0  0  0  0  0  0  0  0  0
  -29.9769  -25.1708   16.7951 C   0  0  2  0  0  0  0  0  0  0  0  0
  -33.5710  -21.7988   19.1401 C   0  0  0  0  0  0  0  0  0  0  0  0
  -24.6356   -9.1706   19.2930 C   0  0  0  0  0  0  0  0  0  0  0  0
  -23.0471  -13.3418   24.1867 C   0  0  0  0  0  0  0  0  0  0  0  0
  -23.7158  -11.0406   23.4618 C   0  0  0  0  0  0  0  0  0  0  0  0
  -21.5755  -12.0302   22.6478 C   0  0  0  0  0  0  0  0  0  0  0  0
  -32.0463  -15.8945   20.3947 C   0  0  0  0  0  0  0  0  0  0  0  0
  -32.6572  -17.4799   22.2172 C   0  0  0  0  0  0  0  0  0  0  0  0
  -25.7820  -12.1673   17.2479 C   0  0  0  0  0  0  0  0  0  0  0  0
  -33.1658  -18.1308   19.8549 C   0  0  0  0  0  0  0  0  0  0  0  0
  -32.3638  -20.8788   19.2834 C   0  0  0  0  0  0  0  0  0  0  0  0
  -30.7437  -18.0405   20.6762 C   0  0  0  0  0  0  0  0  0  1  0  0
  -23.7686  -12.9073   21.7461 C   0  0  1  0  0  0  0  0  0  0  0  0
  -24.6424  -10.6249   18.8484 C   0  0  2  0  0  0  0  0  0  0  0  0
  -23.0431  -12.3524   23.0043 C   0  0  0  0  0  0  0  0  0  0  0  0
  -32.1419  -17.3877   20.7629 C   0  0  0  0  0  0  0  0  0  0  0  0
  -28.2698  -26.4203   18.0622 N   0  0  0  0  0  0  0  0  0  0  0  0
  -29.4773  -25.8304   18.0668 N   0  0  0  0  0  0  0  0  0  0  0  0
  -24.0282  -15.3157   21.2397 N   0  0  0  0  0  0  0  0  0  0  0  0
  -30.1250  -23.0840   15.4937 N   0  0  0  0  0  0  0  0  0  0  0  0
  -31.3462  -25.3637   19.4452 N   0  0  0  0  0  0  0  0  0  0  0  0
  -28.5637  -27.6234   22.1925 N   0  0  0  0  0  0  0  0  0  0  0  0
  -31.4833  -21.5190   16.6199 N   0  0  0  0  0  0  0  0  0  0  0  0
  -22.5938  -18.5178   22.2322 N   0  0  0  0  0  0  0  0  0  0  0  0
  -23.7568  -12.0024   20.6018 N   0  0  0  0  0  0  0  0  0  0  0  0
  -25.6817  -10.7889   17.7930 N   0  3  0  0  0  0  0  0  0  0  0  0
  -30.6079  -26.5942   22.0486 O   0  0  0  0  0  0  0  0  0  0  0  0
  -23.5119  -16.6846   23.3362 O   0  0  0  0  0  0  0  0  0  0  0  0
  -21.9882  -14.2349   20.9129 O   0  0  0  0  0  0  0  0  0  0  0  0
  -26.0593  -11.8579   20.3680 O   0  0  0  0  0  0  0  0  0  0  0  0
  -31.4055  -21.5726   14.3020 O   0  0  0  0  0  0  0  0  0  0  0  0
  -23.5460  -29.6449   20.8616 O   0  0  0  0  0  0  0  0  0  0  0  0
  -29.8238  -17.4036   21.5619 O   0  0  0  0  0  0  0  0  0  1  0  0
  -24.1953  -34.2839   23.7707 F   0  0  0  0  0  0  0  0  0  0  0  0
  -24.8267  -29.6153   23.3114 F   0  0  0  0  0  0  0  0  0  0  0  0
  1  2  1  0  0  0  0
  1  6  2  0  0  0  0
  2  7  2  0  0  0  0
  3  9  1  0  0  0  0
  3 10  2  0  0  0  0
  4 11  2  0  0  0  0
  4 18  1  0  0  0  0
  5 12  1  0  0  0  0
  5 18  2  0  0  0  0
  6 20  1  0  0  0  0
  7 22  1  0  0  0  0
  8 13  2  0  0  0  0
  8 21  1  0  0  0  0
  9 24  2  0  0  0  0
 10 26  1  0  0  0  0
 11 27  1  0  0  0  0
 12 27  2  0  0  0  0
 13 28  1  0  0  0  0
 14 15  2  0  0  0  0
 14 29  1  0  0  0  0
 15 30  1  0  0  0  0
 16 23  1  0  0  0  0
 16 28  2  0  0  0  0
 17 30  2  0  0  0  0
 17 31  1  0  0  0  0
 18 32  1  0  0  0  0
 19 32  1  0  0  0  0
 19 33  2  0  0  0  0
 19 34  1  0  0  0  0
 20 22  2  0  0  0  0
 20 39  1  0  0  0  0
 21 23  2  0  0  0  0
 21 40  1  0  0  0  0
 22 48  1  0  0  0  0
 23 41  1  0  0  0  0
 24 25  1  0  0  0  0
 24 59  1  0  0  0  0
 25 26  2  0  0  0  0
 25 60  1  0  0  0  0
 26 72  1  0  0  0  0
 27 81  1  0  0  0  0
 28 82  1  0  0  0  0
 29 31  2  0  0  0  0
 29 81  1  0  0  0  0
 30 83  1  0  0  0  0
 31 84  1  0  0  0  0
 32 66  2  0  0  0  0
 33 67  1  0  0  0  0
 33 70  1  0  0  0  0
 34 71  1  0  0  0  0
 34 76  2  0  0  0  0
 35 49  1  0  0  0  0
 35 73  1  0  0  0  0
 35 77  2  0  0  0  0
 36 62  1  0  0  0  0
 36 68  1  0  0  0  0
 36 78  2  0  0  0  0
 37 63  1  0  0  0  0
 37 74  1  0  0  0  0
 37 79  2  0  0  0  0
 38 69  1  0  0  0  0
 38 72  1  0  0  0  0
 38 80  2  0  0  0  0
 39 42  1  0  0  0  0
 40 49  1  0  0  0  0
 41 68  1  0  0  0  0
 42 44  1  0  0  0  0
 43 45  1  0  0  0  0
 43 46  1  0  0  0  0
 44 48  1  0  0  0  0
 45 50  1  0  0  0  0
 46 69  1  0  0  0  0
 47 50  1  0  0  0  0
 47 69  1  0  0  0  0
 48 73  1  0  0  0  0
 49 68  1  0  0  0  0
 50 67  1  0  0  0  0
 51 60  1  0  0  0  0
 52 63  1  0  0  0  0
 53 64  1  0  0  0  0
 54 64  1  0  0  0  0
 55 64  1  0  0  0  0
 56 65  1  0  0  0  0
 57 65  1  0  0  0  0
 58 75  1  0  0  0  0
 59 65  1  0  0  0  0
 61 65  1  0  0  0  0
 61 82  1  0  0  0  0
 62 64  1  0  0  0  0
 62 74  1  0  0  0  0
 63 75  1  0  0  0  0
 66 67  1  0  0  0  0
M  CHG  1  75   1
M  ISO  4  38 100  61 101  72 100  82 101
M  END
> <Batch ID>
0138

> <Smiles>
CCc1c(CC(C)(C)[101CH2:1][101O:1]c2ccc3c(c2)CN(C(=O)C(NC(=O)C(C)NC)C(C)(C)C)C(C(=O)NC2CCCc4ccccc42)C3)cccc1[100NH:0][100C:0](=O)N1CCCC(n2nc(-c3ccc(Oc4ccc(F)cc4F)cc3)c(C(N)=O)c2N)C1

> <Shape>
0.194

> <Color>
0.064

> <Negative vol penalty>
0.000

$$$$

  -OEChem-04052302453D

 83 91  0     1  0  0  0  0  0999 V2000
  -25.3856  -21.0735   14.5973 C   0  0  0  0  0  0  0  0  0  0  0  0
  -26.1637  -20.4922   15.5934 C   0  0  0  0  0  0  0  0  0  0  0  0
  -25.9570  -31.1522   22.6207 C   0  0  0  0  0  0  0  0  0  0  0  0
  -25.7316  -31.9308   20.3447 C   0  0  0  0  0  0  0  0  0  0  0  0
  -24.0022  -21.1521   14.7518 C   0  0  0  0  0  0  0  0  0  0  0  0
  -25.5588  -19.9901   16.7450 C   0  0  0  0  0  0  0  0  0  0  0  0
  -27.3603  -15.4440   18.0614 C   0  0  0  0  0  0  0  0  0  0  0  0
  -26.2081  -32.4578   23.0425 C   0  0  0  0  0  0  0  0  0  0  0  0
  -25.9826  -33.2365   20.7665 C   0  0  0  0  0  0  0  0  0  0  0  0
  -28.5965  -15.4110   18.7051 C   0  0  0  0  0  0  0  0  0  0  0  0
  -24.4191  -35.2508   23.6995 C   0  0  0  0  0  0  0  0  0  0  0  0
  -23.7604  -35.7002   24.8440 C   0  0  0  0  0  0  0  0  0  0  0  0
  -27.4776  -15.1721   20.8288 C   0  0  0  0  0  0  0  0  0  0  0  0
  -28.7415  -20.9193   20.4296 C   0  0  0  0  0  0  0  0  0  0  0  0
  -25.8899  -36.0882   25.9172 C   0  0  0  0  0  0  0  0  0  0  0  0
  -27.0268  -19.8118   21.3292 C   0  0  0  0  0  0  0  0  0  0  0  0
  -25.7188  -30.8887   21.2718 C   0  0  0  0  0  0  0  0  0  0  0  0
  -24.4080  -28.7004   21.2476 C   0  0  0  0  0  0  0  0  0  0  0  0
  -23.3791  -20.6420   15.9016 C   0  0  0  0  0  0  0  0  0  0  0  0
  -26.1711  -15.3521   18.7989 C   0  0  0  0  0  0  0  0  0  0  0  0
  -24.1658  -20.0631   16.9156 C   0  0  0  0  0  0  0  0  0  0  0  0
  -26.2276  -15.2016   20.1919 C   0  0  0  0  0  0  0  0  0  0  0  0
  -28.3916  -19.7623   21.1657 C   0  0  0  0  0  0  0  0  0  0  0  0
  -26.2209  -33.5000   22.1154 C   0  0  0  0  0  0  0  0  0  0  0  0
  -28.6553  -15.2780   20.0892 C   0  0  0  0  0  0  0  0  0  0  0  0
  -25.8132  -35.2199   23.6639 C   0  0  0  0  0  0  0  0  0  0  0  0
  -24.4958  -36.1190   25.9528 C   0  0  0  0  0  0  0  0  0  0  0  0
  -26.5486  -35.6386   24.7727 C   0  0  0  0  0  0  0  0  0  0  0  0
  -25.4600  -29.5401   20.8354 C   0  0  0  0  0  0  0  0  0  0  0  0
  -24.6045  -27.5350   20.5477 C   0  0  0  0  0  0  0  0  0  0  0  0
  -27.5655  -21.5933   20.1955 C   0  0  0  0  0  0  0  0  0  0  0  0
  -23.3479  -28.9513   22.1798 C   0  0  0  0  0  0  0  0  0  0  0  0
  -23.6677  -17.2546   19.2645 C   0  0  0  0  0  0  0  0  0  0  0  0
  -22.4963  -14.6771   20.8477 C   0  0  0  0  0  0  0  0  0  0  0  0
  -30.6291  -18.6575   21.5054 C   0  0  0  0  0  0  0  0  0  0  0  0
  -23.1305  -11.7812   22.5384 C   0  0  0  0  0  0  0  0  0  0  0  0
  -28.3288  -23.5813   18.9069 C   0  0  0  0  0  0  0  0  0  0  0  0
  -21.8852  -20.7923   16.0450 C   0  0  0  0  0  0  0  0  0  0  0  0
  -24.8462  -15.3624   18.0870 C   0  0  0  0  0  0  0  0  0  0  0  0
  -24.9806  -15.0787   21.0274 C   0  0  0  0  0  0  0  0  0  0  0  0
  -21.2843  -19.8994   17.1275 C   0  0  0  0  0  0  0  0  0  0  0  0
  -27.6923  -26.4669   16.6982 C   0  0  0  0  0  0  0  0  0  0  0  0
  -22.1122  -19.9797   18.4061 C   0  0  0  0  0  0  0  0  0  0  0  0
  -27.0285  -27.4737   17.6362 C   0  0  0  0  0  0  0  0  0  0  0  0
  -28.6600  -25.5516   17.4424 C   0  0  0  0  0  0  0  0  0  0  0  0
  -27.3814  -25.8515   19.5413 C   0  0  0  0  0  0  0  0  0  0  0  0
  -23.5440  -19.4848   18.1683 C   0  0  1  0  0  0  0  0  0  0  0  0
  -23.6871  -15.7779   18.9877 C   0  0  1  0  0  0  0  0  0  0  0  0
  -26.3682  -26.7601   18.8286 C   0  0  1  0  0  0  0  0  0  0  0  0
  -22.6459   -9.6230   23.7236 C   0  0  0  0  0  0  0  0  0  0  0  0
  -22.0272  -16.5151   23.2376 C   0  0  0  0  0  0  0  0  0  0  0  0
  -21.7853  -14.4759   24.6698 C   0  0  0  0  0  0  0  0  0  0  0  0
  -20.1845  -14.8818   22.8002 C   0  0  0  0  0  0  0  0  0  0  0  0
  -25.8971  -23.1720   19.2051 C   0  0  0  0  0  0  0  0  0  0  0  0
  -23.1783  -10.2467   20.0082 C   0  0  0  0  0  0  0  0  0  0  0  0
  -31.1579  -17.3983   22.1780 C   0  0  0  0  0  0  0  0  0  0  0  0
  -31.8693  -16.4662   21.2034 C   0  0  0  0  0  0  0  0  0  0  0  0
  -30.9306  -15.9698   20.1134 C   0  0  0  0  0  0  0  0  0  1  0  0
  -22.5551  -14.1796   22.2718 C   0  0  1  0  0  0  0  0  0  0  0  0
  -22.5314  -10.3917   22.4164 C   0  0  2  0  0  0  0  0  0  0  0  0
  -21.6617  -15.0174   23.2296 C   0  0  0  0  0  0  0  0  0  0  0  0
  -26.2651  -28.9578   19.9428 N   0  0  0  0  0  0  0  0  0  0  0  0
  -25.7189  -27.7396   19.7886 N   0  0  0  0  0  0  0  0  0  0  0  0
  -23.7090  -15.1005   20.2857 N   0  0  0  0  0  0  0  0  0  0  0  0
  -28.0201  -24.9212   18.5976 N   0  0  0  0  0  0  0  0  0  0  0  0
  -23.9309  -26.3656   20.5137 N   0  0  0  0  0  0  0  0  0  0  0  0
  -22.1510  -29.4994   21.6989 N   0  0  0  0  0  0  0  0  0  0  0  0
  -29.2472  -18.7440   21.6492 N   0  0  0  0  0  0  0  0  0  0  0  0
  -23.5791  -18.0386   18.1300 N   0  0  0  0  0  0  0  0  0  0  0  0
  -22.2139  -12.7620   22.2234 N   0  0  0  0  0  0  0  0  0  0  0  0
  -27.2921  -22.8289   19.5003 N   0  0  0  0  0  0  0  0  0  0  0  0
  -23.2316   -9.6174   21.3529 N   0  3  0  0  0  0  0  0  0  0  0  0
  -23.4648  -28.7122   23.4057 O   0  0  0  0  0  0  0  0  0  0  0  0
  -23.7270  -17.6533   20.4218 O   0  0  0  0  0  0  0  0  0  0  0  0
  -21.4153  -14.6830   20.2534 O   0  0  0  0  0  0  0  0  0  0  0  0
  -31.3695  -19.4487   20.9308 O   0  0  0  0  0  0  0  0  0  0  0  0
  -24.2939  -11.9771   22.8826 O   0  0  0  0  0  0  0  0  0  0  0  0
  -29.4331  -23.0892   18.6459 O   0  0  0  0  0  0  0  0  0  0  0  0
  -26.5155  -20.9247   20.7406 O   0  0  0  0  0  0  0  0  0  0  0  0
  -26.4656  -34.7742   22.5267 O   0  0  0  0  0  0  0  0  0  0  0  0
  -29.8607  -15.2462   20.7201 O   0  0  0  0  0  0  0  0  0  1  0  0
  -23.8632  -36.5520   27.0512 F   0  0  0  0  0  0  0  0  0  0  0  0
  -27.8881  -35.6124   24.7440 F   0  0  0  0  0  0  0  0  0  0  0  0
  1  2  1  0  0  0  0
  1  5  2  0  0  0  0
  2  6  2  0  0  0  0
  3  8  2  0  0  0  0
  3 17  1  0  0  0  0
  4  9  1  0  0  0  0
  4 17  2  0  0  0  0
  5 19  1  0  0  0  0
  6 21  1  0  0  0  0
  7 10  2  0  0  0  0
  7 20  1  0  0  0  0
  8 24  1  0  0  0  0
  9 24  2  0  0  0  0
 10 25  1  0  0  0  0
 11 12  2  0  0  0  0
 11 26  1  0  0  0  0
 12 27  1  0  0  0  0
 13 22  1  0  0  0  0
 13 25  2  0  0  0  0
 14 23  1  0  0  0  0
 14 31  2  0  0  0  0
 15 27  2  0  0  0  0
 15 28  1  0  0  0  0
 16 23  2  0  0  0  0
 16 79  1  0  0  0  0
 17 29  1  0  0  0  0
 18 29  1  0  0  0  0
 18 30  2  0  0  0  0
 18 32  1  0  0  0  0
 19 21  2  0  0  0  0
 19 38  1  0  0  0  0
 20 22  2  0  0  0  0
 20 39  1  0  0  0  0
 21 47  1  0  0  0  0
 22 40  1  0  0  0  0
 23 68  1  0  0  0  0
 24 80  1  0  0  0  0
 25 81  1  0  0  0  0
 26 28  2  0  0  0  0
 26 80  1  0  0  0  0
 27 82  1  0  0  0  0
 28 83  1  0  0  0  0
 29 62  2  0  0  0  0
 30 63  1  0  0  0  0
 30 66  1  0  0  0  0
 31 71  1  0  0  0  0
 31 79  1  0  0  0  0
 32 67  1  0  0  0  0
 32 73  2  0  0  0  0
 33 48  1  0  0  0  0
 33 69  1  0  0  0  0
 33 74  2  0  0  0  0
 34 59  1  0  0  0  0
 34 64  1  0  0  0  0
 34 75  2  0  0  0  0
 35 56  1  0  0  0  0
 35 68  1  0  0  0  0
 35 76  2  0  0  0  0
 36 60  1  0  0  0  0
 36 70  1  0  0  0  0
 36 77  2  0  0  0  0
 37 65  1  0  0  0  0
 37 71  1  0  0  0  0
 37 78  2  0  0  0  0
 38 41  1  0  0  0  0
 39 48  1  0  0  0  0
 40 64  1  0  0  0  0
 41 43  1  0  0  0  0
 42 44  1  0  0  0  0
 42 45  1  0  0  0  0
 43 47  1  0  0  0  0
 44 49  1  0  0  0  0
 45 65  1  0  0  0  0
 46 49  1  0  0  0  0
 46 65  1  0  0  0  0
 47 69  1  0  0  0  0
 48 64  1  0  0  0  0
 49 63  1  0  0  0  0
 50 60  1  0  0  0  0
 51 61  1  0  0  0  0
 52 61  1  0  0  0  0
 53 61  1  0  0  0  0
 54 71  1  0  0  0  0
 55 72  1  0  0  0  0
 56 57  1  0  0  0  0
 57 58  1  0  0  0  0
 58 81  1  0  0  0  0
 59 61  1  0  0  0  0
 59 70  1  0  0  0  0
 60 72  1  0  0  0  0
 62 63  1  0  0  0  0
M  CHG  1  72   1
M  ISO  4  37 100  58 101  71 100  81 101
M  END
> <Batch ID>
0138

> <Smiles>
CNC(C)C(=O)NC(C(=O)N1Cc2cc([101O:1][101CH2:1]CCC(=O)Nc3coc([100N:0](C)[100C:0](=O)N4CCCC(n5nc(-c6ccc(Oc7ccc(F)cc7F)cc6)c(C(N)=O)c5N)C4)c3)ccc2CC1C(=O)NC1CCCc2ccccc21)C(C)(C)C

> <Shape>
0.235

> <Color>
0.095

> <Negative vol penalty>
0.000

$$$$

  -OEChem-04052302453D

 84 92  0     1  0  0  0  0  0999 V2000
  -20.7207  -33.9255   15.3727 C   0  0  0  0  0  0  0  0  0  0  0  0
  -21.5434  -32.8087   15.4789 C   0  0  0  0  0  0  0  0  0  0  0  0
  -22.9241  -11.6112   21.5097 C   0  0  0  0  0  0  0  0  0  0  0  0
  -22.9174  -14.0074   21.2018 C   0  0  0  0  0  0  0  0  0  0  0  0
  -20.9309  -35.0262   16.2022 C   0  0  0  0  0  0  0  0  0  0  0  0
  -22.5777  -32.7925   16.4141 C   0  0  0  0  0  0  0  0  0  0  0  0
  -24.6178  -27.9523   19.5632 C   0  0  0  0  0  0  0  0  0  0  0  0
  -21.9054  -11.7298   22.4550 C   0  0  0  0  0  0  0  0  0  0  0  0
  -21.8986  -14.1261   22.1471 C   0  0  0  0  0  0  0  0  0  0  0  0
  -25.7035  -27.0988   19.3720 C   0  0  0  0  0  0  0  0  0  0  0  0
  -18.5506  -13.6829   22.2674 C   0  0  0  0  0  0  0  0  0  0  0  0
  -17.4786  -14.5210   21.9609 C   0  0  0  0  0  0  0  0  0  0  0  0
  -27.0065  -28.4211   20.9125 C   0  0  0  0  0  0  0  0  0  0  0  0
  -31.4583  -19.6095   20.9096 C   0  0  0  0  0  0  0  0  0  0  0  0
  -31.8236  -17.2224   20.8402 C   0  0  0  0  0  0  0  0  0  0  0  0
  -29.7931  -18.1607   19.9271 C   0  0  0  0  0  0  0  0  0  0  0  0
  -17.9733  -15.8652   23.9066 C   0  0  0  0  0  0  0  0  0  0  0  0
  -23.4302  -12.7500   20.8831 C   0  0  0  0  0  0  0  0  0  0  0  0
  -24.3379  -12.4495   18.5181 C   0  0  0  0  0  0  0  0  0  0  0  0
  -21.9621  -35.0196   17.1547 C   0  0  0  0  0  0  0  0  0  0  0  0
  -24.7219  -29.0548   20.4235 C   0  0  0  0  0  0  0  0  0  0  0  0
  -22.8027  -33.8947   17.2563 C   0  0  0  0  0  0  0  0  0  0  0  0
  -25.9198  -29.2856   21.1148 C   0  0  0  0  0  0  0  0  0  0  0  0
  -32.2569  -18.5010   21.1908 C   0  0  0  0  0  0  0  0  0  0  0  0
  -30.2264  -19.4394   20.2778 C   0  0  0  0  0  0  0  0  0  0  0  0
  -30.5917  -17.0522   20.2083 C   0  0  0  0  0  0  0  0  0  0  0  0
  -21.3926  -12.9872   22.7737 C   0  0  0  0  0  0  0  0  0  0  0  0
  -26.8990  -27.3347   20.0445 C   0  0  0  0  0  0  0  0  0  0  0  0
  -19.3339  -13.9359   23.3935 C   0  0  0  0  0  0  0  0  0  0  0  0
  -17.1899  -15.6122   22.7805 C   0  0  0  0  0  0  0  0  0  0  0  0
  -19.0453  -15.0270   24.2131 C   0  0  0  0  0  0  0  0  0  0  0  0
  -24.4829  -12.6282   19.9069 C   0  0  0  0  0  0  0  0  0  0  0  0
  -25.6253  -12.3929   18.0429 C   0  0  0  0  0  0  0  0  0  0  0  0
  -23.1460  -12.3443   17.7281 C   0  0  0  0  0  0  0  0  0  0  0  0
  -24.5042  -32.2059   20.0680 C   0  0  0  0  0  0  0  0  0  0  0  0
  -24.7490  -32.1961   23.3025 C   0  0  0  0  0  0  0  0  0  0  0  0
  -29.6916  -21.9004   20.2709 C   0  0  0  0  0  0  0  0  0  0  0  0
  -25.7908  -30.5840   26.1243 C   0  0  0  0  0  0  0  0  0  0  0  0
  -30.8202  -14.5477   20.0615 C   0  0  0  0  0  0  0  0  0  0  0  0
  -22.1804  -36.2516   17.9968 C   0  0  0  0  0  0  0  0  0  0  0  0
  -23.5331  -29.9506   20.6393 C   0  0  0  0  0  0  0  0  0  0  0  0
  -26.0766  -30.4436   22.0650 C   0  0  0  0  0  0  0  0  0  0  0  0
  -23.0626  -36.0061   19.2182 C   0  0  0  0  0  0  0  0  0  0  0  0
  -30.0540  -11.1407   19.3669 C   0  0  0  0  0  0  0  0  0  0  0  0
  -24.3024  -35.2071   18.8292 C   0  0  0  0  0  0  0  0  0  0  0  0
  -28.5255  -11.1204   19.2941 C   0  0  0  0  0  0  0  0  0  0  0  0
  -30.5580  -12.1056   20.4387 C   0  0  0  0  0  0  0  0  0  0  0  0
  -28.5022  -13.4524   20.2681 C   0  0  0  0  0  0  0  0  0  0  0  0
  -23.9195  -33.8294   18.2754 C   0  0  1  0  0  0  0  0  0  0  0  0
  -23.9148  -31.3387   21.1442 C   0  0  1  0  0  0  0  0  0  0  0  0
  -27.9488  -12.5433   19.1585 C   0  0  2  0  0  0  0  0  0  0  0  0
  -33.5735  -18.6833   21.8677 C   0  0  0  0  0  0  0  0  0  0  0  0
  -25.8867  -30.8418   28.6187 C   0  0  0  0  0  0  0  0  0  0  0  0
  -27.0668  -34.1585   23.0081 C   0  0  0  0  0  0  0  0  0  0  0  0
  -27.7126  -33.6423   25.3713 C   0  0  0  0  0  0  0  0  0  0  0  0
  -25.4947  -34.6746   24.8834 C   0  0  0  0  0  0  0  0  0  0  0  0
  -24.1202  -28.1790   26.5535 C   0  0  0  0  0  0  0  0  0  0  0  0
  -28.5510  -22.7901   19.7963 C   0  0  0  0  0  0  0  0  0  0  0  0
  -28.8025  -24.2675   20.0774 C   0  0  0  0  0  0  0  0  0  0  0  0
  -27.6720  -25.1402   19.5521 C   0  0  0  0  0  0  0  0  0  1  0  0
  -25.8909  -32.2495   24.2884 C   0  0  1  0  0  0  0  0  0  0  0  0
  -25.0894  -30.3031   27.4410 C   0  0  2  0  0  0  0  0  0  0  0  0
  -26.5393  -33.6604   24.3685 C   0  0  0  0  0  0  0  0  0  0  0  0
  -25.7616  -12.6813   20.2892 N   0  0  0  0  0  0  0  0  0  0  0  0
  -26.4318  -12.5352   19.1335 N   0  0  0  0  0  0  0  0  0  0  0  0
  -24.8877  -31.2947   22.2377 N   0  0  0  0  0  0  0  0  0  0  0  0
  -29.9733  -13.4341   20.2441 N   0  0  0  0  0  0  0  0  0  0  0  0
  -26.1349  -12.2357   16.8027 N   0  0  0  0  0  0  0  0  0  0  0  0
  -21.9058  -12.4233   18.3762 N   0  0  0  0  0  0  0  0  0  0  0  0
  -29.4165  -20.5644   19.9929 N   0  0  0  0  0  0  0  0  0  0  0  0
  -30.1509  -15.7532   19.8533 N   0  0  0  0  0  0  0  0  0  0  0  0
  -23.5689  -32.9306   19.3541 N   0  0  0  0  0  0  0  0  0  0  0  0
  -25.3582  -31.7639   25.5568 N   0  0  0  0  0  0  0  0  0  0  0  0
  -24.9078  -28.8358   27.6284 N   0  3  0  0  0  0  0  0  0  0  0  0
  -23.1798  -12.1684   16.4866 O   0  0  0  0  0  0  0  0  0  0  0  0
  -25.7179  -32.2180   19.8988 O   0  0  0  0  0  0  0  0  0  0  0  0
  -23.7667  -32.9222   23.4750 O   0  0  0  0  0  0  0  0  0  0  0  0
  -30.6901  -22.3575   20.8171 O   0  0  0  0  0  0  0  0  0  0  0  0
  -26.6403  -29.8338   25.6488 O   0  0  0  0  0  0  0  0  0  0  0  0
  -32.0488  -14.4354   20.0606 O   0  0  0  0  0  0  0  0  0  0  0  0
  -20.3983  -13.1033   23.6960 O   0  0  0  0  0  0  0  0  0  0  0  0
  -27.9605  -26.5036   19.8593 O   0  0  0  0  0  0  0  0  0  1  0  0
  -16.1614  -16.4178   22.4852 F   0  0  0  0  0  0  0  0  0  0  0  0
  -19.7950  -15.2758   25.2956 F   0  0  0  0  0  0  0  0  0  0  0  0
  1  2  1  0  0  0  0
  1  5  2  0  0  0  0
  2  6  2  0  0  0  0
  3  8  2  0  0  0  0
  3 18  1  0  0  0  0
  4  9  1  0  0  0  0
  4 18  2  0  0  0  0
  5 20  1  0  0  0  0
  6 22  1  0  0  0  0
  7 10  2  0  0  0  0
  7 21  1  0  0  0  0
  8 27  1  0  0  0  0
  9 27  2  0  0  0  0
 10 28  1  0  0  0  0
 11 12  2  0  0  0  0
 11 29  1  0  0  0  0
 12 30  1  0  0  0  0
 13 23  1  0  0  0  0
 13 28  2  0  0  0  0
 14 24  2  0  0  0  0
 14 25  1  0  0  0  0
 15 24  1  0  0  0  0
 15 26  2  0  0  0  0
 16 25  2  0  0  0  0
 16 26  1  0  0  0  0
 17 30  2  0  0  0  0
 17 31  1  0  0  0  0
 18 32  1  0  0  0  0
 19 32  1  0  0  0  0
 19 33  2  0  0  0  0
 19 34  1  0  0  0  0
 20 22  2  0  0  0  0
 20 40  1  0  0  0  0
 21 23  2  0  0  0  0
 21 41  1  0  0  0  0
 22 49  1  0  0  0  0
 23 42  1  0  0  0  0
 24 52  1  0  0  0  0
 25 70  1  0  0  0  0
 26 71  1  0  0  0  0
 27 81  1  0  0  0  0
 28 82  1  0  0  0  0
 29 31  2  0  0  0  0
 29 81  1  0  0  0  0
 30 83  1  0  0  0  0
 31 84  1  0  0  0  0
 32 64  2  0  0  0  0
 33 65  1  0  0  0  0
 33 68  1  0  0  0  0
 34 69  1  0  0  0  0
 34 75  2  0  0  0  0
 35 50  1  0  0  0  0
 35 72  1  0  0  0  0
 35 76  2  0  0  0  0
 36 61  1  0  0  0  0
 36 66  1  0  0  0  0
 36 77  2  0  0  0  0
 37 58  1  0  0  0  0
 37 70  1  0  0  0  0
 37 78  2  0  0  0  0
 38 62  1  0  0  0  0
 38 73  1  0  0  0  0
 38 79  2  0  0  0  0
 39 67  1  0  0  0  0
 39 71  1  0  0  0  0
 39 80  2  0  0  0  0
 40 43  1  0  0  0  0
 41 50  1  0  0  0  0
 42 66  1  0  0  0  0
 43 45  1  0  0  0  0
 44 46  1  0  0  0  0
 44 47  1  0  0  0  0
 45 49  1  0  0  0  0
 46 51  1  0  0  0  0
 47 67  1  0  0  0  0
 48 51  1  0  0  0  0
 48 67  1  0  0  0  0
 49 72  1  0  0  0  0
 50 66  1  0  0  0  0
 51 65  1  0  0  0  0
 53 62  1  0  0  0  0
 54 63  1  0  0  0  0
 55 63  1  0  0  0  0
 56 63  1  0  0  0  0
 57 74  1  0  0  0  0
 58 59  1  0  0  0  0
 59 60  1  0  0  0  0
 60 82  1  0  0  0  0
 61 63  1  0  0  0  0
 61 73  1  0  0  0  0
 62 74  1  0  0  0  0
 64 65  1  0  0  0  0
M  CHG  1  74   1
M  ISO  4  39 100  60 101  71 100  82 101
M  END
> <Batch ID>
0138

> <Smiles>
CNC(C)C(=O)NC(C(=O)N1Cc2cc([101O:1][101CH2:1]CCC(=O)Nc3cc(C)cc([100NH:0][100C:0](=O)N4CCCC(n5nc(-c6ccc(Oc7ccc(F)cc7F)cc6)c(C(N)=O)c5N)C4)c3)ccc2CC1C(=O)NC1CCCc2ccccc21)C(C)(C)C

> <Shape>
0.273

> <Color>
0.101

> <Negative vol penalty>
0.000

$$$$

  -OEChem-04052302453D

 85 93  0     1  0  0  0  0  0999 V2000
  -16.5716  -28.6330   23.8782 C   0  0  0  0  0  0  0  0  0  0  0  0
  -17.5883  -27.8073   24.3470 C   0  0  0  0  0  0  0  0  0  0  0  0
  -26.5326  -12.6778   21.7559 C   0  0  0  0  0  0  0  0  0  0  0  0
  -25.8890  -14.0263   19.8574 C   0  0  0  0  0  0  0  0  0  0  0  0
  -16.8412  -29.5737   22.8850 C   0  0  0  0  0  0  0  0  0  0  0  0
  -18.8752  -27.9212   23.8222 C   0  0  0  0  0  0  0  0  0  0  0  0
  -24.1570  -27.1447   26.8232 C   0  0  0  0  0  0  0  0  0  0  0  0
  -25.2757  -12.0730   21.7525 C   0  0  0  0  0  0  0  0  0  0  0  0
  -24.6321  -13.4215   19.8539 C   0  0  0  0  0  0  0  0  0  0  0  0
  -25.0340  -26.0648   26.9143 C   0  0  0  0  0  0  0  0  0  0  0  0
  -23.6787   -9.6569   20.0075 C   0  0  0  0  0  0  0  0  0  0  0  0
  -23.6261   -8.2703   20.1500 C   0  0  0  0  0  0  0  0  0  0  0  0
  -27.6731  -24.0733   19.2992 C   0  0  0  0  0  0  0  0  0  0  0  0
  -28.7738  -22.9606   21.1396 C   0  0  0  0  0  0  0  0  0  0  0  0
  -26.3829  -27.0199   25.1571 C   0  0  0  0  0  0  0  0  0  0  0  0
  -28.3147  -21.7527   19.0982 C   0  0  0  0  0  0  0  0  0  0  0  0
  -22.3087   -8.5267   22.1590 C   0  0  0  0  0  0  0  0  0  0  0  0
  -26.8393  -13.6545   20.8084 C   0  0  0  0  0  0  0  0  0  0  0  0
  -28.1930  -24.1050   20.5931 C   0  0  0  0  0  0  0  0  0  0  0  0
  -29.2874  -13.8552   20.1200 C   0  0  0  0  0  0  0  0  0  0  0  0
  -18.1342  -29.7057   22.3546 C   0  0  0  0  0  0  0  0  0  0  0  0
  -24.3807  -28.1666   25.8893 C   0  0  0  0  0  0  0  0  0  0  0  0
  -19.1621  -28.8636   22.8201 C   0  0  0  0  0  0  0  0  0  0  0  0
  -25.5085  -28.1130   25.0579 C   0  0  0  0  0  0  0  0  0  0  0  0
  -27.7339  -22.8971   18.5517 C   0  0  0  0  0  0  0  0  0  0  0  0
  -28.8347  -21.7844   20.3922 C   0  0  0  0  0  0  0  0  0  0  0  0
  -24.3254  -12.4448   20.8015 C   0  0  0  0  0  0  0  0  0  0  0  0
  -26.1456  -26.0008   26.0792 C   0  0  0  0  0  0  0  0  0  0  0  0
  -23.0464  -10.4784   20.9409 C   0  0  0  0  0  0  0  0  0  0  0  0
  -22.9411   -7.7052   21.2256 C   0  0  0  0  0  0  0  0  0  0  0  0
  -22.3614   -9.9133   22.0166 C   0  0  0  0  0  0  0  0  0  0  0  0
  -28.1373  -14.2799   20.8118 C   0  0  0  0  0  0  0  0  0  0  0  0
  -30.2478  -14.7799   20.4502 C   0  0  0  0  0  0  0  0  0  0  0  0
  -28.1278  -25.3615   21.3915 C   0  0  0  0  0  0  0  0  0  0  0  0
  -29.4712  -12.7258   19.2561 C   0  0  0  0  0  0  0  0  0  0  0  0
  -22.7863  -29.3071   23.3872 C   0  0  0  0  0  0  0  0  0  0  0  0
  -25.1405  -31.5387   23.3975 C   0  0  0  0  0  0  0  0  0  0  0  0
  -28.3303  -32.3809   24.2706 C   0  0  0  0  0  0  0  0  0  0  0  0
  -29.9879  -20.4829   22.2149 C   0  0  0  0  0  0  0  0  0  0  0  0
  -18.3667  -30.7047   21.2489 C   0  0  0  0  0  0  0  0  0  0  0  0
  -23.4397  -29.3381   25.8219 C   0  0  0  0  0  0  0  0  0  0  0  0
  -25.8047  -29.1946   24.0525 C   0  0  0  0  0  0  0  0  0  0  0  0
  -19.8418  -31.0178   21.0112 C   0  0  0  0  0  0  0  0  0  0  0  0
  -31.5068  -17.7795   23.9648 C   0  0  0  0  0  0  0  0  0  0  0  0
  -20.6595  -29.7311   20.9624 C   0  0  0  0  0  0  0  0  0  0  0  0
  -30.9244  -16.5366   23.2878 C   0  0  0  0  0  0  0  0  0  0  0  0
  -30.4771  -18.9032   24.0697 C   0  0  0  0  0  0  0  0  0  0  0  0
  -29.2409  -18.0232   22.1289 C   0  0  0  0  0  0  0  0  0  0  0  0
  -20.5765  -28.9739   22.2933 C   0  0  1  0  0  0  0  0  0  0  0  0
  -23.4847  -30.0643   24.4810 C   0  0  1  0  0  0  0  0  0  0  0  0
  -30.2597  -16.8871   21.9421 C   0  0  2  0  0  0  0  0  0  0  0  0
  -27.1779  -22.8629   17.1681 C   0  0  0  0  0  0  0  0  0  0  0  0
  -29.9854  -34.2604   24.1107 C   0  0  0  0  0  0  0  0  0  0  0  0
  -25.6285  -30.8562   20.4639 C   0  0  0  0  0  0  0  0  0  0  0  0
  -27.8364  -32.0246   20.6315 C   0  0  0  0  0  0  0  0  0  0  0  0
  -25.7226  -33.2979   20.9965 C   0  0  0  0  0  0  0  0  0  0  0  0
  -28.9284  -23.6784   25.5619 C   0  0  0  0  0  0  0  0  0  0  0  0
  -28.9716  -26.1813   25.5934 C   0  0  0  0  0  0  0  0  0  0  0  0
  -28.5086  -32.6286   27.2143 C   0  0  0  0  0  0  0  0  0  0  0  0
  -28.6925  -25.4043   22.8035 C   0  0  0  0  0  0  0  0  0  0  0  0
  -27.6192  -25.0097   23.8230 C   0  0  0  0  0  0  0  0  0  0  0  0
  -26.5021  -31.6592   22.7569 C   0  0  1  0  0  0  0  0  0  0  0  0
  -28.8959  -33.6139   24.9520 C   0  0  2  0  0  0  0  0  0  0  0  0
  -26.4160  -31.9380   21.2297 C   0  0  0  0  0  0  0  0  0  0  0  0
  -28.1215  -24.9462   25.2794 C   0  0  0  0  0  0  0  0  0  1  0  0
  -28.3459  -15.3881   21.5276 N   0  0  0  0  0  0  0  0  0  0  0  0
  -27.5865  -26.4267   20.8895 N   0  0  0  0  0  0  0  0  0  0  0  0
  -29.6383  -15.6676   21.2874 N   0  0  0  0  0  0  0  0  0  0  0  0
  -24.8517  -30.3162   24.0203 N   0  0  0  0  0  0  0  0  0  0  0  0
  -29.8929  -19.1834   22.7563 N   0  0  0  0  0  0  0  0  0  0  0  0
  -31.5457  -14.9122   20.1033 N   0  0  0  0  0  0  0  0  0  0  0  0
  -28.3800  -11.8774   19.0243 N   0  0  0  0  0  0  0  0  0  0  0  0
  -29.4249  -20.6217   20.9467 N   0  0  0  0  0  0  0  0  0  0  0  0
  -21.4379  -29.5897   23.2798 N   0  0  0  0  0  0  0  0  0  0  0  0
  -27.2192  -32.6814   23.5114 N   0  0  0  0  0  0  0  0  0  0  0  0
  -29.4766  -33.2533   26.2763 N   0  3  0  0  0  0  0  0  0  0  0  0
  -30.5749  -12.4672   18.7190 O   0  0  0  0  0  0  0  0  0  0  0  0
  -23.4238  -28.5256   22.6911 O   0  0  0  0  0  0  0  0  0  0  0  0
  -24.3645  -32.4966   23.3532 O   0  0  0  0  0  0  0  0  0  0  0  0
  -28.8269  -31.2637   24.3960 O   0  0  0  0  0  0  0  0  0  0  0  0
  -30.5530  -21.3980   22.8193 O   0  0  0  0  0  0  0  0  0  0  0  0
  -23.0989  -11.8548   20.7977 O   0  0  0  0  0  0  0  0  0  0  0  0
  -27.0030  -24.9476   26.1656 O   0  0  0  0  0  0  0  0  0  1  0  0
  -22.8893   -6.3737   21.3614 F   0  0  0  0  0  0  0  0  0  0  0  0
  -21.7510  -10.6973   22.9158 F   0  0  0  0  0  0  0  0  0  0  0  0
  1  2  1  0  0  0  0
  1  5  2  0  0  0  0
  2  6  2  0  0  0  0
  3  8  2  0  0  0  0
  3 18  1  0  0  0  0
  4  9  1  0  0  0  0
  4 18  2  0  0  0  0
  5 21  1  0  0  0  0
  6 23  1  0  0  0  0
  7 10  2  0  0  0  0
  7 22  1  0  0  0  0
  8 27  1  0  0  0  0
  9 27  2  0  0  0  0
 10 28  1  0  0  0  0
 11 12  2  0  0  0  0
 11 29  1  0  0  0  0
 12 30  1  0  0  0  0
 13 19  1  0  0  0  0
 13 25  2  0  0  0  0
 14 19  2  0  0  0  0
 14 26  1  0  0  0  0
 15 24  1  0  0  0  0
 15 28  2  0  0  0  0
 16 25  1  0  0  0  0
 16 26  2  0  0  0  0
 17 30  2  0  0  0  0
 17 31  1  0  0  0  0
 18 32  1  0  0  0  0
 19 34  1  0  0  0  0
 20 32  1  0  0  0  0
 20 33  2  0  0  0  0
 20 35  1  0  0  0  0
 21 23  2  0  0  0  0
 21 40  1  0  0  0  0
 22 24  2  0  0  0  0
 22 41  1  0  0  0  0
 23 49  1  0  0  0  0
 24 42  1  0  0  0  0
 25 52  1  0  0  0  0
 26 73  1  0  0  0  0
 27 82  1  0  0  0  0
 28 83  1  0  0  0  0
 29 31  2  0  0  0  0
 29 82  1  0  0  0  0
 30 84  1  0  0  0  0
 31 85  1  0  0  0  0
 32 66  2  0  0  0  0
 33 68  1  0  0  0  0
 33 71  1  0  0  0  0
 34 60  1  0  0  0  0
 34 67  2  0  0  0  0
 35 72  1  0  0  0  0
 35 77  2  0  0  0  0
 36 50  1  0  0  0  0
 36 74  1  0  0  0  0
 36 78  2  0  0  0  0
 37 62  1  0  0  0  0
 37 69  1  0  0  0  0
 37 79  2  0  0  0  0
 38 63  1  0  0  0  0
 38 75  1  0  0  0  0
 38 80  2  0  0  0  0
 39 70  1  0  0  0  0
 39 73  1  0  0  0  0
 39 81  2  0  0  0  0
 40 43  1  0  0  0  0
 41 50  1  0  0  0  0
 42 69  1  0  0  0  0
 43 45  1  0  0  0  0
 44 46  1  0  0  0  0
 44 47  1  0  0  0  0
 45 49  1  0  0  0  0
 46 51  1  0  0  0  0
 47 70  1  0  0  0  0
 48 51  1  0  0  0  0
 48 70  1  0  0  0  0
 49 74  1  0  0  0  0
 50 69  1  0  0  0  0
 51 68  1  0  0  0  0
 53 63  1  0  0  0  0
 54 64  1  0  0  0  0
 55 64  1  0  0  0  0
 56 64  1  0  0  0  0
 57 65  1  0  0  0  0
 58 65  1  0  0  0  0
 59 76  1  0  0  0  0
 60 61  1  0  0  0  0
 61 65  1  0  0  0  0
 62 64  1  0  0  0  0
 62 75  1  0  0  0  0
 63 76  1  0  0  0  0
 65 83  1  0  0  0  0
 66 68  1  0  0  0  0
M  CHG  1  76   1
M  ISO  4  39 100  65 101  73 100  83 101
M  END
> <Batch ID>
0138

> <Smiles>
CNC(C)C(=O)NC(C(=O)N1Cc2cc([101O:1][101C:1](C)(C)CCC(=N)c3cc(C)cc([100NH:0][100C:0](=O)N4CCCC(n5nc(-c6ccc(Oc7ccc(F)cc7F)cc6)c(C(N)=O)c5N)C4)c3)ccc2CC1C(=O)NC1CCCc2ccccc21)C(C)(C)C

> <Shape>
0.284

> <Color>
0.094

> <Negative vol penalty>
0.000

$$$$

  -OEChem-04052302453D

 87 96  0     1  0  0  0  0  0999 V2000
  -27.9848  -27.7989   31.4902 C   0  0  0  0  0  0  0  0  0  0  0  0
  -28.5769  -27.6496   30.2401 C   0  0  0  0  0  0  0  0  0  0  0  0
  -30.7234  -22.1145   22.7691 C   0  0  0  0  0  0  0  0  0  0  0  0
  -26.1882  -11.5860   20.9713 C   0  0  0  0  0  0  0  0  0  0  0  0
  -25.4565  -13.6417   19.9341 C   0  0  0  0  0  0  0  0  0  0  0  0
  -26.6343  -27.4976   31.6610 C   0  0  0  0  0  0  0  0  0  0  0  0
  -27.8189  -27.1977   29.1604 C   0  0  0  0  0  0  0  0  0  0  0  0
  -28.3963  -28.8750   23.2987 C   0  0  0  0  0  0  0  0  0  0  0  0
  -29.8748  -22.6870   21.8216 C   0  0  0  0  0  0  0  0  0  0  0  0
  -31.0631  -20.7648   22.6761 C   0  0  0  0  0  0  0  0  0  0  0  0
  -24.8621  -11.2538   21.2484 C   0  0  0  0  0  0  0  0  0  0  0  0
  -24.1304  -13.3095   20.2112 C   0  0  0  0  0  0  0  0  0  0  0  0
  -29.0354  -28.2805   22.2116 C   0  0  0  0  0  0  0  0  0  0  0  0
  -22.5091  -12.0904   23.5261 C   0  0  0  0  0  0  0  0  0  0  0  0
  -22.2165  -11.6029   24.7998 C   0  0  0  0  0  0  0  0  0  0  0  0
  -26.9442  -27.2882   21.5324 C   0  0  0  0  0  0  0  0  0  0  0  0
  -21.4005   -9.5479   23.8260 C   0  0  0  0  0  0  0  0  0  0  0  0
  -26.4854  -12.7800   20.3142 C   0  0  0  0  0  0  0  0  0  0  0  0
  -28.5886  -12.8013   18.8707 C   0  0  0  0  0  0  0  0  0  0  0  0
  -25.8571  -27.0511   30.5807 C   0  0  0  0  0  0  0  0  0  0  0  0
  -27.0262  -28.6713   23.5174 C   0  0  0  0  0  0  0  0  0  0  0  0
  -26.4571  -26.8889   29.3173 C   0  0  0  0  0  0  0  0  0  0  0  0
  -26.2895  -27.8833   22.6216 C   0  0  0  0  0  0  0  0  0  0  0  0
  -29.7055  -20.5601   20.6882 C   0  0  0  0  0  0  0  0  0  0  0  0
  -29.3658  -21.9098   20.7812 C   0  0  0  0  0  0  0  0  0  0  0  0
  -30.5541  -19.9876   21.6356 C   0  0  0  0  0  0  0  0  0  0  0  0
  -23.8332  -12.1156   20.8684 C   0  0  0  0  0  0  0  0  0  0  0  0
  -28.3100  -27.4846   21.3299 C   0  0  0  0  0  0  0  0  0  0  0  0
  -22.2473  -11.3066   22.4023 C   0  0  0  0  0  0  0  0  0  0  0  0
  -21.6622  -10.3317   24.9498 C   0  0  0  0  0  0  0  0  0  0  0  0
  -21.6931  -10.0354   22.5522 C   0  0  0  0  0  0  0  0  0  0  0  0
  -27.8551  -13.1239   20.0281 C   0  0  0  0  0  0  0  0  0  0  0  0
  -29.8285  -13.3519   19.0854 C   0  0  0  0  0  0  0  0  0  0  0  0
  -28.1854  -12.0694   17.7056 C   0  0  0  0  0  0  0  0  0  0  0  0
  -25.2954  -27.3664   25.8423 C   0  0  0  0  0  0  0  0  0  0  0  0
  -29.5077  -24.8082   19.2006 C   0  0  0  0  0  0  0  0  0  0  0  0
  -22.8073  -28.4826   24.0857 C   0  0  0  0  0  0  0  0  0  0  0  0
  -21.6212  -29.4660   21.0405 C   0  0  0  0  0  0  0  0  0  0  0  0
  -31.7442  -17.9155   22.4334 C   0  0  0  0  0  0  0  0  0  0  0  0
  -24.4125  -26.6927   30.8247 C   0  0  0  0  0  0  0  0  0  0  0  0
  -26.3461  -29.3413   24.6797 C   0  0  0  0  0  0  0  0  0  0  0  0
  -24.8123  -27.6499   22.8005 C   0  0  0  0  0  0  0  0  0  0  0  0
  -23.5890  -26.5772   29.5446 C   0  0  0  0  0  0  0  0  0  0  0  0
  -32.8409  -14.5331   22.6160 C   0  0  0  0  0  0  0  0  0  0  0  0
  -27.6663  -19.6670   19.3774 C   0  0  0  0  0  0  0  0  0  0  0  0
  -28.4009  -18.4727   19.9013 C   0  0  0  0  0  0  0  0  0  0  0  0
  -24.3376  -25.7546   28.5007 C   0  0  0  0  0  0  0  0  0  0  0  0
  -31.7567  -13.7592   21.8625 C   0  0  0  0  0  0  0  0  0  0  0  0
  -32.2552  -15.6927   23.4197 C   0  0  0  0  0  0  0  0  0  0  0  0
  -30.3224  -15.8397   21.8992 C   0  0  0  0  0  0  0  0  0  0  0  0
  -29.1560  -19.7299   19.5702 C   0  0  0  0  0  0  0  0  0  0  0  0
  -25.6620  -26.4250   28.1161 C   0  0  1  0  0  0  0  0  0  0  0  0
  -25.0527  -28.6477   25.0959 C   0  0  1  0  0  0  0  0  0  0  0  0
  -30.8716  -14.7017   21.0235 C   0  0  2  0  0  0  0  0  0  0  0  0
  -19.5374  -30.2893   19.9104 C   0  0  0  0  0  0  0  0  0  0  0  0
  -30.4076  -22.7116   18.1349 C   0  0  0  0  0  0  0  0  0  0  0  0
  -28.1671  -23.5481   17.4761 C   0  0  0  0  0  0  0  0  0  0  0  0
  -21.6654  -25.6535   24.1355 C   0  0  0  0  0  0  0  0  0  0  0  0
  -20.1501  -26.3068   22.2526 C   0  0  0  0  0  0  0  0  0  0  0  0
  -19.9732  -27.4673   24.4537 C   0  0  0  0  0  0  0  0  0  0  0  0
  -22.9109  -32.0133   20.2614 C   0  0  0  0  0  0  0  0  0  0  0  0
  -28.4492  -22.5579   19.7682 C   0  0  0  0  0  0  0  0  0  0  0  0
  -28.4034  -25.6594   19.8081 C   0  0  0  0  0  0  0  0  0  1  0  0
  -21.9606  -27.9345   22.9624 C   0  0  1  0  0  0  0  0  0  0  0  0
  -20.8246  -30.6865   20.6161 C   0  0  2  0  0  0  0  0  0  0  0  0
  -29.1374  -23.4062   18.6651 C   0  0  0  0  0  0  0  0  0  0  0  0
  -20.9656  -26.8432   23.4485 C   0  0  0  0  0  0  0  0  0  0  0  0
  -28.5694  -13.8250   20.9126 N   0  0  0  0  0  0  0  0  0  0  0  0
  -29.7648  -13.9473   20.3108 N   0  0  0  0  0  0  0  0  0  0  0  0
  -24.1940  -28.3214   23.9556 N   0  0  0  0  0  0  0  0  0  0  0  0
  -31.4324  -16.5452   22.5589 N   0  0  0  0  0  0  0  0  0  0  0  0
  -30.9561  -13.3799   18.3438 N   0  0  0  0  0  0  0  0  0  0  0  0
  -26.8758  -11.5735   17.6483 N   0  0  0  0  0  0  0  0  0  0  0  0
  -30.9124  -18.6187   21.5626 N   0  0  0  0  0  0  0  0  0  0  0  0
  -25.4258  -27.5272   27.2086 N   0  0  0  0  0  0  0  0  0  0  0  0
  -21.3237  -29.0858   22.3321 N   0  0  0  0  0  0  0  0  0  0  0  0
  -21.6276  -31.5322   19.6882 N   0  3  0  0  0  0  0  0  0  0  0  0
  -28.9683  -11.8473   16.7511 O   0  0  0  0  0  0  0  0  0  0  0  0
  -25.3582  -26.3099   25.2246 O   0  0  0  0  0  0  0  0  0  0  0  0
  -30.6689  -25.2231   19.1674 O   0  0  0  0  0  0  0  0  0  0  0  0
  -22.2589  -29.0398   25.0399 O   0  0  0  0  0  0  0  0  0  0  0  0
  -22.4241  -28.9037   20.2991 O   0  0  0  0  0  0  0  0  0  0  0  0
  -32.6969  -18.4217   23.0317 O   0  0  0  0  0  0  0  0  0  0  0  0
  -22.5391  -11.7917   21.1384 O   0  0  0  0  0  0  0  0  0  0  0  0
  -28.9315  -26.9027   20.2683 O   0  0  0  0  0  0  0  0  0  1  0  0
  -21.3827   -9.8632   26.1731 F   0  0  0  0  0  0  0  0  0  0  0  0
  -21.4405   -9.2774   21.4764 F   0  0  0  0  0  0  0  0  0  0  0  0
  1  2  1  0  0  0  0
  1  6  2  0  0  0  0
  2  7  2  0  0  0  0
  3  9  2  0  0  0  0
  3 10  1  0  0  0  0
  4 11  2  0  0  0  0
  4 18  1  0  0  0  0
  5 12  1  0  0  0  0
  5 18  2  0  0  0  0
  6 20  1  0  0  0  0
  7 22  1  0  0  0  0
  8 13  2  0  0  0  0
  8 21  1  0  0  0  0
  9 25  1  0  0  0  0
 10 26  2  0  0  0  0
 11 27  1  0  0  0  0
 12 27  2  0  0  0  0
 13 28  1  0  0  0  0
 14 15  2  0  0  0  0
 14 29  1  0  0  0  0
 15 30  1  0  0  0  0
 16 23  1  0  0  0  0
 16 28  2  0  0  0  0
 17 30  2  0  0  0  0
 17 31  1  0  0  0  0
 18 32  1  0  0  0  0
 19 32  1  0  0  0  0
 19 33  2  0  0  0  0
 19 34  1  0  0  0  0
 20 22  2  0  0  0  0
 20 40  1  0  0  0  0
 21 23  2  0  0  0  0
 21 41  1  0  0  0  0
 22 52  1  0  0  0  0
 23 42  1  0  0  0  0
 24 25  2  0  0  0  0
 24 26  1  0  0  0  0
 24 51  1  0  0  0  0
 25 62  1  0  0  0  0
 26 74  1  0  0  0  0
 27 84  1  0  0  0  0
 28 85  1  0  0  0  0
 29 31  2  0  0  0  0
 29 84  1  0  0  0  0
 30 86  1  0  0  0  0
 31 87  1  0  0  0  0
 32 68  2  0  0  0  0
 33 69  1  0  0  0  0
 33 72  1  0  0  0  0
 34 73  1  0  0  0  0
 34 78  2  0  0  0  0
 35 53  1  0  0  0  0
 35 75  1  0  0  0  0
 35 79  2  0  0  0  0
 36 63  1  0  0  0  0
 36 66  1  0  0  0  0
 36 80  2  0  0  0  0
 37 64  1  0  0  0  0
 37 70  1  0  0  0  0
 37 81  2  0  0  0  0
 38 65  1  0  0  0  0
 38 76  1  0  0  0  0
 38 82  2  0  0  0  0
 39 71  1  0  0  0  0
 39 74  1  0  0  0  0
 39 83  2  0  0  0  0
 40 43  1  0  0  0  0
 41 53  1  0  0  0  0
 42 70  1  0  0  0  0
 43 47  1  0  0  0  0
 44 48  1  0  0  0  0
 44 49  1  0  0  0  0
 45 46  1  0  0  0  0
 45 51  1  0  0  0  0
 46 51  1  0  0  0  0
 47 52  1  0  0  0  0
 48 54  1  0  0  0  0
 49 71  1  0  0  0  0
 50 54  1  0  0  0  0
 50 71  1  0  0  0  0
 52 75  1  0  0  0  0
 53 70  1  0  0  0  0
 54 69  1  0  0  0  0
 55 65  1  0  0  0  0
 56 66  1  0  0  0  0
 57 66  1  0  0  0  0
 58 67  1  0  0  0  0
 59 67  1  0  0  0  0
 60 67  1  0  0  0  0
 61 77  1  0  0  0  0
 62 66  1  0  0  0  0
 63 85  1  0  0  0  0
 64 67  1  0  0  0  0
 64 76  1  0  0  0  0
 65 77  1  0  0  0  0
 68 69  1  0  0  0  0
M  CHG  1  77   1
M  ISO  4  39 100  63 101  74 100  85 101
M  END
> <Batch ID>
0138

> <Smiles>
CNC(C)C(=O)NC(C(=O)N1Cc2cc([101O:1][101CH2:1]C(=O)C(C)(C)Cc3cccc([100NH:0][100C:0](=O)N4CCCC(n5nc(-c6ccc(Oc7ccc(F)cc7F)cc6)c(C(N)=O)c5N)C4)c3C3CC3)ccc2CC1C(=O)NC1CCCc2ccccc21)C(C)(C)C

> <Shape>
0.269

> <Color>
0.079

> <Negative vol penalty>
0.000

$$$$

  -OEChem-04052302453D

 83 91  0     1  0  0  0  0  0999 V2000
  -28.8970  -34.7702   24.9505 C   0  0  0  0  0  0  0  0  0  0  0  0
  -28.6999  -33.3941   24.8987 C   0  0  0  0  0  0  0  0  0  0  0  0
  -23.0382  -10.0624   21.4592 C   0  0  0  0  0  0  0  0  0  0  0  0
  -23.7921  -10.9951   23.5566 C   0  0  0  0  0  0  0  0  0  0  0  0
  -27.8134  -35.6346   24.8007 C   0  0  0  0  0  0  0  0  0  0  0  0
  -27.4187  -32.8814   24.6981 C   0  0  0  0  0  0  0  0  0  0  0  0
  -27.3379  -29.1295   21.2978 C   0  0  0  0  0  0  0  0  0  0  0  0
  -22.2875   -9.1123   22.1515 C   0  0  0  0  0  0  0  0  0  0  0  0
  -23.0413  -10.0450   24.2489 C   0  0  0  0  0  0  0  0  0  0  0  0
  -27.7657  -27.8734   21.7254 C   0  0  0  0  0  0  0  0  0  0  0  0
  -19.3312   -8.9834   23.7875 C   0  0  0  0  0  0  0  0  0  0  0  0
  -18.0254   -8.7496   23.3565 C   0  0  0  0  0  0  0  0  0  0  0  0
  -30.0280  -18.5149   20.7851 C   0  0  0  0  0  0  0  0  0  0  0  0
  -25.4681  -27.1871   21.9886 C   0  0  0  0  0  0  0  0  0  0  0  0
  -18.5781   -6.4352   22.9375 C   0  0  0  0  0  0  0  0  0  0  0  0
  -23.7906  -11.0038   22.1617 C   0  0  0  0  0  0  0  0  0  0  0  0
  -31.0068  -19.4904   20.4792 C   0  0  0  0  0  0  0  0  0  0  0  0
  -24.1463  -13.2624   21.0305 C   0  0  0  0  0  0  0  0  0  0  0  0
  -26.5197  -35.1325   24.5886 C   0  0  0  0  0  0  0  0  0  0  0  0
  -25.9698  -29.4280   21.2227 C   0  0  0  0  0  0  0  0  0  0  0  0
  -26.3165  -33.7399   24.5467 C   0  0  0  0  0  0  0  0  0  0  0  0
  -25.0255  -28.4469   21.5573 C   0  0  0  0  0  0  0  0  0  0  0  0
  -22.2890   -9.1036   23.5463 C   0  0  0  0  0  0  0  0  0  0  0  0
  -26.8308  -26.9029   22.0737 C   0  0  0  0  0  0  0  0  0  0  0  0
  -20.2605   -7.9432   23.7933 C   0  0  0  0  0  0  0  0  0  0  0  0
  -17.6488   -7.4755   22.9316 C   0  0  0  0  0  0  0  0  0  0  0  0
  -19.8840   -6.6691   23.3684 C   0  0  0  0  0  0  0  0  0  0  0  0
  -24.5667  -11.9852   21.4472 C   0  0  0  0  0  0  0  0  0  0  0  0
  -32.0876  -18.8030   19.9779 C   0  0  0  0  0  0  0  0  0  0  0  0
  -25.2435  -13.7962   20.3998 C   0  0  0  0  0  0  0  0  0  0  0  0
  -30.5803  -17.3009   20.4486 C   0  0  0  0  0  0  0  0  0  0  0  0
  -30.9239  -20.9710   20.6499 C   0  0  0  0  0  0  0  0  0  0  0  0
  -22.8775  -13.9086   21.1987 C   0  0  0  0  0  0  0  0  0  0  0  0
  -24.0518  -31.5314   22.6371 C   0  0  0  0  0  0  0  0  0  0  0  0
  -21.8639  -30.3509   20.5534 C   0  0  0  0  0  0  0  0  0  0  0  0
  -20.8540  -27.7647   18.5687 C   0  0  0  0  0  0  0  0  0  0  0  0
  -30.7148  -14.8018   20.1612 C   0  0  0  0  0  0  0  0  0  0  0  0
  -25.3723  -36.1052   24.4794 C   0  0  0  0  0  0  0  0  0  0  0  0
  -25.5242  -30.7789   20.7340 C   0  0  0  0  0  0  0  0  0  0  0  0
  -23.5449  -28.7104   21.4747 C   0  0  0  0  0  0  0  0  0  0  0  0
  -24.1038  -35.4879   23.8962 C   0  0  0  0  0  0  0  0  0  0  0  0
  -29.5936  -11.6399   18.9686 C   0  0  0  0  0  0  0  0  0  0  0  0
  -23.8103  -34.1454   24.5583 C   0  0  0  0  0  0  0  0  0  0  0  0
  -28.1512  -11.5529   19.4729 C   0  0  0  0  0  0  0  0  0  0  0  0
  -30.5067  -12.3323   19.9788 C   0  0  0  0  0  0  0  0  0  0  0  0
  -28.6001  -13.5616   20.9394 C   0  0  0  0  0  0  0  0  0  0  0  0
  -24.9456  -33.1459   24.3060 C   0  0  1  0  0  0  0  0  0  0  0  0
  -24.1136  -31.1427   21.1870 C   0  0  1  0  0  0  0  0  0  0  0  0
  -27.6294  -12.9298   19.9282 C   0  0  2  0  0  0  0  0  0  0  0  0
  -33.4080  -19.2184   19.4811 C   0  0  0  0  0  0  0  0  0  0  0  0
  -19.0060  -27.0785   17.0160 C   0  0  0  0  0  0  0  0  0  0  0  0
  -20.0467  -29.8327   22.9491 C   0  0  0  0  0  0  0  0  0  0  0  0
  -18.6777  -28.3223   21.4956 C   0  0  0  0  0  0  0  0  0  0  0  0
  -18.8807  -30.7441   20.9331 C   0  0  0  0  0  0  0  0  0  0  0  0
  -22.7162  -27.4963   16.2842 C   0  0  0  0  0  0  0  0  0  0  0  0
  -29.6479  -21.5702   21.2219 C   0  0  0  0  0  0  0  0  0  0  0  0
  -29.7290  -23.0928   21.3449 C   0  0  0  0  0  0  0  0  0  0  0  0
  -28.4257  -23.6773   21.8842 C   0  0  0  0  0  0  0  0  0  0  0  0
  -28.4835  -25.1959   21.9688 C   0  0  0  0  0  0  0  0  0  1  0  0
  -20.8656  -29.2187   20.5788 C   0  0  1  0  0  0  0  0  0  0  0  0
  -20.3768  -27.7274   17.1282 C   0  0  2  0  0  0  0  0  0  0  0  0
  -19.6455  -29.5248   21.4926 C   0  0  0  0  0  0  0  0  0  0  0  0
  -25.8322  -11.7232   21.1094 N   0  0  0  0  0  0  0  0  0  0  0  0
  -26.2163  -12.8432   20.4738 N   0  0  0  0  0  0  0  0  0  0  0  0
  -23.1591  -30.0486   20.9972 N   0  0  0  0  0  0  0  0  0  0  0  0
  -29.9510  -13.6324   20.3608 N   0  0  0  0  0  0  0  0  0  0  0  0
  -25.4612  -14.9831   19.7946 N   0  0  0  0  0  0  0  0  0  0  0  0
  -21.8598  -13.2180   21.8707 N   0  0  0  0  0  0  0  0  0  0  0  0
  -30.0702  -15.9816   20.5317 N   0  0  0  0  0  0  0  0  0  0  0  0
  -24.8555  -32.6063   22.9662 N   0  0  0  0  0  0  0  0  0  0  0  0
  -20.5177  -28.9501   19.1876 N   0  0  0  0  0  0  0  0  0  0  0  0
  -21.3329  -26.9548   16.2856 N   0  3  0  0  0  0  0  0  0  0  0  0
  -31.8834  -21.6669   20.3256 O   0  0  0  0  0  0  0  0  0  0  0  0
  -22.6478  -15.0578   20.7514 O   0  0  0  0  0  0  0  0  0  0  0  0
  -23.3274  -30.9036   23.4006 O   0  0  0  0  0  0  0  0  0  0  0  0
  -21.5095  -31.4606   20.1479 O   0  0  0  0  0  0  0  0  0  0  0  0
  -21.4610  -26.8339   19.0937 O   0  0  0  0  0  0  0  0  0  0  0  0
  -31.8460  -14.7623   19.6705 O   0  0  0  0  0  0  0  0  0  0  0  0
  -31.8356  -17.4679   19.9558 O   0  0  0  0  0  0  0  0  0  0  0  0
  -21.5564   -8.1768   24.2222 O   0  0  0  0  0  0  0  0  0  0  0  0
  -27.2457  -25.6762   22.4920 O   0  0  0  0  0  0  0  0  0  1  0  0
  -16.3943   -7.2507   22.5193 F   0  0  0  0  0  0  0  0  0  0  0  0
  -20.7720   -5.6656   23.3729 F   0  0  0  0  0  0  0  0  0  0  0  0
  1  2  1  0  0  0  0
  1  5  2  0  0  0  0
  2  6  2  0  0  0  0
  3  8  2  0  0  0  0
  3 16  1  0  0  0  0
  4  9  1  0  0  0  0
  4 16  2  0  0  0  0
  5 19  1  0  0  0  0
  6 21  1  0  0  0  0
  7 10  2  0  0  0  0
  7 20  1  0  0  0  0
  8 23  1  0  0  0  0
  9 23  2  0  0  0  0
 10 24  1  0  0  0  0
 11 12  2  0  0  0  0
 11 25  1  0  0  0  0
 12 26  1  0  0  0  0
 13 17  1  0  0  0  0
 13 31  2  0  0  0  0
 14 22  1  0  0  0  0
 14 24  2  0  0  0  0
 15 26  2  0  0  0  0
 15 27  1  0  0  0  0
 16 28  1  0  0  0  0
 17 29  2  0  0  0  0
 17 32  1  0  0  0  0
 18 28  1  0  0  0  0
 18 30  2  0  0  0  0
 18 33  1  0  0  0  0
 19 21  2  0  0  0  0
 19 38  1  0  0  0  0
 20 22  2  0  0  0  0
 20 39  1  0  0  0  0
 21 47  1  0  0  0  0
 22 40  1  0  0  0  0
 23 80  1  0  0  0  0
 24 81  1  0  0  0  0
 25 27  2  0  0  0  0
 25 80  1  0  0  0  0
 26 82  1  0  0  0  0
 27 83  1  0  0  0  0
 28 63  2  0  0  0  0
 29 50  1  0  0  0  0
 29 79  1  0  0  0  0
 30 64  1  0  0  0  0
 30 67  1  0  0  0  0
 31 69  1  0  0  0  0
 31 79  1  0  0  0  0
 32 56  1  0  0  0  0
 32 73  2  0  0  0  0
 33 68  1  0  0  0  0
 33 74  2  0  0  0  0
 34 48  1  0  0  0  0
 34 70  1  0  0  0  0
 34 75  2  0  0  0  0
 35 60  1  0  0  0  0
 35 65  1  0  0  0  0
 35 76  2  0  0  0  0
 36 61  1  0  0  0  0
 36 71  1  0  0  0  0
 36 77  2  0  0  0  0
 37 66  1  0  0  0  0
 37 69  1  0  0  0  0
 37 78  2  0  0  0  0
 38 41  1  0  0  0  0
 39 48  1  0  0  0  0
 40 65  1  0  0  0  0
 41 43  1  0  0  0  0
 42 44  1  0  0  0  0
 42 45  1  0  0  0  0
 43 47  1  0  0  0  0
 44 49  1  0  0  0  0
 45 66  1  0  0  0  0
 46 49  1  0  0  0  0
 46 66  1  0  0  0  0
 47 70  1  0  0  0  0
 48 65  1  0  0  0  0
 49 64  1  0  0  0  0
 51 61  1  0  0  0  0
 52 62  1  0  0  0  0
 53 62  1  0  0  0  0
 54 62  1  0  0  0  0
 55 72  1  0  0  0  0
 56 57  1  0  0  0  0
 57 58  1  0  0  0  0
 58 59  1  0  0  0  0
 59 81  1  0  0  0  0
 60 62  1  0  0  0  0
 60 71  1  0  0  0  0
 61 72  1  0  0  0  0
 63 64  1  0  0  0  0
M  CHG  1  72   1
M  ISO  4  37 100  59 101  69 100  81 101
M  END
> <Batch ID>
0138

> <Smiles>
CNC(C)C(=O)NC(C(=O)N1Cc2cc([101O:1][101CH2:1]CCCC(=O)c3cc([100NH:0][100C:0](=O)N4CCCC(n5nc(-c6ccc(Oc7ccc(F)cc7F)cc6)c(C(N)=O)c5N)C4)oc3C)ccc2CC1C(=O)NC1CCCc2ccccc21)C(C)(C)C

> <Shape>
0.290

> <Color>
0.155

> <Negative vol penalty>
0.000

$$$$

  -OEChem-04052302453D

 81 89  0     1  0  0  0  0  0999 V2000
  -20.2839  -34.7522   21.8265 C   0  0  0  0  0  0  0  0  0  0  0  0
  -21.5197  -34.2352   21.4512 C   0  0  0  0  0  0  0  0  0  0  0  0
  -26.0219  -22.7170   17.5877 C   0  0  0  0  0  0  0  0  0  0  0  0
  -26.4309  -12.2361   20.7809 C   0  0  0  0  0  0  0  0  0  0  0  0
  -24.7691  -13.6634   19.7618 C   0  0  0  0  0  0  0  0  0  0  0  0
  -19.4932  -34.0662   22.7474 C   0  0  0  0  0  0  0  0  0  0  0  0
  -21.9660  -33.0322   21.9973 C   0  0  0  0  0  0  0  0  0  0  0  0
  -25.3247  -28.7415   19.2020 C   0  0  0  0  0  0  0  0  0  0  0  0
  -26.2981  -21.6776   18.4758 C   0  0  0  0  0  0  0  0  0  0  0  0
  -26.9659  -23.7216   17.3744 C   0  0  0  0  0  0  0  0  0  0  0  0
  -25.4186  -11.4380   21.3138 C   0  0  0  0  0  0  0  0  0  0  0  0
  -23.7569  -12.8653   20.2947 C   0  0  0  0  0  0  0  0  0  0  0  0
  -26.6900  -28.4597   19.2199 C   0  0  0  0  0  0  0  0  0  0  0  0
  -23.2780   -8.8176   22.6428 C   0  0  0  0  0  0  0  0  0  0  0  0
  -23.4223   -7.4339   22.5422 C   0  0  0  0  0  0  0  0  0  0  0  0
  -26.3184  -26.7974   20.9281 C   0  0  0  0  0  0  0  0  0  0  0  0
  -28.4623  -22.6471   18.9375 C   0  0  0  0  0  0  0  0  0  0  0  0
  -23.4834   -7.6153   20.1338 C   0  0  0  0  0  0  0  0  0  0  0  0
  -26.1061  -13.3488   20.0049 C   0  0  0  0  0  0  0  0  0  0  0  0
  -27.7860  -14.0226   18.2072 C   0  0  0  0  0  0  0  0  0  0  0  0
  -19.9257  -32.8494   23.2978 C   0  0  0  0  0  0  0  0  0  0  0  0
  -24.4460  -28.0598   20.0562 C   0  0  0  0  0  0  0  0  0  0  0  0
  -21.1808  -32.3300   22.9274 C   0  0  0  0  0  0  0  0  0  0  0  0
  -24.9420  -27.0706   20.9172 C   0  0  0  0  0  0  0  0  0  0  0  0
  -27.5183  -21.6426   19.1507 C   0  0  0  0  0  0  0  0  0  0  0  0
  -24.0816  -11.7526   21.0707 C   0  0  0  0  0  0  0  0  0  0  0  0
  -27.1874  -27.4896   20.0851 C   0  0  0  0  0  0  0  0  0  0  0  0
  -28.1861  -23.6866   18.0493 C   0  0  0  0  0  0  0  0  0  0  0  0
  -23.2362   -9.6002   21.4888 C   0  0  0  0  0  0  0  0  0  0  0  0
  -23.5251   -6.8328   21.2877 C   0  0  0  0  0  0  0  0  0  0  0  0
  -23.3389   -8.9990   20.2344 C   0  0  0  0  0  0  0  0  0  0  0  0
  -27.1513  -14.1740   19.4546 C   0  0  0  0  0  0  0  0  0  0  0  0
  -28.6968  -15.0495   18.1585 C   0  0  0  0  0  0  0  0  0  0  0  0
  -27.5714  -13.0414   17.1840 C   0  0  0  0  0  0  0  0  0  0  0  0
  -22.4982  -28.9156   22.4178 C   0  0  0  0  0  0  0  0  0  0  0  0
  -21.6049  -25.7999   22.2876 C   0  0  0  0  0  0  0  0  0  0  0  0
  -22.3957  -22.5927   21.4301 C   0  0  0  0  0  0  0  0  0  0  0  0
  -28.9596  -20.4016   20.8026 C   0  0  0  0  0  0  0  0  0  0  0  0
  -19.0570  -32.1679   24.3253 C   0  0  0  0  0  0  0  0  0  0  0  0
  -22.9723  -28.3566   20.0056 C   0  0  0  0  0  0  0  0  0  0  0  0
  -24.0377  -26.2961   21.8397 C   0  0  0  0  0  0  0  0  0  0  0  0
  -19.4370  -30.7106   24.5741 C   0  0  0  0  0  0  0  0  0  0  0  0
  -31.3884  -17.8059   21.0031 C   0  0  0  0  0  0  0  0  0  0  0  0
  -20.9465  -30.5745   24.7465 C   0  0  0  0  0  0  0  0  0  0  0  0
  -30.6370  -16.5674   20.5095 C   0  0  0  0  0  0  0  0  0  0  0  0
  -30.4866  -18.7272   21.8225 C   0  0  0  0  0  0  0  0  0  0  0  0
  -28.4820  -17.8777   20.6696 C   0  0  0  0  0  0  0  0  0  0  0  0
  -21.6886  -31.0154   23.4790 C   0  0  1  0  0  0  0  0  0  0  0  0
  -22.2394  -27.9635   21.2846 C   0  0  1  0  0  0  0  0  0  0  0  0
  -29.3322  -16.9515   19.7847 C   0  0  2  0  0  0  0  0  0  0  0  0
  -21.4790  -20.2572   21.4801 C   0  0  0  0  0  0  0  0  0  0  0  0
  -22.1896  -25.6371   25.2778 C   0  0  0  0  0  0  0  0  0  0  0  0
  -22.1828  -23.1419   25.0724 C   0  0  0  0  0  0  0  0  0  0  0  0
  -20.1168  -24.4399   24.5534 C   0  0  0  0  0  0  0  0  0  0  0  0
  -22.5022  -22.3636   18.4813 C   0  0  0  0  0  0  0  0  0  0  0  0
  -30.4184  -26.4363   18.8350 C   0  0  0  0  0  0  0  0  0  0  0  0
  -29.2392  -27.3951   18.8863 C   0  0  0  0  0  0  0  0  0  1  0  0
  -29.9755  -24.9845   18.9264 C   0  0  0  0  0  0  0  0  0  0  0  0
  -22.0700  -24.5258   22.9504 C   0  0  1  0  0  0  0  0  0  0  0  0
  -21.6209  -21.5341   20.6663 C   0  0  2  0  0  0  0  0  0  0  0  0
  -21.6573  -24.4520   24.4476 C   0  0  0  0  0  0  0  0  0  0  0  0
  -27.6194  -15.2150   20.1483 N   0  0  0  0  0  0  0  0  0  0  0  0
  -28.5579  -15.7270   19.3340 N   0  0  0  0  0  0  0  0  0  0  0  0
  -22.6055  -26.6270   21.7578 N   0  0  0  0  0  0  0  0  0  0  0  0
  -29.2723  -19.0521   21.0709 N   0  0  0  0  0  0  0  0  0  0  0  0
  -29.5949  -15.4300   17.2252 N   0  0  0  0  0  0  0  0  0  0  0  0
  -26.5968  -12.0569   17.3962 N   0  0  0  0  0  0  0  0  0  0  0  0
  -27.7986  -20.5863   20.0526 N   0  0  0  0  0  0  0  0  0  0  0  0
  -21.6207  -29.9819   22.4683 N   0  0  0  0  0  0  0  0  0  0  0  0
  -21.5571  -23.4305   22.1345 N   0  0  0  0  0  0  0  0  0  0  0  0
  -22.3159  -21.2033   19.3902 N   0  3  0  0  0  0  0  0  0  0  0  0
  -28.2361  -13.0281   16.1202 O   0  0  0  0  0  0  0  0  0  0  0  0
  -23.4244  -28.6981   23.1901 O   0  0  0  0  0  0  0  0  0  0  0  0
  -20.3978  -26.0486   22.2352 O   0  0  0  0  0  0  0  0  0  0  0  0
  -23.6223  -22.6666   21.4073 O   0  0  0  0  0  0  0  0  0  0  0  0
  -29.6841  -21.3240   21.1851 O   0  0  0  0  0  0  0  0  0  0  0  0
  -23.0936  -10.9739   21.5903 O   0  0  0  0  0  0  0  0  0  0  0  0
  -28.5197  -27.2131   20.1052 O   0  0  0  0  0  0  0  0  0  1  0  0
  -29.1137  -24.6737   17.8399 O   0  0  0  0  0  0  0  0  0  0  0  0
  -23.6653   -5.5042   21.1914 F   0  0  0  0  0  0  0  0  0  0  0  0
  -23.3007   -9.7458   19.1223 F   0  0  0  0  0  0  0  0  0  0  0  0
  1  2  1  0  0  0  0
  1  6  2  0  0  0  0
  2  7  2  0  0  0  0
  3  9  1  0  0  0  0
  3 10  2  0  0  0  0
  4 11  2  0  0  0  0
  4 19  1  0  0  0  0
  5 12  1  0  0  0  0
  5 19  2  0  0  0  0
  6 21  1  0  0  0  0
  7 23  1  0  0  0  0
  8 13  2  0  0  0  0
  8 22  1  0  0  0  0
  9 25  2  0  0  0  0
 10 28  1  0  0  0  0
 11 26  1  0  0  0  0
 12 26  2  0  0  0  0
 13 27  1  0  0  0  0
 14 15  2  0  0  0  0
 14 29  1  0  0  0  0
 15 30  1  0  0  0  0
 16 24  1  0  0  0  0
 16 27  2  0  0  0  0
 17 25  1  0  0  0  0
 17 28  2  0  0  0  0
 18 30  2  0  0  0  0
 18 31  1  0  0  0  0
 19 32  1  0  0  0  0
 20 32  1  0  0  0  0
 20 33  2  0  0  0  0
 20 34  1  0  0  0  0
 21 23  2  0  0  0  0
 21 39  1  0  0  0  0
 22 24  2  0  0  0  0
 22 40  1  0  0  0  0
 23 48  1  0  0  0  0
 24 41  1  0  0  0  0
 25 68  1  0  0  0  0
 26 77  1  0  0  0  0
 27 78  1  0  0  0  0
 28 79  1  0  0  0  0
 29 31  2  0  0  0  0
 29 77  1  0  0  0  0
 30 80  1  0  0  0  0
 31 81  1  0  0  0  0
 32 62  2  0  0  0  0
 33 63  1  0  0  0  0
 33 66  1  0  0  0  0
 34 67  1  0  0  0  0
 34 72  2  0  0  0  0
 35 49  1  0  0  0  0
 35 69  1  0  0  0  0
 35 73  2  0  0  0  0
 36 59  1  0  0  0  0
 36 64  1  0  0  0  0
 36 74  2  0  0  0  0
 37 60  1  0  0  0  0
 37 70  1  0  0  0  0
 37 75  2  0  0  0  0
 38 65  1  0  0  0  0
 38 68  1  0  0  0  0
 38 76  2  0  0  0  0
 39 42  1  0  0  0  0
 40 49  1  0  0  0  0
 41 64  1  0  0  0  0
 42 44  1  0  0  0  0
 43 45  1  0  0  0  0
 43 46  1  0  0  0  0
 44 48  1  0  0  0  0
 45 50  1  0  0  0  0
 46 65  1  0  0  0  0
 47 50  1  0  0  0  0
 47 65  1  0  0  0  0
 48 69  1  0  0  0  0
 49 64  1  0  0  0  0
 50 63  1  0  0  0  0
 51 60  1  0  0  0  0
 52 61  1  0  0  0  0
 53 61  1  0  0  0  0
 54 61  1  0  0  0  0
 55 71  1  0  0  0  0
 56 57  1  0  0  0  0
 56 58  1  0  0  0  0
 57 78  1  0  0  0  0
 58 79  1  0  0  0  0
 59 61  1  0  0  0  0
 59 70  1  0  0  0  0
 60 71  1  0  0  0  0
 62 63  1  0  0  0  0
M  CHG  1  71   1
M  ISO  4  38 100  57 101  68 100  78 101
M  END
> <Batch ID>
0138

> <Smiles>
CNC(C)C(=O)NC(C(=O)N1Cc2cc([101O:1][101CH2:1]CCOc3cccc([100NH:0][100C:0](=O)N4CCCC(n5nc(-c6ccc(Oc7ccc(F)cc7F)cc6)c(C(N)=O)c5N)C4)c3)ccc2CC1C(=O)NC1CCCc2ccccc21)C(C)(C)C

> <Shape>
0.241

> <Color>
0.090

> <Negative vol penalty>
0.000

$$$$

  -OEChem-04052302453D

 84 92  0     1  0  0  0  0  0999 V2000
  -19.2211  -27.0120   26.2442 C   0  0  0  0  0  0  0  0  0  0  0  0
  -20.6074  -27.0705   26.1430 C   0  0  0  0  0  0  0  0  0  0  0  0
  -26.6754  -12.8957   20.7957 C   0  0  0  0  0  0  0  0  0  0  0  0
  -25.3433  -14.6532   19.8088 C   0  0  0  0  0  0  0  0  0  0  0  0
  -18.4394  -26.9889   25.0899 C   0  0  0  0  0  0  0  0  0  0  0  0
  -21.2128  -27.1047   24.8873 C   0  0  0  0  0  0  0  0  0  0  0  0
  -26.3253  -30.1034   23.3460 C   0  0  0  0  0  0  0  0  0  0  0  0
  -25.5204  -12.3134   21.3178 C   0  0  0  0  0  0  0  0  0  0  0  0
  -24.1883  -14.0708   20.3308 C   0  0  0  0  0  0  0  0  0  0  0  0
  -27.6502  -29.6908   23.2106 C   0  0  0  0  0  0  0  0  0  0  0  0
  -22.9827  -10.3783   20.2005 C   0  0  0  0  0  0  0  0  0  0  0  0
  -22.8377   -8.9971   20.0710 C   0  0  0  0  0  0  0  0  0  0  0  0
  -27.3148  -29.4129   20.8380 C   0  0  0  0  0  0  0  0  0  0  0  0
  -27.8342  -24.5453   20.4245 C   0  0  0  0  0  0  0  0  0  0  0  0
  -27.9985  -22.3340   19.4654 C   0  0  0  0  0  0  0  0  0  0  0  0
  -29.5590  -23.0286   21.1739 C   0  0  0  0  0  0  0  0  0  0  0  0
  -22.7397   -8.7819   22.4754 C   0  0  0  0  0  0  0  0  0  0  0  0
  -26.5868  -14.0656   20.0412 C   0  0  0  0  0  0  0  0  0  0  0  0
  -28.3696  -14.4122   18.2498 C   0  0  0  0  0  0  0  0  0  0  0  0
  -19.0352  -27.0327   23.8196 C   0  0  0  0  0  0  0  0  0  0  0  0
  -25.4808  -30.1636   22.2281 C   0  0  0  0  0  0  0  0  0  0  0  0
  -20.4384  -27.0808   23.7150 C   0  0  0  0  0  0  0  0  0  0  0  0
  -25.9804  -29.8291   20.9614 C   0  0  0  0  0  0  0  0  0  0  0  0
  -27.3688  -23.5767   19.5353 C   0  0  0  0  0  0  0  0  0  0  0  0
  -28.9294  -24.2712   21.2439 C   0  0  0  0  0  0  0  0  0  0  0  0
  -29.0936  -22.0599   20.2847 C   0  0  0  0  0  0  0  0  0  0  0  0
  -24.2769  -12.9009   21.0853 C   0  0  0  0  0  0  0  0  0  0  0  0
  -28.1443  -29.3426   21.9569 C   0  0  0  0  0  0  0  0  0  0  0  0
  -23.0063  -10.9614   21.4675 C   0  0  0  0  0  0  0  0  0  0  0  0
  -22.7161   -8.1989   21.2084 C   0  0  0  0  0  0  0  0  0  0  0  0
  -22.8848  -10.1631   22.6049 C   0  0  0  0  0  0  0  0  0  0  0  0
  -27.7796  -14.6680   19.5021 C   0  0  0  0  0  0  0  0  0  0  0  0
  -29.4723  -15.2304   18.2163 C   0  0  0  0  0  0  0  0  0  0  0  0
  -27.9577  -13.5154   17.2098 C   0  0  0  0  0  0  0  0  0  0  0  0
  -22.7845  -28.7135   21.3733 C   0  0  0  0  0  0  0  0  0  0  0  0
  -22.9163  -30.7876   18.8827 C   0  0  0  0  0  0  0  0  0  0  0  0
  -24.8188  -32.7857   16.8740 C   0  0  0  0  0  0  0  0  0  0  0  0
  -30.8312  -20.3639   20.9560 C   0  0  0  0  0  0  0  0  0  0  0  0
  -18.1509  -26.9578   22.6001 C   0  0  0  0  0  0  0  0  0  0  0  0
  -24.0617  -30.6363   22.3868 C   0  0  0  0  0  0  0  0  0  0  0  0
  -25.1204  -29.8960   19.7267 C   0  0  0  0  0  0  0  0  0  0  0  0
  -18.8542  -27.3753   21.3112 C   0  0  0  0  0  0  0  0  0  0  0  0
  -32.6735  -17.3205   21.1004 C   0  0  0  0  0  0  0  0  0  0  0  0
  -20.2246  -26.7127   21.2121 C   0  0  0  0  0  0  0  0  0  0  0  0
  -31.6833  -16.2726   20.5872 C   0  0  0  0  0  0  0  0  0  0  0  0
  -31.9806  -18.3925   21.9397 C   0  0  0  0  0  0  0  0  0  0  0  0
  -29.8442  -17.9953   20.7790 C   0  0  0  0  0  0  0  0  0  0  0  0
  -21.1312  -27.1444   22.3710 C   0  0  1  0  0  0  0  0  0  0  0  0
  -23.1462  -30.1674   21.2601 C   0  0  1  0  0  0  0  0  0  0  0  0
  -30.4855  -16.9305   19.8744 C   0  0  2  0  0  0  0  0  0  0  0  0
  -26.1980  -23.8698   18.6592 C   0  0  0  0  0  0  0  0  0  0  0  0
  -24.6502  -34.3277   14.9014 C   0  0  0  0  0  0  0  0  0  0  0  0
  -22.6545  -28.3802   17.0264 C   0  0  0  0  0  0  0  0  0  0  0  0
  -23.4360  -29.8345   15.1443 C   0  0  0  0  0  0  0  0  0  0  0  0
  -21.3151  -30.3775   16.3399 C   0  0  0  0  0  0  0  0  0  0  0  0
  -32.2275  -28.0702   21.7259 C   0  0  0  0  0  0  0  0  0  0  0  0
  -31.7488  -26.6488   23.7353 C   0  0  0  0  0  0  0  0  0  0  0  0
  -25.8151  -35.0893   18.4425 C   0  0  0  0  0  0  0  0  0  0  0  0
  -29.4329  -25.3197   22.2064 C   0  0  0  0  0  0  0  0  0  0  0  0
  -30.4996  -26.2106   21.5546 C   0  0  0  0  0  0  0  0  0  0  0  0
  -30.0290  -28.2732   22.9368 C   0  0  0  0  0  0  0  0  0  1  0  0
  -23.5269  -30.7632   17.5023 C   0  0  1  0  0  0  0  0  0  0  0  0
  -24.6360  -34.2222   16.4184 C   0  0  2  0  0  0  0  0  0  0  0  0
  -22.7490  -29.8356   16.5266 C   0  0  0  0  0  0  0  0  0  0  0  0
  -31.1338  -27.2896   22.4785 C   0  0  0  0  0  0  0  0  0  0  0  0
  -28.4518  -15.5773   20.2128 N   0  0  0  0  0  0  0  0  0  0  0  0
  -29.4758  -15.9001   19.4044 N   0  0  0  0  0  0  0  0  0  0  0  0
  -23.7381  -30.3582   19.9344 N   0  0  0  0  0  0  0  0  0  0  0  0
  -30.8593  -18.9742   21.1987 N   0  0  0  0  0  0  0  0  0  0  0  0
  -30.4296  -15.4351   17.2868 N   0  0  0  0  0  0  0  0  0  0  0  0
  -26.8012  -12.7488   17.4078 N   0  0  0  0  0  0  0  0  0  0  0  0
  -29.7332  -20.7975   20.2138 N   0  0  0  0  0  0  0  0  0  0  0  0
  -21.6566  -28.4719   22.1343 N   0  0  0  0  0  0  0  0  0  0  0  0
  -23.6089  -32.1534   17.0676 N   0  0  0  0  0  0  0  0  0  0  0  0
  -25.7279  -35.0801   16.9595 N   0  3  0  0  0  0  0  0  0  0  0  0
  -28.6055  -13.3852   16.1435 O   0  0  0  0  0  0  0  0  0  0  0  0
  -23.4765  -27.8731   20.8106 O   0  0  0  0  0  0  0  0  0  0  0  0
  -21.7554  -31.1801   19.0237 O   0  0  0  0  0  0  0  0  0  0  0  0
  -25.9244  -32.2745   17.0380 O   0  0  0  0  0  0  0  0  0  0  0  0
  -31.7300  -21.1102   21.3525 O   0  0  0  0  0  0  0  0  0  0  0  0
  -23.1496  -12.3329   21.5944 O   0  0  0  0  0  0  0  0  0  0  0  0
  -29.4368  -28.9389   21.8221 O   0  0  0  0  0  0  0  0  0  1  0  0
  -22.5753   -6.8727   21.0838 F   0  0  0  0  0  0  0  0  0  0  0  0
  -22.9056  -10.7176   23.8247 F   0  0  0  0  0  0  0  0  0  0  0  0
  1  2  1  0  0  0  0
  1  5  2  0  0  0  0
  2  6  2  0  0  0  0
  3  8  2  0  0  0  0
  3 18  1  0  0  0  0
  4  9  1  0  0  0  0
  4 18  2  0  0  0  0
  5 20  1  0  0  0  0
  6 22  1  0  0  0  0
  7 10  2  0  0  0  0
  7 21  1  0  0  0  0
  8 27  1  0  0  0  0
  9 27  2  0  0  0  0
 10 28  1  0  0  0  0
 11 12  2  0  0  0  0
 11 29  1  0  0  0  0
 12 30  1  0  0  0  0
 13 23  1  0  0  0  0
 13 28  2  0  0  0  0
 14 24  2  0  0  0  0
 14 25  1  0  0  0  0
 15 24  1  0  0  0  0
 15 26  2  0  0  0  0
 16 25  2  0  0  0  0
 16 26  1  0  0  0  0
 17 30  2  0  0  0  0
 17 31  1  0  0  0  0
 18 32  1  0  0  0  0
 19 32  1  0  0  0  0
 19 33  2  0  0  0  0
 19 34  1  0  0  0  0
 20 22  2  0  0  0  0
 20 39  1  0  0  0  0
 21 23  2  0  0  0  0
 21 40  1  0  0  0  0
 22 48  1  0  0  0  0
 23 41  1  0  0  0  0
 24 51  1  0  0  0  0
 25 59  1  0  0  0  0
 26 72  1  0  0  0  0
 27 81  1  0  0  0  0
 28 82  1  0  0  0  0
 29 31  2  0  0  0  0
 29 81  1  0  0  0  0
 30 83  1  0  0  0  0
 31 84  1  0  0  0  0
 32 66  2  0  0  0  0
 33 67  1  0  0  0  0
 33 70  1  0  0  0  0
 34 71  1  0  0  0  0
 34 76  2  0  0  0  0
 35 49  1  0  0  0  0
 35 73  1  0  0  0  0
 35 77  2  0  0  0  0
 36 62  1  0  0  0  0
 36 68  1  0  0  0  0
 36 78  2  0  0  0  0
 37 63  1  0  0  0  0
 37 74  1  0  0  0  0
 37 79  2  0  0  0  0
 38 69  1  0  0  0  0
 38 72  1  0  0  0  0
 38 80  2  0  0  0  0
 39 42  1  0  0  0  0
 40 49  1  0  0  0  0
 41 68  1  0  0  0  0
 42 44  1  0  0  0  0
 43 45  1  0  0  0  0
 43 46  1  0  0  0  0
 44 48  1  0  0  0  0
 45 50  1  0  0  0  0
 46 69  1  0  0  0  0
 47 50  1  0  0  0  0
 47 69  1  0  0  0  0
 48 73  1  0  0  0  0
 49 68  1  0  0  0  0
 50 67  1  0  0  0  0
 52 63  1  0  0  0  0
 53 64  1  0  0  0  0
 54 64  1  0  0  0  0
 55 64  1  0  0  0  0
 56 65  1  0  0  0  0
 57 65  1  0  0  0  0
 58 75  1  0  0  0  0
 59 60  1  0  0  0  0
 60 65  1  0  0  0  0
 61 65  1  0  0  0  0
 61 82  1  0  0  0  0
 62 64  1  0  0  0  0
 62 74  1  0  0  0  0
 63 75  1  0  0  0  0
 66 67  1  0  0  0  0
M  CHG  1  75   1
M  ISO  4  38 100  61 101  72 100  82 101
M  END
> <Batch ID>
0138

> <Smiles>
CNC(C)C(=O)NC(C(=O)N1Cc2cc([101O:1][101CH2:1]C(C)(C)CCc3cc(C)cc([100NH:0][100C:0](=O)N4CCCC(n5nc(-c6ccc(Oc7ccc(F)cc7F)cc6)c(C(N)=O)c5N)C4)c3)ccc2CC1C(=O)NC1CCCc2ccccc21)C(C)(C)C

> <Shape>
0.264

> <Color>
0.064

> <Negative vol penalty>
0.000

$$$$

  -OEChem-04052302453D

 84 93  0     1  0  0  0  0  0999 V2000
  -18.7944  -33.4411   21.0017 C   0  0  0  0  0  0  0  0  0  0  0  0
  -20.0904  -33.1575   20.5827 C   0  0  0  0  0  0  0  0  0  0  0  0
  -36.2332  -26.6980   20.2587 C   0  0  0  0  0  0  0  0  0  0  0  0
  -28.7769  -17.7208   19.9627 C   0  0  0  0  0  0  0  0  0  0  0  0
  -31.0174  -17.9899   20.8257 C   0  0  0  0  0  0  0  0  0  0  0  0
  -18.2831  -32.8290   22.1452 C   0  0  0  0  0  0  0  0  0  0  0  0
  -20.8761  -32.2624   21.3078 C   0  0  0  0  0  0  0  0  0  0  0  0
  -25.0197  -28.3491   19.0666 C   0  0  0  0  0  0  0  0  0  0  0  0
  -36.1857  -26.0826   19.0079 C   0  0  0  0  0  0  0  0  0  0  0  0
  -35.0964  -27.3220   20.7726 C   0  0  0  0  0  0  0  0  0  0  0  0
  -28.7880  -16.3813   20.3514 C   0  0  0  0  0  0  0  0  0  0  0  0
  -31.0285  -16.6504   21.2145 C   0  0  0  0  0  0  0  0  0  0  0  0
  -26.4084  -28.4122   18.9608 C   0  0  0  0  0  0  0  0  0  0  0  0
  -30.0605  -13.4666   19.2071 C   0  0  0  0  0  0  0  0  0  0  0  0
  -29.5832  -12.5242   18.2962 C   0  0  0  0  0  0  0  0  0  0  0  0
  -26.6156  -27.1698   21.0182 C   0  0  0  0  0  0  0  0  0  0  0  0
  -33.8647  -26.7152   18.7848 C   0  0  0  0  0  0  0  0  0  0  0  0
  -27.8857  -11.8537   19.8793 C   0  0  0  0  0  0  0  0  0  0  0  0
  -29.8916  -18.5251   20.1998 C   0  0  0  0  0  0  0  0  0  0  0  0
  -29.4547  -21.0124   20.5610 C   0  0  0  0  0  0  0  0  0  0  0  0
  -19.0595  -31.9186   22.8793 C   0  0  0  0  0  0  0  0  0  0  0  0
  -24.4175  -27.7042   20.1565 C   0  0  0  0  0  0  0  0  0  0  0  0
  -20.3751  -31.6385   22.4631 C   0  0  0  0  0  0  0  0  0  0  0  0
  -25.2190  -27.0977   21.1342 C   0  0  0  0  0  0  0  0  0  0  0  0
  -35.0015  -26.0912   18.2709 C   0  0  0  0  0  0  0  0  0  0  0  0
  -33.9122  -27.3306   20.0356 C   0  0  0  0  0  0  0  0  0  0  0  0
  -29.9138  -15.8461   20.9774 C   0  0  0  0  0  0  0  0  0  0  0  0
  -27.2066  -27.8251   19.9381 C   0  0  0  0  0  0  0  0  0  0  0  0
  -29.4504  -13.6025   20.4541 C   0  0  0  0  0  0  0  0  0  0  0  0
  -28.4958  -11.7178   18.6322 C   0  0  0  0  0  0  0  0  0  0  0  0
  -28.3630  -12.7961   20.7902 C   0  0  0  0  0  0  0  0  0  0  0  0
  -29.8810  -19.9088   19.7980 C   0  0  0  0  0  0  0  0  0  0  0  0
  -29.6436  -22.0939   19.7358 C   0  0  0  0  0  0  0  0  0  0  0  0
  -30.5873  -28.6174   20.8484 C   0  0  0  0  0  0  0  0  0  0  0  0
  -29.2552  -28.5001   20.8428 C   0  0  0  0  0  0  0  0  0  1  0  0
  -28.9346  -21.0559   21.8964 C   0  0  0  0  0  0  0  0  0  0  0  0
  -22.4982  -28.6150   22.5210 C   0  0  0  0  0  0  0  0  0  0  0  0
  -22.4450  -25.4391   23.1791 C   0  0  0  0  0  0  0  0  0  0  0  0
  -23.9808  -22.4019   22.9270 C   0  0  0  0  0  0  0  0  0  0  0  0
  -33.3023  -24.0500   15.6982 C   0  0  0  0  0  0  0  0  0  0  0  0
  -18.4801  -31.3179   24.1355 C   0  0  0  0  0  0  0  0  0  0  0  0
  -22.9180  -27.6217   20.2422 C   0  0  0  0  0  0  0  0  0  0  0  0
  -24.6218  -26.3758   22.3134 C   0  0  0  0  0  0  0  0  0  0  0  0
  -31.3882  -29.2798   21.9243 C   0  0  0  0  0  0  0  0  0  0  0  0
  -31.5089  -28.0022   19.8386 C   0  0  0  0  0  0  0  0  0  0  0  0
  -19.2463  -30.0961   24.6360 C   0  0  0  0  0  0  0  0  0  0  0  0
  -30.1134  -22.7109   14.8531 C   0  0  0  0  0  0  0  0  0  0  0  0
  -20.7473  -30.3677   24.6292 C   0  0  0  0  0  0  0  0  0  0  0  0
  -29.6888  -21.9544   16.1130 C   0  0  0  0  0  0  0  0  0  0  0  0
  -32.7046  -28.5085   21.8915 C   0  0  0  0  0  0  0  0  0  0  0  0
  -31.6165  -22.5993   14.6074 C   0  0  0  0  0  0  0  0  0  0  0  0
  -32.0371  -22.2396   17.0090 C   0  0  0  0  0  0  0  0  0  0  0  0
  -21.2497  -30.6543   23.2090 C   0  0  1  0  0  0  0  0  0  0  0  0
  -22.4128  -27.3851   21.6621 C   0  0  1  0  0  0  0  0  0  0  0  0
  -30.5381  -22.3696   17.3293 C   0  0  2  0  0  0  0  0  0  0  0  0
  -23.7143  -19.9981   23.5963 C   0  0  0  0  0  0  0  0  0  0  0  0
  -23.2766  -26.1430   26.0292 C   0  0  0  0  0  0  0  0  0  0  0  0
  -23.9081  -23.7435   26.3633 C   0  0  0  0  0  0  0  0  0  0  0  0
  -21.5411  -24.3502   25.8616 C   0  0  0  0  0  0  0  0  0  0  0  0
  -23.9199  -21.5029   20.1079 C   0  0  0  0  0  0  0  0  0  0  0  0
  -34.9513  -25.4337   16.9334 C   0  0  0  0  0  0  0  0  0  0  0  0
  -23.2763  -24.5095   24.0298 C   0  0  1  0  0  0  0  0  0  0  0  0
  -23.4548  -21.0380   22.5175 C   0  0  2  0  0  0  0  0  0  0  0  0
  -23.0121  -24.7018   25.5499 C   0  0  0  0  0  0  0  0  0  0  0  0
  -30.3083  -20.2573   18.5814 N   0  0  0  0  0  0  0  0  0  0  0  0
  -30.1514  -21.5919   18.5737 N   0  0  0  0  0  0  0  0  0  0  0  0
  -32.7866  -27.9481   20.5447 N   0  0  3  0  0  0  0  0  0  0  0  0
  -23.1509  -26.3277   22.3558 N   0  0  0  0  0  0  0  0  0  0  0  0
  -32.3646  -23.0090   15.7984 N   0  0  0  0  0  0  0  0  0  0  0  0
  -29.4231  -23.4158   19.8980 N   0  0  0  0  0  0  0  0  0  0  0  0
  -28.8062  -19.8524   22.6030 N   0  0  0  0  0  0  0  0  0  0  0  0
  -21.3785  -29.4225   22.4603 N   0  0  0  0  0  0  0  0  0  0  0  0
  -23.0080  -23.1607   23.5426 N   0  0  0  0  0  0  0  0  0  0  0  0
  -33.9628  -24.3799   16.8754 N   0  0  0  0  0  0  0  0  0  0  0  0
  -24.1135  -20.5850   21.2598 N   0  3  0  0  0  0  0  0  0  0  0  0
  -28.5785  -22.1285   22.4408 O   0  0  0  0  0  0  0  0  0  0  0  0
  -23.5048  -28.8156   23.1905 O   0  0  0  0  0  0  0  0  0  0  0  0
  -21.2145  -25.3741   23.2375 O   0  0  0  0  0  0  0  0  0  0  0  0
  -25.1399  -22.7570   22.7245 O   0  0  0  0  0  0  0  0  0  0  0  0
  -33.5300  -24.6451   14.6395 O   0  0  0  0  0  0  0  0  0  0  0  0
  -29.9249  -14.5391   21.3571 O   0  0  0  0  0  0  0  0  0  0  0  0
  -28.5624  -27.8858   19.8376 O   0  0  0  0  0  0  0  0  0  1  0  0
  -28.0366  -10.8139   17.7568 F   0  0  0  0  0  0  0  0  0  0  0  0
  -27.7721  -12.9228   21.9862 F   0  0  0  0  0  0  0  0  0  0  0  0
  1  2  1  0  0  0  0
  1  6  2  0  0  0  0
  2  7  2  0  0  0  0
  3  9  1  0  0  0  0
  3 10  2  0  0  0  0
  4 11  2  0  0  0  0
  4 19  1  0  0  0  0
  5 12  1  0  0  0  0
  5 19  2  0  0  0  0
  6 21  1  0  0  0  0
  7 23  1  0  0  0  0
  8 13  2  0  0  0  0
  8 22  1  0  0  0  0
  9 25  2  0  0  0  0
 10 26  1  0  0  0  0
 11 27  1  0  0  0  0
 12 27  2  0  0  0  0
 13 28  1  0  0  0  0
 14 15  2  0  0  0  0
 14 29  1  0  0  0  0
 15 30  1  0  0  0  0
 16 24  1  0  0  0  0
 16 28  2  0  0  0  0
 17 25  1  0  0  0  0
 17 26  2  0  0  0  0
 18 30  2  0  0  0  0
 18 31  1  0  0  0  0
 19 32  1  0  0  0  0
 20 32  1  0  0  0  0
 20 33  2  0  0  0  0
 20 36  1  0  0  0  0
 21 23  2  0  0  0  0
 21 41  1  0  0  0  0
 22 24  2  0  0  0  0
 22 42  1  0  0  0  0
 23 53  1  0  0  0  0
 24 43  1  0  0  0  0
 25 61  1  0  0  0  0
 26 67  1  0  0  0  0
 27 81  1  0  0  0  0
 28 82  1  0  0  0  0
 29 31  2  0  0  0  0
 29 81  1  0  0  0  0
 30 83  1  0  0  0  0
 31 84  1  0  0  0  0
 32 65  2  0  0  0  0
 33 66  1  0  0  0  0
 33 70  1  0  0  0  0
 34 35  2  0  0  0  0
 34 44  1  0  0  0  0
 34 45  1  0  0  0  0
 35 82  1  0  0  0  0
 36 71  1  0  0  0  0
 36 76  2  0  0  0  0
 37 54  1  0  0  0  0
 37 72  1  0  0  0  0
 37 77  2  0  0  0  0
 38 62  1  0  0  0  0
 38 68  1  0  0  0  0
 38 78  2  0  0  0  0
 39 63  1  0  0  0  0
 39 73  1  0  0  0  0
 39 79  2  0  0  0  0
 40 69  1  0  0  0  0
 40 74  1  0  0  0  0
 40 80  2  0  0  0  0
 41 46  1  0  0  0  0
 42 54  1  0  0  0  0
 43 68  1  0  0  0  0
 44 50  1  0  0  0  0
 45 67  1  0  0  0  0
 46 48  1  0  0  0  0
 47 49  1  0  0  0  0
 47 51  1  0  0  0  0
 48 53  1  0  0  0  0
 49 55  1  0  0  0  0
 50 67  1  0  0  0  0
 51 69  1  0  0  0  0
 52 55  1  0  0  0  0
 52 69  1  0  0  0  0
 53 72  1  0  0  0  0
 54 68  1  0  0  0  0
 55 66  1  0  0  0  0
 56 63  1  0  0  0  0
 57 64  1  0  0  0  0
 58 64  1  0  0  0  0
 59 64  1  0  0  0  0
 60 75  1  0  0  0  0
 61 74  1  0  0  0  0
 62 64  1  0  0  0  0
 62 73  1  0  0  0  0
 63 75  1  0  0  0  0
 65 66  1  0  0  0  0
M  CHG  1  75   1
M  ISO  4  35 101  40 100  74 100  82 101
M  END
> <Batch ID>
0138

> <Smiles>
CNC(C)C(=O)NC(C(=O)N1Cc2cc([101O:1][101CH:1]=C3CCN(c4cccc(C[100NH:0][100C:0](=O)N5CCCC(n6nc(-c7ccc(Oc8ccc(F)cc8F)cc7)c(C(N)=O)c6N)C5)c4)C3)ccc2CC1C(=O)NC1CCCc2ccccc21)C(C)(C)C

> <Shape>
0.200

> <Color>
0.084

> <Negative vol penalty>
0.000

$$$$

  -OEChem-04052302453D

 87 95  0     1  0  0  0  0  0999 V2000
  -32.4343  -14.6064   20.5906 C   0  0  0  0  0  0  0  0  0  0  0  0
  -31.6101  -15.7265   20.6277 C   0  0  0  0  0  0  0  0  0  0  0  0
  -27.4840  -23.2537   18.9281 C   0  0  0  0  0  0  0  0  0  0  0  0
  -28.8355  -23.6518   20.8907 C   0  0  0  0  0  0  0  0  0  0  0  0
  -31.9003  -13.3598   20.2669 C   0  0  0  0  0  0  0  0  0  0  0  0
  -30.2514  -15.6008   20.3401 C   0  0  0  0  0  0  0  0  0  0  0  0
  -25.6470  -18.7518   22.8652 C   0  0  0  0  0  0  0  0  0  0  0  0
  -20.2013  -28.2020   23.5135 C   0  0  0  0  0  0  0  0  0  0  0  0
  -27.8311  -21.9032   18.9629 C   0  0  0  0  0  0  0  0  0  0  0  0
  -29.1826  -22.3013   20.9257 C   0  0  0  0  0  0  0  0  0  0  0  0
  -24.9290  -19.8680   22.4381 C   0  0  0  0  0  0  0  0  0  0  0  0
  -28.6495  -18.4181   18.3245 C   0  0  0  0  0  0  0  0  0  0  0  0
  -18.8600  -27.8407   23.6403 C   0  0  0  0  0  0  0  0  0  0  0  0
  -29.0120  -17.8088   17.1232 C   0  0  0  0  0  0  0  0  0  0  0  0
  -23.2133  -18.4196   21.5564 C   0  0  0  0  0  0  0  0  0  0  0  0
  -18.9261  -26.8263   21.4485 C   0  0  0  0  0  0  0  0  0  0  0  0
  -30.8353  -19.3751   16.8792 C   0  0  0  0  0  0  0  0  0  0  0  0
  -27.9862  -24.1281   19.8919 C   0  0  0  0  0  0  0  0  0  0  0  0
  -27.8722  -26.4369   18.8131 C   0  0  0  0  0  0  0  0  0  0  0  0
  -30.5326  -13.2171   19.9846 C   0  0  0  0  0  0  0  0  0  0  0  0
  -25.1579  -17.4586   22.6310 C   0  0  0  0  0  0  0  0  0  0  0  0
  -29.6989  -14.3513   20.0111 C   0  0  0  0  0  0  0  0  0  0  0  0
  -23.9257  -17.2887   21.9838 C   0  0  0  0  0  0  0  0  0  0  0  0
  -20.2673  -27.1877   21.3217 C   0  0  0  0  0  0  0  0  0  0  0  0
  -20.9049  -27.8756   22.3542 C   0  0  0  0  0  0  0  0  0  0  0  0
  -28.6804  -21.4270   19.9617 C   0  0  0  0  0  0  0  0  0  0  0  0
  -23.7134  -19.7020   21.7810 C   0  0  0  0  0  0  0  0  0  0  0  0
  -29.3798  -19.5059   18.8031 C   0  0  0  0  0  0  0  0  0  0  0  0
  -18.2224  -27.1529   22.6078 C   0  0  0  0  0  0  0  0  0  0  0  0
  -30.1049  -18.2873   16.4006 C   0  0  0  0  0  0  0  0  0  0  0  0
  -30.4727  -19.9844   18.0804 C   0  0  0  0  0  0  0  0  0  0  0  0
  -27.6285  -25.5233   19.8561 C   0  0  0  0  0  0  0  0  0  0  0  0
  -27.3429  -27.6215   19.2636 C   0  0  0  0  0  0  0  0  0  0  0  0
  -28.5191  -26.2329   17.5499 C   0  0  0  0  0  0  0  0  0  0  0  0
  -26.1856  -14.9336   20.9964 C   0  0  0  0  0  0  0  0  0  0  0  0
  -23.0389  -22.7478   19.9410 C   0  0  0  0  0  0  0  0  0  0  0  0
  -23.6174  -13.4949   22.3590 C   0  0  0  0  0  0  0  0  0  0  0  0
  -20.5319  -13.8175   23.7811 C   0  0  0  0  0  0  0  0  0  0  0  0
  -23.0325  -28.9363   23.1875 C   0  0  0  0  0  0  0  0  0  0  0  0
  -30.0101  -11.8574   19.5936 C   0  0  0  0  0  0  0  0  0  0  0  0
  -25.9315  -16.2656   23.1218 C   0  0  0  0  0  0  0  0  0  0  0  0
  -23.3471  -15.9222   21.7260 C   0  0  0  0  0  0  0  0  0  0  0  0
  -28.4895  -11.7447   19.6682 C   0  0  0  0  0  0  0  0  0  0  0  0
  -26.4238  -30.0142   23.3089 C   0  0  0  0  0  0  0  0  0  0  0  0
  -27.8317  -12.9529   19.0092 C   0  0  0  0  0  0  0  0  0  0  0  0
  -27.1387  -29.0720   22.3377 C   0  0  0  0  0  0  0  0  0  0  0  0
  -25.3210  -29.2976   24.0861 C   0  0  0  0  0  0  0  0  0  0  0  0
  -25.0602  -27.6352   22.2868 C   0  0  0  0  0  0  0  0  0  0  0  0
  -28.2154  -14.2512   19.7294 C   0  0  1  0  0  0  0  0  0  0  0  0
  -25.5871  -14.9813   22.3738 C   0  0  1  0  0  0  0  0  0  0  0  0
  -26.1362  -28.3273   21.4343 C   0  0  2  0  0  0  0  0  0  0  0  0
  -18.6631  -12.4597   24.7617 C   0  0  0  0  0  0  0  0  0  0  0  0
  -22.7496  -12.6676   19.5533 C   0  0  0  0  0  0  0  0  0  0  0  0
  -20.4751  -12.1763   20.4771 C   0  0  0  0  0  0  0  0  0  0  0  0
  -22.4554  -10.9016   21.2995 C   0  0  0  0  0  0  0  0  0  0  0  0
  -23.6726  -26.3465   18.5839 C   0  0  0  0  0  0  0  0  0  0  0  0
  -21.8798  -24.7579   17.8741 C   0  0  0  0  0  0  0  0  0  0  0  0
  -20.7994  -15.1384   26.4160 C   0  0  0  0  0  0  0  0  0  0  0  0
  -21.0037  -26.8208   20.0557 C   0  0  0  0  0  0  0  0  0  0  0  0
  -23.7249  -24.0123   19.4466 C   0  0  0  0  0  0  0  0  0  0  0  0
  -23.7614  -21.9511   21.0096 C   0  0  0  0  0  0  0  0  0  1  0  0
  -21.9191  -25.6071   20.2738 C   0  0  0  0  0  0  0  0  0  0  0  0
  -22.1661  -13.3186   21.9826 C   0  0  1  0  0  0  0  0  0  0  0  0
  -19.9416  -13.2308   25.0507 C   0  0  2  0  0  0  0  0  0  0  0  0
  -21.9731  -12.2918   20.8311 C   0  0  0  0  0  0  0  0  0  0  0  0
  -22.7789  -25.1778   19.0507 C   0  0  0  0  0  0  0  0  0  0  0  0
  -26.9939  -26.0799   20.8913 N   0  0  0  0  0  0  0  0  0  0  0  0
  -26.8345  -27.3560   20.5010 N   0  0  0  0  0  0  0  0  0  0  0  0
  -24.1440  -14.7868   22.2193 N   0  0  0  0  0  0  0  0  0  0  0  0
  -24.4070  -28.6185   23.1650 N   0  0  0  0  0  0  0  0  0  0  0  0
  -27.2675  -28.8540   18.7181 N   0  0  0  0  0  0  0  0  0  0  0  0
  -29.9045  -26.4288   17.4694 N   0  0  0  0  0  0  0  0  0  0  0  0
  -22.2668  -28.2512   22.2448 N   0  0  0  0  0  0  0  0  0  0  0  0
  -27.4566  -14.3932   20.9536 N   0  0  0  0  0  0  0  0  0  0  0  0
  -21.4639  -12.9742   23.2142 N   0  0  0  0  0  0  0  0  0  0  0  0
  -19.6270  -14.3143   26.0245 N   0  3  0  0  0  0  0  0  0  0  0  0
  -27.8848  -25.9030   16.5192 O   0  0  0  0  0  0  0  0  0  0  0  0
  -25.5413  -15.3546   20.0428 O   0  0  0  0  0  0  0  0  0  0  0  0
  -21.9441  -22.3990   19.4997 O   0  0  0  0  0  0  0  0  0  0  0  0
  -24.2581  -12.5238   22.7690 O   0  0  0  0  0  0  0  0  0  0  0  0
  -20.1968  -14.9125   23.3349 O   0  0  0  0  0  0  0  0  0  0  0  0
  -22.5732  -29.7759   23.9661 O   0  0  0  0  0  0  0  0  0  0  0  0
  -29.0191  -20.1091   19.9962 O   0  0  0  0  0  0  0  0  0  0  0  0
  -23.0110  -20.7897   21.3625 O   0  0  0  0  0  0  0  0  0  1  0  0
  -16.9346  -26.8054   22.7300 F   0  0  0  0  0  0  0  0  0  0  0  0
  -30.4539  -17.7012   15.2478 F   0  0  0  0  0  0  0  0  0  0  0  0
  -31.1789  -21.0283   18.5357 F   0  0  0  0  0  0  0  0  0  0  0  0
  1  2  1  0  0  0  0
  1  5  2  0  0  0  0
  2  6  2  0  0  0  0
  3  9  2  0  0  0  0
  3 18  1  0  0  0  0
  4 10  1  0  0  0  0
  4 18  2  0  0  0  0
  5 20  1  0  0  0  0
  6 22  1  0  0  0  0
  7 11  2  0  0  0  0
  7 21  1  0  0  0  0
  8 13  2  0  0  0  0
  8 25  1  0  0  0  0
  9 26  1  0  0  0  0
 10 26  2  0  0  0  0
 11 27  1  0  0  0  0
 12 14  2  0  0  0  0
 12 28  1  0  0  0  0
 13 29  1  0  0  0  0
 14 30  1  0  0  0  0
 15 23  1  0  0  0  0
 15 27  2  0  0  0  0
 16 24  1  0  0  0  0
 16 29  2  0  0  0  0
 17 30  2  0  0  0  0
 17 31  1  0  0  0  0
 18 32  1  0  0  0  0
 19 32  1  0  0  0  0
 19 33  2  0  0  0  0
 19 34  1  0  0  0  0
 20 22  2  0  0  0  0
 20 40  1  0  0  0  0
 21 23  2  0  0  0  0
 21 41  1  0  0  0  0
 22 49  1  0  0  0  0
 23 42  1  0  0  0  0
 24 25  2  0  0  0  0
 24 59  1  0  0  0  0
 25 73  1  0  0  0  0
 26 83  1  0  0  0  0
 27 84  1  0  0  0  0
 28 31  2  0  0  0  0
 28 83  1  0  0  0  0
 29 85  1  0  0  0  0
 30 86  1  0  0  0  0
 31 87  1  0  0  0  0
 32 67  2  0  0  0  0
 33 68  1  0  0  0  0
 33 71  1  0  0  0  0
 34 72  1  0  0  0  0
 34 77  2  0  0  0  0
 35 50  1  0  0  0  0
 35 74  1  0  0  0  0
 35 78  2  0  0  0  0
 36 60  1  0  0  0  0
 36 61  1  0  0  0  0
 36 79  2  0  0  0  0
 37 63  1  0  0  0  0
 37 69  1  0  0  0  0
 37 80  2  0  0  0  0
 38 64  1  0  0  0  0
 38 75  1  0  0  0  0
 38 81  2  0  0  0  0
 39 70  1  0  0  0  0
 39 73  1  0  0  0  0
 39 82  2  0  0  0  0
 40 43  1  0  0  0  0
 41 50  1  0  0  0  0
 42 69  1  0  0  0  0
 43 45  1  0  0  0  0
 44 46  1  0  0  0  0
 44 47  1  0  0  0  0
 45 49  1  0  0  0  0
 46 51  1  0  0  0  0
 47 70  1  0  0  0  0
 48 51  1  0  0  0  0
 48 70  1  0  0  0  0
 49 74  1  0  0  0  0
 50 69  1  0  0  0  0
 51 68  1  0  0  0  0
 52 64  1  0  0  0  0
 53 65  1  0  0  0  0
 54 65  1  0  0  0  0
 55 65  1  0  0  0  0
 56 66  1  0  0  0  0
 57 66  1  0  0  0  0
 58 76  1  0  0  0  0
 59 62  1  0  0  0  0
 60 66  1  0  0  0  0
 61 84  1  0  0  0  0
 62 66  1  0  0  0  0
 63 65  1  0  0  0  0
 63 75  1  0  0  0  0
 64 76  1  0  0  0  0
 67 68  1  0  0  0  0
M  CHG  1  76   1
M  ISO  4  39 100  61 101  73 100  84 101
M  END
> <Batch ID>
0138

> <Smiles>
CNC(C)C(=O)NC(C(=O)N1Cc2cc([101O:1][101CH2:1]C(=O)CC(C)(C)CCc3cc(F)ccc3[100NH:0][100C:0](=O)N3CCCC(n4nc(-c5ccc(Oc6ccc(F)cc6F)cc5)c(C(N)=O)c4N)C3)ccc2CC1C(=O)NC1CCCc2ccccc21)C(C)(C)C

> <Shape>
0.242

> <Color>
0.074

> <Negative vol penalty>
0.000

$$$$

  -OEChem-04052302453D

 89 98  0     1  0  0  0  0  0999 V2000
  -32.8175  -31.4088   17.7146 C   0  0  0  0  0  0  0  0  0  0  0  0
  -32.4936  -30.0592   17.8092 C   0  0  0  0  0  0  0  0  0  0  0  0
  -23.0617   -9.9145   19.9555 C   0  0  0  0  0  0  0  0  0  0  0  0
  -23.8108   -9.9349   22.2523 C   0  0  0  0  0  0  0  0  0  0  0  0
  -32.9706  -32.1706   18.8723 C   0  0  0  0  0  0  0  0  0  0  0  0
  -32.3238  -29.4702   19.0617 C   0  0  0  0  0  0  0  0  0  0  0  0
  -28.2278  -26.4997   19.2722 C   0  0  0  0  0  0  0  0  0  0  0  0
  -22.2953   -8.7785   20.2155 C   0  0  0  0  0  0  0  0  0  0  0  0
  -23.0444   -8.7988   22.5123 C   0  0  0  0  0  0  0  0  0  0  0  0
  -28.3297  -25.2331   18.6984 C   0  0  0  0  0  0  0  0  0  0  0  0
  -19.7992   -8.0684   23.1085 C   0  0  0  0  0  0  0  0  0  0  0  0
  -19.0362   -8.0566   24.2761 C   0  0  0  0  0  0  0  0  0  0  0  0
  -28.6799  -24.2771   20.8853 C   0  0  0  0  0  0  0  0  0  0  0  0
  -30.7505  -19.7926   21.4272 C   0  0  0  0  0  0  0  0  0  0  0  0
  -29.6421  -17.8405   22.3203 C   0  0  0  0  0  0  0  0  0  0  0  0
  -31.2778  -17.6008   20.5584 C   0  0  0  0  0  0  0  0  0  0  0  0
  -20.2378   -6.1054   25.0416 C   0  0  0  0  0  0  0  0  0  0  0  0
  -23.8195  -10.4927   20.9738 C   0  0  0  0  0  0  0  0  0  0  0  0
  -24.2088  -13.0095   20.8254 C   0  0  0  0  0  0  0  0  0  0  0  0
  -32.7931  -31.5929   20.1394 C   0  0  0  0  0  0  0  0  0  0  0  0
  -28.3624  -26.6661   20.6581 C   0  0  0  0  0  0  0  0  0  0  0  0
  -32.4760  -30.2246   20.2374 C   0  0  0  0  0  0  0  0  0  0  0  0
  -28.5768  -25.5465   21.4745 C   0  0  0  0  0  0  0  0  0  0  0  0
  -29.8358  -19.2219   22.3121 C   0  0  0  0  0  0  0  0  0  0  0  0
  -31.4715  -18.9821   20.5503 C   0  0  0  0  0  0  0  0  0  0  0  0
  -30.3631  -17.0300   21.4434 C   0  0  0  0  0  0  0  0  0  0  0  0
  -22.2866   -8.2206   21.4939 C   0  0  0  0  0  0  0  0  0  0  0  0
  -28.5586  -24.1220   19.5047 C   0  0  0  0  0  0  0  0  0  0  0  0
  -20.7815   -7.0986   22.9074 C   0  0  0  0  0  0  0  0  0  0  0  0
  -19.2555   -7.0751   25.2427 C   0  0  0  0  0  0  0  0  0  0  0  0
  -21.0008   -6.1172   23.8740 C   0  0  0  0  0  0  0  0  0  0  0  0
  -24.6118  -11.6659   20.7057 C   0  0  0  0  0  0  0  0  0  0  0  0
  -25.3164  -13.7341   20.4586 C   0  0  0  0  0  0  0  0  0  0  0  0
  -22.9462  -13.5538   21.2320 C   0  0  0  0  0  0  0  0  0  0  0  0
  -30.3872  -28.2314   22.5433 C   0  0  0  0  0  0  0  0  0  0  0  0
  -31.0740  -21.3054   18.3581 C   0  0  0  0  0  0  0  0  0  0  0  0
  -28.3409  -27.2824   24.8744 C   0  0  0  0  0  0  0  0  0  0  0  0
  -25.9665  -25.0646   25.9189 C   0  0  0  0  0  0  0  0  0  0  0  0
  -30.8003  -14.6801   20.6476 C   0  0  0  0  0  0  0  0  0  0  0  0
  -33.0155  -32.4453   21.3635 C   0  0  0  0  0  0  0  0  0  0  0  0
  -28.2233  -28.0356   21.2644 C   0  0  0  0  0  0  0  0  0  0  0  0
  -28.7084  -25.6690   22.9699 C   0  0  0  0  0  0  0  0  0  0  0  0
  -32.4504  -31.8335   22.6427 C   0  0  0  0  0  0  0  0  0  0  0  0
  -34.3153  -19.0215   15.5631 C   0  0  0  0  0  0  0  0  0  0  0  0
  -33.4421  -20.0390   14.8268 C   0  0  0  0  0  0  0  0  0  0  0  0
  -29.6522  -12.2591   18.3028 C   0  0  0  0  0  0  0  0  0  0  0  0
  -32.8372  -30.3616   22.7467 C   0  0  0  0  0  0  0  0  0  0  0  0
  -33.6731  -18.8241   16.9328 C   0  0  0  0  0  0  0  0  0  0  0  0
  -32.3063  -20.3905   15.7820 C   0  0  0  0  0  0  0  0  0  0  0  0
  -28.2054  -11.9995   18.7288 C   0  0  0  0  0  0  0  0  0  0  0  0
  -30.5658  -12.4853   19.5061 C   0  0  0  0  0  0  0  0  0  0  0  0
  -28.6662  -13.2616   20.8693 C   0  0  0  0  0  0  0  0  0  0  0  0
  -32.2593  -29.5554   21.5773 C   0  0  1  0  0  0  0  0  0  0  0  0
  -28.8892  -28.1540   22.6319 C   0  0  1  0  0  0  0  0  0  0  0  0
  -32.8885  -20.1118   17.1640 C   0  0  0  0  0  0  0  0  0  0  0  0
  -27.6958  -13.0923   19.6889 C   0  0  2  0  0  0  0  0  0  0  0  0
  -29.0649  -20.0886   23.2495 C   0  0  0  0  0  0  0  0  0  0  0  0
  -24.5059  -24.5237   27.8864 C   0  0  0  0  0  0  0  0  0  0  0  0
  -30.7477  -26.1055   26.3346 C   0  0  0  0  0  0  0  0  0  0  0  0
  -29.1569  -24.7906   27.7519 C   0  0  0  0  0  0  0  0  0  0  0  0
  -29.1070  -27.2840   27.8089 C   0  0  0  0  0  0  0  0  0  0  0  0
  -23.4948  -25.4576   24.3393 C   0  0  0  0  0  0  0  0  0  0  0  0
  -32.4619  -19.6002   19.5924 C   0  0  0  0  0  0  0  0  0  0  0  0
  -29.8832  -21.4811   17.4262 C   0  0  0  0  0  0  0  0  0  0  0  0
  -29.1715  -22.8112   17.6173 C   0  0  0  0  0  0  0  0  0  1  0  0
  -31.8297  -19.9821   18.2449 C   0  0  1  0  0  0  0  0  0  0  0  0
  -28.2283  -26.0730   25.7709 C   0  0  1  0  0  0  0  0  0  0  0  0
  -24.6096  -25.2725   26.5668 C   0  0  2  0  0  0  0  0  0  0  0  0
  -29.3095  -26.0609   26.8882 C   0  0  0  0  0  0  0  0  0  0  0  0
  -25.8766  -11.5416   20.2948 N   0  0  0  0  0  0  0  0  0  0  0  0
  -26.2779  -12.8163   20.1530 N   0  0  0  0  0  0  0  0  0  0  0  0
  -28.5712  -27.0298   23.5147 N   0  0  0  0  0  0  0  0  0  0  0  0
  -30.0220  -13.5368   20.3684 N   0  0  0  0  0  0  0  0  0  0  0  0
  -25.5520  -15.0605   20.3708 N   0  0  0  0  0  0  0  0  0  0  0  0
  -21.9160  -12.6676   21.5751 N   0  0  0  0  0  0  0  0  0  0  0  0
  -30.1664  -15.6267   21.4517 N   0  0  0  0  0  0  0  0  0  0  0  0
  -30.8522  -29.2931   21.7908 N   0  0  0  0  0  0  0  0  0  0  0  0
  -26.8564  -26.0588   26.2669 N   0  0  0  0  0  0  0  0  0  0  0  0
  -23.5257  -24.7889   25.6656 N   0  3  0  0  0  0  0  0  0  0  0  0
  -22.7327  -14.7892   21.2735 O   0  0  0  0  0  0  0  0  0  0  0  0
  -31.0705  -27.3910   23.1164 O   0  0  0  0  0  0  0  0  0  0  0  0
  -31.4240  -22.1767   19.1541 O   0  0  0  0  0  0  0  0  0  0  0  0
  -28.2214  -28.4094   25.3615 O   0  0  0  0  0  0  0  0  0  0  0  0
  -26.2136  -24.1133   25.1810 O   0  0  0  0  0  0  0  0  0  0  0  0
  -31.9345  -14.8222   20.1835 O   0  0  0  0  0  0  0  0  0  0  0  0
  -21.5387   -7.1122   21.7481 O   0  0  0  0  0  0  0  0  0  0  0  0
  -28.6591  -22.8847   18.9471 O   0  0  0  0  0  0  0  0  0  1  0  0
  -18.5238   -7.0648   26.3645 F   0  0  0  0  0  0  0  0  0  0  0  0
  -21.9439   -5.1837   23.6870 F   0  0  0  0  0  0  0  0  0  0  0  0
  1  2  1  0  0  0  0
  1  5  2  0  0  0  0
  2  6  2  0  0  0  0
  3  8  2  0  0  0  0
  3 18  1  0  0  0  0
  4  9  1  0  0  0  0
  4 18  2  0  0  0  0
  5 20  1  0  0  0  0
  6 22  1  0  0  0  0
  7 10  2  0  0  0  0
  7 21  1  0  0  0  0
  8 27  1  0  0  0  0
  9 27  2  0  0  0  0
 10 28  1  0  0  0  0
 11 12  2  0  0  0  0
 11 29  1  0  0  0  0
 12 30  1  0  0  0  0
 13 23  1  0  0  0  0
 13 28  2  0  0  0  0
 14 24  2  0  0  0  0
 14 25  1  0  0  0  0
 15 24  1  0  0  0  0
 15 26  2  0  0  0  0
 16 25  2  0  0  0  0
 16 26  1  0  0  0  0
 17 30  2  0  0  0  0
 17 31  1  0  0  0  0
 18 32  1  0  0  0  0
 19 32  1  0  0  0  0
 19 33  2  0  0  0  0
 19 34  1  0  0  0  0
 20 22  2  0  0  0  0
 20 40  1  0  0  0  0
 21 23  2  0  0  0  0
 21 41  1  0  0  0  0
 22 53  1  0  0  0  0
 23 42  1  0  0  0  0
 24 57  1  0  0  0  0
 25 63  1  0  0  0  0
 26 76  1  0  0  0  0
 27 86  1  0  0  0  0
 28 87  1  0  0  0  0
 29 31  2  0  0  0  0
 29 86  1  0  0  0  0
 30 88  1  0  0  0  0
 31 89  1  0  0  0  0
 32 70  2  0  0  0  0
 33 71  1  0  0  0  0
 33 74  1  0  0  0  0
 34 75  1  0  0  0  0
 34 80  2  0  0  0  0
 35 54  1  0  0  0  0
 35 77  1  0  0  0  0
 35 81  2  0  0  0  0
 36 64  1  0  0  0  0
 36 66  1  0  0  0  0
 36 82  2  0  0  0  0
 37 67  1  0  0  0  0
 37 72  1  0  0  0  0
 37 83  2  0  0  0  0
 38 68  1  0  0  0  0
 38 78  1  0  0  0  0
 38 84  2  0  0  0  0
 39 73  1  0  0  0  0
 39 76  1  0  0  0  0
 39 85  2  0  0  0  0
 40 43  1  0  0  0  0
 41 54  1  0  0  0  0
 42 72  1  0  0  0  0
 43 47  1  0  0  0  0
 44 45  1  0  0  0  0
 44 48  1  0  0  0  0
 45 49  1  0  0  0  0
 46 50  1  0  0  0  0
 46 51  1  0  0  0  0
 47 53  1  0  0  0  0
 48 55  1  0  0  0  0
 49 55  1  0  0  0  0
 50 56  1  0  0  0  0
 51 73  1  0  0  0  0
 52 56  1  0  0  0  0
 52 73  1  0  0  0  0
 53 77  1  0  0  0  0
 54 72  1  0  0  0  0
 55 66  1  0  0  0  0
 56 71  1  0  0  0  0
 58 68  1  0  0  0  0
 59 69  1  0  0  0  0
 60 69  1  0  0  0  0
 61 69  1  0  0  0  0
 62 79  1  0  0  0  0
 63 66  1  0  0  0  0
 64 65  1  0  0  0  0
 65 87  1  0  0  0  0
 67 69  1  0  0  0  0
 67 78  1  0  0  0  0
 68 79  1  0  0  0  0
 70 71  1  0  0  0  0
M  CHG  1  79   1
M  ISO  4  39 100  65 101  76 100  87 101
M  END
> <Batch ID>
0138

> <Smiles>
CNC(C)C(=O)NC(C(=O)N1Cc2cc([101O:1][101CH2:1]CC(=O)C(Cc3cc(C)cc([100NH:0][100C:0](=O)N4CCCC(n5nc(-c6ccc(Oc7ccc(F)cc7F)cc6)c(C(N)=O)c5N)C4)c3)C3CCCC3)ccc2CC1C(=O)NC1CCCc2ccccc21)C(C)(C)C

> <Shape>
0.224

> <Color>
0.213

> <Negative vol penalty>
0.000

$$$$

  -OEChem-04052302453D

 84 93  0     1  0  0  0  0  0999 V2000
  -25.3330  -35.3447   23.1391 C   0  0  0  0  0  0  0  0  0  0  0  0
  -26.0069  -34.1507   22.9035 C   0  0  0  0  0  0  0  0  0  0  0  0
  -23.9705  -13.7125   21.2531 C   0  0  0  0  0  0  0  0  0  0  0  0
  -26.3817  -13.6098   21.1395 C   0  0  0  0  0  0  0  0  0  0  0  0
  -24.0381  -35.3229   23.6554 C   0  0  0  0  0  0  0  0  0  0  0  0
  -25.3866  -32.9340   23.1850 C   0  0  0  0  0  0  0  0  0  0  0  0
  -26.0129  -29.5322   19.4863 C   0  0  0  0  0  0  0  0  0  0  0  0
  -23.8904  -12.4296   20.7114 C   0  0  0  0  0  0  0  0  0  0  0  0
  -26.3015  -12.3269   20.5979 C   0  0  0  0  0  0  0  0  0  0  0  0
  -27.2441  -28.8812   19.4218 C   0  0  0  0  0  0  0  0  0  0  0  0
  -23.0606   -9.0397   19.6940 C   0  0  0  0  0  0  0  0  0  0  0  0
  -22.1741   -8.1401   20.2859 C   0  0  0  0  0  0  0  0  0  0  0  0
  -31.3871  -23.8769   24.2478 C   0  0  0  0  0  0  0  0  0  0  0  0
  -29.7819  -23.6013   22.4633 C   0  0  0  0  0  0  0  0  0  0  0  0
  -26.2800  -26.9617   20.5195 C   0  0  0  0  0  0  0  0  0  0  0  0
  -29.6864  -22.1681   24.4060 C   0  0  0  0  0  0  0  0  0  0  0  0
  -23.3645   -8.3436   22.3783 C   0  0  0  0  0  0  0  0  0  0  0  0
  -25.2162  -14.3026   21.4671 C   0  0  0  0  0  0  0  0  0  0  0  0
  -25.3787  -15.9724   23.3888 C   0  0  0  0  0  0  0  0  0  0  0  0
  -23.3979  -34.1051   23.9343 C   0  0  0  0  0  0  0  0  0  0  0  0
  -24.9069  -28.9059   20.0788 C   0  0  0  0  0  0  0  0  0  0  0  0
  -24.0823  -32.8958   23.7068 C   0  0  0  0  0  0  0  0  0  0  0  0
  -30.8839  -24.2627   23.0054 C   0  0  0  0  0  0  0  0  0  0  0  0
  -25.0352  -27.6058   20.5880 C   0  0  0  0  0  0  0  0  0  0  0  0
  -30.7884  -22.8295   24.9481 C   0  0  0  0  0  0  0  0  0  0  0  0
  -29.1832  -22.5539   23.1636 C   0  0  0  0  0  0  0  0  0  0  0  0
  -25.0558  -11.7368   20.3838 C   0  0  0  0  0  0  0  0  0  0  0  0
  -27.3785  -27.5969   19.9410 C   0  0  0  0  0  0  0  0  0  0  0  0
  -24.0992   -9.5913   20.4443 C   0  0  0  0  0  0  0  0  0  0  0  0
  -22.3260   -7.7920   21.6280 C   0  0  0  0  0  0  0  0  0  0  0  0
  -24.2511   -9.2432   21.7864 C   0  0  0  0  0  0  0  0  0  0  0  0
  -25.2997  -15.6280   22.0261 C   0  0  0  0  0  0  0  0  0  0  0  0
  -25.4382  -17.3446   23.3932 C   0  0  0  0  0  0  0  0  0  0  0  0
  -25.3969  -15.1275   24.5471 C   0  0  0  0  0  0  0  0  0  0  0  0
  -23.0479  -29.5324   22.5799 C   0  0  0  0  0  0  0  0  0  0  0  0
  -21.3658  -26.9892   21.4731 C   0  0  0  0  0  0  0  0  0  0  0  0
  -21.3416  -24.1007   19.6557 C   0  0  0  0  0  0  0  0  0  0  0  0
  -27.4401  -22.1397   21.3926 C   0  0  0  0  0  0  0  0  0  0  0  0
  -22.0151  -34.1329   24.5358 C   0  0  0  0  0  0  0  0  0  0  0  0
  -23.5789  -29.6112   20.1166 C   0  0  0  0  0  0  0  0  0  0  0  0
  -23.8733  -26.8819   21.2160 C   0  0  0  0  0  0  0  0  0  0  0  0
  -21.2888  -32.7927   24.4554 C   0  0  0  0  0  0  0  0  0  0  0  0
  -24.6861  -20.6863   19.6664 C   0  0  0  0  0  0  0  0  0  0  0  0
  -32.0397  -24.9323   20.8736 C   0  0  0  0  0  0  0  0  0  0  0  0
  -22.2101  -31.6590   24.8945 C   0  0  0  0  0  0  0  0  0  0  0  0
  -31.2135  -25.7052   19.8505 C   0  0  0  0  0  0  0  0  0  0  0  0
  -24.6067  -19.2691   20.2385 C   0  0  0  0  0  0  0  0  0  0  0  0
  -30.5185  -26.5152   21.9786 C   0  0  0  0  0  0  0  0  0  0  0  0
  -26.1314  -21.1593   19.5215 C   0  0  0  0  0  0  0  0  0  0  0  0
  -26.8657  -19.6339   21.3113 C   0  0  0  0  0  0  0  0  0  0  0  0
  -31.5242  -25.3824   22.2567 C   0  0  1  0  0  0  0  0  0  0  0  0
  -23.4337  -31.5554   23.9761 C   0  0  1  0  0  0  0  0  0  0  0  0
  -22.6503  -29.0788   21.2037 C   0  0  1  0  0  0  0  0  0  0  0  0
  -30.8707  -27.0027   20.5745 C   0  0  2  0  0  0  0  0  0  0  0  0
  -25.4278  -19.1384   21.5363 C   0  0  2  0  0  0  0  0  0  0  0  0
  -31.3265  -22.4172   26.2766 C   0  0  0  0  0  0  0  0  0  0  0  0
  -19.8300  -22.2205   18.9650 C   0  0  0  0  0  0  0  0  0  0  0  0
  -21.6010  -25.7781   24.2638 C   0  0  0  0  0  0  0  0  0  0  0  0
  -20.9426  -23.5697   23.2851 C   0  0  0  0  0  0  0  0  0  0  0  0
  -19.3603  -25.4958   23.1896 C   0  0  0  0  0  0  0  0  0  0  0  0
  -21.6595  -24.7455   16.7848 C   0  0  0  0  0  0  0  0  0  0  0  0
  -29.7499  -27.7750   19.9122 C   0  0  0  0  0  0  0  0  0  1  0  0
  -21.4064  -25.4979   21.7046 C   0  0  1  0  0  0  0  0  0  0  0  0
  -20.3860  -23.5865   18.5941 C   0  0  2  0  0  0  0  0  0  0  0  0
  -20.8502  -25.0995   23.1007 C   0  0  0  0  0  0  0  0  0  0  0  0
  -25.3078  -16.6953   21.2232 N   0  0  0  0  0  0  0  0  0  0  0  0
  -25.3926  -17.7239   22.0839 N   0  0  0  0  0  0  0  0  0  0  0  0
  -22.5972  -27.6158   21.2350 N   0  0  0  0  0  0  0  0  0  0  0  0
  -26.8462  -21.0101   20.7910 N   0  0  0  0  0  0  0  0  0  0  0  0
  -25.5245  -18.2517   24.3893 N   0  0  0  0  0  0  0  0  0  0  0  0
  -25.3284  -13.7398   24.3629 N   0  0  0  0  0  0  0  0  0  0  0  0
  -28.0637  -21.8821   22.6130 N   0  0  0  0  0  0  0  0  0  0  0  0
  -23.0788  -30.9054   22.7327 N   0  0  0  0  0  0  0  0  0  0  0  0
  -20.6970  -24.8913   20.5834 N   0  0  0  0  0  0  0  0  0  0  0  0
  -21.0833  -23.4697   17.2822 N   0  3  0  0  0  0  0  0  0  0  0  0
  -25.4551  -15.5902   25.7116 O   0  0  0  0  0  0  0  0  0  0  0  0
  -23.3060  -28.6984   23.4398 O   0  0  0  0  0  0  0  0  0  0  0  0
  -20.2806  -27.5752   21.4955 O   0  0  0  0  0  0  0  0  0  0  0  0
  -22.5394  -23.8253   19.6634 O   0  0  0  0  0  0  0  0  0  0  0  0
  -27.3750  -23.2588   20.8775 O   0  0  0  0  0  0  0  0  0  0  0  0
  -24.9780  -10.4849   19.8554 O   0  0  0  0  0  0  0  0  0  0  0  0
  -28.5793  -26.9595   19.8798 O   0  0  0  0  0  0  0  0  0  1  0  0
  -21.4737   -6.9293   22.1967 F   0  0  0  0  0  0  0  0  0  0  0  0
  -25.2462   -9.7707   22.5126 F   0  0  0  0  0  0  0  0  0  0  0  0
  1  2  1  0  0  0  0
  1  5  2  0  0  0  0
  2  6  2  0  0  0  0
  3  8  2  0  0  0  0
  3 18  1  0  0  0  0
  4  9  1  0  0  0  0
  4 18  2  0  0  0  0
  5 20  1  0  0  0  0
  6 22  1  0  0  0  0
  7 10  2  0  0  0  0
  7 21  1  0  0  0  0
  8 27  1  0  0  0  0
  9 27  2  0  0  0  0
 10 28  1  0  0  0  0
 11 12  2  0  0  0  0
 11 29  1  0  0  0  0
 12 30  1  0  0  0  0
 13 23  1  0  0  0  0
 13 25  2  0  0  0  0
 14 23  2  0  0  0  0
 14 26  1  0  0  0  0
 15 24  1  0  0  0  0
 15 28  2  0  0  0  0
 16 25  1  0  0  0  0
 16 26  2  0  0  0  0
 17 30  2  0  0  0  0
 17 31  1  0  0  0  0
 18 32  1  0  0  0  0
 19 32  1  0  0  0  0
 19 33  2  0  0  0  0
 19 34  1  0  0  0  0
 20 22  2  0  0  0  0
 20 39  1  0  0  0  0
 21 24  2  0  0  0  0
 21 40  1  0  0  0  0
 22 52  1  0  0  0  0
 23 51  1  0  0  0  0
 24 41  1  0  0  0  0
 25 56  1  0  0  0  0
 26 72  1  0  0  0  0
 27 81  1  0  0  0  0
 28 82  1  0  0  0  0
 29 31  2  0  0  0  0
 29 81  1  0  0  0  0
 30 83  1  0  0  0  0
 31 84  1  0  0  0  0
 32 66  2  0  0  0  0
 33 67  1  0  0  0  0
 33 70  1  0  0  0  0
 34 71  1  0  0  0  0
 34 76  2  0  0  0  0
 35 53  1  0  0  0  0
 35 73  1  0  0  0  0
 35 77  2  0  0  0  0
 36 63  1  0  0  0  0
 36 68  1  0  0  0  0
 36 78  2  0  0  0  0
 37 64  1  0  0  0  0
 37 74  1  0  0  0  0
 37 79  2  0  0  0  0
 38 69  1  0  0  0  0
 38 72  1  0  0  0  0
 38 80  2  0  0  0  0
 39 42  1  0  0  0  0
 40 53  1  0  0  0  0
 41 68  1  0  0  0  0
 42 45  1  0  0  0  0
 43 47  1  0  0  0  0
 43 49  1  0  0  0  0
 44 46  1  0  0  0  0
 44 51  1  0  0  0  0
 45 52  1  0  0  0  0
 46 54  1  0  0  0  0
 47 55  1  0  0  0  0
 48 51  1  0  0  0  0
 48 54  1  0  0  0  0
 49 69  1  0  0  0  0
 50 55  1  0  0  0  0
 50 69  1  0  0  0  0
 52 73  1  0  0  0  0
 53 68  1  0  0  0  0
 54 62  1  0  0  0  0
 55 67  1  0  0  0  0
 57 64  1  0  0  0  0
 58 65  1  0  0  0  0
 59 65  1  0  0  0  0
 60 65  1  0  0  0  0
 61 75  1  0  0  0  0
 62 82  1  0  0  0  0
 63 65  1  0  0  0  0
 63 74  1  0  0  0  0
 64 75  1  0  0  0  0
 66 67  1  0  0  0  0
M  CHG  1  75   1
M  ISO  4  38 100  62 101  72 100  82 101
M  END
> <Batch ID>
0138

> <Smiles>
CNC(C)C(=O)NC(C(=O)N1Cc2cc([101O:1][101CH2:1]C3CCC(c4cc(C)cc([100NH:0][100C:0](=O)N5CCCC(n6nc(-c7ccc(Oc8ccc(F)cc8F)cc7)c(C(N)=O)c6N)C5)c4)C3)ccc2CC1C(=O)NC1CCCc2ccccc21)C(C)(C)C

> <Shape>
0.225

> <Color>
0.089

> <Negative vol penalty>
0.000

$$$$

  -OEChem-04052302453D

 84 92  0     1  0  0  0  0  0999 V2000
  -29.6028  -25.1865   23.7461 C   0  0  0  0  0  0  0  0  0  0  0  0
  -29.9856  -24.4918   24.8890 C   0  0  0  0  0  0  0  0  0  0  0  0
  -23.2890   -9.7991   19.9144 C   0  0  0  0  0  0  0  0  0  0  0  0
  -23.7425   -9.9408   22.2832 C   0  0  0  0  0  0  0  0  0  0  0  0
  -29.7028  -24.5781   22.4956 C   0  0  0  0  0  0  0  0  0  0  0  0
  -30.4676  -23.1877   24.7821 C   0  0  0  0  0  0  0  0  0  0  0  0
  -35.1172  -18.6851   27.8520 C   0  0  0  0  0  0  0  0  0  0  0  0
  -31.6660  -12.2886   26.2207 C   0  0  0  0  0  0  0  0  0  0  0  0
  -30.8925  -12.6038   25.1037 C   0  0  0  0  0  0  0  0  0  0  0  0
  -22.5640   -8.6260   20.1233 C   0  0  0  0  0  0  0  0  0  0  0  0
  -23.0174   -8.7676   22.4922 C   0  0  0  0  0  0  0  0  0  0  0  0
  -35.1763  -17.4018   28.3937 C   0  0  0  0  0  0  0  0  0  0  0  0
  -19.7715   -7.8536   22.7136 C   0  0  0  0  0  0  0  0  0  0  0  0
  -18.8704   -7.8313   23.7781 C   0  0  0  0  0  0  0  0  0  0  0  0
  -35.3797  -16.4805   26.1736 C   0  0  0  0  0  0  0  0  0  0  0  0
  -32.8170  -12.2796   23.6795 C   0  0  0  0  0  0  0  0  0  0  0  0
  -20.0790   -5.9855   24.7626 C   0  0  0  0  0  0  0  0  0  0  0  0
  -23.8783  -10.4565   20.9943 C   0  0  0  0  0  0  0  0  0  0  0  0
  -24.1351  -12.9867   20.7947 C   0  0  0  0  0  0  0  0  0  0  0  0
  -30.1954  -23.2694   22.3724 C   0  0  0  0  0  0  0  0  0  0  0  0
  -35.1781  -18.8752   26.4640 C   0  0  0  0  0  0  0  0  0  0  0  0
  -30.5730  -22.5607   23.5289 C   0  0  0  0  0  0  0  0  0  0  0  0
  -35.3238  -17.7673   25.6169 C   0  0  0  0  0  0  0  0  0  0  0  0
  -33.0151  -11.9690   26.0672 C   0  0  0  0  0  0  0  0  0  0  0  0
  -33.5905  -11.9645   24.7966 C   0  0  0  0  0  0  0  0  0  0  0  0
  -31.4679  -12.5993   23.8331 C   0  0  0  0  0  0  0  0  0  0  0  0
  -22.4282   -8.1102   21.4122 C   0  0  0  0  0  0  0  0  0  0  0  0
  -35.3046  -16.2991   27.5544 C   0  0  0  0  0  0  0  0  0  0  0  0
  -20.8263   -6.9418   22.6735 C   0  0  0  0  0  0  0  0  0  0  0  0
  -19.0242   -6.8973   24.8026 C   0  0  0  0  0  0  0  0  0  0  0  0
  -20.9801   -6.0078   23.6981 C   0  0  0  0  0  0  0  0  0  0  0  0
  -24.6279  -11.6681   20.7791 C   0  0  0  0  0  0  0  0  0  0  0  0
  -25.2355  -13.7676   20.5383 C   0  0  0  0  0  0  0  0  0  0  0  0
  -22.8018  -13.4631   21.0210 C   0  0  0  0  0  0  0  0  0  0  0  0
  -33.2157  -20.0893   24.2779 C   0  0  0  0  0  0  0  0  0  0  0  0
  -35.7583  -19.6449   22.3132 C   0  0  0  0  0  0  0  0  0  0  0  0
  -38.6608  -17.9711   21.6646 C   0  0  0  0  0  0  0  0  0  0  0  0
  -31.0976  -12.9590   21.3673 C   0  0  0  0  0  0  0  0  0  0  0  0
  -30.2408  -22.6366   21.0041 C   0  0  0  0  0  0  0  0  0  0  0  0
  -35.1400  -20.2678   25.8969 C   0  0  0  0  0  0  0  0  0  0  0  0
  -35.4140  -17.9192   24.1211 C   0  0  0  0  0  0  0  0  0  0  0  0
  -31.1137  -21.3860   20.9400 C   0  0  0  0  0  0  0  0  0  0  0  0
  -29.4598  -13.6610   18.2848 C   0  0  0  0  0  0  0  0  0  0  0  0
  -30.8128  -20.4640   22.1174 C   0  0  0  0  0  0  0  0  0  0  0  0
  -27.9892  -13.3555   18.5778 C   0  0  0  0  0  0  0  0  0  0  0  0
  -30.3948  -12.6869   18.9994 C   0  0  0  0  0  0  0  0  0  0  0  0
  -28.7040  -12.2577   20.7391 C   0  0  0  0  0  0  0  0  0  0  0  0
  -31.1240  -21.1534   23.4514 C   0  0  1  0  0  0  0  0  0  0  0  0
  -34.6937  -20.3072   24.4386 C   0  0  1  0  0  0  0  0  0  0  0  0
  -27.7260  -13.2526   20.0930 C   0  0  2  0  0  0  0  0  0  0  0  0
  -35.2269  -10.2063   24.0772 C   0  0  0  0  0  0  0  0  0  0  0  0
  -40.4978  -17.7994   19.9636 C   0  0  0  0  0  0  0  0  0  0  0  0
  -33.8995  -18.0805   20.4673 C   0  0  0  0  0  0  0  0  0  0  0  0
  -35.9262  -17.1542   19.3261 C   0  0  0  0  0  0  0  0  0  0  0  0
  -35.4912  -19.6103   19.2923 C   0  0  0  0  0  0  0  0  0  0  0  0
  -33.2053  -13.3400   29.0906 C   0  0  0  0  0  0  0  0  0  0  0  0
  -35.4726  -12.3075   29.0577 C   0  0  0  0  0  0  0  0  0  0  0  0
  -40.7180  -18.7750   23.6345 C   0  0  0  0  0  0  0  0  0  0  0  0
  -33.8327  -11.6319   27.2922 C   0  0  0  0  0  0  0  0  0  0  0  0
  -35.0323  -11.6234   24.6078 C   0  0  0  0  0  0  0  0  0  0  0  0
  -34.8470  -13.9813   27.2810 C   0  0  0  0  0  0  0  0  0  1  0  0
  -36.2508  -18.5155   21.4409 C   0  0  1  0  0  0  0  0  0  0  0  0
  -40.0365  -18.4628   21.2519 C   0  0  2  0  0  0  0  0  0  0  0  0
  -35.3883  -18.3368   20.1597 C   0  0  0  0  0  0  0  0  0  0  0  0
  -34.3235  -12.8256   28.1634 C   0  0  0  0  0  0  0  0  0  0  0  0
  -25.9392  -11.6106   20.5320 N   0  0  0  0  0  0  0  0  0  0  0  0
  -26.2798  -12.9029   20.3900 N   0  0  0  0  0  0  0  0  0  0  0  0
  -35.3658  -19.3006   23.6144 N   0  0  0  0  0  0  0  0  0  0  0  0
  -30.0897  -12.6451   20.4312 N   0  0  0  0  0  0  0  0  0  0  0  0
  -25.4021  -15.1026   20.4273 N   0  0  0  0  0  0  0  0  0  0  0  0
  -21.7905  -12.5253   21.2699 N   0  0  0  0  0  0  0  0  0  0  0  0
  -30.6820  -12.9174   22.6978 N   0  0  0  0  0  0  0  0  0  0  0  0
  -32.5497  -21.1531   23.7000 N   0  0  0  0  0  0  0  0  0  0  0  0
  -37.6603  -18.7865   21.1794 N   0  0  0  0  0  0  0  0  0  0  0  0
  -41.0344  -18.1644   22.3177 N   0  3  0  0  0  0  0  0  0  0  0  0
  -22.5128  -14.6833   20.9867 O   0  0  0  0  0  0  0  0  0  0  0  0
  -32.7168  -19.0334   24.6494 O   0  0  0  0  0  0  0  0  0  0  0  0
  -35.7298  -20.7915   21.8592 O   0  0  0  0  0  0  0  0  0  0  0  0
  -38.4906  -16.9624   22.3458 O   0  0  0  0  0  0  0  0  0  0  0  0
  -32.2377  -13.2703   21.0135 O   0  0  0  0  0  0  0  0  0  0  0  0
  -21.7206   -6.9656   21.6164 O   0  0  0  0  0  0  0  0  0  0  0  0
  -35.3618  -15.0453   28.0805 O   0  0  0  0  0  0  0  0  0  1  0  0
  -18.1597   -6.8771   25.8255 F   0  0  0  0  0  0  0  0  0  0  0  0
  -21.9922   -5.1301   23.6657 F   0  0  0  0  0  0  0  0  0  0  0  0
  1  2  1  0  0  0  0
  1  5  2  0  0  0  0
  2  6  2  0  0  0  0
  3 10  2  0  0  0  0
  3 18  1  0  0  0  0
  4 11  1  0  0  0  0
  4 18  2  0  0  0  0
  5 20  1  0  0  0  0
  6 22  1  0  0  0  0
  7 12  2  0  0  0  0
  7 21  1  0  0  0  0
  8  9  2  0  0  0  0
  8 24  1  0  0  0  0
  9 26  1  0  0  0  0
 10 27  1  0  0  0  0
 11 27  2  0  0  0  0
 12 28  1  0  0  0  0
 13 14  2  0  0  0  0
 13 29  1  0  0  0  0
 14 30  1  0  0  0  0
 15 23  1  0  0  0  0
 15 28  2  0  0  0  0
 16 25  1  0  0  0  0
 16 26  2  0  0  0  0
 17 30  2  0  0  0  0
 17 31  1  0  0  0  0
 18 32  1  0  0  0  0
 19 32  1  0  0  0  0
 19 33  2  0  0  0  0
 19 34  1  0  0  0  0
 20 22  2  0  0  0  0
 20 39  1  0  0  0  0
 21 23  2  0  0  0  0
 21 40  1  0  0  0  0
 22 48  1  0  0  0  0
 23 41  1  0  0  0  0
 24 25  2  0  0  0  0
 24 59  1  0  0  0  0
 25 60  1  0  0  0  0
 26 72  1  0  0  0  0
 27 81  1  0  0  0  0
 28 82  1  0  0  0  0
 29 31  2  0  0  0  0
 29 81  1  0  0  0  0
 30 83  1  0  0  0  0
 31 84  1  0  0  0  0
 32 66  2  0  0  0  0
 33 67  1  0  0  0  0
 33 70  1  0  0  0  0
 34 71  1  0  0  0  0
 34 76  2  0  0  0  0
 35 49  1  0  0  0  0
 35 73  1  0  0  0  0
 35 77  2  0  0  0  0
 36 62  1  0  0  0  0
 36 68  1  0  0  0  0
 36 78  2  0  0  0  0
 37 63  1  0  0  0  0
 37 74  1  0  0  0  0
 37 79  2  0  0  0  0
 38 69  1  0  0  0  0
 38 72  1  0  0  0  0
 38 80  2  0  0  0  0
 39 42  1  0  0  0  0
 40 49  1  0  0  0  0
 41 68  1  0  0  0  0
 42 44  1  0  0  0  0
 43 45  1  0  0  0  0
 43 46  1  0  0  0  0
 44 48  1  0  0  0  0
 45 50  1  0  0  0  0
 46 69  1  0  0  0  0
 47 50  1  0  0  0  0
 47 69  1  0  0  0  0
 48 73  1  0  0  0  0
 49 68  1  0  0  0  0
 50 67  1  0  0  0  0
 51 60  1  0  0  0  0
 52 63  1  0  0  0  0
 53 64  1  0  0  0  0
 54 64  1  0  0  0  0
 55 64  1  0  0  0  0
 56 65  1  0  0  0  0
 57 65  1  0  0  0  0
 58 75  1  0  0  0  0
 59 65  1  0  0  0  0
 61 65  1  0  0  0  0
 61 82  1  0  0  0  0
 62 64  1  0  0  0  0
 62 74  1  0  0  0  0
 63 75  1  0  0  0  0
 66 67  1  0  0  0  0
M  CHG  1  75   1
M  ISO  4  38 100  61 101  72 100  82 101
M  END
> <Batch ID>
0138

> <Smiles>
CCc1cc([100NH:0][100C:0](=O)N2CCCC(n3nc(-c4ccc(Oc5ccc(F)cc5F)cc4)c(C(N)=O)c3N)C2)ccc1CC(C)(C)[101CH2:1][101O:1]c1ccc2c(c1)CN(C(=O)C(NC(=O)C(C)NC)C(C)(C)C)C(C(=O)NC1CCCc3ccccc31)C2

> <Shape>
0.143

> <Color>
0.174

> <Negative vol penalty>
0.000

$$$$

  -OEChem-04052302453D

 83 91  0     1  0  0  0  0  0999 V2000
  -28.3929  -26.1250   27.2502 C   0  0  0  0  0  0  0  0  0  0  0  0
  -29.4667  -25.2922   26.9519 C   0  0  0  0  0  0  0  0  0  0  0  0
  -22.9834   -9.8972   19.9851 C   0  0  0  0  0  0  0  0  0  0  0  0
  -23.7080   -9.9439   22.2894 C   0  0  0  0  0  0  0  0  0  0  0  0
  -27.2570  -26.1127   26.4418 C   0  0  0  0  0  0  0  0  0  0  0  0
  -29.4047  -24.4458   25.8455 C   0  0  0  0  0  0  0  0  0  0  0  0
  -34.0401  -22.8254   22.1858 C   0  0  0  0  0  0  0  0  0  0  0  0
  -30.5381  -18.3008   24.0006 C   0  0  0  0  0  0  0  0  0  0  0  0
  -22.2095   -8.7678   20.2512 C   0  0  0  0  0  0  0  0  0  0  0  0
  -22.9340   -8.8144   22.5556 C   0  0  0  0  0  0  0  0  0  0  0  0
  -34.8487  -21.6904   22.1429 C   0  0  0  0  0  0  0  0  0  0  0  0
  -31.9228  -18.2761   24.1666 C   0  0  0  0  0  0  0  0  0  0  0  0
  -21.4321   -5.7311   23.7588 C   0  0  0  0  0  0  0  0  0  0  0  0
  -22.0112   -4.7117   24.5144 C   0  0  0  0  0  0  0  0  0  0  0  0
  -33.4182  -20.7427   20.4475 C   0  0  0  0  0  0  0  0  0  0  0  0
  -32.0836  -16.4812   22.5573 C   0  0  0  0  0  0  0  0  0  0  0  0
  -23.7366   -4.4531   22.8430 C   0  0  0  0  0  0  0  0  0  0  0  0
  -23.7327  -10.4853   21.0041 C   0  0  0  0  0  0  0  0  0  0  0  0
  -24.1343  -12.9983   20.8279 C   0  0  0  0  0  0  0  0  0  0  0  0
  -27.1850  -25.2727   25.3193 C   0  0  0  0  0  0  0  0  0  0  0  0
  -32.9064  -22.9229   21.3663 C   0  0  0  0  0  0  0  0  0  0  0  0
  -28.2663  -24.4213   25.0220 C   0  0  0  0  0  0  0  0  0  0  0  0
  -32.5983  -21.8810   20.4800 C   0  0  0  0  0  0  0  0  0  0  0  0
  -29.9261  -17.4156   23.1131 C   0  0  0  0  0  0  0  0  0  0  0  0
  -30.6989  -16.5059   22.3914 C   0  0  0  0  0  0  0  0  0  0  0  0
  -22.1847   -8.2263   21.5365 C   0  0  0  0  0  0  0  0  0  0  0  0
  -34.5362  -20.6476   21.2757 C   0  0  0  0  0  0  0  0  0  0  0  0
  -32.6956  -17.3663   23.4449 C   0  0  0  0  0  0  0  0  0  0  0  0
  -22.0051   -6.1115   22.5453 C   0  0  0  0  0  0  0  0  0  0  0  0
  -23.1635   -4.0727   24.0565 C   0  0  0  0  0  0  0  0  0  0  0  0
  -23.1574   -5.4726   22.0874 C   0  0  0  0  0  0  0  0  0  0  0  0
  -24.5328  -11.6517   20.7296 C   0  0  0  0  0  0  0  0  0  0  0  0
  -25.2489  -13.7137   20.4639 C   0  0  0  0  0  0  0  0  0  0  0  0
  -22.8698  -13.5529   21.2138 C   0  0  0  0  0  0  0  0  0  0  0  0
  -29.7819  -23.1955   21.8830 C   0  0  0  0  0  0  0  0  0  0  0  0
  -29.6743  -23.5439   18.6597 C   0  0  0  0  0  0  0  0  0  0  0  0
  -31.1433  -22.9711   15.6331 C   0  0  0  0  0  0  0  0  0  0  0  0
  -30.7344  -14.6394   20.6999 C   0  0  0  0  0  0  0  0  0  0  0  0
  -25.9173  -25.2600   24.5023 C   0  0  0  0  0  0  0  0  0  0  0  0
  -32.0594  -24.1654   21.4053 C   0  0  0  0  0  0  0  0  0  0  0  0
  -31.4037  -21.9455   19.5649 C   0  0  0  0  0  0  0  0  0  0  0  0
  -26.0819  -24.6060   23.1328 C   0  0  0  0  0  0  0  0  0  0  0  0
  -29.6012  -12.1934   18.3739 C   0  0  0  0  0  0  0  0  0  0  0  0
  -26.8355  -23.2858   23.2587 C   0  0  0  0  0  0  0  0  0  0  0  0
  -28.1488  -11.9452   18.7875 C   0  0  0  0  0  0  0  0  0  0  0  0
  -30.5028  -12.4312   19.5840 C   0  0  0  0  0  0  0  0  0  0  0  0
  -28.5920  -13.2326   20.9166 C   0  0  0  0  0  0  0  0  0  0  0  0
  -28.2468  -23.5071   23.8162 C   0  0  1  0  0  0  0  0  0  0  0  0
  -30.6395  -23.9367   20.8966 C   0  0  1  0  0  0  0  0  0  0  0  0
  -27.6337  -13.0522   19.7281 C   0  0  2  0  0  0  0  0  0  0  0  0
  -28.0192  -18.1679   21.6694 C   0  0  0  0  0  0  0  0  0  0  0  0
  -30.7996  -23.3413   13.1750 C   0  0  0  0  0  0  0  0  0  0  0  0
  -27.6183  -21.2899   18.6102 C   0  0  0  0  0  0  0  0  0  0  0  0
  -28.0264  -21.0656   16.1503 C   0  0  0  0  0  0  0  0  0  0  0  0
  -27.1136  -23.1962   17.0722 C   0  0  0  0  0  0  0  0  0  0  0  0
  -33.6071  -24.5964   15.4153 C   0  0  0  0  0  0  0  0  0  0  0  0
  -28.4410  -17.4647   22.9557 C   0  0  0  0  0  0  0  0  0  0  0  0
  -36.1671  -17.6629   22.4943 C   0  0  0  0  0  0  0  0  0  0  0  0
  -35.9976  -19.1730   22.4358 C   0  0  0  0  0  0  0  0  0  1  0  0
  -34.8296  -16.9396   22.4859 C   0  0  0  0  0  0  0  0  0  0  0  0
  -29.5362  -22.6036   17.4868 C   0  0  1  0  0  0  0  0  0  0  0  0
  -31.4128  -23.8890   14.4544 C   0  0  2  0  0  0  0  0  0  0  0  0
  -28.0951  -22.0365   17.3484 C   0  0  0  0  0  0  0  0  0  0  0  0
  -25.8014  -11.5170   20.3340 N   0  0  0  0  0  0  0  0  0  0  0  0
  -26.2097  -12.7881   20.1804 N   0  0  0  0  0  0  0  0  0  0  0  0
  -30.6029  -23.1783   19.6445 N   0  0  0  0  0  0  0  0  0  0  0  0
  -29.9543  -13.4958   20.4269 N   0  0  0  0  0  0  0  0  0  0  0  0
  -25.4910  -15.0378   20.3617 N   0  0  0  0  0  0  0  0  0  0  0  0
  -21.8322  -12.6755   21.5571 N   0  0  0  0  0  0  0  0  0  0  0  0
  -30.0959  -15.5988   21.4851 N   0  0  0  0  0  0  0  0  0  0  0  0
  -29.1248  -24.0128   22.7828 N   0  0  0  0  0  0  0  0  0  0  0  0
  -30.0038  -23.3390   16.3168 N   0  0  0  0  0  0  0  0  0  0  0  0
  -32.8799  -24.0442   14.2435 N   0  3  0  0  0  0  0  0  0  0  0  0
  -22.6610  -14.7896   21.2373 O   0  0  0  0  0  0  0  0  0  0  0  0
  -29.7198  -21.9728   21.8306 O   0  0  0  0  0  0  0  0  0  0  0  0
  -28.9888  -24.5688   18.6972 O   0  0  0  0  0  0  0  0  0  0  0  0
  -31.8689  -22.0205   15.9166 O   0  0  0  0  0  0  0  0  0  0  0  0
  -31.8741  -14.7709   20.2463 O   0  0  0  0  0  0  0  0  0  0  0  0
  -21.4294   -7.1243   21.7966 O   0  0  0  0  0  0  0  0  0  0  0  0
  -35.3234  -19.5384   21.2323 O   0  0  0  0  0  0  0  0  0  1  0  0
  -34.0563  -17.3424   23.6081 O   0  0  0  0  0  0  0  0  0  0  0  0
  -23.7204   -3.0948   24.7830 F   0  0  0  0  0  0  0  0  0  0  0  0
  -23.7132   -5.8345   20.9230 F   0  0  0  0  0  0  0  0  0  0  0  0
  1  2  1  0  0  0  0
  1  5  2  0  0  0  0
  2  6  2  0  0  0  0
  3  9  2  0  0  0  0
  3 18  1  0  0  0  0
  4 10  1  0  0  0  0
  4 18  2  0  0  0  0
  5 20  1  0  0  0  0
  6 22  1  0  0  0  0
  7 11  2  0  0  0  0
  7 21  1  0  0  0  0
  8 12  2  0  0  0  0
  8 24  1  0  0  0  0
  9 26  1  0  0  0  0
 10 26  2  0  0  0  0
 11 27  1  0  0  0  0
 12 28  1  0  0  0  0
 13 14  2  0  0  0  0
 13 29  1  0  0  0  0
 14 30  1  0  0  0  0
 15 23  1  0  0  0  0
 15 27  2  0  0  0  0
 16 25  1  0  0  0  0
 16 28  2  0  0  0  0
 17 30  2  0  0  0  0
 17 31  1  0  0  0  0
 18 32  1  0  0  0  0
 19 32  1  0  0  0  0
 19 33  2  0  0  0  0
 19 34  1  0  0  0  0
 20 22  2  0  0  0  0
 20 39  1  0  0  0  0
 21 23  2  0  0  0  0
 21 40  1  0  0  0  0
 22 48  1  0  0  0  0
 23 41  1  0  0  0  0
 24 25  2  0  0  0  0
 24 57  1  0  0  0  0
 25 70  1  0  0  0  0
 26 79  1  0  0  0  0
 27 80  1  0  0  0  0
 28 81  1  0  0  0  0
 29 31  2  0  0  0  0
 29 79  1  0  0  0  0
 30 82  1  0  0  0  0
 31 83  1  0  0  0  0
 32 64  2  0  0  0  0
 33 65  1  0  0  0  0
 33 68  1  0  0  0  0
 34 69  1  0  0  0  0
 34 74  2  0  0  0  0
 35 49  1  0  0  0  0
 35 71  1  0  0  0  0
 35 75  2  0  0  0  0
 36 61  1  0  0  0  0
 36 66  1  0  0  0  0
 36 76  2  0  0  0  0
 37 62  1  0  0  0  0
 37 72  1  0  0  0  0
 37 77  2  0  0  0  0
 38 67  1  0  0  0  0
 38 70  1  0  0  0  0
 38 78  2  0  0  0  0
 39 42  1  0  0  0  0
 40 49  1  0  0  0  0
 41 66  1  0  0  0  0
 42 44  1  0  0  0  0
 43 45  1  0  0  0  0
 43 46  1  0  0  0  0
 44 48  1  0  0  0  0
 45 50  1  0  0  0  0
 46 67  1  0  0  0  0
 47 50  1  0  0  0  0
 47 67  1  0  0  0  0
 48 71  1  0  0  0  0
 49 66  1  0  0  0  0
 50 65  1  0  0  0  0
 51 57  1  0  0  0  0
 52 62  1  0  0  0  0
 53 63  1  0  0  0  0
 54 63  1  0  0  0  0
 55 63  1  0  0  0  0
 56 73  1  0  0  0  0
 58 59  1  0  0  0  0
 58 60  1  0  0  0  0
 59 80  1  0  0  0  0
 60 81  1  0  0  0  0
 61 63  1  0  0  0  0
 61 72  1  0  0  0  0
 62 73  1  0  0  0  0
 64 65  1  0  0  0  0
M  CHG  1  73   1
M  ISO  4  38 100  59 101  70 100  80 101
M  END
> <Batch ID>
0138

> <Smiles>
CCc1ccc(OCC[101CH2:1][101O:1]c2ccc3c(c2)CN(C(=O)C(NC(=O)C(C)NC)C(C)(C)C)C(C(=O)NC2CCCc4ccccc42)C3)cc1[100NH:0][100C:0](=O)N1CCCC(n2nc(-c3ccc(Oc4ccc(F)cc4F)cc3)c(C(N)=O)c2N)C1

> <Shape>
0.222

> <Color>
0.200

> <Negative vol penalty>
0.000

$$$$

  -OEChem-04052302453D

 88 97  0     1  0  0  0  0  0999 V2000
  -27.8453  -37.7890   22.3316 C   0  0  0  0  0  0  0  0  0  0  0  0
  -28.3512  -36.5751   21.8776 C   0  0  0  0  0  0  0  0  0  0  0  0
  -24.3206  -13.1037   17.7936 C   0  0  0  0  0  0  0  0  0  0  0  0
  -22.7885  -13.5081   19.6174 C   0  0  0  0  0  0  0  0  0  0  0  0
  -26.8309  -37.8062   23.2880 C   0  0  0  0  0  0  0  0  0  0  0  0
  -27.8437  -35.3777   22.3806 C   0  0  0  0  0  0  0  0  0  0  0  0
  -27.1384  -30.1107   19.3363 C   0  0  0  0  0  0  0  0  0  0  0  0
  -23.2490  -12.7588   16.9699 C   0  0  0  0  0  0  0  0  0  0  0  0
  -21.7169  -13.1632   18.7937 C   0  0  0  0  0  0  0  0  0  0  0  0
  -27.9143  -28.9543   19.2705 C   0  0  0  0  0  0  0  0  0  0  0  0
  -20.2834  -10.3331   17.6248 C   0  0  0  0  0  0  0  0  0  0  0  0
  -19.3093   -9.4842   18.1501 C   0  0  0  0  0  0  0  0  0  0  0  0
  -26.5398  -27.9424   20.9752 C   0  0  0  0  0  0  0  0  0  0  0  0
  -29.6020  -21.6413   20.0094 C   0  0  0  0  0  0  0  0  0  0  0  0
  -17.6347  -11.1907   17.8026 C   0  0  0  0  0  0  0  0  0  0  0  0
  -24.0903  -13.4783   19.1173 C   0  0  0  0  0  0  0  0  0  0  0  0
  -26.2906  -13.0227   20.3251 C   0  0  0  0  0  0  0  0  0  0  0  0
  -26.3041  -36.6082   23.7959 C   0  0  0  0  0  0  0  0  0  0  0  0
  -26.0623  -30.1959   20.2314 C   0  0  0  0  0  0  0  0  0  0  0  0
  -26.8222  -35.3789   23.3457 C   0  0  0  0  0  0  0  0  0  0  0  0
  -25.7503  -29.1001   21.0487 C   0  0  0  0  0  0  0  0  0  0  0  0
  -30.3553  -22.0582   18.8860 C   0  0  0  0  0  0  0  0  0  0  0  0
  -21.9472  -12.7886   17.4700 C   0  0  0  0  0  0  0  0  0  0  0  0
  -27.6168  -27.8709   20.0921 C   0  0  0  0  0  0  0  0  0  0  0  0
  -19.9332  -11.6109   17.1884 C   0  0  0  0  0  0  0  0  0  0  0  0
  -17.9850   -9.9129   18.2390 C   0  0  0  0  0  0  0  0  0  0  0  0
  -18.6089  -12.0396   17.2773 C   0  0  0  0  0  0  0  0  0  0  0  0
  -25.1969  -13.8342   19.9688 C   0  0  0  0  0  0  0  0  0  0  0  0
  -30.1639  -21.0979   17.9200 C   0  0  0  0  0  0  0  0  0  0  0  0
  -27.0560  -13.8176   21.1429 C   0  0  0  0  0  0  0  0  0  0  0  0
  -29.0037  -20.4561   19.6496 C   0  0  0  0  0  0  0  0  0  0  0  0
  -30.1967  -25.4451   19.1942 C   0  0  0  0  0  0  0  0  0  0  0  0
  -30.4138  -24.5193   18.2441 C   0  0  0  0  0  0  0  0  0  0  0  0
  -26.5882  -11.6711   19.9503 C   0  0  0  0  0  0  0  0  0  0  0  0
  -25.3511  -32.0487   22.7143 C   0  0  0  0  0  0  0  0  0  0  0  0
  -22.5265  -30.4581   22.5951 C   0  0  0  0  0  0  0  0  0  0  0  0
  -20.8140  -27.6615   21.6501 C   0  0  0  0  0  0  0  0  0  0  0  0
  -27.6742  -19.7379   21.6653 C   0  0  0  0  0  0  0  0  0  0  0  0
  -25.2408  -36.6777   24.8633 C   0  0  0  0  0  0  0  0  0  0  0  0
  -25.2187  -31.4405   20.2712 C   0  0  0  0  0  0  0  0  0  0  0  0
  -24.5931  -29.1334   22.0121 C   0  0  0  0  0  0  0  0  0  0  0  0
  -30.7798  -25.0455   20.5136 C   0  0  0  0  0  0  0  0  0  0  0  0
  -24.4982  -35.3601   25.0699 C   0  0  0  0  0  0  0  0  0  0  0  0
  -31.6463  -23.8321   20.1807 C   0  0  0  0  0  0  0  0  0  0  0  0
  -26.6946  -17.4651   24.2250 C   0  0  0  0  0  0  0  0  0  0  0  0
  -25.4839  -34.1989   25.1518 C   0  0  0  0  0  0  0  0  0  0  0  0
  -26.3046  -16.2002   23.4568 C   0  0  0  0  0  0  0  0  0  0  0  0
  -26.2948  -18.7323   23.4711 C   0  0  0  0  0  0  0  0  0  0  0  0
  -26.3823  -17.5414   21.3163 C   0  0  0  0  0  0  0  0  0  0  0  0
  -26.2805  -34.0586   23.8490 C   0  0  1  0  0  0  0  0  0  0  0  0
  -24.4625  -31.6080   21.5856 C   0  0  1  0  0  0  0  0  0  0  0  0
  -26.8228  -16.2398   22.0058 C   0  0  2  0  0  0  0  0  0  0  0  0
  -31.2144  -23.3302   18.7731 C   0  0  1  0  0  0  0  0  0  0  0  0
  -29.9459  -24.5466   16.8241 C   0  0  0  0  0  0  0  0  0  0  0  0
  -29.9071  -19.8534   15.7586 C   0  0  0  0  0  0  0  0  0  0  0  0
  -18.5255  -26.6345   21.7226 C   0  0  0  0  0  0  0  0  0  0  0  0
  -33.2595  -24.4695   17.8361 C   0  0  0  0  0  0  0  0  0  0  0  0
  -33.3705  -22.0513   18.5021 C   0  0  0  0  0  0  0  0  0  0  0  0
  -22.9260  -29.7820   25.5435 C   0  0  0  0  0  0  0  0  0  0  0  0
  -21.1656  -28.0178   25.3057 C   0  0  0  0  0  0  0  0  0  0  0  0
  -20.5865  -30.4143   24.9259 C   0  0  0  0  0  0  0  0  0  0  0  0
  -20.6336  -27.5727   18.6974 C   0  0  0  0  0  0  0  0  0  0  0  0
  -30.6561  -20.9386   16.5434 C   0  0  0  0  0  0  0  0  0  0  0  0
  -29.4558  -26.7343   19.1010 C   0  0  0  0  0  0  0  0  0  1  0  0
  -21.9863  -29.1908   23.2125 C   0  0  1  0  0  0  0  0  0  0  0  0
  -19.4952  -27.4869   20.9190 C   0  0  2  0  0  0  0  0  0  0  0  0
  -32.4916  -23.1543   17.9213 C   0  0  0  0  0  0  0  0  0  0  0  0
  -21.6892  -29.3510   24.7302 C   0  0  0  0  0  0  0  0  0  0  0  0
  -25.2581  -15.0512   20.5157 N   0  0  0  0  0  0  0  0  0  0  0  0
  -26.3995  -15.0104   21.2239 N   0  0  0  0  0  0  0  0  0  0  0  0
  -23.8019  -30.3750   22.0187 N   0  0  0  0  0  0  0  0  0  0  0  0
  -26.8242  -18.7016   22.1059 N   0  0  0  0  0  0  0  0  0  0  0  0
  -28.2197  -13.6057   21.7935 N   0  0  0  0  0  0  0  0  0  0  0  0
  -26.1038  -10.6321   20.7565 N   0  0  0  0  0  0  0  0  0  0  0  0
  -28.1417  -19.5847   20.3605 N   0  0  0  0  0  0  0  0  0  0  0  0
  -25.4749  -33.4201   22.8303 N   0  0  0  0  0  0  0  0  0  0  0  0
  -20.8267  -28.8096   22.4136 N   0  0  0  0  0  0  0  0  0  0  0  0
  -19.7171  -26.8295   19.6001 N   0  3  0  0  0  0  0  0  0  0  0  0
  -27.2776  -11.3937   18.9397 O   0  0  0  0  0  0  0  0  0  0  0  0
  -25.8836  -31.2070   23.4281 O   0  0  0  0  0  0  0  0  0  0  0  0
  -21.8391  -31.4821   22.6169 O   0  0  0  0  0  0  0  0  0  0  0  0
  -21.7390  -26.8576   21.5565 O   0  0  0  0  0  0  0  0  0  0  0  0
  -27.9879  -20.6771   22.4012 O   0  0  0  0  0  0  0  0  0  0  0  0
  -29.3411  -20.1179   18.3775 O   0  0  0  0  0  0  0  0  0  0  0  0
  -20.9014  -12.4523   16.6664 O   0  0  0  0  0  0  0  0  0  0  0  0
  -28.3729  -26.7411   20.0303 O   0  0  0  0  0  0  0  0  0  1  0  0
  -17.0494   -9.0970   18.7420 F   0  0  0  0  0  0  0  0  0  0  0  0
  -18.2662  -13.2657   16.8587 F   0  0  0  0  0  0  0  0  0  0  0  0
  1  2  1  0  0  0  0
  1  5  2  0  0  0  0
  2  6  2  0  0  0  0
  3  8  2  0  0  0  0
  3 16  1  0  0  0  0
  4  9  1  0  0  0  0
  4 16  2  0  0  0  0
  5 18  1  0  0  0  0
  6 20  1  0  0  0  0
  7 10  2  0  0  0  0
  7 19  1  0  0  0  0
  8 23  1  0  0  0  0
  9 23  2  0  0  0  0
 10 24  1  0  0  0  0
 11 12  2  0  0  0  0
 11 25  1  0  0  0  0
 12 26  1  0  0  0  0
 13 21  1  0  0  0  0
 13 24  2  0  0  0  0
 14 22  1  0  0  0  0
 14 31  2  0  0  0  0
 15 26  2  0  0  0  0
 15 27  1  0  0  0  0
 16 28  1  0  0  0  0
 17 28  1  0  0  0  0
 17 30  2  0  0  0  0
 17 34  1  0  0  0  0
 18 20  2  0  0  0  0
 18 39  1  0  0  0  0
 19 21  2  0  0  0  0
 19 40  1  0  0  0  0
 20 50  1  0  0  0  0
 21 41  1  0  0  0  0
 22 29  2  0  0  0  0
 22 53  1  0  0  0  0
 23 85  1  0  0  0  0
 24 86  1  0  0  0  0
 25 27  2  0  0  0  0
 25 85  1  0  0  0  0
 26 87  1  0  0  0  0
 27 88  1  0  0  0  0
 28 69  2  0  0  0  0
 29 63  1  0  0  0  0
 29 84  1  0  0  0  0
 30 70  1  0  0  0  0
 30 73  1  0  0  0  0
 31 75  1  0  0  0  0
 31 84  1  0  0  0  0
 32 33  2  0  0  0  0
 32 42  1  0  0  0  0
 32 64  1  0  0  0  0
 33 53  1  0  0  0  0
 33 54  1  0  0  0  0
 34 74  1  0  0  0  0
 34 79  2  0  0  0  0
 35 51  1  0  0  0  0
 35 76  1  0  0  0  0
 35 80  2  0  0  0  0
 36 65  1  0  0  0  0
 36 71  1  0  0  0  0
 36 81  2  0  0  0  0
 37 66  1  0  0  0  0
 37 77  1  0  0  0  0
 37 82  2  0  0  0  0
 38 72  1  0  0  0  0
 38 75  1  0  0  0  0
 38 83  2  0  0  0  0
 39 43  1  0  0  0  0
 40 51  1  0  0  0  0
 41 71  1  0  0  0  0
 42 44  1  0  0  0  0
 43 46  1  0  0  0  0
 44 53  1  0  0  0  0
 45 47  1  0  0  0  0
 45 48  1  0  0  0  0
 46 50  1  0  0  0  0
 47 52  1  0  0  0  0
 48 72  1  0  0  0  0
 49 52  1  0  0  0  0
 49 72  1  0  0  0  0
 50 76  1  0  0  0  0
 51 71  1  0  0  0  0
 52 70  1  0  0  0  0
 53 67  1  0  0  0  0
 55 63  1  0  0  0  0
 56 66  1  0  0  0  0
 57 67  1  0  0  0  0
 58 67  1  0  0  0  0
 59 68  1  0  0  0  0
 60 68  1  0  0  0  0
 61 68  1  0  0  0  0
 62 78  1  0  0  0  0
 64 86  1  0  0  0  0
 65 68  1  0  0  0  0
 65 77  1  0  0  0  0
 66 78  1  0  0  0  0
 69 70  1  0  0  0  0
M  CHG  1  78   1
M  ISO  4  38 100  64 101  75 100  86 101
M  END
> <Batch ID>
0138

> <Smiles>
CCc1oc([100NH:0][100C:0](=O)N2CCCC(n3nc(-c4ccc(Oc5ccc(F)cc5F)cc4)c(C(N)=O)c3N)C2)cc1C1(C(C)C)CCC([101CH2:1][101O:1]c2ccc3c(c2)CN(C(=O)C(NC(=O)C(C)NC)C(C)(C)C)C(C(=O)NC2CCCc4ccccc42)C3)=C1C

> <Shape>
0.278

> <Color>
0.072

> <Negative vol penalty>
0.000

$$$$

  -OEChem-04052302453D

 81 89  0     1  0  0  0  0  0999 V2000
  -37.4964  -19.1661   25.7321 C   0  0  0  0  0  0  0  0  0  0  0  0
  -36.4776  -19.4078   24.8161 C   0  0  0  0  0  0  0  0  0  0  0  0
  -23.0726   -9.8683   19.9426 C   0  0  0  0  0  0  0  0  0  0  0  0
  -23.8316   -9.8765   22.2363 C   0  0  0  0  0  0  0  0  0  0  0  0
  -37.7330  -20.0721   26.7651 C   0  0  0  0  0  0  0  0  0  0  0  0
  -35.6940  -20.5553   24.9333 C   0  0  0  0  0  0  0  0  0  0  0  0
  -34.9820  -22.8834   20.4928 C   0  0  0  0  0  0  0  0  0  0  0  0
  -22.3286   -8.7152   20.1929 C   0  0  0  0  0  0  0  0  0  0  0  0
  -23.0876   -8.7234   22.4866 C   0  0  0  0  0  0  0  0  0  0  0  0
  -34.0348  -22.3334   19.6302 C   0  0  0  0  0  0  0  0  0  0  0  0
  -19.3799   -7.9193   21.6435 C   0  0  0  0  0  0  0  0  0  0  0  0
  -18.0732   -7.8728   21.1577 C   0  0  0  0  0  0  0  0  0  0  0  0
  -32.4350  -23.9947   20.3375 C   0  0  0  0  0  0  0  0  0  0  0  0
  -30.1334  -19.3827   21.9097 C   0  0  0  0  0  0  0  0  0  0  0  0
  -18.6334   -5.9290   19.8367 C   0  0  0  0  0  0  0  0  0  0  0  0
  -23.8241  -10.4489   20.9643 C   0  0  0  0  0  0  0  0  0  0  0  0
  -24.1659  -12.9740   20.8431 C   0  0  0  0  0  0  0  0  0  0  0  0
  -36.9582  -21.2361   26.8893 C   0  0  0  0  0  0  0  0  0  0  0  0
  -34.6589  -23.9883   21.2936 C   0  0  0  0  0  0  0  0  0  0  0  0
  -35.9196  -21.4771   25.9697 C   0  0  0  0  0  0  0  0  0  0  0  0
  -33.3807  -24.5584   21.2075 C   0  0  0  0  0  0  0  0  0  0  0  0
  -29.6561  -18.0829   22.2457 C   0  0  0  0  0  0  0  0  0  0  0  0
  -22.3361   -8.1428   21.4649 C   0  0  0  0  0  0  0  0  0  0  0  0
  -32.7601  -22.8872   19.5546 C   0  0  0  0  0  0  0  0  0  0  0  0
  -20.3134   -6.9707   21.2257 C   0  0  0  0  0  0  0  0  0  0  0  0
  -17.6999   -6.8776   20.2544 C   0  0  0  0  0  0  0  0  0  0  0  0
  -19.9402   -5.9756   20.3224 C   0  0  0  0  0  0  0  0  0  0  0  0
  -24.5932  -11.6397   20.7063 C   0  0  0  0  0  0  0  0  0  0  0  0
  -31.0711  -19.3449   20.9013 C   0  0  0  0  0  0  0  0  0  0  0  0
  -25.2582  -13.7233   20.4799 C   0  0  0  0  0  0  0  0  0  0  0  0
  -30.2472  -17.1011   21.4810 C   0  0  0  0  0  0  0  0  0  0  0  0
  -22.8952  -13.4900   21.2613 C   0  0  0  0  0  0  0  0  0  0  0  0
  -34.5147  -24.5247   24.4233 C   0  0  0  0  0  0  0  0  0  0  0  0
  -33.9634  -27.5790   23.4801 C   0  0  0  0  0  0  0  0  0  0  0  0
  -32.8647  -29.7068   21.0486 C   0  0  0  0  0  0  0  0  0  0  0  0
  -30.7243  -14.7691   20.6562 C   0  0  0  0  0  0  0  0  0  0  0  0
  -37.2207  -22.1624   28.0502 C   0  0  0  0  0  0  0  0  0  0  0  0
  -35.7003  -24.5863   22.1992 C   0  0  0  0  0  0  0  0  0  0  0  0
  -32.9901  -25.7573   22.0311 C   0  0  0  0  0  0  0  0  0  0  0  0
  -36.5890  -23.5420   27.8835 C   0  0  0  0  0  0  0  0  0  0  0  0
  -29.6108  -12.3542   18.2886 C   0  0  0  0  0  0  0  0  0  0  0  0
  -35.1428  -23.4140   27.4156 C   0  0  0  0  0  0  0  0  0  0  0  0
  -28.1710  -12.0628   18.7178 C   0  0  0  0  0  0  0  0  0  0  0  0
  -30.5254  -12.5835   19.4905 C   0  0  0  0  0  0  0  0  0  0  0  0
  -28.6180  -13.3086   20.8707 C   0  0  0  0  0  0  0  0  0  0  0  0
  -35.0643  -22.7230   26.0490 C   0  0  1  0  0  0  0  0  0  0  0  0
  -35.1016  -25.3935   23.3470 C   0  0  1  0  0  0  0  0  0  0  0  0
  -27.6456  -13.1348   19.6926 C   0  0  2  0  0  0  0  0  0  0  0  0
  -28.6405  -17.8293   23.2958 C   0  0  0  0  0  0  0  0  0  0  0  0
  -32.4982  -32.1454   20.5834 C   0  0  0  0  0  0  0  0  0  0  0  0
  -31.4578  -27.5319   25.2207 C   0  0  0  0  0  0  0  0  0  0  0  0
  -30.6575  -29.5672   24.0020 C   0  0  0  0  0  0  0  0  0  0  0  0
  -32.7657  -29.6607   25.3322 C   0  0  0  0  0  0  0  0  0  0  0  0
  -29.7491  -21.9624   19.8469 C   0  0  0  0  0  0  0  0  0  0  0  0
  -30.5979  -20.4146   18.0682 C   0  0  0  0  0  0  0  0  0  0  0  0
  -34.7734  -29.6812   18.7870 C   0  0  0  0  0  0  0  0  0  0  0  0
  -31.8127  -20.4968   20.2620 C   0  0  0  0  0  0  0  0  0  0  0  0
  -32.7343  -28.3897   23.1469 C   0  0  1  0  0  0  0  0  0  0  0  0
  -33.4659  -30.9772   20.4750 C   0  0  2  0  0  0  0  0  0  0  0  0
  -31.9103  -28.7636   24.4112 C   0  0  0  0  0  0  0  0  0  0  0  0
  -30.9990  -21.3204   19.2392 C   0  0  0  0  0  0  0  0  0  1  0  0
  -25.8583  -11.5436   20.2885 N   0  0  0  0  0  0  0  0  0  0  0  0
  -26.2352  -12.8272   20.1597 N   0  0  0  0  0  0  0  0  0  0  0  0
  -34.0412  -26.3021   22.9062 N   0  0  0  0  0  0  0  0  0  0  0  0
  -29.9661  -13.6147   20.3672 N   0  0  0  0  0  0  0  0  0  0  0  0
  -25.4685  -15.0548   20.4063 N   0  0  0  0  0  0  0  0  0  0  0  0
  -21.8832  -12.5809   21.5986 N   0  0  0  0  0  0  0  0  0  0  0  0
  -30.0766  -15.6945   21.4739 N   0  0  0  0  0  0  0  0  0  0  0  0
  -35.4179  -23.6482   24.9938 N   0  0  0  0  0  0  0  0  0  0  0  0
  -33.1991  -29.5375   22.3756 N   0  0  0  0  0  0  0  0  0  0  0  0
  -33.8105  -30.7842   19.0380 N   0  3  0  0  0  0  0  0  0  0  0  0
  -22.6589  -14.7206   21.3179 O   0  0  0  0  0  0  0  0  0  0  0  0
  -33.3304  -24.6419   24.7156 O   0  0  0  0  0  0  0  0  0  0  0  0
  -34.8262  -28.0637   24.2166 O   0  0  0  0  0  0  0  0  0  0  0  0
  -32.1652  -28.9431   20.3869 O   0  0  0  0  0  0  0  0  0  0  0  0
  -31.8536  -14.9376   20.1889 O   0  0  0  0  0  0  0  0  0  0  0  0
  -21.6101   -7.0178   21.7095 O   0  0  0  0  0  0  0  0  0  0  0  0
  -31.8335  -22.3520   18.7140 O   0  0  0  0  0  0  0  0  0  1  0  0
  -16.4447   -6.8322   19.7892 F   0  0  0  0  0  0  0  0  0  0  0  0
  -20.8323   -5.0609   19.9184 F   0  0  0  0  0  0  0  0  0  0  0  0
  -31.3726  -17.7473   20.3637 S   0  0  0  0  0  0  0  0  0  0  0  0
  1  2  1  0  0  0  0
  1  5  2  0  0  0  0
  2  6  2  0  0  0  0
  3  8  2  0  0  0  0
  3 16  1  0  0  0  0
  4  9  1  0  0  0  0
  4 16  2  0  0  0  0
  5 18  1  0  0  0  0
  6 20  1  0  0  0  0
  7 10  2  0  0  0  0
  7 19  1  0  0  0  0
  8 23  1  0  0  0  0
  9 23  2  0  0  0  0
 10 24  1  0  0  0  0
 11 12  2  0  0  0  0
 11 25  1  0  0  0  0
 12 26  1  0  0  0  0
 13 21  1  0  0  0  0
 13 24  2  0  0  0  0
 14 22  1  0  0  0  0
 14 29  2  0  0  0  0
 15 26  2  0  0  0  0
 15 27  1  0  0  0  0
 16 28  1  0  0  0  0
 17 28  1  0  0  0  0
 17 30  2  0  0  0  0
 17 32  1  0  0  0  0
 18 20  2  0  0  0  0
 18 37  1  0  0  0  0
 19 21  2  0  0  0  0
 19 38  1  0  0  0  0
 20 46  1  0  0  0  0
 21 39  1  0  0  0  0
 22 31  2  0  0  0  0
 22 49  1  0  0  0  0
 23 77  1  0  0  0  0
 24 78  1  0  0  0  0
 25 27  2  0  0  0  0
 25 77  1  0  0  0  0
 26 79  1  0  0  0  0
 27 80  1  0  0  0  0
 28 62  2  0  0  0  0
 29 57  1  0  0  0  0
 29 81  1  0  0  0  0
 30 63  1  0  0  0  0
 30 66  1  0  0  0  0
 31 68  1  0  0  0  0
 31 81  1  0  0  0  0
 32 67  1  0  0  0  0
 32 72  2  0  0  0  0
 33 47  1  0  0  0  0
 33 69  1  0  0  0  0
 33 73  2  0  0  0  0
 34 58  1  0  0  0  0
 34 64  1  0  0  0  0
 34 74  2  0  0  0  0
 35 59  1  0  0  0  0
 35 70  1  0  0  0  0
 35 75  2  0  0  0  0
 36 65  1  0  0  0  0
 36 68  1  0  0  0  0
 36 76  2  0  0  0  0
 37 40  1  0  0  0  0
 38 47  1  0  0  0  0
 39 64  1  0  0  0  0
 40 42  1  0  0  0  0
 41 43  1  0  0  0  0
 41 44  1  0  0  0  0
 42 46  1  0  0  0  0
 43 48  1  0  0  0  0
 44 65  1  0  0  0  0
 45 48  1  0  0  0  0
 45 65  1  0  0  0  0
 46 69  1  0  0  0  0
 47 64  1  0  0  0  0
 48 63  1  0  0  0  0
 50 59  1  0  0  0  0
 51 60  1  0  0  0  0
 52 60  1  0  0  0  0
 53 60  1  0  0  0  0
 54 61  1  0  0  0  0
 55 61  1  0  0  0  0
 56 71  1  0  0  0  0
 57 61  1  0  0  0  0
 58 60  1  0  0  0  0
 58 70  1  0  0  0  0
 59 71  1  0  0  0  0
 61 78  1  0  0  0  0
 62 63  1  0  0  0  0
M  CHG  1  71   1
M  ISO  4  36 100  61 101  68 100  78 101
M  END
> <Batch ID>
0138

> <Smiles>
CNC(C)C(=O)NC(C(=O)N1Cc2cc([101O:1][101C:1](C)(C)Cc3cc(C)c([100NH:0][100C:0](=O)N4CCCC(n5nc(-c6ccc(Oc7ccc(F)cc7F)cc6)c(C(N)=O)c5N)C4)s3)ccc2CC1C(=O)NC1CCCc2ccccc21)C(C)(C)C

> <Shape>
0.170

> <Color>
0.196

> <Negative vol penalty>
0.000

$$$$

  -OEChem-04052302453D

 84 92  0     1  0  0  0  0  0999 V2000
  -29.5517  -23.7110   18.2517 C   0  0  0  0  0  0  0  0  0  0  0  0
  -28.2360  -24.0529   18.5476 C   0  0  0  0  0  0  0  0  0  0  0  0
  -27.2125  -15.1143   21.8253 C   0  0  0  0  0  0  0  0  0  0  0  0
  -26.2710  -15.2607   19.6051 C   0  0  0  0  0  0  0  0  0  0  0  0
  -30.5889  -24.1674   19.0640 C   0  0  0  0  0  0  0  0  0  0  0  0
  -27.9567  -24.8504   19.6568 C   0  0  0  0  0  0  0  0  0  0  0  0
  -24.6038  -28.5035   18.6280 C   0  0  0  0  0  0  0  0  0  0  0  0
  -19.7857  -22.6721   16.8014 C   0  0  0  0  0  0  0  0  0  0  0  0
  -20.8961  -21.9564   16.3538 C   0  0  0  0  0  0  0  0  0  0  0  0
  -26.9253  -13.7498   21.8571 C   0  0  0  0  0  0  0  0  0  0  0  0
  -25.9838  -13.8961   19.6369 C   0  0  0  0  0  0  0  0  0  0  0  0
  -23.2607  -28.1353   18.5636 C   0  0  0  0  0  0  0  0  0  0  0  0
  -23.6331  -11.8758   20.9871 C   0  0  0  0  0  0  0  0  0  0  0  0
  -22.3747  -11.4679   20.5448 C   0  0  0  0  0  0  0  0  0  0  0  0
  -22.9300  -28.9728   20.8015 C   0  0  0  0  0  0  0  0  0  0  0  0
  -20.8630  -23.0078   18.9377 C   0  0  0  0  0  0  0  0  0  0  0  0
  -23.4145  -10.1157   18.8337 C   0  0  0  0  0  0  0  0  0  0  0  0
  -26.8853  -15.8699   20.6993 C   0  0  0  0  0  0  0  0  0  0  0  0
  -28.3632  -17.8895   20.2048 C   0  0  0  0  0  0  0  0  0  0  0  0
  -30.3230  -24.9789   20.1782 C   0  0  0  0  0  0  0  0  0  0  0  0
  -25.1235  -29.1002   19.7857 C   0  0  0  0  0  0  0  0  0  0  0  0
  -28.9912  -25.3170   20.4856 C   0  0  0  0  0  0  0  0  0  0  0  0
  -24.2795  -29.3500   20.8771 C   0  0  0  0  0  0  0  0  0  0  0  0
  -19.7691  -23.1978   18.0933 C   0  0  0  0  0  0  0  0  0  0  0  0
  -21.9900  -21.7664   17.1982 C   0  0  0  0  0  0  0  0  0  0  0  0
  -21.9734  -22.2921   18.4901 C   0  0  0  0  0  0  0  0  0  0  0  0
  -26.3110  -13.1406   20.7629 C   0  0  0  0  0  0  0  0  0  0  0  0
  -22.4242  -28.3672   19.6515 C   0  0  0  0  0  0  0  0  0  0  0  0
  -24.7822  -11.4037   20.3527 C   0  0  0  0  0  0  0  0  0  0  0  0
  -22.2654  -10.5878   19.4681 C   0  0  0  0  0  0  0  0  0  0  0  0
  -24.6729  -10.5237   19.2760 C   0  0  0  0  0  0  0  0  0  0  0  0
  -27.1812  -17.2796   20.6661 C   0  0  0  0  0  0  0  0  0  0  0  0
  -28.1481  -19.2342   20.3838 C   0  0  0  0  0  0  0  0  0  0  0  0
  -29.5495  -17.2938   19.6630 C   0  0  0  0  0  0  0  0  0  0  0  0
  -27.3645  -28.3180   21.8999 C   0  0  0  0  0  0  0  0  0  0  0  0
  -19.5614  -26.1704   19.3161 C   0  0  0  0  0  0  0  0  0  0  0  0
  -26.7518  -31.2837   23.0627 C   0  0  0  0  0  0  0  0  0  0  0  0
  -24.5599  -33.8822   23.3628 C   0  0  0  0  0  0  0  0  0  0  0  0
  -23.2019  -22.5744   20.6713 C   0  0  0  0  0  0  0  0  0  0  0  0
  -31.4730  -25.4090   21.0540 C   0  0  0  0  0  0  0  0  0  0  0  0
  -26.5684  -29.5159   19.8293 C   0  0  0  0  0  0  0  0  0  0  0  0
  -24.7836  -30.0062   22.1356 C   0  0  0  0  0  0  0  0  0  0  0  0
  -31.1249  -26.5595   21.9950 C   0  0  0  0  0  0  0  0  0  0  0  0
  -25.7364  -22.3043   23.1573 C   0  0  0  0  0  0  0  0  0  0  0  0
  -29.7904  -26.2985   22.6864 C   0  0  0  0  0  0  0  0  0  0  0  0
  -26.5059  -21.0440   22.7551 C   0  0  0  0  0  0  0  0  0  0  0  0
  -24.2386  -22.1632   22.8919 C   0  0  0  0  0  0  0  0  0  0  0  0
  -24.6551  -20.5007   21.1223 C   0  0  0  0  0  0  0  0  0  0  0  0
  -28.6501  -26.2007   21.6658 C   0  0  1  0  0  0  0  0  0  0  0  0
  -27.1094  -29.6483   21.2496 C   0  0  1  0  0  0  0  0  0  0  0  0
  -26.1763  -20.6195   21.3106 C   0  0  2  0  0  0  0  0  0  0  0  0
  -23.1656  -20.9949   16.6923 C   0  0  0  0  0  0  0  0  0  0  0  0
  -17.2935  -26.1363   18.3088 C   0  0  0  0  0  0  0  0  0  0  0  0
  -24.3284  -36.1538   24.4036 C   0  0  0  0  0  0  0  0  0  0  0  0
  -26.3082  -29.9868   25.7888 C   0  0  0  0  0  0  0  0  0  0  0  0
  -25.1807  -32.0955   26.5308 C   0  0  0  0  0  0  0  0  0  0  0  0
  -27.5807  -32.1388   25.8520 C   0  0  0  0  0  0  0  0  0  0  0  0
  -24.2130  -35.1822   20.7268 C   0  0  0  0  0  0  0  0  0  0  0  0
  -18.5665  -23.9726   18.5769 C   0  0  0  0  0  0  0  0  0  0  0  0
  -20.7839  -26.8848   18.7754 C   0  0  0  0  0  0  0  0  0  1  0  0
  -18.6708  -25.4780   18.2873 C   0  0  2  0  0  0  0  0  0  0  0  0
  -25.7972  -31.8559   24.0826 C   0  0  1  0  0  0  0  0  0  0  0  0
  -24.7356  -35.3765   23.1616 C   0  0  2  0  0  0  0  0  0  0  0  0
  -26.2074  -31.5051   25.5407 C   0  0  0  0  0  0  0  0  0  0  0  0
  -26.2820  -18.1643   21.1052 N   0  0  0  0  0  0  0  0  0  0  0  0
  -26.8992  -19.3437   20.9207 N   0  0  0  0  0  0  0  0  0  0  0  0
  -26.2053  -30.3886   22.1321 N   0  0  0  0  0  0  0  0  0  0  0  0
  -24.0026  -21.7633   21.5030 N   0  0  0  0  0  0  0  0  0  0  0  0
  -28.9075  -20.3218   20.1328 N   0  0  0  0  0  0  0  0  0  0  0  0
  -29.6038  -15.8980   19.5487 N   0  0  0  0  0  0  0  0  0  0  0  0
  -23.0752  -22.1103   19.3624 N   0  0  0  0  0  0  0  0  0  0  0  0
  -28.2607  -27.5197   21.2151 N   0  0  0  0  0  0  0  0  0  0  0  0
  -25.7202  -33.2874   23.8115 N   0  0  0  0  0  0  0  0  0  0  0  0
  -23.9026  -35.8467   22.0188 N   0  3  0  0  0  0  0  0  0  0  0  0
  -30.5386  -17.9780   19.3065 O   0  0  0  0  0  0  0  0  0  0  0  0
  -26.7918  -28.0373   22.9463 O   0  0  0  0  0  0  0  0  0  0  0  0
  -19.2974  -26.1512   20.5184 O   0  0  0  0  0  0  0  0  0  0  0  0
  -27.9373  -31.6239   23.0864 O   0  0  0  0  0  0  0  0  0  0  0  0
  -23.4985  -33.3013   23.1474 O   0  0  0  0  0  0  0  0  0  0  0  0
  -22.6903  -23.6192   21.0819 O   0  0  0  0  0  0  0  0  0  0  0  0
  -26.0308  -11.8090   20.7935 O   0  0  0  0  0  0  0  0  0  0  0  0
  -21.1130  -28.0082   19.5915 O   0  0  0  0  0  0  0  0  0  1  0  0
  -21.0570  -10.1950   19.0444 F   0  0  0  0  0  0  0  0  0  0  0  0
  -25.7733  -10.0659   18.6633 F   0  0  0  0  0  0  0  0  0  0  0  0
  1  2  1  0  0  0  0
  1  5  2  0  0  0  0
  2  6  2  0  0  0  0
  3 10  2  0  0  0  0
  3 18  1  0  0  0  0
  4 11  1  0  0  0  0
  4 18  2  0  0  0  0
  5 20  1  0  0  0  0
  6 22  1  0  0  0  0
  7 12  2  0  0  0  0
  7 21  1  0  0  0  0
  8  9  2  0  0  0  0
  8 24  1  0  0  0  0
  9 25  1  0  0  0  0
 10 27  1  0  0  0  0
 11 27  2  0  0  0  0
 12 28  1  0  0  0  0
 13 14  2  0  0  0  0
 13 29  1  0  0  0  0
 14 30  1  0  0  0  0
 15 23  1  0  0  0  0
 15 28  2  0  0  0  0
 16 24  2  0  0  0  0
 16 26  1  0  0  0  0
 17 30  2  0  0  0  0
 17 31  1  0  0  0  0
 18 32  1  0  0  0  0
 19 32  1  0  0  0  0
 19 33  2  0  0  0  0
 19 34  1  0  0  0  0
 20 22  2  0  0  0  0
 20 40  1  0  0  0  0
 21 23  2  0  0  0  0
 21 41  1  0  0  0  0
 22 49  1  0  0  0  0
 23 42  1  0  0  0  0
 24 59  1  0  0  0  0
 25 26  2  0  0  0  0
 25 52  1  0  0  0  0
 26 71  1  0  0  0  0
 27 81  1  0  0  0  0
 28 82  1  0  0  0  0
 29 31  2  0  0  0  0
 29 81  1  0  0  0  0
 30 83  1  0  0  0  0
 31 84  1  0  0  0  0
 32 65  2  0  0  0  0
 33 66  1  0  0  0  0
 33 69  1  0  0  0  0
 34 70  1  0  0  0  0
 34 75  2  0  0  0  0
 35 50  1  0  0  0  0
 35 72  1  0  0  0  0
 35 76  2  0  0  0  0
 36 60  1  0  0  0  0
 36 61  1  0  0  0  0
 36 77  2  0  0  0  0
 37 62  1  0  0  0  0
 37 67  1  0  0  0  0
 37 78  2  0  0  0  0
 38 63  1  0  0  0  0
 38 73  1  0  0  0  0
 38 79  2  0  0  0  0
 39 68  1  0  0  0  0
 39 71  1  0  0  0  0
 39 80  2  0  0  0  0
 40 43  1  0  0  0  0
 41 50  1  0  0  0  0
 42 67  1  0  0  0  0
 43 45  1  0  0  0  0
 44 46  1  0  0  0  0
 44 47  1  0  0  0  0
 45 49  1  0  0  0  0
 46 51  1  0  0  0  0
 47 68  1  0  0  0  0
 48 51  1  0  0  0  0
 48 68  1  0  0  0  0
 49 72  1  0  0  0  0
 50 67  1  0  0  0  0
 51 66  1  0  0  0  0
 53 61  1  0  0  0  0
 54 63  1  0  0  0  0
 55 64  1  0  0  0  0
 56 64  1  0  0  0  0
 57 64  1  0  0  0  0
 58 74  1  0  0  0  0
 59 61  1  0  0  0  0
 60 82  1  0  0  0  0
 62 64  1  0  0  0  0
 62 73  1  0  0  0  0
 63 74  1  0  0  0  0
 65 66  1  0  0  0  0
M  CHG  1  74   1
M  ISO  4  39 100  60 101  71 100  82 101
M  END
> <Batch ID>
0138

> <Smiles>
CNC(C)C(=O)NC(C(=O)N1Cc2cc([101O:1][101CH2:1]C(=O)C(C)Cc3ccc(C)c([100NH:0][100C:0](=O)N4CCCC(n5nc(-c6ccc(Oc7ccc(F)cc7F)cc6)c(C(N)=O)c5N)C4)c3)ccc2CC1C(=O)NC1CCCc2ccccc21)C(C)(C)C

> <Shape>
0.258

> <Color>
0.080

> <Negative vol penalty>
0.000

$$$$

  -OEChem-04052302453D

 88 97  0     1  0  0  0  0  0999 V2000
  -27.5916  -35.8114   24.3674 C   0  0  0  0  0  0  0  0  0  0  0  0
  -27.8165  -34.4387   24.3438 C   0  0  0  0  0  0  0  0  0  0  0  0
  -24.6347   -9.2278   21.6986 C   0  0  0  0  0  0  0  0  0  0  0  0
  -23.6710  -11.0133   23.0102 C   0  0  0  0  0  0  0  0  0  0  0  0
  -26.2900  -36.3048   24.2883 C   0  0  0  0  0  0  0  0  0  0  0  0
  -26.7398  -33.5586   24.2420 C   0  0  0  0  0  0  0  0  0  0  0  0
  -27.5707  -29.8509   20.8942 C   0  0  0  0  0  0  0  0  0  0  0  0
  -24.1199   -8.2914   22.5951 C   0  0  0  0  0  0  0  0  0  0  0  0
  -23.1562  -10.0769   23.9067 C   0  0  0  0  0  0  0  0  0  0  0  0
  -28.3855  -28.7956   21.3021 C   0  0  0  0  0  0  0  0  0  0  0  0
  -21.1397   -6.8246   23.2276 C   0  0  0  0  0  0  0  0  0  0  0  0
  -20.5139   -5.6961   22.6981 C   0  0  0  0  0  0  0  0  0  0  0  0
  -26.7995  -21.6740   18.9193 C   0  0  0  0  0  0  0  0  0  0  0  0
  -28.3393  -19.9515   19.6255 C   0  0  0  0  0  0  0  0  0  0  0  0
  -26.4254  -27.4590   21.7385 C   0  0  0  0  0  0  0  0  0  0  0  0
  -26.2119  -19.3456   18.6538 C   0  0  0  0  0  0  0  0  0  0  0  0
  -22.1249   -4.2806   23.8108 C   0  0  0  0  0  0  0  0  0  0  0  0
  -24.4102  -10.5888   21.9061 C   0  0  0  0  0  0  0  0  0  0  0  0
  -28.0218  -21.3018   19.4786 C   0  0  0  0  0  0  0  0  0  0  0  0
  -24.3143  -12.0648   19.8277 C   0  0  0  0  0  0  0  0  0  0  0  0
  -25.1975  -35.4306   24.1758 C   0  0  0  0  0  0  0  0  0  0  0  0
  -26.1746  -29.7217   20.9159 C   0  0  0  0  0  0  0  0  0  0  0  0
  -25.4222  -34.0407   24.1627 C   0  0  0  0  0  0  0  0  0  0  0  0
  -25.5952  -28.5132   21.3281 C   0  0  0  0  0  0  0  0  0  0  0  0
  -25.8944  -20.6959   18.5070 C   0  0  0  0  0  0  0  0  0  0  0  0
  -27.4343  -18.9734   19.2131 C   0  0  0  0  0  0  0  0  0  0  0  0
  -23.3807   -8.7159   23.6992 C   0  0  0  0  0  0  0  0  0  0  0  0
  -27.8128  -27.6004   21.7270 C   0  0  0  0  0  0  0  0  0  0  0  0
  -22.2583   -6.6811   24.0486 C   0  0  0  0  0  0  0  0  0  0  0  0
  -21.0064   -4.4241   22.9897 C   0  0  0  0  0  0  0  0  0  0  0  0
  -22.7508   -5.4091   24.3402 C   0  0  0  0  0  0  0  0  0  0  0  0
  -24.9422  -11.5566   20.9807 C   0  0  0  0  0  0  0  0  0  0  0  0
  -25.2264  -12.9458   19.3001 C   0  0  0  0  0  0  0  0  0  0  0  0
  -28.9780  -22.3356   19.9137 C   0  0  0  0  0  0  0  0  0  0  0  0
  -23.0221  -11.7672   19.2825 C   0  0  0  0  0  0  0  0  0  0  0  0
  -23.8090  -31.1946   22.4451 C   0  0  0  0  0  0  0  0  0  0  0  0
  -21.9468  -29.3460   20.5379 C   0  0  0  0  0  0  0  0  0  0  0  0
  -21.6361  -26.5148   18.6579 C   0  0  0  0  0  0  0  0  0  0  0  0
  -28.9282  -17.0625   19.8936 C   0  0  0  0  0  0  0  0  0  0  0  0
  -23.8052  -36.0094   24.1408 C   0  0  0  0  0  0  0  0  0  0  0  0
  -25.3102  -30.8601   20.4475 C   0  0  0  0  0  0  0  0  0  0  0  0
  -24.1021  -28.3166   21.3507 C   0  0  0  0  0  0  0  0  0  0  0  0
  -22.7467  -35.0213   23.6576 C   0  0  0  0  0  0  0  0  0  0  0  0
  -30.0876  -13.7446   20.4629 C   0  0  0  0  0  0  0  0  0  0  0  0
  -22.9172  -33.6741   24.3526 C   0  0  0  0  0  0  0  0  0  0  0  0
  -28.8007  -12.9214   20.5535 C   0  0  0  0  0  0  0  0  0  0  0  0
  -28.3406  -23.0278   23.4162 C   0  0  0  0  0  0  0  0  0  0  0  0
  -29.9225  -15.1265   21.0928 C   0  0  0  0  0  0  0  0  0  0  0  0
  -27.9329  -22.3119   22.1330 C   0  0  0  0  0  0  0  0  0  0  0  0
  -27.4933  -15.0801   20.6853 C   0  0  0  0  0  0  0  0  0  0  0  0
  -24.2820  -33.0548   24.0284 C   0  0  1  0  0  0  0  0  0  0  0  0
  -23.8890  -30.7971   20.9983 C   0  0  1  0  0  0  0  0  0  0  0  0
  -27.5912  -13.7043   20.0062 C   0  0  2  0  0  0  0  0  0  0  0  0
  -29.7944  -23.8713   21.6776 C   0  0  1  0  0  0  0  0  0  0  0  0
  -29.0177  -24.3303   22.9427 C   0  0  2  0  0  0  0  0  0  0  0  0
  -24.5877  -21.0940   17.9081 C   0  0  0  0  0  0  0  0  0  0  0  0
  -31.1800  -23.2833   21.9247 C   0  0  0  0  0  0  0  0  0  0  0  0
  -29.8960  -24.9262   24.0465 C   0  0  0  0  0  0  0  0  0  0  0  0
  -19.9830  -25.2562   17.2506 C   0  0  0  0  0  0  0  0  0  0  0  0
  -20.5343  -28.3811   23.0645 C   0  0  0  0  0  0  0  0  0  0  0  0
  -19.5923  -26.4840   21.7296 C   0  0  0  0  0  0  0  0  0  0  0  0
  -19.0163  -28.8358   21.1298 C   0  0  0  0  0  0  0  0  0  0  0  0
  -23.3365  -26.7470   16.2467 C   0  0  0  0  0  0  0  0  0  0  0  0
  -27.9519  -25.3732   22.5494 C   0  0  0  0  0  0  0  0  0  1  0  0
  -21.3412  -27.9675   20.6471 C   0  0  1  0  0  0  0  0  0  0  0  0
  -21.0979  -26.2904   17.2563 C   0  0  2  0  0  0  0  0  0  0  0  0
  -20.1492  -27.9212   21.6443 C   0  0  0  0  0  0  0  0  0  0  0  0
  -26.1592  -12.0716   21.1745 N   0  0  0  0  0  0  0  0  0  0  0  0
  -26.3034  -12.9127   20.1363 N   0  0  0  0  0  0  0  0  0  0  0  0
  -28.9206  -22.7930   21.1529 N   0  0  0  0  0  0  0  0  0  0  0  0
  -23.2993  -29.4612   20.8893 N   0  0  0  0  0  0  0  0  0  0  0  0
  -28.7600  -15.8109   20.5227 N   0  0  0  0  0  0  0  0  0  0  0  0
  -25.2043  -13.7377   18.2070 N   0  0  0  0  0  0  0  0  0  0  0  0
  -22.2126  -10.8385   19.9508 N   0  0  0  0  0  0  0  0  0  0  0  0
  -27.7579  -17.6018   19.3605 N   0  0  0  0  0  0  0  0  0  0  0  0
  -24.2704  -32.4712   22.7041 N   0  0  0  0  0  0  0  0  0  0  0  0
  -20.9992  -27.5630   19.2878 N   0  0  0  0  0  0  0  0  0  0  0  0
  -29.8844  -22.7907   19.0537 N   0  3  0  0  0  0  0  0  0  0  0  0
  -22.1846  -25.8149   16.3541 N   0  3  0  0  0  0  0  0  0  0  0  0
  -22.6043  -12.2966   18.2248 O   0  0  0  0  0  0  0  0  0  0  0  0
  -23.3605  -30.4025   23.2654 O   0  0  0  0  0  0  0  0  0  0  0  0
  -21.2476  -30.2846   20.1482 O   0  0  0  0  0  0  0  0  0  0  0  0
  -22.5294  -25.8265   19.1465 O   0  0  0  0  0  0  0  0  0  0  0  0
  -30.0341  -17.6026   19.8084 O   0  0  0  0  0  0  0  0  0  0  0  0
  -22.8780   -7.8025   24.5741 O   0  0  0  0  0  0  0  0  0  0  0  0
  -28.6057  -26.5690   22.1262 O   0  0  0  0  0  0  0  0  0  1  0  0
  -20.4044   -3.3404   22.4825 F   0  0  0  0  0  0  0  0  0  0  0  0
  -23.8243   -5.2649   25.1293 F   0  0  0  0  0  0  0  0  0  0  0  0
  1  2  1  0  0  0  0
  1  5  2  0  0  0  0
  2  6  2  0  0  0  0
  3  8  2  0  0  0  0
  3 18  1  0  0  0  0
  4  9  1  0  0  0  0
  4 18  2  0  0  0  0
  5 21  1  0  0  0  0
  6 23  1  0  0  0  0
  7 10  2  0  0  0  0
  7 22  1  0  0  0  0
  8 27  1  0  0  0  0
  9 27  2  0  0  0  0
 10 28  1  0  0  0  0
 11 12  2  0  0  0  0
 11 29  1  0  0  0  0
 12 30  1  0  0  0  0
 13 19  1  0  0  0  0
 13 25  2  0  0  0  0
 14 19  2  0  0  0  0
 14 26  1  0  0  0  0
 15 24  1  0  0  0  0
 15 28  2  0  0  0  0
 16 25  1  0  0  0  0
 16 26  2  0  0  0  0
 17 30  2  0  0  0  0
 17 31  1  0  0  0  0
 18 32  1  0  0  0  0
 19 34  1  0  0  0  0
 20 32  1  0  0  0  0
 20 33  2  0  0  0  0
 20 35  1  0  0  0  0
 21 23  2  0  0  0  0
 21 40  1  0  0  0  0
 22 24  2  0  0  0  0
 22 41  1  0  0  0  0
 23 51  1  0  0  0  0
 24 42  1  0  0  0  0
 25 56  1  0  0  0  0
 26 75  1  0  0  0  0
 27 85  1  0  0  0  0
 28 86  1  0  0  0  0
 29 31  2  0  0  0  0
 29 85  1  0  0  0  0
 30 87  1  0  0  0  0
 31 88  1  0  0  0  0
 32 68  2  0  0  0  0
 33 69  1  0  0  0  0
 33 73  1  0  0  0  0
 34 70  1  0  0  0  0
 34 78  2  0  0  0  0
 35 74  1  0  0  0  0
 35 80  2  0  0  0  0
 36 52  1  0  0  0  0
 36 76  1  0  0  0  0
 36 81  2  0  0  0  0
 37 65  1  0  0  0  0
 37 71  1  0  0  0  0
 37 82  2  0  0  0  0
 38 66  1  0  0  0  0
 38 77  1  0  0  0  0
 38 83  2  0  0  0  0
 39 72  1  0  0  0  0
 39 75  1  0  0  0  0
 39 84  2  0  0  0  0
 40 43  1  0  0  0  0
 41 52  1  0  0  0  0
 42 71  1  0  0  0  0
 43 45  1  0  0  0  0
 44 46  1  0  0  0  0
 44 48  1  0  0  0  0
 45 51  1  0  0  0  0
 46 53  1  0  0  0  0
 47 49  1  0  0  0  0
 47 55  1  0  0  0  0
 48 72  1  0  0  0  0
 49 70  1  0  0  0  0
 50 53  1  0  0  0  0
 50 72  1  0  0  0  0
 51 76  1  0  0  0  0
 52 71  1  0  0  0  0
 53 69  1  0  0  0  0
 54 55  1  0  0  0  0
 54 57  1  0  0  0  0
 54 70  1  0  0  0  0
 55 58  1  0  0  0  0
 55 64  1  0  0  0  0
 59 66  1  0  0  0  0
 60 67  1  0  0  0  0
 61 67  1  0  0  0  0
 62 67  1  0  0  0  0
 63 79  1  0  0  0  0
 64 86  1  0  0  0  0
 65 67  1  0  0  0  0
 65 77  1  0  0  0  0
 66 79  1  0  0  0  0
 68 69  1  0  0  0  0
M  CHG  2  78   1  79   1
M  ISO  4  39 100  64 101  75 100  86 101
M  END
> <Batch ID>
0138

> <Smiles>
CNC(C)C(=O)NC(C(=O)N1Cc2cc([101O:1][101CH2:1]C3(C)CCN(C(=N)c4cc(C)cc([100NH:0][100C:0](=O)N5CCCC(n6nc(-c7ccc(Oc8ccc(F)cc8F)cc7)c(C(N)=O)c6N)C5)c4)C3C)ccc2CC1C(=O)NC1CCCc2ccccc21)C(C)(C)C

> <Shape>
0.325

> <Color>
0.078

> <Negative vol penalty>
0.000

$$$$

  -OEChem-04052302453D

 86 95  0     1  0  0  0  0  0999 V2000
  -26.0702  -36.1282   18.6489 C   0  0  0  0  0  0  0  0  0  0  0  0
  -26.6917  -34.9353   19.0043 C   0  0  0  0  0  0  0  0  0  0  0  0
  -23.2838  -10.9189   23.0527 C   0  0  0  0  0  0  0  0  0  0  0  0
  -22.5976  -13.1833   22.5638 C   0  0  0  0  0  0  0  0  0  0  0  0
  -24.9329  -36.5517   19.3352 C   0  0  0  0  0  0  0  0  0  0  0  0
  -26.1768  -34.1658   20.0470 C   0  0  0  0  0  0  0  0  0  0  0  0
  -25.9808  -29.2351   18.9095 C   0  0  0  0  0  0  0  0  0  0  0  0
  -22.2386  -10.7999   23.9687 C   0  0  0  0  0  0  0  0  0  0  0  0
  -21.5524  -13.0643   23.4798 C   0  0  0  0  0  0  0  0  0  0  0  0
  -27.1742  -28.5176   18.9790 C   0  0  0  0  0  0  0  0  0  0  0  0
  -18.9035  -10.2492   23.8849 C   0  0  0  0  0  0  0  0  0  0  0  0
  -18.1421   -9.0811   23.8514 C   0  0  0  0  0  0  0  0  0  0  0  0
  -26.5292  -27.6659   21.1418 C   0  0  0  0  0  0  0  0  0  0  0  0
  -26.0276  -21.6005   18.4931 C   0  0  0  0  0  0  0  0  0  0  0  0
  -25.6735  -19.2115   18.4292 C   0  0  0  0  0  0  0  0  0  0  0  0
  -27.6900  -20.1079   19.4126 C   0  0  0  0  0  0  0  0  0  0  0  0
  -18.7690   -8.6069   26.1360 C   0  0  0  0  0  0  0  0  0  0  0  0
  -23.4633  -12.1106   22.3503 C   0  0  0  0  0  0  0  0  0  0  0  0
  -24.7588  -11.4529   20.2535 C   0  0  0  0  0  0  0  0  0  0  0  0
  -24.3981  -35.7822   20.3805 C   0  0  0  0  0  0  0  0  0  0  0  0
  -25.0560  -29.1818   19.9622 C   0  0  0  0  0  0  0  0  0  0  0  0
  -25.0320  -34.5802   20.7488 C   0  0  0  0  0  0  0  0  0  0  0  0
  -25.3237  -28.3816   21.0821 C   0  0  0  0  0  0  0  0  0  0  0  0
  -25.2374  -20.5053   18.1440 C   0  0  0  0  0  0  0  0  0  0  0  0
  -27.2539  -21.4018   19.1274 C   0  0  0  0  0  0  0  0  0  0  0  0
  -26.8998  -19.0127   19.0635 C   0  0  0  0  0  0  0  0  0  0  0  0
  -21.3729  -11.8726   24.1822 C   0  0  0  0  0  0  0  0  0  0  0  0
  -27.4499  -27.7352   20.0965 C   0  0  0  0  0  0  0  0  0  0  0  0
  -19.5978  -10.5962   25.0439 C   0  0  0  0  0  0  0  0  0  0  0  0
  -18.0748   -8.2599   24.9769 C   0  0  0  0  0  0  0  0  0  0  0  0
  -19.5305   -9.7751   26.1694 C   0  0  0  0  0  0  0  0  0  0  0  0
  -24.5431  -12.2344   21.4044 C   0  0  0  0  0  0  0  0  0  0  0  0
  -25.9073  -11.9649   19.7010 C   0  0  0  0  0  0  0  0  0  0  0  0
  -23.9897  -10.3617   19.7305 C   0  0  0  0  0  0  0  0  0  0  0  0
  -23.8237  -31.3108   21.9753 C   0  0  0  0  0  0  0  0  0  0  0  0
  -21.9756  -28.8040   22.8822 C   0  0  0  0  0  0  0  0  0  0  0  0
  -22.4374  -25.2792   23.4989 C   0  0  0  0  0  0  0  0  0  0  0  0
  -28.5322  -17.3258   19.9778 C   0  0  0  0  0  0  0  0  0  0  0  0
  -23.1945  -36.3046   21.1243 C   0  0  0  0  0  0  0  0  0  0  0  0
  -23.7612  -29.9405   19.8601 C   0  0  0  0  0  0  0  0  0  0  0  0
  -24.3546  -28.2744   22.2301 C   0  0  0  0  0  0  0  0  0  0  0  0
  -22.4941  -35.2445   21.9703 C   0  0  0  0  0  0  0  0  0  0  0  0
  -29.9672  -14.2018   20.9045 C   0  0  0  0  0  0  0  0  0  0  0  0
  -23.5130  -34.4477   22.7788 C   0  0  0  0  0  0  0  0  0  0  0  0
  -28.7593  -13.2701   21.0271 C   0  0  0  0  0  0  0  0  0  0  0  0
  -29.6379  -23.5086   21.0756 C   0  0  0  0  0  0  0  0  0  0  0  0
  -29.2722  -24.5414   18.8243 C   0  0  0  0  0  0  0  0  0  0  0  0
  -29.6465  -15.6134   21.3925 C   0  0  0  0  0  0  0  0  0  0  0  0
  -28.3661  -22.6780   20.9000 C   0  0  0  0  0  0  0  0  0  0  0  0
  -28.0001  -23.7104   18.6495 C   0  0  0  0  0  0  0  0  0  0  0  0
  -27.2529  -15.2956   20.9038 C   0  0  0  0  0  0  0  0  0  0  0  0
  -24.4891  -33.7055   21.8580 C   0  0  1  0  0  0  0  0  0  0  0  0
  -23.1231  -30.2188   21.2175 C   0  0  1  0  0  0  0  0  0  0  0  0
  -27.5083  -13.8790   20.3638 C   0  0  2  0  0  0  0  0  0  0  0  0
  -29.6147  -24.8385   20.2970 C   0  0  0  0  0  0  0  0  0  0  0  0
  -23.9263  -20.7180   17.4658 C   0  0  0  0  0  0  0  0  0  0  0  0
  -31.0067  -25.4920   20.3710 C   0  0  0  0  0  0  0  0  0  0  0  0
  -20.8173  -23.3693   23.3408 C   0  0  0  0  0  0  0  0  0  0  0  0
  -21.5508  -29.2968   25.8633 C   0  0  0  0  0  0  0  0  0  0  0  0
  -21.4062  -26.8177   26.1815 C   0  0  0  0  0  0  0  0  0  0  0  0
  -19.7310  -27.9897   24.7523 C   0  0  0  0  0  0  0  0  0  0  0  0
  -24.1925  -23.7928   21.6364 C   0  0  0  0  0  0  0  0  0  0  0  0
  -28.5952  -25.8164   20.9104 C   0  0  0  0  0  0  0  0  0  1  0  0
  -22.0965  -27.7023   23.9073 C   0  0  1  0  0  0  0  0  0  0  0  0
  -21.9315  -24.1328   22.6420 C   0  0  2  0  0  0  0  0  0  0  0  0
  -21.2191  -27.9634   25.1641 C   0  0  0  0  0  0  0  0  0  0  0  0
  -25.4795  -13.1715   21.5742 N   0  0  0  0  0  0  0  0  0  0  0  0
  -26.2948  -12.9821   20.5228 N   0  0  0  0  0  0  0  0  0  0  0  0
  -28.0475  -22.5022   19.4779 N   0  0  0  0  0  0  0  0  0  0  0  0
  -23.1053  -29.0400   22.0861 N   0  0  0  0  0  0  0  0  0  0  0  0
  -28.4524  -16.1270   20.7177 N   0  0  0  0  0  0  0  0  0  0  0  0
  -26.6135  -11.6397   18.5974 N   0  0  0  0  0  0  0  0  0  0  0  0
  -22.9594  -10.6447   18.8234 N   0  0  0  0  0  0  0  0  0  0  0  0
  -27.3422  -17.6982   19.3535 N   0  0  0  0  0  0  0  0  0  0  0  0
  -23.8646  -32.5208   21.3092 N   0  0  0  0  0  0  0  0  0  0  0  0
  -21.7858  -26.4594   23.2093 N   0  0  0  0  0  0  0  0  0  0  0  0
  -23.0388  -23.1807   22.3445 N   0  3  0  0  0  0  0  0  0  0  0  0
  -24.1989   -9.1725   20.0705 O   0  0  0  0  0  0  0  0  0  0  0  0
  -24.2912  -31.0736   23.0829 O   0  0  0  0  0  0  0  0  0  0  0  0
  -20.9154  -29.4272   22.7864 O   0  0  0  0  0  0  0  0  0  0  0  0
  -23.3194  -25.1407   24.3435 O   0  0  0  0  0  0  0  0  0  0  0  0
  -29.5860  -17.9598   19.8812 O   0  0  0  0  0  0  0  0  0  0  0  0
  -20.3527  -11.7567   25.0758 O   0  0  0  0  0  0  0  0  0  0  0  0
  -28.6143  -27.0345   20.1672 O   0  0  0  0  0  0  0  0  0  1  0  0
  -17.3423   -7.1389   24.9451 F   0  0  0  0  0  0  0  0  0  0  0  0
  -20.1944  -10.1039   27.2861 F   0  0  0  0  0  0  0  0  0  0  0  0
  1  2  1  0  0  0  0
  1  5  2  0  0  0  0
  2  6  2  0  0  0  0
  3  8  2  0  0  0  0
  3 18  1  0  0  0  0
  4  9  1  0  0  0  0
  4 18  2  0  0  0  0
  5 20  1  0  0  0  0
  6 22  1  0  0  0  0
  7 10  2  0  0  0  0
  7 21  1  0  0  0  0
  8 27  1  0  0  0  0
  9 27  2  0  0  0  0
 10 28  1  0  0  0  0
 11 12  2  0  0  0  0
 11 29  1  0  0  0  0
 12 30  1  0  0  0  0
 13 23  1  0  0  0  0
 13 28  2  0  0  0  0
 14 24  2  0  0  0  0
 14 25  1  0  0  0  0
 15 24  1  0  0  0  0
 15 26  2  0  0  0  0
 16 25  2  0  0  0  0
 16 26  1  0  0  0  0
 17 30  2  0  0  0  0
 17 31  1  0  0  0  0
 18 32  1  0  0  0  0
 19 32  1  0  0  0  0
 19 33  2  0  0  0  0
 19 34  1  0  0  0  0
 20 22  2  0  0  0  0
 20 39  1  0  0  0  0
 21 23  2  0  0  0  0
 21 40  1  0  0  0  0
 22 52  1  0  0  0  0
 23 41  1  0  0  0  0
 24 56  1  0  0  0  0
 25 69  1  0  0  0  0
 26 74  1  0  0  0  0
 27 83  1  0  0  0  0
 28 84  1  0  0  0  0
 29 31  2  0  0  0  0
 29 83  1  0  0  0  0
 30 85  1  0  0  0  0
 31 86  1  0  0  0  0
 32 67  2  0  0  0  0
 33 68  1  0  0  0  0
 33 72  1  0  0  0  0
 34 73  1  0  0  0  0
 34 78  2  0  0  0  0
 35 53  1  0  0  0  0
 35 75  1  0  0  0  0
 35 79  2  0  0  0  0
 36 64  1  0  0  0  0
 36 70  1  0  0  0  0
 36 80  2  0  0  0  0
 37 65  1  0  0  0  0
 37 76  1  0  0  0  0
 37 81  2  0  0  0  0
 38 71  1  0  0  0  0
 38 74  1  0  0  0  0
 38 82  2  0  0  0  0
 39 42  1  0  0  0  0
 40 53  1  0  0  0  0
 41 70  1  0  0  0  0
 42 44  1  0  0  0  0
 43 45  1  0  0  0  0
 43 48  1  0  0  0  0
 44 52  1  0  0  0  0
 45 54  1  0  0  0  0
 46 49  1  0  0  0  0
 46 55  1  0  0  0  0
 47 50  1  0  0  0  0
 47 55  1  0  0  0  0
 48 71  1  0  0  0  0
 49 69  1  0  0  0  0
 50 69  1  0  0  0  0
 51 54  1  0  0  0  0
 51 71  1  0  0  0  0
 52 75  1  0  0  0  0
 53 70  1  0  0  0  0
 54 68  1  0  0  0  0
 55 57  1  0  0  0  0
 55 63  1  0  0  0  0
 58 65  1  0  0  0  0
 59 66  1  0  0  0  0
 60 66  1  0  0  0  0
 61 66  1  0  0  0  0
 62 77  1  0  0  0  0
 63 84  1  0  0  0  0
 64 66  1  0  0  0  0
 64 76  1  0  0  0  0
 65 77  1  0  0  0  0
 67 68  1  0  0  0  0
M  CHG  1  77   1
M  ISO  4  38 100  63 101  74 100  84 101
M  END
> <Batch ID>
0138

> <Smiles>
CNC(C)C(=O)NC(C(=O)N1Cc2cc([101O:1][101CH2:1]C3(C)CCN(c4cc(C)cc([100NH:0][100C:0](=O)N5CCCC(n6nc(-c7ccc(Oc8ccc(F)cc8F)cc7)c(C(N)=O)c6N)C5)c4)CC3)ccc2CC1C(=O)NC1CCCc2ccccc21)C(C)(C)C

> <Shape>
0.231

> <Color>
0.071

> <Negative vol penalty>
0.000

$$$$

  -OEChem-04052302453D

 84 92  0     1  0  0  0  0  0999 V2000
  -30.6135  -36.2607   20.2861 C   0  0  0  0  0  0  0  0  0  0  0  0
  -30.4979  -34.9026   20.0076 C   0  0  0  0  0  0  0  0  0  0  0  0
  -24.7267   -8.2332   21.4010 C   0  0  0  0  0  0  0  0  0  0  0  0
  -23.1712  -10.0427   21.0225 C   0  0  0  0  0  0  0  0  0  0  0  0
  -29.9408  -36.8069   21.3783 C   0  0  0  0  0  0  0  0  0  0  0  0
  -29.7103  -34.0896   20.8220 C   0  0  0  0  0  0  0  0  0  0  0  0
  -26.3591  -29.2708   19.0744 C   0  0  0  0  0  0  0  0  0  0  0  0
  -23.8705   -7.6985   22.3637 C   0  0  0  0  0  0  0  0  0  0  0  0
  -22.3150   -9.5080   21.9852 C   0  0  0  0  0  0  0  0  0  0  0  0
  -26.5992  -27.8980   19.1124 C   0  0  0  0  0  0  0  0  0  0  0  0
  -21.0288   -5.8674   22.4286 C   0  0  0  0  0  0  0  0  0  0  0  0
  -20.7925   -4.4932   22.3945 C   0  0  0  0  0  0  0  0  0  0  0  0
  -25.3930  -27.7509   21.1963 C   0  0  0  0  0  0  0  0  0  0  0  0
  -27.9214  -18.4937   19.1119 C   0  0  0  0  0  0  0  0  0  0  0  0
  -21.6899   -4.2835   24.6278 C   0  0  0  0  0  0  0  0  0  0  0  0
  -24.3770   -9.4053   20.7304 C   0  0  0  0  0  0  0  0  0  0  0  0
  -25.2707   -9.6782   18.3567 C   0  0  0  0  0  0  0  0  0  0  0  0
  -29.1368  -36.0021   22.2008 C   0  0  0  0  0  0  0  0  0  0  0  0
  -25.6423  -29.8968   20.1043 C   0  0  0  0  0  0  0  0  0  0  0  0
  -29.0273  -34.6253   21.9271 C   0  0  0  0  0  0  0  0  0  0  0  0
  -25.1430  -29.1314   21.1677 C   0  0  0  0  0  0  0  0  0  0  0  0
  -27.1152  -19.6346   18.8319 C   0  0  0  0  0  0  0  0  0  0  0  0
  -22.6647   -8.3359   22.6558 C   0  0  0  0  0  0  0  0  0  0  0  0
  -26.1186  -27.1382   20.1749 C   0  0  0  0  0  0  0  0  0  0  0  0
  -21.5957   -6.4497   23.5623 C   0  0  0  0  0  0  0  0  0  0  0  0
  -21.1231   -3.7012   23.4941 C   0  0  0  0  0  0  0  0  0  0  0  0
  -21.9262   -5.6577   24.6619 C   0  0  0  0  0  0  0  0  0  0  0  0
  -25.2612   -9.9584   19.7363 C   0  0  0  0  0  0  0  0  0  0  0  0
  -25.7803  -19.3116   18.7258 C   0  0  0  0  0  0  0  0  0  0  0  0
  -26.2900  -10.4510   17.8564 C   0  0  0  0  0  0  0  0  0  0  0  0
  -27.1718  -17.3419   19.2093 C   0  0  0  0  0  0  0  0  0  0  0  0
  -26.9007  -22.9546   20.1487 C   0  0  0  0  0  0  0  0  0  0  0  0
  -24.4329   -8.7982   17.5955 C   0  0  0  0  0  0  0  0  0  0  0  0
  -27.6271  -21.8287   19.9892 C   0  0  0  0  0  0  0  0  0  0  0  0
  -26.2998  -32.1530   22.2447 C   0  0  0  0  0  0  0  0  0  0  0  0
  -23.1429  -31.8706   22.9353 C   0  0  0  0  0  0  0  0  0  0  0  0
  -20.3270  -29.9433   22.8837 C   0  0  0  0  0  0  0  0  0  0  0  0
  -28.8479  -15.5265   19.7006 C   0  0  0  0  0  0  0  0  0  0  0  0
  -28.4667  -36.6287   23.3979 C   0  0  0  0  0  0  0  0  0  0  0  0
  -25.3688  -31.3743   20.0349 C   0  0  0  0  0  0  0  0  0  0  0  0
  -24.3503  -29.7521   22.2879 C   0  0  0  0  0  0  0  0  0  0  0  0
  -27.3527  -35.7700   23.9912 C   0  0  0  0  0  0  0  0  0  0  0  0
  -30.4718  -12.4110   19.1231 C   0  0  0  0  0  0  0  0  0  0  0  0
  -27.8138  -34.3232   24.1366 C   0  0  0  0  0  0  0  0  0  0  0  0
  -29.3202  -11.4038   19.0832 C   0  0  0  0  0  0  0  0  0  0  0  0
  -30.2280  -13.5107   20.1551 C   0  0  0  0  0  0  0  0  0  0  0  0
  -27.7898  -13.1999   19.9882 C   0  0  0  0  0  0  0  0  0  0  0  0
  -28.1626  -33.7156   22.7726 C   0  0  1  0  0  0  0  0  0  0  0  0
  -25.0693  -31.9911   21.3977 C   0  0  1  0  0  0  0  0  0  0  0  0
  -27.9600  -12.1094   18.9179 C   0  0  2  0  0  0  0  0  0  0  0  0
  -24.6287  -20.1991   18.4462 C   0  0  0  0  0  0  0  0  0  0  0  0
  -28.4401  -21.2099   21.1025 C   0  0  0  0  0  0  0  0  0  0  0  0
  -29.0398  -20.9818   17.9619 C   0  0  0  0  0  0  0  0  0  0  0  0
  -17.9086  -29.9706   23.5533 C   0  0  0  0  0  0  0  0  0  0  0  0
  -23.9467  -31.4379   25.8468 C   0  0  0  0  0  0  0  0  0  0  0  0
  -21.6474  -30.5450   26.2761 C   0  0  0  0  0  0  0  0  0  0  0  0
  -21.9468  -32.9044   25.5236 C   0  0  0  0  0  0  0  0  0  0  0  0
  -19.4283  -29.5943   20.0856 C   0  0  0  0  0  0  0  0  0  0  0  0
  -26.0549  -23.6656   19.1259 C   0  0  0  0  0  0  0  0  0  0  0  0
  -26.4717  -25.1222   18.9638 C   0  0  0  0  0  0  0  0  0  1  0  0
  -27.6760  -21.0423   18.6709 C   0  0  1  0  0  0  0  0  0  0  0  0
  -22.3270  -31.0214   23.8798 C   0  0  1  0  0  0  0  0  0  0  0  0
  -18.9072  -30.2460   22.4398 C   0  0  2  0  0  0  0  0  0  0  0  0
  -22.4835  -31.4655   25.3616 C   0  0  0  0  0  0  0  0  0  0  0  0
  -26.2002  -10.8401   20.0898 N   0  0  0  0  0  0  0  0  0  0  0  0
  -26.8092  -11.1207   18.9251 N   0  0  0  0  0  0  0  0  0  0  0  0
  -24.1147  -31.2012   22.1781 N   0  0  0  0  0  0  0  0  0  0  0  0
  -28.9228  -14.1370   19.9338 N   0  0  0  0  0  0  0  0  0  0  0  0
  -26.7840  -10.6161   16.6109 N   0  0  0  0  0  0  0  0  0  0  0  0
  -23.4345   -8.0794   18.2670 N   0  0  0  0  0  0  0  0  0  0  0  0
  -27.5580  -16.0040   19.4710 N   0  0  0  0  0  0  0  0  0  0  0  0
  -26.9576  -33.3537   22.0575 N   0  0  0  0  0  0  0  0  0  0  0  0
  -20.9551  -31.0637   23.3851 N   0  0  0  0  0  0  0  0  0  0  0  0
  -18.5424  -29.4072   21.2633 N   0  3  0  0  0  0  0  0  0  0  0  0
  -24.5764   -8.6412   16.3593 O   0  0  0  0  0  0  0  0  0  0  0  0
  -26.6272  -31.2556   23.0123 O   0  0  0  0  0  0  0  0  0  0  0  0
  -22.9213  -33.0822   22.8666 O   0  0  0  0  0  0  0  0  0  0  0  0
  -20.8274  -28.8241   22.7980 O   0  0  0  0  0  0  0  0  0  0  0  0
  -29.8570  -16.2359   19.6771 O   0  0  0  0  0  0  0  0  0  0  0  0
  -21.8289   -7.8144   23.5949 O   0  0  0  0  0  0  0  0  0  0  0  0
  -26.3521  -25.7982   20.2148 O   0  0  0  0  0  0  0  0  0  1  0  0
  -20.8947   -2.3817   23.4618 F   0  0  0  0  0  0  0  0  0  0  0  0
  -22.4700   -6.2116   25.7543 F   0  0  0  0  0  0  0  0  0  0  0  0
  -25.5033  -17.6385   18.9634 S   0  0  0  0  0  0  0  0  0  0  0  0
  1  2  1  0  0  0  0
  1  5  2  0  0  0  0
  2  6  2  0  0  0  0
  3  8  2  0  0  0  0
  3 16  1  0  0  0  0
  4  9  1  0  0  0  0
  4 16  2  0  0  0  0
  5 18  1  0  0  0  0
  6 20  1  0  0  0  0
  7 10  2  0  0  0  0
  7 19  1  0  0  0  0
  8 23  1  0  0  0  0
  9 23  2  0  0  0  0
 10 24  1  0  0  0  0
 11 12  2  0  0  0  0
 11 25  1  0  0  0  0
 12 26  1  0  0  0  0
 13 21  1  0  0  0  0
 13 24  2  0  0  0  0
 14 22  1  0  0  0  0
 14 31  2  0  0  0  0
 15 26  2  0  0  0  0
 15 27  1  0  0  0  0
 16 28  1  0  0  0  0
 17 28  1  0  0  0  0
 17 30  2  0  0  0  0
 17 33  1  0  0  0  0
 18 20  2  0  0  0  0
 18 39  1  0  0  0  0
 19 21  2  0  0  0  0
 19 40  1  0  0  0  0
 20 48  1  0  0  0  0
 21 41  1  0  0  0  0
 22 29  2  0  0  0  0
 22 61  1  0  0  0  0
 23 80  1  0  0  0  0
 24 81  1  0  0  0  0
 25 27  2  0  0  0  0
 25 80  1  0  0  0  0
 26 82  1  0  0  0  0
 27 83  1  0  0  0  0
 28 65  2  0  0  0  0
 29 51  1  0  0  0  0
 29 84  1  0  0  0  0
 30 66  1  0  0  0  0
 30 69  1  0  0  0  0
 31 71  1  0  0  0  0
 31 84  1  0  0  0  0
 32 34  2  0  0  0  0
 32 59  1  0  0  0  0
 33 70  1  0  0  0  0
 33 75  2  0  0  0  0
 34 52  1  0  0  0  0
 34 61  1  0  0  0  0
 35 49  1  0  0  0  0
 35 72  1  0  0  0  0
 35 76  2  0  0  0  0
 36 62  1  0  0  0  0
 36 67  1  0  0  0  0
 36 77  2  0  0  0  0
 37 63  1  0  0  0  0
 37 73  1  0  0  0  0
 37 78  2  0  0  0  0
 38 68  1  0  0  0  0
 38 71  1  0  0  0  0
 38 79  2  0  0  0  0
 39 42  1  0  0  0  0
 40 49  1  0  0  0  0
 41 67  1  0  0  0  0
 42 44  1  0  0  0  0
 43 45  1  0  0  0  0
 43 46  1  0  0  0  0
 44 48  1  0  0  0  0
 45 50  1  0  0  0  0
 46 68  1  0  0  0  0
 47 50  1  0  0  0  0
 47 68  1  0  0  0  0
 48 72  1  0  0  0  0
 49 67  1  0  0  0  0
 50 66  1  0  0  0  0
 53 61  1  0  0  0  0
 54 63  1  0  0  0  0
 55 64  1  0  0  0  0
 56 64  1  0  0  0  0
 57 64  1  0  0  0  0
 58 74  1  0  0  0  0
 59 60  1  0  0  0  0
 60 81  1  0  0  0  0
 62 64  1  0  0  0  0
 62 73  1  0  0  0  0
 63 74  1  0  0  0  0
 65 66  1  0  0  0  0
M  CHG  1  74   1
M  ISO  4  38 100  60 101  71 100  81 101
M  END
> <Batch ID>
0138

> <Smiles>
CNC(C)C(=O)NC(C(=O)N1Cc2cc([101O:1][101CH2:1]CC=C(C)C(C)c3cc([100NH:0][100C:0](=O)N4CCCC(n5nc(-c6ccc(Oc7ccc(F)cc7F)cc6)c(C(N)=O)c5N)C4)sc3C)ccc2CC1C(=O)NC1CCCc2ccccc21)C(C)(C)C

> <Shape>
0.263

> <Color>
0.093

> <Negative vol penalty>
0.000

$$$$

  -OEChem-04052302453D

 84 93  0     1  0  0  0  0  0999 V2000
  -25.5429  -38.1399   18.5946 C   0  0  0  0  0  0  0  0  0  0  0  0
  -26.4948  -37.1262   18.5546 C   0  0  0  0  0  0  0  0  0  0  0  0
  -24.3632   -9.5757   21.0970 C   0  0  0  0  0  0  0  0  0  0  0  0
  -25.0158  -10.3890   23.2764 C   0  0  0  0  0  0  0  0  0  0  0  0
  -24.5700  -38.1421   19.5934 C   0  0  0  0  0  0  0  0  0  0  0  0
  -26.4751  -36.1145   19.5140 C   0  0  0  0  0  0  0  0  0  0  0  0
  -27.9281  -29.1451   20.3087 C   0  0  0  0  0  0  0  0  0  0  0  0
  -24.0689   -8.3295   21.6500 C   0  0  0  0  0  0  0  0  0  0  0  0
  -24.7214   -9.1427   23.8295 C   0  0  0  0  0  0  0  0  0  0  0  0
  -28.6555  -28.2831   21.1283 C   0  0  0  0  0  0  0  0  0  0  0  0
  -21.5580   -6.9217   23.4239 C   0  0  0  0  0  0  0  0  0  0  0  0
  -20.3640   -6.3093   23.0435 C   0  0  0  0  0  0  0  0  0  0  0  0
  -26.8798  -28.3459   22.7600 C   0  0  0  0  0  0  0  0  0  0  0  0
  -30.3223  -19.4412   21.5320 C   0  0  0  0  0  0  0  0  0  0  0  0
  -27.9655  -19.5877   22.0423 C   0  0  0  0  0  0  0  0  0  0  0  0
  -21.6060   -4.4298   22.1704 C   0  0  0  0  0  0  0  0  0  0  0  0
  -24.8367  -10.6055   21.9101 C   0  0  0  0  0  0  0  0  0  0  0  0
  -24.2670  -12.9865   21.1932 C   0  0  0  0  0  0  0  0  0  0  0  0
  -24.5325  -37.1246   20.5598 C   0  0  0  0  0  0  0  0  0  0  0  0
  -26.6738  -29.6234   20.7141 C   0  0  0  0  0  0  0  0  0  0  0  0
  -25.5017  -36.1038   20.5274 C   0  0  0  0  0  0  0  0  0  0  0  0
  -26.1374  -29.2118   21.9425 C   0  0  0  0  0  0  0  0  0  0  0  0
  -29.4653  -21.3463   22.7458 C   0  0  0  0  0  0  0  0  0  0  0  0
  -29.0368  -18.9038   21.4676 C   0  0  0  0  0  0  0  0  0  0  0  0
  -24.2480   -8.1130   23.0163 C   0  0  0  0  0  0  0  0  0  0  0  0
  -28.1326  -27.8857   22.3554 C   0  0  0  0  0  0  0  0  0  0  0  0
  -22.7761   -6.2882   23.1775 C   0  0  0  0  0  0  0  0  0  0  0  0
  -20.3879   -5.0634   22.4168 C   0  0  0  0  0  0  0  0  0  0  0  0
  -30.5367  -20.6624   22.1711 C   0  0  0  0  0  0  0  0  0  0  0  0
  -28.1797  -20.8090   22.6814 C   0  0  0  0  0  0  0  0  0  0  0  0
  -22.8001   -5.0423   22.5508 C   0  0  0  0  0  0  0  0  0  0  0  0
  -25.1414  -11.8929   21.3393 C   0  0  0  0  0  0  0  0  0  0  0  0
  -25.0324  -13.9613   20.6012 C   0  0  0  0  0  0  0  0  0  0  0  0
  -22.8865  -13.1102   21.5600 C   0  0  0  0  0  0  0  0  0  0  0  0
  -25.4594  -32.4964   21.3262 C   0  0  0  0  0  0  0  0  0  0  0  0
  -22.6891  -30.8340   21.6166 C   0  0  0  0  0  0  0  0  0  0  0  0
  -21.1515  -27.8534   22.2475 C   0  0  0  0  0  0  0  0  0  0  0  0
  -29.7706  -16.8574   20.1949 C   0  0  0  0  0  0  0  0  0  0  0  0
  -23.4907  -37.1952   21.6481 C   0  0  0  0  0  0  0  0  0  0  0  0
  -25.8900  -30.5314   19.8066 C   0  0  0  0  0  0  0  0  0  0  0  0
  -24.7863  -29.6807   22.4148 C   0  0  0  0  0  0  0  0  0  0  0  0
  -23.3109  -35.8819   22.4052 C   0  0  0  0  0  0  0  0  0  0  0  0
  -29.6387  -13.7200   18.5167 C   0  0  0  0  0  0  0  0  0  0  0  0
  -24.6666  -35.2942   22.7842 C   0  0  0  0  0  0  0  0  0  0  0  0
  -28.3850  -13.0549   19.0894 C   0  0  0  0  0  0  0  0  0  0  0  0
  -28.6534  -23.8672   23.3056 C   0  0  0  0  0  0  0  0  0  0  0  0
  -30.7281  -23.7382   22.8551 C   0  0  0  0  0  0  0  0  0  0  0  0
  -30.3845  -14.5306   19.5752 C   0  0  0  0  0  0  0  0  0  0  0  0
  -28.3117  -14.8488   20.8680 C   0  0  0  0  0  0  0  0  0  0  0  0
  -29.7091  -22.7331   23.4715 C   0  0  0  0  0  0  0  0  0  0  0  0
  -25.4981  -34.9754   21.5358 C   0  0  1  0  0  0  0  0  0  0  0  0
  -24.8495  -31.3646   20.5486 C   0  0  1  0  0  0  0  0  0  0  0  0
  -29.8236  -24.8782   23.3836 C   0  0  0  0  0  0  0  0  0  0  0  0
  -27.4917  -14.0741   19.8235 C   0  0  2  0  0  0  0  0  0  0  0  0
  -18.8761  -26.8150   22.4517 C   0  0  0  0  0  0  0  0  0  0  0  0
  -22.3517  -32.1194   24.3632 C   0  0  0  0  0  0  0  0  0  0  0  0
  -20.6363  -30.3741   24.8921 C   0  0  0  0  0  0  0  0  0  0  0  0
  -20.2503  -31.9715   23.0154 C   0  0  0  0  0  0  0  0  0  0  0  0
  -21.6751  -25.9868   20.0113 C   0  0  0  0  0  0  0  0  0  0  0  0
  -29.7113  -26.1142   22.5156 C   0  0  0  0  0  0  0  0  0  1  0  0
  -21.9726  -30.1398   22.7496 C   0  0  1  0  0  0  0  0  0  0  0  0
  -20.0388  -27.1201   21.5202 C   0  0  2  0  0  0  0  0  0  0  0  0
  -21.3291  -31.1437   23.7473 C   0  0  0  0  0  0  0  0  0  0  0  0
  -26.3682  -12.1483   20.8771 N   0  0  0  0  0  0  0  0  0  0  0  0
  -26.2703  -13.4135   20.4348 N   0  0  0  0  0  0  0  0  0  0  0  0
  -24.0612  -30.5725   21.4948 N   0  0  0  0  0  0  0  0  0  0  0  0
  -29.4763  -15.4778   20.2254 N   0  0  0  0  0  0  0  0  0  0  0  0
  -24.7605  -15.2250   20.2119 N   0  0  0  0  0  0  0  0  0  0  0  0
  -22.2532  -12.0123   22.1584 N   0  0  0  0  0  0  0  0  0  0  0  0
  -28.8185  -17.6639   20.8175 N   0  0  0  0  0  0  0  0  0  0  0  0
  -25.0376  -33.7486   20.9216 N   0  0  0  0  0  0  0  0  0  0  0  0
  -21.0233  -29.2213   22.1304 N   0  0  0  0  0  0  0  0  0  0  0  0
  -20.5443  -25.8339   20.9626 N   0  3  0  0  0  0  0  0  0  0  0  0
  -22.2293  -14.1574   21.3479 O   0  0  0  0  0  0  0  0  0  0  0  0
  -26.2527  -32.2517   22.2276 O   0  0  0  0  0  0  0  0  0  0  0  0
  -22.0534  -31.5753   20.8629 O   0  0  0  0  0  0  0  0  0  0  0  0
  -22.0428  -27.2710   22.8614 O   0  0  0  0  0  0  0  0  0  0  0  0
  -30.7782  -17.2937   19.6325 O   0  0  0  0  0  0  0  0  0  0  0  0
  -23.9607   -6.8971   23.5564 O   0  0  0  0  0  0  0  0  0  0  0  0
  -28.8408  -27.0450   23.1577 O   0  0  0  0  0  0  0  0  0  1  0  0
  -19.2411   -4.4747   22.0529 F   0  0  0  0  0  0  0  0  0  0  0  0
  -31.7750  -21.1719   22.2284 F   0  0  0  0  0  0  0  0  0  0  0  0
  -27.1449  -21.4596   23.2311 F   0  0  0  0  0  0  0  0  0  0  0  0
  -23.9672   -4.4283   22.3125 F   0  0  0  0  0  0  0  0  0  0  0  0
  1  2  1  0  0  0  0
  1  5  2  0  0  0  0
  2  6  2  0  0  0  0
  3  8  2  0  0  0  0
  3 17  1  0  0  0  0
  4  9  1  0  0  0  0
  4 17  2  0  0  0  0
  5 19  1  0  0  0  0
  6 21  1  0  0  0  0
  7 10  2  0  0  0  0
  7 20  1  0  0  0  0
  8 25  1  0  0  0  0
  9 25  2  0  0  0  0
 10 26  1  0  0  0  0
 11 12  2  0  0  0  0
 11 27  1  0  0  0  0
 12 28  1  0  0  0  0
 13 22  1  0  0  0  0
 13 26  2  0  0  0  0
 14 24  1  0  0  0  0
 14 29  2  0  0  0  0
 15 24  2  0  0  0  0
 15 30  1  0  0  0  0
 16 28  2  0  0  0  0
 16 31  1  0  0  0  0
 17 32  1  0  0  0  0
 18 32  1  0  0  0  0
 18 33  2  0  0  0  0
 18 34  1  0  0  0  0
 19 21  2  0  0  0  0
 19 39  1  0  0  0  0
 20 22  2  0  0  0  0
 20 40  1  0  0  0  0
 21 51  1  0  0  0  0
 22 41  1  0  0  0  0
 23 29  1  0  0  0  0
 23 30  2  0  0  0  0
 23 50  1  0  0  0  0
 24 70  1  0  0  0  0
 25 79  1  0  0  0  0
 26 80  1  0  0  0  0
 27 31  2  0  0  0  0
 27 79  1  0  0  0  0
 28 81  1  0  0  0  0
 29 82  1  0  0  0  0
 30 83  1  0  0  0  0
 31 84  1  0  0  0  0
 32 64  2  0  0  0  0
 33 65  1  0  0  0  0
 33 68  1  0  0  0  0
 34 69  1  0  0  0  0
 34 74  2  0  0  0  0
 35 52  1  0  0  0  0
 35 71  1  0  0  0  0
 35 75  2  0  0  0  0
 36 61  1  0  0  0  0
 36 66  1  0  0  0  0
 36 76  2  0  0  0  0
 37 62  1  0  0  0  0
 37 72  1  0  0  0  0
 37 77  2  0  0  0  0
 38 67  1  0  0  0  0
 38 70  1  0  0  0  0
 38 78  2  0  0  0  0
 39 42  1  0  0  0  0
 40 52  1  0  0  0  0
 41 66  1  0  0  0  0
 42 44  1  0  0  0  0
 43 45  1  0  0  0  0
 43 48  1  0  0  0  0
 44 51  1  0  0  0  0
 45 54  1  0  0  0  0
 46 50  1  0  0  0  0
 46 53  1  0  0  0  0
 47 50  1  0  0  0  0
 47 53  1  0  0  0  0
 48 67  1  0  0  0  0
 49 54  1  0  0  0  0
 49 67  1  0  0  0  0
 51 71  1  0  0  0  0
 52 66  1  0  0  0  0
 53 60  1  0  0  0  0
 54 65  1  0  0  0  0
 55 62  1  0  0  0  0
 56 63  1  0  0  0  0
 57 63  1  0  0  0  0
 58 63  1  0  0  0  0
 59 73  1  0  0  0  0
 60 80  1  0  0  0  0
 61 63  1  0  0  0  0
 61 72  1  0  0  0  0
 62 73  1  0  0  0  0
 64 65  1  0  0  0  0
M  CHG  1  73   1
M  ISO  4  38 100  60 101  70 100  80 101
M  END
> <Batch ID>
0138

> <Smiles>
CNC(C)C(=O)NC(C(=O)N1Cc2cc([101O:1][101CH2:1]C3CC(c4c(F)cc([100NH:0][100C:0](=O)N5CCCC(n6nc(-c7ccc(Oc8ccc(F)cc8F)cc7)c(C(N)=O)c6N)C5)cc4F)C3)ccc2CC1C(=O)NC1CCCc2ccccc21)C(C)(C)C

> <Shape>
0.289

> <Color>
0.131

> <Negative vol penalty>
0.000

$$$$

  -OEChem-04052302453D

 85 93  0     1  0  0  0  0  0999 V2000
  -23.8217   -7.9495   22.9004 C   0  0  0  0  0  0  0  0  0  0  0  0
  -24.5820   -9.1095   22.7922 C   0  0  0  0  0  0  0  0  0  0  0  0
  -24.8373  -31.1743   21.2121 C   0  0  0  0  0  0  0  0  0  0  0  0
  -24.9359  -29.7147   23.1347 C   0  0  0  0  0  0  0  0  0  0  0  0
  -22.5540   -7.8919   22.3229 C   0  0  0  0  0  0  0  0  0  0  0  0
  -24.0755  -10.2123   22.1054 C   0  0  0  0  0  0  0  0  0  0  0  0
  -24.8359  -14.5620   24.5846 C   0  0  0  0  0  0  0  0  0  0  0  0
  -24.1931  -32.1436   21.9809 C   0  0  0  0  0  0  0  0  0  0  0  0
  -24.2918  -30.6840   23.9036 C   0  0  0  0  0  0  0  0  0  0  0  0
  -26.1131  -15.1172   24.5193 C   0  0  0  0  0  0  0  0  0  0  0  0
  -25.0478  -34.4783   24.2726 C   0  0  0  0  0  0  0  0  0  0  0  0
  -25.4880  -35.7967   24.1554 C   0  0  0  0  0  0  0  0  0  0  0  0
  -25.3539  -16.6489   22.8174 C   0  0  0  0  0  0  0  0  0  0  0  0
  -29.1402  -21.4554   20.1434 C   0  0  0  0  0  0  0  0  0  0  0  0
  -27.3310  -20.0700   19.3407 C   0  0  0  0  0  0  0  0  0  0  0  0
  -23.2883  -36.4651   23.4127 C   0  0  0  0  0  0  0  0  0  0  0  0
  -25.2086  -29.9598   21.7889 C   0  0  0  0  0  0  0  0  0  0  0  0
  -27.2603  -28.8043   20.8075 C   0  0  0  0  0  0  0  0  0  0  0  0
  -22.0277   -8.9979   21.6370 C   0  0  0  0  0  0  0  0  0  0  0  0
  -23.8091  -15.0397   23.7575 C   0  0  0  0  0  0  0  0  0  0  0  0
  -22.8001  -10.1690   21.5170 C   0  0  0  0  0  0  0  0  0  0  0  0
  -24.0638  -16.0998   22.8759 C   0  0  0  0  0  0  0  0  0  0  0  0
  -29.8299  -20.3155   20.5564 C   0  0  0  0  0  0  0  0  0  0  0  0
  -28.0207  -18.9300   19.7537 C   0  0  0  0  0  0  0  0  0  0  0  0
  -29.2701  -19.0528   20.3615 C   0  0  0  0  0  0  0  0  0  0  0  0
  -27.8907  -21.3326   19.5356 C   0  0  0  0  0  0  0  0  0  0  0  0
  -23.9204  -31.8985   23.3267 C   0  0  0  0  0  0  0  0  0  0  0  0
  -26.3730  -16.1589   23.6336 C   0  0  0  0  0  0  0  0  0  0  0  0
  -23.7278  -34.1533   23.9597 C   0  0  0  0  0  0  0  0  0  0  0  0
  -24.6082  -36.7901   23.7255 C   0  0  0  0  0  0  0  0  0  0  0  0
  -22.8481  -35.1468   23.5298 C   0  0  0  0  0  0  0  0  0  0  0  0
  -25.8735  -28.9579   20.9951 C   0  0  0  0  0  0  0  0  0  0  0  0
  -27.3760  -27.7166   19.9769 C   0  0  0  0  0  0  0  0  0  0  0  0
  -28.3467  -29.5757   21.3369 C   0  0  0  0  0  0  0  0  0  0  0  0
  -22.0034  -13.7767   21.4666 C   0  0  0  0  0  0  0  0  0  0  0  0
  -20.4949  -16.6446   21.6133 C   0  0  0  0  0  0  0  0  0  0  0  0
  -20.6383  -19.9552   22.4296 C   0  0  0  0  0  0  0  0  0  0  0  0
  -25.9418  -22.5442   18.4962 C   0  0  0  0  0  0  0  0  0  0  0  0
  -20.6718   -8.8720   20.9887 C   0  0  0  0  0  0  0  0  0  0  0  0
  -22.4300  -14.4480   23.8590 C   0  0  0  0  0  0  0  0  0  0  0  0
  -22.9908  -16.6623   21.9810 C   0  0  0  0  0  0  0  0  0  0  0  0
  -20.0558  -10.2134   20.5996 C   0  0  0  0  0  0  0  0  0  0  0  0
  -23.8652  -25.1960   17.3418 C   0  0  0  0  0  0  0  0  0  0  0  0
  -21.0837  -11.0861   19.8865 C   0  0  0  0  0  0  0  0  0  0  0  0
  -24.3167  -26.3985   18.1739 C   0  0  0  0  0  0  0  0  0  0  0  0
  -23.8894  -23.9027   18.1546 C   0  0  0  0  0  0  0  0  0  0  0  0
  -25.6155  -24.8164   19.6562 C   0  0  0  0  0  0  0  0  0  0  0  0
  -22.2751  -11.3946   20.8013 C   0  0  1  0  0  0  0  0  0  0  0  0
  -21.5914  -14.6683   22.6038 C   0  0  1  0  0  0  0  0  0  0  0  0
  -25.6698  -26.1316   18.8619 C   0  0  2  0  0  0  0  0  0  0  0  0
  -31.1659  -20.4741   21.2053 C   0  0  0  0  0  0  0  0  0  0  0  0
  -27.0926  -17.3293   18.0617 C   0  0  0  0  0  0  0  0  0  0  0  0
  -19.2610  -22.0528   22.4003 C   0  0  0  0  0  0  0  0  0  0  0  0
  -20.9374  -16.8903   18.6043 C   0  0  0  0  0  0  0  0  0  0  0  0
  -20.4257  -19.3333   18.7989 C   0  0  0  0  0  0  0  0  0  0  0  0
  -18.6875  -17.6456   19.3930 C   0  0  0  0  0  0  0  0  0  0  0  0
  -30.0297  -15.6983   22.2409 C   0  0  0  0  0  0  0  0  0  0  0  0
  -30.2354  -17.9451   23.2983 C   0  0  0  0  0  0  0  0  0  0  0  0
  -20.7901  -20.2343   25.3720 C   0  0  0  0  0  0  0  0  0  0  0  0
  -27.3993  -17.5897   19.5333 C   0  0  0  0  0  0  0  0  0  0  0  0
  -30.0176  -17.8182   20.8084 C   0  0  0  0  0  0  0  0  0  0  0  0
  -28.0280  -17.2378   22.3097 C   0  0  0  0  0  0  0  0  0  1  0  0
  -20.6673  -17.9795   20.9296 C   0  0  1  0  0  0  0  0  0  0  0  0
  -19.6878  -20.8412   23.2144 C   0  0  2  0  0  0  0  0  0  0  0  0
  -20.2004  -17.9505   19.4468 C   0  0  0  0  0  0  0  0  0  0  0  0
  -29.5631  -17.1639   22.1465 C   0  0  0  0  0  0  0  0  0  0  0  0
  -25.1594  -28.0413   20.3364 N   0  0  0  0  0  0  0  0  0  0  0  0
  -26.1011  -27.3012   19.7268 N   0  0  0  0  0  0  0  0  0  0  0  0
  -21.6603  -16.0460   22.1126 N   0  0  0  0  0  0  0  0  0  0  0  0
  -25.2033  -23.7140   18.7733 N   0  0  0  0  0  0  0  0  0  0  0  0
  -28.4428  -27.0845   19.4432 N   0  0  0  0  0  0  0  0  0  0  0  0
  -28.0505  -30.6599   22.1743 N   0  0  0  0  0  0  0  0  0  0  0  0
  -27.1903  -22.4904   19.1150 N   0  0  0  0  0  0  0  0  0  0  0  0
  -21.9270  -12.4271   21.7537 N   0  0  0  0  0  0  0  0  0  0  0  0
  -19.9672  -18.9556   21.7575 N   0  0  0  0  0  0  0  0  0  0  0  0
  -20.3408  -21.3216   24.4649 N   0  3  0  0  0  0  0  0  0  0  0  0
  -29.5439  -29.3215   21.0620 O   0  0  0  0  0  0  0  0  0  0  0  0
  -22.3626  -14.2761   20.4068 O   0  0  0  0  0  0  0  0  0  0  0  0
  -19.3668  -16.1546   21.7074 O   0  0  0  0  0  0  0  0  0  0  0  0
  -21.8540  -20.1344   22.4113 O   0  0  0  0  0  0  0  0  0  0  0  0
  -25.5108  -21.6680   17.7422 O   0  0  0  0  0  0  0  0  0  0  0  0
  -23.2921  -32.8441   24.0773 O   0  0  0  0  0  0  0  0  0  0  0  0
  -27.6190  -16.7021   23.5675 O   0  0  0  0  0  0  0  0  0  1  0  0
  -25.0307  -38.0563   23.6145 F   0  0  0  0  0  0  0  0  0  0  0  0
  -21.5785  -34.8408   23.2290 F   0  0  0  0  0  0  0  0  0  0  0  0
  1  2  1  0  0  0  0
  1  5  2  0  0  0  0
  2  6  2  0  0  0  0
  3  8  2  0  0  0  0
  3 17  1  0  0  0  0
  4  9  1  0  0  0  0
  4 17  2  0  0  0  0
  5 19  1  0  0  0  0
  6 21  1  0  0  0  0
  7 10  2  0  0  0  0
  7 20  1  0  0  0  0
  8 27  1  0  0  0  0
  9 27  2  0  0  0  0
 10 28  1  0  0  0  0
 11 12  2  0  0  0  0
 11 29  1  0  0  0  0
 12 30  1  0  0  0  0
 13 22  1  0  0  0  0
 13 28  2  0  0  0  0
 14 23  2  0  0  0  0
 14 26  1  0  0  0  0
 15 24  1  0  0  0  0
 15 26  2  0  0  0  0
 16 30  2  0  0  0  0
 16 31  1  0  0  0  0
 17 32  1  0  0  0  0
 18 32  1  0  0  0  0
 18 33  2  0  0  0  0
 18 34  1  0  0  0  0
 19 21  2  0  0  0  0
 19 39  1  0  0  0  0
 20 22  2  0  0  0  0
 20 40  1  0  0  0  0
 21 48  1  0  0  0  0
 22 41  1  0  0  0  0
 23 25  1  0  0  0  0
 23 51  1  0  0  0  0
 24 25  2  0  0  0  0
 24 60  1  0  0  0  0
 25 61  1  0  0  0  0
 26 73  1  0  0  0  0
 27 82  1  0  0  0  0
 28 83  1  0  0  0  0
 29 31  2  0  0  0  0
 29 82  1  0  0  0  0
 30 84  1  0  0  0  0
 31 85  1  0  0  0  0
 32 67  2  0  0  0  0
 33 68  1  0  0  0  0
 33 71  1  0  0  0  0
 34 72  1  0  0  0  0
 34 77  2  0  0  0  0
 35 49  1  0  0  0  0
 35 74  1  0  0  0  0
 35 78  2  0  0  0  0
 36 63  1  0  0  0  0
 36 69  1  0  0  0  0
 36 79  2  0  0  0  0
 37 64  1  0  0  0  0
 37 75  1  0  0  0  0
 37 80  2  0  0  0  0
 38 70  1  0  0  0  0
 38 73  1  0  0  0  0
 38 81  2  0  0  0  0
 39 42  1  0  0  0  0
 40 49  1  0  0  0  0
 41 69  1  0  0  0  0
 42 44  1  0  0  0  0
 43 45  1  0  0  0  0
 43 46  1  0  0  0  0
 44 48  1  0  0  0  0
 45 50  1  0  0  0  0
 46 70  1  0  0  0  0
 47 50  1  0  0  0  0
 47 70  1  0  0  0  0
 48 74  1  0  0  0  0
 49 69  1  0  0  0  0
 50 68  1  0  0  0  0
 52 60  1  0  0  0  0
 53 64  1  0  0  0  0
 54 65  1  0  0  0  0
 55 65  1  0  0  0  0
 56 65  1  0  0  0  0
 57 66  1  0  0  0  0
 58 66  1  0  0  0  0
 59 76  1  0  0  0  0
 61 66  1  0  0  0  0
 62 66  1  0  0  0  0
 62 83  1  0  0  0  0
 63 65  1  0  0  0  0
 63 75  1  0  0  0  0
 64 76  1  0  0  0  0
 67 68  1  0  0  0  0
M  CHG  1  76   1
M  ISO  4  38 100  62 101  73 100  83 101
M  END
> <Batch ID>
0138

> <Smiles>
CCc1cc([100NH:0][100C:0](=O)N2CCCC(n3nc(-c4ccc(Oc5ccc(F)cc5F)cc4)c(C(N)=O)c3N)C2)cc(C)c1CC(C)(C)[101CH2:1][101O:1]c1ccc2c(c1)CN(C(=O)C(NC(=O)C(C)NC)C(C)(C)C)C(C(=O)NC1CCCc3ccccc31)C2

> <Shape>
0.226

> <Color>
0.079

> <Negative vol penalty>
0.000

$$$$

  -OEChem-04052302453D

 87 95  0     1  0  0  0  0  0999 V2000
  -18.8399  -24.6290   23.8574 C   0  0  0  0  0  0  0  0  0  0  0  0
  -20.1064  -24.5034   23.2957 C   0  0  0  0  0  0  0  0  0  0  0  0
  -24.0935  -12.9691   21.1987 C   0  0  0  0  0  0  0  0  0  0  0  0
  -26.4182  -12.8743   20.5475 C   0  0  0  0  0  0  0  0  0  0  0  0
  -18.1718  -25.8515   23.8014 C   0  0  0  0  0  0  0  0  0  0  0  0
  -20.7052  -25.6000   22.6766 C   0  0  0  0  0  0  0  0  0  0  0  0
  -26.6701  -26.9860   22.6091 C   0  0  0  0  0  0  0  0  0  0  0  0
  -23.8569  -11.7689   20.5286 C   0  0  0  0  0  0  0  0  0  0  0  0
  -26.1815  -11.6741   19.8774 C   0  0  0  0  0  0  0  0  0  0  0  0
  -27.6708  -26.7779   21.6609 C   0  0  0  0  0  0  0  0  0  0  0  0
  -24.3431   -8.4689   21.0823 C   0  0  0  0  0  0  0  0  0  0  0  0
  -23.5807   -7.5009   21.7360 C   0  0  0  0  0  0  0  0  0  0  0  0
  -27.3281  -29.0119   20.8178 C   0  0  0  0  0  0  0  0  0  0  0  0
  -29.3006  -21.4334   17.6803 C   0  0  0  0  0  0  0  0  0  0  0  0
  -31.4790  -20.9116   16.7754 C   0  0  0  0  0  0  0  0  0  0  0  0
  -30.5710  -19.5855   18.5793 C   0  0  0  0  0  0  0  0  0  0  0  0
  -21.9559   -7.5742   19.9495 C   0  0  0  0  0  0  0  0  0  0  0  0
  -25.3742  -13.5219   21.2081 C   0  0  0  0  0  0  0  0  0  0  0  0
  -26.0027  -14.9239   23.2445 C   0  0  0  0  0  0  0  0  0  0  0  0
  -18.7668  -26.9663   23.1898 C   0  0  0  0  0  0  0  0  0  0  0  0
  -25.9823  -28.2069   22.6618 C   0  0  0  0  0  0  0  0  0  0  0  0
  -20.0440  -26.8382   22.6112 C   0  0  0  0  0  0  0  0  0  0  0  0
  -26.3209  -29.2339   21.7692 C   0  0  0  0  0  0  0  0  0  0  0  0
  -30.3294  -21.7015   16.7774 C   0  0  0  0  0  0  0  0  0  0  0  0
  -29.4214  -20.3755   18.5813 C   0  0  0  0  0  0  0  0  0  0  0  0
  -24.9009  -11.1214   19.8679 C   0  0  0  0  0  0  0  0  0  0  0  0
  -27.9980  -27.7899   20.7632 C   0  0  0  0  0  0  0  0  0  0  0  0
  -23.9119   -8.9897   19.8623 C   0  0  0  0  0  0  0  0  0  0  0  0
  -22.3871   -7.0536   21.1696 C   0  0  0  0  0  0  0  0  0  0  0  0
  -31.5999  -19.8536   17.6763 C   0  0  0  0  0  0  0  0  0  0  0  0
  -22.7183   -8.5423   19.2958 C   0  0  0  0  0  0  0  0  0  0  0  0
  -25.6192  -14.7619   21.8997 C   0  0  0  0  0  0  0  0  0  0  0  0
  -26.1056  -16.2834   23.4108 C   0  0  0  0  0  0  0  0  0  0  0  0
  -26.2445  -13.9340   24.2531 C   0  0  0  0  0  0  0  0  0  0  0  0
  -22.9530  -29.0929   22.2846 C   0  0  0  0  0  0  0  0  0  0  0  0
  -24.0907  -31.9852   23.2132 C   0  0  0  0  0  0  0  0  0  0  0  0
  -26.7573  -34.0973   23.4883 C   0  0  0  0  0  0  0  0  0  0  0  0
  -27.1701  -20.7892   19.6333 C   0  0  0  0  0  0  0  0  0  0  0  0
  -17.9862  -28.2544   23.1121 C   0  0  0  0  0  0  0  0  0  0  0  0
  -24.9238  -28.4251   23.7079 C   0  0  0  0  0  0  0  0  0  0  0  0
  -25.6264  -30.5701   21.7974 C   0  0  0  0  0  0  0  0  0  0  0  0
  -18.8460  -29.4679   22.7682 C   0  0  0  0  0  0  0  0  0  0  0  0
  -24.3276  -20.4054   21.7427 C   0  0  0  0  0  0  0  0  0  0  0  0
  -19.7735  -29.1510   21.5993 C   0  0  0  0  0  0  0  0  0  0  0  0
  -24.3745  -18.9308   22.1497 C   0  0  0  0  0  0  0  0  0  0  0  0
  -24.7826  -20.6100   20.2989 C   0  0  0  0  0  0  0  0  0  0  0  0
  -26.1380  -18.5544   20.3789 C   0  0  0  0  0  0  0  0  0  0  0  0
  -20.7369  -28.0115   21.9528 C   0  0  1  0  0  0  0  0  0  0  0  0
  -23.9346  -29.5256   23.3367 C   0  0  1  0  0  0  0  0  0  0  0  0
  -25.7503  -18.3059   21.8458 C   0  0  2  0  0  0  0  0  0  0  0  0
  -27.3694  -36.4080   24.2521 C   0  0  0  0  0  0  0  0  0  0  0  0
  -22.8366  -33.1498   20.6872 C   0  0  0  0  0  0  0  0  0  0  0  0
  -24.2538  -35.1887   21.0074 C   0  0  0  0  0  0  0  0  0  0  0  0
  -22.5651  -34.5621   22.7332 C   0  0  0  0  0  0  0  0  0  0  0  0
  -32.2334  -24.1491   16.5753 C   0  0  0  0  0  0  0  0  0  0  0  0
  -30.5554  -25.1927   15.0504 C   0  0  0  0  0  0  0  0  0  0  0  0
  -28.7035  -26.9445   17.0134 C   0  0  0  0  0  0  0  0  0  0  0  0
  -31.0361  -27.0247   17.9321 C   0  0  0  0  0  0  0  0  0  0  0  0
  -28.6298  -33.0525   25.5282 C   0  0  0  0  0  0  0  0  0  0  0  0
  -30.1986  -22.8483   15.7997 C   0  0  0  0  0  0  0  0  0  0  0  0
  -29.9061  -24.7284   17.5052 C   0  0  0  0  0  0  0  0  0  0  0  0
  -29.1642  -26.2536   19.3719 C   0  0  0  0  0  0  0  0  0  1  0  0
  -24.6720  -33.1837   22.5027 C   0  0  1  0  0  0  0  0  0  0  0  0
  -27.2570  -34.9433   24.6455 C   0  0  2  0  0  0  0  0  0  0  0  0
  -23.5938  -33.9953   21.7306 C   0  0  0  0  0  0  0  0  0  0  0  0
  -30.7277  -24.2566   16.2597 C   0  0  0  0  0  0  0  0  0  0  0  0
  -29.7258  -26.2276   17.9191 C   0  0  0  0  0  0  0  0  0  0  0  0
  -25.4872  -15.9256   21.2574 N   0  0  0  0  0  0  0  0  0  0  0  0
  -25.7894  -16.8318   22.2027 N   0  0  0  0  0  0  0  0  0  0  0  0
  -24.5943  -30.7327   22.8346 N   0  0  0  0  0  0  0  0  0  0  0  0
  -26.0949  -19.9956   20.0861 N   0  0  0  0  0  0  0  0  0  0  0  0
  -26.4347  -17.0514   24.4712 N   0  0  0  0  0  0  0  0  0  0  0  0
  -26.0933  -12.5828   23.9130 N   0  0  0  0  0  0  0  0  0  0  0  0
  -28.3766  -20.1030   19.4989 N   0  0  0  0  0  0  0  0  0  0  0  0
  -21.8118  -28.4997   22.7898 N   0  0  0  0  0  0  0  0  0  0  0  0
  -25.3863  -33.9523   23.5163 N   0  0  0  0  0  0  0  0  0  0  0  0
  -28.5989  -34.4718   25.0902 N   0  3  0  0  0  0  0  0  0  0  0  0
  -26.5684  -14.2393   25.4259 O   0  0  0  0  0  0  0  0  0  0  0  0
  -23.2112  -29.2845   21.1021 O   0  0  0  0  0  0  0  0  0  0  0  0
  -23.2271  -32.1547   24.0775 O   0  0  0  0  0  0  0  0  0  0  0  0
  -27.5076  -33.6165   22.6420 O   0  0  0  0  0  0  0  0  0  0  0  0
  -27.0373  -21.9951   19.4092 O   0  0  0  0  0  0  0  0  0  0  0  0
  -24.6703   -9.9501   19.2141 O   0  0  0  0  0  0  0  0  0  0  0  0
  -28.9805  -27.5877   19.8299 O   0  0  0  0  0  0  0  0  0  1  0  0
  -21.6558   -6.1229   21.7967 F   0  0  0  0  0  0  0  0  0  0  0  0
  -32.7039  -19.0951   17.6743 F   0  0  0  0  0  0  0  0  0  0  0  0
  -22.2995   -9.0380   18.1233 F   0  0  0  0  0  0  0  0  0  0  0  0
  1  2  1  0  0  0  0
  1  5  2  0  0  0  0
  2  6  2  0  0  0  0
  3  8  2  0  0  0  0
  3 18  1  0  0  0  0
  4  9  1  0  0  0  0
  4 18  2  0  0  0  0
  5 20  1  0  0  0  0
  6 22  1  0  0  0  0
  7 10  2  0  0  0  0
  7 21  1  0  0  0  0
  8 26  1  0  0  0  0
  9 26  2  0  0  0  0
 10 27  1  0  0  0  0
 11 12  2  0  0  0  0
 11 28  1  0  0  0  0
 12 29  1  0  0  0  0
 13 23  1  0  0  0  0
 13 27  2  0  0  0  0
 14 24  2  0  0  0  0
 14 25  1  0  0  0  0
 15 24  1  0  0  0  0
 15 30  2  0  0  0  0
 16 25  2  0  0  0  0
 16 30  1  0  0  0  0
 17 29  2  0  0  0  0
 17 31  1  0  0  0  0
 18 32  1  0  0  0  0
 19 32  1  0  0  0  0
 19 33  2  0  0  0  0
 19 34  1  0  0  0  0
 20 22  2  0  0  0  0
 20 39  1  0  0  0  0
 21 23  2  0  0  0  0
 21 40  1  0  0  0  0
 22 48  1  0  0  0  0
 23 41  1  0  0  0  0
 24 60  1  0  0  0  0
 25 74  1  0  0  0  0
 26 83  1  0  0  0  0
 27 84  1  0  0  0  0
 28 31  2  0  0  0  0
 28 83  1  0  0  0  0
 29 85  1  0  0  0  0
 30 86  1  0  0  0  0
 31 87  1  0  0  0  0
 32 68  2  0  0  0  0
 33 69  1  0  0  0  0
 33 72  1  0  0  0  0
 34 73  1  0  0  0  0
 34 78  2  0  0  0  0
 35 49  1  0  0  0  0
 35 75  1  0  0  0  0
 35 79  2  0  0  0  0
 36 63  1  0  0  0  0
 36 70  1  0  0  0  0
 36 80  2  0  0  0  0
 37 64  1  0  0  0  0
 37 76  1  0  0  0  0
 37 81  2  0  0  0  0
 38 71  1  0  0  0  0
 38 74  1  0  0  0  0
 38 82  2  0  0  0  0
 39 42  1  0  0  0  0
 40 49  1  0  0  0  0
 41 70  1  0  0  0  0
 42 44  1  0  0  0  0
 43 45  1  0  0  0  0
 43 46  1  0  0  0  0
 44 48  1  0  0  0  0
 45 50  1  0  0  0  0
 46 71  1  0  0  0  0
 47 50  1  0  0  0  0
 47 71  1  0  0  0  0
 48 75  1  0  0  0  0
 49 70  1  0  0  0  0
 50 69  1  0  0  0  0
 51 64  1  0  0  0  0
 52 65  1  0  0  0  0
 53 65  1  0  0  0  0
 54 65  1  0  0  0  0
 55 66  1  0  0  0  0
 56 66  1  0  0  0  0
 57 67  1  0  0  0  0
 58 67  1  0  0  0  0
 59 77  1  0  0  0  0
 60 66  1  0  0  0  0
 61 66  1  0  0  0  0
 61 67  1  0  0  0  0
 62 67  1  0  0  0  0
 62 84  1  0  0  0  0
 63 65  1  0  0  0  0
 63 76  1  0  0  0  0
 64 77  1  0  0  0  0
 68 69  1  0  0  0  0
M  CHG  1  77   1
M  ISO  4  38 100  62 101  74 100  84 101
M  END
> <Batch ID>
0138

> <Smiles>
CNC(C)C(=O)NC(C(=O)N1Cc2cc([101O:1][101CH2:1]C(C)(C)CC(C)(C)Cc3cc(F)cc([100NH:0][100C:0](=O)N4CCCC(n5nc(-c6ccc(Oc7ccc(F)cc7F)cc6)c(C(N)=O)c5N)C4)c3)ccc2CC1C(=O)NC1CCCc2ccccc21)C(C)(C)C

> <Shape>
0.258

> <Color>
0.083

> <Negative vol penalty>
0.000

$$$$

  -OEChem-04052302453D

 84 93  0     1  0  0  0  0  0999 V2000
  -20.4789  -35.9629   17.3971 C   0  0  0  0  0  0  0  0  0  0  0  0
  -20.9545  -34.7248   16.9770 C   0  0  0  0  0  0  0  0  0  0  0  0
  -26.2942   -9.1642   20.2982 C   0  0  0  0  0  0  0  0  0  0  0  0
  -27.1531  -10.1261   22.3413 C   0  0  0  0  0  0  0  0  0  0  0  0
  -21.1484  -36.6615   18.4009 C   0  0  0  0  0  0  0  0  0  0  0  0
  -22.1006  -34.1852   17.5598 C   0  0  0  0  0  0  0  0  0  0  0  0
  -25.0135  -27.8940   19.3633 C   0  0  0  0  0  0  0  0  0  0  0  0
  -27.0885   -8.0348   20.4960 C   0  0  0  0  0  0  0  0  0  0  0  0
  -27.9474   -8.9966   22.5391 C   0  0  0  0  0  0  0  0  0  0  0  0
  -26.1894  -27.1640   19.1958 C   0  0  0  0  0  0  0  0  0  0  0  0
  -27.0045   -5.2295   22.3818 C   0  0  0  0  0  0  0  0  0  0  0  0
  -26.4153   -3.9804   22.1866 C   0  0  0  0  0  0  0  0  0  0  0  0
  -27.4363  -22.0319   18.4590 C   0  0  0  0  0  0  0  0  0  0  0  0
  -27.2184  -28.4245   20.9767 C   0  0  0  0  0  0  0  0  0  0  0  0
  -28.9154  -21.7376   20.3987 C   0  0  0  0  0  0  0  0  0  0  0  0
  -28.0289   -3.4896   20.4567 C   0  0  0  0  0  0  0  0  0  0  0  0
  -26.3265  -10.2099   21.2208 C   0  0  0  0  0  0  0  0  0  0  0  0
  -24.1909  -11.5821   21.4736 C   0  0  0  0  0  0  0  0  0  0  0  0
  -22.2978  -36.1257   19.0030 C   0  0  0  0  0  0  0  0  0  0  0  0
  -24.9346  -28.9038   20.3331 C   0  0  0  0  0  0  0  0  0  0  0  0
  -22.7869  -34.8779   18.5717 C   0  0  0  0  0  0  0  0  0  0  0  0
  -27.1543  -20.6966   18.5572 C   0  0  0  0  0  0  0  0  0  0  0  0
  -26.0395  -29.1641   21.1562 C   0  0  0  0  0  0  0  0  0  0  0  0
  -28.6119  -20.3774   20.4808 C   0  0  0  0  0  0  0  0  0  0  0  0
  -27.7377  -19.9270   19.5328 C   0  0  0  0  0  0  0  0  0  0  0  0
  -28.3351  -22.5566   19.3987 C   0  0  0  0  0  0  0  0  0  0  0  0
  -27.9151   -7.9510   21.6164 C   0  0  0  0  0  0  0  0  0  0  0  0
  -27.2931  -27.4312   20.0006 C   0  0  0  0  0  0  0  0  0  0  0  0
  -28.1058   -5.6088   21.6144 C   0  0  0  0  0  0  0  0  0  0  0  0
  -26.9275   -3.1104   21.2241 C   0  0  0  0  0  0  0  0  0  0  0  0
  -28.6180   -4.7388   20.6518 C   0  0  0  0  0  0  0  0  0  0  0  0
  -25.5066  -11.3770   21.0168 C   0  0  0  0  0  0  0  0  0  0  0  0
  -23.8624  -12.8369   21.0219 C   0  0  0  0  0  0  0  0  0  0  0  0
  -23.3417  -10.7159   22.2378 C   0  0  0  0  0  0  0  0  0  0  0  0
  -24.4438  -32.0436   20.2672 C   0  0  0  0  0  0  0  0  0  0  0  0
  -24.4051  -31.7123   23.4938 C   0  0  0  0  0  0  0  0  0  0  0  0
  -25.3484  -29.9075   26.2324 C   0  0  0  0  0  0  0  0  0  0  0  0
  -27.0653  -17.5565   19.7493 C   0  0  0  0  0  0  0  0  0  0  0  0
  -23.0146  -36.9394   20.0513 C   0  0  0  0  0  0  0  0  0  0  0  0
  -23.6501  -29.6640   20.5193 C   0  0  0  0  0  0  0  0  0  0  0  0
  -26.4070  -19.5045   18.0356 C   0  0  0  0  0  0  0  0  0  0  0  0
  -25.9995  -30.2241   22.2255 C   0  0  0  0  0  0  0  0  0  0  0  0
  -24.0075  -36.1274   20.8789 C   0  0  0  0  0  0  0  0  0  0  0  0
  -24.8468  -15.9093   17.4751 C   0  0  0  0  0  0  0  0  0  0  0  0
  -24.8703  -35.2551   19.9726 C   0  0  0  0  0  0  0  0  0  0  0  0
  -24.6101  -14.5801   18.1970 C   0  0  0  0  0  0  0  0  0  0  0  0
  -26.3018  -16.3472   17.6059 C   0  0  0  0  0  0  0  0  0  0  0  0
  -26.5730  -15.1368   19.7133 C   0  0  0  0  0  0  0  0  0  0  0  0
  -24.0127  -34.2480   19.1969 C   0  0  1  0  0  0  0  0  0  0  0  0
  -23.8497  -31.0188   21.1916 C   0  0  1  0  0  0  0  0  0  0  0  0
  -25.1198  -14.6274   19.6511 C   0  0  2  0  0  0  0  0  0  0  0  0
  -29.2133  -19.5427   21.5472 C   0  0  0  0  0  0  0  0  0  0  0  0
  -25.2008  -29.9067   28.7375 C   0  0  0  0  0  0  0  0  0  0  0  0
  -26.5383  -33.8904   23.6177 C   0  0  0  0  0  0  0  0  0  0  0  0
  -27.0225  -33.1851   25.9707 C   0  0  0  0  0  0  0  0  0  0  0  0
  -24.7659  -34.0649   25.3735 C   0  0  0  0  0  0  0  0  0  0  0  0
  -30.2418  -26.1776   18.3752 C   0  0  0  0  0  0  0  0  0  0  0  0
  -28.1396  -27.2248   17.5064 C   0  0  0  0  0  0  0  0  0  0  0  0
  -23.8882  -27.3334   26.2614 C   0  0  0  0  0  0  0  0  0  0  0  0
  -28.1337  -24.8216   18.3716 C   0  0  0  0  0  0  0  0  0  0  0  0
  -25.4461  -31.7607   24.5860 C   0  0  1  0  0  0  0  0  0  0  0  0
  -24.5654  -29.4281   27.4414 C   0  0  2  0  0  0  0  0  0  0  0  0
  -25.9449  -33.2065   24.8656 C   0  0  0  0  0  0  0  0  0  0  0  0
  -28.7188  -26.2346   18.5203 C   0  0  0  0  0  0  0  0  0  1  0  0
  -25.9814  -12.4181   20.3277 N   0  0  0  0  0  0  0  0  0  0  0  0
  -24.9584  -13.2894   20.3480 N   0  0  0  0  0  0  0  0  0  0  0  0
  -27.0785  -18.7814   19.1327 N   0  0  0  0  0  0  0  0  0  0  0  0
  -24.7232  -30.9445   22.3645 N   0  0  0  0  0  0  0  0  0  0  0  0
  -26.6799  -16.4275   19.0190 N   0  0  0  0  0  0  0  0  0  0  0  0
  -22.7457  -13.5863   21.1394 N   0  0  0  0  0  0  0  0  0  0  0  0
  -23.8368   -9.4614   22.6194 N   0  0  0  0  0  0  0  0  0  0  0  0
  -28.6719  -23.9288   19.3480 N   0  0  0  0  0  0  0  0  0  0  0  0
  -23.6345  -33.1426   20.0510 N   0  0  0  0  0  0  0  0  0  0  0  0
  -24.8545  -31.0984   25.7435 N   0  0  0  0  0  0  0  0  0  0  0  0
  -24.5114  -27.9390   27.4663 N   0  3  0  0  0  0  0  0  0  0  0  0
  -22.1725  -11.0379   22.5584 O   0  0  0  0  0  0  0  0  0  0  0  0
  -25.5548  -31.8522   19.7869 O   0  0  0  0  0  0  0  0  0  0  0  0
  -23.3458  -32.3270   23.6404 O   0  0  0  0  0  0  0  0  0  0  0  0
  -26.3049  -29.2894   25.7704 O   0  0  0  0  0  0  0  0  0  0  0  0
  -27.3588  -17.4647   20.9507 O   0  0  0  0  0  0  0  0  0  0  0  0
  -28.6901   -6.8490   21.8099 O   0  0  0  0  0  0  0  0  0  0  0  0
  -28.4476  -26.7174   19.8380 O   0  0  0  0  0  0  0  0  0  1  0  0
  -26.3626   -1.9103   21.0379 F   0  0  0  0  0  0  0  0  0  0  0  0
  -29.6766   -5.0971   19.9123 F   0  0  0  0  0  0  0  0  0  0  0  0
  1  2  1  0  0  0  0
  1  5  2  0  0  0  0
  2  6  2  0  0  0  0
  3  8  2  0  0  0  0
  3 17  1  0  0  0  0
  4  9  1  0  0  0  0
  4 17  2  0  0  0  0
  5 19  1  0  0  0  0
  6 21  1  0  0  0  0
  7 10  2  0  0  0  0
  7 20  1  0  0  0  0
  8 27  1  0  0  0  0
  9 27  2  0  0  0  0
 10 28  1  0  0  0  0
 11 12  2  0  0  0  0
 11 29  1  0  0  0  0
 12 30  1  0  0  0  0
 13 22  1  0  0  0  0
 13 26  2  0  0  0  0
 14 23  1  0  0  0  0
 14 28  2  0  0  0  0
 15 24  2  0  0  0  0
 15 26  1  0  0  0  0
 16 30  2  0  0  0  0
 16 31  1  0  0  0  0
 17 32  1  0  0  0  0
 18 32  1  0  0  0  0
 18 33  2  0  0  0  0
 18 34  1  0  0  0  0
 19 21  2  0  0  0  0
 19 39  1  0  0  0  0
 20 23  2  0  0  0  0
 20 40  1  0  0  0  0
 21 49  1  0  0  0  0
 22 25  2  0  0  0  0
 22 41  1  0  0  0  0
 23 42  1  0  0  0  0
 24 25  1  0  0  0  0
 24 52  1  0  0  0  0
 25 67  1  0  0  0  0
 26 72  1  0  0  0  0
 27 81  1  0  0  0  0
 28 82  1  0  0  0  0
 29 31  2  0  0  0  0
 29 81  1  0  0  0  0
 30 83  1  0  0  0  0
 31 84  1  0  0  0  0
 32 65  2  0  0  0  0
 33 66  1  0  0  0  0
 33 70  1  0  0  0  0
 34 71  1  0  0  0  0
 34 76  2  0  0  0  0
 35 50  1  0  0  0  0
 35 73  1  0  0  0  0
 35 77  2  0  0  0  0
 36 61  1  0  0  0  0
 36 68  1  0  0  0  0
 36 78  2  0  0  0  0
 37 62  1  0  0  0  0
 37 74  1  0  0  0  0
 37 79  2  0  0  0  0
 38 67  1  0  0  0  0
 38 69  1  0  0  0  0
 38 80  2  0  0  0  0
 39 43  1  0  0  0  0
 40 50  1  0  0  0  0
 41 67  1  0  0  0  0
 42 68  1  0  0  0  0
 43 45  1  0  0  0  0
 44 46  1  0  0  0  0
 44 47  1  0  0  0  0
 45 49  1  0  0  0  0
 46 51  1  0  0  0  0
 47 69  1  0  0  0  0
 48 51  1  0  0  0  0
 48 69  1  0  0  0  0
 49 73  1  0  0  0  0
 50 68  1  0  0  0  0
 51 66  1  0  0  0  0
 53 62  1  0  0  0  0
 54 63  1  0  0  0  0
 55 63  1  0  0  0  0
 56 63  1  0  0  0  0
 57 64  1  0  0  0  0
 58 64  1  0  0  0  0
 59 75  1  0  0  0  0
 60 64  1  0  0  0  0
 60 72  1  0  0  0  0
 61 63  1  0  0  0  0
 61 74  1  0  0  0  0
 62 75  1  0  0  0  0
 64 82  1  0  0  0  0
 65 66  1  0  0  0  0
M  CHG  1  75   1
M  ISO  4  38 100  64 101  67 100  82 101
M  END
> <Batch ID>
0138

> <Smiles>
CNC(C)C(=O)NC(C(=O)N1Cc2cc([101O:1][101C:1](C)(C)CNc3cc(C)c4c(c3)C[100N:0]4[100C:0](=O)N3CCCC(n4nc(-c5ccc(Oc6ccc(F)cc6F)cc5)c(C(N)=O)c4N)C3)ccc2CC1C(=O)NC1CCCc2ccccc21)C(C)(C)C

> <Shape>
0.234

> <Color>
0.109

> <Negative vol penalty>
0.000

$$$$

  -OEChem-04052302453D

 87 96  0     1  0  0  0  0  0999 V2000
  -29.0139  -31.5857   26.7603 C   0  0  0  0  0  0  0  0  0  0  0  0
  -28.8422  -30.5025   25.9044 C   0  0  0  0  0  0  0  0  0  0  0  0
  -24.3518   -8.5294   21.0615 C   0  0  0  0  0  0  0  0  0  0  0  0
  -23.3671  -10.6608   20.4917 C   0  0  0  0  0  0  0  0  0  0  0  0
  -27.9078  -32.3243   27.1786 C   0  0  0  0  0  0  0  0  0  0  0  0
  -27.5641  -30.1566   25.4671 C   0  0  0  0  0  0  0  0  0  0  0  0
  -27.4129  -29.1576   20.5048 C   0  0  0  0  0  0  0  0  0  0  0  0
  -23.2808   -8.2626   21.9143 C   0  0  0  0  0  0  0  0  0  0  0  0
  -22.2961  -10.3940   21.3446 C   0  0  0  0  0  0  0  0  0  0  0  0
  -27.8836  -27.9121   20.0914 C   0  0  0  0  0  0  0  0  0  0  0  0
  -20.0772   -7.2167   21.6381 C   0  0  0  0  0  0  0  0  0  0  0  0
  -19.5024   -5.9472   21.5793 C   0  0  0  0  0  0  0  0  0  0  0  0
  -27.9388  -17.2745   19.2512 C   0  0  0  0  0  0  0  0  0  0  0  0
  -25.6135  -27.1091   19.9463 C   0  0  0  0  0  0  0  0  0  0  0  0
  -30.0603  -17.3664   20.4035 C   0  0  0  0  0  0  0  0  0  0  0  0
  -20.0488   -5.5919   23.9057 C   0  0  0  0  0  0  0  0  0  0  0  0
  -24.3950   -9.7286   20.3502 C   0  0  0  0  0  0  0  0  0  0  0  0
  -25.5998   -9.6852   18.1021 C   0  0  0  0  0  0  0  0  0  0  0  0
  -26.6166  -31.9932   26.7385 C   0  0  0  0  0  0  0  0  0  0  0  0
  -26.0372  -29.3853   20.6527 C   0  0  0  0  0  0  0  0  0  0  0  0
  -26.4396  -30.8907   25.8809 C   0  0  0  0  0  0  0  0  0  0  0  0
  -27.7508  -18.6360   19.4886 C   0  0  0  0  0  0  0  0  0  0  0  0
  -25.1278  -28.3592   20.3592 C   0  0  0  0  0  0  0  0  0  0  0  0
  -29.8724  -18.7280   20.6409 C   0  0  0  0  0  0  0  0  0  0  0  0
  -29.0936  -16.6396   19.7086 C   0  0  0  0  0  0  0  0  0  0  0  0
  -22.2529   -9.1949   22.0559 C   0  0  0  0  0  0  0  0  0  0  0  0
  -26.9840  -26.8867   19.8149 C   0  0  0  0  0  0  0  0  0  0  0  0
  -20.6379   -7.6738   22.8308 C   0  0  0  0  0  0  0  0  0  0  0  0
  -28.7176  -19.3628   20.1835 C   0  0  0  0  0  0  0  0  0  0  0  0
  -19.4881   -5.1348   22.7131 C   0  0  0  0  0  0  0  0  0  0  0  0
  -20.6237   -6.8614   23.9646 C   0  0  0  0  0  0  0  0  0  0  0  0
  -25.5013  -10.0050   19.4695 C   0  0  0  0  0  0  0  0  0  0  0  0
  -26.8344  -10.1563   17.7273 C   0  0  0  0  0  0  0  0  0  0  0  0
  -24.6594   -9.0217   17.2470 C   0  0  0  0  0  0  0  0  0  0  0  0
  -24.1398  -30.1562   23.0837 C   0  0  0  0  0  0  0  0  0  0  0  0
  -28.7254  -23.0366   19.8350 C   0  0  0  0  0  0  0  0  0  0  0  0
  -21.8889  -30.3542   20.7563 C   0  0  0  0  0  0  0  0  0  0  0  0
  -20.8470  -29.4129   17.6459 C   0  0  0  0  0  0  0  0  0  0  0  0
  -30.3738  -14.4749   19.8550 C   0  0  0  0  0  0  0  0  0  0  0  0
  -25.4464  -32.7921   27.2553 C   0  0  0  0  0  0  0  0  0  0  0  0
  -25.5443  -30.7426   21.0738 C   0  0  0  0  0  0  0  0  0  0  0  0
  -23.6401  -28.5587   20.4828 C   0  0  0  0  0  0  0  0  0  0  0  0
  -24.1667  -32.5898   26.4480 C   0  0  0  0  0  0  0  0  0  0  0  0
  -31.2011  -11.0314   19.4881 C   0  0  0  0  0  0  0  0  0  0  0  0
  -25.6376  -20.0422   19.9690 C   0  0  0  0  0  0  0  0  0  0  0  0
  -25.1703  -18.7402   19.3972 C   0  0  0  0  0  0  0  0  0  0  0  0
  -23.9286  -31.1058   26.1878 C   0  0  0  0  0  0  0  0  0  0  0  0
  -29.8427  -10.3490   19.3111 C   0  0  0  0  0  0  0  0  0  0  0  0
  -31.1283  -12.1912   20.4797 C   0  0  0  0  0  0  0  0  0  0  0  0
  -28.7287  -12.5045   20.0182 C   0  0  0  0  0  0  0  0  0  0  0  0
  -26.5086  -19.2983   18.9920 C   0  0  0  0  0  0  0  0  0  0  0  0
  -25.0718  -30.4995   25.3650 C   0  0  1  0  0  0  0  0  0  0  0  0
  -24.1473  -30.7075   21.6860 C   0  0  1  0  0  0  0  0  0  0  0  0
  -28.7376  -11.3710   18.9796 C   0  0  2  0  0  0  0  0  0  0  0  0
  -30.9189  -19.4888   21.3867 C   0  0  0  0  0  0  0  0  0  0  0  0
  -18.9483  -29.7070   16.0316 C   0  0  0  0  0  0  0  0  0  0  0  0
  -20.1864  -28.4400   22.4138 C   0  0  0  0  0  0  0  0  0  0  0  0
  -18.7870  -28.0327   20.3781 C   0  0  0  0  0  0  0  0  0  0  0  0
  -18.9174  -30.3211   21.3624 C   0  0  0  0  0  0  0  0  0  0  0  0
  -22.6148  -30.6310   15.6088 C   0  0  0  0  0  0  0  0  0  0  0  0
  -29.1966  -24.0978   18.8517 C   0  0  0  0  0  0  0  0  0  0  0  0
  -29.0246  -21.6023   19.4444 C   0  0  0  0  0  0  0  0  0  0  0  0
  -28.8542  -25.5132   19.2935 C   0  0  0  0  0  0  0  0  0  1  0  0
  -20.9154  -29.3881   20.1256 C   0  0  1  0  0  0  0  0  0  0  0  0
  -20.3094  -30.2185   16.4769 C   0  0  2  0  0  0  0  0  0  0  0  0
  -19.7296  -29.0408   21.0694 C   0  0  0  0  0  0  0  0  0  0  0  0
  -26.5869  -10.6307   19.9322 N   0  0  0  0  0  0  0  0  0  0  0  0
  -27.3792  -10.7078   18.8494 N   0  0  0  0  0  0  0  0  0  0  0  0
  -23.2076  -29.9015   20.9040 N   0  0  0  0  0  0  0  0  0  0  0  0
  -30.0623  -13.1207   20.0995 N   0  0  0  0  0  0  0  0  0  0  0  0
  -27.4962  -10.1483   16.5508 N   0  0  0  0  0  0  0  0  0  0  0  0
  -23.4388   -8.6032   17.7940 N   0  0  0  0  0  0  0  0  0  0  0  0
  -29.2853  -15.2563   19.4689 N   0  0  0  0  0  0  0  0  0  0  0  0
  -24.9352  -30.8577   23.9695 N   0  0  0  0  0  0  0  0  0  0  0  0
  -20.5138  -29.9839   18.8559 N   0  0  0  0  0  0  0  0  0  0  0  0
  -21.2439  -30.1377   15.3188 N   0  3  0  0  0  0  0  0  0  0  0  0
  -24.9014   -8.7917   16.0378 O   0  0  0  0  0  0  0  0  0  0  0  0
  -23.4614  -29.1684   23.3399 O   0  0  0  0  0  0  0  0  0  0  0  0
  -28.1417  -23.3140   20.8815 O   0  0  0  0  0  0  0  0  0  0  0  0
  -21.4955  -31.4721   21.0987 O   0  0  0  0  0  0  0  0  0  0  0  0
  -21.4943  -28.3783   17.5002 O   0  0  0  0  0  0  0  0  0  0  0  0
  -31.5265  -14.9035   19.9526 O   0  0  0  0  0  0  0  0  0  0  0  0
  -21.2076   -8.9347   22.8878 O   0  0  0  0  0  0  0  0  0  0  0  0
  -28.5337  -20.7050   20.4178 O   0  0  0  0  0  0  0  0  0  0  0  0
  -27.4408  -25.6698   19.4119 O   0  0  0  0  0  0  0  0  0  1  0  0
  -18.9347   -3.9163   22.6568 F   0  0  0  0  0  0  0  0  0  0  0  0
  -21.1597   -7.2956   25.1135 F   0  0  0  0  0  0  0  0  0  0  0  0
  1  2  1  0  0  0  0
  1  5  2  0  0  0  0
  2  6  2  0  0  0  0
  3  8  2  0  0  0  0
  3 17  1  0  0  0  0
  4  9  1  0  0  0  0
  4 17  2  0  0  0  0
  5 19  1  0  0  0  0
  6 21  1  0  0  0  0
  7 10  2  0  0  0  0
  7 20  1  0  0  0  0
  8 26  1  0  0  0  0
  9 26  2  0  0  0  0
 10 27  1  0  0  0  0
 11 12  2  0  0  0  0
 11 28  1  0  0  0  0
 12 30  1  0  0  0  0
 13 22  1  0  0  0  0
 13 25  2  0  0  0  0
 14 23  1  0  0  0  0
 14 27  2  0  0  0  0
 15 24  2  0  0  0  0
 15 25  1  0  0  0  0
 16 30  2  0  0  0  0
 16 31  1  0  0  0  0
 17 32  1  0  0  0  0
 18 32  1  0  0  0  0
 18 33  2  0  0  0  0
 18 34  1  0  0  0  0
 19 21  2  0  0  0  0
 19 40  1  0  0  0  0
 20 23  2  0  0  0  0
 20 41  1  0  0  0  0
 21 52  1  0  0  0  0
 22 29  2  0  0  0  0
 22 51  1  0  0  0  0
 23 42  1  0  0  0  0
 24 29  1  0  0  0  0
 24 55  1  0  0  0  0
 25 73  1  0  0  0  0
 26 83  1  0  0  0  0
 27 85  1  0  0  0  0
 28 31  2  0  0  0  0
 28 83  1  0  0  0  0
 29 84  1  0  0  0  0
 30 86  1  0  0  0  0
 31 87  1  0  0  0  0
 32 67  2  0  0  0  0
 33 68  1  0  0  0  0
 33 71  1  0  0  0  0
 34 72  1  0  0  0  0
 34 77  2  0  0  0  0
 35 53  1  0  0  0  0
 35 74  1  0  0  0  0
 35 78  2  0  0  0  0
 36 61  1  0  0  0  0
 36 62  1  0  0  0  0
 36 79  2  0  0  0  0
 37 64  1  0  0  0  0
 37 69  1  0  0  0  0
 37 80  2  0  0  0  0
 38 65  1  0  0  0  0
 38 75  1  0  0  0  0
 38 81  2  0  0  0  0
 39 70  1  0  0  0  0
 39 73  1  0  0  0  0
 39 82  2  0  0  0  0
 40 43  1  0  0  0  0
 41 53  1  0  0  0  0
 42 69  1  0  0  0  0
 43 47  1  0  0  0  0
 44 48  1  0  0  0  0
 44 49  1  0  0  0  0
 45 46  1  0  0  0  0
 45 51  1  0  0  0  0
 46 51  1  0  0  0  0
 47 52  1  0  0  0  0
 48 54  1  0  0  0  0
 49 70  1  0  0  0  0
 50 54  1  0  0  0  0
 50 70  1  0  0  0  0
 52 74  1  0  0  0  0
 53 69  1  0  0  0  0
 54 68  1  0  0  0  0
 56 65  1  0  0  0  0
 57 66  1  0  0  0  0
 58 66  1  0  0  0  0
 59 66  1  0  0  0  0
 60 76  1  0  0  0  0
 61 63  1  0  0  0  0
 62 84  1  0  0  0  0
 63 85  1  0  0  0  0
 64 66  1  0  0  0  0
 64 75  1  0  0  0  0
 65 76  1  0  0  0  0
 67 68  1  0  0  0  0
M  CHG  1  76   1
M  ISO  4  39 100  63 101  73 100  85 101
M  END
> <Batch ID>
0138

> <Smiles>
CNC(C)C(=O)NC(C(=O)N1Cc2cc([101O:1][101CH2:1]CC(=O)COc3c(C)cc([100NH:0][100C:0](=O)N4CCCC(n5nc(-c6ccc(Oc7ccc(F)cc7F)cc6)c(C(N)=O)c5N)C4)cc3C3CC3)ccc2CC1C(=O)NC1CCCc2ccccc21)C(C)(C)C

> <Shape>
0.305

> <Color>
0.098

> <Negative vol penalty>
0.000

$$$$

  -OEChem-04052302453D

 86 94  0     1  0  0  0  0  0999 V2000
  -32.0305  -14.9873   21.1277 C   0  0  0  0  0  0  0  0  0  0  0  0
  -31.0031  -15.5925   21.8444 C   0  0  0  0  0  0  0  0  0  0  0  0
  -28.3949  -19.4403   21.2913 C   0  0  0  0  0  0  0  0  0  0  0  0
  -22.4283  -29.2485   19.5980 C   0  0  0  0  0  0  0  0  0  0  0  0
  -22.4914  -27.9606   21.6411 C   0  0  0  0  0  0  0  0  0  0  0  0
  -31.7299  -14.1291   20.0708 C   0  0  0  0  0  0  0  0  0  0  0  0
  -29.6746  -15.3407   21.5039 C   0  0  0  0  0  0  0  0  0  0  0  0
  -26.7653  -14.4558   25.5533 C   0  0  0  0  0  0  0  0  0  0  0  0
  -28.0052  -19.3863   22.6295 C   0  0  0  0  0  0  0  0  0  0  0  0
  -28.4473  -20.6668   20.6290 C   0  0  0  0  0  0  0  0  0  0  0  0
  -21.0401  -29.3404   19.6987 C   0  0  0  0  0  0  0  0  0  0  0  0
  -21.1032  -28.0526   21.7420 C   0  0  0  0  0  0  0  0  0  0  0  0
  -26.3573  -15.5615   26.2981 C   0  0  0  0  0  0  0  0  0  0  0  0
  -18.8256  -30.3453   22.7304 C   0  0  0  0  0  0  0  0  0  0  0  0
  -18.2874  -30.6601   23.9781 C   0  0  0  0  0  0  0  0  0  0  0  0
  -24.2093  -15.4995   25.2021 C   0  0  0  0  0  0  0  0  0  0  0  0
  -17.0725  -28.5718   23.9810 C   0  0  0  0  0  0  0  0  0  0  0  0
  -23.1539  -28.5586   20.5691 C   0  0  0  0  0  0  0  0  0  0  0  0
  -25.5400  -29.3528   20.9972 C   0  0  0  0  0  0  0  0  0  0  0  0
  -30.3969  -13.8591   19.7233 C   0  0  0  0  0  0  0  0  0  0  0  0
  -25.9007  -13.8693   24.6179 C   0  0  0  0  0  0  0  0  0  0  0  0
  -29.3559  -14.4791   20.4405 C   0  0  0  0  0  0  0  0  0  0  0  0
  -24.6078  -14.3849   24.4486 C   0  0  0  0  0  0  0  0  0  0  0  0
  -27.6678  -20.5588   23.3055 C   0  0  0  0  0  0  0  0  0  0  0  0
  -27.7202  -21.7854   22.6432 C   0  0  0  0  0  0  0  0  0  0  0  0
  -28.1099  -21.8393   21.3050 C   0  0  0  0  0  0  0  0  0  0  0  0
  -20.3776  -28.7425   20.7707 C   0  0  0  0  0  0  0  0  0  0  0  0
  -25.0802  -16.0853   26.1205 C   0  0  0  0  0  0  0  0  0  0  0  0
  -18.4872  -29.1437   22.1079 C   0  0  0  0  0  0  0  0  0  0  0  0
  -17.4109  -29.7734   24.6034 C   0  0  0  0  0  0  0  0  0  0  0  0
  -17.6107  -28.2570   22.7332 C   0  0  0  0  0  0  0  0  0  0  0  0
  -24.5878  -28.4627   20.4653 C   0  0  0  0  0  0  0  0  0  0  0  0
  -26.7512  -28.8219   20.6261 C   0  0  0  0  0  0  0  0  0  0  0  0
  -25.3470  -30.5522   21.7586 C   0  0  0  0  0  0  0  0  0  0  0  0
  -25.9665  -13.4287   21.4707 C   0  0  0  0  0  0  0  0  0  0  0  0
  -23.2610  -11.7333   22.0436 C   0  0  0  0  0  0  0  0  0  0  0  0
  -20.5789  -11.1561   24.0733 C   0  0  0  0  0  0  0  0  0  0  0  0
  -28.5404  -23.2809   19.2843 C   0  0  0  0  0  0  0  0  0  0  0  0
  -30.1219  -12.9615   18.5429 C   0  0  0  0  0  0  0  0  0  0  0  0
  -26.3466  -12.6606   23.8417 C   0  0  0  0  0  0  0  0  0  0  0  0
  -23.6343  -13.7794   23.4717 C   0  0  0  0  0  0  0  0  0  0  0  0
  -28.6833  -12.4542   18.4855 C   0  0  0  0  0  0  0  0  0  0  0  0
  -28.7818  -26.1592   17.2025 C   0  0  0  0  0  0  0  0  0  0  0  0
  -27.7038  -13.5986   18.7256 C   0  0  0  0  0  0  0  0  0  0  0  0
  -27.8249  -27.1597   17.8548 C   0  0  0  0  0  0  0  0  0  0  0  0
  -28.2507  -24.7293   17.2861 C   0  0  0  0  0  0  0  0  0  0  0  0
  -26.9250  -25.2823   19.2875 C   0  0  0  0  0  0  0  0  0  0  0  0
  -27.9020  -14.2116   20.1172 C   0  0  1  0  0  0  0  0  0  0  0  0
  -25.5649  -12.4602   22.5470 C   0  0  1  0  0  0  0  0  0  0  0  0
  -27.4478  -26.7281   19.2856 C   0  0  2  0  0  0  0  0  0  0  0  0
  -28.5866  -23.8463   23.7783 C   0  0  0  0  0  0  0  0  0  0  0  0
  -18.5191   -9.7348   24.2595 C   0  0  0  0  0  0  0  0  0  0  0  0
  -21.8840  -13.4569   19.9358 C   0  0  0  0  0  0  0  0  0  0  0  0
  -19.6824  -12.6671   20.8288 C   0  0  0  0  0  0  0  0  0  0  0  0
  -21.2891  -11.0293   19.8495 C   0  0  0  0  0  0  0  0  0  0  0  0
  -22.8884  -20.3921   26.0320 C   0  0  0  0  0  0  0  0  0  0  0  0
  -23.7098  -19.5626   28.2397 C   0  0  0  0  0  0  0  0  0  0  0  0
  -21.5086   -9.9364   26.6044 C   0  0  0  0  0  0  0  0  0  0  0  0
  -27.2500  -20.4719   24.7520 C   0  0  0  0  0  0  0  0  0  0  0  0
  -27.3574  -23.0408   23.3728 C   0  0  0  0  0  0  0  0  0  0  0  0
  -25.7999  -20.0100   24.9532 C   0  0  0  0  0  0  0  0  0  0  0  0
  -25.3771  -20.0074   26.4301 C   0  0  0  0  0  0  0  0  0  0  0  0
  -23.7308  -18.0402   26.2374 C   0  0  0  0  0  0  0  0  0  1  0  0
  -21.7881  -12.0587   22.1042 C   0  0  1  0  0  0  0  0  0  0  0  0
  -19.9898   -9.8694   24.6226 C   0  0  2  0  0  0  0  0  0  0  0  0
  -21.1797  -12.3158   20.6967 C   0  0  0  0  0  0  0  0  0  0  0  0
  -23.9362  -19.4945   26.7137 C   0  0  0  0  0  0  0  0  0  0  0  0
  -25.1460  -27.4438   19.8064 N   0  0  0  0  0  0  0  0  0  0  0  0
  -26.4621  -27.6904   19.9217 N   0  0  0  0  0  0  0  0  0  0  0  0
  -24.1193  -12.6026   22.7317 N   0  0  0  0  0  0  0  0  0  0  0  0
  -27.9185  -24.3890   18.6713 N   0  0  0  0  0  0  0  0  0  0  0  0
  -28.0246  -29.2173   20.8369 N   0  0  0  0  0  0  0  0  0  0  0  0
  -24.0366  -30.9541   22.0515 N   0  0  0  0  0  0  0  0  0  0  0  0
  -28.1708  -23.0743   20.6130 N   0  0  0  0  0  0  0  0  0  0  0  0
  -27.3045  -13.3687   21.1306 N   0  0  0  0  0  0  0  0  0  0  0  0
  -21.1584  -10.9655   22.8368 N   0  0  0  0  0  0  0  0  0  0  0  0
  -20.1121   -9.8362   26.1075 N   0  3  0  0  0  0  0  0  0  0  0  0
  -26.3076  -31.2559   22.1532 O   0  0  0  0  0  0  0  0  0  0  0  0
  -25.1246  -14.1741   20.9837 O   0  0  0  0  0  0  0  0  0  0  0  0
  -23.6356  -10.7402   21.4151 O   0  0  0  0  0  0  0  0  0  0  0  0
  -20.5266  -12.2244   24.6788 O   0  0  0  0  0  0  0  0  0  0  0  0
  -29.3625  -22.5838   18.6840 O   0  0  0  0  0  0  0  0  0  0  0  0
  -19.0230  -28.8322   20.8695 O   0  0  0  0  0  0  0  0  0  0  0  0
  -24.6796  -17.1649   26.8456 O   0  0  0  0  0  0  0  0  0  1  0  0
  -16.8953  -30.0752   25.8023 F   0  0  0  0  0  0  0  0  0  0  0  0
  -17.2828  -27.1006   22.1407 F   0  0  0  0  0  0  0  0  0  0  0  0
  1  2  1  0  0  0  0
  1  6  2  0  0  0  0
  2  7  2  0  0  0  0
  3  9  1  0  0  0  0
  3 10  2  0  0  0  0
  4 11  2  0  0  0  0
  4 18  1  0  0  0  0
  5 12  1  0  0  0  0
  5 18  2  0  0  0  0
  6 20  1  0  0  0  0
  7 22  1  0  0  0  0
  8 13  2  0  0  0  0
  8 21  1  0  0  0  0
  9 24  2  0  0  0  0
 10 26  1  0  0  0  0
 11 27  1  0  0  0  0
 12 27  2  0  0  0  0
 13 28  1  0  0  0  0
 14 15  2  0  0  0  0
 14 29  1  0  0  0  0
 15 30  1  0  0  0  0
 16 23  1  0  0  0  0
 16 28  2  0  0  0  0
 17 30  2  0  0  0  0
 17 31  1  0  0  0  0
 18 32  1  0  0  0  0
 19 32  1  0  0  0  0
 19 33  2  0  0  0  0
 19 34  1  0  0  0  0
 20 22  2  0  0  0  0
 20 39  1  0  0  0  0
 21 23  2  0  0  0  0
 21 40  1  0  0  0  0
 22 48  1  0  0  0  0
 23 41  1  0  0  0  0
 24 25  1  0  0  0  0
 24 59  1  0  0  0  0
 25 26  2  0  0  0  0
 25 60  1  0  0  0  0
 26 74  1  0  0  0  0
 27 83  1  0  0  0  0
 28 84  1  0  0  0  0
 29 31  2  0  0  0  0
 29 83  1  0  0  0  0
 30 85  1  0  0  0  0
 31 86  1  0  0  0  0
 32 68  2  0  0  0  0
 33 69  1  0  0  0  0
 33 72  1  0  0  0  0
 34 73  1  0  0  0  0
 34 78  2  0  0  0  0
 35 49  1  0  0  0  0
 35 75  1  0  0  0  0
 35 79  2  0  0  0  0
 36 64  1  0  0  0  0
 36 70  1  0  0  0  0
 36 80  2  0  0  0  0
 37 65  1  0  0  0  0
 37 76  1  0  0  0  0
 37 81  2  0  0  0  0
 38 71  1  0  0  0  0
 38 74  1  0  0  0  0
 38 82  2  0  0  0  0
 39 42  1  0  0  0  0
 40 49  1  0  0  0  0
 41 70  1  0  0  0  0
 42 44  1  0  0  0  0
 43 45  1  0  0  0  0
 43 46  1  0  0  0  0
 44 48  1  0  0  0  0
 45 50  1  0  0  0  0
 46 71  1  0  0  0  0
 47 50  1  0  0  0  0
 47 71  1  0  0  0  0
 48 75  1  0  0  0  0
 49 70  1  0  0  0  0
 50 69  1  0  0  0  0
 51 60  1  0  0  0  0
 52 65  1  0  0  0  0
 53 66  1  0  0  0  0
 54 66  1  0  0  0  0
 55 66  1  0  0  0  0
 56 67  1  0  0  0  0
 57 67  1  0  0  0  0
 58 77  1  0  0  0  0
 59 61  1  0  0  0  0
 61 62  1  0  0  0  0
 62 67  1  0  0  0  0
 63 67  1  0  0  0  0
 63 84  1  0  0  0  0
 64 66  1  0  0  0  0
 64 76  1  0  0  0  0
 65 77  1  0  0  0  0
 68 69  1  0  0  0  0
M  CHG  1  77   1
M  ISO  4  38 100  63 101  74 100  84 101
M  END
> <Batch ID>
0138

> <Smiles>
CCc1c(CCCC(C)(C)[101CH2:1][101O:1]c2ccc3c(c2)CN(C(=O)C(NC(=O)C(C)NC)C(C)(C)C)C(C(=O)NC2CCCc4ccccc42)C3)cccc1[100NH:0][100C:0](=O)N1CCCC(n2nc(-c3ccc(Oc4ccc(F)cc4F)cc3)c(C(N)=O)c2N)C1

> <Shape>
0.255

> <Color>
0.060

> <Negative vol penalty>
0.000

$$$$

  -OEChem-04052302453D

 84 92  0     1  0  0  0  0  0999 V2000
  -27.0803  -32.2210   27.8617 C   0  0  0  0  0  0  0  0  0  0  0  0
  -27.4641  -31.3323   26.8625 C   0  0  0  0  0  0  0  0  0  0  0  0
  -24.6033  -12.5097   19.7569 C   0  0  0  0  0  0  0  0  0  0  0  0
  -25.4700  -13.3101   21.8653 C   0  0  0  0  0  0  0  0  0  0  0  0
  -25.7294  -32.3881   28.1632 C   0  0  0  0  0  0  0  0  0  0  0  0
  -26.4972  -30.6093   26.1650 C   0  0  0  0  0  0  0  0  0  0  0  0
  -27.3354  -30.5598   21.1710 C   0  0  0  0  0  0  0  0  0  0  0  0
  -29.7277  -22.5571   22.9674 C   0  0  0  0  0  0  0  0  0  0  0  0
  -28.8498  -21.6703   23.5907 C   0  0  0  0  0  0  0  0  0  0  0  0
  -25.2461  -11.2880   19.9565 C   0  0  0  0  0  0  0  0  0  0  0  0
  -26.1128  -12.0884   22.0649 C   0  0  0  0  0  0  0  0  0  0  0  0
  -28.3166  -29.6892   20.6987 C   0  0  0  0  0  0  0  0  0  0  0  0
  -26.3629   -7.8308   20.0809 C   0  0  0  0  0  0  0  0  0  0  0  0
  -25.6402   -6.6671   19.8179 C   0  0  0  0  0  0  0  0  0  0  0  0
  -26.6036  -28.1182   20.0531 C   0  0  0  0  0  0  0  0  0  0  0  0
  -28.6008  -22.1927   20.8616 C   0  0  0  0  0  0  0  0  0  0  0  0
  -24.0112   -7.3020   21.4853 C   0  0  0  0  0  0  0  0  0  0  0  0
  -24.7153  -13.5208   20.7113 C   0  0  0  0  0  0  0  0  0  0  0  0
  -22.7495  -15.1347   20.9076 C   0  0  0  0  0  0  0  0  0  0  0  0
  -24.7447  -31.6739   27.4623 C   0  0  0  0  0  0  0  0  0  0  0  0
  -25.9792  -30.2107   21.0977 C   0  0  0  0  0  0  0  0  0  0  0  0
  -25.1318  -30.7660   26.4582 C   0  0  0  0  0  0  0  0  0  0  0  0
  -25.6070  -28.9872   20.5229 C   0  0  0  0  0  0  0  0  0  0  0  0
  -29.6032  -22.8183   21.6029 C   0  0  0  0  0  0  0  0  0  0  0  0
  -27.8474  -21.0447   22.8495 C   0  0  0  0  0  0  0  0  0  0  0  0
  -27.7229  -21.3059   21.4849 C   0  0  0  0  0  0  0  0  0  0  0  0
  -26.0008  -11.0773   21.1104 C   0  0  0  0  0  0  0  0  0  0  0  0
  -27.9510  -28.4670   20.1423 C   0  0  0  0  0  0  0  0  0  0  0  0
  -25.9098   -8.7300   21.0462 C   0  0  0  0  0  0  0  0  0  0  0  0
  -24.4643   -6.4027   20.5200 C   0  0  0  0  0  0  0  0  0  0  0  0
  -24.7339   -8.4656   21.7484 C   0  0  0  0  0  0  0  0  0  0  0  0
  -24.0520  -14.7832   20.5054 C   0  0  0  0  0  0  0  0  0  0  0  0
  -22.5959  -16.4307   20.4796 C   0  0  0  0  0  0  0  0  0  0  0  0
  -21.7663  -14.3590   21.6058 C   0  0  0  0  0  0  0  0  0  0  0  0
  -23.6677  -29.7332   23.2267 C   0  0  0  0  0  0  0  0  0  0  0  0
  -21.8141  -29.4767   20.5771 C   0  0  0  0  0  0  0  0  0  0  0  0
  -21.6098  -28.7970   17.2389 C   0  0  0  0  0  0  0  0  0  0  0  0
  -26.4647  -20.8428   19.3521 C   0  0  0  0  0  0  0  0  0  0  0  0
  -23.2998  -31.8528   27.8560 C   0  0  0  0  0  0  0  0  0  0  0  0
  -24.9314  -31.1724   21.5873 C   0  0  0  0  0  0  0  0  0  0  0  0
  -24.1636  -28.5741   20.4024 C   0  0  0  0  0  0  0  0  0  0  0  0
  -22.3153  -31.3272   26.8145 C   0  0  0  0  0  0  0  0  0  0  0  0
  -24.0966  -19.4557   17.0838 C   0  0  0  0  0  0  0  0  0  0  0  0
  -22.7340  -29.9406   26.3359 C   0  0  0  0  0  0  0  0  0  0  0  0
  -23.6934  -18.1349   17.7434 C   0  0  0  0  0  0  0  0  0  0  0  0
  -25.5772  -19.7665   17.2956 C   0  0  0  0  0  0  0  0  0  0  0  0
  -25.6214  -18.4129   19.3535 C   0  0  0  0  0  0  0  0  0  0  0  0
  -24.1110  -29.9820   25.6624 C   0  0  1  0  0  0  0  0  0  0  0  0
  -23.6099  -30.4921   21.9312 C   0  0  1  0  0  0  0  0  0  0  0  0
  -24.1242  -18.0891   19.2225 C   0  0  2  0  0  0  0  0  0  0  0  0
  -26.9217  -20.0987   23.5433 C   0  0  0  0  0  0  0  0  0  0  0  0
  -19.9546  -28.6314   15.3600 C   0  0  0  0  0  0  0  0  0  0  0  0
  -20.8618  -26.7863   21.6563 C   0  0  0  0  0  0  0  0  0  0  0  0
  -19.9929  -26.2551   19.3692 C   0  0  0  0  0  0  0  0  0  0  0  0
  -19.0660  -28.1950   20.6341 C   0  0  0  0  0  0  0  0  0  0  0  0
  -31.0940  -25.9024   18.7675 C   0  0  0  0  0  0  0  0  0  0  0  0
  -32.2654  -26.4205   20.9232 C   0  0  0  0  0  0  0  0  0  0  0  0
  -22.9485  -30.9523   15.7153 C   0  0  0  0  0  0  0  0  0  0  0  0
  -30.5538  -23.7784   20.9291 C   0  0  0  0  0  0  0  0  0  0  0  0
  -30.0170  -25.2161   20.9680 C   0  0  0  0  0  0  0  0  0  0  0  0
  -30.1787  -27.6551   20.3268 C   0  0  0  0  0  0  0  0  0  1  0  0
  -21.3979  -28.3448   19.6690 C   0  0  1  0  0  0  0  0  0  0  0  0
  -20.9283  -29.5348   16.1006 C   0  0  2  0  0  0  0  0  0  0  0  0
  -20.3570  -27.4020   20.3360 C   0  0  0  0  0  0  0  0  0  0  0  0
  -30.8902  -26.2820   20.2462 C   0  0  0  0  0  0  0  0  0  0  0  0
  -24.6810  -15.7758   19.8706 N   0  0  0  0  0  0  0  0  0  0  0  0
  -23.7699  -16.7637   19.8705 N   0  0  0  0  0  0  0  0  0  0  0  0
  -23.1765  -29.5459   20.9011 N   0  0  0  0  0  0  0  0  0  0  0  0
  -25.9114  -19.7090   18.7204 N   0  0  0  0  0  0  0  0  0  0  0  0
  -21.5725  -17.3066   20.5686 N   0  0  0  0  0  0  0  0  0  0  0  0
  -22.0884  -13.0449   21.9714 N   0  0  0  0  0  0  0  0  0  0  0  0
  -26.7107  -20.6808   20.7151 N   0  0  0  0  0  0  0  0  0  0  0  0
  -24.0011  -30.5104   24.3196 N   0  0  0  0  0  0  0  0  0  0  0  0
  -20.9367  -28.9634   18.4308 N   0  0  0  0  0  0  0  0  0  0  0  0
  -21.9405  -30.0332   15.1269 N   0  3  0  0  0  0  0  0  0  0  0  0
  -20.6297  -14.8121   21.8822 O   0  0  0  0  0  0  0  0  0  0  0  0
  -23.4262  -28.5319   23.2345 O   0  0  0  0  0  0  0  0  0  0  0  0
  -20.9630  -30.2744   20.9782 O   0  0  0  0  0  0  0  0  0  0  0  0
  -22.6345  -28.1360   17.0854 O   0  0  0  0  0  0  0  0  0  0  0  0
  -26.6774  -21.8901   18.7356 O   0  0  0  0  0  0  0  0  0  0  0  0
  -26.6280   -9.8852   21.3056 O   0  0  0  0  0  0  0  0  0  0  0  0
  -28.9068  -27.6152   19.6811 O   0  0  0  0  0  0  0  0  0  1  0  0
  -23.7696   -5.2860   20.2663 F   0  0  0  0  0  0  0  0  0  0  0  0
  -24.2930   -9.3264   22.6760 F   0  0  0  0  0  0  0  0  0  0  0  0
  1  2  1  0  0  0  0
  1  5  2  0  0  0  0
  2  6  2  0  0  0  0
  3 10  2  0  0  0  0
  3 18  1  0  0  0  0
  4 11  1  0  0  0  0
  4 18  2  0  0  0  0
  5 20  1  0  0  0  0
  6 22  1  0  0  0  0
  7 12  2  0  0  0  0
  7 21  1  0  0  0  0
  8  9  2  0  0  0  0
  8 24  1  0  0  0  0
  9 25  1  0  0  0  0
 10 27  1  0  0  0  0
 11 27  2  0  0  0  0
 12 28  1  0  0  0  0
 13 14  2  0  0  0  0
 13 29  1  0  0  0  0
 14 30  1  0  0  0  0
 15 23  1  0  0  0  0
 15 28  2  0  0  0  0
 16 24  2  0  0  0  0
 16 26  1  0  0  0  0
 17 30  2  0  0  0  0
 17 31  1  0  0  0  0
 18 32  1  0  0  0  0
 19 32  1  0  0  0  0
 19 33  2  0  0  0  0
 19 34  1  0  0  0  0
 20 22  2  0  0  0  0
 20 39  1  0  0  0  0
 21 23  2  0  0  0  0
 21 40  1  0  0  0  0
 22 48  1  0  0  0  0
 23 41  1  0  0  0  0
 24 59  1  0  0  0  0
 25 26  2  0  0  0  0
 25 51  1  0  0  0  0
 26 72  1  0  0  0  0
 27 81  1  0  0  0  0
 28 82  1  0  0  0  0
 29 31  2  0  0  0  0
 29 81  1  0  0  0  0
 30 83  1  0  0  0  0
 31 84  1  0  0  0  0
 32 66  2  0  0  0  0
 33 67  1  0  0  0  0
 33 70  1  0  0  0  0
 34 71  1  0  0  0  0
 34 76  2  0  0  0  0
 35 49  1  0  0  0  0
 35 73  1  0  0  0  0
 35 77  2  0  0  0  0
 36 62  1  0  0  0  0
 36 68  1  0  0  0  0
 36 78  2  0  0  0  0
 37 63  1  0  0  0  0
 37 74  1  0  0  0  0
 37 79  2  0  0  0  0
 38 69  1  0  0  0  0
 38 72  1  0  0  0  0
 38 80  2  0  0  0  0
 39 42  1  0  0  0  0
 40 49  1  0  0  0  0
 41 68  1  0  0  0  0
 42 44  1  0  0  0  0
 43 45  1  0  0  0  0
 43 46  1  0  0  0  0
 44 48  1  0  0  0  0
 45 50  1  0  0  0  0
 46 69  1  0  0  0  0
 47 50  1  0  0  0  0
 47 69  1  0  0  0  0
 48 73  1  0  0  0  0
 49 68  1  0  0  0  0
 50 67  1  0  0  0  0
 52 63  1  0  0  0  0
 53 64  1  0  0  0  0
 54 64  1  0  0  0  0
 55 64  1  0  0  0  0
 56 65  1  0  0  0  0
 57 65  1  0  0  0  0
 58 75  1  0  0  0  0
 59 60  1  0  0  0  0
 60 65  1  0  0  0  0
 61 65  1  0  0  0  0
 61 82  1  0  0  0  0
 62 64  1  0  0  0  0
 62 74  1  0  0  0  0
 63 75  1  0  0  0  0
 66 67  1  0  0  0  0
M  CHG  1  75   1
M  ISO  4  38 100  61 101  72 100  82 101
M  END
> <Batch ID>
0138

> <Smiles>
CNC(C)C(=O)NC(C(=O)N1Cc2cc([101O:1][101CH2:1]C(C)(C)CCc3ccc(C)c([100NH:0][100C:0](=O)N4CCCC(n5nc(-c6ccc(Oc7ccc(F)cc7F)cc6)c(C(N)=O)c5N)C4)c3)ccc2CC1C(=O)NC1CCCc2ccccc21)C(C)(C)C

> <Shape>
0.231

> <Color>
0.086

> <Negative vol penalty>
0.000

$$$$

  -OEChem-04052302453D

 88 96  0     1  0  0  0  0  0999 V2000
  -19.6375  -29.7468   15.6532 C   0  0  0  0  0  0  0  0  0  0  0  0
  -20.6717  -28.8993   16.0376 C   0  0  0  0  0  0  0  0  0  0  0  0
  -23.2397   -9.7734   21.3433 C   0  0  0  0  0  0  0  0  0  0  0  0
  -23.8838  -10.6779   23.4890 C   0  0  0  0  0  0  0  0  0  0  0  0
  -19.6190  -31.0682   16.0975 C   0  0  0  0  0  0  0  0  0  0  0  0
  -21.6885  -29.3732   16.8658 C   0  0  0  0  0  0  0  0  0  0  0  0
  -22.8298  -26.1349   20.5882 C   0  0  0  0  0  0  0  0  0  0  0  0
  -22.5605   -8.7372   21.9839 C   0  0  0  0  0  0  0  0  0  0  0  0
  -23.2046   -9.6416   24.1297 C   0  0  0  0  0  0  0  0  0  0  0  0
  -23.6218  -25.0367   20.2562 C   0  0  0  0  0  0  0  0  0  0  0  0
  -23.3311   -5.8105   23.4890 C   0  0  0  0  0  0  0  0  0  0  0  0
  -23.5104   -4.5176   22.9973 C   0  0  0  0  0  0  0  0  0  0  0  0
  -25.5556  -26.1689   21.1495 C   0  0  0  0  0  0  0  0  0  0  0  0
  -31.6368  -17.6617   21.4744 C   0  0  0  0  0  0  0  0  0  0  0  0
  -31.2708  -19.8769   22.3666 C   0  0  0  0  0  0  0  0  0  0  0  0
  -21.1404   -4.3564   22.5569 C   0  0  0  0  0  0  0  0  0  0  0  0
  -23.9014  -10.7438   22.0958 C   0  0  0  0  0  0  0  0  0  0  0  0
  -24.0849  -13.0686   21.0618 C   0  0  0  0  0  0  0  0  0  0  0  0
  -20.6310  -31.5558   16.9394 C   0  0  0  0  0  0  0  0  0  0  0  0
  -23.3976  -27.2647   21.1945 C   0  0  0  0  0  0  0  0  0  0  0  0
  -21.6842  -30.7027   17.3208 C   0  0  0  0  0  0  0  0  0  0  0  0
  -24.7681  -27.2791   21.4905 C   0  0  0  0  0  0  0  0  0  0  0  0
  -29.3900  -18.5263   21.6769 C   0  0  0  0  0  0  0  0  0  0  0  0
  -30.2609  -17.4997   21.3121 C   0  0  0  0  0  0  0  0  0  0  0  0
  -22.5429   -8.6712   23.3771 C   0  0  0  0  0  0  0  0  0  0  0  0
  -24.9855  -25.0547   20.5342 C   0  0  0  0  0  0  0  0  0  0  0  0
  -22.0564   -6.3763   23.5148 C   0  0  0  0  0  0  0  0  0  0  0  0
  -29.8949  -19.7149   22.2042 C   0  0  0  0  0  0  0  0  0  0  0  0
  -22.4151   -3.7906   22.5312 C   0  0  0  0  0  0  0  0  0  0  0  0
  -32.1417  -18.8502   22.0017 C   0  0  0  0  0  0  0  0  0  0  0  0
  -20.9610   -5.6493   23.0487 C   0  0  0  0  0  0  0  0  0  0  0  0
  -24.6037  -11.8141   21.4346 C   0  0  0  0  0  0  0  0  0  0  0  0
  -25.1428  -13.7163   20.4722 C   0  0  0  0  0  0  0  0  0  0  0  0
  -22.7646  -13.6008   21.2333 C   0  0  0  0  0  0  0  0  0  0  0  0
  -23.6992  -30.3263   20.3950 C   0  0  0  0  0  0  0  0  0  0  0  0
  -27.9093  -22.7338   21.8438 C   0  0  0  0  0  0  0  0  0  0  0  0
  -24.8911  -30.5906   23.4003 C   0  0  0  0  0  0  0  0  0  0  0  0
  -26.3940  -29.0773   26.0645 C   0  0  0  0  0  0  0  0  0  0  0  0
  -30.5148  -15.1772   20.3697 C   0  0  0  0  0  0  0  0  0  0  0  0
  -20.5935  -33.0049   17.3557 C   0  0  0  0  0  0  0  0  0  0  0  0
  -22.5248  -28.4305   21.5707 C   0  0  0  0  0  0  0  0  0  0  0  0
  -25.4227  -28.4595   22.1588 C   0  0  0  0  0  0  0  0  0  0  0  0
  -21.5089  -33.3237   18.5350 C   0  0  0  0  0  0  0  0  0  0  0  0
  -29.6766  -11.9854   19.0329 C   0  0  0  0  0  0  0  0  0  0  0  0
  -22.8855  -32.7009   18.3258 C   0  0  0  0  0  0  0  0  0  0  0  0
  -28.2394  -11.7595   19.5079 C   0  0  0  0  0  0  0  0  0  0  0  0
  -30.5148  -12.7086   20.0857 C   0  0  0  0  0  0  0  0  0  0  0  0
  -28.4993  -13.7364   21.0608 C   0  0  0  0  0  0  0  0  0  0  0  0
  -22.7921  -31.1727   18.2383 C   0  0  1  0  0  0  0  0  0  0  0  0
  -23.3013  -29.7353   21.7179 C   0  0  1  0  0  0  0  0  0  0  0  0
  -27.5989  -13.0690   20.0084 C   0  0  2  0  0  0  0  0  0  0  0  0
  -27.4771  -18.5321   20.0560 C   0  0  0  0  0  0  0  0  0  0  0  0
  -27.2779  -29.5594   28.3631 C   0  0  0  0  0  0  0  0  0  0  0  0
  -27.3500  -31.9172   22.1739 C   0  0  0  0  0  0  0  0  0  0  0  0
  -28.5585  -31.5092   24.3283 C   0  0  0  0  0  0  0  0  0  0  0  0
  -26.5405  -32.9750   24.2906 C   0  0  0  0  0  0  0  0  0  0  0  0
  -27.2421  -25.6411   19.2723 C   0  0  0  0  0  0  0  0  0  0  0  0
  -27.5688  -23.1905   18.8683 C   0  0  0  0  0  0  0  0  0  0  0  0
  -24.4944  -27.1854   27.3179 C   0  0  0  0  0  0  0  0  0  0  0  0
  -27.9125  -18.3622   21.5073 C   0  0  0  0  0  0  0  0  0  0  0  0
  -27.9711  -24.0991   21.1674 C   0  0  0  0  0  0  0  0  0  0  0  0
  -29.2220  -21.9774   21.9142 C   0  0  0  0  0  0  0  0  0  0  0  0
  -26.2629  -30.4766   24.0202 C   0  0  1  0  0  0  0  0  0  0  0  0
  -26.0770  -29.1039   27.5488 C   0  0  2  0  0  0  0  0  0  0  0  0
  -27.1663  -31.6979   23.6889 C   0  0  0  0  0  0  0  0  0  0  0  0
  -27.1269  -24.2450   19.8903 C   0  0  0  0  0  0  0  0  0  1  0  0
  -25.8911  -11.6712   21.1089 N   0  0  0  0  0  0  0  0  0  0  0  0
  -26.1902  -12.8442   20.5252 N   0  0  0  0  0  0  0  0  0  0  0  0
  -24.5283  -29.5776   22.5015 N   0  0  0  0  0  0  0  0  0  0  0  0
  -29.8479  -13.9417   20.5092 N   0  0  0  0  0  0  0  0  0  0  0  0
  -25.2701  -14.9409   19.9186 N   0  0  0  0  0  0  0  0  0  0  0  0
  -21.7982  -12.8018   21.8593 N   0  0  0  0  0  0  0  0  0  0  0  0
  -29.7695  -16.2838   20.7754 N   0  0  0  0  0  0  0  0  0  0  0  0
  -22.6344  -30.5996   19.5578 N   0  0  0  0  0  0  0  0  0  0  0  0
  -26.0493  -30.2611   25.4472 N   0  0  0  0  0  0  0  0  0  0  0  0
  -25.6785  -27.7467   28.0178 N   0  3  0  0  0  0  0  0  0  0  0  0
  -22.4468  -14.7447   20.8282 O   0  0  0  0  0  0  0  0  0  0  0  0
  -24.8845  -30.5214   20.1524 O   0  0  0  0  0  0  0  0  0  0  0  0
  -26.8626  -22.2473   22.2681 O   0  0  0  0  0  0  0  0  0  0  0  0
  -24.1655  -31.5395   23.7079 O   0  0  0  0  0  0  0  0  0  0  0  0
  -26.9005  -28.1050   25.5089 O   0  0  0  0  0  0  0  0  0  0  0  0
  -31.6523  -15.2510   19.8978 O   0  0  0  0  0  0  0  0  0  0  0  0
  -21.8801   -7.6603   24.0026 O   0  0  0  0  0  0  0  0  0  0  0  0
  -29.0526  -20.7383   22.5694 O   0  0  0  0  0  0  0  0  0  0  0  0
  -25.7610  -23.9843   20.2105 O   0  0  0  0  0  0  0  0  0  1  0  0
  -22.5877   -2.5496   22.0575 F   0  0  0  0  0  0  0  0  0  0  0  0
  -33.4631  -19.0061   22.1567 F   0  0  0  0  0  0  0  0  0  0  0  0
  -19.7342   -6.1880   23.0698 F   0  0  0  0  0  0  0  0  0  0  0  0
  1  2  1  0  0  0  0
  1  5  2  0  0  0  0
  2  6  2  0  0  0  0
  3  8  2  0  0  0  0
  3 17  1  0  0  0  0
  4  9  1  0  0  0  0
  4 17  2  0  0  0  0
  5 19  1  0  0  0  0
  6 21  1  0  0  0  0
  7 10  2  0  0  0  0
  7 20  1  0  0  0  0
  8 25  1  0  0  0  0
  9 25  2  0  0  0  0
 10 26  1  0  0  0  0
 11 12  2  0  0  0  0
 11 27  1  0  0  0  0
 12 29  1  0  0  0  0
 13 22  1  0  0  0  0
 13 26  2  0  0  0  0
 14 24  2  0  0  0  0
 14 30  1  0  0  0  0
 15 28  1  0  0  0  0
 15 30  2  0  0  0  0
 16 29  2  0  0  0  0
 16 31  1  0  0  0  0
 17 32  1  0  0  0  0
 18 32  1  0  0  0  0
 18 33  2  0  0  0  0
 18 34  1  0  0  0  0
 19 21  2  0  0  0  0
 19 40  1  0  0  0  0
 20 22  2  0  0  0  0
 20 41  1  0  0  0  0
 21 49  1  0  0  0  0
 22 42  1  0  0  0  0
 23 24  1  0  0  0  0
 23 28  2  0  0  0  0
 23 60  1  0  0  0  0
 24 73  1  0  0  0  0
 25 83  1  0  0  0  0
 26 85  1  0  0  0  0
 27 31  2  0  0  0  0
 27 83  1  0  0  0  0
 28 84  1  0  0  0  0
 29 86  1  0  0  0  0
 30 87  1  0  0  0  0
 31 88  1  0  0  0  0
 32 67  2  0  0  0  0
 33 68  1  0  0  0  0
 33 71  1  0  0  0  0
 34 72  1  0  0  0  0
 34 77  2  0  0  0  0
 35 50  1  0  0  0  0
 35 74  1  0  0  0  0
 35 78  2  0  0  0  0
 36 61  1  0  0  0  0
 36 62  1  0  0  0  0
 36 79  2  0  0  0  0
 37 63  1  0  0  0  0
 37 69  1  0  0  0  0
 37 80  2  0  0  0  0
 38 64  1  0  0  0  0
 38 75  1  0  0  0  0
 38 81  2  0  0  0  0
 39 70  1  0  0  0  0
 39 73  1  0  0  0  0
 39 82  2  0  0  0  0
 40 43  1  0  0  0  0
 41 50  1  0  0  0  0
 42 69  1  0  0  0  0
 43 45  1  0  0  0  0
 44 46  1  0  0  0  0
 44 47  1  0  0  0  0
 45 49  1  0  0  0  0
 46 51  1  0  0  0  0
 47 70  1  0  0  0  0
 48 51  1  0  0  0  0
 48 70  1  0  0  0  0
 49 74  1  0  0  0  0
 50 69  1  0  0  0  0
 51 68  1  0  0  0  0
 52 60  1  0  0  0  0
 53 64  1  0  0  0  0
 54 65  1  0  0  0  0
 55 65  1  0  0  0  0
 56 65  1  0  0  0  0
 57 66  1  0  0  0  0
 58 66  1  0  0  0  0
 59 76  1  0  0  0  0
 61 66  1  0  0  0  0
 62 84  1  0  0  0  0
 63 65  1  0  0  0  0
 63 75  1  0  0  0  0
 64 76  1  0  0  0  0
 66 85  1  0  0  0  0
 67 68  1  0  0  0  0
M  CHG  1  76   1
M  ISO  4  39 100  66 101  73 100  85 101
M  END
> <Batch ID>
0138

> <Smiles>
CCc1c([100NH:0][100C:0](=O)N2CCCC(n3nc(-c4ccc(Oc5ccc(F)cc5F)cc4)c(C(N)=O)c3N)C2)cc(F)cc1OCC(=O)C[101C:1](C)(C)[101O:1]c1ccc2c(c1)CN(C(=O)C(NC(=O)C(C)NC)C(C)(C)C)C(C(=O)NC1CCCc3ccccc31)C2

> <Shape>
0.283

> <Color>
0.150

> <Negative vol penalty>
0.000

$$$$

  -OEChem-04052302453D

 88 97  0     1  0  0  0  0  0999 V2000
  -38.7380  -23.4124   36.4215 C   0  0  0  0  0  0  0  0  0  0  0  0
  -37.9468  -22.5603   35.6577 C   0  0  0  0  0  0  0  0  0  0  0  0
  -23.0756   -9.8678   19.9406 C   0  0  0  0  0  0  0  0  0  0  0  0
  -23.8346   -9.8744   22.2342 C   0  0  0  0  0  0  0  0  0  0  0  0
  -39.0686  -24.6769   35.9360 C   0  0  0  0  0  0  0  0  0  0  0  0
  -37.4850  -22.9727   34.4083 C   0  0  0  0  0  0  0  0  0  0  0  0
  -36.6637  -19.4747   29.4488 C   0  0  0  0  0  0  0  0  0  0  0  0
  -31.3181  -19.0816   20.6078 C   0  0  0  0  0  0  0  0  0  0  0  0
  -31.1517  -17.6967   20.6012 C   0  0  0  0  0  0  0  0  0  0  0  0
  -22.3314   -8.7148   20.1901 C   0  0  0  0  0  0  0  0  0  0  0  0
  -23.0904   -8.7214   22.4838 C   0  0  0  0  0  0  0  0  0  0  0  0
  -35.5308  -18.8733   28.9024 C   0  0  0  0  0  0  0  0  0  0  0  0
  -19.8619   -7.9242   23.0851 C   0  0  0  0  0  0  0  0  0  0  0  0
  -19.1044   -7.8843   24.2556 C   0  0  0  0  0  0  0  0  0  0  0  0
  -35.2682  -20.7443   27.4026 C   0  0  0  0  0  0  0  0  0  0  0  0
  -29.5184  -17.8845   22.3716 C   0  0  0  0  0  0  0  0  0  0  0  0
  -20.3452   -5.9466   24.9924 C   0  0  0  0  0  0  0  0  0  0  0  0
  -23.8273  -10.4476   20.9626 C   0  0  0  0  0  0  0  0  0  0  0  0
  -24.1697  -12.9727   20.8429 C   0  0  0  0  0  0  0  0  0  0  0  0
  -38.6186  -25.1012   34.6758 C   0  0  0  0  0  0  0  0  0  0  0  0
  -37.1018  -20.7227   28.9829 C   0  0  0  0  0  0  0  0  0  0  0  0
  -37.8088  -24.2445   33.9060 C   0  0  0  0  0  0  0  0  0  0  0  0
  -36.4084  -21.3583   27.9430 C   0  0  0  0  0  0  0  0  0  0  0  0
  -30.5847  -19.8679   21.4964 C   0  0  0  0  0  0  0  0  0  0  0  0
  -29.6848  -19.2694   22.3782 C   0  0  0  0  0  0  0  0  0  0  0  0
  -30.2518  -17.0982   21.4830 C   0  0  0  0  0  0  0  0  0  0  0  0
  -22.3388   -8.1416   21.4618 C   0  0  0  0  0  0  0  0  0  0  0  0
  -34.8312  -19.5094   27.8811 C   0  0  0  0  0  0  0  0  0  0  0  0
  -20.8609   -6.9752   22.8681 C   0  0  0  0  0  0  0  0  0  0  0  0
  -19.3461   -6.8955   25.2093 C   0  0  0  0  0  0  0  0  0  0  0  0
  -21.1026   -5.9864   23.8218 C   0  0  0  0  0  0  0  0  0  0  0  0
  -24.5967  -11.6383   20.7052 C   0  0  0  0  0  0  0  0  0  0  0  0
  -25.2621  -13.7220   20.4801 C   0  0  0  0  0  0  0  0  0  0  0  0
  -30.4002  -20.0784   26.7196 C   0  0  0  0  0  0  0  0  0  0  0  0
  -30.8921  -19.4434   27.7876 C   0  0  0  0  0  0  0  0  0  0  0  0
  -22.8991  -13.4887   21.2614 C   0  0  0  0  0  0  0  0  0  0  0  0
  -37.4698  -23.5996   30.2836 C   0  0  0  0  0  0  0  0  0  0  0  0
  -38.7885  -24.3035   27.4047 C   0  0  0  0  0  0  0  0  0  0  0  0
  -39.0389  -23.5819   24.0785 C   0  0  0  0  0  0  0  0  0  0  0  0
  -30.7285  -14.7665   20.6570 C   0  0  0  0  0  0  0  0  0  0  0  0
  -38.9627  -26.4950   34.2136 C   0  0  0  0  0  0  0  0  0  0  0  0
  -38.3411  -21.3458   29.5645 C   0  0  0  0  0  0  0  0  0  0  0  0
  -36.8493  -22.6895   27.3934 C   0  0  0  0  0  0  0  0  0  0  0  0
  -29.7843  -21.4458   26.7271 C   0  0  0  0  0  0  0  0  0  0  0  0
  -30.3243  -19.5095   25.3386 C   0  0  0  0  0  0  0  0  0  0  0  0
  -38.7440  -26.7123   32.7186 C   0  0  0  0  0  0  0  0  0  0  0  0
  -29.6145  -12.3531   18.2881 C   0  0  0  0  0  0  0  0  0  0  0  0
  -37.3887  -26.1580   32.2911 C   0  0  0  0  0  0  0  0  0  0  0  0
  -28.1746  -12.0617   18.7171 C   0  0  0  0  0  0  0  0  0  0  0  0
  -30.5292  -12.5816   19.4901 C   0  0  0  0  0  0  0  0  0  0  0  0
  -28.6218  -13.3063   20.8707 C   0  0  0  0  0  0  0  0  0  0  0  0
  -28.9196  -21.4515   25.4735 C   0  0  0  0  0  0  0  0  0  0  0  0
  -37.3092  -24.6462   32.5352 C   0  0  1  0  0  0  0  0  0  0  0  0
  -38.3996  -22.8572   29.3659 C   0  0  1  0  0  0  0  0  0  0  0  0
  -27.6494  -13.1333   19.6925 C   0  0  2  0  0  0  0  0  0  0  0  0
  -32.0706  -21.7666   22.1846 C   0  0  0  0  0  0  0  0  0  0  0  0
  -40.1661  -24.3559   21.9743 C   0  0  0  0  0  0  0  0  0  0  0  0
  -36.8398  -26.6445   27.2249 C   0  0  0  0  0  0  0  0  0  0  0  0
  -37.3393  -26.7817   24.7754 C   0  0  0  0  0  0  0  0  0  0  0  0
  -39.1589  -27.1550   26.4404 C   0  0  0  0  0  0  0  0  0  0  0  0
  -40.4374  -20.9958   23.7384 C   0  0  0  0  0  0  0  0  0  0  0  0
  -30.7805  -21.3485   21.4856 C   0  0  0  0  0  0  0  0  0  0  0  0
  -28.8838  -20.0951   23.3413 C   0  0  0  0  0  0  0  0  0  0  0  0
  -31.5027  -18.0720   27.7429 C   0  0  0  0  0  0  0  0  0  0  0  0
  -32.9550  -18.0844   28.2052 C   0  0  0  0  0  0  0  0  0  1  0  0
  -38.2641  -24.8172   26.0855 C   0  0  1  0  0  0  0  0  0  0  0  0
  -40.2450  -23.4206   23.1708 C   0  0  2  0  0  0  0  0  0  0  0  0
  -37.8908  -26.3254   26.1430 C   0  0  0  0  0  0  0  0  0  0  0  0
  -25.8617  -11.5423   20.2874 N   0  0  0  0  0  0  0  0  0  0  0  0
  -26.2389  -12.8258   20.1594 N   0  0  0  0  0  0  0  0  0  0  0  0
  -38.0633  -23.2612   27.9992 N   0  0  0  0  0  0  0  0  0  0  0  0
  -29.9701  -13.6125   20.3674 N   0  0  0  0  0  0  0  0  0  0  0  0
  -25.4728  -15.0534   20.4073 N   0  0  0  0  0  0  0  0  0  0  0  0
  -21.8869  -12.5797   21.5982 N   0  0  0  0  0  0  0  0  0  0  0  0
  -30.0810  -15.6916   21.4752 N   0  0  0  0  0  0  0  0  0  0  0  0
  -38.0281  -23.9292   31.5039 N   0  0  0  0  0  0  0  0  0  0  0  0
  -39.2775  -24.4901   25.0882 N   0  0  0  0  0  0  0  0  0  0  0  0
  -29.6886  -20.5919   24.4957 N   0  3  2  0  0  0  0  0  0  0  0  0
  -40.3312  -22.0204   22.6679 N   0  3  0  0  0  0  0  0  0  0  0  0
  -22.6631  -14.7194   21.3187 O   0  0  0  0  0  0  0  0  0  0  0  0
  -36.3307  -23.8558   29.9114 O   0  0  0  0  0  0  0  0  0  0  0  0
  -39.8081  -24.8036   27.8862 O   0  0  0  0  0  0  0  0  0  0  0  0
  -37.9889  -22.9667   23.9067 O   0  0  0  0  0  0  0  0  0  0  0  0
  -31.8578  -14.9350   20.1898 O   0  0  0  0  0  0  0  0  0  0  0  0
  -21.6125   -7.0166   21.7057 O   0  0  0  0  0  0  0  0  0  0  0  0
  -33.7248  -18.9248   27.3464 O   0  0  0  0  0  0  0  0  0  1  0  0
  -18.6197   -6.8583   26.3341 F   0  0  0  0  0  0  0  0  0  0  0  0
  -22.0618   -5.0728   23.6194 F   0  0  0  0  0  0  0  0  0  0  0  0
  1  2  1  0  0  0  0
  1  5  2  0  0  0  0
  2  6  2  0  0  0  0
  3 10  2  0  0  0  0
  3 18  1  0  0  0  0
  4 11  1  0  0  0  0
  4 18  2  0  0  0  0
  5 20  1  0  0  0  0
  6 22  1  0  0  0  0
  7 12  2  0  0  0  0
  7 21  1  0  0  0  0
  8  9  2  0  0  0  0
  8 24  1  0  0  0  0
  9 26  1  0  0  0  0
 10 27  1  0  0  0  0
 11 27  2  0  0  0  0
 12 28  1  0  0  0  0
 13 14  2  0  0  0  0
 13 29  1  0  0  0  0
 14 30  1  0  0  0  0
 15 23  1  0  0  0  0
 15 28  2  0  0  0  0
 16 25  1  0  0  0  0
 16 26  2  0  0  0  0
 17 30  2  0  0  0  0
 17 31  1  0  0  0  0
 18 32  1  0  0  0  0
 19 32  1  0  0  0  0
 19 33  2  0  0  0  0
 19 36  1  0  0  0  0
 20 22  2  0  0  0  0
 20 41  1  0  0  0  0
 21 23  2  0  0  0  0
 21 42  1  0  0  0  0
 22 53  1  0  0  0  0
 23 43  1  0  0  0  0
 24 25  2  0  0  0  0
 24 62  1  0  0  0  0
 25 63  1  0  0  0  0
 26 75  1  0  0  0  0
 27 85  1  0  0  0  0
 28 86  1  0  0  0  0
 29 31  2  0  0  0  0
 29 85  1  0  0  0  0
 30 87  1  0  0  0  0
 31 88  1  0  0  0  0
 32 69  2  0  0  0  0
 33 70  1  0  0  0  0
 33 73  1  0  0  0  0
 34 35  2  0  0  0  0
 34 44  1  0  0  0  0
 34 45  1  0  0  0  0
 35 64  1  0  0  0  0
 36 74  1  0  0  0  0
 36 80  2  0  0  0  0
 37 54  1  0  0  0  0
 37 76  1  0  0  0  0
 37 81  2  0  0  0  0
 38 66  1  0  0  0  0
 38 71  1  0  0  0  0
 38 82  2  0  0  0  0
 39 67  1  0  0  0  0
 39 77  1  0  0  0  0
 39 83  2  0  0  0  0
 40 72  1  0  0  0  0
 40 75  1  0  0  0  0
 40 84  2  0  0  0  0
 41 46  1  0  0  0  0
 42 54  1  0  0  0  0
 43 71  1  0  0  0  0
 44 52  1  0  0  0  0
 45 78  1  0  0  0  0
 46 48  1  0  0  0  0
 47 49  1  0  0  0  0
 47 50  1  0  0  0  0
 48 53  1  0  0  0  0
 49 55  1  0  0  0  0
 50 72  1  0  0  0  0
 51 55  1  0  0  0  0
 51 72  1  0  0  0  0
 52 78  1  0  0  0  0
 53 76  1  0  0  0  0
 54 71  1  0  0  0  0
 55 70  1  0  0  0  0
 56 62  1  0  0  0  0
 57 67  1  0  0  0  0
 58 68  1  0  0  0  0
 59 68  1  0  0  0  0
 60 68  1  0  0  0  0
 61 79  1  0  0  0  0
 63 78  1  0  0  0  0
 64 65  1  0  0  0  0
 65 86  1  0  0  0  0
 66 68  1  0  0  0  0
 66 77  1  0  0  0  0
 67 79  1  0  0  0  0
 69 70  1  0  0  0  0
M  CHG  2  78   1  79   1
M  ISO  4  40 100  65 101  75 100  86 101
M  END
> <Batch ID>
0138

> <Smiles>
CCc1ccc([100NH:0][100C:0](=O)N2CCCC(n3nc(-c4ccc(Oc5ccc(F)cc5F)cc4)c(C(N)=O)c3N)C2)cc1CN1CCC(=CC[101CH2:1][101O:1]c2ccc3c(c2)CN(C(=O)C(NC(=O)C(C)NC)C(C)(C)C)C(C(=O)NC2CCCc4ccccc42)C3)C1

> <Shape>
0.174

> <Color>
0.184

> <Negative vol penalty>
0.000

$$$$

  -OEChem-04052302453D

 81 90  0     1  0  0  0  0  0999 V2000
  -32.1698  -27.1705   14.8354 C   0  0  0  0  0  0  0  0  0  0  0  0
  -31.4402  -26.3424   15.6823 C   0  0  0  0  0  0  0  0  0  0  0  0
  -23.9757   -9.9546   21.9732 C   0  0  0  0  0  0  0  0  0  0  0  0
  -24.3583  -11.2752   23.9599 C   0  0  0  0  0  0  0  0  0  0  0  0
  -32.5081  -28.4598   15.2443 C   0  0  0  0  0  0  0  0  0  0  0  0
  -31.0494  -26.8027   16.9392 C   0  0  0  0  0  0  0  0  0  0  0  0
  -26.2295  -25.6757   18.0086 C   0  0  0  0  0  0  0  0  0  0  0  0
  -23.4514   -8.9270   22.7572 C   0  0  0  0  0  0  0  0  0  0  0  0
  -23.8339  -10.2476   24.7439 C   0  0  0  0  0  0  0  0  0  0  0  0
  -25.9551  -24.3690   18.4098 C   0  0  0  0  0  0  0  0  0  0  0  0
  -20.5387   -8.2295   24.3265 C   0  0  0  0  0  0  0  0  0  0  0  0
  -19.3582   -7.6238   23.8962 C   0  0  0  0  0  0  0  0  0  0  0  0
  -25.9096  -25.0916   20.7109 C   0  0  0  0  0  0  0  0  0  0  0  0
  -20.4953   -5.4956   23.7727 C   0  0  0  0  0  0  0  0  0  0  0  0
  -30.0617  -18.8956   18.7611 C   0  0  0  0  0  0  0  0  0  0  0  0
  -24.4293  -11.1287   22.5745 C   0  0  0  0  0  0  0  0  0  0  0  0
  -24.2672  -13.2637   21.1877 C   0  0  0  0  0  0  0  0  0  0  0  0
  -32.1129  -28.9396   16.5030 C   0  0  0  0  0  0  0  0  0  0  0  0
  -26.3571  -26.6999   18.9579 C   0  0  0  0  0  0  0  0  0  0  0  0
  -31.3839  -28.0992   17.3659 C   0  0  0  0  0  0  0  0  0  0  0  0
  -26.1831  -26.4109   20.3189 C   0  0  0  0  0  0  0  0  0  0  0  0
  -28.2341  -19.5587   20.0424 C   0  0  0  0  0  0  0  0  0  0  0  0
  -29.2167  -18.5536   19.7946 C   0  0  0  0  0  0  0  0  0  0  0  0
  -23.3804   -9.0735   24.1425 C   0  0  0  0  0  0  0  0  0  0  0  0
  -25.7980  -24.0762   19.7614 C   0  0  0  0  0  0  0  0  0  0  0  0
  -21.6975   -7.4684   24.4798 C   0  0  0  0  0  0  0  0  0  0  0  0
  -19.3365   -6.2568   23.6194 C   0  0  0  0  0  0  0  0  0  0  0  0
  -21.6758   -6.1014   24.2030 C   0  0  0  0  0  0  0  0  0  0  0  0
  -24.9716  -12.1903   21.7653 C   0  0  0  0  0  0  0  0  0  0  0  0
  -28.3825  -20.6305   19.1829 C   0  0  0  0  0  0  0  0  0  0  0  0
  -25.2275  -13.9867   20.5232 C   0  0  0  0  0  0  0  0  0  0  0  0
  -22.8698  -13.5790   21.2467 C   0  0  0  0  0  0  0  0  0  0  0  0
  -28.6953  -28.6658   19.8363 C   0  0  0  0  0  0  0  0  0  0  0  0
  -26.3698  -29.9821   21.6753 C   0  0  0  0  0  0  0  0  0  0  0  0
  -23.3876  -29.5981   23.2895 C   0  0  0  0  0  0  0  0  0  0  0  0
  -30.2763  -16.3233   20.2939 C   0  0  0  0  0  0  0  0  0  0  0  0
  -32.5427  -30.3239   16.9199 C   0  0  0  0  0  0  0  0  0  0  0  0
  -26.6268  -28.1092   18.5068 C   0  0  0  0  0  0  0  0  0  0  0  0
  -27.1765  -19.5235   21.1004 C   0  0  0  0  0  0  0  0  0  0  0  0
  -26.2901  -27.4782   21.3762 C   0  0  0  0  0  0  0  0  0  0  0  0
  -27.5085  -21.8463   19.1548 C   0  0  0  0  0  0  0  0  0  0  0  0
  -31.7682  -30.8671   18.1179 C   0  0  0  0  0  0  0  0  0  0  0  0
  -26.0890  -20.5782   20.8499 C   0  0  0  0  0  0  0  0  0  0  0  0
  -30.0496  -12.8678   19.4661 C   0  0  0  0  0  0  0  0  0  0  0  0
  -31.6756  -29.8128   19.2164 C   0  0  0  0  0  0  0  0  0  0  0  0
  -28.6503  -12.4718   19.9429 C   0  0  0  0  0  0  0  0  0  0  0  0
  -30.7044  -13.8781   20.4064 C   0  0  0  0  0  0  0  0  0  0  0  0
  -28.5018  -14.6783   21.1661 C   0  0  0  0  0  0  0  0  0  0  0  0
  -30.9204  -28.5711   18.7270 C   0  0  1  0  0  0  0  0  0  0  0  0
  -27.2449  -28.9778   19.5980 C   0  0  1  0  0  0  0  0  0  0  0  0
  -27.7762  -13.7115   20.2161 C   0  0  2  0  0  0  0  0  0  0  0  0
  -26.6530  -21.9581   20.4396 C   0  0  1  0  0  0  0  0  0  1  0  0
  -27.4379  -22.6087   21.5848 C   0  0  0  0  0  0  0  0  0  0  0  0
  -21.7586  -30.8391   24.7400 C   0  0  0  0  0  0  0  0  0  0  0  0
  -28.2368  -29.6364   24.0638 C   0  0  0  0  0  0  0  0  0  0  0  0
  -26.2649  -29.9839   25.5668 C   0  0  0  0  0  0  0  0  0  0  0  0
  -26.9883  -31.8029   24.0206 C   0  0  0  0  0  0  0  0  0  0  0  0
  -21.2204  -29.3201   21.2934 C   0  0  0  0  0  0  0  0  0  0  0  0
  -25.8544  -29.7505   23.0752 C   0  0  1  0  0  0  0  0  0  0  0  0
  -22.1386  -30.4606   23.3169 C   0  0  2  0  0  0  0  0  0  0  0  0
  -26.8359  -30.2727   24.1621 C   0  0  0  0  0  0  0  0  0  0  0  0
  -26.2785  -12.2244   21.4916 N   0  0  0  0  0  0  0  0  0  0  0  0
  -26.4029  -13.3279   20.7346 N   0  0  0  0  0  0  0  0  0  0  0  0
  -26.5613  -28.8396   20.8856 N   0  0  0  0  0  0  0  0  0  0  0  0
  -29.8208  -15.0271   20.6153 N   0  0  0  0  0  0  0  0  0  0  0  0
  -25.1727  -15.1153   19.7845 N   0  0  0  0  0  0  0  0  0  0  0  0
  -22.0234  -12.7302   21.9729 N   0  0  0  0  0  0  0  0  0  0  0  0
  -29.3376  -17.3329   20.5039 N   0  0  0  0  0  0  0  0  0  0  0  0
  -29.4943  -28.8174   18.7192 N   0  0  0  0  0  0  0  0  0  0  0  0
  -24.5281  -30.3559   23.1273 N   0  0  0  0  0  0  0  0  0  0  0  0
  -20.9928  -29.7324   22.7023 N   0  3  0  0  0  0  0  0  0  0  0  0
  -22.3834  -14.5746   20.6587 O   0  0  0  0  0  0  0  0  0  0  0  0
  -29.0625  -28.3150   20.9516 O   0  0  0  0  0  0  0  0  0  0  0  0
  -26.5875  -31.1349   21.2941 O   0  0  0  0  0  0  0  0  0  0  0  0
  -23.3550  -28.3749   23.4046 O   0  0  0  0  0  0  0  0  0  0  0  0
  -31.4059  -16.5198   19.8385 O   0  0  0  0  0  0  0  0  0  0  0  0
  -22.8685   -8.0711   24.9078 O   0  0  0  0  0  0  0  0  0  0  0  0
  -25.5308  -22.8015   20.1558 O   0  0  0  0  0  0  0  0  0  1  0  0
  -18.2024   -5.6750   23.2077 F   0  0  0  0  0  0  0  0  0  0  0  0
  -22.7856   -5.3648   24.3495 F   0  0  0  0  0  0  0  0  0  0  0  0
  -29.6741  -20.4231   18.0922 S   0  0  0  0  0  0  0  0  0  0  0  0
  1  2  1  0  0  0  0
  1  5  2  0  0  0  0
  2  6  2  0  0  0  0
  3  8  2  0  0  0  0
  3 16  1  0  0  0  0
  4  9  1  0  0  0  0
  4 16  2  0  0  0  0
  5 18  1  0  0  0  0
  6 20  1  0  0  0  0
  7 10  2  0  0  0  0
  7 19  1  0  0  0  0
  8 24  1  0  0  0  0
  9 24  2  0  0  0  0
 10 25  1  0  0  0  0
 11 12  2  0  0  0  0
 11 26  1  0  0  0  0
 12 27  1  0  0  0  0
 13 21  1  0  0  0  0
 13 25  2  0  0  0  0
 14 27  2  0  0  0  0
 14 28  1  0  0  0  0
 15 23  2  0  0  0  0
 15 81  1  0  0  0  0
 16 29  1  0  0  0  0
 17 29  1  0  0  0  0
 17 31  2  0  0  0  0
 17 32  1  0  0  0  0
 18 20  2  0  0  0  0
 18 37  1  0  0  0  0
 19 21  2  0  0  0  0
 19 38  1  0  0  0  0
 20 49  1  0  0  0  0
 21 40  1  0  0  0  0
 22 23  1  0  0  0  0
 22 30  2  0  0  0  0
 22 39  1  0  0  0  0
 23 68  1  0  0  0  0
 24 77  1  0  0  0  0
 25 78  1  0  0  0  0
 26 28  2  0  0  0  0
 26 77  1  0  0  0  0
 27 79  1  0  0  0  0
 28 80  1  0  0  0  0
 29 62  2  0  0  0  0
 30 41  1  0  0  0  0
 30 81  1  0  0  0  0
 31 63  1  0  0  0  0
 31 66  1  0  0  0  0
 32 67  1  0  0  0  0
 32 72  2  0  0  0  0
 33 50  1  0  0  0  0
 33 69  1  0  0  0  0
 33 73  2  0  0  0  0
 34 59  1  0  0  0  0
 34 64  1  0  0  0  0
 34 74  2  0  0  0  0
 35 60  1  0  0  0  0
 35 70  1  0  0  0  0
 35 75  2  0  0  0  0
 36 65  1  0  0  0  0
 36 68  1  0  0  0  0
 36 76  2  0  0  0  0
 37 42  1  0  0  0  0
 38 50  1  0  0  0  0
 39 43  1  0  0  0  0
 40 64  1  0  0  0  0
 41 52  1  0  0  0  0
 42 45  1  0  0  0  0
 43 52  1  0  0  0  0
 44 46  1  0  0  0  0
 44 47  1  0  0  0  0
 45 49  1  0  0  0  0
 46 51  1  0  0  0  0
 47 65  1  0  0  0  0
 48 51  1  0  0  0  0
 48 65  1  0  0  0  0
 49 69  1  0  0  0  0
 50 64  1  0  0  0  0
 51 63  1  0  0  0  0
 52 53  1  0  0  0  0
 52 78  1  0  0  0  0
 54 60  1  0  0  0  0
 55 61  1  0  0  0  0
 56 61  1  0  0  0  0
 57 61  1  0  0  0  0
 58 71  1  0  0  0  0
 59 61  1  0  0  0  0
 59 70  1  0  0  0  0
 60 71  1  0  0  0  0
 62 63  1  0  0  0  0
M  CHG  1  71   1
M  ISO  4  36 100  52 101  68 100  78 101
M  END
> <Batch ID>
0138

> <Smiles>
CNC(C)C(=O)NC(C(=O)N1Cc2cc([101O:1][101C:1]3(C)CCc4c([100NH:0][100C:0](=O)N5CCCC(n6nc(-c7ccc(Oc8ccc(F)cc8F)cc7)c(C(N)=O)c6N)C5)csc4C3)ccc2CC1C(=O)NC1CCCc2ccccc21)C(C)(C)C

> <Shape>
0.280

> <Color>
0.140

> <Negative vol penalty>
0.000

$$$$

  -OEChem-04052302453D

 86 95  0     1  0  0  0  0  0999 V2000
  -29.4023  -37.3019   23.1099 C   0  0  0  0  0  0  0  0  0  0  0  0
  -29.7046  -36.0674   22.5441 C   0  0  0  0  0  0  0  0  0  0  0  0
  -30.8408  -18.3112   21.3195 C   0  0  0  0  0  0  0  0  0  0  0  0
  -22.8119   -9.7182   23.5394 C   0  0  0  0  0  0  0  0  0  0  0  0
  -24.0482   -9.7822   21.4647 C   0  0  0  0  0  0  0  0  0  0  0  0
  -30.7389  -19.5094   20.6128 C   0  0  0  0  0  0  0  0  0  0  0  0
  -28.4084  -37.3968   24.0830 C   0  0  0  0  0  0  0  0  0  0  0  0
  -29.0139  -34.9268   22.9521 C   0  0  0  0  0  0  0  0  0  0  0  0
  -27.4580  -30.1268   19.4814 C   0  0  0  0  0  0  0  0  0  0  0  0
  -29.6948  -17.7067   21.8362 C   0  0  0  0  0  0  0  0  0  0  0  0
  -22.1540   -8.5650   23.1119 C   0  0  0  0  0  0  0  0  0  0  0  0
  -23.3903   -8.6289   21.0371 C   0  0  0  0  0  0  0  0  0  0  0  0
  -28.0379  -28.8717   19.3022 C   0  0  0  0  0  0  0  0  0  0  0  0
  -22.8185   -5.2575   22.8841 C   0  0  0  0  0  0  0  0  0  0  0  0
  -22.6949   -4.2069   23.7932 C   0  0  0  0  0  0  0  0  0  0  0  0
  -28.3451  -19.4987   20.9396 C   0  0  0  0  0  0  0  0  0  0  0  0
  -26.5269  -27.9466   20.9394 C   0  0  0  0  0  0  0  0  0  0  0  0
  -20.2887   -4.3460   23.6268 C   0  0  0  0  0  0  0  0  0  0  0  0
  -23.7590  -10.3269   22.7158 C   0  0  0  0  0  0  0  0  0  0  0  0
  -29.4911  -20.1032   20.4228 C   0  0  0  0  0  0  0  0  0  0  0  0
  -25.6454  -11.5914   23.8778 C   0  0  0  0  0  0  0  0  0  0  0  0
  -27.6984  -36.2584   24.4961 C   0  0  0  0  0  0  0  0  0  0  0  0
  -26.4137  -30.3038   20.4005 C   0  0  0  0  0  0  0  0  0  0  0  0
  -28.0105  -35.0064   23.9326 C   0  0  0  0  0  0  0  0  0  0  0  0
  -25.9338  -29.2045   21.1265 C   0  0  0  0  0  0  0  0  0  0  0  0
  -28.4470  -18.3005   21.6463 C   0  0  0  0  0  0  0  0  0  0  0  0
  -22.4432   -8.0203   21.8607 C   0  0  0  0  0  0  0  0  0  0  0  0
  -27.5743  -27.7819   20.0334 C   0  0  0  0  0  0  0  0  0  0  0  0
  -21.6772   -5.8525   22.3464 C   0  0  0  0  0  0  0  0  0  0  0  0
  -21.4300   -3.7511   24.1646 C   0  0  0  0  0  0  0  0  0  0  0  0
  -20.4123   -5.3967   22.7177 C   0  0  0  0  0  0  0  0  0  0  0  0
  -24.4385  -11.5185   23.1567 C   0  0  0  0  0  0  0  0  0  0  0  0
  -25.8629  -12.9368   24.0480 C   0  0  0  0  0  0  0  0  0  0  0  0
  -29.3036  -24.7550   20.8895 C   0  0  0  0  0  0  0  0  0  0  0  0
  -28.7199  -25.9570   20.9433 C   0  0  0  0  0  0  0  0  0  1  0  0
  -29.3825  -21.3690   19.6757 C   0  0  0  0  0  0  0  0  0  0  0  0
  -26.4939  -10.5372   24.3514 C   0  0  0  0  0  0  0  0  0  0  0  0
  -26.0209  -32.0217   23.0459 C   0  0  0  0  0  0  0  0  0  0  0  0
  -22.9771  -30.9185   22.8437 C   0  0  0  0  0  0  0  0  0  0  0  0
  -20.8335  -28.5244   21.6948 C   0  0  0  0  0  0  0  0  0  0  0  0
  -25.9693  -18.1418   22.0733 C   0  0  0  0  0  0  0  0  0  0  0  0
  -26.6652  -36.4028   25.5853 C   0  0  0  0  0  0  0  0  0  0  0  0
  -25.7810  -31.6587   20.5626 C   0  0  0  0  0  0  0  0  0  0  0  0
  -24.8015  -29.3375   22.1108 C   0  0  0  0  0  0  0  0  0  0  0  0
  -29.9526  -24.0606   22.0506 C   0  0  0  0  0  0  0  0  0  0  0  0
  -25.7217  -35.2075   25.6922 C   0  0  0  0  0  0  0  0  0  0  0  0
  -22.8283  -16.8978   23.1974 C   0  0  0  0  0  0  0  0  0  0  0  0
  -26.5086  -33.9013   25.6557 C   0  0  0  0  0  0  0  0  0  0  0  0
  -23.0665  -15.3934   23.3463 C   0  0  0  0  0  0  0  0  0  0  0  0
  -29.6657  -22.5883   21.7857 C   0  0  0  0  0  0  0  0  0  0  0  0
  -23.5769  -17.4744   21.9970 C   0  0  0  0  0  0  0  0  0  0  0  0
  -25.2525  -15.6719   22.1090 C   0  0  0  0  0  0  0  0  0  0  0  0
  -27.2662  -33.7504   24.3311 C   0  0  1  0  0  0  0  0  0  0  0  0
  -29.2981  -23.8425   19.6926 C   0  0  1  0  0  0  0  0  0  0  0  0
  -25.0678  -31.8289   21.9004 C   0  0  1  0  0  0  0  0  0  0  0  0
  -24.5708  -15.0579   23.3427 C   0  0  2  0  0  0  0  0  0  0  0  0
  -30.4625  -24.1162   18.7519 C   0  0  0  0  0  0  0  0  0  0  0  0
  -18.4102  -27.8732   21.7218 C   0  0  0  0  0  0  0  0  0  0  0  0
  -23.2769  -29.9318   25.7154 C   0  0  0  0  0  0  0  0  0  0  0  0
  -21.2550  -28.4986   25.3602 C   0  0  0  0  0  0  0  0  0  0  0  0
  -21.0663  -30.9807   25.1981 C   0  0  0  0  0  0  0  0  0  0  0  0
  -20.6271  -28.7245   18.7492 C   0  0  0  0  0  0  0  0  0  0  0  0
  -22.2435  -29.7045   23.3603 C   0  0  1  0  0  0  0  0  0  0  0  0
  -19.5003  -28.6272   20.9762 C   0  0  2  0  0  0  0  0  0  0  0  0
  -21.9830  -29.7764   24.8914 C   0  0  0  0  0  0  0  0  0  0  0  0
  -23.9253  -12.7218   22.8874 N   0  0  0  0  0  0  0  0  0  0  0  0
  -24.8139  -13.5636   23.4423 N   0  0  0  0  0  0  0  0  0  0  0  0
  -29.4661  -22.5171   20.3270 N   0  0  0  0  0  0  0  0  0  0  0  0
  -24.2199  -30.6839   22.2385 N   0  0  0  0  0  0  0  0  0  0  0  0
  -24.9964  -17.1200   22.0633 N   0  0  0  0  0  0  0  0  0  0  0  0
  -26.8473  -13.6330   24.6552 N   0  0  0  0  0  0  0  0  0  0  0  0
  -26.1219   -9.2115   24.0898 N   0  0  0  0  0  0  0  0  0  0  0  0
  -27.2834  -17.6857   22.1716 N   0  0  0  0  0  0  0  0  0  0  0  0
  -26.3638  -33.3403   23.2766 N   0  0  0  0  0  0  0  0  0  0  0  0
  -21.0339  -29.5845   22.5534 N   0  0  0  0  0  0  0  0  0  0  0  0
  -29.2039  -21.3369   18.3584 N   0  3  0  0  0  0  0  0  0  0  0  0
  -19.6076  -28.0609   19.6019 N   0  3  0  0  0  0  0  0  0  0  0  0
  -27.5422  -10.7636   25.0021 O   0  0  0  0  0  0  0  0  0  0  0  0
  -26.4148  -31.0465   23.6748 O   0  0  0  0  0  0  0  0  0  0  0  0
  -22.4631  -32.0332   22.9661 O   0  0  0  0  0  0  0  0  0  0  0  0
  -21.6170  -27.5947   21.5153 O   0  0  0  0  0  0  0  0  0  0  0  0
  -25.6581  -19.3347   22.0274 O   0  0  0  0  0  0  0  0  0  0  0  0
  -21.8016   -6.8949   21.4433 O   0  0  0  0  0  0  0  0  0  0  0  0
  -28.1389  -26.5558   19.8609 O   0  0  0  0  0  0  0  0  0  1  0  0
  -21.3115   -2.7412   25.0365 F   0  0  0  0  0  0  0  0  0  0  0  0
  -19.3122   -5.9635   22.2036 F   0  0  0  0  0  0  0  0  0  0  0  0
  1  2  1  0  0  0  0
  1  7  2  0  0  0  0
  2  8  2  0  0  0  0
  3  6  2  0  0  0  0
  3 10  1  0  0  0  0
  4 11  2  0  0  0  0
  4 19  1  0  0  0  0
  5 12  1  0  0  0  0
  5 19  2  0  0  0  0
  6 20  1  0  0  0  0
  7 22  1  0  0  0  0
  8 24  1  0  0  0  0
  9 13  2  0  0  0  0
  9 23  1  0  0  0  0
 10 26  2  0  0  0  0
 11 27  1  0  0  0  0
 12 27  2  0  0  0  0
 13 28  1  0  0  0  0
 14 15  2  0  0  0  0
 14 29  1  0  0  0  0
 15 30  1  0  0  0  0
 16 20  2  0  0  0  0
 16 26  1  0  0  0  0
 17 25  1  0  0  0  0
 17 28  2  0  0  0  0
 18 30  2  0  0  0  0
 18 31  1  0  0  0  0
 19 32  1  0  0  0  0
 20 36  1  0  0  0  0
 21 32  1  0  0  0  0
 21 33  2  0  0  0  0
 21 37  1  0  0  0  0
 22 24  2  0  0  0  0
 22 42  1  0  0  0  0
 23 25  2  0  0  0  0
 23 43  1  0  0  0  0
 24 53  1  0  0  0  0
 25 44  1  0  0  0  0
 26 73  1  0  0  0  0
 27 83  1  0  0  0  0
 28 84  1  0  0  0  0
 29 31  2  0  0  0  0
 29 83  1  0  0  0  0
 30 85  1  0  0  0  0
 31 86  1  0  0  0  0
 32 66  2  0  0  0  0
 33 67  1  0  0  0  0
 33 71  1  0  0  0  0
 34 35  2  0  0  0  0
 34 45  1  0  0  0  0
 34 54  1  0  0  0  0
 35 84  1  0  0  0  0
 36 68  1  0  0  0  0
 36 76  2  0  0  0  0
 37 72  1  0  0  0  0
 37 78  2  0  0  0  0
 38 55  1  0  0  0  0
 38 74  1  0  0  0  0
 38 79  2  0  0  0  0
 39 63  1  0  0  0  0
 39 69  1  0  0  0  0
 39 80  2  0  0  0  0
 40 64  1  0  0  0  0
 40 75  1  0  0  0  0
 40 81  2  0  0  0  0
 41 70  1  0  0  0  0
 41 73  1  0  0  0  0
 41 82  2  0  0  0  0
 42 46  1  0  0  0  0
 43 55  1  0  0  0  0
 44 69  1  0  0  0  0
 45 50  1  0  0  0  0
 46 48  1  0  0  0  0
 47 49  1  0  0  0  0
 47 51  1  0  0  0  0
 48 53  1  0  0  0  0
 49 56  1  0  0  0  0
 50 68  1  0  0  0  0
 51 70  1  0  0  0  0
 52 56  1  0  0  0  0
 52 70  1  0  0  0  0
 53 74  1  0  0  0  0
 54 57  1  0  0  0  0
 54 68  1  0  0  0  0
 55 69  1  0  0  0  0
 56 67  1  0  0  0  0
 58 64  1  0  0  0  0
 59 65  1  0  0  0  0
 60 65  1  0  0  0  0
 61 65  1  0  0  0  0
 62 77  1  0  0  0  0
 63 65  1  0  0  0  0
 63 75  1  0  0  0  0
 64 77  1  0  0  0  0
 66 67  1  0  0  0  0
M  CHG  2  76   1  77   1
M  ISO  4  35 101  41 100  73 100  84 101
M  END
> <Batch ID>
0138

> <Smiles>
CNC(C)C(=O)NC(C(=O)N1Cc2cc([101O:1][101CH:1]=C3CCN(C(=N)c4cccc([100NH:0][100C:0](=O)N5CCCC(n6nc(-c7ccc(Oc8ccc(F)cc8F)cc7)c(C(N)=O)c6N)C5)c4)C3C)ccc2CC1C(=O)NC1CCCc2ccccc21)C(C)(C)C

> <Shape>
0.275

> <Color>
0.091

> <Negative vol penalty>
0.000

$$$$

  -OEChem-04052302453D

 88 96  0     1  0  0  0  0  0999 V2000
  -27.1589  -33.9366   26.1992 C   0  0  0  0  0  0  0  0  0  0  0  0
  -27.5212  -32.6514   25.8085 C   0  0  0  0  0  0  0  0  0  0  0  0
  -23.3809  -12.3338   23.7118 C   0  0  0  0  0  0  0  0  0  0  0  0
  -22.2480  -13.8884   22.2500 C   0  0  0  0  0  0  0  0  0  0  0  0
  -25.8236  -34.3328   26.1354 C   0  0  0  0  0  0  0  0  0  0  0  0
  -26.5483  -31.7614   25.3550 C   0  0  0  0  0  0  0  0  0  0  0  0
  -27.9882  -29.2658   21.1904 C   0  0  0  0  0  0  0  0  0  0  0  0
  -22.3208  -12.4104   24.6150 C   0  0  0  0  0  0  0  0  0  0  0  0
  -21.1878  -13.9650   23.1532 C   0  0  0  0  0  0  0  0  0  0  0  0
  -28.8726  -28.2014   21.3598 C   0  0  0  0  0  0  0  0  0  0  0  0
  -19.7489  -11.9184   27.1365 C   0  0  0  0  0  0  0  0  0  0  0  0
  -19.2736  -10.7256   27.6814 C   0  0  0  0  0  0  0  0  0  0  0  0
  -26.3297  -19.5093   18.0182 C   0  0  0  0  0  0  0  0  0  0  0  0
  -26.9362  -21.8431   17.8688 C   0  0  0  0  0  0  0  0  0  0  0  0
  -27.0296  -26.6529   21.2025 C   0  0  0  0  0  0  0  0  0  0  0  0
  -28.4219  -20.2758   18.9521 C   0  0  0  0  0  0  0  0  0  0  0  0
  -18.7337   -9.9285   25.4654 C   0  0  0  0  0  0  0  0  0  0  0  0
  -23.3446  -13.0728   22.5293 C   0  0  0  0  0  0  0  0  0  0  0  0
  -26.0366  -20.8096   17.6073 C   0  0  0  0  0  0  0  0  0  0  0  0
  -24.5815  -12.0914   20.5256 C   0  0  0  0  0  0  0  0  0  0  0  0
  -24.8352  -33.4504   25.6718 C   0  0  0  0  0  0  0  0  0  0  0  0
  -26.6141  -29.0319   21.0365 C   0  0  0  0  0  0  0  0  0  0  0  0
  -25.1984  -32.1458   25.2863 C   0  0  0  0  0  0  0  0  0  0  0  0
  -26.1302  -27.7159   21.0288 C   0  0  0  0  0  0  0  0  0  0  0  0
  -27.5223  -19.2424   18.6907 C   0  0  0  0  0  0  0  0  0  0  0  0
  -21.2242  -13.2260   24.3357 C   0  0  0  0  0  0  0  0  0  0  0  0
  -28.3930  -26.8949   21.3687 C   0  0  0  0  0  0  0  0  0  0  0  0
  -19.7165  -12.1163   25.7561 C   0  0  0  0  0  0  0  0  0  0  0  0
  -28.1288  -21.5762   18.5412 C   0  0  0  0  0  0  0  0  0  0  0  0
  -18.7660   -9.7306   26.8458 C   0  0  0  0  0  0  0  0  0  0  0  0
  -19.2089  -11.1214   24.9206 C   0  0  0  0  0  0  0  0  0  0  0  0
  -24.4397  -12.9945   21.5962 C   0  0  0  0  0  0  0  0  0  0  0  0
  -25.7826  -12.4269   19.9501 C   0  0  0  0  0  0  0  0  0  0  0  0
  -24.7938  -21.0884   16.9053 C   0  0  0  0  0  0  0  0  0  0  0  0
  -23.7056  -11.0431   20.0902 C   0  0  0  0  0  0  0  0  0  0  0  0
  -24.0078  -29.8130   22.6799 C   0  0  0  0  0  0  0  0  0  0  0  0
  -22.4841  -28.4680   20.1517 C   0  0  0  0  0  0  0  0  0  0  0  0
  -22.5963  -26.2942   17.5233 C   0  0  0  0  0  0  0  0  0  0  0  0
  -28.9585  -17.4857   19.7851 C   0  0  0  0  0  0  0  0  0  0  0  0
  -23.3983  -33.9085   25.6654 C   0  0  0  0  0  0  0  0  0  0  0  0
  -25.6766  -30.1895   20.8280 C   0  0  0  0  0  0  0  0  0  0  0  0
  -24.6666  -27.4103   20.8470 C   0  0  0  0  0  0  0  0  0  0  0  0
  -22.4821  -33.0282   24.8191 C   0  0  0  0  0  0  0  0  0  0  0  0
  -30.0460  -14.3281   21.0194 C   0  0  0  0  0  0  0  0  0  0  0  0
  -22.7355  -31.5536   25.1158 C   0  0  0  0  0  0  0  0  0  0  0  0
  -28.7451  -13.5434   21.2042 C   0  0  0  0  0  0  0  0  0  0  0  0
  -29.8725  -15.8046   21.3705 C   0  0  0  0  0  0  0  0  0  0  0  0
  -27.4631  -15.6954   20.8686 C   0  0  0  0  0  0  0  0  0  0  0  0
  -24.1754  -31.1598   24.7653 C   0  0  1  0  0  0  0  0  0  0  0  0
  -24.2324  -29.8624   21.1950 C   0  0  1  0  0  0  0  0  0  0  0  0
  -27.5716  -14.2159   20.4650 C   0  0  2  0  0  0  0  0  0  0  0  0
  -24.1883  -22.4506   17.0815 C   0  0  0  0  0  0  0  0  0  0  0  0
  -21.1845  -25.3814   15.6602 C   0  0  0  0  0  0  0  0  0  0  0  0
  -33.3034  -23.8331   20.2050 C   0  0  0  0  0  0  0  0  0  0  0  0
  -32.9975  -24.9740   17.9990 C   0  0  0  0  0  0  0  0  0  0  0  0
  -20.9949  -26.7046   22.1474 C   0  0  0  0  0  0  0  0  0  0  0  0
  -20.3474  -25.2151   20.2420 C   0  0  0  0  0  0  0  0  0  0  0  0
  -19.5841  -27.5896   20.2817 C   0  0  0  0  0  0  0  0  0  0  0  0
  -24.4361  -27.3467   15.4578 C   0  0  0  0  0  0  0  0  0  0  0  0
  -31.0002  -24.6776   19.4950 C   0  0  0  0  0  0  0  0  0  0  0  0
  -28.9045  -24.6171   20.9150 C   0  0  0  0  0  0  0  0  0  1  0  0
  -29.8140  -22.4622   19.9663 C   0  0  0  0  0  0  0  0  0  0  0  0
  -22.0132  -27.0764   19.8042 C   0  0  1  0  0  0  0  0  0  0  0  0
  -22.1870  -26.4492   16.0697 C   0  0  2  0  0  0  0  0  0  0  0  0
  -32.3399  -24.0627   19.0403 C   0  0  0  0  0  0  0  0  0  0  0  0
  -30.1776  -23.8498   20.5103 C   0  0  1  0  0  0  0  0  0  0  0  0
  -20.7623  -26.6520   20.6242 C   0  0  0  0  0  0  0  0  0  0  0  0
  -25.4687  -13.8401   21.6971 N   0  0  0  0  0  0  0  0  0  0  0  0
  -26.2685  -13.4697   20.6826 N   0  0  0  0  0  0  0  0  0  0  0  0
  -23.7890  -28.5763   20.6531 N   0  0  0  0  0  0  0  0  0  0  0  0
  -28.7456  -16.3757   20.6297 N   0  0  0  0  0  0  0  0  0  0  0  0
  -26.4600  -11.9286   18.8940 N   0  0  0  0  0  0  0  0  0  0  0  0
  -22.5119  -10.8341   20.7944 N   0  0  0  0  0  0  0  0  0  0  0  0
  -27.8202  -17.9213   19.1075 N   0  0  0  0  0  0  0  0  0  0  0  0
  -24.3189  -30.9890   23.3354 N   0  0  0  0  0  0  0  0  0  0  0  0
  -21.8134  -27.0621   18.3591 N   0  0  0  0  0  0  0  0  0  0  0  0
  -23.3787  -26.3405   15.1815 N   0  3  0  0  0  0  0  0  0  0  0  0
  -24.1974  -20.2893   16.1803 O   0  0  0  0  0  0  0  0  0  0  0  0
  -23.9814  -10.3026   19.1160 O   0  0  0  0  0  0  0  0  0  0  0  0
  -23.5823  -28.7846   23.1927 O   0  0  0  0  0  0  0  0  0  0  0  0
  -21.7247  -29.4244   19.9779 O   0  0  0  0  0  0  0  0  0  0  0  0
  -23.5161  -25.5620   17.8818 O   0  0  0  0  0  0  0  0  0  0  0  0
  -30.0744  -17.9942   19.6505 O   0  0  0  0  0  0  0  0  0  0  0  0
  -20.1894  -13.3008   25.2166 O   0  0  0  0  0  0  0  0  0  0  0  0
  -29.2540  -25.8542   21.5345 O   0  0  0  0  0  0  0  0  0  1  0  0
  -29.0127  -22.5909   18.7977 O   0  0  0  0  0  0  0  0  0  0  0  0
  -18.3111   -8.5846   27.3691 F   0  0  0  0  0  0  0  0  0  0  0  0
  -19.1763  -11.3053   23.5936 F   0  0  0  0  0  0  0  0  0  0  0  0
  1  2  1  0  0  0  0
  1  5  2  0  0  0  0
  2  6  2  0  0  0  0
  3  8  2  0  0  0  0
  3 18  1  0  0  0  0
  4  9  1  0  0  0  0
  4 18  2  0  0  0  0
  5 21  1  0  0  0  0
  6 23  1  0  0  0  0
  7 10  2  0  0  0  0
  7 22  1  0  0  0  0
  8 26  1  0  0  0  0
  9 26  2  0  0  0  0
 10 27  1  0  0  0  0
 11 12  2  0  0  0  0
 11 28  1  0  0  0  0
 12 30  1  0  0  0  0
 13 19  2  0  0  0  0
 13 25  1  0  0  0  0
 14 19  1  0  0  0  0
 14 29  2  0  0  0  0
 15 24  1  0  0  0  0
 15 27  2  0  0  0  0
 16 25  2  0  0  0  0
 16 29  1  0  0  0  0
 17 30  2  0  0  0  0
 17 31  1  0  0  0  0
 18 32  1  0  0  0  0
 19 34  1  0  0  0  0
 20 32  1  0  0  0  0
 20 33  2  0  0  0  0
 20 35  1  0  0  0  0
 21 23  2  0  0  0  0
 21 40  1  0  0  0  0
 22 24  2  0  0  0  0
 22 41  1  0  0  0  0
 23 49  1  0  0  0  0
 24 42  1  0  0  0  0
 25 74  1  0  0  0  0
 26 84  1  0  0  0  0
 27 85  1  0  0  0  0
 28 31  2  0  0  0  0
 28 84  1  0  0  0  0
 29 86  1  0  0  0  0
 30 87  1  0  0  0  0
 31 88  1  0  0  0  0
 32 68  2  0  0  0  0
 33 69  1  0  0  0  0
 33 72  1  0  0  0  0
 34 52  1  0  0  0  0
 34 78  2  0  0  0  0
 35 73  1  0  0  0  0
 35 79  2  0  0  0  0
 36 50  1  0  0  0  0
 36 75  1  0  0  0  0
 36 80  2  0  0  0  0
 37 63  1  0  0  0  0
 37 70  1  0  0  0  0
 37 81  2  0  0  0  0
 38 64  1  0  0  0  0
 38 76  1  0  0  0  0
 38 82  2  0  0  0  0
 39 71  1  0  0  0  0
 39 74  1  0  0  0  0
 39 83  2  0  0  0  0
 40 43  1  0  0  0  0
 41 50  1  0  0  0  0
 42 70  1  0  0  0  0
 43 45  1  0  0  0  0
 44 46  1  0  0  0  0
 44 47  1  0  0  0  0
 45 49  1  0  0  0  0
 46 51  1  0  0  0  0
 47 71  1  0  0  0  0
 48 51  1  0  0  0  0
 48 71  1  0  0  0  0
 49 75  1  0  0  0  0
 50 70  1  0  0  0  0
 51 69  1  0  0  0  0
 53 64  1  0  0  0  0
 54 65  1  0  0  0  0
 55 65  1  0  0  0  0
 56 67  1  0  0  0  0
 57 67  1  0  0  0  0
 58 67  1  0  0  0  0
 59 77  1  0  0  0  0
 60 65  1  0  0  0  0
 60 66  1  0  0  0  0
 61 66  1  0  0  0  0
 61 85  1  0  0  0  0
 62 66  1  0  0  0  0
 62 86  1  0  0  0  0
 63 67  1  0  0  0  0
 63 76  1  0  0  0  0
 64 77  1  0  0  0  0
 68 69  1  0  0  0  0
M  CHG  1  77   1
M  ISO  4  39 100  61 101  74 100  85 101
M  END
> <Batch ID>
0138

> <Smiles>
CNC(C)C(=O)NC(C(=O)N1Cc2cc([101O:1][101CH2:1]C(COc3cc([100NH:0][100C:0](=O)N4CCCC(n5nc(-c6ccc(Oc7ccc(F)cc7F)cc6)c(C(N)=O)c5N)C4)cc(C(C)=O)c3)CC(C)C)ccc2CC1C(=O)NC1CCCc2ccccc21)C(C)(C)C

> <Shape>
0.260

> <Color>
0.073

> <Negative vol penalty>
0.000

$$$$

  -OEChem-04052302453D

 89 98  0     1  0  0  0  0  0999 V2000
  -19.4246  -23.9705   29.4146 C   0  0  0  0  0  0  0  0  0  0  0  0
  -20.0115  -23.2198   28.4010 C   0  0  0  0  0  0  0  0  0  0  0  0
  -26.7446  -12.4767   21.5989 C   0  0  0  0  0  0  0  0  0  0  0  0
  -26.2807  -13.6402   19.5330 C   0  0  0  0  0  0  0  0  0  0  0  0
  -18.9236  -25.2419   29.1381 C   0  0  0  0  0  0  0  0  0  0  0  0
  -20.0968  -23.7397   27.1100 C   0  0  0  0  0  0  0  0  0  0  0  0
  -24.6113  -22.8416   23.0704 C   0  0  0  0  0  0  0  0  0  0  0  0
  -25.4297  -12.0127   21.6329 C   0  0  0  0  0  0  0  0  0  0  0  0
  -24.9657  -13.1762   19.5670 C   0  0  0  0  0  0  0  0  0  0  0  0
  -24.7420  -21.9734   21.9874 C   0  0  0  0  0  0  0  0  0  0  0  0
  -23.6068   -9.5819   20.1492 C   0  0  0  0  0  0  0  0  0  0  0  0
  -23.4016   -8.2371   20.4574 C   0  0  0  0  0  0  0  0  0  0  0  0
  -24.0068  -23.7258   20.5015 C   0  0  0  0  0  0  0  0  0  0  0  0
  -29.1538  -23.2955   17.8113 C   0  0  0  0  0  0  0  0  0  0  0  0
  -30.0990  -22.3082   19.8034 C   0  0  0  0  0  0  0  0  0  0  0  0
  -29.5425  -20.9130   17.9111 C   0  0  0  0  0  0  0  0  0  0  0  0
  -22.0891   -8.8783   22.3818 C   0  0  0  0  0  0  0  0  0  0  0  0
  -27.1702  -13.2905   20.5490 C   0  0  0  0  0  0  0  0  0  0  0  0
  -29.6360  -13.1441   19.9118 C   0  0  0  0  0  0  0  0  0  0  0  0
  -19.0115  -25.7816   27.8452 C   0  0  0  0  0  0  0  0  0  0  0  0
  -24.1663  -24.1574   22.8781 C   0  0  0  0  0  0  0  0  0  0  0  0
  -19.5953  -25.0190   26.8156 C   0  0  0  0  0  0  0  0  0  0  0  0
  -23.8738  -24.6095   21.5834 C   0  0  0  0  0  0  0  0  0  0  0  0
  -29.6543  -23.4314   19.1061 C   0  0  0  0  0  0  0  0  0  0  0  0
  -29.0978  -22.0363   17.2138 C   0  0  0  0  0  0  0  0  0  0  0  0
  -30.0431  -21.0490   19.2059 C   0  0  0  0  0  0  0  0  0  0  0  0
  -24.5402  -12.3624   20.6169 C   0  0  0  0  0  0  0  0  0  0  0  0
  -24.4369  -22.4146   20.7031 C   0  0  0  0  0  0  0  0  0  0  0  0
  -23.0531  -10.5750   20.9574 C   0  0  0  0  0  0  0  0  0  0  0  0
  -22.6428   -7.8853   21.5736 C   0  0  0  0  0  0  0  0  0  0  0  0
  -22.2943  -10.2232   22.0736 C   0  0  0  0  0  0  0  0  0  0  0  0
  -28.5282  -13.7706   20.5137 C   0  0  0  0  0  0  0  0  0  0  0  0
  -30.6859  -13.9956   20.1547 C   0  0  0  0  0  0  0  0  0  0  0  0
  -29.7093  -11.9033   19.1971 C   0  0  0  0  0  0  0  0  0  0  0  0
  -25.6638  -21.1743   17.5263 C   0  0  0  0  0  0  0  0  0  0  0  0
  -21.6581  -25.8435   23.8629 C   0  0  0  0  0  0  0  0  0  0  0  0
  -23.2221  -28.2864   22.4109 C   0  0  0  0  0  0  0  0  0  0  0  0
  -25.4896  -29.2873   20.0650 C   0  0  0  0  0  0  0  0  0  0  0  0
  -31.0199  -19.8684   21.2055 C   0  0  0  0  0  0  0  0  0  0  0  0
  -18.4133  -27.1412   27.5838 C   0  0  0  0  0  0  0  0  0  0  0  0
  -24.0563  -25.0896   24.0535 C   0  0  0  0  0  0  0  0  0  0  0  0
  -23.4116  -26.0188   21.3211 C   0  0  0  0  0  0  0  0  0  0  0  0
  -18.8798  -27.7702   26.2735 C   0  0  0  0  0  0  0  0  0  0  0  0
  -32.2089  -17.2569   23.3136 C   0  0  0  0  0  0  0  0  0  0  0  0
  -25.6657  -20.0498   14.4041 C   0  0  0  0  0  0  0  0  0  0  0  0
  -18.8073  -26.7541   25.1381 C   0  0  0  0  0  0  0  0  0  0  0  0
  -25.0482  -21.2526   15.0959 C   0  0  0  0  0  0  0  0  0  0  0  0
  -31.5054  -16.0085   22.7762 C   0  0  0  0  0  0  0  0  0  0  0  0
  -31.3059  -18.4876   23.2517 C   0  0  0  0  0  0  0  0  0  0  0  0
  -30.0115  -17.5100   21.3975 C   0  0  0  0  0  0  0  0  0  0  0  0
  -27.1380  -20.3939   14.3788 C   0  0  0  0  0  0  0  0  0  0  0  0
  -19.7287  -25.5585   25.4080 C   0  0  1  0  0  0  0  0  0  0  0  0
  -26.0581  -21.6534   16.1675 C   0  0  2  0  0  0  0  0  0  0  0  0
  -23.1023  -26.2540   23.8054 C   0  0  1  0  0  0  0  0  0  0  0  0
  -30.9037  -16.2581   21.3793 C   0  0  2  0  0  0  0  0  0  0  0  0
  -31.0913  -26.8771   20.0897 C   0  0  0  0  0  0  0  0  0  0  0  0
  -26.9668  -30.8510   18.7726 C   0  0  0  0  0  0  0  0  0  0  0  0
  -20.6624  -28.8262   20.8404 C   0  0  0  0  0  0  0  0  0  0  0  0
  -22.0119  -30.2145   19.2530 C   0  0  0  0  0  0  0  0  0  0  0  0
  -21.8408  -30.8775   21.6517 C   0  0  0  0  0  0  0  0  0  0  0  0
  -27.7122  -28.9665   21.9927 C   0  0  0  0  0  0  0  0  0  0  0  0
  -29.7140  -24.7778   19.7449 C   0  0  0  0  0  0  0  0  0  0  0  0
  -28.5595  -21.8903   15.8210 C   0  0  0  0  0  0  0  0  0  0  0  0
  -24.8873  -22.1517   18.3827 C   0  0  0  0  0  0  0  0  0  1  0  0
  -31.0458  -25.4910   19.4664 C   0  0  0  0  0  0  0  0  0  0  0  0
  -23.2379  -28.8679   21.0179 C   0  0  1  0  0  0  0  0  0  0  0  0
  -26.6518  -30.2611   20.1384 C   0  0  2  0  0  0  0  0  0  0  0  0
  -21.9451  -29.6693   20.6956 C   0  0  0  0  0  0  0  0  0  0  0  0
  -28.8450  -14.9305   21.0952 N   0  0  0  0  0  0  0  0  0  0  0  0
  -30.1636  -15.0396   20.8601 N   0  0  0  0  0  0  0  0  0  0  0  0
  -23.3138  -26.8903   22.5036 N   0  0  0  0  0  0  0  0  0  0  0  0
  -30.7759  -18.6633   21.8978 N   0  0  0  0  0  0  0  0  0  0  0  0
  -31.9957  -13.9457   19.8316 N   0  0  0  0  0  0  0  0  0  0  0  0
  -28.5361  -11.1531   19.0388 N   0  0  0  0  0  0  0  0  0  0  0  0
  -30.4949  -19.9079   19.9142 N   0  0  0  0  0  0  0  0  0  0  0  0
  -21.1050  -25.9076   25.1276 N   0  0  0  0  0  0  0  0  0  0  0  0
  -24.4660  -29.6485   20.9152 N   0  0  0  0  0  0  0  0  0  0  0  0
  -27.3642  -20.9949   15.7457 N   0  3  2  0  0  0  0  0  0  0  0  0
  -27.8726  -29.5734   20.6462 N   0  3  0  0  0  0  0  0  0  0  0  0
  -30.7865  -11.4647   18.7272 O   0  0  0  0  0  0  0  0  0  0  0  0
  -25.9596  -20.0459   17.9168 O   0  0  0  0  0  0  0  0  0  0  0  0
  -21.0874  -25.4958   22.8357 O   0  0  0  0  0  0  0  0  0  0  0  0
  -23.1390  -29.0433   23.3813 O   0  0  0  0  0  0  0  0  0  0  0  0
  -25.4883  -28.3064   19.3244 O   0  0  0  0  0  0  0  0  0  0  0  0
  -31.6716  -20.7862   21.7103 O   0  0  0  0  0  0  0  0  0  0  0  0
  -23.2571  -11.9097   20.6496 O   0  0  0  0  0  0  0  0  0  0  0  0
  -24.5629  -21.5690   19.6443 O   0  0  0  0  0  0  0  0  0  1  0  0
  -22.4446   -6.5938   21.8686 F   0  0  0  0  0  0  0  0  0  0  0  0
  -21.7589  -11.1727   22.8531 F   0  0  0  0  0  0  0  0  0  0  0  0
  1  2  1  0  0  0  0
  1  5  2  0  0  0  0
  2  6  2  0  0  0  0
  3  8  2  0  0  0  0
  3 18  1  0  0  0  0
  4  9  1  0  0  0  0
  4 18  2  0  0  0  0
  5 20  1  0  0  0  0
  6 22  1  0  0  0  0
  7 10  2  0  0  0  0
  7 21  1  0  0  0  0
  8 27  1  0  0  0  0
  9 27  2  0  0  0  0
 10 28  1  0  0  0  0
 11 12  2  0  0  0  0
 11 29  1  0  0  0  0
 12 30  1  0  0  0  0
 13 23  1  0  0  0  0
 13 28  2  0  0  0  0
 14 24  1  0  0  0  0
 14 25  2  0  0  0  0
 15 24  2  0  0  0  0
 15 26  1  0  0  0  0
 16 25  1  0  0  0  0
 16 26  2  0  0  0  0
 17 30  2  0  0  0  0
 17 31  1  0  0  0  0
 18 32  1  0  0  0  0
 19 32  1  0  0  0  0
 19 33  2  0  0  0  0
 19 34  1  0  0  0  0
 20 22  2  0  0  0  0
 20 40  1  0  0  0  0
 21 23  2  0  0  0  0
 21 41  1  0  0  0  0
 22 52  1  0  0  0  0
 23 42  1  0  0  0  0
 24 62  1  0  0  0  0
 25 63  1  0  0  0  0
 26 75  1  0  0  0  0
 27 86  1  0  0  0  0
 28 87  1  0  0  0  0
 29 31  2  0  0  0  0
 29 86  1  0  0  0  0
 30 88  1  0  0  0  0
 31 89  1  0  0  0  0
 32 69  2  0  0  0  0
 33 70  1  0  0  0  0
 33 73  1  0  0  0  0
 34 74  1  0  0  0  0
 34 80  2  0  0  0  0
 35 53  1  0  0  0  0
 35 64  1  0  0  0  0
 35 81  2  0  0  0  0
 36 54  1  0  0  0  0
 36 76  1  0  0  0  0
 36 82  2  0  0  0  0
 37 66  1  0  0  0  0
 37 71  1  0  0  0  0
 37 83  2  0  0  0  0
 38 67  1  0  0  0  0
 38 77  1  0  0  0  0
 38 84  2  0  0  0  0
 39 72  1  0  0  0  0
 39 75  1  0  0  0  0
 39 85  2  0  0  0  0
 40 43  1  0  0  0  0
 41 54  1  0  0  0  0
 42 71  1  0  0  0  0
 43 46  1  0  0  0  0
 44 48  1  0  0  0  0
 44 49  1  0  0  0  0
 45 47  1  0  0  0  0
 45 51  1  0  0  0  0
 46 52  1  0  0  0  0
 47 53  1  0  0  0  0
 48 55  1  0  0  0  0
 49 72  1  0  0  0  0
 50 55  1  0  0  0  0
 50 72  1  0  0  0  0
 51 78  1  0  0  0  0
 52 76  1  0  0  0  0
 53 78  1  0  0  0  0
 54 71  1  0  0  0  0
 55 70  1  0  0  0  0
 56 65  1  0  0  0  0
 57 67  1  0  0  0  0
 58 68  1  0  0  0  0
 59 68  1  0  0  0  0
 60 68  1  0  0  0  0
 61 79  1  0  0  0  0
 62 65  1  0  0  0  0
 63 78  1  0  0  0  0
 64 87  1  0  0  0  0
 66 68  1  0  0  0  0
 66 77  1  0  0  0  0
 67 79  1  0  0  0  0
 69 70  1  0  0  0  0
M  CHG  2  78   1  79   1
M  ISO  4  39 100  64 101  75 100  87 101
M  END
> <Batch ID>
0138

> <Smiles>
CCCc1cc(CN2CCCC2C(=O)[101CH2:1][101O:1]c2ccc3c(c2)CN(C(=O)C(NC(=O)C(C)NC)C(C)(C)C)C(C(=O)NC2CCCc4ccccc42)C3)cc([100NH:0][100C:0](=O)N2CCCC(n3nc(-c4ccc(Oc5ccc(F)cc5F)cc4)c(C(N)=O)c3N)C2)c1

> <Shape>
0.247

> <Color>
0.054

> <Negative vol penalty>
0.000

$$$$

  -OEChem-04052302453D

 82 91  0     1  0  0  0  0  0999 V2000
  -27.0941  -33.4946   26.8694 C   0  0  0  0  0  0  0  0  0  0  0  0
  -27.4840  -32.4349   26.0568 C   0  0  0  0  0  0  0  0  0  0  0  0
  -24.0019  -13.6227   21.6914 C   0  0  0  0  0  0  0  0  0  0  0  0
  -26.2661  -13.6231   20.8483 C   0  0  0  0  0  0  0  0  0  0  0  0
  -25.7519  -33.6516   27.2123 C   0  0  0  0  0  0  0  0  0  0  0  0
  -26.5318  -31.5308   25.5874 C   0  0  0  0  0  0  0  0  0  0  0  0
  -27.1230  -30.4636   20.6724 C   0  0  0  0  0  0  0  0  0  0  0  0
  -23.7559  -12.4195   21.0301 C   0  0  0  0  0  0  0  0  0  0  0  0
  -26.0201  -12.4198   20.1871 C   0  0  0  0  0  0  0  0  0  0  0  0
  -28.1333  -29.5647   20.3331 C   0  0  0  0  0  0  0  0  0  0  0  0
  -24.4116   -9.1366   21.5055 C   0  0  0  0  0  0  0  0  0  0  0  0
  -23.7437   -8.1348   22.2096 C   0  0  0  0  0  0  0  0  0  0  0  0
  -26.4942  -27.8055   20.1383 C   0  0  0  0  0  0  0  0  0  0  0  0
  -29.1775  -22.8734   18.8140 C   0  0  0  0  0  0  0  0  0  0  0  0
  -21.9739   -8.1589   20.5651 C   0  0  0  0  0  0  0  0  0  0  0  0
  -30.1959  -20.7916   18.9903 C   0  0  0  0  0  0  0  0  0  0  0  0
  -25.2570  -14.2246   21.6004 C   0  0  0  0  0  0  0  0  0  0  0  0
  -25.9995  -15.6342   23.5928 C   0  0  0  0  0  0  0  0  0  0  0  0
  -24.7814  -32.7545   26.7389 C   0  0  0  0  0  0  0  0  0  0  0  0
  -25.7899  -30.0370   20.7580 C   0  0  0  0  0  0  0  0  0  0  0  0
  -25.1754  -31.6751   25.9253 C   0  0  0  0  0  0  0  0  0  0  0  0
  -25.4686  -28.7016   20.4764 C   0  0  0  0  0  0  0  0  0  0  0  0
  -29.0365  -21.5073   19.1932 C   0  0  0  0  0  0  0  0  0  0  0  0
  -24.7650  -11.8180   20.2780 C   0  0  0  0  0  0  0  0  0  0  0  0
  -27.8193  -28.2348   20.0688 C   0  0  0  0  0  0  0  0  0  0  0  0
  -23.8607   -9.6497   20.3312 C   0  0  0  0  0  0  0  0  0  0  0  0
  -22.5249   -7.6459   21.7394 C   0  0  0  0  0  0  0  0  0  0  0  0
  -22.6419   -9.1608   19.8610 C   0  0  0  0  0  0  0  0  0  0  0  0
  -25.5116  -15.4679   22.2828 C   0  0  0  0  0  0  0  0  0  0  0  0
  -30.4396  -23.1500   18.3358 C   0  0  0  0  0  0  0  0  0  0  0  0
  -26.0642  -16.9953   23.7648 C   0  0  0  0  0  0  0  0  0  0  0  0
  -26.3619  -14.6466   24.5669 C   0  0  0  0  0  0  0  0  0  0  0  0
  -23.6220  -29.9040   23.0788 C   0  0  0  0  0  0  0  0  0  0  0  0
  -21.6595  -28.9937   20.6616 C   0  0  0  0  0  0  0  0  0  0  0  0
  -21.3339  -27.6098   17.5591 C   0  0  0  0  0  0  0  0  0  0  0  0
  -26.6381  -21.5681   19.9615 C   0  0  0  0  0  0  0  0  0  0  0  0
  -23.3493  -32.9377   27.1750 C   0  0  0  0  0  0  0  0  0  0  0  0
  -24.7084  -31.0251   21.0992 C   0  0  0  0  0  0  0  0  0  0  0  0
  -24.0503  -28.1979   20.5347 C   0  0  0  0  0  0  0  0  0  0  0  0
  -22.3499  -32.1522   26.3298 C   0  0  0  0  0  0  0  0  0  0  0  0
  -23.9979  -21.0580   22.2952 C   0  0  0  0  0  0  0  0  0  0  0  0
  -22.8321  -30.7193   26.1273 C   0  0  0  0  0  0  0  0  0  0  0  0
  -30.1728  -24.9807   16.6461 C   0  0  0  0  0  0  0  0  0  0  0  0
  -29.5362  -26.2814   17.1255 C   0  0  0  0  0  0  0  0  0  0  0  0
  -24.1346  -19.5833   22.6807 C   0  0  0  0  0  0  0  0  0  0  0  0
  -30.8960  -25.5309   18.9297 C   0  0  0  0  0  0  0  0  0  0  0  0
  -24.3230  -21.2913   20.8209 C   0  0  0  0  0  0  0  0  0  0  0  0
  -25.7574  -19.2892   20.7657 C   0  0  0  0  0  0  0  0  0  0  0  0
  -24.1685  -30.6878   25.3761 C   0  0  1  0  0  0  0  0  0  0  0  0
  -30.9775  -24.4393   17.8463 C   0  0  1  0  0  0  0  0  0  0  0  0
  -23.4517  -30.3658   21.6591 C   0  0  1  0  0  0  0  0  0  0  0  0
  -30.5227  -26.7999   18.1660 C   0  0  2  0  0  0  0  0  0  0  0  0
  -25.5030  -19.0145   22.2569 C   0  0  2  0  0  0  0  0  0  0  0  0
  -19.6016  -26.9626   15.8627 C   0  0  0  0  0  0  0  0  0  0  0  0
  -20.9356  -26.5488   22.3373 C   0  0  0  0  0  0  0  0  0  0  0  0
  -19.9902  -25.4988   20.2704 C   0  0  0  0  0  0  0  0  0  0  0  0
  -19.0050  -27.6126   21.1559 C   0  0  0  0  0  0  0  0  0  0  0  0
  -22.4551  -29.4582   15.5379 C   0  0  0  0  0  0  0  0  0  0  0  0
  -29.9400  -27.8797   19.0526 C   0  0  0  0  0  0  0  0  0  1  0  0
  -21.2720  -27.6745   20.0383 C   0  0  1  0  0  0  0  0  0  0  0  0
  -20.5512  -28.0522   16.3359 C   0  0  2  0  0  0  0  0  0  0  0  0
  -20.3278  -26.8424   20.9512 C   0  0  0  0  0  0  0  0  0  0  0  0
  -25.2824  -16.6304   21.6664 N   0  0  0  0  0  0  0  0  0  0  0  0
  -25.6277  -17.5403   22.5932 N   0  0  0  0  0  0  0  0  0  0  0  0
  -23.0291  -29.2009   20.8789 N   0  0  0  0  0  0  0  0  0  0  0  0
  -25.6354  -20.7299   20.4933 N   0  0  0  0  0  0  0  0  0  0  0  0
  -26.4512  -17.7672   24.8025 N   0  0  0  0  0  0  0  0  0  0  0  0
  -26.2344  -13.2932   24.2258 N   0  0  0  0  0  0  0  0  0  0  0  0
  -27.8544  -20.9302   19.7199 N   0  0  0  0  0  0  0  0  0  0  0  0
  -23.9588  -30.9121   23.9618 N   0  0  0  0  0  0  0  0  0  0  0  0
  -20.7115  -27.9907   18.7290 N   0  0  0  0  0  0  0  0  0  0  0  0
  -21.4800  -28.3839   15.2186 N   0  3  0  0  0  0  0  0  0  0  0  0
  -26.7708  -14.9552   25.7120 O   0  0  0  0  0  0  0  0  0  0  0  0
  -23.4583  -28.7209   23.3530 O   0  0  0  0  0  0  0  0  0  0  0  0
  -20.7801  -29.8132   20.9386 O   0  0  0  0  0  0  0  0  0  0  0  0
  -22.3899  -26.9854   17.4842 O   0  0  0  0  0  0  0  0  0  0  0  0
  -26.4414  -22.7696   19.7624 O   0  0  0  0  0  0  0  0  0  0  0  0
  -24.5254  -10.6437   19.6329 O   0  0  0  0  0  0  0  0  0  0  0  0
  -28.8035  -27.3552   19.7380 O   0  0  0  0  0  0  0  0  0  1  0  0
  -21.8844   -6.6827   22.4149 F   0  0  0  0  0  0  0  0  0  0  0  0
  -22.1082   -9.6489   18.7328 F   0  0  0  0  0  0  0  0  0  0  0  0
  -31.4477  -21.7658   18.3452 S   0  0  0  0  0  0  0  0  0  0  0  0
  1  2  1  0  0  0  0
  1  5  2  0  0  0  0
  2  6  2  0  0  0  0
  3  8  2  0  0  0  0
  3 17  1  0  0  0  0
  4  9  1  0  0  0  0
  4 17  2  0  0  0  0
  5 19  1  0  0  0  0
  6 21  1  0  0  0  0
  7 10  2  0  0  0  0
  7 20  1  0  0  0  0
  8 24  1  0  0  0  0
  9 24  2  0  0  0  0
 10 25  1  0  0  0  0
 11 12  2  0  0  0  0
 11 26  1  0  0  0  0
 12 27  1  0  0  0  0
 13 22  1  0  0  0  0
 13 25  2  0  0  0  0
 14 23  1  0  0  0  0
 14 30  2  0  0  0  0
 15 27  2  0  0  0  0
 15 28  1  0  0  0  0
 16 23  2  0  0  0  0
 16 82  1  0  0  0  0
 17 29  1  0  0  0  0
 18 29  1  0  0  0  0
 18 31  2  0  0  0  0
 18 32  1  0  0  0  0
 19 21  2  0  0  0  0
 19 37  1  0  0  0  0
 20 22  2  0  0  0  0
 20 38  1  0  0  0  0
 21 49  1  0  0  0  0
 22 39  1  0  0  0  0
 23 69  1  0  0  0  0
 24 78  1  0  0  0  0
 25 79  1  0  0  0  0
 26 28  2  0  0  0  0
 26 78  1  0  0  0  0
 27 80  1  0  0  0  0
 28 81  1  0  0  0  0
 29 63  2  0  0  0  0
 30 50  1  0  0  0  0
 30 82  1  0  0  0  0
 31 64  1  0  0  0  0
 31 67  1  0  0  0  0
 32 68  1  0  0  0  0
 32 73  2  0  0  0  0
 33 51  1  0  0  0  0
 33 70  1  0  0  0  0
 33 74  2  0  0  0  0
 34 60  1  0  0  0  0
 34 65  1  0  0  0  0
 34 75  2  0  0  0  0
 35 61  1  0  0  0  0
 35 71  1  0  0  0  0
 35 76  2  0  0  0  0
 36 66  1  0  0  0  0
 36 69  1  0  0  0  0
 36 77  2  0  0  0  0
 37 40  1  0  0  0  0
 38 51  1  0  0  0  0
 39 65  1  0  0  0  0
 40 42  1  0  0  0  0
 41 45  1  0  0  0  0
 41 47  1  0  0  0  0
 42 49  1  0  0  0  0
 43 44  1  0  0  0  0
 43 50  1  0  0  0  0
 44 52  1  0  0  0  0
 45 53  1  0  0  0  0
 46 50  1  0  0  0  0
 46 52  1  0  0  0  0
 47 66  1  0  0  0  0
 48 53  1  0  0  0  0
 48 66  1  0  0  0  0
 49 70  1  0  0  0  0
 51 65  1  0  0  0  0
 52 59  1  0  0  0  0
 53 64  1  0  0  0  0
 54 61  1  0  0  0  0
 55 62  1  0  0  0  0
 56 62  1  0  0  0  0
 57 62  1  0  0  0  0
 58 72  1  0  0  0  0
 59 79  1  0  0  0  0
 60 62  1  0  0  0  0
 60 71  1  0  0  0  0
 61 72  1  0  0  0  0
 63 64  1  0  0  0  0
M  CHG  1  72   1
M  ISO  4  36 100  59 101  69 100  79 101
M  END
> <Batch ID>
0138

> <Smiles>
CNC(C)C(=O)NC(C(=O)N1Cc2cc([101O:1][101CH2:1]C3CCC(c4cc([100NH:0][100C:0](=O)N5CCCC(n6nc(-c7ccc(Oc8ccc(F)cc8F)cc7)c(C(N)=O)c6N)C5)cs4)C3)ccc2CC1C(=O)NC1CCCc2ccccc21)C(C)(C)C

> <Shape>
0.274

> <Color>
0.077

> <Negative vol penalty>
0.000

$$$$

  -OEChem-04052302453D

 84 92  0     1  0  0  0  0  0999 V2000
  -24.1546  -23.1811   20.5542 C   0  0  0  0  0  0  0  0  0  0  0  0
  -24.9342  -22.0424   20.3783 C   0  0  0  0  0  0  0  0  0  0  0  0
  -24.6296  -29.7008   21.0219 C   0  0  0  0  0  0  0  0  0  0  0  0
  -24.4064  -27.9818   22.7049 C   0  0  0  0  0  0  0  0  0  0  0  0
  -23.1233  -23.1804   21.4924 C   0  0  0  0  0  0  0  0  0  0  0  0
  -24.6835  -20.9025   21.1414 C   0  0  0  0  0  0  0  0  0  0  0  0
  -24.7345  -16.6619   18.3738 C   0  0  0  0  0  0  0  0  0  0  0  0
  -28.7570  -19.5140   22.6437 C   0  0  0  0  0  0  0  0  0  0  0  0
  -23.3015  -30.0742   21.2271 C   0  0  0  0  0  0  0  0  0  0  0  0
  -23.0782  -28.3552   22.9101 C   0  0  0  0  0  0  0  0  0  0  0  0
  -25.9812  -16.1448   18.0240 C   0  0  0  0  0  0  0  0  0  0  0  0
  -29.4324  -18.5383   21.9105 C   0  0  0  0  0  0  0  0  0  0  0  0
  -20.0947  -27.8839   21.3911 C   0  0  0  0  0  0  0  0  0  0  0  0
  -19.1424  -26.8686   21.4798 C   0  0  0  0  0  0  0  0  0  0  0  0
  -25.8087  -14.5354   19.8127 C   0  0  0  0  0  0  0  0  0  0  0  0
  -29.6749  -20.0874   20.0724 C   0  0  0  0  0  0  0  0  0  0  0  0
  -18.5694  -27.6009   23.7098 C   0  0  0  0  0  0  0  0  0  0  0  0
  -25.1821  -28.6546   21.7608 C   0  0  0  0  0  0  0  0  0  0  0  0
  -27.6904  -28.7691   22.2117 C   0  0  0  0  0  0  0  0  0  0  0  0
  -22.8537  -22.0368   22.2605 C   0  0  0  0  0  0  0  0  0  0  0  0
  -24.0193  -16.1258   19.4543 C   0  0  0  0  0  0  0  0  0  0  0  0
  -23.6485  -20.8869   22.0917 C   0  0  0  0  0  0  0  0  0  0  0  0
  -24.5521  -15.0458   20.1725 C   0  0  0  0  0  0  0  0  0  0  0  0
  -28.5405  -20.7764   22.0912 C   0  0  0  0  0  0  0  0  0  0  0  0
  -28.9995  -21.0631   20.8056 C   0  0  0  0  0  0  0  0  0  0  0  0
  -22.5257  -29.4014   22.1712 C   0  0  0  0  0  0  0  0  0  0  0  0
  -26.5197  -15.0833   18.7453 C   0  0  0  0  0  0  0  0  0  0  0  0
  -29.8913  -18.8250   20.6249 C   0  0  0  0  0  0  0  0  0  0  0  0
  -20.2844  -28.7577   22.4618 C   0  0  0  0  0  0  0  0  0  0  0  0
  -18.3797  -26.7271   22.6391 C   0  0  0  0  0  0  0  0  0  0  0  0
  -19.5218  -28.6162   23.6210 C   0  0  0  0  0  0  0  0  0  0  0  0
  -26.5539  -28.2680   21.5489 C   0  0  0  0  0  0  0  0  0  0  0  0
  -28.7426  -28.0850   21.6537 C   0  0  0  0  0  0  0  0  0  0  0  0
  -27.7863  -29.7638   23.2397 C   0  0  0  0  0  0  0  0  0  0  0  0
  -22.9761  -17.2565   22.2359 C   0  0  0  0  0  0  0  0  0  0  0  0
  -21.5514  -14.3494   22.4395 C   0  0  0  0  0  0  0  0  0  0  0  0
  -21.5031  -11.0734   21.4846 C   0  0  0  0  0  0  0  0  0  0  0  0
  -29.1877  -22.7691   18.9615 C   0  0  0  0  0  0  0  0  0  0  0  0
  -21.7586  -22.0992   23.2958 C   0  0  0  0  0  0  0  0  0  0  0  0
  -22.6639  -16.6774   19.8021 C   0  0  0  0  0  0  0  0  0  0  0  0
  -23.8153  -14.4213   21.3282 C   0  0  0  0  0  0  0  0  0  0  0  0
  -21.3175  -20.7273   23.7992 C   0  0  0  0  0  0  0  0  0  0  0  0
  -30.0758  -25.9321   17.5890 C   0  0  0  0  0  0  0  0  0  0  0  0
  -22.5311  -19.8641   24.1291 C   0  0  0  0  0  0  0  0  0  0  0  0
  -29.3819  -26.9358   18.5127 C   0  0  0  0  0  0  0  0  0  0  0  0
  -29.2280  -24.6798   17.3732 C   0  0  0  0  0  0  0  0  0  0  0  0
  -28.0809  -25.0210   19.5266 C   0  0  0  0  0  0  0  0  0  0  0  0
  -23.3916  -19.6228   22.8830 C   0  0  1  0  0  0  0  0  0  0  0  0
  -22.2537  -16.3903   21.2432 C   0  0  1  0  0  0  0  0  0  0  0  0
  -28.9249  -26.2708   19.8258 C   0  0  2  0  0  0  0  0  0  0  0  0
  -27.8142  -21.8020   22.8996 C   0  0  0  0  0  0  0  0  0  0  0  0
  -20.2421   -8.9343   21.8470 C   0  0  0  0  0  0  0  0  0  0  0  0
  -31.8956  -15.6904   18.4888 C   0  0  0  0  0  0  0  0  0  0  0  0
  -22.8974  -14.0194   25.1579 C   0  0  0  0  0  0  0  0  0  0  0  0
  -22.3986  -11.5693   25.0294 C   0  0  0  0  0  0  0  0  0  0  0  0
  -20.5293  -13.2208   25.0625 C   0  0  0  0  0  0  0  0  0  0  0  0
  -20.7535  -10.8955   18.6271 C   0  0  0  0  0  0  0  0  0  0  0  0
  -29.9953  -14.1803   19.1088 C   0  0  0  0  0  0  0  0  0  0  0  0
  -28.5210  -14.0136   19.4569 C   0  0  0  0  0  0  0  0  0  1  0  0
  -30.2044  -16.5134   20.1619 C   0  0  0  0  0  0  0  0  0  0  0  0
  -21.9506  -12.9990   22.9834 C   0  0  1  0  0  0  0  0  0  0  0  0
  -20.3757  -10.1844   20.9914 C   0  0  2  0  0  0  0  0  0  0  0  0
  -30.4238  -15.6463   18.9152 C   0  0  1  0  0  0  0  0  0  0  0  0
  -21.9590  -12.9649   24.5378 C   0  0  0  0  0  0  0  0  0  0  0  0
  -26.8558  -27.3376   20.6394 N   0  0  0  0  0  0  0  0  0  0  0  0
  -28.1939  -27.2487   20.7266 N   0  0  0  0  0  0  0  0  0  0  0  0
  -22.4964  -15.0000   21.6335 N   0  0  0  0  0  0  0  0  0  0  0  0
  -28.8357  -24.1018   18.6604 N   0  0  0  0  0  0  0  0  0  0  0  0
  -30.0745  -28.1234   21.8706 N   0  0  0  0  0  0  0  0  0  0  0  0
  -26.6070  -30.3668   23.6981 N   0  0  0  0  0  0  0  0  0  0  0  0
  -28.7895  -22.3394   20.2270 N   0  0  0  0  0  0  0  0  0  0  0  0
  -22.7892  -18.6117   22.0409 N   0  0  0  0  0  0  0  0  0  0  0  0
  -21.0502  -12.0292   22.3693 N   0  0  0  0  0  0  0  0  0  0  0  0
  -20.6245   -9.7657   19.5830 N   0  3  0  0  0  0  0  0  0  0  0  0
  -28.8867  -30.1196   23.7256 O   0  0  0  0  0  0  0  0  0  0  0  0
  -23.6518  -16.7341   23.1146 O   0  0  0  0  0  0  0  0  0  0  0  0
  -20.4392  -14.8070   22.7138 O   0  0  0  0  0  0  0  0  0  0  0  0
  -22.6695  -10.9316   21.1241 O   0  0  0  0  0  0  0  0  0  0  0  0
  -29.8213  -22.0699   18.1668 O   0  0  0  0  0  0  0  0  0  0  0  0
  -21.2297  -29.7657   22.3718 O   0  0  0  0  0  0  0  0  0  0  0  0
  -27.7366  -14.5771   18.4064 O   0  0  0  0  0  0  0  0  0  1  0  0
  -30.5551  -17.8659   19.9047 O   0  0  0  0  0  0  0  0  0  0  0  0
  -17.4642  -25.7531   22.7236 F   0  0  0  0  0  0  0  0  0  0  0  0
  -19.6987  -29.4534   24.6524 F   0  0  0  0  0  0  0  0  0  0  0  0
  1  2  1  0  0  0  0
  1  5  2  0  0  0  0
  2  6  2  0  0  0  0
  3  9  2  0  0  0  0
  3 18  1  0  0  0  0
  4 10  1  0  0  0  0
  4 18  2  0  0  0  0
  5 20  1  0  0  0  0
  6 22  1  0  0  0  0
  7 11  2  0  0  0  0
  7 21  1  0  0  0  0
  8 12  2  0  0  0  0
  8 24  1  0  0  0  0
  9 26  1  0  0  0  0
 10 26  2  0  0  0  0
 11 27  1  0  0  0  0
 12 28  1  0  0  0  0
 13 14  2  0  0  0  0
 13 29  1  0  0  0  0
 14 30  1  0  0  0  0
 15 23  1  0  0  0  0
 15 27  2  0  0  0  0
 16 25  1  0  0  0  0
 16 28  2  0  0  0  0
 17 30  2  0  0  0  0
 17 31  1  0  0  0  0
 18 32  1  0  0  0  0
 19 32  1  0  0  0  0
 19 33  2  0  0  0  0
 19 34  1  0  0  0  0
 20 22  2  0  0  0  0
 20 39  1  0  0  0  0
 21 23  2  0  0  0  0
 21 40  1  0  0  0  0
 22 48  1  0  0  0  0
 23 41  1  0  0  0  0
 24 25  2  0  0  0  0
 24 51  1  0  0  0  0
 25 71  1  0  0  0  0
 26 80  1  0  0  0  0
 27 81  1  0  0  0  0
 28 82  1  0  0  0  0
 29 31  2  0  0  0  0
 29 80  1  0  0  0  0
 30 83  1  0  0  0  0
 31 84  1  0  0  0  0
 32 65  2  0  0  0  0
 33 66  1  0  0  0  0
 33 69  1  0  0  0  0
 34 70  1  0  0  0  0
 34 75  2  0  0  0  0
 35 49  1  0  0  0  0
 35 72  1  0  0  0  0
 35 76  2  0  0  0  0
 36 61  1  0  0  0  0
 36 67  1  0  0  0  0
 36 77  2  0  0  0  0
 37 62  1  0  0  0  0
 37 73  1  0  0  0  0
 37 78  2  0  0  0  0
 38 68  1  0  0  0  0
 38 71  1  0  0  0  0
 38 79  2  0  0  0  0
 39 42  1  0  0  0  0
 40 49  1  0  0  0  0
 41 67  1  0  0  0  0
 42 44  1  0  0  0  0
 43 45  1  0  0  0  0
 43 46  1  0  0  0  0
 44 48  1  0  0  0  0
 45 50  1  0  0  0  0
 46 68  1  0  0  0  0
 47 50  1  0  0  0  0
 47 68  1  0  0  0  0
 48 72  1  0  0  0  0
 49 67  1  0  0  0  0
 50 66  1  0  0  0  0
 52 62  1  0  0  0  0
 53 63  1  0  0  0  0
 54 64  1  0  0  0  0
 55 64  1  0  0  0  0
 56 64  1  0  0  0  0
 57 74  1  0  0  0  0
 58 59  1  0  0  0  0
 58 63  1  0  0  0  0
 59 81  1  0  0  0  0
 60 63  1  0  0  0  0
 60 82  1  0  0  0  0
 61 64  1  0  0  0  0
 61 73  1  0  0  0  0
 62 74  1  0  0  0  0
 65 66  1  0  0  0  0
M  CHG  1  74   1
M  ISO  4  38 100  59 101  71 100  81 101
M  END
> <Batch ID>
0138

> <Smiles>
CNC(C)C(=O)NC(C(=O)N1Cc2cc([101O:1][101CH2:1]CC(C)COc3ccc(C)c([100NH:0][100C:0](=O)N4CCCC(n5nc(-c6ccc(Oc7ccc(F)cc7F)cc6)c(C(N)=O)c5N)C4)c3)ccc2CC1C(=O)NC1CCCc2ccccc21)C(C)(C)C

> <Shape>
0.253

> <Color>
0.044

> <Negative vol penalty>
0.000

$$$$

  -OEChem-04052302453D

 85 93  0     1  0  0  0  0  0999 V2000
  -25.0333  -22.0087   18.5745 C   0  0  0  0  0  0  0  0  0  0  0  0
  -25.4826  -20.6946   18.6400 C   0  0  0  0  0  0  0  0  0  0  0  0
  -25.2304  -31.2316   21.6484 C   0  0  0  0  0  0  0  0  0  0  0  0
  -27.4647  -31.4563   20.7572 C   0  0  0  0  0  0  0  0  0  0  0  0
  -24.0184  -22.4376   19.4273 C   0  0  0  0  0  0  0  0  0  0  0  0
  -24.9091  -19.8059   19.5500 C   0  0  0  0  0  0  0  0  0  0  0  0
  -26.2871  -15.0931   19.2425 C   0  0  0  0  0  0  0  0  0  0  0  0
  -31.0807  -19.0933   20.9542 C   0  0  0  0  0  0  0  0  0  0  0  0
  -25.3044  -32.5269   22.1606 C   0  0  0  0  0  0  0  0  0  0  0  0
  -27.5387  -32.7517   21.2694 C   0  0  0  0  0  0  0  0  0  0  0  0
  -27.5489  -14.6496   19.6359 C   0  0  0  0  0  0  0  0  0  0  0  0
  -31.3031  -17.9562   21.7307 C   0  0  0  0  0  0  0  0  0  0  0  0
  -26.6939  -34.0761   24.8240 C   0  0  0  0  0  0  0  0  0  0  0  0
  -26.2503  -34.2820   26.1303 C   0  0  0  0  0  0  0  0  0  0  0  0
  -26.5953  -13.7523   21.6619 C   0  0  0  0  0  0  0  0  0  0  0  0
  -28.6958  -18.7933   21.1977 C   0  0  0  0  0  0  0  0  0  0  0  0
  -24.5990  -35.8497   25.3226 C   0  0  0  0  0  0  0  0  0  0  0  0
  -26.3106  -30.6963   20.9468 C   0  0  0  0  0  0  0  0  0  0  0  0
  -25.7674  -28.9712   19.1477 C   0  0  0  0  0  0  0  0  0  0  0  0
  -23.4413  -21.5563   20.3565 C   0  0  0  0  0  0  0  0  0  0  0  0
  -25.1697  -14.8788   20.0623 C   0  0  0  0  0  0  0  0  0  0  0  0
  -23.8671  -20.2132   20.4027 C   0  0  0  0  0  0  0  0  0  0  0  0
  -25.3199  -14.1918   21.2754 C   0  0  0  0  0  0  0  0  0  0  0  0
  -29.7771  -19.5120   20.6877 C   0  0  0  0  0  0  0  0  0  0  0  0
  -26.4585  -33.2869   21.9711 C   0  0  0  0  0  0  0  0  0  0  0  0
  -27.7037  -13.9816   20.8471 C   0  0  0  0  0  0  0  0  0  0  0  0
  -26.0900  -34.7571   23.7670 C   0  0  0  0  0  0  0  0  0  0  0  0
  -30.2218  -17.2375   22.2407 C   0  0  0  0  0  0  0  0  0  0  0  0
  -25.2029  -35.1688   26.3796 C   0  0  0  0  0  0  0  0  0  0  0  0
  -28.9182  -17.6561   21.9742 C   0  0  0  0  0  0  0  0  0  0  0  0
  -25.0426  -35.6439   24.0162 C   0  0  0  0  0  0  0  0  0  0  0  0
  -26.2349  -29.3581   20.4179 C   0  0  0  0  0  0  0  0  0  0  0  0
  -25.9005  -27.6043   19.1345 C   0  0  0  0  0  0  0  0  0  0  0  0
  -25.2583  -29.7756   18.0755 C   0  0  0  0  0  0  0  0  0  0  0  0
  -23.0974  -16.7615   21.5671 C   0  0  0  0  0  0  0  0  0  0  0  0
  -21.6267  -13.9496   22.2398 C   0  0  0  0  0  0  0  0  0  0  0  0
  -21.8780  -10.5678   22.6237 C   0  0  0  0  0  0  0  0  0  0  0  0
  -28.8688  -23.1049   20.0788 C   0  0  0  0  0  0  0  0  0  0  0  0
  -22.3406  -22.0713   21.2501 C   0  0  0  0  0  0  0  0  0  0  0  0
  -23.8109  -15.3398   19.6112 C   0  0  0  0  0  0  0  0  0  0  0  0
  -24.1489  -13.9185   22.1823 C   0  0  0  0  0  0  0  0  0  0  0  0
  -22.1062  -21.1899   22.4727 C   0  0  0  0  0  0  0  0  0  0  0  0
  -26.9415  -24.3593   22.8733 C   0  0  0  0  0  0  0  0  0  0  0  0
  -21.9782  -19.7348   22.0475 C   0  0  0  0  0  0  0  0  0  0  0  0
  -26.5465  -25.7492   22.3708 C   0  0  0  0  0  0  0  0  0  0  0  0
  -28.3557  -23.9934   22.4325 C   0  0  0  0  0  0  0  0  0  0  0  0
  -28.1875  -25.4575   20.4572 C   0  0  0  0  0  0  0  0  0  0  0  0
  -23.2793  -19.2369   21.4055 C   0  0  1  0  0  0  0  0  0  0  0  0
  -22.8281  -15.5205   20.7639 C   0  0  1  0  0  0  0  0  0  0  0  0
  -26.7595  -25.8770   20.8508 C   0  0  2  0  0  0  0  0  0  0  0  0
  -20.5140   -8.5454   23.2124 C   0  0  0  0  0  0  0  0  0  0  0  0
  -21.7047  -14.7563   25.1815 C   0  0  0  0  0  0  0  0  0  0  0  0
  -21.2280  -12.3715   25.7761 C   0  0  0  0  0  0  0  0  0  0  0  0
  -19.5685  -13.6803   24.4511 C   0  0  0  0  0  0  0  0  0  0  0  0
  -30.9333  -13.6209   24.4549 C   0  0  0  0  0  0  0  0  0  0  0  0
  -31.5190  -12.5805   22.2558 C   0  0  0  0  0  0  0  0  0  0  0  0
  -22.3837   -9.3165   19.9898 C   0  0  0  0  0  0  0  0  0  0  0  0
  -29.5404  -20.7266   19.8558 C   0  0  0  0  0  0  0  0  0  0  0  0
  -29.1908  -13.4884   22.6363 C   0  0  0  0  0  0  0  0  0  1  0  0
  -31.1564  -15.0556   22.3882 C   0  0  0  0  0  0  0  0  0  0  0  0
  -21.7199  -12.9338   23.3527 C   0  0  1  0  0  0  0  0  0  0  0  0
  -21.0317   -9.4275   22.0870 C   0  0  2  0  0  0  0  0  0  0  0  0
  -21.0779  -13.4422   24.6744 C   0  0  0  0  0  0  0  0  0  0  0  0
  -30.6933  -13.6884   22.9346 C   0  0  0  0  0  0  0  0  0  0  0  0
  -26.6350  -28.3208   21.1581 N   0  0  0  0  0  0  0  0  0  0  0  0
  -26.4192  -27.2685   20.3505 N   0  0  0  0  0  0  0  0  0  0  0  0
  -22.8418  -14.3947   21.7001 N   0  0  0  0  0  0  0  0  0  0  0  0
  -28.4864  -24.1178   20.9738 N   0  0  0  0  0  0  0  0  0  0  0  0
  -25.6232  -26.6687   18.2016 N   0  0  0  0  0  0  0  0  0  0  0  0
  -25.1899  -31.1637   18.2559 N   0  0  0  0  0  0  0  0  0  0  0  0
  -23.0517  -17.9296   20.8302 N   0  0  0  0  0  0  0  0  0  0  0  0
  -21.1277  -11.7053   22.8347 N   0  0  0  0  0  0  0  0  0  0  0  0
  -29.1410  -21.8675   20.6493 N   0  0  0  0  0  0  0  0  0  0  0  0
  -21.8320   -8.5816   21.1571 N   0  3  0  0  0  0  0  0  0  0  0  0
  -24.8602  -29.2764   16.9957 O   0  0  0  0  0  0  0  0  0  0  0  0
  -23.3280  -16.6665   22.7669 O   0  0  0  0  0  0  0  0  0  0  0  0
  -20.5166  -14.3287   21.8585 O   0  0  0  0  0  0  0  0  0  0  0  0
  -23.0833  -10.4592   22.8380 O   0  0  0  0  0  0  0  0  0  0  0  0
  -28.9560  -23.2881   18.8598 O   0  0  0  0  0  0  0  0  0  0  0  0
  -26.5310  -34.5510   22.4705 O   0  0  0  0  0  0  0  0  0  0  0  0
  -28.9344  -13.5483   21.2338 O   0  0  0  0  0  0  0  0  0  1  0  0
  -30.4418  -16.1202   23.0029 O   0  0  0  0  0  0  0  0  0  0  0  0
  -24.7760  -35.3652   27.6340 F   0  0  0  0  0  0  0  0  0  0  0  0
  -27.8754  -16.9696   22.4610 F   0  0  0  0  0  0  0  0  0  0  0  0
  -24.4578  -36.3000   23.0047 F   0  0  0  0  0  0  0  0  0  0  0  0
  1  2  1  0  0  0  0
  1  5  2  0  0  0  0
  2  6  2  0  0  0  0
  3  9  2  0  0  0  0
  3 18  1  0  0  0  0
  4 10  1  0  0  0  0
  4 18  2  0  0  0  0
  5 20  1  0  0  0  0
  6 22  1  0  0  0  0
  7 11  2  0  0  0  0
  7 21  1  0  0  0  0
  8 12  2  0  0  0  0
  8 24  1  0  0  0  0
  9 25  1  0  0  0  0
 10 25  2  0  0  0  0
 11 26  1  0  0  0  0
 12 28  1  0  0  0  0
 13 14  2  0  0  0  0
 13 27  1  0  0  0  0
 14 29  1  0  0  0  0
 15 23  1  0  0  0  0
 15 26  2  0  0  0  0
 16 24  2  0  0  0  0
 16 30  1  0  0  0  0
 17 29  2  0  0  0  0
 17 31  1  0  0  0  0
 18 32  1  0  0  0  0
 19 32  1  0  0  0  0
 19 33  2  0  0  0  0
 19 34  1  0  0  0  0
 20 22  2  0  0  0  0
 20 39  1  0  0  0  0
 21 23  2  0  0  0  0
 21 40  1  0  0  0  0
 22 48  1  0  0  0  0
 23 41  1  0  0  0  0
 24 58  1  0  0  0  0
 25 80  1  0  0  0  0
 26 81  1  0  0  0  0
 27 31  2  0  0  0  0
 27 80  1  0  0  0  0
 28 30  2  0  0  0  0
 28 82  1  0  0  0  0
 29 83  1  0  0  0  0
 30 84  1  0  0  0  0
 31 85  1  0  0  0  0
 32 65  2  0  0  0  0
 33 66  1  0  0  0  0
 33 69  1  0  0  0  0
 34 70  1  0  0  0  0
 34 75  2  0  0  0  0
 35 49  1  0  0  0  0
 35 71  1  0  0  0  0
 35 76  2  0  0  0  0
 36 61  1  0  0  0  0
 36 67  1  0  0  0  0
 36 77  2  0  0  0  0
 37 62  1  0  0  0  0
 37 72  1  0  0  0  0
 37 78  2  0  0  0  0
 38 68  1  0  0  0  0
 38 73  1  0  0  0  0
 38 79  2  0  0  0  0
 39 42  1  0  0  0  0
 40 49  1  0  0  0  0
 41 67  1  0  0  0  0
 42 44  1  0  0  0  0
 43 45  1  0  0  0  0
 43 46  1  0  0  0  0
 44 48  1  0  0  0  0
 45 50  1  0  0  0  0
 46 68  1  0  0  0  0
 47 50  1  0  0  0  0
 47 68  1  0  0  0  0
 48 71  1  0  0  0  0
 49 67  1  0  0  0  0
 50 66  1  0  0  0  0
 51 62  1  0  0  0  0
 52 63  1  0  0  0  0
 53 63  1  0  0  0  0
 54 63  1  0  0  0  0
 55 64  1  0  0  0  0
 56 64  1  0  0  0  0
 57 74  1  0  0  0  0
 58 73  1  0  0  0  0
 59 64  1  0  0  0  0
 59 81  1  0  0  0  0
 60 64  1  0  0  0  0
 60 82  1  0  0  0  0
 61 63  1  0  0  0  0
 61 72  1  0  0  0  0
 62 74  1  0  0  0  0
 65 66  1  0  0  0  0
M  CHG  1  74   1
M  ISO  4  38 100  59 101  73 100  81 101
M  END
> <Batch ID>
0138

> <Smiles>
CNC(C)C(=O)NC(C(=O)N1Cc2cc([101O:1][101CH2:1]C(C)(C)COc3ccc(C[100NH:0][100C:0](=O)N4CCCC(n5nc(-c6ccc(Oc7ccc(F)cc7F)cc6)c(C(N)=O)c5N)C4)cc3F)ccc2CC1C(=O)NC1CCCc2ccccc21)C(C)(C)C

> <Shape>
0.233

> <Color>
0.054

> <Negative vol penalty>
0.000

$$$$

  -OEChem-04052302453D

 84 92  0     1  0  0  0  0  0999 V2000
  -17.1555  -26.5976   22.9885 C   0  0  0  0  0  0  0  0  0  0  0  0
  -18.3919  -26.0989   22.5910 C   0  0  0  0  0  0  0  0  0  0  0  0
  -24.4551   -9.0470   21.4243 C   0  0  0  0  0  0  0  0  0  0  0  0
  -24.0963  -10.8345   23.0096 C   0  0  0  0  0  0  0  0  0  0  0  0
  -16.8904  -27.9626   22.8869 C   0  0  0  0  0  0  0  0  0  0  0  0
  -19.3635  -26.9648   22.0904 C   0  0  0  0  0  0  0  0  0  0  0  0
  -25.4259  -26.5229   22.8378 C   0  0  0  0  0  0  0  0  0  0  0  0
  -23.9425   -8.1302   22.3421 C   0  0  0  0  0  0  0  0  0  0  0  0
  -23.5837   -9.9177   23.9274 C   0  0  0  0  0  0  0  0  0  0  0  0
  -26.4376  -26.0213   22.0202 C   0  0  0  0  0  0  0  0  0  0  0  0
  -22.3940   -5.3714   24.1326 C   0  0  0  0  0  0  0  0  0  0  0  0
  -21.4849   -4.4233   23.6634 C   0  0  0  0  0  0  0  0  0  0  0  0
  -26.8826  -28.2508   21.2133 C   0  0  0  0  0  0  0  0  0  0  0  0
  -27.3523  -19.0096   18.7906 C   0  0  0  0  0  0  0  0  0  0  0  0
  -19.9925   -6.1947   22.9760 C   0  0  0  0  0  0  0  0  0  0  0  0
  -29.6591  -19.1358   19.3558 C   0  0  0  0  0  0  0  0  0  0  0  0
  -24.5320  -10.3992   21.7581 C   0  0  0  0  0  0  0  0  0  0  0  0
  -24.3446  -12.0668   19.8368 C   0  0  0  0  0  0  0  0  0  0  0  0
  -17.8627  -28.8471   22.3939 C   0  0  0  0  0  0  0  0  0  0  0  0
  -25.1270  -27.8930   22.8412 C   0  0  0  0  0  0  0  0  0  0  0  0
  -19.1106  -28.3428   21.9808 C   0  0  0  0  0  0  0  0  0  0  0  0
  -25.8683  -28.7676   22.0338 C   0  0  0  0  0  0  0  0  0  0  0  0
  -27.3042  -20.3992   18.8044 C   0  0  0  0  0  0  0  0  0  0  0  0
  -28.5484  -18.3582   19.0705 C   0  0  0  0  0  0  0  0  0  0  0  0
  -23.5068   -8.5655   23.5936 C   0  0  0  0  0  0  0  0  0  0  0  0
  -27.1643  -26.8849   21.2056 C   0  0  0  0  0  0  0  0  0  0  0  0
  -22.1024   -6.7311   24.0237 C   0  0  0  0  0  0  0  0  0  0  0  0
  -20.2841   -4.8349   23.0851 C   0  0  0  0  0  0  0  0  0  0  0  0
  -20.9017   -7.1427   23.4453 C   0  0  0  0  0  0  0  0  0  0  0  0
  -25.0619  -11.3467   20.8107 C   0  0  0  0  0  0  0  0  0  0  0  0
  -28.4705  -21.0854   19.1018 C   0  0  0  0  0  0  0  0  0  0  0  0
  -25.2966  -12.8243   19.1993 C   0  0  0  0  0  0  0  0  0  0  0  0
  -22.9429  -12.0523   19.5352 C   0  0  0  0  0  0  0  0  0  0  0  0
  -22.5707  -29.6332   22.1058 C   0  0  0  0  0  0  0  0  0  0  0  0
  -24.3752  -32.0656   23.2674 C   0  0  0  0  0  0  0  0  0  0  0  0
  -27.4838  -33.2958   23.9529 C   0  0  0  0  0  0  0  0  0  0  0  0
  -29.7530  -16.1602   19.3240 C   0  0  0  0  0  0  0  0  0  0  0  0
  -17.5132  -30.3080   22.2583 C   0  0  0  0  0  0  0  0  0  0  0  0
  -24.0505  -28.4220   23.7488 C   0  0  0  0  0  0  0  0  0  0  0  0
  -25.6003  -30.2496   22.0159 C   0  0  0  0  0  0  0  0  0  0  0  0
  -18.7297  -31.2102   22.0680 C   0  0  0  0  0  0  0  0  0  0  0  0
  -30.3495  -12.6521   19.4437 C   0  0  0  0  0  0  0  0  0  0  0  0
  -19.6695  -30.6248   21.0188 C   0  0  0  0  0  0  0  0  0  0  0  0
  -28.9681  -12.0590   19.7299 C   0  0  0  0  0  0  0  0  0  0  0  0
  -30.5634  -13.9729   20.1808 C   0  0  0  0  0  0  0  0  0  0  0  0
  -28.1360  -14.3877   20.2511 C   0  0  0  0  0  0  0  0  0  0  0  0
  -20.1991  -29.2538   21.4560 C   0  0  1  0  0  0  0  0  0  0  0  0
  -23.4874  -29.7633   23.2893 C   0  0  1  0  0  0  0  0  0  0  0  0
  -27.8495  -13.0893   19.4793 C   0  0  2  0  0  0  0  0  0  0  0  0
  -25.3493  -21.6403   19.7659 C   0  0  0  0  0  0  0  0  0  0  0  0
  -28.6416  -35.3271   24.8643 C   0  0  0  0  0  0  0  0  0  0  0  0
  -30.8089  -25.3359   19.8035 C   0  0  0  0  0  0  0  0  0  0  0  0
  -23.8663  -33.5315   20.6403 C   0  0  0  0  0  0  0  0  0  0  0  0
  -25.7650  -35.0619   21.2070 C   0  0  0  0  0  0  0  0  0  0  0  0
  -23.7531  -34.9752   22.6793 C   0  0  0  0  0  0  0  0  0  0  0  0
  -28.6778  -31.7579   26.1818 C   0  0  0  0  0  0  0  0  0  0  0  0
  -26.0288  -21.1079   18.5060 C   0  0  0  0  0  0  0  0  0  0  0  0
  -28.3904  -24.9916   20.4518 C   0  0  0  0  0  0  0  0  0  1  0  0
  -29.6928  -23.0977   19.4372 C   0  0  0  0  0  0  0  0  0  0  0  0
  -25.3723  -33.0334   22.6774 C   0  0  1  0  0  0  0  0  0  0  0  0
  -28.0520  -33.9641   25.1918 C   0  0  2  0  0  0  0  0  0  0  0  0
  -29.4981  -24.6165   19.4633 C   0  0  2  0  0  0  0  0  0  0  0  0
  -24.6932  -34.1224   21.7996 C   0  0  0  0  0  0  0  0  0  0  0  0
  -29.6510  -20.4875   19.3787 N   0  0  0  0  0  0  0  0  0  0  0  0
  -26.3689  -11.6220   20.7969 N   0  0  0  0  0  0  0  0  0  0  0  0
  -26.4802  -12.5234   19.8064 N   0  0  0  0  0  0  0  0  0  0  0  0
  -24.5335  -30.7175   22.9161 N   0  0  0  0  0  0  0  0  0  0  0  0
  -29.4676  -14.9008   19.8925 N   0  0  0  0  0  0  0  0  0  0  0  0
  -25.2283  -13.7118   18.1844 N   0  0  0  0  0  0  0  0  0  0  0  0
  -22.1063  -11.2164   20.2873 N   0  0  0  0  0  0  0  0  0  0  0  0
  -28.6289  -16.9435   19.0641 N   0  0  0  0  0  0  0  0  0  0  0  0
  -21.2490  -29.4078   22.4401 N   0  0  0  0  0  0  0  0  0  0  0  0
  -26.1399  -33.5632   23.7992 N   0  0  0  0  0  0  0  0  0  0  0  0
  -29.1244  -33.1196   25.7902 N   0  3  0  0  0  0  0  0  0  0  0  0
  -22.4495  -12.7474   18.6150 O   0  0  0  0  0  0  0  0  0  0  0  0
  -23.0285  -29.7315   20.9734 O   0  0  0  0  0  0  0  0  0  0  0  0
  -23.4929  -32.4892   24.0183 O   0  0  0  0  0  0  0  0  0  0  0  0
  -28.1650  -32.6086   23.1950 O   0  0  0  0  0  0  0  0  0  0  0  0
  -30.9072  -16.5066   19.0602 O   0  0  0  0  0  0  0  0  0  0  0  0
  -23.0064   -7.6711   24.4893 O   0  0  0  0  0  0  0  0  0  0  0  0
  -28.1519  -26.3978   20.4061 O   0  0  0  0  0  0  0  0  0  1  0  0
  -28.4635  -22.4557   19.1252 O   0  0  0  0  0  0  0  0  0  0  0  0
  -19.4119   -3.9244   22.6331 F   0  0  0  0  0  0  0  0  0  0  0  0
  -20.6166   -8.4476   23.3367 F   0  0  0  0  0  0  0  0  0  0  0  0
  1  2  1  0  0  0  0
  1  5  2  0  0  0  0
  2  6  2  0  0  0  0
  3  8  2  0  0  0  0
  3 17  1  0  0  0  0
  4  9  1  0  0  0  0
  4 17  2  0  0  0  0
  5 19  1  0  0  0  0
  6 21  1  0  0  0  0
  7 10  2  0  0  0  0
  7 20  1  0  0  0  0
  8 25  1  0  0  0  0
  9 25  2  0  0  0  0
 10 26  1  0  0  0  0
 11 12  2  0  0  0  0
 11 27  1  0  0  0  0
 12 28  1  0  0  0  0
 13 22  1  0  0  0  0
 13 26  2  0  0  0  0
 14 23  1  0  0  0  0
 14 24  2  0  0  0  0
 15 28  2  0  0  0  0
 15 29  1  0  0  0  0
 16 24  1  0  0  0  0
 16 64  2  0  0  0  0
 17 30  1  0  0  0  0
 18 30  1  0  0  0  0
 18 32  2  0  0  0  0
 18 33  1  0  0  0  0
 19 21  2  0  0  0  0
 19 38  1  0  0  0  0
 20 22  2  0  0  0  0
 20 39  1  0  0  0  0
 21 47  1  0  0  0  0
 22 40  1  0  0  0  0
 23 31  2  0  0  0  0
 23 57  1  0  0  0  0
 24 71  1  0  0  0  0
 25 80  1  0  0  0  0
 26 81  1  0  0  0  0
 27 29  2  0  0  0  0
 27 80  1  0  0  0  0
 28 83  1  0  0  0  0
 29 84  1  0  0  0  0
 30 65  2  0  0  0  0
 31 64  1  0  0  0  0
 31 82  1  0  0  0  0
 32 66  1  0  0  0  0
 32 69  1  0  0  0  0
 33 70  1  0  0  0  0
 33 75  2  0  0  0  0
 34 48  1  0  0  0  0
 34 72  1  0  0  0  0
 34 76  2  0  0  0  0
 35 60  1  0  0  0  0
 35 67  1  0  0  0  0
 35 77  2  0  0  0  0
 36 61  1  0  0  0  0
 36 73  1  0  0  0  0
 36 78  2  0  0  0  0
 37 68  1  0  0  0  0
 37 71  1  0  0  0  0
 37 79  2  0  0  0  0
 38 41  1  0  0  0  0
 39 48  1  0  0  0  0
 40 67  1  0  0  0  0
 41 43  1  0  0  0  0
 42 44  1  0  0  0  0
 42 45  1  0  0  0  0
 43 47  1  0  0  0  0
 44 49  1  0  0  0  0
 45 68  1  0  0  0  0
 46 49  1  0  0  0  0
 46 68  1  0  0  0  0
 47 72  1  0  0  0  0
 48 67  1  0  0  0  0
 49 66  1  0  0  0  0
 50 57  1  0  0  0  0
 51 61  1  0  0  0  0
 52 62  1  0  0  0  0
 53 63  1  0  0  0  0
 54 63  1  0  0  0  0
 55 63  1  0  0  0  0
 56 74  1  0  0  0  0
 58 62  1  0  0  0  0
 58 81  1  0  0  0  0
 59 62  1  0  0  0  0
 59 82  1  0  0  0  0
 60 63  1  0  0  0  0
 60 73  1  0  0  0  0
 61 74  1  0  0  0  0
 65 66  1  0  0  0  0
M  CHG  1  74   1
M  ISO  4  37 100  58 101  71 100  81 101
M  END
> <Batch ID>
0138

> <Smiles>
CCc1cc([100NH:0][100C:0](=O)N2CCCC(n3nc(-c4ccc(Oc5ccc(F)cc5F)cc4)c(C(N)=O)c3N)C2)cnc1OCC(C)[101CH2:1][101O:1]c1ccc2c(c1)CN(C(=O)C(NC(=O)C(C)NC)C(C)(C)C)C(C(=O)NC1CCCc3ccccc31)C2

> <Shape>
0.336

> <Color>
0.139

> <Negative vol penalty>
0.000

$$$$

  -OEChem-04052302453D

 84 93  0     1  0  0  0  0  0999 V2000
  -28.0680  -34.1332   26.5179 C   0  0  0  0  0  0  0  0  0  0  0  0
  -28.3939  -33.0581   25.6973 C   0  0  0  0  0  0  0  0  0  0  0  0
  -24.2081   -9.6389   21.6012 C   0  0  0  0  0  0  0  0  0  0  0  0
  -23.2262  -11.0031   19.8657 C   0  0  0  0  0  0  0  0  0  0  0  0
  -26.7632  -34.2807   26.9864 C   0  0  0  0  0  0  0  0  0  0  0  0
  -27.4151  -32.1292   25.3456 C   0  0  0  0  0  0  0  0  0  0  0  0
  -26.9188  -29.1413   20.0228 C   0  0  0  0  0  0  0  0  0  0  0  0
  -22.9351   -9.3408   22.0871 C   0  0  0  0  0  0  0  0  0  0  0  0
  -21.9532  -10.7049   20.3516 C   0  0  0  0  0  0  0  0  0  0  0  0
  -27.2986  -27.8593   19.6278 C   0  0  0  0  0  0  0  0  0  0  0  0
  -20.3829   -7.2738   21.2828 C   0  0  0  0  0  0  0  0  0  0  0  0
  -20.1079   -5.9456   21.6080 C   0  0  0  0  0  0  0  0  0  0  0  0
  -25.0642  -27.0666   20.0728 C   0  0  0  0  0  0  0  0  0  0  0  0
  -26.6675  -20.3276   17.4928 C   0  0  0  0  0  0  0  0  0  0  0  0
  -26.7236  -17.9147   17.3852 C   0  0  0  0  0  0  0  0  0  0  0  0
  -28.0959  -19.0844   18.9932 C   0  0  0  0  0  0  0  0  0  0  0  0
  -19.6522   -6.5985   23.8890 C   0  0  0  0  0  0  0  0  0  0  0  0
  -24.3537  -10.4702   20.4905 C   0  0  0  0  0  0  0  0  0  0  0  0
  -26.3963  -10.0667   19.0166 C   0  0  0  0  0  0  0  0  0  0  0  0
  -25.7657  -33.3585   26.6323 C   0  0  0  0  0  0  0  0  0  0  0  0
  -25.6095  -29.3936   20.4569 C   0  0  0  0  0  0  0  0  0  0  0  0
  -26.0960  -32.2638   25.8108 C   0  0  0  0  0  0  0  0  0  0  0  0
  -24.6695  -28.3532   20.4703 C   0  0  0  0  0  0  0  0  0  0  0  0
  -26.2288  -19.1335   16.9209 C   0  0  0  0  0  0  0  0  0  0  0  0
  -27.6011  -20.3032   18.5289 C   0  0  0  0  0  0  0  0  0  0  0  0
  -27.6571  -17.8902   18.4214 C   0  0  0  0  0  0  0  0  0  0  0  0
  -21.8076   -9.8737   21.4623 C   0  0  0  0  0  0  0  0  0  0  0  0
  -26.3721  -26.8211   19.6555 C   0  0  0  0  0  0  0  0  0  0  0  0
  -20.2927   -8.2644   22.2607 C   0  0  0  0  0  0  0  0  0  0  0  0
  -19.7425   -5.6080   22.9111 C   0  0  0  0  0  0  0  0  0  0  0  0
  -19.9273   -7.9268   23.5638 C   0  0  0  0  0  0  0  0  0  0  0  0
  -25.6685  -10.7790   19.9885 C   0  0  0  0  0  0  0  0  0  0  0  0
  -27.5753  -10.7605   18.8937 C   0  0  0  0  0  0  0  0  0  0  0  0
  -28.1917  -23.7269   19.6694 C   0  0  0  0  0  0  0  0  0  0  0  0
  -27.7488  -24.9549   19.9596 C   0  0  0  0  0  0  0  0  0  1  0  0
  -26.0386   -8.8837   18.2897 C   0  0  0  0  0  0  0  0  0  0  0  0
  -24.3015  -30.3982   23.1741 C   0  0  0  0  0  0  0  0  0  0  0  0
  -21.5807  -30.4047   21.4079 C   0  0  0  0  0  0  0  0  0  0  0  0
  -19.8741  -29.1948   18.7115 C   0  0  0  0  0  0  0  0  0  0  0  0
  -29.0889  -16.4505   19.9126 C   0  0  0  0  0  0  0  0  0  0  0  0
  -24.3801  -33.5335   27.2017 C   0  0  0  0  0  0  0  0  0  0  0  0
  -25.2083  -30.7878   20.8543 C   0  0  0  0  0  0  0  0  0  0  0  0
  -23.2459  -28.5763   20.9086 C   0  0  0  0  0  0  0  0  0  0  0  0
  -29.3080  -23.0255   20.3762 C   0  0  0  0  0  0  0  0  0  0  0  0
  -27.5678  -22.8022   18.6678 C   0  0  0  0  0  0  0  0  0  0  0  0
  -23.3160  -32.7127   26.4777 C   0  0  0  0  0  0  0  0  0  0  0  0
  -30.5506  -13.5605   21.3920 C   0  0  0  0  0  0  0  0  0  0  0  0
  -23.7991  -31.2817   26.2643 C   0  0  0  0  0  0  0  0  0  0  0  0
  -29.5336  -12.4532   21.1063 C   0  0  0  0  0  0  0  0  0  0  0  0
  -28.9129  -21.5560   20.2608 C   0  0  0  0  0  0  0  0  0  0  0  0
  -29.8680  -14.8950   21.6870 C   0  0  0  0  0  0  0  0  0  0  0  0
  -27.8843  -14.2280   20.3873 C   0  0  0  0  0  0  0  0  0  0  0  0
  -25.0565  -31.2490   25.3871 C   0  0  1  0  0  0  0  0  0  0  0  0
  -23.9864  -30.8206   21.7670 C   0  0  1  0  0  0  0  0  0  0  0  0
  -28.5260  -12.8799   20.0208 C   0  0  2  0  0  0  0  0  0  0  0  0
  -25.2307  -19.1598   15.8131 C   0  0  0  0  0  0  0  0  0  0  0  0
  -17.6564  -29.3582   17.5485 C   0  0  0  0  0  0  0  0  0  0  0  0
  -20.3196  -28.6635   23.5731 C   0  0  0  0  0  0  0  0  0  0  0  0
  -18.5013  -28.0860   21.9519 C   0  0  0  0  0  0  0  0  0  0  0  0
  -18.8236  -30.4529   22.6706 C   0  0  0  0  0  0  0  0  0  0  0  0
  -21.1213  -30.2077   16.2261 C   0  0  0  0  0  0  0  0  0  0  0  0
  -20.5013  -29.3940   21.1034 C   0  0  1  0  0  0  0  0  0  0  0  0
  -19.0768  -29.8960   17.6266 C   0  0  2  0  0  0  0  0  0  0  0  0
  -19.5637  -29.1442   22.3183 C   0  0  0  0  0  0  0  0  0  0  0  0
  -26.3299  -11.8436   20.4504 N   0  0  0  0  0  0  0  0  0  0  0  0
  -27.4857  -11.8053   19.7657 N   0  0  0  0  0  0  0  0  0  0  0  0
  -28.0353  -21.4858   19.0949 N   0  0  3  0  0  0  0  0  0  0  0  0
  -22.9039  -29.9555   21.2937 N   0  0  0  0  0  0  0  0  0  0  0  0
  -28.9313  -15.2365   20.6142 N   0  0  0  0  0  0  0  0  0  0  0  0
  -28.6696  -10.5726   18.1258 N   0  0  0  0  0  0  0  0  0  0  0  0
  -24.7892   -8.2991   18.5381 N   0  0  0  0  0  0  0  0  0  0  0  0
  -28.1591  -16.6519   18.8930 N   0  0  0  0  0  0  0  0  0  0  0  0
  -24.7064  -31.4335   23.9950 N   0  0  0  0  0  0  0  0  0  0  0  0
  -19.8162  -29.8759   19.9090 N   0  0  0  0  0  0  0  0  0  0  0  0
  -19.7262  -29.7023   16.2993 N   0  3  0  0  0  0  0  0  0  0  0  0
  -26.8109   -8.3512   17.4570 O   0  0  0  0  0  0  0  0  0  0  0  0
  -24.1843  -29.2206   23.4920 O   0  0  0  0  0  0  0  0  0  0  0  0
  -21.2615  -31.5524   21.7281 O   0  0  0  0  0  0  0  0  0  0  0  0
  -20.4840  -28.1456   18.5172 O   0  0  0  0  0  0  0  0  0  0  0  0
  -29.9993  -17.2397   20.1774 O   0  0  0  0  0  0  0  0  0  0  0  0
  -20.5653   -9.5827   21.9360 O   0  0  0  0  0  0  0  0  0  0  0  0
  -26.7404  -25.5687   19.2711 O   0  0  0  0  0  0  0  0  0  1  0  0
  -19.4769   -4.3327   23.2229 F   0  0  0  0  0  0  0  0  0  0  0  0
  -19.8377   -8.8742   24.5073 F   0  0  0  0  0  0  0  0  0  0  0  0
  1  2  1  0  0  0  0
  1  5  2  0  0  0  0
  2  6  2  0  0  0  0
  3  8  2  0  0  0  0
  3 18  1  0  0  0  0
  4  9  1  0  0  0  0
  4 18  2  0  0  0  0
  5 20  1  0  0  0  0
  6 22  1  0  0  0  0
  7 10  2  0  0  0  0
  7 21  1  0  0  0  0
  8 27  1  0  0  0  0
  9 27  2  0  0  0  0
 10 28  1  0  0  0  0
 11 12  2  0  0  0  0
 11 29  1  0  0  0  0
 12 30  1  0  0  0  0
 13 23  1  0  0  0  0
 13 28  2  0  0  0  0
 14 24  2  0  0  0  0
 14 25  1  0  0  0  0
 15 24  1  0  0  0  0
 15 26  2  0  0  0  0
 16 25  2  0  0  0  0
 16 26  1  0  0  0  0
 17 30  2  0  0  0  0
 17 31  1  0  0  0  0
 18 32  1  0  0  0  0
 19 32  1  0  0  0  0
 19 33  2  0  0  0  0
 19 36  1  0  0  0  0
 20 22  2  0  0  0  0
 20 41  1  0  0  0  0
 21 23  2  0  0  0  0
 21 42  1  0  0  0  0
 22 53  1  0  0  0  0
 23 43  1  0  0  0  0
 24 56  1  0  0  0  0
 25 67  1  0  0  0  0
 26 72  1  0  0  0  0
 27 81  1  0  0  0  0
 28 82  1  0  0  0  0
 29 31  2  0  0  0  0
 29 81  1  0  0  0  0
 30 83  1  0  0  0  0
 31 84  1  0  0  0  0
 32 65  2  0  0  0  0
 33 66  1  0  0  0  0
 33 70  1  0  0  0  0
 34 35  2  0  0  0  0
 34 44  1  0  0  0  0
 34 45  1  0  0  0  0
 35 82  1  0  0  0  0
 36 71  1  0  0  0  0
 36 76  2  0  0  0  0
 37 54  1  0  0  0  0
 37 73  1  0  0  0  0
 37 77  2  0  0  0  0
 38 62  1  0  0  0  0
 38 68  1  0  0  0  0
 38 78  2  0  0  0  0
 39 63  1  0  0  0  0
 39 74  1  0  0  0  0
 39 79  2  0  0  0  0
 40 69  1  0  0  0  0
 40 72  1  0  0  0  0
 40 80  2  0  0  0  0
 41 46  1  0  0  0  0
 42 54  1  0  0  0  0
 43 68  1  0  0  0  0
 44 50  1  0  0  0  0
 45 67  1  0  0  0  0
 46 48  1  0  0  0  0
 47 49  1  0  0  0  0
 47 51  1  0  0  0  0
 48 53  1  0  0  0  0
 49 55  1  0  0  0  0
 50 67  1  0  0  0  0
 51 69  1  0  0  0  0
 52 55  1  0  0  0  0
 52 69  1  0  0  0  0
 53 73  1  0  0  0  0
 54 68  1  0  0  0  0
 55 66  1  0  0  0  0
 57 63  1  0  0  0  0
 58 64  1  0  0  0  0
 59 64  1  0  0  0  0
 60 64  1  0  0  0  0
 61 75  1  0  0  0  0
 62 64  1  0  0  0  0
 62 74  1  0  0  0  0
 63 75  1  0  0  0  0
 65 66  1  0  0  0  0
M  CHG  1  75   1
M  ISO  4  35 101  40 100  72 100  82 101
M  END
> <Batch ID>
0138

> <Smiles>
CNC(C)C(=O)NC(C(=O)N1Cc2cc([101O:1][101CH:1]=C3CCN(c4cc(C)cc([100NH:0][100C:0](=O)N5CCCC(n6nc(-c7ccc(Oc8ccc(F)cc8F)cc7)c(C(N)=O)c6N)C5)c4)C3)ccc2CC1C(=O)NC1CCCc2ccccc21)C(C)(C)C

> <Shape>
0.288

> <Color>
0.079

> <Negative vol penalty>
0.000

$$$$

  -OEChem-04052302453D

 83 92  0     1  0  0  0  0  0999 V2000
  -31.2470  -36.4019   24.3695 C   0  0  0  0  0  0  0  0  0  0  0  0
  -31.4790  -35.0319   24.4385 C   0  0  0  0  0  0  0  0  0  0  0  0
  -23.2428   -9.7119   19.9772 C   0  0  0  0  0  0  0  0  0  0  0  0
  -23.7192  -10.0160   22.3262 C   0  0  0  0  0  0  0  0  0  0  0  0
  -30.0393  -36.9271   24.8274 C   0  0  0  0  0  0  0  0  0  0  0  0
  -30.5038  -34.1864   24.9663 C   0  0  0  0  0  0  0  0  0  0  0  0
  -29.2340  -28.4666   23.1838 C   0  0  0  0  0  0  0  0  0  0  0  0
  -22.5398   -8.5435   20.2710 C   0  0  0  0  0  0  0  0  0  0  0  0
  -23.0162   -8.8476   22.6200 C   0  0  0  0  0  0  0  0  0  0  0  0
  -29.6051  -27.2219   23.6907 C   0  0  0  0  0  0  0  0  0  0  0  0
  -23.5574   -5.5131   22.4820 C   0  0  0  0  0  0  0  0  0  0  0  0
  -24.1382   -4.6151   23.3774 C   0  0  0  0  0  0  0  0  0  0  0  0
  -31.1815  -19.4495   22.3537 C   0  0  0  0  0  0  0  0  0  0  0  0
  -31.2440  -18.1241   21.8347 C   0  0  0  0  0  0  0  0  0  0  0  0
  -27.5290  -27.1078   24.9138 C   0  0  0  0  0  0  0  0  0  0  0  0
  -22.2365   -4.8522   24.8487 C   0  0  0  0  0  0  0  0  0  0  0  0
  -23.8325  -10.4481   21.0048 C   0  0  0  0  0  0  0  0  0  0  0  0
  -24.0446  -12.9636   20.6371 C   0  0  0  0  0  0  0  0  0  0  0  0
  -29.0450  -36.0865   25.3521 C   0  0  0  0  0  0  0  0  0  0  0  0
  -28.0104  -29.0471   23.5473 C   0  0  0  0  0  0  0  0  0  0  0  0
  -29.2822  -34.7010   25.4328 C   0  0  0  0  0  0  0  0  0  0  0  0
  -27.1436  -28.3587   24.4081 C   0  0  0  0  0  0  0  0  0  0  0  0
  -22.4265   -8.1114   21.5924 C   0  0  0  0  0  0  0  0  0  0  0  0
  -28.7539  -26.5436   24.5581 C   0  0  0  0  0  0  0  0  0  0  0  0
  -22.3161   -6.0807   22.7699 C   0  0  0  0  0  0  0  0  0  0  0  0
  -23.4778   -4.2846   24.5608 C   0  0  0  0  0  0  0  0  0  0  0  0
  -21.6557   -5.7502   23.9532 C   0  0  0  0  0  0  0  0  0  0  0  0
  -24.5593  -11.6549   20.7020 C   0  0  0  0  0  0  0  0  0  0  0  0
  -25.1290  -13.7435   20.3171 C   0  0  0  0  0  0  0  0  0  0  0  0
  -29.9432  -19.7404   22.8823 C   0  0  0  0  0  0  0  0  0  0  0  0
  -30.0509  -17.4522   21.9867 C   0  0  0  0  0  0  0  0  0  0  0  0
  -22.7061  -13.4324   20.8475 C   0  0  0  0  0  0  0  0  0  0  0  0
  -27.1513  -31.7050   25.0643 C   0  0  0  0  0  0  0  0  0  0  0  0
  -24.1651  -30.7514   24.2304 C   0  0  0  0  0  0  0  0  0  0  0  0
  -22.0755  -28.1954   23.3660 C   0  0  0  0  0  0  0  0  0  0  0  0
  -30.4673  -15.1758   20.9911 C   0  0  0  0  0  0  0  0  0  0  0  0
  -27.7743  -36.7057   25.8782 C   0  0  0  0  0  0  0  0  0  0  0  0
  -27.6129  -30.3783   22.9708 C   0  0  0  0  0  0  0  0  0  0  0  0
  -25.8099  -28.9294   24.8133 C   0  0  0  0  0  0  0  0  0  0  0  0
  -26.6438  -35.6996   26.0780 C   0  0  0  0  0  0  0  0  0  0  0  0
  -29.7830  -12.4522   18.8024 C   0  0  0  0  0  0  0  0  0  0  0  0
  -27.1563  -34.4569   26.7990 C   0  0  0  0  0  0  0  0  0  0  0  0
  -28.3206  -12.1096   19.0961 C   0  0  0  0  0  0  0  0  0  0  0  0
  -28.2017  -22.6850   24.2617 C   0  0  0  0  0  0  0  0  0  0  0  0
  -30.5324  -12.8703   20.0662 C   0  0  0  0  0  0  0  0  0  0  0  0
  -28.2254  -21.1787   24.0040 C   0  0  0  0  0  0  0  0  0  0  0  0
  -28.4354  -13.6049   21.1303 C   0  0  0  0  0  0  0  0  0  0  0  0
  -30.4228  -22.1064   23.5725 C   0  0  0  0  0  0  0  0  0  0  0  0
  -28.2391  -33.7487   25.9759 C   0  0  1  0  0  0  0  0  0  0  0  0
  -26.5711  -31.1074   23.8137 C   0  0  1  0  0  0  0  0  0  0  0  0
  -27.6228  -13.2404   19.8771 C   0  0  2  0  0  0  0  0  0  0  0  0
  -29.6691  -23.0435   24.5385 C   0  0  2  0  0  0  0  0  0  0  0  0
  -30.0446  -22.7408   25.9991 C   0  0  0  0  0  0  0  0  0  0  0  0
  -19.6820  -27.7197   22.7812 C   0  0  0  0  0  0  0  0  0  0  0  0
  -23.3991  -31.0002   27.1734 C   0  0  0  0  0  0  0  0  0  0  0  0
  -21.3562  -29.6378   26.6850 C   0  0  0  0  0  0  0  0  0  0  0  0
  -21.6753  -31.8472   25.5716 C   0  0  0  0  0  0  0  0  0  0  0  0
  -22.8097  -27.1940   20.6795 C   0  0  0  0  0  0  0  0  0  0  0  0
  -29.9540  -24.5157   24.2366 C   0  0  0  0  0  0  0  0  0  1  0  0
  -23.1036  -29.8848   24.8638 C   0  0  1  0  0  0  0  0  0  0  0  0
  -21.0636  -28.0575   22.2429 C   0  0  2  0  0  0  0  0  0  0  0  0
  -22.4095  -30.5823   26.0675 C   0  0  0  0  0  0  0  0  0  0  0  0
  -25.8687  -11.6023   20.4437 N   0  0  0  0  0  0  0  0  0  0  0  0
  -26.1860  -12.8878   20.2134 N   0  0  0  0  0  0  0  0  0  0  0  0
  -29.5576  -20.9319   23.4601 N   0  0  3  0  0  0  0  0  0  0  0  0
  -25.4692  -30.2366   24.2280 N   0  0  0  0  0  0  0  0  0  0  0  0
  -29.8151  -13.9479   20.7511 N   0  0  0  0  0  0  0  0  0  0  0  0
  -25.2719  -15.0709   20.1171 N   0  0  0  0  0  0  0  0  0  0  0  0
  -21.7133  -12.4968   21.1691 N   0  0  0  0  0  0  0  0  0  0  0  0
  -29.6753  -16.1361   21.6199 N   0  0  0  0  0  0  0  0  0  0  0  0
  -27.6397  -32.9873   24.9009 N   0  0  0  0  0  0  0  0  0  0  0  0
  -22.1940  -29.5023   23.7891 N   0  0  0  0  0  0  0  0  0  0  0  0
  -21.4779  -26.9789   21.3017 N   0  3  0  0  0  0  0  0  0  0  0  0
  -22.3962  -14.6428   20.7368 O   0  0  0  0  0  0  0  0  0  0  0  0
  -27.1542  -31.0517   26.1011 O   0  0  0  0  0  0  0  0  0  0  0  0
  -23.8475  -31.8418   23.7488 O   0  0  0  0  0  0  0  0  0  0  0  0
  -22.6959  -27.2387   23.8247 O   0  0  0  0  0  0  0  0  0  0  0  0
  -31.6333  -15.3711   20.6386 O   0  0  0  0  0  0  0  0  0  0  0  0
  -21.7404   -6.9714   21.8794 O   0  0  0  0  0  0  0  0  0  0  0  0
  -29.1139  -25.3289   25.0548 O   0  0  0  0  0  0  0  0  0  1  0  0
  -24.0350   -3.4211   25.4199 F   0  0  0  0  0  0  0  0  0  0  0  0
  -20.4625   -6.2914   24.2347 F   0  0  0  0  0  0  0  0  0  0  0  0
  -28.8624  -18.4186   22.7520 S   0  0  0  0  0  0  0  0  0  0  0  0
  1  2  1  0  0  0  0
  1  5  2  0  0  0  0
  2  6  2  0  0  0  0
  3  8  2  0  0  0  0
  3 17  1  0  0  0  0
  4  9  1  0  0  0  0
  4 17  2  0  0  0  0
  5 19  1  0  0  0  0
  6 21  1  0  0  0  0
  7 10  2  0  0  0  0
  7 20  1  0  0  0  0
  8 23  1  0  0  0  0
  9 23  2  0  0  0  0
 10 24  1  0  0  0  0
 11 12  2  0  0  0  0
 11 25  1  0  0  0  0
 12 26  1  0  0  0  0
 13 14  1  0  0  0  0
 13 30  2  0  0  0  0
 14 31  2  0  0  0  0
 15 22  1  0  0  0  0
 15 24  2  0  0  0  0
 16 26  2  0  0  0  0
 16 27  1  0  0  0  0
 17 28  1  0  0  0  0
 18 28  1  0  0  0  0
 18 29  2  0  0  0  0
 18 32  1  0  0  0  0
 19 21  2  0  0  0  0
 19 37  1  0  0  0  0
 20 22  2  0  0  0  0
 20 38  1  0  0  0  0
 21 49  1  0  0  0  0
 22 39  1  0  0  0  0
 23 79  1  0  0  0  0
 24 80  1  0  0  0  0
 25 27  2  0  0  0  0
 25 79  1  0  0  0  0
 26 81  1  0  0  0  0
 27 82  1  0  0  0  0
 28 63  2  0  0  0  0
 29 64  1  0  0  0  0
 29 68  1  0  0  0  0
 30 65  1  0  0  0  0
 30 83  1  0  0  0  0
 31 70  1  0  0  0  0
 31 83  1  0  0  0  0
 32 69  1  0  0  0  0
 32 74  2  0  0  0  0
 33 50  1  0  0  0  0
 33 71  1  0  0  0  0
 33 75  2  0  0  0  0
 34 60  1  0  0  0  0
 34 66  1  0  0  0  0
 34 76  2  0  0  0  0
 35 61  1  0  0  0  0
 35 72  1  0  0  0  0
 35 77  2  0  0  0  0
 36 67  1  0  0  0  0
 36 70  1  0  0  0  0
 36 78  2  0  0  0  0
 37 40  1  0  0  0  0
 38 50  1  0  0  0  0
 39 66  1  0  0  0  0
 40 42  1  0  0  0  0
 41 43  1  0  0  0  0
 41 45  1  0  0  0  0
 42 49  1  0  0  0  0
 43 51  1  0  0  0  0
 44 46  1  0  0  0  0
 44 52  1  0  0  0  0
 45 67  1  0  0  0  0
 46 65  1  0  0  0  0
 47 51  1  0  0  0  0
 47 67  1  0  0  0  0
 48 52  1  0  0  0  0
 48 65  1  0  0  0  0
 49 71  1  0  0  0  0
 50 66  1  0  0  0  0
 51 64  1  0  0  0  0
 52 53  1  0  0  0  0
 52 59  1  0  0  0  0
 54 61  1  0  0  0  0
 55 62  1  0  0  0  0
 56 62  1  0  0  0  0
 57 62  1  0  0  0  0
 58 73  1  0  0  0  0
 59 80  1  0  0  0  0
 60 62  1  0  0  0  0
 60 72  1  0  0  0  0
 61 73  1  0  0  0  0
 63 64  1  0  0  0  0
M  CHG  1  73   1
M  ISO  4  36 100  59 101  70 100  80 101
M  END
> <Batch ID>
0138

> <Smiles>
CNC(C)C(=O)NC(C(=O)N1Cc2cc([101O:1][101CH2:1]C3(C)CCN(c4ccc([100NH:0][100C:0](=O)N5CCCC(n6nc(-c7ccc(Oc8ccc(F)cc8F)cc7)c(C(N)=O)c6N)C5)s4)C3)ccc2CC1C(=O)NC1CCCc2ccccc21)C(C)(C)C

> <Shape>
0.287

> <Color>
0.203

> <Negative vol penalty>
0.000

$$$$

  -OEChem-04052302453D

 87 96  0     1  0  0  0  0  0999 V2000
  -26.8458  -36.6640   21.8777 C   0  0  0  0  0  0  0  0  0  0  0  0
  -27.6350  -35.7845   21.1435 C   0  0  0  0  0  0  0  0  0  0  0  0
  -26.9970  -12.1156   21.7976 C   0  0  0  0  0  0  0  0  0  0  0  0
  -25.9490  -14.1095   20.9241 C   0  0  0  0  0  0  0  0  0  0  0  0
  -26.1438  -36.2052   22.9915 C   0  0  0  0  0  0  0  0  0  0  0  0
  -27.7236  -34.4457   21.5235 C   0  0  0  0  0  0  0  0  0  0  0  0
  -26.2155  -27.9715   17.4202 C   0  0  0  0  0  0  0  0  0  0  0  0
  -25.7425  -11.5285   21.9625 C   0  0  0  0  0  0  0  0  0  0  0  0
  -24.6945  -13.5224   21.0889 C   0  0  0  0  0  0  0  0  0  0  0  0
  -25.8289  -26.7601   16.8465 C   0  0  0  0  0  0  0  0  0  0  0  0
  -23.4304  -10.0057   20.0213 C   0  0  0  0  0  0  0  0  0  0  0  0
  -23.2734   -8.6840   19.6041 C   0  0  0  0  0  0  0  0  0  0  0  0
  -25.3947  -25.8462   19.0429 C   0  0  0  0  0  0  0  0  0  0  0  0
  -30.2194  -22.6784   20.3404 C   0  0  0  0  0  0  0  0  0  0  0  0
  -28.8673  -21.3966   18.8022 C   0  0  0  0  0  0  0  0  0  0  0  0
  -22.6783   -8.0437   21.8564 C   0  0  0  0  0  0  0  0  0  0  0  0
  -27.1002  -13.4062   21.2785 C   0  0  0  0  0  0  0  0  0  0  0  0
  -29.4572  -13.5430   20.3124 C   0  0  0  0  0  0  0  0  0  0  0  0
  -26.2162  -34.8581   23.3797 C   0  0  0  0  0  0  0  0  0  0  0  0
  -26.1784  -28.1301   18.8083 C   0  0  0  0  0  0  0  0  0  0  0  0
  -27.0230  -33.9688   22.6444 C   0  0  0  0  0  0  0  0  0  0  0  0
  -25.7689  -27.0615   19.6225 C   0  0  0  0  0  0  0  0  0  0  0  0
  -30.0856  -23.8006   19.5228 C   0  0  0  0  0  0  0  0  0  0  0  0
  -29.3427  -23.7209   18.3450 C   0  0  0  0  0  0  0  0  0  0  0  0
  -28.7335  -22.5189   17.9847 C   0  0  0  0  0  0  0  0  0  0  0  0
  -29.6103  -21.4764   19.9800 C   0  0  0  0  0  0  0  0  0  0  0  0
  -24.5913  -12.2318   21.6081 C   0  0  0  0  0  0  0  0  0  0  0  0
  -25.4197  -25.7001   17.6558 C   0  0  0  0  0  0  0  0  0  0  0  0
  -23.2115  -10.3464   21.3561 C   0  0  0  0  0  0  0  0  0  0  0  0
  -22.8973   -7.7030   20.5216 C   0  0  0  0  0  0  0  0  0  0  0  0
  -22.8354   -9.3654   22.2737 C   0  0  0  0  0  0  0  0  0  0  0  0
  -28.3958  -14.0134   21.1085 C   0  0  0  0  0  0  0  0  0  0  0  0
  -30.4566  -14.4682   20.4910 C   0  0  0  0  0  0  0  0  0  0  0  0
  -29.5331  -12.3743   19.4854 C   0  0  0  0  0  0  0  0  0  0  0  0
  -26.7460  -30.3958   21.7444 C   0  0  0  0  0  0  0  0  0  0  0  0
  -24.1716  -28.8277   22.3134 C   0  0  0  0  0  0  0  0  0  0  0  0
  -21.1690  -27.2093   22.3670 C   0  0  0  0  0  0  0  0  0  0  0  0
  -30.4457  -20.2463   22.0136 C   0  0  0  0  0  0  0  0  0  0  0  0
  -25.4769  -34.4189   24.6187 C   0  0  0  0  0  0  0  0  0  0  0  0
  -26.6445  -29.3968   19.4732 C   0  0  0  0  0  0  0  0  0  0  0  0
  -25.7780  -27.2661   21.1128 C   0  0  0  0  0  0  0  0  0  0  0  0
  -25.3277  -32.9041   24.7342 C   0  0  0  0  0  0  0  0  0  0  0  0
  -32.1279  -17.6021   23.7034 C   0  0  0  0  0  0  0  0  0  0  0  0
  -27.8742  -22.5540   14.3521 C   0  0  0  0  0  0  0  0  0  0  0  0
  -26.6555  -32.2130   24.4410 C   0  0  0  0  0  0  0  0  0  0  0  0
  -31.4625  -16.3387   23.1527 C   0  0  0  0  0  0  0  0  0  0  0  0
  -26.3909  -22.2034   14.4193 C   0  0  0  0  0  0  0  0  0  0  0  0
  -28.6453  -22.0272   15.5599 C   0  0  0  0  0  0  0  0  0  0  0  0
  -31.1263  -18.7432   23.8717 C   0  0  0  0  0  0  0  0  0  0  0  0
  -29.6725  -17.7956   22.1231 C   0  0  0  0  0  0  0  0  0  0  0  0
  -26.5606  -22.0714   16.9341 C   0  0  0  0  0  0  0  0  0  0  0  0
  -27.1249  -32.5039   23.0105 C   0  0  1  0  0  0  0  0  0  0  0  0
  -25.8418  -29.7443   20.7397 C   0  0  1  0  0  0  0  0  0  0  0  0
  -30.6541  -16.6386   21.8752 C   0  0  2  0  0  0  0  0  0  0  0  0
  -25.7417  -22.6342   15.7513 C   0  0  2  0  0  0  0  0  0  0  0  0
  -30.7490  -25.0752   19.9309 C   0  0  0  0  0  0  0  0  0  0  0  0
  -29.2015  -24.9271   17.4704 C   0  0  0  0  0  0  0  0  0  0  0  0
  -24.3113  -22.0675   15.8138 C   0  0  0  0  0  0  0  0  0  0  0  0
  -19.1261  -26.8946   23.7900 C   0  0  0  0  0  0  0  0  0  0  0  0
  -25.7397  -26.9597   24.1453 C   0  0  0  0  0  0  0  0  0  0  0  0
  -23.5609  -25.9788   24.8927 C   0  0  0  0  0  0  0  0  0  0  0  0
  -24.0505  -28.3888   25.3109 C   0  0  0  0  0  0  0  0  0  0  0  0
  -19.4014  -28.3500   20.2854 C   0  0  0  0  0  0  0  0  0  0  0  0
  -25.6536  -24.1699   15.8499 C   0  0  0  0  0  0  0  0  0  1  0  0
  -23.5438  -27.6173   22.9572 C   0  0  1  0  0  0  0  0  0  0  0  0
  -19.7649  -27.7006   22.6697 C   0  0  2  0  0  0  0  0  0  0  0  0
  -24.2308  -27.2364   24.2989 C   0  0  0  0  0  0  0  0  0  0  0  0
  -28.6930  -15.1491   21.7455 N   0  0  0  0  0  0  0  0  0  0  0  0
  -29.9526  -15.4000   21.3500 N   0  0  0  0  0  0  0  0  0  0  0  0
  -27.9842  -22.4190   16.8074 N   0  0  1  0  0  0  0  0  0  0  0  0
  -25.2415  -28.5964   21.4405 N   0  0  0  0  0  0  0  0  0  0  0  0
  -30.4008  -18.9733   22.6205 N   0  0  0  0  0  0  0  0  0  0  0  0
  -31.7084  -14.5673   19.9955 N   0  0  0  0  0  0  0  0  0  0  0  0
  -28.4155  -11.5314   19.4156 N   0  0  0  0  0  0  0  0  0  0  0  0
  -29.7450  -20.3368   20.8113 N   0  0  0  0  0  0  0  0  0  0  0  0
  -26.3911  -31.6927   22.0629 N   0  0  0  0  0  0  0  0  0  0  0  0
  -22.1199  -27.9112   23.0773 N   0  0  0  0  0  0  0  0  0  0  0  0
  -18.9039  -27.5864   21.4586 N   0  3  0  0  0  0  0  0  0  0  0  0
  -30.5673  -12.0772   18.8406 O   0  0  0  0  0  0  0  0  0  0  0  0
  -27.6953  -29.7685   22.1992 O   0  0  0  0  0  0  0  0  0  0  0  0
  -23.7309  -29.9493   22.5800 O   0  0  0  0  0  0  0  0  0  0  0  0
  -21.3990  -26.2919   21.5821 O   0  0  0  0  0  0  0  0  0  0  0  0
  -31.0828  -21.1793   22.5090 O   0  0  0  0  0  0  0  0  0  0  0  0
  -23.3670  -11.6591   21.7686 O   0  0  0  0  0  0  0  0  0  0  0  0
  -25.0393  -24.5216   17.0889 O   0  0  0  0  0  0  0  0  0  1  0  0
  -22.7451   -6.4341   20.1205 F   0  0  0  0  0  0  0  0  0  0  0  0
  -22.6225   -9.6869   23.5571 F   0  0  0  0  0  0  0  0  0  0  0  0
  1  2  1  0  0  0  0
  1  5  2  0  0  0  0
  2  6  2  0  0  0  0
  3  8  2  0  0  0  0
  3 17  1  0  0  0  0
  4  9  1  0  0  0  0
  4 17  2  0  0  0  0
  5 19  1  0  0  0  0
  6 21  1  0  0  0  0
  7 10  2  0  0  0  0
  7 20  1  0  0  0  0
  8 27  1  0  0  0  0
  9 27  2  0  0  0  0
 10 28  1  0  0  0  0
 11 12  2  0  0  0  0
 11 29  1  0  0  0  0
 12 30  1  0  0  0  0
 13 22  1  0  0  0  0
 13 28  2  0  0  0  0
 14 23  2  0  0  0  0
 14 26  1  0  0  0  0
 15 25  1  0  0  0  0
 15 26  2  0  0  0  0
 16 30  2  0  0  0  0
 16 31  1  0  0  0  0
 17 32  1  0  0  0  0
 18 32  1  0  0  0  0
 18 33  2  0  0  0  0
 18 34  1  0  0  0  0
 19 21  2  0  0  0  0
 19 39  1  0  0  0  0
 20 22  2  0  0  0  0
 20 40  1  0  0  0  0
 21 52  1  0  0  0  0
 22 41  1  0  0  0  0
 23 24  1  0  0  0  0
 23 56  1  0  0  0  0
 24 25  2  0  0  0  0
 24 57  1  0  0  0  0
 25 70  1  0  0  0  0
 26 75  1  0  0  0  0
 27 84  1  0  0  0  0
 28 85  1  0  0  0  0
 29 31  2  0  0  0  0
 29 84  1  0  0  0  0
 30 86  1  0  0  0  0
 31 87  1  0  0  0  0
 32 68  2  0  0  0  0
 33 69  1  0  0  0  0
 33 73  1  0  0  0  0
 34 74  1  0  0  0  0
 34 79  2  0  0  0  0
 35 53  1  0  0  0  0
 35 76  1  0  0  0  0
 35 80  2  0  0  0  0
 36 65  1  0  0  0  0
 36 71  1  0  0  0  0
 36 81  2  0  0  0  0
 37 66  1  0  0  0  0
 37 77  1  0  0  0  0
 37 82  2  0  0  0  0
 38 72  1  0  0  0  0
 38 75  1  0  0  0  0
 38 83  2  0  0  0  0
 39 42  1  0  0  0  0
 40 53  1  0  0  0  0
 41 71  1  0  0  0  0
 42 45  1  0  0  0  0
 43 46  1  0  0  0  0
 43 49  1  0  0  0  0
 44 47  1  0  0  0  0
 44 48  1  0  0  0  0
 45 52  1  0  0  0  0
 46 54  1  0  0  0  0
 47 55  1  0  0  0  0
 48 70  1  0  0  0  0
 49 72  1  0  0  0  0
 50 54  1  0  0  0  0
 50 72  1  0  0  0  0
 51 55  1  0  0  0  0
 51 70  1  0  0  0  0
 52 76  1  0  0  0  0
 53 71  1  0  0  0  0
 54 69  1  0  0  0  0
 55 58  1  0  0  0  0
 55 64  1  0  0  0  0
 59 66  1  0  0  0  0
 60 67  1  0  0  0  0
 61 67  1  0  0  0  0
 62 67  1  0  0  0  0
 63 78  1  0  0  0  0
 64 85  1  0  0  0  0
 65 67  1  0  0  0  0
 65 77  1  0  0  0  0
 66 78  1  0  0  0  0
 68 69  1  0  0  0  0
M  CHG  1  78   1
M  ISO  4  38 100  64 101  75 100  85 101
M  END
> <Batch ID>
0138

> <Smiles>
CNC(C)C(=O)NC(C(=O)N1Cc2cc([101O:1][101CH2:1]C3(C)CCCN(c4cc([100NH:0][100C:0](=O)N5CCCC(n6nc(-c7ccc(Oc8ccc(F)cc8F)cc7)c(C(N)=O)c6N)C5)cc(C)c4C)C3)ccc2CC1C(=O)NC1CCCc2ccccc21)C(C)(C)C

> <Shape>
0.325

> <Color>
0.066

> <Negative vol penalty>
0.000

$$$$

  -OEChem-04052302453D

 85 93  0     1  0  0  0  0  0999 V2000
  -19.9345  -23.2200   22.2248 C   0  0  0  0  0  0  0  0  0  0  0  0
  -21.3163  -23.3727   22.2757 C   0  0  0  0  0  0  0  0  0  0  0  0
  -23.8689   -9.8362   21.6383 C   0  0  0  0  0  0  0  0  0  0  0  0
  -24.4330  -10.9849   23.6875 C   0  0  0  0  0  0  0  0  0  0  0  0
  -19.1279  -24.2985   21.8641 C   0  0  0  0  0  0  0  0  0  0  0  0
  -21.8925  -24.6039   21.9649 C   0  0  0  0  0  0  0  0  0  0  0  0
  -25.4983  -25.9479   25.2568 C   0  0  0  0  0  0  0  0  0  0  0  0
  -31.3771  -20.1119   21.3026 C   0  0  0  0  0  0  0  0  0  0  0  0
  -31.0347  -18.8263   20.8838 C   0  0  0  0  0  0  0  0  0  0  0  0
  -23.3647   -8.7658   22.3770 C   0  0  0  0  0  0  0  0  0  0  0  0
  -23.9287   -9.9146   24.4263 C   0  0  0  0  0  0  0  0  0  0  0  0
  -26.7446  -25.3383   25.1200 C   0  0  0  0  0  0  0  0  0  0  0  0
  -20.5449   -8.0322   24.0927 C   0  0  0  0  0  0  0  0  0  0  0  0
  -19.3174   -7.4967   23.7029 C   0  0  0  0  0  0  0  0  0  0  0  0
  -29.0354  -20.6629   21.5259 C   0  0  0  0  0  0  0  0  0  0  0  0
  -27.5714  -27.2976   23.9813 C   0  0  0  0  0  0  0  0  0  0  0  0
  -20.3690   -5.3527   23.3364 C   0  0  0  0  0  0  0  0  0  0  0  0
  -24.4031  -10.9457   22.2935 C   0  0  0  0  0  0  0  0  0  0  0  0
  -28.6929  -19.3772   21.1071 C   0  0  0  0  0  0  0  0  0  0  0  0
  -24.2196  -13.1868   21.0888 C   0  0  0  0  0  0  0  0  0  0  0  0
  -19.6939  -25.5462   21.5580 C   0  0  0  0  0  0  0  0  0  0  0  0
  -25.2756  -27.2349   24.7464 C   0  0  0  0  0  0  0  0  0  0  0  0
  -21.0928  -25.6998   21.5984 C   0  0  0  0  0  0  0  0  0  0  0  0
  -26.3220  -27.9224   24.1152 C   0  0  0  0  0  0  0  0  0  0  0  0
  -30.3775  -21.0303   21.6237 C   0  0  0  0  0  0  0  0  0  0  0  0
  -29.6926  -18.4589   20.7860 C   0  0  0  0  0  0  0  0  0  0  0  0
  -23.3946   -8.8050   23.7710 C   0  0  0  0  0  0  0  0  0  0  0  0
  -27.7806  -26.0119   24.4797 C   0  0  0  0  0  0  0  0  0  0  0  0
  -21.6846   -7.2280   24.1043 C   0  0  0  0  0  0  0  0  0  0  0  0
  -19.2294   -6.1569   23.3248 C   0  0  0  0  0  0  0  0  0  0  0  0
  -21.5966   -5.8882   23.7262 C   0  0  0  0  0  0  0  0  0  0  0  0
  -24.9247  -12.0514   21.5310 C   0  0  0  0  0  0  0  0  0  0  0  0
  -25.1562  -13.9316   20.4145 C   0  0  0  0  0  0  0  0  0  0  0  0
  -27.2814  -19.0257   21.0130 C   0  0  0  0  0  0  0  0  0  0  0  0
  -22.8413  -13.5370   21.2714 C   0  0  0  0  0  0  0  0  0  0  0  0
  -23.3457  -28.4716   22.5442 C   0  0  0  0  0  0  0  0  0  0  0  0
  -24.5616  -31.2811   23.6168 C   0  0  0  0  0  0  0  0  0  0  0  0
  -29.8649  -23.3693   22.4048 C   0  0  0  0  0  0  0  0  0  0  0  0
  -27.1165  -32.9282   25.1682 C   0  0  0  0  0  0  0  0  0  0  0  0
  -30.2549  -16.1311   20.0042 C   0  0  0  0  0  0  0  0  0  0  0  0
  -18.7845  -26.6698   21.1276 C   0  0  0  0  0  0  0  0  0  0  0  0
  -23.9332  -27.8892   24.9257 C   0  0  0  0  0  0  0  0  0  0  0  0
  -26.1403  -29.3137   23.5677 C   0  0  0  0  0  0  0  0  0  0  0  0
  -19.4485  -28.0435   21.1766 C   0  0  0  0  0  0  0  0  0  0  0  0
  -29.8522  -12.7594   18.9331 C   0  0  0  0  0  0  0  0  0  0  0  0
  -20.8319  -27.9909   20.5362 C   0  0  0  0  0  0  0  0  0  0  0  0
  -28.4764  -12.3681   19.4771 C   0  0  0  0  0  0  0  0  0  0  0  0
  -30.6050  -13.6731   19.8986 C   0  0  0  0  0  0  0  0  0  0  0  0
  -28.4890  -14.4749   20.8728 C   0  0  0  0  0  0  0  0  0  0  0  0
  -21.7536  -27.0264   21.2923 C   0  0  1  0  0  0  0  0  0  0  0  0
  -23.6696  -28.9995   23.9132 C   0  0  1  0  0  0  0  0  0  0  0  0
  -27.6666  -13.6074   19.9060 C   0  0  2  0  0  0  0  0  0  0  0  0
  -26.3356  -19.7099   21.9543 C   0  0  0  0  0  0  0  0  0  0  0  0
  -27.8420  -35.2267   25.8665 C   0  0  0  0  0  0  0  0  0  0  0  0
  -25.2819  -31.9300   20.7237 C   0  0  0  0  0  0  0  0  0  0  0  0
  -26.8063  -33.7227   21.5785 C   0  0  0  0  0  0  0  0  0  0  0  0
  -24.3556  -33.8544   22.0249 C   0  0  0  0  0  0  0  0  0  0  0  0
  -27.1829  -32.1650   28.0269 C   0  0  0  0  0  0  0  0  0  0  0  0
  -30.6574  -24.6102   22.7999 C   0  0  0  0  0  0  0  0  0  0  0  0
  -29.7732  -25.7809   23.2022 C   0  0  0  0  0  0  0  0  0  1  0  0
  -25.7490  -32.1400   23.2542 C   0  0  1  0  0  0  0  0  0  0  0  0
  -27.1211  -33.9552   26.2861 C   0  0  2  0  0  0  0  0  0  0  0  0
  -25.5514  -32.8848   21.9038 C   0  0  0  0  0  0  0  0  0  0  0  0
  -26.2099  -12.0689   21.1680 N   0  0  0  0  0  0  0  0  0  0  0  0
  -26.3199  -13.2243   20.4905 N   0  0  0  0  0  0  0  0  0  0  0  0
  -24.8076  -29.9084   23.7621 N   0  0  0  0  0  0  0  0  0  0  0  0
  -29.7781  -14.8275   20.2573 N   0  0  0  0  0  0  0  0  0  0  0  0
  -25.0895  -15.1158   19.7699 N   0  0  0  0  0  0  0  0  0  0  0  0
  -22.0182  -12.6588   21.9894 N   0  0  0  0  0  0  0  0  0  0  0  0
  -30.7256  -22.3347   22.0478 N   0  0  0  0  0  0  0  0  0  0  0  0
  -29.3683  -17.1479   20.3572 N   0  0  0  0  0  0  0  0  0  0  0  0
  -22.2414  -27.6418   22.5079 N   0  0  0  0  0  0  0  0  0  0  0  0
  -25.9790  -33.0207   24.3943 N   0  0  0  0  0  0  0  0  0  0  0  0
  -27.8021  -33.4050   27.4921 N   0  3  0  0  0  0  0  0  0  0  0  0
  -26.8119  -18.2072   20.2226 O   0  0  0  0  0  0  0  0  0  0  0  0
  -22.3502  -14.5895   20.7974 O   0  0  0  0  0  0  0  0  0  0  0  0
  -24.0450  -28.7945   21.5911 O   0  0  0  0  0  0  0  0  0  0  0  0
  -23.4580  -31.8097   23.7726 O   0  0  0  0  0  0  0  0  0  0  0  0
  -28.6387  -23.3460   22.4186 O   0  0  0  0  0  0  0  0  0  0  0  0
  -28.0322  -32.1267   24.9963 O   0  0  0  0  0  0  0  0  0  0  0  0
  -31.3564  -16.3298   19.4855 O   0  0  0  0  0  0  0  0  0  0  0  0
  -22.9024   -7.7609   24.4922 O   0  0  0  0  0  0  0  0  0  0  0  0
  -28.9979  -25.4189   24.3442 O   0  0  0  0  0  0  0  0  0  1  0  0
  -18.0502   -5.6424   22.9520 F   0  0  0  0  0  0  0  0  0  0  0  0
  -22.6878   -5.1104   23.7364 F   0  0  0  0  0  0  0  0  0  0  0  0
  1  2  1  0  0  0  0
  1  5  2  0  0  0  0
  2  6  2  0  0  0  0
  3 10  2  0  0  0  0
  3 18  1  0  0  0  0
  4 11  1  0  0  0  0
  4 18  2  0  0  0  0
  5 21  1  0  0  0  0
  6 23  1  0  0  0  0
  7 12  2  0  0  0  0
  7 22  1  0  0  0  0
  8  9  2  0  0  0  0
  8 25  1  0  0  0  0
  9 26  1  0  0  0  0
 10 27  1  0  0  0  0
 11 27  2  0  0  0  0
 12 28  1  0  0  0  0
 13 14  2  0  0  0  0
 13 29  1  0  0  0  0
 14 30  1  0  0  0  0
 15 19  1  0  0  0  0
 15 25  2  0  0  0  0
 16 24  1  0  0  0  0
 16 28  2  0  0  0  0
 17 30  2  0  0  0  0
 17 31  1  0  0  0  0
 18 32  1  0  0  0  0
 19 26  2  0  0  0  0
 19 34  1  0  0  0  0
 20 32  1  0  0  0  0
 20 33  2  0  0  0  0
 20 35  1  0  0  0  0
 21 23  2  0  0  0  0
 21 41  1  0  0  0  0
 22 24  2  0  0  0  0
 22 42  1  0  0  0  0
 23 50  1  0  0  0  0
 24 43  1  0  0  0  0
 25 70  1  0  0  0  0
 26 71  1  0  0  0  0
 27 82  1  0  0  0  0
 28 83  1  0  0  0  0
 29 31  2  0  0  0  0
 29 82  1  0  0  0  0
 30 84  1  0  0  0  0
 31 85  1  0  0  0  0
 32 64  2  0  0  0  0
 33 65  1  0  0  0  0
 33 68  1  0  0  0  0
 34 53  1  0  0  0  0
 34 75  2  0  0  0  0
 35 69  1  0  0  0  0
 35 76  2  0  0  0  0
 36 51  1  0  0  0  0
 36 72  1  0  0  0  0
 36 77  2  0  0  0  0
 37 61  1  0  0  0  0
 37 66  1  0  0  0  0
 37 78  2  0  0  0  0
 38 59  1  0  0  0  0
 38 70  1  0  0  0  0
 38 79  2  0  0  0  0
 39 62  1  0  0  0  0
 39 73  1  0  0  0  0
 39 80  2  0  0  0  0
 40 67  1  0  0  0  0
 40 71  1  0  0  0  0
 40 81  2  0  0  0  0
 41 44  1  0  0  0  0
 42 51  1  0  0  0  0
 43 66  1  0  0  0  0
 44 46  1  0  0  0  0
 45 47  1  0  0  0  0
 45 48  1  0  0  0  0
 46 50  1  0  0  0  0
 47 52  1  0  0  0  0
 48 67  1  0  0  0  0
 49 52  1  0  0  0  0
 49 67  1  0  0  0  0
 50 72  1  0  0  0  0
 51 66  1  0  0  0  0
 52 65  1  0  0  0  0
 54 62  1  0  0  0  0
 55 63  1  0  0  0  0
 56 63  1  0  0  0  0
 57 63  1  0  0  0  0
 58 74  1  0  0  0  0
 59 60  1  0  0  0  0
 60 83  1  0  0  0  0
 61 63  1  0  0  0  0
 61 73  1  0  0  0  0
 62 74  1  0  0  0  0
 64 65  1  0  0  0  0
M  CHG  1  74   1
M  ISO  4  40 100  60 101  71 100  83 101
M  END
> <Batch ID>
0138

> <Smiles>
CNC(C)C(=O)NC(C(=O)N1Cc2cc([101O:1][101CH2:1]CC(=O)Nc3ccc([100NH:0][100C:0](=O)N4CCCC(n5nc(-c6ccc(Oc7ccc(F)cc7F)cc6)c(C(N)=O)c5N)C4)c(C(C)=O)c3)ccc2CC1C(=O)NC1CCCc2ccccc21)C(C)(C)C

> <Shape>
0.278

> <Color>
0.129

> <Negative vol penalty>
0.000

$$$$

  -OEChem-04052302453D

 84 92  0     1  0  0  0  0  0999 V2000
  -24.2235  -35.4058   22.2134 C   0  0  0  0  0  0  0  0  0  0  0  0
  -25.0514  -34.2880   22.2399 C   0  0  0  0  0  0  0  0  0  0  0  0
  -23.3493  -16.6666   25.5573 C   0  0  0  0  0  0  0  0  0  0  0  0
  -22.1707  -18.2397   24.1526 C   0  0  0  0  0  0  0  0  0  0  0  0
  -22.8711  -35.2778   22.5274 C   0  0  0  0  0  0  0  0  0  0  0  0
  -24.5275  -33.0417   22.5816 C   0  0  0  0  0  0  0  0  0  0  0  0
  -26.1168  -29.3542   19.4958 C   0  0  0  0  0  0  0  0  0  0  0  0
  -22.5415  -17.0250   26.6365 C   0  0  0  0  0  0  0  0  0  0  0  0
  -21.3628  -18.5981   25.2317 C   0  0  0  0  0  0  0  0  0  0  0  0
  -27.4045  -28.8616   19.7028 C   0  0  0  0  0  0  0  0  0  0  0  0
  -19.4158  -16.3556   27.7386 C   0  0  0  0  0  0  0  0  0  0  0  0
  -18.8942  -15.3297   28.5268 C   0  0  0  0  0  0  0  0  0  0  0  0
  -26.4846  -26.9704   20.8844 C   0  0  0  0  0  0  0  0  0  0  0  0
  -28.3568  -23.0417   18.8177 C   0  0  0  0  0  0  0  0  0  0  0  0
  -26.0172  -22.5696   18.4434 C   0  0  0  0  0  0  0  0  0  0  0  0
  -26.9231  -24.7301   17.8529 C   0  0  0  0  0  0  0  0  0  0  0  0
  -20.0275  -16.2372   30.4579 C   0  0  0  0  0  0  0  0  0  0  0  0
  -23.1639  -17.2740   24.3153 C   0  0  0  0  0  0  0  0  0  0  0  0
  -23.7583  -15.8851   22.2598 C   0  0  0  0  0  0  0  0  0  0  0  0
  -22.3284  -34.0276   22.8637 C   0  0  0  0  0  0  0  0  0  0  0  0
  -25.0021  -28.6631   19.9919 C   0  0  0  0  0  0  0  0  0  0  0  0
  -23.1669  -32.8971   22.9017 C   0  0  0  0  0  0  0  0  0  0  0  0
  -25.1837  -27.4550   20.6802 C   0  0  0  0  0  0  0  0  0  0  0  0
  -27.2750  -22.1642   18.8898 C   0  0  0  0  0  0  0  0  0  0  0  0
  -21.5482  -17.9907   26.4737 C   0  0  0  0  0  0  0  0  0  0  0  0
  -27.5888  -27.6711   20.3997 C   0  0  0  0  0  0  0  0  0  0  0  0
  -20.2432  -17.3222   28.3101 C   0  0  0  0  0  0  0  0  0  0  0  0
  -28.1809  -24.3247   18.2993 C   0  0  0  0  0  0  0  0  0  0  0  0
  -19.2000  -15.2706   29.8864 C   0  0  0  0  0  0  0  0  0  0  0  0
  -25.8413  -23.8526   17.9249 C   0  0  0  0  0  0  0  0  0  0  0  0
  -20.5491  -17.2631   29.6697 C   0  0  0  0  0  0  0  0  0  0  0  0
  -23.9985  -16.9046   23.2004 C   0  0  0  0  0  0  0  0  0  0  0  0
  -24.8378  -15.9384   21.4124 C   0  0  0  0  0  0  0  0  0  0  0  0
  -22.6576  -14.9715   22.1609 C   0  0  0  0  0  0  0  0  0  0  0  0
  -22.6999  -29.3247   22.0814 C   0  0  0  0  0  0  0  0  0  0  0  0
  -21.5064  -26.4809   21.0763 C   0  0  0  0  0  0  0  0  0  0  0  0
  -22.0926  -23.4275   19.6692 C   0  0  0  0  0  0  0  0  0  0  0  0
  -28.6328  -20.3010   19.9053 C   0  0  0  0  0  0  0  0  0  0  0  0
  -20.8705  -33.9470   23.2416 C   0  0  0  0  0  0  0  0  0  0  0  0
  -23.6180  -29.1939   19.7371 C   0  0  0  0  0  0  0  0  0  0  0  0
  -24.0188  -26.6644   21.2155 C   0  0  0  0  0  0  0  0  0  0  0  0
  -20.3157  -32.5249   23.2286 C   0  0  0  0  0  0  0  0  0  0  0  0
  -29.4717  -17.1441   21.3221 C   0  0  0  0  0  0  0  0  0  0  0  0
  -21.2684  -31.5736   23.9457 C   0  0  0  0  0  0  0  0  0  0  0  0
  -28.1403  -16.6289   21.8736 C   0  0  0  0  0  0  0  0  0  0  0  0
  -29.6088  -18.6561   21.4917 C   0  0  0  0  0  0  0  0  0  0  0  0
  -27.1605  -18.9296   21.5075 C   0  0  0  0  0  0  0  0  0  0  0  0
  -22.6306  -31.5238   23.2433 C   0  0  1  0  0  0  0  0  0  0  0  0
  -22.5857  -28.6732   20.7323 C   0  0  1  0  0  0  0  0  0  0  0  0
  -26.9487  -17.4209   21.3005 C   0  0  2  0  0  0  0  0  0  0  0  0
  -21.5721  -21.1773   18.6877 C   0  0  0  0  0  0  0  0  0  0  0  0
  -21.4073  -25.6296   24.0047 C   0  0  0  0  0  0  0  0  0  0  0  0
  -21.1604  -23.2600   23.2352 C   0  0  0  0  0  0  0  0  0  0  0  0
  -19.4177  -24.9469   22.6519 C   0  0  0  0  0  0  0  0  0  0  0  0
  -31.9505  -26.7568   18.4719 C   0  0  0  0  0  0  0  0  0  0  0  0
  -31.6270  -26.2781   20.9067 C   0  0  0  0  0  0  0  0  0  0  0  0
  -21.7818  -24.5561   16.9510 C   0  0  0  0  0  0  0  0  0  0  0  0
  -29.8269  -27.4950   19.6150 C   0  0  0  0  0  0  0  0  0  1  0  0
  -30.2561  -25.0378   19.2162 C   0  0  0  0  0  0  0  0  0  0  0  0
  -21.6684  -25.0422   21.5041 C   0  0  1  0  0  0  0  0  0  0  0  0
  -21.3859  -22.6806   18.5524 C   0  0  2  0  0  0  0  0  0  0  0  0
  -20.9357  -24.7353   22.8407 C   0  0  0  0  0  0  0  0  0  0  0  0
  -30.9102  -26.3956   19.5494 C   0  0  0  0  0  0  0  0  0  0  0  0
  -25.1410  -17.5578   22.9724 N   0  0  0  0  0  0  0  0  0  0  0  0
  -25.6284  -16.9471   21.8789 N   0  0  0  0  0  0  0  0  0  0  0  0
  -22.6856  -27.2280   20.9462 N   0  0  0  0  0  0  0  0  0  0  0  0
  -28.4461  -19.3405   20.9218 N   0  0  0  0  0  0  0  0  0  0  0  0
  -25.1785  -15.2204   20.3212 N   0  0  0  0  0  0  0  0  0  0  0  0
  -21.6333  -15.0539   23.1139 N   0  0  0  0  0  0  0  0  0  0  0  0
  -27.4525  -20.8613   19.4178 N   0  0  0  0  0  0  0  0  0  0  0  0
  -22.5574  -30.6990   22.0564 N   0  0  0  0  0  0  0  0  0  0  0  0
  -21.2227  -24.2288   20.3780 N   0  0  0  0  0  0  0  0  0  0  0  0
  -21.9209  -23.1031   17.2272 N   0  3  0  0  0  0  0  0  0  0  0  0
  -22.5928  -14.0970   21.2640 O   0  0  0  0  0  0  0  0  0  0  0  0
  -22.9008  -28.6318   23.0719 O   0  0  0  0  0  0  0  0  0  0  0  0
  -20.3757  -26.9233   20.8584 O   0  0  0  0  0  0  0  0  0  0  0  0
  -23.2953  -23.3088   19.8929 O   0  0  0  0  0  0  0  0  0  0  0  0
  -29.7550  -20.5844   19.4784 O   0  0  0  0  0  0  0  0  0  0  0  0
  -20.7596  -18.3405   27.5264 O   0  0  0  0  0  0  0  0  0  0  0  0
  -28.8447  -27.1883   20.6037 O   0  0  0  0  0  0  0  0  0  1  0  0
  -29.2436  -25.1868   18.2290 O   0  0  0  0  0  0  0  0  0  0  0  0
  -18.6979  -14.2863   30.6435 F   0  0  0  0  0  0  0  0  0  0  0  0
  -24.6330  -24.2429   17.4981 F   0  0  0  0  0  0  0  0  0  0  0  0
  -21.3425  -18.1896   30.2246 F   0  0  0  0  0  0  0  0  0  0  0  0
  1  2  1  0  0  0  0
  1  5  2  0  0  0  0
  2  6  2  0  0  0  0
  3  8  2  0  0  0  0
  3 18  1  0  0  0  0
  4  9  1  0  0  0  0
  4 18  2  0  0  0  0
  5 20  1  0  0  0  0
  6 22  1  0  0  0  0
  7 10  2  0  0  0  0
  7 21  1  0  0  0  0
  8 25  1  0  0  0  0
  9 25  2  0  0  0  0
 10 26  1  0  0  0  0
 11 12  2  0  0  0  0
 11 27  1  0  0  0  0
 12 29  1  0  0  0  0
 13 23  1  0  0  0  0
 13 26  2  0  0  0  0
 14 24  1  0  0  0  0
 14 28  2  0  0  0  0
 15 24  2  0  0  0  0
 15 30  1  0  0  0  0
 16 28  1  0  0  0  0
 16 30  2  0  0  0  0
 17 29  2  0  0  0  0
 17 31  1  0  0  0  0
 18 32  1  0  0  0  0
 19 32  1  0  0  0  0
 19 33  2  0  0  0  0
 19 34  1  0  0  0  0
 20 22  2  0  0  0  0
 20 39  1  0  0  0  0
 21 23  2  0  0  0  0
 21 40  1  0  0  0  0
 22 48  1  0  0  0  0
 23 41  1  0  0  0  0
 24 70  1  0  0  0  0
 25 79  1  0  0  0  0
 26 80  1  0  0  0  0
 27 31  2  0  0  0  0
 27 79  1  0  0  0  0
 28 81  1  0  0  0  0
 29 82  1  0  0  0  0
 30 83  1  0  0  0  0
 31 84  1  0  0  0  0
 32 64  2  0  0  0  0
 33 65  1  0  0  0  0
 33 68  1  0  0  0  0
 34 69  1  0  0  0  0
 34 74  2  0  0  0  0
 35 49  1  0  0  0  0
 35 71  1  0  0  0  0
 35 75  2  0  0  0  0
 36 60  1  0  0  0  0
 36 66  1  0  0  0  0
 36 76  2  0  0  0  0
 37 61  1  0  0  0  0
 37 72  1  0  0  0  0
 37 77  2  0  0  0  0
 38 67  1  0  0  0  0
 38 70  1  0  0  0  0
 38 78  2  0  0  0  0
 39 42  1  0  0  0  0
 40 49  1  0  0  0  0
 41 66  1  0  0  0  0
 42 44  1  0  0  0  0
 43 45  1  0  0  0  0
 43 46  1  0  0  0  0
 44 48  1  0  0  0  0
 45 50  1  0  0  0  0
 46 67  1  0  0  0  0
 47 50  1  0  0  0  0
 47 67  1  0  0  0  0
 48 71  1  0  0  0  0
 49 66  1  0  0  0  0
 50 65  1  0  0  0  0
 51 61  1  0  0  0  0
 52 62  1  0  0  0  0
 53 62  1  0  0  0  0
 54 62  1  0  0  0  0
 55 63  1  0  0  0  0
 56 63  1  0  0  0  0
 57 73  1  0  0  0  0
 58 63  1  0  0  0  0
 58 80  1  0  0  0  0
 59 63  1  0  0  0  0
 59 81  1  0  0  0  0
 60 62  1  0  0  0  0
 60 72  1  0  0  0  0
 61 73  1  0  0  0  0
 64 65  1  0  0  0  0
M  CHG  1  73   1
M  ISO  4  38 100  58 101  70 100  80 101
M  END
> <Batch ID>
0138

> <Smiles>
CNC(C)C(=O)NC(C(=O)N1Cc2cc([101O:1][101CH2:1]C(C)(C)COc3cc(F)cc([100NH:0][100C:0](=O)N4CCCC(n5nc(-c6ccc(Oc7ccc(F)cc7F)cc6)c(C(N)=O)c5N)C4)c3)ccc2CC1C(=O)NC1CCCc2ccccc21)C(C)(C)C

> <Shape>
0.180

> <Color>
0.104

> <Negative vol penalty>
0.000

$$$$

  -OEChem-04052302453D

 84 92  0     1  0  0  0  0  0999 V2000
  -17.0043  -31.3987   22.4001 C   0  0  0  0  0  0  0  0  0  0  0  0
  -18.2367  -32.0200   22.5749 C   0  0  0  0  0  0  0  0  0  0  0  0
  -29.6712  -18.9988   23.4072 C   0  0  0  0  0  0  0  0  0  0  0  0
  -29.6849  -21.1298   22.2690 C   0  0  0  0  0  0  0  0  0  0  0  0
  -16.8993  -30.0139   22.5234 C   0  0  0  0  0  0  0  0  0  0  0  0
  -19.3647  -31.2568   22.8741 C   0  0  0  0  0  0  0  0  0  0  0  0
  -25.1133  -32.3093   21.0431 C   0  0  0  0  0  0  0  0  0  0  0  0
  -27.8545  -28.9492   28.7974 C   0  0  0  0  0  0  0  0  0  0  0  0
  -28.1534  -30.1372   28.1305 C   0  0  0  0  0  0  0  0  0  0  0  0
  -29.9393  -18.3525   22.2005 C   0  0  0  0  0  0  0  0  0  0  0  0
  -29.9531  -20.4836   21.0623 C   0  0  0  0  0  0  0  0  0  0  0  0
  -26.2027  -32.9108   21.6717 C   0  0  0  0  0  0  0  0  0  0  0  0
  -32.6210  -17.7857   20.2206 C   0  0  0  0  0  0  0  0  0  0  0  0
  -33.5992  -16.7913   20.2212 C   0  0  0  0  0  0  0  0  0  0  0  0
  -27.0073  -30.7380   22.3431 C   0  0  0  0  0  0  0  0  0  0  0  0
  -25.6217  -28.9933   27.8755 C   0  0  0  0  0  0  0  0  0  0  0  0
  -31.9594  -15.1779   19.4830 C   0  0  0  0  0  0  0  0  0  0  0  0
  -29.5439  -20.3875   23.4414 C   0  0  0  0  0  0  0  0  0  0  0  0
  -30.2037  -21.5459   25.6164 C   0  0  0  0  0  0  0  0  0  0  0  0
  -18.0285  -29.2324   22.8147 C   0  0  0  0  0  0  0  0  0  0  0  0
  -24.9566  -30.9160   21.0691 C   0  0  0  0  0  0  0  0  0  0  0  0
  -19.2745  -29.8604   23.0027 C   0  0  0  0  0  0  0  0  0  0  0  0
  -25.9164  -30.1211   21.7118 C   0  0  0  0  0  0  0  0  0  0  0  0
  -26.5887  -28.3772   28.6699 C   0  0  0  0  0  0  0  0  0  0  0  0
  -27.1865  -30.7533   27.3361 C   0  0  0  0  0  0  0  0  0  0  0  0
  -30.0803  -19.0949   21.0281 C   0  0  0  0  0  0  0  0  0  0  0  0
  -27.1483  -32.1253   22.3243 C   0  0  0  0  0  0  0  0  0  0  0  0
  -31.3120  -17.4762   19.8513 C   0  0  0  0  0  0  0  0  0  0  0  0
  -33.2684  -15.4874   19.8524 C   0  0  0  0  0  0  0  0  0  0  0  0
  -25.9206  -30.1814   27.2086 C   0  0  0  0  0  0  0  0  0  0  0  0
  -30.9812  -16.1723   19.4825 C   0  0  0  0  0  0  0  0  0  0  0  0
  -29.2663  -21.0556   24.6875 C   0  0  0  0  0  0  0  0  0  0  0  0
  -29.4401  -22.0883   26.6209 C   0  0  0  0  0  0  0  0  0  0  0  0
  -31.6365  -21.5139   25.5748 C   0  0  0  0  0  0  0  0  0  0  0  0
  -22.7641  -28.9264   22.2259 C   0  0  0  0  0  0  0  0  0  0  0  0
  -24.5582  -26.6886   20.7107 C   0  0  0  0  0  0  0  0  0  0  0  0
  -27.5955  -25.7790   19.4480 C   0  0  0  0  0  0  0  0  0  0  0  0
  -25.1177  -25.1840   28.3179 C   0  0  0  0  0  0  0  0  0  0  0  0
  -17.8567  -27.7437   22.9850 C   0  0  0  0  0  0  0  0  0  0  0  0
  -23.7902  -30.2807   20.3633 C   0  0  0  0  0  0  0  0  0  0  0  0
  -25.8050  -28.6196   21.7511 C   0  0  0  0  0  0  0  0  0  0  0  0
  -19.1711  -26.9691   22.9339 C   0  0  0  0  0  0  0  0  0  0  0  0
  -24.4709  -21.7765   27.5135 C   0  0  0  0  0  0  0  0  0  0  0  0
  -20.2242  -27.6468   23.8050 C   0  0  0  0  0  0  0  0  0  0  0  0
  -25.7350  -21.3279   26.7781 C   0  0  0  0  0  0  0  0  0  0  0  0
  -24.1110  -23.2240   27.1859 C   0  0  0  0  0  0  0  0  0  0  0  0
  -26.4626  -23.7480   26.6668 C   0  0  0  0  0  0  0  0  0  0  0  0
  -20.5258  -29.0643   23.3037 C   0  0  1  0  0  0  0  0  0  0  0  0
  -23.4569  -28.8894   20.8931 C   0  0  1  0  0  0  0  0  0  0  0  0
  -26.8971  -22.3126   27.0088 C   0  0  2  0  0  0  0  0  0  0  0  0
  -28.7630  -23.8749   18.3039 C   0  0  0  0  0  0  0  0  0  0  0  0
  -24.6872  -25.1794   23.3594 C   0  0  0  0  0  0  0  0  0  0  0  0
  -26.5927  -23.8487   22.4283 C   0  0  0  0  0  0  0  0  0  0  0  0
  -24.3468  -23.7313   21.3490 C   0  0  0  0  0  0  0  0  0  0  0  0
  -26.8975  -34.0777   24.4101 C   0  0  0  0  0  0  0  0  0  0  0  0
  -29.3537  -33.7305   24.7785 C   0  0  0  0  0  0  0  0  0  0  0  0
  -28.2022  -27.4292   17.0674 C   0  0  0  0  0  0  0  0  0  0  0  0
  -27.5123  -32.0391   26.6167 C   0  0  0  0  0  0  0  0  0  0  0  0
  -26.2690  -27.1072   29.3832 C   0  0  0  0  0  0  0  0  0  0  0  0
  -27.7902  -31.7949   25.1266 C   0  0  0  0  0  0  0  0  0  0  0  0
  -25.7377  -25.8268   21.0914 C   0  0  1  0  0  0  0  0  0  0  0  0
  -27.9908  -25.1713   18.1143 C   0  0  2  0  0  0  0  0  0  0  0  0
  -25.3424  -24.6749   22.0581 C   0  0  0  0  0  0  0  0  0  0  0  0
  -28.0500  -33.0763   24.3089 C   0  0  0  0  0  0  0  0  0  1  0  0
  -28.0037  -21.2676   25.0682 N   0  0  0  0  0  0  0  0  0  0  0  0
  -28.1423  -21.8970   26.2474 N   0  0  0  0  0  0  0  0  0  0  0  0
  -24.6433  -28.0459   21.0519 N   0  0  0  0  0  0  0  0  0  0  0  0
  -25.2552  -24.1062   27.4277 N   0  0  0  0  0  0  0  0  0  0  0  0
  -29.7588  -22.7053   27.7786 N   0  0  0  0  0  0  0  0  0  0  0  0
  -32.2597  -20.9187   24.4695 N   0  0  0  0  0  0  0  0  0  0  0  0
  -21.3878  -29.0169   22.1422 N   0  0  0  0  0  0  0  0  0  0  0  0
  -26.3358  -25.3770   19.8391 N   0  0  0  0  0  0  0  0  0  0  0  0
  -26.2522  -25.9667   28.4946 N   0  0  0  0  0  0  0  0  0  0  0  0
  -28.8460  -26.1197   17.3461 N   0  3  0  0  0  0  0  0  0  0  0  0
  -32.3430  -21.9842   26.4985 O   0  0  0  0  0  0  0  0  0  0  0  0
  -23.4289  -28.8752   23.2540 O   0  0  0  0  0  0  0  0  0  0  0  0
  -23.5999  -26.1779   20.1256 O   0  0  0  0  0  0  0  0  0  0  0  0
  -28.3320  -26.5317   20.0815 O   0  0  0  0  0  0  0  0  0  0  0  0
  -24.0638  -25.4273   28.9153 O   0  0  0  0  0  0  0  0  0  0  0  0
  -30.3422  -18.4647   19.8505 O   0  0  0  0  0  0  0  0  0  0  0  0
  -28.2123  -32.7099   22.9393 O   0  0  0  0  0  0  0  0  0  1  0  0
  -34.2081  -14.5329   19.8515 F   0  0  0  0  0  0  0  0  0  0  0  0
  -24.9848  -30.7667   26.4482 F   0  0  0  0  0  0  0  0  0  0  0  0
  -29.7256  -15.8691   19.1255 F   0  0  0  0  0  0  0  0  0  0  0  0
  1  2  1  0  0  0  0
  1  5  2  0  0  0  0
  2  6  2  0  0  0  0
  3 10  2  0  0  0  0
  3 18  1  0  0  0  0
  4 11  1  0  0  0  0
  4 18  2  0  0  0  0
  5 20  1  0  0  0  0
  6 22  1  0  0  0  0
  7 12  2  0  0  0  0
  7 21  1  0  0  0  0
  8  9  2  0  0  0  0
  8 24  1  0  0  0  0
  9 25  1  0  0  0  0
 10 26  1  0  0  0  0
 11 26  2  0  0  0  0
 12 27  1  0  0  0  0
 13 14  2  0  0  0  0
 13 28  1  0  0  0  0
 14 29  1  0  0  0  0
 15 23  1  0  0  0  0
 15 27  2  0  0  0  0
 16 24  2  0  0  0  0
 16 30  1  0  0  0  0
 17 29  2  0  0  0  0
 17 31  1  0  0  0  0
 18 32  1  0  0  0  0
 19 32  1  0  0  0  0
 19 33  2  0  0  0  0
 19 34  1  0  0  0  0
 20 22  2  0  0  0  0
 20 39  1  0  0  0  0
 21 23  2  0  0  0  0
 21 40  1  0  0  0  0
 22 48  1  0  0  0  0
 23 41  1  0  0  0  0
 24 59  1  0  0  0  0
 25 30  2  0  0  0  0
 25 58  1  0  0  0  0
 26 80  1  0  0  0  0
 27 81  1  0  0  0  0
 28 31  2  0  0  0  0
 28 80  1  0  0  0  0
 29 82  1  0  0  0  0
 30 83  1  0  0  0  0
 31 84  1  0  0  0  0
 32 65  2  0  0  0  0
 33 66  1  0  0  0  0
 33 69  1  0  0  0  0
 34 70  1  0  0  0  0
 34 75  2  0  0  0  0
 35 49  1  0  0  0  0
 35 71  1  0  0  0  0
 35 76  2  0  0  0  0
 36 61  1  0  0  0  0
 36 67  1  0  0  0  0
 36 77  2  0  0  0  0
 37 62  1  0  0  0  0
 37 72  1  0  0  0  0
 37 78  2  0  0  0  0
 38 68  1  0  0  0  0
 38 73  1  0  0  0  0
 38 79  2  0  0  0  0
 39 42  1  0  0  0  0
 40 49  1  0  0  0  0
 41 67  1  0  0  0  0
 42 44  1  0  0  0  0
 43 45  1  0  0  0  0
 43 46  1  0  0  0  0
 44 48  1  0  0  0  0
 45 50  1  0  0  0  0
 46 68  1  0  0  0  0
 47 50  1  0  0  0  0
 47 68  1  0  0  0  0
 48 71  1  0  0  0  0
 49 67  1  0  0  0  0
 50 66  1  0  0  0  0
 51 62  1  0  0  0  0
 52 63  1  0  0  0  0
 53 63  1  0  0  0  0
 54 63  1  0  0  0  0
 55 64  1  0  0  0  0
 56 64  1  0  0  0  0
 57 74  1  0  0  0  0
 58 60  1  0  0  0  0
 59 73  1  0  0  0  0
 60 64  1  0  0  0  0
 61 63  1  0  0  0  0
 61 72  1  0  0  0  0
 62 74  1  0  0  0  0
 64 81  1  0  0  0  0
 65 66  1  0  0  0  0
M  CHG  1  74   1
M  ISO  4  38 100  64 101  73 100  81 101
M  END
> <Batch ID>
0138

> <Smiles>
CNC(C)C(=O)NC(C(=O)N1Cc2cc([101O:1][101C:1](C)(C)CCc3ccc(C[100NH:0][100C:0](=O)N4CCCC(n5nc(-c6ccc(Oc7ccc(F)cc7F)cc6)c(C(N)=O)c5N)C4)cc3F)ccc2CC1C(=O)NC1CCCc2ccccc21)C(C)(C)C

> <Shape>
0.190

> <Color>
0.091

> <Negative vol penalty>
0.000

$$$$

  -OEChem-04052302453D

 92101  0     1  0  0  0  0  0999 V2000
  -19.5893  -28.2578   26.5121 C   0  0  0  0  0  0  0  0  0  0  0  0
  -20.9252  -27.9683   26.2535 C   0  0  0  0  0  0  0  0  0  0  0  0
  -24.3372   -9.4664   21.6425 C   0  0  0  0  0  0  0  0  0  0  0  0
  -24.6220  -10.7882   23.6447 C   0  0  0  0  0  0  0  0  0  0  0  0
  -18.6752  -28.3228   25.4613 C   0  0  0  0  0  0  0  0  0  0  0  0
  -21.3476  -27.7425   24.9439 C   0  0  0  0  0  0  0  0  0  0  0  0
  -25.6671  -30.1502   23.8533 C   0  0  0  0  0  0  0  0  0  0  0  0
  -32.1833  -20.9671   23.2408 C   0  0  0  0  0  0  0  0  0  0  0  0
  -32.9500  -20.9952   25.5318 C   0  0  0  0  0  0  0  0  0  0  0  0
  -31.6174  -22.2301   23.4146 C   0  0  0  0  0  0  0  0  0  0  0  0
  -32.3842  -22.2583   25.7056 C   0  0  0  0  0  0  0  0  0  0  0  0
  -23.9800   -8.3650   22.4204 C   0  0  0  0  0  0  0  0  0  0  0  0
  -24.2648   -9.6868   24.4226 C   0  0  0  0  0  0  0  0  0  0  0  0
  -26.8496  -29.5818   24.3251 C   0  0  0  0  0  0  0  0  0  0  0  0
  -21.2438   -7.2665   24.0755 C   0  0  0  0  0  0  0  0  0  0  0  0
  -20.1357   -6.5209   23.6734 C   0  0  0  0  0  0  0  0  0  0  0  0
  -27.2580  -28.6359   22.1439 C   0  0  0  0  0  0  0  0  0  0  0  0
  -32.1663  -17.1343   22.6235 C   0  0  0  0  0  0  0  0  0  0  0  0
  -21.5320   -4.5609   23.4598 C   0  0  0  0  0  0  0  0  0  0  0  0
  -30.5051  -16.8362   24.0823 C   0  0  0  0  0  0  0  0  0  0  0  0
  -24.6582  -10.6779   22.2547 C   0  0  0  0  0  0  0  0  0  0  0  0
  -24.1693  -12.7993   20.9248 C   0  0  0  0  0  0  0  0  0  0  0  0
  -19.0885  -28.1071   24.1372 C   0  0  0  0  0  0  0  0  0  0  0  0
  -25.2651  -29.9564   22.5240 C   0  0  0  0  0  0  0  0  0  0  0  0
  -20.4379  -27.8032   23.8746 C   0  0  0  0  0  0  0  0  0  0  0  0
  -26.0714  -29.2051   21.6570 C   0  0  0  0  0  0  0  0  0  0  0  0
  -32.8495  -20.3496   24.2994 C   0  0  0  0  0  0  0  0  0  0  0  0
  -31.7179  -22.8757   24.6470 C   0  0  0  0  0  0  0  0  0  0  0  0
  -30.9714  -16.4133   22.8593 C   0  0  0  0  0  0  0  0  0  0  0  0
  -23.9438   -8.4752   23.8104 C   0  0  0  0  0  0  0  0  0  0  0  0
  -27.6437  -28.8221   23.4711 C   0  0  0  0  0  0  0  0  0  0  0  0
  -22.4961   -6.6594   24.1697 C   0  0  0  0  0  0  0  0  0  0  0  0
  -20.2798   -5.1681   23.3656 C   0  0  0  0  0  0  0  0  0  0  0  0
  -22.6402   -5.3066   23.8618 C   0  0  0  0  0  0  0  0  0  0  0  0
  -25.0278  -11.8158   21.4517 C   0  0  0  0  0  0  0  0  0  0  0  0
  -32.3449  -17.9465   23.7191 C   0  0  0  0  0  0  0  0  0  0  0  0
  -25.0022  -13.6530   20.2438 C   0  0  0  0  0  0  0  0  0  0  0  0
  -22.7462  -12.9295   21.0408 C   0  0  0  0  0  0  0  0  0  0  0  0
  -22.7596  -28.6015   21.1131 C   0  0  0  0  0  0  0  0  0  0  0  0
  -29.9709  -26.1801   24.3137 C   0  0  0  0  0  0  0  0  0  0  0  0
  -24.1185  -29.8008   18.4229 C   0  0  0  0  0  0  0  0  0  0  0  0
  -26.9385  -30.8914   16.8401 C   0  0  0  0  0  0  0  0  0  0  0  0
  -30.7997  -14.9953   20.7842 C   0  0  0  0  0  0  0  0  0  0  0  0
  -18.0548  -28.1411   23.0395 C   0  0  0  0  0  0  0  0  0  0  0  0
  -24.0004  -30.5985   22.0233 C   0  0  0  0  0  0  0  0  0  0  0  0
  -25.6946  -28.9840   20.2156 C   0  0  0  0  0  0  0  0  0  0  0  0
  -18.6552  -28.2587   21.6409 C   0  0  0  0  0  0  0  0  0  0  0  0
  -29.1685  -13.7297   17.8835 C   0  0  0  0  0  0  0  0  0  0  0  0
  -19.8102  -27.2768   21.4715 C   0  0  0  0  0  0  0  0  0  0  0  0
  -27.8408  -13.1902   18.4205 C   0  0  0  0  0  0  0  0  0  0  0  0
  -30.3152  -13.4933   18.8648 C   0  0  0  0  0  0  0  0  0  0  0  0
  -28.7485  -13.4436   20.7654 C   0  0  0  0  0  0  0  0  0  0  0  0
  -20.9393  -27.5766   22.4648 C   0  0  1  0  0  0  0  0  0  0  0  0
  -23.4276  -29.9079   20.7895 C   0  0  1  0  0  0  0  0  0  0  0  0
  -27.5515  -13.7165   19.8400 C   0  0  2  0  0  0  0  0  0  0  0  0
  -35.7329  -20.0299   23.2923 C   0  0  0  0  0  0  0  0  0  0  0  0
  -34.7974  -17.0059   25.3107 C   0  0  0  0  0  0  0  0  0  0  0  0
  -27.7422  -31.7738   14.6327 C   0  0  0  0  0  0  0  0  0  0  0  0
  -23.9909  -26.9854   17.2536 C   0  0  0  0  0  0  0  0  0  0  0  0
  -25.6240  -27.7143   15.5015 C   0  0  0  0  0  0  0  0  0  0  0  0
  -23.3873  -28.8086   15.6517 C   0  0  0  0  0  0  0  0  0  0  0  0
  -27.8166  -33.4457   18.0496 C   0  0  0  0  0  0  0  0  0  0  0  0
  -30.4534  -24.8462   23.7845 C   0  0  0  0  0  0  0  0  0  0  0  0
  -29.2155  -27.0435   23.3222 C   0  0  0  0  0  0  0  0  0  1  0  0
  -34.5823  -19.0704   22.9883 C   0  0  0  0  0  0  0  0  0  0  0  0
  -34.1537  -18.3882   25.4195 C   0  0  0  0  0  0  0  0  0  0  0  0
  -25.1277  -29.2976   17.4192 C   0  0  1  0  0  0  0  0  0  0  0  0
  -27.2122  -32.1338   16.0119 C   0  0  2  0  0  0  0  0  0  0  0  0
  -33.4544  -18.9990   24.1147 C   0  0  0  0  0  0  0  0  0  0  0  0
  -24.5389  -28.2038   16.4841 C   0  0  0  0  0  0  0  0  0  0  0  0
  -26.3079  -12.0242   21.1326 N   0  0  0  0  0  0  0  0  0  0  0  0
  -26.2600  -13.1484   20.3978 N   0  0  0  0  0  0  0  0  0  0  0  0
  -24.4457  -29.6271   19.7751 N   0  0  0  0  0  0  0  0  0  0  0  0
  -29.9717  -14.0215   20.1869 N   0  0  0  0  0  0  0  0  0  0  0  0
  -24.7742  -14.7785   19.5341 N   0  0  0  0  0  0  0  0  0  0  0  0
  -22.0447  -11.9648   21.7766 N   0  0  0  0  0  0  0  0  0  0  0  0
  -30.3552  -15.4467   22.0265 N   0  0  0  0  0  0  0  0  0  0  0  0
  -31.1568  -24.1329   24.8197 N   0  0  0  0  0  0  0  0  0  0  0  0
  -21.7194  -28.7101   22.0163 N   0  0  0  0  0  0  0  0  0  0  0  0
  -25.6294  -30.4752   16.7194 N   0  0  0  0  0  0  0  0  0  0  0  0
  -28.2185  -32.9979   16.6913 N   0  3  0  0  0  0  0  0  0  0  0  0
  -22.1134  -13.8644   20.4939 O   0  0  0  0  0  0  0  0  0  0  0  0
  -23.1574  -27.5715   20.5816 O   0  0  0  0  0  0  0  0  0  0  0  0
  -30.1728  -26.5496   25.4698 O   0  0  0  0  0  0  0  0  0  0  0  0
  -23.0814  -30.3350   18.0219 O   0  0  0  0  0  0  0  0  0  0  0  0
  -27.8007  -30.3426   17.5227 O   0  0  0  0  0  0  0  0  0  0  0  0
  -31.8129  -15.4189   20.2220 O   0  0  0  0  0  0  0  0  0  0  0  0
  -31.3366  -17.7709   24.6130 O   0  0  0  0  0  0  0  0  0  0  0  0
  -23.5951   -7.4008   24.5698 O   0  0  0  0  0  0  0  0  0  0  0  0
  -28.7980  -28.2657   23.9292 O   0  0  0  0  0  0  0  0  0  1  0  0
  -19.2153   -4.4518   22.9809 F   0  0  0  0  0  0  0  0  0  0  0  0
  -23.8405   -4.7175   23.9516 F   0  0  0  0  0  0  0  0  0  0  0  0
  1  2  1  0  0  0  0
  1  5  2  0  0  0  0
  2  6  2  0  0  0  0
  3 12  2  0  0  0  0
  3 21  1  0  0  0  0
  4 13  1  0  0  0  0
  4 21  2  0  0  0  0
  5 23  1  0  0  0  0
  6 25  1  0  0  0  0
  7 14  2  0  0  0  0
  7 24  1  0  0  0  0
  8 10  2  0  0  0  0
  8 27  1  0  0  0  0
  9 11  1  0  0  0  0
  9 27  2  0  0  0  0
 10 28  1  0  0  0  0
 11 28  2  0  0  0  0
 12 30  1  0  0  0  0
 13 30  2  0  0  0  0
 14 31  1  0  0  0  0
 15 16  2  0  0  0  0
 15 32  1  0  0  0  0
 16 33  1  0  0  0  0
 17 26  1  0  0  0  0
 17 31  2  0  0  0  0
 18 29  1  0  0  0  0
 18 36  2  0  0  0  0
 19 33  2  0  0  0  0
 19 34  1  0  0  0  0
 20 29  2  0  0  0  0
 20 88  1  0  0  0  0
 21 35  1  0  0  0  0
 22 35  1  0  0  0  0
 22 37  2  0  0  0  0
 22 38  1  0  0  0  0
 23 25  2  0  0  0  0
 23 44  1  0  0  0  0
 24 26  2  0  0  0  0
 24 45  1  0  0  0  0
 25 53  1  0  0  0  0
 26 46  1  0  0  0  0
 27 69  1  0  0  0  0
 28 78  1  0  0  0  0
 29 77  1  0  0  0  0
 30 89  1  0  0  0  0
 31 90  1  0  0  0  0
 32 34  2  0  0  0  0
 32 89  1  0  0  0  0
 33 91  1  0  0  0  0
 34 92  1  0  0  0  0
 35 71  2  0  0  0  0
 36 69  1  0  0  0  0
 36 88  1  0  0  0  0
 37 72  1  0  0  0  0
 37 75  1  0  0  0  0
 38 76  1  0  0  0  0
 38 82  2  0  0  0  0
 39 54  1  0  0  0  0
 39 79  1  0  0  0  0
 39 83  2  0  0  0  0
 40 63  1  0  0  0  0
 40 64  1  0  0  0  0
 40 84  2  0  0  0  0
 41 67  1  0  0  0  0
 41 73  1  0  0  0  0
 41 85  2  0  0  0  0
 42 68  1  0  0  0  0
 42 80  1  0  0  0  0
 42 86  2  0  0  0  0
 43 74  1  0  0  0  0
 43 77  1  0  0  0  0
 43 87  2  0  0  0  0
 44 47  1  0  0  0  0
 45 54  1  0  0  0  0
 46 73  1  0  0  0  0
 47 49  1  0  0  0  0
 48 50  1  0  0  0  0
 48 51  1  0  0  0  0
 49 53  1  0  0  0  0
 50 55  1  0  0  0  0
 51 74  1  0  0  0  0
 52 55  1  0  0  0  0
 52 74  1  0  0  0  0
 53 79  1  0  0  0  0
 54 73  1  0  0  0  0
 55 72  1  0  0  0  0
 56 65  1  0  0  0  0
 57 66  1  0  0  0  0
 58 68  1  0  0  0  0
 59 70  1  0  0  0  0
 60 70  1  0  0  0  0
 61 70  1  0  0  0  0
 62 81  1  0  0  0  0
 63 78  1  0  0  0  0
 64 90  1  0  0  0  0
 65 69  1  0  0  0  0
 66 69  1  0  0  0  0
 67 70  1  0  0  0  0
 67 80  1  0  0  0  0
 68 81  1  0  0  0  0
 71 72  1  0  0  0  0
M  CHG  1  81   1
M  ISO  4  43 100  64 101  77 100  90 101
M  END
> <Batch ID>
0138

> <Smiles>
CCC(CC)(c1ccc(NCC(=O)[101CH2:1][101O:1]c2ccc3c(c2)CN(C(=O)C(NC(=O)C(C)NC)C(C)(C)C)C(C(=O)NC2CCCc4ccccc42)C3)cc1)c1cc([100NH:0][100C:0](=O)N2CCCC(n3nc(-c4ccc(Oc5ccc(F)cc5F)cc4)c(C(N)=O)c3N)C2)co1

> <Shape>
0.249

> <Color>
0.130

> <Negative vol penalty>
0.000

$$$$

  -OEChem-04052302453D

 87 96  0     1  0  0  0  0  0999 V2000
  -31.5860  -35.0122   22.9858 C   0  0  0  0  0  0  0  0  0  0  0  0
  -31.5133  -33.6840   23.3931 C   0  0  0  0  0  0  0  0  0  0  0  0
  -23.0767   -9.8659   19.9411 C   0  0  0  0  0  0  0  0  0  0  0  0
  -23.8353   -9.8746   22.2348 C   0  0  0  0  0  0  0  0  0  0  0  0
  -31.2755  -35.3548   21.6704 C   0  0  0  0  0  0  0  0  0  0  0  0
  -31.1289  -32.6976   22.4855 C   0  0  0  0  0  0  0  0  0  0  0  0
  -33.1621  -26.9260   22.2409 C   0  0  0  0  0  0  0  0  0  0  0  0
  -22.3332   -8.7126   20.1913 C   0  0  0  0  0  0  0  0  0  0  0  0
  -23.0918   -8.7212   22.4851 C   0  0  0  0  0  0  0  0  0  0  0  0
  -32.6351  -25.7250   22.7139 C   0  0  0  0  0  0  0  0  0  0  0  0
  -19.8637   -7.9223   23.0863 C   0  0  0  0  0  0  0  0  0  0  0  0
  -19.1061   -7.8827   24.2568 C   0  0  0  0  0  0  0  0  0  0  0  0
  -31.6873  -25.2911   20.5384 C   0  0  0  0  0  0  0  0  0  0  0  0
  -31.8464  -18.3643   24.2016 C   0  0  0  0  0  0  0  0  0  0  0  0
  -29.8744  -17.4607   23.1380 C   0  0  0  0  0  0  0  0  0  0  0  0
  -32.0593  -16.6131   22.5509 C   0  0  0  0  0  0  0  0  0  0  0  0
  -20.3480   -5.9463   24.9951 C   0  0  0  0  0  0  0  0  0  0  0  0
  -23.8278  -10.4469   20.9628 C   0  0  0  0  0  0  0  0  0  0  0  0
  -24.1686  -12.9721   20.8415 C   0  0  0  0  0  0  0  0  0  0  0  0
  -30.8964  -34.3708   20.7437 C   0  0  0  0  0  0  0  0  0  0  0  0
  -32.9461  -27.3244   20.9139 C   0  0  0  0  0  0  0  0  0  0  0  0
  -30.8117  -33.0275   21.1569 C   0  0  0  0  0  0  0  0  0  0  0  0
  -32.2148  -26.4964   20.0503 C   0  0  0  0  0  0  0  0  0  0  0  0
  -30.4608  -18.3457   24.0427 C   0  0  0  0  0  0  0  0  0  0  0  0
  -32.6457  -17.4981   23.4556 C   0  0  0  0  0  0  0  0  0  0  0  0
  -30.6737  -16.5944   22.3920 C   0  0  0  0  0  0  0  0  0  0  0  0
  -22.3407   -8.1402   21.4633 C   0  0  0  0  0  0  0  0  0  0  0  0
  -31.8951  -24.9087   21.8634 C   0  0  0  0  0  0  0  0  0  0  0  0
  -20.8634   -6.9738   22.8701 C   0  0  0  0  0  0  0  0  0  0  0  0
  -19.3483   -6.8947   25.2112 C   0  0  0  0  0  0  0  0  0  0  0  0
  -21.1055   -5.9858   23.8245 C   0  0  0  0  0  0  0  0  0  0  0  0
  -24.5965  -11.6380   20.7048 C   0  0  0  0  0  0  0  0  0  0  0  0
  -25.2606  -13.7219   20.4784 C   0  0  0  0  0  0  0  0  0  0  0  0
  -29.5216  -22.6644   23.3496 C   0  0  0  0  0  0  0  0  0  0  0  0
  -30.1260  -23.7547   22.8680 C   0  0  0  0  0  0  0  0  0  1  0  0
  -22.8976  -13.4876   21.2595 C   0  0  0  0  0  0  0  0  0  0  0  0
  -31.5020  -29.7884   19.5185 C   0  0  0  0  0  0  0  0  0  0  0  0
  -32.7250  -28.4742   16.8167 C   0  0  0  0  0  0  0  0  0  0  0  0
  -33.8939  -25.6938   15.2198 C   0  0  0  0  0  0  0  0  0  0  0  0
  -30.7262  -14.7701   20.6555 C   0  0  0  0  0  0  0  0  0  0  0  0
  -30.5245  -34.7956   19.3452 C   0  0  0  0  0  0  0  0  0  0  0  0
  -33.5439  -28.6100   20.4117 C   0  0  0  0  0  0  0  0  0  0  0  0
  -31.9716  -26.8689   18.6114 C   0  0  0  0  0  0  0  0  0  0  0  0
  -28.1513  -22.6257   23.9577 C   0  0  0  0  0  0  0  0  0  0  0  0
  -30.1327  -21.3012   23.4203 C   0  0  0  0  0  0  0  0  0  0  0  0
  -30.4880  -33.6409   18.3473 C   0  0  0  0  0  0  0  0  0  0  0  0
  -29.6142  -12.3544   18.2880 C   0  0  0  0  0  0  0  0  0  0  0  0
  -29.7307  -32.4532   18.9326 C   0  0  0  0  0  0  0  0  0  0  0  0
  -28.1744  -12.0624   18.7170 C   0  0  0  0  0  0  0  0  0  0  0  0
  -30.5285  -12.5843   19.4900 C   0  0  0  0  0  0  0  0  0  0  0  0
  -28.6205  -13.3087   20.8698 C   0  0  0  0  0  0  0  0  0  0  0  0
  -28.1797  -21.3671   24.8146 C   0  0  0  0  0  0  0  0  0  0  0  0
  -30.4227  -31.9256   20.1953 C   0  0  1  0  0  0  0  0  0  0  0  0
  -32.8267  -29.1631   19.1841 C   0  0  1  0  0  0  0  0  0  0  0  0
  -27.6484  -13.1343   19.6916 C   0  0  2  0  0  0  0  0  0  0  0  0
  -34.5612  -17.1372   25.0539 C   0  0  0  0  0  0  0  0  0  0  0  0
  -34.7467  -18.8734   23.2356 C   0  0  0  0  0  0  0  0  0  0  0  0
  -34.7860  -24.9234   13.0044 C   0  0  0  0  0  0  0  0  0  0  0  0
  -29.8988  -28.5142   15.6675 C   0  0  0  0  0  0  0  0  0  0  0  0
  -30.6671  -26.9090   13.9065 C   0  0  0  0  0  0  0  0  0  0  0  0
  -31.6905  -29.1791   14.0543 C   0  0  0  0  0  0  0  0  0  0  0  0
  -36.4835  -24.8952   16.4093 C   0  0  0  0  0  0  0  0  0  0  0  0
  -29.6013  -19.2776   24.8450 C   0  0  0  0  0  0  0  0  0  0  0  0
  -34.1273  -17.5180   23.6257 C   0  0  0  0  0  0  0  0  0  0  0  0
  -32.2473  -27.4516   15.8143 C   0  0  1  0  0  0  0  0  0  0  0  0
  -35.1386  -25.4617   14.3823 C   0  0  2  0  0  0  0  0  0  0  0  0
  -31.1287  -28.0071   14.8882 C   0  0  0  0  0  0  0  0  0  0  0  0
  -25.8616  -11.5425   20.2873 N   0  0  0  0  0  0  0  0  0  0  0  0
  -26.2380  -12.8262   20.1584 N   0  0  0  0  0  0  0  0  0  0  0  0
  -32.5714  -28.1387   18.1694 N   0  0  0  0  0  0  0  0  0  0  0  0
  -29.9686  -13.6154   20.3665 N   0  0  0  0  0  0  0  0  0  0  0  0
  -25.4704  -15.0534   20.4048 N   0  0  0  0  0  0  0  0  0  0  0  0
  -21.8859  -12.5782   21.5967 N   0  0  0  0  0  0  0  0  0  0  0  0
  -30.0780  -15.6953   21.4730 N   0  0  0  0  0  0  0  0  0  0  0  0
  -31.5787  -31.1294   19.8428 N   0  0  0  0  0  0  0  0  0  0  0  0
  -33.4353  -26.9891   15.1050 N   0  0  0  0  0  0  0  0  0  0  0  0
  -29.0733  -20.4212   24.0445 N   0  3  2  0  0  0  0  0  0  0  0  0
  -36.0391  -24.4821   15.0533 N   0  3  0  0  0  0  0  0  0  0  0  0
  -22.6608  -14.7182   21.3160 O   0  0  0  0  0  0  0  0  0  0  0  0
  -30.4853  -29.1051   19.4832 O   0  0  0  0  0  0  0  0  0  0  0  0
  -33.2230  -29.5286   16.4144 O   0  0  0  0  0  0  0  0  0  0  0  0
  -33.3777  -24.8131   15.9042 O   0  0  0  0  0  0  0  0  0  0  0  0
  -31.8555  -14.9390   20.1884 O   0  0  0  0  0  0  0  0  0  0  0  0
  -21.6152   -7.0150   21.7079 O   0  0  0  0  0  0  0  0  0  0  0  0
  -31.3790  -23.7363   22.3227 O   0  0  0  0  0  0  0  0  0  1  0  0
  -18.6217   -6.8578   26.3359 F   0  0  0  0  0  0  0  0  0  0  0  0
  -22.0654   -5.0727   23.6229 F   0  0  0  0  0  0  0  0  0  0  0  0
  1  2  1  0  0  0  0
  1  5  2  0  0  0  0
  2  6  2  0  0  0  0
  3  8  2  0  0  0  0
  3 18  1  0  0  0  0
  4  9  1  0  0  0  0
  4 18  2  0  0  0  0
  5 20  1  0  0  0  0
  6 22  1  0  0  0  0
  7 10  2  0  0  0  0
  7 21  1  0  0  0  0
  8 27  1  0  0  0  0
  9 27  2  0  0  0  0
 10 28  1  0  0  0  0
 11 12  2  0  0  0  0
 11 29  1  0  0  0  0
 12 30  1  0  0  0  0
 13 23  1  0  0  0  0
 13 28  2  0  0  0  0
 14 24  2  0  0  0  0
 14 25  1  0  0  0  0
 15 24  1  0  0  0  0
 15 26  2  0  0  0  0
 16 25  2  0  0  0  0
 16 26  1  0  0  0  0
 17 30  2  0  0  0  0
 17 31  1  0  0  0  0
 18 32  1  0  0  0  0
 19 32  1  0  0  0  0
 19 33  2  0  0  0  0
 19 36  1  0  0  0  0
 20 22  2  0  0  0  0
 20 41  1  0  0  0  0
 21 23  2  0  0  0  0
 21 42  1  0  0  0  0
 22 53  1  0  0  0  0
 23 43  1  0  0  0  0
 24 63  1  0  0  0  0
 25 64  1  0  0  0  0
 26 74  1  0  0  0  0
 27 84  1  0  0  0  0
 28 85  1  0  0  0  0
 29 31  2  0  0  0  0
 29 84  1  0  0  0  0
 30 86  1  0  0  0  0
 31 87  1  0  0  0  0
 32 68  2  0  0  0  0
 33 69  1  0  0  0  0
 33 72  1  0  0  0  0
 34 35  2  0  0  0  0
 34 44  1  0  0  0  0
 34 45  1  0  0  0  0
 35 85  1  0  0  0  0
 36 73  1  0  0  0  0
 36 79  2  0  0  0  0
 37 54  1  0  0  0  0
 37 75  1  0  0  0  0
 37 80  2  0  0  0  0
 38 65  1  0  0  0  0
 38 70  1  0  0  0  0
 38 81  2  0  0  0  0
 39 66  1  0  0  0  0
 39 76  1  0  0  0  0
 39 82  2  0  0  0  0
 40 71  1  0  0  0  0
 40 74  1  0  0  0  0
 40 83  2  0  0  0  0
 41 46  1  0  0  0  0
 42 54  1  0  0  0  0
 43 70  1  0  0  0  0
 44 52  1  0  0  0  0
 45 77  1  0  0  0  0
 46 48  1  0  0  0  0
 47 49  1  0  0  0  0
 47 50  1  0  0  0  0
 48 53  1  0  0  0  0
 49 55  1  0  0  0  0
 50 71  1  0  0  0  0
 51 55  1  0  0  0  0
 51 71  1  0  0  0  0
 52 77  1  0  0  0  0
 53 75  1  0  0  0  0
 54 70  1  0  0  0  0
 55 69  1  0  0  0  0
 56 64  1  0  0  0  0
 57 64  1  0  0  0  0
 58 66  1  0  0  0  0
 59 67  1  0  0  0  0
 60 67  1  0  0  0  0
 61 67  1  0  0  0  0
 62 78  1  0  0  0  0
 63 77  1  0  0  0  0
 65 67  1  0  0  0  0
 65 76  1  0  0  0  0
 66 78  1  0  0  0  0
 68 69  1  0  0  0  0
M  CHG  2  77   1  78   1
M  ISO  4  35 101  40 100  74 100  85 101
M  END
> <Batch ID>
0138

> <Smiles>
CNC(C)C(=O)NC(C(=O)N1Cc2cc([101O:1][101CH:1]=C3CCN(Cc4cc([100NH:0][100C:0](=O)N5CCCC(n6nc(-c7ccc(Oc8ccc(F)cc8F)cc7)c(C(N)=O)c6N)C5)cc(C(C)C)c4)C3)ccc2CC1C(=O)NC1CCCc2ccccc21)C(C)(C)C

> <Shape>
0.181

> <Color>
0.184

> <Negative vol penalty>
0.000

$$$$

  -OEChem-04052302453D

 83 91  0     1  0  0  0  0  0999 V2000
  -34.8134  -27.0209   16.2157 C   0  0  0  0  0  0  0  0  0  0  0  0
  -34.8080  -26.1950   17.3351 C   0  0  0  0  0  0  0  0  0  0  0  0
  -23.0026   -9.8883   19.9844 C   0  0  0  0  0  0  0  0  0  0  0  0
  -23.7233   -9.9494   22.2896 C   0  0  0  0  0  0  0  0  0  0  0  0
  -34.1877  -28.2659   16.2664 C   0  0  0  0  0  0  0  0  0  0  0  0
  -34.1780  -26.6140   18.5064 C   0  0  0  0  0  0  0  0  0  0  0  0
  -31.3389  -22.9768   20.5933 C   0  0  0  0  0  0  0  0  0  0  0  0
  -32.6541  -17.4426   23.4287 C   0  0  0  0  0  0  0  0  0  0  0  0
  -32.0499  -16.5496   22.5438 C   0  0  0  0  0  0  0  0  0  0  0  0
  -22.2366   -8.7542   20.2539 C   0  0  0  0  0  0  0  0  0  0  0  0
  -22.9573   -8.8153   22.5591 C   0  0  0  0  0  0  0  0  0  0  0  0
  -32.0033  -21.9852   21.3140 C   0  0  0  0  0  0  0  0  0  0  0  0
  -23.2057   -5.4747   22.1014 C   0  0  0  0  0  0  0  0  0  0  0  0
  -23.7928   -4.4612   22.8588 C   0  0  0  0  0  0  0  0  0  0  0  0
  -31.4266  -23.1033   23.3723 C   0  0  0  0  0  0  0  0  0  0  0  0
  -30.4890  -18.3634   23.9779 C   0  0  0  0  0  0  0  0  0  0  0  0
  -22.0654   -4.7093   24.5297 C   0  0  0  0  0  0  0  0  0  0  0  0
  -23.7460  -10.4859   21.0022 C   0  0  0  0  0  0  0  0  0  0  0  0
  -24.1292  -13.0011   20.8166 C   0  0  0  0  0  0  0  0  0  0  0  0
  -33.5414  -28.6964   17.4358 C   0  0  0  0  0  0  0  0  0  0  0  0
  -30.7218  -24.0467   21.2573 C   0  0  0  0  0  0  0  0  0  0  0  0
  -33.5443  -27.8665   18.5732 C   0  0  0  0  0  0  0  0  0  0  0  0
  -30.7529  -24.1058   22.6579 C   0  0  0  0  0  0  0  0  0  0  0  0
  -31.8737  -18.3495   24.1458 C   0  0  0  0  0  0  0  0  0  0  0  0
  -29.8848  -17.4704   23.0930 C   0  0  0  0  0  0  0  0  0  0  0  0
  -30.6652  -16.5635   22.3760 C   0  0  0  0  0  0  0  0  0  0  0  0
  -22.2140   -8.2177   21.5413 C   0  0  0  0  0  0  0  0  0  0  0  0
  -32.0497  -22.0500   22.7035 C   0  0  0  0  0  0  0  0  0  0  0  0
  -22.0485   -6.1056   22.5581 C   0  0  0  0  0  0  0  0  0  0  0  0
  -23.2227   -4.0784   24.0729 C   0  0  0  0  0  0  0  0  0  0  0  0
  -21.4784   -5.7229   23.7723 C   0  0  0  0  0  0  0  0  0  0  0  0
  -24.5379  -11.6572   20.7243 C   0  0  0  0  0  0  0  0  0  0  0  0
  -25.2390  -13.7233   20.4514 C   0  0  0  0  0  0  0  0  0  0  0  0
  -22.8600  -13.5479   21.1985 C   0  0  0  0  0  0  0  0  0  0  0  0
  -31.1109  -27.2013   21.2731 C   0  0  0  0  0  0  0  0  0  0  0  0
  -28.4588  -27.1279   23.1394 C   0  0  0  0  0  0  0  0  0  0  0  0
  -26.4679  -25.3626   25.2764 C   0  0  0  0  0  0  0  0  0  0  0  0
  -30.7171  -14.6906   20.6919 C   0  0  0  0  0  0  0  0  0  0  0  0
  -32.9195  -30.0702   17.4578 C   0  0  0  0  0  0  0  0  0  0  0  0
  -29.9863  -25.0939   20.4668 C   0  0  0  0  0  0  0  0  0  0  0  0
  -30.0888  -25.2227   23.4194 C   0  0  0  0  0  0  0  0  0  0  0  0
  -31.9511  -30.2820   18.6187 C   0  0  0  0  0  0  0  0  0  0  0  0
  -29.6056  -12.2271   18.3739 C   0  0  0  0  0  0  0  0  0  0  0  0
  -32.5631  -29.7801   19.9227 C   0  0  0  0  0  0  0  0  0  0  0  0
  -28.1545  -11.9698   18.7864 C   0  0  0  0  0  0  0  0  0  0  0  0
  -30.5036  -12.4764   19.5844 C   0  0  0  0  0  0  0  0  0  0  0  0
  -28.5849  -13.2688   20.9110 C   0  0  0  0  0  0  0  0  0  0  0  0
  -32.8500  -28.2752   19.8542 C   0  0  1  0  0  0  0  0  0  0  0  0
  -29.8333  -26.4123   21.2190 C   0  0  1  0  0  0  0  0  0  0  0  0
  -27.6297  -13.0767   19.7218 C   0  0  2  0  0  0  0  0  0  0  0  0
  -27.9777  -18.2041   21.6399 C   0  0  0  0  0  0  0  0  0  0  0  0
  -24.3919  -25.5816   26.6690 C   0  0  0  0  0  0  0  0  0  0  0  0
  -34.0809  -19.1956   25.1904 C   0  0  0  0  0  0  0  0  0  0  0  0
  -32.0014  -19.0822   26.5471 C   0  0  0  0  0  0  0  0  0  0  0  0
  -30.0136  -28.7592   25.1964 C   0  0  0  0  0  0  0  0  0  0  0  0
  -28.2824  -28.1378   26.8949 C   0  0  0  0  0  0  0  0  0  0  0  0
  -27.6352  -29.4669   24.8856 C   0  0  0  0  0  0  0  0  0  0  0  0
  -25.0998  -23.2035   23.7847 C   0  0  0  0  0  0  0  0  0  0  0  0
  -28.3996  -17.5097   22.9308 C   0  0  0  0  0  0  0  0  0  0  0  0
  -32.2086  -20.7973   24.7188 C   0  0  0  0  0  0  0  0  0  1  0  0
  -28.1977  -27.0162   24.6221 C   0  0  1  0  0  0  0  0  0  0  0  0
  -24.9632  -25.1674   25.3219 C   0  0  2  0  0  0  0  0  0  0  0  0
  -32.5413  -19.3372   25.1210 C   0  0  0  0  0  0  0  0  0  0  0  0
  -28.5465  -28.3249   25.3856 C   0  0  0  0  0  0  0  0  0  0  0  0
  -25.8080  -11.5303   20.3311 N   0  0  0  0  0  0  0  0  0  0  0  0
  -26.2071  -12.8038   20.1730 N   0  0  0  0  0  0  0  0  0  0  0  0
  -29.3877  -26.2260   22.6013 N   0  0  0  0  0  0  0  0  0  0  0  0
  -29.9459  -13.5402   20.4223 N   0  0  0  0  0  0  0  0  0  0  0  0
  -25.4714  -15.0488   20.3443 N   0  0  0  0  0  0  0  0  0  0  0  0
  -21.8284  -12.6642   21.5436 N   0  0  0  0  0  0  0  0  0  0  0  0
  -30.0704  -15.6484   21.4723 N   0  0  0  0  0  0  0  0  0  0  0  0
  -31.6288  -27.5193   20.0320 N   0  0  0  0  0  0  0  0  0  0  0  0
  -26.8076  -26.5956   24.7612 N   0  0  0  0  0  0  0  0  0  0  0  0
  -24.6190  -23.7368   25.0852 N   0  3  0  0  0  0  0  0  0  0  0  0
  -22.6421  -14.7831   21.2167 O   0  0  0  0  0  0  0  0  0  0  0  0
  -31.5905  -27.5008   22.3603 O   0  0  0  0  0  0  0  0  0  0  0  0
  -27.8554  -27.9793   22.4816 O   0  0  0  0  0  0  0  0  0  0  0  0
  -27.2624  -24.5083   25.6630 O   0  0  0  0  0  0  0  0  0  0  0  0
  -31.8565  -14.8288   20.2395 O   0  0  0  0  0  0  0  0  0  0  0  0
  -21.4665   -7.1112   21.8047 O   0  0  0  0  0  0  0  0  0  0  0  0
  -32.6980  -21.0838   23.4093 O   0  0  0  0  0  0  0  0  0  1  0  0
  -23.7856   -3.1040   24.7994 F   0  0  0  0  0  0  0  0  0  0  0  0
  -20.3661   -6.3245   24.2157 F   0  0  0  0  0  0  0  0  0  0  0  0
  1  2  1  0  0  0  0
  1  5  2  0  0  0  0
  2  6  2  0  0  0  0
  3 10  2  0  0  0  0
  3 18  1  0  0  0  0
  4 11  1  0  0  0  0
  4 18  2  0  0  0  0
  5 20  1  0  0  0  0
  6 22  1  0  0  0  0
  7 12  2  0  0  0  0
  7 21  1  0  0  0  0
  8  9  2  0  0  0  0
  8 24  1  0  0  0  0
  9 26  1  0  0  0  0
 10 27  1  0  0  0  0
 11 27  2  0  0  0  0
 12 28  1  0  0  0  0
 13 14  2  0  0  0  0
 13 29  1  0  0  0  0
 14 30  1  0  0  0  0
 15 23  1  0  0  0  0
 15 28  2  0  0  0  0
 16 24  2  0  0  0  0
 16 25  1  0  0  0  0
 17 30  2  0  0  0  0
 17 31  1  0  0  0  0
 18 32  1  0  0  0  0
 19 32  1  0  0  0  0
 19 33  2  0  0  0  0
 19 34  1  0  0  0  0
 20 22  2  0  0  0  0
 20 39  1  0  0  0  0
 21 23  2  0  0  0  0
 21 40  1  0  0  0  0
 22 48  1  0  0  0  0
 23 41  1  0  0  0  0
 24 63  1  0  0  0  0
 25 26  2  0  0  0  0
 25 59  1  0  0  0  0
 26 71  1  0  0  0  0
 27 80  1  0  0  0  0
 28 81  1  0  0  0  0
 29 31  2  0  0  0  0
 29 80  1  0  0  0  0
 30 82  1  0  0  0  0
 31 83  1  0  0  0  0
 32 65  2  0  0  0  0
 33 66  1  0  0  0  0
 33 69  1  0  0  0  0
 34 70  1  0  0  0  0
 34 75  2  0  0  0  0
 35 49  1  0  0  0  0
 35 72  1  0  0  0  0
 35 76  2  0  0  0  0
 36 61  1  0  0  0  0
 36 67  1  0  0  0  0
 36 77  2  0  0  0  0
 37 62  1  0  0  0  0
 37 73  1  0  0  0  0
 37 78  2  0  0  0  0
 38 68  1  0  0  0  0
 38 71  1  0  0  0  0
 38 79  2  0  0  0  0
 39 42  1  0  0  0  0
 40 49  1  0  0  0  0
 41 67  1  0  0  0  0
 42 44  1  0  0  0  0
 43 45  1  0  0  0  0
 43 46  1  0  0  0  0
 44 48  1  0  0  0  0
 45 50  1  0  0  0  0
 46 68  1  0  0  0  0
 47 50  1  0  0  0  0
 47 68  1  0  0  0  0
 48 72  1  0  0  0  0
 49 67  1  0  0  0  0
 50 66  1  0  0  0  0
 51 59  1  0  0  0  0
 52 62  1  0  0  0  0
 53 63  1  0  0  0  0
 54 63  1  0  0  0  0
 55 64  1  0  0  0  0
 56 64  1  0  0  0  0
 57 64  1  0  0  0  0
 58 74  1  0  0  0  0
 60 63  1  0  0  0  0
 60 81  1  0  0  0  0
 61 64  1  0  0  0  0
 61 73  1  0  0  0  0
 62 74  1  0  0  0  0
 65 66  1  0  0  0  0
M  CHG  1  74   1
M  ISO  4  38 100  60 101  71 100  81 101
M  END
> <Batch ID>
0138

> <Smiles>
CCc1cc(C(C)(C)[101CH2:1][101O:1]c2ccc3c(c2)CN(C(=O)C(NC(=O)C(C)NC)C(C)(C)C)C(C(=O)NC2CCCc4ccccc42)C3)ccc1[100NH:0][100C:0](=O)N1CCCC(n2nc(-c3ccc(Oc4ccc(F)cc4F)cc3)c(C(N)=O)c2N)C1

> <Shape>
0.218

> <Color>
0.198

> <Negative vol penalty>
0.000

$$$$

  -OEChem-04052302453D

 86 94  0     1  0  0  0  0  0999 V2000
  -33.2559  -27.0744   21.7942 C   0  0  0  0  0  0  0  0  0  0  0  0
  -32.7057  -25.9826   22.4580 C   0  0  0  0  0  0  0  0  0  0  0  0
  -23.0006   -9.8941   19.9811 C   0  0  0  0  0  0  0  0  0  0  0  0
  -23.7257   -9.9451   22.2851 C   0  0  0  0  0  0  0  0  0  0  0  0
  -34.6404  -27.2286   21.7369 C   0  0  0  0  0  0  0  0  0  0  0  0
  -33.5397  -25.0436   23.0639 C   0  0  0  0  0  0  0  0  0  0  0  0
  -31.9642  -23.7507   27.6998 C   0  0  0  0  0  0  0  0  0  0  0  0
  -22.2340   -8.7597   20.2474 C   0  0  0  0  0  0  0  0  0  0  0  0
  -22.9590   -8.8107   22.5515 C   0  0  0  0  0  0  0  0  0  0  0  0
  -30.9025  -22.8510   27.7836 C   0  0  0  0  0  0  0  0  0  0  0  0
  -23.2031   -5.4717   22.0798 C   0  0  0  0  0  0  0  0  0  0  0  0
  -23.7905   -4.4545   22.8319 C   0  0  0  0  0  0  0  0  0  0  0  0
  -32.4611  -21.0614   28.2166 C   0  0  0  0  0  0  0  0  0  0  0  0
  -29.8797  -17.4489   23.0986 C   0  0  0  0  0  0  0  0  0  0  0  0
  -31.8516  -18.3443   24.1696 C   0  0  0  0  0  0  0  0  0  0  0  0
  -32.0580  -16.5506   22.5643 C   0  0  0  0  0  0  0  0  0  0  0  0
  -22.0665   -4.6976   24.5071 C   0  0  0  0  0  0  0  0  0  0  0  0
  -23.7465  -10.4868   20.9999 C   0  0  0  0  0  0  0  0  0  0  0  0
  -24.1320  -13.0023   20.8238 C   0  0  0  0  0  0  0  0  0  0  0  0
  -35.4917  -26.2962   22.3508 C   0  0  0  0  0  0  0  0  0  0  0  0
  -33.2854  -23.3099   27.8633 C   0  0  0  0  0  0  0  0  0  0  0  0
  -34.9370  -25.1848   23.0136 C   0  0  0  0  0  0  0  0  0  0  0  0
  -33.5377  -21.9580   28.1370 C   0  0  0  0  0  0  0  0  0  0  0  0
  -30.4682  -18.3452   23.9908 C   0  0  0  0  0  0  0  0  0  0  0  0
  -30.6746  -16.5515   22.3854 C   0  0  0  0  0  0  0  0  0  0  0  0
  -22.2131   -8.2180   21.5326 C   0  0  0  0  0  0  0  0  0  0  0  0
  -31.1511  -21.5056   28.0392 C   0  0  0  0  0  0  0  0  0  0  0  0
  -22.0474   -6.1020   22.5412 C   0  0  0  0  0  0  0  0  0  0  0  0
  -32.6465  -17.4470   23.4564 C   0  0  0  0  0  0  0  0  0  0  0  0
  -23.2222   -4.0674   24.0456 C   0  0  0  0  0  0  0  0  0  0  0  0
  -21.4791   -5.7149   23.7549 C   0  0  0  0  0  0  0  0  0  0  0  0
  -24.5391  -11.6583   20.7253 C   0  0  0  0  0  0  0  0  0  0  0  0
  -25.2419  -13.7248   20.4595 C   0  0  0  0  0  0  0  0  0  0  0  0
  -22.8641  -13.5489   21.2103 C   0  0  0  0  0  0  0  0  0  0  0  0
  -35.8765  -23.2575   26.0229 C   0  0  0  0  0  0  0  0  0  0  0  0
  -37.3069  -22.2048   28.7374 C   0  0  0  0  0  0  0  0  0  0  0  0
  -36.9938  -20.6694   31.7691 C   0  0  0  0  0  0  0  0  0  0  0  0
  -30.7214  -14.6855   20.6937 C   0  0  0  0  0  0  0  0  0  0  0  0
  -36.9831  -26.4798   22.2216 C   0  0  0  0  0  0  0  0  0  0  0  0
  -34.4177  -24.2978   27.7965 C   0  0  0  0  0  0  0  0  0  0  0  0
  -34.9363  -21.4377   28.3404 C   0  0  0  0  0  0  0  0  0  0  0  0
  -37.7880  -25.6406   23.2107 C   0  0  0  0  0  0  0  0  0  0  0  0
  -29.6031  -12.2326   18.3678 C   0  0  0  0  0  0  0  0  0  0  0  0
  -37.2688  -24.2066   23.2403 C   0  0  0  0  0  0  0  0  0  0  0  0
  -28.1524  -11.9751   18.7819 C   0  0  0  0  0  0  0  0  0  0  0  0
  -30.5035  -12.4759   19.5776 C   0  0  0  0  0  0  0  0  0  0  0  0
  -28.5882  -13.2650   20.9110 C   0  0  0  0  0  0  0  0  0  0  0  0
  -35.8081  -24.1582   23.7045 C   0  0  1  0  0  0  0  0  0  0  0  0
  -35.7587  -23.6483   27.4689 C   0  0  1  0  0  0  0  0  0  0  0  0
  -27.6305  -13.0787   19.7228 C   0  0  2  0  0  0  0  0  0  0  0  0
  -36.0225  -18.7079   23.4419 C   0  0  0  0  0  0  0  0  0  0  0  0
  -38.3454  -19.9172   33.7452 C   0  0  0  0  0  0  0  0  0  0  0  0
  -38.3438  -19.8329   27.1222 C   0  0  0  0  0  0  0  0  0  0  0  0
  -38.8483  -18.6718   29.2822 C   0  0  0  0  0  0  0  0  0  0  0  0
  -40.0007  -20.8115   28.7196 C   0  0  0  0  0  0  0  0  0  0  0  0
  -27.7765  -18.8752   28.2353 C   0  0  0  0  0  0  0  0  0  0  0  0
  -26.9531  -20.0086   26.1557 C   0  0  0  0  0  0  0  0  0  0  0  0
  -35.4956  -22.4345   33.6126 C   0  0  0  0  0  0  0  0  0  0  0  0
  -29.6081  -19.3164   24.7630 C   0  0  0  0  0  0  0  0  0  0  0  0
  -29.1529  -18.7179   26.1014 C   0  0  0  0  0  0  0  0  0  0  0  0
  -34.6071  -18.6877   23.9783 C   0  0  0  0  0  0  0  0  0  0  0  0
  -28.9568  -20.9117   27.3404 C   0  0  0  0  0  0  0  0  0  1  0  0
  -37.5551  -20.8519   29.3595 C   0  0  1  0  0  0  0  0  0  0  0  0
  -37.5154  -21.0415   33.1453 C   0  0  2  0  0  0  0  0  0  0  0  0
  -38.6606  -20.0512   28.6152 C   0  0  0  0  0  0  0  0  0  0  0  0
  -28.2080  -19.6124   26.9538 C   0  0  0  0  0  0  0  0  0  0  0  0
  -25.8084  -11.5317   20.3292 N   0  0  0  0  0  0  0  0  0  0  0  0
  -26.2085  -12.8054   20.1755 N   0  0  0  0  0  0  0  0  0  0  0  0
  -36.0103  -22.4415   28.2593 N   0  0  0  0  0  0  0  0  0  0  0  0
  -29.9485  -13.5370   20.4209 N   0  0  0  0  0  0  0  0  0  0  0  0
  -25.4755  -15.0505   20.3574 N   0  0  0  0  0  0  0  0  0  0  0  0
  -21.8322  -12.6648   21.5538 N   0  0  0  0  0  0  0  0  0  0  0  0
  -30.0772  -15.6407   21.4792 N   0  0  0  0  0  0  0  0  0  0  0  0
  -35.7291  -24.3114   25.1414 N   0  0  0  0  0  0  0  0  0  0  0  0
  -37.8412  -21.0970   30.7689 N   0  0  0  0  0  0  0  0  0  0  0  0
  -36.3817  -21.3324   34.0677 N   0  3  0  0  0  0  0  0  0  0  0  0
  -22.6475  -14.7842   21.2340 O   0  0  0  0  0  0  0  0  0  0  0  0
  -36.0872  -22.0867   25.7287 O   0  0  0  0  0  0  0  0  0  0  0  0
  -38.2275  -23.0241   28.6842 O   0  0  0  0  0  0  0  0  0  0  0  0
  -35.9419  -20.0571   31.5986 O   0  0  0  0  0  0  0  0  0  0  0  0
  -31.8601  -14.8243   20.2397 O   0  0  0  0  0  0  0  0  0  0  0  0
  -21.4650   -7.1111   21.7929 O   0  0  0  0  0  0  0  0  0  0  0  0
  -30.1167  -20.6252   28.1208 O   0  0  0  0  0  0  0  0  0  1  0  0
  -33.9962  -17.4459   23.6312 O   0  0  0  0  0  0  0  0  0  0  0  0
  -23.7856   -3.0895   24.7670 F   0  0  0  0  0  0  0  0  0  0  0  0
  -20.3683   -6.3158   24.2028 F   0  0  0  0  0  0  0  0  0  0  0  0
  1  2  1  0  0  0  0
  1  5  2  0  0  0  0
  2  6  2  0  0  0  0
  3  8  2  0  0  0  0
  3 18  1  0  0  0  0
  4  9  1  0  0  0  0
  4 18  2  0  0  0  0
  5 20  1  0  0  0  0
  6 22  1  0  0  0  0
  7 10  2  0  0  0  0
  7 21  1  0  0  0  0
  8 26  1  0  0  0  0
  9 26  2  0  0  0  0
 10 27  1  0  0  0  0
 11 12  2  0  0  0  0
 11 28  1  0  0  0  0
 12 30  1  0  0  0  0
 13 23  1  0  0  0  0
 13 27  2  0  0  0  0
 14 24  1  0  0  0  0
 14 25  2  0  0  0  0
 15 24  2  0  0  0  0
 15 29  1  0  0  0  0
 16 25  1  0  0  0  0
 16 29  2  0  0  0  0
 17 30  2  0  0  0  0
 17 31  1  0  0  0  0
 18 32  1  0  0  0  0
 19 32  1  0  0  0  0
 19 33  2  0  0  0  0
 19 34  1  0  0  0  0
 20 22  2  0  0  0  0
 20 39  1  0  0  0  0
 21 23  2  0  0  0  0
 21 40  1  0  0  0  0
 22 48  1  0  0  0  0
 23 41  1  0  0  0  0
 24 59  1  0  0  0  0
 25 73  1  0  0  0  0
 26 82  1  0  0  0  0
 27 83  1  0  0  0  0
 28 31  2  0  0  0  0
 28 82  1  0  0  0  0
 29 84  1  0  0  0  0
 30 85  1  0  0  0  0
 31 86  1  0  0  0  0
 32 67  2  0  0  0  0
 33 68  1  0  0  0  0
 33 71  1  0  0  0  0
 34 72  1  0  0  0  0
 34 77  2  0  0  0  0
 35 49  1  0  0  0  0
 35 74  1  0  0  0  0
 35 78  2  0  0  0  0
 36 63  1  0  0  0  0
 36 69  1  0  0  0  0
 36 79  2  0  0  0  0
 37 64  1  0  0  0  0
 37 75  1  0  0  0  0
 37 80  2  0  0  0  0
 38 70  1  0  0  0  0
 38 73  1  0  0  0  0
 38 81  2  0  0  0  0
 39 42  1  0  0  0  0
 40 49  1  0  0  0  0
 41 69  1  0  0  0  0
 42 44  1  0  0  0  0
 43 45  1  0  0  0  0
 43 46  1  0  0  0  0
 44 48  1  0  0  0  0
 45 50  1  0  0  0  0
 46 70  1  0  0  0  0
 47 50  1  0  0  0  0
 47 70  1  0  0  0  0
 48 74  1  0  0  0  0
 49 69  1  0  0  0  0
 50 68  1  0  0  0  0
 51 61  1  0  0  0  0
 52 64  1  0  0  0  0
 53 65  1  0  0  0  0
 54 65  1  0  0  0  0
 55 65  1  0  0  0  0
 56 66  1  0  0  0  0
 57 66  1  0  0  0  0
 58 76  1  0  0  0  0
 59 60  1  0  0  0  0
 60 66  1  0  0  0  0
 61 84  1  0  0  0  0
 62 66  1  0  0  0  0
 62 83  1  0  0  0  0
 63 65  1  0  0  0  0
 63 75  1  0  0  0  0
 64 76  1  0  0  0  0
 67 68  1  0  0  0  0
M  CHG  1  76   1
M  ISO  4  38 100  62 101  73 100  83 101
M  END
> <Batch ID>
0138

> <Smiles>
CCOc1cc(CCC(C)(C)[101CH2:1][101O:1]c2ccc3c(c2)CN(C(=O)C(NC(=O)C(C)NC)C(C)(C)C)C(C(=O)NC2CCCc4ccccc42)C3)cc([100NH:0][100C:0](=O)N2CCCC(n3nc(-c4ccc(Oc5ccc(F)cc5F)cc4)c(C(N)=O)c3N)C2)c1

> <Shape>
0.171

> <Color>
0.198

> <Negative vol penalty>
0.000

$$$$

  -OEChem-04052302453D

 83 91  0     1  0  0  0  0  0999 V2000
  -23.4220   -7.8664   22.2920 C   0  0  0  0  0  0  0  0  0  0  0  0
  -24.2435   -8.8036   21.6737 C   0  0  0  0  0  0  0  0  0  0  0  0
  -28.4332  -21.7395   22.3699 C   0  0  0  0  0  0  0  0  0  0  0  0
  -22.9915  -30.9669   21.1919 C   0  0  0  0  0  0  0  0  0  0  0  0
  -22.8016  -28.9550   22.5160 C   0  0  0  0  0  0  0  0  0  0  0  0
  -29.0468  -20.9433   21.4029 C   0  0  0  0  0  0  0  0  0  0  0  0
  -22.0676   -8.1417   22.4756 C   0  0  0  0  0  0  0  0  0  0  0  0
  -23.7108  -10.0163   21.2377 C   0  0  0  0  0  0  0  0  0  0  0  0
  -26.6328  -13.9702   22.4515 C   0  0  0  0  0  0  0  0  0  0  0  0
  -28.4719  -23.1293   22.2561 C   0  0  0  0  0  0  0  0  0  0  0  0
  -21.6126  -30.9590   20.9821 C   0  0  0  0  0  0  0  0  0  0  0  0
  -21.4226  -28.9471   22.3062 C   0  0  0  0  0  0  0  0  0  0  0  0
  -27.7625  -14.1922   21.6653 C   0  0  0  0  0  0  0  0  0  0  0  0
  -18.7090  -30.5453   23.5321 C   0  0  0  0  0  0  0  0  0  0  0  0
  -17.8889  -30.2986   24.6330 C   0  0  0  0  0  0  0  0  0  0  0  0
  -29.7380  -22.9264   20.2085 C   0  0  0  0  0  0  0  0  0  0  0  0
  -26.5768  -15.9111   20.4574 C   0  0  0  0  0  0  0  0  0  0  0  0
  -16.9849  -28.3522   23.5235 C   0  0  0  0  0  0  0  0  0  0  0  0
  -23.5860  -29.9649   21.9589 C   0  0  0  0  0  0  0  0  0  0  0  0
  -29.6992  -21.5367   20.3222 C   0  0  0  0  0  0  0  0  0  0  0  0
  -25.7073  -30.5979   23.2266 C   0  0  0  0  0  0  0  0  0  0  0  0
  -21.5200   -9.3623   22.0504 C   0  0  0  0  0  0  0  0  0  0  0  0
  -25.4610  -14.7108   22.2390 C   0  0  0  0  0  0  0  0  0  0  0  0
  -22.3475  -10.3076   21.4147 C   0  0  0  0  0  0  0  0  0  0  0  0
  -25.4344  -15.6984   21.2440 C   0  0  0  0  0  0  0  0  0  0  0  0
  -29.1243  -23.7227   21.1754 C   0  0  0  0  0  0  0  0  0  0  0  0
  -20.8281  -29.9492   21.5392 C   0  0  0  0  0  0  0  0  0  0  0  0
  -27.7337  -15.1607   20.6661 C   0  0  0  0  0  0  0  0  0  0  0  0
  -18.6671  -29.6955   22.4268 C   0  0  0  0  0  0  0  0  0  0  0  0
  -17.0269  -29.2021   24.6288 C   0  0  0  0  0  0  0  0  0  0  0  0
  -17.8050  -28.5989   22.4225 C   0  0  0  0  0  0  0  0  0  0  0  0
  -25.0105  -29.9722   22.1755 C   0  0  0  0  0  0  0  0  0  0  0  0
  -27.0280  -30.3110   22.9817 C   0  0  0  0  0  0  0  0  0  0  0  0
  -30.3505  -20.6896   19.2958 C   0  0  0  0  0  0  0  0  0  0  0  0
  -25.2056  -31.3693   24.3261 C   0  0  0  0  0  0  0  0  0  0  0  0
  -22.4810  -14.0001   21.3915 C   0  0  0  0  0  0  0  0  0  0  0  0
  -21.9744  -17.1478   21.9897 C   0  0  0  0  0  0  0  0  0  0  0  0
  -23.2707  -20.2949   22.2380 C   0  0  0  0  0  0  0  0  0  0  0  0
  -29.7681  -25.8830   20.0508 C   0  0  0  0  0  0  0  0  0  0  0  0
  -20.0406   -9.5954   22.2282 C   0  0  0  0  0  0  0  0  0  0  0  0
  -24.2595  -14.4778   23.1134 C   0  0  0  0  0  0  0  0  0  0  0  0
  -24.2078  -16.5344   20.9892 C   0  0  0  0  0  0  0  0  0  0  0  0
  -19.6316  -11.0580   22.0746 C   0  0  0  0  0  0  0  0  0  0  0  0
  -30.0519  -29.3700   19.3894 C   0  0  0  0  0  0  0  0  0  0  0  0
  -20.2827  -11.6673   20.8370 C   0  0  0  0  0  0  0  0  0  0  0  0
  -28.8582  -29.9777   20.1295 C   0  0  0  0  0  0  0  0  0  0  0  0
  -29.7078  -28.0144   18.7747 C   0  0  0  0  0  0  0  0  0  0  0  0
  -27.9376  -27.6458   20.4480 C   0  0  0  0  0  0  0  0  0  0  0  0
  -21.8118  -11.6446   20.9504 C   0  0  1  0  0  0  0  0  0  0  0  0
  -22.9542  -14.9342   22.4691 C   0  0  1  0  0  0  0  0  0  0  0  0
  -28.2548  -28.9819   21.1393 C   0  0  2  0  0  0  0  0  0  0  0  0
  -22.6040  -22.6689   22.7039 C   0  0  0  0  0  0  0  0  0  0  0  0
  -20.7793  -17.3590   19.1902 C   0  0  0  0  0  0  0  0  0  0  0  0
  -21.0148  -19.8462   19.3530 C   0  0  0  0  0  0  0  0  0  0  0  0
  -19.5387  -18.6276   20.9526 C   0  0  0  0  0  0  0  0  0  0  0  0
  -25.0320  -20.4459   24.6116 C   0  0  0  0  0  0  0  0  0  0  0  0
  -30.5092  -16.9934   19.2550 C   0  0  0  0  0  0  0  0  0  0  0  0
  -29.0234  -16.7005   19.3926 C   0  0  0  0  0  0  0  0  0  1  0  0
  -30.7655  -18.3861   18.7010 C   0  0  0  0  0  0  0  0  0  0  0  0
  -22.0483  -18.4163   21.1746 C   0  0  1  0  0  0  0  0  0  0  0  0
  -23.1155  -21.3673   23.3012 C   0  0  2  0  0  0  0  0  0  0  0  0
  -20.8679  -18.5453   20.1709 C   0  0  0  0  0  0  0  0  0  0  0  0
  -25.8214  -29.3359   21.3260 N   0  0  0  0  0  0  0  0  0  0  0  0
  -30.9711  -21.1710   18.2709 N   0  0  0  0  0  0  0  0  0  0  0  0
  -27.0415  -29.5604   21.8430 N   0  0  0  0  0  0  0  0  0  0  0  0
  -23.0565  -16.2647   21.8662 N   0  0  0  0  0  0  0  0  0  0  0  0
  -29.1454  -27.1221   19.7907 N   0  0  0  0  0  0  0  0  0  0  0  0
  -28.1675  -30.6301   23.6314 N   0  0  0  0  0  0  0  0  0  0  0  0
  -23.8218  -31.5673   24.4270 N   0  0  0  0  0  0  0  0  0  0  0  0
  -29.1633  -25.1344   21.0599 N   0  0  0  0  0  0  0  0  0  0  0  0
  -22.2697  -12.7045   21.8230 N   0  0  0  0  0  0  0  0  0  0  0  0
  -22.1403  -19.5125   22.1329 N   0  0  0  0  0  0  0  0  0  0  0  0
  -24.4245  -21.6355   23.9613 N   0  3  0  0  0  0  0  0  0  0  0  0
  -25.9634  -31.8821   25.1842 O   0  0  0  0  0  0  0  0  0  0  0  0
  -22.3183  -14.4238   20.2533 O   0  0  0  0  0  0  0  0  0  0  0  0
  -20.9961  -16.9510   22.7149 O   0  0  0  0  0  0  0  0  0  0  0  0
  -24.2912  -20.1668   21.5652 O   0  0  0  0  0  0  0  0  0  0  0  0
  -30.7804  -25.5253   19.4433 O   0  0  0  0  0  0  0  0  0  0  0  0
  -19.4825  -29.9413   21.3348 O   0  0  0  0  0  0  0  0  0  0  0  0
  -28.8349  -15.3789   19.8968 O   0  0  0  0  0  0  0  0  0  1  0  0
  -30.2080  -19.3616   19.5713 O   0  0  0  0  0  0  0  0  0  0  0  0
  -16.2405  -28.9644   25.6867 F   0  0  0  0  0  0  0  0  0  0  0  0
  -17.7611  -27.7782   21.3640 F   0  0  0  0  0  0  0  0  0  0  0  0
  1  2  1  0  0  0  0
  1  7  2  0  0  0  0
  2  8  2  0  0  0  0
  3  6  2  0  0  0  0
  3 10  1  0  0  0  0
  4 11  2  0  0  0  0
  4 19  1  0  0  0  0
  5 12  1  0  0  0  0
  5 19  2  0  0  0  0
  6 20  1  0  0  0  0
  7 22  1  0  0  0  0
  8 24  1  0  0  0  0
  9 13  2  0  0  0  0
  9 23  1  0  0  0  0
 10 26  2  0  0  0  0
 11 27  1  0  0  0  0
 12 27  2  0  0  0  0
 13 28  1  0  0  0  0
 14 15  2  0  0  0  0
 14 29  1  0  0  0  0
 15 30  1  0  0  0  0
 16 20  2  0  0  0  0
 16 26  1  0  0  0  0
 17 25  1  0  0  0  0
 17 28  2  0  0  0  0
 18 30  2  0  0  0  0
 18 31  1  0  0  0  0
 19 32  1  0  0  0  0
 20 34  1  0  0  0  0
 21 32  1  0  0  0  0
 21 33  2  0  0  0  0
 21 35  1  0  0  0  0
 22 24  2  0  0  0  0
 22 40  1  0  0  0  0
 23 25  2  0  0  0  0
 23 41  1  0  0  0  0
 24 49  1  0  0  0  0
 25 42  1  0  0  0  0
 26 70  1  0  0  0  0
 27 79  1  0  0  0  0
 28 80  1  0  0  0  0
 29 31  2  0  0  0  0
 29 79  1  0  0  0  0
 30 82  1  0  0  0  0
 31 83  1  0  0  0  0
 32 63  2  0  0  0  0
 33 65  1  0  0  0  0
 33 68  1  0  0  0  0
 34 64  2  0  0  0  0
 34 81  1  0  0  0  0
 35 69  1  0  0  0  0
 35 74  2  0  0  0  0
 36 50  1  0  0  0  0
 36 71  1  0  0  0  0
 36 75  2  0  0  0  0
 37 60  1  0  0  0  0
 37 66  1  0  0  0  0
 37 76  2  0  0  0  0
 38 61  1  0  0  0  0
 38 72  1  0  0  0  0
 38 77  2  0  0  0  0
 39 67  1  0  0  0  0
 39 70  1  0  0  0  0
 39 78  2  0  0  0  0
 40 43  1  0  0  0  0
 41 50  1  0  0  0  0
 42 66  1  0  0  0  0
 43 45  1  0  0  0  0
 44 46  1  0  0  0  0
 44 47  1  0  0  0  0
 45 49  1  0  0  0  0
 46 51  1  0  0  0  0
 47 67  1  0  0  0  0
 48 51  1  0  0  0  0
 48 67  1  0  0  0  0
 49 71  1  0  0  0  0
 50 66  1  0  0  0  0
 51 65  1  0  0  0  0
 52 61  1  0  0  0  0
 53 62  1  0  0  0  0
 54 62  1  0  0  0  0
 55 62  1  0  0  0  0
 56 73  1  0  0  0  0
 57 58  1  0  0  0  0
 57 59  1  0  0  0  0
 58 80  1  0  0  0  0
 59 81  1  0  0  0  0
 60 62  1  0  0  0  0
 60 72  1  0  0  0  0
 61 73  1  0  0  0  0
 63 65  1  0  0  0  0
M  CHG  1  73   1
M  ISO  4  39 100  58 101  70 100  80 101
M  END
> <Batch ID>
0138

> <Smiles>
CNC(C)C(=O)NC(C(=O)N1Cc2cc([101O:1][101CH2:1]CCOC(=N)c3cccc([100NH:0][100C:0](=O)N4CCCC(n5nc(-c6ccc(Oc7ccc(F)cc7F)cc6)c(C(N)=O)c5N)C4)c3)ccc2CC1C(=O)NC1CCCc2ccccc21)C(C)(C)C

> <Shape>
0.271

> <Color>
0.085

> <Negative vol penalty>
0.000

$$$$

  -OEChem-04052302453D

 86 94  0     1  0  0  0  0  0999 V2000
  -35.5360  -29.7385   15.2968 C   0  0  0  0  0  0  0  0  0  0  0  0
  -35.8041  -28.9079   16.3801 C   0  0  0  0  0  0  0  0  0  0  0  0
  -23.0653   -9.9029   19.8817 C   0  0  0  0  0  0  0  0  0  0  0  0
  -23.8614   -9.7768   22.1593 C   0  0  0  0  0  0  0  0  0  0  0  0
  -34.2168  -29.9884   14.9211 C   0  0  0  0  0  0  0  0  0  0  0  0
  -34.7529  -28.3275   17.0891 C   0  0  0  0  0  0  0  0  0  0  0  0
  -34.6918  -22.7915   19.7074 C   0  0  0  0  0  0  0  0  0  0  0  0
  -32.7110  -17.3020   23.6627 C   0  0  0  0  0  0  0  0  0  0  0  0
  -32.0912  -16.4784   22.7230 C   0  0  0  0  0  0  0  0  0  0  0  0
  -22.3259   -8.7361   20.0755 C   0  0  0  0  0  0  0  0  0  0  0  0
  -23.1220   -8.6100   22.3532 C   0  0  0  0  0  0  0  0  0  0  0  0
  -34.8977  -22.3730   21.0212 C   0  0  0  0  0  0  0  0  0  0  0  0
  -20.5124   -5.5914   19.8616 C   0  0  0  0  0  0  0  0  0  0  0  0
  -20.5613   -4.6177   18.8641 C   0  0  0  0  0  0  0  0  0  0  0  0
  -32.5135  -22.3725   21.3883 C   0  0  0  0  0  0  0  0  0  0  0  0
  -30.5518  -18.1327   24.3589 C   0  0  0  0  0  0  0  0  0  0  0  0
  -22.9513   -4.4308   19.1637 C   0  0  0  0  0  0  0  0  0  0  0  0
  -23.8330  -10.4232   20.9236 C   0  0  0  0  0  0  0  0  0  0  0  0
  -24.1719  -12.9515   20.9461 C   0  0  0  0  0  0  0  0  0  0  0  0
  -33.1492  -29.4031   15.6198 C   0  0  0  0  0  0  0  0  0  0  0  0
  -33.3935  -23.0146   19.2266 C   0  0  0  0  0  0  0  0  0  0  0  0
  -33.4181  -28.5708   16.7232 C   0  0  0  0  0  0  0  0  0  0  0  0
  -32.2937  -22.7914   20.0672 C   0  0  0  0  0  0  0  0  0  0  0  0
  -31.9413  -18.1292   24.4807 C   0  0  0  0  0  0  0  0  0  0  0  0
  -29.9319  -17.3091   23.4192 C   0  0  0  0  0  0  0  0  0  0  0  0
  -30.7016  -16.4819   22.6012 C   0  0  0  0  0  0  0  0  0  0  0  0
  -22.3543   -8.0897   21.3112 C   0  0  0  0  0  0  0  0  0  0  0  0
  -33.8086  -22.1662   21.8628 C   0  0  0  0  0  0  0  0  0  0  0  0
  -21.6830   -5.9849   20.5101 C   0  0  0  0  0  0  0  0  0  0  0  0
  -21.7807   -4.0373   18.5152 C   0  0  0  0  0  0  0  0  0  0  0  0
  -22.9025   -5.4046   20.1612 C   0  0  0  0  0  0  0  0  0  0  0  0
  -24.5974  -11.6282   20.7239 C   0  0  0  0  0  0  0  0  0  0  0  0
  -25.2578  -13.7224   20.6101 C   0  0  0  0  0  0  0  0  0  0  0  0
  -22.9080  -13.4403   21.4145 C   0  0  0  0  0  0  0  0  0  0  0  0
  -31.8208  -25.5373   18.1013 C   0  0  0  0  0  0  0  0  0  0  0  0
  -33.5841  -20.0156   24.7727 C   0  0  0  0  0  0  0  0  0  0  0  0
  -29.5107  -23.3404   17.5016 C   0  0  0  0  0  0  0  0  0  0  0  0
  -28.1282  -20.3116   18.2512 C   0  0  0  0  0  0  0  0  0  0  0  0
  -30.7257  -14.7634   20.7594 C   0  0  0  0  0  0  0  0  0  0  0  0
  -31.7387  -29.7405   15.2058 C   0  0  0  0  0  0  0  0  0  0  0  0
  -33.1870  -23.4401   17.7988 C   0  0  0  0  0  0  0  0  0  0  0  0
  -30.8789  -22.9971   19.5934 C   0  0  0  0  0  0  0  0  0  0  0  0
  -30.6918  -28.7878   15.7773 C   0  0  0  0  0  0  0  0  0  0  0  0
  -29.5749  -12.4907   18.2719 C   0  0  0  0  0  0  0  0  0  0  0  0
  -30.9377  -28.5542   17.2645 C   0  0  0  0  0  0  0  0  0  0  0  0
  -28.1424  -12.1725   18.7063 C   0  0  0  0  0  0  0  0  0  0  0  0
  -30.5088  -12.6501   19.4703 C   0  0  0  0  0  0  0  0  0  0  0  0
  -28.6237  -13.2900   20.9214 C   0  0  0  0  0  0  0  0  0  0  0  0
  -32.3056  -27.9030   17.5019 C   0  0  1  0  0  0  0  0  0  0  0  0
  -31.8470  -24.1323   17.5694 C   0  0  1  0  0  0  0  0  0  0  0  0
  -27.6324  -13.1846   19.7510 C   0  0  2  0  0  0  0  0  0  0  0  0
  -27.9667  -18.1317   22.0972 C   0  0  0  0  0  0  0  0  0  0  0  0
  -32.6983  -17.1298   27.3057 C   0  0  0  0  0  0  0  0  0  0  0  0
  -26.2241  -18.8046   17.6185 C   0  0  0  0  0  0  0  0  0  0  0  0
  -31.6551  -19.9154   26.3390 C   0  0  0  0  0  0  0  0  0  0  0  0
  -27.5848  -25.1255   19.0554 C   0  0  0  0  0  0  0  0  0  0  0  0
  -26.0150  -23.1811   19.2072 C   0  0  0  0  0  0  0  0  0  0  0  0
  -26.6263  -24.1171   16.9772 C   0  0  0  0  0  0  0  0  0  0  0  0
  -29.9665  -18.1556   17.3959 C   0  0  0  0  0  0  0  0  0  0  0  0
  -28.4418  -17.3357   23.3085 C   0  0  0  0  0  0  0  0  0  0  0  0
  -32.9838  -20.9595   23.7388 C   0  0  0  0  0  0  0  0  0  1  0  0
  -33.4722  -18.1724   26.5031 C   0  0  0  0  0  0  0  0  0  0  0  0
  -28.3390  -22.7834   18.2734 C   0  0  1  0  0  0  0  0  0  0  0  0
  -27.6806  -19.1621   17.3666 C   0  0  2  0  0  0  0  0  0  0  0  0
  -32.6244  -19.0383   25.5142 C   0  0  1  0  0  0  0  0  0  0  0  0
  -27.1679  -23.7997   18.3881 C   0  0  0  0  0  0  0  0  0  0  0  0
  -25.8556  -11.5587   20.2808 N   0  0  0  0  0  0  0  0  0  0  0  0
  -26.2299  -12.8480   20.2218 N   0  0  0  0  0  0  0  0  0  0  0  0
  -30.7290  -23.4195   18.1911 N   0  0  0  0  0  0  0  0  0  0  0  0
  -29.9634  -13.6271   20.4151 N   0  0  0  0  0  0  0  0  0  0  0  0
  -25.4665  -15.0562   20.6118 N   0  0  0  0  0  0  0  0  0  0  0  0
  -21.9019  -12.5116   21.7139 N   0  0  0  0  0  0  0  0  0  0  0  0
  -30.0909  -15.6381   21.6406 N   0  0  0  0  0  0  0  0  0  0  0  0
  -32.2519  -26.4892   17.1972 N   0  0  0  0  0  0  0  0  0  0  0  0
  -27.9797  -21.5290   17.6209 N   0  0  0  0  0  0  0  0  0  0  0  0
  -28.5129  -17.9536   17.6270 N   0  3  0  0  0  0  0  0  0  0  0  0
  -22.6721  -14.6651   21.5474 O   0  0  0  0  0  0  0  0  0  0  0  0
  -31.4365  -25.7427   19.2467 O   0  0  0  0  0  0  0  0  0  0  0  0
  -34.7967  -20.0306   24.9985 O   0  0  0  0  0  0  0  0  0  0  0  0
  -29.3527  -23.6858   16.3280 O   0  0  0  0  0  0  0  0  0  0  0  0
  -28.5625  -20.1466   19.3890 O   0  0  0  0  0  0  0  0  0  0  0  0
  -31.8471  -14.9607   20.2847 O   0  0  0  0  0  0  0  0  0  0  0  0
  -21.6328   -6.9512   21.5008 O   0  0  0  0  0  0  0  0  0  0  0  0
  -34.0068  -21.7583   23.1458 O   0  0  0  0  0  0  0  0  0  1  0  0
  -21.8272   -3.1012   17.5583 F   0  0  0  0  0  0  0  0  0  0  0  0
  -24.0302   -5.7776   20.7815 F   0  0  0  0  0  0  0  0  0  0  0  0
  1  2  1  0  0  0  0
  1  5  2  0  0  0  0
  2  6  2  0  0  0  0
  3 10  2  0  0  0  0
  3 18  1  0  0  0  0
  4 11  1  0  0  0  0
  4 18  2  0  0  0  0
  5 20  1  0  0  0  0
  6 22  1  0  0  0  0
  7 12  2  0  0  0  0
  7 21  1  0  0  0  0
  8  9  2  0  0  0  0
  8 24  1  0  0  0  0
  9 26  1  0  0  0  0
 10 27  1  0  0  0  0
 11 27  2  0  0  0  0
 12 28  1  0  0  0  0
 13 14  2  0  0  0  0
 13 29  1  0  0  0  0
 14 30  1  0  0  0  0
 15 23  1  0  0  0  0
 15 28  2  0  0  0  0
 16 24  2  0  0  0  0
 16 25  1  0  0  0  0
 17 30  2  0  0  0  0
 17 31  1  0  0  0  0
 18 32  1  0  0  0  0
 19 32  1  0  0  0  0
 19 33  2  0  0  0  0
 19 34  1  0  0  0  0
 20 22  2  0  0  0  0
 20 40  1  0  0  0  0
 21 23  2  0  0  0  0
 21 41  1  0  0  0  0
 22 49  1  0  0  0  0
 23 42  1  0  0  0  0
 24 65  1  0  0  0  0
 25 26  2  0  0  0  0
 25 60  1  0  0  0  0
 26 73  1  0  0  0  0
 27 83  1  0  0  0  0
 28 84  1  0  0  0  0
 29 31  2  0  0  0  0
 29 83  1  0  0  0  0
 30 85  1  0  0  0  0
 31 86  1  0  0  0  0
 32 67  2  0  0  0  0
 33 68  1  0  0  0  0
 33 71  1  0  0  0  0
 34 72  1  0  0  0  0
 34 77  2  0  0  0  0
 35 50  1  0  0  0  0
 35 74  1  0  0  0  0
 35 78  2  0  0  0  0
 36 61  1  0  0  0  0
 36 65  1  0  0  0  0
 36 79  2  0  0  0  0
 37 63  1  0  0  0  0
 37 69  1  0  0  0  0
 37 80  2  0  0  0  0
 38 64  1  0  0  0  0
 38 75  1  0  0  0  0
 38 81  2  0  0  0  0
 39 70  1  0  0  0  0
 39 73  1  0  0  0  0
 39 82  2  0  0  0  0
 40 43  1  0  0  0  0
 41 50  1  0  0  0  0
 42 69  1  0  0  0  0
 43 45  1  0  0  0  0
 44 46  1  0  0  0  0
 44 47  1  0  0  0  0
 45 49  1  0  0  0  0
 46 51  1  0  0  0  0
 47 70  1  0  0  0  0
 48 51  1  0  0  0  0
 48 70  1  0  0  0  0
 49 74  1  0  0  0  0
 50 69  1  0  0  0  0
 51 68  1  0  0  0  0
 52 60  1  0  0  0  0
 53 62  1  0  0  0  0
 54 64  1  0  0  0  0
 55 65  1  0  0  0  0
 56 66  1  0  0  0  0
 57 66  1  0  0  0  0
 58 66  1  0  0  0  0
 59 76  1  0  0  0  0
 61 84  1  0  0  0  0
 62 65  1  0  0  0  0
 63 66  1  0  0  0  0
 63 75  1  0  0  0  0
 64 76  1  0  0  0  0
 67 68  1  0  0  0  0
M  CHG  1  76   1
M  ISO  4  39 100  61 101  73 100  84 101
M  END
> <Batch ID>
0138

> <Smiles>
CCc1cc(C(C)(CC)C(=O)[101CH2:1][101O:1]c2ccc3c(c2)CN(C(=O)C(NC(=O)C(C)NC)C(C)(C)C)C(C(=O)NC2CCCc4ccccc42)C3)ccc1[100NH:0][100C:0](=O)N1CCCC(n2nc(-c3ccc(Oc4ccc(F)cc4F)cc3)c(C(N)=O)c2N)C1

> <Shape>
0.212

> <Color>
0.201

> <Negative vol penalty>
0.000

$$$$

  -OEChem-04052302453D

 87 96  0     1  0  0  0  0  0999 V2000
  -24.6172  -26.2456   25.2078 C   0  0  0  0  0  0  0  0  0  0  0  0
  -25.0571  -25.7071   24.0029 C   0  0  0  0  0  0  0  0  0  0  0  0
  -29.1180  -18.3854   23.2333 C   0  0  0  0  0  0  0  0  0  0  0  0
  -27.0303  -28.8792   19.8720 C   0  0  0  0  0  0  0  0  0  0  0  0
  -26.0502  -26.8156   20.6579 C   0  0  0  0  0  0  0  0  0  0  0  0
  -29.7660  -17.2209   22.8216 C   0  0  0  0  0  0  0  0  0  0  0  0
  -24.5191  -25.4349   26.3379 C   0  0  0  0  0  0  0  0  0  0  0  0
  -25.4003  -24.3576   23.9276 C   0  0  0  0  0  0  0  0  0  0  0  0
  -25.3101  -18.8193   19.3850 C   0  0  0  0  0  0  0  0  0  0  0  0
  -29.2128  -19.5454   22.4644 C   0  0  0  0  0  0  0  0  0  0  0  0
  -25.7569  -29.4308   19.7321 C   0  0  0  0  0  0  0  0  0  0  0  0
  -24.7767  -27.3672   20.5179 C   0  0  0  0  0  0  0  0  0  0  0  0
  -26.1568  -17.8458   18.8566 C   0  0  0  0  0  0  0  0  0  0  0  0
  -21.2829  -28.3546   20.7103 C   0  0  0  0  0  0  0  0  0  0  0  0
  -20.3731  -28.1595   21.7494 C   0  0  0  0  0  0  0  0  0  0  0  0
  -30.6038  -18.3762   20.8722 C   0  0  0  0  0  0  0  0  0  0  0  0
  -25.8721  -16.5230   20.8538 C   0  0  0  0  0  0  0  0  0  0  0  0
  -21.8680  -29.2937   23.2713 C   0  0  0  0  0  0  0  0  0  0  0  0
  -27.1770  -27.5716   20.3349 C   0  0  0  0  0  0  0  0  0  0  0  0
  -30.5089  -17.2163   21.6411 C   0  0  0  0  0  0  0  0  0  0  0  0
  -29.5382  -27.4716   21.2954 C   0  0  0  0  0  0  0  0  0  0  0  0
  -24.8520  -24.0726   26.2740 C   0  0  0  0  0  0  0  0  0  0  0  0
  -24.7458  -18.6568   20.6584 C   0  0  0  0  0  0  0  0  0  0  0  0
  -25.3078  -23.5282   25.0582 C   0  0  0  0  0  0  0  0  0  0  0  0
  -25.0166  -17.4948   21.3949 C   0  0  0  0  0  0  0  0  0  0  0  0
  -29.9557  -19.5408   21.2839 C   0  0  0  0  0  0  0  0  0  0  0  0
  -24.6300  -28.6748   20.0550 C   0  0  0  0  0  0  0  0  0  0  0  0
  -26.4402  -16.6987   19.5923 C   0  0  0  0  0  0  0  0  0  0  0  0
  -22.4854  -29.0192   20.9517 C   0  0  0  0  0  0  0  0  0  0  0  0
  -20.6656  -28.6291   23.0299 C   0  0  0  0  0  0  0  0  0  0  0  0
  -22.7778  -29.4888   22.2322 C   0  0  0  0  0  0  0  0  0  0  0  0
  -28.4922  -27.0010   20.4791 C   0  0  0  0  0  0  0  0  0  0  0  0
  -30.5676  -26.5889   21.0774 C   0  0  0  0  0  0  0  0  0  0  0  0
  -31.2007  -15.9714   21.2024 C   0  0  0  0  0  0  0  0  0  0  0  0
  -29.5759  -28.6053   22.1723 C   0  0  0  0  0  0  0  0  0  0  0  0
  -24.9130  -20.2471   23.4055 C   0  0  0  0  0  0  0  0  0  0  0  0
  -22.6385  -18.1243   24.3236 C   0  0  0  0  0  0  0  0  0  0  0  0
  -22.0143  -14.5939   23.9183 C   0  0  0  0  0  0  0  0  0  0  0  0
  -30.7477  -20.8850   19.3059 C   0  0  0  0  0  0  0  0  0  0  0  0
  -24.7750  -23.2467   27.5336 C   0  0  0  0  0  0  0  0  0  0  0  0
  -23.8133  -19.7038   21.2029 C   0  0  0  0  0  0  0  0  0  0  0  0
  -24.4200  -17.2631   22.7583 C   0  0  0  0  0  0  0  0  0  0  0  0
  -24.8005  -21.7420   27.2778 C   0  0  0  0  0  0  0  0  0  0  0  0
  -29.5361  -11.5699   19.4054 C   0  0  0  0  0  0  0  0  0  0  0  0
  -28.5718  -12.2745   18.4577 C   0  0  0  0  0  0  0  0  0  0  0  0
  -32.3395  -23.6544   17.7332 C   0  0  0  0  0  0  0  0  0  0  0  0
  -25.9042  -21.3877   26.2863 C   0  0  0  0  0  0  0  0  0  0  0  0
  -29.8273  -12.4033   20.6507 C   0  0  0  0  0  0  0  0  0  0  0  0
  -29.0585  -13.6772   18.1008 C   0  0  0  0  0  0  0  0  0  0  0  0
  -31.6329  -24.8699   18.3377 C   0  0  0  0  0  0  0  0  0  0  0  0
  -31.3763  -22.4889   17.5150 C   0  0  0  0  0  0  0  0  0  0  0  0
  -29.8933  -23.3109   19.3022 C   0  0  0  0  0  0  0  0  0  0  0  0
  -25.6656  -22.0634   24.9305 C   0  0  1  0  0  0  0  0  0  0  0  0
  -23.7032  -19.6729   22.7242 C   0  0  1  0  0  0  0  0  0  0  0  0
  -30.3193  -13.8137   20.2900 C   0  0  1  0  0  0  0  0  0  0  0  0
  -29.3415  -14.5465   19.3389 C   0  0  2  0  0  0  0  0  0  0  0  0
  -30.8360  -24.4882   19.6006 C   0  0  2  0  0  0  0  0  0  0  0  0
  -19.8602  -13.3067   23.9253 C   0  0  0  0  0  0  0  0  0  0  0  0
  -23.2345  -17.7057   27.2866 C   0  0  0  0  0  0  0  0  0  0  0  0
  -22.3420  -15.3770   27.0657 C   0  0  0  0  0  0  0  0  0  0  0  0
  -20.8485  -17.3290   26.6391 C   0  0  0  0  0  0  0  0  0  0  0  0
  -22.5783  -13.4105   21.2650 C   0  0  0  0  0  0  0  0  0  0  0  0
  -30.6299  -14.6125   21.5568 C   0  0  0  0  0  0  0  0  0  0  0  0
  -28.0329  -14.9824   20.0090 C   0  0  0  0  0  0  0  0  0  1  0  0
  -22.6483  -16.7549   24.9589 C   0  0  1  0  0  0  0  0  0  0  0  0
  -20.9341  -13.9542   23.0650 C   0  0  2  0  0  0  0  0  0  0  0  0
  -22.2898  -16.8006   26.4711 C   0  0  0  0  0  0  0  0  0  0  0  0
  -28.8265  -25.9045   19.7936 N   0  0  0  0  0  0  0  0  0  0  0  0
  -32.3001  -16.0424   20.5197 N   0  0  0  0  0  0  0  0  0  0  0  0
  -30.0942  -25.6788   20.1786 N   0  0  0  0  0  0  0  0  0  0  0  0
  -23.5194  -18.3187   23.2502 N   0  0  0  0  0  0  0  0  0  0  0  0
  -30.6600  -22.1808   18.7547 N   0  0  0  0  0  0  0  0  0  0  0  0
  -31.8225  -26.5101   21.5687 N   0  0  0  0  0  0  0  0  0  0  0  0
  -28.4309  -29.4067   22.2779 N   0  0  0  0  0  0  0  0  0  0  0  0
  -30.0516  -20.7191   20.5028 N   0  0  0  0  0  0  0  0  0  0  0  0
  -24.6462  -21.3559   24.1857 N   0  0  0  0  0  0  0  0  0  0  0  0
  -21.7538  -15.9267   24.1574 N   0  0  0  0  0  0  0  0  0  0  0  0
  -21.5232  -12.9079   22.1822 N   0  3  0  0  0  0  0  0  0  0  0  0
  -30.6001  -28.9085   22.8299 O   0  0  0  0  0  0  0  0  0  0  0  0
  -26.0074  -19.7220   23.2371 O   0  0  0  0  0  0  0  0  0  0  0  0
  -21.8723  -18.9875   24.7589 O   0  0  0  0  0  0  0  0  0  0  0  0
  -22.9896  -13.9726   24.3346 O   0  0  0  0  0  0  0  0  0  0  0  0
  -31.4152  -19.9960   18.7709 O   0  0  0  0  0  0  0  0  0  0  0  0
  -23.3872  -29.2129   19.9188 O   0  0  0  0  0  0  0  0  0  0  0  0
  -27.2668  -15.7472   19.0792 O   0  0  0  0  0  0  0  0  0  1  0  0
  -19.7911  -28.4430   24.0273 F   0  0  0  0  0  0  0  0  0  0  0  0
  -23.9308  -30.1290   22.4699 F   0  0  0  0  0  0  0  0  0  0  0  0
  1  2  1  0  0  0  0
  1  7  2  0  0  0  0
  2  8  2  0  0  0  0
  3  6  2  0  0  0  0
  3 10  1  0  0  0  0
  4 11  2  0  0  0  0
  4 19  1  0  0  0  0
  5 12  1  0  0  0  0
  5 19  2  0  0  0  0
  6 20  1  0  0  0  0
  7 22  1  0  0  0  0
  8 24  1  0  0  0  0
  9 13  2  0  0  0  0
  9 23  1  0  0  0  0
 10 26  2  0  0  0  0
 11 27  1  0  0  0  0
 12 27  2  0  0  0  0
 13 28  1  0  0  0  0
 14 15  2  0  0  0  0
 14 29  1  0  0  0  0
 15 30  1  0  0  0  0
 16 20  2  0  0  0  0
 16 26  1  0  0  0  0
 17 25  1  0  0  0  0
 17 28  2  0  0  0  0
 18 30  2  0  0  0  0
 18 31  1  0  0  0  0
 19 32  1  0  0  0  0
 20 34  1  0  0  0  0
 21 32  1  0  0  0  0
 21 33  2  0  0  0  0
 21 35  1  0  0  0  0
 22 24  2  0  0  0  0
 22 40  1  0  0  0  0
 23 25  2  0  0  0  0
 23 41  1  0  0  0  0
 24 53  1  0  0  0  0
 25 42  1  0  0  0  0
 26 75  1  0  0  0  0
 27 84  1  0  0  0  0
 28 85  1  0  0  0  0
 29 31  2  0  0  0  0
 29 84  1  0  0  0  0
 30 86  1  0  0  0  0
 31 87  1  0  0  0  0
 32 68  2  0  0  0  0
 33 70  1  0  0  0  0
 33 73  1  0  0  0  0
 34 63  1  0  0  0  0
 34 69  2  0  0  0  0
 35 74  1  0  0  0  0
 35 79  2  0  0  0  0
 36 54  1  0  0  0  0
 36 76  1  0  0  0  0
 36 80  2  0  0  0  0
 37 65  1  0  0  0  0
 37 71  1  0  0  0  0
 37 81  2  0  0  0  0
 38 66  1  0  0  0  0
 38 77  1  0  0  0  0
 38 82  2  0  0  0  0
 39 72  1  0  0  0  0
 39 75  1  0  0  0  0
 39 83  2  0  0  0  0
 40 43  1  0  0  0  0
 41 54  1  0  0  0  0
 42 71  1  0  0  0  0
 43 47  1  0  0  0  0
 44 45  1  0  0  0  0
 44 48  1  0  0  0  0
 45 49  1  0  0  0  0
 46 50  1  0  0  0  0
 46 51  1  0  0  0  0
 47 53  1  0  0  0  0
 48 55  1  0  0  0  0
 49 56  1  0  0  0  0
 50 57  1  0  0  0  0
 51 72  1  0  0  0  0
 52 57  1  0  0  0  0
 52 72  1  0  0  0  0
 53 76  1  0  0  0  0
 54 71  1  0  0  0  0
 55 56  1  0  0  0  0
 55 63  1  0  0  0  0
 56 64  1  0  0  0  0
 57 70  1  0  0  0  0
 58 66  1  0  0  0  0
 59 67  1  0  0  0  0
 60 67  1  0  0  0  0
 61 67  1  0  0  0  0
 62 78  1  0  0  0  0
 64 85  1  0  0  0  0
 65 67  1  0  0  0  0
 65 77  1  0  0  0  0
 66 78  1  0  0  0  0
 68 70  1  0  0  0  0
M  CHG  1  78   1
M  ISO  4  39 100  64 101  75 100  85 101
M  END
> <Batch ID>
0138

> <Smiles>
CNC(C)C(=O)NC(C(=O)N1Cc2cc([101O:1][101CH2:1]C3CCCCC3CC(=N)c3cccc([100NH:0][100C:0](=O)N4CCCC(n5nc(-c6ccc(Oc7ccc(F)cc7F)cc6)c(C(N)=O)c5N)C4)c3)ccc2CC1C(=O)NC1CCCc2ccccc21)C(C)(C)C

> <Shape>
0.228

> <Color>
0.054

> <Negative vol penalty>
0.000

$$$$

  -OEChem-04052302453D

 86 95  0     1  0  0  0  0  0999 V2000
  -31.5850  -33.3234   20.6056 C   0  0  0  0  0  0  0  0  0  0  0  0
  -31.0591  -32.0706   20.9042 C   0  0  0  0  0  0  0  0  0  0  0  0
  -22.7615  -10.0896   20.1898 C   0  0  0  0  0  0  0  0  0  0  0  0
  -24.4837   -9.3129   21.6958 C   0  0  0  0  0  0  0  0  0  0  0  0
  -30.8789  -34.4749   20.9511 C   0  0  0  0  0  0  0  0  0  0  0  0
  -29.8272  -31.9685   21.5496 C   0  0  0  0  0  0  0  0  0  0  0  0
  -26.8297  -28.4564   19.4699 C   0  0  0  0  0  0  0  0  0  0  0  0
  -23.9162  -19.6015   20.2981 C   0  0  0  0  0  0  0  0  0  0  0  0
  -24.6226  -18.4256   20.0455 C   0  0  0  0  0  0  0  0  0  0  0  0
  -21.8041   -9.3888   20.9232 C   0  0  0  0  0  0  0  0  0  0  0  0
  -23.5263   -8.6121   22.4292 C   0  0  0  0  0  0  0  0  0  0  0  0
  -27.0965  -27.1245   19.7841 C   0  0  0  0  0  0  0  0  0  0  0  0
  -21.8206   -5.7051   22.1630 C   0  0  0  0  0  0  0  0  0  0  0  0
  -22.1236   -4.3971   22.5412 C   0  0  0  0  0  0  0  0  0  0  0  0
  -25.3116  -27.1560   21.4065 C   0  0  0  0  0  0  0  0  0  0  0  0
  -26.4495  -19.2309   21.4061 C   0  0  0  0  0  0  0  0  0  0  0  0
  -21.8927   -5.0156   24.8653 C   0  0  0  0  0  0  0  0  0  0  0  0
  -24.1014  -10.0516   20.5761 C   0  0  0  0  0  0  0  0  0  0  0  0
  -25.4149  -10.6017   18.4596 C   0  0  0  0  0  0  0  0  0  0  0  0
  -29.6332  -34.3868   21.5924 C   0  0  0  0  0  0  0  0  0  0  0  0
  -25.8072  -29.1525   20.1305 C   0  0  0  0  0  0  0  0  0  0  0  0
  -29.1044  -33.1199   21.9052 C   0  0  0  0  0  0  0  0  0  0  0  0
  -25.0321  -28.4959   21.0970 C   0  0  0  0  0  0  0  0  0  0  0  0
  -24.4765  -20.5922   21.1046 C   0  0  0  0  0  0  0  0  0  0  0  0
  -25.7431  -20.4068   21.6586 C   0  0  0  0  0  0  0  0  0  0  0  0
  -25.8893  -18.2403   20.5995 C   0  0  0  0  0  0  0  0  0  0  0  0
  -22.1865   -8.6501   22.0429 C   0  0  0  0  0  0  0  0  0  0  0  0
  -26.3393  -26.4750   20.7546 C   0  0  0  0  0  0  0  0  0  0  0  0
  -21.5538   -6.6684   23.1360 C   0  0  0  0  0  0  0  0  0  0  0  0
  -22.1596   -4.0524   23.8923 C   0  0  0  0  0  0  0  0  0  0  0  0
  -21.5898   -6.3236   24.4871 C   0  0  0  0  0  0  0  0  0  0  0  0
  -25.0909  -10.7748   19.8186 C   0  0  0  0  0  0  0  0  0  0  0  0
  -26.4078  -11.5210   18.2235 C   0  0  0  0  0  0  0  0  0  0  0  0
  -27.2276  -23.6331   22.7664 C   0  0  0  0  0  0  0  0  0  0  0  0
  -26.9507  -24.8777   22.3501 C   0  0  0  0  0  0  0  0  0  1  0  0
  -24.8674   -9.6914   17.4966 C   0  0  0  0  0  0  0  0  0  0  0  0
  -25.6877  -31.7167   22.0051 C   0  0  0  0  0  0  0  0  0  0  0  0
  -22.4846  -31.2730   21.7495 C   0  0  0  0  0  0  0  0  0  0  0  0
  -19.8951  -29.1340   21.1442 C   0  0  0  0  0  0  0  0  0  0  0  0
  -27.8732  -16.7026   20.8135 C   0  0  0  0  0  0  0  0  0  0  0  0
  -28.9290  -35.6602   21.9887 C   0  0  0  0  0  0  0  0  0  0  0  0
  -25.5145  -30.5809   19.7611 C   0  0  0  0  0  0  0  0  0  0  0  0
  -23.9099  -29.1925   21.8208 C   0  0  0  0  0  0  0  0  0  0  0  0
  -27.6133  -23.3318   24.1876 C   0  0  0  0  0  0  0  0  0  0  0  0
  -27.1478  -22.4375   21.8509 C   0  0  0  0  0  0  0  0  0  0  0  0
  -27.4559  -35.4593   22.3347 C   0  0  0  0  0  0  0  0  0  0  0  0
  -26.6810  -22.2652   24.7514 C   0  0  0  0  0  0  0  0  0  0  0  0
  -29.9629  -13.8446   20.4363 C   0  0  0  0  0  0  0  0  0  0  0  0
  -27.2838  -34.2585   23.2596 C   0  0  0  0  0  0  0  0  0  0  0  0
  -28.9807  -12.7185   20.1054 C   0  0  0  0  0  0  0  0  0  0  0  0
  -26.6354  -21.0231   23.8601 C   0  0  0  0  0  0  0  0  0  0  0  0
  -29.3774  -14.8289   21.4473 C   0  0  0  0  0  0  0  0  0  0  0  0
  -27.0832  -14.2555   20.7566 C   0  0  0  0  0  0  0  0  0  0  0  0
  -27.7596  -32.9677   22.5823 C   0  0  1  0  0  0  0  0  0  0  0  0
  -24.7860  -31.3455   20.8620 C   0  0  1  0  0  0  0  0  0  0  0  0
  -27.6037  -13.2748   19.6932 C   0  0  2  0  0  0  0  0  0  0  0  0
  -23.7288  -22.7945   20.1680 C   0  0  0  0  0  0  0  0  0  0  0  0
  -17.3890  -29.0533   21.0441 C   0  0  0  0  0  0  0  0  0  0  0  0
  -22.3645  -31.2941   24.7982 C   0  0  0  0  0  0  0  0  0  0  0  0
  -20.0795  -30.2823   24.6458 C   0  0  0  0  0  0  0  0  0  0  0  0
  -20.5101  -32.5384   23.6726 C   0  0  0  0  0  0  0  0  0  0  0  0
  -19.9187  -28.3477   18.2911 C   0  0  0  0  0  0  0  0  0  0  0  0
  -23.6976  -21.8415   21.3588 C   0  0  0  0  0  0  0  0  0  0  0  0
  -21.4484  -30.4924   22.5214 C   0  0  1  0  0  0  0  0  0  0  0  0
  -18.6719  -29.2596   20.2540 C   0  0  2  0  0  0  0  0  0  0  0  0
  -21.1230  -31.1390   23.8974 C   0  0  0  0  0  0  0  0  0  0  0  0
  -25.8190  -11.7289   20.4048 N   0  0  0  0  0  0  0  0  0  0  0  0
  -26.6105  -12.1635   19.4094 N   0  0  0  0  0  0  0  0  0  0  0  0
  -26.3211  -21.3920   22.4703 N   0  0  2  0  0  0  0  0  0  0  0  0
  -23.6666  -30.5906   21.4288 N   0  0  0  0  0  0  0  0  0  0  0  0
  -28.0753  -15.3172   20.9880 N   0  0  0  0  0  0  0  0  0  0  0  0
  -27.1186  -11.8342   17.1194 N   0  0  0  0  0  0  0  0  0  0  0  0
  -25.4611   -8.4296   17.3570 N   0  0  0  0  0  0  0  0  0  0  0  0
  -26.6065  -17.0457   20.3421 N   0  0  0  0  0  0  0  0  0  0  0  0
  -26.7681  -32.4967   21.6392 N   0  0  0  0  0  0  0  0  0  0  0  0
  -20.2960  -30.3579   21.6369 N   0  0  0  0  0  0  0  0  0  0  0  0
  -18.7196  -28.2462   19.1623 N   0  3  0  0  0  0  0  0  0  0  0  0
  -23.8910   -9.9943   16.7697 O   0  0  0  0  0  0  0  0  0  0  0  0
  -25.4221  -31.3257   23.1357 O   0  0  0  0  0  0  0  0  0  0  0  0
  -22.2507  -32.4430   21.4361 O   0  0  0  0  0  0  0  0  0  0  0  0
  -20.4383  -28.0574   21.3820 O   0  0  0  0  0  0  0  0  0  0  0  0
  -28.7676  -17.5222   21.0378 O   0  0  0  0  0  0  0  0  0  0  0  0
  -21.2525   -7.9663   22.7589 O   0  0  0  0  0  0  0  0  0  0  0  0
  -26.5981  -25.1752   21.0636 O   0  0  0  0  0  0  0  0  0  1  0  0
  -22.4490   -2.7959   24.2553 F   0  0  0  0  0  0  0  0  0  0  0  0
  -21.3332   -7.2444   25.4263 F   0  0  0  0  0  0  0  0  0  0  0  0
  1  2  1  0  0  0  0
  1  5  2  0  0  0  0
  2  6  2  0  0  0  0
  3 10  2  0  0  0  0
  3 18  1  0  0  0  0
  4 11  1  0  0  0  0
  4 18  2  0  0  0  0
  5 20  1  0  0  0  0
  6 22  1  0  0  0  0
  7 12  2  0  0  0  0
  7 21  1  0  0  0  0
  8  9  2  0  0  0  0
  8 24  1  0  0  0  0
  9 26  1  0  0  0  0
 10 27  1  0  0  0  0
 11 27  2  0  0  0  0
 12 28  1  0  0  0  0
 13 14  2  0  0  0  0
 13 29  1  0  0  0  0
 14 30  1  0  0  0  0
 15 23  1  0  0  0  0
 15 28  2  0  0  0  0
 16 25  1  0  0  0  0
 16 26  2  0  0  0  0
 17 30  2  0  0  0  0
 17 31  1  0  0  0  0
 18 32  1  0  0  0  0
 19 32  1  0  0  0  0
 19 33  2  0  0  0  0
 19 36  1  0  0  0  0
 20 22  2  0  0  0  0
 20 41  1  0  0  0  0
 21 23  2  0  0  0  0
 21 42  1  0  0  0  0
 22 54  1  0  0  0  0
 23 43  1  0  0  0  0
 24 25  2  0  0  0  0
 24 63  1  0  0  0  0
 25 69  1  0  0  0  0
 26 74  1  0  0  0  0
 27 83  1  0  0  0  0
 28 84  1  0  0  0  0
 29 31  2  0  0  0  0
 29 83  1  0  0  0  0
 30 85  1  0  0  0  0
 31 86  1  0  0  0  0
 32 67  2  0  0  0  0
 33 68  1  0  0  0  0
 33 72  1  0  0  0  0
 34 35  2  0  0  0  0
 34 44  1  0  0  0  0
 34 45  1  0  0  0  0
 35 84  1  0  0  0  0
 36 73  1  0  0  0  0
 36 78  2  0  0  0  0
 37 55  1  0  0  0  0
 37 75  1  0  0  0  0
 37 79  2  0  0  0  0
 38 64  1  0  0  0  0
 38 70  1  0  0  0  0
 38 80  2  0  0  0  0
 39 65  1  0  0  0  0
 39 76  1  0  0  0  0
 39 81  2  0  0  0  0
 40 71  1  0  0  0  0
 40 74  1  0  0  0  0
 40 82  2  0  0  0  0
 41 46  1  0  0  0  0
 42 55  1  0  0  0  0
 43 70  1  0  0  0  0
 44 47  1  0  0  0  0
 45 69  1  0  0  0  0
 46 49  1  0  0  0  0
 47 51  1  0  0  0  0
 48 50  1  0  0  0  0
 48 52  1  0  0  0  0
 49 54  1  0  0  0  0
 50 56  1  0  0  0  0
 51 69  1  0  0  0  0
 52 71  1  0  0  0  0
 53 56  1  0  0  0  0
 53 71  1  0  0  0  0
 54 75  1  0  0  0  0
 55 70  1  0  0  0  0
 56 68  1  0  0  0  0
 57 63  1  0  0  0  0
 58 65  1  0  0  0  0
 59 66  1  0  0  0  0
 60 66  1  0  0  0  0
 61 66  1  0  0  0  0
 62 77  1  0  0  0  0
 64 66  1  0  0  0  0
 64 76  1  0  0  0  0
 65 77  1  0  0  0  0
 67 68  1  0  0  0  0
M  CHG  1  77   1
M  ISO  4  35 101  40 100  74 100  84 101
M  END
> <Batch ID>
0138

> <Smiles>
CCc1ccc([100NH:0][100C:0](=O)N2CCCC(n3nc(-c4ccc(Oc5ccc(F)cc5F)cc4)c(C(N)=O)c3N)C2)cc1N1CCCC(=[101CH:1][101O:1]c2ccc3c(c2)CN(C(=O)C(NC(=O)C(C)NC)C(C)(C)C)C(C(=O)NC2CCCc4ccccc42)C3)C1

> <Shape>
0.234

> <Color>
0.093

> <Negative vol penalty>
0.000

$$$$

  -OEChem-04052302453D

 88 97  0     1  0  0  0  0  0999 V2000
  -17.0334  -26.8347   22.9779 C   0  0  0  0  0  0  0  0  0  0  0  0
  -18.2589  -26.2589   22.6585 C   0  0  0  0  0  0  0  0  0  0  0  0
  -22.2907  -14.1465   23.9059 C   0  0  0  0  0  0  0  0  0  0  0  0
  -21.6900  -15.0688   21.7551 C   0  0  0  0  0  0  0  0  0  0  0  0
  -16.8345  -28.2009   22.7833 C   0  0  0  0  0  0  0  0  0  0  0  0
  -19.2860  -27.0489   22.1433 C   0  0  0  0  0  0  0  0  0  0  0  0
  -25.2919  -26.3923   23.1452 C   0  0  0  0  0  0  0  0  0  0  0  0
  -21.0780  -14.5889   24.4343 C   0  0  0  0  0  0  0  0  0  0  0  0
  -20.4773  -15.5111   22.2835 C   0  0  0  0  0  0  0  0  0  0  0  0
  -26.3078  -25.7972   22.3986 C   0  0  0  0  0  0  0  0  0  0  0  0
  -17.8436  -13.6034   24.4117 C   0  0  0  0  0  0  0  0  0  0  0  0
  -17.1233  -12.7167   25.2120 C   0  0  0  0  0  0  0  0  0  0  0  0
  -29.1383  -19.5593   17.9942 C   0  0  0  0  0  0  0  0  0  0  0  0
  -28.1163  -20.6456   16.0936 C   0  0  0  0  0  0  0  0  0  0  0  0
  -26.8821  -27.9504   21.4750 C   0  0  0  0  0  0  0  0  0  0  0  0
  -27.2207  -18.5586   16.9179 C   0  0  0  0  0  0  0  0  0  0  0  0
  -17.2622  -14.2696   27.0576 C   0  0  0  0  0  0  0  0  0  0  0  0
  -22.5968  -14.3865   22.5663 C   0  0  0  0  0  0  0  0  0  0  0  0
  -29.0962  -20.6170   17.0859 C   0  0  0  0  0  0  0  0  0  0  0  0
  -24.1101  -12.6868   21.4138 C   0  0  0  0  0  0  0  0  0  0  0  0
  -17.8628  -29.0098   22.2746 C   0  0  0  0  0  0  0  0  0  0  0  0
  -25.0559  -27.7715   23.0539 C   0  0  0  0  0  0  0  0  0  0  0  0
  -19.1002  -28.4270   21.9405 C   0  0  0  0  0  0  0  0  0  0  0  0
  -25.8642  -28.5610   22.2234 C   0  0  0  0  0  0  0  0  0  0  0  0
  -28.2006  -18.5300   17.9102 C   0  0  0  0  0  0  0  0  0  0  0  0
  -20.1713  -15.2712   23.6231 C   0  0  0  0  0  0  0  0  0  0  0  0
  -27.1012  -26.5758   21.5611 C   0  0  0  0  0  0  0  0  0  0  0  0
  -18.2733  -14.8232   24.9344 C   0  0  0  0  0  0  0  0  0  0  0  0
  -27.1785  -19.6164   16.0096 C   0  0  0  0  0  0  0  0  0  0  0  0
  -16.8325  -13.0498   26.5349 C   0  0  0  0  0  0  0  0  0  0  0  0
  -17.9825  -15.1563   26.2573 C   0  0  0  0  0  0  0  0  0  0  0  0
  -23.8496  -13.9303   22.0200 C   0  0  0  0  0  0  0  0  0  0  0  0
  -25.4378  -12.7452   21.0671 C   0  0  0  0  0  0  0  0  0  0  0  0
  -30.0871  -21.7045   17.1736 C   0  0  0  0  0  0  0  0  0  0  0  0
  -23.2305  -11.5779   21.1845 C   0  0  0  0  0  0  0  0  0  0  0  0
  -22.6090  -29.5715   22.1177 C   0  0  0  0  0  0  0  0  0  0  0  0
  -24.4806  -31.9913   23.1965 C   0  0  0  0  0  0  0  0  0  0  0  0
  -27.6162  -33.1260   23.9230 C   0  0  0  0  0  0  0  0  0  0  0  0
  -29.1503  -17.2734   19.8762 C   0  0  0  0  0  0  0  0  0  0  0  0
  -17.5853  -30.4731   22.0372 C   0  0  0  0  0  0  0  0  0  0  0  0
  -23.9734  -28.4024   23.8862 C   0  0  0  0  0  0  0  0  0  0  0  0
  -25.6649  -30.0492   22.1052 C   0  0  0  0  0  0  0  0  0  0  0  0
  -18.8476  -31.3081   21.8385 C   0  0  0  0  0  0  0  0  0  0  0  0
  -29.5663  -14.7825   22.3860 C   0  0  0  0  0  0  0  0  0  0  0  0
  -19.7960  -30.6181   20.8632 C   0  0  0  0  0  0  0  0  0  0  0  0
  -28.1726  -14.1639   22.5175 C   0  0  0  0  0  0  0  0  0  0  0  0
  -30.1234  -24.6881   19.2121 C   0  0  0  0  0  0  0  0  0  0  0  0
  -29.4973  -16.2870   22.1304 C   0  0  0  0  0  0  0  0  0  0  0  0
  -30.7492  -23.8959   18.0689 C   0  0  0  0  0  0  0  0  0  0  0  0
  -27.2562  -16.0679   21.1311 C   0  0  0  0  0  0  0  0  0  0  0  0
  -28.5749  -22.9272   18.6839 C   0  0  0  0  0  0  0  0  0  0  0  0
  -20.2469  -29.2554   21.4028 C   0  0  1  0  0  0  0  0  0  0  0  0
  -23.4885  -29.7355   23.3249 C   0  0  1  0  0  0  0  0  0  0  0  0
  -27.2732  -14.5428   21.3246 C   0  0  2  0  0  0  0  0  0  0  0  0
  -28.6126  -24.4101   19.0965 C   0  0  2  0  0  0  0  0  0  0  0  0
  -27.9719  -25.2911   18.0121 C   0  0  0  0  0  0  0  0  0  0  0  0
  -28.8326  -35.1582   24.7523 C   0  0  0  0  0  0  0  0  0  0  0  0
  -24.1317  -33.3108   20.4676 C   0  0  0  0  0  0  0  0  0  0  0  0
  -26.0771  -34.7899   21.0116 C   0  0  0  0  0  0  0  0  0  0  0  0
  -24.0129  -34.8826   22.4092 C   0  0  0  0  0  0  0  0  0  0  0  0
  -28.6597  -31.6802   26.2851 C   0  0  0  0  0  0  0  0  0  0  0  0
  -26.2372  -20.7553   14.1461 C   0  0  0  0  0  0  0  0  0  0  0  0
  -27.8977  -24.6423   20.4284 C   0  0  0  0  0  0  0  0  0  1  0  0
  -25.5409  -32.8762   22.5868 C   0  0  1  0  0  0  0  0  0  0  0  0
  -28.1704  -33.8452   25.1397 C   0  0  2  0  0  0  0  0  0  0  0  0
  -24.9434  -33.9366   21.6193 C   0  0  0  0  0  0  0  0  0  0  0  0
  -24.9254  -14.7209   22.0580 N   0  0  0  0  0  0  0  0  0  0  0  0
  -25.8749  -13.9723   21.4713 N   0  0  0  0  0  0  0  0  0  0  0  0
  -29.8249  -22.7625   17.9192 N   0  0  0  0  0  0  0  0  0  0  0  0
  -24.5896  -30.6183   22.9342 N   0  0  0  0  0  0  0  0  0  0  0  0
  -28.6313  -16.5700   20.9837 N   0  0  0  0  0  0  0  0  0  0  0  0
  -26.2624  -11.8662   20.4591 N   0  0  0  0  0  0  0  0  0  0  0  0
  -21.8974  -11.6849   21.6035 N   0  0  0  0  0  0  0  0  0  0  0  0
  -28.2438  -17.4550   18.8323 N   0  0  0  0  0  0  0  0  0  0  0  0
  -21.2675  -29.4250   22.4147 N   0  0  0  0  0  0  0  0  0  0  0  0
  -26.2921  -33.4413   23.7026 N   0  0  0  0  0  0  0  0  0  0  0  0
  -31.2303  -21.6025   16.5021 N   0  3  0  0  0  0  0  0  0  0  0  0
  -29.1814  -32.9941   25.8285 N   0  3  0  0  0  0  0  0  0  0  0  0
  -23.6195  -10.5173   20.6394 O   0  0  0  0  0  0  0  0  0  0  0  0
  -23.1103  -29.5789   20.9995 O   0  0  0  0  0  0  0  0  0  0  0  0
  -23.5927  -32.4988   23.8862 O   0  0  0  0  0  0  0  0  0  0  0  0
  -28.2914  -32.3639   23.2348 O   0  0  0  0  0  0  0  0  0  0  0  0
  -30.3212  -17.6606   19.8440 O   0  0  0  0  0  0  0  0  0  0  0  0
  -18.9877  -15.7028   24.1384 O   0  0  0  0  0  0  0  0  0  0  0  0
  -26.2223  -19.6444   15.0413 O   0  0  0  0  0  0  0  0  0  0  0  0
  -28.0931  -25.9974   20.8307 O   0  0  0  0  0  0  0  0  0  1  0  0
  -16.1394  -12.1988   27.3029 F   0  0  0  0  0  0  0  0  0  0  0  0
  -18.3916  -16.3272   26.7647 F   0  0  0  0  0  0  0  0  0  0  0  0
  1  2  1  0  0  0  0
  1  5  2  0  0  0  0
  2  6  2  0  0  0  0
  3  8  2  0  0  0  0
  3 18  1  0  0  0  0
  4  9  1  0  0  0  0
  4 18  2  0  0  0  0
  5 21  1  0  0  0  0
  6 23  1  0  0  0  0
  7 10  2  0  0  0  0
  7 22  1  0  0  0  0
  8 26  1  0  0  0  0
  9 26  2  0  0  0  0
 10 27  1  0  0  0  0
 11 12  2  0  0  0  0
 11 28  1  0  0  0  0
 12 30  1  0  0  0  0
 13 19  1  0  0  0  0
 13 25  2  0  0  0  0
 14 19  2  0  0  0  0
 14 29  1  0  0  0  0
 15 24  1  0  0  0  0
 15 27  2  0  0  0  0
 16 25  1  0  0  0  0
 16 29  2  0  0  0  0
 17 30  2  0  0  0  0
 17 31  1  0  0  0  0
 18 32  1  0  0  0  0
 19 34  1  0  0  0  0
 20 32  1  0  0  0  0
 20 33  2  0  0  0  0
 20 35  1  0  0  0  0
 21 23  2  0  0  0  0
 21 40  1  0  0  0  0
 22 24  2  0  0  0  0
 22 41  1  0  0  0  0
 23 52  1  0  0  0  0
 24 42  1  0  0  0  0
 25 74  1  0  0  0  0
 26 84  1  0  0  0  0
 27 86  1  0  0  0  0
 28 31  2  0  0  0  0
 28 84  1  0  0  0  0
 29 85  1  0  0  0  0
 30 87  1  0  0  0  0
 31 88  1  0  0  0  0
 32 67  2  0  0  0  0
 33 68  1  0  0  0  0
 33 72  1  0  0  0  0
 34 69  1  0  0  0  0
 34 77  2  0  0  0  0
 35 73  1  0  0  0  0
 35 79  2  0  0  0  0
 36 53  1  0  0  0  0
 36 75  1  0  0  0  0
 36 80  2  0  0  0  0
 37 64  1  0  0  0  0
 37 70  1  0  0  0  0
 37 81  2  0  0  0  0
 38 65  1  0  0  0  0
 38 76  1  0  0  0  0
 38 82  2  0  0  0  0
 39 71  1  0  0  0  0
 39 74  1  0  0  0  0
 39 83  2  0  0  0  0
 40 43  1  0  0  0  0
 41 53  1  0  0  0  0
 42 70  1  0  0  0  0
 43 45  1  0  0  0  0
 44 46  1  0  0  0  0
 44 48  1  0  0  0  0
 45 52  1  0  0  0  0
 46 54  1  0  0  0  0
 47 49  1  0  0  0  0
 47 55  1  0  0  0  0
 48 71  1  0  0  0  0
 49 69  1  0  0  0  0
 50 54  1  0  0  0  0
 50 71  1  0  0  0  0
 51 55  1  0  0  0  0
 51 69  1  0  0  0  0
 52 75  1  0  0  0  0
 53 70  1  0  0  0  0
 54 68  1  0  0  0  0
 55 56  1  0  0  0  0
 55 63  1  0  0  0  0
 57 65  1  0  0  0  0
 58 66  1  0  0  0  0
 59 66  1  0  0  0  0
 60 66  1  0  0  0  0
 61 78  1  0  0  0  0
 62 85  1  0  0  0  0
 63 86  1  0  0  0  0
 64 66  1  0  0  0  0
 64 76  1  0  0  0  0
 65 78  1  0  0  0  0
 67 68  1  0  0  0  0
M  CHG  2  77   1  78   1
M  ISO  4  39 100  63 101  74 100  86 101
M  END
> <Batch ID>
0138

> <Smiles>
CNC(C)C(=O)NC(C(=O)N1Cc2cc([101O:1][101CH2:1]C3(C)CCN(C(=N)c4cc([100NH:0][100C:0](=O)N5CCCC(n6nc(-c7ccc(Oc8ccc(F)cc8F)cc7)c(C(N)=O)c6N)C5)cc(OC)c4)C3)ccc2CC1C(=O)NC1CCCc2ccccc21)C(C)(C)C

> <Shape>
0.248

> <Color>
0.093

> <Negative vol penalty>
0.000

$$$$

  -OEChem-04052302453D

 89 97  0     1  0  0  0  0  0999 V2000
  -26.1139  -34.0014   14.0806 C   0  0  0  0  0  0  0  0  0  0  0  0
  -26.3737  -32.7238   14.5662 C   0  0  0  0  0  0  0  0  0  0  0  0
  -24.6159   -8.8207   21.4613 C   0  0  0  0  0  0  0  0  0  0  0  0
  -23.1339  -10.5758   20.7129 C   0  0  0  0  0  0  0  0  0  0  0  0
  -26.0940  -35.0874   14.9547 C   0  0  0  0  0  0  0  0  0  0  0  0
  -26.6148  -32.5317   15.9261 C   0  0  0  0  0  0  0  0  0  0  0  0
  -25.0070  -27.6806   19.3006 C   0  0  0  0  0  0  0  0  0  0  0  0
  -23.6485   -8.3909   22.3695 C   0  0  0  0  0  0  0  0  0  0  0  0
  -22.1663  -10.1460   21.6211 C   0  0  0  0  0  0  0  0  0  0  0  0
  -25.7135  -26.5545   19.7207 C   0  0  0  0  0  0  0  0  0  0  0  0
  -20.7993   -6.5716   22.2990 C   0  0  0  0  0  0  0  0  0  0  0  0
  -20.5542   -5.2011   22.3849 C   0  0  0  0  0  0  0  0  0  0  0  0
  -26.1756  -27.6374   21.8262 C   0  0  0  0  0  0  0  0  0  0  0  0
  -25.9302  -17.9372   18.6768 C   0  0  0  0  0  0  0  0  0  0  0  0
  -27.9692  -18.6668   19.7479 C   0  0  0  0  0  0  0  0  0  0  0  0
  -21.1844   -5.2347   24.7171 C   0  0  0  0  0  0  0  0  0  0  0  0
  -24.3587   -9.9132   20.6331 C   0  0  0  0  0  0  0  0  0  0  0  0
  -25.5243   -9.9311   18.3640 C   0  0  0  0  0  0  0  0  0  0  0  0
  -26.3254  -34.9072   16.3275 C   0  0  0  0  0  0  0  0  0  0  0  0
  -24.8885  -28.7996   20.1374 C   0  0  0  0  0  0  0  0  0  0  0  0
  -26.5992  -33.6165   16.8192 C   0  0  0  0  0  0  0  0  0  0  0  0
  -25.4649  -28.7754   21.4154 C   0  0  0  0  0  0  0  0  0  0  0  0
  -25.4128  -19.2282   18.7824 C   0  0  0  0  0  0  0  0  0  0  0  0
  -27.4518  -19.9579   19.8535 C   0  0  0  0  0  0  0  0  0  0  0  0
  -27.2084  -17.6565   19.1596 C   0  0  0  0  0  0  0  0  0  0  0  0
  -22.4236   -9.0535   22.4494 C   0  0  0  0  0  0  0  0  0  0  0  0
  -26.3004  -26.5339   20.9825 C   0  0  0  0  0  0  0  0  0  0  0  0
  -21.2370   -7.2736   23.4221 C   0  0  0  0  0  0  0  0  0  0  0  0
  -26.1735  -20.2386   19.3707 C   0  0  0  0  0  0  0  0  0  0  0  0
  -20.7467   -4.5327   23.5940 C   0  0  0  0  0  0  0  0  0  0  0  0
  -21.4296   -6.6051   24.6311 C   0  0  0  0  0  0  0  0  0  0  0  0
  -25.3579  -10.3580   19.6951 C   0  0  0  0  0  0  0  0  0  0  0  0
  -26.6028  -10.6476   17.9059 C   0  0  0  0  0  0  0  0  0  0  0  0
  -24.7712   -8.9726   17.6091 C   0  0  0  0  0  0  0  0  0  0  0  0
  -25.7964  -31.8406   19.9584 C   0  0  0  0  0  0  0  0  0  0  0  0
  -28.9016  -24.0200   20.9482 C   0  0  0  0  0  0  0  0  0  0  0  0
  -24.0954  -32.1045   22.7078 C   0  0  0  0  0  0  0  0  0  0  0  0
  -22.8035  -30.5780   25.4732 C   0  0  0  0  0  0  0  0  0  0  0  0
  -28.9828  -15.8973   19.4810 C   0  0  0  0  0  0  0  0  0  0  0  0
  -26.3404  -36.1182   17.2263 C   0  0  0  0  0  0  0  0  0  0  0  0
  -24.1003  -29.9962   19.6798 C   0  0  0  0  0  0  0  0  0  0  0  0
  -25.3495  -29.9431   22.3597 C   0  0  0  0  0  0  0  0  0  0  0  0
  -26.2354  -35.7765   18.7104 C   0  0  0  0  0  0  0  0  0  0  0  0
  -30.6299  -12.7411   19.4336 C   0  0  0  0  0  0  0  0  0  0  0  0
  -27.1901  -34.6411   19.0657 C   0  0  0  0  0  0  0  0  0  0  0  0
  -29.4802  -11.7331   19.3680 C   0  0  0  0  0  0  0  0  0  0  0  0
  -30.2796  -13.9449   20.3064 C   0  0  0  0  0  0  0  0  0  0  0  0
  -27.8741  -13.6130   19.8910 C   0  0  0  0  0  0  0  0  0  0  0  0
  -26.8410  -33.3643   18.2916 C   0  0  1  0  0  0  0  0  0  0  0  0
  -24.4799  -31.2783   20.4145 C   0  0  1  0  0  0  0  0  0  0  0  0
  -28.1557  -12.4140   18.9708 C   0  0  2  0  0  0  0  0  0  0  0  0
  -24.0422  -19.5096   18.2607 C   0  0  0  0  0  0  0  0  0  0  0  0
  -23.8979  -22.8631   20.3343 C   0  0  0  0  0  0  0  0  0  0  0  0
  -21.4938  -31.0606   27.5587 C   0  0  0  0  0  0  0  0  0  0  0  0
  -30.9760  -22.5966   20.7717 C   0  0  0  0  0  0  0  0  0  0  0  0
  -30.2624  -24.0008   18.8456 C   0  0  0  0  0  0  0  0  0  0  0  0
  -26.5791  -33.3397   23.9788 C   0  0  0  0  0  0  0  0  0  0  0  0
  -25.5533  -32.9208   26.2238 C   0  0  0  0  0  0  0  0  0  0  0  0
  -24.4262  -34.4476   24.6048 C   0  0  0  0  0  0  0  0  0  0  0  0
  -20.6143  -28.7609   24.6580 C   0  0  0  0  0  0  0  0  0  0  0  0
  -28.2905  -21.0380   20.4911 C   0  0  0  0  0  0  0  0  0  0  0  0
  -27.6413  -24.6619   20.3878 C   0  0  0  0  0  0  0  0  0  1  0  0
  -28.9153  -21.9599   19.4342 C   0  0  0  0  0  0  0  0  0  0  0  0
  -24.9364  -21.8101   20.6574 C   0  0  0  0  0  0  0  0  0  0  0  0
  -24.4085  -31.9558   24.1771 C   0  0  1  0  0  0  0  0  0  0  0  0
  -21.4225  -30.6325   26.1011 C   0  0  2  0  0  0  0  0  0  0  0  0
  -29.7491  -23.1323   20.0081 C   0  0  0  0  0  0  0  0  0  0  0  0
  -25.2458  -33.1446   24.7278 C   0  0  0  0  0  0  0  0  0  0  0  0
  -26.2588  -11.2745   20.0591 N   0  0  0  0  0  0  0  0  0  0  0  0
  -27.0016  -11.4294   18.9499 N   0  0  0  0  0  0  0  0  0  0  0  0
  -24.5742  -31.0923   21.8639 N   0  0  0  0  0  0  0  0  0  0  0  0
  -29.0155  -14.5411   19.8689 N   0  0  0  0  0  0  0  0  0  0  0  0
  -27.2395  -10.6788   16.7159 N   0  0  0  0  0  0  0  0  0  0  0  0
  -23.6942   -8.3281   18.2328 N   0  0  0  0  0  0  0  0  0  0  0  0
  -27.7332  -16.3446   19.0531 N   0  0  0  0  0  0  0  0  0  0  0  0
  -25.6969  -32.7086   18.8878 N   0  0  0  0  0  0  0  0  0  0  0  0
  -23.1283  -31.7643   24.8499 N   0  0  0  0  0  0  0  0  0  0  0  0
  -20.7706  -29.2939   26.0358 N   0  3  0  0  0  0  0  0  0  0  0  0
  -25.0554   -8.6838   16.4219 O   0  0  0  0  0  0  0  0  0  0  0  0
  -26.8262  -31.5124   20.5359 O   0  0  0  0  0  0  0  0  0  0  0  0
  -29.2329  -24.2159   22.1202 O   0  0  0  0  0  0  0  0  0  0  0  0
  -23.4438  -33.0790   22.3239 O   0  0  0  0  0  0  0  0  0  0  0  0
  -23.5237  -29.5839   25.5330 O   0  0  0  0  0  0  0  0  0  0  0  0
  -29.9951  -16.6022   19.4994 O   0  0  0  0  0  0  0  0  0  0  0  0
  -21.4792   -8.6343   23.3353 O   0  0  0  0  0  0  0  0  0  0  0  0
  -26.9912  -25.4363   21.3948 O   0  0  0  0  0  0  0  0  0  1  0  0
  -25.6684  -21.5015   19.4739 O   0  0  0  0  0  0  0  0  0  0  0  0
  -20.5098   -3.2169   23.6767 F   0  0  0  0  0  0  0  0  0  0  0  0
  -21.8488   -7.2744   25.7137 F   0  0  0  0  0  0  0  0  0  0  0  0
  1  2  1  0  0  0  0
  1  5  2  0  0  0  0
  2  6  2  0  0  0  0
  3  8  2  0  0  0  0
  3 17  1  0  0  0  0
  4  9  1  0  0  0  0
  4 17  2  0  0  0  0
  5 19  1  0  0  0  0
  6 21  1  0  0  0  0
  7 10  2  0  0  0  0
  7 20  1  0  0  0  0
  8 26  1  0  0  0  0
  9 26  2  0  0  0  0
 10 27  1  0  0  0  0
 11 12  2  0  0  0  0
 11 28  1  0  0  0  0
 12 30  1  0  0  0  0
 13 22  1  0  0  0  0
 13 27  2  0  0  0  0
 14 23  2  0  0  0  0
 14 25  1  0  0  0  0
 15 24  1  0  0  0  0
 15 25  2  0  0  0  0
 16 30  2  0  0  0  0
 16 31  1  0  0  0  0
 17 32  1  0  0  0  0
 18 32  1  0  0  0  0
 18 33  2  0  0  0  0
 18 34  1  0  0  0  0
 19 21  2  0  0  0  0
 19 40  1  0  0  0  0
 20 22  2  0  0  0  0
 20 41  1  0  0  0  0
 21 49  1  0  0  0  0
 22 42  1  0  0  0  0
 23 29  1  0  0  0  0
 23 52  1  0  0  0  0
 24 29  2  0  0  0  0
 24 61  1  0  0  0  0
 25 75  1  0  0  0  0
 26 85  1  0  0  0  0
 27 86  1  0  0  0  0
 28 31  2  0  0  0  0
 28 85  1  0  0  0  0
 29 87  1  0  0  0  0
 30 88  1  0  0  0  0
 31 89  1  0  0  0  0
 32 69  2  0  0  0  0
 33 70  1  0  0  0  0
 33 73  1  0  0  0  0
 34 74  1  0  0  0  0
 34 79  2  0  0  0  0
 35 50  1  0  0  0  0
 35 76  1  0  0  0  0
 35 80  2  0  0  0  0
 36 62  1  0  0  0  0
 36 67  1  0  0  0  0
 36 81  2  0  0  0  0
 37 65  1  0  0  0  0
 37 71  1  0  0  0  0
 37 82  2  0  0  0  0
 38 66  1  0  0  0  0
 38 77  1  0  0  0  0
 38 83  2  0  0  0  0
 39 72  1  0  0  0  0
 39 75  1  0  0  0  0
 39 84  2  0  0  0  0
 40 43  1  0  0  0  0
 41 50  1  0  0  0  0
 42 71  1  0  0  0  0
 43 45  1  0  0  0  0
 44 46  1  0  0  0  0
 44 47  1  0  0  0  0
 45 49  1  0  0  0  0
 46 51  1  0  0  0  0
 47 72  1  0  0  0  0
 48 51  1  0  0  0  0
 48 72  1  0  0  0  0
 49 76  1  0  0  0  0
 50 71  1  0  0  0  0
 51 70  1  0  0  0  0
 53 64  1  0  0  0  0
 54 66  1  0  0  0  0
 55 67  1  0  0  0  0
 56 67  1  0  0  0  0
 57 68  1  0  0  0  0
 58 68  1  0  0  0  0
 59 68  1  0  0  0  0
 60 78  1  0  0  0  0
 61 63  1  0  0  0  0
 62 86  1  0  0  0  0
 63 67  1  0  0  0  0
 64 87  1  0  0  0  0
 65 68  1  0  0  0  0
 65 77  1  0  0  0  0
 66 78  1  0  0  0  0
 69 70  1  0  0  0  0
M  CHG  1  78   1
M  ISO  4  39 100  62 101  75 100  86 101
M  END
> <Batch ID>
0138

> <Smiles>
CCOc1c(C)cc([100NH:0][100C:0](=O)N2CCCC(n3nc(-c4ccc(Oc5ccc(F)cc5F)cc4)c(C(N)=O)c3N)C2)cc1CCC(C)(C)C(=O)[101CH2:1][101O:1]c1ccc2c(c1)CN(C(=O)C(NC(=O)C(C)NC)C(C)(C)C)C(C(=O)NC1CCCc3ccccc31)C2

> <Shape>
0.263

> <Color>
0.082

> <Negative vol penalty>
0.000

$$$$

  -OEChem-04052302453D

 84 92  0     1  0  0  0  0  0999 V2000
  -18.1634  -28.0815   22.2726 C   0  0  0  0  0  0  0  0  0  0  0  0
  -19.2355  -28.9506   22.4473 C   0  0  0  0  0  0  0  0  0  0  0  0
  -25.6809  -29.0274   24.6469 C   0  0  0  0  0  0  0  0  0  0  0  0
  -26.2840  -16.6176   23.5165 C   0  0  0  0  0  0  0  0  0  0  0  0
  -25.3115  -18.2579   22.0331 C   0  0  0  0  0  0  0  0  0  0  0  0
  -26.1910  -30.3063   24.8701 C   0  0  0  0  0  0  0  0  0  0  0  0
  -26.3995  -27.9072   25.0647 C   0  0  0  0  0  0  0  0  0  0  0  0
  -18.3826  -26.7051   22.2325 C   0  0  0  0  0  0  0  0  0  0  0  0
  -20.5274  -28.4439   22.5833 C   0  0  0  0  0  0  0  0  0  0  0  0
  -25.7136  -30.9904   20.5523 C   0  0  0  0  0  0  0  0  0  0  0  0
  -25.5258  -15.6175   22.9078 C   0  0  0  0  0  0  0  0  0  0  0  0
  -24.5533  -17.2578   21.4243 C   0  0  0  0  0  0  0  0  0  0  0  0
  -26.6904  -31.7597   21.1829 C   0  0  0  0  0  0  0  0  0  0  0  0
  -25.6430  -13.7814   20.0709 C   0  0  0  0  0  0  0  0  0  0  0  0
  -26.2859  -12.5864   19.7479 C   0  0  0  0  0  0  0  0  0  0  0  0
  -28.1382  -29.3449   25.9290 C   0  0  0  0  0  0  0  0  0  0  0  0
  -28.0166  -29.7757   21.5354 C   0  0  0  0  0  0  0  0  0  0  0  0
  -24.7598  -11.3784   21.1792 C   0  0  0  0  0  0  0  0  0  0  0  0
  -26.1768  -17.9378   23.0793 C   0  0  0  0  0  0  0  0  0  0  0  0
  -27.4196  -30.4651   25.5112 C   0  0  0  0  0  0  0  0  0  0  0  0
  -27.6281  -28.0660   25.7058 C   0  0  0  0  0  0  0  0  0  0  0  0
  -28.2477  -19.4041   23.3415 C   0  0  0  0  0  0  0  0  0  0  0  0
  -19.6791  -26.1817   22.3584 C   0  0  0  0  0  0  0  0  0  0  0  0
  -25.8762  -29.6041   20.4180 C   0  0  0  0  0  0  0  0  0  0  0  0
  -20.7641  -27.0592   22.5462 C   0  0  0  0  0  0  0  0  0  0  0  0
  -27.0415  -28.9915   20.9004 C   0  0  0  0  0  0  0  0  0  0  0  0
  -24.6605  -15.9376   21.8616 C   0  0  0  0  0  0  0  0  0  0  0  0
  -27.8408  -31.1520   21.6772 C   0  0  0  0  0  0  0  0  0  0  0  0
  -24.5585  -13.7749   20.9481 C   0  0  0  0  0  0  0  0  0  0  0  0
  -25.8443  -11.3850   20.3020 C   0  0  0  0  0  0  0  0  0  0  0  0
  -24.1169  -12.5734   21.5022 C   0  0  0  0  0  0  0  0  0  0  0  0
  -26.9592  -18.9714   23.7081 C   0  0  0  0  0  0  0  0  0  0  0  0
  -28.5459  -20.3969   24.2426 C   0  0  0  0  0  0  0  0  0  0  0  0
  -27.2681  -32.7041   26.4916 C   0  0  0  0  0  0  0  0  0  0  0  0
  -27.9602  -31.8241   25.7480 C   0  0  0  0  0  0  0  0  0  0  0  0
  -28.3763  -26.8970   26.1408 C   0  0  0  0  0  0  0  0  0  0  0  0
  -29.0990  -18.9492   22.2813 C   0  0  0  0  0  0  0  0  0  0  0  0
  -24.2938  -27.0492   21.4536 C   0  0  0  0  0  0  0  0  0  0  0  0
  -26.9999  -24.9777   27.0561 C   0  0  0  0  0  0  0  0  0  0  0  0
  -26.4063  -25.4614   19.5725 C   0  0  0  0  0  0  0  0  0  0  0  0
  -29.4496  -25.4205   18.0286 C   0  0  0  0  0  0  0  0  0  0  0  0
  -19.8608  -24.6845   22.3562 C   0  0  0  0  0  0  0  0  0  0  0  0
  -24.8254  -28.7923   19.7114 C   0  0  0  0  0  0  0  0  0  0  0  0
  -27.2734  -27.5096   20.7634 C   0  0  0  0  0  0  0  0  0  0  0  0
  -21.3060  -24.2467   22.1326 C   0  0  0  0  0  0  0  0  0  0  0  0
  -26.2228  -21.7935   28.5042 C   0  0  0  0  0  0  0  0  0  0  0  0
  -22.2515  -25.0558   23.0148 C   0  0  0  0  0  0  0  0  0  0  0  0
  -26.4217  -20.8149   27.3475 C   0  0  0  0  0  0  0  0  0  0  0  0
  -25.6687  -23.1287   28.0171 C   0  0  0  0  0  0  0  0  0  0  0  0
  -26.6880  -22.7949   25.7874 C   0  0  0  0  0  0  0  0  0  0  0  0
  -22.1832  -26.5490   22.6725 C   0  0  1  0  0  0  0  0  0  0  0  0
  -24.8595  -27.3141   20.0870 C   0  0  1  0  0  0  0  0  0  0  0  0
  -27.2754  -21.4438   26.2320 C   0  0  2  0  0  0  0  0  0  0  0  0
  -30.9110  -23.9708   16.5934 C   0  0  0  0  0  0  0  0  0  0  0  0
  -27.0986  -23.7550   22.0053 C   0  0  0  0  0  0  0  0  0  0  0  0
  -29.1662  -23.0090   20.8067 C   0  0  0  0  0  0  0  0  0  0  0  0
  -26.9193  -22.4859   19.8578 C   0  0  0  0  0  0  0  0  0  0  0  0
  -29.4630  -27.4064   15.8343 C   0  0  0  0  0  0  0  0  0  0  0  0
  -29.3169  -32.1785   25.1787 C   0  0  0  0  0  0  0  0  0  0  0  0
  -27.8451  -25.4769   25.9114 C   0  0  0  0  0  0  0  0  0  0  0  0
  -29.2945  -33.3233   24.1594 C   0  0  0  0  0  0  0  0  0  0  0  0
  -28.3586  -33.0707   22.9834 C   0  0  0  0  0  0  0  0  0  1  0  0
  -27.7773  -24.8626   19.7741 C   0  0  1  0  0  0  0  0  0  0  0  0
  -29.8544  -25.0645   16.6095 C   0  0  2  0  0  0  0  0  0  0  0  0
  -27.7354  -23.5558   20.6154 C   0  0  0  0  0  0  0  0  0  0  0  0
  -26.4724  -19.6349   24.7602 N   0  0  0  0  0  0  0  0  0  0  0  0
  -29.5403  -27.0100   26.7396 N   0  0  0  0  0  0  0  0  0  0  0  0
  -27.4603  -20.4945   25.0624 N   0  0  0  0  0  0  0  0  0  0  0  0
  -26.2140  -26.7579   20.0705 N   0  0  0  0  0  0  0  0  0  0  0  0
  -26.4949  -23.6823   26.9427 N   0  0  0  0  0  0  0  0  0  0  0  0
  -29.6282  -21.1871   24.4057 N   0  0  0  0  0  0  0  0  0  0  0  0
  -28.6373  -17.9210   21.4482 N   0  0  0  0  0  0  0  0  0  0  0  0
  -22.9303  -26.8253   21.4643 N   0  0  0  0  0  0  0  0  0  0  0  0
  -28.3506  -24.6979   18.4427 N   0  0  0  0  0  0  0  0  0  0  0  0
  -30.4057  -26.2609   15.9125 N   0  3  0  0  0  0  0  0  0  0  0  0
  -30.2420  -19.4288   22.0888 O   0  0  0  0  0  0  0  0  0  0  0  0
  -25.0394  -27.0467   22.4261 O   0  0  0  0  0  0  0  0  0  0  0  0
  -26.7981  -25.7174   28.0227 O   0  0  0  0  0  0  0  0  0  0  0  0
  -25.5400  -24.8058   18.9881 O   0  0  0  0  0  0  0  0  0  0  0  0
  -30.0505  -26.2535   18.7036 O   0  0  0  0  0  0  0  0  0  0  0  0
  -23.9207  -14.9620   21.2671 O   0  0  0  0  0  0  0  0  0  0  0  0
  -28.7956  -31.9004   22.2938 O   0  0  0  0  0  0  0  0  0  1  0  0
  -26.4609  -10.2373   19.9906 F   0  0  0  0  0  0  0  0  0  0  0  0
  -23.0747  -12.5607   22.3446 F   0  0  0  0  0  0  0  0  0  0  0  0
  1  2  1  0  0  0  0
  1  8  2  0  0  0  0
  2  9  2  0  0  0  0
  3  6  2  0  0  0  0
  3  7  1  0  0  0  0
  4 11  2  0  0  0  0
  4 19  1  0  0  0  0
  5 12  1  0  0  0  0
  5 19  2  0  0  0  0
  6 20  1  0  0  0  0
  7 21  2  0  0  0  0
  8 23  1  0  0  0  0
  9 25  1  0  0  0  0
 10 13  2  0  0  0  0
 10 24  1  0  0  0  0
 11 27  1  0  0  0  0
 12 27  2  0  0  0  0
 13 28  1  0  0  0  0
 14 15  2  0  0  0  0
 14 29  1  0  0  0  0
 15 30  1  0  0  0  0
 16 20  2  0  0  0  0
 16 21  1  0  0  0  0
 17 26  1  0  0  0  0
 17 28  2  0  0  0  0
 18 30  2  0  0  0  0
 18 31  1  0  0  0  0
 19 32  1  0  0  0  0
 20 35  1  0  0  0  0
 21 36  1  0  0  0  0
 22 32  1  0  0  0  0
 22 33  2  0  0  0  0
 22 37  1  0  0  0  0
 23 25  2  0  0  0  0
 23 42  1  0  0  0  0
 24 26  2  0  0  0  0
 24 43  1  0  0  0  0
 25 51  1  0  0  0  0
 26 44  1  0  0  0  0
 27 81  1  0  0  0  0
 28 82  1  0  0  0  0
 29 31  2  0  0  0  0
 29 81  1  0  0  0  0
 30 83  1  0  0  0  0
 31 84  1  0  0  0  0
 32 66  2  0  0  0  0
 33 68  1  0  0  0  0
 33 71  1  0  0  0  0
 34 35  2  0  0  0  0
 35 59  1  0  0  0  0
 36 60  1  0  0  0  0
 36 67  2  0  0  0  0
 37 72  1  0  0  0  0
 37 76  2  0  0  0  0
 38 52  1  0  0  0  0
 38 73  1  0  0  0  0
 38 77  2  0  0  0  0
 39 60  1  0  0  0  0
 39 70  1  0  0  0  0
 39 78  2  0  0  0  0
 40 63  1  0  0  0  0
 40 69  1  0  0  0  0
 40 79  2  0  0  0  0
 41 64  1  0  0  0  0
 41 74  1  0  0  0  0
 41 80  2  0  0  0  0
 42 45  1  0  0  0  0
 43 52  1  0  0  0  0
 44 69  1  0  0  0  0
 45 47  1  0  0  0  0
 46 48  1  0  0  0  0
 46 49  1  0  0  0  0
 47 51  1  0  0  0  0
 48 53  1  0  0  0  0
 49 70  1  0  0  0  0
 50 53  1  0  0  0  0
 50 70  1  0  0  0  0
 51 73  1  0  0  0  0
 52 69  1  0  0  0  0
 53 68  1  0  0  0  0
 54 64  1  0  0  0  0
 55 65  1  0  0  0  0
 56 65  1  0  0  0  0
 57 65  1  0  0  0  0
 58 75  1  0  0  0  0
 59 61  1  0  0  0  0
 61 62  1  0  0  0  0
 62 82  1  0  0  0  0
 63 65  1  0  0  0  0
 63 74  1  0  0  0  0
 64 75  1  0  0  0  0
 66 68  1  0  0  0  0
M  CHG  1  75   1
M  ISO  4  39 100  60 100  62 101  82 101
M  END
> <Batch ID>
0138

> <Smiles>
C=C(CC[101CH2:1][101O:1]c1ccc2c(c1)CN(C(=O)C(NC(=O)C(C)NC)C(C)(C)C)C(C(=O)NC1CCCc3ccccc31)C2)c1cccc(C(=N)[100CH2:0][100C:0](=O)N2CCCC(n3nc(-c4ccc(Oc5ccc(F)cc5F)cc4)c(C(N)=O)c3N)C2)c1

> <Shape>
0.225

> <Color>
0.061

> <Negative vol penalty>
0.000

$$$$

  -OEChem-04052302453D

 87 96  0     1  0  0  0  0  0999 V2000
  -20.5263  -29.2686   17.4179 C   0  0  0  0  0  0  0  0  0  0  0  0
  -20.9598  -27.9869   17.7417 C   0  0  0  0  0  0  0  0  0  0  0  0
  -32.5524  -17.5903   23.5105 C   0  0  0  0  0  0  0  0  0  0  0  0
  -23.0992   -9.8518   19.9156 C   0  0  0  0  0  0  0  0  0  0  0  0
  -23.8214   -9.8869   22.2209 C   0  0  0  0  0  0  0  0  0  0  0  0
  -31.7351  -18.4572   24.2356 C   0  0  0  0  0  0  0  0  0  0  0  0
  -21.2470  -30.3786   17.8567 C   0  0  0  0  0  0  0  0  0  0  0  0
  -22.1149  -27.8145   18.5036 C   0  0  0  0  0  0  0  0  0  0  0  0
  -23.1717  -23.4306   22.6473 C   0  0  0  0  0  0  0  0  0  0  0  0
  -31.9870  -16.6925   22.6049 C   0  0  0  0  0  0  0  0  0  0  0  0
  -22.3608   -8.6949   20.1645 C   0  0  0  0  0  0  0  0  0  0  0  0
  -23.0829   -8.7301   22.4698 C   0  0  0  0  0  0  0  0  0  0  0  0
  -23.8656  -22.2233   22.5793 C   0  0  0  0  0  0  0  0  0  0  0  0
  -19.8520   -7.9111   23.0274 C   0  0  0  0  0  0  0  0  0  0  0  0
  -19.0764   -7.8760   24.1862 C   0  0  0  0  0  0  0  0  0  0  0  0
  -29.7868  -17.5284   23.1499 C   0  0  0  0  0  0  0  0  0  0  0  0
  -25.8210  -23.3028   23.4905 C   0  0  0  0  0  0  0  0  0  0  0  0
  -20.3214   -5.9561   24.9614 C   0  0  0  0  0  0  0  0  0  0  0  0
  -23.8295  -10.4478   20.9438 C   0  0  0  0  0  0  0  0  0  0  0  0
  -30.3522  -18.4263   24.0554 C   0  0  0  0  0  0  0  0  0  0  0  0
  -24.1526  -12.9745   20.8050 C   0  0  0  0  0  0  0  0  0  0  0  0
  -22.4061  -30.2199   18.6324 C   0  0  0  0  0  0  0  0  0  0  0  0
  -23.8016  -24.5875   23.1280 C   0  0  0  0  0  0  0  0  0  0  0  0
  -22.8525  -28.9234   18.9520 C   0  0  0  0  0  0  0  0  0  0  0  0
  -25.1321  -24.5230   23.5660 C   0  0  0  0  0  0  0  0  0  0  0  0
  -30.6042  -16.6615   22.4247 C   0  0  0  0  0  0  0  0  0  0  0  0
  -22.3526   -8.1341   21.4416 C   0  0  0  0  0  0  0  0  0  0  0  0
  -25.1914  -22.1599   22.9983 C   0  0  0  0  0  0  0  0  0  0  0  0
  -20.8623   -6.9687   22.8355 C   0  0  0  0  0  0  0  0  0  0  0  0
  -19.3110   -6.8985   25.1532 C   0  0  0  0  0  0  0  0  0  0  0  0
  -21.0970   -5.9912   23.8025 C   0  0  0  0  0  0  0  0  0  0  0  0
  -24.5930  -11.6425   20.6871 C   0  0  0  0  0  0  0  0  0  0  0  0
  -25.2444  -13.7295   20.4523 C   0  0  0  0  0  0  0  0  0  0  0  0
  -29.4810  -19.3523   24.8301 C   0  0  0  0  0  0  0  0  0  0  0  0
  -22.8713  -13.4836   21.1982 C   0  0  0  0  0  0  0  0  0  0  0  0
  -27.0523  -19.2952   24.1826 C   0  0  0  0  0  0  0  0  0  0  0  0
  -24.5104  -27.4315   21.8979 C   0  0  0  0  0  0  0  0  0  0  0  0
  -25.4408  -28.0801   24.9370 C   0  0  0  0  0  0  0  0  0  0  0  0
  -26.5153  -26.8980   27.9527 C   0  0  0  0  0  0  0  0  0  0  0  0
  -30.6983  -14.8222   20.7058 C   0  0  0  0  0  0  0  0  0  0  0  0
  -23.1781  -31.4485   19.0438 C   0  0  0  0  0  0  0  0  0  0  0  0
  -23.0310  -25.8760   23.2200 C   0  0  0  0  0  0  0  0  0  0  0  0
  -25.8477  -25.7319   24.1091 C   0  0  0  0  0  0  0  0  0  0  0  0
  -24.1835  -31.1898   20.1630 C   0  0  0  0  0  0  0  0  0  0  0  0
  -29.6425  -12.3768   18.3431 C   0  0  0  0  0  0  0  0  0  0  0  0
  -24.9937  -29.9305   19.8722 C   0  0  0  0  0  0  0  0  0  0  0  0
  -28.1985  -12.0774   18.7520 C   0  0  0  0  0  0  0  0  0  0  0  0
  -27.9399  -17.6084   25.8828 C   0  0  0  0  0  0  0  0  0  0  0  0
  -30.5360  -12.6247   19.5573 C   0  0  0  0  0  0  0  0  0  0  0  0
  -28.6008  -13.3463   20.9002 C   0  0  0  0  0  0  0  0  0  0  0  0
  -24.0869  -28.6961   19.7974 C   0  0  1  0  0  0  0  0  0  0  0  0
  -23.9293  -27.1089   23.2454 C   0  0  1  0  0  0  0  0  0  0  0  0
  -27.6488  -13.1538   19.7085 C   0  0  2  0  0  0  0  0  0  0  0  0
  -28.1048  -18.9399   25.1769 C   0  0  1  0  0  0  0  0  0  0  0  0
  -27.7037  -18.8781   26.6574 C   0  0  0  0  0  0  0  0  0  0  0  0
  -26.2842  -19.1977   27.0616 C   0  0  0  0  0  0  0  0  0  0  0  0
  -28.7187  -19.2549   27.7103 C   0  0  0  0  0  0  0  0  0  0  0  0
  -27.2302  -27.6716   30.2304 C   0  0  0  0  0  0  0  0  0  0  0  0
  -28.1334  -28.9485   23.7943 C   0  0  0  0  0  0  0  0  0  0  0  0
  -29.0852  -28.7939   26.1048 C   0  0  0  0  0  0  0  0  0  0  0  0
  -27.2526  -30.4149   25.6186 C   0  0  0  0  0  0  0  0  0  0  0  0
  -24.3116  -25.4271   29.2714 C   0  0  0  0  0  0  0  0  0  0  0  0
  -26.8959  -20.7696   23.9023 C   0  0  0  0  0  0  0  0  0  1  0  0
  -26.7284  -27.9434   25.7131 C   0  0  1  0  0  0  0  0  0  0  0  0
  -26.0671  -27.2010   29.3711 C   0  0  2  0  0  0  0  0  0  0  0  0
  -27.7873  -29.0027   25.2957 C   0  0  0  0  0  0  0  0  0  0  0  0
  -25.8652  -11.5533   20.2904 N   0  0  0  0  0  0  0  0  0  0  0  0
  -29.9148  -20.5190   25.1877 N   0  0  0  0  0  0  0  0  0  0  0  0
  -26.2337  -12.8387   20.1558 N   0  0  0  0  0  0  0  0  0  0  0  0
  -25.0536  -26.9699   24.1732 N   0  0  0  0  0  0  0  0  0  0  0  0
  -29.9543  -13.6591   20.4154 N   0  0  0  0  0  0  0  0  0  0  0  0
  -25.4451  -15.0619   20.3699 N   0  0  0  0  0  0  0  0  0  0  0  0
  -21.8615  -12.5693   21.5277 N   0  0  0  0  0  0  0  0  0  0  0  0
  -30.0301  -15.7496   21.5047 N   0  0  0  0  0  0  0  0  0  0  0  0
  -23.7171  -28.2593   21.1267 N   0  0  0  0  0  0  0  0  0  0  0  0
  -26.3613  -27.9894   27.1243 N   0  0  0  0  0  0  0  0  0  0  0  0
  -25.4802  -25.9841   30.0000 N   0  3  0  0  0  0  0  0  0  0  0  0
  -22.6241  -14.7127   21.2398 O   0  0  0  0  0  0  0  0  0  0  0  0
  -26.3822  -18.4177   23.6528 O   0  0  0  0  0  0  0  0  0  0  0  0
  -25.5987  -26.9651   21.5819 O   0  0  0  0  0  0  0  0  0  0  0  0
  -24.7984  -29.1306   25.0115 O   0  0  0  0  0  0  0  0  0  0  0  0
  -26.9612  -25.8038   27.6145 O   0  0  0  0  0  0  0  0  0  0  0  0
  -31.8334  -14.9959   20.2551 O   0  0  0  0  0  0  0  0  0  0  0  0
  -21.6320   -7.0053   21.6850 O   0  0  0  0  0  0  0  0  0  0  0  0
  -25.8712  -20.9829   22.9324 O   0  0  0  0  0  0  0  0  0  1  0  0
  -18.5671   -6.8659   26.2666 F   0  0  0  0  0  0  0  0  0  0  0  0
  -22.0669   -5.0838   23.6244 F   0  0  0  0  0  0  0  0  0  0  0  0
  1  2  1  0  0  0  0
  1  7  2  0  0  0  0
  2  8  2  0  0  0  0
  3  6  2  0  0  0  0
  3 10  1  0  0  0  0
  4 11  2  0  0  0  0
  4 19  1  0  0  0  0
  5 12  1  0  0  0  0
  5 19  2  0  0  0  0
  6 20  1  0  0  0  0
  7 22  1  0  0  0  0
  8 24  1  0  0  0  0
  9 13  2  0  0  0  0
  9 23  1  0  0  0  0
 10 26  2  0  0  0  0
 11 27  1  0  0  0  0
 12 27  2  0  0  0  0
 13 28  1  0  0  0  0
 14 15  2  0  0  0  0
 14 29  1  0  0  0  0
 15 30  1  0  0  0  0
 16 20  2  0  0  0  0
 16 26  1  0  0  0  0
 17 25  1  0  0  0  0
 17 28  2  0  0  0  0
 18 30  2  0  0  0  0
 18 31  1  0  0  0  0
 19 32  1  0  0  0  0
 20 34  1  0  0  0  0
 21 32  1  0  0  0  0
 21 33  2  0  0  0  0
 21 35  1  0  0  0  0
 22 24  2  0  0  0  0
 22 41  1  0  0  0  0
 23 25  2  0  0  0  0
 23 42  1  0  0  0  0
 24 51  1  0  0  0  0
 25 43  1  0  0  0  0
 26 74  1  0  0  0  0
 27 84  1  0  0  0  0
 28 85  1  0  0  0  0
 29 31  2  0  0  0  0
 29 84  1  0  0  0  0
 30 86  1  0  0  0  0
 31 87  1  0  0  0  0
 32 67  2  0  0  0  0
 33 69  1  0  0  0  0
 33 72  1  0  0  0  0
 34 54  1  0  0  0  0
 34 68  2  0  0  0  0
 35 73  1  0  0  0  0
 35 78  2  0  0  0  0
 36 54  1  0  0  0  0
 36 63  1  0  0  0  0
 36 79  2  0  0  0  0
 37 52  1  0  0  0  0
 37 75  1  0  0  0  0
 37 80  2  0  0  0  0
 38 64  1  0  0  0  0
 38 70  1  0  0  0  0
 38 81  2  0  0  0  0
 39 65  1  0  0  0  0
 39 76  1  0  0  0  0
 39 82  2  0  0  0  0
 40 71  1  0  0  0  0
 40 74  1  0  0  0  0
 40 83  2  0  0  0  0
 41 44  1  0  0  0  0
 42 52  1  0  0  0  0
 43 70  1  0  0  0  0
 44 46  1  0  0  0  0
 45 47  1  0  0  0  0
 45 49  1  0  0  0  0
 46 51  1  0  0  0  0
 47 53  1  0  0  0  0
 48 54  1  0  0  0  0
 48 55  1  0  0  0  0
 49 71  1  0  0  0  0
 50 53  1  0  0  0  0
 50 71  1  0  0  0  0
 51 75  1  0  0  0  0
 52 70  1  0  0  0  0
 53 69  1  0  0  0  0
 54 55  1  0  0  0  0
 55 56  1  0  0  0  0
 55 57  1  0  0  0  0
 58 65  1  0  0  0  0
 59 66  1  0  0  0  0
 60 66  1  0  0  0  0
 61 66  1  0  0  0  0
 62 77  1  0  0  0  0
 63 85  1  0  0  0  0
 64 66  1  0  0  0  0
 64 76  1  0  0  0  0
 65 77  1  0  0  0  0
 67 69  1  0  0  0  0
M  CHG  1  77   1
M  ISO  4  40 100  63 101  74 100  85 101
M  END
> <Batch ID>
0138

> <Smiles>
CNC(C)C(=O)NC(C(=O)N1Cc2cc([101O:1][101CH2:1]C(=O)C3(C(=N)c4cccc([100NH:0][100C:0](=O)N5CCCC(n6nc(-c7ccc(Oc8ccc(F)cc8F)cc7)c(C(N)=O)c6N)C5)c4)CC3(C)C)ccc2CC1C(=O)NC1CCCc2ccccc21)C(C)(C)C

> <Shape>
0.216

> <Color>
0.184

> <Negative vol penalty>
0.000

$$$$

  -OEChem-04052302453D

 87 96  0     1  0  0  0  0  0999 V2000
  -18.6854  -29.5796   26.7438 C   0  0  0  0  0  0  0  0  0  0  0  0
  -19.5955  -28.5835   26.4050 C   0  0  0  0  0  0  0  0  0  0  0  0
  -23.3016   -9.5885   20.1695 C   0  0  0  0  0  0  0  0  0  0  0  0
  -23.8075  -10.0461   22.4872 C   0  0  0  0  0  0  0  0  0  0  0  0
  -18.2387  -30.4740   25.7720 C   0  0  0  0  0  0  0  0  0  0  0  0
  -20.0587  -28.4806   25.0937 C   0  0  0  0  0  0  0  0  0  0  0  0
  -25.6515  -26.7570   23.2895 C   0  0  0  0  0  0  0  0  0  0  0  0
  -22.6073   -8.4394   20.5479 C   0  0  0  0  0  0  0  0  0  0  0  0
  -23.1132   -8.8971   22.8656 C   0  0  0  0  0  0  0  0  0  0  0  0
  -26.1563  -25.5403   22.8327 C   0  0  0  0  0  0  0  0  0  0  0  0
  -19.8939   -7.9600   23.2888 C   0  0  0  0  0  0  0  0  0  0  0  0
  -19.0189   -8.0601   24.3703 C   0  0  0  0  0  0  0  0  0  0  0  0
  -28.9408  -18.3891   21.7410 C   0  0  0  0  0  0  0  0  0  0  0  0
  -25.8459  -26.2732   20.5555 C   0  0  0  0  0  0  0  0  0  0  0  0
  -29.9733  -20.2721   20.6342 C   0  0  0  0  0  0  0  0  0  0  0  0
  -30.7623  -18.0313   20.1947 C   0  0  0  0  0  0  0  0  0  0  0  0
  -20.2901   -6.3810   25.5543 C   0  0  0  0  0  0  0  0  0  0  0  0
  -23.9017  -10.3918   21.1391 C   0  0  0  0  0  0  0  0  0  0  0  0
  -24.0988  -12.8787   20.6060 C   0  0  0  0  0  0  0  0  0  0  0  0
  -18.7040  -30.3880   24.4503 C   0  0  0  0  0  0  0  0  0  0  0  0
  -25.2293  -27.7383   22.3812 C   0  0  0  0  0  0  0  0  0  0  0  0
  -19.6168  -29.3738   24.1030 C   0  0  0  0  0  0  0  0  0  0  0  0
  -29.0220  -19.7637   21.5186 C   0  0  0  0  0  0  0  0  0  0  0  0
  -25.3385  -27.5025   21.0033 C   0  0  0  0  0  0  0  0  0  0  0  0
  -29.8110  -17.5229   21.0791 C   0  0  0  0  0  0  0  0  0  0  0  0
  -22.5131   -8.0937   21.8960 C   0  0  0  0  0  0  0  0  0  0  0  0
  -26.2509  -25.2971   21.4656 C   0  0  0  0  0  0  0  0  0  0  0  0
  -20.9671   -7.0703   23.3399 C   0  0  0  0  0  0  0  0  0  0  0  0
  -19.2169   -7.2707   25.5031 C   0  0  0  0  0  0  0  0  0  0  0  0
  -30.8435  -19.4059   19.9722 C   0  0  0  0  0  0  0  0  0  0  0  0
  -21.1652   -6.2809   24.4727 C   0  0  0  0  0  0  0  0  0  0  0  0
  -24.6196  -11.5786   20.7488 C   0  0  0  0  0  0  0  0  0  0  0  0
  -25.1757  -13.6396   20.2215 C   0  0  0  0  0  0  0  0  0  0  0  0
  -22.7613  -13.3559   20.8032 C   0  0  0  0  0  0  0  0  0  0  0  0
  -22.4635  -29.1747   21.7558 C   0  0  0  0  0  0  0  0  0  0  0  0
  -24.2903  -30.9645   19.7604 C   0  0  0  0  0  0  0  0  0  0  0  0
  -27.1321  -31.2286   17.8892 C   0  0  0  0  0  0  0  0  0  0  0  0
  -30.5165  -15.1299   20.7296 C   0  0  0  0  0  0  0  0  0  0  0  0
  -18.1563  -31.3479   23.4240 C   0  0  0  0  0  0  0  0  0  0  0  0
  -24.7120  -29.0560   22.8898 C   0  0  0  0  0  0  0  0  0  0  0  0
  -24.9177  -28.5312   19.9869 C   0  0  0  0  0  0  0  0  0  0  0  0
  -18.9818  -31.4043   22.1412 C   0  0  0  0  0  0  0  0  0  0  0  0
  -25.8329  -20.2468   21.3193 C   0  0  0  0  0  0  0  0  0  0  0  0
  -29.8147  -12.2674   18.7320 C   0  0  0  0  0  0  0  0  0  0  0  0
  -19.3174  -29.9963   21.6599 C   0  0  0  0  0  0  0  0  0  0  0  0
  -26.5353  -21.2772   20.4373 C   0  0  0  0  0  0  0  0  0  0  0  0
  -28.3577  -11.9399   19.0668 C   0  0  0  0  0  0  0  0  0  0  0  0
  -26.6683  -20.1320   22.5940 C   0  0  0  0  0  0  0  0  0  0  0  0
  -30.5789  -12.7693   19.9558 C   0  0  0  0  0  0  0  0  0  0  0  0
  -28.4931  -13.5648   20.9978 C   0  0  0  0  0  0  0  0  0  0  0  0
  -20.1613  -29.2453   22.6969 C   0  0  1  0  0  0  0  0  0  0  0  0
  -23.8319  -29.7831   21.8779 C   0  0  1  0  0  0  0  0  0  0  0  0
  -27.6489  -21.8941   21.2995 C   0  0  2  0  0  0  0  0  0  0  0  0
  -27.6656  -13.1169   19.7819 C   0  0  2  0  0  0  0  0  0  0  0  0
  -28.0586  -20.7230   22.2505 C   0  0  2  0  0  0  0  0  0  0  0  0
  -28.3308  -32.7952   16.3381 C   0  0  0  0  0  0  0  0  0  0  0  0
  -29.0141  -19.9798   24.4593 C   0  0  0  0  0  0  0  0  0  0  0  0
  -30.0330  -21.9280   23.2469 C   0  0  0  0  0  0  0  0  0  0  0  0
  -22.3329  -30.2513   17.5312 C   0  0  0  0  0  0  0  0  0  0  0  0
  -24.0476  -31.0171   15.8755 C   0  0  0  0  0  0  0  0  0  0  0  0
  -23.0999  -32.6316   17.5240 C   0  0  0  0  0  0  0  0  0  0  0  0
  -29.4776  -31.3981   19.6861 C   0  0  0  0  0  0  0  0  0  0  0  0
  -27.1431  -23.1590   22.0027 C   0  0  0  0  0  0  0  0  0  1  0  0
  -24.7168  -30.8568   18.3163 C   0  0  1  0  0  0  0  0  0  0  0  0
  -28.1658  -32.3347   17.7780 C   0  0  2  0  0  0  0  0  0  0  0  0
  -28.7412  -21.1780   23.5556 C   0  0  0  0  0  0  0  0  0  0  0  0
  -23.5555  -31.1688   17.3306 C   0  0  0  0  0  0  0  0  0  0  0  0
  -25.9257  -11.5136   20.4771 N   0  0  0  0  0  0  0  0  0  0  0  0
  -26.2347  -12.7823   20.1595 N   0  0  0  0  0  0  0  0  0  0  0  0
  -24.4126  -29.8014   20.5338 N   0  0  0  0  0  0  0  0  0  0  0  0
  -29.8662  -13.8868   20.5787 N   0  0  0  0  0  0  0  0  0  0  0  0
  -25.3106  -14.9516   19.9337 N   0  0  0  0  0  0  0  0  0  0  0  0
  -21.7766  -12.4401   21.1982 N   0  0  0  0  0  0  0  0  0  0  0  0
  -29.7290  -16.1265   21.3051 N   0  0  0  0  0  0  0  0  0  0  0  0
  -21.5381  -29.6880   22.6444 N   0  0  0  0  0  0  0  0  0  0  0  0
  -25.8774  -31.7281   18.1673 N   0  0  0  0  0  0  0  0  0  0  0  0
  -29.4883  -31.8595   18.2740 N   0  3  0  0  0  0  0  0  0  0  0  0
  -22.4451  -14.5556   20.6183 O   0  0  0  0  0  0  0  0  0  0  0  0
  -22.2617  -28.3049   20.9164 O   0  0  0  0  0  0  0  0  0  0  0  0
  -23.8712  -32.0428   20.1884 O   0  0  0  0  0  0  0  0  0  0  0  0
  -27.4092  -30.0405   17.7402 O   0  0  0  0  0  0  0  0  0  0  0  0
  -31.6770  -15.3055   20.3496 O   0  0  0  0  0  0  0  0  0  0  0  0
  -21.8354   -6.9727   22.2656 O   0  0  0  0  0  0  0  0  0  0  0  0
  -26.7426  -24.1101   21.0171 O   0  0  0  0  0  0  0  0  0  1  0  0
  -18.3774   -7.3681   26.5423 F   0  0  0  0  0  0  0  0  0  0  0  0
  -31.7569  -19.8942   19.1229 F   0  0  0  0  0  0  0  0  0  0  0  0
  -22.1950   -5.4253   24.5281 F   0  0  0  0  0  0  0  0  0  0  0  0
  1  2  1  0  0  0  0
  1  5  2  0  0  0  0
  2  6  2  0  0  0  0
  3  8  2  0  0  0  0
  3 18  1  0  0  0  0
  4  9  1  0  0  0  0
  4 18  2  0  0  0  0
  5 20  1  0  0  0  0
  6 22  1  0  0  0  0
  7 10  2  0  0  0  0
  7 21  1  0  0  0  0
  8 26  1  0  0  0  0
  9 26  2  0  0  0  0
 10 27  1  0  0  0  0
 11 12  2  0  0  0  0
 11 28  1  0  0  0  0
 12 29  1  0  0  0  0
 13 23  2  0  0  0  0
 13 25  1  0  0  0  0
 14 24  1  0  0  0  0
 14 27  2  0  0  0  0
 15 23  1  0  0  0  0
 15 30  2  0  0  0  0
 16 25  2  0  0  0  0
 16 30  1  0  0  0  0
 17 29  2  0  0  0  0
 17 31  1  0  0  0  0
 18 32  1  0  0  0  0
 19 32  1  0  0  0  0
 19 33  2  0  0  0  0
 19 34  1  0  0  0  0
 20 22  2  0  0  0  0
 20 39  1  0  0  0  0
 21 24  2  0  0  0  0
 21 40  1  0  0  0  0
 22 51  1  0  0  0  0
 23 55  1  0  0  0  0
 24 41  1  0  0  0  0
 25 74  1  0  0  0  0
 26 83  1  0  0  0  0
 27 84  1  0  0  0  0
 28 31  2  0  0  0  0
 28 83  1  0  0  0  0
 29 85  1  0  0  0  0
 30 86  1  0  0  0  0
 31 87  1  0  0  0  0
 32 68  2  0  0  0  0
 33 69  1  0  0  0  0
 33 72  1  0  0  0  0
 34 73  1  0  0  0  0
 34 78  2  0  0  0  0
 35 52  1  0  0  0  0
 35 75  1  0  0  0  0
 35 79  2  0  0  0  0
 36 64  1  0  0  0  0
 36 70  1  0  0  0  0
 36 80  2  0  0  0  0
 37 65  1  0  0  0  0
 37 76  1  0  0  0  0
 37 81  2  0  0  0  0
 38 71  1  0  0  0  0
 38 74  1  0  0  0  0
 38 82  2  0  0  0  0
 39 42  1  0  0  0  0
 40 52  1  0  0  0  0
 41 70  1  0  0  0  0
 42 45  1  0  0  0  0
 43 46  1  0  0  0  0
 43 48  1  0  0  0  0
 44 47  1  0  0  0  0
 44 49  1  0  0  0  0
 45 51  1  0  0  0  0
 46 53  1  0  0  0  0
 47 54  1  0  0  0  0
 48 55  1  0  0  0  0
 49 71  1  0  0  0  0
 50 54  1  0  0  0  0
 50 71  1  0  0  0  0
 51 75  1  0  0  0  0
 52 70  1  0  0  0  0
 53 55  1  0  0  0  0
 53 63  1  0  0  0  0
 54 69  1  0  0  0  0
 55 66  1  0  0  0  0
 56 65  1  0  0  0  0
 57 66  1  0  0  0  0
 58 66  1  0  0  0  0
 59 67  1  0  0  0  0
 60 67  1  0  0  0  0
 61 67  1  0  0  0  0
 62 77  1  0  0  0  0
 63 84  1  0  0  0  0
 64 67  1  0  0  0  0
 64 76  1  0  0  0  0
 65 77  1  0  0  0  0
 68 69  1  0  0  0  0
M  CHG  1  77   1
M  ISO  4  38 100  63 101  74 100  84 101
M  END
> <Batch ID>
0138

> <Smiles>
CNC(C)C(=O)NC(C(=O)N1Cc2cc([101O:1][101CH2:1]C3CCCC3(c3cc(F)cc([100NH:0][100C:0](=O)N4CCCC(n5nc(-c6ccc(Oc7ccc(F)cc7F)cc6)c(C(N)=O)c5N)C4)c3)C(C)C)ccc2CC1C(=O)NC1CCCc2ccccc21)C(C)(C)C

> <Shape>
0.278

> <Color>
0.185

> <Negative vol penalty>
0.000

$$$$

  -OEChem-04052302453D

 83 91  0     1  0  0  0  0  0999 V2000
  -20.8756  -26.7773   26.0155 C   0  0  0  0  0  0  0  0  0  0  0  0
  -21.8863  -26.3814   25.1454 C   0  0  0  0  0  0  0  0  0  0  0  0
  -24.6249  -14.0950   21.6882 C   0  0  0  0  0  0  0  0  0  0  0  0
  -26.4678  -13.9904   20.1294 C   0  0  0  0  0  0  0  0  0  0  0  0
  -19.7289  -27.3934   25.5160 C   0  0  0  0  0  0  0  0  0  0  0  0
  -21.7504  -26.6004   23.7750 C   0  0  0  0  0  0  0  0  0  0  0  0
  -25.9693  -28.4556   21.6763 C   0  0  0  0  0  0  0  0  0  0  0  0
  -24.0782  -12.9449   21.1191 C   0  0  0  0  0  0  0  0  0  0  0  0
  -25.9211  -12.8402   19.5602 C   0  0  0  0  0  0  0  0  0  0  0  0
  -27.0032  -27.5554   21.4226 C   0  0  0  0  0  0  0  0  0  0  0  0
  -24.5968   -9.6067   21.2618 C   0  0  0  0  0  0  0  0  0  0  0  0
  -24.1277   -8.6164   22.1249 C   0  0  0  0  0  0  0  0  0  0  0  0
  -30.8037  -22.1754   16.4226 C   0  0  0  0  0  0  0  0  0  0  0  0
  -30.1555  -21.1460   17.1461 C   0  0  0  0  0  0  0  0  0  0  0  0
  -26.3379  -27.4534   19.1061 C   0  0  0  0  0  0  0  0  0  0  0  0
  -21.9165   -8.8378   21.1770 C   0  0  0  0  0  0  0  0  0  0  0  0
  -25.8197  -14.6178   21.1933 C   0  0  0  0  0  0  0  0  0  0  0  0
  -27.2952  -15.8746   22.8520 C   0  0  0  0  0  0  0  0  0  0  0  0
  -19.5832  -27.6288   24.1398 C   0  0  0  0  0  0  0  0  0  0  0  0
  -25.1037  -28.8538   20.6474 C   0  0  0  0  0  0  0  0  0  0  0  0
  -20.6001  -27.2190   23.2564 C   0  0  0  0  0  0  0  0  0  0  0  0
  -25.2954  -28.3608   19.3488 C   0  0  0  0  0  0  0  0  0  0  0  0
  -24.7263  -12.3175   20.0551 C   0  0  0  0  0  0  0  0  0  0  0  0
  -27.1859  -27.0519   20.1380 C   0  0  0  0  0  0  0  0  0  0  0  0
  -23.7257  -10.2126   20.3564 C   0  0  0  0  0  0  0  0  0  0  0  0
  -22.7875   -8.2320   22.0825 C   0  0  0  0  0  0  0  0  0  0  0  0
  -22.3856   -9.8282   20.3140 C   0  0  0  0  0  0  0  0  0  0  0  0
  -26.3847  -15.8061   21.7805 C   0  0  0  0  0  0  0  0  0  0  0  0
  -30.1267  -23.3354   16.7192 C   0  0  0  0  0  0  0  0  0  0  0  0
  -27.5199  -17.2183   23.0262 C   0  0  0  0  0  0  0  0  0  0  0  0
  -29.1288  -21.7505   17.8335 C   0  0  0  0  0  0  0  0  0  0  0  0
  -27.8851  -14.8180   23.6210 C   0  0  0  0  0  0  0  0  0  0  0  0
  -21.9808  -28.5916   20.1159 C   0  0  0  0  0  0  0  0  0  0  0  0
  -30.2238  -25.7816   18.6288 C   0  0  0  0  0  0  0  0  0  0  0  0
  -22.6539  -30.4681   17.5570 C   0  0  0  0  0  0  0  0  0  0  0  0
  -24.9655  -31.5725   15.3023 C   0  0  0  0  0  0  0  0  0  0  0  0
  -27.1398  -21.9287   19.3692 C   0  0  0  0  0  0  0  0  0  0  0  0
  -18.3049  -28.2554   23.6419 C   0  0  0  0  0  0  0  0  0  0  0  0
  -24.0098  -29.8461   20.9317 C   0  0  0  0  0  0  0  0  0  0  0  0
  -24.4061  -28.7724   18.2050 C   0  0  0  0  0  0  0  0  0  0  0  0
  -18.4037  -28.7895   22.2152 C   0  0  0  0  0  0  0  0  0  0  0  0
  -25.4046  -21.4753   22.4450 C   0  0  0  0  0  0  0  0  0  0  0  0
  -19.0690  -27.7617   21.3053 C   0  0  0  0  0  0  0  0  0  0  0  0
  -25.5471  -19.9773   22.7243 C   0  0  0  0  0  0  0  0  0  0  0  0
  -25.2332  -21.7605   20.9541 C   0  0  0  0  0  0  0  0  0  0  0  0
  -26.4049  -19.6745   20.3664 C   0  0  0  0  0  0  0  0  0  0  0  0
  -20.5005  -27.4617   21.7660 C   0  0  1  0  0  0  0  0  0  0  0  0
  -22.8706  -29.7862   19.9187 C   0  0  1  0  0  0  0  0  0  0  0  0
  -26.6450  -19.3427   21.8483 C   0  0  2  0  0  0  0  0  0  0  0  0
  -25.2097  -33.0737   13.3063 C   0  0  0  0  0  0  0  0  0  0  0  0
  -32.4507  -25.2459   17.5821 C   0  0  0  0  0  0  0  0  0  0  0  0
  -31.1011  -27.1225   16.6816 C   0  0  0  0  0  0  0  0  0  0  0  0
  -21.2736  -28.3756   15.8175 C   0  0  0  0  0  0  0  0  0  0  0  0
  -22.3608  -29.4209   13.8191 C   0  0  0  0  0  0  0  0  0  0  0  0
  -20.7624  -30.7452   15.2026 C   0  0  0  0  0  0  0  0  0  0  0  0
  -26.9458  -33.2827   16.6854 C   0  0  0  0  0  0  0  0  0  0  0  0
  -30.3000  -24.7739   16.2867 C   0  0  0  0  0  0  0  0  0  0  0  0
  -28.7593  -26.1884   18.5777 C   0  0  0  0  0  0  0  0  0  1  0  0
  -23.0568  -30.2174   16.1239 C   0  0  1  0  0  0  0  0  0  0  0  0
  -25.3149  -32.9688   14.8198 C   0  0  2  0  0  0  0  0  0  0  0  0
  -31.0090  -25.7133   17.2990 C   0  0  0  0  0  0  0  0  0  0  0  0
  -21.8791  -29.6803   15.2625 C   0  0  0  0  0  0  0  0  0  0  0  0
  -26.0536  -17.0105   21.3074 N   0  0  0  0  0  0  0  0  0  0  0  0
  -26.7598  -17.8485   22.0854 N   0  0  0  0  0  0  0  0  0  0  0  0
  -23.3467  -29.7401   18.5348 N   0  0  0  0  0  0  0  0  0  0  0  0
  -26.3115  -21.1320   20.1877 N   0  0  0  0  0  0  0  0  0  0  0  0
  -28.2916  -17.9105   23.8910 N   0  0  0  0  0  0  0  0  0  0  0  0
  -27.5452  -13.4946   23.3091 N   0  0  0  0  0  0  0  0  0  0  0  0
  -28.1508  -21.2260   18.7144 N   0  0  0  0  0  0  0  0  0  0  0  0
  -21.3941  -28.5272   21.3654 N   0  0  0  0  0  0  0  0  0  0  0  0
  -23.6321  -31.4666   15.6371 N   0  0  0  0  0  0  0  0  0  0  0  0
  -26.7064  -33.3220   15.2198 N   0  3  0  0  0  0  0  0  0  0  0  0
  -28.6771  -15.0416   24.5676 O   0  0  0  0  0  0  0  0  0  0  0  0
  -21.8360  -27.7886   19.2017 O   0  0  0  0  0  0  0  0  0  0  0  0
  -30.7530  -25.4882   19.7037 O   0  0  0  0  0  0  0  0  0  0  0  0
  -21.7625  -31.2852   17.8005 O   0  0  0  0  0  0  0  0  0  0  0  0
  -25.7919  -30.6654   15.3715 O   0  0  0  0  0  0  0  0  0  0  0  0
  -26.9822  -23.1489   19.2787 O   0  0  0  0  0  0  0  0  0  0  0  0
  -29.1045  -23.0851   17.5788 O   0  0  0  0  0  0  0  0  0  0  0  0
  -24.1932  -11.1950   19.4996 O   0  0  0  0  0  0  0  0  0  0  0  0
  -28.1939  -26.1726   19.8878 O   0  0  0  0  0  0  0  0  0  1  0  0
  -22.3375   -7.2799   22.9103 F   0  0  0  0  0  0  0  0  0  0  0  0
  -21.5443  -10.4058   19.4454 F   0  0  0  0  0  0  0  0  0  0  0  0
  1  2  1  0  0  0  0
  1  5  2  0  0  0  0
  2  6  2  0  0  0  0
  3  8  2  0  0  0  0
  3 17  1  0  0  0  0
  4  9  1  0  0  0  0
  4 17  2  0  0  0  0
  5 19  1  0  0  0  0
  6 21  1  0  0  0  0
  7 10  2  0  0  0  0
  7 20  1  0  0  0  0
  8 23  1  0  0  0  0
  9 23  2  0  0  0  0
 10 24  1  0  0  0  0
 11 12  2  0  0  0  0
 11 25  1  0  0  0  0
 12 26  1  0  0  0  0
 13 14  1  0  0  0  0
 13 29  2  0  0  0  0
 14 31  2  0  0  0  0
 15 22  1  0  0  0  0
 15 24  2  0  0  0  0
 16 26  2  0  0  0  0
 16 27  1  0  0  0  0
 17 28  1  0  0  0  0
 18 28  1  0  0  0  0
 18 30  2  0  0  0  0
 18 32  1  0  0  0  0
 19 21  2  0  0  0  0
 19 38  1  0  0  0  0
 20 22  2  0  0  0  0
 20 39  1  0  0  0  0
 21 47  1  0  0  0  0
 22 40  1  0  0  0  0
 23 80  1  0  0  0  0
 24 81  1  0  0  0  0
 25 27  2  0  0  0  0
 25 80  1  0  0  0  0
 26 82  1  0  0  0  0
 27 83  1  0  0  0  0
 28 63  2  0  0  0  0
 29 57  1  0  0  0  0
 29 79  1  0  0  0  0
 30 64  1  0  0  0  0
 30 67  1  0  0  0  0
 31 69  1  0  0  0  0
 31 79  1  0  0  0  0
 32 68  1  0  0  0  0
 32 73  2  0  0  0  0
 33 48  1  0  0  0  0
 33 70  1  0  0  0  0
 33 74  2  0  0  0  0
 34 58  1  0  0  0  0
 34 61  1  0  0  0  0
 34 75  2  0  0  0  0
 35 59  1  0  0  0  0
 35 65  1  0  0  0  0
 35 76  2  0  0  0  0
 36 60  1  0  0  0  0
 36 71  1  0  0  0  0
 36 77  2  0  0  0  0
 37 66  1  0  0  0  0
 37 69  1  0  0  0  0
 37 78  2  0  0  0  0
 38 41  1  0  0  0  0
 39 48  1  0  0  0  0
 40 65  1  0  0  0  0
 41 43  1  0  0  0  0
 42 44  1  0  0  0  0
 42 45  1  0  0  0  0
 43 47  1  0  0  0  0
 44 49  1  0  0  0  0
 45 66  1  0  0  0  0
 46 49  1  0  0  0  0
 46 66  1  0  0  0  0
 47 70  1  0  0  0  0
 48 65  1  0  0  0  0
 49 64  1  0  0  0  0
 50 60  1  0  0  0  0
 51 61  1  0  0  0  0
 52 61  1  0  0  0  0
 53 62  1  0  0  0  0
 54 62  1  0  0  0  0
 55 62  1  0  0  0  0
 56 72  1  0  0  0  0
 57 61  1  0  0  0  0
 58 81  1  0  0  0  0
 59 62  1  0  0  0  0
 59 71  1  0  0  0  0
 60 72  1  0  0  0  0
 63 64  1  0  0  0  0
M  CHG  1  72   1
M  ISO  4  37 100  58 101  69 100  81 101
M  END
> <Batch ID>
0138

> <Smiles>
CNC(C)C(=O)NC(C(=O)N1Cc2cc([101O:1][101CH2:1]C(=O)C(C)(C)Cc3ccc([100NH:0][100C:0](=O)N4CCCC(n5nc(-c6ccc(Oc7ccc(F)cc7F)cc6)c(C(N)=O)c5N)C4)o3)ccc2CC1C(=O)NC1CCCc2ccccc21)C(C)(C)C

> <Shape>
0.219

> <Color>
0.103

> <Negative vol penalty>
0.000

$$$$

  -OEChem-04052302453D

 87 95  0     1  0  0  0  0  0999 V2000
  -27.1940  -37.9841   22.4464 C   0  0  0  0  0  0  0  0  0  0  0  0
  -27.7918  -36.8085   22.0035 C   0  0  0  0  0  0  0  0  0  0  0  0
  -23.3465   -9.9308   22.0943 C   0  0  0  0  0  0  0  0  0  0  0  0
  -23.5720   -9.2587   19.7846 C   0  0  0  0  0  0  0  0  0  0  0  0
  -26.1523  -37.9294   23.3714 C   0  0  0  0  0  0  0  0  0  0  0  0
  -27.3489  -35.5776   22.4862 C   0  0  0  0  0  0  0  0  0  0  0  0
  -27.0827  -30.2934   19.4020 C   0  0  0  0  0  0  0  0  0  0  0  0
  -22.5186   -8.8339   22.3327 C   0  0  0  0  0  0  0  0  0  0  0  0
  -22.7440   -8.1617   20.0230 C   0  0  0  0  0  0  0  0  0  0  0  0
  -27.9343  -29.1905   19.3555 C   0  0  0  0  0  0  0  0  0  0  0  0
  -22.8740   -5.5137   22.8649 C   0  0  0  0  0  0  0  0  0  0  0  0
  -23.1072   -4.7640   24.0177 C   0  0  0  0  0  0  0  0  0  0  0  0
  -26.5454  -22.4941   20.2135 C   0  0  0  0  0  0  0  0  0  0  0  0
  -26.5782  -28.0811   21.0137 C   0  0  0  0  0  0  0  0  0  0  0  0
  -25.5573  -23.0726   17.6695 C   0  0  0  0  0  0  0  0  0  0  0  0
  -20.8719   -5.2574   24.7906 C   0  0  0  0  0  0  0  0  0  0  0  0
  -23.8732  -10.1432   20.8202 C   0  0  0  0  0  0  0  0  0  0  0  0
  -26.1479  -21.4587   19.3676 C   0  0  0  0  0  0  0  0  0  0  0  0
  -26.1297  -11.3266   20.6952 C   0  0  0  0  0  0  0  0  0  0  0  0
  -25.6899  -36.6966   23.8585 C   0  0  0  0  0  0  0  0  0  0  0  0
  -25.9767  -30.3029   20.2641 C   0  0  0  0  0  0  0  0  0  0  0  0
  -26.3009  -35.5064   23.4197 C   0  0  0  0  0  0  0  0  0  0  0  0
  -25.7126  -29.1843   21.0673 C   0  0  0  0  0  0  0  0  0  0  0  0
  -25.6539  -21.7479   18.0956 C   0  0  0  0  0  0  0  0  0  0  0  0
  -22.2173   -7.9493   21.2971 C   0  0  0  0  0  0  0  0  0  0  0  0
  -27.6838  -28.0853   20.1635 C   0  0  0  0  0  0  0  0  0  0  0  0
  -21.6398   -6.1354   22.6749 C   0  0  0  0  0  0  0  0  0  0  0  0
  -26.4487  -23.8189   19.7874 C   0  0  0  0  0  0  0  0  0  0  0  0
  -25.9548  -24.1081   18.5154 C   0  0  0  0  0  0  0  0  0  0  0  0
  -22.1061   -4.6358   24.9806 C   0  0  0  0  0  0  0  0  0  0  0  0
  -20.6388   -6.0072   23.6377 C   0  0  0  0  0  0  0  0  0  0  0  0
  -24.7281  -11.2765   20.5732 C   0  0  0  0  0  0  0  0  0  0  0  0
  -26.4584  -12.6151   20.3515 C   0  0  0  0  0  0  0  0  0  0  0  0
  -26.2608  -20.0855   19.8415 C   0  0  0  0  0  0  0  0  0  0  0  0
  -25.2945  -19.3999   20.4855 C   0  0  0  0  0  0  0  0  0  0  0  0
  -27.0520  -10.3002   21.0844 C   0  0  0  0  0  0  0  0  0  0  0  0
  -25.5589  -18.0060   20.8951 C   0  0  0  0  0  0  0  0  0  0  0  0
  -25.0709  -32.0909   22.7311 C   0  0  0  0  0  0  0  0  0  0  0  0
  -22.3616  -30.3197   22.5198 C   0  0  0  0  0  0  0  0  0  0  0  0
  -20.8654  -27.4225   21.5124 C   0  0  0  0  0  0  0  0  0  0  0  0
  -24.5927  -36.6903   24.8932 C   0  0  0  0  0  0  0  0  0  0  0  0
  -25.0525  -31.4894   20.2829 C   0  0  0  0  0  0  0  0  0  0  0  0
  -24.5272  -29.1364   21.9952 C   0  0  0  0  0  0  0  0  0  0  0  0
  -23.9321  -35.3258   25.0721 C   0  0  0  0  0  0  0  0  0  0  0  0
  -23.7066  -16.2791   18.2459 C   0  0  0  0  0  0  0  0  0  0  0  0
  -24.9888  -34.2310   25.1796 C   0  0  0  0  0  0  0  0  0  0  0  0
  -23.8886  -14.8219   18.6621 C   0  0  0  0  0  0  0  0  0  0  0  0
  -23.6085  -17.2106   19.4530 C   0  0  0  0  0  0  0  0  0  0  0  0
  -24.9353  -15.6231   20.8169 C   0  0  0  0  0  0  0  0  0  0  0  0
  -25.8319  -34.1506   23.9013 C   0  0  1  0  0  0  0  0  0  0  0  0
  -24.2477  -31.5995   21.5742 C   0  0  1  0  0  0  0  0  0  0  0  0
  -25.0834  -14.6740   19.6175 C   0  0  1  0  0  0  0  0  0  0  0  0
  -23.7005  -20.5354   17.0953 C   0  0  0  0  0  0  0  0  0  0  0  0
  -24.6519  -27.3143   17.3067 C   0  0  0  0  0  0  0  0  0  0  0  0
  -18.6479  -26.2477   21.5112 C   0  0  0  0  0  0  0  0  0  0  0  0
  -30.1053  -26.3022   21.7481 C   0  0  0  0  0  0  0  0  0  0  0  0
  -22.7153  -29.6542   25.4765 C   0  0  0  0  0  0  0  0  0  0  0  0
  -21.0822  -27.7800   25.1783 C   0  0  0  0  0  0  0  0  0  0  0  0
  -20.3591  -30.1357   24.7902 C   0  0  0  0  0  0  0  0  0  0  0  0
  -20.7804  -27.3392   18.5553 C   0  0  0  0  0  0  0  0  0  0  0  0
  -25.2187  -20.6639   17.1626 C   0  0  0  0  0  0  0  0  0  0  0  0
  -24.5548  -25.8666   17.7386 C   0  0  0  0  0  0  0  0  0  0  0  0
  -28.2002  -24.8119   21.0531 C   0  0  0  0  0  0  0  0  0  0  0  0
  -21.8872  -29.0163   23.1157 C   0  0  1  0  0  0  0  0  0  0  0  0
  -19.5835  -27.1663   20.7408 C   0  0  2  0  0  0  0  0  0  0  0  0
  -28.6487  -26.2438   21.3183 C   0  0  2  0  0  0  0  0  0  1  0  0
  -21.5345  -29.1479   24.6242 C   0  0  0  0  0  0  0  0  0  0  0  0
  -24.2025  -12.4406   20.1826 N   0  0  0  0  0  0  0  0  0  0  0  0
  -25.2796  -13.2344   20.0563 N   0  0  0  0  0  0  0  0  0  0  0  0
  -24.7315  -17.0092   20.3810 N   0  0  0  0  0  0  0  0  0  0  0  0
  -23.6565  -30.3235   21.9823 N   0  0  0  0  0  0  0  0  0  0  0  0
  -27.6378  -13.2675   20.2760 N   0  0  0  0  0  0  0  0  0  0  0  0
  -26.5456   -9.0332   21.4044 N   0  0  0  0  0  0  0  0  0  0  0  0
  -25.1010  -33.4667   22.8560 N   0  0  0  0  0  0  0  0  0  0  0  0
  -20.7797  -28.5646   22.2803 N   0  0  0  0  0  0  0  0  0  0  0  0
  -19.8877  -26.5325   19.4268 N   0  3  0  0  0  0  0  0  0  0  0  0
  -28.2871  -10.5054   21.1623 O   0  0  0  0  0  0  0  0  0  0  0  0
  -26.4947  -17.8095   21.6726 O   0  0  0  0  0  0  0  0  0  0  0  0
  -25.6357  -31.2816   23.4576 O   0  0  0  0  0  0  0  0  0  0  0  0
  -21.6082  -31.2964   22.5245 O   0  0  0  0  0  0  0  0  0  0  0  0
  -21.8435  -26.6815   21.4440 O   0  0  0  0  0  0  0  0  0  0  0  0
  -21.4096   -6.8787   21.5294 O   0  0  0  0  0  0  0  0  0  0  0  0
  -26.8421  -24.8270   20.6269 O   0  0  0  0  0  0  0  0  0  0  0  0
  -25.8557  -25.3977   18.0879 O   0  0  0  0  0  0  0  0  0  0  0  0
  -28.5138  -27.0078   20.1206 O   0  0  0  0  0  0  0  0  0  1  0  0
  -22.3296   -3.9145   26.0869 F   0  0  0  0  0  0  0  0  0  0  0  0
  -19.4507   -6.6011   23.4602 F   0  0  0  0  0  0  0  0  0  0  0  0
  1  2  1  0  0  0  0
  1  5  2  0  0  0  0
  2  6  2  0  0  0  0
  3  8  2  0  0  0  0
  3 17  1  0  0  0  0
  4  9  1  0  0  0  0
  4 17  2  0  0  0  0
  5 20  1  0  0  0  0
  6 22  1  0  0  0  0
  7 10  2  0  0  0  0
  7 21  1  0  0  0  0
  8 25  1  0  0  0  0
  9 25  2  0  0  0  0
 10 26  1  0  0  0  0
 11 12  2  0  0  0  0
 11 27  1  0  0  0  0
 12 30  1  0  0  0  0
 13 18  2  0  0  0  0
 13 28  1  0  0  0  0
 14 23  1  0  0  0  0
 14 26  2  0  0  0  0
 15 24  2  0  0  0  0
 15 29  1  0  0  0  0
 16 30  2  0  0  0  0
 16 31  1  0  0  0  0
 17 32  1  0  0  0  0
 18 24  1  0  0  0  0
 18 34  1  0  0  0  0
 19 32  1  0  0  0  0
 19 33  2  0  0  0  0
 19 36  1  0  0  0  0
 20 22  2  0  0  0  0
 20 41  1  0  0  0  0
 21 23  2  0  0  0  0
 21 42  1  0  0  0  0
 22 50  1  0  0  0  0
 23 43  1  0  0  0  0
 24 61  1  0  0  0  0
 25 82  1  0  0  0  0
 26 85  1  0  0  0  0
 27 31  2  0  0  0  0
 27 82  1  0  0  0  0
 28 29  2  0  0  0  0
 28 83  1  0  0  0  0
 29 84  1  0  0  0  0
 30 86  1  0  0  0  0
 31 87  1  0  0  0  0
 32 68  2  0  0  0  0
 33 69  1  0  0  0  0
 33 72  1  0  0  0  0
 34 35  2  0  0  0  0
 35 37  1  0  0  0  0
 36 73  1  0  0  0  0
 36 77  2  0  0  0  0
 37 70  1  0  0  0  0
 37 78  2  0  0  0  0
 38 51  1  0  0  0  0
 38 74  1  0  0  0  0
 38 79  2  0  0  0  0
 39 64  1  0  0  0  0
 39 71  1  0  0  0  0
 39 80  2  0  0  0  0
 40 65  1  0  0  0  0
 40 75  1  0  0  0  0
 40 81  2  0  0  0  0
 41 44  1  0  0  0  0
 42 51  1  0  0  0  0
 43 71  1  0  0  0  0
 44 46  1  0  0  0  0
 45 47  1  0  0  0  0
 45 48  1  0  0  0  0
 46 50  1  0  0  0  0
 47 52  1  0  0  0  0
 48 70  1  0  0  0  0
 49 52  1  0  0  0  0
 49 70  1  0  0  0  0
 50 74  1  0  0  0  0
 51 71  1  0  0  0  0
 52 69  1  0  0  0  0
 53 61  1  0  0  0  0
 54 62  1  0  0  0  0
 55 65  1  0  0  0  0
 56 66  1  0  0  0  0
 57 67  1  0  0  0  0
 58 67  1  0  0  0  0
 59 67  1  0  0  0  0
 60 76  1  0  0  0  0
 62 84  1  0  0  0  0
 63 66  1  0  0  0  0
 63 83  1  0  0  0  0
 64 67  1  0  0  0  0
 64 75  1  0  0  0  0
 65 76  1  0  0  0  0
 66 85  1  0  0  0  0
 68 69  1  0  0  0  0
M  CHG  1  76   1
M  ISO  4  35 100  37 100  66 101  85 101
M  END
> <Batch ID>
0138

> <Smiles>
CCOc1cc(CC)c(C=[100CH:0][100C:0](=O)N2CCCC(n3nc(-c4ccc(Oc5ccc(F)cc5F)cc4)c(C(N)=O)c3N)C2)cc1OC[101CH:1](C)[101O:1]c1ccc2c(c1)CN(C(=O)C(NC(=O)C(C)NC)C(C)(C)C)C(C(=O)NC1CCCc3ccccc31)C2

> <Shape>
0.299

> <Color>
0.120

> <Negative vol penalty>
0.000

$$$$

  -OEChem-04052302453D

 84 92  0     1  0  0  0  0  0999 V2000
  -24.4858  -34.9402   23.3276 C   0  0  0  0  0  0  0  0  0  0  0  0
  -25.2848  -33.8330   23.0605 C   0  0  0  0  0  0  0  0  0  0  0  0
  -29.9120  -21.4095   16.6122 C   0  0  0  0  0  0  0  0  0  0  0  0
  -22.6875  -10.4801   21.7277 C   0  0  0  0  0  0  0  0  0  0  0  0
  -24.6268   -9.0716   21.4242 C   0  0  0  0  0  0  0  0  0  0  0  0
  -29.3160  -20.4351   17.4127 C   0  0  0  0  0  0  0  0  0  0  0  0
  -23.1988  -34.7637   23.8340 C   0  0  0  0  0  0  0  0  0  0  0  0
  -24.7976  -32.5488   23.3008 C   0  0  0  0  0  0  0  0  0  0  0  0
  -25.7987  -29.3494   19.5052 C   0  0  0  0  0  0  0  0  0  0  0  0
  -29.5867  -22.7541   16.7914 C   0  0  0  0  0  0  0  0  0  0  0  0
  -21.8576   -9.3679   21.5868 C   0  0  0  0  0  0  0  0  0  0  0  0
  -23.7969   -7.9593   21.2833 C   0  0  0  0  0  0  0  0  0  0  0  0
  -27.0929  -28.8365   19.4294 C   0  0  0  0  0  0  0  0  0  0  0  0
  -22.0508   -5.8850   23.3005 C   0  0  0  0  0  0  0  0  0  0  0  0
  -22.4033   -4.7241   23.9886 C   0  0  0  0  0  0  0  0  0  0  0  0
  -26.3365  -26.7917   20.4619 C   0  0  0  0  0  0  0  0  0  0  0  0
  -22.5583   -3.5297   21.8942 C   0  0  0  0  0  0  0  0  0  0  0  0
  -24.0721  -10.3320   21.6463 C   0  0  0  0  0  0  0  0  0  0  0  0
  -28.3946  -20.8051   18.3924 C   0  0  0  0  0  0  0  0  0  0  0  0
  -25.4824  -11.9839   22.9842 C   0  0  0  0  0  0  0  0  0  0  0  0
  -22.6921  -33.4763   24.0716 C   0  0  0  0  0  0  0  0  0  0  0  0
  -24.7642  -28.5903   20.0708 C   0  0  0  0  0  0  0  0  0  0  0  0
  -23.5031  -32.3550   23.8122 C   0  0  0  0  0  0  0  0  0  0  0  0
  -25.0295  -27.2963   20.5414 C   0  0  0  0  0  0  0  0  0  0  0  0
  -28.6653  -23.1241   17.7711 C   0  0  0  0  0  0  0  0  0  0  0  0
  -28.0693  -22.1496   18.5716 C   0  0  0  0  0  0  0  0  0  0  0  0
  -22.4123   -8.1075   21.3647 C   0  0  0  0  0  0  0  0  0  0  0  0
  -27.3626  -27.5586   19.9104 C   0  0  0  0  0  0  0  0  0  0  0  0
  -21.9521   -5.8683   21.9092 C   0  0  0  0  0  0  0  0  0  0  0  0
  -22.6570   -3.5464   23.2855 C   0  0  0  0  0  0  0  0  0  0  0  0
  -22.2058   -4.6907   21.2061 C   0  0  0  0  0  0  0  0  0  0  0  0
  -24.9299  -11.4806   21.7912 C   0  0  0  0  0  0  0  0  0  0  0  0
  -26.2151  -13.0764   22.5891 C   0  0  0  0  0  0  0  0  0  0  0  0
  -27.7911  -19.7612   19.2106 C   0  0  0  0  0  0  0  0  0  0  0  0
  -27.0682  -18.7232   18.7432 C   0  0  0  0  0  0  0  0  0  0  0  0
  -25.3457  -11.5065   24.3292 C   0  0  0  0  0  0  0  0  0  0  0  0
  -26.5290  -17.7383   19.7024 C   0  0  0  0  0  0  0  0  0  0  0  0
  -22.8398  -28.9364   22.5769 C   0  0  0  0  0  0  0  0  0  0  0  0
  -21.4444  -26.2629   21.3822 C   0  0  0  0  0  0  0  0  0  0  0  0
  -21.7369  -23.4459   19.4780 C   0  0  0  0  0  0  0  0  0  0  0  0
  -21.3122  -33.3372   24.6642 C   0  0  0  0  0  0  0  0  0  0  0  0
  -23.3681  -29.1476   20.1209 C   0  0  0  0  0  0  0  0  0  0  0  0
  -23.9498  -26.4330   21.1392 C   0  0  0  0  0  0  0  0  0  0  0  0
  -20.7342  -31.9300   24.5382 C   0  0  0  0  0  0  0  0  0  0  0  0
  -27.5682  -14.6647   17.9981 C   0  0  0  0  0  0  0  0  0  0  0  0
  -21.7703  -30.8886   24.9491 C   0  0  0  0  0  0  0  0  0  0  0  0
  -26.9712  -13.6028   18.9178 C   0  0  0  0  0  0  0  0  0  0  0  0
  -26.6924  -15.9145   17.9238 C   0  0  0  0  0  0  0  0  0  0  0  0
  -25.7802  -15.4393   20.1783 C   0  0  0  0  0  0  0  0  0  0  0  0
  -23.0012  -30.9450   24.0364 C   0  0  1  0  0  0  0  0  0  0  0  0
  -22.4981  -28.4855   21.1849 C   0  0  1  0  0  0  0  0  0  0  0  0
  -26.6685  -14.1918   20.3047 C   0  0  1  0  0  0  0  0  0  0  0  0
  -27.7606  -23.1457   20.8517 C   0  0  0  0  0  0  0  0  0  0  0  0
  -20.4383  -21.4367   18.7204 C   0  0  0  0  0  0  0  0  0  0  0  0
  -30.4467  -27.8089   18.4693 C   0  0  0  0  0  0  0  0  0  0  0  0
  -21.7983  -24.9985   24.1365 C   0  0  0  0  0  0  0  0  0  0  0  0
  -21.3843  -22.7636   23.0869 C   0  0  0  0  0  0  0  0  0  0  0  0
  -19.6047  -24.5110   23.0389 C   0  0  0  0  0  0  0  0  0  0  0  0
  -21.9940  -24.2092   16.6302 C   0  0  0  0  0  0  0  0  0  0  0  0
  -28.3318  -24.5845   17.9430 C   0  0  0  0  0  0  0  0  0  0  0  0
  -27.0813  -22.5589   19.6199 C   0  0  0  0  0  0  0  0  0  0  0  0
  -29.5471  -25.4621   18.2764 C   0  0  0  0  0  0  0  0  0  0  0  0
  -21.6440  -24.7782   21.5687 C   0  0  1  0  0  0  0  0  0  0  0  0
  -20.8458  -22.8652   18.3949 C   0  0  2  0  0  0  0  0  0  0  0  0
  -29.2021  -26.9332   18.5389 C   0  0  1  0  0  0  0  0  0  1  0  0
  -21.1288  -24.2796   22.9483 C   0  0  0  0  0  0  0  0  0  0  0  0
  -25.2814  -12.1948   20.7186 N   0  0  0  0  0  0  0  0  0  0  0  0
  -26.0626  -13.1581   21.2362 N   0  0  0  0  0  0  0  0  0  0  0  0
  -26.3682  -16.4250   19.2644 N   0  0  0  0  0  0  0  0  0  0  0  0
  -22.6022  -27.0250   21.1716 N   0  0  0  0  0  0  0  0  0  0  0  0
  -26.9685  -13.9656   23.2704 N   0  0  0  0  0  0  0  0  0  0  0  0
  -24.5561  -10.3714   24.5582 N   0  0  0  0  0  0  0  0  0  0  0  0
  -22.7226  -30.2994   22.7715 N   0  0  0  0  0  0  0  0  0  0  0  0
  -21.0078  -24.1339   20.4248 N   0  0  0  0  0  0  0  0  0  0  0  0
  -21.5563  -22.8644   17.0848 N   0  3  0  0  0  0  0  0  0  0  0  0
  -25.8936  -12.0795   25.3013 O   0  0  0  0  0  0  0  0  0  0  0  0
  -26.2489  -18.1404   20.8331 O   0  0  0  0  0  0  0  0  0  0  0  0
  -23.1828  -28.1087   23.4130 O   0  0  0  0  0  0  0  0  0  0  0  0
  -20.3025  -26.7283   21.4148 O   0  0  0  0  0  0  0  0  0  0  0  0
  -22.9573  -23.3003   19.4856 O   0  0  0  0  0  0  0  0  0  0  0  0
  -21.6028   -7.0220   21.2274 O   0  0  0  0  0  0  0  0  0  0  0  0
  -28.6251  -27.0558   19.8383 O   0  0  0  0  0  0  0  0  0  1  0  0
  -22.9970   -2.4320   23.9464 F   0  0  0  0  0  0  0  0  0  0  0  0
  -22.1137   -4.6688   19.8694 F   0  0  0  0  0  0  0  0  0  0  0  0
  1  2  1  0  0  0  0
  1  7  2  0  0  0  0
  2  8  2  0  0  0  0
  3  6  1  0  0  0  0
  3 10  2  0  0  0  0
  4 11  2  0  0  0  0
  4 18  1  0  0  0  0
  5 12  1  0  0  0  0
  5 18  2  0  0  0  0
  6 19  2  0  0  0  0
  7 21  1  0  0  0  0
  8 23  1  0  0  0  0
  9 13  2  0  0  0  0
  9 22  1  0  0  0  0
 10 25  1  0  0  0  0
 11 27  1  0  0  0  0
 12 27  2  0  0  0  0
 13 28  1  0  0  0  0
 14 15  2  0  0  0  0
 14 29  1  0  0  0  0
 15 30  1  0  0  0  0
 16 24  1  0  0  0  0
 16 28  2  0  0  0  0
 17 30  2  0  0  0  0
 17 31  1  0  0  0  0
 18 32  1  0  0  0  0
 19 26  1  0  0  0  0
 19 34  1  0  0  0  0
 20 32  1  0  0  0  0
 20 33  2  0  0  0  0
 20 36  1  0  0  0  0
 21 23  2  0  0  0  0
 21 41  1  0  0  0  0
 22 24  2  0  0  0  0
 22 42  1  0  0  0  0
 23 50  1  0  0  0  0
 24 43  1  0  0  0  0
 25 26  2  0  0  0  0
 25 60  1  0  0  0  0
 26 61  1  0  0  0  0
 27 81  1  0  0  0  0
 28 82  1  0  0  0  0
 29 31  2  0  0  0  0
 29 81  1  0  0  0  0
 30 83  1  0  0  0  0
 31 84  1  0  0  0  0
 32 67  2  0  0  0  0
 33 68  1  0  0  0  0
 33 71  1  0  0  0  0
 34 35  2  0  0  0  0
 35 37  1  0  0  0  0
 36 72  1  0  0  0  0
 36 76  2  0  0  0  0
 37 69  1  0  0  0  0
 37 77  2  0  0  0  0
 38 51  1  0  0  0  0
 38 73  1  0  0  0  0
 38 78  2  0  0  0  0
 39 63  1  0  0  0  0
 39 70  1  0  0  0  0
 39 79  2  0  0  0  0
 40 64  1  0  0  0  0
 40 74  1  0  0  0  0
 40 80  2  0  0  0  0
 41 44  1  0  0  0  0
 42 51  1  0  0  0  0
 43 70  1  0  0  0  0
 44 46  1  0  0  0  0
 45 47  1  0  0  0  0
 45 48  1  0  0  0  0
 46 50  1  0  0  0  0
 47 52  1  0  0  0  0
 48 69  1  0  0  0  0
 49 52  1  0  0  0  0
 49 69  1  0  0  0  0
 50 73  1  0  0  0  0
 51 70  1  0  0  0  0
 52 68  1  0  0  0  0
 53 61  1  0  0  0  0
 54 64  1  0  0  0  0
 55 65  1  0  0  0  0
 56 66  1  0  0  0  0
 57 66  1  0  0  0  0
 58 66  1  0  0  0  0
 59 75  1  0  0  0  0
 60 62  1  0  0  0  0
 62 65  1  0  0  0  0
 63 66  1  0  0  0  0
 63 74  1  0  0  0  0
 64 75  1  0  0  0  0
 65 82  1  0  0  0  0
 67 68  1  0  0  0  0
M  CHG  1  75   1
M  ISO  4  35 100  37 100  65 101  82 101
M  END
> <Batch ID>
0138

> <Smiles>
CCc1c(C=[100CH:0][100C:0](=O)N2CCCC(n3nc(-c4ccc(Oc5ccc(F)cc5F)cc4)c(C(N)=O)c3N)C2)cccc1CC[101CH:1](C)[101O:1]c1ccc2c(c1)CN(C(=O)C(NC(=O)C(C)NC)C(C)(C)C)C(C(=O)NC1CCCc3ccccc31)C2

> <Shape>
0.244

> <Color>
0.105

> <Negative vol penalty>
0.000

$$$$

  -OEChem-04052302453D

 83 91  0     1  0  0  0  0  0999 V2000
  -28.4738  -10.5940   16.7266 C   0  0  0  0  0  0  0  0  0  0  0  0
  -27.5062  -11.5409   16.4062 C   0  0  0  0  0  0  0  0  0  0  0  0
  -26.1493  -29.4676   20.7604 C   0  0  0  0  0  0  0  0  0  0  0  0
  -23.8058  -29.0207   20.3792 C   0  0  0  0  0  0  0  0  0  0  0  0
  -29.2562  -10.7576   17.8690 C   0  0  0  0  0  0  0  0  0  0  0  0
  -27.3197  -12.6514   17.2286 C   0  0  0  0  0  0  0  0  0  0  0  0
  -25.7721  -18.3118   15.4763 C   0  0  0  0  0  0  0  0  0  0  0  0
  -25.8109  -30.4370   21.7045 C   0  0  0  0  0  0  0  0  0  0  0  0
  -23.4674  -29.9901   21.3234 C   0  0  0  0  0  0  0  0  0  0  0  0
  -24.5520  -18.9861   15.4539 C   0  0  0  0  0  0  0  0  0  0  0  0
  -24.8069  -30.5273   24.9320 C   0  0  0  0  0  0  0  0  0  0  0  0
  -25.5089  -30.5311   26.1373 C   0  0  0  0  0  0  0  0  0  0  0  0
  -25.0716  -19.9846   17.5875 C   0  0  0  0  0  0  0  0  0  0  0  0
  -21.1459  -23.1975   11.7206 C   0  0  0  0  0  0  0  0  0  0  0  0
  -26.2721  -32.7785   25.6856 C   0  0  0  0  0  0  0  0  0  0  0  0
  -25.1467  -28.7595   20.0976 C   0  0  0  0  0  0  0  0  0  0  0  0
  -25.7193  -26.3879   19.3526 C   0  0  0  0  0  0  0  0  0  0  0  0
  -29.0857  -11.8756   18.7006 C   0  0  0  0  0  0  0  0  0  0  0  0
  -26.6477  -18.4606   16.5615 C   0  0  0  0  0  0  0  0  0  0  0  0
  -28.0996  -12.8294   18.3839 C   0  0  0  0  0  0  0  0  0  0  0  0
  -26.3033  -19.3131   17.6201 C   0  0  0  0  0  0  0  0  0  0  0  0
  -21.7302  -23.9273   12.7958 C   0  0  0  0  0  0  0  0  0  0  0  0
  -24.4700  -30.6982   21.9860 C   0  0  0  0  0  0  0  0  0  0  0  0
  -24.2003  -19.8204   16.5110 C   0  0  0  0  0  0  0  0  0  0  0  0
  -24.8375  -31.6490   24.1034 C   0  0  0  0  0  0  0  0  0  0  0  0
  -26.2415  -31.6567   26.5141 C   0  0  0  0  0  0  0  0  0  0  0  0
  -25.5701  -32.7746   24.4802 C   0  0  0  0  0  0  0  0  0  0  0  0
  -25.4956  -27.7585   19.1218 C   0  0  0  0  0  0  0  0  0  0  0  0
  -21.7259  -23.5065   10.5099 C   0  0  0  0  0  0  0  0  0  0  0  0
  -26.0176  -25.8753   18.1138 C   0  0  0  0  0  0  0  0  0  0  0  0
  -22.7348  -24.7663   12.3659 C   0  0  0  0  0  0  0  0  0  0  0  0
  -25.6623  -25.6445   20.5773 C   0  0  0  0  0  0  0  0  0  0  0  0
  -27.8661  -16.4992   18.7460 C   0  0  0  0  0  0  0  0  0  0  0  0
  -29.5827  -19.1225   19.5790 C   0  0  0  0  0  0  0  0  0  0  0  0
  -29.8499  -22.5247   19.5962 C   0  0  0  0  0  0  0  0  0  0  0  0
  -24.5728  -26.4788   12.5542 C   0  0  0  0  0  0  0  0  0  0  0  0
  -29.9229  -11.9851   19.9504 C   0  0  0  0  0  0  0  0  0  0  0  0
  -27.9719  -17.7471   16.5580 C   0  0  0  0  0  0  0  0  0  0  0  0
  -27.2170  -19.5228   18.7989 C   0  0  0  0  0  0  0  0  0  0  0  0
  -29.9180  -13.3819   20.5663 C   0  0  0  0  0  0  0  0  0  0  0  0
  -27.6210  -27.7920   13.8431 C   0  0  0  0  0  0  0  0  0  0  0  0
  -28.4959  -13.9289   20.6378 C   0  0  0  0  0  0  0  0  0  0  0  0
  -27.4072  -27.7839   15.3585 C   0  0  0  0  0  0  0  0  0  0  0  0
  -26.3383  -28.1430   13.0913 C   0  0  0  0  0  0  0  0  0  0  0  0
  -24.9565  -27.3161   14.9557 C   0  0  0  0  0  0  0  0  0  0  0  0
  -27.8843  -14.0602   19.2377 C   0  0  1  0  0  0  0  0  0  0  0  0
  -28.5598  -17.5717   17.9547 C   0  0  1  0  0  0  0  0  0  0  0  0
  -26.2047  -26.9043   15.7532 C   0  0  2  0  0  0  0  0  0  0  0  0
  -21.4041  -22.9679    9.1706 C   0  0  0  0  0  0  0  0  0  0  0  0
  -31.3461  -24.3792   20.3833 C   0  0  0  0  0  0  0  0  0  0  0  0
  -28.5737  -18.7230   22.4307 C   0  0  0  0  0  0  0  0  0  0  0  0
  -29.2938  -21.0663   22.9395 C   0  0  0  0  0  0  0  0  0  0  0  0
  -30.9848  -19.3639   22.2575 C   0  0  0  0  0  0  0  0  0  0  0  0
  -20.5098  -21.9919   16.6086 C   0  0  0  0  0  0  0  0  0  0  0  0
  -21.8628  -23.9781   17.3240 C   0  0  0  0  0  0  0  0  0  0  0  0
  -30.3037  -23.4870   16.8345 C   0  0  0  0  0  0  0  0  0  0  0  0
  -21.2926  -23.7873   14.2339 C   0  0  0  0  0  0  0  0  0  0  0  0
  -22.2784  -22.9272   15.0370 C   0  0  0  0  0  0  0  0  0  0  0  0
  -22.9531  -21.7379   17.1621 C   0  0  0  0  0  0  0  0  0  1  0  0
  -29.3782  -20.2758   20.5314 C   0  0  1  0  0  0  0  0  0  0  0  0
  -30.9999  -23.4466   19.2330 C   0  0  2  0  0  0  0  0  0  0  0  0
  -29.5394  -19.8520   22.0186 C   0  0  0  0  0  0  0  0  0  0  0  0
  -21.8919  -22.6656   16.5209 C   0  0  0  0  0  0  0  0  0  0  0  0
  -25.6398  -28.0953   17.8374 N   0  0  0  0  0  0  0  0  0  0  0  0
  -25.9573  -26.9290   17.2500 N   0  0  0  0  0  0  0  0  0  0  0  0
  -28.4978  -18.7983   18.7522 N   0  0  0  0  0  0  0  0  0  0  0  0
  -25.2438  -27.2663   13.5136 N   0  0  0  0  0  0  0  0  0  0  0  0
  -26.3232  -24.6305   17.6900 N   0  0  0  0  0  0  0  0  0  0  0  0
  -25.3408  -26.3267   21.7586 N   0  0  0  0  0  0  0  0  0  0  0  0
  -23.5723  -25.6606   13.0777 N   0  0  0  0  0  0  0  0  0  0  0  0
  -28.3988  -15.2364   18.5697 N   0  0  0  0  0  0  0  0  0  0  0  0
  -30.2987  -21.3247   20.1059 N   0  0  0  0  0  0  0  0  0  0  0  0
  -30.6444  -24.2756   18.0466 N   0  3  0  0  0  0  0  0  0  0  0  0
  -25.9058  -24.4149   20.6253 O   0  0  0  0  0  0  0  0  0  0  0  0
  -26.9187  -16.7956   19.4644 O   0  0  0  0  0  0  0  0  0  0  0  0
  -30.6676  -18.5356   19.5641 O   0  0  0  0  0  0  0  0  0  0  0  0
  -28.6712  -22.8392   19.4466 O   0  0  0  0  0  0  0  0  0  0  0  0
  -24.8826  -26.5065   11.3604 O   0  0  0  0  0  0  0  0  0  0  0  0
  -24.1394  -31.6439   22.9075 O   0  0  0  0  0  0  0  0  0  0  0  0
  -23.0097  -20.4793   16.4919 O   0  0  0  0  0  0  0  0  0  1  0  0
  -26.9143  -31.6609   27.6723 F   0  0  0  0  0  0  0  0  0  0  0  0
  -25.6023  -33.8556   23.6889 F   0  0  0  0  0  0  0  0  0  0  0  0
  -22.9698  -24.6721   10.6723 S   0  0  0  0  0  0  0  0  0  0  0  0
  1  2  1  0  0  0  0
  1  5  2  0  0  0  0
  2  6  2  0  0  0  0
  3  8  2  0  0  0  0
  3 16  1  0  0  0  0
  4  9  1  0  0  0  0
  4 16  2  0  0  0  0
  5 18  1  0  0  0  0
  6 20  1  0  0  0  0
  7 10  2  0  0  0  0
  7 19  1  0  0  0  0
  8 23  1  0  0  0  0
  9 23  2  0  0  0  0
 10 24  1  0  0  0  0
 11 12  2  0  0  0  0
 11 25  1  0  0  0  0
 12 26  1  0  0  0  0
 13 21  1  0  0  0  0
 13 24  2  0  0  0  0
 14 22  1  0  0  0  0
 14 29  2  0  0  0  0
 15 26  2  0  0  0  0
 15 27  1  0  0  0  0
 16 28  1  0  0  0  0
 17 28  1  0  0  0  0
 17 30  2  0  0  0  0
 17 32  1  0  0  0  0
 18 20  2  0  0  0  0
 18 37  1  0  0  0  0
 19 21  2  0  0  0  0
 19 38  1  0  0  0  0
 20 46  1  0  0  0  0
 21 39  1  0  0  0  0
 22 31  2  0  0  0  0
 22 57  1  0  0  0  0
 23 79  1  0  0  0  0
 24 80  1  0  0  0  0
 25 27  2  0  0  0  0
 25 79  1  0  0  0  0
 26 81  1  0  0  0  0
 27 82  1  0  0  0  0
 28 64  2  0  0  0  0
 29 49  1  0  0  0  0
 29 83  1  0  0  0  0
 30 65  1  0  0  0  0
 30 68  1  0  0  0  0
 31 70  1  0  0  0  0
 31 83  1  0  0  0  0
 32 69  1  0  0  0  0
 32 74  2  0  0  0  0
 33 47  1  0  0  0  0
 33 71  1  0  0  0  0
 33 75  2  0  0  0  0
 34 60  1  0  0  0  0
 34 66  1  0  0  0  0
 34 76  2  0  0  0  0
 35 61  1  0  0  0  0
 35 72  1  0  0  0  0
 35 77  2  0  0  0  0
 36 67  1  0  0  0  0
 36 70  1  0  0  0  0
 36 78  2  0  0  0  0
 37 40  1  0  0  0  0
 38 47  1  0  0  0  0
 39 66  1  0  0  0  0
 40 42  1  0  0  0  0
 41 43  1  0  0  0  0
 41 44  1  0  0  0  0
 42 46  1  0  0  0  0
 43 48  1  0  0  0  0
 44 67  1  0  0  0  0
 45 48  1  0  0  0  0
 45 67  1  0  0  0  0
 46 71  1  0  0  0  0
 47 66  1  0  0  0  0
 48 65  1  0  0  0  0
 50 61  1  0  0  0  0
 51 62  1  0  0  0  0
 52 62  1  0  0  0  0
 53 62  1  0  0  0  0
 54 63  1  0  0  0  0
 55 63  1  0  0  0  0
 56 73  1  0  0  0  0
 57 58  1  0  0  0  0
 58 63  1  0  0  0  0
 59 63  1  0  0  0  0
 59 80  1  0  0  0  0
 60 62  1  0  0  0  0
 60 72  1  0  0  0  0
 61 73  1  0  0  0  0
 64 65  1  0  0  0  0
M  CHG  1  73   1
M  ISO  4  36 100  59 101  70 100  80 101
M  END
> <Batch ID>
0138

> <Smiles>
CNC(C)C(=O)NC(C(=O)N1Cc2cc([101O:1][101CH2:1]C(C)(C)CCc3cc(C)sc3[100NH:0][100C:0](=O)N3CCCC(n4nc(-c5ccc(Oc6ccc(F)cc6F)cc5)c(C(N)=O)c4N)C3)ccc2CC1C(=O)NC1CCCc2ccccc21)C(C)(C)C

> <Shape>
0.224

> <Color>
0.059

> <Negative vol penalty>
0.000

$$$$

  -OEChem-04052302453D

 88 96  0     1  0  0  0  0  0999 V2000
  -18.5902  -24.6532   24.5909 C   0  0  0  0  0  0  0  0  0  0  0  0
  -19.8340  -24.3980   24.0222 C   0  0  0  0  0  0  0  0  0  0  0  0
  -21.4912  -10.5354   21.9492 C   0  0  0  0  0  0  0  0  0  0  0  0
  -23.8205  -10.6495   21.3181 C   0  0  0  0  0  0  0  0  0  0  0  0
  -17.9711  -25.8855   24.3863 C   0  0  0  0  0  0  0  0  0  0  0  0
  -20.4589  -25.3748   23.2478 C   0  0  0  0  0  0  0  0  0  0  0  0
  -26.4708  -26.4752   22.8578 C   0  0  0  0  0  0  0  0  0  0  0  0
  -21.5257   -9.1465   21.8257 C   0  0  0  0  0  0  0  0  0  0  0  0
  -23.8551   -9.2606   21.1946 C   0  0  0  0  0  0  0  0  0  0  0  0
  -27.4347  -26.0985   21.9235 C   0  0  0  0  0  0  0  0  0  0  0  0
  -22.6120   -6.5103   23.6432 C   0  0  0  0  0  0  0  0  0  0  0  0
  -22.0187   -5.7546   24.6544 C   0  0  0  0  0  0  0  0  0  0  0  0
  -27.1590  -28.2131   20.7957 C   0  0  0  0  0  0  0  0  0  0  0  0
  -25.6932  -20.8482   18.9461 C   0  0  0  0  0  0  0  0  0  0  0  0
  -26.2061  -20.0893   21.1818 C   0  0  0  0  0  0  0  0  0  0  0  0
  -20.5040   -4.7850   23.0411 C   0  0  0  0  0  0  0  0  0  0  0  0
  -22.6386  -11.2870   21.6954 C   0  0  0  0  0  0  0  0  0  0  0  0
  -22.8790  -13.4802   22.9759 C   0  0  0  0  0  0  0  0  0  0  0  0
  -18.5931  -26.8814   23.6169 C   0  0  0  0  0  0  0  0  0  0  0  0
  -25.8349  -27.7213   22.7616 C   0  0  0  0  0  0  0  0  0  0  0  0
  -19.8469  -26.6212   23.0316 C   0  0  0  0  0  0  0  0  0  0  0  0
  -26.1893  -28.6042   21.7315 C   0  0  0  0  0  0  0  0  0  0  0  0
  -26.7521  -21.7538   19.0106 C   0  0  0  0  0  0  0  0  0  0  0  0
  -27.2651  -20.9948   21.2462 C   0  0  0  0  0  0  0  0  0  0  0  0
  -27.5381  -21.8271   20.1606 C   0  0  0  0  0  0  0  0  0  0  0  0
  -25.4201  -20.0159   20.0318 C   0  0  0  0  0  0  0  0  0  0  0  0
  -22.7077   -8.5091   21.4484 C   0  0  0  0  0  0  0  0  0  0  0  0
  -27.7768  -26.9663   20.8906 C   0  0  0  0  0  0  0  0  0  0  0  0
  -22.1512   -6.4034   22.3309 C   0  0  0  0  0  0  0  0  0  0  0  0
  -20.9648   -4.8919   24.3534 C   0  0  0  0  0  0  0  0  0  0  0  0
  -21.0973   -5.5407   22.0299 C   0  0  0  0  0  0  0  0  0  0  0  0
  -22.6034  -12.7218   21.8223 C   0  0  0  0  0  0  0  0  0  0  0  0
  -22.7084  -14.7839   22.5785 C   0  0  0  0  0  0  0  0  0  0  0  0
  -23.2556  -13.0452   24.2891 C   0  0  0  0  0  0  0  0  0  0  0  0
  -22.8346  -28.6817   22.3382 C   0  0  0  0  0  0  0  0  0  0  0  0
  -24.1149  -31.6191   22.8432 C   0  0  0  0  0  0  0  0  0  0  0  0
  -26.8718  -33.6293   22.7706 C   0  0  0  0  0  0  0  0  0  0  0  0
  -23.4688  -18.8942   18.9002 C   0  0  0  0  0  0  0  0  0  0  0  0
  -17.8635  -28.1808   23.3846 C   0  0  0  0  0  0  0  0  0  0  0  0
  -24.8166  -28.1235   23.7929 C   0  0  0  0  0  0  0  0  0  0  0  0
  -25.5507  -29.9615   21.5957 C   0  0  0  0  0  0  0  0  0  0  0  0
  -18.7617  -29.2985   22.8611 C   0  0  0  0  0  0  0  0  0  0  0  0
  -20.7210  -16.7013   18.3364 C   0  0  0  0  0  0  0  0  0  0  0  0
  -19.6418  -28.7880   21.7245 C   0  0  0  0  0  0  0  0  0  0  0  0
  -20.9884  -15.5329   19.2879 C   0  0  0  0  0  0  0  0  0  0  0  0
  -22.0136  -17.2507   17.7356 C   0  0  0  0  0  0  0  0  0  0  0  0
  -23.3158  -16.4431   19.6646 C   0  0  0  0  0  0  0  0  0  0  0  0
  -20.5678  -27.6645   22.2058 C   0  0  1  0  0  0  0  0  0  0  0  0
  -23.8627  -29.2071   23.2998 C   0  0  1  0  0  0  0  0  0  0  0  0
  -22.0492  -15.8982   20.3447 C   0  0  2  0  0  0  0  0  0  0  0  0
  -27.0232  -22.6342   17.8348 C   0  0  0  0  0  0  0  0  0  0  0  0
  -26.5911  -22.8363   23.6655 C   0  0  0  0  0  0  0  0  0  0  0  0
  -27.5989  -35.9920   23.2025 C   0  0  0  0  0  0  0  0  0  0  0  0
  -29.6147  -20.7401   22.2972 C   0  0  0  0  0  0  0  0  0  0  0  0
  -27.5925  -19.9809   23.5129 C   0  0  0  0  0  0  0  0  0  0  0  0
  -22.8373  -32.4905   20.2130 C   0  0  0  0  0  0  0  0  0  0  0  0
  -24.3447  -34.4895   20.2236 C   0  0  0  0  0  0  0  0  0  0  0  0
  -22.6821  -34.1736   22.0562 C   0  0  0  0  0  0  0  0  0  0  0  0
  -30.0037  -25.2652   21.5009 C   0  0  0  0  0  0  0  0  0  0  0  0
  -30.3455  -25.1315   19.0201 C   0  0  0  0  0  0  0  0  0  0  0  0
  -28.7580  -32.7844   24.8890 C   0  0  0  0  0  0  0  0  0  0  0  0
  -28.6840  -22.8064   20.2299 C   0  0  0  0  0  0  0  0  0  0  0  0
  -27.9984  -22.4472   23.2216 C   0  0  0  0  0  0  0  0  0  0  0  0
  -28.2070  -24.2473   19.9985 C   0  0  0  0  0  0  0  0  0  0  0  0
  -24.7238  -32.6853   21.9649 C   0  0  1  0  0  0  0  0  0  0  0  0
  -27.4384  -34.5992   23.7918 C   0  0  2  0  0  0  0  0  0  0  0  0
  -28.0915  -21.0534   22.4891 C   0  0  0  0  0  0  0  0  0  0  0  0
  -23.6578  -33.4334   21.1156 C   0  0  0  0  0  0  0  0  0  0  0  0
  -29.3122  -25.3139   20.1368 C   0  0  0  0  0  0  0  0  0  1  0  0
  -22.2819  -13.4805   20.7711 N   0  0  0  0  0  0  0  0  0  0  0  0
  -22.3544  -14.7292   21.2625 N   0  0  0  0  0  0  0  0  0  0  0  0
  -24.5561  -30.3062   22.6250 N   0  0  0  0  0  0  0  0  0  0  0  0
  -22.9693  -17.5787   18.7957 N   0  0  0  0  0  0  0  0  0  0  0  0
  -22.8280  -15.9602   23.2300 N   0  0  0  0  0  0  0  0  0  0  0  0
  -23.3862  -11.6699   24.5255 N   0  0  0  0  0  0  0  0  0  0  0  0
  -24.3451  -19.0952   19.9662 N   0  0  0  0  0  0  0  0  0  0  0  0
  -21.6852  -28.2121   22.9447 N   0  0  0  0  0  0  0  0  0  0  0  0
  -25.4975  -33.5500   22.8493 N   0  0  0  0  0  0  0  0  0  0  0  0
  -28.7723  -34.1325   24.2650 N   0  3  0  0  0  0  0  0  0  0  0  0
  -23.4540  -13.8513   25.2295 O   0  0  0  0  0  0  0  0  0  0  0  0
  -23.0663  -28.7023   21.1351 O   0  0  0  0  0  0  0  0  0  0  0  0
  -23.2840  -31.9402   23.6964 O   0  0  0  0  0  0  0  0  0  0  0  0
  -27.5775  -33.0074   21.9796 O   0  0  0  0  0  0  0  0  0  0  0  0
  -23.1221  -19.7840   18.1192 O   0  0  0  0  0  0  0  0  0  0  0  0
  -22.7418   -7.1538   21.3280 O   0  0  0  0  0  0  0  0  0  0  0  0
  -28.7168  -26.6009   19.9769 O   0  0  0  0  0  0  0  0  0  1  0  0
  -20.3962   -4.1651   25.3242 F   0  0  0  0  0  0  0  0  0  0  0  0
  -20.6511   -5.4329   20.7709 F   0  0  0  0  0  0  0  0  0  0  0  0
  1  2  1  0  0  0  0
  1  5  2  0  0  0  0
  2  6  2  0  0  0  0
  3  8  2  0  0  0  0
  3 17  1  0  0  0  0
  4  9  1  0  0  0  0
  4 17  2  0  0  0  0
  5 19  1  0  0  0  0
  6 21  1  0  0  0  0
  7 10  2  0  0  0  0
  7 20  1  0  0  0  0
  8 27  1  0  0  0  0
  9 27  2  0  0  0  0
 10 28  1  0  0  0  0
 11 12  2  0  0  0  0
 11 29  1  0  0  0  0
 12 30  1  0  0  0  0
 13 22  1  0  0  0  0
 13 28  2  0  0  0  0
 14 23  2  0  0  0  0
 14 26  1  0  0  0  0
 15 24  1  0  0  0  0
 15 26  2  0  0  0  0
 16 30  2  0  0  0  0
 16 31  1  0  0  0  0
 17 32  1  0  0  0  0
 18 32  1  0  0  0  0
 18 33  2  0  0  0  0
 18 34  1  0  0  0  0
 19 21  2  0  0  0  0
 19 39  1  0  0  0  0
 20 22  2  0  0  0  0
 20 40  1  0  0  0  0
 21 48  1  0  0  0  0
 22 41  1  0  0  0  0
 23 25  1  0  0  0  0
 23 51  1  0  0  0  0
 24 25  2  0  0  0  0
 24 67  1  0  0  0  0
 25 62  1  0  0  0  0
 26 76  1  0  0  0  0
 27 85  1  0  0  0  0
 28 86  1  0  0  0  0
 29 31  2  0  0  0  0
 29 85  1  0  0  0  0
 30 87  1  0  0  0  0
 31 88  1  0  0  0  0
 32 70  2  0  0  0  0
 33 71  1  0  0  0  0
 33 74  1  0  0  0  0
 34 75  1  0  0  0  0
 34 80  2  0  0  0  0
 35 49  1  0  0  0  0
 35 77  1  0  0  0  0
 35 81  2  0  0  0  0
 36 65  1  0  0  0  0
 36 72  1  0  0  0  0
 36 82  2  0  0  0  0
 37 66  1  0  0  0  0
 37 78  1  0  0  0  0
 37 83  2  0  0  0  0
 38 73  1  0  0  0  0
 38 76  1  0  0  0  0
 38 84  2  0  0  0  0
 39 42  1  0  0  0  0
 40 49  1  0  0  0  0
 41 72  1  0  0  0  0
 42 44  1  0  0  0  0
 43 45  1  0  0  0  0
 43 46  1  0  0  0  0
 44 48  1  0  0  0  0
 45 50  1  0  0  0  0
 46 73  1  0  0  0  0
 47 50  1  0  0  0  0
 47 73  1  0  0  0  0
 48 77  1  0  0  0  0
 49 72  1  0  0  0  0
 50 71  1  0  0  0  0
 52 63  1  0  0  0  0
 53 66  1  0  0  0  0
 54 67  1  0  0  0  0
 55 67  1  0  0  0  0
 56 68  1  0  0  0  0
 57 68  1  0  0  0  0
 58 68  1  0  0  0  0
 59 69  1  0  0  0  0
 60 69  1  0  0  0  0
 61 79  1  0  0  0  0
 62 64  1  0  0  0  0
 63 67  1  0  0  0  0
 64 69  1  0  0  0  0
 65 68  1  0  0  0  0
 65 78  1  0  0  0  0
 66 79  1  0  0  0  0
 69 86  1  0  0  0  0
 70 71  1  0  0  0  0
M  CHG  1  79   1
M  ISO  4  38 100  69 101  76 100  86 101
M  END
> <Batch ID>
0138

> <Smiles>
CCC(C)(C)c1cc([100NH:0][100C:0](=O)N2CCCC(n3nc(-c4ccc(Oc5ccc(F)cc5F)cc4)c(C(N)=O)c3N)C2)cc(C)c1CC[101C:1](C)(C)[101O:1]c1ccc2c(c1)CN(C(=O)C(NC(=O)C(C)NC)C(C)(C)C)C(C(=O)NC1CCCc3ccccc31)C2

> <Shape>
0.245

> <Color>
0.092

> <Negative vol penalty>
0.000

$$$$

  -OEChem-04052302453D

 85 93  0     1  0  0  0  0  0999 V2000
  -38.7333  -30.8664   25.1304 C   0  0  0  0  0  0  0  0  0  0  0  0
  -38.5763  -29.7067   25.8825 C   0  0  0  0  0  0  0  0  0  0  0  0
  -23.0781   -9.8645   19.9441 C   0  0  0  0  0  0  0  0  0  0  0  0
  -23.8338   -9.8793   22.2388 C   0  0  0  0  0  0  0  0  0  0  0  0
  -37.6895  -31.7868   25.0444 C   0  0  0  0  0  0  0  0  0  0  0  0
  -37.3757  -29.4672   26.5501 C   0  0  0  0  0  0  0  0  0  0  0  0
  -32.5374  -23.3503   26.1019 C   0  0  0  0  0  0  0  0  0  0  0  0
  -22.3345   -8.7117   20.1964 C   0  0  0  0  0  0  0  0  0  0  0  0
  -23.0901   -8.7266   22.4911 C   0  0  0  0  0  0  0  0  0  0  0  0
  -31.5253  -22.3966   25.9910 C   0  0  0  0  0  0  0  0  0  0  0  0
  -19.8613   -7.9288   23.0903 C   0  0  0  0  0  0  0  0  0  0  0  0
  -19.1022   -7.8922   24.2599 C   0  0  0  0  0  0  0  0  0  0  0  0
  -29.8854  -24.0439   26.6580 C   0  0  0  0  0  0  0  0  0  0  0  0
  -31.8415  -18.3756   24.1930 C   0  0  0  0  0  0  0  0  0  0  0  0
  -32.0566  -16.6198   22.5476 C   0  0  0  0  0  0  0  0  0  0  0  0
  -29.8708  -17.4686   23.1295 C   0  0  0  0  0  0  0  0  0  0  0  0
  -20.3434   -5.9579   25.0049 C   0  0  0  0  0  0  0  0  0  0  0  0
  -23.8279  -10.4483   20.9653 C   0  0  0  0  0  0  0  0  0  0  0  0
  -24.1685  -12.9732   20.8377 C   0  0  0  0  0  0  0  0  0  0  0  0
  -36.4721  -31.5539   25.7034 C   0  0  0  0  0  0  0  0  0  0  0  0
  -32.2248  -24.6599   26.4768 C   0  0  0  0  0  0  0  0  0  0  0  0
  -36.3152  -30.3860   26.4740 C   0  0  0  0  0  0  0  0  0  0  0  0
  -30.8933  -25.0066   26.7586 C   0  0  0  0  0  0  0  0  0  0  0  0
  -32.6418  -17.5073   23.4506 C   0  0  0  0  0  0  0  0  0  0  0  0
  -30.4560  -18.3562   24.0325 C   0  0  0  0  0  0  0  0  0  0  0  0
  -30.6711  -16.6004   22.3870 C   0  0  0  0  0  0  0  0  0  0  0  0
  -22.3404   -8.1428   21.4699 C   0  0  0  0  0  0  0  0  0  0  0  0
  -30.2026  -22.7426   26.2687 C   0  0  0  0  0  0  0  0  0  0  0  0
  -20.8614   -6.9799   22.8779 C   0  0  0  0  0  0  0  0  0  0  0  0
  -19.3433   -6.9068   25.2172 C   0  0  0  0  0  0  0  0  0  0  0  0
  -21.1024   -5.9945   23.8352 C   0  0  0  0  0  0  0  0  0  0  0  0
  -24.5968  -11.6388   20.7051 C   0  0  0  0  0  0  0  0  0  0  0  0
  -25.2609  -13.7222   20.4740 C   0  0  0  0  0  0  0  0  0  0  0  0
  -22.8969  -13.4897   21.2526 C   0  0  0  0  0  0  0  0  0  0  0  0
  -33.4723  -28.1301   27.1681 C   0  0  0  0  0  0  0  0  0  0  0  0
  -30.8269  -28.4216   25.6424 C   0  0  0  0  0  0  0  0  0  0  0  0
  -28.1068  -28.3065   23.5869 C   0  0  0  0  0  0  0  0  0  0  0  0
  -30.7261  -14.7715   20.6554 C   0  0  0  0  0  0  0  0  0  0  0  0
  -35.3894  -32.6005   25.6196 C   0  0  0  0  0  0  0  0  0  0  0  0
  -33.2908  -25.7043   26.6685 C   0  0  0  0  0  0  0  0  0  0  0  0
  -30.6085  -26.4187   27.1920 C   0  0  0  0  0  0  0  0  0  0  0  0
  -34.0163  -32.0923   26.0515 C   0  0  0  0  0  0  0  0  0  0  0  0
  -29.6175  -12.3494   18.2929 C   0  0  0  0  0  0  0  0  0  0  0  0
  -34.1225  -31.3118   27.3578 C   0  0  0  0  0  0  0  0  0  0  0  0
  -28.1772  -12.0584   18.7208 C   0  0  0  0  0  0  0  0  0  0  0  0
  -30.5302  -12.5826   19.4955 C   0  0  0  0  0  0  0  0  0  0  0  0
  -28.6203  -13.3104   20.8709 C   0  0  0  0  0  0  0  0  0  0  0  0
  -35.0191  -30.0788   27.1924 C   0  0  1  0  0  0  0  0  0  0  0  0
  -32.8309  -27.1170   26.2660 C   0  0  1  0  0  0  0  0  0  0  0  0
  -27.6498  -13.1328   19.6918 C   0  0  2  0  0  0  0  0  0  0  0  0
  -34.8047  -18.5056   22.6684 C   0  0  0  0  0  0  0  0  0  0  0  0
  -27.8366  -23.1312   22.8774 C   0  0  0  0  0  0  0  0  0  0  0  0
  -26.4872  -29.7939   22.3779 C   0  0  0  0  0  0  0  0  0  0  0  0
  -29.3972  -28.9980   28.2744 C   0  0  0  0  0  0  0  0  0  0  0  0
  -27.3667  -29.6270   26.9518 C   0  0  0  0  0  0  0  0  0  0  0  0
  -29.4783  -30.9282   26.6863 C   0  0  0  0  0  0  0  0  0  0  0  0
  -27.1419  -21.2265   25.1444 C   0  0  0  0  0  0  0  0  0  0  0  0
  -28.9144  -27.2363   20.9485 C   0  0  0  0  0  0  0  0  0  0  0  0
  -34.1231  -17.5281   23.6224 C   0  0  0  0  0  0  0  0  0  0  0  0
  -29.5902  -19.2957   24.8357 C   0  0  0  0  0  0  0  0  0  0  0  0
  -28.5656  -23.0818   24.2155 C   0  0  0  0  0  0  0  0  0  0  0  0
  -29.3760  -20.6230   24.1012 C   0  0  0  0  0  0  0  0  0  0  0  0
  -29.3314  -28.5945   25.7251 C   0  0  1  0  0  0  0  0  0  0  0  0
  -27.7958  -29.0246   22.2861 C   0  0  2  0  0  0  0  0  0  0  0  0
  -28.9053  -29.5112   26.9064 C   0  0  0  0  0  0  0  0  0  0  0  0
  -28.5807  -21.6902   24.8832 C   0  0  2  0  0  0  0  0  0  1  0  0
  -25.8624  -11.5423   20.2894 N   0  0  0  0  0  0  0  0  0  0  0  0
  -26.2388  -12.8257   20.1577 N   0  0  0  0  0  0  0  0  0  0  0  0
  -31.3824  -27.3622   26.3702 N   0  0  0  0  0  0  0  0  0  0  0  0
  -29.9691  -13.6159   20.3685 N   0  0  0  0  0  0  0  0  0  0  0  0
  -25.4707  -15.0535   20.3971 N   0  0  0  0  0  0  0  0  0  0  0  0
  -21.8849  -12.5810   21.5910 N   0  0  0  0  0  0  0  0  0  0  0  0
  -30.0767  -15.6988   21.4696 N   0  0  0  0  0  0  0  0  0  0  0  0
  -34.3025  -29.0202   26.5139 N   0  0  0  0  0  0  0  0  0  0  0  0
  -28.9024  -29.0704   24.4145 N   0  0  0  0  0  0  0  0  0  0  0  0
  -27.6883  -28.0462   21.1672 N   0  3  0  0  0  0  0  0  0  0  0  0
  -22.6599  -14.7203   21.3056 O   0  0  0  0  0  0  0  0  0  0  0  0
  -33.2312  -28.1079   28.3693 O   0  0  0  0  0  0  0  0  0  0  0  0
  -31.4878  -29.2064   24.9564 O   0  0  0  0  0  0  0  0  0  0  0  0
  -27.6831  -27.1820   23.8448 O   0  0  0  0  0  0  0  0  0  0  0  0
  -31.8560  -14.9393   20.1893 O   0  0  0  0  0  0  0  0  0  0  0  0
  -21.6147   -7.0181   21.7165 O   0  0  0  0  0  0  0  0  0  0  0  0
  -29.2188  -21.8078   26.1541 O   0  0  0  0  0  0  0  0  0  1  0  0
  -18.6153   -6.8727   26.3411 F   0  0  0  0  0  0  0  0  0  0  0  0
  -22.0627   -5.0809   23.6373 F   0  0  0  0  0  0  0  0  0  0  0  0
  1  2  1  0  0  0  0
  1  5  2  0  0  0  0
  2  6  2  0  0  0  0
  3  8  2  0  0  0  0
  3 18  1  0  0  0  0
  4  9  1  0  0  0  0
  4 18  2  0  0  0  0
  5 20  1  0  0  0  0
  6 22  1  0  0  0  0
  7 10  2  0  0  0  0
  7 21  1  0  0  0  0
  8 27  1  0  0  0  0
  9 27  2  0  0  0  0
 10 28  1  0  0  0  0
 11 12  2  0  0  0  0
 11 29  1  0  0  0  0
 12 30  1  0  0  0  0
 13 23  1  0  0  0  0
 13 28  2  0  0  0  0
 14 24  1  0  0  0  0
 14 25  2  0  0  0  0
 15 24  2  0  0  0  0
 15 26  1  0  0  0  0
 16 25  1  0  0  0  0
 16 26  2  0  0  0  0
 17 30  2  0  0  0  0
 17 31  1  0  0  0  0
 18 32  1  0  0  0  0
 19 32  1  0  0  0  0
 19 33  2  0  0  0  0
 19 34  1  0  0  0  0
 20 22  2  0  0  0  0
 20 39  1  0  0  0  0
 21 23  2  0  0  0  0
 21 40  1  0  0  0  0
 22 48  1  0  0  0  0
 23 41  1  0  0  0  0
 24 59  1  0  0  0  0
 25 60  1  0  0  0  0
 26 73  1  0  0  0  0
 27 82  1  0  0  0  0
 28 83  1  0  0  0  0
 29 31  2  0  0  0  0
 29 82  1  0  0  0  0
 30 84  1  0  0  0  0
 31 85  1  0  0  0  0
 32 67  2  0  0  0  0
 33 68  1  0  0  0  0
 33 71  1  0  0  0  0
 34 72  1  0  0  0  0
 34 77  2  0  0  0  0
 35 49  1  0  0  0  0
 35 74  1  0  0  0  0
 35 78  2  0  0  0  0
 36 63  1  0  0  0  0
 36 69  1  0  0  0  0
 36 79  2  0  0  0  0
 37 64  1  0  0  0  0
 37 75  1  0  0  0  0
 37 80  2  0  0  0  0
 38 70  1  0  0  0  0
 38 73  1  0  0  0  0
 38 81  2  0  0  0  0
 39 42  1  0  0  0  0
 40 49  1  0  0  0  0
 41 69  1  0  0  0  0
 42 44  1  0  0  0  0
 43 45  1  0  0  0  0
 43 46  1  0  0  0  0
 44 48  1  0  0  0  0
 45 50  1  0  0  0  0
 46 70  1  0  0  0  0
 47 50  1  0  0  0  0
 47 70  1  0  0  0  0
 48 74  1  0  0  0  0
 49 69  1  0  0  0  0
 50 68  1  0  0  0  0
 51 59  1  0  0  0  0
 52 61  1  0  0  0  0
 53 64  1  0  0  0  0
 54 65  1  0  0  0  0
 55 65  1  0  0  0  0
 56 65  1  0  0  0  0
 57 66  1  0  0  0  0
 58 76  1  0  0  0  0
 60 62  1  0  0  0  0
 61 66  1  0  0  0  0
 62 66  1  0  0  0  0
 63 65  1  0  0  0  0
 63 75  1  0  0  0  0
 64 76  1  0  0  0  0
 66 83  1  0  0  0  0
 67 68  1  0  0  0  0
M  CHG  1  76   1
M  ISO  4  38 100  66 101  73 100  83 101
M  END
> <Batch ID>
0138

> <Smiles>
CCc1cc(CC[101C:1](C)(CC)[101O:1]c2ccc3c(c2)CN(C(=O)C(NC(=O)C(C)NC)C(C)(C)C)C(C(=O)NC2CCCc4ccccc42)C3)cc([100NH:0][100C:0](=O)N2CCCC(n3nc(-c4ccc(Oc5ccc(F)cc5F)cc4)c(C(N)=O)c3N)C2)c1

> <Shape>
0.194

> <Color>
0.191

> <Negative vol penalty>
0.000

$$$$

  -OEChem-04052302453D

 84 92  0     1  0  0  0  0  0999 V2000
  -29.1510  -34.8294   24.3586 C   0  0  0  0  0  0  0  0  0  0  0  0
  -29.1724  -33.4933   23.9716 C   0  0  0  0  0  0  0  0  0  0  0  0
  -22.3940  -10.4549   21.0563 C   0  0  0  0  0  0  0  0  0  0  0  0
  -24.2754   -9.4057   22.1503 C   0  0  0  0  0  0  0  0  0  0  0  0
  -27.9655  -35.4021   24.8174 C   0  0  0  0  0  0  0  0  0  0  0  0
  -28.0085  -32.7288   24.0443 C   0  0  0  0  0  0  0  0  0  0  0  0
  -27.2752  -29.9082   19.9029 C   0  0  0  0  0  0  0  0  0  0  0  0
  -21.7927   -9.2070   20.8936 C   0  0  0  0  0  0  0  0  0  0  0  0
  -23.6740   -8.1577   21.9875 C   0  0  0  0  0  0  0  0  0  0  0  0
  -28.0268  -28.7397   19.7871 C   0  0  0  0  0  0  0  0  0  0  0  0
  -21.2319   -6.3582   23.4771 C   0  0  0  0  0  0  0  0  0  0  0  0
  -21.2346   -5.4917   24.5701 C   0  0  0  0  0  0  0  0  0  0  0  0
  -26.1333  -27.4534   20.5480 C   0  0  0  0  0  0  0  0  0  0  0  0
  -22.4710   -3.8665   23.2789 C   0  0  0  0  0  0  0  0  0  0  0  0
  -23.6355  -10.5543   21.6846 C   0  0  0  0  0  0  0  0  0  0  0  0
  -24.1130  -12.7211   22.9435 C   0  0  0  0  0  0  0  0  0  0  0  0
  -26.7842  -34.6469   24.8866 C   0  0  0  0  0  0  0  0  0  0  0  0
  -25.9481  -29.8591   20.3533 C   0  0  0  0  0  0  0  0  0  0  0  0
  -26.8064  -33.2916   24.5058 C   0  0  0  0  0  0  0  0  0  0  0  0
  -25.3661  -28.6224   20.6662 C   0  0  0  0  0  0  0  0  0  0  0  0
  -22.4326   -8.0584   21.3592 C   0  0  0  0  0  0  0  0  0  0  0  0
  -27.4568  -27.5124   20.1124 C   0  0  0  0  0  0  0  0  0  0  0  0
  -21.8488   -5.9788   22.2848 C   0  0  0  0  0  0  0  0  0  0  0  0
  -21.8541   -4.2459   24.4711 C   0  0  0  0  0  0  0  0  0  0  0  0
  -22.4683   -4.7330   22.1858 C   0  0  0  0  0  0  0  0  0  0  0  0
  -24.2575  -11.8431   21.8525 C   0  0  0  0  0  0  0  0  0  0  0  0
  -24.9015  -13.7992   22.6233 C   0  0  0  0  0  0  0  0  0  0  0  0
  -26.9056  -19.2455   15.8755 C   0  0  0  0  0  0  0  0  0  0  0  0
  -27.3745  -20.4443   16.2521 C   0  0  0  0  0  0  0  0  0  0  0  0
  -27.9925  -20.5836   17.5757 C   0  0  0  0  0  0  0  0  0  0  0  0
  -27.8917  -19.5781   18.4837 C   0  0  0  0  0  0  0  0  0  0  0  0
  -23.3357  -12.5751   24.1393 C   0  0  0  0  0  0  0  0  0  0  0  0
  -24.3810  -31.0495   22.8495 C   0  0  0  0  0  0  0  0  0  0  0  0
  -28.3733  -24.2090   18.9224 C   0  0  0  0  0  0  0  0  0  0  0  0
  -21.7963  -29.8337   21.3123 C   0  0  0  0  0  0  0  0  0  0  0  0
  -20.5514  -27.5698   19.0824 C   0  0  0  0  0  0  0  0  0  0  0  0
  -26.6673  -17.5625   19.1842 C   0  0  0  0  0  0  0  0  0  0  0  0
  -25.5381  -35.2968   25.4339 C   0  0  0  0  0  0  0  0  0  0  0  0
  -25.1423  -31.1257   20.4473 C   0  0  0  0  0  0  0  0  0  0  0  0
  -23.9389  -28.5135   21.1350 C   0  0  0  0  0  0  0  0  0  0  0  0
  -26.9827  -18.0401   16.7482 C   0  0  0  0  0  0  0  0  0  0  0  0
  -24.2606  -34.5198   25.1265 C   0  0  0  0  0  0  0  0  0  0  0  0
  -28.3215  -14.4289   18.9673 C   0  0  0  0  0  0  0  0  0  0  0  0
  -24.4534  -33.0362   25.4244 C   0  0  0  0  0  0  0  0  0  0  0  0
  -27.3831  -13.5335   19.7736 C   0  0  0  0  0  0  0  0  0  0  0  0
  -27.5611  -15.4477   18.1159 C   0  0  0  0  0  0  0  0  0  0  0  0
  -25.6491  -15.3594   19.6911 C   0  0  0  0  0  0  0  0  0  0  0  0
  -25.5586  -32.4364   24.5468 C   0  0  1  0  0  0  0  0  0  0  0  0
  -23.9618  -31.0130   21.4071 C   0  0  1  0  0  0  0  0  0  0  0  0
  -26.4003  -14.3778   20.6022 C   0  0  1  0  0  0  0  0  0  0  0  0
  -27.2812  -21.6219   15.3225 C   0  0  0  0  0  0  0  0  0  0  0  0
  -29.9213  -19.1192   19.8178 C   0  0  0  0  0  0  0  0  0  0  0  0
  -18.3951  -26.7911   18.0620 C   0  0  0  0  0  0  0  0  0  0  0  0
  -21.1064  -28.3653   23.8965 C   0  0  0  0  0  0  0  0  0  0  0  0
  -19.5575  -26.9095   22.5738 C   0  0  0  0  0  0  0  0  0  0  0  0
  -19.1456  -29.3660   22.7099 C   0  0  0  0  0  0  0  0  0  0  0  0
  -21.4499  -28.2839   16.3545 C   0  0  0  0  0  0  0  0  0  0  0  0
  -28.6660  -21.9061   17.8598 C   0  0  0  0  0  0  0  0  0  0  0  0
  -28.5165  -19.6658   19.8589 C   0  0  0  0  0  0  0  0  0  0  0  0
  -27.7290  -22.8794   18.5556 C   0  0  0  0  0  0  0  0  0  0  0  0
  -27.4948  -25.1707   19.6988 C   0  0  0  0  0  0  0  0  0  1  0  0
  -21.0744  -28.5078   21.3187 C   0  0  1  0  0  0  0  0  0  0  0  0
  -19.5863  -27.7259   17.9211 C   0  0  2  0  0  0  0  0  0  0  0  0
  -20.2485  -28.2891   22.6178 C   0  0  0  0  0  0  0  0  0  0  0  0
  -25.0734  -12.3220   20.9097 N   0  0  0  0  0  0  0  0  0  0  0  0
  -25.4487  -13.5127   21.4073 N   0  0  0  0  0  0  0  0  0  0  0  0
  -27.2412  -18.3673   18.1655 N   0  0  0  0  0  0  0  0  0  0  0  0
  -23.1941  -29.7808   21.2166 N   0  0  0  0  0  0  0  0  0  0  0  0
  -26.5813  -16.1855   18.9212 N   0  0  0  0  0  0  0  0  0  0  0  0
  -25.1731  -14.9548   23.2661 N   0  0  0  0  0  0  0  0  0  0  0  0
  -22.5835  -11.4047   24.3086 N   0  0  0  0  0  0  0  0  0  0  0  0
  -25.0656  -32.1951   23.2076 N   0  0  0  0  0  0  0  0  0  0  0  0
  -20.2831  -28.4679   20.0937 N   0  0  0  0  0  0  0  0  0  0  0  0
  -20.2721  -27.4225   16.6333 N   0  3  0  0  0  0  0  0  0  0  0  0
  -23.2960  -13.4637   25.0238 O   0  0  0  0  0  0  0  0  0  0  0  0
  -24.1026  -30.1086   23.5836 O   0  0  0  0  0  0  0  0  0  0  0  0
  -29.5351  -24.4868   18.6298 O   0  0  0  0  0  0  0  0  0  0  0  0
  -21.1435  -30.8780   21.3821 O   0  0  0  0  0  0  0  0  0  0  0  0
  -21.4508  -26.7323   19.0931 O   0  0  0  0  0  0  0  0  0  0  0  0
  -26.2165  -18.0470   20.2298 O   0  0  0  0  0  0  0  0  0  0  0  0
  -21.8460   -6.8404   21.2008 O   0  0  0  0  0  0  0  0  0  0  0  0
  -28.1961  -26.3585   19.9997 O   0  0  0  0  0  0  0  0  0  1  0  0
  -21.8579   -3.4146   25.5214 F   0  0  0  0  0  0  0  0  0  0  0  0
  -23.0635   -4.3635   21.0435 F   0  0  0  0  0  0  0  0  0  0  0  0
  1  2  1  0  0  0  0
  1  5  2  0  0  0  0
  2  6  2  0  0  0  0
  3  8  2  0  0  0  0
  3 15  1  0  0  0  0
  4  9  1  0  0  0  0
  4 15  2  0  0  0  0
  5 17  1  0  0  0  0
  6 19  1  0  0  0  0
  7 10  2  0  0  0  0
  7 18  1  0  0  0  0
  8 21  1  0  0  0  0
  9 21  2  0  0  0  0
 10 22  1  0  0  0  0
 11 12  2  0  0  0  0
 11 23  1  0  0  0  0
 12 24  1  0  0  0  0
 13 20  1  0  0  0  0
 13 22  2  0  0  0  0
 14 24  2  0  0  0  0
 14 25  1  0  0  0  0
 15 26  1  0  0  0  0
 16 26  1  0  0  0  0
 16 27  2  0  0  0  0
 16 32  1  0  0  0  0
 17 19  2  0  0  0  0
 17 38  1  0  0  0  0
 18 20  2  0  0  0  0
 18 39  1  0  0  0  0
 19 48  1  0  0  0  0
 20 40  1  0  0  0  0
 21 81  1  0  0  0  0
 22 82  1  0  0  0  0
 23 25  2  0  0  0  0
 23 81  1  0  0  0  0
 24 83  1  0  0  0  0
 25 84  1  0  0  0  0
 26 65  2  0  0  0  0
 27 66  1  0  0  0  0
 27 70  1  0  0  0  0
 28 29  2  0  0  0  0
 28 41  1  0  0  0  0
 29 30  1  0  0  0  0
 29 51  1  0  0  0  0
 30 31  2  0  0  0  0
 30 58  1  0  0  0  0
 31 59  1  0  0  0  0
 31 67  1  0  0  0  0
 32 71  1  0  0  0  0
 32 75  2  0  0  0  0
 33 49  1  0  0  0  0
 33 72  1  0  0  0  0
 33 76  2  0  0  0  0
 34 60  1  0  0  0  0
 34 61  1  0  0  0  0
 34 77  2  0  0  0  0
 35 62  1  0  0  0  0
 35 68  1  0  0  0  0
 35 78  2  0  0  0  0
 36 63  1  0  0  0  0
 36 73  1  0  0  0  0
 36 79  2  0  0  0  0
 37 67  1  0  0  0  0
 37 69  1  0  0  0  0
 37 80  2  0  0  0  0
 38 42  1  0  0  0  0
 39 49  1  0  0  0  0
 40 68  1  0  0  0  0
 41 67  1  0  0  0  0
 42 44  1  0  0  0  0
 43 45  1  0  0  0  0
 43 46  1  0  0  0  0
 44 48  1  0  0  0  0
 45 50  1  0  0  0  0
 46 69  1  0  0  0  0
 47 50  1  0  0  0  0
 47 69  1  0  0  0  0
 48 72  1  0  0  0  0
 49 68  1  0  0  0  0
 50 66  1  0  0  0  0
 52 59  1  0  0  0  0
 53 63  1  0  0  0  0
 54 64  1  0  0  0  0
 55 64  1  0  0  0  0
 56 64  1  0  0  0  0
 57 74  1  0  0  0  0
 58 60  1  0  0  0  0
 61 82  1  0  0  0  0
 62 64  1  0  0  0  0
 62 73  1  0  0  0  0
 63 74  1  0  0  0  0
 65 66  1  0  0  0  0
M  CHG  1  74   1
M  ISO  4  37 100  61 101  67 100  82 101
M  END
> <Batch ID>
0138

> <Smiles>
CCC1=C(CCC(=O)[101CH2:1][101O:1]c2ccc3c(c2)CN(C(=O)C(NC(=O)C(C)NC)C(C)(C)C)C(C(=O)NC2CCCc4ccccc42)C3)C(C)=CC[100N:0]1[100C:0](=O)N1CCCC(n2nc(-c3ccc(Oc4ccc(F)cc4F)cc3)c(C(N)=O)c2N)C1

> <Shape>
0.320

> <Color>
0.114

> <Negative vol penalty>
0.000

$$$$

  -OEChem-04052302453D

 88 96  0     1  0  0  0  0  0999 V2000
  -33.3193  -28.6878   16.8609 C   0  0  0  0  0  0  0  0  0  0  0  0
  -32.1941  -28.0565   17.3813 C   0  0  0  0  0  0  0  0  0  0  0  0
  -24.4645   -9.9621   19.1591 C   0  0  0  0  0  0  0  0  0  0  0  0
  -24.1793   -9.7584   21.5495 C   0  0  0  0  0  0  0  0  0  0  0  0
  -33.9323  -29.7170   17.5744 C   0  0  0  0  0  0  0  0  0  0  0  0
  -31.6819  -28.4532   18.6161 C   0  0  0  0  0  0  0  0  0  0  0  0
  -26.6394  -28.9181   18.5690 C   0  0  0  0  0  0  0  0  0  0  0  0
  -24.0577   -8.6377   18.9977 C   0  0  0  0  0  0  0  0  0  0  0  0
  -23.7725   -8.4339   21.3881 C   0  0  0  0  0  0  0  0  0  0  0  0
  -25.8910  -27.7442   18.6438 C   0  0  0  0  0  0  0  0  0  0  0  0
  -29.6172  -18.5854   17.0351 C   0  0  0  0  0  0  0  0  0  0  0  0
  -20.9711   -6.7856   20.4629 C   0  0  0  0  0  0  0  0  0  0  0  0
  -29.9148  -19.8487   16.5241 C   0  0  0  0  0  0  0  0  0  0  0  0
  -19.8493   -6.3624   21.1756 C   0  0  0  0  0  0  0  0  0  0  0  0
  -25.5345  -28.1287   20.9984 C   0  0  0  0  0  0  0  0  0  0  0  0
  -28.8185  -19.5996   19.0773 C   0  0  0  0  0  0  0  0  0  0  0  0
  -21.1881   -4.6869   22.2881 C   0  0  0  0  0  0  0  0  0  0  0  0
  -24.5253  -10.5224   20.4351 C   0  0  0  0  0  0  0  0  0  0  0  0
  -24.1292  -13.0369   20.6030 C   0  0  0  0  0  0  0  0  0  0  0  0
  -33.4216  -30.1330   18.8140 C   0  0  0  0  0  0  0  0  0  0  0  0
  -26.8505  -29.7018   19.7125 C   0  0  0  0  0  0  0  0  0  0  0  0
  -32.2894  -29.4879   19.3474 C   0  0  0  0  0  0  0  0  0  0  0  0
  -26.2838  -29.3135   20.9349 C   0  0  0  0  0  0  0  0  0  0  0  0
  -29.1161  -20.8629   18.5663 C   0  0  0  0  0  0  0  0  0  0  0  0
  -23.7117   -7.8736   20.1121 C   0  0  0  0  0  0  0  0  0  0  0  0
  -25.3409  -27.3478   19.8593 C   0  0  0  0  0  0  0  0  0  0  0  0
  -29.0690  -18.4608   18.3117 C   0  0  0  0  0  0  0  0  0  0  0  0
  -22.2015   -6.1595   20.6627 C   0  0  0  0  0  0  0  0  0  0  0  0
  -19.9577   -5.3131   22.0882 C   0  0  0  0  0  0  0  0  0  0  0  0
  -29.6643  -20.9874   17.2897 C   0  0  0  0  0  0  0  0  0  0  0  0
  -22.3099   -5.1102   21.5753 C   0  0  0  0  0  0  0  0  0  0  0  0
  -24.9460  -11.8903   20.6025 C   0  0  0  0  0  0  0  0  0  0  0  0
  -25.0017  -14.0799   20.7968 C   0  0  0  0  0  0  0  0  0  0  0  0
  -22.7089  -13.1492   20.4427 C   0  0  0  0  0  0  0  0  0  0  0  0
  -29.4070  -30.6121   21.3675 C   0  0  0  0  0  0  0  0  0  0  0  0
  -24.6176  -23.7970   19.6481 C   0  0  0  0  0  0  0  0  0  0  0  0
  -27.2373  -32.3921   22.9943 C   0  0  0  0  0  0  0  0  0  0  0  0
  -23.9915  -32.8457   23.9461 C   0  0  0  0  0  0  0  0  0  0  0  0
  -29.8224  -16.6018   19.5304 C   0  0  0  0  0  0  0  0  0  0  0  0
  -34.1463  -31.2180   19.5705 C   0  0  0  0  0  0  0  0  0  0  0  0
  -27.6377  -30.9793   19.6095 C   0  0  0  0  0  0  0  0  0  0  0  0
  -26.4639  -30.1302   22.1875 C   0  0  0  0  0  0  0  0  0  0  0  0
  -33.3194  -31.8312   20.6976 C   0  0  0  0  0  0  0  0  0  0  0  0
  -29.8737  -14.1093   22.1272 C   0  0  0  0  0  0  0  0  0  0  0  0
  -32.6537  -30.7378   21.5271 C   0  0  0  0  0  0  0  0  0  0  0  0
  -28.5441  -13.3803   21.9357 C   0  0  0  0  0  0  0  0  0  0  0  0
  -30.4598  -14.5630   20.7940 C   0  0  0  0  0  0  0  0  0  0  0  0
  -28.1955  -14.6804   19.7883 C   0  0  0  0  0  0  0  0  0  0  0  0
  -31.6895  -29.9066   20.6721 C   0  0  1  0  0  0  0  0  0  0  0  0
  -28.2205  -31.4314   20.9449 C   0  0  1  0  0  0  0  0  0  0  0  0
  -27.5594  -14.2331   21.1157 C   0  0  1  0  0  0  0  0  0  0  0  0
  -22.5319  -34.3678   25.3062 C   0  0  0  0  0  0  0  0  0  0  0  0
  -27.2462  -23.5058   20.7011 C   0  0  0  0  0  0  0  0  0  0  0  0
  -24.4829  -21.2739   19.6009 C   0  0  0  0  0  0  0  0  0  0  0  0
  -24.0985  -22.5620   17.5182 C   0  0  0  0  0  0  0  0  0  0  0  0
  -28.2965  -31.1154   25.5552 C   0  0  0  0  0  0  0  0  0  0  0  0
  -26.2335  -31.9173   26.7255 C   0  0  0  0  0  0  0  0  0  0  0  0
  -27.8206  -33.5644   25.7300 C   0  0  0  0  0  0  0  0  0  0  0  0
  -22.3722  -33.5937   21.5844 C   0  0  0  0  0  0  0  0  0  0  0  0
  -28.8432  -22.0947   19.3970 C   0  0  0  0  0  0  0  0  0  0  0  0
  -24.9406  -25.1520   19.0381 C   0  0  0  0  0  0  0  0  0  1  0  0
  -26.4480  -22.4341   18.5427 C   0  0  0  0  0  0  0  0  0  0  0  0
  -26.3642  -32.1691   24.2055 C   0  0  1  0  0  0  0  0  0  0  0  0
  -23.0980  -34.0727   23.9259 C   0  0  2  0  0  0  0  0  0  0  0  0
  -27.3573  -22.2743   19.7903 C   0  0  2  0  0  0  0  0  0  0  0  0
  -24.9212  -22.5274   18.8180 C   0  0  0  0  0  0  0  0  0  0  0  0
  -27.1767  -32.1749   25.5310 C   0  0  0  0  0  0  0  0  0  0  0  0
  -26.2381  -12.1776   20.7817 N   0  0  0  0  0  0  0  0  0  0  0  0
  -26.2398  -13.5166   20.8964 N   0  0  0  0  0  0  0  0  0  0  0  0
  -27.2470  -31.3678   22.0370 N   0  0  0  0  0  0  0  0  0  0  0  0
  -29.4860  -15.3381   20.0265 N   0  0  0  0  0  0  0  0  0  0  0  0
  -24.8228  -15.4147   20.8900 N   0  0  0  0  0  0  0  0  0  0  0  0
  -21.9632  -11.9777   20.2531 N   0  0  0  0  0  0  0  0  0  0  0  0
  -30.4513  -30.6260   20.4627 N   0  0  0  0  0  0  0  0  0  0  0  0
  -25.3145  -33.1804   24.1436 N   0  0  0  0  0  0  0  0  0  0  0  0
  -21.9604  -33.8697   22.9849 N   0  3  0  0  0  0  0  0  0  0  0  0
  -22.1204  -14.2569   20.4504 O   0  0  0  0  0  0  0  0  0  0  0  0
  -29.3779  -30.0130   22.4361 O   0  0  0  0  0  0  0  0  0  0  0  0
  -24.0987  -23.7252   20.7651 O   0  0  0  0  0  0  0  0  0  0  0  0
  -27.8814  -33.4397   22.8977 O   0  0  0  0  0  0  0  0  0  0  0  0
  -23.5587  -31.7041   23.8047 O   0  0  0  0  0  0  0  0  0  0  0  0
  -30.9170  -17.1399   19.6925 O   0  0  0  0  0  0  0  0  0  0  0  0
  -23.3145   -6.5813   19.9550 O   0  0  0  0  0  0  0  0  0  0  0  0
  -28.7715  -17.1942   18.8245 O   0  0  0  0  0  0  0  0  0  0  0  0
  -24.6035  -26.1910   19.9360 O   0  0  0  0  0  0  0  0  0  1  0  0
  -18.8807   -4.9078   22.7737 F   0  0  0  0  0  0  0  0  0  0  0  0
  -29.9535  -22.1973   16.7905 F   0  0  0  0  0  0  0  0  0  0  0  0
  -23.4895   -4.5055   21.7724 F   0  0  0  0  0  0  0  0  0  0  0  0
  1  2  1  0  0  0  0
  1  5  2  0  0  0  0
  2  6  2  0  0  0  0
  3  8  2  0  0  0  0
  3 18  1  0  0  0  0
  4  9  1  0  0  0  0
  4 18  2  0  0  0  0
  5 20  1  0  0  0  0
  6 22  1  0  0  0  0
  7 10  2  0  0  0  0
  7 21  1  0  0  0  0
  8 25  1  0  0  0  0
  9 25  2  0  0  0  0
 10 26  1  0  0  0  0
 11 13  2  0  0  0  0
 11 27  1  0  0  0  0
 12 14  2  0  0  0  0
 12 28  1  0  0  0  0
 13 30  1  0  0  0  0
 14 29  1  0  0  0  0
 15 23  1  0  0  0  0
 15 26  2  0  0  0  0
 16 24  1  0  0  0  0
 16 27  2  0  0  0  0
 17 29  2  0  0  0  0
 17 31  1  0  0  0  0
 18 32  1  0  0  0  0
 19 32  1  0  0  0  0
 19 33  2  0  0  0  0
 19 34  1  0  0  0  0
 20 22  2  0  0  0  0
 20 40  1  0  0  0  0
 21 23  2  0  0  0  0
 21 41  1  0  0  0  0
 22 49  1  0  0  0  0
 23 42  1  0  0  0  0
 24 30  2  0  0  0  0
 24 60  1  0  0  0  0
 25 83  1  0  0  0  0
 26 85  1  0  0  0  0
 27 84  1  0  0  0  0
 28 31  2  0  0  0  0
 28 83  1  0  0  0  0
 29 86  1  0  0  0  0
 30 87  1  0  0  0  0
 31 88  1  0  0  0  0
 32 68  2  0  0  0  0
 33 69  1  0  0  0  0
 33 72  1  0  0  0  0
 34 73  1  0  0  0  0
 34 77  2  0  0  0  0
 35 50  1  0  0  0  0
 35 74  1  0  0  0  0
 35 78  2  0  0  0  0
 36 61  1  0  0  0  0
 36 66  1  0  0  0  0
 36 79  2  0  0  0  0
 37 63  1  0  0  0  0
 37 70  1  0  0  0  0
 37 80  2  0  0  0  0
 38 64  1  0  0  0  0
 38 75  1  0  0  0  0
 38 81  2  0  0  0  0
 39 71  1  0  0  0  0
 39 82  2  0  0  0  0
 39 84  1  0  0  0  0
 40 43  1  0  0  0  0
 41 50  1  0  0  0  0
 42 70  1  0  0  0  0
 43 45  1  0  0  0  0
 44 46  1  0  0  0  0
 44 47  1  0  0  0  0
 45 49  1  0  0  0  0
 46 51  1  0  0  0  0
 47 71  1  0  0  0  0
 48 51  1  0  0  0  0
 48 71  1  0  0  0  0
 49 74  1  0  0  0  0
 50 70  1  0  0  0  0
 51 69  1  0  0  0  0
 52 64  1  0  0  0  0
 53 65  1  0  0  0  0
 54 66  1  0  0  0  0
 55 66  1  0  0  0  0
 56 67  1  0  0  0  0
 57 67  1  0  0  0  0
 58 67  1  0  0  0  0
 59 76  1  0  0  0  0
 60 65  1  0  0  0  0
 61 85  1  0  0  0  0
 62 65  1  0  0  0  0
 62 66  1  0  0  0  0
 63 67  1  0  0  0  0
 63 75  1  0  0  0  0
 64 76  1  0  0  0  0
 68 69  1  0  0  0  0
M  CHG  1  76   1
M  ISO  4  39 100  61 101  84 100  85 101
M  END
> <Batch ID>
0138

> <Smiles>
CNC(C)C(=O)NC(C(=O)N1Cc2cc([101O:1][101CH2:1]C(=O)C(C)(C)CC(C)Cc3cc([100O:0][100C:0](=O)N4CCCC(n5nc(-c6ccc(Oc7ccc(F)cc7F)cc6)c(C(N)=O)c5N)C4)ccc3F)ccc2CC1C(=O)NC1CCCc2ccccc21)C(C)(C)C

> <Shape>
0.246

> <Color>
0.132

> <Negative vol penalty>
0.000

$$$$

  -OEChem-04052302453D

 85 93  0     1  0  0  0  0  0999 V2000
  -29.1468  -33.1040   25.1893 C   0  0  0  0  0  0  0  0  0  0  0  0
  -28.8413  -31.7609   25.3852 C   0  0  0  0  0  0  0  0  0  0  0  0
  -23.0952   -9.7488   19.9544 C   0  0  0  0  0  0  0  0  0  0  0  0
  -23.7350   -9.9036   22.2790 C   0  0  0  0  0  0  0  0  0  0  0  0
  -28.1903  -33.9640   24.6514 C   0  0  0  0  0  0  0  0  0  0  0  0
  -27.5787  -31.2773   25.0442 C   0  0  0  0  0  0  0  0  0  0  0  0
  -27.7928  -26.8769   22.5472 C   0  0  0  0  0  0  0  0  0  0  0  0
  -22.3573   -8.5986   20.2340 C   0  0  0  0  0  0  0  0  0  0  0  0
  -22.9970   -8.7534   22.5586 C   0  0  0  0  0  0  0  0  0  0  0  0
  -28.0215  -25.7271   23.3018 C   0  0  0  0  0  0  0  0  0  0  0  0
  -23.3678   -5.4105   22.2145 C   0  0  0  0  0  0  0  0  0  0  0  0
  -23.9610   -4.4404   23.0222 C   0  0  0  0  0  0  0  0  0  0  0  0
  -25.6631  -25.2240   23.2388 C   0  0  0  0  0  0  0  0  0  0  0  0
  -31.8325  -16.7788   22.5985 C   0  0  0  0  0  0  0  0  0  0  0  0
  -31.5478  -18.6186   24.1383 C   0  0  0  0  0  0  0  0  0  0  0  0
  -22.1709   -4.6818   24.6267 C   0  0  0  0  0  0  0  0  0  0  0  0
  -23.7841  -10.4012   20.9768 C   0  0  0  0  0  0  0  0  0  0  0  0
  -24.0926  -12.9210   20.7251 C   0  0  0  0  0  0  0  0  0  0  0  0
  -26.9185  -33.4887   24.2947 C   0  0  0  0  0  0  0  0  0  0  0  0
  -26.4939  -27.2152   22.1413 C   0  0  0  0  0  0  0  0  0  0  0  0
  -26.6038  -32.1321   24.5023 C   0  0  0  0  0  0  0  0  0  0  0  0
  -25.4209  -26.3773   22.4769 C   0  0  0  0  0  0  0  0  0  0  0  0
  -29.6229  -17.6455   23.0497 C   0  0  0  0  0  0  0  0  0  0  0  0
  -30.4544  -16.7433   22.3861 C   0  0  0  0  0  0  0  0  0  0  0  0
  -22.3082   -8.1009   21.5361 C   0  0  0  0  0  0  0  0  0  0  0  0
  -26.9562  -24.9020   23.6502 C   0  0  0  0  0  0  0  0  0  0  0  0
  -22.1761   -6.0164   22.6128 C   0  0  0  0  0  0  0  0  0  0  0  0
  -30.1696  -18.5832   23.9258 C   0  0  0  0  0  0  0  0  0  0  0  0
  -23.3625   -4.0760   24.2283 C   0  0  0  0  0  0  0  0  0  0  0  0
  -32.3792  -17.7164   23.4747 C   0  0  0  0  0  0  0  0  0  0  0  0
  -21.5777   -5.6520   23.8189 C   0  0  0  0  0  0  0  0  0  0  0  0
  -24.5470  -11.5891   20.6885 C   0  0  0  0  0  0  0  0  0  0  0  0
  -25.1904  -13.6681   20.3741 C   0  0  0  0  0  0  0  0  0  0  0  0
  -22.7943  -13.4368   21.0476 C   0  0  0  0  0  0  0  0  0  0  0  0
  -24.5426  -29.6660   22.6794 C   0  0  0  0  0  0  0  0  0  0  0  0
  -28.3207  -21.6477   24.4741 C   0  0  0  0  0  0  0  0  0  0  0  0
  -22.6799  -28.1595   20.4923 C   0  0  0  0  0  0  0  0  0  0  0  0
  -21.8274  -25.2502   18.9253 C   0  0  0  0  0  0  0  0  0  0  0  0
  -30.6234  -14.8230   20.7643 C   0  0  0  0  0  0  0  0  0  0  0  0
  -25.9017  -34.4662   23.7606 C   0  0  0  0  0  0  0  0  0  0  0  0
  -26.2676  -28.4448   21.3050 C   0  0  0  0  0  0  0  0  0  0  0  0
  -24.0102  -26.6852   22.0486 C   0  0  0  0  0  0  0  0  0  0  0  0
  -24.7126  -33.7957   23.0773 C   0  0  0  0  0  0  0  0  0  0  0  0
  -29.6707  -12.2549   18.4895 C   0  0  0  0  0  0  0  0  0  0  0  0
  -24.1843  -32.6472   23.9309 C   0  0  0  0  0  0  0  0  0  0  0  0
  -28.2154  -11.9623   18.8618 C   0  0  0  0  0  0  0  0  0  0  0  0
  -30.5186  -12.5703   19.7205 C   0  0  0  0  0  0  0  0  0  0  0  0
  -28.5316  -13.3387   20.9577 C   0  0  0  0  0  0  0  0  0  0  0  0
  -25.2534  -31.5646   24.1219 C   0  0  1  0  0  0  0  0  0  0  0  0
  -24.8356  -28.9652   21.3830 C   0  0  1  0  0  0  0  0  0  0  0  0
  -27.6240  -13.0791   19.7442 C   0  0  2  0  0  0  0  0  0  0  0  0
  -27.7459  -18.2519   21.5019 C   0  0  0  0  0  0  0  0  0  0  0  0
  -20.2434  -24.3263   17.2121 C   0  0  0  0  0  0  0  0  0  0  0  0
  -20.4139  -28.2673   22.5329 C   0  0  0  0  0  0  0  0  0  0  0  0
  -19.2075  -26.5398   21.1806 C   0  0  0  0  0  0  0  0  0  0  0  0
  -19.7246  -28.7661   20.1812 C   0  0  0  0  0  0  0  0  0  0  0  0
  -24.0472  -24.3984   17.1629 C   0  0  0  0  0  0  0  0  0  0  0  0
  -28.1434  -17.6152   22.8290 C   0  0  0  0  0  0  0  0  0  0  0  0
  -28.4418  -23.1382   24.2316 C   0  0  0  0  0  0  0  0  0  1  0  0
  -29.6049  -20.8529   24.3562 C   0  0  0  0  0  0  0  0  0  0  0  0
  -21.5976  -27.1088   20.5522 C   0  0  1  0  0  0  0  0  0  0  0  0
  -21.6222  -24.9190   17.4581 C   0  0  2  0  0  0  0  0  0  0  0  0
  -20.2621  -27.6654   21.1216 C   0  0  0  0  0  0  0  0  0  0  0  0
  -25.8332  -11.4924   20.3415 N   0  0  0  0  0  0  0  0  0  0  0  0
  -26.1963  -12.7731   20.1567 N   0  0  0  0  0  0  0  0  0  0  0  0
  -23.8392  -27.9020   21.2376 N   0  0  0  0  0  0  0  0  0  0  0  0
  -29.8990  -13.6400   20.5057 N   0  0  0  0  0  0  0  0  0  0  0  0
  -25.3837  -14.9967   20.2332 N   0  0  0  0  0  0  0  0  0  0  0  0
  -21.7804  -12.5303   21.3862 N   0  0  0  0  0  0  0  0  0  0  0  0
  -29.9202  -15.7820   21.4925 N   0  0  0  0  0  0  0  0  0  0  0  0
  -25.3640  -30.7481   22.9321 N   0  0  0  0  0  0  0  0  0  0  0  0
  -21.4893  -26.5571   19.2060 N   0  0  0  0  0  0  0  0  0  0  0  0
  -22.6447  -23.9359   17.0010 N   0  3  0  0  0  0  0  0  0  0  0  0
  -22.5364  -14.6641   21.0199 O   0  0  0  0  0  0  0  0  0  0  0  0
  -23.6372  -29.2564   23.3965 O   0  0  0  0  0  0  0  0  0  0  0  0
  -27.2461  -21.1159   24.7490 O   0  0  0  0  0  0  0  0  0  0  0  0
  -22.5061  -29.1682   19.8037 O   0  0  0  0  0  0  0  0  0  0  0  0
  -22.2424  -24.4303   19.7415 O   0  0  0  0  0  0  0  0  0  0  0  0
  -31.7724  -14.9850   20.3456 O   0  0  0  0  0  0  0  0  0  0  0  0
  -21.5880   -6.9788   21.8094 O   0  0  0  0  0  0  0  0  0  0  0  0
  -27.1765  -23.7794   24.3872 O   0  0  0  0  0  0  0  0  0  1  0  0
  -29.3667  -19.4808   24.5889 O   0  0  0  0  0  0  0  0  0  0  0  0
  -23.9315   -3.1432   25.0032 F   0  0  0  0  0  0  0  0  0  0  0  0
  -33.7028  -17.7511   23.6780 F   0  0  0  0  0  0  0  0  0  0  0  0
  -20.4323   -6.2296   24.2064 F   0  0  0  0  0  0  0  0  0  0  0  0
  1  2  1  0  0  0  0
  1  5  2  0  0  0  0
  2  6  2  0  0  0  0
  3  8  2  0  0  0  0
  3 17  1  0  0  0  0
  4  9  1  0  0  0  0
  4 17  2  0  0  0  0
  5 19  1  0  0  0  0
  6 21  1  0  0  0  0
  7 10  2  0  0  0  0
  7 20  1  0  0  0  0
  8 25  1  0  0  0  0
  9 25  2  0  0  0  0
 10 26  1  0  0  0  0
 11 12  2  0  0  0  0
 11 27  1  0  0  0  0
 12 29  1  0  0  0  0
 13 22  1  0  0  0  0
 13 26  2  0  0  0  0
 14 24  2  0  0  0  0
 14 30  1  0  0  0  0
 15 28  1  0  0  0  0
 15 30  2  0  0  0  0
 16 29  2  0  0  0  0
 16 31  1  0  0  0  0
 17 32  1  0  0  0  0
 18 32  1  0  0  0  0
 18 33  2  0  0  0  0
 18 34  1  0  0  0  0
 19 21  2  0  0  0  0
 19 40  1  0  0  0  0
 20 22  2  0  0  0  0
 20 41  1  0  0  0  0
 21 49  1  0  0  0  0
 22 42  1  0  0  0  0
 23 24  1  0  0  0  0
 23 28  2  0  0  0  0
 23 58  1  0  0  0  0
 24 70  1  0  0  0  0
 25 80  1  0  0  0  0
 26 81  1  0  0  0  0
 27 31  2  0  0  0  0
 27 80  1  0  0  0  0
 28 82  1  0  0  0  0
 29 83  1  0  0  0  0
 30 84  1  0  0  0  0
 31 85  1  0  0  0  0
 32 64  2  0  0  0  0
 33 65  1  0  0  0  0
 33 68  1  0  0  0  0
 34 69  1  0  0  0  0
 34 74  2  0  0  0  0
 35 50  1  0  0  0  0
 35 71  1  0  0  0  0
 35 75  2  0  0  0  0
 36 59  1  0  0  0  0
 36 60  1  0  0  0  0
 36 76  2  0  0  0  0
 37 61  1  0  0  0  0
 37 66  1  0  0  0  0
 37 77  2  0  0  0  0
 38 62  1  0  0  0  0
 38 72  1  0  0  0  0
 38 78  2  0  0  0  0
 39 67  1  0  0  0  0
 39 70  1  0  0  0  0
 39 79  2  0  0  0  0
 40 43  1  0  0  0  0
 41 50  1  0  0  0  0
 42 66  1  0  0  0  0
 43 45  1  0  0  0  0
 44 46  1  0  0  0  0
 44 47  1  0  0  0  0
 45 49  1  0  0  0  0
 46 51  1  0  0  0  0
 47 67  1  0  0  0  0
 48 51  1  0  0  0  0
 48 67  1  0  0  0  0
 49 71  1  0  0  0  0
 50 66  1  0  0  0  0
 51 65  1  0  0  0  0
 52 58  1  0  0  0  0
 53 62  1  0  0  0  0
 54 63  1  0  0  0  0
 55 63  1  0  0  0  0
 56 63  1  0  0  0  0
 57 73  1  0  0  0  0
 59 81  1  0  0  0  0
 60 82  1  0  0  0  0
 61 63  1  0  0  0  0
 61 72  1  0  0  0  0
 62 73  1  0  0  0  0
 64 65  1  0  0  0  0
M  CHG  1  73   1
M  ISO  4  39 100  59 101  70 100  81 101
M  END
> <Batch ID>
0138

> <Smiles>
CCc1c([100NH:0][100C:0](=O)N2CCCC(n3nc(-c4ccc(Oc5ccc(F)cc5F)cc4)c(C(N)=O)c3N)C2)cc(F)cc1OCC(=O)[101CH2:1][101O:1]c1ccc2c(c1)CN(C(=O)C(NC(=O)C(C)NC)C(C)(C)C)C(C(=O)NC1CCCc3ccccc31)C2

> <Shape>
0.303

> <Color>
0.209

> <Negative vol penalty>
0.000

$$$$

  -OEChem-04052302453D

 86 95  0     1  0  0  0  0  0999 V2000
  -22.1728  -31.5921   14.3508 C   0  0  0  0  0  0  0  0  0  0  0  0
  -23.3430  -31.0961   14.9166 C   0  0  0  0  0  0  0  0  0  0  0  0
  -25.1908  -12.8502   21.7960 C   0  0  0  0  0  0  0  0  0  0  0  0
  -24.7243  -13.2254   19.4554 C   0  0  0  0  0  0  0  0  0  0  0  0
  -21.4195  -32.5459   15.0339 C   0  0  0  0  0  0  0  0  0  0  0  0
  -23.7610  -31.5544   16.1654 C   0  0  0  0  0  0  0  0  0  0  0  0
  -25.2756  -27.7986   19.2059 C   0  0  0  0  0  0  0  0  0  0  0  0
  -25.4620  -11.5087   21.5269 C   0  0  0  0  0  0  0  0  0  0  0  0
  -24.9955  -11.8839   19.1862 C   0  0  0  0  0  0  0  0  0  0  0  0
  -26.5467  -27.2713   18.9820 C   0  0  0  0  0  0  0  0  0  0  0  0
  -27.7216   -9.9265   18.7892 C   0  0  0  0  0  0  0  0  0  0  0  0
  -28.5198   -9.6376   17.6824 C   0  0  0  0  0  0  0  0  0  0  0  0
  -31.8296  -21.4380   24.1037 C   0  0  0  0  0  0  0  0  0  0  0  0
  -30.4271  -21.6608   22.1492 C   0  0  0  0  0  0  0  0  0  0  0  0
  -27.4108  -28.5970   20.8027 C   0  0  0  0  0  0  0  0  0  0  0  0
  -30.2379  -19.7051   23.5551 C   0  0  0  0  0  0  0  0  0  0  0  0
  -26.7160   -8.3524   16.7170 C   0  0  0  0  0  0  0  0  0  0  0  0
  -24.8219  -13.7086   20.7602 C   0  0  0  0  0  0  0  0  0  0  0  0
  -23.5491  -15.6054   21.8958 C   0  0  0  0  0  0  0  0  0  0  0  0
  -21.8234  -33.0090   16.2960 C   0  0  0  0  0  0  0  0  0  0  0  0
  -25.0644  -28.7388   20.2247 C   0  0  0  0  0  0  0  0  0  0  0  0
  -23.0131  -32.5162   16.8654 C   0  0  0  0  0  0  0  0  0  0  0  0
  -31.4252  -22.1641   22.9836 C   0  0  0  0  0  0  0  0  0  0  0  0
  -26.1356  -29.1327   21.0392 C   0  0  0  0  0  0  0  0  0  0  0  0
  -31.2360  -20.2084   24.3895 C   0  0  0  0  0  0  0  0  0  0  0  0
  -29.8334  -20.4313   22.4350 C   0  0  0  0  0  0  0  0  0  0  0  0
  -25.3644  -11.0255   20.2221 C   0  0  0  0  0  0  0  0  0  0  0  0
  -27.6151  -27.6727   19.7786 C   0  0  0  0  0  0  0  0  0  0  0  0
  -26.4206   -9.4283   18.8600 C   0  0  0  0  0  0  0  0  0  0  0  0
  -28.0170   -8.8506   16.6463 C   0  0  0  0  0  0  0  0  0  0  0  0
  -25.9178   -8.6413   17.8239 C   0  0  0  0  0  0  0  0  0  0  0  0
  -24.5411  -15.0943   21.0376 C   0  0  0  0  0  0  0  0  0  0  0  0
  -23.6921  -16.9689   21.8123 C   0  0  0  0  0  0  0  0  0  0  0  0
  -22.5847  -14.9099   22.6969 C   0  0  0  0  0  0  0  0  0  0  0  0
  -30.6891  -25.8993   20.5141 C   0  0  0  0  0  0  0  0  0  0  0  0
  -24.0865  -31.7618   20.3196 C   0  0  0  0  0  0  0  0  0  0  0  0
  -24.1826  -31.2839   23.5266 C   0  0  0  0  0  0  0  0  0  0  0  0
  -26.3813  -29.6611   25.8824 C   0  0  0  0  0  0  0  0  0  0  0  0
  -28.3017  -20.5134   20.4366 C   0  0  0  0  0  0  0  0  0  0  0  0
  -21.0012  -34.0755   16.9752 C   0  0  0  0  0  0  0  0  0  0  0  0
  -23.6819  -29.2779   20.4707 C   0  0  0  0  0  0  0  0  0  0  0  0
  -25.9575  -30.1240   22.1591 C   0  0  0  0  0  0  0  0  0  0  0  0
  -21.3151  -34.2327   18.4608 C   0  0  0  0  0  0  0  0  0  0  0  0
  -25.1381  -20.4054   18.8067 C   0  0  0  0  0  0  0  0  0  0  0  0
  -32.7688  -23.5542   21.3157 C   0  0  0  0  0  0  0  0  0  0  0  0
  -22.8231  -34.2753   18.6862 C   0  0  0  0  0  0  0  0  0  0  0  0
  -32.9539  -25.0492   21.0946 C   0  0  0  0  0  0  0  0  0  0  0  0
  -24.5331  -19.0806   19.2767 C   0  0  0  0  0  0  0  0  0  0  0  0
  -31.0921  -24.6839   22.6475 C   0  0  0  0  0  0  0  0  0  0  0  0
  -26.6471  -20.2965   18.5954 C   0  0  0  0  0  0  0  0  0  0  0  0
  -26.7929  -18.4426   20.2112 C   0  0  0  0  0  0  0  0  0  0  0  0
  -32.0676  -23.4944   22.6744 C   0  0  1  0  0  0  0  0  0  0  0  0
  -23.4863  -32.9704   18.2292 C   0  0  1  0  0  0  0  0  0  0  0  0
  -31.6668  -25.6763   21.6280 C   0  0  2  0  0  0  0  0  0  0  0  0
  -23.6840  -30.6157   21.2040 C   0  0  1  0  0  0  0  0  0  0  0  0
  -25.2849  -18.5203   20.5001 C   0  0  2  0  0  0  0  0  0  0  0  0
  -31.6685  -19.4322   25.5873 C   0  0  0  0  0  0  0  0  0  0  0  0
  -25.9041  -28.6463   28.1274 C   0  0  0  0  0  0  0  0  0  0  0  0
  -24.9939  -34.0176   24.6122 C   0  0  0  0  0  0  0  0  0  0  0  0
  -26.1252  -32.8487   26.5153 C   0  0  0  0  0  0  0  0  0  0  0  0
  -23.6615  -32.6181   26.1999 C   0  0  0  0  0  0  0  0  0  0  0  0
  -27.5469  -27.0607   25.0838 C   0  0  0  0  0  0  0  0  0  0  0  0
  -29.7201  -27.0487   20.6925 C   0  0  0  0  0  0  0  0  0  1  0  0
  -25.2308  -31.4467   24.6008 C   0  0  1  0  0  0  0  0  0  0  0  0
  -26.1082  -28.3770   26.6446 C   0  0  2  0  0  0  0  0  0  0  0  0
  -25.0099  -32.7268   25.4552 C   0  0  0  0  0  0  0  0  0  0  0  0
  -25.2610  -16.0549   20.4519 N   0  0  0  0  0  0  0  0  0  0  0  0
  -24.7207  -17.1833   20.9428 N   0  0  0  0  0  0  0  0  0  0  0  0
  -24.5880  -30.6273   22.3559 N   0  0  0  0  0  0  0  0  0  0  0  0
  -27.2928  -19.7629   19.7967 N   0  0  0  0  0  0  0  0  0  0  0  0
  -23.0369  -17.9934   22.3985 N   0  0  0  0  0  0  0  0  0  0  0  0
  -22.5758  -13.5087   22.6655 N   0  0  0  0  0  0  0  0  0  0  0  0
  -28.8194  -19.9201   21.5875 N   0  0  0  0  0  0  0  0  0  0  0  0
  -23.2788  -31.9273   19.2107 N   0  0  0  0  0  0  0  0  0  0  0  0
  -25.2235  -30.2067   25.3695 N   0  0  0  0  0  0  0  0  0  0  0  0
  -27.2495  -27.4310   26.4914 N   0  3  0  0  0  0  0  0  0  0  0  0
  -21.7446  -15.5134   23.4066 O   0  0  0  0  0  0  0  0  0  0  0  0
  -30.6837  -25.1814   19.5152 O   0  0  0  0  0  0  0  0  0  0  0  0
  -25.0571  -32.4462   20.6218 O   0  0  0  0  0  0  0  0  0  0  0  0
  -23.0442  -31.7168   23.7220 O   0  0  0  0  0  0  0  0  0  0  0  0
  -27.5085  -30.1350   25.7580 O   0  0  0  0  0  0  0  0  0  0  0  0
  -28.6596  -21.6149   20.0115 O   0  0  0  0  0  0  0  0  0  0  0  0
  -25.6291   -9.7166   19.9591 O   0  0  0  0  0  0  0  0  0  0  0  0
  -28.8569  -27.1601   19.5617 O   0  0  0  0  0  0  0  0  0  1  0  0
  -28.7831   -8.5745   15.5828 F   0  0  0  0  0  0  0  0  0  0  0  0
  -24.6684   -8.1608   17.8857 F   0  0  0  0  0  0  0  0  0  0  0  0
  1  2  1  0  0  0  0
  1  5  2  0  0  0  0
  2  6  2  0  0  0  0
  3  8  2  0  0  0  0
  3 18  1  0  0  0  0
  4  9  1  0  0  0  0
  4 18  2  0  0  0  0
  5 20  1  0  0  0  0
  6 22  1  0  0  0  0
  7 10  2  0  0  0  0
  7 21  1  0  0  0  0
  8 27  1  0  0  0  0
  9 27  2  0  0  0  0
 10 28  1  0  0  0  0
 11 12  2  0  0  0  0
 11 29  1  0  0  0  0
 12 30  1  0  0  0  0
 13 23  1  0  0  0  0
 13 25  2  0  0  0  0
 14 23  2  0  0  0  0
 14 26  1  0  0  0  0
 15 24  1  0  0  0  0
 15 28  2  0  0  0  0
 16 25  1  0  0  0  0
 16 26  2  0  0  0  0
 17 30  2  0  0  0  0
 17 31  1  0  0  0  0
 18 32  1  0  0  0  0
 19 32  1  0  0  0  0
 19 33  2  0  0  0  0
 19 34  1  0  0  0  0
 20 22  2  0  0  0  0
 20 40  1  0  0  0  0
 21 24  2  0  0  0  0
 21 41  1  0  0  0  0
 22 53  1  0  0  0  0
 23 52  1  0  0  0  0
 24 42  1  0  0  0  0
 25 57  1  0  0  0  0
 26 73  1  0  0  0  0
 27 83  1  0  0  0  0
 28 84  1  0  0  0  0
 29 31  2  0  0  0  0
 29 83  1  0  0  0  0
 30 85  1  0  0  0  0
 31 86  1  0  0  0  0
 32 67  2  0  0  0  0
 33 68  1  0  0  0  0
 33 71  1  0  0  0  0
 34 72  1  0  0  0  0
 34 77  2  0  0  0  0
 35 54  1  0  0  0  0
 35 63  1  0  0  0  0
 35 78  2  0  0  0  0
 36 55  1  0  0  0  0
 36 74  1  0  0  0  0
 36 79  2  0  0  0  0
 37 64  1  0  0  0  0
 37 69  1  0  0  0  0
 37 80  2  0  0  0  0
 38 65  1  0  0  0  0
 38 75  1  0  0  0  0
 38 81  2  0  0  0  0
 39 70  1  0  0  0  0
 39 73  1  0  0  0  0
 39 82  2  0  0  0  0
 40 43  1  0  0  0  0
 41 55  1  0  0  0  0
 42 69  1  0  0  0  0
 43 46  1  0  0  0  0
 44 48  1  0  0  0  0
 44 50  1  0  0  0  0
 45 47  1  0  0  0  0
 45 52  1  0  0  0  0
 46 53  1  0  0  0  0
 47 54  1  0  0  0  0
 48 56  1  0  0  0  0
 49 52  1  0  0  0  0
 49 54  1  0  0  0  0
 50 70  1  0  0  0  0
 51 56  1  0  0  0  0
 51 70  1  0  0  0  0
 53 74  1  0  0  0  0
 55 69  1  0  0  0  0
 56 68  1  0  0  0  0
 58 65  1  0  0  0  0
 59 66  1  0  0  0  0
 60 66  1  0  0  0  0
 61 66  1  0  0  0  0
 62 76  1  0  0  0  0
 63 84  1  0  0  0  0
 64 66  1  0  0  0  0
 64 75  1  0  0  0  0
 65 76  1  0  0  0  0
 67 68  1  0  0  0  0
M  CHG  1  76   1
M  ISO  4  39 100  63 101  73 100  84 101
M  END
> <Batch ID>
0138

> <Smiles>
CNC(C)C(=O)NC(C(=O)N1Cc2cc([101O:1][101CH2:1]C(=O)C3CCC(c4cc(C)cc([100NH:0][100C:0](=O)N5CCCC(n6nc(-c7ccc(Oc8ccc(F)cc8F)cc7)c(C(N)=O)c6N)C5)c4)C3)ccc2CC1C(=O)NC1CCCc2ccccc21)C(C)(C)C

> <Shape>
0.201

> <Color>
0.114

> <Negative vol penalty>
0.000

$$$$

  -OEChem-04052302453D

 82 90  0     1  0  0  0  0  0999 V2000
  -33.9160  -31.8334   19.2174 C   0  0  0  0  0  0  0  0  0  0  0  0
  -33.3156  -31.0869   20.2262 C   0  0  0  0  0  0  0  0  0  0  0  0
  -23.0421   -9.8508   19.9267 C   0  0  0  0  0  0  0  0  0  0  0  0
  -23.7849   -9.8415   22.2257 C   0  0  0  0  0  0  0  0  0  0  0  0
  -33.8916  -31.3722   17.9019 C   0  0  0  0  0  0  0  0  0  0  0  0
  -32.6895  -29.8793   19.9199 C   0  0  0  0  0  0  0  0  0  0  0  0
  -32.4575  -24.8605   23.4219 C   0  0  0  0  0  0  0  0  0  0  0  0
  -22.3033   -8.6910   20.1607 C   0  0  0  0  0  0  0  0  0  0  0  0
  -23.0461   -8.6817   22.4597 C   0  0  0  0  0  0  0  0  0  0  0  0
  -31.4779  -24.3582   24.2774 C   0  0  0  0  0  0  0  0  0  0  0  0
  -23.3610   -5.3667   21.8747 C   0  0  0  0  0  0  0  0  0  0  0  0
  -23.9773   -4.3386   22.5879 C   0  0  0  0  0  0  0  0  0  0  0  0
  -30.6667  -22.9376   22.5046 C   0  0  0  0  0  0  0  0  0  0  0  0
  -22.2622   -4.4867   24.2832 C   0  0  0  0  0  0  0  0  0  0  0  0
  -32.2752  -17.7846   23.8292 C   0  0  0  0  0  0  0  0  0  0  0  0
  -23.7830  -10.4260   20.9592 C   0  0  0  0  0  0  0  0  0  0  0  0
  -24.1105  -12.9541   20.8645 C   0  0  0  0  0  0  0  0  0  0  0  0
  -33.2733  -30.1535   17.5808 C   0  0  0  0  0  0  0  0  0  0  0  0
  -32.5423  -24.4124   22.0959 C   0  0  0  0  0  0  0  0  0  0  0  0
  -32.6556  -29.4020   18.5986 C   0  0  0  0  0  0  0  0  0  0  0  0
  -31.6499  -23.4339   21.6350 C   0  0  0  0  0  0  0  0  0  0  0  0
  -30.9971  -18.2130   24.1132 C   0  0  0  0  0  0  0  0  0  0  0  0
  -30.0178  -17.5247   23.3404 C   0  0  0  0  0  0  0  0  0  0  0  0
  -22.3053   -8.1065   21.4272 C   0  0  0  0  0  0  0  0  0  0  0  0
  -30.5805  -23.3987   23.8180 C   0  0  0  0  0  0  0  0  0  0  0  0
  -22.1954   -5.9549   22.3657 C   0  0  0  0  0  0  0  0  0  0  0  0
  -23.4279   -3.8986   23.7922 C   0  0  0  0  0  0  0  0  0  0  0  0
  -21.6460   -5.5149   23.5699 C   0  0  0  0  0  0  0  0  0  0  0  0
  -24.5468  -11.6237   20.7180 C   0  0  0  0  0  0  0  0  0  0  0  0
  -25.2009  -13.7133   20.5161 C   0  0  0  0  0  0  0  0  0  0  0  0
  -30.5848  -16.5965   22.4948 C   0  0  0  0  0  0  0  0  0  0  0  0
  -22.8339  -13.4586   21.2785 C   0  0  0  0  0  0  0  0  0  0  0  0
  -32.2640  -25.7846   19.2422 C   0  0  0  0  0  0  0  0  0  0  0  0
  -33.1859  -22.8618   18.1794 C   0  0  0  0  0  0  0  0  0  0  0  0
  -33.4015  -19.5049   18.7554 C   0  0  0  0  0  0  0  0  0  0  0  0
  -30.6593  -14.7894   20.7411 C   0  0  0  0  0  0  0  0  0  0  0  0
  -33.2311  -29.7191   16.1371 C   0  0  0  0  0  0  0  0  0  0  0  0
  -33.6215  -24.9446   21.1935 C   0  0  0  0  0  0  0  0  0  0  0  0
  -31.7115  -22.9049   20.2262 C   0  0  0  0  0  0  0  0  0  0  0  0
  -32.8734  -28.2464   15.9544 C   0  0  0  0  0  0  0  0  0  0  0  0
  -29.5769  -12.3908   18.3428 C   0  0  0  0  0  0  0  0  0  0  0  0
  -31.6744  -27.8767   16.8220 C   0  0  0  0  0  0  0  0  0  0  0  0
  -28.1358  -12.0868   18.7590 C   0  0  0  0  0  0  0  0  0  0  0  0
  -30.4817  -12.6140   19.5533 C   0  0  0  0  0  0  0  0  0  0  0  0
  -28.5603  -13.3146   20.9268 C   0  0  0  0  0  0  0  0  0  0  0  0
  -31.9881  -28.0749   18.3099 C   0  0  1  0  0  0  0  0  0  0  0  0
  -33.2905  -24.7930   19.7121 C   0  0  1  0  0  0  0  0  0  0  0  0
  -27.5972  -13.1464   19.7402 C   0  0  2  0  0  0  0  0  0  0  0  0
  -28.5581  -17.7771   23.4341 C   0  0  0  0  0  0  0  0  0  0  0  0
  -34.1688  -17.3681   17.6864 C   0  0  0  0  0  0  0  0  0  0  0  0
  -30.7096  -22.8674   16.3967 C   0  0  0  0  0  0  0  0  0  0  0  0
  -31.0069  -20.3998   16.0948 C   0  0  0  0  0  0  0  0  0  0  0  0
  -32.7762  -21.9729   15.3088 C   0  0  0  0  0  0  0  0  0  0  0  0
  -28.7530  -21.3713   26.2777 C   0  0  0  0  0  0  0  0  0  0  0  0
  -31.1477  -22.1148   26.3165 C   0  0  0  0  0  0  0  0  0  0  0  0
  -35.3746  -19.0030   20.9034 C   0  0  0  0  0  0  0  0  0  0  0  0
  -30.6845  -19.2864   25.1267 C   0  0  0  0  0  0  0  0  0  0  0  0
  -30.3706  -20.6269   24.4472 C   0  0  0  0  0  0  0  0  0  0  0  0
  -32.4699  -21.5913   17.7892 C   0  0  1  0  0  0  0  0  0  0  0  0
  -34.5513  -18.5270   18.5938 C   0  0  2  0  0  0  0  0  0  0  0  0
  -31.7380  -21.7190   16.4234 C   0  0  0  0  0  0  0  0  0  0  0  0
  -29.9603  -21.7524   25.4183 C   0  0  0  0  0  0  0  0  0  1  0  0
  -25.8153  -11.5391   20.3083 N   0  0  0  0  0  0  0  0  0  0  0  0
  -26.1854  -12.8260   20.1943 N   0  0  0  0  0  0  0  0  0  0  0  0
  -32.7805  -23.4610   19.3804 N   0  0  0  0  0  0  0  0  0  0  0  0
  -29.9101  -13.6335   20.4358 N   0  0  0  0  0  0  0  0  0  0  0  0
  -25.4038  -15.0466   20.4567 N   0  0  0  0  0  0  0  0  0  0  0  0
  -21.8250  -12.5404   21.6000 N   0  0  0  0  0  0  0  0  0  0  0  0
  -30.0004  -15.7032   21.5631 N   0  0  0  0  0  0  0  0  0  0  0  0
  -32.7973  -26.9823   18.8057 N   0  0  0  0  0  0  0  0  0  0  0  0
  -33.4690  -20.5292   17.8347 N   0  0  0  0  0  0  0  0  0  0  0  0
  -34.9514  -17.9743   19.9187 N   0  3  0  0  0  0  0  0  0  0  0  0
  -22.5899  -14.6872   21.3452 O   0  0  0  0  0  0  0  0  0  0  0  0
  -31.0762  -25.4847   19.2721 O   0  0  0  0  0  0  0  0  0  0  0  0
  -34.0771  -23.3023   17.4491 O   0  0  0  0  0  0  0  0  0  0  0  0
  -32.5286  -19.3714   19.6102 O   0  0  0  0  0  0  0  0  0  0  0  0
  -31.7908  -14.9691   20.2835 O   0  0  0  0  0  0  0  0  0  0  0  0
  -21.5843   -6.9750   21.6560 O   0  0  0  0  0  0  0  0  0  0  0  0
  -29.6230  -22.9072   24.6507 O   0  0  0  0  0  0  0  0  0  1  0  0
  -24.0190   -2.9102   24.4763 F   0  0  0  0  0  0  0  0  0  0  0  0
  -20.5257   -6.0752   24.0461 F   0  0  0  0  0  0  0  0  0  0  0  0
  -32.2910  -16.5575   22.6349 S   0  0  0  0  0  0  0  0  0  0  0  0
  1  2  1  0  0  0  0
  1  5  2  0  0  0  0
  2  6  2  0  0  0  0
  3  8  2  0  0  0  0
  3 16  1  0  0  0  0
  4  9  1  0  0  0  0
  4 16  2  0  0  0  0
  5 18  1  0  0  0  0
  6 20  1  0  0  0  0
  7 10  2  0  0  0  0
  7 19  1  0  0  0  0
  8 24  1  0  0  0  0
  9 24  2  0  0  0  0
 10 25  1  0  0  0  0
 11 12  2  0  0  0  0
 11 26  1  0  0  0  0
 12 27  1  0  0  0  0
 13 21  1  0  0  0  0
 13 25  2  0  0  0  0
 14 27  2  0  0  0  0
 14 28  1  0  0  0  0
 15 22  2  0  0  0  0
 15 82  1  0  0  0  0
 16 29  1  0  0  0  0
 17 29  1  0  0  0  0
 17 30  2  0  0  0  0
 17 32  1  0  0  0  0
 18 20  2  0  0  0  0
 18 37  1  0  0  0  0
 19 21  2  0  0  0  0
 19 38  1  0  0  0  0
 20 46  1  0  0  0  0
 21 39  1  0  0  0  0
 22 23  1  0  0  0  0
 22 57  1  0  0  0  0
 23 31  2  0  0  0  0
 23 49  1  0  0  0  0
 24 78  1  0  0  0  0
 25 79  1  0  0  0  0
 26 28  2  0  0  0  0
 26 78  1  0  0  0  0
 27 80  1  0  0  0  0
 28 81  1  0  0  0  0
 29 63  2  0  0  0  0
 30 64  1  0  0  0  0
 30 67  1  0  0  0  0
 31 69  1  0  0  0  0
 31 82  1  0  0  0  0
 32 68  1  0  0  0  0
 32 73  2  0  0  0  0
 33 47  1  0  0  0  0
 33 70  1  0  0  0  0
 33 74  2  0  0  0  0
 34 59  1  0  0  0  0
 34 65  1  0  0  0  0
 34 75  2  0  0  0  0
 35 60  1  0  0  0  0
 35 71  1  0  0  0  0
 35 76  2  0  0  0  0
 36 66  1  0  0  0  0
 36 69  1  0  0  0  0
 36 77  2  0  0  0  0
 37 40  1  0  0  0  0
 38 47  1  0  0  0  0
 39 65  1  0  0  0  0
 40 42  1  0  0  0  0
 41 43  1  0  0  0  0
 41 44  1  0  0  0  0
 42 46  1  0  0  0  0
 43 48  1  0  0  0  0
 44 66  1  0  0  0  0
 45 48  1  0  0  0  0
 45 66  1  0  0  0  0
 46 70  1  0  0  0  0
 47 65  1  0  0  0  0
 48 64  1  0  0  0  0
 50 60  1  0  0  0  0
 51 61  1  0  0  0  0
 52 61  1  0  0  0  0
 53 61  1  0  0  0  0
 54 62  1  0  0  0  0
 55 62  1  0  0  0  0
 56 72  1  0  0  0  0
 57 58  1  0  0  0  0
 58 62  1  0  0  0  0
 59 61  1  0  0  0  0
 59 71  1  0  0  0  0
 60 72  1  0  0  0  0
 62 79  1  0  0  0  0
 63 64  1  0  0  0  0
M  CHG  1  72   1
M  ISO  4  36 100  62 101  69 100  79 101
M  END
> <Batch ID>
0138

> <Smiles>
CNC(C)C(=O)NC(C(=O)N1Cc2cc([101O:1][101C:1](C)(C)CCc3csc([100NH:0][100C:0](=O)N4CCCC(n5nc(-c6ccc(Oc7ccc(F)cc7F)cc6)c(C(N)=O)c5N)C4)c3C)ccc2CC1C(=O)NC1CCCc2ccccc21)C(C)(C)C

> <Shape>
0.193

> <Color>
0.222

> <Negative vol penalty>
0.000

$$$$

  -OEChem-04052302453D

 88 96  0     1  0  0  0  0  0999 V2000
  -25.5701   -6.2636   22.4209 C   0  0  0  0  0  0  0  0  0  0  0  0
  -26.4564   -7.1635   21.8376 C   0  0  0  0  0  0  0  0  0  0  0  0
  -22.9393  -30.8977   20.9604 C   0  0  0  0  0  0  0  0  0  0  0  0
  -22.7759  -28.9536   22.3854 C   0  0  0  0  0  0  0  0  0  0  0  0
  -24.2017   -6.5307   22.4137 C   0  0  0  0  0  0  0  0  0  0  0  0
  -25.9746   -8.3306   21.2459 C   0  0  0  0  0  0  0  0  0  0  0  0
  -28.7151  -13.8063   21.1392 C   0  0  0  0  0  0  0  0  0  0  0  0
  -21.5588  -30.8696   20.7636 C   0  0  0  0  0  0  0  0  0  0  0  0
  -21.3952  -28.9255   22.1887 C   0  0  0  0  0  0  0  0  0  0  0  0
  -29.4820  -14.4527   20.1708 C   0  0  0  0  0  0  0  0  0  0  0  0
  -18.6805  -30.5641   23.3572 C   0  0  0  0  0  0  0  0  0  0  0  0
  -17.8718  -30.3673   24.4765 C   0  0  0  0  0  0  0  0  0  0  0  0
  -27.5171  -15.6238   19.4050 C   0  0  0  0  0  0  0  0  0  0  0  0
  -28.4872  -23.1616   22.3670 C   0  0  0  0  0  0  0  0  0  0  0  0
  -29.7383  -22.8660   20.3214 C   0  0  0  0  0  0  0  0  0  0  0  0
  -16.9728  -28.3613   23.4742 C   0  0  0  0  0  0  0  0  0  0  0  0
  -23.5479  -29.9397   21.7713 C   0  0  0  0  0  0  0  0  0  0  0  0
  -25.6753  -30.6504   22.9866 C   0  0  0  0  0  0  0  0  0  0  0  0
  -23.7038   -7.7064   21.8300 C   0  0  0  0  0  0  0  0  0  0  0  0
  -27.3390  -14.0561   21.2409 C   0  0  0  0  0  0  0  0  0  0  0  0
  -24.5981   -8.6130   21.2297 C   0  0  0  0  0  0  0  0  0  0  0  0
  -26.7354  -14.9813   20.3772 C   0  0  0  0  0  0  0  0  0  0  0  0
  -28.4613  -21.7792   22.5509 C   0  0  0  0  0  0  0  0  0  0  0  0
  -29.7125  -21.4836   20.5054 C   0  0  0  0  0  0  0  0  0  0  0  0
  -29.0739  -20.9402   21.6201 C   0  0  0  0  0  0  0  0  0  0  0  0
  -29.1257  -23.7050   21.2522 C   0  0  0  0  0  0  0  0  0  0  0  0
  -20.7867  -29.8835   21.3778 C   0  0  0  0  0  0  0  0  0  0  0  0
  -28.8825  -15.3594   19.3016 C   0  0  0  0  0  0  0  0  0  0  0  0
  -18.6353  -29.6596   22.2964 C   0  0  0  0  0  0  0  0  0  0  0  0
  -17.0179  -29.2659   24.5350 C   0  0  0  0  0  0  0  0  0  0  0  0
  -17.7815  -28.5581   22.3549 C   0  0  0  0  0  0  0  0  0  0  0  0
  -24.9741  -29.9678   21.9745 C   0  0  0  0  0  0  0  0  0  0  0  0
  -26.9959  -30.3609   22.7445 C   0  0  0  0  0  0  0  0  0  0  0  0
  -25.1774  -31.4726   24.0504 C   0  0  0  0  0  0  0  0  0  0  0  0
  -24.7109  -12.2945   20.9350 C   0  0  0  0  0  0  0  0  0  0  0  0
  -30.4101  -18.1401   17.5635 C   0  0  0  0  0  0  0  0  0  0  0  0
  -23.2448  -15.0079   21.9403 C   0  0  0  0  0  0  0  0  0  0  0  0
  -23.3326  -18.4058   22.2458 C   0  0  0  0  0  0  0  0  0  0  0  0
  -29.7436  -25.8106   20.0149 C   0  0  0  0  0  0  0  0  0  0  0  0
  -22.2123   -7.9290   21.8048 C   0  0  0  0  0  0  0  0  0  0  0  0
  -26.5307  -13.3707   22.3083 C   0  0  0  0  0  0  0  0  0  0  0  0
  -25.2655  -15.2998   20.4582 C   0  0  0  0  0  0  0  0  0  0  0  0
  -21.8167   -9.3689   21.4881 C   0  0  0  0  0  0  0  0  0  0  0  0
  -29.9957  -29.2619   19.1769 C   0  0  0  0  0  0  0  0  0  0  0  0
  -22.6130   -9.8917   20.2968 C   0  0  0  0  0  0  0  0  0  0  0  0
  -28.8039  -29.8977   19.8963 C   0  0  0  0  0  0  0  0  0  0  0  0
  -29.6564  -27.8748   18.6341 C   0  0  0  0  0  0  0  0  0  0  0  0
  -27.9035  -27.5782   20.3396 C   0  0  0  0  0  0  0  0  0  0  0  0
  -24.1162   -9.9019   20.5997 C   0  0  1  0  0  0  0  0  0  0  0  0
  -25.0405  -13.3159   21.9866 C   0  0  1  0  0  0  0  0  0  0  0  0
  -28.2166  -28.9495   20.9601 C   0  0  2  0  0  0  0  0  0  0  0  0
  -27.7704  -21.2224   23.7525 C   0  0  0  0  0  0  0  0  0  0  0  0
  -30.0479  -18.9983   22.8719 C   0  0  0  0  0  0  0  0  0  0  0  0
  -22.6034  -20.6994   22.9565 C   0  0  0  0  0  0  0  0  0  0  0  0
  -29.2602  -19.5879   15.8482 C   0  0  0  0  0  0  0  0  0  0  0  0
  -31.5105  -20.2188   16.7023 C   0  0  0  0  0  0  0  0  0  0  0  0
  -21.4633  -14.8111   19.4710 C   0  0  0  0  0  0  0  0  0  0  0  0
  -20.8112  -17.2005   19.8368 C   0  0  0  0  0  0  0  0  0  0  0  0
  -20.2731  -15.4840   21.5650 C   0  0  0  0  0  0  0  0  0  0  0  0
  -24.7792  -18.1948   24.8191 C   0  0  0  0  0  0  0  0  0  0  0  0
  -30.3828  -20.5984   19.4837 C   0  0  0  0  0  0  0  0  0  0  0  0
  -29.0465  -19.4578   21.8178 C   0  0  0  0  0  0  0  0  0  0  0  0
  -29.2080  -17.2967   17.9611 C   0  0  0  0  0  0  0  0  0  1  0  0
  -29.5198  -20.4441   18.2232 C   0  0  0  0  0  0  0  0  0  0  0  0
  -22.6704  -16.2274   21.2607 C   0  0  1  0  0  0  0  0  0  0  0  0
  -23.0403  -19.3192   23.4225 C   0  0  2  0  0  0  0  0  0  0  0  0
  -30.1610  -19.5934   17.0988 C   0  0  0  0  0  0  0  0  0  0  0  0
  -21.3318  -15.9235   20.5303 C   0  0  0  0  0  0  0  0  0  0  0  0
  -25.7824  -29.2954   21.1508 N   0  0  0  0  0  0  0  0  0  0  0  0
  -27.0052  -29.5542   21.6448 N   0  0  0  0  0  0  0  0  0  0  0  0
  -24.5166  -14.5992   21.5145 N   0  0  0  0  0  0  0  0  0  0  0  0
  -29.1094  -27.0307   19.6986 N   0  0  0  0  0  0  0  0  0  0  0  0
  -28.1385  -30.7203   23.3671 N   0  0  0  0  0  0  0  0  0  0  0  0
  -23.7930  -31.6657   24.1537 N   0  0  0  0  0  0  0  0  0  0  0  0
  -29.1531  -25.1094   21.0657 N   0  0  0  0  0  0  0  0  0  0  0  0
  -24.4554  -11.0326   21.4368 N   0  0  0  0  0  0  0  0  0  0  0  0
  -22.5697  -17.2580   22.2884 N   0  0  0  0  0  0  0  0  0  0  0  0
  -24.2543  -19.4728   24.2731 N   0  3  0  0  0  0  0  0  0  0  0  0
  -25.9386  -32.0332   24.8749 O   0  0  0  0  0  0  0  0  0  0  0  0
  -24.6885  -12.6271   19.7558 O   0  0  0  0  0  0  0  0  0  0  0  0
  -31.5488  -17.6693   17.6218 O   0  0  0  0  0  0  0  0  0  0  0  0
  -22.5922  -14.4431   22.8216 O   0  0  0  0  0  0  0  0  0  0  0  0
  -24.1528  -18.6844   21.3739 O   0  0  0  0  0  0  0  0  0  0  0  0
  -30.7533  -25.4300   19.4170 O   0  0  0  0  0  0  0  0  0  0  0  0
  -19.4394  -29.8559   21.1862 O   0  0  0  0  0  0  0  0  0  0  0  0
  -29.6287  -15.9912   18.3551 O   0  0  0  0  0  0  0  0  0  1  0  0
  -16.2425  -29.0762   25.6106 F   0  0  0  0  0  0  0  0  0  0  0  0
  -17.7346  -27.6850   21.3393 F   0  0  0  0  0  0  0  0  0  0  0  0
  1  2  1  0  0  0  0
  1  5  2  0  0  0  0
  2  6  2  0  0  0  0
  3  8  2  0  0  0  0
  3 17  1  0  0  0  0
  4  9  1  0  0  0  0
  4 17  2  0  0  0  0
  5 19  1  0  0  0  0
  6 21  1  0  0  0  0
  7 10  2  0  0  0  0
  7 20  1  0  0  0  0
  8 27  1  0  0  0  0
  9 27  2  0  0  0  0
 10 28  1  0  0  0  0
 11 12  2  0  0  0  0
 11 29  1  0  0  0  0
 12 30  1  0  0  0  0
 13 22  1  0  0  0  0
 13 28  2  0  0  0  0
 14 23  2  0  0  0  0
 14 26  1  0  0  0  0
 15 24  1  0  0  0  0
 15 26  2  0  0  0  0
 16 30  2  0  0  0  0
 16 31  1  0  0  0  0
 17 32  1  0  0  0  0
 18 32  1  0  0  0  0
 18 33  2  0  0  0  0
 18 34  1  0  0  0  0
 19 21  2  0  0  0  0
 19 40  1  0  0  0  0
 20 22  2  0  0  0  0
 20 41  1  0  0  0  0
 21 49  1  0  0  0  0
 22 42  1  0  0  0  0
 23 25  1  0  0  0  0
 23 52  1  0  0  0  0
 24 25  2  0  0  0  0
 24 61  1  0  0  0  0
 25 62  1  0  0  0  0
 26 75  1  0  0  0  0
 27 85  1  0  0  0  0
 28 86  1  0  0  0  0
 29 31  2  0  0  0  0
 29 85  1  0  0  0  0
 30 87  1  0  0  0  0
 31 88  1  0  0  0  0
 32 69  2  0  0  0  0
 33 70  1  0  0  0  0
 33 73  1  0  0  0  0
 34 74  1  0  0  0  0
 34 79  2  0  0  0  0
 35 50  1  0  0  0  0
 35 76  1  0  0  0  0
 35 80  2  0  0  0  0
 36 63  1  0  0  0  0
 36 67  1  0  0  0  0
 36 81  2  0  0  0  0
 37 65  1  0  0  0  0
 37 71  1  0  0  0  0
 37 82  2  0  0  0  0
 38 66  1  0  0  0  0
 38 77  1  0  0  0  0
 38 83  2  0  0  0  0
 39 72  1  0  0  0  0
 39 75  1  0  0  0  0
 39 84  2  0  0  0  0
 40 43  1  0  0  0  0
 41 50  1  0  0  0  0
 42 71  1  0  0  0  0
 43 45  1  0  0  0  0
 44 46  1  0  0  0  0
 44 47  1  0  0  0  0
 45 49  1  0  0  0  0
 46 51  1  0  0  0  0
 47 72  1  0  0  0  0
 48 51  1  0  0  0  0
 48 72  1  0  0  0  0
 49 76  1  0  0  0  0
 50 71  1  0  0  0  0
 51 70  1  0  0  0  0
 53 62  1  0  0  0  0
 54 66  1  0  0  0  0
 55 67  1  0  0  0  0
 56 67  1  0  0  0  0
 57 68  1  0  0  0  0
 58 68  1  0  0  0  0
 59 68  1  0  0  0  0
 60 78  1  0  0  0  0
 61 64  1  0  0  0  0
 63 86  1  0  0  0  0
 64 67  1  0  0  0  0
 65 68  1  0  0  0  0
 65 77  1  0  0  0  0
 66 78  1  0  0  0  0
 69 70  1  0  0  0  0
M  CHG  1  78   1
M  ISO  4  39 100  63 101  75 100  86 101
M  END
> <Batch ID>
0138

> <Smiles>
CCc1c(C)cc([100NH:0][100C:0](=O)N2CCCC(n3nc(-c4ccc(Oc5ccc(F)cc5F)cc4)c(C(N)=O)c3N)C2)cc1CCC(C)(C)C(=O)[101CH2:1][101O:1]c1ccc2c(c1)CN(C(=O)C(NC(=O)C(C)NC)C(C)(C)C)C(C(=O)NC1CCCc3ccccc31)C2

> <Shape>
0.293

> <Color>
0.056

> <Negative vol penalty>
0.000

$$$$

  -OEChem-04052302453D

 85 94  0     1  0  0  0  0  0999 V2000
  -26.7924  -37.8188   23.9110 C   0  0  0  0  0  0  0  0  0  0  0  0
  -27.4019  -36.9878   22.9764 C   0  0  0  0  0  0  0  0  0  0  0  0
  -23.8945   -9.4160   20.2590 C   0  0  0  0  0  0  0  0  0  0  0  0
  -22.8131  -11.3870   21.1437 C   0  0  0  0  0  0  0  0  0  0  0  0
  -26.0777  -37.2657   24.9727 C   0  0  0  0  0  0  0  0  0  0  0  0
  -27.2980  -35.6031   23.1037 C   0  0  0  0  0  0  0  0  0  0  0  0
  -26.9130  -29.6461   19.1436 C   0  0  0  0  0  0  0  0  0  0  0  0
  -30.5635  -20.1377   21.9151 C   0  0  0  0  0  0  0  0  0  0  0  0
  -30.4409  -18.7508   21.9992 C   0  0  0  0  0  0  0  0  0  0  0  0
  -22.7860   -8.6479   20.6150 C   0  0  0  0  0  0  0  0  0  0  0  0
  -21.7045  -10.6190   21.4997 C   0  0  0  0  0  0  0  0  0  0  0  0
  -27.5248  -28.4005   19.0095 C   0  0  0  0  0  0  0  0  0  0  0  0
  -19.6867   -8.0382   19.4085 C   0  0  0  0  0  0  0  0  0  0  0  0
  -19.2032   -7.1246   18.4719 C   0  0  0  0  0  0  0  0  0  0  0  0
  -26.1981  -27.5584   20.8398 C   0  0  0  0  0  0  0  0  0  0  0  0
  -29.0843  -18.7496   20.0000 C   0  0  0  0  0  0  0  0  0  0  0  0
  -19.6059   -5.3187   20.0254 C   0  0  0  0  0  0  0  0  0  0  0  0
  -23.9081  -10.7856   20.5233 C   0  0  0  0  0  0  0  0  0  0  0  0
  -25.2693  -12.2462   18.9355 C   0  0  0  0  0  0  0  0  0  0  0  0
  -25.9568  -35.8737   25.1076 C   0  0  0  0  0  0  0  0  0  0  0  0
  -25.9453  -29.8606   20.1356 C   0  0  0  0  0  0  0  0  0  0  0  0
  -26.5821  -35.0309   24.1690 C   0  0  0  0  0  0  0  0  0  0  0  0
  -25.5736  -28.8069   20.9828 C   0  0  0  0  0  0  0  0  0  0  0  0
  -29.2069  -20.1365   19.9160 C   0  0  0  0  0  0  0  0  0  0  0  0
  -29.9465  -20.8306   20.8736 C   0  0  0  0  0  0  0  0  0  0  0  0
  -29.7013  -18.0567   21.0416 C   0  0  0  0  0  0  0  0  0  0  0  0
  -21.6909   -9.2494   21.2353 C   0  0  0  0  0  0  0  0  0  0  0  0
  -27.1695  -27.3573   19.8595 C   0  0  0  0  0  0  0  0  0  0  0  0
  -20.1299   -7.5920   20.6536 C   0  0  0  0  0  0  0  0  0  0  0  0
  -19.1628   -5.7649   18.7804 C   0  0  0  0  0  0  0  0  0  0  0  0
  -20.0895   -6.2322   20.9621 C   0  0  0  0  0  0  0  0  0  0  0  0
  -25.0532  -11.5794   20.1563 C   0  0  0  0  0  0  0  0  0  0  0  0
  -26.4932  -12.8510   19.0865 C   0  0  0  0  0  0  0  0  0  0  0  0
  -29.0038  -23.1175   20.8471 C   0  0  0  0  0  0  0  0  0  0  0  0
  -29.0924  -24.4576   20.7991 C   0  0  0  0  0  0  0  0  0  0  0  0
  -24.4380  -12.3130   17.7692 C   0  0  0  0  0  0  0  0  0  0  0  0
  -25.7131  -31.7685   22.6674 C   0  0  0  0  0  0  0  0  0  0  0  0
  -22.7096  -30.5529   22.8206 C   0  0  0  0  0  0  0  0  0  0  0  0
  -20.5722  -28.0059   22.0515 C   0  0  0  0  0  0  0  0  0  0  0  0
  -30.1267  -15.8085   22.0955 C   0  0  0  0  0  0  0  0  0  0  0  0
  -25.2139  -35.3216   26.2984 C   0  0  0  0  0  0  0  0  0  0  0  0
  -25.2754  -31.2025   20.2500 C   0  0  0  0  0  0  0  0  0  0  0  0
  -24.5258  -28.9799   22.0507 C   0  0  0  0  0  0  0  0  0  0  0  0
  -30.4359  -25.1191   20.6411 C   0  0  0  0  0  0  0  0  0  0  0  0
  -24.8362  -33.8498   26.1518 C   0  0  0  0  0  0  0  0  0  0  0  0
  -31.5007  -24.1487   20.1233 C   0  0  0  0  0  0  0  0  0  0  0  0
  -30.0208  -12.2969   22.6740 C   0  0  0  0  0  0  0  0  0  0  0  0
  -26.0261  -33.0412   25.6447 C   0  0  0  0  0  0  0  0  0  0  0  0
  -28.7368  -11.8520   21.9702 C   0  0  0  0  0  0  0  0  0  0  0  0
  -31.4519  -22.7893   20.8292 C   0  0  0  0  0  0  0  0  0  0  0  0
  -29.8626  -13.6677   23.3294 C   0  0  0  0  0  0  0  0  0  0  0  0
  -28.0871  -14.2831   21.7363 C   0  0  0  0  0  0  0  0  0  0  0  0
  -26.4711  -33.5243   24.2591 C   0  0  1  0  0  0  0  0  0  0  0  0
  -24.6736  -31.4543   21.6290 C   0  0  1  0  0  0  0  0  0  0  0  0
  -28.2180  -12.9367   21.0058 C   0  0  2  0  0  0  0  0  0  0  0  0
  -28.5347  -20.8540   18.7909 C   0  0  0  0  0  0  0  0  0  0  0  0
  -18.1881  -27.2792   22.3429 C   0  0  0  0  0  0  0  0  0  0  0  0
  -23.2941  -29.8067   25.7208 C   0  0  0  0  0  0  0  0  0  0  0  0
  -21.3078  -28.2840   25.6564 C   0  0  0  0  0  0  0  0  0  0  0  0
  -21.0072  -30.7379   25.3237 C   0  0  0  0  0  0  0  0  0  0  0  0
  -20.1057  -27.9655   19.1292 C   0  0  0  0  0  0  0  0  0  0  0  0
  -27.8994  -25.3549   20.9147 C   0  0  0  0  0  0  0  0  0  1  0  0
  -22.0720  -29.3599   23.4909 C   0  0  1  0  0  0  0  0  0  0  0  0
  -19.1791  -28.0074   21.4483 C   0  0  2  0  0  0  0  0  0  0  0  0
  -21.9415  -29.5441   25.0292 C   0  0  0  0  0  0  0  0  0  0  0  0
  -26.0592  -11.7447   21.0192 N   0  0  0  0  0  0  0  0  0  0  0  0
  -26.9193  -12.5222   20.3397 N   0  0  0  0  0  0  0  0  0  0  0  0
  -30.0814  -22.2424   20.8043 N   0  0  0  0  0  0  0  0  0  0  0  0
  -23.9042  -30.3123   22.1270 N   0  0  0  0  0  0  0  0  0  0  0  0
  -29.3720  -14.6449   22.3550 N   0  0  0  0  0  0  0  0  0  0  0  0
  -27.2357  -13.6265   18.2682 N   0  0  0  0  0  0  0  0  0  0  0  0
  -23.2122  -11.6335   17.7826 N   0  0  0  0  0  0  0  0  0  0  0  0
  -29.5774  -16.6478   21.1268 N   0  0  0  0  0  0  0  0  0  0  0  0
  -25.5788  -33.0201   23.2374 N   0  0  0  0  0  0  0  0  0  0  0  0
  -20.8033  -29.1366   22.8060 N   0  0  0  0  0  0  0  0  0  0  0  0
  -19.1904  -27.3380   20.1169 N   0  3  0  0  0  0  0  0  0  0  0  0
  -24.7797  -12.9427   16.7395 O   0  0  0  0  0  0  0  0  0  0  0  0
  -26.5726  -30.9363   22.9330 O   0  0  0  0  0  0  0  0  0  0  0  0
  -22.1640  -31.6561   22.9031 O   0  0  0  0  0  0  0  0  0  0  0  0
  -21.3738  -27.0913   21.8742 O   0  0  0  0  0  0  0  0  0  0  0  0
  -31.1963  -16.0296   22.6691 O   0  0  0  0  0  0  0  0  0  0  0  0
  -20.6089   -8.5003   21.5827 O   0  0  0  0  0  0  0  0  0  0  0  0
  -27.7656  -26.1407   19.7311 O   0  0  0  0  0  0  0  0  0  1  0  0
  -18.6970   -4.8879   17.8814 F   0  0  0  0  0  0  0  0  0  0  0  0
  -20.5128   -5.7978   22.1570 F   0  0  0  0  0  0  0  0  0  0  0  0
  1  2  1  0  0  0  0
  1  5  2  0  0  0  0
  2  6  2  0  0  0  0
  3 10  2  0  0  0  0
  3 18  1  0  0  0  0
  4 11  1  0  0  0  0
  4 18  2  0  0  0  0
  5 20  1  0  0  0  0
  6 22  1  0  0  0  0
  7 12  2  0  0  0  0
  7 21  1  0  0  0  0
  8  9  2  0  0  0  0
  8 25  1  0  0  0  0
  9 26  1  0  0  0  0
 10 27  1  0  0  0  0
 11 27  2  0  0  0  0
 12 28  1  0  0  0  0
 13 14  2  0  0  0  0
 13 29  1  0  0  0  0
 14 30  1  0  0  0  0
 15 23  1  0  0  0  0
 15 28  2  0  0  0  0
 16 24  1  0  0  0  0
 16 26  2  0  0  0  0
 17 30  2  0  0  0  0
 17 31  1  0  0  0  0
 18 32  1  0  0  0  0
 19 32  1  0  0  0  0
 19 33  2  0  0  0  0
 19 36  1  0  0  0  0
 20 22  2  0  0  0  0
 20 41  1  0  0  0  0
 21 23  2  0  0  0  0
 21 42  1  0  0  0  0
 22 53  1  0  0  0  0
 23 43  1  0  0  0  0
 24 25  2  0  0  0  0
 24 56  1  0  0  0  0
 25 68  1  0  0  0  0
 26 73  1  0  0  0  0
 27 82  1  0  0  0  0
 28 83  1  0  0  0  0
 29 31  2  0  0  0  0
 29 82  1  0  0  0  0
 30 84  1  0  0  0  0
 31 85  1  0  0  0  0
 32 66  2  0  0  0  0
 33 67  1  0  0  0  0
 33 71  1  0  0  0  0
 34 35  2  0  0  0  0
 34 68  1  0  0  0  0
 35 44  1  0  0  0  0
 35 62  1  0  0  0  0
 36 72  1  0  0  0  0
 36 77  2  0  0  0  0
 37 54  1  0  0  0  0
 37 74  1  0  0  0  0
 37 78  2  0  0  0  0
 38 63  1  0  0  0  0
 38 69  1  0  0  0  0
 38 79  2  0  0  0  0
 39 64  1  0  0  0  0
 39 75  1  0  0  0  0
 39 80  2  0  0  0  0
 40 70  1  0  0  0  0
 40 73  1  0  0  0  0
 40 81  2  0  0  0  0
 41 45  1  0  0  0  0
 42 54  1  0  0  0  0
 43 69  1  0  0  0  0
 44 46  1  0  0  0  0
 45 48  1  0  0  0  0
 46 50  1  0  0  0  0
 47 49  1  0  0  0  0
 47 51  1  0  0  0  0
 48 53  1  0  0  0  0
 49 55  1  0  0  0  0
 50 68  1  0  0  0  0
 51 70  1  0  0  0  0
 52 55  1  0  0  0  0
 52 70  1  0  0  0  0
 53 74  1  0  0  0  0
 54 69  1  0  0  0  0
 55 67  1  0  0  0  0
 57 64  1  0  0  0  0
 58 65  1  0  0  0  0
 59 65  1  0  0  0  0
 60 65  1  0  0  0  0
 61 76  1  0  0  0  0
 62 83  1  0  0  0  0
 63 65  1  0  0  0  0
 63 75  1  0  0  0  0
 64 76  1  0  0  0  0
 66 67  1  0  0  0  0
M  CHG  1  76   1
M  ISO  4  40 100  62 101  73 100  83 101
M  END
> <Batch ID>
0138

> <Smiles>
CNC(C)C(=O)NC(C(=O)N1Cc2cc([101O:1][101CH2:1]C3=CN(c4ccc([100NH:0][100C:0](=O)N5CCCC(n6nc(-c7ccc(Oc8ccc(F)cc8F)cc7)c(C(N)=O)c6N)C5)cc4C)CCC3)ccc2CC1C(=O)NC1CCCc2ccccc21)C(C)(C)C

> <Shape>
0.338

> <Color>
0.085

> <Negative vol penalty>
0.000

$$$$

  -OEChem-04052302453D

 85 93  0     1  0  0  0  0  0999 V2000
  -20.6501  -27.2491   26.6868 C   0  0  0  0  0  0  0  0  0  0  0  0
  -21.5797  -26.7563   25.7767 C   0  0  0  0  0  0  0  0  0  0  0  0
  -24.7992   -8.9335   21.7084 C   0  0  0  0  0  0  0  0  0  0  0  0
  -23.2246  -10.1166   20.3090 C   0  0  0  0  0  0  0  0  0  0  0  0
  -19.6597  -28.1330   26.2604 C   0  0  0  0  0  0  0  0  0  0  0  0
  -21.5187  -27.1462   24.4393 C   0  0  0  0  0  0  0  0  0  0  0  0
  -26.0653  -28.3372   22.5538 C   0  0  0  0  0  0  0  0  0  0  0  0
  -23.7445   -8.4320   22.4710 C   0  0  0  0  0  0  0  0  0  0  0  0
  -22.1699   -9.6150   21.0716 C   0  0  0  0  0  0  0  0  0  0  0  0
  -26.9044  -27.2815   22.2002 C   0  0  0  0  0  0  0  0  0  0  0  0
  -21.4358   -5.9747   22.2179 C   0  0  0  0  0  0  0  0  0  0  0  0
  -21.4618   -4.6198   22.5484 C   0  0  0  0  0  0  0  0  0  0  0  0
  -26.2807  -27.5681   19.8877 C   0  0  0  0  0  0  0  0  0  0  0  0
  -24.4695  -19.8763   17.5406 C   0  0  0  0  0  0  0  0  0  0  0  0
  -24.8780  -17.5042   17.3335 C   0  0  0  0  0  0  0  0  0  0  0  0
  -26.3945  -18.8840   18.6115 C   0  0  0  0  0  0  0  0  0  0  0  0
  -21.4704   -5.1925   24.8955 C   0  0  0  0  0  0  0  0  0  0  0  0
  -24.5393   -9.7759   20.6273 C   0  0  0  0  0  0  0  0  0  0  0  0
  -26.2046   -9.7097   18.6960 C   0  0  0  0  0  0  0  0  0  0  0  0
  -19.5925  -28.5415   24.9191 C   0  0  0  0  0  0  0  0  0  0  0  0
  -25.3180  -29.0104   21.5767 C   0  0  0  0  0  0  0  0  0  0  0  0
  -20.5257  -28.0354   23.9943 C   0  0  0  0  0  0  0  0  0  0  0  0
  -25.4348  -28.6338   20.2311 C   0  0  0  0  0  0  0  0  0  0  0  0
  -24.1002  -18.6257   17.0456 C   0  0  0  0  0  0  0  0  0  0  0  0
  -25.6167  -20.0055   18.3236 C   0  0  0  0  0  0  0  0  0  0  0  0
  -26.0252  -17.6333   18.1165 C   0  0  0  0  0  0  0  0  0  0  0  0
  -22.4299   -8.7726   22.1527 C   0  0  0  0  0  0  0  0  0  0  0  0
  -27.0100  -26.8949   20.8674 C   0  0  0  0  0  0  0  0  0  0  0  0
  -21.4271   -6.9385   23.2263 C   0  0  0  0  0  0  0  0  0  0  0  0
  -21.4791   -4.2287   23.8872 C   0  0  0  0  0  0  0  0  0  0  0  0
  -21.4444   -6.5474   24.5651 C   0  0  0  0  0  0  0  0  0  0  0  0
  -25.6283  -10.2948   19.8394 C   0  0  0  0  0  0  0  0  0  0  0  0
  -27.1937  -10.5867   18.3231 C   0  0  0  0  0  0  0  0  0  0  0  0
  -25.8752   -8.4832   18.0305 C   0  0  0  0  0  0  0  0  0  0  0  0
  -22.2172  -29.4382   21.0238 C   0  0  0  0  0  0  0  0  0  0  0  0
  -23.3036  -31.4098   18.6882 C   0  0  0  0  0  0  0  0  0  0  0  0
  -27.0949  -21.5830   19.6159 C   0  0  0  0  0  0  0  0  0  0  0  0
  -25.8353  -32.2685   16.5669 C   0  0  0  0  0  0  0  0  0  0  0  0
  -27.9837  -16.4489   19.1690 C   0  0  0  0  0  0  0  0  0  0  0  0
  -18.4751  -29.4618   24.4956 C   0  0  0  0  0  0  0  0  0  0  0  0
  -24.4378  -30.1646   21.9710 C   0  0  0  0  0  0  0  0  0  0  0  0
  -24.6693  -29.3373   19.1414 C   0  0  0  0  0  0  0  0  0  0  0  0
  -18.7080  -30.1177   23.1370 C   0  0  0  0  0  0  0  0  0  0  0  0
  -30.1986  -13.8386   20.1478 C   0  0  0  0  0  0  0  0  0  0  0  0
  -19.1742  -29.0831   22.1177 C   0  0  0  0  0  0  0  0  0  0  0  0
  -29.3321  -12.5796   20.0699 C   0  0  0  0  0  0  0  0  0  0  0  0
  -29.4039  -15.0441   20.6470 C   0  0  0  0  0  0  0  0  0  0  0  0
  -27.2978  -14.0601   19.8314 C   0  0  0  0  0  0  0  0  0  0  0  0
  -20.5075  -28.4542   22.5402 C   0  0  1  0  0  0  0  0  0  0  0  0
  -23.3308  -30.4448   20.9592 C   0  0  1  0  0  0  0  0  0  0  0  0
  -28.0383  -12.8344   19.2719 C   0  0  2  0  0  0  0  0  0  0  0  0
  -22.8741  -18.4882   16.2072 C   0  0  0  0  0  0  0  0  0  0  0  0
  -26.4150  -33.8991   14.7497 C   0  0  0  0  0  0  0  0  0  0  0  0
  -29.5961  -23.6279   19.9304 C   0  0  0  0  0  0  0  0  0  0  0  0
  -21.5710  -29.8384   16.7289 C   0  0  0  0  0  0  0  0  0  0  0  0
  -22.8860  -30.8567   14.8575 C   0  0  0  0  0  0  0  0  0  0  0  0
  -21.5546  -32.3151   16.3817 C   0  0  0  0  0  0  0  0  0  0  0  0
  -28.0870  -33.3864   18.1287 C   0  0  0  0  0  0  0  0  0  0  0  0
  -27.1256  -23.0741   19.9356 C   0  0  0  0  0  0  0  0  0  0  0  0
  -28.0240  -24.8354   21.4887 C   0  0  0  0  0  0  0  0  0  1  0  0
  -23.6784  -31.2414   17.2356 C   0  0  1  0  0  0  0  0  0  0  0  0
  -26.4656  -33.6107   16.2420 C   0  0  2  0  0  0  0  0  0  0  0  0
  -28.3298  -23.5051   20.7877 C   0  0  2  0  0  0  0  0  0  0  0  0
  -22.4356  -31.0482   16.3215 C   0  0  0  0  0  0  0  0  0  0  0  0
  -26.2035  -11.4537   20.1711 N   0  0  0  0  0  0  0  0  0  0  0  0
  -27.1516  -11.6039   19.2306 N   0  0  0  0  0  0  0  0  0  0  0  0
  -23.8171  -30.4556   19.5780 N   0  0  0  0  0  0  0  0  0  0  0  0
  -28.1946  -15.2264   19.8413 N   0  0  0  0  0  0  0  0  0  0  0  0
  -28.0867  -10.5791   17.3107 N   0  0  0  0  0  0  0  0  0  0  0  0
  -24.8316   -7.7026   18.5462 N   0  0  0  0  0  0  0  0  0  0  0  0
  -25.9910  -21.2747   18.8255 N   0  0  0  0  0  0  0  0  0  0  0  0
  -26.8161  -16.4943   18.4078 N   0  0  0  0  0  0  0  0  0  0  0  0
  -21.6035  -29.3565   22.2591 N   0  0  0  0  0  0  0  0  0  0  0  0
  -24.5008  -32.3957   16.8897 N   0  0  0  0  0  0  0  0  0  0  0  0
  -27.8909  -33.6325   16.6768 N   0  3  0  0  0  0  0  0  0  0  0  0
  -26.4990   -8.0830   17.0185 O   0  0  0  0  0  0  0  0  0  0  0  0
  -21.9345  -28.7850   20.0261 O   0  0  0  0  0  0  0  0  0  0  0  0
  -22.5877  -32.3572   19.0222 O   0  0  0  0  0  0  0  0  0  0  0  0
  -27.9396  -20.8055   20.0476 O   0  0  0  0  0  0  0  0  0  0  0  0
  -26.4630  -31.2123   16.5338 O   0  0  0  0  0  0  0  0  0  0  0  0
  -28.7938  -17.3766   19.2398 O   0  0  0  0  0  0  0  0  0  0  0  0
  -21.4005   -8.2832   22.8965 O   0  0  0  0  0  0  0  0  0  0  0  0
  -27.8278  -25.8643   20.5196 O   0  0  0  0  0  0  0  0  0  1  0  0
  -21.5025   -2.9275   24.2044 F   0  0  0  0  0  0  0  0  0  0  0  0
  -21.4351   -7.4687   25.5381 F   0  0  0  0  0  0  0  0  0  0  0  0
  1  2  1  0  0  0  0
  1  5  2  0  0  0  0
  2  6  2  0  0  0  0
  3  8  2  0  0  0  0
  3 18  1  0  0  0  0
  4  9  1  0  0  0  0
  4 18  2  0  0  0  0
  5 20  1  0  0  0  0
  6 22  1  0  0  0  0
  7 10  2  0  0  0  0
  7 21  1  0  0  0  0
  8 27  1  0  0  0  0
  9 27  2  0  0  0  0
 10 28  1  0  0  0  0
 11 12  2  0  0  0  0
 11 29  1  0  0  0  0
 12 30  1  0  0  0  0
 13 23  1  0  0  0  0
 13 28  2  0  0  0  0
 14 24  2  0  0  0  0
 14 25  1  0  0  0  0
 15 24  1  0  0  0  0
 15 26  2  0  0  0  0
 16 25  2  0  0  0  0
 16 26  1  0  0  0  0
 17 30  2  0  0  0  0
 17 31  1  0  0  0  0
 18 32  1  0  0  0  0
 19 32  1  0  0  0  0
 19 33  2  0  0  0  0
 19 34  1  0  0  0  0
 20 22  2  0  0  0  0
 20 40  1  0  0  0  0
 21 23  2  0  0  0  0
 21 41  1  0  0  0  0
 22 49  1  0  0  0  0
 23 42  1  0  0  0  0
 24 52  1  0  0  0  0
 25 71  1  0  0  0  0
 26 72  1  0  0  0  0
 27 82  1  0  0  0  0
 28 83  1  0  0  0  0
 29 31  2  0  0  0  0
 29 82  1  0  0  0  0
 30 84  1  0  0  0  0
 31 85  1  0  0  0  0
 32 65  2  0  0  0  0
 33 66  1  0  0  0  0
 33 69  1  0  0  0  0
 34 70  1  0  0  0  0
 34 76  2  0  0  0  0
 35 50  1  0  0  0  0
 35 73  1  0  0  0  0
 35 77  2  0  0  0  0
 36 61  1  0  0  0  0
 36 67  1  0  0  0  0
 36 78  2  0  0  0  0
 37 59  1  0  0  0  0
 37 71  1  0  0  0  0
 37 79  2  0  0  0  0
 38 62  1  0  0  0  0
 38 74  1  0  0  0  0
 38 80  2  0  0  0  0
 39 68  1  0  0  0  0
 39 72  1  0  0  0  0
 39 81  2  0  0  0  0
 40 43  1  0  0  0  0
 41 50  1  0  0  0  0
 42 67  1  0  0  0  0
 43 45  1  0  0  0  0
 44 46  1  0  0  0  0
 44 47  1  0  0  0  0
 45 49  1  0  0  0  0
 46 51  1  0  0  0  0
 47 68  1  0  0  0  0
 48 51  1  0  0  0  0
 48 68  1  0  0  0  0
 49 73  1  0  0  0  0
 50 67  1  0  0  0  0
 51 66  1  0  0  0  0
 53 62  1  0  0  0  0
 54 63  1  0  0  0  0
 55 64  1  0  0  0  0
 56 64  1  0  0  0  0
 57 64  1  0  0  0  0
 58 75  1  0  0  0  0
 59 63  1  0  0  0  0
 60 63  1  0  0  0  0
 60 83  1  0  0  0  0
 61 64  1  0  0  0  0
 61 74  1  0  0  0  0
 62 75  1  0  0  0  0
 65 66  1  0  0  0  0
M  CHG  1  75   1
M  ISO  4  39 100  60 101  72 100  83 101
M  END
> <Batch ID>
0138

> <Smiles>
CNC(C)C(=O)NC(C(=O)N1Cc2cc([101O:1][101CH2:1]C(C)CC(=O)Nc3cc(C)cc([100NH:0][100C:0](=O)N4CCCC(n5nc(-c6ccc(Oc7ccc(F)cc7F)cc6)c(C(N)=O)c5N)C4)c3)ccc2CC1C(=O)NC1CCCc2ccccc21)C(C)(C)C

> <Shape>
0.246

> <Color>
0.098

> <Negative vol penalty>
0.000

$$$$
