
  -OEChem-04052302483D

 86 94  0     1  0  0  0  0  0999 V2000
  -30.8864  -33.6635   25.2885 C   0  0  0  0  0  0  0  0  0  0  0  0
  -30.8216  -33.2912   23.9496 C   0  0  0  0  0  0  0  0  0  0  0  0
  -26.6884  -12.5030   21.8380 C   0  0  0  0  0  0  0  0  0  0  0  0
  -25.9542  -14.0799   20.1613 C   0  0  0  0  0  0  0  0  0  0  0  0
  -30.1278  -32.9805   26.2382 C   0  0  0  0  0  0  0  0  0  0  0  0
  -29.9989  -32.2349   23.5598 C   0  0  0  0  0  0  0  0  0  0  0  0
  -25.9382  -30.0504   18.0776 C   0  0  0  0  0  0  0  0  0  0  0  0
  -25.4155  -11.9330   21.8594 C   0  0  0  0  0  0  0  0  0  0  0  0
  -24.6813  -13.5099   20.1827 C   0  0  0  0  0  0  0  0  0  0  0  0
  -25.7518  -28.9449   17.2488 C   0  0  0  0  0  0  0  0  0  0  0  0
  -23.6197   -9.7771   19.9726 C   0  0  0  0  0  0  0  0  0  0  0  0
  -23.5325   -8.3851   19.9578 C   0  0  0  0  0  0  0  0  0  0  0  0
  -24.4261  -27.8890   18.9654 C   0  0  0  0  0  0  0  0  0  0  0  0
  -28.5680  -21.7827   20.1179 C   0  0  0  0  0  0  0  0  0  0  0  0
  -28.0180  -24.0778   20.6343 C   0  0  0  0  0  0  0  0  0  0  0  0
  -29.2124  -22.7301   22.2449 C   0  0  0  0  0  0  0  0  0  0  0  0
  -22.3719   -8.4353   22.0762 C   0  0  0  0  0  0  0  0  0  0  0  0
  -26.9577  -13.5765   20.9890 C   0  0  0  0  0  0  0  0  0  0  0  0
  -29.3553  -13.7982   20.1463 C   0  0  0  0  0  0  0  0  0  0  0  0
  -29.2881  -31.9216   25.8585 C   0  0  0  0  0  0  0  0  0  0  0  0
  -25.3781  -30.0789   19.3628 C   0  0  0  0  0  0  0  0  0  0  0  0
  -29.2294  -31.5363   24.5056 C   0  0  0  0  0  0  0  0  0  0  0  0
  -24.6047  -28.9971   19.8076 C   0  0  0  0  0  0  0  0  0  0  0  0
  -27.9866  -22.9970   19.7532 C   0  0  0  0  0  0  0  0  0  0  0  0
  -29.1809  -21.6492   21.3638 C   0  0  0  0  0  0  0  0  0  0  0  0
  -24.4120  -12.4364   21.0317 C   0  0  0  0  0  0  0  0  0  0  0  0
  -24.9981  -27.8628   17.6937 C   0  0  0  0  0  0  0  0  0  0  0  0
  -23.0831  -10.4983   21.0392 C   0  0  0  0  0  0  0  0  0  0  0  0
  -22.9086   -7.7142   21.0096 C   0  0  0  0  0  0  0  0  0  0  0  0
  -28.6310  -23.9444   21.8802 C   0  0  0  0  0  0  0  0  0  0  0  0
  -22.4592   -9.8274   22.0910 C   0  0  0  0  0  0  0  0  0  0  0  0
  -28.2723  -14.1661   20.9669 C   0  0  0  0  0  0  0  0  0  0  0  0
  -30.3664  -14.6546   20.5078 C   0  0  0  0  0  0  0  0  0  0  0  0
  -29.4398  -12.7739   19.1466 C   0  0  0  0  0  0  0  0  0  0  0  0
  -26.5443  -30.2546   22.3146 C   0  0  0  0  0  0  0  0  0  0  0  0
  -25.1546  -24.4012   16.6211 C   0  0  0  0  0  0  0  0  0  0  0  0
  -23.4110  -30.4899   23.1204 C   0  0  0  0  0  0  0  0  0  0  0  0
  -20.1555  -29.8694   22.3059 C   0  0  0  0  0  0  0  0  0  0  0  0
  -30.4193  -20.1156   22.9325 C   0  0  0  0  0  0  0  0  0  0  0  0
  -28.5230  -31.1826   26.9277 C   0  0  0  0  0  0  0  0  0  0  0  0
  -25.5661  -31.2902   20.2345 C   0  0  0  0  0  0  0  0  0  0  0  0
  -23.9651  -28.9870   21.1711 C   0  0  0  0  0  0  0  0  0  0  0  0
  -27.3910  -30.3177   26.3792 C   0  0  0  0  0  0  0  0  0  0  0  0
  -31.9714  -17.1901   24.2400 C   0  0  0  0  0  0  0  0  0  0  0  0
  -27.8743  -29.4999   25.1857 C   0  0  0  0  0  0  0  0  0  0  0  0
  -31.3018  -16.0496   23.4700 C   0  0  0  0  0  0  0  0  0  0  0  0
  -30.9890  -18.3180   24.5508 C   0  0  0  0  0  0  0  0  0  0  0  0
  -29.5885  -17.7016   22.6200 C   0  0  0  0  0  0  0  0  0  0  0  0
  -28.3300  -30.4118   24.0402 C   0  0  1  0  0  0  0  0  0  0  0  0
  -25.3790  -30.9928   21.7191 C   0  0  1  0  0  0  0  0  0  0  0  0
  -30.5539  -16.5713   22.2274 C   0  0  2  0  0  0  0  0  0  0  0  0
  -17.8194  -30.1438   23.1803 C   0  0  0  0  0  0  0  0  0  0  0  0
  -25.6178  -21.9850   16.0666 C   0  0  0  0  0  0  0  0  0  0  0  0
  -23.5837  -22.5968   17.3624 C   0  0  0  0  0  0  0  0  0  0  0  0
  -23.8593  -28.1620   25.0413 C   0  0  0  0  0  0  0  0  0  0  0  0
  -21.3754  -27.8700   25.1568 C   0  0  0  0  0  0  0  0  0  0  0  0
  -22.4174  -29.9957   25.9430 C   0  0  0  0  0  0  0  0  0  0  0  0
  -19.3749  -31.5752   20.0168 C   0  0  0  0  0  0  0  0  0  0  0  0
  -27.3240  -23.1421   18.4053 C   0  0  0  0  0  0  0  0  0  0  0  0
  -24.6496  -25.5163   17.5245 C   0  0  0  0  0  0  0  0  0  1  0  0
  -25.8354  -22.7716   18.4697 C   0  0  0  0  0  0  0  0  0  0  0  0
  -22.3189  -29.5062   23.4646 C   0  0  1  0  0  0  0  0  0  0  0  0
  -18.9238  -30.7563   22.3330 C   0  0  2  0  0  0  0  0  0  0  0  0
  -25.0656  -22.9466   17.1370 C   0  0  0  0  0  0  0  0  0  0  0  0
  -22.5063  -28.8825   24.8764 C   0  0  0  0  0  0  0  0  0  0  0  0
  -28.5677  -15.1774   21.7880 N   0  0  0  0  0  0  0  0  0  0  0  0
  -29.8479  -15.4521   21.4851 N   0  0  0  0  0  0  0  0  0  0  0  0
  -24.1832  -30.1918   21.9888 N   0  0  0  0  0  0  0  0  0  0  0  0
  -30.3213  -18.7643   23.3261 N   0  0  0  0  0  0  0  0  0  0  0  0
  -31.6397  -14.7956   20.0819 N   0  0  0  0  0  0  0  0  0  0  0  0
  -28.3078  -11.9848   18.9013 N   0  0  0  0  0  0  0  0  0  0  0  0
  -29.7714  -20.4157   21.7347 N   0  0  0  0  0  0  0  0  0  0  0  0
  -27.1856  -30.9398   23.3288 N   0  0  0  0  0  0  0  0  0  0  0  0
  -21.0578  -30.2183   23.2885 N   0  0  0  0  0  0  0  0  0  0  0  0
  -18.4000  -30.9576   20.9524 N   0  3  0  0  0  0  0  0  0  0  0  0
  -30.4931  -12.5538   18.5019 O   0  0  0  0  0  0  0  0  0  0  0  0
  -26.8390  -29.1447   21.8866 O   0  0  0  0  0  0  0  0  0  0  0  0
  -25.6133  -24.6617   15.5061 O   0  0  0  0  0  0  0  0  0  0  0  0
  -23.5685  -31.4898   23.8255 O   0  0  0  0  0  0  0  0  0  0  0  0
  -20.3010  -28.9560   21.4966 O   0  0  0  0  0  0  0  0  0  0  0  0
  -31.0557  -20.9398   23.5942 O   0  0  0  0  0  0  0  0  0  0  0  0
  -23.1698  -11.8803   21.0521 O   0  0  0  0  0  0  0  0  0  0  0  0
  -24.8152  -26.7822   16.8870 O   0  0  0  0  0  0  0  0  0  1  0  0
  -22.8235   -6.3775   20.9945 F   0  0  0  0  0  0  0  0  0  0  0  0
  -28.6612  -24.9824   22.7263 F   0  0  0  0  0  0  0  0  0  0  0  0
  -21.9408  -10.5148   23.1179 F   0  0  0  0  0  0  0  0  0  0  0  0
  1  2  1  0  0  0  0
  1  5  2  0  0  0  0
  2  6  2  0  0  0  0
  3  8  2  0  0  0  0
  3 18  1  0  0  0  0
  4  9  1  0  0  0  0
  4 18  2  0  0  0  0
  5 20  1  0  0  0  0
  6 22  1  0  0  0  0
  7 10  2  0  0  0  0
  7 21  1  0  0  0  0
  8 26  1  0  0  0  0
  9 26  2  0  0  0  0
 10 27  1  0  0  0  0
 11 12  2  0  0  0  0
 11 28  1  0  0  0  0
 12 29  1  0  0  0  0
 13 23  1  0  0  0  0
 13 27  2  0  0  0  0
 14 24  2  0  0  0  0
 14 25  1  0  0  0  0
 15 24  1  0  0  0  0
 15 30  2  0  0  0  0
 16 25  2  0  0  0  0
 16 30  1  0  0  0  0
 17 29  2  0  0  0  0
 17 31  1  0  0  0  0
 18 32  1  0  0  0  0
 19 32  1  0  0  0  0
 19 33  2  0  0  0  0
 19 34  1  0  0  0  0
 20 22  2  0  0  0  0
 20 40  1  0  0  0  0
 21 23  2  0  0  0  0
 21 41  1  0  0  0  0
 22 49  1  0  0  0  0
 23 42  1  0  0  0  0
 24 59  1  0  0  0  0
 25 72  1  0  0  0  0
 26 82  1  0  0  0  0
 27 83  1  0  0  0  0
 28 31  2  0  0  0  0
 28 82  1  0  0  0  0
 29 84  1  0  0  0  0
 30 85  1  0  0  0  0
 31 86  1  0  0  0  0
 32 66  2  0  0  0  0
 33 67  1  0  0  0  0
 33 70  1  0  0  0  0
 34 71  1  0  0  0  0
 34 76  2  0  0  0  0
 35 50  1  0  0  0  0
 35 73  1  0  0  0  0
 35 77  2  0  0  0  0
 36 60  1  0  0  0  0
 36 64  1  0  0  0  0
 36 78  2  0  0  0  0
 37 62  1  0  0  0  0
 37 68  1  0  0  0  0
 37 79  2  0  0  0  0
 38 63  1  0  0  0  0
 38 74  1  0  0  0  0
 38 80  2  0  0  0  0
 39 69  1  0  0  0  0
 39 72  1  0  0  0  0
 39 81  2  0  0  0  0
 40 43  1  0  0  0  0
 41 50  1  0  0  0  0
 42 68  1  0  0  0  0
 43 45  1  0  0  0  0
 44 46  1  0  0  0  0
 44 47  1  0  0  0  0
 45 49  1  0  0  0  0
 46 51  1  0  0  0  0
 47 69  1  0  0  0  0
 48 51  1  0  0  0  0
 48 69  1  0  0  0  0
 49 73  1  0  0  0  0
 50 68  1  0  0  0  0
 51 67  1  0  0  0  0
 52 63  1  0  0  0  0
 53 64  1  0  0  0  0
 54 64  1  0  0  0  0
 55 65  1  0  0  0  0
 56 65  1  0  0  0  0
 57 65  1  0  0  0  0
 58 75  1  0  0  0  0
 59 61  1  0  0  0  0
 60 83  1  0  0  0  0
 61 64  1  0  0  0  0
 62 65  1  0  0  0  0
 62 74  1  0  0  0  0
 63 75  1  0  0  0  0
 66 67  1  0  0  0  0
M  CHG  1  75   1
M  ISO  4  39 100  60 101  72 100  83 101
M  END
> <Batch ID>
0139

> <Smiles>
CNC(C)C(=O)NC(C(=O)N1Cc2cc([101O:1][101CH2:1]C(=O)C(C)(C)CCc3cc(F)cc([100NH:0][100C:0](=O)N4CCCC(n5nc(-c6ccc(Oc7ccc(F)cc7F)cc6)c(C(N)=O)c5N)C4)c3)ccc2CC1C(=O)NC1CCCc2ccccc21)C(C)(C)C

> <Shape>
0.274

> <Color>
0.083

> <Negative vol penalty>
0.000

$$$$

  -OEChem-04052302483D

 84 92  0     1  0  0  0  0  0999 V2000
  -30.6313  -29.7687   14.0446 C   0  0  0  0  0  0  0  0  0  0  0  0
  -30.6771  -28.5296   14.6754 C   0  0  0  0  0  0  0  0  0  0  0  0
  -29.6845  -19.2733   22.3549 C   0  0  0  0  0  0  0  0  0  0  0  0
  -23.0236   -9.8935   19.9634 C   0  0  0  0  0  0  0  0  0  0  0  0
  -23.7496   -9.9291   22.2675 C   0  0  0  0  0  0  0  0  0  0  0  0
  -30.4682  -30.9288   14.8006 C   0  0  0  0  0  0  0  0  0  0  0  0
  -30.5610  -28.4500   16.0627 C   0  0  0  0  0  0  0  0  0  0  0  0
  -27.4186  -24.7642   17.5408 C   0  0  0  0  0  0  0  0  0  0  0  0
  -30.6028  -19.8501   21.4776 C   0  0  0  0  0  0  0  0  0  0  0  0
  -29.5038  -17.8902   22.3654 C   0  0  0  0  0  0  0  0  0  0  0  0
  -22.2656   -8.7510   20.2199 C   0  0  0  0  0  0  0  0  0  0  0  0
  -22.9915   -8.7866   22.5240 C   0  0  0  0  0  0  0  0  0  0  0  0
  -27.9100  -23.4597   17.5144 C   0  0  0  0  0  0  0  0  0  0  0  0
  -23.2602   -5.4539   22.0219 C   0  0  0  0  0  0  0  0  0  0  0  0
  -23.8556   -4.4344   22.7646 C   0  0  0  0  0  0  0  0  0  0  0  0
  -28.3076  -23.5678   19.8912 C   0  0  0  0  0  0  0  0  0  0  0  0
  -31.1597  -17.6607   20.6212 C   0  0  0  0  0  0  0  0  0  0  0  0
  -22.1308   -4.6495   24.4427 C   0  0  0  0  0  0  0  0  0  0  0  0
  -23.7657  -10.4825   20.9872 C   0  0  0  0  0  0  0  0  0  0  0  0
  -24.1324  -13.0023   20.8337 C   0  0  0  0  0  0  0  0  0  0  0  0
  -30.3403  -30.8626   16.1969 C   0  0  0  0  0  0  0  0  0  0  0  0
  -27.3780  -25.4853   18.7429 C   0  0  0  0  0  0  0  0  0  0  0  0
  -30.3974  -29.6104   16.8382 C   0  0  0  0  0  0  0  0  0  0  0  0
  -27.8128  -24.8803   19.9307 C   0  0  0  0  0  0  0  0  0  0  0  0
  -31.3404  -19.0438   20.6108 C   0  0  0  0  0  0  0  0  0  0  0  0
  -30.2414  -17.0839   21.4985 C   0  0  0  0  0  0  0  0  0  0  0  0
  -22.2495   -8.1976   21.5001 C   0  0  0  0  0  0  0  0  0  0  0  0
  -28.3573  -22.8624   18.6892 C   0  0  0  0  0  0  0  0  0  0  0  0
  -22.1001   -6.0714   22.4897 C   0  0  0  0  0  0  0  0  0  0  0  0
  -23.2909   -4.0321   23.9750 C   0  0  0  0  0  0  0  0  0  0  0  0
  -21.5354   -5.6691   23.7000 C   0  0  0  0  0  0  0  0  0  0  0  0
  -24.5494  -11.6623   20.7228 C   0  0  0  0  0  0  0  0  0  0  0  0
  -25.2366  -13.7363   20.4753 C   0  0  0  0  0  0  0  0  0  0  0  0
  -22.8606  -13.5359   21.2256 C   0  0  0  0  0  0  0  0  0  0  0  0
  -28.7265  -28.1629   19.7989 C   0  0  0  0  0  0  0  0  0  0  0  0
  -31.6325  -20.6706   18.6958 C   0  0  0  0  0  0  0  0  0  0  0  0
  -26.8120  -27.6533   22.3674 C   0  0  0  0  0  0  0  0  0  0  0  0
  -25.0415  -25.4391   24.2673 C   0  0  0  0  0  0  0  0  0  0  0  0
  -30.7090  -14.7356   20.7155 C   0  0  0  0  0  0  0  0  0  0  0  0
  -30.2132  -32.1478   16.9760 C   0  0  0  0  0  0  0  0  0  0  0  0
  -26.8201  -26.8820   18.7593 C   0  0  0  0  0  0  0  0  0  0  0  0
  -27.7714  -25.6044   21.2507 C   0  0  0  0  0  0  0  0  0  0  0  0
  -29.7218  -31.9464   18.4072 C   0  0  0  0  0  0  0  0  0  0  0  0
  -29.6076  -12.2955   18.3681 C   0  0  0  0  0  0  0  0  0  0  0  0
  -30.4811  -30.8053   19.0767 C   0  0  0  0  0  0  0  0  0  0  0  0
  -28.1592  -12.0235   18.7806 C   0  0  0  0  0  0  0  0  0  0  0  0
  -30.5069  -12.5347   19.5796 C   0  0  0  0  0  0  0  0  0  0  0  0
  -28.5865  -13.2974   20.9210 C   0  0  0  0  0  0  0  0  0  0  0  0
  -30.2501  -29.4811   18.3387 C   0  0  1  0  0  0  0  0  0  0  0  0
  -27.3036  -27.7046   19.9497 C   0  0  1  0  0  0  0  0  0  0  0  0
  -27.6296  -13.1147   19.7316 C   0  0  2  0  0  0  0  0  0  0  0  0
  -23.6107  -25.3126   26.3250 C   0  0  0  0  0  0  0  0  0  0  0  0
  -33.1167  -18.6731   18.7604 C   0  0  0  0  0  0  0  0  0  0  0  0
  -33.4052  -20.4365   20.4842 C   0  0  0  0  0  0  0  0  0  0  0  0
  -29.3060  -27.8693   24.1118 C   0  0  0  0  0  0  0  0  0  0  0  0
  -28.0091  -26.8138   25.9753 C   0  0  0  0  0  0  0  0  0  0  0  0
  -27.2823  -29.0089   25.0393 C   0  0  0  0  0  0  0  0  0  0  0  0
  -22.7078  -24.4708   22.7261 C   0  0  0  0  0  0  0  0  0  0  0  0
  -30.5280  -20.1154   17.7965 C   0  0  0  0  0  0  0  0  0  0  0  0
  -29.4687  -21.1552   17.4618 C   0  0  0  0  0  0  0  0  0  1  0  0
  -26.9504  -26.9078   23.6728 C   0  0  1  0  0  0  0  0  0  0  0  0
  -23.6263  -25.4876   24.8144 C   0  0  2  0  0  0  0  0  0  0  0  0
  -32.3506  -19.6788   19.6459 C   0  0  0  0  0  0  0  0  0  0  0  0
  -27.8897  -27.6367   24.6748 C   0  0  0  0  0  0  0  0  0  0  0  0
  -25.8193  -11.5487   20.3249 N   0  0  0  0  0  0  0  0  0  0  0  0
  -26.2099  -12.8267   20.1826 N   0  0  0  0  0  0  0  0  0  0  0  0
  -27.2232  -26.9703   21.2140 N   0  0  0  0  0  0  0  0  0  0  0  0
  -29.9445  -13.5839   20.4327 N   0  0  0  0  0  0  0  0  0  0  0  0
  -25.4603  -15.0646   20.3850 N   0  0  0  0  0  0  0  0  0  0  0  0
  -21.8355  -12.6411   21.5616 N   0  0  0  0  0  0  0  0  0  0  0  0
  -30.0581  -15.6789   21.5099 N   0  0  0  0  0  0  0  0  0  0  0  0
  -28.9529  -28.9346   18.6752 N   0  0  0  0  0  0  0  0  0  0  0  0
  -25.5945  -26.6984   24.1690 N   0  0  0  0  0  0  0  0  0  0  0  0
  -22.7990  -24.4068   24.2075 N   0  3  0  0  0  0  0  0  0  0  0  0
  -22.6348  -14.7693   21.2606 O   0  0  0  0  0  0  0  0  0  0  0  0
  -29.5572  -27.8416   20.6406 O   0  0  0  0  0  0  0  0  0  0  0  0
  -31.9499  -21.8611   18.6489 O   0  0  0  0  0  0  0  0  0  0  0  0
  -26.3492  -28.7967   22.3700 O   0  0  0  0  0  0  0  0  0  0  0  0
  -25.6018  -24.3888   23.9614 O   0  0  0  0  0  0  0  0  0  0  0  0
  -31.8463  -14.8870   20.2623 O   0  0  0  0  0  0  0  0  0  0  0  0
  -21.5098   -7.0829   21.7508 O   0  0  0  0  0  0  0  0  0  0  0  0
  -28.8381  -21.5895   18.6660 O   0  0  0  0  0  0  0  0  0  1  0  0
  -23.8619   -3.0520   24.6873 F   0  0  0  0  0  0  0  0  0  0  0  0
  -20.4204   -6.2577   24.1539 F   0  0  0  0  0  0  0  0  0  0  0  0
  1  2  1  0  0  0  0
  1  6  2  0  0  0  0
  2  7  2  0  0  0  0
  3  9  2  0  0  0  0
  3 10  1  0  0  0  0
  4 11  2  0  0  0  0
  4 19  1  0  0  0  0
  5 12  1  0  0  0  0
  5 19  2  0  0  0  0
  6 21  1  0  0  0  0
  7 23  1  0  0  0  0
  8 13  2  0  0  0  0
  8 22  1  0  0  0  0
  9 25  1  0  0  0  0
 10 26  2  0  0  0  0
 11 27  1  0  0  0  0
 12 27  2  0  0  0  0
 13 28  1  0  0  0  0
 14 15  2  0  0  0  0
 14 29  1  0  0  0  0
 15 30  1  0  0  0  0
 16 24  1  0  0  0  0
 16 28  2  0  0  0  0
 17 25  2  0  0  0  0
 17 26  1  0  0  0  0
 18 30  2  0  0  0  0
 18 31  1  0  0  0  0
 19 32  1  0  0  0  0
 20 32  1  0  0  0  0
 20 33  2  0  0  0  0
 20 34  1  0  0  0  0
 21 23  2  0  0  0  0
 21 40  1  0  0  0  0
 22 24  2  0  0  0  0
 22 41  1  0  0  0  0
 23 49  1  0  0  0  0
 24 42  1  0  0  0  0
 25 63  1  0  0  0  0
 26 71  1  0  0  0  0
 27 81  1  0  0  0  0
 28 82  1  0  0  0  0
 29 31  2  0  0  0  0
 29 81  1  0  0  0  0
 30 83  1  0  0  0  0
 31 84  1  0  0  0  0
 32 65  2  0  0  0  0
 33 66  1  0  0  0  0
 33 69  1  0  0  0  0
 34 70  1  0  0  0  0
 34 75  2  0  0  0  0
 35 50  1  0  0  0  0
 35 72  1  0  0  0  0
 35 76  2  0  0  0  0
 36 59  1  0  0  0  0
 36 63  1  0  0  0  0
 36 77  2  0  0  0  0
 37 61  1  0  0  0  0
 37 67  1  0  0  0  0
 37 78  2  0  0  0  0
 38 62  1  0  0  0  0
 38 73  1  0  0  0  0
 38 79  2  0  0  0  0
 39 68  1  0  0  0  0
 39 71  1  0  0  0  0
 39 80  2  0  0  0  0
 40 43  1  0  0  0  0
 41 50  1  0  0  0  0
 42 67  1  0  0  0  0
 43 45  1  0  0  0  0
 44 46  1  0  0  0  0
 44 47  1  0  0  0  0
 45 49  1  0  0  0  0
 46 51  1  0  0  0  0
 47 68  1  0  0  0  0
 48 51  1  0  0  0  0
 48 68  1  0  0  0  0
 49 72  1  0  0  0  0
 50 67  1  0  0  0  0
 51 66  1  0  0  0  0
 52 62  1  0  0  0  0
 53 63  1  0  0  0  0
 54 63  1  0  0  0  0
 55 64  1  0  0  0  0
 56 64  1  0  0  0  0
 57 64  1  0  0  0  0
 58 74  1  0  0  0  0
 59 60  1  0  0  0  0
 60 82  1  0  0  0  0
 61 64  1  0  0  0  0
 61 73  1  0  0  0  0
 62 74  1  0  0  0  0
 65 66  1  0  0  0  0
M  CHG  1  74   1
M  ISO  4  39 100  60 101  71 100  82 101
M  END
> <Batch ID>
0139

> <Smiles>
CNC(C)C(=O)NC(C(=O)N1Cc2cc([101O:1][101CH2:1]CC(=O)C(C)(C)c3cccc([100NH:0][100C:0](=O)N4CCCC(n5nc(-c6ccc(Oc7ccc(F)cc7F)cc6)c(C(N)=O)c5N)C4)c3)ccc2CC1C(=O)NC1CCCc2ccccc21)C(C)(C)C

> <Shape>
0.247

> <Color>
0.203

> <Negative vol penalty>
0.000

$$$$

  -OEChem-04052302483D

 84 92  0     1  0  0  0  0  0999 V2000
  -27.9157  -24.1825   17.1529 C   0  0  0  0  0  0  0  0  0  0  0  0
  -26.7092  -24.4989   17.7690 C   0  0  0  0  0  0  0  0  0  0  0  0
  -25.5154  -14.5933   19.0157 C   0  0  0  0  0  0  0  0  0  0  0  0
  -24.5896  -14.6081   21.2473 C   0  0  0  0  0  0  0  0  0  0  0  0
  -29.1175  -24.6117   17.7144 C   0  0  0  0  0  0  0  0  0  0  0  0
  -26.7039  -25.2439   18.9478 C   0  0  0  0  0  0  0  0  0  0  0  0
  -23.2090  -28.9085   18.9143 C   0  0  0  0  0  0  0  0  0  0  0  0
  -25.7354  -13.2196   19.1161 C   0  0  0  0  0  0  0  0  0  0  0  0
  -24.8095  -13.2344   21.3477 C   0  0  0  0  0  0  0  0  0  0  0  0
  -21.8886  -28.5314   19.1552 C   0  0  0  0  0  0  0  0  0  0  0  0
  -24.7957   -9.6682   22.0548 C   0  0  0  0  0  0  0  0  0  0  0  0
  -23.7696   -8.8830   22.5803 C   0  0  0  0  0  0  0  0  0  0  0  0
  -22.1027  -29.2656   21.4431 C   0  0  0  0  0  0  0  0  0  0  0  0
  -21.3969  -24.5348   24.0422 C   0  0  0  0  0  0  0  0  0  0  0  0
  -22.3057   -9.6037   20.7986 C   0  0  0  0  0  0  0  0  0  0  0  0
  -24.9425  -15.2876   20.0813 C   0  0  0  0  0  0  0  0  0  0  0  0
  -23.5603  -17.3500   19.4951 C   0  0  0  0  0  0  0  0  0  0  0  0
  -29.1264  -25.3705   18.8954 C   0  0  0  0  0  0  0  0  0  0  0  0
  -23.9909  -29.4579   19.9406 C   0  0  0  0  0  0  0  0  0  0  0  0
  -27.9070  -25.6825   19.5264 C   0  0  0  0  0  0  0  0  0  0  0  0
  -23.4320  -29.6513   21.2119 C   0  0  0  0  0  0  0  0  0  0  0  0
  -22.3783  -23.8425   24.8088 C   0  0  0  0  0  0  0  0  0  0  0  0
  -25.3825  -12.5401   20.2821 C   0  0  0  0  0  0  0  0  0  0  0  0
  -21.3362  -28.7072   20.4205 C   0  0  0  0  0  0  0  0  0  0  0  0
  -24.5768  -10.4212   20.9012 C   0  0  0  0  0  0  0  0  0  0  0  0
  -22.5246   -8.8507   21.9522 C   0  0  0  0  0  0  0  0  0  0  0  0
  -23.3318  -10.3889   20.2731 C   0  0  0  0  0  0  0  0  0  0  0  0
  -24.7155  -16.7068   19.9785 C   0  0  0  0  0  0  0  0  0  0  0  0
  -23.6091  -23.8372   24.1902 C   0  0  0  0  0  0  0  0  0  0  0  0
  -23.8424  -18.6898   19.6042 C   0  0  0  0  0  0  0  0  0  0  0  0
  -21.9151  -25.0325   22.8668 C   0  0  0  0  0  0  0  0  0  0  0  0
  -22.3413  -16.7869   18.9927 C   0  0  0  0  0  0  0  0  0  0  0  0
  -26.6700  -28.6029   21.4221 C   0  0  0  0  0  0  0  0  0  0  0  0
  -26.3577  -31.5082   22.8305 C   0  0  0  0  0  0  0  0  0  0  0  0
  -24.3053  -34.0709   23.7618 C   0  0  0  0  0  0  0  0  0  0  0  0
  -19.9811  -26.1919   21.7467 C   0  0  0  0  0  0  0  0  0  0  0  0
  -26.6086  -22.4069   23.0749 C   0  0  0  0  0  0  0  0  0  0  0  0
  -30.4530  -25.7717   19.4905 C   0  0  0  0  0  0  0  0  0  0  0  0
  -25.4053  -29.8843   19.6574 C   0  0  0  0  0  0  0  0  0  0  0  0
  -24.2229  -30.2555   22.3423 C   0  0  0  0  0  0  0  0  0  0  0  0
  -30.3414  -26.8760   20.5385 C   0  0  0  0  0  0  0  0  0  0  0  0
  -27.9878  -21.3597   19.9640 C   0  0  0  0  0  0  0  0  0  0  0  0
  -29.2099  -26.5725   21.5154 C   0  0  0  0  0  0  0  0  0  0  0  0
  -27.1772  -20.1129   19.6057 C   0  0  0  0  0  0  0  0  0  0  0  0
  -28.2371  -21.4579   21.4674 C   0  0  0  0  0  0  0  0  0  0  0  0
  -26.2132  -20.1349   21.9443 C   0  0  0  0  0  0  0  0  0  0  0  0
  -27.8589  -26.5098   20.7926 C   0  0  1  0  0  0  0  0  0  0  0  0
  -26.2696  -29.9584   20.9123 C   0  0  1  0  0  0  0  0  0  0  0  0
  -25.8886  -20.0215   20.4449 C   0  0  2  0  0  0  0  0  0  0  0  0
  -21.9593  -21.6859   26.0171 C   0  0  0  0  0  0  0  0  0  0  0  0
  -24.3328  -36.2919   24.9296 C   0  0  0  0  0  0  0  0  0  0  0  0
  -18.2621  -26.8569   20.0256 C   0  0  0  0  0  0  0  0  0  0  0  0
  -26.5747  -30.0876   25.5221 C   0  0  0  0  0  0  0  0  0  0  0  0
  -25.6606  -32.1509   26.6062 C   0  0  0  0  0  0  0  0  0  0  0  0
  -27.8295  -32.2461   25.3777 C   0  0  0  0  0  0  0  0  0  0  0  0
  -23.3421  -35.4836   21.3462 C   0  0  0  0  0  0  0  0  0  0  0  0
  -22.0958  -23.2064   26.1176 C   0  0  0  0  0  0  0  0  0  0  0  0
  -24.8787  -23.2314   24.6519 C   0  0  0  0  0  0  0  0  0  0  0  0
  -25.6749  -32.0260   24.0734 C   0  0  1  0  0  0  0  0  0  0  0  0
  -24.4306  -35.5742   23.5924 C   0  0  2  0  0  0  0  0  0  0  0  0
  -19.7169  -26.9658   20.4577 C   0  0  1  0  0  0  0  0  0  1  0  0
  -26.4204  -31.6144   25.3743 C   0  0  0  0  0  0  0  0  0  0  0  0
  -25.6610  -17.5671   20.3655 N   0  0  0  0  0  0  0  0  0  0  0  0
  -25.1005  -18.7647   20.1255 N   0  0  0  0  0  0  0  0  0  0  0  0
  -25.6034  -30.6506   22.0174 N   0  0  0  0  0  0  0  0  0  0  0  0
  -26.9751  -21.3662   22.2056 N   0  0  0  0  0  0  0  0  0  0  0  0
  -23.1345  -19.7994   19.3039 N   0  0  0  0  0  0  0  0  0  0  0  0
  -22.2178  -15.3914   18.9499 N   0  0  0  0  0  0  0  0  0  0  0  0
  -21.3047  -25.7712   21.8253 N   0  0  0  0  0  0  0  0  0  0  0  0
  -27.3756  -27.8439   20.5080 N   0  0  0  0  0  0  0  0  0  0  0  0
  -25.5380  -33.4673   23.8936 N   0  0  0  0  0  0  0  0  0  0  0  0
  -25.3943  -22.2436   23.7304 N   0  0  0  0  0  0  0  0  0  0  0  0
  -23.3500  -36.0872   22.7036 N   0  3  0  0  0  0  0  0  0  0  0  0
  -21.3961  -17.4998   18.5781 O   0  0  0  0  0  0  0  0  0  0  0  0
  -26.3630  -28.2708   22.5610 O   0  0  0  0  0  0  0  0  0  0  0  0
  -27.5152  -31.8578   22.5864 O   0  0  0  0  0  0  0  0  0  0  0  0
  -23.2221  -33.4906   23.7795 O   0  0  0  0  0  0  0  0  0  0  0  0
  -19.0932  -26.0142   22.5757 O   0  0  0  0  0  0  0  0  0  0  0  0
  -27.3089  -23.4098   23.2497 O   0  0  0  0  0  0  0  0  0  0  0  0
  -25.5968  -11.1996   20.3803 O   0  0  0  0  0  0  0  0  0  0  0  0
  -20.0478  -28.3393   20.6586 O   0  0  0  0  0  0  0  0  0  1  0  0
  -21.5398   -8.0955   22.4561 F   0  0  0  0  0  0  0  0  0  0  0  0
  -23.1159  -11.1093   19.1639 F   0  0  0  0  0  0  0  0  0  0  0  0
  -23.5782  -24.6645   22.6912 S   0  0  0  0  0  0  0  0  0  0  0  0
  1  2  1  0  0  0  0
  1  5  2  0  0  0  0
  2  6  2  0  0  0  0
  3  8  2  0  0  0  0
  3 16  1  0  0  0  0
  4  9  1  0  0  0  0
  4 16  2  0  0  0  0
  5 18  1  0  0  0  0
  6 20  1  0  0  0  0
  7 10  2  0  0  0  0
  7 19  1  0  0  0  0
  8 23  1  0  0  0  0
  9 23  2  0  0  0  0
 10 24  1  0  0  0  0
 11 12  2  0  0  0  0
 11 25  1  0  0  0  0
 12 26  1  0  0  0  0
 13 21  1  0  0  0  0
 13 24  2  0  0  0  0
 14 22  1  0  0  0  0
 14 31  2  0  0  0  0
 15 26  2  0  0  0  0
 15 27  1  0  0  0  0
 16 28  1  0  0  0  0
 17 28  1  0  0  0  0
 17 30  2  0  0  0  0
 17 32  1  0  0  0  0
 18 20  2  0  0  0  0
 18 38  1  0  0  0  0
 19 21  2  0  0  0  0
 19 39  1  0  0  0  0
 20 47  1  0  0  0  0
 21 40  1  0  0  0  0
 22 29  2  0  0  0  0
 22 57  1  0  0  0  0
 23 80  1  0  0  0  0
 24 81  1  0  0  0  0
 25 27  2  0  0  0  0
 25 80  1  0  0  0  0
 26 82  1  0  0  0  0
 27 83  1  0  0  0  0
 28 63  2  0  0  0  0
 29 58  1  0  0  0  0
 29 84  1  0  0  0  0
 30 64  1  0  0  0  0
 30 67  1  0  0  0  0
 31 69  1  0  0  0  0
 31 84  1  0  0  0  0
 32 68  1  0  0  0  0
 32 74  2  0  0  0  0
 33 48  1  0  0  0  0
 33 70  1  0  0  0  0
 33 75  2  0  0  0  0
 34 59  1  0  0  0  0
 34 65  1  0  0  0  0
 34 76  2  0  0  0  0
 35 60  1  0  0  0  0
 35 71  1  0  0  0  0
 35 77  2  0  0  0  0
 36 61  1  0  0  0  0
 36 69  1  0  0  0  0
 36 78  2  0  0  0  0
 37 66  1  0  0  0  0
 37 72  1  0  0  0  0
 37 79  2  0  0  0  0
 38 41  1  0  0  0  0
 39 48  1  0  0  0  0
 40 65  1  0  0  0  0
 41 43  1  0  0  0  0
 42 44  1  0  0  0  0
 42 45  1  0  0  0  0
 43 47  1  0  0  0  0
 44 49  1  0  0  0  0
 45 66  1  0  0  0  0
 46 49  1  0  0  0  0
 46 66  1  0  0  0  0
 47 70  1  0  0  0  0
 48 65  1  0  0  0  0
 49 64  1  0  0  0  0
 50 57  1  0  0  0  0
 51 60  1  0  0  0  0
 52 61  1  0  0  0  0
 53 62  1  0  0  0  0
 54 62  1  0  0  0  0
 55 62  1  0  0  0  0
 56 73  1  0  0  0  0
 58 72  1  0  0  0  0
 59 62  1  0  0  0  0
 59 71  1  0  0  0  0
 60 73  1  0  0  0  0
 61 81  1  0  0  0  0
 63 64  1  0  0  0  0
M  CHG  1  73   1
M  ISO  4  37 100  61 101  72 100  81 101
M  END
> <Batch ID>
0139

> <Smiles>
CCc1cc(NC(=O)[101CH:1](C)[101O:1]c2ccc3c(c2)CN(C(=O)C(NC(=O)C(C)NC)C(C)(C)C)C(C(=O)NC2CCCc4ccccc42)C3)sc1C[100NH:0][100C:0](=O)N1CCCC(n2nc(-c3ccc(Oc4ccc(F)cc4F)cc3)c(C(N)=O)c2N)C1

> <Shape>
0.301

> <Color>
0.082

> <Negative vol penalty>
0.000

$$$$

  -OEChem-04052302483D

 88 96  0     1  0  0  0  0  0999 V2000
  -27.2819  -27.0059   20.5774 C   0  0  0  0  0  0  0  0  0  0  0  0
  -27.7017  -26.7042   21.8690 C   0  0  0  0  0  0  0  0  0  0  0  0
  -23.0727   -9.8690   19.9448 C   0  0  0  0  0  0  0  0  0  0  0  0
  -23.8342   -9.8804   22.2377 C   0  0  0  0  0  0  0  0  0  0  0  0
  -27.5665  -26.1299   19.5307 C   0  0  0  0  0  0  0  0  0  0  0  0
  -28.4054  -25.5258   22.1148 C   0  0  0  0  0  0  0  0  0  0  0  0
  -33.5439  -22.8699   26.3408 C   0  0  0  0  0  0  0  0  0  0  0  0
  -22.3292   -8.7162   20.1975 C   0  0  0  0  0  0  0  0  0  0  0  0
  -23.0906   -8.7276   22.4903 C   0  0  0  0  0  0  0  0  0  0  0  0
  -33.7856  -21.7982   27.1991 C   0  0  0  0  0  0  0  0  0  0  0  0
  -19.9446   -5.9757   20.3327 C   0  0  0  0  0  0  0  0  0  0  0  0
  -18.6386   -5.9266   19.8454 C   0  0  0  0  0  0  0  0  0  0  0  0
  -34.2892  -20.3986   25.3000 C   0  0  0  0  0  0  0  0  0  0  0  0
  -29.0610  -17.7201   23.4642 C   0  0  0  0  0  0  0  0  0  0  0  0
  -29.5674  -18.1970   25.7779 C   0  0  0  0  0  0  0  0  0  0  0  0
  -18.0740   -7.8718   21.1623 C   0  0  0  0  0  0  0  0  0  0  0  0
  -23.8253  -10.4511   20.9649 C   0  0  0  0  0  0  0  0  0  0  0  0
  -24.1666  -12.9761   20.8399 C   0  0  0  0  0  0  0  0  0  0  0  0
  -28.2825  -24.9448   19.7622 C   0  0  0  0  0  0  0  0  0  0  0  0
  -33.6626  -22.7109   24.9526 C   0  0  0  0  0  0  0  0  0  0  0  0
  -28.6987  -24.6325   21.0705 C   0  0  0  0  0  0  0  0  0  0  0  0
  -34.0509  -21.4706   24.4263 C   0  0  0  0  0  0  0  0  0  0  0  0
  -30.3882  -17.3482   23.2503 C   0  0  0  0  0  0  0  0  0  0  0  0
  -30.8947  -17.8251   25.5640 C   0  0  0  0  0  0  0  0  0  0  0  0
  -22.3381   -8.1455   21.4702 C   0  0  0  0  0  0  0  0  0  0  0  0
  -34.1555  -20.5615   26.6786 C   0  0  0  0  0  0  0  0  0  0  0  0
  -20.3153   -6.9729   21.2349 C   0  0  0  0  0  0  0  0  0  0  0  0
  -31.3051  -17.4007   24.3002 C   0  0  0  0  0  0  0  0  0  0  0  0
  -17.7033   -6.8746   20.2601 C   0  0  0  0  0  0  0  0  0  0  0  0
  -28.6506  -18.1445   24.7280 C   0  0  0  0  0  0  0  0  0  0  0  0
  -19.3800   -7.9209   21.6497 C   0  0  0  0  0  0  0  0  0  0  0  0
  -24.5940  -11.6416   20.7044 C   0  0  0  0  0  0  0  0  0  0  0  0
  -25.2583  -13.7251   20.4744 C   0  0  0  0  0  0  0  0  0  0  0  0
  -22.8963  -13.4925   21.2587 C   0  0  0  0  0  0  0  0  0  0  0  0
  -31.6698  -22.9546   22.4883 C   0  0  0  0  0  0  0  0  0  0  0  0
  -34.3746  -22.4988   20.7567 C   0  0  0  0  0  0  0  0  0  0  0  0
  -31.5605  -18.2874   27.9488 C   0  0  0  0  0  0  0  0  0  0  0  0
  -37.5568  -21.2729   20.6227 C   0  0  0  0  0  0  0  0  0  0  0  0
  -30.7421  -14.7454   20.6571 C   0  0  0  0  0  0  0  0  0  0  0  0
  -28.5252  -24.0060   18.6071 C   0  0  0  0  0  0  0  0  0  0  0  0
  -33.4245  -23.8839   24.0418 C   0  0  0  0  0  0  0  0  0  0  0  0
  -34.2121  -21.2532   22.9447 C   0  0  0  0  0  0  0  0  0  0  0  0
  -29.6014  -22.9603   18.8878 C   0  0  0  0  0  0  0  0  0  0  0  0
  -29.6032  -12.3562   18.2756 C   0  0  0  0  0  0  0  0  0  0  0  0
  -29.3857  -22.3271   20.2587 C   0  0  0  0  0  0  0  0  0  0  0  0
  -28.1661  -12.0630   18.7101 C   0  0  0  0  0  0  0  0  0  0  0  0
  -30.5211  -12.5794   19.4755 C   0  0  0  0  0  0  0  0  0  0  0  0
  -28.6202  -13.3128   20.8620 C   0  0  0  0  0  0  0  0  0  0  0  0
  -29.4860  -23.3759   21.3729 C   0  0  1  0  0  0  0  0  0  0  0  0
  -33.0749  -23.4714   22.6153 C   0  0  1  0  0  0  0  0  0  0  0  0
  -27.6453  -13.1358   19.6853 C   0  0  2  0  0  0  0  0  0  0  0  0
  -30.6023  -17.9764   20.8170 C   0  0  0  0  0  0  0  0  0  0  0  0
  -39.5040  -21.0143   19.0610 C   0  0  0  0  0  0  0  0  0  0  0  0
  -34.6583  -19.5363   29.8950 C   0  0  0  0  0  0  0  0  0  0  0  0
  -32.9360  -20.2072   19.3464 C   0  0  0  0  0  0  0  0  0  0  0  0
  -35.1620  -19.4076   18.5252 C   0  0  0  0  0  0  0  0  0  0  0  0
  -34.3167  -21.6537   17.8445 C   0  0  0  0  0  0  0  0  0  0  0  0
  -39.3121  -22.9094   22.3546 C   0  0  0  0  0  0  0  0  0  0  0  0
  -32.9330  -15.6670   24.2942 C   0  0  0  0  0  0  0  0  0  0  0  0
  -32.8327  -18.2038   28.7867 C   0  0  0  0  0  0  0  0  0  0  0  0
  -30.8084  -16.8983   21.8899 C   0  0  2  0  0  0  0  0  0  0  0  0
  -35.1092  -21.2948   20.2184 C   0  0  1  0  0  0  0  0  0  0  0  0
  -38.8523  -21.8863   20.1229 C   0  0  2  0  0  0  0  0  0  0  0  0
  -33.6646  -19.4855   28.7419 C   0  0  2  0  0  0  0  0  0  1  0  0
  -34.3762  -20.6441   19.0115 C   0  0  0  0  0  0  0  0  0  0  0  0
  -25.8585  -11.5452   20.2854 N   0  0  0  0  0  0  0  0  0  0  0  0
  -26.2351  -12.8286   20.1544 N   0  0  0  0  0  0  0  0  0  0  0  0
  -33.9619  -22.4291   22.0949 N   0  0  0  0  0  0  0  0  0  0  0  0
  -29.9710  -13.6095   20.3599 N   0  0  0  0  0  0  0  0  0  0  0  0
  -25.4685  -15.0564   20.3988 N   0  0  0  0  0  0  0  0  0  0  0  0
  -21.8848  -12.5838   21.5984 N   0  0  0  0  0  0  0  0  0  0  0  0
  -31.8127  -17.8871   26.6393 N   0  0  0  0  0  0  0  0  0  0  0  0
  -30.8712  -23.6982   21.6404 N   0  0  0  0  0  0  0  0  0  0  0  0
  -36.4657  -21.7429   19.9226 N   0  0  0  0  0  0  0  0  0  0  0  0
  -30.1433  -15.6757   21.4978 N   0  0  0  0  0  0  0  0  0  0  0  0
  -39.8142  -22.0539   21.2487 N   0  3  0  0  0  0  0  0  0  0  0  0
  -22.6599  -14.7232   21.3139 O   0  0  0  0  0  0  0  0  0  0  0  0
  -31.3353  -21.9543   23.1122 O   0  0  0  0  0  0  0  0  0  0  0  0
  -34.1805  -23.4684   20.0192 O   0  0  0  0  0  0  0  0  0  0  0  0
  -30.4917  -18.6624   28.4191 O   0  0  0  0  0  0  0  0  0  0  0  0
  -37.5170  -20.4556   21.5397 O   0  0  0  0  0  0  0  0  0  0  0  0
  -31.8777  -14.9202   20.2024 O   0  0  0  0  0  0  0  0  0  0  0  0
  -21.6125   -7.0208   21.7172 O   0  0  0  0  0  0  0  0  0  0  0  0
  -32.6032  -17.0378   24.0868 O   0  0  0  0  0  0  0  0  0  0  0  0
  -34.3913  -19.5136   27.5141 O   0  0  0  0  0  0  0  0  0  1  0  0
  -16.4496   -6.8282   19.7909 F   0  0  0  0  0  0  0  0  0  0  0  0
  -27.3764  -18.5034   24.9329 F   0  0  0  0  0  0  0  0  0  0  0  0
  -19.7306   -8.8820   22.5153 F   0  0  0  0  0  0  0  0  0  0  0  0
  1  2  1  0  0  0  0
  1  5  2  0  0  0  0
  2  6  2  0  0  0  0
  3  8  2  0  0  0  0
  3 17  1  0  0  0  0
  4  9  1  0  0  0  0
  4 17  2  0  0  0  0
  5 19  1  0  0  0  0
  6 21  1  0  0  0  0
  7 10  2  0  0  0  0
  7 20  1  0  0  0  0
  8 25  1  0  0  0  0
  9 25  2  0  0  0  0
 10 26  1  0  0  0  0
 11 12  2  0  0  0  0
 11 27  1  0  0  0  0
 12 29  1  0  0  0  0
 13 22  1  0  0  0  0
 13 26  2  0  0  0  0
 14 23  2  0  0  0  0
 14 30  1  0  0  0  0
 15 24  1  0  0  0  0
 15 30  2  0  0  0  0
 16 29  2  0  0  0  0
 16 31  1  0  0  0  0
 17 32  1  0  0  0  0
 18 32  1  0  0  0  0
 18 33  2  0  0  0  0
 18 34  1  0  0  0  0
 19 21  2  0  0  0  0
 19 40  1  0  0  0  0
 20 22  2  0  0  0  0
 20 41  1  0  0  0  0
 21 49  1  0  0  0  0
 22 42  1  0  0  0  0
 23 28  1  0  0  0  0
 23 61  1  0  0  0  0
 24 28  2  0  0  0  0
 24 72  1  0  0  0  0
 25 83  1  0  0  0  0
 26 85  1  0  0  0  0
 27 31  2  0  0  0  0
 27 83  1  0  0  0  0
 28 84  1  0  0  0  0
 29 86  1  0  0  0  0
 30 87  1  0  0  0  0
 31 88  1  0  0  0  0
 32 66  2  0  0  0  0
 33 67  1  0  0  0  0
 33 70  1  0  0  0  0
 34 71  1  0  0  0  0
 34 77  2  0  0  0  0
 35 50  1  0  0  0  0
 35 73  1  0  0  0  0
 35 78  2  0  0  0  0
 36 62  1  0  0  0  0
 36 68  1  0  0  0  0
 36 79  2  0  0  0  0
 37 60  1  0  0  0  0
 37 72  1  0  0  0  0
 37 80  2  0  0  0  0
 38 63  1  0  0  0  0
 38 74  1  0  0  0  0
 38 81  2  0  0  0  0
 39 69  1  0  0  0  0
 39 75  1  0  0  0  0
 39 82  2  0  0  0  0
 40 43  1  0  0  0  0
 41 50  1  0  0  0  0
 42 68  1  0  0  0  0
 43 45  1  0  0  0  0
 44 46  1  0  0  0  0
 44 47  1  0  0  0  0
 45 49  1  0  0  0  0
 46 51  1  0  0  0  0
 47 69  1  0  0  0  0
 48 51  1  0  0  0  0
 48 69  1  0  0  0  0
 49 73  1  0  0  0  0
 50 68  1  0  0  0  0
 51 67  1  0  0  0  0
 52 61  1  0  0  0  0
 53 63  1  0  0  0  0
 54 64  1  0  0  0  0
 55 65  1  0  0  0  0
 56 65  1  0  0  0  0
 57 65  1  0  0  0  0
 58 76  1  0  0  0  0
 59 84  1  0  0  0  0
 60 64  1  0  0  0  0
 61 75  1  0  0  0  0
 62 65  1  0  0  0  0
 62 74  1  0  0  0  0
 63 76  1  0  0  0  0
 64 85  1  0  0  0  0
 66 67  1  0  0  0  0
M  CHG  1  76   1
M  ISO  4  39 100  64 101  75 100  85 101
M  END
> <Batch ID>
0139

> <Smiles>
CNC(C)C(=O)NC(C(=O)N1Cc2cc([101O:1][101CH:1](C)CC(=O)Nc3cc(F)cc(C(C)[100NH:0][100C:0](=O)N4CCCC(n5nc(-c6ccc(Oc7ccc(F)cc7F)cc6)c(C(N)=O)c5N)C4)c3OC)ccc2CC1C(=O)NC1CCCc2ccccc21)C(C)(C)C

> <Shape>
0.191

> <Color>
0.187

> <Negative vol penalty>
0.000

$$$$

  -OEChem-04052302483D

 84 92  0     1  0  0  0  0  0999 V2000
  -31.8100  -26.0555   19.1919 C   0  0  0  0  0  0  0  0  0  0  0  0
  -30.5484  -25.9956   18.6087 C   0  0  0  0  0  0  0  0  0  0  0  0
  -26.6903  -14.7506   21.4266 C   0  0  0  0  0  0  0  0  0  0  0  0
  -24.4789  -14.8634   20.4601 C   0  0  0  0  0  0  0  0  0  0  0  0
  -31.9379  -26.3784   20.5422 C   0  0  0  0  0  0  0  0  0  0  0  0
  -29.4137  -26.2574   19.3758 C   0  0  0  0  0  0  0  0  0  0  0  0
  -22.8503  -29.0794   18.8528 C   0  0  0  0  0  0  0  0  0  0  0  0
  -26.3334  -13.5866   22.1074 C   0  0  0  0  0  0  0  0  0  0  0  0
  -24.1220  -13.6993   21.1409 C   0  0  0  0  0  0  0  0  0  0  0  0
  -21.5199  -28.7712   19.1334 C   0  0  0  0  0  0  0  0  0  0  0  0
  -24.5905  -10.3705   20.7948 C   0  0  0  0  0  0  0  0  0  0  0  0
  -23.8978   -9.3915   20.0825 C   0  0  0  0  0  0  0  0  0  0  0  0
  -21.8672  -29.3963   21.4372 C   0  0  0  0  0  0  0  0  0  0  0  0
  -20.6959  -21.9684   19.2869 C   0  0  0  0  0  0  0  0  0  0  0  0
  -18.9917  -23.4775   20.0961 C   0  0  0  0  0  0  0  0  0  0  0  0
  -21.2923  -23.7815   20.7681 C   0  0  0  0  0  0  0  0  0  0  0  0
  -22.0484   -9.5770   21.6261 C   0  0  0  0  0  0  0  0  0  0  0  0
  -25.7630  -15.3890   20.6030 C   0  0  0  0  0  0  0  0  0  0  0  0
  -26.6972  -16.6856   18.6146 C   0  0  0  0  0  0  0  0  0  0  0  0
  -30.8049  -26.6538   21.3239 C   0  0  0  0  0  0  0  0  0  0  0  0
  -23.7035  -29.5388   19.8664 C   0  0  0  0  0  0  0  0  0  0  0  0
  -29.5265  -26.5830   20.7382 C   0  0  0  0  0  0  0  0  0  0  0  0
  -23.2074  -29.7121   21.1663 C   0  0  0  0  0  0  0  0  0  0  0  0
  -19.3610  -22.3700   19.3327 C   0  0  0  0  0  0  0  0  0  0  0  0
  -21.6616  -22.6741   20.0047 C   0  0  0  0  0  0  0  0  0  0  0  0
  -25.0493  -13.0610   21.9645 C   0  0  0  0  0  0  0  0  0  0  0  0
  -21.0289  -28.9268   20.4263 C   0  0  0  0  0  0  0  0  0  0  0  0
  -24.0122  -10.9527   21.9228 C   0  0  0  0  0  0  0  0  0  0  0  0
  -19.9573  -24.1832   20.8138 C   0  0  0  0  0  0  0  0  0  0  0  0
  -22.6267   -8.9948   20.4982 C   0  0  0  0  0  0  0  0  0  0  0  0
  -22.7411  -10.5560   22.3384 C   0  0  0  0  0  0  0  0  0  0  0  0
  -26.1308  -16.5917   19.9000 C   0  0  0  0  0  0  0  0  0  0  0  0
  -26.8558  -18.0339   18.4068 C   0  0  0  0  0  0  0  0  0  0  0  0
  -27.0484  -15.6467   17.6909 C   0  0  0  0  0  0  0  0  0  0  0  0
  -26.3816  -28.4667   21.2012 C   0  0  0  0  0  0  0  0  0  0  0  0
  -26.3013  -31.3247   22.7334 C   0  0  0  0  0  0  0  0  0  0  0  0
  -24.4459  -33.9633   23.8479 C   0  0  0  0  0  0  0  0  0  0  0  0
  -24.0999  -22.8558   20.6113 C   0  0  0  0  0  0  0  0  0  0  0  0
  -30.9900  -26.9521   22.7907 C   0  0  0  0  0  0  0  0  0  0  0  0
  -25.1290  -29.8924   19.5416 C   0  0  0  0  0  0  0  0  0  0  0  0
  -24.0770  -30.2213   22.2857 C   0  0  0  0  0  0  0  0  0  0  0  0
  -29.7627  -27.5826   23.4437 C   0  0  0  0  0  0  0  0  0  0  0  0
  -27.5813  -22.1289   20.7816 C   0  0  0  0  0  0  0  0  0  0  0  0
  -28.4990  -26.8260   23.0470 C   0  0  0  0  0  0  0  0  0  0  0  0
  -27.6565  -20.6363   20.4519 C   0  0  0  0  0  0  0  0  0  0  0  0
  -26.3419  -22.4651   21.6091 C   0  0  0  0  0  0  0  0  0  0  0  0
  -25.1457  -20.5081   20.7101 C   0  0  0  0  0  0  0  0  0  0  0  0
  -28.2736  -26.8848   21.5314 C   0  0  1  0  0  0  0  0  0  0  0  0
  -26.0445  -29.8634   20.7615 C   0  0  1  0  0  0  0  0  0  0  0  0
  -26.3433  -20.1313   19.8226 C   0  0  2  0  0  0  0  0  0  0  0  0
  -18.3284  -21.6155   18.5656 C   0  0  0  0  0  0  0  0  0  0  0  0
  -24.6536  -36.1287   25.0992 C   0  0  0  0  0  0  0  0  0  0  0  0
  -26.5367  -29.7837   25.3563 C   0  0  0  0  0  0  0  0  0  0  0  0
  -25.7923  -31.8508   26.5568 C   0  0  0  0  0  0  0  0  0  0  0  0
  -27.9134  -31.8685   25.2441 C   0  0  0  0  0  0  0  0  0  0  0  0
  -17.9218  -26.7551   23.4605 C   0  0  0  0  0  0  0  0  0  0  0  0
  -16.9712  -27.9844   21.4992 C   0  0  0  0  0  0  0  0  0  0  0  0
  -23.4765  -35.5290   21.5311 C   0  0  0  0  0  0  0  0  0  0  0  0
  -19.4374  -28.1677   22.0222 C   0  0  0  0  0  0  0  0  0  1  0  0
  -18.4741  -26.0187   21.1084 C   0  0  0  0  0  0  0  0  0  0  0  0
  -25.7001  -31.8300   24.0227 C   0  0  1  0  0  0  0  0  0  0  0  0
  -24.6554  -35.4624   23.7321 C   0  0  2  0  0  0  0  0  0  0  0  0
  -26.4695  -31.3218   25.2745 C   0  0  0  0  0  0  0  0  0  0  0  0
  -18.2078  -27.2325   22.0239 C   0  0  0  0  0  0  0  0  0  0  0  0
  -25.9425  -17.7854   20.4688 N   0  0  0  0  0  0  0  0  0  0  0  0
  -26.3932  -18.6421   19.5366 N   0  0  0  0  0  0  0  0  0  0  0  0
  -25.4652  -30.5474   21.9194 N   0  0  0  0  0  0  0  0  0  0  0  0
  -25.1360  -21.9598   20.9494 N   0  0  0  0  0  0  0  0  0  0  0  0
  -27.3446  -18.7469   17.3699 N   0  0  0  0  0  0  0  0  0  0  0  0
  -26.8184  -14.3154   18.0636 N   0  0  0  0  0  0  0  0  0  0  0  0
  -23.0178  -22.2662   19.9586 N   0  0  0  0  0  0  0  0  0  0  0  0
  -27.7306  -28.1711   21.1507 N   0  0  0  0  0  0  0  0  0  0  0  0
  -25.6440  -33.2831   23.9049 N   0  0  0  0  0  0  0  0  0  0  0  0
  -23.5740  -36.0745   22.9095 N   0  3  0  0  0  0  0  0  0  0  0  0
  -27.5664  -15.8911   16.5749 O   0  0  0  0  0  0  0  0  0  0  0  0
  -25.4845  -27.7135   21.5611 O   0  0  0  0  0  0  0  0  0  0  0  0
  -27.4674  -31.6152   22.4552 O   0  0  0  0  0  0  0  0  0  0  0  0
  -23.3310  -33.4477   23.8879 O   0  0  0  0  0  0  0  0  0  0  0  0
  -24.1796  -24.0623   20.8565 O   0  0  0  0  0  0  0  0  0  0  0  0
  -24.7009  -11.9251   22.6284 O   0  0  0  0  0  0  0  0  0  0  0  0
  -19.7309  -28.6261   20.7031 O   0  0  0  0  0  0  0  0  0  1  0  0
  -19.5943  -25.2709   21.5641 O   0  0  0  0  0  0  0  0  0  0  0  0
  -21.9610   -8.0558   19.8132 F   0  0  0  0  0  0  0  0  0  0  0  0
  -22.1799  -11.1126   23.4206 F   0  0  0  0  0  0  0  0  0  0  0  0
  1  2  1  0  0  0  0
  1  5  2  0  0  0  0
  2  6  2  0  0  0  0
  3  8  2  0  0  0  0
  3 18  1  0  0  0  0
  4  9  1  0  0  0  0
  4 18  2  0  0  0  0
  5 20  1  0  0  0  0
  6 22  1  0  0  0  0
  7 10  2  0  0  0  0
  7 21  1  0  0  0  0
  8 26  1  0  0  0  0
  9 26  2  0  0  0  0
 10 27  1  0  0  0  0
 11 12  2  0  0  0  0
 11 28  1  0  0  0  0
 12 30  1  0  0  0  0
 13 23  1  0  0  0  0
 13 27  2  0  0  0  0
 14 24  1  0  0  0  0
 14 25  2  0  0  0  0
 15 24  2  0  0  0  0
 15 29  1  0  0  0  0
 16 25  1  0  0  0  0
 16 29  2  0  0  0  0
 17 30  2  0  0  0  0
 17 31  1  0  0  0  0
 18 32  1  0  0  0  0
 19 32  1  0  0  0  0
 19 33  2  0  0  0  0
 19 34  1  0  0  0  0
 20 22  2  0  0  0  0
 20 39  1  0  0  0  0
 21 23  2  0  0  0  0
 21 40  1  0  0  0  0
 22 48  1  0  0  0  0
 23 41  1  0  0  0  0
 24 51  1  0  0  0  0
 25 71  1  0  0  0  0
 26 80  1  0  0  0  0
 27 81  1  0  0  0  0
 28 31  2  0  0  0  0
 28 80  1  0  0  0  0
 29 82  1  0  0  0  0
 30 83  1  0  0  0  0
 31 84  1  0  0  0  0
 32 65  2  0  0  0  0
 33 66  1  0  0  0  0
 33 69  1  0  0  0  0
 34 70  1  0  0  0  0
 34 75  2  0  0  0  0
 35 49  1  0  0  0  0
 35 72  1  0  0  0  0
 35 76  2  0  0  0  0
 36 61  1  0  0  0  0
 36 67  1  0  0  0  0
 36 77  2  0  0  0  0
 37 62  1  0  0  0  0
 37 73  1  0  0  0  0
 37 78  2  0  0  0  0
 38 68  1  0  0  0  0
 38 71  1  0  0  0  0
 38 79  2  0  0  0  0
 39 42  1  0  0  0  0
 40 49  1  0  0  0  0
 41 67  1  0  0  0  0
 42 44  1  0  0  0  0
 43 45  1  0  0  0  0
 43 46  1  0  0  0  0
 44 48  1  0  0  0  0
 45 50  1  0  0  0  0
 46 68  1  0  0  0  0
 47 50  1  0  0  0  0
 47 68  1  0  0  0  0
 48 72  1  0  0  0  0
 49 67  1  0  0  0  0
 50 66  1  0  0  0  0
 52 62  1  0  0  0  0
 53 63  1  0  0  0  0
 54 63  1  0  0  0  0
 55 63  1  0  0  0  0
 56 64  1  0  0  0  0
 57 64  1  0  0  0  0
 58 74  1  0  0  0  0
 59 64  1  0  0  0  0
 59 81  1  0  0  0  0
 60 64  1  0  0  0  0
 60 82  1  0  0  0  0
 61 63  1  0  0  0  0
 61 73  1  0  0  0  0
 62 74  1  0  0  0  0
 65 66  1  0  0  0  0
M  CHG  1  74   1
M  ISO  4  38 100  59 101  71 100  81 101
M  END
> <Batch ID>
0139

> <Smiles>
CNC(C)C(=O)NC(C(=O)N1Cc2cc([101O:1][101CH2:1]C(C)(C)COc3cc(C)cc([100NH:0][100C:0](=O)N4CCCC(n5nc(-c6ccc(Oc7ccc(F)cc7F)cc6)c(C(N)=O)c5N)C4)c3)ccc2CC1C(=O)NC1CCCc2ccccc21)C(C)(C)C

> <Shape>
0.290

> <Color>
0.062

> <Negative vol penalty>
0.000

$$$$

  -OEChem-04052302483D

 82 90  0     1  0  0  0  0  0999 V2000
  -28.1152  -38.4218   24.9043 C   0  0  0  0  0  0  0  0  0  0  0  0
  -28.7734  -37.2221   24.6535 C   0  0  0  0  0  0  0  0  0  0  0  0
  -23.3914   -9.5934   20.8808 C   0  0  0  0  0  0  0  0  0  0  0  0
  -24.0155  -10.3238   23.0976 C   0  0  0  0  0  0  0  0  0  0  0  0
  -26.8249  -38.4106   25.4322 C   0  0  0  0  0  0  0  0  0  0  0  0
  -28.1418  -36.0103   24.9316 C   0  0  0  0  0  0  0  0  0  0  0  0
  -28.6774  -30.7756   21.7985 C   0  0  0  0  0  0  0  0  0  0  0  0
  -22.7507   -8.4816   21.4274 C   0  0  0  0  0  0  0  0  0  0  0  0
  -23.3747   -9.2119   23.6443 C   0  0  0  0  0  0  0  0  0  0  0  0
  -29.4469  -29.6319   22.0075 C   0  0  0  0  0  0  0  0  0  0  0  0
  -23.6268   -5.4599   22.6630 C   0  0  0  0  0  0  0  0  0  0  0  0
  -23.8471   -4.2230   22.0571 C   0  0  0  0  0  0  0  0  0  0  0  0
  -31.1335  -19.7695   20.9100 C   0  0  0  0  0  0  0  0  0  0  0  0
  -31.2059  -18.3745   20.6295 C   0  0  0  0  0  0  0  0  0  0  0  0
  -27.5712  -28.5762   23.0967 C   0  0  0  0  0  0  0  0  0  0  0  0
  -21.4816   -4.0214   21.6087 C   0  0  0  0  0  0  0  0  0  0  0  0
  -24.0239  -10.5145   21.7158 C   0  0  0  0  0  0  0  0  0  0  0  0
  -24.1238  -12.9273   20.8937 C   0  0  0  0  0  0  0  0  0  0  0  0
  -26.1735  -37.1980   25.7079 C   0  0  0  0  0  0  0  0  0  0  0  0
  -27.3502  -30.8323   22.2475 C   0  0  0  0  0  0  0  0  0  0  0  0
  -26.8420  -35.9829   25.4650 C   0  0  0  0  0  0  0  0  0  0  0  0
  -26.7862  -29.7208   22.8899 C   0  0  0  0  0  0  0  0  0  0  0  0
  -22.7423   -8.2908   22.8091 C   0  0  0  0  0  0  0  0  0  0  0  0
  -28.8948  -28.5330   22.6592 C   0  0  0  0  0  0  0  0  0  0  0  0
  -22.3339   -5.9776   22.7418 C   0  0  0  0  0  0  0  0  0  0  0  0
  -22.7745   -3.5038   21.5299 C   0  0  0  0  0  0  0  0  0  0  0  0
  -21.2613   -5.2584   22.2147 C   0  0  0  0  0  0  0  0  0  0  0  0
  -24.6864  -11.6629   21.1517 C   0  0  0  0  0  0  0  0  0  0  0  0
  -25.1564  -13.6607   20.3624 C   0  0  0  0  0  0  0  0  0  0  0  0
  -29.9250  -20.1231   21.4686 C   0  0  0  0  0  0  0  0  0  0  0  0
  -30.0498  -17.7147   20.9847 C   0  0  0  0  0  0  0  0  0  0  0  0
  -22.7873  -13.3970   21.1148 C   0  0  0  0  0  0  0  0  0  0  0  0
  -25.7594  -32.6400   24.3224 C   0  0  0  0  0  0  0  0  0  0  0  0
  -23.1969  -31.0089   23.1841 C   0  0  0  0  0  0  0  0  0  0  0  0
  -30.0908  -22.6071   21.8485 C   0  0  0  0  0  0  0  0  0  0  0  0
  -21.9917  -28.2000   21.6661 C   0  0  0  0  0  0  0  0  0  0  0  0
  -30.4757  -15.3064   20.3806 C   0  0  0  0  0  0  0  0  0  0  0  0
  -24.7967  -37.2369   26.3223 C   0  0  0  0  0  0  0  0  0  0  0  0
  -26.5251  -32.0634   21.9907 C   0  0  0  0  0  0  0  0  0  0  0  0
  -25.3597  -29.7235   23.3733 C   0  0  0  0  0  0  0  0  0  0  0  0
  -24.0545  -35.9056   26.2384 C   0  0  0  0  0  0  0  0  0  0  0  0
  -29.7385  -12.2204   18.7649 C   0  0  0  0  0  0  0  0  0  0  0  0
  -24.9668  -34.7583   26.6605 C   0  0  0  0  0  0  0  0  0  0  0  0
  -28.3121  -11.9043   19.2206 C   0  0  0  0  0  0  0  0  0  0  0  0
  -30.5572  -12.8745   19.8765 C   0  0  0  0  0  0  0  0  0  0  0  0
  -28.5133  -13.7420   20.9438 C   0  0  0  0  0  0  0  0  0  0  0  0
  -26.1808  -34.6478   25.7302 C   0  0  1  0  0  0  0  0  0  0  0  0
  -25.3442  -32.2015   22.9466 C   0  0  1  0  0  0  0  0  0  0  0  0
  -27.6305  -13.1413   19.8377 C   0  0  2  0  0  0  0  0  0  0  0  0
  -19.8498  -27.1378   20.9036 C   0  0  0  0  0  0  0  0  0  0  0  0
  -22.5232  -30.2985   26.0740 C   0  0  0  0  0  0  0  0  0  0  0  0
  -20.9995  -28.5114   25.2062 C   0  0  0  0  0  0  0  0  0  0  0  0
  -20.5503  -30.9039   24.6614 C   0  0  0  0  0  0  0  0  0  0  0  0
  -22.8858  -28.1490   18.8453 C   0  0  0  0  0  0  0  0  0  0  0  0
  -29.2030  -23.7087   22.4107 C   0  0  0  0  0  0  0  0  0  0  0  0
  -29.8754  -25.0770   22.3820 C   0  0  0  0  0  0  0  0  0  0  0  0
  -28.9521  -26.1682   22.9042 C   0  0  0  0  0  0  0  0  0  1  0  0
  -22.4951  -29.7253   23.5567 C   0  0  1  0  0  0  0  0  0  0  0  0
  -21.0271  -28.0156   20.5085 C   0  0  2  0  0  0  0  0  0  0  0  0
  -21.6695  -29.8601   24.8673 C   0  0  0  0  0  0  0  0  0  0  0  0
  -25.9763  -11.5935   20.8120 N   0  0  0  0  0  0  0  0  0  0  0  0
  -26.2327  -12.8235   20.3351 N   0  0  0  0  0  0  0  0  0  0  0  0
  -24.5956  -30.9529   23.1041 N   0  0  0  0  0  0  0  0  0  0  0  0
  -29.8513  -14.0415   20.4102 N   0  0  0  0  0  0  0  0  0  0  0  0
  -25.2396  -14.9335   19.9204 N   0  0  0  0  0  0  0  0  0  0  0  0
  -21.8514  -12.5129   21.6687 N   0  0  0  0  0  0  0  0  0  0  0  0
  -29.4351  -21.3801   21.8959 N   0  0  0  0  0  0  0  0  0  0  0  0
  -29.6957  -16.3463   20.8853 N   0  0  0  0  0  0  0  0  0  0  0  0
  -25.8072  -34.0114   24.4853 N   0  0  0  0  0  0  0  0  0  0  0  0
  -21.7074  -29.3376   22.3916 N   0  0  0  0  0  0  0  0  0  0  0  0
  -21.7205  -27.3798   19.3527 N   0  3  0  0  0  0  0  0  0  0  0  0
  -22.4291  -14.5610   20.8143 O   0  0  0  0  0  0  0  0  0  0  0  0
  -26.0158  -31.7966   25.1737 O   0  0  0  0  0  0  0  0  0  0  0  0
  -22.5283  -32.0220   22.9650 O   0  0  0  0  0  0  0  0  0  0  0  0
  -31.2204  -22.8326   21.4271 O   0  0  0  0  0  0  0  0  0  0  0  0
  -22.9036  -27.4115   21.9053 O   0  0  0  0  0  0  0  0  0  0  0  0
  -31.6076  -15.4607   19.9149 O   0  0  0  0  0  0  0  0  0  0  0  0
  -22.1170   -7.2061   23.3429 O   0  0  0  0  0  0  0  0  0  0  0  0
  -29.6438  -27.4157   22.8650 O   0  0  0  0  0  0  0  0  0  1  0  0
  -22.9863   -2.3167   20.9468 F   0  0  0  0  0  0  0  0  0  0  0  0
  -20.0172   -5.7511   22.2863 F   0  0  0  0  0  0  0  0  0  0  0  0
  -28.8839  -18.7760   21.6530 S   0  0  0  0  0  0  0  0  0  0  0  0
  1  2  1  0  0  0  0
  1  5  2  0  0  0  0
  2  6  2  0  0  0  0
  3  8  2  0  0  0  0
  3 17  1  0  0  0  0
  4  9  1  0  0  0  0
  4 17  2  0  0  0  0
  5 19  1  0  0  0  0
  6 21  1  0  0  0  0
  7 10  2  0  0  0  0
  7 20  1  0  0  0  0
  8 23  1  0  0  0  0
  9 23  2  0  0  0  0
 10 24  1  0  0  0  0
 11 12  2  0  0  0  0
 11 25  1  0  0  0  0
 12 26  1  0  0  0  0
 13 14  1  0  0  0  0
 13 30  2  0  0  0  0
 14 31  2  0  0  0  0
 15 22  1  0  0  0  0
 15 24  2  0  0  0  0
 16 26  2  0  0  0  0
 16 27  1  0  0  0  0
 17 28  1  0  0  0  0
 18 28  1  0  0  0  0
 18 29  2  0  0  0  0
 18 32  1  0  0  0  0
 19 21  2  0  0  0  0
 19 38  1  0  0  0  0
 20 22  2  0  0  0  0
 20 39  1  0  0  0  0
 21 47  1  0  0  0  0
 22 40  1  0  0  0  0
 23 78  1  0  0  0  0
 24 79  1  0  0  0  0
 25 27  2  0  0  0  0
 25 78  1  0  0  0  0
 26 80  1  0  0  0  0
 27 81  1  0  0  0  0
 28 61  2  0  0  0  0
 29 62  1  0  0  0  0
 29 65  1  0  0  0  0
 30 67  1  0  0  0  0
 30 82  1  0  0  0  0
 31 68  1  0  0  0  0
 31 82  1  0  0  0  0
 32 66  1  0  0  0  0
 32 72  2  0  0  0  0
 33 48  1  0  0  0  0
 33 69  1  0  0  0  0
 33 73  2  0  0  0  0
 34 58  1  0  0  0  0
 34 63  1  0  0  0  0
 34 74  2  0  0  0  0
 35 55  1  0  0  0  0
 35 67  1  0  0  0  0
 35 75  2  0  0  0  0
 36 59  1  0  0  0  0
 36 70  1  0  0  0  0
 36 76  2  0  0  0  0
 37 64  1  0  0  0  0
 37 68  1  0  0  0  0
 37 77  2  0  0  0  0
 38 41  1  0  0  0  0
 39 48  1  0  0  0  0
 40 63  1  0  0  0  0
 41 43  1  0  0  0  0
 42 44  1  0  0  0  0
 42 45  1  0  0  0  0
 43 47  1  0  0  0  0
 44 49  1  0  0  0  0
 45 64  1  0  0  0  0
 46 49  1  0  0  0  0
 46 64  1  0  0  0  0
 47 69  1  0  0  0  0
 48 63  1  0  0  0  0
 49 62  1  0  0  0  0
 50 59  1  0  0  0  0
 51 60  1  0  0  0  0
 52 60  1  0  0  0  0
 53 60  1  0  0  0  0
 54 71  1  0  0  0  0
 55 56  1  0  0  0  0
 56 57  1  0  0  0  0
 57 79  1  0  0  0  0
 58 60  1  0  0  0  0
 58 70  1  0  0  0  0
 59 71  1  0  0  0  0
 61 62  1  0  0  0  0
M  CHG  1  71   1
M  ISO  4  37 100  57 101  68 100  79 101
M  END
> <Batch ID>
0139

> <Smiles>
CNC(C)C(=O)NC(C(=O)N1Cc2cc([101O:1][101CH2:1]CCC(=O)Nc3ccc([100NH:0][100C:0](=O)N4CCCC(n5nc(-c6ccc(Oc7ccc(F)cc7F)cc6)c(C(N)=O)c5N)C4)s3)ccc2CC1C(=O)NC1CCCc2ccccc21)C(C)(C)C

> <Shape>
0.334

> <Color>
0.188

> <Negative vol penalty>
0.000

$$$$

  -OEChem-04052302483D

 85 93  0     1  0  0  0  0  0999 V2000
  -24.0839  -29.5986   23.9435 C   0  0  0  0  0  0  0  0  0  0  0  0
  -24.5162  -28.8839   25.0561 C   0  0  0  0  0  0  0  0  0  0  0  0
  -23.1973   -9.8522   19.9577 C   0  0  0  0  0  0  0  0  0  0  0  0
  -23.9043   -9.9380   22.2664 C   0  0  0  0  0  0  0  0  0  0  0  0
  -23.5676  -28.9219   22.8392 C   0  0  0  0  0  0  0  0  0  0  0  0
  -24.4314  -27.4920   25.0653 C   0  0  0  0  0  0  0  0  0  0  0  0
  -27.8154  -21.7096   27.6007 C   0  0  0  0  0  0  0  0  0  0  0  0
  -22.5033   -8.6698   20.2142 C   0  0  0  0  0  0  0  0  0  0  0  0
  -23.2102   -8.7556   22.5229 C   0  0  0  0  0  0  0  0  0  0  0  0
  -27.5645  -20.5485   28.3305 C   0  0  0  0  0  0  0  0  0  0  0  0
  -19.5641   -7.7608   21.6169 C   0  0  0  0  0  0  0  0  0  0  0  0
  -18.2721   -7.6434   21.1046 C   0  0  0  0  0  0  0  0  0  0  0  0
  -26.7287  -19.4819   26.3348 C   0  0  0  0  0  0  0  0  0  0  0  0
  -30.6006  -15.4135   24.4635 C   0  0  0  0  0  0  0  0  0  0  0  0
  -32.7384  -15.5654   25.5788 C   0  0  0  0  0  0  0  0  0  0  0  0
  -32.6150  -14.7429   23.3105 C   0  0  0  0  0  0  0  0  0  0  0  0
  -18.9524   -5.7049   19.8332 C   0  0  0  0  0  0  0  0  0  0  0  0
  -23.8979  -10.4863   20.9838 C   0  0  0  0  0  0  0  0  0  0  0  0
  -24.1228  -13.0222   20.8216 C   0  0  0  0  0  0  0  0  0  0  0  0
  -23.4854  -27.5206   22.8311 C   0  0  0  0  0  0  0  0  0  0  0  0
  -27.5142  -21.7693   26.2325 C   0  0  0  0  0  0  0  0  0  0  0  0
  -23.9123  -26.7961   23.9604 C   0  0  0  0  0  0  0  0  0  0  0  0
  -26.9791  -20.6441   25.5893 C   0  0  0  0  0  0  0  0  0  0  0  0
  -31.3543  -15.7383   25.5914 C   0  0  0  0  0  0  0  0  0  0  0  0
  -31.2310  -14.9158   23.3231 C   0  0  0  0  0  0  0  0  0  0  0  0
  -22.5097   -8.1215   21.4968 C   0  0  0  0  0  0  0  0  0  0  0  0
  -27.0184  -19.4353   27.6982 C   0  0  0  0  0  0  0  0  0  0  0  0
  -20.5503   -6.8503   21.2373 C   0  0  0  0  0  0  0  0  0  0  0  0
  -17.9662   -6.6154   20.2128 C   0  0  0  0  0  0  0  0  0  0  0  0
  -33.3687  -15.0677   24.4383 C   0  0  0  0  0  0  0  0  0  0  0  0
  -20.2445   -5.8224   20.3455 C   0  0  0  0  0  0  0  0  0  0  0  0
  -24.6155  -11.7074   20.7194 C   0  0  0  0  0  0  0  0  0  0  0  0
  -25.1862  -13.8159   20.4673 C   0  0  0  0  0  0  0  0  0  0  0  0
  -22.8203  -13.4846   21.2028 C   0  0  0  0  0  0  0  0  0  0  0  0
  -25.5633  -23.5254   24.4397 C   0  0  0  0  0  0  0  0  0  0  0  0
  -29.2540  -15.7662   26.9997 C   0  0  0  0  0  0  0  0  0  0  0  0
  -27.0367  -21.9718   22.0030 C   0  0  0  0  0  0  0  0  0  0  0  0
  -28.7801  -19.2354   20.9450 C   0  0  0  0  0  0  0  0  0  0  0  0
  -30.9345  -14.0808   20.9648 C   0  0  0  0  0  0  0  0  0  0  0  0
  -22.8762  -26.8361   21.6332 C   0  0  0  0  0  0  0  0  0  0  0  0
  -27.8156  -23.0203   25.4536 C   0  0  0  0  0  0  0  0  0  0  0  0
  -26.6566  -20.6501   24.1181 C   0  0  0  0  0  0  0  0  0  0  0  0
  -23.1679  -25.3389   21.5735 C   0  0  0  0  0  0  0  0  0  0  0  0
  -29.3682  -13.1061   17.9196 C   0  0  0  0  0  0  0  0  0  0  0  0
  -22.9266  -24.6934   22.9344 C   0  0  0  0  0  0  0  0  0  0  0  0
  -27.9344  -12.7742   18.3394 C   0  0  0  0  0  0  0  0  0  0  0  0
  -30.3818  -12.6873   18.9830 C   0  0  0  0  0  0  0  0  0  0  0  0
  -28.6777  -12.8653   20.7531 C   0  0  0  0  0  0  0  0  0  0  0  0
  -23.8596  -25.2842   23.9984 C   0  0  1  0  0  0  0  0  0  0  0  0
  -26.9917  -23.1414   24.1754 C   0  0  1  0  0  0  0  0  0  0  0  0
  -27.6156  -13.3275   19.7422 C   0  0  2  0  0  0  0  0  0  0  0  0
  -29.8131  -18.2311   18.8903 C   0  0  0  0  0  0  0  0  0  0  0  0
  -24.2669  -21.1700   21.0054 C   0  0  0  0  0  0  0  0  0  0  0  0
  -25.3624  -19.4363   19.5693 C   0  0  0  0  0  0  0  0  0  0  0  0
  -25.8659  -21.8526   19.2077 C   0  0  0  0  0  0  0  0  0  0  0  0
  -27.3129  -16.1631   29.3228 C   0  0  0  0  0  0  0  0  0  0  0  0
  -29.0169  -17.9875   29.1825 C   0  0  0  0  0  0  0  0  0  0  0  0
  -31.4847  -19.2708   22.1462 C   0  0  0  0  0  0  0  0  0  0  0  0
  -30.6743  -16.2762   26.8228 C   0  0  0  0  0  0  0  0  0  0  0  0
  -28.1753  -16.8435   27.0661 C   0  0  0  0  0  0  0  0  0  0  0  0
  -26.7910  -20.6860   21.2511 C   0  0  1  0  0  0  0  0  0  0  0  0
  -30.0432  -19.1055   20.1131 C   0  0  2  0  0  0  0  0  0  0  0  0
  -25.5757  -20.7864   20.2865 C   0  0  0  0  0  0  0  0  0  0  0  0
  -27.8228  -17.3382   28.4798 C   0  0  0  0  0  0  0  0  0  1  0  0
  -25.8926  -11.6642   20.3304 N   0  0  0  0  0  0  0  0  0  0  0  0
  -26.2113  -12.9616   20.1851 N   0  0  0  0  0  0  0  0  0  0  0  0
  -26.9635  -21.8988   23.4012 N   0  0  0  0  0  0  0  0  0  0  0  0
  -30.0178  -13.2517   20.2845 N   0  0  0  0  0  0  0  0  0  0  0  0
  -25.3351  -15.1543   20.3727 N   0  0  0  0  0  0  0  0  0  0  0  0
  -21.8451  -12.5347   21.5360 N   0  0  0  0  0  0  0  0  0  0  0  0
  -30.4656  -14.5856   22.1772 N   0  0  0  0  0  0  0  0  0  0  0  0
  -25.1892  -24.7275   23.8701 N   0  0  0  0  0  0  0  0  0  0  0  0
  -28.0495  -20.3507   20.5937 N   0  0  0  0  0  0  0  0  0  0  0  0
  -31.1377  -18.5009   20.9240 N   0  3  0  0  0  0  0  0  0  0  0  0
  -22.5250  -14.7034   21.2309 O   0  0  0  0  0  0  0  0  0  0  0  0
  -24.8527  -22.7852   25.1096 O   0  0  0  0  0  0  0  0  0  0  0  0
  -28.9973  -14.5703   27.1310 O   0  0  0  0  0  0  0  0  0  0  0  0
  -27.2913  -23.0014   21.3732 O   0  0  0  0  0  0  0  0  0  0  0  0
  -28.4705  -18.4261   21.8167 O   0  0  0  0  0  0  0  0  0  0  0  0
  -32.0428  -14.3471   20.4928 O   0  0  0  0  0  0  0  0  0  0  0  0
  -21.8324   -6.9678   21.7474 O   0  0  0  0  0  0  0  0  0  0  0  0
  -26.7719  -18.3010   28.4084 O   0  0  0  0  0  0  0  0  0  1  0  0
  -16.7250   -6.5019   19.7221 F   0  0  0  0  0  0  0  0  0  0  0  0
  -34.6978  -14.9017   24.4264 F   0  0  0  0  0  0  0  0  0  0  0  0
  -21.1874   -4.9440   19.9780 F   0  0  0  0  0  0  0  0  0  0  0  0
  1  2  1  0  0  0  0
  1  5  2  0  0  0  0
  2  6  2  0  0  0  0
  3  8  2  0  0  0  0
  3 18  1  0  0  0  0
  4  9  1  0  0  0  0
  4 18  2  0  0  0  0
  5 20  1  0  0  0  0
  6 22  1  0  0  0  0
  7 10  2  0  0  0  0
  7 21  1  0  0  0  0
  8 26  1  0  0  0  0
  9 26  2  0  0  0  0
 10 27  1  0  0  0  0
 11 12  2  0  0  0  0
 11 28  1  0  0  0  0
 12 29  1  0  0  0  0
 13 23  1  0  0  0  0
 13 27  2  0  0  0  0
 14 24  2  0  0  0  0
 14 25  1  0  0  0  0
 15 24  1  0  0  0  0
 15 30  2  0  0  0  0
 16 25  2  0  0  0  0
 16 30  1  0  0  0  0
 17 29  2  0  0  0  0
 17 31  1  0  0  0  0
 18 32  1  0  0  0  0
 19 32  1  0  0  0  0
 19 33  2  0  0  0  0
 19 34  1  0  0  0  0
 20 22  2  0  0  0  0
 20 40  1  0  0  0  0
 21 23  2  0  0  0  0
 21 41  1  0  0  0  0
 22 49  1  0  0  0  0
 23 42  1  0  0  0  0
 24 59  1  0  0  0  0
 25 71  1  0  0  0  0
 26 81  1  0  0  0  0
 27 82  1  0  0  0  0
 28 31  2  0  0  0  0
 28 81  1  0  0  0  0
 29 83  1  0  0  0  0
 30 84  1  0  0  0  0
 31 85  1  0  0  0  0
 32 65  2  0  0  0  0
 33 66  1  0  0  0  0
 33 69  1  0  0  0  0
 34 70  1  0  0  0  0
 34 75  2  0  0  0  0
 35 50  1  0  0  0  0
 35 72  1  0  0  0  0
 35 76  2  0  0  0  0
 36 59  1  0  0  0  0
 36 60  1  0  0  0  0
 36 77  2  0  0  0  0
 37 61  1  0  0  0  0
 37 67  1  0  0  0  0
 37 78  2  0  0  0  0
 38 62  1  0  0  0  0
 38 73  1  0  0  0  0
 38 79  2  0  0  0  0
 39 68  1  0  0  0  0
 39 71  1  0  0  0  0
 39 80  2  0  0  0  0
 40 43  1  0  0  0  0
 41 50  1  0  0  0  0
 42 67  1  0  0  0  0
 43 45  1  0  0  0  0
 44 46  1  0  0  0  0
 44 47  1  0  0  0  0
 45 49  1  0  0  0  0
 46 51  1  0  0  0  0
 47 68  1  0  0  0  0
 48 51  1  0  0  0  0
 48 68  1  0  0  0  0
 49 72  1  0  0  0  0
 50 67  1  0  0  0  0
 51 66  1  0  0  0  0
 52 62  1  0  0  0  0
 53 63  1  0  0  0  0
 54 63  1  0  0  0  0
 55 63  1  0  0  0  0
 56 64  1  0  0  0  0
 57 64  1  0  0  0  0
 58 74  1  0  0  0  0
 60 64  1  0  0  0  0
 61 63  1  0  0  0  0
 61 73  1  0  0  0  0
 62 74  1  0  0  0  0
 64 82  1  0  0  0  0
 65 66  1  0  0  0  0
M  CHG  1  74   1
M  ISO  4  39 100  64 101  71 100  82 101
M  END
> <Batch ID>
0139

> <Smiles>
CNC(C)C(=O)NC(C(=O)N1Cc2cc([101O:1][101C:1](C)(C)CC(=O)Cc3cc(F)cc([100NH:0][100C:0](=O)N4CCCC(n5nc(-c6ccc(Oc7ccc(F)cc7F)cc6)c(C(N)=O)c5N)C4)c3)ccc2CC1C(=O)NC1CCCc2ccccc21)C(C)(C)C

> <Shape>
0.185

> <Color>
0.185

> <Negative vol penalty>
0.000

$$$$

  -OEChem-04052302483D

 84 92  0     1  0  0  0  0  0999 V2000
  -37.3619  -28.0846   28.1438 C   0  0  0  0  0  0  0  0  0  0  0  0
  -36.7356  -26.9224   28.5826 C   0  0  0  0  0  0  0  0  0  0  0  0
  -32.6519  -17.4926   23.4531 C   0  0  0  0  0  0  0  0  0  0  0  0
  -23.0738   -9.8693   19.9432 C   0  0  0  0  0  0  0  0  0  0  0  0
  -23.8312   -9.8796   22.2374 C   0  0  0  0  0  0  0  0  0  0  0  0
  -36.6196  -29.0758   27.5032 C   0  0  0  0  0  0  0  0  0  0  0  0
  -35.3663  -26.7513   28.3820 C   0  0  0  0  0  0  0  0  0  0  0  0
  -32.4458  -21.4982   27.2069 C   0  0  0  0  0  0  0  0  0  0  0  0
  -31.8539  -18.3615   24.1971 C   0  0  0  0  0  0  0  0  0  0  0  0
  -32.0644  -16.6069   22.5497 C   0  0  0  0  0  0  0  0  0  0  0  0
  -22.3286   -8.7173   20.1944 C   0  0  0  0  0  0  0  0  0  0  0  0
  -23.0860   -8.7276   22.4886 C   0  0  0  0  0  0  0  0  0  0  0  0
  -31.7370  -20.6165   28.0217 C   0  0  0  0  0  0  0  0  0  0  0  0
  -19.3781   -7.9260   21.6438 C   0  0  0  0  0  0  0  0  0  0  0  0
  -18.0717   -7.8801   21.1572 C   0  0  0  0  0  0  0  0  0  0  0  0
  -29.6751  -21.6942   27.3841 C   0  0  0  0  0  0  0  0  0  0  0  0
  -29.8806  -17.4591   23.1345 C   0  0  0  0  0  0  0  0  0  0  0  0
  -18.6310   -5.9342   19.8390 C   0  0  0  0  0  0  0  0  0  0  0  0
  -23.8252  -10.4505   20.9647 C   0  0  0  0  0  0  0  0  0  0  0  0
  -24.1695  -12.9751   20.8406 C   0  0  0  0  0  0  0  0  0  0  0  0
  -35.2424  -28.9126   27.2861 C   0  0  0  0  0  0  0  0  0  0  0  0
  -31.7745  -22.4932   26.4818 C   0  0  0  0  0  0  0  0  0  0  0  0
  -34.6047  -27.7419   27.7391 C   0  0  0  0  0  0  0  0  0  0  0  0
  -30.3775  -22.5857   26.5588 C   0  0  0  0  0  0  0  0  0  0  0  0
  -30.4682  -18.3447   24.0379 C   0  0  0  0  0  0  0  0  0  0  0  0
  -30.6788  -16.5901   22.3904 C   0  0  0  0  0  0  0  0  0  0  0  0
  -22.3347   -8.1464   21.4671 C   0  0  0  0  0  0  0  0  0  0  0  0
  -30.3517  -20.7162   28.1126 C   0  0  0  0  0  0  0  0  0  0  0  0
  -20.3110   -6.9760   21.2280 C   0  0  0  0  0  0  0  0  0  0  0  0
  -17.6981   -6.8842   20.2549 C   0  0  0  0  0  0  0  0  0  0  0  0
  -19.9374   -5.9801   20.3256 C   0  0  0  0  0  0  0  0  0  0  0  0
  -24.5957  -11.6402   20.7057 C   0  0  0  0  0  0  0  0  0  0  0  0
  -25.2628  -13.7229   20.4772 C   0  0  0  0  0  0  0  0  0  0  0  0
  -22.8991  -13.4928   21.2573 C   0  0  0  0  0  0  0  0  0  0  0  0
  -31.8255  -25.6713   26.4577 C   0  0  0  0  0  0  0  0  0  0  0  0
  -28.2692  -19.6234   26.9807 C   0  0  0  0  0  0  0  0  0  0  0  0
  -29.8514  -25.2954   23.9113 C   0  0  0  0  0  0  0  0  0  0  0  0
  -27.6066  -23.3334   22.2505 C   0  0  0  0  0  0  0  0  0  0  0  0
  -30.7297  -14.7637   20.6561 C   0  0  0  0  0  0  0  0  0  0  0  0
  -34.4730  -30.0324   26.6312 C   0  0  0  0  0  0  0  0  0  0  0  0
  -32.5510  -23.4195   25.5865 C   0  0  0  0  0  0  0  0  0  0  0  0
  -29.6076  -23.6233   25.7848 C   0  0  0  0  0  0  0  0  0  0  0  0
  -33.0967  -29.6101   26.1233 C   0  0  0  0  0  0  0  0  0  0  0  0
  -29.6157  -12.3468   18.2908 C   0  0  0  0  0  0  0  0  0  0  0  0
  -32.3627  -28.7963   27.1844 C   0  0  0  0  0  0  0  0  0  0  0  0
  -28.1753  -12.0573   18.7194 C   0  0  0  0  0  0  0  0  0  0  0  0
  -30.5297  -12.5768   19.4931 C   0  0  0  0  0  0  0  0  0  0  0  0
  -28.6219  -13.3055   20.8710 C   0  0  0  0  0  0  0  0  0  0  0  0
  -33.1259  -27.5087   27.5178 C   0  0  1  0  0  0  0  0  0  0  0  0
  -31.8146  -24.7228   25.2924 C   0  0  1  0  0  0  0  0  0  0  0  0
  -27.6502  -13.1311   19.6924 C   0  0  2  0  0  0  0  0  0  0  0  0
  -26.1340  -23.3117   20.2187 C   0  0  0  0  0  0  0  0  0  0  0  0
  -27.3775  -20.5382   29.1662 C   0  0  0  0  0  0  0  0  0  0  0  0
  -28.0521  -18.1112   28.9764 C   0  0  0  0  0  0  0  0  0  0  0  0
  -27.8863  -27.1575   25.3187 C   0  0  0  0  0  0  0  0  0  0  0  0
  -26.1087  -26.3538   23.7495 C   0  0  0  0  0  0  0  0  0  0  0  0
  -28.1110  -27.5449   22.8582 C   0  0  0  0  0  0  0  0  0  0  0  0
  -29.0061  -20.9841   21.1185 C   0  0  0  0  0  0  0  0  0  0  0  0
  -29.6050  -19.2853   24.8433 C   0  0  0  0  0  0  0  0  0  0  0  0
  -29.1613  -18.6844   26.1780 C   0  0  0  0  0  0  0  0  0  0  0  0
  -28.3577  -25.1824   23.7241 C   0  0  1  0  0  0  0  0  0  0  0  0
  -27.4965  -22.9463   20.7868 C   0  0  2  0  0  0  0  0  0  0  0  0
  -28.3246  -19.5379   28.5105 C   0  0  0  0  0  0  0  0  0  1  0  0
  -27.6303  -26.5412   23.9289 C   0  0  0  0  0  0  0  0  0  0  0  0
  -25.8609  -11.5424   20.2890 N   0  0  0  0  0  0  0  0  0  0  0  0
  -26.2391  -12.8254   20.1588 N   0  0  0  0  0  0  0  0  0  0  0  0
  -30.4124  -24.5099   24.9282 N   0  0  0  0  0  0  0  0  0  0  0  0
  -29.9707  -13.6097   20.3680 N   0  0  0  0  0  0  0  0  0  0  0  0
  -25.4745  -15.0540   20.4021 N   0  0  0  0  0  0  0  0  0  0  0  0
  -21.8859  -12.5852   21.5950 N   0  0  0  0  0  0  0  0  0  0  0  0
  -30.0823  -15.6908   21.4722 N   0  0  0  0  0  0  0  0  0  0  0  0
  -32.9185  -26.5164   26.4850 N   0  0  0  0  0  0  0  0  0  0  0  0
  -28.1552  -24.5887   22.4069 N   0  0  0  0  0  0  0  0  0  0  0  0
  -27.6958  -21.4785   20.6228 N   0  3  0  0  0  0  0  0  0  0  0  0
  -22.6639  -14.7237   21.3122 O   0  0  0  0  0  0  0  0  0  0  0  0
  -30.9094  -25.6399   27.2709 O   0  0  0  0  0  0  0  0  0  0  0  0
  -27.5037  -20.4056   26.4123 O   0  0  0  0  0  0  0  0  0  0  0  0
  -30.4977  -26.0473   23.1774 O   0  0  0  0  0  0  0  0  0  0  0  0
  -27.2391  -22.5974   23.1636 O   0  0  0  0  0  0  0  0  0  0  0  0
  -31.8595  -14.9306   20.1894 O   0  0  0  0  0  0  0  0  0  0  0  0
  -21.6074   -7.0224   21.7126 O   0  0  0  0  0  0  0  0  0  0  0  0
  -29.6575  -19.8573   28.9077 O   0  0  0  0  0  0  0  0  0  1  0  0
  -16.4431   -6.8394   19.7888 F   0  0  0  0  0  0  0  0  0  0  0  0
  -20.8290   -5.0640   19.9234 F   0  0  0  0  0  0  0  0  0  0  0  0
  1  2  1  0  0  0  0
  1  6  2  0  0  0  0
  2  7  2  0  0  0  0
  3  9  2  0  0  0  0
  3 10  1  0  0  0  0
  4 11  2  0  0  0  0
  4 19  1  0  0  0  0
  5 12  1  0  0  0  0
  5 19  2  0  0  0  0
  6 21  1  0  0  0  0
  7 23  1  0  0  0  0
  8 13  2  0  0  0  0
  8 22  1  0  0  0  0
  9 25  1  0  0  0  0
 10 26  2  0  0  0  0
 11 27  1  0  0  0  0
 12 27  2  0  0  0  0
 13 28  1  0  0  0  0
 14 15  2  0  0  0  0
 14 29  1  0  0  0  0
 15 30  1  0  0  0  0
 16 24  1  0  0  0  0
 16 28  2  0  0  0  0
 17 25  2  0  0  0  0
 17 26  1  0  0  0  0
 18 30  2  0  0  0  0
 18 31  1  0  0  0  0
 19 32  1  0  0  0  0
 20 32  1  0  0  0  0
 20 33  2  0  0  0  0
 20 34  1  0  0  0  0
 21 23  2  0  0  0  0
 21 40  1  0  0  0  0
 22 24  2  0  0  0  0
 22 41  1  0  0  0  0
 23 49  1  0  0  0  0
 24 42  1  0  0  0  0
 25 59  1  0  0  0  0
 26 71  1  0  0  0  0
 27 81  1  0  0  0  0
 28 82  1  0  0  0  0
 29 31  2  0  0  0  0
 29 81  1  0  0  0  0
 30 83  1  0  0  0  0
 31 84  1  0  0  0  0
 32 65  2  0  0  0  0
 33 66  1  0  0  0  0
 33 69  1  0  0  0  0
 34 70  1  0  0  0  0
 34 75  2  0  0  0  0
 35 50  1  0  0  0  0
 35 72  1  0  0  0  0
 35 76  2  0  0  0  0
 36 60  1  0  0  0  0
 36 63  1  0  0  0  0
 36 77  2  0  0  0  0
 37 61  1  0  0  0  0
 37 67  1  0  0  0  0
 37 78  2  0  0  0  0
 38 62  1  0  0  0  0
 38 73  1  0  0  0  0
 38 79  2  0  0  0  0
 39 68  1  0  0  0  0
 39 71  1  0  0  0  0
 39 80  2  0  0  0  0
 40 43  1  0  0  0  0
 41 50  1  0  0  0  0
 42 67  1  0  0  0  0
 43 45  1  0  0  0  0
 44 46  1  0  0  0  0
 44 47  1  0  0  0  0
 45 49  1  0  0  0  0
 46 51  1  0  0  0  0
 47 68  1  0  0  0  0
 48 51  1  0  0  0  0
 48 68  1  0  0  0  0
 49 72  1  0  0  0  0
 50 67  1  0  0  0  0
 51 66  1  0  0  0  0
 52 62  1  0  0  0  0
 53 63  1  0  0  0  0
 54 63  1  0  0  0  0
 55 64  1  0  0  0  0
 56 64  1  0  0  0  0
 57 64  1  0  0  0  0
 58 74  1  0  0  0  0
 59 60  1  0  0  0  0
 61 64  1  0  0  0  0
 61 73  1  0  0  0  0
 62 74  1  0  0  0  0
 63 82  1  0  0  0  0
 65 66  1  0  0  0  0
M  CHG  1  74   1
M  ISO  4  39 100  63 101  71 100  82 101
M  END
> <Batch ID>
0139

> <Smiles>
CNC(C)C(=O)NC(C(=O)N1Cc2cc([101O:1][101C:1](C)(C)C(=O)CCc3cccc([100NH:0][100C:0](=O)N4CCCC(n5nc(-c6ccc(Oc7ccc(F)cc7F)cc6)c(C(N)=O)c5N)C4)c3)ccc2CC1C(=O)NC1CCCc2ccccc21)C(C)(C)C

> <Shape>
0.166

> <Color>
0.191

> <Negative vol penalty>
0.000

$$$$

  -OEChem-04052302483D

 89 98  0     1  0  0  0  0  0999 V2000
  -27.5673  -34.0378   26.7269 C   0  0  0  0  0  0  0  0  0  0  0  0
  -27.8923  -32.9242   25.9590 C   0  0  0  0  0  0  0  0  0  0  0  0
  -32.3030  -25.5809   17.7001 C   0  0  0  0  0  0  0  0  0  0  0  0
  -23.4894   -9.6121   21.7551 C   0  0  0  0  0  0  0  0  0  0  0  0
  -24.0795  -10.8926   23.7170 C   0  0  0  0  0  0  0  0  0  0  0  0
  -31.7893  -19.2248   20.8292 C   0  0  0  0  0  0  0  0  0  0  0  0
  -26.2451  -34.2562   27.1116 C   0  0  0  0  0  0  0  0  0  0  0  0
  -26.8952  -32.0276   25.5763 C   0  0  0  0  0  0  0  0  0  0  0  0
  -27.2578  -30.6812   20.7079 C   0  0  0  0  0  0  0  0  0  0  0  0
  -31.4883  -26.6562   18.0545 C   0  0  0  0  0  0  0  0  0  0  0  0
  -32.6555  -24.6282   18.6560 C   0  0  0  0  0  0  0  0  0  0  0  0
  -31.3795  -17.9312   20.5061 C   0  0  0  0  0  0  0  0  0  0  0  0
  -22.8763   -8.6553   22.5640 C   0  0  0  0  0  0  0  0  0  0  0  0
  -23.4664   -9.9359   24.5259 C   0  0  0  0  0  0  0  0  0  0  0  0
  -28.2261  -29.7332   20.3799 C   0  0  0  0  0  0  0  0  0  0  0  0
  -19.9528   -8.3021   24.2256 C   0  0  0  0  0  0  0  0  0  0  0  0
  -18.6987   -7.8316   23.8363 C   0  0  0  0  0  0  0  0  0  0  0  0
  -26.5281  -28.0201   20.3440 C   0  0  0  0  0  0  0  0  0  0  0  0
  -31.3788  -25.8262   20.3209 C   0  0  0  0  0  0  0  0  0  0  0  0
  -29.0720  -18.6428   20.5836 C   0  0  0  0  0  0  0  0  0  0  0  0
  -19.5833   -5.5875   23.6992 C   0  0  0  0  0  0  0  0  0  0  0  0
  -24.0911  -10.7307   22.3316 C   0  0  0  0  0  0  0  0  0  0  0  0
  -30.8404  -20.2274   21.0295 C   0  0  0  0  0  0  0  0  0  0  0  0
  -24.1294  -12.8619   20.9301 C   0  0  0  0  0  0  0  0  0  0  0  0
  -25.2299  -33.3671   26.7252 C   0  0  0  0  0  0  0  0  0  0  0  0
  -25.9169  -30.3032   20.8674 C   0  0  0  0  0  0  0  0  0  0  0  0
  -25.5584  -32.2336   25.9573 C   0  0  0  0  0  0  0  0  0  0  0  0
  -25.5443  -28.9657   20.6715 C   0  0  0  0  0  0  0  0  0  0  0  0
  -31.0263  -26.7789   19.3649 C   0  0  0  0  0  0  0  0  0  0  0  0
  -32.1935  -24.7508   19.9663 C   0  0  0  0  0  0  0  0  0  0  0  0
  -29.4818  -19.9364   20.9067 C   0  0  0  0  0  0  0  0  0  0  0  0
  -30.0209  -17.6402   20.3833 C   0  0  0  0  0  0  0  0  0  0  0  0
  -22.8647   -8.8172   23.9494 C   0  0  0  0  0  0  0  0  0  0  0  0
  -27.8618  -28.4020   20.2007 C   0  0  0  0  0  0  0  0  0  0  0  0
  -21.0221   -7.4154   24.3516 C   0  0  0  0  0  0  0  0  0  0  0  0
  -18.5139   -6.4743   23.5732 C   0  0  0  0  0  0  0  0  0  0  0  0
  -20.8373   -6.0581   24.0885 C   0  0  0  0  0  0  0  0  0  0  0  0
  -24.7251  -11.7191   21.4966 C   0  0  0  0  0  0  0  0  0  0  0  0
  -25.1446  -13.4673   20.2306 C   0  0  0  0  0  0  0  0  0  0  0  0
  -31.3046  -21.5825   21.3688 C   0  0  0  0  0  0  0  0  0  0  0  0
  -32.1210  -22.3318   20.6104 C   0  0  0  0  0  0  0  0  0  0  0  0
  -22.7791  -13.3341   21.0275 C   0  0  0  0  0  0  0  0  0  0  0  0
  -23.8400  -30.3644   23.2729 C   0  0  0  0  0  0  0  0  0  0  0  0
  -21.7563  -29.3905   20.9855 C   0  0  0  0  0  0  0  0  0  0  0  0
  -21.2657  -27.8543   17.9778 C   0  0  0  0  0  0  0  0  0  0  0  0
  -30.4162  -15.2146   19.8296 C   0  0  0  0  0  0  0  0  0  0  0  0
  -23.8224  -33.6196   27.2049 C   0  0  0  0  0  0  0  0  0  0  0  0
  -24.8802  -31.3425   21.1951 C   0  0  0  0  0  0  0  0  0  0  0  0
  -24.1149  -28.5120   20.8113 C   0  0  0  0  0  0  0  0  0  0  0  0
  -22.7669  -32.8228   26.4425 C   0  0  0  0  0  0  0  0  0  0  0  0
  -29.7744  -11.8023   19.0412 C   0  0  0  0  0  0  0  0  0  0  0  0
  -23.1970  -31.3663   26.3003 C   0  0  0  0  0  0  0  0  0  0  0  0
  -28.3546  -11.5705   19.5632 C   0  0  0  0  0  0  0  0  0  0  0  0
  -30.5679  -12.7374   19.9522 C   0  0  0  0  0  0  0  0  0  0  0  0
  -28.4943  -13.7868   20.7695 C   0  0  0  0  0  0  0  0  0  0  0  0
  -24.5010  -31.2516   25.5015 C   0  0  1  0  0  0  0  0  0  0  0  0
  -23.6274  -30.7551   21.8377 C   0  0  1  0  0  0  0  0  0  0  0  0
  -27.6352  -12.9030   19.8506 C   0  0  2  0  0  0  0  0  0  0  0  0
  -28.4372  -20.9856   21.1137 C   0  0  0  0  0  0  0  0  0  0  0  0
  -19.4485  -27.1739   16.3865 C   0  0  0  0  0  0  0  0  0  0  0  0
  -21.0259  -27.0631   22.8185 C   0  0  0  0  0  0  0  0  0  0  0  0
  -19.9676  -25.9355   20.8496 C   0  0  0  0  0  0  0  0  0  0  0  0
  -19.0829  -28.1243   21.6552 C   0  0  0  0  0  0  0  0  0  0  0  0
  -22.3610  -29.5549   15.8175 C   0  0  0  0  0  0  0  0  0  0  0  0
  -30.1487  -27.9351   19.7451 C   0  0  0  0  0  0  0  0  0  1  0  0
  -32.5711  -23.7323   20.9886 C   0  0  1  0  0  0  0  0  0  0  0  0
  -21.3045  -28.0531   20.4503 C   0  0  1  0  0  0  0  0  0  0  0  0
  -20.4487  -28.2558   16.7630 C   0  0  2  0  0  0  0  0  0  0  0  0
  -20.3726  -27.3019   21.4426 C   0  0  0  0  0  0  0  0  0  0  0  0
  -26.0185  -11.6031   21.1839 N   0  0  0  0  0  0  0  0  0  0  0  0
  -26.2438  -12.6808   20.4132 N   0  0  0  0  0  0  0  0  0  0  0  0
  -23.1390  -29.5645   21.1389 N   0  0  0  0  0  0  0  0  0  0  0  0
  -29.8268  -13.9805   20.1765 N   0  0  0  0  0  0  0  0  0  0  0  0
  -25.1954  -14.5904   19.4832 N   0  0  0  0  0  0  0  0  0  0  0  0
  -21.8647  -12.5911   21.7866 N   0  0  0  0  0  0  0  0  0  0  0  0
  -29.6047  -16.3255   20.0579 N   0  0  0  0  0  0  0  0  0  0  0  0
  -24.2420  -31.4067   24.0861 N   0  0  0  0  0  0  0  0  0  0  0  0
  -20.7021  -28.3170   19.1481 N   0  0  0  0  0  0  0  0  0  0  0  0
  -34.0455  -23.7383   21.3208 N   0  3  0  0  0  0  0  0  0  0  0  0
  -21.3419  -28.4972   15.5948 N   0  3  0  0  0  0  0  0  0  0  0  0
  -22.3908  -14.3749   20.4449 O   0  0  0  0  0  0  0  0  0  0  0  0
  -23.6516  -29.2035   23.6173 O   0  0  0  0  0  0  0  0  0  0  0  0
  -20.9138  -30.2516   21.2507 O   0  0  0  0  0  0  0  0  0  0  0  0
  -22.2984  -27.1929   17.8970 O   0  0  0  0  0  0  0  0  0  0  0  0
  -31.5463  -15.2790   19.3390 O   0  0  0  0  0  0  0  0  0  0  0  0
  -22.2663   -7.8840   24.7390 O   0  0  0  0  0  0  0  0  0  0  0  0
  -28.8050  -27.4745   19.8812 O   0  0  0  0  0  0  0  0  0  1  0  0
  -17.3092   -6.0224   23.2009 F   0  0  0  0  0  0  0  0  0  0  0  0
  -21.8606   -5.2012   24.2090 F   0  0  0  0  0  0  0  0  0  0  0  0
  1  2  1  0  0  0  0
  1  7  2  0  0  0  0
  2  8  2  0  0  0  0
  3 10  2  0  0  0  0
  3 11  1  0  0  0  0
  4 13  2  0  0  0  0
  4 22  1  0  0  0  0
  5 14  1  0  0  0  0
  5 22  2  0  0  0  0
  6 12  2  0  0  0  0
  6 23  1  0  0  0  0
  7 25  1  0  0  0  0
  8 27  1  0  0  0  0
  9 15  2  0  0  0  0
  9 26  1  0  0  0  0
 10 29  1  0  0  0  0
 11 30  2  0  0  0  0
 12 32  1  0  0  0  0
 13 33  1  0  0  0  0
 14 33  2  0  0  0  0
 15 34  1  0  0  0  0
 16 17  2  0  0  0  0
 16 35  1  0  0  0  0
 17 36  1  0  0  0  0
 18 28  1  0  0  0  0
 18 34  2  0  0  0  0
 19 29  2  0  0  0  0
 19 30  1  0  0  0  0
 20 31  1  0  0  0  0
 20 32  2  0  0  0  0
 21 36  2  0  0  0  0
 21 37  1  0  0  0  0
 22 38  1  0  0  0  0
 23 31  2  0  0  0  0
 23 40  1  0  0  0  0
 24 38  1  0  0  0  0
 24 39  2  0  0  0  0
 24 42  1  0  0  0  0
 25 27  2  0  0  0  0
 25 47  1  0  0  0  0
 26 28  2  0  0  0  0
 26 48  1  0  0  0  0
 27 56  1  0  0  0  0
 28 49  1  0  0  0  0
 29 65  1  0  0  0  0
 30 66  1  0  0  0  0
 31 59  1  0  0  0  0
 32 76  1  0  0  0  0
 33 86  1  0  0  0  0
 34 87  1  0  0  0  0
 35 37  2  0  0  0  0
 35 86  1  0  0  0  0
 36 88  1  0  0  0  0
 37 89  1  0  0  0  0
 38 70  2  0  0  0  0
 39 71  1  0  0  0  0
 39 74  1  0  0  0  0
 40 41  2  0  0  0  0
 41 66  1  0  0  0  0
 42 75  1  0  0  0  0
 42 81  2  0  0  0  0
 43 57  1  0  0  0  0
 43 77  1  0  0  0  0
 43 82  2  0  0  0  0
 44 67  1  0  0  0  0
 44 72  1  0  0  0  0
 44 83  2  0  0  0  0
 45 68  1  0  0  0  0
 45 78  1  0  0  0  0
 45 84  2  0  0  0  0
 46 73  1  0  0  0  0
 46 76  1  0  0  0  0
 46 85  2  0  0  0  0
 47 50  1  0  0  0  0
 48 57  1  0  0  0  0
 49 72  1  0  0  0  0
 50 52  1  0  0  0  0
 51 53  1  0  0  0  0
 51 54  1  0  0  0  0
 52 56  1  0  0  0  0
 53 58  1  0  0  0  0
 54 73  1  0  0  0  0
 55 58  1  0  0  0  0
 55 73  1  0  0  0  0
 56 77  1  0  0  0  0
 57 72  1  0  0  0  0
 58 71  1  0  0  0  0
 60 68  1  0  0  0  0
 61 69  1  0  0  0  0
 62 69  1  0  0  0  0
 63 69  1  0  0  0  0
 64 80  1  0  0  0  0
 65 87  1  0  0  0  0
 66 79  1  0  0  0  0
 67 69  1  0  0  0  0
 67 78  1  0  0  0  0
 68 80  1  0  0  0  0
 70 71  1  0  0  0  0
M  CHG  2  79   1  80   1
M  ISO  4  46 100  65 101  76 100  87 101
M  END
> <Batch ID>
0139

> <Smiles>
CNC(C)C(=O)NC(C(=O)N1Cc2cc([101O:1][101CH2:1]c3cccc(C(N)C=Cc4ccc([100NH:0][100C:0](=O)N5CCCC(n6nc(-c7ccc(Oc8ccc(F)cc8F)cc7)c(C(N)=O)c6N)C5)cc4C)c3)ccc2CC1C(=O)NC1CCCc2ccccc21)C(C)(C)C

> <Shape>
0.341

> <Color>
0.153

> <Negative vol penalty>
0.000

$$$$

  -OEChem-04052302483D

 88 96  0     1  0  0  0  0  0999 V2000
  -37.7049  -25.8539    8.7084 C   0  0  0  0  0  0  0  0  0  0  0  0
  -37.8421  -24.9465    9.7539 C   0  0  0  0  0  0  0  0  0  0  0  0
  -23.0411   -9.7830   19.9977 C   0  0  0  0  0  0  0  0  0  0  0  0
  -23.7415   -9.9072   22.3066 C   0  0  0  0  0  0  0  0  0  0  0  0
  -37.3160  -27.1665    8.9726 C   0  0  0  0  0  0  0  0  0  0  0  0
  -37.5914  -25.3515   11.0645 C   0  0  0  0  0  0  0  0  0  0  0  0
  -35.1465  -21.9811   15.5554 C   0  0  0  0  0  0  0  0  0  0  0  0
  -22.3018   -8.6353   20.2837 C   0  0  0  0  0  0  0  0  0  0  0  0
  -23.0021   -8.7596   22.5927 C   0  0  0  0  0  0  0  0  0  0  0  0
  -35.7156  -21.2740   16.6137 C   0  0  0  0  0  0  0  0  0  0  0  0
  -23.3379   -5.4180   22.2027 C   0  0  0  0  0  0  0  0  0  0  0  0
  -23.9441   -4.4346   22.9843 C   0  0  0  0  0  0  0  0  0  0  0  0
  -35.3364  -23.1598   18.0696 C   0  0  0  0  0  0  0  0  0  0  0  0
  -31.7250  -17.5260   21.5256 C   0  0  0  0  0  0  0  0  0  0  0  0
  -22.1977   -4.6715   24.6369 C   0  0  0  0  0  0  0  0  0  0  0  0
  -23.7611  -10.4189   21.0092 C   0  0  0  0  0  0  0  0  0  0  0  0
  -24.0826  -12.9389   20.7770 C   0  0  0  0  0  0  0  0  0  0  0  0
  -37.0511  -27.5852   10.2860 C   0  0  0  0  0  0  0  0  0  0  0  0
  -34.6772  -23.2890   15.7439 C   0  0  0  0  0  0  0  0  0  0  0  0
  -37.1999  -26.6713   11.3466 C   0  0  0  0  0  0  0  0  0  0  0  0
  -34.7595  -23.8803   17.0127 C   0  0  0  0  0  0  0  0  0  0  0  0
  -30.4310  -17.0160   21.8347 C   0  0  0  0  0  0  0  0  0  0  0  0
  -22.2822   -8.1236   21.5812 C   0  0  0  0  0  0  0  0  0  0  0  0
  -35.8133  -21.8644   17.8703 C   0  0  0  0  0  0  0  0  0  0  0  0
  -22.1616   -6.0283   22.6382 C   0  0  0  0  0  0  0  0  0  0  0  0
  -23.3740   -4.0613   24.2014 C   0  0  0  0  0  0  0  0  0  0  0  0
  -21.5915   -5.6550   23.8553 C   0  0  0  0  0  0  0  0  0  0  0  0
  -24.5256  -11.6041   20.7142 C   0  0  0  0  0  0  0  0  0  0  0  0
  -31.9254  -18.7828   22.0527 C   0  0  0  0  0  0  0  0  0  0  0  0
  -29.6916  -17.9025   22.5866 C   0  0  0  0  0  0  0  0  0  0  0  0
  -25.1768  -13.6816   20.4060 C   0  0  0  0  0  0  0  0  0  0  0  0
  -22.7970  -13.4608   21.1384 C   0  0  0  0  0  0  0  0  0  0  0  0
  -35.4251  -26.1354   14.5429 C   0  0  0  0  0  0  0  0  0  0  0  0
  -36.0416  -20.2551   21.1192 C   0  0  0  0  0  0  0  0  0  0  0  0
  -32.8427  -27.1014   16.2518 C   0  0  0  0  0  0  0  0  0  0  0  0
  -30.7319  -26.5462   18.8754 C   0  0  0  0  0  0  0  0  0  0  0  0
  -30.6267  -14.7915   20.6687 C   0  0  0  0  0  0  0  0  0  0  0  0
  -36.6792  -29.0268   10.5273 C   0  0  0  0  0  0  0  0  0  0  0  0
  -34.0417  -24.0285   14.5987 C   0  0  0  0  0  0  0  0  0  0  0  0
  -34.2521  -25.2745   17.2722 C   0  0  0  0  0  0  0  0  0  0  0  0
  -36.0694  -29.2762   11.9044 C   0  0  0  0  0  0  0  0  0  0  0  0
  -29.5962  -12.2558   18.3915 C   0  0  0  0  0  0  0  0  0  0  0  0
  -36.8936  -28.5854   12.9862 C   0  0  0  0  0  0  0  0  0  0  0  0
  -28.1487  -11.9700   18.7980 C   0  0  0  0  0  0  0  0  0  0  0  0
  -30.4778  -12.5513   19.6036 C   0  0  0  0  0  0  0  0  0  0  0  0
  -28.5292  -13.3209   20.8997 C   0  0  0  0  0  0  0  0  0  0  0  0
  -36.9129  -27.0661   12.7791 C   0  0  1  0  0  0  0  0  0  0  0  0
  -34.0645  -25.5432   14.7792 C   0  0  1  0  0  0  0  0  0  0  0  0
  -27.5888  -13.0814   19.7073 C   0  0  2  0  0  0  0  0  0  0  0  0
  -27.2466  -17.9748   22.0360 C   0  0  0  0  0  0  0  0  0  0  0  0
  -28.7399  -27.5289   20.0431 C   0  0  0  0  0  0  0  0  0  0  0  0
  -36.8481  -20.0448   23.4479 C   0  0  0  0  0  0  0  0  0  0  0  0
  -35.2135  -21.8201   22.9563 C   0  0  0  0  0  0  0  0  0  0  0  0
  -34.6387  -29.2051   17.5399 C   0  0  0  0  0  0  0  0  0  0  0  0
  -32.9026  -29.4964   19.3202 C   0  0  0  0  0  0  0  0  0  0  0  0
  -32.3481  -30.0126   16.9435 C   0  0  0  0  0  0  0  0  0  0  0  0
  -33.9176  -19.4466   24.3727 C   0  0  0  0  0  0  0  0  0  0  0  0
  -34.8054  -17.8695   22.6712 C   0  0  0  0  0  0  0  0  0  0  0  0
  -29.0790  -24.1559   18.3156 C   0  0  0  0  0  0  0  0  0  0  0  0
  -33.1540  -19.6628   21.9519 C   0  0  0  0  0  0  0  0  0  0  0  0
  -28.3142  -17.7584   23.1111 C   0  0  0  0  0  0  0  0  0  0  0  0
  -35.9006  -21.4695   20.2139 C   0  0  0  0  0  0  0  0  0  1  0  0
  -32.6178  -27.6025   17.6580 C   0  0  1  0  0  0  0  0  0  0  0  0
  -29.2169  -26.5624   18.9702 C   0  0  2  0  0  0  0  0  0  0  0  0
  -35.5842  -20.3586   22.6031 C   0  0  0  0  0  0  0  0  0  0  0  0
  -33.1382  -29.0536   17.8603 C   0  0  0  0  0  0  0  0  0  0  0  0
  -34.3712  -19.3412   22.8936 C   0  0  0  0  0  0  0  0  0  0  0  0
  -25.8016  -11.5017   20.3332 N   0  0  0  0  0  0  0  0  0  0  0  0
  -26.1699  -12.7815   20.1531 N   0  0  0  0  0  0  0  0  0  0  0  0
  -33.6447  -25.9591   16.1190 N   0  0  0  0  0  0  0  0  0  0  0  0
  -29.8869  -13.6169   20.4160 N   0  0  0  0  0  0  0  0  0  0  0  0
  -25.3767  -15.0102   20.2746 N   0  0  0  0  0  0  0  0  0  0  0  0
  -21.7852  -12.5582   21.4931 N   0  0  0  0  0  0  0  0  0  0  0  0
  -29.9499  -15.7477   21.4251 N   0  0  0  0  0  0  0  0  0  0  0  0
  -35.6682  -26.4791   13.2267 N   0  0  0  0  0  0  0  0  0  0  0  0
  -31.1939  -27.4352   17.9281 N   0  0  0  0  0  0  0  0  0  0  0  0
  -28.7040  -25.2028   19.3008 N   0  3  0  0  0  0  0  0  0  0  0  0
  -22.5480  -14.6902   21.1307 O   0  0  0  0  0  0  0  0  0  0  0  0
  -36.1966  -26.2719   15.4851 O   0  0  0  0  0  0  0  0  0  0  0  0
  -36.5007  -19.2014   20.6680 O   0  0  0  0  0  0  0  0  0  0  0  0
  -32.3200  -27.6973   15.3066 O   0  0  0  0  0  0  0  0  0  0  0  0
  -31.4353  -25.8203   19.5745 O   0  0  0  0  0  0  0  0  0  0  0  0
  -31.7659  -14.9495   20.2223 O   0  0  0  0  0  0  0  0  0  0  0  0
  -21.5606   -7.0039   21.8607 O   0  0  0  0  0  0  0  0  0  0  0  0
  -36.3741  -21.1703   18.9145 O   0  0  0  0  0  0  0  0  0  1  0  0
  -23.9554   -3.1158   24.9512 F   0  0  0  0  0  0  0  0  0  0  0  0
  -20.4609   -6.2369   24.2784 F   0  0  0  0  0  0  0  0  0  0  0  0
  -30.5569  -19.3429   22.9165 S   0  0  0  0  0  0  0  0  0  0  0  0
  1  2  1  0  0  0  0
  1  5  2  0  0  0  0
  2  6  2  0  0  0  0
  3  8  2  0  0  0  0
  3 16  1  0  0  0  0
  4  9  1  0  0  0  0
  4 16  2  0  0  0  0
  5 18  1  0  0  0  0
  6 20  1  0  0  0  0
  7 10  2  0  0  0  0
  7 19  1  0  0  0  0
  8 23  1  0  0  0  0
  9 23  2  0  0  0  0
 10 24  1  0  0  0  0
 11 12  2  0  0  0  0
 11 25  1  0  0  0  0
 12 26  1  0  0  0  0
 13 21  1  0  0  0  0
 13 24  2  0  0  0  0
 14 22  1  0  0  0  0
 14 29  2  0  0  0  0
 15 26  2  0  0  0  0
 15 27  1  0  0  0  0
 16 28  1  0  0  0  0
 17 28  1  0  0  0  0
 17 31  2  0  0  0  0
 17 32  1  0  0  0  0
 18 20  2  0  0  0  0
 18 38  1  0  0  0  0
 19 21  2  0  0  0  0
 19 39  1  0  0  0  0
 20 47  1  0  0  0  0
 21 40  1  0  0  0  0
 22 30  2  0  0  0  0
 22 74  1  0  0  0  0
 23 84  1  0  0  0  0
 24 85  1  0  0  0  0
 25 27  2  0  0  0  0
 25 84  1  0  0  0  0
 26 86  1  0  0  0  0
 27 87  1  0  0  0  0
 28 68  2  0  0  0  0
 29 60  1  0  0  0  0
 29 88  1  0  0  0  0
 30 61  1  0  0  0  0
 30 88  1  0  0  0  0
 31 69  1  0  0  0  0
 31 72  1  0  0  0  0
 32 73  1  0  0  0  0
 32 78  2  0  0  0  0
 33 48  1  0  0  0  0
 33 75  1  0  0  0  0
 33 79  2  0  0  0  0
 34 62  1  0  0  0  0
 34 65  1  0  0  0  0
 34 80  2  0  0  0  0
 35 63  1  0  0  0  0
 35 70  1  0  0  0  0
 35 81  2  0  0  0  0
 36 64  1  0  0  0  0
 36 76  1  0  0  0  0
 36 82  2  0  0  0  0
 37 71  1  0  0  0  0
 37 74  1  0  0  0  0
 37 83  2  0  0  0  0
 38 41  1  0  0  0  0
 39 48  1  0  0  0  0
 40 70  1  0  0  0  0
 41 43  1  0  0  0  0
 42 44  1  0  0  0  0
 42 45  1  0  0  0  0
 43 47  1  0  0  0  0
 44 49  1  0  0  0  0
 45 71  1  0  0  0  0
 46 49  1  0  0  0  0
 46 71  1  0  0  0  0
 47 75  1  0  0  0  0
 48 70  1  0  0  0  0
 49 69  1  0  0  0  0
 50 61  1  0  0  0  0
 51 64  1  0  0  0  0
 52 65  1  0  0  0  0
 53 65  1  0  0  0  0
 54 66  1  0  0  0  0
 55 66  1  0  0  0  0
 56 66  1  0  0  0  0
 57 67  1  0  0  0  0
 58 67  1  0  0  0  0
 59 77  1  0  0  0  0
 60 67  1  0  0  0  0
 62 85  1  0  0  0  0
 63 66  1  0  0  0  0
 63 76  1  0  0  0  0
 64 77  1  0  0  0  0
 65 67  1  0  0  0  0
 68 69  1  0  0  0  0
M  CHG  1  77   1
M  ISO  4  37 100  62 101  74 100  85 101
M  END
> <Batch ID>
0139

> <Smiles>
CCc1sc(CC(C)(C)C(C)(C)C(=O)[101CH2:1][101O:1]c2ccc3c(c2)CN(C(=O)C(NC(=O)C(C)NC)C(C)(C)C)C(C(=O)NC2CCCc4ccccc42)C3)cc1[100NH:0][100C:0](=O)N1CCCC(n2nc(-c3ccc(Oc4ccc(F)cc4F)cc3)c(C(N)=O)c2N)C1

> <Shape>
0.210

> <Color>
0.199

> <Negative vol penalty>
0.000

$$$$

  -OEChem-04052302483D

 86 95  0     1  0  0  0  0  0999 V2000
  -27.8846  -29.4990   28.2517 C   0  0  0  0  0  0  0  0  0  0  0  0
  -27.9384  -28.6913   27.1203 C   0  0  0  0  0  0  0  0  0  0  0  0
  -23.6209   -9.8917   19.8896 C   0  0  0  0  0  0  0  0  0  0  0  0
  -24.1839  -10.0310   22.2350 C   0  0  0  0  0  0  0  0  0  0  0  0
  -26.7120  -30.1872   28.5604 C   0  0  0  0  0  0  0  0  0  0  0  0
  -26.8192  -28.5705   26.2974 C   0  0  0  0  0  0  0  0  0  0  0  0
  -27.9785  -28.9067   21.3792 C   0  0  0  0  0  0  0  0  0  0  0  0
  -23.1142   -8.6073   20.0875 C   0  0  0  0  0  0  0  0  0  0  0  0
  -23.6771   -8.7466   22.4329 C   0  0  0  0  0  0  0  0  0  0  0  0
  -28.5338  -27.7783   20.7774 C   0  0  0  0  0  0  0  0  0  0  0  0
  -20.2910   -7.2044   21.3100 C   0  0  0  0  0  0  0  0  0  0  0  0
  -19.0632   -6.8948   20.7250 C   0  0  0  0  0  0  0  0  0  0  0  0
  -28.7624  -21.2103   21.9660 C   0  0  0  0  0  0  0  0  0  0  0  0
  -29.8299  -19.2118   21.1274 C   0  0  0  0  0  0  0  0  0  0  0  0
  -26.3777  -27.2185   19.8515 C   0  0  0  0  0  0  0  0  0  0  0  0
  -28.0632  -19.0407   22.7666 C   0  0  0  0  0  0  0  0  0  0  0  0
  -20.1123   -5.1230   19.4611 C   0  0  0  0  0  0  0  0  0  0  0  0
  -24.1559  -10.6036   20.9634 C   0  0  0  0  0  0  0  0  0  0  0  0
  -23.9772  -13.1460   20.8561 C   0  0  0  0  0  0  0  0  0  0  0  0
  -25.5809  -30.0824   27.7356 C   0  0  0  0  0  0  0  0  0  0  0  0
  -26.6140  -29.1940   21.2305 C   0  0  0  0  0  0  0  0  0  0  0  0
  -25.6299  -29.2569   26.5960 C   0  0  0  0  0  0  0  0  0  0  0  0
  -29.7071  -20.6012   21.1401 C   0  0  0  0  0  0  0  0  0  0  0  0
  -25.8081  -28.3525   20.4504 C   0  0  0  0  0  0  0  0  0  0  0  0
  -27.9405  -20.4301   22.7793 C   0  0  0  0  0  0  0  0  0  0  0  0
  -29.0079  -18.4315   21.9407 C   0  0  0  0  0  0  0  0  0  0  0  0
  -23.1422   -8.0348   21.3592 C   0  0  0  0  0  0  0  0  0  0  0  0
  -27.7328  -26.9324   20.0158 C   0  0  0  0  0  0  0  0  0  0  0  0
  -21.4295   -6.4735   20.9705 C   0  0  0  0  0  0  0  0  0  0  0  0
  -18.9738   -5.8540   19.8006 C   0  0  0  0  0  0  0  0  0  0  0  0
  -21.3401   -5.4328   20.0461 C   0  0  0  0  0  0  0  0  0  0  0  0
  -24.6800  -11.9301   20.7595 C   0  0  0  0  0  0  0  0  0  0  0  0
  -24.9157  -14.1085   20.5746 C   0  0  0  0  0  0  0  0  0  0  0  0
  -22.5991  -13.3842   21.1723 C   0  0  0  0  0  0  0  0  0  0  0  0
  -24.1466  -29.4528   23.2175 C   0  0  0  0  0  0  0  0  0  0  0  0
  -22.5921  -30.4208   20.5401 C   0  0  0  0  0  0  0  0  0  0  0  0
  -22.4033  -30.4013   17.1326 C   0  0  0  0  0  0  0  0  0  0  0  0
  -30.0181  -16.2572   21.1672 C   0  0  0  0  0  0  0  0  0  0  0  0
  -24.3208  -30.8080   28.1359 C   0  0  0  0  0  0  0  0  0  0  0  0
  -26.0359  -30.4296   21.8641 C   0  0  0  0  0  0  0  0  0  0  0  0
  -24.3418  -28.6276   20.2431 C   0  0  0  0  0  0  0  0  0  0  0  0
  -23.2987  -30.9216   27.0077 C   0  0  0  0  0  0  0  0  0  0  0  0
  -32.8783  -22.3867   20.0630 C   0  0  0  0  0  0  0  0  0  0  0  0
  -29.6121  -13.6906   18.7331 C   0  0  0  0  0  0  0  0  0  0  0  0
  -23.1284  -29.5787   26.3046 C   0  0  0  0  0  0  0  0  0  0  0  0
  -31.8926  -23.5447   19.9664 C   0  0  0  0  0  0  0  0  0  0  0  0
  -28.2350  -13.1038   19.0513 C   0  0  0  0  0  0  0  0  0  0  0  0
  -32.0930  -21.2083   20.6238 C   0  0  0  0  0  0  0  0  0  0  0  0
  -30.3648  -14.0906   20.0009 C   0  0  0  0  0  0  0  0  0  0  0  0
  -28.2487  -14.3914   21.2259 C   0  0  0  0  0  0  0  0  0  0  0  0
  -24.4446  -29.1199   25.6652 C   0  0  1  0  0  0  0  0  0  0  0  0
  -24.5267  -30.3452   22.0701 C   0  0  1  0  0  0  0  0  0  0  0  0
  -30.5379  -23.0050   20.4572 C   0  0  2  0  0  0  0  0  0  0  0  0
  -27.4264  -14.0337   19.9771 C   0  0  2  0  0  0  0  0  0  0  0  0
  -30.6118  -21.4602   20.2451 C   0  0  2  0  0  0  0  0  0  0  0  0
  -26.9303  -21.0816   23.6622 C   0  0  0  0  0  0  0  0  0  0  0  0
  -30.3626  -21.0838   18.7653 C   0  0  0  0  0  0  0  0  0  0  0  0
  -21.0007  -31.2497   15.2325 C   0  0  0  0  0  0  0  0  0  0  0  0
  -20.5000  -28.2800   21.1317 C   0  0  0  0  0  0  0  0  0  0  0  0
  -19.6857  -28.5238   18.7768 C   0  0  0  0  0  0  0  0  0  0  0  0
  -19.5659  -30.4616   20.3429 C   0  0  0  0  0  0  0  0  0  0  0  0
  -24.6544  -31.9653   16.0165 C   0  0  0  0  0  0  0  0  0  0  0  0
  -29.3823  -23.7315   19.7698 C   0  0  0  0  0  0  0  0  0  0  0  0
  -29.3807  -25.2192   20.0867 C   0  0  0  0  0  0  0  0  0  1  0  0
  -21.8137  -29.7295   19.4468 C   0  0  1  0  0  0  0  0  0  0  0  0
  -22.1989  -31.5215   16.1287 C   0  0  2  0  0  0  0  0  0  0  0  0
  -20.4185  -29.2422   19.9299 C   0  0  0  0  0  0  0  0  0  0  0  0
  -25.9658  -12.1017   20.4412 N   0  0  0  0  0  0  0  0  0  0  0  0
  -26.0783  -13.4367   20.3353 N   0  0  0  0  0  0  0  0  0  0  0  0
  -23.8220  -29.8446   20.8881 N   0  0  0  0  0  0  0  0  0  0  0  0
  -29.5391  -14.9746   20.8265 N   0  0  0  0  0  0  0  0  0  0  0  0
  -24.8517  -15.4554   20.5107 N   0  0  0  0  0  0  0  0  0  0  0  0
  -21.7738  -12.2824   21.4350 N   0  0  0  0  0  0  0  0  0  0  0  0
  -29.1326  -17.0201   21.9277 N   0  0  0  0  0  0  0  0  0  0  0  0
  -24.6840  -29.8370   24.4312 N   0  0  0  0  0  0  0  0  0  0  0  0
  -21.7658  -30.6632   18.3269 N   0  0  0  0  0  0  0  0  0  0  0  0
  -23.4057  -31.6716   15.2672 N   0  3  0  0  0  0  0  0  0  0  0  0
  -22.1102  -14.5390   21.2042 O   0  0  0  0  0  0  0  0  0  0  0  0
  -23.4183  -28.4878   23.0169 O   0  0  0  0  0  0  0  0  0  0  0  0
  -22.1292  -31.4387   21.0609 O   0  0  0  0  0  0  0  0  0  0  0  0
  -23.0595  -29.3930   16.8811 O   0  0  0  0  0  0  0  0  0  0  0  0
  -31.1207  -16.6602   20.7877 O   0  0  0  0  0  0  0  0  0  0  0  0
  -22.6476   -6.7816   21.5527 O   0  0  0  0  0  0  0  0  0  0  0  0
  -28.2721  -25.8300   19.4278 O   0  0  0  0  0  0  0  0  0  1  0  0
  -17.7944   -5.5558   19.2401 F   0  0  0  0  0  0  0  0  0  0  0  0
  -22.4302   -4.7262   19.7168 F   0  0  0  0  0  0  0  0  0  0  0  0
  1  2  1  0  0  0  0
  1  5  2  0  0  0  0
  2  6  2  0  0  0  0
  3  8  2  0  0  0  0
  3 18  1  0  0  0  0
  4  9  1  0  0  0  0
  4 18  2  0  0  0  0
  5 20  1  0  0  0  0
  6 22  1  0  0  0  0
  7 10  2  0  0  0  0
  7 21  1  0  0  0  0
  8 27  1  0  0  0  0
  9 27  2  0  0  0  0
 10 28  1  0  0  0  0
 11 12  2  0  0  0  0
 11 29  1  0  0  0  0
 12 30  1  0  0  0  0
 13 23  1  0  0  0  0
 13 25  2  0  0  0  0
 14 23  2  0  0  0  0
 14 26  1  0  0  0  0
 15 24  1  0  0  0  0
 15 28  2  0  0  0  0
 16 25  1  0  0  0  0
 16 26  2  0  0  0  0
 17 30  2  0  0  0  0
 17 31  1  0  0  0  0
 18 32  1  0  0  0  0
 19 32  1  0  0  0  0
 19 33  2  0  0  0  0
 19 34  1  0  0  0  0
 20 22  2  0  0  0  0
 20 39  1  0  0  0  0
 21 24  2  0  0  0  0
 21 40  1  0  0  0  0
 22 51  1  0  0  0  0
 23 55  1  0  0  0  0
 24 41  1  0  0  0  0
 25 56  1  0  0  0  0
 26 74  1  0  0  0  0
 27 83  1  0  0  0  0
 28 84  1  0  0  0  0
 29 31  2  0  0  0  0
 29 83  1  0  0  0  0
 30 85  1  0  0  0  0
 31 86  1  0  0  0  0
 32 68  2  0  0  0  0
 33 69  1  0  0  0  0
 33 72  1  0  0  0  0
 34 73  1  0  0  0  0
 34 78  2  0  0  0  0
 35 52  1  0  0  0  0
 35 75  1  0  0  0  0
 35 79  2  0  0  0  0
 36 65  1  0  0  0  0
 36 70  1  0  0  0  0
 36 80  2  0  0  0  0
 37 66  1  0  0  0  0
 37 76  1  0  0  0  0
 37 81  2  0  0  0  0
 38 71  1  0  0  0  0
 38 74  1  0  0  0  0
 38 82  2  0  0  0  0
 39 42  1  0  0  0  0
 40 52  1  0  0  0  0
 41 70  1  0  0  0  0
 42 45  1  0  0  0  0
 43 46  1  0  0  0  0
 43 48  1  0  0  0  0
 44 47  1  0  0  0  0
 44 49  1  0  0  0  0
 45 51  1  0  0  0  0
 46 53  1  0  0  0  0
 47 54  1  0  0  0  0
 48 55  1  0  0  0  0
 49 71  1  0  0  0  0
 50 54  1  0  0  0  0
 50 71  1  0  0  0  0
 51 75  1  0  0  0  0
 52 70  1  0  0  0  0
 53 55  1  0  0  0  0
 53 63  1  0  0  0  0
 54 69  1  0  0  0  0
 55 57  1  0  0  0  0
 58 66  1  0  0  0  0
 59 67  1  0  0  0  0
 60 67  1  0  0  0  0
 61 67  1  0  0  0  0
 62 77  1  0  0  0  0
 63 64  1  0  0  0  0
 64 84  1  0  0  0  0
 65 67  1  0  0  0  0
 65 76  1  0  0  0  0
 66 77  1  0  0  0  0
 68 69  1  0  0  0  0
M  CHG  1  77   1
M  ISO  4  38 100  64 101  74 100  84 101
M  END
> <Batch ID>
0139

> <Smiles>
CNC(C)C(=O)NC(C(=O)N1Cc2cc([101O:1][101CH2:1]CC3CCCC3(C)c3cc(C)cc([100NH:0][100C:0](=O)N4CCCC(n5nc(-c6ccc(Oc7ccc(F)cc7F)cc6)c(C(N)=O)c5N)C4)c3)ccc2CC1C(=O)NC1CCCc2ccccc21)C(C)(C)C

> <Shape>
0.285

> <Color>
0.160

> <Negative vol penalty>
0.000

$$$$

  -OEChem-04052302483D

 86 94  0     1  0  0  0  0  0999 V2000
  -16.3643  -29.0356   23.5326 C   0  0  0  0  0  0  0  0  0  0  0  0
  -17.2299  -28.4029   22.6461 C   0  0  0  0  0  0  0  0  0  0  0  0
  -26.3145  -11.4097   21.0640 C   0  0  0  0  0  0  0  0  0  0  0  0
  -25.9253  -11.9016   18.7309 C   0  0  0  0  0  0  0  0  0  0  0  0
  -16.8296  -30.0742   24.3379 C   0  0  0  0  0  0  0  0  0  0  0  0
  -18.5612  -28.8094   22.5636 C   0  0  0  0  0  0  0  0  0  0  0  0
  -23.4342  -25.2598   21.4866 C   0  0  0  0  0  0  0  0  0  0  0  0
  -25.0172  -10.9094   21.1750 C   0  0  0  0  0  0  0  0  0  0  0  0
  -24.6280  -11.4013   18.8418 C   0  0  0  0  0  0  0  0  0  0  0  0
  -24.1632  -24.9937   20.3284 C   0  0  0  0  0  0  0  0  0  0  0  0
  -23.3685   -8.0646   20.3862 C   0  0  0  0  0  0  0  0  0  0  0  0
  -23.1949   -6.8577   21.0635 C   0  0  0  0  0  0  0  0  0  0  0  0
  -25.7629  -26.6877   20.9535 C   0  0  0  0  0  0  0  0  0  0  0  0
  -29.4088  -20.4595   16.6296 C   0  0  0  0  0  0  0  0  0  0  0  0
  -28.5418  -20.7793   14.3974 C   0  0  0  0  0  0  0  0  0  0  0  0
  -29.0096  -18.5504   15.2038 C   0  0  0  0  0  0  0  0  0  0  0  0
  -21.7547   -7.9604   22.6594 C   0  0  0  0  0  0  0  0  0  0  0  0
  -26.7686  -11.9058   19.8420 C   0  0  0  0  0  0  0  0  0  0  0  0
  -29.2698  -11.7064   19.3818 C   0  0  0  0  0  0  0  0  0  0  0  0
  -18.1697  -30.4872   24.2722 C   0  0  0  0  0  0  0  0  0  0  0  0
  -23.8589  -26.2510   22.3830 C   0  0  0  0  0  0  0  0  0  0  0  0
  -19.0446  -29.8555   23.3678 C   0  0  0  0  0  0  0  0  0  0  0  0
  -25.0389  -26.9626   22.1236 C   0  0  0  0  0  0  0  0  0  0  0  0
  -28.9639  -21.3090   15.6168 C   0  0  0  0  0  0  0  0  0  0  0  0
  -29.4317  -19.0801   16.4231 C   0  0  0  0  0  0  0  0  0  0  0  0
  -24.1739  -10.9052   20.0639 C   0  0  0  0  0  0  0  0  0  0  0  0
  -25.3262  -25.7097   20.0602 C   0  0  0  0  0  0  0  0  0  0  0  0
  -22.7353   -9.2195   20.8456 C   0  0  0  0  0  0  0  0  0  0  0  0
  -22.3880   -6.8056   22.2001 C   0  0  0  0  0  0  0  0  0  0  0  0
  -28.5646  -19.3999   14.1909 C   0  0  0  0  0  0  0  0  0  0  0  0
  -21.9284   -9.1674   21.9822 C   0  0  0  0  0  0  0  0  0  0  0  0
  -28.1084  -12.4233   19.7269 C   0  0  0  0  0  0  0  0  0  0  0  0
  -30.2733  -12.6438   19.4112 C   0  0  0  0  0  0  0  0  0  0  0  0
  -29.4274  -10.3174   19.0632 C   0  0  0  0  0  0  0  0  0  0  0  0
  -22.6339  -28.9823   23.4522 C   0  0  0  0  0  0  0  0  0  0  0  0
  -25.2311  -28.9348   25.3950 C   0  0  0  0  0  0  0  0  0  0  0  0
  -28.4130  -27.8336   25.9518 C   0  0  0  0  0  0  0  0  0  0  0  0
  -30.3370  -18.5787   18.7200 C   0  0  0  0  0  0  0  0  0  0  0  0
  -18.6150  -31.6460   25.1286 C   0  0  0  0  0  0  0  0  0  0  0  0
  -23.0757  -26.5074   23.6413 C   0  0  0  0  0  0  0  0  0  0  0  0
  -25.5486  -28.0228   23.0641 C   0  0  0  0  0  0  0  0  0  0  0  0
  -20.1320  -31.7665   25.2494 C   0  0  0  0  0  0  0  0  0  0  0  0
  -31.4992  -16.7515   21.5462 C   0  0  0  0  0  0  0  0  0  0  0  0
  -20.7893  -31.6274   23.8799 C   0  0  0  0  0  0  0  0  0  0  0  0
  -30.8722  -15.3672   21.3658 C   0  0  0  0  0  0  0  0  0  0  0  0
  -30.5575  -17.8645   21.0898 C   0  0  0  0  0  0  0  0  0  0  0  0
  -29.4047  -16.3286   19.5467 C   0  0  0  0  0  0  0  0  0  0  0  0
  -20.5017  -30.2513   23.2673 C   0  0  1  0  0  0  0  0  0  0  0  0
  -23.3227  -27.8944   24.2266 C   0  0  1  0  0  0  0  0  0  0  0  0
  -30.3409  -15.1716   19.9322 C   0  0  2  0  0  0  0  0  0  0  0  0
  -30.2907  -27.9922   27.6090 C   0  0  0  0  0  0  0  0  0  0  0  0
  -25.8821  -31.7395   24.3853 C   0  0  0  0  0  0  0  0  0  0  0  0
  -28.1926  -31.4600   25.3081 C   0  0  0  0  0  0  0  0  0  0  0  0
  -26.2249  -31.4089   26.8404 C   0  0  0  0  0  0  0  0  0  0  0  0
  -26.1090  -26.9481   16.4371 C   0  0  0  0  0  0  0  0  0  0  0  0
  -25.1467  -24.9489   15.2941 C   0  0  0  0  0  0  0  0  0  0  0  0
  -28.3676  -24.9179   26.4574 C   0  0  0  0  0  0  0  0  0  0  0  0
  -28.9384  -22.8029   15.8401 C   0  0  0  0  0  0  0  0  0  0  0  0
  -27.4590  -24.8418   16.3515 C   0  0  0  0  0  0  0  0  0  0  0  0
  -25.3108  -24.9906   17.7934 C   0  0  0  0  0  0  0  0  0  1  0  0
  -26.6471  -29.4494   25.2997 C   0  0  1  0  0  0  0  0  0  0  0  0
  -29.0632  -27.2078   27.1725 C   0  0  2  0  0  0  0  0  0  0  0  0
  -27.6097  -23.3082   16.4288 C   0  0  2  0  0  0  0  0  0  0  0  0
  -26.7263  -30.9959   25.4395 C   0  0  0  0  0  0  0  0  0  0  0  0
  -26.0114  -25.4064   16.4852 C   0  0  0  0  0  0  0  0  0  0  0  0
  -28.3503  -13.7162   19.9586 N   0  0  0  0  0  0  0  0  0  0  0  0
  -29.6753  -13.8192   19.7589 N   0  0  0  0  0  0  0  0  0  0  0  0
  -24.7444  -28.2413   24.2779 N   0  0  0  0  0  0  0  0  0  0  0  0
  -30.0981  -17.6144   19.7219 N   0  0  0  0  0  0  0  0  0  0  0  0
  -31.6000  -12.5690   19.1734 N   0  0  0  0  0  0  0  0  0  0  0  0
  -28.2926   -9.4951   19.0799 N   0  0  0  0  0  0  0  0  0  0  0  0
  -29.8839  -18.2168   17.4517 N   0  0  0  0  0  0  0  0  0  0  0  0
  -21.3438  -29.2423   23.8733 N   0  0  0  0  0  0  0  0  0  0  0  0
  -27.4154  -28.7187   26.3018 N   0  0  0  0  0  0  0  0  0  0  0  0
  -27.5962  -22.8983   17.8700 N   0  3  0  0  0  0  0  0  0  0  0  0
  -29.4806  -25.8080   26.8767 N   0  3  0  0  0  0  0  0  0  0  0  0
  -30.5443   -9.8169   18.7883 O   0  0  0  0  0  0  0  0  0  0  0  0
  -23.2294  -29.5452   22.5410 O   0  0  0  0  0  0  0  0  0  0  0  0
  -24.5833  -29.1343   26.4256 O   0  0  0  0  0  0  0  0  0  0  0  0
  -28.7583  -27.5669   24.8028 O   0  0  0  0  0  0  0  0  0  0  0  0
  -30.9260  -19.6350   18.9632 O   0  0  0  0  0  0  0  0  0  0  0  0
  -22.9080  -10.4169   20.1717 O   0  0  0  0  0  0  0  0  0  0  0  0
  -26.0394  -25.4525   18.9301 O   0  0  0  0  0  0  0  0  0  1  0  0
  -22.2201   -5.6461   22.8494 F   0  0  0  0  0  0  0  0  0  0  0  0
  -28.1592  -18.8914   13.0199 F   0  0  0  0  0  0  0  0  0  0  0  0
  -21.3165  -10.2733   22.4276 F   0  0  0  0  0  0  0  0  0  0  0  0
  1  2  1  0  0  0  0
  1  5  2  0  0  0  0
  2  6  2  0  0  0  0
  3  8  2  0  0  0  0
  3 18  1  0  0  0  0
  4  9  1  0  0  0  0
  4 18  2  0  0  0  0
  5 20  1  0  0  0  0
  6 22  1  0  0  0  0
  7 10  2  0  0  0  0
  7 21  1  0  0  0  0
  8 26  1  0  0  0  0
  9 26  2  0  0  0  0
 10 27  1  0  0  0  0
 11 12  2  0  0  0  0
 11 28  1  0  0  0  0
 12 29  1  0  0  0  0
 13 23  1  0  0  0  0
 13 27  2  0  0  0  0
 14 24  2  0  0  0  0
 14 25  1  0  0  0  0
 15 24  1  0  0  0  0
 15 30  2  0  0  0  0
 16 25  2  0  0  0  0
 16 30  1  0  0  0  0
 17 29  2  0  0  0  0
 17 31  1  0  0  0  0
 18 32  1  0  0  0  0
 19 32  1  0  0  0  0
 19 33  2  0  0  0  0
 19 34  1  0  0  0  0
 20 22  2  0  0  0  0
 20 39  1  0  0  0  0
 21 23  2  0  0  0  0
 21 40  1  0  0  0  0
 22 48  1  0  0  0  0
 23 41  1  0  0  0  0
 24 58  1  0  0  0  0
 25 72  1  0  0  0  0
 26 82  1  0  0  0  0
 27 83  1  0  0  0  0
 28 31  2  0  0  0  0
 28 82  1  0  0  0  0
 29 84  1  0  0  0  0
 30 85  1  0  0  0  0
 31 86  1  0  0  0  0
 32 66  2  0  0  0  0
 33 67  1  0  0  0  0
 33 70  1  0  0  0  0
 34 71  1  0  0  0  0
 34 77  2  0  0  0  0
 35 49  1  0  0  0  0
 35 73  1  0  0  0  0
 35 78  2  0  0  0  0
 36 61  1  0  0  0  0
 36 68  1  0  0  0  0
 36 79  2  0  0  0  0
 37 62  1  0  0  0  0
 37 74  1  0  0  0  0
 37 80  2  0  0  0  0
 38 69  1  0  0  0  0
 38 72  1  0  0  0  0
 38 81  2  0  0  0  0
 39 42  1  0  0  0  0
 40 49  1  0  0  0  0
 41 68  1  0  0  0  0
 42 44  1  0  0  0  0
 43 45  1  0  0  0  0
 43 46  1  0  0  0  0
 44 48  1  0  0  0  0
 45 50  1  0  0  0  0
 46 69  1  0  0  0  0
 47 50  1  0  0  0  0
 47 69  1  0  0  0  0
 48 73  1  0  0  0  0
 49 68  1  0  0  0  0
 50 67  1  0  0  0  0
 51 62  1  0  0  0  0
 52 64  1  0  0  0  0
 53 64  1  0  0  0  0
 54 64  1  0  0  0  0
 55 65  1  0  0  0  0
 56 65  1  0  0  0  0
 57 76  1  0  0  0  0
 58 63  1  0  0  0  0
 59 63  1  0  0  0  0
 59 65  1  0  0  0  0
 60 65  1  0  0  0  0
 60 83  1  0  0  0  0
 61 64  1  0  0  0  0
 61 74  1  0  0  0  0
 62 76  1  0  0  0  0
 63 75  1  0  0  0  0
 66 67  1  0  0  0  0
M  CHG  2  75   1  76   1
M  ISO  4  38 100  60 101  72 100  83 101
M  END
> <Batch ID>
0139

> <Smiles>
CNC(C)C(=O)NC(C(=O)N1Cc2cc([101O:1][101CH2:1]C(C)(C)CC(N)Cc3cc(F)cc([100NH:0][100C:0](=O)N4CCCC(n5nc(-c6ccc(Oc7ccc(F)cc7F)cc6)c(C(N)=O)c5N)C4)c3)ccc2CC1C(=O)NC1CCCc2ccccc21)C(C)(C)C

> <Shape>
0.247

> <Color>
0.069

> <Negative vol penalty>
0.000

$$$$

  -OEChem-04052302483D

 85 93  0     1  0  0  0  0  0999 V2000
  -19.8201  -30.6385   24.1897 C   0  0  0  0  0  0  0  0  0  0  0  0
  -21.1721  -30.3798   23.9882 C   0  0  0  0  0  0  0  0  0  0  0  0
  -25.4301  -13.6873   21.6759 C   0  0  0  0  0  0  0  0  0  0  0  0
  -24.9208  -14.4529   19.4417 C   0  0  0  0  0  0  0  0  0  0  0  0
  -18.8674  -29.6903   23.8195 C   0  0  0  0  0  0  0  0  0  0  0  0
  -21.5722  -29.1721   23.4174 C   0  0  0  0  0  0  0  0  0  0  0  0
  -25.1207  -29.7873   19.8572 C   0  0  0  0  0  0  0  0  0  0  0  0
  -24.4521  -12.6995   21.5604 C   0  0  0  0  0  0  0  0  0  0  0  0
  -23.9429  -13.4650   19.3262 C   0  0  0  0  0  0  0  0  0  0  0  0
  -26.4272  -30.0065   20.2916 C   0  0  0  0  0  0  0  0  0  0  0  0
  -24.1385   -9.6628   20.1069 C   0  0  0  0  0  0  0  0  0  0  0  0
  -24.4636   -8.3755   20.5344 C   0  0  0  0  0  0  0  0  0  0  0  0
  -26.9458  -27.6862   19.8835 C   0  0  0  0  0  0  0  0  0  0  0  0
  -29.4844  -24.0184   18.5359 C   0  0  0  0  0  0  0  0  0  0  0  0
  -30.9700  -24.2355   16.6431 C   0  0  0  0  0  0  0  0  0  0  0  0
  -30.7087  -22.0959   17.7345 C   0  0  0  0  0  0  0  0  0  0  0  0
  -22.6646   -8.4560   22.1451 C   0  0  0  0  0  0  0  0  0  0  0  0
  -25.6644  -14.5641   20.6166 C   0  0  0  0  0  0  0  0  0  0  0  0
  -28.0345  -15.4797   20.3892 C   0  0  0  0  0  0  0  0  0  0  0  0
  -19.2555  -28.4744   23.2350 C   0  0  0  0  0  0  0  0  0  0  0  0
  -24.7132  -28.5113   19.4423 C   0  0  0  0  0  0  0  0  0  0  0  0
  -20.6239  -28.2062   23.0403 C   0  0  0  0  0  0  0  0  0  0  0  0
  -25.6343  -27.4540   19.4419 C   0  0  0  0  0  0  0  0  0  0  0  0
  -30.0667  -24.8039   17.5412 C   0  0  0  0  0  0  0  0  0  0  0  0
  -29.8054  -22.6644   18.6326 C   0  0  0  0  0  0  0  0  0  0  0  0
  -23.7085  -12.5883   20.3855 C   0  0  0  0  0  0  0  0  0  0  0  0
  -27.3392  -28.9552   20.3076 C   0  0  0  0  0  0  0  0  0  0  0  0
  -23.0764  -10.3467   20.6985 C   0  0  0  0  0  0  0  0  0  0  0  0
  -23.7267   -7.7721   21.5535 C   0  0  0  0  0  0  0  0  0  0  0  0
  -31.2911  -22.8814   16.7398 C   0  0  0  0  0  0  0  0  0  0  0  0
  -22.3395   -9.7433   21.7175 C   0  0  0  0  0  0  0  0  0  0  0  0
  -26.6741  -15.5851   20.7356 C   0  0  0  0  0  0  0  0  0  0  0  0
  -28.5619  -16.7117   20.6902 C   0  0  0  0  0  0  0  0  0  0  0  0
  -28.7569  -14.3677   19.8440 C   0  0  0  0  0  0  0  0  0  0  0  0
  -22.5451  -26.4132   20.4428 C   0  0  0  0  0  0  0  0  0  0  0  0
  -30.3218  -28.6124   18.1876 C   0  0  0  0  0  0  0  0  0  0  0  0
  -23.4397  -24.8035   17.7724 C   0  0  0  0  0  0  0  0  0  0  0  0
  -25.8305  -24.2137   15.4095 C   0  0  0  0  0  0  0  0  0  0  0  0
  -28.2995  -22.2730   20.6138 C   0  0  0  0  0  0  0  0  0  0  0  0
  -18.1921  -27.4605   22.8947 C   0  0  0  0  0  0  0  0  0  0  0  0
  -23.3077  -28.2973   18.9512 C   0  0  0  0  0  0  0  0  0  0  0  0
  -25.2524  -26.0698   18.9872 C   0  0  0  0  0  0  0  0  0  0  0  0
  -18.6770  -26.3622   21.9519 C   0  0  0  0  0  0  0  0  0  0  0  0
  -26.5845  -20.6048   23.2507 C   0  0  0  0  0  0  0  0  0  0  0  0
  -20.0259  -25.8197   22.4135 C   0  0  0  0  0  0  0  0  0  0  0  0
  -26.5669  -19.1414   22.8029 C   0  0  0  0  0  0  0  0  0  0  0  0
  -26.4168  -21.5609   22.0711 C   0  0  0  0  0  0  0  0  0  0  0  0
  -27.3406  -19.8884   20.5159 C   0  0  0  0  0  0  0  0  0  0  0  0
  -21.0958  -26.9182   22.4012 C   0  0  1  0  0  0  0  0  0  0  0  0
  -22.8598  -26.8414   19.0374 C   0  0  1  0  0  0  0  0  0  0  0  0
  -27.5713  -18.8892   21.6614 C   0  0  2  0  0  0  0  0  0  0  0  0
  -26.2876  -22.8168   13.3756 C   0  0  0  0  0  0  0  0  0  0  0  0
  -29.7841  -31.2448   20.9637 C   0  0  0  0  0  0  0  0  0  0  0  0
  -23.9415  -22.3779   19.5541 C   0  0  0  0  0  0  0  0  0  0  0  0
  -25.2616  -21.3644   17.6837 C   0  0  0  0  0  0  0  0  0  0  0  0
  -22.8365  -21.8584   17.3715 C   0  0  0  0  0  0  0  0  0  0  0  0
  -26.1212  -26.6048   13.6900 C   0  0  0  0  0  0  0  0  0  0  0  0
  -29.7199  -26.2664   17.4359 C   0  0  0  0  0  0  0  0  0  0  0  0
  -30.6604  -27.1318   18.2727 C   0  0  0  0  0  0  0  0  0  0  0  0
  -30.6226  -29.4249   19.4413 C   0  0  0  0  0  0  0  0  0  0  0  0
  -24.4905  -23.7689   17.4494 C   0  0  1  0  0  0  0  0  0  0  0  0
  -25.7541  -24.1428   13.8951 C   0  0  2  0  0  0  0  0  0  0  0  0
  -29.3889  -30.1244   20.0110 C   0  0  1  0  0  0  0  0  0  1  0  0
  -24.1395  -22.3679   18.0251 C   0  0  0  0  0  0  0  0  0  0  0  0
  -26.3570  -16.7888   21.2198 N   0  0  0  0  0  0  0  0  0  0  0  0
  -27.5257  -17.4512   21.1799 N   0  0  0  0  0  0  0  0  0  0  0  0
  -23.8649  -25.9095   18.5220 N   0  0  0  0  0  0  0  0  0  0  0  0
  -27.4045  -21.2652   21.0309 N   0  0  0  0  0  0  0  0  0  0  0  0
  -29.8062  -17.2238   20.5813 N   0  0  0  0  0  0  0  0  0  0  0  0
  -28.0616  -13.1765   19.5951 N   0  0  0  0  0  0  0  0  0  0  0  0
  -29.2142  -21.8662   19.6431 N   0  0  0  0  0  0  0  0  0  0  0  0
  -21.5550  -27.1614   21.0505 N   0  0  0  0  0  0  0  0  0  0  0  0
  -24.6571  -23.7948   16.0003 N   0  0  0  0  0  0  0  0  0  0  0  0
  -26.5528  -25.2425   13.2841 N   0  3  0  0  0  0  0  0  0  0  0  0
  -29.9862  -14.4233   19.6005 O   0  0  0  0  0  0  0  0  0  0  0  0
  -23.1543  -25.4726   20.9386 O   0  0  0  0  0  0  0  0  0  0  0  0
  -29.8392  -29.1171   17.1752 O   0  0  0  0  0  0  0  0  0  0  0  0
  -22.2858  -24.6401   17.3682 O   0  0  0  0  0  0  0  0  0  0  0  0
  -26.8323  -24.5984   16.0087 O   0  0  0  0  0  0  0  0  0  0  0  0
  -28.2752  -23.4054   21.1028 O   0  0  0  0  0  0  0  0  0  0  0  0
  -22.7543  -11.6243   20.2723 O   0  0  0  0  0  0  0  0  0  0  0  0
  -28.6149  -29.1663   20.7318 O   0  0  0  0  0  0  0  0  0  1  0  0
  -24.0381   -6.5353   21.9629 F   0  0  0  0  0  0  0  0  0  0  0  0
  -32.1585  -22.3357   15.8773 F   0  0  0  0  0  0  0  0  0  0  0  0
  -21.3173  -10.3949   22.2888 F   0  0  0  0  0  0  0  0  0  0  0  0
  1  2  1  0  0  0  0
  1  5  2  0  0  0  0
  2  6  2  0  0  0  0
  3  8  2  0  0  0  0
  3 18  1  0  0  0  0
  4  9  1  0  0  0  0
  4 18  2  0  0  0  0
  5 20  1  0  0  0  0
  6 22  1  0  0  0  0
  7 10  2  0  0  0  0
  7 21  1  0  0  0  0
  8 26  1  0  0  0  0
  9 26  2  0  0  0  0
 10 27  1  0  0  0  0
 11 12  2  0  0  0  0
 11 28  1  0  0  0  0
 12 29  1  0  0  0  0
 13 23  1  0  0  0  0
 13 27  2  0  0  0  0
 14 24  2  0  0  0  0
 14 25  1  0  0  0  0
 15 24  1  0  0  0  0
 15 30  2  0  0  0  0
 16 25  2  0  0  0  0
 16 30  1  0  0  0  0
 17 29  2  0  0  0  0
 17 31  1  0  0  0  0
 18 32  1  0  0  0  0
 19 32  1  0  0  0  0
 19 33  2  0  0  0  0
 19 34  1  0  0  0  0
 20 22  2  0  0  0  0
 20 40  1  0  0  0  0
 21 23  2  0  0  0  0
 21 41  1  0  0  0  0
 22 49  1  0  0  0  0
 23 42  1  0  0  0  0
 24 58  1  0  0  0  0
 25 71  1  0  0  0  0
 26 81  1  0  0  0  0
 27 82  1  0  0  0  0
 28 31  2  0  0  0  0
 28 81  1  0  0  0  0
 29 83  1  0  0  0  0
 30 84  1  0  0  0  0
 31 85  1  0  0  0  0
 32 65  2  0  0  0  0
 33 66  1  0  0  0  0
 33 69  1  0  0  0  0
 34 70  1  0  0  0  0
 34 75  2  0  0  0  0
 35 50  1  0  0  0  0
 35 72  1  0  0  0  0
 35 76  2  0  0  0  0
 36 59  1  0  0  0  0
 36 60  1  0  0  0  0
 36 77  2  0  0  0  0
 37 61  1  0  0  0  0
 37 67  1  0  0  0  0
 37 78  2  0  0  0  0
 38 62  1  0  0  0  0
 38 73  1  0  0  0  0
 38 79  2  0  0  0  0
 39 68  1  0  0  0  0
 39 71  1  0  0  0  0
 39 80  2  0  0  0  0
 40 43  1  0  0  0  0
 41 50  1  0  0  0  0
 42 67  1  0  0  0  0
 43 45  1  0  0  0  0
 44 46  1  0  0  0  0
 44 47  1  0  0  0  0
 45 49  1  0  0  0  0
 46 51  1  0  0  0  0
 47 68  1  0  0  0  0
 48 51  1  0  0  0  0
 48 68  1  0  0  0  0
 49 72  1  0  0  0  0
 50 67  1  0  0  0  0
 51 66  1  0  0  0  0
 52 62  1  0  0  0  0
 53 63  1  0  0  0  0
 54 64  1  0  0  0  0
 55 64  1  0  0  0  0
 56 64  1  0  0  0  0
 57 74  1  0  0  0  0
 58 59  1  0  0  0  0
 60 63  1  0  0  0  0
 61 64  1  0  0  0  0
 61 73  1  0  0  0  0
 62 74  1  0  0  0  0
 63 82  1  0  0  0  0
 65 66  1  0  0  0  0
M  CHG  1  74   1
M  ISO  4  39 100  63 101  71 100  82 101
M  END
> <Batch ID>
0139

> <Smiles>
CNC(C)C(=O)NC(C(=O)N1Cc2cc([101O:1][101CH:1](C)CC(=O)CCc3cc(F)cc([100NH:0][100C:0](=O)N4CCCC(n5nc(-c6ccc(Oc7ccc(F)cc7F)cc6)c(C(N)=O)c5N)C4)c3)ccc2CC1C(=O)NC1CCCc2ccccc21)C(C)(C)C

> <Shape>
0.271

> <Color>
0.062

> <Negative vol penalty>
0.000

$$$$

  -OEChem-04052302483D

 89 98  0     1  0  0  0  0  0999 V2000
  -29.6375  -35.8276   22.0589 C   0  0  0  0  0  0  0  0  0  0  0  0
  -29.6679  -34.4996   21.6455 C   0  0  0  0  0  0  0  0  0  0  0  0
  -25.9661  -13.2787   19.5712 C   0  0  0  0  0  0  0  0  0  0  0  0
  -26.2797  -12.3292   21.7706 C   0  0  0  0  0  0  0  0  0  0  0  0
  -28.7977  -36.2124   23.1032 C   0  0  0  0  0  0  0  0  0  0  0  0
  -28.8591  -33.5554   22.2769 C   0  0  0  0  0  0  0  0  0  0  0  0
  -26.5211  -30.4921   18.9913 C   0  0  0  0  0  0  0  0  0  0  0  0
  -24.7450  -12.6141   19.4584 C   0  0  0  0  0  0  0  0  0  0  0  0
  -25.0585  -11.6646   21.6578 C   0  0  0  0  0  0  0  0  0  0  0  0
  -27.2764  -29.4615   18.4333 C   0  0  0  0  0  0  0  0  0  0  0  0
  -23.6661   -9.4894   18.7538 C   0  0  0  0  0  0  0  0  0  0  0  0
  -23.3931   -8.8364   17.5519 C   0  0  0  0  0  0  0  0  0  0  0  0
  -27.6789  -21.4726   21.2791 C   0  0  0  0  0  0  0  0  0  0  0  0
  -26.9358  -23.5999   22.1503 C   0  0  0  0  0  0  0  0  0  0  0  0
  -26.3062  -27.9085   20.0038 C   0  0  0  0  0  0  0  0  0  0  0  0
  -28.2069  -22.0979   23.5522 C   0  0  0  0  0  0  0  0  0  0  0  0
  -21.4416  -10.2262   17.2400 C   0  0  0  0  0  0  0  0  0  0  0  0
  -26.7335  -13.1362   20.7273 C   0  0  0  0  0  0  0  0  0  0  0  0
  -27.0075  -22.6823   21.1022 C   0  0  0  0  0  0  0  0  0  0  0  0
  -29.1193  -13.6827   20.0081 C   0  0  0  0  0  0  0  0  0  0  0  0
  -27.9711  -35.2742   23.7413 C   0  0  0  0  0  0  0  0  0  0  0  0
  -25.6594  -30.2403   20.0685 C   0  0  0  0  0  0  0  0  0  0  0  0
  -28.0083  -33.9277   23.3315 C   0  0  0  0  0  0  0  0  0  0  0  0
  -25.5392  -28.9371   20.5719 C   0  0  0  0  0  0  0  0  0  0  0  0
  -28.2785  -21.1803   22.5041 C   0  0  0  0  0  0  0  0  0  0  0  0
  -24.2912  -11.8071   20.5016 C   0  0  0  0  0  0  0  0  0  0  0  0
  -27.1711  -28.1700   18.9414 C   0  0  0  0  0  0  0  0  0  0  0  0
  -22.8267  -10.5108   19.1989 C   0  0  0  0  0  0  0  0  0  0  0  0
  -22.2809   -9.2048   16.7949 C   0  0  0  0  0  0  0  0  0  0  0  0
  -27.5355  -23.3077   23.3754 C   0  0  0  0  0  0  0  0  0  0  0  0
  -21.7145  -10.8792   18.4420 C   0  0  0  0  0  0  0  0  0  0  0  0
  -27.9953  -13.8220   20.8442 C   0  0  0  0  0  0  0  0  0  0  0  0
  -30.0500  -14.5426   20.5379 C   0  0  0  0  0  0  0  0  0  0  0  0
  -28.8566  -22.1206   16.6881 C   0  0  0  0  0  0  0  0  0  0  0  0
  -29.5704  -22.2338   15.5594 C   0  0  0  0  0  0  0  0  0  0  0  0
  -26.3726  -22.9912   19.8085 C   0  0  0  0  0  0  0  0  0  0  0  0
  -29.3053  -12.8504   18.8556 C   0  0  0  0  0  0  0  0  0  0  0  0
  -25.4751  -31.2498   23.0770 C   0  0  0  0  0  0  0  0  0  0  0  0
  -22.7055  -29.5612   23.0637 C   0  0  0  0  0  0  0  0  0  0  0  0
  -21.5640  -26.3850   21.7887 C   0  0  0  0  0  0  0  0  0  0  0  0
  -29.6109  -19.5068   23.8347 C   0  0  0  0  0  0  0  0  0  0  0  0
  -27.1147  -35.7284   24.8968 C   0  0  0  0  0  0  0  0  0  0  0  0
  -24.8316  -31.3577   20.6418 C   0  0  0  0  0  0  0  0  0  0  0  0
  -24.6134  -28.6105   21.7141 C   0  0  0  0  0  0  0  0  0  0  0  0
  -27.4241  -21.6592   16.7049 C   0  0  0  0  0  0  0  0  0  0  0  0
  -29.4168  -22.4568   18.0455 C   0  0  0  0  0  0  0  0  0  0  0  0
  -26.0128  -34.7380   25.2645 C   0  0  0  0  0  0  0  0  0  0  0  0
  -31.3749  -16.5337   24.6869 C   0  0  0  0  0  0  0  0  0  0  0  0
  -26.5710  -33.3201   25.3342 C   0  0  0  0  0  0  0  0  0  0  0  0
  -30.8151  -15.4897   23.7180 C   0  0  0  0  0  0  0  0  0  0  0  0
  -26.5402  -22.6921   17.3938 C   0  0  0  0  0  0  0  0  0  0  0  0
  -30.2978  -17.5132   25.1496 C   0  0  0  0  0  0  0  0  0  0  0  0
  -28.9871  -17.1219   23.1007 C   0  0  0  0  0  0  0  0  0  0  0  0
  -27.1275  -32.8789   23.9751 C   0  0  1  0  0  0  0  0  0  0  0  0
  -24.3710  -31.0876   22.0708 C   0  0  1  0  0  0  0  0  0  0  0  0
  -30.0489  -16.1524   22.5564 C   0  0  2  0  0  0  0  0  0  0  0  0
  -28.5413  -23.4741   18.7878 C   0  0  1  0  0  0  0  0  0  0  0  0
  -19.2698  -25.6295   21.1079 C   0  0  0  0  0  0  0  0  0  0  0  0
  -22.5188  -28.5108   25.9223 C   0  0  0  0  0  0  0  0  0  0  0  0
  -21.2953  -26.5148   25.0349 C   0  0  0  0  0  0  0  0  0  0  0  0
  -20.3178  -28.7944   24.7693 C   0  0  0  0  0  0  0  0  0  0  0  0
  -22.4994  -25.5862   19.0969 C   0  0  0  0  0  0  0  0  0  0  0  0
  -28.6672  -24.8927   18.2407 C   0  0  0  0  0  0  0  0  0  0  0  0
  -27.7504  -25.8636   18.9691 C   0  0  0  0  0  0  0  0  0  1  0  0
  -22.3215  -28.1350   23.3756 C   0  0  1  0  0  0  0  0  0  0  0  0
  -20.6116  -26.1609   20.6281 C   0  0  2  0  0  0  0  0  0  0  0  0
  -21.6392  -27.9954   24.7657 C   0  0  0  0  0  0  0  0  0  0  0  0
  -28.1921  -14.7012   21.8303 N   0  0  0  0  0  0  0  0  0  0  0  0
  -29.4505  -15.1220   21.6173 N   0  0  0  0  0  0  0  0  0  0  0  0
  -27.1190  -23.0442   18.7119 N   0  0  0  0  0  0  0  0  0  0  0  0
  -23.8297  -29.7382   22.2448 N   0  0  0  0  0  0  0  0  0  0  0  0
  -29.6174  -18.1051   23.9956 N   0  0  0  0  0  0  0  0  0  0  0  0
  -31.3147  -14.8521   20.1811 N   0  0  0  0  0  0  0  0  0  0  0  0
  -28.2466  -12.0276   18.4477 N   0  0  0  0  0  0  0  0  0  0  0  0
  -28.9618  -19.9520   22.6836 N   0  0  0  0  0  0  0  0  0  0  0  0
  -26.0495  -32.5066   23.0843 N   0  0  0  0  0  0  0  0  0  0  0  0
  -21.5007  -27.6797   22.2587 N   0  0  0  0  0  0  0  0  0  0  0  0
  -25.0619  -23.2101   19.7597 N   0  3  0  0  0  0  0  0  0  0  0  0
  -21.1889  -25.1797   19.6663 N   0  3  0  0  0  0  0  0  0  0  0  0
  -30.3844  -12.8245   18.2164 O   0  0  0  0  0  0  0  0  0  0  0  0
  -25.7822  -30.3052   23.7946 O   0  0  0  0  0  0  0  0  0  0  0  0
  -22.0286  -30.4842   23.5237 O   0  0  0  0  0  0  0  0  0  0  0  0
  -22.2887  -25.4990   22.2363 O   0  0  0  0  0  0  0  0  0  0  0  0
  -30.1656  -20.2554   24.6433 O   0  0  0  0  0  0  0  0  0  0  0  0
  -23.0995  -11.1587   20.3920 O   0  0  0  0  0  0  0  0  0  0  0  0
  -27.9076  -27.1624   18.3992 O   0  0  0  0  0  0  0  0  0  1  0  0
  -22.0198   -8.5786   15.6400 F   0  0  0  0  0  0  0  0  0  0  0  0
  -27.4666  -24.1888   24.3818 F   0  0  0  0  0  0  0  0  0  0  0  0
  -20.9052  -11.8604   18.8638 F   0  0  0  0  0  0  0  0  0  0  0  0
  1  2  1  0  0  0  0
  1  5  2  0  0  0  0
  2  6  2  0  0  0  0
  3  8  2  0  0  0  0
  3 18  1  0  0  0  0
  4  9  1  0  0  0  0
  4 18  2  0  0  0  0
  5 21  1  0  0  0  0
  6 23  1  0  0  0  0
  7 10  2  0  0  0  0
  7 22  1  0  0  0  0
  8 26  1  0  0  0  0
  9 26  2  0  0  0  0
 10 27  1  0  0  0  0
 11 12  2  0  0  0  0
 11 28  1  0  0  0  0
 12 29  1  0  0  0  0
 13 19  2  0  0  0  0
 13 25  1  0  0  0  0
 14 19  1  0  0  0  0
 14 30  2  0  0  0  0
 15 24  1  0  0  0  0
 15 27  2  0  0  0  0
 16 25  2  0  0  0  0
 16 30  1  0  0  0  0
 17 29  2  0  0  0  0
 17 31  1  0  0  0  0
 18 32  1  0  0  0  0
 19 36  1  0  0  0  0
 20 32  1  0  0  0  0
 20 33  2  0  0  0  0
 20 37  1  0  0  0  0
 21 23  2  0  0  0  0
 21 42  1  0  0  0  0
 22 24  2  0  0  0  0
 22 43  1  0  0  0  0
 23 54  1  0  0  0  0
 24 44  1  0  0  0  0
 25 75  1  0  0  0  0
 26 85  1  0  0  0  0
 27 86  1  0  0  0  0
 28 31  2  0  0  0  0
 28 85  1  0  0  0  0
 29 87  1  0  0  0  0
 30 88  1  0  0  0  0
 31 89  1  0  0  0  0
 32 68  2  0  0  0  0
 33 69  1  0  0  0  0
 33 73  1  0  0  0  0
 34 35  2  0  0  0  0
 34 45  1  0  0  0  0
 34 46  1  0  0  0  0
 36 70  1  0  0  0  0
 36 78  2  0  0  0  0
 37 74  1  0  0  0  0
 37 80  2  0  0  0  0
 38 55  1  0  0  0  0
 38 76  1  0  0  0  0
 38 81  2  0  0  0  0
 39 65  1  0  0  0  0
 39 71  1  0  0  0  0
 39 82  2  0  0  0  0
 40 66  1  0  0  0  0
 40 77  1  0  0  0  0
 40 83  2  0  0  0  0
 41 72  1  0  0  0  0
 41 75  1  0  0  0  0
 41 84  2  0  0  0  0
 42 47  1  0  0  0  0
 43 55  1  0  0  0  0
 44 71  1  0  0  0  0
 45 51  1  0  0  0  0
 46 57  1  0  0  0  0
 47 49  1  0  0  0  0
 48 50  1  0  0  0  0
 48 52  1  0  0  0  0
 49 54  1  0  0  0  0
 50 56  1  0  0  0  0
 51 70  1  0  0  0  0
 52 72  1  0  0  0  0
 53 56  1  0  0  0  0
 53 72  1  0  0  0  0
 54 76  1  0  0  0  0
 55 71  1  0  0  0  0
 56 69  1  0  0  0  0
 57 63  1  0  0  0  0
 57 70  1  0  0  0  0
 58 66  1  0  0  0  0
 59 67  1  0  0  0  0
 60 67  1  0  0  0  0
 61 67  1  0  0  0  0
 62 79  1  0  0  0  0
 63 64  1  0  0  0  0
 64 86  1  0  0  0  0
 65 67  1  0  0  0  0
 65 77  1  0  0  0  0
 66 79  1  0  0  0  0
 68 69  1  0  0  0  0
M  CHG  2  78   1  79   1
M  ISO  4  41 100  64 101  75 100  86 101
M  END
> <Batch ID>
0139

> <Smiles>
C=C1CCN(C(=N)c2cc(F)cc([100NH:0][100C:0](=O)N3CCCC(n4nc(-c5ccc(Oc6ccc(F)cc6F)cc5)c(C(N)=O)c4N)C3)c2)C(C[101CH2:1][101O:1]c2ccc3c(c2)CN(C(=O)C(NC(=O)C(C)NC)C(C)(C)C)C(C(=O)NC2CCCc4ccccc42)C3)C1

> <Shape>
0.254

> <Color>
0.056

> <Negative vol penalty>
0.000

$$$$

  -OEChem-04052302483D

 89 97  0     1  0  0  0  0  0999 V2000
  -18.0814  -25.5289   20.3126 C   0  0  0  0  0  0  0  0  0  0  0  0
  -19.2689  -25.9477   19.7209 C   0  0  0  0  0  0  0  0  0  0  0  0
  -27.2815  -15.2168   21.9464 C   0  0  0  0  0  0  0  0  0  0  0  0
  -26.9218  -15.1018   19.5601 C   0  0  0  0  0  0  0  0  0  0  0  0
  -17.7315  -25.9975   21.5783 C   0  0  0  0  0  0  0  0  0  0  0  0
  -20.1065  -26.8362   20.3942 C   0  0  0  0  0  0  0  0  0  0  0  0
  -24.9780  -25.4737   20.1548 C   0  0  0  0  0  0  0  0  0  0  0  0
  -26.1529  -14.4241   22.1547 C   0  0  0  0  0  0  0  0  0  0  0  0
  -25.7932  -14.3090   19.7684 C   0  0  0  0  0  0  0  0  0  0  0  0
  -25.6572  -25.7442   18.9677 C   0  0  0  0  0  0  0  0  0  0  0  0
  -25.1199  -11.0741   20.4770 C   0  0  0  0  0  0  0  0  0  0  0  0
  -24.9639   -9.9466   19.6707 C   0  0  0  0  0  0  0  0  0  0  0  0
  -26.6374  -27.7013   19.9815 C   0  0  0  0  0  0  0  0  0  0  0  0
  -27.4186  -23.2796   13.4511 C   0  0  0  0  0  0  0  0  0  0  0  0
  -28.2012  -23.6624   15.7045 C   0  0  0  0  0  0  0  0  0  0  0  0
  -28.3955  -21.4670   14.7148 C   0  0  0  0  0  0  0  0  0  0  0  0
  -22.8698  -10.8257   18.8466 C   0  0  0  0  0  0  0  0  0  0  0  0
  -27.6659  -15.5557   20.6490 C   0  0  0  0  0  0  0  0  0  0  0  0
  -30.1572  -15.9370   20.2542 C   0  0  0  0  0  0  0  0  0  0  0  0
  -18.5700  -26.8846   22.2715 C   0  0  0  0  0  0  0  0  0  0  0  0
  -25.1151  -26.3224   21.2626 C   0  0  0  0  0  0  0  0  0  0  0  0
  -19.7668  -27.3181   21.6698 C   0  0  0  0  0  0  0  0  0  0  0  0
  -25.9609  -27.4380   21.1824 C   0  0  0  0  0  0  0  0  0  0  0  0
  -27.6147  -24.1390   14.5321 C   0  0  0  0  0  0  0  0  0  0  0  0
  -27.8090  -21.9436   13.5425 C   0  0  0  0  0  0  0  0  0  0  0  0
  -28.5917  -22.3264   15.7959 C   0  0  0  0  0  0  0  0  0  0  0  0
  -25.4088  -13.9702   21.0658 C   0  0  0  0  0  0  0  0  0  0  0  0
  -26.4848  -26.8598   18.8800 C   0  0  0  0  0  0  0  0  0  0  0  0
  -24.1508  -12.0773   20.4682 C   0  0  0  0  0  0  0  0  0  0  0  0
  -23.8389   -9.8225   18.8555 C   0  0  0  0  0  0  0  0  0  0  0  0
  -23.0258  -11.9532   19.6530 C   0  0  0  0  0  0  0  0  0  0  0  0
  -28.8314  -16.3751   20.4332 C   0  0  0  0  0  0  0  0  0  0  0  0
  -30.8811  -17.0924   20.0885 C   0  0  0  0  0  0  0  0  0  0  0  0
  -30.6870  -14.6048   20.2390 C   0  0  0  0  0  0  0  0  0  0  0  0
  -23.1324  -28.1450   22.9511 C   0  0  0  0  0  0  0  0  0  0  0  0
  -27.6029  -28.5253   15.2008 C   0  0  0  0  0  0  0  0  0  0  0  0
  -25.7426  -28.5664   24.8303 C   0  0  0  0  0  0  0  0  0  0  0  0
  -29.1436  -28.5421   25.1130 C   0  0  0  0  0  0  0  0  0  0  0  0
  -29.4537  -22.5618   18.1513 C   0  0  0  0  0  0  0  0  0  0  0  0
  -18.1265  -27.4006   23.6175 C   0  0  0  0  0  0  0  0  0  0  0  0
  -24.3966  -26.0019   22.5445 C   0  0  0  0  0  0  0  0  0  0  0  0
  -26.1581  -28.3692   22.3496 C   0  0  0  0  0  0  0  0  0  0  0  0
  -19.2507  -28.0479   24.4222 C   0  0  0  0  0  0  0  0  0  0  0  0
  -30.8732  -21.7237   21.3071 C   0  0  0  0  0  0  0  0  0  0  0  0
  -20.0520  -29.0051   23.5456 C   0  0  0  0  0  0  0  0  0  0  0  0
  -30.6368  -20.2161   21.4222 C   0  0  0  0  0  0  0  0  0  0  0  0
  -29.7060  -22.4301   20.6199 C   0  0  0  0  0  0  0  0  0  0  0  0
  -29.0848  -20.3625   19.4330 C   0  0  0  0  0  0  0  0  0  0  0  0
  -20.7138  -28.2617   22.3789 C   0  0  1  0  0  0  0  0  0  0  0  0
  -24.2083  -27.2193   23.4444 C   0  0  1  0  0  0  0  0  0  0  0  0
  -30.2624  -19.5989   20.0604 C   0  0  2  0  0  0  0  0  0  0  0  0
  -28.3884  -21.4608   11.1373 C   0  0  0  0  0  0  0  0  0  0  0  0
  -26.1101  -20.8559   12.0309 C   0  0  0  0  0  0  0  0  0  0  0  0
  -30.9862  -28.9657   26.7630 C   0  0  0  0  0  0  0  0  0  0  0  0
  -29.2377  -28.7319   13.2957 C   0  0  0  0  0  0  0  0  0  0  0  0
  -26.8532  -28.2276   12.8107 C   0  0  0  0  0  0  0  0  0  0  0  0
  -25.3255  -31.5730   24.5205 C   0  0  0  0  0  0  0  0  0  0  0  0
  -27.6619  -31.9126   25.3534 C   0  0  0  0  0  0  0  0  0  0  0  0
  -25.9583  -30.8397   26.8262 C   0  0  0  0  0  0  0  0  0  0  0  0
  -30.1251  -25.7575   24.9077 C   0  0  0  0  0  0  0  0  0  0  0  0
  -27.1921  -25.5843   14.4332 C   0  0  0  0  0  0  0  0  0  0  0  0
  -28.6265  -28.4255   16.3309 C   0  0  0  0  0  0  0  0  0  0  0  0
  -28.3273  -26.4634   13.8896 C   0  0  0  0  0  0  0  0  0  0  0  0
  -27.9796  -28.2863   17.7024 C   0  0  0  0  0  0  0  0  0  1  0  0
  -27.5994  -21.0249   12.3864 C   0  0  0  0  0  0  0  0  0  0  0  0
  -26.8895  -29.5475   24.8628 C   0  0  1  0  0  0  0  0  0  0  0  0
  -30.0638  -27.9236   26.1499 C   0  0  2  0  0  0  0  0  0  0  0  0
  -27.9995  -27.9754   13.8099 C   0  0  0  0  0  0  0  0  0  0  0  0
  -26.4538  -30.9519   25.3679 C   0  0  0  0  0  0  0  0  0  0  0  0
  -28.7169  -17.7050   20.3858 N   0  0  0  0  0  0  0  0  0  0  0  0
  -29.9801  -18.1125   20.1753 N   0  0  0  0  0  0  0  0  0  0  0  0
  -25.4290  -28.0168   23.5792 N   0  0  0  0  0  0  0  0  0  0  0  0
  -29.4110  -21.7939   19.3341 N   0  0  0  0  0  0  0  0  0  0  0  0
  -32.1942  -17.3251   19.8787 N   0  0  0  0  0  0  0  0  0  0  0  0
  -29.8039  -13.5324   20.4246 N   0  0  0  0  0  0  0  0  0  0  0  0
  -29.1876  -21.8422   16.9868 N   0  0  0  0  0  0  0  0  0  0  0  0
  -21.8899  -27.5518   22.8341 N   0  0  0  0  0  0  0  0  0  0  0  0
  -27.9380  -28.9236   25.6627 N   0  0  0  0  0  0  0  0  0  0  0  0
  -30.9031  -26.8601   25.5291 N   0  3  0  0  0  0  0  0  0  0  0  0
  -31.9098  -14.3731   20.0823 O   0  0  0  0  0  0  0  0  0  0  0  0
  -23.4089  -29.3115   22.6968 O   0  0  0  0  0  0  0  0  0  0  0  0
  -26.4935  -29.0286   15.3941 O   0  0  0  0  0  0  0  0  0  0  0  0
  -25.1516  -28.2921   25.8778 O   0  0  0  0  0  0  0  0  0  0  0  0
  -29.4638  -28.6768   23.9340 O   0  0  0  0  0  0  0  0  0  0  0  0
  -29.7343  -23.7630   18.1672 O   0  0  0  0  0  0  0  0  0  0  0  0
  -24.3075  -13.1964   21.2687 O   0  0  0  0  0  0  0  0  0  0  0  0
  -27.1484  -27.1265   17.7222 O   0  0  0  0  0  0  0  0  0  1  0  0
  -23.6900   -8.7404   18.0801 F   0  0  0  0  0  0  0  0  0  0  0  0
  -22.0921  -12.9143   19.6394 F   0  0  0  0  0  0  0  0  0  0  0  0
  1  2  1  0  0  0  0
  1  5  2  0  0  0  0
  2  6  2  0  0  0  0
  3  8  2  0  0  0  0
  3 18  1  0  0  0  0
  4  9  1  0  0  0  0
  4 18  2  0  0  0  0
  5 20  1  0  0  0  0
  6 22  1  0  0  0  0
  7 10  2  0  0  0  0
  7 21  1  0  0  0  0
  8 27  1  0  0  0  0
  9 27  2  0  0  0  0
 10 28  1  0  0  0  0
 11 12  2  0  0  0  0
 11 29  1  0  0  0  0
 12 30  1  0  0  0  0
 13 23  1  0  0  0  0
 13 28  2  0  0  0  0
 14 24  2  0  0  0  0
 14 25  1  0  0  0  0
 15 24  1  0  0  0  0
 15 26  2  0  0  0  0
 16 25  2  0  0  0  0
 16 26  1  0  0  0  0
 17 30  2  0  0  0  0
 17 31  1  0  0  0  0
 18 32  1  0  0  0  0
 19 32  1  0  0  0  0
 19 33  2  0  0  0  0
 19 34  1  0  0  0  0
 20 22  2  0  0  0  0
 20 40  1  0  0  0  0
 21 23  2  0  0  0  0
 21 41  1  0  0  0  0
 22 49  1  0  0  0  0
 23 42  1  0  0  0  0
 24 61  1  0  0  0  0
 25 65  1  0  0  0  0
 26 76  1  0  0  0  0
 27 86  1  0  0  0  0
 28 87  1  0  0  0  0
 29 31  2  0  0  0  0
 29 86  1  0  0  0  0
 30 88  1  0  0  0  0
 31 89  1  0  0  0  0
 32 70  2  0  0  0  0
 33 71  1  0  0  0  0
 33 74  1  0  0  0  0
 34 75  1  0  0  0  0
 34 80  2  0  0  0  0
 35 50  1  0  0  0  0
 35 77  1  0  0  0  0
 35 81  2  0  0  0  0
 36 62  1  0  0  0  0
 36 68  1  0  0  0  0
 36 82  2  0  0  0  0
 37 66  1  0  0  0  0
 37 72  1  0  0  0  0
 37 83  2  0  0  0  0
 38 67  1  0  0  0  0
 38 78  1  0  0  0  0
 38 84  2  0  0  0  0
 39 73  1  0  0  0  0
 39 76  1  0  0  0  0
 39 85  2  0  0  0  0
 40 43  1  0  0  0  0
 41 50  1  0  0  0  0
 42 72  1  0  0  0  0
 43 45  1  0  0  0  0
 44 46  1  0  0  0  0
 44 47  1  0  0  0  0
 45 49  1  0  0  0  0
 46 51  1  0  0  0  0
 47 73  1  0  0  0  0
 48 51  1  0  0  0  0
 48 73  1  0  0  0  0
 49 77  1  0  0  0  0
 50 72  1  0  0  0  0
 51 71  1  0  0  0  0
 52 65  1  0  0  0  0
 53 65  1  0  0  0  0
 54 67  1  0  0  0  0
 55 68  1  0  0  0  0
 56 68  1  0  0  0  0
 57 69  1  0  0  0  0
 58 69  1  0  0  0  0
 59 69  1  0  0  0  0
 60 79  1  0  0  0  0
 61 63  1  0  0  0  0
 62 64  1  0  0  0  0
 63 68  1  0  0  0  0
 64 87  1  0  0  0  0
 66 69  1  0  0  0  0
 66 78  1  0  0  0  0
 67 79  1  0  0  0  0
 70 71  1  0  0  0  0
M  CHG  1  79   1
M  ISO  4  39 100  64 101  76 100  87 101
M  END
> <Batch ID>
0139

> <Smiles>
CNC(C)C(=O)NC(C(=O)N1Cc2cc([101O:1][101CH2:1]CC(=O)C(C)(C)CCc3cc([100NH:0][100C:0](=O)N4CCCC(n5nc(-c6ccc(Oc7ccc(F)cc7F)cc6)c(C(N)=O)c5N)C4)cc(C(C)C)c3)ccc2CC1C(=O)NC1CCCc2ccccc21)C(C)(C)C

> <Shape>
0.243

> <Color>
0.067

> <Negative vol penalty>
0.000

$$$$

  -OEChem-04052302483D

 83 92  0     1  0  0  0  0  0999 V2000
  -25.1841  -32.4172   26.6171 C   0  0  0  0  0  0  0  0  0  0  0  0
  -25.7714  -31.1566   26.6568 C   0  0  0  0  0  0  0  0  0  0  0  0
  -22.9713   -9.8849   19.9821 C   0  0  0  0  0  0  0  0  0  0  0  0
  -23.6994   -9.9136   22.2856 C   0  0  0  0  0  0  0  0  0  0  0  0
  -24.3028  -32.7423   25.5868 C   0  0  0  0  0  0  0  0  0  0  0  0
  -25.4768  -30.2200   25.6666 C   0  0  0  0  0  0  0  0  0  0  0  0
  -29.6057  -27.8411   23.9526 C   0  0  0  0  0  0  0  0  0  0  0  0
  -22.1950   -8.7555   20.2415 C   0  0  0  0  0  0  0  0  0  0  0  0
  -22.9230   -8.7842   22.5451 C   0  0  0  0  0  0  0  0  0  0  0  0
  -30.1309  -26.8239   24.7484 C   0  0  0  0  0  0  0  0  0  0  0  0
  -23.1370   -5.4465   22.0501 C   0  0  0  0  0  0  0  0  0  0  0  0
  -23.7163   -4.4190   22.7945 C   0  0  0  0  0  0  0  0  0  0  0  0
  -31.9708  -18.6460   22.3787 C   0  0  0  0  0  0  0  0  0  0  0  0
  -31.8597  -17.3779   21.7385 C   0  0  0  0  0  0  0  0  0  0  0  0
  -29.0547  -25.1808   23.3479 C   0  0  0  0  0  0  0  0  0  0  0  0
  -21.9964   -4.6658   24.4733 C   0  0  0  0  0  0  0  0  0  0  0  0
  -23.7236  -10.4639   21.0041 C   0  0  0  0  0  0  0  0  0  0  0  0
  -24.1311  -12.9771   20.8449 C   0  0  0  0  0  0  0  0  0  0  0  0
  -24.0047  -31.8125   24.5782 C   0  0  0  0  0  0  0  0  0  0  0  0
  -28.7907  -27.5357   22.8530 C   0  0  0  0  0  0  0  0  0  0  0  0
  -24.5896  -30.5325   24.6226 C   0  0  0  0  0  0  0  0  0  0  0  0
  -28.5225  -26.1959   22.5382 C   0  0  0  0  0  0  0  0  0  0  0  0
  -22.1708   -8.2051   21.5230 C   0  0  0  0  0  0  0  0  0  0  0  0
  -29.8531  -25.4936   24.4478 C   0  0  0  0  0  0  0  0  0  0  0  0
  -21.9875   -6.0838   22.5173 C   0  0  0  0  0  0  0  0  0  0  0  0
  -23.1460   -4.0286   24.0062 C   0  0  0  0  0  0  0  0  0  0  0  0
  -21.4172   -5.6934   23.7289 C   0  0  0  0  0  0  0  0  0  0  0  0
  -24.5262  -11.6303   20.7366 C   0  0  0  0  0  0  0  0  0  0  0  0
  -25.2469  -13.6923   20.4842 C   0  0  0  0  0  0  0  0  0  0  0  0
  -30.8219  -18.9847   23.0590 C   0  0  0  0  0  0  0  0  0  0  0  0
  -30.6299  -16.7956   21.9540 C   0  0  0  0  0  0  0  0  0  0  0  0
  -30.8520  -22.2827   24.6380 C   0  0  0  0  0  0  0  0  0  0  0  0
  -22.8685  -13.5322   21.2366 C   0  0  0  0  0  0  0  0  0  0  0  0
  -31.1829  -23.5784   24.6320 C   0  0  0  0  0  0  0  0  0  1  0  0
  -25.7798  -28.1624   22.0499 C   0  0  0  0  0  0  0  0  0  0  0  0
  -26.6433  -26.7601   19.2552 C   0  0  0  0  0  0  0  0  0  0  0  0
  -28.7314  -24.6184   17.6122 C   0  0  0  0  0  0  0  0  0  0  0  0
  -30.7350  -14.6027   20.7185 C   0  0  0  0  0  0  0  0  0  0  0  0
  -23.0095  -32.1934   23.5109 C   0  0  0  0  0  0  0  0  0  0  0  0
  -28.2538  -28.6434   21.9888 C   0  0  0  0  0  0  0  0  0  0  0  0
  -27.6698  -25.8142   21.3568 C   0  0  0  0  0  0  0  0  0  0  0  0
  -29.6152  -21.7135   25.2578 C   0  0  0  0  0  0  0  0  0  0  0  0
  -31.6034  -21.2000   23.9234 C   0  0  0  0  0  0  0  0  0  0  0  0
  -23.0399  -31.2730   22.2934 C   0  0  0  0  0  0  0  0  0  0  0  0
  -29.5923  -12.1760   18.3770 C   0  0  0  0  0  0  0  0  0  0  0  0
  -23.0593  -29.8114   22.7295 C   0  0  0  0  0  0  0  0  0  0  0  0
  -28.1399  -11.9285   18.7911 C   0  0  0  0  0  0  0  0  0  0  0  0
  -29.3222  -20.5008   24.3789 C   0  0  0  0  0  0  0  0  0  0  0  0
  -30.4963  -12.4030   19.5874 C   0  0  0  0  0  0  0  0  0  0  0  0
  -28.5895  -13.1997   20.9286 C   0  0  0  0  0  0  0  0  0  0  0  0
  -24.3143  -29.4979   23.5530 C   0  0  1  0  0  0  0  0  0  0  0  0
  -27.0147  -28.2366   21.1972 C   0  0  1  0  0  0  0  0  0  0  0  0
  -27.6290  -13.0302   19.7402 C   0  0  2  0  0  0  0  0  0  0  0  0
  -32.4292  -24.1115   24.0018 C   0  0  0  0  0  0  0  0  0  0  0  0
  -29.1673  -23.6480   15.3394 C   0  0  0  0  0  0  0  0  0  0  0  0
  -24.2461  -24.9026   19.5912 C   0  0  0  0  0  0  0  0  0  0  0  0
  -25.2589  -23.3974   17.8659 C   0  0  0  0  0  0  0  0  0  0  0  0
  -24.6077  -25.7274   17.2581 C   0  0  0  0  0  0  0  0  0  0  0  0
  -31.4492  -25.7854   17.5075 C   0  0  0  0  0  0  0  0  0  0  0  0
  -26.6353  -25.3485   18.7201 C   0  0  1  0  0  0  0  0  0  0  0  0
  -29.5065  -24.7641   16.3151 C   0  0  2  0  0  0  0  0  0  0  0  0
  -25.2015  -24.8509   18.3823 C   0  0  0  0  0  0  0  0  0  0  0  0
  -25.7938  -11.4952   20.3381 N   0  0  0  0  0  0  0  0  0  0  0  0
  -26.2050  -12.7664   20.1928 N   0  0  0  0  0  0  0  0  0  0  0  0
  -30.6059  -20.1423   23.7805 N   0  0  3  0  0  0  0  0  0  0  0  0
  -27.1628  -26.9335   20.5458 N   0  0  0  0  0  0  0  0  0  0  0  0
  -29.9517  -13.4630   20.4387 N   0  0  0  0  0  0  0  0  0  0  0  0
  -25.4921  -15.0165   20.3909 N   0  0  0  0  0  0  0  0  0  0  0  0
  -21.8292  -12.6549   21.5752 N   0  0  0  0  0  0  0  0  0  0  0  0
  -30.1002  -15.5582   21.5114 N   0  0  0  0  0  0  0  0  0  0  0  0
  -25.4632  -29.3475   22.6860 N   0  0  0  0  0  0  0  0  0  0  0  0
  -27.5544  -25.3362   17.5872 N   0  0  0  0  0  0  0  0  0  0  0  0
  -30.9725  -24.7267   16.5807 N   0  3  0  0  0  0  0  0  0  0  0  0
  -22.6629  -14.7692   21.2690 O   0  0  0  0  0  0  0  0  0  0  0  0
  -25.1591  -27.1083   22.1239 O   0  0  0  0  0  0  0  0  0  0  0  0
  -26.2112  -27.6762   18.5510 O   0  0  0  0  0  0  0  0  0  0  0  0
  -29.1285  -23.9331   18.5520 O   0  0  0  0  0  0  0  0  0  0  0  0
  -31.8744  -14.7346   20.2642 O   0  0  0  0  0  0  0  0  0  0  0  0
  -21.4132   -7.1032   21.7766 O   0  0  0  0  0  0  0  0  0  0  0  0
  -30.3639  -24.4989   25.2233 O   0  0  0  0  0  0  0  0  0  1  0  0
  -23.7015   -3.0408   24.7202 F   0  0  0  0  0  0  0  0  0  0  0  0
  -20.3122   -6.3010   24.1823 F   0  0  0  0  0  0  0  0  0  0  0  0
  -29.6158  -17.7765   22.9245 S   0  0  0  0  0  0  0  0  0  0  0  0
  1  2  1  0  0  0  0
  1  5  2  0  0  0  0
  2  6  2  0  0  0  0
  3  8  2  0  0  0  0
  3 17  1  0  0  0  0
  4  9  1  0  0  0  0
  4 17  2  0  0  0  0
  5 19  1  0  0  0  0
  6 21  1  0  0  0  0
  7 10  2  0  0  0  0
  7 20  1  0  0  0  0
  8 23  1  0  0  0  0
  9 23  2  0  0  0  0
 10 24  1  0  0  0  0
 11 12  2  0  0  0  0
 11 25  1  0  0  0  0
 12 26  1  0  0  0  0
 13 14  1  0  0  0  0
 13 30  2  0  0  0  0
 14 31  2  0  0  0  0
 15 22  1  0  0  0  0
 15 24  2  0  0  0  0
 16 26  2  0  0  0  0
 16 27  1  0  0  0  0
 17 28  1  0  0  0  0
 18 28  1  0  0  0  0
 18 29  2  0  0  0  0
 18 33  1  0  0  0  0
 19 21  2  0  0  0  0
 19 39  1  0  0  0  0
 20 22  2  0  0  0  0
 20 40  1  0  0  0  0
 21 51  1  0  0  0  0
 22 41  1  0  0  0  0
 23 79  1  0  0  0  0
 24 80  1  0  0  0  0
 25 27  2  0  0  0  0
 25 79  1  0  0  0  0
 26 81  1  0  0  0  0
 27 82  1  0  0  0  0
 28 63  2  0  0  0  0
 29 64  1  0  0  0  0
 29 68  1  0  0  0  0
 30 65  1  0  0  0  0
 30 83  1  0  0  0  0
 31 70  1  0  0  0  0
 31 83  1  0  0  0  0
 32 34  2  0  0  0  0
 32 42  1  0  0  0  0
 32 43  1  0  0  0  0
 33 69  1  0  0  0  0
 33 74  2  0  0  0  0
 34 54  1  0  0  0  0
 34 80  1  0  0  0  0
 35 52  1  0  0  0  0
 35 71  1  0  0  0  0
 35 75  2  0  0  0  0
 36 60  1  0  0  0  0
 36 66  1  0  0  0  0
 36 76  2  0  0  0  0
 37 61  1  0  0  0  0
 37 72  1  0  0  0  0
 37 77  2  0  0  0  0
 38 67  1  0  0  0  0
 38 70  1  0  0  0  0
 38 78  2  0  0  0  0
 39 44  1  0  0  0  0
 40 52  1  0  0  0  0
 41 66  1  0  0  0  0
 42 48  1  0  0  0  0
 43 65  1  0  0  0  0
 44 46  1  0  0  0  0
 45 47  1  0  0  0  0
 45 49  1  0  0  0  0
 46 51  1  0  0  0  0
 47 53  1  0  0  0  0
 48 65  1  0  0  0  0
 49 67  1  0  0  0  0
 50 53  1  0  0  0  0
 50 67  1  0  0  0  0
 51 71  1  0  0  0  0
 52 66  1  0  0  0  0
 53 64  1  0  0  0  0
 55 61  1  0  0  0  0
 56 62  1  0  0  0  0
 57 62  1  0  0  0  0
 58 62  1  0  0  0  0
 59 73  1  0  0  0  0
 60 62  1  0  0  0  0
 60 72  1  0  0  0  0
 61 73  1  0  0  0  0
 63 64  1  0  0  0  0
M  CHG  1  73   1
M  ISO  4  34 101  38 100  70 100  80 101
M  END
> <Batch ID>
0139

> <Smiles>
CNC(C)C(=O)NC(C(=O)N1Cc2cc([101O:1][101C:1](C)=C3CCN(c4ccc([100NH:0][100C:0](=O)N5CCCC(n6nc(-c7ccc(Oc8ccc(F)cc8F)cc7)c(C(N)=O)c6N)C5)s4)C3)ccc2CC1C(=O)NC1CCCc2ccccc21)C(C)(C)C

> <Shape>
0.298

> <Color>
0.211

> <Negative vol penalty>
0.000

$$$$

  -OEChem-04052302483D

 85 93  0     1  0  0  0  0  0999 V2000
  -26.6144  -38.4953   24.7521 C   0  0  0  0  0  0  0  0  0  0  0  0
  -27.3381  -37.7427   23.8328 C   0  0  0  0  0  0  0  0  0  0  0  0
  -33.9482  -20.0251   21.0199 C   0  0  0  0  0  0  0  0  0  0  0  0
  -24.5755   -8.8378   22.0069 C   0  0  0  0  0  0  0  0  0  0  0  0
  -23.5758   -9.1511   19.8298 C   0  0  0  0  0  0  0  0  0  0  0  0
  -33.4698  -18.7149   21.0274 C   0  0  0  0  0  0  0  0  0  0  0  0
  -25.8427  -37.8558   25.7213 C   0  0  0  0  0  0  0  0  0  0  0  0
  -27.2914  -36.3500   23.8828 C   0  0  0  0  0  0  0  0  0  0  0  0
  -27.5221  -30.5994   19.6174 C   0  0  0  0  0  0  0  0  0  0  0  0
  -33.0535  -21.0946   21.0567 C   0  0  0  0  0  0  0  0  0  0  0  0
  -23.4531   -8.1194   22.4189 C   0  0  0  0  0  0  0  0  0  0  0  0
  -22.4535   -8.4326   20.2418 C   0  0  0  0  0  0  0  0  0  0  0  0
  -28.2026  -29.3909   19.4745 C   0  0  0  0  0  0  0  0  0  0  0  0
  -22.2182   -4.9947   22.0391 C   0  0  0  0  0  0  0  0  0  0  0  0
  -22.4298   -3.8065   22.7384 C   0  0  0  0  0  0  0  0  0  0  0  0
  -31.2018  -19.5436   21.1081 C   0  0  0  0  0  0  0  0  0  0  0  0
  -26.7727  -28.3954   21.1429 C   0  0  0  0  0  0  0  0  0  0  0  0
  -21.2187   -4.7025   24.6272 C   0  0  0  0  0  0  0  0  0  0  0  0
  -24.6368   -9.3538   20.7124 C   0  0  0  0  0  0  0  0  0  0  0  0
  -32.0966  -18.4741   21.0715 C   0  0  0  0  0  0  0  0  0  0  0  0
  -26.9577   -9.5842   19.6789 C   0  0  0  0  0  0  0  0  0  0  0  0
  -25.7789  -36.4546   25.7773 C   0  0  0  0  0  0  0  0  0  0  0  0
  -26.4671  -30.7181   20.5335 C   0  0  0  0  0  0  0  0  0  0  0  0
  -26.5192  -35.6911   24.8546 C   0  0  0  0  0  0  0  0  0  0  0  0
  -26.0788  -29.6057   21.2937 C   0  0  0  0  0  0  0  0  0  0  0  0
  -31.6802  -20.8538   21.1007 C   0  0  0  0  0  0  0  0  0  0  0  0
  -22.3921   -7.9167   21.5364 C   0  0  0  0  0  0  0  0  0  0  0  0
  -27.8299  -28.2895   20.2394 C   0  0  0  0  0  0  0  0  0  0  0  0
  -21.5069   -6.0368   22.6338 C   0  0  0  0  0  0  0  0  0  0  0  0
  -21.9301   -3.6604   24.0324 C   0  0  0  0  0  0  0  0  0  0  0  0
  -21.0071   -5.8907   23.9279 C   0  0  0  0  0  0  0  0  0  0  0  0
  -25.7957  -10.0965   20.2864 C   0  0  0  0  0  0  0  0  0  0  0  0
  -27.7513  -10.6859   19.4721 C   0  0  0  0  0  0  0  0  0  0  0  0
  -31.5990  -17.1074   21.0796 C   0  0  0  0  0  0  0  0  0  0  0  0
  -30.3732  -16.7226   21.4943 C   0  0  0  0  0  0  0  0  0  0  0  0
  -29.8321  -24.1242   21.1865 C   0  0  0  0  0  0  0  0  0  0  0  0
  -27.2899   -8.2331   19.3324 C   0  0  0  0  0  0  0  0  0  0  0  0
  -29.8340  -25.4671   21.1963 C   0  0  0  0  0  0  0  0  0  0  0  0
  -30.0114  -15.2923   21.4314 C   0  0  0  0  0  0  0  0  0  0  0  0
  -31.0783  -23.2960   21.1388 C   0  0  0  0  0  0  0  0  0  0  0  0
  -25.9357  -32.4773   23.1271 C   0  0  0  0  0  0  0  0  0  0  0  0
  -22.9923  -31.1235   22.9665 C   0  0  0  0  0  0  0  0  0  0  0  0
  -21.0514  -28.5286   21.8959 C   0  0  0  0  0  0  0  0  0  0  0  0
  -24.9684  -35.8079   26.8726 C   0  0  0  0  0  0  0  0  0  0  0  0
  -25.7257  -32.0210   20.6565 C   0  0  0  0  0  0  0  0  0  0  0  0
  -24.9397  -29.6753   22.2766 C   0  0  0  0  0  0  0  0  0  0  0  0
  -24.6759  -34.3307   26.6227 C   0  0  0  0  0  0  0  0  0  0  0  0
  -26.7291  -15.6109   19.8325 C   0  0  0  0  0  0  0  0  0  0  0  0
  -25.9412  -33.6035   26.1789 C   0  0  0  0  0  0  0  0  0  0  0  0
  -26.2731  -14.1545   19.8052 C   0  0  0  0  0  0  0  0  0  0  0  0
  -27.5647  -15.9253   21.0725 C   0  0  0  0  0  0  0  0  0  0  0  0
  -28.2748  -13.5561   21.2249 C   0  0  0  0  0  0  0  0  0  0  0  0
  -26.4744  -34.1784   24.8611 C   0  0  1  0  0  0  0  0  0  0  0  0
  -25.0013  -32.1727   21.9905 C   0  0  1  0  0  0  0  0  0  0  0  0
  -27.4720  -13.2058   19.9623 C   0  0  1  0  0  0  0  0  0  0  0  0
  -18.6894  -27.6826   21.9491 C   0  0  0  0  0  0  0  0  0  0  0  0
  -23.3724  -30.2517   25.8657 C   0  0  0  0  0  0  0  0  0  0  0  0
  -21.4744  -28.6480   25.5593 C   0  0  0  0  0  0  0  0  0  0  0  0
  -21.0833  -31.1004   25.3231 C   0  0  0  0  0  0  0  0  0  0  0  0
  -20.8286  -28.6220   18.9462 C   0  0  0  0  0  0  0  0  0  0  0  0
  -28.5671  -26.2684   21.2531 C   0  0  0  0  0  0  0  0  0  1  0  0
  -22.3605  -29.8697   23.5213 C   0  0  1  0  0  0  0  0  0  0  0  0
  -19.7140  -28.5002   21.1782 C   0  0  2  0  0  0  0  0  0  0  0  0
  -22.0954  -29.9663   25.0503 C   0  0  0  0  0  0  0  0  0  0  0  0
  -25.8429  -11.4207   20.4548 N   0  0  0  0  0  0  0  0  0  0  0  0
  -27.0441  -11.7497   19.9500 N   0  0  0  0  0  0  0  0  0  0  0  0
  -28.6703  -14.9690   21.2331 N   0  0  0  0  0  0  0  0  0  0  0  0
  -24.2500  -30.9730   22.3653 N   0  0  0  0  0  0  0  0  0  0  0  0
  -28.9782  -10.8388   18.9300 N   0  0  0  0  0  0  0  0  0  0  0  0
  -26.3603   -7.2230   19.6147 N   0  0  0  0  0  0  0  0  0  0  0  0
  -30.7720  -21.9404   21.1391 N   0  0  0  0  0  0  0  0  0  0  0  0
  -25.6944  -33.6899   23.7442 N   0  0  0  0  0  0  0  0  0  0  0  0
  -21.1646  -29.6269   22.7217 N   0  0  0  0  0  0  0  0  0  0  0  0
  -19.8669  -27.9033   19.8212 N   0  3  0  0  0  0  0  0  0  0  0  0
  -28.3858   -7.9285   18.8035 O   0  0  0  0  0  0  0  0  0  0  0  0
  -30.9196  -14.4697   21.5633 O   0  0  0  0  0  0  0  0  0  0  0  0
  -32.1902  -23.8085   21.1052 O   0  0  0  0  0  0  0  0  0  0  0  0
  -26.8099  -31.6712   23.4232 O   0  0  0  0  0  0  0  0  0  0  0  0
  -22.3889  -32.1956   23.0566 O   0  0  0  0  0  0  0  0  0  0  0  0
  -21.9082  -27.6610   21.7424 O   0  0  0  0  0  0  0  0  0  0  0  0
  -31.0019  -26.2035   21.1743 O   0  0  0  0  0  0  0  0  0  0  0  0
  -21.2969   -7.2155   21.9380 O   0  0  0  0  0  0  0  0  0  0  0  0
  -28.4929  -27.1090   20.1024 O   0  0  0  0  0  0  0  0  0  1  0  0
  -22.1321   -2.5188   24.7033 F   0  0  0  0  0  0  0  0  0  0  0  0
  -20.3219   -6.8879   24.5040 F   0  0  0  0  0  0  0  0  0  0  0  0
  1  2  1  0  0  0  0
  1  7  2  0  0  0  0
  2  8  2  0  0  0  0
  3  6  1  0  0  0  0
  3 10  2  0  0  0  0
  4 11  2  0  0  0  0
  4 19  1  0  0  0  0
  5 12  1  0  0  0  0
  5 19  2  0  0  0  0
  6 20  2  0  0  0  0
  7 22  1  0  0  0  0
  8 24  1  0  0  0  0
  9 13  2  0  0  0  0
  9 23  1  0  0  0  0
 10 26  1  0  0  0  0
 11 27  1  0  0  0  0
 12 27  2  0  0  0  0
 13 28  1  0  0  0  0
 14 15  2  0  0  0  0
 14 29  1  0  0  0  0
 15 30  1  0  0  0  0
 16 20  1  0  0  0  0
 16 26  2  0  0  0  0
 17 25  1  0  0  0  0
 17 28  2  0  0  0  0
 18 30  2  0  0  0  0
 18 31  1  0  0  0  0
 19 32  1  0  0  0  0
 20 34  1  0  0  0  0
 21 32  1  0  0  0  0
 21 33  2  0  0  0  0
 21 37  1  0  0  0  0
 22 24  2  0  0  0  0
 22 44  1  0  0  0  0
 23 25  2  0  0  0  0
 23 45  1  0  0  0  0
 24 53  1  0  0  0  0
 25 46  1  0  0  0  0
 26 71  1  0  0  0  0
 27 82  1  0  0  0  0
 28 83  1  0  0  0  0
 29 31  2  0  0  0  0
 29 82  1  0  0  0  0
 30 84  1  0  0  0  0
 31 85  1  0  0  0  0
 32 65  2  0  0  0  0
 33 66  1  0  0  0  0
 33 69  1  0  0  0  0
 34 35  2  0  0  0  0
 35 39  1  0  0  0  0
 36 38  2  0  0  0  0
 36 40  1  0  0  0  0
 37 70  1  0  0  0  0
 37 75  2  0  0  0  0
 38 61  1  0  0  0  0
 38 81  1  0  0  0  0
 39 67  1  0  0  0  0
 39 76  2  0  0  0  0
 40 71  1  0  0  0  0
 40 77  2  0  0  0  0
 41 54  1  0  0  0  0
 41 72  1  0  0  0  0
 41 78  2  0  0  0  0
 42 62  1  0  0  0  0
 42 68  1  0  0  0  0
 42 79  2  0  0  0  0
 43 63  1  0  0  0  0
 43 73  1  0  0  0  0
 43 80  2  0  0  0  0
 44 47  1  0  0  0  0
 45 54  1  0  0  0  0
 46 68  1  0  0  0  0
 47 49  1  0  0  0  0
 48 50  1  0  0  0  0
 48 51  1  0  0  0  0
 49 53  1  0  0  0  0
 50 55  1  0  0  0  0
 51 67  1  0  0  0  0
 52 55  1  0  0  0  0
 52 67  1  0  0  0  0
 53 72  1  0  0  0  0
 54 68  1  0  0  0  0
 55 66  1  0  0  0  0
 56 63  1  0  0  0  0
 57 64  1  0  0  0  0
 58 64  1  0  0  0  0
 59 64  1  0  0  0  0
 60 74  1  0  0  0  0
 61 83  1  0  0  0  0
 62 64  1  0  0  0  0
 62 73  1  0  0  0  0
 63 74  1  0  0  0  0
 65 66  1  0  0  0  0
M  CHG  1  74   1
M  ISO  4  35 100  39 100  61 101  83 101
M  END
> <Batch ID>
0139

> <Smiles>
CNC(C)C(=O)NC(C(=O)N1Cc2cc([101O:1][101CH2:1]C(=O)CC(=O)Nc3cccc(C=[100CH:0][100C:0](=O)N4CCCC(n5nc(-c6ccc(Oc7ccc(F)cc7F)cc6)c(C(N)=O)c5N)C4)c3)ccc2CC1C(=O)NC1CCCc2ccccc21)C(C)(C)C

> <Shape>
0.323

> <Color>
0.118

> <Negative vol penalty>
0.000

$$$$

  -OEChem-04052302483D

 85 93  0     1  0  0  0  0  0999 V2000
  -16.6099  -28.1498   23.2911 C   0  0  0  0  0  0  0  0  0  0  0  0
  -17.5544  -27.7044   22.3718 C   0  0  0  0  0  0  0  0  0  0  0  0
  -23.7546  -13.4349   24.7686 C   0  0  0  0  0  0  0  0  0  0  0  0
  -22.9799  -15.5498   23.8945 C   0  0  0  0  0  0  0  0  0  0  0  0
  -16.9339  -29.1721   24.1820 C   0  0  0  0  0  0  0  0  0  0  0  0
  -18.8232  -28.2820   22.3423 C   0  0  0  0  0  0  0  0  0  0  0  0
  -24.1163  -25.4766   21.0697 C   0  0  0  0  0  0  0  0  0  0  0  0
  -27.8943  -21.6683   19.1789 C   0  0  0  0  0  0  0  0  0  0  0  0
  -27.7659  -20.2880   19.3332 C   0  0  0  0  0  0  0  0  0  0  0  0
  -23.0409  -13.6599   25.9457 C   0  0  0  0  0  0  0  0  0  0  0  0
  -22.2661  -15.7748   25.0716 C   0  0  0  0  0  0  0  0  0  0  0  0
  -24.8800  -25.3978   19.9060 C   0  0  0  0  0  0  0  0  0  0  0  0
  -23.4100  -15.4741   28.7736 C   0  0  0  0  0  0  0  0  0  0  0  0
  -24.0556  -15.2128   29.9821 C   0  0  0  0  0  0  0  0  0  0  0  0
  -26.2463  -27.2264   20.6861 C   0  0  0  0  0  0  0  0  0  0  0  0
  -30.1481  -20.1067   19.6928 C   0  0  0  0  0  0  0  0  0  0  0  0
  -22.3603  -13.5830   30.5356 C   0  0  0  0  0  0  0  0  0  0  0  0
  -23.7241  -14.3798   23.7430 C   0  0  0  0  0  0  0  0  0  0  0  0
  -24.0026  -13.4999   21.3648 C   0  0  0  0  0  0  0  0  0  0  0  0
  -18.2105  -29.7559   24.1698 C   0  0  0  0  0  0  0  0  0  0  0  0
  -24.4055  -26.4397   22.0471 C   0  0  0  0  0  0  0  0  0  0  0  0
  -19.1642  -29.3140   23.2330 C   0  0  0  0  0  0  0  0  0  0  0  0
  -25.4863  -27.3137   21.8625 C   0  0  0  0  0  0  0  0  0  0  0  0
  -29.1495  -22.2679   19.2815 C   0  0  0  0  0  0  0  0  0  0  0  0
  -28.8928  -19.5072   19.5902 C   0  0  0  0  0  0  0  0  0  0  0  0
  -22.2967  -14.8299   26.0972 C   0  0  0  0  0  0  0  0  0  0  0  0
  -25.9434  -26.2747   19.7127 C   0  0  0  0  0  0  0  0  0  0  0  0
  -22.2394  -14.7898   28.4462 C   0  0  0  0  0  0  0  0  0  0  0  0
  -23.5308  -14.2673   30.8631 C   0  0  0  0  0  0  0  0  0  0  0  0
  -30.2765  -21.4871   19.5385 C   0  0  0  0  0  0  0  0  0  0  0  0
  -21.7146  -13.8442   29.3271 C   0  0  0  0  0  0  0  0  0  0  0  0
  -24.4616  -14.1482   22.5271 C   0  0  0  0  0  0  0  0  0  0  0  0
  -25.0730  -13.5376   20.5051 C   0  0  0  0  0  0  0  0  0  0  0  0
  -22.7229  -12.9158   21.0872 C   0  0  0  0  0  0  0  0  0  0  0  0
  -22.8352  -28.9000   23.3059 C   0  0  0  0  0  0  0  0  0  0  0  0
  -25.4060  -29.0291   25.2799 C   0  0  0  0  0  0  0  0  0  0  0  0
  -28.6993  -28.3005   25.7996 C   0  0  0  0  0  0  0  0  0  0  0  0
  -29.7791  -17.1855   20.0032 C   0  0  0  0  0  0  0  0  0  0  0  0
  -18.4991  -30.8905   25.1206 C   0  0  0  0  0  0  0  0  0  0  0  0
  -23.5888  -26.4941   23.3090 C   0  0  0  0  0  0  0  0  0  0  0  0
  -25.8508  -28.3523   22.8905 C   0  0  0  0  0  0  0  0  0  0  0  0
  -19.9874  -31.1928   25.2744 C   0  0  0  0  0  0  0  0  0  0  0  0
  -29.8605  -13.6592   20.4887 C   0  0  0  0  0  0  0  0  0  0  0  0
  -20.6650  -31.2470   23.9088 C   0  0  0  0  0  0  0  0  0  0  0  0
  -28.4417  -13.3245   20.9549 C   0  0  0  0  0  0  0  0  0  0  0  0
  -30.3386  -14.9995   21.0442 C   0  0  0  0  0  0  0  0  0  0  0  0
  -28.0179  -15.7969   21.2626 C   0  0  0  0  0  0  0  0  0  0  0  0
  -20.5593  -29.8985   23.1865 C   0  0  1  0  0  0  0  0  0  0  0  0
  -23.6530  -27.8506   24.0042 C   0  0  1  0  0  0  0  0  0  0  0  0
  -27.4681  -14.4864   20.6761 C   0  0  2  0  0  0  0  0  0  0  0  0
  -30.5318  -28.5647   27.4936 C   0  0  0  0  0  0  0  0  0  0  0  0
  -29.5616  -23.5428   16.6148 C   0  0  0  0  0  0  0  0  0  0  0  0
  -25.6987  -31.9649   24.5018 C   0  0  0  0  0  0  0  0  0  0  0  0
  -28.0206  -31.9090   25.4365 C   0  0  0  0  0  0  0  0  0  0  0  0
  -26.0668  -31.4873   26.9289 C   0  0  0  0  0  0  0  0  0  0  0  0
  -30.3724  -26.3643   17.7551 C   0  0  0  0  0  0  0  0  0  0  0  0
  -28.4035  -26.3182   16.2158 C   0  0  0  0  0  0  0  0  0  0  0  0
  -29.0242  -25.3719   26.0762 C   0  0  0  0  0  0  0  0  0  0  0  0
  -29.2840  -23.7652   19.1155 C   0  0  0  0  0  0  0  0  0  0  0  0
  -28.0598  -26.5887   18.6743 C   0  0  0  0  0  0  0  0  0  1  0  0
  -26.7450  -29.7254   25.2473 C   0  0  1  0  0  0  0  0  0  0  0  0
  -29.4171  -27.6677   26.9780 C   0  0  2  0  0  0  0  0  0  0  0  0
  -28.8129  -24.2946   17.7333 C   0  0  1  0  0  0  0  0  0  0  0  0
  -26.6250  -31.2535   25.5082 C   0  0  0  0  0  0  0  0  0  0  0  0
  -28.9212  -25.8669   17.6031 C   0  0  0  0  0  0  0  0  0  0  0  0
  -25.7253  -14.5670   22.4189 N   0  0  0  0  0  0  0  0  0  0  0  0
  -26.0695  -14.1809   21.1785 N   0  0  0  0  0  0  0  0  0  0  0  0
  -25.0184  -28.3701   24.1047 N   0  0  0  0  0  0  0  0  0  0  0  0
  -29.3686  -16.0532   20.7383 N   0  0  0  0  0  0  0  0  0  0  0  0
  -25.2498  -13.0829   19.2463 N   0  0  0  0  0  0  0  0  0  0  0  0
  -21.7364  -12.9645   22.0815 N   0  0  0  0  0  0  0  0  0  0  0  0
  -28.7628  -18.1047   19.7449 N   0  0  0  0  0  0  0  0  0  0  0  0
  -21.5200  -28.9598   23.7255 N   0  0  0  0  0  0  0  0  0  0  0  0
  -27.5947  -29.0213   26.2016 N   0  0  0  0  0  0  0  0  0  0  0  0
  -30.0118  -26.3602   26.5810 N   0  3  0  0  0  0  0  0  0  0  0  0
  -22.4674  -12.3526   19.9959 O   0  0  0  0  0  0  0  0  0  0  0  0
  -23.3591  -29.6043   22.4508 O   0  0  0  0  0  0  0  0  0  0  0  0
  -24.7320  -29.0626   26.3126 O   0  0  0  0  0  0  0  0  0  0  0  0
  -29.0824  -28.1716   24.6389 O   0  0  0  0  0  0  0  0  0  0  0  0
  -30.9401  -17.3160   19.6069 O   0  0  0  0  0  0  0  0  0  0  0  0
  -21.6000  -15.0497   27.2456 O   0  0  0  0  0  0  0  0  0  0  0  0
  -26.6901  -26.2004   18.5774 O   0  0  0  0  0  0  0  0  0  1  0  0
  -24.1518  -14.0154   32.0229 F   0  0  0  0  0  0  0  0  0  0  0  0
  -31.4868  -22.0540   19.6390 F   0  0  0  0  0  0  0  0  0  0  0  0
  -20.5910  -13.1828   29.0175 F   0  0  0  0  0  0  0  0  0  0  0  0
  1  2  1  0  0  0  0
  1  5  2  0  0  0  0
  2  6  2  0  0  0  0
  3 10  2  0  0  0  0
  3 18  1  0  0  0  0
  4 11  1  0  0  0  0
  4 18  2  0  0  0  0
  5 20  1  0  0  0  0
  6 22  1  0  0  0  0
  7 12  2  0  0  0  0
  7 21  1  0  0  0  0
  8  9  2  0  0  0  0
  8 24  1  0  0  0  0
  9 25  1  0  0  0  0
 10 26  1  0  0  0  0
 11 26  2  0  0  0  0
 12 27  1  0  0  0  0
 13 14  2  0  0  0  0
 13 28  1  0  0  0  0
 14 29  1  0  0  0  0
 15 23  1  0  0  0  0
 15 27  2  0  0  0  0
 16 25  2  0  0  0  0
 16 30  1  0  0  0  0
 17 29  2  0  0  0  0
 17 31  1  0  0  0  0
 18 32  1  0  0  0  0
 19 32  1  0  0  0  0
 19 33  2  0  0  0  0
 19 34  1  0  0  0  0
 20 22  2  0  0  0  0
 20 39  1  0  0  0  0
 21 23  2  0  0  0  0
 21 40  1  0  0  0  0
 22 48  1  0  0  0  0
 23 41  1  0  0  0  0
 24 30  2  0  0  0  0
 24 59  1  0  0  0  0
 25 72  1  0  0  0  0
 26 81  1  0  0  0  0
 27 82  1  0  0  0  0
 28 31  2  0  0  0  0
 28 81  1  0  0  0  0
 29 83  1  0  0  0  0
 30 84  1  0  0  0  0
 31 85  1  0  0  0  0
 32 66  2  0  0  0  0
 33 67  1  0  0  0  0
 33 70  1  0  0  0  0
 34 71  1  0  0  0  0
 34 76  2  0  0  0  0
 35 49  1  0  0  0  0
 35 73  1  0  0  0  0
 35 77  2  0  0  0  0
 36 61  1  0  0  0  0
 36 68  1  0  0  0  0
 36 78  2  0  0  0  0
 37 62  1  0  0  0  0
 37 74  1  0  0  0  0
 37 79  2  0  0  0  0
 38 69  1  0  0  0  0
 38 72  1  0  0  0  0
 38 80  2  0  0  0  0
 39 42  1  0  0  0  0
 40 49  1  0  0  0  0
 41 68  1  0  0  0  0
 42 44  1  0  0  0  0
 43 45  1  0  0  0  0
 43 46  1  0  0  0  0
 44 48  1  0  0  0  0
 45 50  1  0  0  0  0
 46 69  1  0  0  0  0
 47 50  1  0  0  0  0
 47 69  1  0  0  0  0
 48 73  1  0  0  0  0
 49 68  1  0  0  0  0
 50 67  1  0  0  0  0
 51 62  1  0  0  0  0
 52 63  1  0  0  0  0
 53 64  1  0  0  0  0
 54 64  1  0  0  0  0
 55 64  1  0  0  0  0
 56 65  1  0  0  0  0
 57 65  1  0  0  0  0
 58 75  1  0  0  0  0
 59 63  1  0  0  0  0
 60 65  1  0  0  0  0
 60 82  1  0  0  0  0
 61 64  1  0  0  0  0
 61 74  1  0  0  0  0
 62 75  1  0  0  0  0
 63 65  1  0  0  0  0
 66 67  1  0  0  0  0
M  CHG  1  75   1
M  ISO  4  38 100  60 101  72 100  82 101
M  END
> <Batch ID>
0139

> <Smiles>
CNC(C)C(=O)NC(C(=O)N1Cc2cc([101O:1][101CH2:1]C(C)(C)C(C)Cc3ccc([100NH:0][100C:0](=O)N4CCCC(n5nc(-c6ccc(Oc7ccc(F)cc7F)cc6)c(C(N)=O)c5N)C4)cc3F)ccc2CC1C(=O)NC1CCCc2ccccc21)C(C)(C)C

> <Shape>
0.256

> <Color>
0.066

> <Negative vol penalty>
0.000

$$$$

  -OEChem-04052302483D

 87 95  0     1  0  0  0  0  0999 V2000
  -21.9338  -19.7089   19.4561 C   0  0  0  0  0  0  0  0  0  0  0  0
  -23.1599  -19.1904   19.8602 C   0  0  0  0  0  0  0  0  0  0  0  0
  -25.0364  -30.8598   21.0514 C   0  0  0  0  0  0  0  0  0  0  0  0
  -24.5520  -29.1714   22.7103 C   0  0  0  0  0  0  0  0  0  0  0  0
  -20.7516  -19.0688   19.8258 C   0  0  0  0  0  0  0  0  0  0  0  0
  -23.2044  -18.0319   20.6351 C   0  0  0  0  0  0  0  0  0  0  0  0
  -26.7154  -14.7546   19.0297 C   0  0  0  0  0  0  0  0  0  0  0  0
  -24.4761  -31.8332   21.8785 C   0  0  0  0  0  0  0  0  0  0  0  0
  -23.9916  -30.1449   23.5374 C   0  0  0  0  0  0  0  0  0  0  0  0
  -28.0405  -15.0241   19.3692 C   0  0  0  0  0  0  0  0  0  0  0  0
  -23.4990  -34.8198   23.7062 C   0  0  0  0  0  0  0  0  0  0  0  0
  -24.1930  -36.0203   23.8572 C   0  0  0  0  0  0  0  0  0  0  0  0
  -28.2010  -18.6713   17.5014 C   0  0  0  0  0  0  0  0  0  0  0  0
  -26.3858  -20.0974   16.7886 C   0  0  0  0  0  0  0  0  0  0  0  0
  -27.8195  -20.7850   18.6076 C   0  0  0  0  0  0  0  0  0  0  0  0
  -27.8991  -13.4224   21.1675 C   0  0  0  0  0  0  0  0  0  0  0  0
  -26.0836  -34.8141   24.7562 C   0  0  0  0  0  0  0  0  0  0  0  0
  -25.0743  -29.5289   21.4673 C   0  0  0  0  0  0  0  0  0  0  0  0
  -27.1181  -18.9175   16.6575 C   0  0  0  0  0  0  0  0  0  0  0  0
  -28.5517  -19.6050   18.4765 C   0  0  0  0  0  0  0  0  0  0  0  0
  -26.9965  -28.1051   20.5809 C   0  0  0  0  0  0  0  0  0  0  0  0
  -20.7821  -17.8965   20.5975 C   0  0  0  0  0  0  0  0  0  0  0  0
  -25.9676  -13.8235   19.7646 C   0  0  0  0  0  0  0  0  0  0  0  0
  -22.0215  -17.3763   21.0165 C   0  0  0  0  0  0  0  0  0  0  0  0
  -26.5655  -13.1410   20.8337 C   0  0  0  0  0  0  0  0  0  0  0  0
  -26.7365  -21.0312   17.7637 C   0  0  0  0  0  0  0  0  0  0  0  0
  -23.9537  -31.4758   23.1214 C   0  0  0  0  0  0  0  0  0  0  0  0
  -28.6317  -14.3600   20.4401 C   0  0  0  0  0  0  0  0  0  0  0  0
  -24.0971  -33.6165   24.0802 C   0  0  0  0  0  0  0  0  0  0  0  0
  -25.4853  -36.0174   24.3822 C   0  0  0  0  0  0  0  0  0  0  0  0
  -25.3894  -33.6136   24.6052 C   0  0  0  0  0  0  0  0  0  0  0  0
  -25.6525  -28.5228   20.6132 C   0  0  0  0  0  0  0  0  0  0  0  0
  -27.0319  -27.1370   19.6072 C   0  0  0  0  0  0  0  0  0  0  0  0
  -27.6765  -17.6481   14.7147 C   0  0  0  0  0  0  0  0  0  0  0  0
  -26.7527  -17.9440   15.6400 C   0  0  0  0  0  0  0  0  0  0  0  0
  -29.7089  -19.3425   19.3779 C   0  0  0  0  0  0  0  0  0  0  0  0
  -28.1131  -28.5521   21.3613 C   0  0  0  0  0  0  0  0  0  0  0  0
  -23.3299  -13.9596   21.5332 C   0  0  0  0  0  0  0  0  0  0  0  0
  -23.6993  -10.7384   21.6342 C   0  0  0  0  0  0  0  0  0  0  0  0
  -25.7919   -8.0533   21.3938 C   0  0  0  0  0  0  0  0  0  0  0  0
  -24.8896  -22.6276   17.1418 C   0  0  0  0  0  0  0  0  0  0  0  0
  -19.4761  -17.2664   21.0123 C   0  0  0  0  0  0  0  0  0  0  0  0
  -24.5475  -13.5245   19.3689 C   0  0  0  0  0  0  0  0  0  0  0  0
  -25.8120  -12.1174   21.6417 C   0  0  0  0  0  0  0  0  0  0  0  0
  -19.6248  -15.8342   21.5193 C   0  0  0  0  0  0  0  0  0  0  0  0
  -23.5637  -25.7877   16.1761 C   0  0  0  0  0  0  0  0  0  0  0  0
  -20.7837  -15.7349   22.5063 C   0  0  0  0  0  0  0  0  0  0  0  0
  -24.0995  -26.7466   17.2417 C   0  0  0  0  0  0  0  0  0  0  0  0
  -23.2131  -24.4229   16.7661 C   0  0  0  0  0  0  0  0  0  0  0  0
  -24.8239  -24.7438   18.6022 C   0  0  0  0  0  0  0  0  0  0  0  0
  -22.1119  -16.1079   21.8369 C   0  0  1  0  0  0  0  0  0  0  0  0
  -23.7217  -12.9338   20.5075 C   0  0  1  0  0  0  0  0  0  0  0  0
  -25.2518  -26.1108   18.0438 C   0  0  2  0  0  0  0  0  0  0  0  0
  -25.4012  -17.2869   15.5911 C   0  0  0  0  0  0  0  0  0  0  0  0
  -25.8109   -5.5495   21.5611 C   0  0  0  0  0  0  0  0  0  0  0  0
  -23.5561  -10.9429   24.6752 C   0  0  0  0  0  0  0  0  0  0  0  0
  -24.5130   -8.6330   24.8059 C   0  0  0  0  0  0  0  0  0  0  0  0
  -22.3086   -9.0072   23.6999 C   0  0  0  0  0  0  0  0  0  0  0  0
  -30.6281  -15.0786   18.5426 C   0  0  0  0  0  0  0  0  0  0  0  0
  -32.0522  -15.6842   20.5105 C   0  0  0  0  0  0  0  0  0  0  0  0
  -26.6892   -7.7569   18.5892 C   0  0  0  0  0  0  0  0  0  0  0  0
  -30.5131  -18.0585   19.2410 C   0  0  0  0  0  0  0  0  0  0  0  0
  -29.9146  -16.9542   20.1184 C   0  0  0  0  0  0  0  0  0  0  0  0
  -24.4219   -9.7732   22.5425 C   0  0  1  0  0  0  0  0  0  0  0  0
  -25.6692   -6.7456   20.6327 C   0  0  2  0  0  0  0  0  0  0  0  0
  -23.7138   -9.6097   23.9170 C   0  0  0  0  0  0  0  0  0  0  0  0
  -30.6167  -15.5880   19.9844 C   0  0  0  0  0  0  0  0  0  1  0  0
  -24.8894  -27.8733   19.7301 N   0  0  0  0  0  0  0  0  0  0  0  0
  -30.0368  -20.2056   20.2875 N   0  0  0  0  0  0  0  0  0  0  0  0
  -25.7567  -27.0378   19.1337 N   0  0  0  0  0  0  0  0  0  0  0  0
  -24.4244  -11.8646   21.2198 N   0  0  0  0  0  0  0  0  0  0  0  0
  -24.3532  -23.8802   17.5080 N   0  0  0  0  0  0  0  0  0  0  0  0
  -28.0291  -26.3696   19.1184 N   0  0  0  0  0  0  0  0  0  0  0  0
  -27.9011  -29.5541   22.3181 N   0  0  0  0  0  0  0  0  0  0  0  0
  -25.9920  -22.2293   17.8973 N   0  0  0  0  0  0  0  0  0  0  0  0
  -22.5933  -15.0118   21.0236 N   0  0  0  0  0  0  0  0  0  0  0  0
  -24.5606   -8.5308   21.7904 N   0  0  0  0  0  0  0  0  0  0  0  0
  -26.7252   -6.6550   19.5850 N   0  3  0  0  0  0  0  0  0  0  0  0
  -29.2680  -28.0887   21.2032 O   0  0  0  0  0  0  0  0  0  0  0  0
  -23.6694  -13.8069   22.7007 O   0  0  0  0  0  0  0  0  0  0  0  0
  -22.5368  -10.4983   21.2987 O   0  0  0  0  0  0  0  0  0  0  0  0
  -26.8722   -8.5949   21.6178 O   0  0  0  0  0  0  0  0  0  0  0  0
  -24.4234  -21.9700   16.2079 O   0  0  0  0  0  0  0  0  0  0  0  0
  -23.4071  -32.4255   23.9288 O   0  0  0  0  0  0  0  0  0  0  0  0
  -29.9247  -14.6216   20.7740 O   0  0  0  0  0  0  0  0  0  1  0  0
  -26.1523  -37.1701   24.5258 F   0  0  0  0  0  0  0  0  0  0  0  0
  -25.9698  -32.4606   24.9651 F   0  0  0  0  0  0  0  0  0  0  0  0
  1  2  1  0  0  0  0
  1  5  2  0  0  0  0
  2  6  2  0  0  0  0
  3  8  2  0  0  0  0
  3 18  1  0  0  0  0
  4  9  1  0  0  0  0
  4 18  2  0  0  0  0
  5 22  1  0  0  0  0
  6 24  1  0  0  0  0
  7 10  2  0  0  0  0
  7 23  1  0  0  0  0
  8 27  1  0  0  0  0
  9 27  2  0  0  0  0
 10 28  1  0  0  0  0
 11 12  2  0  0  0  0
 11 29  1  0  0  0  0
 12 30  1  0  0  0  0
 13 19  2  0  0  0  0
 13 20  1  0  0  0  0
 14 19  1  0  0  0  0
 14 26  2  0  0  0  0
 15 20  2  0  0  0  0
 15 26  1  0  0  0  0
 16 25  1  0  0  0  0
 16 28  2  0  0  0  0
 17 30  2  0  0  0  0
 17 31  1  0  0  0  0
 18 32  1  0  0  0  0
 19 35  1  0  0  0  0
 20 36  1  0  0  0  0
 21 32  1  0  0  0  0
 21 33  2  0  0  0  0
 21 37  1  0  0  0  0
 22 24  2  0  0  0  0
 22 42  1  0  0  0  0
 23 25  2  0  0  0  0
 23 43  1  0  0  0  0
 24 51  1  0  0  0  0
 25 44  1  0  0  0  0
 26 75  1  0  0  0  0
 27 84  1  0  0  0  0
 28 85  1  0  0  0  0
 29 31  2  0  0  0  0
 29 84  1  0  0  0  0
 30 86  1  0  0  0  0
 31 87  1  0  0  0  0
 32 68  2  0  0  0  0
 33 70  1  0  0  0  0
 33 73  1  0  0  0  0
 34 35  2  0  0  0  0
 35 54  1  0  0  0  0
 36 62  1  0  0  0  0
 36 69  2  0  0  0  0
 37 74  1  0  0  0  0
 37 79  2  0  0  0  0
 38 52  1  0  0  0  0
 38 76  1  0  0  0  0
 38 80  2  0  0  0  0
 39 64  1  0  0  0  0
 39 71  1  0  0  0  0
 39 81  2  0  0  0  0
 40 65  1  0  0  0  0
 40 77  1  0  0  0  0
 40 82  2  0  0  0  0
 41 72  1  0  0  0  0
 41 75  1  0  0  0  0
 41 83  2  0  0  0  0
 42 45  1  0  0  0  0
 43 52  1  0  0  0  0
 44 71  1  0  0  0  0
 45 47  1  0  0  0  0
 46 48  1  0  0  0  0
 46 49  1  0  0  0  0
 47 51  1  0  0  0  0
 48 53  1  0  0  0  0
 49 72  1  0  0  0  0
 50 53  1  0  0  0  0
 50 72  1  0  0  0  0
 51 76  1  0  0  0  0
 52 71  1  0  0  0  0
 53 70  1  0  0  0  0
 55 65  1  0  0  0  0
 56 66  1  0  0  0  0
 57 66  1  0  0  0  0
 58 66  1  0  0  0  0
 59 67  1  0  0  0  0
 60 67  1  0  0  0  0
 61 78  1  0  0  0  0
 62 63  1  0  0  0  0
 63 67  1  0  0  0  0
 64 66  1  0  0  0  0
 64 77  1  0  0  0  0
 65 78  1  0  0  0  0
 67 85  1  0  0  0  0
 68 70  1  0  0  0  0
M  CHG  1  78   1
M  ISO  4  41 100  67 101  75 100  85 101
M  END
> <Batch ID>
0139

> <Smiles>
C=C(C)c1cc([100NH:0][100C:0](=O)N2CCCC(n3nc(-c4ccc(Oc5ccc(F)cc5F)cc4)c(C(N)=O)c3N)C2)cc(C(=N)CC[101C:1](C)(C)[101O:1]c2ccc3c(c2)CN(C(=O)C(NC(=O)C(C)NC)C(C)(C)C)C(C(=O)NC2CCCc4ccccc42)C3)c1

> <Shape>
0.246

> <Color>
0.068

> <Negative vol penalty>
0.000

$$$$

  -OEChem-04052302483D

 84 92  0     1  0  0  0  0  0999 V2000
  -18.6799  -29.9201   19.9409 C   0  0  0  0  0  0  0  0  0  0  0  0
  -20.0385  -29.7796   19.6764 C   0  0  0  0  0  0  0  0  0  0  0  0
  -29.2506  -21.8230   16.0816 C   0  0  0  0  0  0  0  0  0  0  0  0
  -26.2746  -12.8465   21.6308 C   0  0  0  0  0  0  0  0  0  0  0  0
  -25.8194  -13.7446   19.4346 C   0  0  0  0  0  0  0  0  0  0  0  0
  -30.2294  -22.8036   16.2423 C   0  0  0  0  0  0  0  0  0  0  0  0
  -18.0911  -29.1841   20.9683 C   0  0  0  0  0  0  0  0  0  0  0  0
  -20.8094  -28.9037   20.4400 C   0  0  0  0  0  0  0  0  0  0  0  0
  -25.5466  -25.5335   18.5150 C   0  0  0  0  0  0  0  0  0  0  0  0
  -28.7751  -21.1238   17.1911 C   0  0  0  0  0  0  0  0  0  0  0  0
  -25.0661  -12.1509   21.5969 C   0  0  0  0  0  0  0  0  0  0  0  0
  -24.6109  -13.0489   19.4006 C   0  0  0  0  0  0  0  0  0  0  0  0
  -26.9257  -25.7224   18.5940 C   0  0  0  0  0  0  0  0  0  0  0  0
  -22.2697   -9.8532   21.9369 C   0  0  0  0  0  0  0  0  0  0  0  0
  -22.2759   -8.5219   22.3531 C   0  0  0  0  0  0  0  0  0  0  0  0
  -30.2574  -22.3859   18.6218 C   0  0  0  0  0  0  0  0  0  0  0  0
  -26.9933  -24.3542   20.5796 C   0  0  0  0  0  0  0  0  0  0  0  0
  -23.8661   -7.9859   20.6150 C   0  0  0  0  0  0  0  0  0  0  0  0
  -26.6513  -13.6434   20.5497 C   0  0  0  0  0  0  0  0  0  0  0  0
  -30.7329  -23.0851   17.5123 C   0  0  0  0  0  0  0  0  0  0  0  0
  -29.1549  -13.9087   20.1382 C   0  0  0  0  0  0  0  0  0  0  0  0
  -18.8532  -28.2917   21.7386 C   0  0  0  0  0  0  0  0  0  0  0  0
  -24.8778  -24.7612   19.4756 C   0  0  0  0  0  0  0  0  0  0  0  0
  -20.2305  -28.1562   21.4796 C   0  0  0  0  0  0  0  0  0  0  0  0
  -25.6061  -24.1549   20.5092 C   0  0  0  0  0  0  0  0  0  0  0  0
  -29.2785  -21.4053   18.4611 C   0  0  0  0  0  0  0  0  0  0  0  0
  -24.2343  -12.2520   20.4818 C   0  0  0  0  0  0  0  0  0  0  0  0
  -27.6488  -25.1351   19.6280 C   0  0  0  0  0  0  0  0  0  0  0  0
  -23.0617  -10.2509   20.8597 C   0  0  0  0  0  0  0  0  0  0  0  0
  -23.0741   -7.5883   21.6922 C   0  0  0  0  0  0  0  0  0  0  0  0
  -23.8599   -9.3172   20.1988 C   0  0  0  0  0  0  0  0  0  0  0  0
  -27.8992  -14.3628   20.5844 C   0  0  0  0  0  0  0  0  0  0  0  0
  -30.0075  -14.9559   20.3888 C   0  0  0  0  0  0  0  0  0  0  0  0
  -31.7759  -24.1303   17.6820 C   0  0  0  0  0  0  0  0  0  0  0  0
  -29.5179  -12.6526   19.5499 C   0  0  0  0  0  0  0  0  0  0  0  0
  -22.6047  -25.3285   21.6238 C   0  0  0  0  0  0  0  0  0  0  0  0
  -22.7691  -22.1199   22.0707 C   0  0  0  0  0  0  0  0  0  0  0  0
  -24.6026  -19.2515   21.8311 C   0  0  0  0  0  0  0  0  0  0  0  0
  -29.1877  -20.8512   20.9169 C   0  0  0  0  0  0  0  0  0  0  0  0
  -18.1822  -27.5529   22.8695 C   0  0  0  0  0  0  0  0  0  0  0  0
  -23.3937  -24.5450   19.3611 C   0  0  0  0  0  0  0  0  0  0  0  0
  -24.9384  -23.2999   21.5540 C   0  0  0  0  0  0  0  0  0  0  0  0
  -18.9922  -26.3674   23.3880 C   0  0  0  0  0  0  0  0  0  0  0  0
  -30.6057  -18.6720   23.3496 C   0  0  0  0  0  0  0  0  0  0  0  0
  -20.4504  -26.7657   23.5925 C   0  0  0  0  0  0  0  0  0  0  0  0
  -30.1919  -17.2780   22.8726 C   0  0  0  0  0  0  0  0  0  0  0  0
  -29.5093  -19.7059   23.0987 C   0  0  0  0  0  0  0  0  0  0  0  0
  -28.5999  -18.3682   21.2405 C   0  0  0  0  0  0  0  0  0  0  0  0
  -21.0949  -27.1978   22.2698 C   0  0  1  0  0  0  0  0  0  0  0  0
  -22.7417  -24.1624   20.6862 C   0  0  1  0  0  0  0  0  0  0  0  0
  -29.6974  -17.3055   21.4131 C   0  0  2  0  0  0  0  0  0  0  0  0
  -24.4825  -16.7910   22.3096 C   0  0  0  0  0  0  0  0  0  0  0  0
  -23.1731  -22.6805   25.0426 C   0  0  0  0  0  0  0  0  0  0  0  0
  -23.9810  -20.3255   25.3058 C   0  0  0  0  0  0  0  0  0  0  0  0
  -21.6475  -20.7635   24.5407 C   0  0  0  0  0  0  0  0  0  0  0  0
  -31.3171  -26.9532   20.3389 C   0  0  0  0  0  0  0  0  0  0  0  0
  -31.6949  -27.2374   17.8889 C   0  0  0  0  0  0  0  0  0  0  0  0
  -24.9745  -18.5605   18.9775 C   0  0  0  0  0  0  0  0  0  0  0  0
  -31.8654  -24.9331   18.9777 C   0  0  0  0  0  0  0  0  0  0  0  0
  -29.6016  -26.1242   18.6985 C   0  0  0  0  0  0  0  0  0  1  0  0
  -23.5727  -21.2044   22.9624 C   0  0  1  0  0  0  0  0  0  0  0  0
  -24.2614  -17.8816   21.2730 C   0  0  2  0  0  0  0  0  0  0  0  0
  -23.1062  -21.2611   24.4445 C   0  0  0  0  0  0  0  0  0  0  0  0
  -31.1145  -26.2930   18.9566 C   0  0  0  0  0  0  0  0  0  0  0  0
  -27.9456  -15.6019   21.0809 N   0  0  0  0  0  0  0  0  0  0  0  0
  -32.6039  -24.3665   16.7133 N   0  0  0  0  0  0  0  0  0  0  0  0
  -29.2408  -15.9353   20.9483 N   0  0  0  0  0  0  0  0  0  0  0  0
  -23.4846  -23.1236   21.4026 N   0  0  0  0  0  0  0  0  0  0  0  0
  -29.0939  -19.6776   21.6946 N   0  0  0  0  0  0  0  0  0  0  0  0
  -31.3309  -15.1253   20.1829 N   0  0  0  0  0  0  0  0  0  0  0  0
  -28.5182  -11.6882   19.3636 N   0  0  0  0  0  0  0  0  0  0  0  0
  -28.7952  -20.6951   19.5880 N   0  0  0  0  0  0  0  0  0  0  0  0
  -21.4302  -26.0399   21.4690 N   0  0  0  0  0  0  0  0  0  0  0  0
  -23.4944  -19.8773   22.3616 N   0  0  0  0  0  0  0  0  0  0  0  0
  -25.1098  -17.5801   20.0854 N   0  3  0  0  0  0  0  0  0  0  0  0
  -30.6972  -12.3870   19.2148 O   0  0  0  0  0  0  0  0  0  0  0  0
  -23.4977  -25.5645   22.4291 O   0  0  0  0  0  0  0  0  0  0  0  0
  -21.5524  -21.9462   21.9652 O   0  0  0  0  0  0  0  0  0  0  0  0
  -25.7392  -19.7181   21.8028 O   0  0  0  0  0  0  0  0  0  0  0  0
  -29.6127  -21.9093   21.3877 O   0  0  0  0  0  0  0  0  0  0  0  0
  -23.0551  -11.5731   20.4482 O   0  0  0  0  0  0  0  0  0  0  0  0
  -28.9949  -25.3184   19.7078 O   0  0  0  0  0  0  0  0  0  1  0  0
  -23.0811   -6.3102   22.0929 F   0  0  0  0  0  0  0  0  0  0  0  0
  -24.6238   -9.6936   19.1641 F   0  0  0  0  0  0  0  0  0  0  0  0
  1  2  1  0  0  0  0
  1  7  2  0  0  0  0
  2  8  2  0  0  0  0
  3  6  2  0  0  0  0
  3 10  1  0  0  0  0
  4 11  2  0  0  0  0
  4 19  1  0  0  0  0
  5 12  1  0  0  0  0
  5 19  2  0  0  0  0
  6 20  1  0  0  0  0
  7 22  1  0  0  0  0
  8 24  1  0  0  0  0
  9 13  2  0  0  0  0
  9 23  1  0  0  0  0
 10 26  2  0  0  0  0
 11 27  1  0  0  0  0
 12 27  2  0  0  0  0
 13 28  1  0  0  0  0
 14 15  2  0  0  0  0
 14 29  1  0  0  0  0
 15 30  1  0  0  0  0
 16 20  2  0  0  0  0
 16 26  1  0  0  0  0
 17 25  1  0  0  0  0
 17 28  2  0  0  0  0
 18 30  2  0  0  0  0
 18 31  1  0  0  0  0
 19 32  1  0  0  0  0
 20 34  1  0  0  0  0
 21 32  1  0  0  0  0
 21 33  2  0  0  0  0
 21 35  1  0  0  0  0
 22 24  2  0  0  0  0
 22 40  1  0  0  0  0
 23 25  2  0  0  0  0
 23 41  1  0  0  0  0
 24 49  1  0  0  0  0
 25 42  1  0  0  0  0
 26 72  1  0  0  0  0
 27 81  1  0  0  0  0
 28 82  1  0  0  0  0
 29 31  2  0  0  0  0
 29 81  1  0  0  0  0
 30 83  1  0  0  0  0
 31 84  1  0  0  0  0
 32 65  2  0  0  0  0
 33 67  1  0  0  0  0
 33 70  1  0  0  0  0
 34 59  1  0  0  0  0
 34 66  2  0  0  0  0
 35 71  1  0  0  0  0
 35 76  2  0  0  0  0
 36 50  1  0  0  0  0
 36 73  1  0  0  0  0
 36 77  2  0  0  0  0
 37 61  1  0  0  0  0
 37 68  1  0  0  0  0
 37 78  2  0  0  0  0
 38 62  1  0  0  0  0
 38 74  1  0  0  0  0
 38 79  2  0  0  0  0
 39 69  1  0  0  0  0
 39 72  1  0  0  0  0
 39 80  2  0  0  0  0
 40 43  1  0  0  0  0
 41 50  1  0  0  0  0
 42 68  1  0  0  0  0
 43 45  1  0  0  0  0
 44 46  1  0  0  0  0
 44 47  1  0  0  0  0
 45 49  1  0  0  0  0
 46 51  1  0  0  0  0
 47 69  1  0  0  0  0
 48 51  1  0  0  0  0
 48 69  1  0  0  0  0
 49 73  1  0  0  0  0
 50 68  1  0  0  0  0
 51 67  1  0  0  0  0
 52 62  1  0  0  0  0
 53 63  1  0  0  0  0
 54 63  1  0  0  0  0
 55 63  1  0  0  0  0
 56 64  1  0  0  0  0
 57 64  1  0  0  0  0
 58 75  1  0  0  0  0
 59 64  1  0  0  0  0
 60 64  1  0  0  0  0
 60 82  1  0  0  0  0
 61 63  1  0  0  0  0
 61 74  1  0  0  0  0
 62 75  1  0  0  0  0
 65 67  1  0  0  0  0
M  CHG  1  75   1
M  ISO  4  39 100  60 101  72 100  82 101
M  END
> <Batch ID>
0139

> <Smiles>
CNC(C)C(=O)NC(C(=O)N1Cc2cc([101O:1][101CH2:1]C(C)(C)CC(=N)c3cccc([100NH:0][100C:0](=O)N4CCCC(n5nc(-c6ccc(Oc7ccc(F)cc7F)cc6)c(C(N)=O)c5N)C4)c3)ccc2CC1C(=O)NC1CCCc2ccccc21)C(C)(C)C

> <Shape>
0.242

> <Color>
0.064

> <Negative vol penalty>
0.000

$$$$

  -OEChem-04052302483D

 94103  0     1  0  0  0  0  0999 V2000
  -16.2027  -29.0224   24.0877 C   0  0  0  0  0  0  0  0  0  0  0  0
  -17.1784  -28.1290   23.6573 C   0  0  0  0  0  0  0  0  0  0  0  0
  -28.1161  -23.6775   20.6087 C   0  0  0  0  0  0  0  0  0  0  0  0
  -23.0305   -9.8347   20.7908 C   0  0  0  0  0  0  0  0  0  0  0  0
  -23.6760  -10.5023   23.0212 C   0  0  0  0  0  0  0  0  0  0  0  0
  -16.5363  -30.3547   24.3278 C   0  0  0  0  0  0  0  0  0  0  0  0
  -18.4881  -28.5677   23.4656 C   0  0  0  0  0  0  0  0  0  0  0  0
  -21.9092  -25.3759   25.4028 C   0  0  0  0  0  0  0  0  0  0  0  0
  -26.7862  -23.3013   20.4207 C   0  0  0  0  0  0  0  0  0  0  0  0
  -28.7860  -23.3118   21.7763 C   0  0  0  0  0  0  0  0  0  0  0  0
  -22.2392   -8.8174   21.3242 C   0  0  0  0  0  0  0  0  0  0  0  0
  -22.8847   -9.4850   23.5547 C   0  0  0  0  0  0  0  0  0  0  0  0
  -22.1946  -24.2257   24.6683 C   0  0  0  0  0  0  0  0  0  0  0  0
  -19.1993   -8.5278   22.7761 C   0  0  0  0  0  0  0  0  0  0  0  0
  -17.9172   -8.3617   22.2525 C   0  0  0  0  0  0  0  0  0  0  0  0
  -24.1961  -25.2715   23.8199 C   0  0  0  0  0  0  0  0  0  0  0  0
  -26.7959  -22.1938   22.5679 C   0  0  0  0  0  0  0  0  0  0  0  0
  -31.8480  -19.0636   22.8757 C   0  0  0  0  0  0  0  0  0  0  0  0
  -32.0856  -16.9037   21.8196 C   0  0  0  0  0  0  0  0  0  0  0  0
  -29.9025  -17.9207   22.0119 C   0  0  0  0  0  0  0  0  0  0  0  0
  -18.4800   -6.1077   21.5892 C   0  0  0  0  0  0  0  0  0  0  0  0
  -23.7489  -10.6772   21.6392 C   0  0  0  0  0  0  0  0  0  0  0  0
  -24.1756  -13.0503   20.8064 C   0  0  0  0  0  0  0  0  0  0  0  0
  -17.8528  -30.8078   24.1483 C   0  0  0  0  0  0  0  0  0  0  0  0
  -22.7608  -26.4883   25.3428 C   0  0  0  0  0  0  0  0  0  0  0  0
  -18.8393  -29.9076   23.7022 C   0  0  0  0  0  0  0  0  0  0  0  0
  -23.9206  -26.4336   24.5566 C   0  0  0  0  0  0  0  0  0  0  0  0
  -26.1261  -22.5595   21.4003 C   0  0  0  0  0  0  0  0  0  0  0  0
  -28.1259  -22.5700   22.7559 C   0  0  0  0  0  0  0  0  0  0  0  0
  -32.6549  -18.0047   22.4596 C   0  0  0  0  0  0  0  0  0  0  0  0
  -30.4718  -19.0216   22.6519 C   0  0  0  0  0  0  0  0  0  0  0  0
  -30.7095  -16.8617   21.5958 C   0  0  0  0  0  0  0  0  0  0  0  0
  -22.1663   -8.6426   22.7062 C   0  0  0  0  0  0  0  0  0  0  0  0
  -23.3366  -24.1745   23.8744 C   0  0  0  0  0  0  0  0  0  0  0  0
  -20.1219   -7.4839   22.7061 C   0  0  0  0  0  0  0  0  0  0  0  0
  -17.5575   -7.1517   21.6591 C   0  0  0  0  0  0  0  0  0  0  0  0
  -19.7622   -6.2739   22.1128 C   0  0  0  0  0  0  0  0  0  0  0  0
  -24.5669  -11.7278   21.0887 C   0  0  0  0  0  0  0  0  0  0  0  0
  -25.3074  -13.6431   20.3023 C   0  0  0  0  0  0  0  0  0  0  0  0
  -22.9029  -13.6861   20.9840 C   0  0  0  0  0  0  0  0  0  0  0  0
  -22.4473  -29.5044   24.3894 C   0  0  0  0  0  0  0  0  0  0  0  0
  -25.4498  -29.7851   25.5848 C   0  0  0  0  0  0  0  0  0  0  0  0
  -30.0515  -21.2650   23.7186 C   0  0  0  0  0  0  0  0  0  0  0  0
  -28.3865  -28.2646   26.4276 C   0  0  0  0  0  0  0  0  0  0  0  0
  -30.7885  -14.6083   20.4722 C   0  0  0  0  0  0  0  0  0  0  0  0
  -18.1554  -32.2678   24.3750 C   0  0  0  0  0  0  0  0  0  0  0  0
  -22.4530  -27.7116   26.1620 C   0  0  0  0  0  0  0  0  0  0  0  0
  -24.8779  -27.5934   24.4736 C   0  0  0  0  0  0  0  0  0  0  0  0
  -19.6463  -32.5674   24.5079 C   0  0  0  0  0  0  0  0  0  0  0  0
  -29.7170  -11.6237   18.8533 C   0  0  0  0  0  0  0  0  0  0  0  0
  -20.4327  -31.8621   23.4074 C   0  0  0  0  0  0  0  0  0  0  0  0
  -28.2494  -11.4935   19.2673 C   0  0  0  0  0  0  0  0  0  0  0  0
  -30.5784  -12.1806   19.9854 C   0  0  0  0  0  0  0  0  0  0  0  0
  -28.6293  -13.3081   20.9849 C   0  0  0  0  0  0  0  0  0  0  0  0
  -20.2763  -30.3399   23.5066 C   0  0  1  0  0  0  0  0  0  0  0  0
  -23.1195  -28.9742   25.6242 C   0  0  1  0  0  0  0  0  0  0  0  0
  -27.7109  -12.8122   19.8561 C   0  0  2  0  0  0  0  0  0  0  0  0
  -29.2803  -23.4079   24.8250 C   0  0  0  0  0  0  0  0  0  0  0  0
  -34.4763  -18.0944   24.1997 C   0  0  0  0  0  0  0  0  0  0  0  0
  -34.8070  -19.2222   21.9696 C   0  0  0  0  0  0  0  0  0  0  0  0
  -30.6691  -28.7603   27.3450 C   0  0  0  0  0  0  0  0  0  0  0  0
  -22.3150  -22.9983   21.1468 C   0  0  0  0  0  0  0  0  0  0  0  0
  -26.2826  -30.9358   22.8844 C   0  0  0  0  0  0  0  0  0  0  0  0
  -28.6680  -30.5207   23.5216 C   0  0  0  0  0  0  0  0  0  0  0  0
  -27.2763  -32.0966   24.8642 C   0  0  0  0  0  0  0  0  0  0  0  0
  -27.9484  -26.5190   28.7770 C   0  0  0  0  0  0  0  0  0  0  0  0
  -24.6863  -22.1512   21.1952 C   0  0  0  0  0  0  0  0  0  0  0  0
  -28.8421  -22.1796   24.0046 C   0  0  1  0  0  0  0  0  0  0  0  0
  -34.1263  -18.0495   22.7004 C   0  0  0  0  0  0  0  0  0  0  0  0
  -26.8424  -29.6113   25.0287 C   0  0  1  0  0  0  0  0  0  0  0  0
  -29.2428  -28.3508   27.6781 C   0  0  2  0  0  0  0  0  0  0  0  0
  -23.7049  -23.1952   21.7387 C   0  0  2  0  0  0  0  0  0  1  0  0
  -27.2485  -30.7698   24.0746 C   0  0  0  0  0  0  0  0  0  0  0  0
  -25.8473  -11.4937   20.7888 N   0  0  0  0  0  0  0  0  0  0  0  0
  -26.2703  -12.6771   20.3126 N   0  0  0  0  0  0  0  0  0  0  0  0
  -24.5299  -28.7694   25.2882 N   0  0  0  0  0  0  0  0  0  0  0  0
  -30.0095  -13.4321   20.4904 N   0  0  0  0  0  0  0  0  0  0  0  0
  -25.5630  -14.8911   19.8556 N   0  0  0  0  0  0  0  0  0  0  0  0
  -21.8474  -12.9319   21.5144 N   0  0  0  0  0  0  0  0  0  0  0  0
  -29.6536  -20.0961   23.0743 N   0  0  0  0  0  0  0  0  0  0  0  0
  -30.1310  -15.7428   20.9469 N   0  0  0  0  0  0  0  0  0  0  0  0
  -21.1120  -29.8138   24.5645 N   0  0  0  0  0  0  0  0  0  0  0  0
  -27.7241  -29.4482   26.1796 N   0  0  0  0  0  0  0  0  0  0  0  0
  -29.2822  -27.0319   28.3708 N   0  3  0  0  0  0  0  0  0  0  0  0
  -22.7029  -14.8830   20.6659 O   0  0  0  0  0  0  0  0  0  0  0  0
  -23.0928  -29.6253   23.3548 O   0  0  0  0  0  0  0  0  0  0  0  0
  -25.1896  -30.7818   26.2635 O   0  0  0  0  0  0  0  0  0  0  0  0
  -31.1959  -21.5906   24.0212 O   0  0  0  0  0  0  0  0  0  0  0  0
  -28.3155  -27.2501   25.7375 O   0  0  0  0  0  0  0  0  0  0  0  0
  -31.9441  -14.6148   20.0402 O   0  0  0  0  0  0  0  0  0  0  0  0
  -21.3941   -7.6501   23.2271 O   0  0  0  0  0  0  0  0  0  0  0  0
  -23.6172  -23.0533   23.1559 O   0  0  0  0  0  0  0  0  0  1  0  0
  -16.3257   -6.9918   21.1578 F   0  0  0  0  0  0  0  0  0  0  0  0
  -20.6438   -5.2670   22.0437 F   0  0  0  0  0  0  0  0  0  0  0  0
  1  2  1  0  0  0  0
  1  6  2  0  0  0  0
  2  7  2  0  0  0  0
  3  9  2  0  0  0  0
  3 10  1  0  0  0  0
  4 11  2  0  0  0  0
  4 22  1  0  0  0  0
  5 12  1  0  0  0  0
  5 22  2  0  0  0  0
  6 24  1  0  0  0  0
  7 26  1  0  0  0  0
  8 13  2  0  0  0  0
  8 25  1  0  0  0  0
  9 28  1  0  0  0  0
 10 29  2  0  0  0  0
 11 33  1  0  0  0  0
 12 33  2  0  0  0  0
 13 34  1  0  0  0  0
 14 15  2  0  0  0  0
 14 35  1  0  0  0  0
 15 36  1  0  0  0  0
 16 27  1  0  0  0  0
 16 34  2  0  0  0  0
 17 28  2  0  0  0  0
 17 29  1  0  0  0  0
 18 30  1  0  0  0  0
 18 31  2  0  0  0  0
 19 30  2  0  0  0  0
 19 32  1  0  0  0  0
 20 31  1  0  0  0  0
 20 32  2  0  0  0  0
 21 36  2  0  0  0  0
 21 37  1  0  0  0  0
 22 38  1  0  0  0  0
 23 38  1  0  0  0  0
 23 39  2  0  0  0  0
 23 40  1  0  0  0  0
 24 26  2  0  0  0  0
 24 46  1  0  0  0  0
 25 27  2  0  0  0  0
 25 47  1  0  0  0  0
 26 55  1  0  0  0  0
 27 48  1  0  0  0  0
 28 67  1  0  0  0  0
 29 68  1  0  0  0  0
 30 69  1  0  0  0  0
 31 80  1  0  0  0  0
 32 81  1  0  0  0  0
 33 91  1  0  0  0  0
 34 92  1  0  0  0  0
 35 37  2  0  0  0  0
 35 91  1  0  0  0  0
 36 93  1  0  0  0  0
 37 94  1  0  0  0  0
 38 74  2  0  0  0  0
 39 75  1  0  0  0  0
 39 78  1  0  0  0  0
 40 79  1  0  0  0  0
 40 85  2  0  0  0  0
 41 56  1  0  0  0  0
 41 82  1  0  0  0  0
 41 86  2  0  0  0  0
 42 70  1  0  0  0  0
 42 76  1  0  0  0  0
 42 87  2  0  0  0  0
 43 68  1  0  0  0  0
 43 80  1  0  0  0  0
 43 88  2  0  0  0  0
 44 71  1  0  0  0  0
 44 83  1  0  0  0  0
 44 89  2  0  0  0  0
 45 77  1  0  0  0  0
 45 81  1  0  0  0  0
 45 90  2  0  0  0  0
 46 49  1  0  0  0  0
 47 56  1  0  0  0  0
 48 76  1  0  0  0  0
 49 51  1  0  0  0  0
 50 52  1  0  0  0  0
 50 53  1  0  0  0  0
 51 55  1  0  0  0  0
 52 57  1  0  0  0  0
 53 77  1  0  0  0  0
 54 57  1  0  0  0  0
 54 77  1  0  0  0  0
 55 82  1  0  0  0  0
 56 76  1  0  0  0  0
 57 75  1  0  0  0  0
 58 68  1  0  0  0  0
 59 69  1  0  0  0  0
 60 69  1  0  0  0  0
 61 71  1  0  0  0  0
 62 72  1  0  0  0  0
 63 73  1  0  0  0  0
 64 73  1  0  0  0  0
 65 73  1  0  0  0  0
 66 84  1  0  0  0  0
 67 72  1  0  0  0  0
 70 73  1  0  0  0  0
 70 83  1  0  0  0  0
 71 84  1  0  0  0  0
 72 92  1  0  0  0  0
 74 75  1  0  0  0  0
M  CHG  1  84   1
M  ISO  4  45 100  72 101  81 100  92 101
M  END
> <Batch ID>
0139

> <Smiles>
CNC(C)C(=O)NC(C(=O)N1Cc2cc([101O:1][101CH:1](C)Cc3cccc(C(C)C(=O)Nc4cc([100NH:0][100C:0](=O)N5CCCC(n6nc(-c7ccc(Oc8ccc(F)cc8F)cc7)c(C(N)=O)c6N)C5)cc(C(C)C)c4)c3)ccc2CC1C(=O)NC1CCCc2ccccc21)C(C)(C)C

> <Shape>
0.250

> <Color>
0.161

> <Negative vol penalty>
0.000

$$$$

  -OEChem-04052302483D

 88 96  0     1  0  0  0  0  0999 V2000
  -38.6187  -19.4274    9.7207 C   0  0  0  0  0  0  0  0  0  0  0  0
  -38.7703  -18.7855   10.9456 C   0  0  0  0  0  0  0  0  0  0  0  0
  -23.0016   -9.8923   19.9811 C   0  0  0  0  0  0  0  0  0  0  0  0
  -23.7262   -9.9447   22.2853 C   0  0  0  0  0  0  0  0  0  0  0  0
  -38.3478  -20.7945    9.6802 C   0  0  0  0  0  0  0  0  0  0  0  0
  -38.6521  -19.5106   12.1308 C   0  0  0  0  0  0  0  0  0  0  0  0
  -36.3244  -17.5338   17.4393 C   0  0  0  0  0  0  0  0  0  0  0  0
  -22.2355   -8.7576   20.2478 C   0  0  0  0  0  0  0  0  0  0  0  0
  -22.9600   -8.8101   22.5521 C   0  0  0  0  0  0  0  0  0  0  0  0
  -36.9210  -17.0502   18.6029 C   0  0  0  0  0  0  0  0  0  0  0  0
  -23.2059   -5.4710   22.0819 C   0  0  0  0  0  0  0  0  0  0  0  0
  -23.7936   -4.4544   22.8347 C   0  0  0  0  0  0  0  0  0  0  0  0
  -36.7939  -19.2536   19.5766 C   0  0  0  0  0  0  0  0  0  0  0  0
  -31.8871  -18.3324   24.1574 C   0  0  0  0  0  0  0  0  0  0  0  0
  -32.0569  -16.5383   22.5483 C   0  0  0  0  0  0  0  0  0  0  0  0
  -22.0692   -4.6975   24.5093 C   0  0  0  0  0  0  0  0  0  0  0  0
  -23.7470  -10.4858   20.9998 C   0  0  0  0  0  0  0  0  0  0  0  0
  -24.1313  -13.0015   20.8226 C   0  0  0  0  0  0  0  0  0  0  0  0
  -38.2166  -21.5348   10.8657 C   0  0  0  0  0  0  0  0  0  0  0  0
  -35.9674  -18.8856   17.3314 C   0  0  0  0  0  0  0  0  0  0  0  0
  -38.3805  -20.8891   12.1061 C   0  0  0  0  0  0  0  0  0  0  0  0
  -36.1906  -19.7513   18.4116 C   0  0  0  0  0  0  0  0  0  0  0  0
  -30.5021  -18.3489   23.9930 C   0  0  0  0  0  0  0  0  0  0  0  0
  -29.8944  -17.4601   23.1062 C   0  0  0  0  0  0  0  0  0  0  0  0
  -32.6645  -17.4271   23.4351 C   0  0  0  0  0  0  0  0  0  0  0  0
  -30.6718  -16.5547   22.3839 C   0  0  0  0  0  0  0  0  0  0  0  0
  -22.2147   -8.2165   21.5333 C   0  0  0  0  0  0  0  0  0  0  0  0
  -37.1585  -17.9108   19.6707 C   0  0  0  0  0  0  0  0  0  0  0  0
  -22.0498   -6.1009   22.5429 C   0  0  0  0  0  0  0  0  0  0  0  0
  -23.2253   -4.0676   24.0484 C   0  0  0  0  0  0  0  0  0  0  0  0
  -21.4815   -5.7141   23.7566 C   0  0  0  0  0  0  0  0  0  0  0  0
  -24.5391  -11.6576   20.7248 C   0  0  0  0  0  0  0  0  0  0  0  0
  -25.2409  -13.7244   20.4582 C   0  0  0  0  0  0  0  0  0  0  0  0
  -22.8630  -13.5476   21.2086 C   0  0  0  0  0  0  0  0  0  0  0  0
  -36.8246  -21.2874   15.4339 C   0  0  0  0  0  0  0  0  0  0  0  0
  -36.3601  -16.7579   23.3199 C   0  0  0  0  0  0  0  0  0  0  0  0
  -34.4596  -22.8576   17.0033 C   0  0  0  0  0  0  0  0  0  0  0  0
  -32.5238  -23.1312   19.8006 C   0  0  0  0  0  0  0  0  0  0  0  0
  -30.7199  -14.6879   20.6931 C   0  0  0  0  0  0  0  0  0  0  0  0
  -37.9703  -23.0197   10.7708 C   0  0  0  0  0  0  0  0  0  0  0  0
  -35.3004  -19.3859   16.0795 C   0  0  0  0  0  0  0  0  0  0  0  0
  -35.8075  -21.2068   18.3537 C   0  0  0  0  0  0  0  0  0  0  0  0
  -37.4889  -23.6421   12.0789 C   0  0  0  0  0  0  0  0  0  0  0  0
  -29.6032  -12.2333   18.3681 C   0  0  0  0  0  0  0  0  0  0  0  0
  -38.3421  -23.1570   13.2466 C   0  0  0  0  0  0  0  0  0  0  0  0
  -28.1526  -11.9753   18.7820 C   0  0  0  0  0  0  0  0  0  0  0  0
  -30.5033  -12.4777   19.5780 C   0  0  0  0  0  0  0  0  0  0  0  0
  -28.5873  -13.2665   20.9106 C   0  0  0  0  0  0  0  0  0  0  0  0
  -38.2349  -21.6365   13.4139 C   0  0  1  0  0  0  0  0  0  0  0  0
  -35.4471  -20.8919   15.8852 C   0  0  1  0  0  0  0  0  0  0  0  0
  -27.6300  -13.0791   19.7223 C   0  0  2  0  0  0  0  0  0  0  0  0
  -28.4080  -17.4825   22.9326 C   0  0  0  0  0  0  0  0  0  0  0  0
  -29.2455  -20.5178   23.9330 C   0  0  0  0  0  0  0  0  0  0  0  0
  -30.7051  -24.5365   20.8078 C   0  0  0  0  0  0  0  0  0  0  0  0
  -37.2122  -14.4095   23.0065 C   0  0  0  0  0  0  0  0  0  0  0  0
  -38.8189  -16.3054   23.2723 C   0  0  0  0  0  0  0  0  0  0  0  0
  -36.4980  -25.0380   17.6360 C   0  0  0  0  0  0  0  0  0  0  0  0
  -34.9310  -25.8971   19.3895 C   0  0  0  0  0  0  0  0  0  0  0  0
  -34.2329  -25.8819   16.9947 C   0  0  0  0  0  0  0  0  0  0  0  0
  -30.6632  -20.8336   19.9346 C   0  0  0  0  0  0  0  0  0  0  0  0
  -29.6929  -19.3290   24.7780 C   0  0  0  0  0  0  0  0  0  0  0  0
  -34.9216  -16.5107   22.8952 C   0  0  0  0  0  0  0  0  0  0  0  0
  -37.5018  -16.0755   21.1438 C   0  0  0  0  0  0  0  0  0  1  0  0
  -34.3814  -23.6960   18.2563 C   0  0  1  0  0  0  0  0  0  0  0  0
  -31.0260  -23.3045   19.9760 C   0  0  2  0  0  0  0  0  0  0  0  0
  -37.4668  -15.8924   22.6721 C   0  0  0  0  0  0  0  0  0  0  0  0
  -35.0199  -25.1013   18.0698 C   0  0  0  0  0  0  0  0  0  0  0  0
  -25.8085  -11.5315   20.3290 N   0  0  0  0  0  0  0  0  0  0  0  0
  -26.2080  -12.8053   20.1749 N   0  0  0  0  0  0  0  0  0  0  0  0
  -35.1638  -21.6495   17.1058 N   0  0  0  0  0  0  0  0  0  0  0  0
  -29.9476  -13.5389   20.4206 N   0  0  0  0  0  0  0  0  0  0  0  0
  -25.4738  -15.0501   20.3555 N   0  0  0  0  0  0  0  0  0  0  0  0
  -21.8315  -12.6632   21.5523 N   0  0  0  0  0  0  0  0  0  0  0  0
  -30.0750  -15.6432   21.4780 N   0  0  0  0  0  0  0  0  0  0  0  0
  -34.0409  -17.4109   23.5995 N   0  0  0  0  0  0  0  0  0  0  0  0
  -36.9893  -21.2858   14.0619 N   0  0  0  0  0  0  0  0  0  0  0  0
  -32.9743  -23.7253   18.6407 N   0  0  0  0  0  0  0  0  0  0  0  0
  -30.4428  -22.1134   20.6559 N   0  3  0  0  0  0  0  0  0  0  0  0
  -22.6458  -14.7828   21.2316 O   0  0  0  0  0  0  0  0  0  0  0  0
  -37.6748  -21.5742   16.2685 O   0  0  0  0  0  0  0  0  0  0  0  0
  -36.6367  -17.6329   24.1447 O   0  0  0  0  0  0  0  0  0  0  0  0
  -33.9098  -23.2563   15.9735 O   0  0  0  0  0  0  0  0  0  0  0  0
  -33.2248  -22.5322   20.6133 O   0  0  0  0  0  0  0  0  0  0  0  0
  -31.8586  -14.8270   20.2393 O   0  0  0  0  0  0  0  0  0  0  0  0
  -21.4670   -7.1094   21.7940 O   0  0  0  0  0  0  0  0  0  0  0  0
  -37.7412  -17.4415   20.8074 O   0  0  0  0  0  0  0  0  0  1  0  0
  -23.7890   -3.0903   24.7704 F   0  0  0  0  0  0  0  0  0  0  0  0
  -20.3702   -6.3147   24.2040 F   0  0  0  0  0  0  0  0  0  0  0  0
  1  2  1  0  0  0  0
  1  5  2  0  0  0  0
  2  6  2  0  0  0  0
  3  8  2  0  0  0  0
  3 17  1  0  0  0  0
  4  9  1  0  0  0  0
  4 17  2  0  0  0  0
  5 19  1  0  0  0  0
  6 21  1  0  0  0  0
  7 10  2  0  0  0  0
  7 20  1  0  0  0  0
  8 27  1  0  0  0  0
  9 27  2  0  0  0  0
 10 28  1  0  0  0  0
 11 12  2  0  0  0  0
 11 29  1  0  0  0  0
 12 30  1  0  0  0  0
 13 22  1  0  0  0  0
 13 28  2  0  0  0  0
 14 23  1  0  0  0  0
 14 25  2  0  0  0  0
 15 25  1  0  0  0  0
 15 26  2  0  0  0  0
 16 30  2  0  0  0  0
 16 31  1  0  0  0  0
 17 32  1  0  0  0  0
 18 32  1  0  0  0  0
 18 33  2  0  0  0  0
 18 34  1  0  0  0  0
 19 21  2  0  0  0  0
 19 40  1  0  0  0  0
 20 22  2  0  0  0  0
 20 41  1  0  0  0  0
 21 49  1  0  0  0  0
 22 42  1  0  0  0  0
 23 24  2  0  0  0  0
 23 61  1  0  0  0  0
 24 26  1  0  0  0  0
 24 52  1  0  0  0  0
 25 75  1  0  0  0  0
 26 74  1  0  0  0  0
 27 85  1  0  0  0  0
 28 86  1  0  0  0  0
 29 31  2  0  0  0  0
 29 85  1  0  0  0  0
 30 87  1  0  0  0  0
 31 88  1  0  0  0  0
 32 68  2  0  0  0  0
 33 69  1  0  0  0  0
 33 72  1  0  0  0  0
 34 73  1  0  0  0  0
 34 79  2  0  0  0  0
 35 50  1  0  0  0  0
 35 76  1  0  0  0  0
 35 80  2  0  0  0  0
 36 62  1  0  0  0  0
 36 66  1  0  0  0  0
 36 81  2  0  0  0  0
 37 64  1  0  0  0  0
 37 70  1  0  0  0  0
 37 82  2  0  0  0  0
 38 65  1  0  0  0  0
 38 77  1  0  0  0  0
 38 83  2  0  0  0  0
 39 71  1  0  0  0  0
 39 74  1  0  0  0  0
 39 84  2  0  0  0  0
 40 43  1  0  0  0  0
 41 50  1  0  0  0  0
 42 70  1  0  0  0  0
 43 45  1  0  0  0  0
 44 46  1  0  0  0  0
 44 47  1  0  0  0  0
 45 49  1  0  0  0  0
 46 51  1  0  0  0  0
 47 71  1  0  0  0  0
 48 51  1  0  0  0  0
 48 71  1  0  0  0  0
 49 76  1  0  0  0  0
 50 70  1  0  0  0  0
 51 69  1  0  0  0  0
 53 61  1  0  0  0  0
 54 65  1  0  0  0  0
 55 66  1  0  0  0  0
 56 66  1  0  0  0  0
 57 67  1  0  0  0  0
 58 67  1  0  0  0  0
 59 67  1  0  0  0  0
 60 78  1  0  0  0  0
 62 75  1  0  0  0  0
 63 66  1  0  0  0  0
 63 86  1  0  0  0  0
 64 67  1  0  0  0  0
 64 77  1  0  0  0  0
 65 78  1  0  0  0  0
 68 69  1  0  0  0  0
M  CHG  1  78   1
M  ISO  4  39 100  63 101  74 100  86 101
M  END
> <Batch ID>
0139

> <Smiles>
CCc1cc(NCC(=O)C(C)(C)[101CH2:1][101O:1]c2ccc3c(c2)CN(C(=O)C(NC(=O)C(C)NC)C(C)(C)C)C(C(=O)NC2CCCc4ccccc42)C3)cc([100NH:0][100C:0](=O)N2CCCC(n3nc(-c4ccc(Oc5ccc(F)cc5F)cc4)c(C(N)=O)c3N)C2)c1C

> <Shape>
0.186

> <Color>
0.189

> <Negative vol penalty>
0.000

$$$$

  -OEChem-04052302483D

 85 93  0     1  0  0  0  0  0999 V2000
  -30.8653  -35.2831   22.6264 C   0  0  0  0  0  0  0  0  0  0  0  0
  -30.5089  -34.5802   21.4799 C   0  0  0  0  0  0  0  0  0  0  0  0
  -27.8888  -11.8622   23.1058 C   0  0  0  0  0  0  0  0  0  0  0  0
  -26.5903  -12.7970   21.2956 C   0  0  0  0  0  0  0  0  0  0  0  0
  -30.4806  -34.8102   23.8804 C   0  0  0  0  0  0  0  0  0  0  0  0
  -29.7685  -33.4035   21.5868 C   0  0  0  0  0  0  0  0  0  0  0  0
  -24.7728  -29.6166   18.1200 C   0  0  0  0  0  0  0  0  0  0  0  0
  -26.8008  -11.0731   23.4788 C   0  0  0  0  0  0  0  0  0  0  0  0
  -25.5023  -12.0079   21.6685 C   0  0  0  0  0  0  0  0  0  0  0  0
  -24.5339  -28.3268   17.6474 C   0  0  0  0  0  0  0  0  0  0  0  0
  -24.5186   -8.7948   21.3096 C   0  0  0  0  0  0  0  0  0  0  0  0
  -23.8252   -8.1301   20.2983 C   0  0  0  0  0  0  0  0  0  0  0  0
  -23.8572  -27.6476   19.8610 C   0  0  0  0  0  0  0  0  0  0  0  0
  -27.6875  -20.9382   18.8035 C   0  0  0  0  0  0  0  0  0  0  0  0
  -21.8060   -9.3081   20.9084 C   0  0  0  0  0  0  0  0  0  0  0  0
  -28.3773  -23.0270   19.1743 C   0  0  0  0  0  0  0  0  0  0  0  0
  -27.7836  -12.7242   22.0142 C   0  0  0  0  0  0  0  0  0  0  0  0
  -29.9298  -13.2045   20.7216 C   0  0  0  0  0  0  0  0  0  0  0  0
  -29.7268  -33.6322   24.0021 C   0  0  0  0  0  0  0  0  0  0  0  0
  -24.5657  -29.9293   19.4712 C   0  0  0  0  0  0  0  0  0  0  0  0
  -29.3745  -32.9137   22.8436 C   0  0  0  0  0  0  0  0  0  0  0  0
  -24.0917  -28.9427   20.3477 C   0  0  0  0  0  0  0  0  0  0  0  0
  -27.5960  -22.2698   18.3328 C   0  0  0  0  0  0  0  0  0  0  0  0
  -25.6075  -11.1459   22.7601 C   0  0  0  0  0  0  0  0  0  0  0  0
  -24.0788  -27.3414   18.5186 C   0  0  0  0  0  0  0  0  0  0  0  0
  -23.8557   -9.7162   22.1205 C   0  0  0  0  0  0  0  0  0  0  0  0
  -22.4689   -8.3867   20.0976 C   0  0  0  0  0  0  0  0  0  0  0  0
  -22.4995   -9.9728   21.9198 C   0  0  0  0  0  0  0  0  0  0  0  0
  -28.9070  -13.5401   21.6288 C   0  0  0  0  0  0  0  0  0  0  0  0
  -30.7479  -14.3075   20.7032 C   0  0  0  0  0  0  0  0  0  0  0  0
  -28.5184  -20.9765   19.8990 C   0  0  0  0  0  0  0  0  0  0  0  0
  -30.1229  -12.0031   19.9633 C   0  0  0  0  0  0  0  0  0  0  0  0
  -26.4193  -30.9298   21.8517 C   0  0  0  0  0  0  0  0  0  0  0  0
  -23.5997  -31.1360   23.4422 C   0  0  0  0  0  0  0  0  0  0  0  0
  -20.3632  -30.0975   23.7480 C   0  0  0  0  0  0  0  0  0  0  0  0
  -29.8236  -20.0955   21.8654 C   0  0  0  0  0  0  0  0  0  0  0  0
  -29.3746  -33.1350   25.3817 C   0  0  0  0  0  0  0  0  0  0  0  0
  -24.8025  -31.3320   19.9596 C   0  0  0  0  0  0  0  0  0  0  0  0
  -23.8342  -29.2323   21.8031 C   0  0  0  0  0  0  0  0  0  0  0  0
  -28.2708  -32.0805   25.3858 C   0  0  0  0  0  0  0  0  0  0  0  0
  -32.1805  -17.9538   23.4577 C   0  0  0  0  0  0  0  0  0  0  0  0
  -28.5379  -31.0240   24.3184 C   0  0  0  0  0  0  0  0  0  0  0  0
  -31.7051  -16.5485   23.0818 C   0  0  0  0  0  0  0  0  0  0  0  0
  -31.0084  -18.9041   23.6962 C   0  0  0  0  0  0  0  0  0  0  0  0
  -29.5539  -17.5634   22.2278 C   0  0  0  0  0  0  0  0  0  0  0  0
  -28.5506  -31.6464   22.9170 C   0  0  1  0  0  0  0  0  0  0  0  0
  -25.0487  -31.4076   21.4633 C   0  0  1  0  0  0  0  0  0  0  0  0
  -30.6995  -16.5872   21.9144 C   0  0  2  0  0  0  0  0  0  0  0  0
  -28.8712  -22.4952   15.5327 C   0  0  0  0  0  0  0  0  0  0  0  0
  -18.3179  -30.4159   25.1668 C   0  0  0  0  0  0  0  0  0  0  0  0
  -26.0085  -21.6587   16.3841 C   0  0  0  0  0  0  0  0  0  0  0  0
  -24.8483  -29.4086   25.6255 C   0  0  0  0  0  0  0  0  0  0  0  0
  -22.5443  -28.9779   26.5054 C   0  0  0  0  0  0  0  0  0  0  0  0
  -23.4483  -31.3025   26.4667 C   0  0  0  0  0  0  0  0  0  0  0  0
  -23.3082  -23.2903   17.3070 C   0  0  0  0  0  0  0  0  0  0  0  0
  -24.5313  -22.6098   19.3829 C   0  0  0  0  0  0  0  0  0  0  0  0
  -18.7880  -31.1076   21.4551 C   0  0  0  0  0  0  0  0  0  0  0  0
  -27.7848  -23.4145   16.0874 C   0  0  0  0  0  0  0  0  0  0  0  0
  -25.7864  -23.9315   17.5249 C   0  0  0  0  0  0  0  0  0  0  0  0
  -24.0278  -25.0097   18.9837 C   0  0  0  0  0  0  0  0  0  1  0  0
  -22.7813  -30.1957   24.2936 C   0  0  1  0  0  0  0  0  0  0  0  0
  -19.0695  -30.8716   23.9257 C   0  0  2  0  0  0  0  0  0  0  0  0
  -26.7834  -22.7732   17.1213 C   0  0  2  0  0  0  0  0  0  0  0  0
  -23.4121  -29.9649   25.6959 C   0  0  0  0  0  0  0  0  0  0  0  0
  -24.4381  -23.6786   18.2850 C   0  0  0  0  0  0  0  0  0  0  0  0
  -29.0593  -14.7607   22.1492 N   0  0  0  0  0  0  0  0  0  0  0  0
  -30.1875  -15.2018   21.5672 N   0  0  0  0  0  0  0  0  0  0  0  0
  -24.0867  -30.6173   22.2340 N   0  0  0  0  0  0  0  0  0  0  0  0
  -30.1002  -18.8917   22.5473 N   0  0  0  0  0  0  0  0  0  0  0  0
  -31.8850  -14.5900   20.0326 N   0  0  0  0  0  0  0  0  0  0  0  0
  -29.1876  -10.9685   20.1009 N   0  0  0  0  0  0  0  0  0  0  0  0
  -28.9725  -19.9550   20.7697 N   0  0  0  0  0  0  0  0  0  0  0  0
  -27.1993  -31.8937   22.4616 N   0  0  0  0  0  0  0  0  0  0  0  0
  -21.4313  -30.7476   24.3293 N   0  0  0  0  0  0  0  0  0  0  0  0
  -18.1838  -30.6787   22.7428 N   0  3  0  0  0  0  0  0  0  0  0  0
  -31.1051  -11.8453   19.1990 O   0  0  0  0  0  0  0  0  0  0  0  0
  -26.7445  -29.7718   21.6169 O   0  0  0  0  0  0  0  0  0  0  0  0
  -23.7935  -32.2904   23.8312 O   0  0  0  0  0  0  0  0  0  0  0  0
  -20.4199  -29.0218   23.1563 O   0  0  0  0  0  0  0  0  0  0  0  0
  -30.3278  -21.1673   22.2103 O   0  0  0  0  0  0  0  0  0  0  0  0
  -28.9432  -22.2461   20.1317 O   0  0  0  0  0  0  0  0  0  0  0  0
  -24.5457  -10.3759   23.1236 O   0  0  0  0  0  0  0  0  0  0  0  0
  -23.8439  -26.0729   18.0569 O   0  0  0  0  0  0  0  0  0  1  0  0
  -21.8035   -7.7495   19.1253 F   0  0  0  0  0  0  0  0  0  0  0  0
  -21.8575  -10.8578   22.6948 F   0  0  0  0  0  0  0  0  0  0  0  0
  1  2  1  0  0  0  0
  1  5  2  0  0  0  0
  2  6  2  0  0  0  0
  3  8  2  0  0  0  0
  3 17  1  0  0  0  0
  4  9  1  0  0  0  0
  4 17  2  0  0  0  0
  5 19  1  0  0  0  0
  6 21  1  0  0  0  0
  7 10  2  0  0  0  0
  7 20  1  0  0  0  0
  8 24  1  0  0  0  0
  9 24  2  0  0  0  0
 10 25  1  0  0  0  0
 11 12  2  0  0  0  0
 11 26  1  0  0  0  0
 12 27  1  0  0  0  0
 13 22  1  0  0  0  0
 13 25  2  0  0  0  0
 14 23  1  0  0  0  0
 14 31  2  0  0  0  0
 15 27  2  0  0  0  0
 15 28  1  0  0  0  0
 16 23  2  0  0  0  0
 16 81  1  0  0  0  0
 17 29  1  0  0  0  0
 18 29  1  0  0  0  0
 18 30  2  0  0  0  0
 18 32  1  0  0  0  0
 19 21  2  0  0  0  0
 19 37  1  0  0  0  0
 20 22  2  0  0  0  0
 20 38  1  0  0  0  0
 21 46  1  0  0  0  0
 22 39  1  0  0  0  0
 23 63  1  0  0  0  0
 24 82  1  0  0  0  0
 25 83  1  0  0  0  0
 26 28  2  0  0  0  0
 26 82  1  0  0  0  0
 27 84  1  0  0  0  0
 28 85  1  0  0  0  0
 29 66  2  0  0  0  0
 30 67  1  0  0  0  0
 30 70  1  0  0  0  0
 31 72  1  0  0  0  0
 31 81  1  0  0  0  0
 32 71  1  0  0  0  0
 32 76  2  0  0  0  0
 33 47  1  0  0  0  0
 33 73  1  0  0  0  0
 33 77  2  0  0  0  0
 34 61  1  0  0  0  0
 34 68  1  0  0  0  0
 34 78  2  0  0  0  0
 35 62  1  0  0  0  0
 35 74  1  0  0  0  0
 35 79  2  0  0  0  0
 36 69  1  0  0  0  0
 36 72  1  0  0  0  0
 36 80  2  0  0  0  0
 37 40  1  0  0  0  0
 38 47  1  0  0  0  0
 39 68  1  0  0  0  0
 40 42  1  0  0  0  0
 41 43  1  0  0  0  0
 41 44  1  0  0  0  0
 42 46  1  0  0  0  0
 43 48  1  0  0  0  0
 44 69  1  0  0  0  0
 45 48  1  0  0  0  0
 45 69  1  0  0  0  0
 46 73  1  0  0  0  0
 47 68  1  0  0  0  0
 48 67  1  0  0  0  0
 49 58  1  0  0  0  0
 50 62  1  0  0  0  0
 51 63  1  0  0  0  0
 52 64  1  0  0  0  0
 53 64  1  0  0  0  0
 54 64  1  0  0  0  0
 55 65  1  0  0  0  0
 56 65  1  0  0  0  0
 57 75  1  0  0  0  0
 58 63  1  0  0  0  0
 59 63  1  0  0  0  0
 59 65  1  0  0  0  0
 60 65  1  0  0  0  0
 60 83  1  0  0  0  0
 61 64  1  0  0  0  0
 61 74  1  0  0  0  0
 62 75  1  0  0  0  0
 66 67  1  0  0  0  0
M  CHG  1  75   1
M  ISO  4  36 100  60 101  72 100  83 101
M  END
> <Batch ID>
0139

> <Smiles>
CCC(C)(CC(C)(C)[101CH2:1][101O:1]c1ccc2c(c1)CN(C(=O)C(NC(=O)C(C)NC)C(C)(C)C)C(C(=O)NC1CCCc3ccccc31)C2)c1coc([100NH:0][100C:0](=O)N2CCCC(n3nc(-c4ccc(Oc5ccc(F)cc5F)cc4)c(C(N)=O)c3N)C2)c1

> <Shape>
0.262

> <Color>
0.071

> <Negative vol penalty>
0.000

$$$$

  -OEChem-04052302483D

 85 93  0     1  0  0  0  0  0999 V2000
  -20.1643  -31.4134   21.8712 C   0  0  0  0  0  0  0  0  0  0  0  0
  -21.4136  -30.8037   21.8166 C   0  0  0  0  0  0  0  0  0  0  0  0
  -27.2934  -12.8255   21.2853 C   0  0  0  0  0  0  0  0  0  0  0  0
  -27.1294  -13.6449   19.0185 C   0  0  0  0  0  0  0  0  0  0  0  0
  -19.0380  -30.6633   22.2069 C   0  0  0  0  0  0  0  0  0  0  0  0
  -21.5374  -29.4437   22.0988 C   0  0  0  0  0  0  0  0  0  0  0  0
  -24.5023  -27.0324   18.7762 C   0  0  0  0  0  0  0  0  0  0  0  0
  -26.5317  -11.7101   20.9373 C   0  0  0  0  0  0  0  0  0  0  0  0
  -26.3676  -12.5295   18.6704 C   0  0  0  0  0  0  0  0  0  0  0  0
  -25.8803  -27.1817   18.9269 C   0  0  0  0  0  0  0  0  0  0  0  0
  -23.2700  -10.9804   20.4337 C   0  0  0  0  0  0  0  0  0  0  0  0
  -22.2458  -10.5999   21.3006 C   0  0  0  0  0  0  0  0  0  0  0  0
  -25.9874  -25.0339   20.0198 C   0  0  0  0  0  0  0  0  0  0  0  0
  -31.0316  -23.9341   20.3321 C   0  0  0  0  0  0  0  0  0  0  0  0
  -23.2996   -8.4467   21.6006 C   0  0  0  0  0  0  0  0  0  0  0  0
  -32.1319  -22.3146   19.2201 C   0  0  0  0  0  0  0  0  0  0  0  0
  -27.5922  -13.7930   20.3259 C   0  0  0  0  0  0  0  0  0  0  0  0
  -29.7797  -15.0702   20.6283 C   0  0  0  0  0  0  0  0  0  0  0  0
  -19.1466  -29.2914   22.4839 C   0  0  0  0  0  0  0  0  0  0  0  0
  -23.8539  -25.8856   19.2567 C   0  0  0  0  0  0  0  0  0  0  0  0
  -20.4117  -28.6749   22.4398 C   0  0  0  0  0  0  0  0  0  0  0  0
  -24.6016  -24.8712   19.8716 C   0  0  0  0  0  0  0  0  0  0  0  0
  -31.0128  -22.5608   19.9846 C   0  0  0  0  0  0  0  0  0  0  0  0
  -26.0688  -11.5620   19.6298 C   0  0  0  0  0  0  0  0  0  0  0  0
  -26.6226  -26.1837   19.5514 C   0  0  0  0  0  0  0  0  0  0  0  0
  -24.3091  -10.0940   20.1501 C   0  0  0  0  0  0  0  0  0  0  0  0
  -22.2605   -9.3331   21.8841 C   0  0  0  0  0  0  0  0  0  0  0  0
  -24.3239   -8.8272   20.7336 C   0  0  0  0  0  0  0  0  0  0  0  0
  -28.3786  -14.9458   20.6850 C   0  0  0  0  0  0  0  0  0  0  0  0
  -32.1616  -24.4853   19.7693 C   0  0  0  0  0  0  0  0  0  0  0  0
  -30.0292  -16.3464   21.0707 C   0  0  0  0  0  0  0  0  0  0  0  0
  -30.7673  -14.1175   20.2130 C   0  0  0  0  0  0  0  0  0  0  0  0
  -21.6027  -25.3261   21.4298 C   0  0  0  0  0  0  0  0  0  0  0  0
  -30.6465  -26.9836   18.7026 C   0  0  0  0  0  0  0  0  0  0  0  0
  -21.8060  -22.2951   20.2922 C   0  0  0  0  0  0  0  0  0  0  0  0
  -23.6659  -19.9158   18.7028 C   0  0  0  0  0  0  0  0  0  0  0  0
  -28.8929  -21.7970   21.1110 C   0  0  0  0  0  0  0  0  0  0  0  0
  -17.9078  -28.5321   22.8883 C   0  0  0  0  0  0  0  0  0  0  0  0
  -22.3708  -25.7276   19.0624 C   0  0  0  0  0  0  0  0  0  0  0  0
  -23.9562  -23.6116   20.3868 C   0  0  0  0  0  0  0  0  0  0  0  0
  -18.0689  -27.0163   22.8074 C   0  0  0  0  0  0  0  0  0  0  0  0
  -26.9727  -19.7242   23.2774 C   0  0  0  0  0  0  0  0  0  0  0  0
  -19.3838  -26.5842   23.4487 C   0  0  0  0  0  0  0  0  0  0  0  0
  -27.2825  -18.3065   22.7914 C   0  0  0  0  0  0  0  0  0  0  0  0
  -26.8948  -20.7167   22.1186 C   0  0  0  0  0  0  0  0  0  0  0  0
  -28.3717  -19.3056   20.7414 C   0  0  0  0  0  0  0  0  0  0  0  0
  -20.5829  -27.1967   22.7150 C   0  0  1  0  0  0  0  0  0  0  0  0
  -21.7397  -24.7499   20.0489 C   0  0  1  0  0  0  0  0  0  0  0  0
  -28.5243  -18.2824   21.8787 C   0  0  2  0  0  0  0  0  0  0  0  0
  -23.5774  -17.5231   17.9513 C   0  0  0  0  0  0  0  0  0  0  0  0
  -32.8168  -28.2562   18.8279 C   0  0  0  0  0  0  0  0  0  0  0  0
  -32.6536  -26.2824   17.3367 C   0  0  0  0  0  0  0  0  0  0  0  0
  -22.2422  -21.3779   23.1695 C   0  0  0  0  0  0  0  0  0  0  0  0
  -23.0777  -19.1946   22.2732 C   0  0  0  0  0  0  0  0  0  0  0  0
  -20.7302  -19.9088   21.8241 C   0  0  0  0  0  0  0  0  0  0  0  0
  -34.0593  -23.6423   18.3612 C   0  0  0  0  0  0  0  0  0  0  0  0
  -24.0084  -20.6739   15.8625 C   0  0  0  0  0  0  0  0  0  0  0  0
  -32.6759  -25.9060   19.8200 C   0  0  0  0  0  0  0  0  0  0  0  0
  -29.9881  -27.6232   19.9244 C   0  0  0  0  0  0  0  0  0  0  0  0
  -28.4682  -27.6571   19.8323 C   0  0  0  0  0  0  0  0  0  1  0  0
  -22.6304  -21.0778   20.6347 C   0  0  1  0  0  0  0  0  0  0  0  0
  -23.3318  -18.9724   17.5613 C   0  0  2  0  0  0  0  0  0  0  0  0
  -32.1893  -26.8540   18.6910 C   0  0  0  0  0  0  0  0  0  0  0  0
  -22.1823  -20.4143   21.9675 C   0  0  0  0  0  0  0  0  0  0  0  0
  -27.7799  -16.0543   21.1285 N   0  0  0  0  0  0  0  0  0  0  0  0
  -32.8226  -23.4917   19.0956 N   0  0  0  0  0  0  0  0  0  0  0  0
  -28.8099  -16.8875   21.3546 N   0  0  0  0  0  0  0  0  0  0  0  0
  -22.5025  -23.5067   20.1788 N   0  0  0  0  0  0  0  0  0  0  0  0
  -28.1068  -20.6407   21.3001 N   0  0  0  0  0  0  0  0  0  0  0  0
  -31.1704  -17.0471   21.2406 N   0  0  0  0  0  0  0  0  0  0  0  0
  -30.3384  -12.8528   19.7877 N   0  0  0  0  0  0  0  0  0  0  0  0
  -30.0385  -21.5960   20.3417 N   0  0  0  0  0  0  0  0  0  0  0  0
  -20.8434  -26.4793   21.4854 N   0  0  0  0  0  0  0  0  0  0  0  0
  -22.5581  -20.1962   19.4744 N   0  0  0  0  0  0  0  0  0  0  0  0
  -24.1680  -19.2862   16.3684 N   0  3  0  0  0  0  0  0  0  0  0  0
  -31.9950  -14.3743   20.2343 O   0  0  0  0  0  0  0  0  0  0  0  0
  -22.1444  -24.7651   22.3751 O   0  0  0  0  0  0  0  0  0  0  0  0
  -29.9690  -26.6014   17.7453 O   0  0  0  0  0  0  0  0  0  0  0  0
  -20.5899  -22.1742   20.1243 O   0  0  0  0  0  0  0  0  0  0  0  0
  -24.7972  -20.3567   18.8932 O   0  0  0  0  0  0  0  0  0  0  0  0
  -28.5876  -22.8793   21.6183 O   0  0  0  0  0  0  0  0  0  0  0  0
  -25.3257  -10.4736   19.2898 O   0  0  0  0  0  0  0  0  0  0  0  0
  -27.9676  -26.3273   19.7004 O   0  0  0  0  0  0  0  0  0  1  0  0
  -21.2776   -8.9684   22.7178 F   0  0  0  0  0  0  0  0  0  0  0  0
  -25.3201   -7.9717   20.4660 F   0  0  0  0  0  0  0  0  0  0  0  0
  1  2  1  0  0  0  0
  1  5  2  0  0  0  0
  2  6  2  0  0  0  0
  3  8  2  0  0  0  0
  3 17  1  0  0  0  0
  4  9  1  0  0  0  0
  4 17  2  0  0  0  0
  5 19  1  0  0  0  0
  6 21  1  0  0  0  0
  7 10  2  0  0  0  0
  7 20  1  0  0  0  0
  8 24  1  0  0  0  0
  9 24  2  0  0  0  0
 10 25  1  0  0  0  0
 11 12  2  0  0  0  0
 11 26  1  0  0  0  0
 12 27  1  0  0  0  0
 13 22  1  0  0  0  0
 13 25  2  0  0  0  0
 14 23  1  0  0  0  0
 14 30  2  0  0  0  0
 15 27  2  0  0  0  0
 15 28  1  0  0  0  0
 16 23  2  0  0  0  0
 16 66  1  0  0  0  0
 17 29  1  0  0  0  0
 18 29  1  0  0  0  0
 18 31  2  0  0  0  0
 18 32  1  0  0  0  0
 19 21  2  0  0  0  0
 19 38  1  0  0  0  0
 20 22  2  0  0  0  0
 20 39  1  0  0  0  0
 21 47  1  0  0  0  0
 22 40  1  0  0  0  0
 23 72  1  0  0  0  0
 24 82  1  0  0  0  0
 25 83  1  0  0  0  0
 26 28  2  0  0  0  0
 26 82  1  0  0  0  0
 27 84  1  0  0  0  0
 28 85  1  0  0  0  0
 29 65  2  0  0  0  0
 30 58  1  0  0  0  0
 30 66  1  0  0  0  0
 31 67  1  0  0  0  0
 31 70  1  0  0  0  0
 32 71  1  0  0  0  0
 32 76  2  0  0  0  0
 33 48  1  0  0  0  0
 33 73  1  0  0  0  0
 33 77  2  0  0  0  0
 34 59  1  0  0  0  0
 34 63  1  0  0  0  0
 34 78  2  0  0  0  0
 35 61  1  0  0  0  0
 35 68  1  0  0  0  0
 35 79  2  0  0  0  0
 36 62  1  0  0  0  0
 36 74  1  0  0  0  0
 36 80  2  0  0  0  0
 37 69  1  0  0  0  0
 37 72  1  0  0  0  0
 37 81  2  0  0  0  0
 38 41  1  0  0  0  0
 39 48  1  0  0  0  0
 40 68  1  0  0  0  0
 41 43  1  0  0  0  0
 42 44  1  0  0  0  0
 42 45  1  0  0  0  0
 43 47  1  0  0  0  0
 44 49  1  0  0  0  0
 45 69  1  0  0  0  0
 46 49  1  0  0  0  0
 46 69  1  0  0  0  0
 47 73  1  0  0  0  0
 48 68  1  0  0  0  0
 49 67  1  0  0  0  0
 50 62  1  0  0  0  0
 51 63  1  0  0  0  0
 52 63  1  0  0  0  0
 53 64  1  0  0  0  0
 54 64  1  0  0  0  0
 55 64  1  0  0  0  0
 56 66  1  0  0  0  0
 57 75  1  0  0  0  0
 58 63  1  0  0  0  0
 59 60  1  0  0  0  0
 60 83  1  0  0  0  0
 61 64  1  0  0  0  0
 61 74  1  0  0  0  0
 62 75  1  0  0  0  0
 65 67  1  0  0  0  0
M  CHG  1  75   1
M  ISO  4  37 100  60 101  72 100  83 101
M  END
> <Batch ID>
0139

> <Smiles>
CNC(C)C(=O)NC(C(=O)N1Cc2cc([101O:1][101CH2:1]CC(=O)C(C)(C)Cc3cc([100NH:0][100C:0](=O)N4CCCC(n5nc(-c6ccc(Oc7ccc(F)cc7F)cc6)c(C(N)=O)c5N)C4)cn3C)ccc2CC1C(=O)NC1CCCc2ccccc21)C(C)(C)C

> <Shape>
0.243

> <Color>
0.063

> <Negative vol penalty>
0.000

$$$$

  -OEChem-04052302483D

 84 92  0     1  0  0  0  0  0999 V2000
  -18.4166  -32.7475   20.2357 C   0  0  0  0  0  0  0  0  0  0  0  0
  -19.7770  -32.6185   19.9744 C   0  0  0  0  0  0  0  0  0  0  0  0
  -26.2967  -12.8688   21.5743 C   0  0  0  0  0  0  0  0  0  0  0  0
  -25.5586  -13.8825   19.5092 C   0  0  0  0  0  0  0  0  0  0  0  0
  -17.8632  -32.1378   21.3609 C   0  0  0  0  0  0  0  0  0  0  0  0
  -20.5849  -31.8806   20.8387 C   0  0  0  0  0  0  0  0  0  0  0  0
  -25.4212  -28.4430   19.3223 C   0  0  0  0  0  0  0  0  0  0  0  0
  -25.1086  -12.1411   21.6417 C   0  0  0  0  0  0  0  0  0  0  0  0
  -24.3706  -13.1547   19.5765 C   0  0  0  0  0  0  0  0  0  0  0  0
  -26.7933  -28.6873   19.3565 C   0  0  0  0  0  0  0  0  0  0  0  0
  -23.8047   -9.3640   20.2204 C   0  0  0  0  0  0  0  0  0  0  0  0
  -23.8913   -8.0101   20.5449 C   0  0  0  0  0  0  0  0  0  0  0  0
  -26.9266  -27.6033   21.5074 C   0  0  0  0  0  0  0  0  0  0  0  0
  -22.5125   -8.3887   22.4924 C   0  0  0  0  0  0  0  0  0  0  0  0
  -26.5217  -13.7396   20.5081 C   0  0  0  0  0  0  0  0  0  0  0  0
  -28.9504  -14.1027   19.8173 C   0  0  0  0  0  0  0  0  0  0  0  0
  -18.6630  -31.3840   22.2342 C   0  0  0  0  0  0  0  0  0  0  0  0
  -24.7885  -27.7855   20.3871 C   0  0  0  0  0  0  0  0  0  0  0  0
  -20.0419  -31.2613   21.9773 C   0  0  0  0  0  0  0  0  0  0  0  0
  -25.5467  -27.3495   21.4831 C   0  0  0  0  0  0  0  0  0  0  0  0
  -24.1456  -12.2840   20.6428 C   0  0  0  0  0  0  0  0  0  0  0  0
  -27.5458  -28.2700   20.4505 C   0  0  0  0  0  0  0  0  0  0  0  0
  -23.0720  -10.2302   21.0320 C   0  0  0  0  0  0  0  0  0  0  0  0
  -23.2452   -7.5225   21.6808 C   0  0  0  0  0  0  0  0  0  0  0  0
  -22.4259   -9.7425   22.1680 C   0  0  0  0  0  0  0  0  0  0  0  0
  -27.7484  -14.4921   20.4382 C   0  0  0  0  0  0  0  0  0  0  0  0
  -29.1618  -23.0356   16.5578 C   0  0  0  0  0  0  0  0  0  0  0  0
  -29.0582  -23.8404   17.6730 C   0  0  0  0  0  0  0  0  0  0  0  0
  -29.8038  -15.1578   20.0292 C   0  0  0  0  0  0  0  0  0  0  0  0
  -29.0548  -21.8886   18.6733 C   0  0  0  0  0  0  0  0  0  0  0  0
  -29.2670  -12.8952   19.1119 C   0  0  0  0  0  0  0  0  0  0  0  0
  -22.5156  -28.5610   22.4695 C   0  0  0  0  0  0  0  0  0  0  0  0
  -22.7971  -25.4497   23.3428 C   0  0  0  0  0  0  0  0  0  0  0  0
  -28.9179  -26.1341   18.6950 C   0  0  0  0  0  0  0  0  0  0  0  0
  -24.7286  -22.6388   23.4675 C   0  0  0  0  0  0  0  0  0  0  0  0
  -28.9241  -20.9842   21.0209 C   0  0  0  0  0  0  0  0  0  0  0  0
  -18.0285  -30.7827   23.4632 C   0  0  0  0  0  0  0  0  0  0  0  0
  -23.3120  -27.5058   20.3228 C   0  0  0  0  0  0  0  0  0  0  0  0
  -24.9188  -26.6216   22.6425 C   0  0  0  0  0  0  0  0  0  0  0  0
  -18.8843  -29.7062   24.1259 C   0  0  0  0  0  0  0  0  0  0  0  0
  -30.6746  -18.7066   23.1245 C   0  0  0  0  0  0  0  0  0  0  0  0
  -20.3293  -30.1776   24.2552 C   0  0  0  0  0  0  0  0  0  0  0  0
  -30.2370  -17.3319   22.6139 C   0  0  0  0  0  0  0  0  0  0  0  0
  -29.5333  -19.7208   23.0721 C   0  0  0  0  0  0  0  0  0  0  0  0
  -28.4348  -18.4701   21.2560 C   0  0  0  0  0  0  0  0  0  0  0  0
  -20.9466  -30.4484   22.8778 C   0  0  1  0  0  0  0  0  0  0  0  0
  -22.6855  -27.2841   21.6960 C   0  0  1  0  0  0  0  0  0  0  0  0
  -29.5684  -17.4319   21.2288 C   0  0  2  0  0  0  0  0  0  0  0  0
  -29.2477  -23.3924   15.1269 C   0  0  0  0  0  0  0  0  0  0  0  0
  -24.6996  -20.2630   24.2749 C   0  0  0  0  0  0  0  0  0  0  0  0
  -23.2071  -26.4204   26.2062 C   0  0  0  0  0  0  0  0  0  0  0  0
  -24.0999  -24.1512   26.7737 C   0  0  0  0  0  0  0  0  0  0  0  0
  -21.7458  -24.4027   25.9879 C   0  0  0  0  0  0  0  0  0  0  0  0
  -29.5412  -30.0052   18.7463 C   0  0  0  0  0  0  0  0  0  0  0  0
  -31.0198  -28.1260   19.4860 C   0  0  0  0  0  0  0  0  0  0  0  0
  -25.0996  -21.5813   20.7284 C   0  0  0  0  0  0  0  0  0  0  0  0
  -28.9073  -27.5878   18.2398 C   0  0  0  0  0  0  0  0  0  0  0  0
  -23.6404  -24.6909   24.3389 C   0  0  1  0  0  0  0  0  0  0  0  0
  -24.4311  -21.1953   23.1038 C   0  0  2  0  0  0  0  0  0  0  0  0
  -23.1851  -24.9317   25.8059 C   0  0  0  0  0  0  0  0  0  0  0  0
  -29.5703  -28.5564   19.2359 C   0  0  0  0  0  0  0  0  0  1  0  0
  -27.8274  -15.7002   21.0024 N   0  0  0  0  0  0  0  0  0  0  0  0
  -28.9963  -23.1844   18.8869 N   0  0  0  0  0  0  0  0  0  0  0  0
  -29.0891  -16.0790   20.7369 N   0  0  0  0  0  0  0  0  0  0  0  0
  -23.4708  -26.3774   22.5358 N   0  0  0  0  0  0  0  0  0  0  0  0
  -28.9513  -19.7641   21.7289 N   0  0  0  0  0  0  0  0  0  0  0  0
  -31.0884  -15.3781   19.6774 N   0  0  0  0  0  0  0  0  0  0  0  0
  -28.2736  -11.9146   18.9865 N   0  0  0  0  0  0  0  0  0  0  0  0
  -29.0152  -25.2537   17.6259 N   0  0  0  0  0  0  0  0  0  0  0  0
  -29.0237  -20.8499   19.6365 N   0  0  0  0  0  0  0  0  0  0  0  0
  -21.3154  -29.2048   22.2360 N   0  0  0  0  0  0  0  0  0  0  0  0
  -23.6036  -23.2928   23.9236 N   0  0  0  0  0  0  0  0  0  0  0  0
  -25.2792  -20.7649   21.9565 N   0  3  0  0  0  0  0  0  0  0  0  0
  -30.4025  -12.6850   18.6221 O   0  0  0  0  0  0  0  0  0  0  0  0
  -23.4068  -28.9337   23.2236 O   0  0  0  0  0  0  0  0  0  0  0  0
  -21.5864  -25.2223   23.2780 O   0  0  0  0  0  0  0  0  0  0  0  0
  -28.8502  -25.8585   19.8898 O   0  0  0  0  0  0  0  0  0  0  0  0
  -25.8478  -23.1355   23.3613 O   0  0  0  0  0  0  0  0  0  0  0  0
  -28.8474  -22.0700   21.6017 O   0  0  0  0  0  0  0  0  0  0  0  0
  -22.9863  -11.5738   20.7081 O   0  0  0  0  0  0  0  0  0  0  0  0
  -28.8852  -28.5078   20.4867 O   0  0  0  0  0  0  0  0  0  1  0  0
  -23.3272   -6.2221   21.9914 F   0  0  0  0  0  0  0  0  0  0  0  0
  -21.7196  -10.5696   22.9508 F   0  0  0  0  0  0  0  0  0  0  0  0
  -29.1855  -21.3890   17.0367 S   0  0  0  0  0  0  0  0  0  0  0  0
  1  2  1  0  0  0  0
  1  5  2  0  0  0  0
  2  6  2  0  0  0  0
  3  8  2  0  0  0  0
  3 15  1  0  0  0  0
  4  9  1  0  0  0  0
  4 15  2  0  0  0  0
  5 17  1  0  0  0  0
  6 19  1  0  0  0  0
  7 10  2  0  0  0  0
  7 18  1  0  0  0  0
  8 21  1  0  0  0  0
  9 21  2  0  0  0  0
 10 22  1  0  0  0  0
 11 12  2  0  0  0  0
 11 23  1  0  0  0  0
 12 24  1  0  0  0  0
 13 20  1  0  0  0  0
 13 22  2  0  0  0  0
 14 24  2  0  0  0  0
 14 25  1  0  0  0  0
 15 26  1  0  0  0  0
 16 26  1  0  0  0  0
 16 29  2  0  0  0  0
 16 31  1  0  0  0  0
 17 19  2  0  0  0  0
 17 37  1  0  0  0  0
 18 20  2  0  0  0  0
 18 38  1  0  0  0  0
 19 46  1  0  0  0  0
 20 39  1  0  0  0  0
 21 80  1  0  0  0  0
 22 81  1  0  0  0  0
 23 25  2  0  0  0  0
 23 80  1  0  0  0  0
 24 82  1  0  0  0  0
 25 83  1  0  0  0  0
 26 62  2  0  0  0  0
 27 28  2  0  0  0  0
 27 49  1  0  0  0  0
 27 84  1  0  0  0  0
 28 63  1  0  0  0  0
 28 69  1  0  0  0  0
 29 64  1  0  0  0  0
 29 67  1  0  0  0  0
 30 63  2  0  0  0  0
 30 70  1  0  0  0  0
 30 84  1  0  0  0  0
 31 68  1  0  0  0  0
 31 74  2  0  0  0  0
 32 47  1  0  0  0  0
 32 71  1  0  0  0  0
 32 75  2  0  0  0  0
 33 58  1  0  0  0  0
 33 65  1  0  0  0  0
 33 76  2  0  0  0  0
 34 57  1  0  0  0  0
 34 69  1  0  0  0  0
 34 77  2  0  0  0  0
 35 59  1  0  0  0  0
 35 72  1  0  0  0  0
 35 78  2  0  0  0  0
 36 66  1  0  0  0  0
 36 70  1  0  0  0  0
 36 79  2  0  0  0  0
 37 40  1  0  0  0  0
 38 47  1  0  0  0  0
 39 65  1  0  0  0  0
 40 42  1  0  0  0  0
 41 43  1  0  0  0  0
 41 44  1  0  0  0  0
 42 46  1  0  0  0  0
 43 48  1  0  0  0  0
 44 66  1  0  0  0  0
 45 48  1  0  0  0  0
 45 66  1  0  0  0  0
 46 71  1  0  0  0  0
 47 65  1  0  0  0  0
 48 64  1  0  0  0  0
 50 59  1  0  0  0  0
 51 60  1  0  0  0  0
 52 60  1  0  0  0  0
 53 60  1  0  0  0  0
 54 61  1  0  0  0  0
 55 61  1  0  0  0  0
 56 73  1  0  0  0  0
 57 61  1  0  0  0  0
 58 60  1  0  0  0  0
 58 72  1  0  0  0  0
 59 73  1  0  0  0  0
 61 81  1  0  0  0  0
 62 64  1  0  0  0  0
M  CHG  1  73   1
M  ISO  4  36 100  61 101  70 100  81 101
M  END
> <Batch ID>
0139

> <Smiles>
CNC(C)C(=O)NC(C(=O)N1Cc2cc([101O:1][101C:1](C)(C)CC(=O)Nc3nc([100NH:0][100C:0](=O)N4CCCC(n5nc(-c6ccc(Oc7ccc(F)cc7F)cc6)c(C(N)=O)c5N)C4)sc3C)ccc2CC1C(=O)NC1CCCc2ccccc21)C(C)(C)C

> <Shape>
0.260

> <Color>
0.121

> <Negative vol penalty>
0.000

$$$$

  -OEChem-04052302483D

 87 95  0     1  0  0  0  0  0999 V2000
  -13.8482  -25.6795    9.8001 C   0  0  0  0  0  0  0  0  0  0  0  0
  -14.2977  -24.4501    9.3290 C   0  0  0  0  0  0  0  0  0  0  0  0
  -23.1900   -9.8164   19.9310 C   0  0  0  0  0  0  0  0  0  0  0  0
  -23.5549  -10.0002   22.3122 C   0  0  0  0  0  0  0  0  0  0  0  0
  -14.7666  -26.6628   10.1656 C   0  0  0  0  0  0  0  0  0  0  0  0
  -15.6660  -24.2036    9.2222 C   0  0  0  0  0  0  0  0  0  0  0  0
  -18.7343  -18.7255   12.7532 C   0  0  0  0  0  0  0  0  0  0  0  0
  -27.8712  -19.1253   14.3882 C   0  0  0  0  0  0  0  0  0  0  0  0
  -22.4204   -8.6715   20.1373 C   0  0  0  0  0  0  0  0  0  0  0  0
  -22.7853   -8.8553   22.5185 C   0  0  0  0  0  0  0  0  0  0  0  0
  -19.3588  -17.5725   13.2292 C   0  0  0  0  0  0  0  0  0  0  0  0
  -26.5110  -18.9057   14.6059 C   0  0  0  0  0  0  0  0  0  0  0  0
  -23.1818   -5.5074   22.2624 C   0  0  0  0  0  0  0  0  0  0  0  0
  -23.6733   -4.5467   23.1461 C   0  0  0  0  0  0  0  0  0  0  0  0
  -27.0405  -16.9962   15.9881 C   0  0  0  0  0  0  0  0  0  0  0  0
  -21.4751  -18.3421   12.3478 C   0  0  0  0  0  0  0  0  0  0  0  0
  -21.7092   -4.8126   24.5278 C   0  0  0  0  0  0  0  0  0  0  0  0
  -23.7573  -10.4807   21.0185 C   0  0  0  0  0  0  0  0  0  0  0  0
  -28.4007  -17.2157   15.7703 C   0  0  0  0  0  0  0  0  0  0  0  0
  -24.1020  -12.9963   20.7724 C   0  0  0  0  0  0  0  0  0  0  0  0
  -16.1470  -26.4248   10.0723 C   0  0  0  0  0  0  0  0  0  0  0  0
  -19.4817  -19.6996   12.0854 C   0  0  0  0  0  0  0  0  0  0  0  0
  -16.6038  -25.1851    9.5855 C   0  0  0  0  0  0  0  0  0  0  0  0
  -20.8574  -19.5049   11.8797 C   0  0  0  0  0  0  0  0  0  0  0  0
  -28.8160  -18.2803   14.9703 C   0  0  0  0  0  0  0  0  0  0  0  0
  -22.2180   -8.1910   21.4310 C   0  0  0  0  0  0  0  0  0  0  0  0
  -26.0957  -17.8412   15.4058 C   0  0  0  0  0  0  0  0  0  0  0  0
  -20.7258  -17.3812   13.0267 C   0  0  0  0  0  0  0  0  0  0  0  0
  -21.9540   -6.1209   22.5114 C   0  0  0  0  0  0  0  0  0  0  0  0
  -22.9371   -4.1993   24.2788 C   0  0  0  0  0  0  0  0  0  0  0  0
  -21.2177   -5.7734   23.6440 C   0  0  0  0  0  0  0  0  0  0  0  0
  -24.5528  -11.6631   20.8060 C   0  0  0  0  0  0  0  0  0  0  0  0
  -25.2359  -13.7365   20.5424 C   0  0  0  0  0  0  0  0  0  0  0  0
  -29.3774  -16.3078   16.3977 C   0  0  0  0  0  0  0  0  0  0  0  0
  -22.7768  -13.5190   20.9348 C   0  0  0  0  0  0  0  0  0  0  0  0
  -19.5046  -23.0323   10.3625 C   0  0  0  0  0  0  0  0  0  0  0  0
  -22.0585  -22.8870   12.0557 C   0  0  0  0  0  0  0  0  0  0  0  0
  -23.9713  -22.6527   14.5434 C   0  0  0  0  0  0  0  0  0  0  0  0
  -29.9772  -14.5095   17.7006 C   0  0  0  0  0  0  0  0  0  0  0  0
  -17.1012  -27.5352   10.4344 C   0  0  0  0  0  0  0  0  0  0  0  0
  -18.8391  -20.9285   11.5017 C   0  0  0  0  0  0  0  0  0  0  0  0
  -21.6148  -20.5635   11.1257 C   0  0  0  0  0  0  0  0  0  0  0  0
  -18.5365  -27.0603   10.6451 C   0  0  0  0  0  0  0  0  0  0  0  0
  -30.1137  -12.4286   20.6427 C   0  0  0  0  0  0  0  0  0  0  0  0
  -18.9608  -26.1260    9.5165 C   0  0  0  0  0  0  0  0  0  0  0  0
  -28.6417  -12.1258   20.9222 C   0  0  0  0  0  0  0  0  0  0  0  0
  -30.3924  -12.5186   19.1455 C   0  0  0  0  0  0  0  0  0  0  0  0
  -28.0495  -13.2017   18.7061 C   0  0  0  0  0  0  0  0  0  0  0  0
  -18.0803  -24.8711    9.4787 C   0  0  1  0  0  0  0  0  0  0  0  0
  -19.7437  -22.1720   11.5683 C   0  0  1  0  0  0  0  0  0  0  0  0
  -27.7245  -13.1345   20.2081 C   0  0  1  0  0  0  0  0  0  0  0  0
  -30.9489  -19.2022   15.9123 C   0  0  0  0  0  0  0  0  0  0  0  0
  -26.0620  -23.1593   15.8356 C   0  0  0  0  0  0  0  0  0  0  0  0
  -23.5179  -15.4839   12.9220 C   0  0  0  0  0  0  0  0  0  0  0  0
  -23.6540  -22.1920    9.5507 C   0  0  0  0  0  0  0  0  0  0  0  0
  -25.7492  -22.4899   10.8886 C   0  0  0  0  0  0  0  0  0  0  0  0
  -24.2013  -24.4171   10.5527 C   0  0  0  0  0  0  0  0  0  0  0  0
  -21.9763  -17.0166   16.1937 C   0  0  0  0  0  0  0  0  0  0  0  0
  -22.4877  -14.6170   15.7464 C   0  0  0  0  0  0  0  0  0  0  0  0
  -22.4368  -23.7840   16.8072 C   0  0  0  0  0  0  0  0  0  0  0  0
  -30.2661  -18.5383   14.7205 C   0  0  0  0  0  0  0  0  0  0  0  0
  -24.3540  -16.2801   15.8365 C   0  0  0  0  0  0  0  0  0  0  0  0
  -23.5249  -22.5402   12.1057 C   0  0  1  0  0  0  0  0  0  0  0  0
  -24.6087  -23.5391   15.5982 C   0  0  2  0  0  0  0  0  0  0  0  0
  -22.7039  -16.3633   13.8685 C   0  0  2  0  0  0  0  0  0  1  0  0
  -24.2624  -22.8913   10.7827 C   0  0  0  0  0  0  0  0  0  0  0  0
  -22.8895  -16.0621   15.3895 C   0  0  0  0  0  0  0  0  0  0  0  0
  -25.8703  -11.5593   20.6126 N   0  0  0  0  0  0  0  0  0  0  0  0
  -29.0060  -15.3194   17.1437 N   0  0  0  0  0  0  0  0  0  0  0  0
  -26.2571  -12.8367   20.4552 N   0  0  0  0  0  0  0  0  0  0  0  0
  -21.1910  -21.8994   11.5732 N   0  0  0  0  0  0  0  0  0  0  0  0
  -29.4800  -13.4610   18.4963 N   0  0  0  0  0  0  0  0  0  0  0  0
  -25.4490  -15.0628   20.4081 N   0  0  0  0  0  0  0  0  0  0  0  0
  -21.7271  -12.6190   21.1643 N   0  0  0  0  0  0  0  0  0  0  0  0
  -18.4773  -23.9436   10.5163 N   0  0  0  0  0  0  0  0  0  0  0  0
  -24.0627  -23.2095   13.2853 N   0  0  0  0  0  0  0  0  0  0  0  0
  -23.8743  -23.4180   16.8893 N   0  3  0  0  0  0  0  0  0  0  0  0
  -22.5282  -14.7463   20.8616 O   0  0  0  0  0  0  0  0  0  0  0  0
  -20.2012  -22.8823    9.3655 O   0  0  0  0  0  0  0  0  0  0  0  0
  -21.6899  -24.0044   12.4282 O   0  0  0  0  0  0  0  0  0  0  0  0
  -23.4482  -21.5726   14.8085 O   0  0  0  0  0  0  0  0  0  0  0  0
  -31.1877  -14.6677   17.5254 O   0  0  0  0  0  0  0  0  0  0  0  0
  -21.4670   -7.0739   21.6327 O   0  0  0  0  0  0  0  0  0  0  0  0
  -24.7592  -17.6253   15.6187 O   0  0  0  0  0  0  0  0  0  0  0  0
  -21.3301  -16.2553   13.4980 O   0  0  0  0  0  0  0  0  0  1  0  0
  -23.4085   -3.2755   25.1265 F   0  0  0  0  0  0  0  0  0  0  0  0
  -20.0370   -6.3584   23.8879 F   0  0  0  0  0  0  0  0  0  0  0  0
  1  2  1  0  0  0  0
  1  5  2  0  0  0  0
  2  6  2  0  0  0  0
  3  9  2  0  0  0  0
  3 18  1  0  0  0  0
  4 10  1  0  0  0  0
  4 18  2  0  0  0  0
  5 21  1  0  0  0  0
  6 23  1  0  0  0  0
  7 11  2  0  0  0  0
  7 22  1  0  0  0  0
  8 12  2  0  0  0  0
  8 25  1  0  0  0  0
  9 26  1  0  0  0  0
 10 26  2  0  0  0  0
 11 28  1  0  0  0  0
 12 27  1  0  0  0  0
 13 14  2  0  0  0  0
 13 29  1  0  0  0  0
 14 30  1  0  0  0  0
 15 19  1  0  0  0  0
 15 27  2  0  0  0  0
 16 24  1  0  0  0  0
 16 28  2  0  0  0  0
 17 30  2  0  0  0  0
 17 31  1  0  0  0  0
 18 32  1  0  0  0  0
 19 25  2  0  0  0  0
 19 34  1  0  0  0  0
 20 32  1  0  0  0  0
 20 33  2  0  0  0  0
 20 35  1  0  0  0  0
 21 23  2  0  0  0  0
 21 40  1  0  0  0  0
 22 24  2  0  0  0  0
 22 41  1  0  0  0  0
 23 49  1  0  0  0  0
 24 42  1  0  0  0  0
 25 61  1  0  0  0  0
 26 83  1  0  0  0  0
 27 84  1  0  0  0  0
 28 85  1  0  0  0  0
 29 31  2  0  0  0  0
 29 83  1  0  0  0  0
 30 86  1  0  0  0  0
 31 87  1  0  0  0  0
 32 68  2  0  0  0  0
 33 70  1  0  0  0  0
 33 73  1  0  0  0  0
 34 69  2  0  0  0  0
 35 74  1  0  0  0  0
 35 78  2  0  0  0  0
 36 50  1  0  0  0  0
 36 75  1  0  0  0  0
 36 79  2  0  0  0  0
 37 63  1  0  0  0  0
 37 71  1  0  0  0  0
 37 80  2  0  0  0  0
 38 64  1  0  0  0  0
 38 76  1  0  0  0  0
 38 81  2  0  0  0  0
 39 69  1  0  0  0  0
 39 72  1  0  0  0  0
 39 82  2  0  0  0  0
 40 43  1  0  0  0  0
 41 50  1  0  0  0  0
 42 71  1  0  0  0  0
 43 45  1  0  0  0  0
 44 46  1  0  0  0  0
 44 47  1  0  0  0  0
 45 49  1  0  0  0  0
 46 51  1  0  0  0  0
 47 72  1  0  0  0  0
 48 51  1  0  0  0  0
 48 72  1  0  0  0  0
 49 75  1  0  0  0  0
 50 71  1  0  0  0  0
 51 70  1  0  0  0  0
 52 61  1  0  0  0  0
 53 64  1  0  0  0  0
 54 65  1  0  0  0  0
 55 66  1  0  0  0  0
 56 66  1  0  0  0  0
 57 66  1  0  0  0  0
 58 67  1  0  0  0  0
 59 67  1  0  0  0  0
 60 77  1  0  0  0  0
 62 67  1  0  0  0  0
 62 84  1  0  0  0  0
 63 66  1  0  0  0  0
 63 76  1  0  0  0  0
 64 77  1  0  0  0  0
 65 67  1  0  0  0  0
 65 85  1  0  0  0  0
 68 70  1  0  0  0  0
M  CHG  1  77   1
M  ISO  4  39 100  65 101  69 100  85 101
M  END
> <Batch ID>
0139

> <Smiles>
CCc1ccc(OCC(C)(C)[101CH:1](C)[101O:1]c2ccc3c(c2)CN(C(=O)C(NC(=O)C(C)NC)C(C)(C)C)C(C(=O)NC2CCCc4ccccc42)C3)cc1C=[100N:0][100C:0](=O)N1CCCC(n2nc(-c3ccc(Oc4ccc(F)cc4F)cc3)c(C(N)=O)c2N)C1

> <Shape>
0.138

> <Color>
0.174

> <Negative vol penalty>
0.000

$$$$

  -OEChem-04052302483D

 85 93  0     1  0  0  0  0  0999 V2000
  -21.8932  -35.1020   16.1652 C   0  0  0  0  0  0  0  0  0  0  0  0
  -22.8170  -34.0622   16.1363 C   0  0  0  0  0  0  0  0  0  0  0  0
  -23.9362   -9.0901   20.3301 C   0  0  0  0  0  0  0  0  0  0  0  0
  -22.8120  -11.0077   21.2766 C   0  0  0  0  0  0  0  0  0  0  0  0
  -21.6503  -35.7842   17.3566 C   0  0  0  0  0  0  0  0  0  0  0  0
  -23.4992  -33.7046   17.2987 C   0  0  0  0  0  0  0  0  0  0  0  0
  -25.2437  -28.0738   18.9591 C   0  0  0  0  0  0  0  0  0  0  0  0
  -29.5092  -19.1847   20.0834 C   0  0  0  0  0  0  0  0  0  0  0  0
  -23.0179   -8.2445   20.9524 C   0  0  0  0  0  0  0  0  0  0  0  0
  -21.8936  -10.1621   21.8989 C   0  0  0  0  0  0  0  0  0  0  0  0
  -26.4616  -27.4023   18.8619 C   0  0  0  0  0  0  0  0  0  0  0  0
  -29.4437  -20.5634   19.8826 C   0  0  0  0  0  0  0  0  0  0  0  0
  -22.4965   -6.9765   24.0418 C   0  0  0  0  0  0  0  0  0  0  0  0
  -22.9938   -5.8472   24.6922 C   0  0  0  0  0  0  0  0  0  0  0  0
  -26.9853  -28.0363   21.1297 C   0  0  0  0  0  0  0  0  0  0  0  0
  -27.8058  -18.8586   18.4014 C   0  0  0  0  0  0  0  0  0  0  0  0
  -21.6832   -4.4321   23.2372 C   0  0  0  0  0  0  0  0  0  0  0  0
  -23.8333  -10.4717   20.4922 C   0  0  0  0  0  0  0  0  0  0  0  0
  -24.6782  -11.9179   18.5681 C   0  0  0  0  0  0  0  0  0  0  0  0
  -22.3228  -35.4284   18.5364 C   0  0  0  0  0  0  0  0  0  0  0  0
  -24.8916  -28.7420   20.1407 C   0  0  0  0  0  0  0  0  0  0  0  0
  -23.2660  -34.3835   18.5067 C   0  0  0  0  0  0  0  0  0  0  0  0
  -25.7612  -28.7134   21.2403 C   0  0  0  0  0  0  0  0  0  0  0  0
  -27.7401  -20.2374   18.2006 C   0  0  0  0  0  0  0  0  0  0  0  0
  -28.6903  -18.3322   19.3428 C   0  0  0  0  0  0  0  0  0  0  0  0
  -21.9966   -8.7805   21.7367 C   0  0  0  0  0  0  0  0  0  0  0  0
  -27.3339  -27.3859   19.9463 C   0  0  0  0  0  0  0  0  0  0  0  0
  -28.5591  -21.0898   18.9412 C   0  0  0  0  0  0  0  0  0  0  0  0
  -21.5924   -6.8336   22.9891 C   0  0  0  0  0  0  0  0  0  0  0  0
  -22.5872   -4.5750   24.2898 C   0  0  0  0  0  0  0  0  0  0  0  0
  -21.1858   -5.5614   22.5868 C   0  0  0  0  0  0  0  0  0  0  0  0
  -24.7820  -11.3457   19.8501 C   0  0  0  0  0  0  0  0  0  0  0  0
  -25.8256  -12.6601   18.4294 C   0  0  0  0  0  0  0  0  0  0  0  0
  -23.6377  -11.7901   17.5900 C   0  0  0  0  0  0  0  0  0  0  0  0
  -24.2722  -31.7633   20.9098 C   0  0  0  0  0  0  0  0  0  0  0  0
  -23.5038  -30.4661   23.7820 C   0  0  0  0  0  0  0  0  0  0  0  0
  -23.8764  -27.8917   25.9911 C   0  0  0  0  0  0  0  0  0  0  0  0
  -27.5795  -23.0953   19.5818 C   0  0  0  0  0  0  0  0  0  0  0  0
  -29.5795  -16.2467   20.4412 C   0  0  0  0  0  0  0  0  0  0  0  0
  -22.0616  -36.2260   19.7896 C   0  0  0  0  0  0  0  0  0  0  0  0
  -23.5624  -29.4392   20.2387 C   0  0  0  0  0  0  0  0  0  0  0  0
  -25.4214  -29.3980   22.5381 C   0  0  0  0  0  0  0  0  0  0  0  0
  -22.5513  -35.5391   21.0618 C   0  0  0  0  0  0  0  0  0  0  0  0
  -30.0141  -12.8109   21.2676 C   0  0  0  0  0  0  0  0  0  0  0  0
  -23.9655  -35.0015   20.8678 C   0  0  0  0  0  0  0  0  0  0  0  0
  -28.6831  -12.1704   20.8670 C   0  0  0  0  0  0  0  0  0  0  0  0
  -29.8184  -14.2111   21.8462 C   0  0  0  0  0  0  0  0  0  0  0  0
  -27.7099  -14.4877   20.6025 C   0  0  0  0  0  0  0  0  0  0  0  0
  -24.0078  -33.9500   19.7525 C   0  0  1  0  0  0  0  0  0  0  0  0
  -23.5324  -30.5198   21.3150 C   0  0  1  0  0  0  0  0  0  0  0  0
  -27.8617  -13.1019   19.9543 C   0  0  2  0  0  0  0  0  0  0  0  0
  -26.7876  -20.7837   17.1888 C   0  0  0  0  0  0  0  0  0  0  0  0
  -23.1526  -27.1315   28.2705 C   0  0  0  0  0  0  0  0  0  0  0  0
  -25.4379  -32.4526   25.0559 C   0  0  0  0  0  0  0  0  0  0  0  0
  -25.3986  -31.0532   27.1315 C   0  0  0  0  0  0  0  0  0  0  0  0
  -23.3005  -32.1255   26.3125 C   0  0  0  0  0  0  0  0  0  0  0  0
  -29.9704  -24.8397   20.0501 C   0  0  0  0  0  0  0  0  0  0  0  0
  -28.1335  -25.2512   21.7082 C   0  0  0  0  0  0  0  0  0  0  0  0
  -22.5805  -25.4658   24.8979 C   0  0  0  0  0  0  0  0  0  0  0  0
  -27.5912  -24.5847   19.3102 C   0  0  0  0  0  0  0  0  0  0  0  0
  -24.2596  -30.1554   25.0513 C   0  0  1  0  0  0  0  0  0  0  0  0
  -22.8597  -27.0853   26.7789 C   0  0  2  0  0  0  0  0  0  0  0  0
  -24.6067  -31.4353   25.8628 C   0  0  0  0  0  0  0  0  0  0  0  0
  -28.5405  -25.3572   20.2368 C   0  0  0  0  0  0  0  0  0  1  0  0
  -25.9065  -11.6943   20.4809 N   0  0  0  0  0  0  0  0  0  0  0  0
  -26.5200  -12.4935   19.5914 N   0  0  0  0  0  0  0  0  0  0  0  0
  -24.1130  -30.0715   22.5824 N   0  0  0  0  0  0  0  0  0  0  0  0
  -29.0356  -15.0382   20.9254 N   0  0  0  0  0  0  0  0  0  0  0  0
  -26.2982  -13.4323   17.4281 N   0  0  0  0  0  0  0  0  0  0  0  0
  -22.5290  -10.9887   17.8948 N   0  0  0  0  0  0  0  0  0  0  0  0
  -28.7573  -16.9317   19.5470 N   0  0  0  0  0  0  0  0  0  0  0  0
  -23.4961  -32.6839   20.2319 N   0  0  0  0  0  0  0  0  0  0  0  0
  -23.4499  -29.1861   25.7816 N   0  0  0  0  0  0  0  0  0  0  0  0
  -22.8764  -25.6610   26.3406 N   0  3  0  0  0  0  0  0  0  0  0  0
  -23.6972  -12.3562   16.4722 O   0  0  0  0  0  0  0  0  0  0  0  0
  -25.4589  -31.8795   21.1927 O   0  0  0  0  0  0  0  0  0  0  0  0
  -22.4098  -31.0316   23.8527 O   0  0  0  0  0  0  0  0  0  0  0  0
  -24.9438  -27.4214   25.6037 O   0  0  0  0  0  0  0  0  0  0  0  0
  -26.8670  -22.5573   20.4200 O   0  0  0  0  0  0  0  0  0  0  0  0
  -30.7039  -16.6311   20.7726 O   0  0  0  0  0  0  0  0  0  0  0  0
  -21.1002   -7.9557   22.3439 O   0  0  0  0  0  0  0  0  0  0  0  0
  -28.5066  -22.4727   18.7531 O   0  0  0  0  0  0  0  0  0  0  0  0
  -28.5236  -26.7317   19.8538 O   0  0  0  0  0  0  0  0  0  1  0  0
  -23.0660   -3.4906   24.9135 F   0  0  0  0  0  0  0  0  0  0  0  0
  -20.3185   -5.4178   21.5754 F   0  0  0  0  0  0  0  0  0  0  0  0
  1  2  1  0  0  0  0
  1  5  2  0  0  0  0
  2  6  2  0  0  0  0
  3  9  2  0  0  0  0
  3 18  1  0  0  0  0
  4 10  1  0  0  0  0
  4 18  2  0  0  0  0
  5 20  1  0  0  0  0
  6 22  1  0  0  0  0
  7 11  2  0  0  0  0
  7 21  1  0  0  0  0
  8 12  2  0  0  0  0
  8 25  1  0  0  0  0
  9 26  1  0  0  0  0
 10 26  2  0  0  0  0
 11 27  1  0  0  0  0
 12 28  1  0  0  0  0
 13 14  2  0  0  0  0
 13 29  1  0  0  0  0
 14 30  1  0  0  0  0
 15 23  1  0  0  0  0
 15 27  2  0  0  0  0
 16 24  1  0  0  0  0
 16 25  2  0  0  0  0
 17 30  2  0  0  0  0
 17 31  1  0  0  0  0
 18 32  1  0  0  0  0
 19 32  1  0  0  0  0
 19 33  2  0  0  0  0
 19 34  1  0  0  0  0
 20 22  2  0  0  0  0
 20 40  1  0  0  0  0
 21 23  2  0  0  0  0
 21 41  1  0  0  0  0
 22 49  1  0  0  0  0
 23 42  1  0  0  0  0
 24 28  2  0  0  0  0
 24 52  1  0  0  0  0
 25 71  1  0  0  0  0
 26 81  1  0  0  0  0
 27 83  1  0  0  0  0
 28 82  1  0  0  0  0
 29 31  2  0  0  0  0
 29 81  1  0  0  0  0
 30 84  1  0  0  0  0
 31 85  1  0  0  0  0
 32 65  2  0  0  0  0
 33 66  1  0  0  0  0
 33 69  1  0  0  0  0
 34 70  1  0  0  0  0
 34 75  2  0  0  0  0
 35 50  1  0  0  0  0
 35 72  1  0  0  0  0
 35 76  2  0  0  0  0
 36 61  1  0  0  0  0
 36 67  1  0  0  0  0
 36 77  2  0  0  0  0
 37 62  1  0  0  0  0
 37 73  1  0  0  0  0
 37 78  2  0  0  0  0
 38 60  1  0  0  0  0
 38 79  2  0  0  0  0
 38 82  1  0  0  0  0
 39 68  1  0  0  0  0
 39 71  1  0  0  0  0
 39 80  2  0  0  0  0
 40 43  1  0  0  0  0
 41 50  1  0  0  0  0
 42 67  1  0  0  0  0
 43 45  1  0  0  0  0
 44 46  1  0  0  0  0
 44 47  1  0  0  0  0
 45 49  1  0  0  0  0
 46 51  1  0  0  0  0
 47 68  1  0  0  0  0
 48 51  1  0  0  0  0
 48 68  1  0  0  0  0
 49 72  1  0  0  0  0
 50 67  1  0  0  0  0
 51 66  1  0  0  0  0
 53 62  1  0  0  0  0
 54 63  1  0  0  0  0
 55 63  1  0  0  0  0
 56 63  1  0  0  0  0
 57 64  1  0  0  0  0
 58 64  1  0  0  0  0
 59 74  1  0  0  0  0
 60 64  1  0  0  0  0
 61 63  1  0  0  0  0
 61 73  1  0  0  0  0
 62 74  1  0  0  0  0
 64 83  1  0  0  0  0
 65 66  1  0  0  0  0
M  CHG  1  74   1
M  ISO  4  39 100  64 101  71 100  83 101
M  END
> <Batch ID>
0139

> <Smiles>
CNC(C)C(=O)NC(C(=O)N1Cc2cc([101O:1][101C:1](C)(C)CC(=O)Oc3ccc([100NH:0][100C:0](=O)N4CCCC(n5nc(-c6ccc(Oc7ccc(F)cc7F)cc6)c(C(N)=O)c5N)C4)cc3C)ccc2CC1C(=O)NC1CCCc2ccccc21)C(C)(C)C

> <Shape>
0.274

> <Color>
0.108

> <Negative vol penalty>
0.000

$$$$

  -OEChem-04052302483D

 86 95  0     1  0  0  0  0  0999 V2000
  -19.6971  -33.7838   22.0109 C   0  0  0  0  0  0  0  0  0  0  0  0
  -20.9877  -33.4215   21.6387 C   0  0  0  0  0  0  0  0  0  0  0  0
  -29.3491  -12.0952   19.1432 C   0  0  0  0  0  0  0  0  0  0  0  0
  -30.6788  -13.7666   20.2725 C   0  0  0  0  0  0  0  0  0  0  0  0
  -18.9644  -32.9646   22.8688 C   0  0  0  0  0  0  0  0  0  0  0  0
  -21.5468  -32.2403   22.1251 C   0  0  0  0  0  0  0  0  0  0  0  0
  -25.3936  -28.4996   19.1730 C   0  0  0  0  0  0  0  0  0  0  0  0
  -30.4535  -11.2442   19.1023 C   0  0  0  0  0  0  0  0  0  0  0  0
  -31.7832  -12.9155   20.2317 C   0  0  0  0  0  0  0  0  0  0  0  0
  -26.7803  -28.3604   19.2105 C   0  0  0  0  0  0  0  0  0  0  0  0
  -32.0782   -9.1683   21.2199 C   0  0  0  0  0  0  0  0  0  0  0  0
  -31.8799   -7.8319   21.5663 C   0  0  0  0  0  0  0  0  0  0  0  0
  -26.5510  -26.5674   20.8080 C   0  0  0  0  0  0  0  0  0  0  0  0
  -30.7295  -23.5089   22.3494 C   0  0  0  0  0  0  0  0  0  0  0  0
  -29.4985  -22.8446   20.3797 C   0  0  0  0  0  0  0  0  0  0  0  0
  -29.6175  -21.3650   22.2859 C   0  0  0  0  0  0  0  0  0  0  0  0
  -32.6274   -7.1520   19.3717 C   0  0  0  0  0  0  0  0  0  0  0  0
  -29.4618  -13.3565   19.7282 C   0  0  0  0  0  0  0  0  0  0  0  0
  -27.0819  -13.9922   20.3912 C   0  0  0  0  0  0  0  0  0  0  0  0
  -19.5112  -31.7678   23.3582 C   0  0  0  0  0  0  0  0  0  0  0  0
  -24.5743  -27.6796   19.9622 C   0  0  0  0  0  0  0  0  0  0  0  0
  -20.8212  -31.4050   22.9914 C   0  0  0  0  0  0  0  0  0  0  0  0
  -25.1541  -26.6965   20.7767 C   0  0  0  0  0  0  0  0  0  0  0  0
  -30.2795  -23.7807   21.0574 C   0  0  0  0  0  0  0  0  0  0  0  0
  -30.3986  -22.3011   22.9636 C   0  0  0  0  0  0  0  0  0  0  0  0
  -29.1675  -21.6367   20.9939 C   0  0  0  0  0  0  0  0  0  0  0  0
  -31.6705  -11.6543   19.6466 C   0  0  0  0  0  0  0  0  0  0  0  0
  -27.3594  -27.3961   20.0303 C   0  0  0  0  0  0  0  0  0  0  0  0
  -32.5511   -9.4967   19.9493 C   0  0  0  0  0  0  0  0  0  0  0  0
  -32.1545   -6.8237   20.6423 C   0  0  0  0  0  0  0  0  0  0  0  0
  -32.8258   -8.4885   19.0253 C   0  0  0  0  0  0  0  0  0  0  0  0
  -28.3215  -14.2363   19.7702 C   0  0  0  0  0  0  0  0  0  0  0  0
  -26.3464  -15.1262   20.1469 C   0  0  0  0  0  0  0  0  0  0  0  0
  -31.5561  -27.0492   20.0368 C   0  0  0  0  0  0  0  0  0  0  0  0
  -26.6352  -12.8432   21.1233 C   0  0  0  0  0  0  0  0  0  0  0  0
  -22.5001  -28.1831   22.3176 C   0  0  0  0  0  0  0  0  0  0  0  0
  -21.9420  -25.0054   21.9814 C   0  0  0  0  0  0  0  0  0  0  0  0
  -23.0826  -21.9558   20.9588 C   0  0  0  0  0  0  0  0  0  0  0  0
  -27.8447  -20.7998   19.0200 C   0  0  0  0  0  0  0  0  0  0  0  0
  -18.6984  -30.9385   24.3206 C   0  0  0  0  0  0  0  0  0  0  0  0
  -23.0789  -27.8245   19.8902 C   0  0  0  0  0  0  0  0  0  0  0  0
  -24.3178  -25.7776   21.6280 C   0  0  0  0  0  0  0  0  0  0  0  0
  -31.4191  -25.9952   21.1023 C   0  0  0  0  0  0  0  0  0  0  0  0
  -19.2244  -29.5160   24.4936 C   0  0  0  0  0  0  0  0  0  0  0  0
  -25.8731  -18.6685   16.9591 C   0  0  0  0  0  0  0  0  0  0  0  0
  -20.7360  -29.5269   24.6976 C   0  0  0  0  0  0  0  0  0  0  0  0
  -26.1597  -17.2683   17.5065 C   0  0  0  0  0  0  0  0  0  0  0  0
  -27.1153  -19.5569   16.9956 C   0  0  0  0  0  0  0  0  0  0  0  0
  -28.0655  -18.2428   18.8502 C   0  0  0  0  0  0  0  0  0  0  0  0
  -30.3995  -25.2444   19.0248 C   0  0  0  0  0  0  0  0  0  0  0  0
  -21.4530  -30.1189   23.4782 C   0  0  1  0  0  0  0  0  0  0  0  0
  -22.3658  -27.2802   21.1241 C   0  0  1  0  0  0  0  0  0  0  0  0
  -26.8280  -17.3316   18.8940 C   0  0  2  0  0  0  0  0  0  0  0  0
  -30.7059  -26.7408   18.8210 C   0  0  2  0  0  0  0  0  0  0  0  0
  -31.4742  -26.9913   17.5275 C   0  0  0  0  0  0  0  0  0  0  0  0
  -22.4157  -19.5392   20.8476 C   0  0  0  0  0  0  0  0  0  0  0  0
  -22.4801  -24.7219   24.9714 C   0  0  0  0  0  0  0  0  0  0  0  0
  -22.7397  -22.2566   24.6201 C   0  0  0  0  0  0  0  0  0  0  0  0
  -20.5596  -23.3627   24.1236 C   0  0  0  0  0  0  0  0  0  0  0  0
  -23.2721  -21.9193   18.0055 C   0  0  0  0  0  0  0  0  0  0  0  0
  -29.4335  -27.5882   18.8827 C   0  0  0  0  0  0  0  0  0  1  0  0
  -22.5250  -23.7483   22.5806 C   0  0  1  0  0  0  0  0  0  0  0  0
  -22.4390  -20.8711   20.1140 C   0  0  2  0  0  0  0  0  0  0  0  0
  -22.0922  -23.5408   24.0595 C   0  0  0  0  0  0  0  0  0  0  0  0
  -28.3742  -15.4313   19.1761 N   0  0  0  0  0  0  0  0  0  0  0  0
  -27.1584  -15.9483   19.4225 N   0  0  0  0  0  0  0  0  0  0  0  0
  -30.6079  -24.9786   20.4481 N   0  0  3  0  0  0  0  0  0  0  0  0
  -22.8607  -25.9625   21.5277 N   0  0  0  0  0  0  0  0  0  0  0  0
  -27.6918  -19.5720   18.3418 N   0  0  0  0  0  0  0  0  0  0  0  0
  -30.8539  -22.0262   24.2699 N   0  0  0  0  0  0  0  0  0  0  0  0
  -25.0907  -15.4902   20.4833 N   0  0  0  0  0  0  0  0  0  0  0  0
  -26.8512  -12.8077   22.5077 N   0  0  0  0  0  0  0  0  0  0  0  0
  -28.3732  -20.6865   20.3055 N   0  0  0  0  0  0  0  0  0  0  0  0
  -21.5146  -29.1476   22.4072 N   0  0  0  0  0  0  0  0  0  0  0  0
  -22.1467  -22.6576   21.6886 N   0  0  0  0  0  0  0  0  0  0  0  0
  -23.1906  -20.6927   18.8396 N   0  3  0  0  0  0  0  0  0  0  0  0
  -32.2428  -28.0549   20.1683 O   0  0  0  0  0  0  0  0  0  0  0  0
  -26.0763  -11.8695   20.5640 O   0  0  0  0  0  0  0  0  0  0  0  0
  -23.4283  -28.0161   23.1001 O   0  0  0  0  0  0  0  0  0  0  0  0
  -20.7168  -25.1303   21.9119 O   0  0  0  0  0  0  0  0  0  0  0  0
  -24.2949  -22.1578   20.9728 O   0  0  0  0  0  0  0  0  0  0  0  0
  -27.5048  -21.8701   18.5092 O   0  0  0  0  0  0  0  0  0  0  0  0
  -32.7483  -10.8240   19.6071 O   0  0  0  0  0  0  0  0  0  0  0  0
  -28.7127  -27.2585   20.0693 O   0  0  0  0  0  0  0  0  0  1  0  0
  -31.9654   -5.5402   20.9756 F   0  0  0  0  0  0  0  0  0  0  0  0
  -33.2814   -8.7978   17.8036 F   0  0  0  0  0  0  0  0  0  0  0  0
  1  2  1  0  0  0  0
  1  5  2  0  0  0  0
  2  6  2  0  0  0  0
  3  8  2  0  0  0  0
  3 18  1  0  0  0  0
  4  9  1  0  0  0  0
  4 18  2  0  0  0  0
  5 20  1  0  0  0  0
  6 22  1  0  0  0  0
  7 10  2  0  0  0  0
  7 21  1  0  0  0  0
  8 27  1  0  0  0  0
  9 27  2  0  0  0  0
 10 28  1  0  0  0  0
 11 12  2  0  0  0  0
 11 29  1  0  0  0  0
 12 30  1  0  0  0  0
 13 23  1  0  0  0  0
 13 28  2  0  0  0  0
 14 24  1  0  0  0  0
 14 25  2  0  0  0  0
 15 24  2  0  0  0  0
 15 26  1  0  0  0  0
 16 25  1  0  0  0  0
 16 26  2  0  0  0  0
 17 30  2  0  0  0  0
 17 31  1  0  0  0  0
 18 32  1  0  0  0  0
 19 32  1  0  0  0  0
 19 33  2  0  0  0  0
 19 35  1  0  0  0  0
 20 22  2  0  0  0  0
 20 40  1  0  0  0  0
 21 23  2  0  0  0  0
 21 41  1  0  0  0  0
 22 51  1  0  0  0  0
 23 42  1  0  0  0  0
 24 67  1  0  0  0  0
 25 70  1  0  0  0  0
 26 73  1  0  0  0  0
 27 83  1  0  0  0  0
 28 84  1  0  0  0  0
 29 31  2  0  0  0  0
 29 83  1  0  0  0  0
 30 85  1  0  0  0  0
 31 86  1  0  0  0  0
 32 65  2  0  0  0  0
 33 66  1  0  0  0  0
 33 71  1  0  0  0  0
 34 43  1  0  0  0  0
 34 54  1  0  0  0  0
 34 77  2  0  0  0  0
 35 72  1  0  0  0  0
 35 78  2  0  0  0  0
 36 52  1  0  0  0  0
 36 74  1  0  0  0  0
 36 79  2  0  0  0  0
 37 62  1  0  0  0  0
 37 68  1  0  0  0  0
 37 80  2  0  0  0  0
 38 63  1  0  0  0  0
 38 75  1  0  0  0  0
 38 81  2  0  0  0  0
 39 69  1  0  0  0  0
 39 73  1  0  0  0  0
 39 82  2  0  0  0  0
 40 44  1  0  0  0  0
 41 52  1  0  0  0  0
 42 68  1  0  0  0  0
 43 67  1  0  0  0  0
 44 46  1  0  0  0  0
 45 47  1  0  0  0  0
 45 48  1  0  0  0  0
 46 51  1  0  0  0  0
 47 53  1  0  0  0  0
 48 69  1  0  0  0  0
 49 53  1  0  0  0  0
 49 69  1  0  0  0  0
 50 54  1  0  0  0  0
 50 67  1  0  0  0  0
 51 74  1  0  0  0  0
 52 68  1  0  0  0  0
 53 66  1  0  0  0  0
 54 55  1  0  0  0  0
 54 61  1  0  0  0  0
 56 63  1  0  0  0  0
 57 64  1  0  0  0  0
 58 64  1  0  0  0  0
 59 64  1  0  0  0  0
 60 76  1  0  0  0  0
 61 84  1  0  0  0  0
 62 64  1  0  0  0  0
 62 75  1  0  0  0  0
 63 76  1  0  0  0  0
 65 66  1  0  0  0  0
M  CHG  1  76   1
M  ISO  4  39 100  61 101  73 100  84 101
M  END
> <Batch ID>
0139

> <Smiles>
CNC(C)C(=O)NC(C(=O)N1Cc2cc([101O:1][101CH2:1]C3(C)CN(c4cc(N)cc([100NH:0][100C:0](=O)N5CCCC(n6nc(-c7ccc(Oc8ccc(F)cc8F)cc7)c(C(N)=O)c6N)C5)c4)CC3=O)ccc2CC1C(=O)NC1CCCc2ccccc21)C(C)(C)C

> <Shape>
0.211

> <Color>
0.103

> <Negative vol penalty>
0.000

$$$$

  -OEChem-04052302483D

 83 91  0     1  0  0  0  0  0999 V2000
  -22.4264  -39.9598   25.0681 C   0  0  0  0  0  0  0  0  0  0  0  0
  -22.3105  -38.5912   24.8467 C   0  0  0  0  0  0  0  0  0  0  0  0
  -24.2928   -9.5965   21.2439 C   0  0  0  0  0  0  0  0  0  0  0  0
  -24.8317  -10.5299   23.4061 C   0  0  0  0  0  0  0  0  0  0  0  0
  -23.5473  -40.6473   24.6045 C   0  0  0  0  0  0  0  0  0  0  0  0
  -23.3149  -37.9096   24.1604 C   0  0  0  0  0  0  0  0  0  0  0  0
  -25.2050  -32.1687   25.1485 C   0  0  0  0  0  0  0  0  0  0  0  0
  -23.9267   -8.3963   21.8532 C   0  0  0  0  0  0  0  0  0  0  0  0
  -24.4656   -9.3298   24.0155 C   0  0  0  0  0  0  0  0  0  0  0  0
  -24.9081  -30.9617   24.5170 C   0  0  0  0  0  0  0  0  0  0  0  0
  -21.2679   -7.1714   23.5453 C   0  0  0  0  0  0  0  0  0  0  0  0
  -20.0820   -6.5676   23.1274 C   0  0  0  0  0  0  0  0  0  0  0  0
  -29.6720  -21.1788   20.6045 C   0  0  0  0  0  0  0  0  0  0  0  0
  -30.0304  -19.8210   20.3634 C   0  0  0  0  0  0  0  0  0  0  0  0
  -26.8921  -31.1887   23.1637 C   0  0  0  0  0  0  0  0  0  0  0  0
  -21.3188   -4.6041   22.4548 C   0  0  0  0  0  0  0  0  0  0  0  0
  -24.7454  -10.6633   22.0203 C   0  0  0  0  0  0  0  0  0  0  0  0
  -24.2944  -13.0077   21.1215 C   0  0  0  0  0  0  0  0  0  0  0  0
  -24.5705  -39.9720   23.9207 C   0  0  0  0  0  0  0  0  0  0  0  0
  -26.3437  -32.9015   24.7840 C   0  0  0  0  0  0  0  0  0  0  0  0
  -24.4498  -38.5890   23.6860 C   0  0  0  0  0  0  0  0  0  0  0  0
  -27.2025  -32.4035   23.7938 C   0  0  0  0  0  0  0  0  0  0  0  0
  -24.0131   -8.2630   23.2390 C   0  0  0  0  0  0  0  0  0  0  0  0
  -25.7502  -30.4730   23.5224 C   0  0  0  0  0  0  0  0  0  0  0  0
  -22.4793   -6.4917   23.4179 C   0  0  0  0  0  0  0  0  0  0  0  0
  -20.1074   -5.2840   22.5822 C   0  0  0  0  0  0  0  0  0  0  0  0
  -22.5047   -5.2080   22.8727 C   0  0  0  0  0  0  0  0  0  0  0  0
  -25.1243  -11.9030   21.3914 C   0  0  0  0  0  0  0  0  0  0  0  0
  -25.1247  -13.9222   20.5207 C   0  0  0  0  0  0  0  0  0  0  0  0
  -28.4385  -21.2891   21.2076 C   0  0  0  0  0  0  0  0  0  0  0  0
  -29.0570  -18.9452   20.7918 C   0  0  0  0  0  0  0  0  0  0  0  0
  -22.8980  -13.1909   21.3900 C   0  0  0  0  0  0  0  0  0  0  0  0
  -26.8552  -35.7873   23.5535 C   0  0  0  0  0  0  0  0  0  0  0  0
  -29.9659  -35.0324   24.0791 C   0  0  0  0  0  0  0  0  0  0  0  0
  -28.0821  -23.7650   21.5012 C   0  0  0  0  0  0  0  0  0  0  0  0
  -32.3277  -32.6041   24.4942 C   0  0  0  0  0  0  0  0  0  0  0  0
  -29.9649  -16.6605   20.2420 C   0  0  0  0  0  0  0  0  0  0  0  0
  -25.7407  -40.7663   23.3971 C   0  0  0  0  0  0  0  0  0  0  0  0
  -26.6642  -34.1885   25.4934 C   0  0  0  0  0  0  0  0  0  0  0  0
  -28.4484  -33.1419   23.3801 C   0  0  0  0  0  0  0  0  0  0  0  0
  -26.9373  -39.9026   23.0066 C   0  0  0  0  0  0  0  0  0  0  0  0
  -29.8433  -13.4268   18.7569 C   0  0  0  0  0  0  0  0  0  0  0  0
  -26.4842  -38.7089   22.1719 C   0  0  0  0  0  0  0  0  0  0  0  0
  -28.5364  -12.8330   19.2877 C   0  0  0  0  0  0  0  0  0  0  0  0
  -30.5455  -14.2834   19.8089 C   0  0  0  0  0  0  0  0  0  0  0  0
  -28.4063  -14.7382   20.9430 C   0  0  0  0  0  0  0  0  0  0  0  0
  -25.5300  -37.8099   22.9674 C   0  0  1  0  0  0  0  0  0  0  0  0
  -27.5745  -35.1066   24.6835 C   0  0  1  0  0  0  0  0  0  0  0  0
  -27.6303  -13.9202   19.8978 C   0  0  2  0  0  0  0  0  0  0  0  0
  -34.7897  -32.2941   24.8679 C   0  0  0  0  0  0  0  0  0  0  0  0
  -30.4917  -35.6931   21.1471 C   0  0  0  0  0  0  0  0  0  0  0  0
  -32.6757  -34.4841   21.3385 C   0  0  0  0  0  0  0  0  0  0  0  0
  -32.2466  -36.5087   22.7312 C   0  0  0  0  0  0  0  0  0  0  0  0
  -31.8805  -31.2322   27.0781 C   0  0  0  0  0  0  0  0  0  0  0  0
  -27.0019  -24.6760   22.0715 C   0  0  0  0  0  0  0  0  0  0  0  0
  -27.3363  -26.1643   21.9808 C   0  0  0  0  0  0  0  0  0  0  0  0
  -26.1990  -27.0487   22.4932 C   0  0  0  0  0  0  0  0  0  0  0  0
  -26.5655  -28.5250   22.4285 C   0  0  0  0  0  0  0  0  0  1  0  0
  -31.0502  -34.3503   23.2804 C   0  0  1  0  0  0  0  0  0  0  0  0
  -33.4266  -32.4339   25.5276 C   0  0  2  0  0  0  0  0  0  0  0  0
  -31.5916  -35.2459   22.1305 C   0  0  0  0  0  0  0  0  0  0  0  0
  -26.3849  -12.0960   20.9945 N   0  0  0  0  0  0  0  0  0  0  0  0
  -26.3534  -13.3325   20.4690 N   0  0  0  0  0  0  0  0  0  0  0  0
  -28.7153  -34.3988   24.0988 N   0  0  0  0  0  0  0  0  0  0  0  0
  -29.6274  -15.2939   20.3390 N   0  0  0  0  0  0  0  0  0  0  0  0
  -24.9162  -15.1651   20.0369 N   0  0  0  0  0  0  0  0  0  0  0  0
  -22.1954  -12.1507   22.0133 N   0  0  0  0  0  0  0  0  0  0  0  0
  -27.7077  -22.4293   21.6188 N   0  0  0  0  0  0  0  0  0  0  0  0
  -29.0005  -17.5299   20.7506 N   0  0  0  0  0  0  0  0  0  0  0  0
  -26.2699  -36.9895   23.9022 N   0  0  0  0  0  0  0  0  0  0  0  0
  -32.0652  -33.9341   24.2421 N   0  0  0  0  0  0  0  0  0  0  0  0
  -33.1773  -31.2187   26.3535 N   0  3  0  0  0  0  0  0  0  0  0  0
  -22.2875  -14.2394   21.0712 O   0  0  0  0  0  0  0  0  0  0  0  0
  -26.8342  -35.2615   22.4468 O   0  0  0  0  0  0  0  0  0  0  0  0
  -30.2211  -36.0847   24.6699 O   0  0  0  0  0  0  0  0  0  0  0  0
  -29.1099  -24.2077   20.9992 O   0  0  0  0  0  0  0  0  0  0  0  0
  -31.7615  -31.6524   23.9610 O   0  0  0  0  0  0  0  0  0  0  0  0
  -31.0186  -17.0333   19.7198 O   0  0  0  0  0  0  0  0  0  0  0  0
  -23.6557   -7.0922   23.8339 O   0  0  0  0  0  0  0  0  0  0  0  0
  -25.4624  -29.2954   22.9040 O   0  0  0  0  0  0  0  0  0  1  0  0
  -18.9683   -4.7036   22.1824 F   0  0  0  0  0  0  0  0  0  0  0  0
  -23.6652   -4.5495   22.7488 F   0  0  0  0  0  0  0  0  0  0  0  0
  -27.7179  -19.7600   21.4810 S   0  0  0  0  0  0  0  0  0  0  0  0
  1  2  1  0  0  0  0
  1  5  2  0  0  0  0
  2  6  2  0  0  0  0
  3  8  2  0  0  0  0
  3 17  1  0  0  0  0
  4  9  1  0  0  0  0
  4 17  2  0  0  0  0
  5 19  1  0  0  0  0
  6 21  1  0  0  0  0
  7 10  2  0  0  0  0
  7 20  1  0  0  0  0
  8 23  1  0  0  0  0
  9 23  2  0  0  0  0
 10 24  1  0  0  0  0
 11 12  2  0  0  0  0
 11 25  1  0  0  0  0
 12 26  1  0  0  0  0
 13 14  1  0  0  0  0
 13 30  2  0  0  0  0
 14 31  2  0  0  0  0
 15 22  1  0  0  0  0
 15 24  2  0  0  0  0
 16 26  2  0  0  0  0
 16 27  1  0  0  0  0
 17 28  1  0  0  0  0
 18 28  1  0  0  0  0
 18 29  2  0  0  0  0
 18 32  1  0  0  0  0
 19 21  2  0  0  0  0
 19 38  1  0  0  0  0
 20 22  2  0  0  0  0
 20 39  1  0  0  0  0
 21 47  1  0  0  0  0
 22 40  1  0  0  0  0
 23 79  1  0  0  0  0
 24 80  1  0  0  0  0
 25 27  2  0  0  0  0
 25 79  1  0  0  0  0
 26 81  1  0  0  0  0
 27 82  1  0  0  0  0
 28 62  2  0  0  0  0
 29 63  1  0  0  0  0
 29 66  1  0  0  0  0
 30 68  1  0  0  0  0
 30 83  1  0  0  0  0
 31 69  1  0  0  0  0
 31 83  1  0  0  0  0
 32 67  1  0  0  0  0
 32 73  2  0  0  0  0
 33 48  1  0  0  0  0
 33 70  1  0  0  0  0
 33 74  2  0  0  0  0
 34 59  1  0  0  0  0
 34 64  1  0  0  0  0
 34 75  2  0  0  0  0
 35 55  1  0  0  0  0
 35 68  1  0  0  0  0
 35 76  2  0  0  0  0
 36 60  1  0  0  0  0
 36 71  1  0  0  0  0
 36 77  2  0  0  0  0
 37 65  1  0  0  0  0
 37 69  1  0  0  0  0
 37 78  2  0  0  0  0
 38 41  1  0  0  0  0
 39 48  1  0  0  0  0
 40 64  1  0  0  0  0
 41 43  1  0  0  0  0
 42 44  1  0  0  0  0
 42 45  1  0  0  0  0
 43 47  1  0  0  0  0
 44 49  1  0  0  0  0
 45 65  1  0  0  0  0
 46 49  1  0  0  0  0
 46 65  1  0  0  0  0
 47 70  1  0  0  0  0
 48 64  1  0  0  0  0
 49 63  1  0  0  0  0
 50 60  1  0  0  0  0
 51 61  1  0  0  0  0
 52 61  1  0  0  0  0
 53 61  1  0  0  0  0
 54 72  1  0  0  0  0
 55 56  1  0  0  0  0
 56 57  1  0  0  0  0
 57 58  1  0  0  0  0
 58 80  1  0  0  0  0
 59 61  1  0  0  0  0
 59 71  1  0  0  0  0
 60 72  1  0  0  0  0
 62 63  1  0  0  0  0
M  CHG  1  72   1
M  ISO  4  37 100  58 101  69 100  80 101
M  END
> <Batch ID>
0139

> <Smiles>
CNC(C)C(=O)NC(C(=O)N1Cc2cc([101O:1][101CH2:1]CCCC(=O)Nc3ccc([100NH:0][100C:0](=O)N4CCCC(n5nc(-c6ccc(Oc7ccc(F)cc7F)cc6)c(C(N)=O)c5N)C4)s3)ccc2CC1C(=O)NC1CCCc2ccccc21)C(C)(C)C

> <Shape>
0.258

> <Color>
0.139

> <Negative vol penalty>
0.000

$$$$

  -OEChem-04052302483D

 89 98  0     1  0  0  0  0  0999 V2000
  -27.2024  -33.7146   21.7871 C   0  0  0  0  0  0  0  0  0  0  0  0
  -27.7071  -32.7347   22.6359 C   0  0  0  0  0  0  0  0  0  0  0  0
  -23.0823   -9.8515   19.8802 C   0  0  0  0  0  0  0  0  0  0  0  0
  -23.9371   -9.7038   22.1351 C   0  0  0  0  0  0  0  0  0  0  0  0
  -26.2855  -33.3708   20.7946 C   0  0  0  0  0  0  0  0  0  0  0  0
  -27.2944  -31.4104   22.4933 C   0  0  0  0  0  0  0  0  0  0  0  0
  -31.1512  -28.1373   22.7307 C   0  0  0  0  0  0  0  0  0  0  0  0
  -22.3738   -8.6652   20.0711 C   0  0  0  0  0  0  0  0  0  0  0  0
  -23.2285   -8.5176   22.3260 C   0  0  0  0  0  0  0  0  0  0  0  0
  -31.6543  -27.8367   23.9957 C   0  0  0  0  0  0  0  0  0  0  0  0
  -20.0458   -7.5994   22.9949 C   0  0  0  0  0  0  0  0  0  0  0  0
  -19.3394   -7.4532   24.1887 C   0  0  0  0  0  0  0  0  0  0  0  0
  -31.7071  -17.5883   21.8771 C   0  0  0  0  0  0  0  0  0  0  0  0
  -31.7966  -18.7957   22.6283 C   0  0  0  0  0  0  0  0  0  0  0  0
  -30.6073  -22.1869   26.3638 C   0  0  0  0  0  0  0  0  0  0  0  0
  -30.3927  -25.7806   24.0023 C   0  0  0  0  0  0  0  0  0  0  0  0
  -20.6507   -5.4961   24.7248 C   0  0  0  0  0  0  0  0  0  0  0  0
  -23.8641  -10.3707   20.9122 C   0  0  0  0  0  0  0  0  0  0  0  0
  -29.4624  -21.6225   25.7523 C   0  0  0  0  0  0  0  0  0  0  0  0
  -24.1478  -12.9052   20.9715 C   0  0  0  0  0  0  0  0  0  0  0  0
  -25.8687  -32.0400   20.6336 C   0  0  0  0  0  0  0  0  0  0  0  0
  -30.2551  -27.2655   22.0955 C   0  0  0  0  0  0  0  0  0  0  0  0
  -26.3701  -31.0486   21.4986 C   0  0  0  0  0  0  0  0  0  0  0  0
  -29.8817  -26.0711   22.7281 C   0  0  0  0  0  0  0  0  0  0  0  0
  -22.4469   -7.9983   21.2940 C   0  0  0  0  0  0  0  0  0  0  0  0
  -31.2729  -26.6596   24.6330 C   0  0  0  0  0  0  0  0  0  0  0  0
  -21.0545   -6.6939   22.6659 C   0  0  0  0  0  0  0  0  0  0  0  0
  -19.6419   -6.4016   25.0537 C   0  0  0  0  0  0  0  0  0  0  0  0
  -21.3570   -5.6423   23.5309 C   0  0  0  0  0  0  0  0  0  0  0  0
  -24.5967  -11.5957   20.7154 C   0  0  0  0  0  0  0  0  0  0  0  0
  -30.1765  -23.3262   27.0028 C   0  0  0  0  0  0  0  0  0  0  0  0
  -28.4136  -22.4571   26.0615 C   0  0  0  0  0  0  0  0  0  0  0  0
  -25.2079  -13.7059   20.6230 C   0  0  0  0  0  0  0  0  0  0  0  0
  -30.5192  -16.9272   22.0996 C   0  0  0  0  0  0  0  0  0  0  0  0
  -30.6735  -19.0115   23.3964 C   0  0  0  0  0  0  0  0  0  0  0  0
  -29.4097  -20.4254   24.9722 C   0  0  0  0  0  0  0  0  0  0  0  0
  -22.8855  -13.3573   21.4792 C   0  0  0  0  0  0  0  0  0  0  0  0
  -27.2499  -27.4840   21.0833 C   0  0  0  0  0  0  0  0  0  0  0  0
  -27.8547  -24.5368   19.8706 C   0  0  0  0  0  0  0  0  0  0  0  0
  -29.6984  -21.6684   20.0114 C   0  0  0  0  0  0  0  0  0  0  0  0
  -30.6537  -14.8660   20.6576 C   0  0  0  0  0  0  0  0  0  0  0  0
  -24.8399  -31.7243   19.5769 C   0  0  0  0  0  0  0  0  0  0  0  0
  -29.7423  -27.5913   20.7195 C   0  0  0  0  0  0  0  0  0  0  0  0
  -28.9382  -25.0920   22.0804 C   0  0  0  0  0  0  0  0  0  0  0  0
  -24.7387  -30.2365   19.2505 C   0  0  0  0  0  0  0  0  0  0  0  0
  -29.4918  -12.6117   18.1586 C   0  0  0  0  0  0  0  0  0  0  0  0
  -24.6877  -29.4111   20.5322 C   0  0  0  0  0  0  0  0  0  0  0  0
  -28.0777  -12.2541   18.6220 C   0  0  0  0  0  0  0  0  0  0  0  0
  -30.4514  -12.7711   19.3365 C   0  0  0  0  0  0  0  0  0  0  0  0
  -28.5892  -13.3434   20.8444 C   0  0  0  0  0  0  0  0  0  0  0  0
  -25.9655  -29.5971   21.3594 C   0  0  1  0  0  0  0  0  0  0  0  0
  -28.4351  -26.8795   20.3851 C   0  0  1  0  0  0  0  0  0  0  0  0
  -27.5718  -13.2362   19.6968 C   0  0  2  0  0  0  0  0  0  0  0  0
  -26.9790  -22.4386   25.7389 C   0  0  0  0  0  0  0  0  0  0  0  0
  -29.9361  -19.4237   18.9151 C   0  0  0  0  0  0  0  0  0  0  0  0
  -33.9752  -25.4522   25.6966 C   0  0  0  0  0  0  0  0  0  0  0  0
  -25.3647  -23.5591   21.3382 C   0  0  0  0  0  0  0  0  0  0  0  0
  -26.1742  -21.2135   21.0046 C   0  0  0  0  0  0  0  0  0  0  0  0
  -25.6425  -22.6405   19.0288 C   0  0  0  0  0  0  0  0  0  0  0  0
  -32.4760  -22.2453   19.1680 C   0  0  0  0  0  0  0  0  0  0  0  0
  -30.8793  -24.3738   27.8288 C   0  0  0  0  0  0  0  0  0  0  0  0
  -32.3409  -24.6072   27.4197 C   0  0  0  0  0  0  0  0  0  0  0  0
  -27.7230  -23.1226   20.3821 C   0  0  1  0  0  0  0  0  0  0  0  0
  -30.4042  -20.8705   18.9299 C   0  0  2  0  0  0  0  0  0  0  0  0
  -32.5115  -25.1568   25.9980 C   0  0  1  0  0  0  0  0  0  1  0  0
  -26.2424  -22.6531   20.4517 C   0  0  0  0  0  0  0  0  0  0  0  0
  -25.8447  -11.5620   20.2406 N   0  0  0  0  0  0  0  0  0  0  0  0
  -26.1890  -12.8603   20.1956 N   0  0  0  0  0  0  0  0  0  0  0  0
  -28.4591  -25.4584   20.7374 N   0  0  0  0  0  0  0  0  0  0  0  0
  -29.9082  -13.7191   20.3117 N   0  0  0  0  0  0  0  0  0  0  0  0
  -25.3873  -15.0437   20.6434 N   0  0  0  0  0  0  0  0  0  0  0  0
  -28.2588  -19.7016   24.9804 N   0  0  0  0  0  0  0  0  0  0  0  0
  -21.9077  -12.4013   21.7865 N   0  0  0  0  0  0  0  0  0  0  0  0
  -30.0220  -15.7109   21.5696 N   0  0  0  0  0  0  0  0  0  0  0  0
  -27.0494  -28.8208   20.7964 N   0  0  0  0  0  0  0  0  0  0  0  0
  -28.5715  -22.2989   19.5278 N   0  0  0  0  0  0  0  0  0  0  0  0
  -30.4983  -20.0980   24.2145 N   0  3  0  0  0  0  0  0  0  0  0  0
  -31.8776  -20.8856   19.1533 N   0  3  0  0  0  0  0  0  0  0  0  0
  -22.6262  -14.5741   21.6397 O   0  0  0  0  0  0  0  0  0  0  0  0
  -26.5669  -26.7887   21.8262 O   0  0  0  0  0  0  0  0  0  0  0  0
  -27.4432  -24.8121   18.7407 O   0  0  0  0  0  0  0  0  0  0  0  0
  -30.1040  -21.7237   21.1703 O   0  0  0  0  0  0  0  0  0  0  0  0
  -31.7585  -15.0965   20.1593 O   0  0  0  0  0  0  0  0  0  0  0  0
  -28.8405  -23.4980   26.8236 O   0  0  0  0  0  0  0  0  0  0  0  0
  -21.7554   -6.8409   21.4807 O   0  0  0  0  0  0  0  0  0  0  0  0
  -31.7619  -26.3642   25.8680 O   0  0  0  0  0  0  0  0  0  1  0  0
  -18.9646   -6.2622   26.2009 F   0  0  0  0  0  0  0  0  0  0  0  0
  -22.3259   -4.7699   23.2209 F   0  0  0  0  0  0  0  0  0  0  0  0
  -29.5180  -17.7616   23.2104 S   0  0  0  0  0  0  0  0  0  0  0  0
  1  2  1  0  0  0  0
  1  5  2  0  0  0  0
  2  6  2  0  0  0  0
  3  8  2  0  0  0  0
  3 18  1  0  0  0  0
  4  9  1  0  0  0  0
  4 18  2  0  0  0  0
  5 21  1  0  0  0  0
  6 23  1  0  0  0  0
  7 10  2  0  0  0  0
  7 22  1  0  0  0  0
  8 25  1  0  0  0  0
  9 25  2  0  0  0  0
 10 26  1  0  0  0  0
 11 12  2  0  0  0  0
 11 27  1  0  0  0  0
 12 28  1  0  0  0  0
 13 14  1  0  0  0  0
 13 34  2  0  0  0  0
 14 35  2  0  0  0  0
 15 19  1  0  0  0  0
 15 31  2  0  0  0  0
 16 24  1  0  0  0  0
 16 26  2  0  0  0  0
 17 28  2  0  0  0  0
 17 29  1  0  0  0  0
 18 30  1  0  0  0  0
 19 32  2  0  0  0  0
 19 36  1  0  0  0  0
 20 30  1  0  0  0  0
 20 33  2  0  0  0  0
 20 37  1  0  0  0  0
 21 23  2  0  0  0  0
 21 42  1  0  0  0  0
 22 24  2  0  0  0  0
 22 43  1  0  0  0  0
 23 51  1  0  0  0  0
 24 44  1  0  0  0  0
 25 85  1  0  0  0  0
 26 86  1  0  0  0  0
 27 29  2  0  0  0  0
 27 85  1  0  0  0  0
 28 87  1  0  0  0  0
 29 88  1  0  0  0  0
 30 67  2  0  0  0  0
 31 61  1  0  0  0  0
 31 84  1  0  0  0  0
 32 54  1  0  0  0  0
 32 84  1  0  0  0  0
 33 68  1  0  0  0  0
 33 71  1  0  0  0  0
 34 74  1  0  0  0  0
 34 89  1  0  0  0  0
 35 77  1  0  0  0  0
 35 89  1  0  0  0  0
 36 72  1  0  0  0  0
 36 77  2  0  0  0  0
 37 73  1  0  0  0  0
 37 79  2  0  0  0  0
 38 52  1  0  0  0  0
 38 75  1  0  0  0  0
 38 80  2  0  0  0  0
 39 63  1  0  0  0  0
 39 69  1  0  0  0  0
 39 81  2  0  0  0  0
 40 64  1  0  0  0  0
 40 76  1  0  0  0  0
 40 82  2  0  0  0  0
 41 70  1  0  0  0  0
 41 74  1  0  0  0  0
 41 83  2  0  0  0  0
 42 45  1  0  0  0  0
 43 52  1  0  0  0  0
 44 69  1  0  0  0  0
 45 47  1  0  0  0  0
 46 48  1  0  0  0  0
 46 49  1  0  0  0  0
 47 51  1  0  0  0  0
 48 53  1  0  0  0  0
 49 70  1  0  0  0  0
 50 53  1  0  0  0  0
 50 70  1  0  0  0  0
 51 75  1  0  0  0  0
 52 69  1  0  0  0  0
 53 68  1  0  0  0  0
 55 64  1  0  0  0  0
 56 65  1  0  0  0  0
 57 66  1  0  0  0  0
 58 66  1  0  0  0  0
 59 66  1  0  0  0  0
 60 78  1  0  0  0  0
 61 62  1  0  0  0  0
 62 65  1  0  0  0  0
 63 66  1  0  0  0  0
 63 76  1  0  0  0  0
 64 78  1  0  0  0  0
 65 86  1  0  0  0  0
 67 68  1  0  0  0  0
M  CHG  2  77   1  78   1
M  ISO  4  41 100  65 101  74 100  86 101
M  END
> <Batch ID>
0139

> <Smiles>
CNC(C)C(=O)NC(C(=O)N1Cc2cc([101O:1][101CH:1](C)CCc3cc(C(=N)Nc4ccc([100NH:0][100C:0](=O)N5CCCC(n6nc(-c7ccc(Oc8ccc(F)cc8F)cc7)c(C(N)=O)c6N)C5)s4)c(C)o3)ccc2CC1C(=O)NC1CCCc2ccccc21)C(C)(C)C

> <Shape>
0.288

> <Color>
0.180

> <Negative vol penalty>
0.000

$$$$

  -OEChem-04052302483D

 88 96  0     1  0  0  0  0  0999 V2000
  -26.0788  -24.3661   15.7972 C   0  0  0  0  0  0  0  0  0  0  0  0
  -25.6034  -23.6091   16.8632 C   0  0  0  0  0  0  0  0  0  0  0  0
  -23.2337   -9.8594   19.9977 C   0  0  0  0  0  0  0  0  0  0  0  0
  -23.9513   -9.9994   22.3004 C   0  0  0  0  0  0  0  0  0  0  0  0
  -27.3907  -24.1994   15.3556 C   0  0  0  0  0  0  0  0  0  0  0  0
  -26.4395  -22.6841   17.4876 C   0  0  0  0  0  0  0  0  0  0  0  0
  -26.5099  -21.2101   23.4314 C   0  0  0  0  0  0  0  0  0  0  0  0
  -22.5536   -8.6752   20.2816 C   0  0  0  0  0  0  0  0  0  0  0  0
  -23.2712   -8.8152   22.5843 C   0  0  0  0  0  0  0  0  0  0  0  0
  -25.9509  -20.1483   24.1411 C   0  0  0  0  0  0  0  0  0  0  0  0
  -21.4249   -6.0201   23.9974 C   0  0  0  0  0  0  0  0  0  0  0  0
  -20.6518   -5.9775   25.1576 C   0  0  0  0  0  0  0  0  0  0  0  0
  -28.0482  -18.9638   24.0091 C   0  0  0  0  0  0  0  0  0  0  0  0
  -32.7397  -15.7858   25.4535 C   0  0  0  0  0  0  0  0  0  0  0  0
  -30.5990  -15.5887   24.3512 C   0  0  0  0  0  0  0  0  0  0  0  0
  -32.6154  -14.9163   23.2028 C   0  0  0  0  0  0  0  0  0  0  0  0
  -19.3102   -7.8088   24.3310 C   0  0  0  0  0  0  0  0  0  0  0  0
  -23.9326  -10.5215   21.0071 C   0  0  0  0  0  0  0  0  0  0  0  0
  -24.1296  -13.0559   20.7926 C   0  0  0  0  0  0  0  0  0  0  0  0
  -28.2462  -23.2788   15.9811 C   0  0  0  0  0  0  0  0  0  0  0  0
  -27.8413  -21.1520   22.9950 C   0  0  0  0  0  0  0  0  0  0  0  0
  -27.7636  -22.5040   17.0531 C   0  0  0  0  0  0  0  0  0  0  0  0
  -28.6225  -20.0273   23.2962 C   0  0  0  0  0  0  0  0  0  0  0  0
  -31.3540  -15.9443   25.4689 C   0  0  0  0  0  0  0  0  0  0  0  0
  -33.3705  -15.2719   24.3204 C   0  0  0  0  0  0  0  0  0  0  0  0
  -31.2296  -15.0748   23.2182 C   0  0  0  0  0  0  0  0  0  0  0  0
  -22.5723   -8.1531   21.5749 C   0  0  0  0  0  0  0  0  0  0  0  0
  -26.7192  -19.0236   24.4276 C   0  0  0  0  0  0  0  0  0  0  0  0
  -21.1407   -6.9571   23.0040 C   0  0  0  0  0  0  0  0  0  0  0  0
  -19.5945   -6.8718   25.3244 C   0  0  0  0  0  0  0  0  0  0  0  0
  -20.0833   -7.8514   23.1708 C   0  0  0  0  0  0  0  0  0  0  0  0
  -24.6358  -11.7446   20.7143 C   0  0  0  0  0  0  0  0  0  0  0  0
  -25.1827  -13.8535   20.4168 C   0  0  0  0  0  0  0  0  0  0  0  0
  -22.8242  -13.5121   21.1712 C   0  0  0  0  0  0  0  0  0  0  0  0
  -29.2761  -21.1925   20.1588 C   0  0  0  0  0  0  0  0  0  0  0  0
  -28.2925  -16.6203   28.6833 C   0  0  0  0  0  0  0  0  0  0  0  0
  -31.9721  -21.3007   21.9594 C   0  0  0  0  0  0  0  0  0  0  0  0
  -33.4914  -20.6422   24.9435 C   0  0  0  0  0  0  0  0  0  0  0  0
  -30.9303  -14.1892   20.8788 C   0  0  0  0  0  0  0  0  0  0  0  0
  -29.6418  -23.0998   15.4380 C   0  0  0  0  0  0  0  0  0  0  0  0
  -28.4375  -22.3171   22.2536 C   0  0  0  0  0  0  0  0  0  0  0  0
  -30.0628  -19.9243   22.8679 C   0  0  0  0  0  0  0  0  0  0  0  0
  -30.5784  -22.3668   16.3949 C   0  0  0  0  0  0  0  0  0  0  0  0
  -29.3592  -13.1364   17.8621 C   0  0  0  0  0  0  0  0  0  0  0  0
  -29.8955  -21.1280   16.9660 C   0  0  0  0  0  0  0  0  0  0  0  0
  -27.9312  -12.7981   18.2960 C   0  0  0  0  0  0  0  0  0  0  0  0
  -30.3826  -12.7500   18.9285 C   0  0  0  0  0  0  0  0  0  0  0  0
  -28.6855  -12.9458   20.7035 C   0  0  0  0  0  0  0  0  0  0  0  0
  -28.6477  -21.5082   17.7721 C   0  0  1  0  0  0  0  0  0  0  0  0
  -29.6503  -21.9324   21.4119 C   0  0  1  0  0  0  0  0  0  0  0  0
  -27.6135  -13.3762   19.6890 C   0  0  2  0  0  0  0  0  0  0  0  0
  -35.7113  -20.8063   26.1023 C   0  0  0  0  0  0  0  0  0  0  0  0
  -29.3871  -14.6924   29.9452 C   0  0  0  0  0  0  0  0  0  0  0  0
  -30.5603  -16.8888   29.6514 C   0  0  0  0  0  0  0  0  0  0  0  0
  -32.9678  -18.8814   20.3892 C   0  0  0  0  0  0  0  0  0  0  0  0
  -34.6869  -18.5188   22.1730 C   0  0  0  0  0  0  0  0  0  0  0  0
  -34.7060  -20.6236   20.8343 C   0  0  0  0  0  0  0  0  0  0  0  0
  -32.4055  -22.4525   27.0177 C   0  0  0  0  0  0  0  0  0  0  0  0
  -30.6720  -16.5002   26.6946 C   0  0  0  0  0  0  0  0  0  0  0  0
  -27.1486  -15.8262   28.0588 C   0  0  0  0  0  0  0  0  0  0  0  0
  -30.2727  -15.3826   27.6700 C   0  0  0  0  0  0  0  0  0  0  0  0
  -26.2756  -16.6494   27.1146 C   0  0  0  0  0  0  0  0  0  0  0  0
  -27.0565  -17.2143   25.9337 C   0  0  0  0  0  0  0  0  0  1  0  0
  -32.8960  -20.2712   22.5639 C   0  0  1  0  0  0  0  0  0  0  0  0
  -34.3824  -21.4938   25.8297 C   0  0  2  0  0  0  0  0  0  0  0  0
  -29.6117  -15.8733   28.9890 C   0  0  0  0  0  0  0  0  0  0  0  0
  -33.7865  -19.5745   21.4966 C   0  0  0  0  0  0  0  0  0  0  0  0
  -25.9113  -11.7070   20.3197 N   0  0  0  0  0  0  0  0  0  0  0  0
  -26.2154  -13.0045   20.1465 N   0  0  0  0  0  0  0  0  0  0  0  0
  -30.5983  -21.0866   22.1401 N   0  0  0  0  0  0  0  0  0  0  0  0
  -30.0190  -13.3368   20.2201 N   0  0  0  0  0  0  0  0  0  0  0  0
  -34.7720  -15.1118   24.3052 N   0  0  0  0  0  0  0  0  0  0  0  0
  -25.3169  -15.1912   20.2944 N   0  0  0  0  0  0  0  0  0  0  0  0
  -21.8608  -12.5589   21.5285 N   0  0  0  0  0  0  0  0  0  0  0  0
  -30.4621  -14.7133   22.0833 N   0  0  0  0  0  0  0  0  0  0  0  0
  -29.0225  -22.0125   19.0759 N   0  0  0  0  0  0  0  0  0  0  0  0
  -33.6447  -20.9589   23.6103 N   0  0  0  0  0  0  0  0  0  0  0  0
  -33.7137  -21.7584   27.1350 N   0  3  0  0  0  0  0  0  0  0  0  0
  -22.5160  -14.7281   21.1762 O   0  0  0  0  0  0  0  0  0  0  0  0
  -29.2229  -19.9683   20.1730 O   0  0  0  0  0  0  0  0  0  0  0  0
  -28.1569  -17.8146   28.9598 O   0  0  0  0  0  0  0  0  0  0  0  0
  -32.4519  -22.2633   21.3554 O   0  0  0  0  0  0  0  0  0  0  0  0
  -32.7378  -19.7796   25.3890 O   0  0  0  0  0  0  0  0  0  0  0  0
  -32.0333  -14.4575   20.3958 O   0  0  0  0  0  0  0  0  0  0  0  0
  -21.9086   -6.9976   21.8523 O   0  0  0  0  0  0  0  0  0  0  0  0
  -26.1719  -17.9781   25.1246 O   0  0  0  0  0  0  0  0  0  1  0  0
  -18.8512   -6.8297   26.4380 F   0  0  0  0  0  0  0  0  0  0  0  0
  -19.8047   -8.7531   22.2193 F   0  0  0  0  0  0  0  0  0  0  0  0
  1  2  1  0  0  0  0
  1  5  2  0  0  0  0
  2  6  2  0  0  0  0
  3  8  2  0  0  0  0
  3 18  1  0  0  0  0
  4  9  1  0  0  0  0
  4 18  2  0  0  0  0
  5 20  1  0  0  0  0
  6 22  1  0  0  0  0
  7 10  2  0  0  0  0
  7 21  1  0  0  0  0
  8 27  1  0  0  0  0
  9 27  2  0  0  0  0
 10 28  1  0  0  0  0
 11 12  2  0  0  0  0
 11 29  1  0  0  0  0
 12 30  1  0  0  0  0
 13 23  1  0  0  0  0
 13 28  2  0  0  0  0
 14 24  1  0  0  0  0
 14 25  2  0  0  0  0
 15 24  2  0  0  0  0
 15 26  1  0  0  0  0
 16 25  1  0  0  0  0
 16 26  2  0  0  0  0
 17 30  2  0  0  0  0
 17 31  1  0  0  0  0
 18 32  1  0  0  0  0
 19 32  1  0  0  0  0
 19 33  2  0  0  0  0
 19 34  1  0  0  0  0
 20 22  2  0  0  0  0
 20 40  1  0  0  0  0
 21 23  2  0  0  0  0
 21 41  1  0  0  0  0
 22 49  1  0  0  0  0
 23 42  1  0  0  0  0
 24 59  1  0  0  0  0
 25 72  1  0  0  0  0
 26 75  1  0  0  0  0
 27 85  1  0  0  0  0
 28 86  1  0  0  0  0
 29 31  2  0  0  0  0
 29 85  1  0  0  0  0
 30 87  1  0  0  0  0
 31 88  1  0  0  0  0
 32 68  2  0  0  0  0
 33 69  1  0  0  0  0
 33 73  1  0  0  0  0
 34 74  1  0  0  0  0
 34 79  2  0  0  0  0
 35 50  1  0  0  0  0
 35 76  1  0  0  0  0
 35 80  2  0  0  0  0
 36 60  1  0  0  0  0
 36 66  1  0  0  0  0
 36 81  2  0  0  0  0
 37 64  1  0  0  0  0
 37 70  1  0  0  0  0
 37 82  2  0  0  0  0
 38 65  1  0  0  0  0
 38 77  1  0  0  0  0
 38 83  2  0  0  0  0
 39 71  1  0  0  0  0
 39 75  1  0  0  0  0
 39 84  2  0  0  0  0
 40 43  1  0  0  0  0
 41 50  1  0  0  0  0
 42 70  1  0  0  0  0
 43 45  1  0  0  0  0
 44 46  1  0  0  0  0
 44 47  1  0  0  0  0
 45 49  1  0  0  0  0
 46 51  1  0  0  0  0
 47 71  1  0  0  0  0
 48 51  1  0  0  0  0
 48 71  1  0  0  0  0
 49 76  1  0  0  0  0
 50 70  1  0  0  0  0
 51 69  1  0  0  0  0
 52 65  1  0  0  0  0
 53 66  1  0  0  0  0
 54 66  1  0  0  0  0
 55 67  1  0  0  0  0
 56 67  1  0  0  0  0
 57 67  1  0  0  0  0
 58 78  1  0  0  0  0
 59 61  1  0  0  0  0
 60 62  1  0  0  0  0
 61 66  1  0  0  0  0
 62 63  1  0  0  0  0
 63 86  1  0  0  0  0
 64 67  1  0  0  0  0
 64 77  1  0  0  0  0
 65 78  1  0  0  0  0
 68 69  1  0  0  0  0
M  CHG  1  78   1
M  ISO  4  39 100  63 101  75 100  86 101
M  END
> <Batch ID>
0139

> <Smiles>
CNC(C)C(=O)NC(C(=O)N1Cc2cc([101O:1][101CH2:1]CCC(=O)C(C)(C)CCc3cc(N)cc([100NH:0][100C:0](=O)N4CCCC(n5nc(-c6ccc(Oc7ccc(F)cc7F)cc6)c(C(N)=O)c5N)C4)c3)ccc2CC1C(=O)NC1CCCc2ccccc21)C(C)(C)C

> <Shape>
0.185

> <Color>
0.195

> <Negative vol penalty>
0.000

$$$$

  -OEChem-04052302483D

 83 91  0     1  0  0  0  0  0999 V2000
  -17.1134  -24.4188   22.6168 C   0  0  0  0  0  0  0  0  0  0  0  0
  -17.8603  -24.1073   21.4853 C   0  0  0  0  0  0  0  0  0  0  0  0
  -32.0460  -21.9099   14.9421 C   0  0  0  0  0  0  0  0  0  0  0  0
  -26.5649  -13.7485   21.7678 C   0  0  0  0  0  0  0  0  0  0  0  0
  -26.2983  -13.7676   19.3667 C   0  0  0  0  0  0  0  0  0  0  0  0
  -17.3847  -25.5855   23.3304 C   0  0  0  0  0  0  0  0  0  0  0  0
  -18.8784  -24.9629   21.0659 C   0  0  0  0  0  0  0  0  0  0  0  0
  -24.1812  -23.3705   18.4488 C   0  0  0  0  0  0  0  0  0  0  0  0
  -31.5983  -23.1195   14.4112 C   0  0  0  0  0  0  0  0  0  0  0  0
  -31.4168  -21.3637   16.0608 C   0  0  0  0  0  0  0  0  0  0  0  0
  -25.7248  -12.6383   21.8524 C   0  0  0  0  0  0  0  0  0  0  0  0
  -25.4581  -12.6573   19.4512 C   0  0  0  0  0  0  0  0  0  0  0  0
  -24.5994  -23.3410   17.1191 C   0  0  0  0  0  0  0  0  0  0  0  0
  -22.4036  -12.0163   21.7669 C   0  0  0  0  0  0  0  0  0  0  0  0
  -21.4188  -12.0235   22.7547 C   0  0  0  0  0  0  0  0  0  0  0  0
  -25.5971  -25.5204   17.3907 C   0  0  0  0  0  0  0  0  0  0  0  0
  -29.8920  -23.2369   16.1177 C   0  0  0  0  0  0  0  0  0  0  0  0
  -22.3751  -10.0271   23.7227 C   0  0  0  0  0  0  0  0  0  0  0  0
  -26.8517  -14.3132   20.5250 C   0  0  0  0  0  0  0  0  0  0  0  0
  -29.1182  -15.4583   20.2815 C   0  0  0  0  0  0  0  0  0  0  0  0
  -18.4130  -26.4510   22.9251 C   0  0  0  0  0  0  0  0  0  0  0  0
  -24.4589  -24.4818   19.2577 C   0  0  0  0  0  0  0  0  0  0  0  0
  -19.1628  -26.1430   21.7740 C   0  0  0  0  0  0  0  0  0  0  0  0
  -25.1836  -25.5605   18.7310 C   0  0  0  0  0  0  0  0  0  0  0  0
  -30.5213  -23.7830   14.9990 C   0  0  0  0  0  0  0  0  0  0  0  0
  -30.3398  -22.0272   16.6486 C   0  0  0  0  0  0  0  0  0  0  0  0
  -25.1714  -12.0927   20.6940 C   0  0  0  0  0  0  0  0  0  0  0  0
  -25.3049  -24.4172   16.5890 C   0  0  0  0  0  0  0  0  0  0  0  0
  -23.3742  -11.0145   21.7570 C   0  0  0  0  0  0  0  0  0  0  0  0
  -21.4046  -11.0289   23.7326 C   0  0  0  0  0  0  0  0  0  0  0  0
  -23.3600  -10.0200   22.7349 C   0  0  0  0  0  0  0  0  0  0  0  0
  -27.7190  -15.4604   20.4371 C   0  0  0  0  0  0  0  0  0  0  0  0
  -29.4624  -16.7877   20.2530 C   0  0  0  0  0  0  0  0  0  0  0  0
  -30.0255  -14.3536   20.1724 C   0  0  0  0  0  0  0  0  0  0  0  0
  -22.6955  -26.6266   20.8049 C   0  0  0  0  0  0  0  0  0  0  0  0
  -25.5735  -27.5934   21.9472 C   0  0  0  0  0  0  0  0  0  0  0  0
  -28.9574  -27.7357   21.5282 C   0  0  0  0  0  0  0  0  0  0  0  0
  -28.6190  -22.0009   18.4883 C   0  0  0  0  0  0  0  0  0  0  0  0
  -18.6380  -27.7244   23.7013 C   0  0  0  0  0  0  0  0  0  0  0  0
  -24.0241  -24.4867   20.6976 C   0  0  0  0  0  0  0  0  0  0  0  0
  -25.5248  -26.7685   19.5634 C   0  0  0  0  0  0  0  0  0  0  0  0
  -19.9806  -28.3883   23.4063 C   0  0  0  0  0  0  0  0  0  0  0  0
  -26.7365  -20.9197   21.3104 C   0  0  0  0  0  0  0  0  0  0  0  0
  -20.2301  -28.4430   21.9025 C   0  0  0  0  0  0  0  0  0  0  0  0
  -26.9394  -19.4028   21.3220 C   0  0  0  0  0  0  0  0  0  0  0  0
  -26.6362  -21.4676   19.8879 C   0  0  0  0  0  0  0  0  0  0  0  0
  -27.9449  -19.5741   19.0097 C   0  0  0  0  0  0  0  0  0  0  0  0
  -20.2917  -27.0334   21.3018 C   0  0  1  0  0  0  0  0  0  0  0  0
  -23.9149  -25.8909   21.2839 C   0  0  1  0  0  0  0  0  0  0  0  0
  -28.1167  -18.9848   20.4192 C   0  0  2  0  0  0  0  0  0  0  0  0
  -31.0406  -28.6242   22.6092 C   0  0  0  0  0  0  0  0  0  0  0  0
  -24.8698  -30.4032   20.9883 C   0  0  0  0  0  0  0  0  0  0  0  0
  -27.2878  -31.0112   21.2161 C   0  0  0  0  0  0  0  0  0  0  0  0
  -25.9844  -30.3130   23.2252 C   0  0  0  0  0  0  0  0  0  0  0  0
  -29.5001  -24.2036   12.1430 C   0  0  0  0  0  0  0  0  0  0  0  0
  -28.6025  -26.4316   12.7873 C   0  0  0  0  0  0  0  0  0  0  0  0
  -30.0982  -25.0215   21.8292 C   0  0  0  0  0  0  0  0  0  0  0  0
  -30.0362  -25.0943   14.4230 C   0  0  0  0  0  0  0  0  0  0  0  0
  -27.6121  -24.3796   13.8271 C   0  0  0  0  0  0  0  0  0  0  0  0
  -26.9085  -25.1032   14.9723 C   0  0  0  0  0  0  0  0  0  1  0  0
  -26.6248  -28.5799   21.4994 C   0  0  1  0  0  0  0  0  0  0  0  0
  -30.1035  -27.4338   22.4769 C   0  0  2  0  0  0  0  0  0  0  0  0
  -26.1838  -30.0550   21.7158 C   0  0  0  0  0  0  0  0  0  0  0  0
  -28.9328  -25.0220   13.3242 C   0  0  0  0  0  0  0  0  0  0  0  0
  -27.2094  -16.6933   20.5030 N   0  0  0  0  0  0  0  0  0  0  0  0
  -28.2941  -17.4783   20.3883 N   0  0  0  0  0  0  0  0  0  0  0  0
  -25.0723  -26.7287   20.9638 N   0  0  0  0  0  0  0  0  0  0  0  0
  -27.7872  -21.0346   19.0926 N   0  0  0  0  0  0  0  0  0  0  0  0
  -30.6475  -17.4216   20.1257 N   0  0  0  0  0  0  0  0  0  0  0  0
  -29.5041  -13.0535   20.2208 N   0  0  0  0  0  0  0  0  0  0  0  0
  -29.7003  -21.4718   17.7845 N   0  0  0  0  0  0  0  0  0  0  0  0
  -21.5721  -26.4199   21.5824 N   0  0  0  0  0  0  0  0  0  0  0  0
  -27.8519  -28.2144   22.1989 N   0  0  0  0  0  0  0  0  0  0  0  0
  -30.8907  -26.2685   21.9838 N   0  3  0  0  0  0  0  0  0  0  0  0
  -31.2638  -14.5144   20.0526 O   0  0  0  0  0  0  0  0  0  0  0  0
  -22.7689  -27.3309   19.8048 O   0  0  0  0  0  0  0  0  0  0  0  0
  -25.2155  -27.5853   23.1276 O   0  0  0  0  0  0  0  0  0  0  0  0
  -29.0365  -27.5676   20.3133 O   0  0  0  0  0  0  0  0  0  0  0  0
  -28.4045  -23.2096   18.6105 O   0  0  0  0  0  0  0  0  0  0  0  0
  -24.3517  -11.0092   20.7761 O   0  0  0  0  0  0  0  0  0  0  0  0
  -25.7136  -24.3912   15.2913 O   0  0  0  0  0  0  0  0  0  1  0  0
  -20.4597  -11.0368   24.6820 F   0  0  0  0  0  0  0  0  0  0  0  0
  -24.2905   -9.0556   22.7312 F   0  0  0  0  0  0  0  0  0  0  0  0
  1  2  1  0  0  0  0
  1  6  2  0  0  0  0
  2  7  2  0  0  0  0
  3  9  2  0  0  0  0
  3 10  1  0  0  0  0
  4 11  2  0  0  0  0
  4 19  1  0  0  0  0
  5 12  1  0  0  0  0
  5 19  2  0  0  0  0
  6 21  1  0  0  0  0
  7 23  1  0  0  0  0
  8 13  2  0  0  0  0
  8 22  1  0  0  0  0
  9 25  1  0  0  0  0
 10 26  2  0  0  0  0
 11 27  1  0  0  0  0
 12 27  2  0  0  0  0
 13 28  1  0  0  0  0
 14 15  2  0  0  0  0
 14 29  1  0  0  0  0
 15 30  1  0  0  0  0
 16 24  1  0  0  0  0
 16 28  2  0  0  0  0
 17 25  2  0  0  0  0
 17 26  1  0  0  0  0
 18 30  2  0  0  0  0
 18 31  1  0  0  0  0
 19 32  1  0  0  0  0
 20 32  1  0  0  0  0
 20 33  2  0  0  0  0
 20 34  1  0  0  0  0
 21 23  2  0  0  0  0
 21 39  1  0  0  0  0
 22 24  2  0  0  0  0
 22 40  1  0  0  0  0
 23 48  1  0  0  0  0
 24 41  1  0  0  0  0
 25 58  1  0  0  0  0
 26 71  1  0  0  0  0
 27 80  1  0  0  0  0
 28 81  1  0  0  0  0
 29 31  2  0  0  0  0
 29 80  1  0  0  0  0
 30 82  1  0  0  0  0
 31 83  1  0  0  0  0
 32 65  2  0  0  0  0
 33 66  1  0  0  0  0
 33 69  1  0  0  0  0
 34 70  1  0  0  0  0
 34 75  2  0  0  0  0
 35 49  1  0  0  0  0
 35 72  1  0  0  0  0
 35 76  2  0  0  0  0
 36 61  1  0  0  0  0
 36 67  1  0  0  0  0
 36 77  2  0  0  0  0
 37 62  1  0  0  0  0
 37 73  1  0  0  0  0
 37 78  2  0  0  0  0
 38 68  1  0  0  0  0
 38 71  1  0  0  0  0
 38 79  2  0  0  0  0
 39 42  1  0  0  0  0
 40 49  1  0  0  0  0
 41 67  1  0  0  0  0
 42 44  1  0  0  0  0
 43 45  1  0  0  0  0
 43 46  1  0  0  0  0
 44 48  1  0  0  0  0
 45 50  1  0  0  0  0
 46 68  1  0  0  0  0
 47 50  1  0  0  0  0
 47 68  1  0  0  0  0
 48 72  1  0  0  0  0
 49 67  1  0  0  0  0
 50 66  1  0  0  0  0
 51 62  1  0  0  0  0
 52 63  1  0  0  0  0
 53 63  1  0  0  0  0
 54 63  1  0  0  0  0
 55 64  1  0  0  0  0
 56 64  1  0  0  0  0
 57 74  1  0  0  0  0
 58 64  1  0  0  0  0
 59 60  1  0  0  0  0
 59 64  1  0  0  0  0
 60 81  1  0  0  0  0
 61 63  1  0  0  0  0
 61 73  1  0  0  0  0
 62 74  1  0  0  0  0
 65 66  1  0  0  0  0
M  CHG  1  74   1
M  ISO  4  38 100  60 101  71 100  81 101
M  END
> <Batch ID>
0139

> <Smiles>
CNC(C)C(=O)NC(C(=O)N1Cc2cc([101O:1][101CH2:1]CC(C)(C)Cc3cccc([100NH:0][100C:0](=O)N4CCCC(n5nc(-c6ccc(Oc7ccc(F)cc7F)cc6)c(C(N)=O)c5N)C4)c3)ccc2CC1C(=O)NC1CCCc2ccccc21)C(C)(C)C

> <Shape>
0.233

> <Color>
0.076

> <Negative vol penalty>
0.000

$$$$

  -OEChem-04052302483D

 86 94  0     1  0  0  0  0  0999 V2000
  -33.4948  -31.4063   18.8443 C   0  0  0  0  0  0  0  0  0  0  0  0
  -33.0853  -30.7668   20.0100 C   0  0  0  0  0  0  0  0  0  0  0  0
  -23.0398   -9.8599   20.0083 C   0  0  0  0  0  0  0  0  0  0  0  0
  -23.7777   -9.9406   22.3075 C   0  0  0  0  0  0  0  0  0  0  0  0
  -30.5801  -18.3214   23.8512 C   0  0  0  0  0  0  0  0  0  0  0  0
  -32.7508  -17.4030   23.3205 C   0  0  0  0  0  0  0  0  0  0  0  0
  -32.6475  -31.4460   17.7378 C   0  0  0  0  0  0  0  0  0  0  0  0
  -31.8277  -30.1674   20.0701 C   0  0  0  0  0  0  0  0  0  0  0  0
  -31.9656  -25.5711   22.1912 C   0  0  0  0  0  0  0  0  0  0  0  0
  -29.9825  -17.4152   22.9754 C   0  0  0  0  0  0  0  0  0  0  0  0
  -32.1532  -16.4967   22.4447 C   0  0  0  0  0  0  0  0  0  0  0  0
  -22.2674   -8.7345   20.2956 C   0  0  0  0  0  0  0  0  0  0  0  0
  -23.0052   -8.8152   22.5948 C   0  0  0  0  0  0  0  0  0  0  0  0
  -32.0514  -25.5138   23.5816 C   0  0  0  0  0  0  0  0  0  0  0  0
  -19.7540   -8.1146   23.1944 C   0  0  0  0  0  0  0  0  0  0  0  0
  -18.9852   -8.1380   24.3579 C   0  0  0  0  0  0  0  0  0  0  0  0
  -29.6792  -25.0935   23.7047 C   0  0  0  0  0  0  0  0  0  0  0  0
  -20.1748   -6.2038   25.1830 C   0  0  0  0  0  0  0  0  0  0  0  0
  -23.7950  -10.4629   21.0142 C   0  0  0  0  0  0  0  0  0  0  0  0
  -31.9643  -18.3154   24.0238 C   0  0  0  0  0  0  0  0  0  0  0  0
  -24.1956  -12.9730   20.7985 C   0  0  0  0  0  0  0  0  0  0  0  0
  -31.3827  -30.8385   17.7812 C   0  0  0  0  0  0  0  0  0  0  0  0
  -30.7320  -25.4006   21.5466 C   0  0  0  0  0  0  0  0  0  0  0  0
  -30.9621  -30.2002   18.9636 C   0  0  0  0  0  0  0  0  0  0  0  0
  -29.5808  -25.1465   22.3059 C   0  0  0  0  0  0  0  0  0  0  0  0
  -30.7690  -16.5028   22.2721 C   0  0  0  0  0  0  0  0  0  0  0  0
  -22.2501   -8.2122   21.5889 C   0  0  0  0  0  0  0  0  0  0  0  0
  -30.9077  -25.2778   24.3387 C   0  0  0  0  0  0  0  0  0  0  0  0
  -20.7333   -7.1357   23.0251 C   0  0  0  0  0  0  0  0  0  0  0  0
  -19.1956   -7.1827   25.3523 C   0  0  0  0  0  0  0  0  0  0  0  0
  -20.9437   -6.1804   24.0194 C   0  0  0  0  0  0  0  0  0  0  0  0
  -24.5935  -11.6251   20.7179 C   0  0  0  0  0  0  0  0  0  0  0  0
  -25.3080  -13.6828   20.4175 C   0  0  0  0  0  0  0  0  0  0  0  0
  -32.6066  -19.2895   24.9649 C   0  0  0  0  0  0  0  0  0  0  0  0
  -22.9333  -13.5334   21.1835 C   0  0  0  0  0  0  0  0  0  0  0  0
  -28.9078  -27.2132   19.6784 C   0  0  0  0  0  0  0  0  0  0  0  0
  -27.1459  -24.5012   19.4279 C   0  0  0  0  0  0  0  0  0  0  0  0
  -26.2417  -21.4989   20.7753 C   0  0  0  0  0  0  0  0  0  0  0  0
  -30.7948  -14.6115   20.6083 C   0  0  0  0  0  0  0  0  0  0  0  0
  -30.4829  -30.9483   16.5758 C   0  0  0  0  0  0  0  0  0  0  0  0
  -30.6607  -25.4387   20.0447 C   0  0  0  0  0  0  0  0  0  0  0  0
  -28.2360  -24.9365   21.6612 C   0  0  0  0  0  0  0  0  0  0  0  0
  -29.3157  -29.9646   16.5953 C   0  0  0  0  0  0  0  0  0  0  0  0
  -29.6482  -12.1314   18.3252 C   0  0  0  0  0  0  0  0  0  0  0  0
  -28.6406  -29.9644   17.9632 C   0  0  0  0  0  0  0  0  0  0  0  0
  -28.1982  -11.8895   18.7508 C   0  0  0  0  0  0  0  0  0  0  0  0
  -30.5568  -12.3870   19.5265 C   0  0  0  0  0  0  0  0  0  0  0  0
  -28.6537  -13.2082   20.8581 C   0  0  0  0  0  0  0  0  0  0  0  0
  -29.6152  -29.5170   19.0593 C   0  0  1  0  0  0  0  0  0  0  0  0
  -29.2650  -25.7623   19.5207 C   0  0  1  0  0  0  0  0  0  0  0  0
  -27.6885  -13.0104   19.6779 C   0  0  2  0  0  0  0  0  0  0  0  0
  -25.1411  -19.2483   20.9195 C   0  0  0  0  0  0  0  0  0  0  0  0
  -31.8090  -24.3936   27.7675 C   0  0  0  0  0  0  0  0  0  0  0  0
  -24.7239  -26.1440   20.2909 C   0  0  0  0  0  0  0  0  0  0  0  0
  -23.5275  -23.9982   20.7726 C   0  0  0  0  0  0  0  0  0  0  0  0
  -24.2754  -24.5127   18.4491 C   0  0  0  0  0  0  0  0  0  0  0  0
  -28.5450  -20.1609   19.4855 C   0  0  0  0  0  0  0  0  0  0  0  0
  -31.3422  -22.8384   25.8544 C   0  0  0  0  0  0  0  0  0  0  0  0
  -25.9953  -23.8989   20.1975 C   0  0  1  0  0  0  0  0  0  0  0  0
  -26.1428  -20.1111   20.1680 C   0  0  2  0  0  0  0  0  0  0  0  0
  -31.8387  -24.2217   26.2554 C   0  0  1  0  0  0  0  0  0  1  0  0
  -24.6554  -24.6443   19.9401 C   0  0  0  0  0  0  0  0  0  0  0  0
  -25.8598  -11.4844   20.3170 N   0  0  0  0  0  0  0  0  0  0  0  0
  -31.9992  -20.4335   25.1120 N   0  0  0  0  0  0  0  0  0  0  0  0
  -26.2672  -12.7531   20.1422 N   0  0  0  0  0  0  0  0  0  0  0  0
  -28.2167  -24.9894   20.1900 N   0  0  0  0  0  0  0  0  0  0  0  0
  -30.0131  -13.4640   20.3567 N   0  0  0  0  0  0  0  0  0  0  0  0
  -25.5495  -15.0053   20.2944 N   0  0  0  0  0  0  0  0  0  0  0  0
  -33.7751  -18.9024   25.5871 N   0  0  0  0  0  0  0  0  0  0  0  0
  -21.8976  -12.6612   21.5456 N   0  0  0  0  0  0  0  0  0  0  0  0
  -30.1609  -15.5825   21.3828 N   0  0  0  0  0  0  0  0  0  0  0  0
  -29.7741  -28.0787   19.0380 N   0  0  0  0  0  0  0  0  0  0  0  0
  -25.9678  -22.4826   19.8487 N   0  0  0  0  0  0  0  0  0  0  0  0
  -27.4694  -19.4331   20.2068 N   0  3  0  0  0  0  0  0  0  0  0  0
  -22.7247  -14.7703   21.1899 O   0  0  0  0  0  0  0  0  0  0  0  0
  -27.9187  -27.5245   20.3313 O   0  0  0  0  0  0  0  0  0  0  0  0
  -27.0996  -24.5307   18.1956 O   0  0  0  0  0  0  0  0  0  0  0  0
  -26.5292  -21.6910   21.9547 O   0  0  0  0  0  0  0  0  0  0  0  0
  -31.9318  -14.7361   20.1462 O   0  0  0  0  0  0  0  0  0  0  0  0
  -32.4866  -21.1697   27.4824 O   0  0  0  0  0  0  0  0  0  0  0  0
  -33.8228  -22.1257   25.5689 O   0  0  0  0  0  0  0  0  0  0  0  0
  -21.4963   -7.1142   21.8697 O   0  0  0  0  0  0  0  0  0  0  0  0
  -30.9886  -25.2220   25.6960 O   0  0  0  0  0  0  0  0  0  1  0  0
  -18.4582   -7.2063   26.4703 F   0  0  0  0  0  0  0  0  0  0  0  0
  -21.8838   -5.2383   23.8630 F   0  0  0  0  0  0  0  0  0  0  0  0
  -32.5762  -21.5963   26.0960 S   0  0  0  0  0  0  0  0  0  0  0  0
  1  2  1  0  0  0  0
  1  7  2  0  0  0  0
  2  8  2  0  0  0  0
  3 12  2  0  0  0  0
  3 19  1  0  0  0  0
  4 13  1  0  0  0  0
  4 19  2  0  0  0  0
  5 10  2  0  0  0  0
  5 20  1  0  0  0  0
  6 11  1  0  0  0  0
  6 20  2  0  0  0  0
  7 22  1  0  0  0  0
  8 24  1  0  0  0  0
  9 14  2  0  0  0  0
  9 23  1  0  0  0  0
 10 26  1  0  0  0  0
 11 26  2  0  0  0  0
 12 27  1  0  0  0  0
 13 27  2  0  0  0  0
 14 28  1  0  0  0  0
 15 16  2  0  0  0  0
 15 29  1  0  0  0  0
 16 30  1  0  0  0  0
 17 25  1  0  0  0  0
 17 28  2  0  0  0  0
 18 30  2  0  0  0  0
 18 31  1  0  0  0  0
 19 32  1  0  0  0  0
 20 34  1  0  0  0  0
 21 32  1  0  0  0  0
 21 33  2  0  0  0  0
 21 35  1  0  0  0  0
 22 24  2  0  0  0  0
 22 40  1  0  0  0  0
 23 25  2  0  0  0  0
 23 41  1  0  0  0  0
 24 49  1  0  0  0  0
 25 42  1  0  0  0  0
 26 71  1  0  0  0  0
 27 82  1  0  0  0  0
 28 83  1  0  0  0  0
 29 31  2  0  0  0  0
 29 82  1  0  0  0  0
 30 84  1  0  0  0  0
 31 85  1  0  0  0  0
 32 63  2  0  0  0  0
 33 65  1  0  0  0  0
 33 68  1  0  0  0  0
 34 64  2  0  0  0  0
 34 69  1  0  0  0  0
 35 70  1  0  0  0  0
 35 75  2  0  0  0  0
 36 50  1  0  0  0  0
 36 72  1  0  0  0  0
 36 76  2  0  0  0  0
 37 59  1  0  0  0  0
 37 66  1  0  0  0  0
 37 77  2  0  0  0  0
 38 60  1  0  0  0  0
 38 73  1  0  0  0  0
 38 78  2  0  0  0  0
 39 67  1  0  0  0  0
 39 71  1  0  0  0  0
 39 79  2  0  0  0  0
 40 43  1  0  0  0  0
 41 50  1  0  0  0  0
 42 66  1  0  0  0  0
 43 45  1  0  0  0  0
 44 46  1  0  0  0  0
 44 47  1  0  0  0  0
 45 49  1  0  0  0  0
 46 51  1  0  0  0  0
 47 67  1  0  0  0  0
 48 51  1  0  0  0  0
 48 67  1  0  0  0  0
 49 72  1  0  0  0  0
 50 66  1  0  0  0  0
 51 65  1  0  0  0  0
 52 60  1  0  0  0  0
 53 61  1  0  0  0  0
 54 62  1  0  0  0  0
 55 62  1  0  0  0  0
 56 62  1  0  0  0  0
 57 74  1  0  0  0  0
 58 61  1  0  0  0  0
 58 86  1  0  0  0  0
 59 62  1  0  0  0  0
 59 73  1  0  0  0  0
 60 74  1  0  0  0  0
 61 83  1  0  0  0  0
 63 65  1  0  0  0  0
 64 86  1  0  0  0  0
 80 86  2  0  0  0  0
 81 86  2  0  0  0  0
M  CHG  1  74   1
M  ISO  4  39 100  61 101  71 100  83 101
M  END
> <Batch ID>
0139

> <Smiles>
CNC(C)C(=O)NC(C(=O)N1Cc2cc([101O:1][101CH:1](C)CS(=O)(=O)NC(=N)c3ccc([100NH:0][100C:0](=O)N4CCCC(n5nc(-c6ccc(Oc7ccc(F)cc7F)cc6)c(C(N)=O)c5N)C4)cc3)ccc2CC1C(=O)NC1CCCc2ccccc21)C(C)(C)C

> <Shape>
0.223

> <Color>
0.189

> <Negative vol penalty>
0.000

$$$$

  -OEChem-04052302483D

 85 94  0     1  0  0  0  0  0999 V2000
  -30.0490  -24.8051   17.2430 C   0  0  0  0  0  0  0  0  0  0  0  0
  -28.6939  -24.7064   17.5419 C   0  0  0  0  0  0  0  0  0  0  0  0
  -21.8524  -22.7473   26.7920 C   0  0  0  0  0  0  0  0  0  0  0  0
  -28.1751  -14.8031   21.1708 C   0  0  0  0  0  0  0  0  0  0  0  0
  -26.0062  -15.6318   20.5031 C   0  0  0  0  0  0  0  0  0  0  0  0
  -20.8853  -22.7251   25.7871 C   0  0  0  0  0  0  0  0  0  0  0  0
  -30.9096  -25.4617   18.1218 C   0  0  0  0  0  0  0  0  0  0  0  0
  -28.1987  -25.2634   18.7205 C   0  0  0  0  0  0  0  0  0  0  0  0
  -22.7162  -27.8656   19.5430 C   0  0  0  0  0  0  0  0  0  0  0  0
  -23.1709  -22.3988   26.4990 C   0  0  0  0  0  0  0  0  0  0  0  0
  -27.7478  -13.4961   20.9372 C   0  0  0  0  0  0  0  0  0  0  0  0
  -25.5788  -14.3247   20.2694 C   0  0  0  0  0  0  0  0  0  0  0  0
  -21.5220  -27.3872   20.0802 C   0  0  0  0  0  0  0  0  0  0  0  0
  -24.5075  -11.6896   22.0968 C   0  0  0  0  0  0  0  0  0  0  0  0
  -23.2492  -11.3240   22.5748 C   0  0  0  0  0  0  0  0  0  0  0  0
  -22.5551  -22.0057   24.1961 C   0  0  0  0  0  0  0  0  0  0  0  0
  -22.0996  -28.3566   22.2123 C   0  0  0  0  0  0  0  0  0  0  0  0
  -22.5404  -10.8171   20.3214 C   0  0  0  0  0  0  0  0  0  0  0  0
  -27.3043  -15.8710   20.9538 C   0  0  0  0  0  0  0  0  0  0  0  0
  -21.2366  -22.3543   24.4892 C   0  0  0  0  0  0  0  0  0  0  0  0
  -28.3605  -18.0921   20.2764 C   0  0  0  0  0  0  0  0  0  0  0  0
  -30.4231  -26.0354   19.3070 C   0  0  0  0  0  0  0  0  0  0  0  0
  -23.6177  -28.5850   20.3407 C   0  0  0  0  0  0  0  0  0  0  0  0
  -29.0538  -25.9271   19.6166 C   0  0  0  0  0  0  0  0  0  0  0  0
  -23.3035  -28.8453   21.6822 C   0  0  0  0  0  0  0  0  0  0  0  0
  -23.5222  -22.0280   25.2010 C   0  0  0  0  0  0  0  0  0  0  0  0
  -26.4496  -13.2569   20.4864 C   0  0  0  0  0  0  0  0  0  0  0  0
  -21.2148  -27.6301   21.4158 C   0  0  0  0  0  0  0  0  0  0  0  0
  -24.7823  -11.6191   20.7310 C   0  0  0  0  0  0  0  0  0  0  0  0
  -22.2656  -10.8877   21.6872 C   0  0  0  0  0  0  0  0  0  0  0  0
  -23.7987  -11.1828   19.8434 C   0  0  0  0  0  0  0  0  0  0  0  0
  -27.7451  -17.2213   21.1956 C   0  0  0  0  0  0  0  0  0  0  0  0
  -28.5803  -19.2449   20.9899 C   0  0  0  0  0  0  0  0  0  0  0  0
  -20.2156  -22.3311   23.4266 C   0  0  0  0  0  0  0  0  0  0  0  0
  -28.7027  -17.8780   18.9007 C   0  0  0  0  0  0  0  0  0  0  0  0
  -26.6174  -28.1414   21.2940 C   0  0  0  0  0  0  0  0  0  0  0  0
  -26.2592  -31.1253   22.5149 C   0  0  0  0  0  0  0  0  0  0  0  0
  -24.1519  -33.5547   23.6569 C   0  0  0  0  0  0  0  0  0  0  0  0
  -25.9425  -21.6438   25.7849 C   0  0  0  0  0  0  0  0  0  0  0  0
  -31.3997  -26.6940   20.2488 C   0  0  0  0  0  0  0  0  0  0  0  0
  -24.8894  -29.1173   19.7391 C   0  0  0  0  0  0  0  0  0  0  0  0
  -24.2281  -29.6299   22.5754 C   0  0  0  0  0  0  0  0  0  0  0  0
  -30.7320  -27.5830   21.2949 C   0  0  0  0  0  0  0  0  0  0  0  0
  -29.3835  -20.7928   25.4501 C   0  0  0  0  0  0  0  0  0  0  0  0
  -29.5425  -26.8653   21.9246 C   0  0  0  0  0  0  0  0  0  0  0  0
  -29.4107  -19.8645   24.2337 C   0  0  0  0  0  0  0  0  0  0  0  0
  -28.1298  -20.5815   26.2970 C   0  0  0  0  0  0  0  0  0  0  0  0
  -26.8892  -19.7351   24.3441 C   0  0  0  0  0  0  0  0  0  0  0  0
  -18.5534  -23.7140   22.1557 C   0  0  0  0  0  0  0  0  0  0  0  0
  -19.6609  -24.7668   23.6517 C   0  0  0  0  0  0  0  0  0  0  0  0
  -28.4746  -26.5400   20.8732 C   0  0  1  0  0  0  0  0  0  0  0  0
  -25.9711  -29.3960   20.7783 C   0  0  1  0  0  0  0  0  0  0  0  0
  -28.1017  -19.9565   23.4252 C   0  0  2  0  0  0  0  0  0  0  0  0
  -18.7652  -25.2168   22.4698 C   0  0  0  0  0  0  0  0  0  0  0  0
  -17.4986  -25.9518   22.8907 C   0  0  0  0  0  0  0  0  0  0  0  0
  -24.1553  -35.8704   24.6238 C   0  0  0  0  0  0  0  0  0  0  0  0
  -27.1670  -29.9995   25.2016 C   0  0  0  0  0  0  0  0  0  0  0  0
  -26.2552  -32.0595   26.2940 C   0  0  0  0  0  0  0  0  0  0  0  0
  -28.1121  -32.2455   24.6387 C   0  0  0  0  0  0  0  0  0  0  0  0
  -22.5734  -34.6268   21.3947 C   0  0  0  0  0  0  0  0  0  0  0  0
  -19.5210  -25.9610   21.3861 C   0  0  0  0  0  0  0  0  0  1  0  0
  -25.7814  -31.6921   23.8299 C   0  0  1  0  0  0  0  0  0  0  0  0
  -24.0678  -35.0396   23.3530 C   0  0  2  0  0  0  0  0  0  0  0  0
  -26.8122  -31.4827   24.9750 C   0  0  0  0  0  0  0  0  0  0  0  0
  -27.5844  -17.7737   22.4010 N   0  0  0  0  0  0  0  0  0  0  0  0
  -28.1022  -19.0039   22.2443 N   0  0  0  0  0  0  0  0  0  0  0  0
  -19.5805  -23.4285   23.1248 N   0  0  0  0  0  0  0  0  0  0  0  0
  -25.4622  -30.1238   21.9425 N   0  0  0  0  0  0  0  0  0  0  0  0
  -26.9291  -20.6872   25.4651 N   0  0  0  0  0  0  0  0  0  0  0  0
  -29.1342  -20.4312   20.6604 N   0  0  0  0  0  0  0  0  0  0  0  0
  -28.4064  -16.6355   18.3240 N   0  0  0  0  0  0  0  0  0  0  0  0
  -24.8618  -21.6741   24.9042 N   0  0  0  0  0  0  0  0  0  0  0  0
  -27.7051  -27.7228   20.5517 N   0  0  0  0  0  0  0  0  0  0  0  0
  -25.4472  -33.0891   23.5750 N   0  0  0  0  0  0  0  0  0  0  0  0
  -19.9597  -21.1913   22.7912 N   0  3  0  0  0  0  0  0  0  0  0  0
  -22.7809  -35.3568   22.6718 N   0  3  0  0  0  0  0  0  0  0  0  0
  -29.2699  -18.7567   18.2080 O   0  0  0  0  0  0  0  0  0  0  0  0
  -26.1638  -27.5946   22.2925 O   0  0  0  0  0  0  0  0  0  0  0  0
  -27.2974  -31.5603   22.0104 O   0  0  0  0  0  0  0  0  0  0  0  0
  -23.1675  -32.8764   23.9423 O   0  0  0  0  0  0  0  0  0  0  0  0
  -26.0615  -22.4004   26.7521 O   0  0  0  0  0  0  0  0  0  0  0  0
  -26.0323  -11.9816   20.2581 O   0  0  0  0  0  0  0  0  0  0  0  0
  -20.0501  -27.1637   21.9428 O   0  0  0  0  0  0  0  0  0  1  0  0
  -21.0578  -10.5352   22.1466 F   0  0  0  0  0  0  0  0  0  0  0  0
  -24.0572  -11.1117   18.5304 F   0  0  0  0  0  0  0  0  0  0  0  0
  1  2  1  0  0  0  0
  1  7  2  0  0  0  0
  2  8  2  0  0  0  0
  3  6  2  0  0  0  0
  3 10  1  0  0  0  0
  4 11  2  0  0  0  0
  4 19  1  0  0  0  0
  5 12  1  0  0  0  0
  5 19  2  0  0  0  0
  6 20  1  0  0  0  0
  7 22  1  0  0  0  0
  8 24  1  0  0  0  0
  9 13  2  0  0  0  0
  9 23  1  0  0  0  0
 10 26  2  0  0  0  0
 11 27  1  0  0  0  0
 12 27  2  0  0  0  0
 13 28  1  0  0  0  0
 14 15  2  0  0  0  0
 14 29  1  0  0  0  0
 15 30  1  0  0  0  0
 16 20  2  0  0  0  0
 16 26  1  0  0  0  0
 17 25  1  0  0  0  0
 17 28  2  0  0  0  0
 18 30  2  0  0  0  0
 18 31  1  0  0  0  0
 19 32  1  0  0  0  0
 20 34  1  0  0  0  0
 21 32  1  0  0  0  0
 21 33  2  0  0  0  0
 21 35  1  0  0  0  0
 22 24  2  0  0  0  0
 22 40  1  0  0  0  0
 23 25  2  0  0  0  0
 23 41  1  0  0  0  0
 24 51  1  0  0  0  0
 25 42  1  0  0  0  0
 26 72  1  0  0  0  0
 27 82  1  0  0  0  0
 28 83  1  0  0  0  0
 29 31  2  0  0  0  0
 29 82  1  0  0  0  0
 30 84  1  0  0  0  0
 31 85  1  0  0  0  0
 32 65  2  0  0  0  0
 33 66  1  0  0  0  0
 33 70  1  0  0  0  0
 34 67  1  0  0  0  0
 34 75  2  0  0  0  0
 35 71  1  0  0  0  0
 35 77  2  0  0  0  0
 36 52  1  0  0  0  0
 36 73  1  0  0  0  0
 36 78  2  0  0  0  0
 37 62  1  0  0  0  0
 37 68  1  0  0  0  0
 37 79  2  0  0  0  0
 38 63  1  0  0  0  0
 38 74  1  0  0  0  0
 38 80  2  0  0  0  0
 39 69  1  0  0  0  0
 39 72  1  0  0  0  0
 39 81  2  0  0  0  0
 40 43  1  0  0  0  0
 41 52  1  0  0  0  0
 42 68  1  0  0  0  0
 43 45  1  0  0  0  0
 44 46  1  0  0  0  0
 44 47  1  0  0  0  0
 45 51  1  0  0  0  0
 46 53  1  0  0  0  0
 47 69  1  0  0  0  0
 48 53  1  0  0  0  0
 48 69  1  0  0  0  0
 49 54  1  0  0  0  0
 49 67  1  0  0  0  0
 50 54  1  0  0  0  0
 50 67  1  0  0  0  0
 51 73  1  0  0  0  0
 52 68  1  0  0  0  0
 53 66  1  0  0  0  0
 54 55  1  0  0  0  0
 54 61  1  0  0  0  0
 56 63  1  0  0  0  0
 57 64  1  0  0  0  0
 58 64  1  0  0  0  0
 59 64  1  0  0  0  0
 60 76  1  0  0  0  0
 61 83  1  0  0  0  0
 62 64  1  0  0  0  0
 62 74  1  0  0  0  0
 63 76  1  0  0  0  0
 65 66  1  0  0  0  0
M  CHG  2  75   1  76   1
M  ISO  4  39 100  61 101  72 100  83 101
M  END
> <Batch ID>
0139

> <Smiles>
CNC(C)C(=O)NC(C(=O)N1Cc2cc([101O:1][101CH2:1]C3(C)CN(C(=N)c4cccc([100NH:0][100C:0](=O)N5CCCC(n6nc(-c7ccc(Oc8ccc(F)cc8F)cc7)c(C(N)=O)c6N)C5)c4)C3)ccc2CC1C(=O)NC1CCCc2ccccc21)C(C)(C)C

> <Shape>
0.299

> <Color>
0.066

> <Negative vol penalty>
0.000

$$$$

  -OEChem-04052302483D

 86 95  0     1  0  0  0  0  0999 V2000
  -18.5831  -32.1511   20.6127 C   0  0  0  0  0  0  0  0  0  0  0  0
  -19.8920  -31.8348   20.2632 C   0  0  0  0  0  0  0  0  0  0  0  0
  -23.0580  -10.0244   21.3065 C   0  0  0  0  0  0  0  0  0  0  0  0
  -23.8707  -10.7472   23.4638 C   0  0  0  0  0  0  0  0  0  0  0  0
  -18.0038  -31.5697   21.7397 C   0  0  0  0  0  0  0  0  0  0  0  0
  -20.6227  -30.9376   21.0413 C   0  0  0  0  0  0  0  0  0  0  0  0
  -29.7289  -19.6666   20.5138 C   0  0  0  0  0  0  0  0  0  0  0  0
  -24.7906  -26.9045   19.0742 C   0  0  0  0  0  0  0  0  0  0  0  0
  -29.5587  -18.3512   20.9454 C   0  0  0  0  0  0  0  0  0  0  0  0
  -22.3198   -9.0142   21.9230 C   0  0  0  0  0  0  0  0  0  0  0  0
  -23.1325   -9.7370   24.0804 C   0  0  0  0  0  0  0  0  0  0  0  0
  -26.1838  -26.9386   19.0362 C   0  0  0  0  0  0  0  0  0  0  0  0
  -22.8977   -5.9518   23.2314 C   0  0  0  0  0  0  0  0  0  0  0  0
  -22.9426   -4.6786   22.6635 C   0  0  0  0  0  0  0  0  0  0  0  0
  -26.2643  -25.7294   21.1220 C   0  0  0  0  0  0  0  0  0  0  0  0
  -31.1497  -17.6018   19.2889 C   0  0  0  0  0  0  0  0  0  0  0  0
  -20.5506   -4.7433   22.3297 C   0  0  0  0  0  0  0  0  0  0  0  0
  -23.8336  -10.8909   22.0769 C   0  0  0  0  0  0  0  0  0  0  0  0
  -24.1732  -13.2472   21.1604 C   0  0  0  0  0  0  0  0  0  0  0  0
  -18.7245  -30.6575   22.5265 C   0  0  0  0  0  0  0  0  0  0  0  0
  -24.1225  -26.2911   20.1438 C   0  0  0  0  0  0  0  0  0  0  0  0
  -20.0529  -30.3444   22.1807 C   0  0  0  0  0  0  0  0  0  0  0  0
  -30.6094  -19.9497   19.4697 C   0  0  0  0  0  0  0  0  0  0  0  0
  -24.8625  -25.6866   21.1699 C   0  0  0  0  0  0  0  0  0  0  0  0
  -31.3198  -18.9173   18.8572 C   0  0  0  0  0  0  0  0  0  0  0  0
  -30.2691  -17.3188   20.3330 C   0  0  0  0  0  0  0  0  0  0  0  0
  -22.3570   -8.8705   23.3099 C   0  0  0  0  0  0  0  0  0  0  0  0
  -26.9209  -26.3535   20.0616 C   0  0  0  0  0  0  0  0  0  0  0  0
  -21.6793   -6.6207   23.3486 C   0  0  0  0  0  0  0  0  0  0  0  0
  -21.7691   -4.0743   22.2126 C   0  0  0  0  0  0  0  0  0  0  0  0
  -20.5058   -6.0165   22.8977 C   0  0  0  0  0  0  0  0  0  0  0  0
  -24.5968  -11.9342   21.4405 C   0  0  0  0  0  0  0  0  0  0  0  0
  -25.2569  -13.8360   20.5559 C   0  0  0  0  0  0  0  0  0  0  0  0
  -22.9129  -13.8783   21.4233 C   0  0  0  0  0  0  0  0  0  0  0  0
  -22.1084  -27.2814   22.3947 C   0  0  0  0  0  0  0  0  0  0  0  0
  -21.9581  -24.1194   23.1029 C   0  0  0  0  0  0  0  0  0  0  0  0
  -23.4421  -21.0487   22.9783 C   0  0  0  0  0  0  0  0  0  0  0  0
  -30.7260  -14.8421   20.2730 C   0  0  0  0  0  0  0  0  0  0  0  0
  -18.0719  -30.0908   23.7625 C   0  0  0  0  0  0  0  0  0  0  0  0
  -22.6193  -26.2395   20.1565 C   0  0  0  0  0  0  0  0  0  0  0  0
  -24.1934  -24.9977   22.3302 C   0  0  0  0  0  0  0  0  0  0  0  0
  -18.7875  -28.8634   24.3208 C   0  0  0  0  0  0  0  0  0  0  0  0
  -29.5564  -11.8140   18.8101 C   0  0  0  0  0  0  0  0  0  0  0  0
  -31.3165  -22.2253   20.1793 C   0  0  0  0  0  0  0  0  0  0  0  0
  -29.4342  -21.9199   18.5115 C   0  0  0  0  0  0  0  0  0  0  0  0
  -20.2922  -29.1054   24.3837 C   0  0  0  0  0  0  0  0  0  0  0  0
  -31.4292  -23.6958   19.7783 C   0  0  0  0  0  0  0  0  0  0  0  0
  -29.5514  -23.3912   18.1144 C   0  0  0  0  0  0  0  0  0  0  0  0
  -28.1270  -11.6833   19.3410 C   0  0  0  0  0  0  0  0  0  0  0  0
  -30.4991  -12.4025   19.8583 C   0  0  0  0  0  0  0  0  0  0  0  0
  -28.6248  -13.5393   20.9825 C   0  0  0  0  0  0  0  0  0  0  0  0
  -30.7746  -21.3671   19.0240 C   0  0  0  0  0  0  0  0  0  0  0  0
  -20.8695  -29.3567   22.9855 C   0  0  1  0  0  0  0  0  0  0  0  0
  -22.0402  -26.0383   21.5534 C   0  0  1  0  0  0  0  0  0  0  0  0
  -30.0926  -24.2482   19.2661 C   0  0  0  0  0  0  0  0  0  0  0  0
  -27.6250  -13.0115   19.9407 C   0  0  2  0  0  0  0  0  0  0  0  0
  -32.2695  -19.1968   17.7390 C   0  0  0  0  0  0  0  0  0  0  0  0
  -23.0940  -18.6629   23.6742 C   0  0  0  0  0  0  0  0  0  0  0  0
  -22.6629  -24.8578   25.9783 C   0  0  0  0  0  0  0  0  0  0  0  0
  -23.2281  -22.4527   26.3837 C   0  0  0  0  0  0  0  0  0  0  0  0
  -20.9014  -23.0966   25.7553 C   0  0  0  0  0  0  0  0  0  0  0  0
  -23.5014  -20.1009   20.1752 C   0  0  0  0  0  0  0  0  0  0  0  0
  -30.2425  -25.6952   18.8320 C   0  0  0  0  0  0  0  0  0  0  0  0
  -28.8980  -26.4007   18.7407 C   0  0  0  0  0  0  0  0  0  1  0  0
  -22.7275  -23.1891   24.0092 C   0  0  1  0  0  0  0  0  0  0  0  0
  -22.9091  -19.6883   22.5664 C   0  0  2  0  0  0  0  0  0  0  0  0
  -22.3929  -23.4136   25.5109 C   0  0  0  0  0  0  0  0  0  0  0  0
  -25.8516  -11.7021   21.0462 N   0  0  0  0  0  0  0  0  0  0  0  0
  -26.2258  -12.8771   20.5120 N   0  0  0  0  0  0  0  0  0  0  0  0
  -22.7216  -24.9792   22.3006 N   0  0  0  0  0  0  0  0  0  0  0  0
  -29.9609  -13.6613   20.3785 N   0  0  0  0  0  0  0  0  0  0  0  0
  -25.4660  -15.0751   20.0627 N   0  0  0  0  0  0  0  0  0  0  0  0
  -21.9088  -13.1291   22.0517 N   0  0  0  0  0  0  0  0  0  0  0  0
  -30.0980  -15.9826   20.7724 N   0  0  0  0  0  0  0  0  0  0  0  0
  -21.0098  -28.1094   22.2650 N   0  0  0  0  0  0  0  0  0  0  0  0
  -22.4559  -21.8374   23.5322 N   0  0  0  0  0  0  0  0  0  0  0  0
  -23.6194  -19.2001   21.3507 N   0  3  0  0  0  0  0  0  0  0  0  0
  -22.6784  -15.0661   21.0954 O   0  0  0  0  0  0  0  0  0  0  0  0
  -23.0848  -27.4743   23.1096 O   0  0  0  0  0  0  0  0  0  0  0  0
  -20.7252  -24.0796   23.1014 O   0  0  0  0  0  0  0  0  0  0  0  0
  -24.6167  -21.3775   22.8275 O   0  0  0  0  0  0  0  0  0  0  0  0
  -31.8440  -14.8465   19.7514 O   0  0  0  0  0  0  0  0  0  0  0  0
  -21.6366   -7.8850   23.9119 O   0  0  0  0  0  0  0  0  0  0  0  0
  -28.2809  -26.3859   20.0273 O   0  0  0  0  0  0  0  0  0  1  0  0
  -21.8125   -2.8523   21.6658 F   0  0  0  0  0  0  0  0  0  0  0  0
  -19.3325   -6.6546   23.0064 F   0  0  0  0  0  0  0  0  0  0  0  0
  1  2  1  0  0  0  0
  1  5  2  0  0  0  0
  2  6  2  0  0  0  0
  3 10  2  0  0  0  0
  3 18  1  0  0  0  0
  4 11  1  0  0  0  0
  4 18  2  0  0  0  0
  5 20  1  0  0  0  0
  6 22  1  0  0  0  0
  7  9  2  0  0  0  0
  7 23  1  0  0  0  0
  8 12  2  0  0  0  0
  8 21  1  0  0  0  0
  9 26  1  0  0  0  0
 10 27  1  0  0  0  0
 11 27  2  0  0  0  0
 12 28  1  0  0  0  0
 13 14  2  0  0  0  0
 13 29  1  0  0  0  0
 14 30  1  0  0  0  0
 15 24  1  0  0  0  0
 15 28  2  0  0  0  0
 16 25  1  0  0  0  0
 16 26  2  0  0  0  0
 17 30  2  0  0  0  0
 17 31  1  0  0  0  0
 18 32  1  0  0  0  0
 19 32  1  0  0  0  0
 19 33  2  0  0  0  0
 19 34  1  0  0  0  0
 20 22  2  0  0  0  0
 20 39  1  0  0  0  0
 21 24  2  0  0  0  0
 21 40  1  0  0  0  0
 22 53  1  0  0  0  0
 23 25  2  0  0  0  0
 23 52  1  0  0  0  0
 24 41  1  0  0  0  0
 25 57  1  0  0  0  0
 26 74  1  0  0  0  0
 27 83  1  0  0  0  0
 28 84  1  0  0  0  0
 29 31  2  0  0  0  0
 29 83  1  0  0  0  0
 30 85  1  0  0  0  0
 31 86  1  0  0  0  0
 32 68  2  0  0  0  0
 33 69  1  0  0  0  0
 33 72  1  0  0  0  0
 34 73  1  0  0  0  0
 34 78  2  0  0  0  0
 35 54  1  0  0  0  0
 35 75  1  0  0  0  0
 35 79  2  0  0  0  0
 36 65  1  0  0  0  0
 36 70  1  0  0  0  0
 36 80  2  0  0  0  0
 37 66  1  0  0  0  0
 37 76  1  0  0  0  0
 37 81  2  0  0  0  0
 38 71  1  0  0  0  0
 38 74  1  0  0  0  0
 38 82  2  0  0  0  0
 39 42  1  0  0  0  0
 40 54  1  0  0  0  0
 41 70  1  0  0  0  0
 42 46  1  0  0  0  0
 43 49  1  0  0  0  0
 43 50  1  0  0  0  0
 44 47  1  0  0  0  0
 44 52  1  0  0  0  0
 45 48  1  0  0  0  0
 45 52  1  0  0  0  0
 46 53  1  0  0  0  0
 47 55  1  0  0  0  0
 48 55  1  0  0  0  0
 49 56  1  0  0  0  0
 50 71  1  0  0  0  0
 51 56  1  0  0  0  0
 51 71  1  0  0  0  0
 53 75  1  0  0  0  0
 54 70  1  0  0  0  0
 55 63  1  0  0  0  0
 56 69  1  0  0  0  0
 58 66  1  0  0  0  0
 59 67  1  0  0  0  0
 60 67  1  0  0  0  0
 61 67  1  0  0  0  0
 62 77  1  0  0  0  0
 63 64  1  0  0  0  0
 64 84  1  0  0  0  0
 65 67  1  0  0  0  0
 65 76  1  0  0  0  0
 66 77  1  0  0  0  0
 68 69  1  0  0  0  0
M  CHG  1  77   1
M  ISO  4  38 100  64 101  74 100  84 101
M  END
> <Batch ID>
0139

> <Smiles>
CNC(C)C(=O)NC(C(=O)N1Cc2cc([101O:1][101CH2:1]CC3CCC(c4ccc([100NH:0][100C:0](=O)N5CCCC(n6nc(-c7ccc(Oc8ccc(F)cc8F)cc7)c(C(N)=O)c6N)C5)cc4C)CC3)ccc2CC1C(=O)NC1CCCc2ccccc21)C(C)(C)C

> <Shape>
0.279

> <Color>
0.184

> <Negative vol penalty>
0.000

$$$$

  -OEChem-04052302483D

 83 91  0     1  0  0  0  0  0999 V2000
  -22.0724  -11.0278   21.1271 C   0  0  0  0  0  0  0  0  0  0  0  0
  -21.7452  -12.3523   21.3993 C   0  0  0  0  0  0  0  0  0  0  0  0
  -29.7684  -27.2279   22.3700 C   0  0  0  0  0  0  0  0  0  0  0  0
  -28.1447  -25.4396   22.4205 C   0  0  0  0  0  0  0  0  0  0  0  0
  -23.3963  -10.6777   20.8653 C   0  0  0  0  0  0  0  0  0  0  0  0
  -22.7420  -13.3273   21.4109 C   0  0  0  0  0  0  0  0  0  0  0  0
  -21.3705  -17.5371   18.9530 C   0  0  0  0  0  0  0  0  0  0  0  0
  -30.5749  -26.5209   23.2618 C   0  0  0  0  0  0  0  0  0  0  0  0
  -28.9512  -24.7326   23.3122 C   0  0  0  0  0  0  0  0  0  0  0  0
  -20.5154  -18.4137   19.6196 C   0  0  0  0  0  0  0  0  0  0  0  0
  -30.7508  -22.2954   25.3222 C   0  0  0  0  0  0  0  0  0  0  0  0
  -30.9424  -20.9343   25.0852 C   0  0  0  0  0  0  0  0  0  0  0  0
  -20.1518  -26.9300   22.1751 C   0  0  0  0  0  0  0  0  0  0  0  0
  -18.1066  -27.0575   23.4549 C   0  0  0  0  0  0  0  0  0  0  0  0
  -22.3999  -19.8059   20.1935 C   0  0  0  0  0  0  0  0  0  0  0  0
  -19.4084  -29.0533   23.0559 C   0  0  0  0  0  0  0  0  0  0  0  0
  -31.9193  -21.4460   22.9356 C   0  0  0  0  0  0  0  0  0  0  0  0
  -28.5533  -26.6873   21.9494 C   0  0  0  0  0  0  0  0  0  0  0  0
  -19.0362  -26.3072   22.7347 C   0  0  0  0  0  0  0  0  0  0  0  0
  -27.7466  -27.3529   19.6226 C   0  0  0  0  0  0  0  0  0  0  0  0
  -24.4084  -11.6505   20.8641 C   0  0  0  0  0  0  0  0  0  0  0  0
  -22.7504  -17.7831   18.9109 C   0  0  0  0  0  0  0  0  0  0  0  0
  -24.0809  -12.9896   21.1501 C   0  0  0  0  0  0  0  0  0  0  0  0
  -23.2700  -18.9323   19.5236 C   0  0  0  0  0  0  0  0  0  0  0  0
  -20.3379  -28.3031   22.3358 C   0  0  0  0  0  0  0  0  0  0  0  0
  -30.1663  -25.2732   23.7329 C   0  0  0  0  0  0  0  0  0  0  0  0
  -21.0305  -19.5467   20.2424 C   0  0  0  0  0  0  0  0  0  0  0  0
  -31.1433  -23.2319   24.3658 C   0  0  0  0  0  0  0  0  0  0  0  0
  -31.5267  -20.5096   23.8919 C   0  0  0  0  0  0  0  0  0  0  0  0
  -18.2927  -28.4306   23.6155 C   0  0  0  0  0  0  0  0  0  0  0  0
  -31.7276  -22.8072   23.1725 C   0  0  0  0  0  0  0  0  0  0  0  0
  -27.7195  -27.4175   21.0286 C   0  0  0  0  0  0  0  0  0  0  0  0
  -26.7682  -28.2287   19.2198 C   0  0  0  0  0  0  0  0  0  0  0  0
  -18.8379  -24.8374   22.5654 C   0  0  0  0  0  0  0  0  0  0  0  0
  -28.5814  -26.5711   18.7580 C   0  0  0  0  0  0  0  0  0  0  0  0
  -25.3345  -16.2521   19.9512 C   0  0  0  0  0  0  0  0  0  0  0  0
  -26.8942  -18.6009   18.3471 C   0  0  0  0  0  0  0  0  0  0  0  0
  -26.8411  -21.7653   17.0701 C   0  0  0  0  0  0  0  0  0  0  0  0
  -21.8050  -30.2883   21.8332 C   0  0  0  0  0  0  0  0  0  0  0  0
  -25.8323  -11.2163   20.6220 C   0  0  0  0  0  0  0  0  0  0  0  0
  -23.6560  -16.8419   18.1649 C   0  0  0  0  0  0  0  0  0  0  0  0
  -24.7414  -19.2525   19.4900 C   0  0  0  0  0  0  0  0  0  0  0  0
  -26.7721  -12.3709   20.2843 C   0  0  0  0  0  0  0  0  0  0  0  0
  -24.5235  -32.2281   20.5984 C   0  0  0  0  0  0  0  0  0  0  0  0
  -26.5591  -13.5325   21.2497 C   0  0  0  0  0  0  0  0  0  0  0  0
  -25.6522  -31.2076   20.4349 C   0  0  0  0  0  0  0  0  0  0  0  0
  -23.6669  -31.9340   21.8287 C   0  0  0  0  0  0  0  0  0  0  0  0
  -24.2659  -29.5460   21.7404 C   0  0  0  0  0  0  0  0  0  0  0  0
  -25.1303  -14.0800   21.1474 C   0  0  1  0  0  0  0  0  0  0  0  0
  -25.1086  -16.9204   18.6245 C   0  0  1  0  0  0  0  0  0  0  0  0
  -25.1165  -29.7630   20.4783 C   0  0  2  0  0  0  0  0  0  0  0  0
  -27.6384  -23.7772   15.7997 C   0  0  0  0  0  0  0  0  0  0  0  0
  -28.4310  -19.1665   20.9216 C   0  0  0  0  0  0  0  0  0  0  0  0
  -29.1187  -21.3670   19.9454 C   0  0  0  0  0  0  0  0  0  0  0  0
  -29.8170  -19.2419   18.8413 C   0  0  0  0  0  0  0  0  0  0  0  0
  -25.6469  -20.7881   14.5446 C   0  0  0  0  0  0  0  0  0  0  0  0
  -19.8711  -24.0471   21.7767 C   0  0  0  0  0  0  0  0  0  0  0  0
  -19.5163  -22.5644   21.6835 C   0  0  0  0  0  0  0  0  0  0  0  0
  -20.5812  -21.7777   20.9330 C   0  0  0  0  0  0  0  0  0  1  0  0
  -27.4028  -19.9786   18.6969 C   0  0  1  0  0  0  0  0  0  0  0  0
  -27.2460  -22.3105   15.7124 C   0  0  2  0  0  0  0  0  0  0  0  0
  -28.6649  -19.9317   19.6038 C   0  0  0  0  0  0  0  0  0  0  0  0
  -26.7971  -28.2673   21.4881 N   0  0  0  0  0  0  0  0  0  0  0  0
  -26.2356  -28.7448   20.3644 N   0  0  0  0  0  0  0  0  0  0  0  0
  -25.5869  -18.2984   18.7535 N   0  0  0  0  0  0  0  0  0  0  0  0
  -23.1912  -30.5492   21.7995 N   0  0  0  0  0  0  0  0  0  0  0  0
  -26.3202  -28.6001   18.0016 N   0  0  0  0  0  0  0  0  0  0  0  0
  -29.5348  -25.7229   19.3375 N   0  0  0  0  0  0  0  0  0  0  0  0
  -21.4711  -28.9360   21.7673 N   0  0  0  0  0  0  0  0  0  0  0  0
  -24.9915  -14.9137   19.9726 N   0  0  0  0  0  0  0  0  0  0  0  0
  -27.6028  -20.6737   17.4299 N   0  0  0  0  0  0  0  0  0  0  0  0
  -26.1192  -22.1822   14.7456 N   0  3  0  0  0  0  0  0  0  0  0  0
  -17.8500  -24.3039   23.0650 O   0  0  0  0  0  0  0  0  0  0  0  0
  -28.4959  -26.6355   17.5082 O   0  0  0  0  0  0  0  0  0  0  0  0
  -25.7880  -16.9023   20.8857 O   0  0  0  0  0  0  0  0  0  0  0  0
  -27.6272  -17.8244   17.7295 O   0  0  0  0  0  0  0  0  0  0  0  0
  -25.9417  -22.2606   17.7456 O   0  0  0  0  0  0  0  0  0  0  0  0
  -20.9744  -31.1989   21.8870 O   0  0  0  0  0  0  0  0  0  0  0  0
  -30.9531  -24.5829   24.6029 O   0  0  0  0  0  0  0  0  0  0  0  0
  -20.1982  -20.4036   20.8943 O   0  0  0  0  0  0  0  0  0  1  0  0
  -31.7121  -19.2025   23.6652 F   0  0  0  0  0  0  0  0  0  0  0  0
  -17.4017  -29.1506   24.3096 F   0  0  0  0  0  0  0  0  0  0  0  0
  -32.1079  -23.7022   22.2505 F   0  0  0  0  0  0  0  0  0  0  0  0
  1  2  1  0  0  0  0
  1  5  2  0  0  0  0
  2  6  2  0  0  0  0
  3  8  2  0  0  0  0
  3 18  1  0  0  0  0
  4  9  1  0  0  0  0
  4 18  2  0  0  0  0
  5 21  1  0  0  0  0
  6 23  1  0  0  0  0
  7 10  2  0  0  0  0
  7 22  1  0  0  0  0
  8 26  1  0  0  0  0
  9 26  2  0  0  0  0
 10 27  1  0  0  0  0
 11 12  2  0  0  0  0
 11 28  1  0  0  0  0
 12 29  1  0  0  0  0
 13 19  2  0  0  0  0
 13 25  1  0  0  0  0
 14 19  1  0  0  0  0
 14 30  2  0  0  0  0
 15 24  1  0  0  0  0
 15 27  2  0  0  0  0
 16 25  2  0  0  0  0
 16 30  1  0  0  0  0
 17 29  2  0  0  0  0
 17 31  1  0  0  0  0
 18 32  1  0  0  0  0
 19 34  1  0  0  0  0
 20 32  1  0  0  0  0
 20 33  2  0  0  0  0
 20 35  1  0  0  0  0
 21 23  2  0  0  0  0
 21 40  1  0  0  0  0
 22 24  2  0  0  0  0
 22 41  1  0  0  0  0
 23 49  1  0  0  0  0
 24 42  1  0  0  0  0
 25 69  1  0  0  0  0
 26 79  1  0  0  0  0
 27 80  1  0  0  0  0
 28 31  2  0  0  0  0
 28 79  1  0  0  0  0
 29 81  1  0  0  0  0
 30 82  1  0  0  0  0
 31 83  1  0  0  0  0
 32 63  2  0  0  0  0
 33 64  1  0  0  0  0
 33 67  1  0  0  0  0
 34 57  1  0  0  0  0
 34 73  2  0  0  0  0
 35 68  1  0  0  0  0
 35 74  2  0  0  0  0
 36 50  1  0  0  0  0
 36 70  1  0  0  0  0
 36 75  2  0  0  0  0
 37 60  1  0  0  0  0
 37 65  1  0  0  0  0
 37 76  2  0  0  0  0
 38 61  1  0  0  0  0
 38 71  1  0  0  0  0
 38 77  2  0  0  0  0
 39 66  1  0  0  0  0
 39 69  1  0  0  0  0
 39 78  2  0  0  0  0
 40 43  1  0  0  0  0
 41 50  1  0  0  0  0
 42 65  1  0  0  0  0
 43 45  1  0  0  0  0
 44 46  1  0  0  0  0
 44 47  1  0  0  0  0
 45 49  1  0  0  0  0
 46 51  1  0  0  0  0
 47 66  1  0  0  0  0
 48 51  1  0  0  0  0
 48 66  1  0  0  0  0
 49 70  1  0  0  0  0
 50 65  1  0  0  0  0
 51 64  1  0  0  0  0
 52 61  1  0  0  0  0
 53 62  1  0  0  0  0
 54 62  1  0  0  0  0
 55 62  1  0  0  0  0
 56 72  1  0  0  0  0
 57 58  1  0  0  0  0
 58 59  1  0  0  0  0
 59 80  1  0  0  0  0
 60 62  1  0  0  0  0
 60 71  1  0  0  0  0
 61 72  1  0  0  0  0
 63 64  1  0  0  0  0
M  CHG  1  72   1
M  ISO  4  39 100  59 101  69 100  80 101
M  END
> <Batch ID>
0139

> <Smiles>
CNC(C)C(=O)NC(C(=O)N1Cc2cc([101O:1][101CH2:1]CCC(=O)c3cc(F)cc([100NH:0][100C:0](=O)N4CCCC(n5nc(-c6ccc(Oc7ccc(F)cc7F)cc6)c(C(N)=O)c5N)C4)c3)ccc2CC1C(=O)NC1CCCc2ccccc21)C(C)(C)C

> <Shape>
0.222

> <Color>
0.076

> <Negative vol penalty>
0.000

$$$$

  -OEChem-04052302483D

 85 93  0     1  0  0  0  0  0999 V2000
  -28.2552  -23.4771   18.3615 C   0  0  0  0  0  0  0  0  0  0  0  0
  -27.0749  -23.7805   19.0326 C   0  0  0  0  0  0  0  0  0  0  0  0
  -26.5678  -12.5256   20.5022 C   0  0  0  0  0  0  0  0  0  0  0  0
  -24.4978  -13.7272   20.1732 C   0  0  0  0  0  0  0  0  0  0  0  0
  -24.0932  -23.1290   24.5183 C   0  0  0  0  0  0  0  0  0  0  0  0
  -22.6840  -22.3314   22.7252 C   0  0  0  0  0  0  0  0  0  0  0  0
  -29.4444  -24.1073   18.7254 C   0  0  0  0  0  0  0  0  0  0  0  0
  -27.0835  -24.7135   20.0689 C   0  0  0  0  0  0  0  0  0  0  0  0
  -23.2194  -27.9739   19.7795 C   0  0  0  0  0  0  0  0  0  0  0  0
  -25.1481  -22.3562   24.0330 C   0  0  0  0  0  0  0  0  0  0  0  0
  -23.7389  -21.5587   22.2399 C   0  0  0  0  0  0  0  0  0  0  0  0
  -25.8487  -11.3802   20.8435 C   0  0  0  0  0  0  0  0  0  0  0  0
  -23.7787  -12.5818   20.5145 C   0  0  0  0  0  0  0  0  0  0  0  0
  -21.9716  -27.5219   20.2065 C   0  0  0  0  0  0  0  0  0  0  0  0
  -22.8550   -9.6887   19.0320 C   0  0  0  0  0  0  0  0  0  0  0  0
  -21.7649   -9.3474   18.2317 C   0  0  0  0  0  0  0  0  0  0  0  0
  -22.2880  -28.6560   22.3120 C   0  0  0  0  0  0  0  0  0  0  0  0
  -20.3022   -9.5311   20.1459 C   0  0  0  0  0  0  0  0  0  0  0  0
  -25.8924  -13.6991   20.1671 C   0  0  0  0  0  0  0  0  0  0  0  0
  -22.8611  -23.1166   23.8644 C   0  0  0  0  0  0  0  0  0  0  0  0
  -27.0619  -15.2674   18.5299 C   0  0  0  0  0  0  0  0  0  0  0  0
  -29.4658  -25.0556   19.7603 C   0  0  0  0  0  0  0  0  0  0  0  0
  -24.0169  -28.7627   20.6211 C   0  0  0  0  0  0  0  0  0  0  0  0
  -28.2744  -25.3560   20.4479 C   0  0  0  0  0  0  0  0  0  0  0  0
  -23.5444  -29.1189   21.8923 C   0  0  0  0  0  0  0  0  0  0  0  0
  -24.9710  -21.5711   22.8938 C   0  0  0  0  0  0  0  0  0  0  0  0
  -24.4542  -11.4083   20.8496 C   0  0  0  0  0  0  0  0  0  0  0  0
  -21.5069  -27.8605   21.4740 C   0  0  0  0  0  0  0  0  0  0  0  0
  -22.6689   -9.9512   20.3893 C   0  0  0  0  0  0  0  0  0  0  0  0
  -20.4884   -9.2686   18.7886 C   0  0  0  0  0  0  0  0  0  0  0  0
  -21.3924   -9.8724   20.9462 C   0  0  0  0  0  0  0  0  0  0  0  0
  -26.6347  -14.8828   19.8149 C   0  0  0  0  0  0  0  0  0  0  0  0
  -27.7198  -16.4567   18.7284 C   0  0  0  0  0  0  0  0  0  0  0  0
  -21.7404  -23.9373   24.3800 C   0  0  0  0  0  0  0  0  0  0  0  0
  -26.8803  -14.6086   17.2695 C   0  0  0  0  0  0  0  0  0  0  0  0
  -26.8837  -28.4304   21.9535 C   0  0  0  0  0  0  0  0  0  0  0  0
  -26.3715  -31.4927   22.8928 C   0  0  0  0  0  0  0  0  0  0  0  0
  -24.1342  -33.9737   23.5895 C   0  0  0  0  0  0  0  0  0  0  0  0
  -27.3292  -20.6857   22.9317 C   0  0  0  0  0  0  0  0  0  0  0  0
  -30.7843  -25.6758   20.1495 C   0  0  0  0  0  0  0  0  0  0  0  0
  -25.3491  -29.2645   20.1354 C   0  0  0  0  0  0  0  0  0  0  0  0
  -24.3533  -29.9802   22.8263 C   0  0  0  0  0  0  0  0  0  0  0  0
  -30.6380  -26.9287   21.0091 C   0  0  0  0  0  0  0  0  0  0  0  0
  -30.2370  -18.8373   22.0345 C   0  0  0  0  0  0  0  0  0  0  0  0
  -29.6285  -26.6934   22.1283 C   0  0  0  0  0  0  0  0  0  0  0  0
  -29.6826  -17.6517   21.2414 C   0  0  0  0  0  0  0  0  0  0  0  0
  -29.3203  -19.2222   23.1943 C   0  0  0  0  0  0  0  0  0  0  0  0
  -27.3649  -18.2764   22.0319 C   0  0  0  0  0  0  0  0  0  0  0  0
  -28.2386  -26.3808   21.5608 C   0  0  1  0  0  0  0  0  0  0  0  0
  -26.2984  -29.6343   21.2710 C   0  0  1  0  0  0  0  0  0  0  0  0
  -28.2215  -17.8934   20.8141 C   0  0  2  0  0  0  0  0  0  0  0  0
  -24.0138  -36.3554   24.3710 C   0  0  0  0  0  0  0  0  0  0  0  0
  -26.9577  -30.5835   25.7459 C   0  0  0  0  0  0  0  0  0  0  0  0
  -25.9147  -32.7079   26.5629 C   0  0  0  0  0  0  0  0  0  0  0  0
  -27.9545  -32.7928   25.1294 C   0  0  0  0  0  0  0  0  0  0  0  0
  -17.7238  -26.2959   22.7457 C   0  0  0  0  0  0  0  0  0  0  0  0
  -18.4599  -24.0964   21.8066 C   0  0  0  0  0  0  0  0  0  0  0  0
  -22.8317  -34.8527   21.0815 C   0  0  0  0  0  0  0  0  0  0  0  0
  -19.8350  -26.1723   21.3714 C   0  0  0  0  0  0  0  0  0  1  0  0
  -19.7664  -25.1360   23.6741 C   0  0  0  0  0  0  0  0  0  0  0  0
  -25.7386  -32.1505   24.0952 C   0  0  1  0  0  0  0  0  0  0  0  0
  -24.0811  -35.4305   23.1657 C   0  0  2  0  0  0  0  0  0  0  0  0
  -26.6267  -32.0408   25.3667 C   0  0  0  0  0  0  0  0  0  0  0  0
  -18.9501  -25.4306   22.3977 C   0  0  0  0  0  0  0  0  0  0  0  0
  -26.9913  -15.7568   20.7599 N   0  0  0  0  0  0  0  0  0  0  0  0
  -21.5908  -24.2252   25.6299 N   0  0  0  0  0  0  0  0  0  0  0  0
  -27.6496  -16.7024   20.0681 N   0  0  0  0  0  0  0  0  0  0  0  0
  -25.6520  -30.4409   22.3081 N   0  0  0  0  0  0  0  0  0  0  0  0
  -27.9541  -19.4396   22.7136 N   0  0  0  0  0  0  0  0  0  0  0  0
  -28.3457  -17.3057   17.8859 N   0  0  0  0  0  0  0  0  0  0  0  0
  -26.1804  -13.3946   17.2448 N   0  0  0  0  0  0  0  0  0  0  0  0
  -26.0434  -20.7866   22.4015 N   0  0  0  0  0  0  0  0  0  0  0  0
  -27.5917  -27.5947   21.1110 N   0  0  0  0  0  0  0  0  0  0  0  0
  -25.4318  -33.5200   23.6970 N   0  0  0  0  0  0  0  0  0  0  0  0
  -22.8831  -35.6792   22.3150 N   0  3  0  0  0  0  0  0  0  0  0  0
  -27.3398  -15.0742   16.1991 O   0  0  0  0  0  0  0  0  0  0  0  0
  -26.7072  -28.2721   23.1558 O   0  0  0  0  0  0  0  0  0  0  0  0
  -27.4607  -31.9018   22.4830 O   0  0  0  0  0  0  0  0  0  0  0  0
  -23.1254  -33.3062   23.8073 O   0  0  0  0  0  0  0  0  0  0  0  0
  -27.9035  -21.6055   23.5201 O   0  0  0  0  0  0  0  0  0  0  0  0
  -23.7521  -10.2907   21.1824 O   0  0  0  0  0  0  0  0  0  0  0  0
  -20.2896  -27.4201   21.8936 O   0  0  0  0  0  0  0  0  0  1  0  0
  -20.9051  -24.3371   23.3794 O   0  0  0  0  0  0  0  0  0  0  0  0
  -19.4413   -8.9423   18.0196 F   0  0  0  0  0  0  0  0  0  0  0  0
  -21.2071  -10.1245   22.2492 F   0  0  0  0  0  0  0  0  0  0  0  0
  1  2  1  0  0  0  0
  1  7  2  0  0  0  0
  2  8  2  0  0  0  0
  3 12  2  0  0  0  0
  3 19  1  0  0  0  0
  4 13  1  0  0  0  0
  4 19  2  0  0  0  0
  5 10  2  0  0  0  0
  5 20  1  0  0  0  0
  6 11  1  0  0  0  0
  6 20  2  0  0  0  0
  7 22  1  0  0  0  0
  8 24  1  0  0  0  0
  9 14  2  0  0  0  0
  9 23  1  0  0  0  0
 10 26  1  0  0  0  0
 11 26  2  0  0  0  0
 12 27  1  0  0  0  0
 13 27  2  0  0  0  0
 14 28  1  0  0  0  0
 15 16  2  0  0  0  0
 15 29  1  0  0  0  0
 16 30  1  0  0  0  0
 17 25  1  0  0  0  0
 17 28  2  0  0  0  0
 18 30  2  0  0  0  0
 18 31  1  0  0  0  0
 19 32  1  0  0  0  0
 20 34  1  0  0  0  0
 21 32  1  0  0  0  0
 21 33  2  0  0  0  0
 21 35  1  0  0  0  0
 22 24  2  0  0  0  0
 22 40  1  0  0  0  0
 23 25  2  0  0  0  0
 23 41  1  0  0  0  0
 24 49  1  0  0  0  0
 25 42  1  0  0  0  0
 26 72  1  0  0  0  0
 27 81  1  0  0  0  0
 28 82  1  0  0  0  0
 29 31  2  0  0  0  0
 29 81  1  0  0  0  0
 30 84  1  0  0  0  0
 31 85  1  0  0  0  0
 32 65  2  0  0  0  0
 33 67  1  0  0  0  0
 33 70  1  0  0  0  0
 34 66  2  0  0  0  0
 34 83  1  0  0  0  0
 35 71  1  0  0  0  0
 35 76  2  0  0  0  0
 36 50  1  0  0  0  0
 36 73  1  0  0  0  0
 36 77  2  0  0  0  0
 37 61  1  0  0  0  0
 37 68  1  0  0  0  0
 37 78  2  0  0  0  0
 38 62  1  0  0  0  0
 38 74  1  0  0  0  0
 38 79  2  0  0  0  0
 39 69  1  0  0  0  0
 39 72  1  0  0  0  0
 39 80  2  0  0  0  0
 40 43  1  0  0  0  0
 41 50  1  0  0  0  0
 42 68  1  0  0  0  0
 43 45  1  0  0  0  0
 44 46  1  0  0  0  0
 44 47  1  0  0  0  0
 45 49  1  0  0  0  0
 46 51  1  0  0  0  0
 47 69  1  0  0  0  0
 48 51  1  0  0  0  0
 48 69  1  0  0  0  0
 49 73  1  0  0  0  0
 50 68  1  0  0  0  0
 51 67  1  0  0  0  0
 52 62  1  0  0  0  0
 53 63  1  0  0  0  0
 54 63  1  0  0  0  0
 55 63  1  0  0  0  0
 56 64  1  0  0  0  0
 57 64  1  0  0  0  0
 58 75  1  0  0  0  0
 59 64  1  0  0  0  0
 59 82  1  0  0  0  0
 60 64  1  0  0  0  0
 60 83  1  0  0  0  0
 61 63  1  0  0  0  0
 61 74  1  0  0  0  0
 62 75  1  0  0  0  0
 65 67  1  0  0  0  0
M  CHG  1  75   1
M  ISO  4  39 100  59 101  72 100  82 101
M  END
> <Batch ID>
0139

> <Smiles>
CNC(C)C(=O)NC(C(=O)N1Cc2cc([101O:1][101CH2:1]C(C)(C)COC(=N)c3ccc([100NH:0][100C:0](=O)N4CCCC(n5nc(-c6ccc(Oc7ccc(F)cc7F)cc6)c(C(N)=O)c5N)C4)cc3)ccc2CC1C(=O)NC1CCCc2ccccc21)C(C)(C)C

> <Shape>
0.283

> <Color>
0.057

> <Negative vol penalty>
0.000

$$$$

  -OEChem-04052302483D

 89 98  0     1  0  0  0  0  0999 V2000
  -19.5386  -28.9307   26.1027 C   0  0  0  0  0  0  0  0  0  0  0  0
  -20.8349  -28.7621   25.6265 C   0  0  0  0  0  0  0  0  0  0  0  0
  -23.8762  -14.1238   21.4389 C   0  0  0  0  0  0  0  0  0  0  0  0
  -26.1462  -14.1337   20.6118 C   0  0  0  0  0  0  0  0  0  0  0  0
  -18.4536  -28.5292   25.3247 C   0  0  0  0  0  0  0  0  0  0  0  0
  -21.0469  -28.1907   24.3723 C   0  0  0  0  0  0  0  0  0  0  0  0
  -31.1968  -23.4300   23.3515 C   0  0  0  0  0  0  0  0  0  0  0  0
  -24.5064  -30.6987   21.6545 C   0  0  0  0  0  0  0  0  0  0  0  0
  -31.5063  -24.5244   22.5441 C   0  0  0  0  0  0  0  0  0  0  0  0
  -23.6799  -12.8587   20.8852 C   0  0  0  0  0  0  0  0  0  0  0  0
  -25.9500  -12.8685   20.0581 C   0  0  0  0  0  0  0  0  0  0  0  0
  -25.8462  -30.4806   21.9724 C   0  0  0  0  0  0  0  0  0  0  0  0
  -22.6950   -9.4732   20.0000 C   0  0  0  0  0  0  0  0  0  0  0  0
  -22.0545   -8.5142   20.7846 C   0  0  0  0  0  0  0  0  0  0  0  0
  -26.0323  -28.9539   20.1139 C   0  0  0  0  0  0  0  0  0  0  0  0
  -29.4418  -24.2116   21.3288 C   0  0  0  0  0  0  0  0  0  0  0  0
  -23.8067   -8.6965   22.4380 C   0  0  0  0  0  0  0  0  0  0  0  0
  -25.1093  -14.7613   21.3021 C   0  0  0  0  0  0  0  0  0  0  0  0
  -25.7824  -16.3675   23.1662 C   0  0  0  0  0  0  0  0  0  0  0  0
  -18.6521  -27.9614   24.0562 C   0  0  0  0  0  0  0  0  0  0  0  0
  -23.9155  -30.0366   20.5687 C   0  0  0  0  0  0  0  0  0  0  0  0
  -19.9635  -27.7799   23.5771 C   0  0  0  0  0  0  0  0  0  0  0  0
  -30.0098  -22.7263   23.1475 C   0  0  0  0  0  0  0  0  0  0  0  0
  -24.6855  -29.1673   19.7828 C   0  0  0  0  0  0  0  0  0  0  0  0
  -30.6288  -24.9153   21.5328 C   0  0  0  0  0  0  0  0  0  0  0  0
  -29.1323  -23.1171   22.1362 C   0  0  0  0  0  0  0  0  0  0  0  0
  -24.7168  -12.2310   20.1948 C   0  0  0  0  0  0  0  0  0  0  0  0
  -26.6086  -29.6059   21.2038 C   0  0  0  0  0  0  0  0  0  0  0  0
  -23.8914  -10.0439   20.4343 C   0  0  0  0  0  0  0  0  0  0  0  0
  -22.6103   -8.1259   22.0036 C   0  0  0  0  0  0  0  0  0  0  0  0
  -24.4472   -9.6556   21.6533 C   0  0  0  0  0  0  0  0  0  0  0  0
  -25.3125  -16.0684   21.8734 C   0  0  0  0  0  0  0  0  0  0  0  0
  -25.7961  -17.7399   23.2177 C   0  0  0  0  0  0  0  0  0  0  0  0
  -26.1719  -15.4836   24.2259 C   0  0  0  0  0  0  0  0  0  0  0  0
  -21.5252  -27.9684   20.2337 C   0  0  0  0  0  0  0  0  0  0  0  0
  -29.8729  -27.2078   20.7796 C   0  0  0  0  0  0  0  0  0  0  0  0
  -22.0922  -28.4219   17.0722 C   0  0  0  0  0  0  0  0  0  0  0  0
  -24.2895  -29.3300   14.6239 C   0  0  0  0  0  0  0  0  0  0  0  0
  -26.9554  -22.6882   20.9431 C   0  0  0  0  0  0  0  0  0  0  0  0
  -17.4498  -27.4993   23.2716 C   0  0  0  0  0  0  0  0  0  0  0  0
  -22.4762  -30.3032   20.2228 C   0  0  0  0  0  0  0  0  0  0  0  0
  -24.1039  -28.4475   18.5945 C   0  0  0  0  0  0  0  0  0  0  0  0
  -17.7462  -27.2462   21.7957 C   0  0  0  0  0  0  0  0  0  0  0  0
  -23.8609  -21.1747   20.0429 C   0  0  0  0  0  0  0  0  0  0  0  0
  -28.4009  -21.5366   24.7815 C   0  0  0  0  0  0  0  0  0  0  0  0
  -29.6858  -21.7510   25.5187 C   0  0  0  0  0  0  0  0  0  0  0  0
  -19.0267  -26.4319   21.6404 C   0  0  0  0  0  0  0  0  0  0  0  0
  -24.0013  -19.7359   20.5452 C   0  0  0  0  0  0  0  0  0  0  0  0
  -25.1815  -21.7170   19.4992 C   0  0  0  0  0  0  0  0  0  0  0  0
  -26.4642  -20.1636   20.9172 C   0  0  0  0  0  0  0  0  0  0  0  0
  -29.7025  -21.5581   24.0260 C   0  0  0  0  0  0  0  0  0  0  0  0
  -20.2332  -27.1868   22.2113 C   0  0  1  0  0  0  0  0  0  0  0  0
  -21.8404  -29.1823   19.4063 C   0  0  1  0  0  0  0  0  0  0  0  0
  -25.1753  -19.5963   21.5341 C   0  0  2  0  0  0  0  0  0  0  0  0
  -24.4762  -29.5637   12.1323 C   0  0  0  0  0  0  0  0  0  0  0  0
  -31.0426  -25.6352   19.1791 C   0  0  0  0  0  0  0  0  0  0  0  0
  -32.3203  -26.7957   20.9616 C   0  0  0  0  0  0  0  0  0  0  0  0
  -22.3315  -25.3916   16.8083 C   0  0  0  0  0  0  0  0  0  0  0  0
  -23.4307  -25.7418   14.5862 C   0  0  0  0  0  0  0  0  0  0  0  0
  -21.0837  -26.5053   14.9490 C   0  0  0  0  0  0  0  0  0  0  0  0
  -27.1372  -27.2389   22.2697 C   0  0  0  0  0  0  0  0  0  0  0  0
  -28.1248  -28.9267   23.8270 C   0  0  0  0  0  0  0  0  0  0  0  0
  -24.8325  -32.2326   14.8205 C   0  0  0  0  0  0  0  0  0  0  0  0
  -29.6289  -27.8005   22.1707 C   0  0  0  0  0  0  0  0  0  0  0  0
  -22.9813  -27.7697   16.0411 C   0  0  1  0  0  0  0  0  0  0  0  0
  -24.1461  -30.2681   13.4391 C   0  0  2  0  0  0  0  0  0  0  0  0
  -30.9688  -26.1199   20.6454 C   0  0  0  0  0  0  0  0  0  0  0  0
  -22.4675  -26.3640   15.6196 C   0  0  0  0  0  0  0  0  0  0  0  0
  -28.2034  -28.3267   22.4188 C   0  0  0  0  0  0  0  0  0  1  0  0
  -25.0467  -17.1629   21.1554 N   0  0  0  0  0  0  0  0  0  0  0  0
  -25.3505  -18.1630   22.0001 N   0  0  0  0  0  0  0  0  0  0  0  0
  -22.6906  -28.7364   18.3005 N   0  0  0  0  0  0  0  0  0  0  0  0
  -26.2462  -21.5550   20.4916 N   0  0  0  0  0  0  0  0  0  0  0  0
  -26.1456  -18.6140   24.1853 N   0  0  0  0  0  0  0  0  0  0  0  0
  -26.0966  -14.1017   24.0049 N   0  0  0  0  0  0  0  0  0  0  0  0
  -27.9220  -22.4156   21.9106 N   0  0  0  0  0  0  0  0  0  0  0  0
  -20.6687  -28.2143   21.2898 N   0  0  0  0  0  0  0  0  0  0  0  0
  -23.0940  -28.7197   14.9397 N   0  0  0  0  0  0  0  0  0  0  0  0
  -25.0613  -31.4347   13.5884 N   0  3  0  0  0  0  0  0  0  0  0  0
  -26.5591  -15.9068   25.3415 O   0  0  0  0  0  0  0  0  0  0  0  0
  -22.0211  -26.8883   19.9351 O   0  0  0  0  0  0  0  0  0  0  0  0
  -29.2472  -27.6132   19.7979 O   0  0  0  0  0  0  0  0  0  0  0  0
  -20.9121  -28.6507   16.7953 O   0  0  0  0  0  0  0  0  0  0  0  0
  -25.3561  -29.1531   15.2083 O   0  0  0  0  0  0  0  0  0  0  0  0
  -26.7038  -23.8208   20.5238 O   0  0  0  0  0  0  0  0  0  0  0  0
  -24.5258  -10.9964   19.6546 O   0  0  0  0  0  0  0  0  0  0  0  0
  -27.9165  -29.3907   21.5122 O   0  0  0  0  0  0  0  0  0  1  0  0
  -21.9942   -7.2060   22.7576 F   0  0  0  0  0  0  0  0  0  0  0  0
  -25.5958  -10.2011   22.0764 F   0  0  0  0  0  0  0  0  0  0  0  0
  1  2  1  0  0  0  0
  1  5  2  0  0  0  0
  2  6  2  0  0  0  0
  3 10  2  0  0  0  0
  3 18  1  0  0  0  0
  4 11  1  0  0  0  0
  4 18  2  0  0  0  0
  5 20  1  0  0  0  0
  6 22  1  0  0  0  0
  7  9  2  0  0  0  0
  7 23  1  0  0  0  0
  8 12  2  0  0  0  0
  8 21  1  0  0  0  0
  9 25  1  0  0  0  0
 10 27  1  0  0  0  0
 11 27  2  0  0  0  0
 12 28  1  0  0  0  0
 13 14  2  0  0  0  0
 13 29  1  0  0  0  0
 14 30  1  0  0  0  0
 15 24  1  0  0  0  0
 15 28  2  0  0  0  0
 16 25  2  0  0  0  0
 16 26  1  0  0  0  0
 17 30  2  0  0  0  0
 17 31  1  0  0  0  0
 18 32  1  0  0  0  0
 19 32  1  0  0  0  0
 19 33  2  0  0  0  0
 19 34  1  0  0  0  0
 20 22  2  0  0  0  0
 20 40  1  0  0  0  0
 21 24  2  0  0  0  0
 21 41  1  0  0  0  0
 22 52  1  0  0  0  0
 23 26  2  0  0  0  0
 23 51  1  0  0  0  0
 24 42  1  0  0  0  0
 25 67  1  0  0  0  0
 26 76  1  0  0  0  0
 27 86  1  0  0  0  0
 28 87  1  0  0  0  0
 29 31  2  0  0  0  0
 29 86  1  0  0  0  0
 30 88  1  0  0  0  0
 31 89  1  0  0  0  0
 32 70  2  0  0  0  0
 33 71  1  0  0  0  0
 33 74  1  0  0  0  0
 34 75  1  0  0  0  0
 34 80  2  0  0  0  0
 35 53  1  0  0  0  0
 35 77  1  0  0  0  0
 35 81  2  0  0  0  0
 36 64  1  0  0  0  0
 36 67  1  0  0  0  0
 36 82  2  0  0  0  0
 37 65  1  0  0  0  0
 37 72  1  0  0  0  0
 37 83  2  0  0  0  0
 38 66  1  0  0  0  0
 38 78  1  0  0  0  0
 38 84  2  0  0  0  0
 39 73  1  0  0  0  0
 39 76  1  0  0  0  0
 39 85  2  0  0  0  0
 40 43  1  0  0  0  0
 41 53  1  0  0  0  0
 42 72  1  0  0  0  0
 43 47  1  0  0  0  0
 44 48  1  0  0  0  0
 44 49  1  0  0  0  0
 45 46  1  0  0  0  0
 45 51  1  0  0  0  0
 46 51  1  0  0  0  0
 47 52  1  0  0  0  0
 48 54  1  0  0  0  0
 49 73  1  0  0  0  0
 50 54  1  0  0  0  0
 50 73  1  0  0  0  0
 52 77  1  0  0  0  0
 53 72  1  0  0  0  0
 54 71  1  0  0  0  0
 55 66  1  0  0  0  0
 56 67  1  0  0  0  0
 57 67  1  0  0  0  0
 58 68  1  0  0  0  0
 59 68  1  0  0  0  0
 60 68  1  0  0  0  0
 61 69  1  0  0  0  0
 62 69  1  0  0  0  0
 63 79  1  0  0  0  0
 64 69  1  0  0  0  0
 65 68  1  0  0  0  0
 65 78  1  0  0  0  0
 66 79  1  0  0  0  0
 69 87  1  0  0  0  0
 70 71  1  0  0  0  0
M  CHG  1  79   1
M  ISO  4  39 100  69 101  76 100  87 101
M  END
> <Batch ID>
0139

> <Smiles>
CNC(C)C(=O)NC(C(=O)N1Cc2cc([101O:1][101C:1](C)(C)CC(=O)C(C)(C)c3ccc(C4CC4)c([100NH:0][100C:0](=O)N4CCCC(n5nc(-c6ccc(Oc7ccc(F)cc7F)cc6)c(C(N)=O)c5N)C4)c3)ccc2CC1C(=O)NC1CCCc2ccccc21)C(C)(C)C

> <Shape>
0.224

> <Color>
0.058

> <Negative vol penalty>
0.000

$$$$

  -OEChem-04052302483D

 86 94  0     1  0  0  0  0  0999 V2000
  -29.0023  -25.1800   16.5871 C   0  0  0  0  0  0  0  0  0  0  0  0
  -27.8061  -25.2174   17.2963 C   0  0  0  0  0  0  0  0  0  0  0  0
  -25.2962  -11.6485   23.5226 C   0  0  0  0  0  0  0  0  0  0  0  0
  -24.1135  -13.1505   24.9999 C   0  0  0  0  0  0  0  0  0  0  0  0
  -30.1325  -25.8195   17.0946 C   0  0  0  0  0  0  0  0  0  0  0  0
  -27.7396  -25.8936   18.5140 C   0  0  0  0  0  0  0  0  0  0  0  0
  -23.5907  -28.7694   18.9155 C   0  0  0  0  0  0  0  0  0  0  0  0
  -25.1316  -10.6135   24.4431 C   0  0  0  0  0  0  0  0  0  0  0  0
  -23.9488  -12.1155   25.9204 C   0  0  0  0  0  0  0  0  0  0  0  0
  -22.3938  -28.1216   19.2181 C   0  0  0  0  0  0  0  0  0  0  0  0
  -26.5553   -9.6056   27.3382 C   0  0  0  0  0  0  0  0  0  0  0  0
  -27.6616   -8.8019   27.6134 C   0  0  0  0  0  0  0  0  0  0  0  0
  -22.6262  -28.7834   21.5262 C   0  0  0  0  0  0  0  0  0  0  0  0
  -26.4456   -6.8630   26.8396 C   0  0  0  0  0  0  0  0  0  0  0  0
  -24.7872  -12.9170   23.8010 C   0  0  0  0  0  0  0  0  0  0  0  0
  -24.0886  -14.3365   21.7998 C   0  0  0  0  0  0  0  0  0  0  0  0
  -30.0774  -26.5121   18.3144 C   0  0  0  0  0  0  0  0  0  0  0  0
  -24.3211  -29.4209   19.9197 C   0  0  0  0  0  0  0  0  0  0  0  0
  -28.8705  -26.5419   19.0389 C   0  0  0  0  0  0  0  0  0  0  0  0
  -23.8308  -29.4409   21.2332 C   0  0  0  0  0  0  0  0  0  0  0  0
  -24.1136  -22.1269   20.6931 C   0  0  0  0  0  0  0  0  0  0  0  0
  -23.8872  -23.5313   20.7754 C   0  0  0  0  0  0  0  0  0  0  0  0
  -24.4579  -10.8470   25.6420 C   0  0  0  0  0  0  0  0  0  0  0  0
  -21.9129  -28.1261   20.5241 C   0  0  0  0  0  0  0  0  0  0  0  0
  -25.3941   -9.0380   26.8138 C   0  0  0  0  0  0  0  0  0  0  0  0
  -27.6068   -7.4306   27.3641 C   0  0  0  0  0  0  0  0  0  0  0  0
  -25.3392   -7.6667   26.5644 C   0  0  0  0  0  0  0  0  0  0  0  0
  -24.9575  -13.9867   22.8508 C   0  0  0  0  0  0  0  0  0  0  0  0
  -24.6956  -15.4101   21.1954 C   0  0  0  0  0  0  0  0  0  0  0  0
  -25.4023  -21.7892   21.0433 C   0  0  0  0  0  0  0  0  0  0  0  0
  -25.0116  -24.2134   21.1857 C   0  0  0  0  0  0  0  0  0  0  0  0
  -22.8441  -13.7439   21.4052 C   0  0  0  0  0  0  0  0  0  0  0  0
  -27.2194  -29.0644   21.1752 C   0  0  0  0  0  0  0  0  0  0  0  0
  -20.1826  -24.6473   21.2137 C   0  0  0  0  0  0  0  0  0  0  0  0
  -26.4387  -31.7813   22.7661 C   0  0  0  0  0  0  0  0  0  0  0  0
  -23.9908  -33.8302   23.9730 C   0  0  0  0  0  0  0  0  0  0  0  0
  -27.3752  -20.2831   21.4739 C   0  0  0  0  0  0  0  0  0  0  0  0
  -31.3375  -27.1481   18.8457 C   0  0  0  0  0  0  0  0  0  0  0  0
  -25.5968  -30.1378   19.5719 C   0  0  0  0  0  0  0  0  0  0  0  0
  -24.5668  -30.1433   22.3438 C   0  0  0  0  0  0  0  0  0  0  0  0
  -31.0858  -28.1599   19.9607 C   0  0  0  0  0  0  0  0  0  0  0  0
  -29.3411  -17.3311   21.7878 C   0  0  0  0  0  0  0  0  0  0  0  0
  -30.1133  -27.5904   20.9887 C   0  0  0  0  0  0  0  0  0  0  0  0
  -28.3045  -16.2266   22.0059 C   0  0  0  0  0  0  0  0  0  0  0  0
  -28.9374  -18.6323   22.4788 C   0  0  0  0  0  0  0  0  0  0  0  0
  -26.5552  -18.0146   22.3668 C   0  0  0  0  0  0  0  0  0  0  0  0
  -28.7523  -27.2860   20.3513 C   0  0  1  0  0  0  0  0  0  0  0  0
  -26.5197  -30.3311   20.7712 C   0  0  1  0  0  0  0  0  0  0  0  0
  -26.8864  -16.7036   21.6353 C   0  0  2  0  0  0  0  0  0  0  0  0
  -23.0832  -21.1417   20.2792 C   0  0  0  0  0  0  0  0  0  0  0  0
  -23.6608  -35.9573   25.2629 C   0  0  0  0  0  0  0  0  0  0  0  0
  -19.4930  -25.2132   23.5698 C   0  0  0  0  0  0  0  0  0  0  0  0
  -18.2577  -26.2099   21.6475 C   0  0  0  0  0  0  0  0  0  0  0  0
  -27.1342  -30.3183   25.3518 C   0  0  0  0  0  0  0  0  0  0  0  0
  -25.9094  -32.1034   26.6094 C   0  0  0  0  0  0  0  0  0  0  0  0
  -27.9184  -32.6910   25.2524 C   0  0  0  0  0  0  0  0  0  0  0  0
  -22.5883  -35.1217   21.7094 C   0  0  0  0  0  0  0  0  0  0  0  0
  -22.5682  -24.1897   20.4495 C   0  0  0  0  0  0  0  0  0  0  0  0
  -21.5241  -24.0043   21.5528 C   0  0  0  0  0  0  0  0  0  0  0  0
  -20.6151  -26.9567   22.1379 C   0  0  0  0  0  0  0  0  0  1  0  0
  -25.7603  -32.0947   24.0779 C   0  0  1  0  0  0  0  0  0  0  0  0
  -23.8004  -35.3336   23.8830 C   0  0  2  0  0  0  0  0  0  0  0  0
  -19.6465  -25.7594   22.1422 C   0  0  0  0  0  0  0  0  0  0  0  0
  -26.6674  -31.7869   25.3026 C   0  0  0  0  0  0  0  0  0  0  0  0
  -26.0345  -14.7742   22.9131 N   0  0  0  0  0  0  0  0  0  0  0  0
  -25.8465  -15.6294   21.8937 N   0  0  0  0  0  0  0  0  0  0  0  0
  -25.8126  -30.8245   21.9547 N   0  0  0  0  0  0  0  0  0  0  0  0
  -27.5849  -19.0247   22.0767 N   0  0  0  0  0  0  0  0  0  0  0  0
  -24.3519  -16.1785   20.1401 N   0  0  0  0  0  0  0  0  0  0  0  0
  -25.1330  -25.5534   21.3653 N   0  0  0  0  0  0  0  0  0  0  0  0
  -22.3650  -12.6476   22.1352 N   0  0  0  0  0  0  0  0  0  0  0  0
  -26.0539  -20.5324   21.1046 N   0  0  0  0  0  0  0  0  0  0  0  0
  -27.9925  -28.5052   20.1757 N   0  0  0  0  0  0  0  0  0  0  0  0
  -25.3255  -33.4846   23.9907 N   0  0  0  0  0  0  0  0  0  0  0  0
  -22.5762  -35.6545   23.0961 N   0  3  0  0  0  0  0  0  0  0  0  0
  -22.1849  -14.1636   20.4240 O   0  0  0  0  0  0  0  0  0  0  0  0
  -27.0703  -28.6274   22.3104 O   0  0  0  0  0  0  0  0  0  0  0  0
  -19.5406  -24.2653   20.2319 O   0  0  0  0  0  0  0  0  0  0  0  0
  -27.4817  -32.3691   22.4691 O   0  0  0  0  0  0  0  0  0  0  0  0
  -23.0496  -33.0416   24.0263 O   0  0  0  0  0  0  0  0  0  0  0  0
  -28.3044  -21.0696   21.2737 O   0  0  0  0  0  0  0  0  0  0  0  0
  -24.2968   -9.8373   26.5403 O   0  0  0  0  0  0  0  0  0  0  0  0
  -20.7452  -27.4940   20.8224 O   0  0  0  0  0  0  0  0  0  1  0  0
  -28.6698   -6.6592   27.6270 F   0  0  0  0  0  0  0  0  0  0  0  0
  -24.2268   -7.1158   26.0596 F   0  0  0  0  0  0  0  0  0  0  0  0
  -26.3331  -23.1620   21.4693 S   0  0  0  0  0  0  0  0  0  0  0  0
  1  2  1  0  0  0  0
  1  5  2  0  0  0  0
  2  6  2  0  0  0  0
  3  8  2  0  0  0  0
  3 15  1  0  0  0  0
  4  9  1  0  0  0  0
  4 15  2  0  0  0  0
  5 17  1  0  0  0  0
  6 19  1  0  0  0  0
  7 10  2  0  0  0  0
  7 18  1  0  0  0  0
  8 23  1  0  0  0  0
  9 23  2  0  0  0  0
 10 24  1  0  0  0  0
 11 12  2  0  0  0  0
 11 25  1  0  0  0  0
 12 26  1  0  0  0  0
 13 20  1  0  0  0  0
 13 24  2  0  0  0  0
 14 26  2  0  0  0  0
 14 27  1  0  0  0  0
 15 28  1  0  0  0  0
 16 28  1  0  0  0  0
 16 29  2  0  0  0  0
 16 32  1  0  0  0  0
 17 19  2  0  0  0  0
 17 38  1  0  0  0  0
 18 20  2  0  0  0  0
 18 39  1  0  0  0  0
 19 47  1  0  0  0  0
 20 40  1  0  0  0  0
 21 22  1  0  0  0  0
 21 30  2  0  0  0  0
 21 50  1  0  0  0  0
 22 31  2  0  0  0  0
 22 58  1  0  0  0  0
 23 82  1  0  0  0  0
 24 83  1  0  0  0  0
 25 27  2  0  0  0  0
 25 82  1  0  0  0  0
 26 84  1  0  0  0  0
 27 85  1  0  0  0  0
 28 65  2  0  0  0  0
 29 66  1  0  0  0  0
 29 69  1  0  0  0  0
 30 72  1  0  0  0  0
 30 86  1  0  0  0  0
 31 70  1  0  0  0  0
 31 86  1  0  0  0  0
 32 71  1  0  0  0  0
 32 76  2  0  0  0  0
 33 48  1  0  0  0  0
 33 73  1  0  0  0  0
 33 77  2  0  0  0  0
 34 59  1  0  0  0  0
 34 63  1  0  0  0  0
 34 78  2  0  0  0  0
 35 61  1  0  0  0  0
 35 67  1  0  0  0  0
 35 79  2  0  0  0  0
 36 62  1  0  0  0  0
 36 74  1  0  0  0  0
 36 80  2  0  0  0  0
 37 68  1  0  0  0  0
 37 72  1  0  0  0  0
 37 81  2  0  0  0  0
 38 41  1  0  0  0  0
 39 48  1  0  0  0  0
 40 67  1  0  0  0  0
 41 43  1  0  0  0  0
 42 44  1  0  0  0  0
 42 45  1  0  0  0  0
 43 47  1  0  0  0  0
 44 49  1  0  0  0  0
 45 68  1  0  0  0  0
 46 49  1  0  0  0  0
 46 68  1  0  0  0  0
 47 73  1  0  0  0  0
 48 67  1  0  0  0  0
 49 66  1  0  0  0  0
 51 62  1  0  0  0  0
 52 63  1  0  0  0  0
 53 63  1  0  0  0  0
 54 64  1  0  0  0  0
 55 64  1  0  0  0  0
 56 64  1  0  0  0  0
 57 75  1  0  0  0  0
 58 59  1  0  0  0  0
 60 63  1  0  0  0  0
 60 83  1  0  0  0  0
 61 64  1  0  0  0  0
 61 74  1  0  0  0  0
 62 75  1  0  0  0  0
 65 66  1  0  0  0  0
M  CHG  1  75   1
M  ISO  4  37 100  60 101  72 100  83 101
M  END
> <Batch ID>
0139

> <Smiles>
CNC(C)C(=O)NC(C(=O)N1Cc2cc([101O:1][101CH2:1]C(C)(C)C(=O)CCc3c(N)sc([100NH:0][100C:0](=O)N4CCCC(n5nc(-c6ccc(Oc7ccc(F)cc7F)cc6)c(C(N)=O)c5N)C4)c3C)ccc2CC1C(=O)NC1CCCc2ccccc21)C(C)(C)C

> <Shape>
0.242

> <Color>
0.088

> <Negative vol penalty>
0.000

$$$$

  -OEChem-04052302483D

 85 93  0     1  0  0  0  0  0999 V2000
  -17.6668  -27.9866   23.4344 C   0  0  0  0  0  0  0  0  0  0  0  0
  -18.8960  -28.2542   24.0284 C   0  0  0  0  0  0  0  0  0  0  0  0
  -24.7651  -14.8338   21.1454 C   0  0  0  0  0  0  0  0  0  0  0  0
  -26.2093  -14.7059   19.2128 C   0  0  0  0  0  0  0  0  0  0  0  0
  -17.6172  -27.3672   22.1862 C   0  0  0  0  0  0  0  0  0  0  0  0
  -20.0764  -27.9016   23.3751 C   0  0  0  0  0  0  0  0  0  0  0  0
  -25.3955  -30.9347   23.4906 C   0  0  0  0  0  0  0  0  0  0  0  0
  -24.9089  -26.3639   24.4003 C   0  0  0  0  0  0  0  0  0  0  0  0
  -24.0005  -25.4811   23.8164 C   0  0  0  0  0  0  0  0  0  0  0  0
  -24.8853  -13.4560   21.3264 C   0  0  0  0  0  0  0  0  0  0  0  0
  -26.3296  -13.3281   19.3939 C   0  0  0  0  0  0  0  0  0  0  0  0
  -26.5627  -30.7533   24.2311 C   0  0  0  0  0  0  0  0  0  0  0  0
  -23.5808  -10.6439   19.9793 C   0  0  0  0  0  0  0  0  0  0  0  0
  -22.4180   -9.9225   20.2493 C   0  0  0  0  0  0  0  0  0  0  0  0
  -27.5220  -29.5065   22.4023 C   0  0  0  0  0  0  0  0  0  0  0  0
  -26.7164  -25.2932   23.2071 C   0  0  0  0  0  0  0  0  0  0  0  0
  -23.3571   -9.1962   22.3535 C   0  0  0  0  0  0  0  0  0  0  0  0
  -25.4270  -15.4588   20.0885 C   0  0  0  0  0  0  0  0  0  0  0  0
  -24.1195  -17.6086   19.6689 C   0  0  0  0  0  0  0  0  0  0  0  0
  -18.7977  -27.0156   21.5129 C   0  0  0  0  0  0  0  0  0  0  0  0
  -25.2784  -30.3931   22.2025 C   0  0  0  0  0  0  0  0  0  0  0  0
  -20.0425  -27.2758   22.1173 C   0  0  0  0  0  0  0  0  0  0  0  0
  -26.3531  -29.6846   21.6466 C   0  0  0  0  0  0  0  0  0  0  0  0
  -26.2669  -26.2700   24.0955 C   0  0  0  0  0  0  0  0  0  0  0  0
  -24.4499  -24.5043   22.9279 C   0  0  0  0  0  0  0  0  0  0  0  0
  -25.8079  -24.4103   22.6232 C   0  0  0  0  0  0  0  0  0  0  0  0
  -25.6676  -12.7031   20.4507 C   0  0  0  0  0  0  0  0  0  0  0  0
  -27.6251  -30.0367   23.6881 C   0  0  0  0  0  0  0  0  0  0  0  0
  -24.6319  -10.6414   20.8964 C   0  0  0  0  0  0  0  0  0  0  0  0
  -22.3061   -9.1987   21.4364 C   0  0  0  0  0  0  0  0  0  0  0  0
  -24.5200   -9.9176   22.0835 C   0  0  0  0  0  0  0  0  0  0  0  0
  -25.3027  -16.8819   19.9006 C   0  0  0  0  0  0  0  0  0  0  0  0
  -24.5337  -18.9137   19.5608 C   0  0  0  0  0  0  0  0  0  0  0  0
  -22.7669  -17.1454   19.5613 C   0  0  0  0  0  0  0  0  0  0  0  0
  -23.3661  -28.2547   20.8335 C   0  0  0  0  0  0  0  0  0  0  0  0
  -24.9231  -29.1653   18.1375 C   0  0  0  0  0  0  0  0  0  0  0  0
  -27.7168  -30.5230   16.7236 C   0  0  0  0  0  0  0  0  0  0  0  0
  -27.6029  -23.2119   21.3239 C   0  0  0  0  0  0  0  0  0  0  0  0
  -18.6929  -26.3051   20.1867 C   0  0  0  0  0  0  0  0  0  0  0  0
  -24.0226  -30.6204   21.4063 C   0  0  0  0  0  0  0  0  0  0  0  0
  -26.2854  -29.1003   20.2600 C   0  0  0  0  0  0  0  0  0  0  0  0
  -19.9965  -26.3025   19.3924 C   0  0  0  0  0  0  0  0  0  0  0  0
  -29.1844  -20.8708   19.1571 C   0  0  0  0  0  0  0  0  0  0  0  0
  -21.1682  -25.9188   20.2906 C   0  0  0  0  0  0  0  0  0  0  0  0
  -28.2181  -19.6841   19.1383 C   0  0  0  0  0  0  0  0  0  0  0  0
  -29.2501  -21.5268   20.5351 C   0  0  0  0  0  0  0  0  0  0  0  0
  -26.9853  -20.7268   21.0825 C   0  0  0  0  0  0  0  0  0  0  0  0
  -21.3452  -26.9308   21.4289 C   0  0  1  0  0  0  0  0  0  0  0  0
  -23.8187  -29.5859   20.3038 C   0  0  1  0  0  0  0  0  0  0  0  0
  -26.8362  -20.0737   19.6987 C   0  0  2  0  0  0  0  0  0  0  0  0
  -23.4543  -23.5715   22.3182 C   0  0  0  0  0  0  0  0  0  0  0  0
  -29.2033  -31.4415   14.9225 C   0  0  0  0  0  0  0  0  0  0  0  0
  -27.7498  -26.5836   26.0630 C   0  0  0  0  0  0  0  0  0  0  0  0
  -26.6470  -28.6008   25.1484 C   0  0  0  0  0  0  0  0  0  0  0  0
  -25.5435  -26.2179   17.6501 C   0  0  0  0  0  0  0  0  0  0  0  0
  -27.2899  -26.9296   16.0034 C   0  0  0  0  0  0  0  0  0  0  0  0
  -24.8946  -27.4997   15.6031 C   0  0  0  0  0  0  0  0  0  0  0  0
  -30.5072  -28.9734   23.0503 C   0  0  0  0  0  0  0  0  0  0  0  0
  -30.2828  -28.3495   25.4528 C   0  0  0  0  0  0  0  0  0  0  0  0
  -26.6283  -33.2548   17.0573 C   0  0  0  0  0  0  0  0  0  0  0  0
  -28.5445  -27.4875   23.8533 C   0  0  0  0  0  0  0  0  0  0  0  0
  -26.1705  -28.7117   17.4183 C   0  0  1  0  0  0  0  0  0  0  0  0
  -27.8897  -31.6035   15.6714 C   0  0  2  0  0  0  0  0  0  0  0  0
  -27.2699  -27.2460   24.7410 C   0  0  0  0  0  0  0  0  0  0  0  0
  -25.9755  -27.3489   16.6956 C   0  0  0  0  0  0  0  0  0  0  0  0
  -29.5088  -28.6647   24.1629 C   0  0  0  0  0  0  0  0  0  1  0  0
  -26.3872  -17.6606   19.9374 N   0  0  0  0  0  0  0  0  0  0  0  0
  -25.8872  -18.8902   19.7274 N   0  0  0  0  0  0  0  0  0  0  0  0
  -25.0341  -29.3442   19.5236 N   0  0  0  0  0  0  0  0  0  0  0  0
  -27.9049  -21.8723   20.9998 N   0  0  0  0  0  0  0  0  0  0  0  0
  -23.8686  -20.0676   19.3403 N   0  0  0  0  0  0  0  0  0  0  0  0
  -22.2837  -16.7821   18.2968 N   0  0  0  0  0  0  0  0  0  0  0  0
  -26.2838  -23.4253   21.7226 N   0  0  0  0  0  0  0  0  0  0  0  0
  -21.9943  -28.1296   20.9430 N   0  0  0  0  0  0  0  0  0  0  0  0
  -26.5534  -29.8074   16.5344 N   0  0  0  0  0  0  0  0  0  0  0  0
  -27.8736  -32.9518   16.3060 N   0  3  0  0  0  0  0  0  0  0  0  0
  -22.0040  -17.0719   20.5543 O   0  0  0  0  0  0  0  0  0  0  0  0
  -24.1997  -27.4034   21.1202 O   0  0  0  0  0  0  0  0  0  0  0  0
  -23.8903  -29.3609   17.4920 O   0  0  0  0  0  0  0  0  0  0  0  0
  -28.5340  -30.3305   17.6212 O   0  0  0  0  0  0  0  0  0  0  0  0
  -28.4445  -24.1087   21.2268 O   0  0  0  0  0  0  0  0  0  0  0  0
  -25.7854  -11.3587   20.6273 O   0  0  0  0  0  0  0  0  0  0  0  0
  -28.7654  -29.8576   24.4090 O   0  0  0  0  0  0  0  0  0  1  0  0
  -21.1887   -8.5072   21.6962 F   0  0  0  0  0  0  0  0  0  0  0  0
  -25.5259   -9.9123   22.9689 F   0  0  0  0  0  0  0  0  0  0  0  0
  1  2  1  0  0  0  0
  1  5  2  0  0  0  0
  2  6  2  0  0  0  0
  3 10  2  0  0  0  0
  3 18  1  0  0  0  0
  4 11  1  0  0  0  0
  4 18  2  0  0  0  0
  5 20  1  0  0  0  0
  6 22  1  0  0  0  0
  7 12  2  0  0  0  0
  7 21  1  0  0  0  0
  8  9  2  0  0  0  0
  8 24  1  0  0  0  0
  9 25  1  0  0  0  0
 10 27  1  0  0  0  0
 11 27  2  0  0  0  0
 12 28  1  0  0  0  0
 13 14  2  0  0  0  0
 13 29  1  0  0  0  0
 14 30  1  0  0  0  0
 15 23  1  0  0  0  0
 15 28  2  0  0  0  0
 16 24  2  0  0  0  0
 16 26  1  0  0  0  0
 17 30  2  0  0  0  0
 17 31  1  0  0  0  0
 18 32  1  0  0  0  0
 19 32  1  0  0  0  0
 19 33  2  0  0  0  0
 19 34  1  0  0  0  0
 20 22  2  0  0  0  0
 20 39  1  0  0  0  0
 21 23  2  0  0  0  0
 21 40  1  0  0  0  0
 22 48  1  0  0  0  0
 23 41  1  0  0  0  0
 24 64  1  0  0  0  0
 25 26  2  0  0  0  0
 25 51  1  0  0  0  0
 26 73  1  0  0  0  0
 27 82  1  0  0  0  0
 28 83  1  0  0  0  0
 29 31  2  0  0  0  0
 29 82  1  0  0  0  0
 30 84  1  0  0  0  0
 31 85  1  0  0  0  0
 32 67  2  0  0  0  0
 33 68  1  0  0  0  0
 33 71  1  0  0  0  0
 34 72  1  0  0  0  0
 34 77  2  0  0  0  0
 35 49  1  0  0  0  0
 35 74  1  0  0  0  0
 35 78  2  0  0  0  0
 36 62  1  0  0  0  0
 36 69  1  0  0  0  0
 36 79  2  0  0  0  0
 37 63  1  0  0  0  0
 37 75  1  0  0  0  0
 37 80  2  0  0  0  0
 38 70  1  0  0  0  0
 38 73  1  0  0  0  0
 38 81  2  0  0  0  0
 39 42  1  0  0  0  0
 40 49  1  0  0  0  0
 41 69  1  0  0  0  0
 42 44  1  0  0  0  0
 43 45  1  0  0  0  0
 43 46  1  0  0  0  0
 44 48  1  0  0  0  0
 45 50  1  0  0  0  0
 46 70  1  0  0  0  0
 47 50  1  0  0  0  0
 47 70  1  0  0  0  0
 48 74  1  0  0  0  0
 49 69  1  0  0  0  0
 50 68  1  0  0  0  0
 52 63  1  0  0  0  0
 53 64  1  0  0  0  0
 54 64  1  0  0  0  0
 55 65  1  0  0  0  0
 56 65  1  0  0  0  0
 57 65  1  0  0  0  0
 58 66  1  0  0  0  0
 59 66  1  0  0  0  0
 60 76  1  0  0  0  0
 61 64  1  0  0  0  0
 61 66  1  0  0  0  0
 62 65  1  0  0  0  0
 62 75  1  0  0  0  0
 63 76  1  0  0  0  0
 66 83  1  0  0  0  0
 67 68  1  0  0  0  0
M  CHG  1  76   1
M  ISO  4  38 100  66 101  73 100  83 101
M  END
> <Batch ID>
0139

> <Smiles>
CNC(C)C(=O)NC(C(=O)N1Cc2cc([101O:1][101C:1](C)(C)CC(C)(C)c3ccc(C)c([100NH:0][100C:0](=O)N4CCCC(n5nc(-c6ccc(Oc7ccc(F)cc7F)cc6)c(C(N)=O)c5N)C4)c3)ccc2CC1C(=O)NC1CCCc2ccccc21)C(C)(C)C

> <Shape>
0.227

> <Color>
0.059

> <Negative vol penalty>
0.000

$$$$

  -OEChem-04052302483D

 86 94  0     1  0  0  0  0  0999 V2000
  -26.5647  -15.8115   15.3263 C   0  0  0  0  0  0  0  0  0  0  0  0
  -26.3542  -16.4187   16.5602 C   0  0  0  0  0  0  0  0  0  0  0  0
  -23.0940   -9.8415   19.9298 C   0  0  0  0  0  0  0  0  0  0  0  0
  -23.8479   -9.8494   22.2252 C   0  0  0  0  0  0  0  0  0  0  0  0
  -27.8222  -15.8704   14.7271 C   0  0  0  0  0  0  0  0  0  0  0  0
  -27.4016  -17.0842   17.1962 C   0  0  0  0  0  0  0  0  0  0  0  0
  -26.9998  -22.1161   20.6639 C   0  0  0  0  0  0  0  0  0  0  0  0
  -22.3666   -8.6765   20.1726 C   0  0  0  0  0  0  0  0  0  0  0  0
  -23.1204   -8.6843   22.4680 C   0  0  0  0  0  0  0  0  0  0  0  0
  -26.9574  -22.3026   22.0449 C   0  0  0  0  0  0  0  0  0  0  0  0
  -19.9028   -7.8363   23.0585 C   0  0  0  0  0  0  0  0  0  0  0  0
  -19.1435   -7.7800   24.2272 C   0  0  0  0  0  0  0  0  0  0  0  0
  -29.3360  -22.7042   22.0576 C   0  0  0  0  0  0  0  0  0  0  0  0
  -31.7329  -18.4426   24.2513 C   0  0  0  0  0  0  0  0  0  0  0  0
  -29.7761  -17.5163   23.1790 C   0  0  0  0  0  0  0  0  0  0  0  0
  -31.9741  -16.7030   22.5922 C   0  0  0  0  0  0  0  0  0  0  0  0
  -20.4115   -5.8577   24.9583 C   0  0  0  0  0  0  0  0  0  0  0  0
  -23.8347  -10.4280   20.9560 C   0  0  0  0  0  0  0  0  0  0  0  0
  -24.1396  -12.9584   20.8482 C   0  0  0  0  0  0  0  0  0  0  0  0
  -28.8830  -16.5453   15.3516 C   0  0  0  0  0  0  0  0  0  0  0  0
  -28.2145  -22.2116   19.9697 C   0  0  0  0  0  0  0  0  0  0  0  0
  -28.6749  -17.1511   16.6054 C   0  0  0  0  0  0  0  0  0  0  0  0
  -29.3908  -22.5210   20.6675 C   0  0  0  0  0  0  0  0  0  0  0  0
  -30.3480  -18.4050   24.0894 C   0  0  0  0  0  0  0  0  0  0  0  0
  -32.5460  -17.5916   23.5026 C   0  0  0  0  0  0  0  0  0  0  0  0
  -30.5891  -16.6653   22.4304 C   0  0  0  0  0  0  0  0  0  0  0  0
  -22.3797   -8.0978   21.4418 C   0  0  0  0  0  0  0  0  0  0  0  0
  -28.1261  -22.5938   22.7424 C   0  0  0  0  0  0  0  0  0  0  0  0
  -20.9164   -6.9033   22.8396 C   0  0  0  0  0  0  0  0  0  0  0  0
  -19.3979   -6.7907   25.1771 C   0  0  0  0  0  0  0  0  0  0  0  0
  -21.1707   -5.9141   23.7895 C   0  0  0  0  0  0  0  0  0  0  0  0
  -24.5868  -11.6312   20.7056 C   0  0  0  0  0  0  0  0  0  0  0  0
  -25.2215  -13.7255   20.4911 C   0  0  0  0  0  0  0  0  0  0  0  0
  -22.8606  -13.4536   21.2661 C   0  0  0  0  0  0  0  0  0  0  0  0
  -29.9636  -20.2126   18.2239 C   0  0  0  0  0  0  0  0  0  0  0  0
  -31.7416  -22.8687   17.6706 C   0  0  0  0  0  0  0  0  0  0  0  0
  -32.7142  -25.9716   18.7064 C   0  0  0  0  0  0  0  0  0  0  0  0
  -30.6712  -14.8507   20.6848 C   0  0  0  0  0  0  0  0  0  0  0  0
  -30.2370  -16.5417   14.6872 C   0  0  0  0  0  0  0  0  0  0  0  0
  -28.2391  -22.0341   18.4763 C   0  0  0  0  0  0  0  0  0  0  0  0
  -30.7170  -22.6545   19.9662 C   0  0  0  0  0  0  0  0  0  0  0  0
  -31.1952  -17.5874   15.2517 C   0  0  0  0  0  0  0  0  0  0  0  0
  -29.5986  -12.4314   18.3029 C   0  0  0  0  0  0  0  0  0  0  0  0
  -31.1743  -17.5626   16.7768 C   0  0  0  0  0  0  0  0  0  0  0  0
  -28.1623  -12.1168   18.7274 C   0  0  0  0  0  0  0  0  0  0  0  0
  -30.5071  -12.6683   19.5079 C   0  0  0  0  0  0  0  0  0  0  0  0
  -28.5862  -13.3584   20.8874 C   0  0  0  0  0  0  0  0  0  0  0  0
  -29.7795  -17.9037   17.3150 C   0  0  1  0  0  0  0  0  0  0  0  0
  -29.6150  -21.6469   17.9431 C   0  0  1  0  0  0  0  0  0  0  0  0
  -27.6190  -13.1761   19.7063 C   0  0  2  0  0  0  0  0  0  0  0  0
  -34.2059  -27.8849   18.0647 C   0  0  0  0  0  0  0  0  0  0  0  0
  -34.4337  -17.2974   25.1445 C   0  0  0  0  0  0  0  0  0  0  0  0
  -34.5976  -19.0445   23.3398 C   0  0  0  0  0  0  0  0  0  0  0  0
  -34.8347  -16.6332   22.7823 C   0  0  0  0  0  0  0  0  0  0  0  0
  -34.1740  -21.2839   18.6095 C   0  0  0  0  0  0  0  0  0  0  0  0
  -35.4042  -23.4506   18.8544 C   0  0  0  0  0  0  0  0  0  0  0  0
  -34.5804  -22.7327   16.6119 C   0  0  0  0  0  0  0  0  0  0  0  0
  -26.9076  -20.9892   25.1764 C   0  0  0  0  0  0  0  0  0  0  0  0
  -28.9098  -22.0750   26.2259 C   0  0  0  0  0  0  0  0  0  0  0  0
  -30.4262  -27.8373   18.4979 C   0  0  0  0  0  0  0  0  0  0  0  0
  -29.4686  -19.3258   24.8992 C   0  0  0  0  0  0  0  0  0  0  0  0
  -29.2338  -20.6594   24.1757 C   0  0  0  0  0  0  0  0  0  0  0  0
  -32.9208  -23.5258   18.3465 C   0  0  1  0  0  0  0  0  0  0  0  0
  -32.8069  -27.2961   17.9704 C   0  0  2  0  0  0  0  0  0  0  0  0
  -34.0267  -17.6319   23.6759 C   0  0  0  0  0  0  0  0  0  0  0  0
  -34.2453  -22.7439   18.1193 C   0  0  0  0  0  0  0  0  0  0  0  0
  -28.2752  -21.6207   24.9073 C   0  0  0  0  0  0  0  0  0  1  0  0
  -25.8540  -11.5559   20.2902 N   0  0  0  0  0  0  0  0  0  0  0  0
  -26.2123  -12.8455   20.1686 N   0  0  0  0  0  0  0  0  0  0  0  0
  -30.6904  -22.4658   18.5063 N   0  0  0  0  0  0  0  0  0  0  0  0
  -29.9308  -13.6868   20.3884 N   0  0  0  0  0  0  0  0  0  0  0  0
  -25.4124  -15.0603   20.4246 N   0  0  0  0  0  0  0  0  0  0  0  0
  -21.8613  -12.5281   21.5966 N   0  0  0  0  0  0  0  0  0  0  0  0
  -30.0082  -15.7625   21.5056 N   0  0  0  0  0  0  0  0  0  0  0  0
  -29.5460  -19.3303   17.2458 N   0  0  0  0  0  0  0  0  0  0  0  0
  -32.9504  -24.9034   17.8672 N   0  0  0  0  0  0  0  0  0  0  0  0
  -31.8443  -28.2772   18.5464 N   0  3  0  0  0  0  0  0  0  0  0  0
  -22.6061  -14.6803   21.3283 O   0  0  0  0  0  0  0  0  0  0  0  0
  -30.5682  -19.9276   19.2510 O   0  0  0  0  0  0  0  0  0  0  0  0
  -31.7497  -22.7249   16.4455 O   0  0  0  0  0  0  0  0  0  0  0  0
  -32.4614  -25.8928   19.9066 O   0  0  0  0  0  0  0  0  0  0  0  0
  -31.7989  -15.0382   20.2209 O   0  0  0  0  0  0  0  0  0  0  0  0
  -21.6698   -6.9611   21.6792 O   0  0  0  0  0  0  0  0  0  0  0  0
  -28.0876  -22.7757   24.0905 O   0  0  0  0  0  0  0  0  0  1  0  0
  -18.6697   -6.7377   26.3001 F   0  0  0  0  0  0  0  0  0  0  0  0
  -22.1439   -5.0157   23.5853 F   0  0  0  0  0  0  0  0  0  0  0  0
  1  2  1  0  0  0  0
  1  5  2  0  0  0  0
  2  6  2  0  0  0  0
  3  8  2  0  0  0  0
  3 18  1  0  0  0  0
  4  9  1  0  0  0  0
  4 18  2  0  0  0  0
  5 20  1  0  0  0  0
  6 22  1  0  0  0  0
  7 10  2  0  0  0  0
  7 21  1  0  0  0  0
  8 27  1  0  0  0  0
  9 27  2  0  0  0  0
 10 28  1  0  0  0  0
 11 12  2  0  0  0  0
 11 29  1  0  0  0  0
 12 30  1  0  0  0  0
 13 23  1  0  0  0  0
 13 28  2  0  0  0  0
 14 24  2  0  0  0  0
 14 25  1  0  0  0  0
 15 24  1  0  0  0  0
 15 26  2  0  0  0  0
 16 25  2  0  0  0  0
 16 26  1  0  0  0  0
 17 30  2  0  0  0  0
 17 31  1  0  0  0  0
 18 32  1  0  0  0  0
 19 32  1  0  0  0  0
 19 33  2  0  0  0  0
 19 34  1  0  0  0  0
 20 22  2  0  0  0  0
 20 39  1  0  0  0  0
 21 23  2  0  0  0  0
 21 40  1  0  0  0  0
 22 48  1  0  0  0  0
 23 41  1  0  0  0  0
 24 61  1  0  0  0  0
 25 65  1  0  0  0  0
 26 74  1  0  0  0  0
 27 83  1  0  0  0  0
 28 84  1  0  0  0  0
 29 31  2  0  0  0  0
 29 83  1  0  0  0  0
 30 85  1  0  0  0  0
 31 86  1  0  0  0  0
 32 68  2  0  0  0  0
 33 69  1  0  0  0  0
 33 72  1  0  0  0  0
 34 73  1  0  0  0  0
 34 78  2  0  0  0  0
 35 49  1  0  0  0  0
 35 75  1  0  0  0  0
 35 79  2  0  0  0  0
 36 63  1  0  0  0  0
 36 70  1  0  0  0  0
 36 80  2  0  0  0  0
 37 64  1  0  0  0  0
 37 76  1  0  0  0  0
 37 81  2  0  0  0  0
 38 71  1  0  0  0  0
 38 74  1  0  0  0  0
 38 82  2  0  0  0  0
 39 42  1  0  0  0  0
 40 49  1  0  0  0  0
 41 70  1  0  0  0  0
 42 44  1  0  0  0  0
 43 45  1  0  0  0  0
 43 46  1  0  0  0  0
 44 48  1  0  0  0  0
 45 50  1  0  0  0  0
 46 71  1  0  0  0  0
 47 50  1  0  0  0  0
 47 71  1  0  0  0  0
 48 75  1  0  0  0  0
 49 70  1  0  0  0  0
 50 69  1  0  0  0  0
 51 64  1  0  0  0  0
 52 65  1  0  0  0  0
 53 65  1  0  0  0  0
 54 65  1  0  0  0  0
 55 66  1  0  0  0  0
 56 66  1  0  0  0  0
 57 66  1  0  0  0  0
 58 67  1  0  0  0  0
 59 67  1  0  0  0  0
 60 77  1  0  0  0  0
 61 62  1  0  0  0  0
 62 67  1  0  0  0  0
 63 66  1  0  0  0  0
 63 76  1  0  0  0  0
 64 77  1  0  0  0  0
 67 84  1  0  0  0  0
 68 69  1  0  0  0  0
M  CHG  1  77   1
M  ISO  4  38 100  67 101  74 100  84 101
M  END
> <Batch ID>
0139

> <Smiles>
CNC(C)C(=O)NC(C(=O)N1Cc2cc([101O:1][101C:1](C)(C)CCc3cc([100NH:0][100C:0](=O)N4CCCC(n5nc(-c6ccc(Oc7ccc(F)cc7F)cc6)c(C(N)=O)c5N)C4)cc(C(C)(C)C)c3)ccc2CC1C(=O)NC1CCCc2ccccc21)C(C)(C)C

> <Shape>
0.230

> <Color>
0.194

> <Negative vol penalty>
0.000

$$$$

  -OEChem-04052302483D

 86 94  0     1  0  0  0  0  0999 V2000
  -21.2255  -23.5483   19.0618 C   0  0  0  0  0  0  0  0  0  0  0  0
  -22.2698  -22.7844   18.5533 C   0  0  0  0  0  0  0  0  0  0  0  0
  -23.8888  -29.2288   23.0277 C   0  0  0  0  0  0  0  0  0  0  0  0
  -22.5438  -29.3510   21.0244 C   0  0  0  0  0  0  0  0  0  0  0  0
  -20.6612  -23.2193   20.2925 C   0  0  0  0  0  0  0  0  0  0  0  0
  -22.7423  -21.6841   19.2696 C   0  0  0  0  0  0  0  0  0  0  0  0
  -27.4053  -17.9279   18.1401 C   0  0  0  0  0  0  0  0  0  0  0  0
  -22.7929  -29.6360   23.7883 C   0  0  0  0  0  0  0  0  0  0  0  0
  -21.4478  -29.7582   21.7851 C   0  0  0  0  0  0  0  0  0  0  0  0
  -28.7598  -17.8439   18.4596 C   0  0  0  0  0  0  0  0  0  0  0  0
  -18.1973  -30.4820   23.2440 C   0  0  0  0  0  0  0  0  0  0  0  0
  -16.9656  -29.8828   22.9806 C   0  0  0  0  0  0  0  0  0  0  0  0
  -30.2405  -20.9715   20.2678 C   0  0  0  0  0  0  0  0  0  0  0  0
  -28.2319  -16.3500   20.2786 C   0  0  0  0  0  0  0  0  0  0  0  0
  -27.8771  -21.3331   21.7052 C   0  0  0  0  0  0  0  0  0  0  0  0
  -17.9004  -27.7223   23.5240 C   0  0  0  0  0  0  0  0  0  0  0  0
  -23.7643  -29.0863   21.6456 C   0  0  0  0  0  0  0  0  0  0  0  0
  -30.1134  -20.4325   21.5480 C   0  0  0  0  0  0  0  0  0  0  0  0
  -26.1382  -29.3183   20.7411 C   0  0  0  0  0  0  0  0  0  0  0  0
  -21.1360  -22.1217   21.0294 C   0  0  0  0  0  0  0  0  0  0  0  0
  -26.4513  -17.2310   18.8955 C   0  0  0  0  0  0  0  0  0  0  0  0
  -22.1700  -21.3215   20.5023 C   0  0  0  0  0  0  0  0  0  0  0  0
  -26.8662  -16.4247   19.9650 C   0  0  0  0  0  0  0  0  0  0  0  0
  -28.0042  -21.8721   20.4250 C   0  0  0  0  0  0  0  0  0  0  0  0
  -21.5724  -29.9007   23.1671 C   0  0  0  0  0  0  0  0  0  0  0  0
  -29.1730  -17.0572   19.5307 C   0  0  0  0  0  0  0  0  0  0  0  0
  -19.2807  -29.7013   23.6473 C   0  0  0  0  0  0  0  0  0  0  0  0
  -28.9317  -20.6133   22.2667 C   0  0  0  0  0  0  0  0  0  0  0  0
  -16.8171  -28.5030   23.1207 C   0  0  0  0  0  0  0  0  0  0  0  0
  -29.1859  -21.6914   19.7063 C   0  0  0  0  0  0  0  0  0  0  0  0
  -19.1322  -28.3215   23.7873 C   0  0  0  0  0  0  0  0  0  0  0  0
  -24.8962  -28.6662   20.8592 C   0  0  0  0  0  0  0  0  0  0  0  0
  -26.8630  -28.5242   19.8863 C   0  0  0  0  0  0  0  0  0  0  0  0
  -31.2553  -19.6640   22.1298 C   0  0  0  0  0  0  0  0  0  0  0  0
  -26.5959  -30.5331   21.3496 C   0  0  0  0  0  0  0  0  0  0  0  0
  -23.9685  -18.0672   20.6956 C   0  0  0  0  0  0  0  0  0  0  0  0
  -23.4840  -14.8626   20.8305 C   0  0  0  0  0  0  0  0  0  0  0  0
  -24.7975  -11.7215   20.5958 C   0  0  0  0  0  0  0  0  0  0  0  0
  -26.6072  -22.7160   18.5060 C   0  0  0  0  0  0  0  0  0  0  0  0
  -20.4836  -21.8058   22.3522 C   0  0  0  0  0  0  0  0  0  0  0  0
  -24.9966  -17.3108   18.5214 C   0  0  0  0  0  0  0  0  0  0  0  0
  -25.8838  -15.6406   20.7948 C   0  0  0  0  0  0  0  0  0  0  0  0
  -21.3380  -20.9028   23.2359 C   0  0  0  0  0  0  0  0  0  0  0  0
  -26.3105  -25.4557   16.2513 C   0  0  0  0  0  0  0  0  0  0  0  0
  -21.8188  -19.6996   22.4385 C   0  0  0  0  0  0  0  0  0  0  0  0
  -26.0333  -26.6503   17.1668 C   0  0  0  0  0  0  0  0  0  0  0  0
  -25.6298  -24.1845   16.7557 C   0  0  0  0  0  0  0  0  0  0  0  0
  -25.6417  -25.0327   19.0687 C   0  0  0  0  0  0  0  0  0  0  0  0
  -22.7208  -20.1386   21.2780 C   0  0  1  0  0  0  0  0  0  0  0  0
  -24.0626  -16.9662   19.6774 C   0  0  1  0  0  0  0  0  0  0  0  0
  -26.3600  -26.3215   18.6367 C   0  0  2  0  0  0  0  0  0  0  0  0
  -28.1329  -18.1728   24.7889 C   0  0  0  0  0  0  0  0  0  0  0  0
  -24.1636   -9.3014   20.7928 C   0  0  0  0  0  0  0  0  0  0  0  0
  -23.4460  -15.1224   23.8704 C   0  0  0  0  0  0  0  0  0  0  0  0
  -23.7674  -12.6438   24.0166 C   0  0  0  0  0  0  0  0  0  0  0  0
  -21.7208  -13.5726   22.9342 C   0  0  0  0  0  0  0  0  0  0  0  0
  -25.5430  -11.1775   17.7838 C   0  0  0  0  0  0  0  0  0  0  0  0
  -32.2090  -18.8888   21.2302 C   0  0  0  0  0  0  0  0  0  0  0  0
  -32.1789  -17.3868   21.5024 C   0  0  0  0  0  0  0  0  0  0  0  0
  -27.7290  -19.1580   23.7129 C   0  0  0  0  0  0  0  0  0  0  0  0
  -30.8232  -16.7528   21.2160 C   0  0  0  0  0  0  0  0  0  1  0  0
  -23.9429  -13.7494   21.7411 C   0  0  1  0  0  0  0  0  0  0  0  0
  -24.3255  -10.4852   19.8520 C   0  0  2  0  0  0  0  0  0  0  0  0
  -23.2378  -13.7882   23.1263 C   0  0  0  0  0  0  0  0  0  0  0  0
  -24.8320  -27.5444   20.1372 N   0  0  0  0  0  0  0  0  0  0  0  0
  -31.4457  -19.6531   23.4120 N   0  0  0  0  0  0  0  0  0  0  0  0
  -26.0428  -27.4854   19.5570 N   0  0  0  0  0  0  0  0  0  0  0  0
  -24.4720  -15.7563   20.3934 N   0  0  0  0  0  0  0  0  0  0  0  0
  -25.9889  -23.9343   18.1533 N   0  0  0  0  0  0  0  0  0  0  0  0
  -28.1154  -28.6201   19.3917 N   0  0  0  0  0  0  0  0  0  0  0  0
  -26.3807  -31.7416   20.6731 N   0  0  0  0  0  0  0  0  0  0  0  0
  -26.9319  -22.6043   19.8575 N   0  0  0  0  0  0  0  0  0  0  0  0
  -22.9839  -18.9989   20.4274 N   0  0  0  0  0  0  0  0  0  0  0  0
  -23.7403  -12.5078   21.0022 N   0  0  0  0  0  0  0  0  0  0  0  0
  -25.3048  -10.1128   18.7922 N   0  3  0  0  0  0  0  0  0  0  0  0
  -27.1932  -30.5450   22.4526 O   0  0  0  0  0  0  0  0  0  0  0  0
  -24.7316  -18.0703   21.6544 O   0  0  0  0  0  0  0  0  0  0  0  0
  -22.2942  -14.9323   20.5127 O   0  0  0  0  0  0  0  0  0  0  0  0
  -25.9852  -11.9633   20.7995 O   0  0  0  0  0  0  0  0  0  0  0  0
  -26.8566  -21.8478   17.6657 O   0  0  0  0  0  0  0  0  0  0  0  0
  -20.5027  -30.2978   23.9091 O   0  0  0  0  0  0  0  0  0  0  0  0
  -30.4944  -16.9740   19.8451 O   0  0  0  0  0  0  0  0  0  1  0  0
  -28.7879  -20.0930   23.5182 O   0  0  0  0  0  0  0  0  0  0  0  0
  -15.6338  -27.9279   22.8692 F   0  0  0  0  0  0  0  0  0  0  0  0
  -29.3194  -22.2058   18.4754 F   0  0  0  0  0  0  0  0  0  0  0  0
  -20.1690  -27.5665   24.1756 F   0  0  0  0  0  0  0  0  0  0  0  0
  1  2  1  0  0  0  0
  1  5  2  0  0  0  0
  2  6  2  0  0  0  0
  3  8  2  0  0  0  0
  3 17  1  0  0  0  0
  4  9  1  0  0  0  0
  4 17  2  0  0  0  0
  5 20  1  0  0  0  0
  6 22  1  0  0  0  0
  7 10  2  0  0  0  0
  7 21  1  0  0  0  0
  8 25  1  0  0  0  0
  9 25  2  0  0  0  0
 10 26  1  0  0  0  0
 11 12  2  0  0  0  0
 11 27  1  0  0  0  0
 12 29  1  0  0  0  0
 13 18  1  0  0  0  0
 13 30  2  0  0  0  0
 14 23  1  0  0  0  0
 14 26  2  0  0  0  0
 15 24  2  0  0  0  0
 15 28  1  0  0  0  0
 16 29  2  0  0  0  0
 16 31  1  0  0  0  0
 17 32  1  0  0  0  0
 18 28  2  0  0  0  0
 18 34  1  0  0  0  0
 19 32  1  0  0  0  0
 19 33  2  0  0  0  0
 19 35  1  0  0  0  0
 20 22  2  0  0  0  0
 20 40  1  0  0  0  0
 21 23  2  0  0  0  0
 21 41  1  0  0  0  0
 22 49  1  0  0  0  0
 23 42  1  0  0  0  0
 24 30  1  0  0  0  0
 24 72  1  0  0  0  0
 25 81  1  0  0  0  0
 26 82  1  0  0  0  0
 27 31  2  0  0  0  0
 27 81  1  0  0  0  0
 28 83  1  0  0  0  0
 29 84  1  0  0  0  0
 30 85  1  0  0  0  0
 31 86  1  0  0  0  0
 32 65  2  0  0  0  0
 33 67  1  0  0  0  0
 33 70  1  0  0  0  0
 34 58  1  0  0  0  0
 34 66  2  0  0  0  0
 35 71  1  0  0  0  0
 35 76  2  0  0  0  0
 36 50  1  0  0  0  0
 36 73  1  0  0  0  0
 36 77  2  0  0  0  0
 37 62  1  0  0  0  0
 37 68  1  0  0  0  0
 37 78  2  0  0  0  0
 38 63  1  0  0  0  0
 38 74  1  0  0  0  0
 38 79  2  0  0  0  0
 39 69  1  0  0  0  0
 39 72  1  0  0  0  0
 39 80  2  0  0  0  0
 40 43  1  0  0  0  0
 41 50  1  0  0  0  0
 42 68  1  0  0  0  0
 43 45  1  0  0  0  0
 44 46  1  0  0  0  0
 44 47  1  0  0  0  0
 45 49  1  0  0  0  0
 46 51  1  0  0  0  0
 47 69  1  0  0  0  0
 48 51  1  0  0  0  0
 48 69  1  0  0  0  0
 49 73  1  0  0  0  0
 50 68  1  0  0  0  0
 51 67  1  0  0  0  0
 52 60  1  0  0  0  0
 53 63  1  0  0  0  0
 54 64  1  0  0  0  0
 55 64  1  0  0  0  0
 56 64  1  0  0  0  0
 57 75  1  0  0  0  0
 58 59  1  0  0  0  0
 59 61  1  0  0  0  0
 60 83  1  0  0  0  0
 61 82  1  0  0  0  0
 62 64  1  0  0  0  0
 62 74  1  0  0  0  0
 63 75  1  0  0  0  0
 65 67  1  0  0  0  0
M  CHG  1  75   1
M  ISO  4  39 100  61 101  72 100  82 101
M  END
> <Batch ID>
0139

> <Smiles>
CCOc1cc([100NH:0][100C:0](=O)N2CCCC(n3nc(-c4ccc(Oc5ccc(F)cc5F)cc4)c(C(N)=O)c3N)C2)c(F)cc1C(=N)CC[101CH2:1][101O:1]c1ccc2c(c1)CN(C(=O)C(NC(=O)C(C)NC)C(C)(C)C)C(C(=O)NC1CCCc3ccccc31)C2

> <Shape>
0.238

> <Color>
0.078

> <Negative vol penalty>
0.000

$$$$

  -OEChem-04052302483D

 85 93  0     1  0  0  0  0  0999 V2000
  -27.3251  -22.0968   20.5379 C   0  0  0  0  0  0  0  0  0  0  0  0
  -26.1806  -22.6420   21.1108 C   0  0  0  0  0  0  0  0  0  0  0  0
  -27.6720  -12.5196   18.7274 C   0  0  0  0  0  0  0  0  0  0  0  0
  -28.3147  -13.4731   20.8522 C   0  0  0  0  0  0  0  0  0  0  0  0
  -28.5717  -22.6648   20.7976 C   0  0  0  0  0  0  0  0  0  0  0  0
  -26.2822  -23.7551   21.9447 C   0  0  0  0  0  0  0  0  0  0  0  0
  -22.7705  -27.2625   20.9393 C   0  0  0  0  0  0  0  0  0  0  0  0
  -28.9298  -11.9276   18.6125 C   0  0  0  0  0  0  0  0  0  0  0  0
  -29.5725  -12.8810   20.7374 C   0  0  0  0  0  0  0  0  0  0  0  0
  -21.4823  -27.0296   21.4191 C   0  0  0  0  0  0  0  0  0  0  0  0
  -30.5310   -9.2200   19.8526 C   0  0  0  0  0  0  0  0  0  0  0  0
  -30.5855   -7.8879   19.4426 C   0  0  0  0  0  0  0  0  0  0  0  0
  -21.9085  -28.5184   23.2686 C   0  0  0  0  0  0  0  0  0  0  0  0
  -19.9717  -20.5729   22.4234 C   0  0  0  0  0  0  0  0  0  0  0  0
  -31.9014   -8.5329   17.5218 C   0  0  0  0  0  0  0  0  0  0  0  0
  -20.2885  -18.6468   23.6852 C   0  0  0  0  0  0  0  0  0  0  0  0
  -27.3645  -13.2924   19.8472 C   0  0  0  0  0  0  0  0  0  0  0  0
  -24.9165  -13.3515   20.5621 C   0  0  0  0  0  0  0  0  0  0  0  0
  -28.6875  -23.7912   21.6273 C   0  0  0  0  0  0  0  0  0  0  0  0
  -23.6425  -28.1180   21.6277 C   0  0  0  0  0  0  0  0  0  0  0  0
  -27.5316  -24.3379   22.2167 C   0  0  0  0  0  0  0  0  0  0  0  0
  -23.2063  -28.7625   22.7941 C   0  0  0  0  0  0  0  0  0  0  0  0
  -20.7282  -19.3790   22.6045 C   0  0  0  0  0  0  0  0  0  0  0  0
  -29.8800  -12.1083   19.6176 C   0  0  0  0  0  0  0  0  0  0  0  0
  -21.0521  -27.6553   22.5855 C   0  0  0  0  0  0  0  0  0  0  0  0
  -31.1617  -10.2086   19.0972 C   0  0  0  0  0  0  0  0  0  0  0  0
  -31.2707   -7.5443   18.2773 C   0  0  0  0  0  0  0  0  0  0  0  0
  -31.8469   -9.8650   17.9318 C   0  0  0  0  0  0  0  0  0  0  0  0
  -26.0656  -13.9047   19.9661 C   0  0  0  0  0  0  0  0  0  0  0  0
  -18.9824  -20.7074   23.3727 C   0  0  0  0  0  0  0  0  0  0  0  0
  -23.9546  -14.3215   20.4187 C   0  0  0  0  0  0  0  0  0  0  0  0
  -24.7347  -12.0751   21.1893 C   0  0  0  0  0  0  0  0  0  0  0  0
  -26.4580  -27.7710   23.0616 C   0  0  0  0  0  0  0  0  0  0  0  0
  -18.2536  -25.7597   23.8883 C   0  0  0  0  0  0  0  0  0  0  0  0
  -26.2584  -30.9937   23.3728 C   0  0  0  0  0  0  0  0  0  0  0  0
  -24.2838  -33.7732   23.5221 C   0  0  0  0  0  0  0  0  0  0  0  0
  -22.3238  -19.6393   20.6725 C   0  0  0  0  0  0  0  0  0  0  0  0
  -30.0616  -24.3416   21.9165 C   0  0  0  0  0  0  0  0  0  0  0  0
  -25.0197  -28.3796   21.0825 C   0  0  0  0  0  0  0  0  0  0  0  0
  -24.0969  -29.7059   23.5592 C   0  0  0  0  0  0  0  0  0  0  0  0
  -30.0418  -25.7474   22.5112 C   0  0  0  0  0  0  0  0  0  0  0  0
  -23.9567  -18.5845   17.6895 C   0  0  0  0  0  0  0  0  0  0  0  0
  -29.0116  -25.8382   23.6324 C   0  0  0  0  0  0  0  0  0  0  0  0
  -24.5564  -17.2275   18.0649 C   0  0  0  0  0  0  0  0  0  0  0  0
  -24.0155  -19.5721   18.8535 C   0  0  0  0  0  0  0  0  0  0  0  0
  -24.0345  -17.7276   20.4866 C   0  0  0  0  0  0  0  0  0  0  0  0
  -27.5982  -25.5599   23.1068 C   0  0  1  0  0  0  0  0  0  0  0  0
  -25.9996  -28.8693   22.1443 C   0  0  1  0  0  0  0  0  0  0  0  0
  -23.9390  -16.6791   19.3663 C   0  0  2  0  0  0  0  0  0  0  0  0
  -24.4049  -36.2619   23.8202 C   0  0  0  0  0  0  0  0  0  0  0  0
  -19.6099  -23.2377   24.8403 C   0  0  0  0  0  0  0  0  0  0  0  0
  -16.6417  -24.2047   25.0292 C   0  0  0  0  0  0  0  0  0  0  0  0
  -16.6224  -24.4247   22.5524 C   0  0  0  0  0  0  0  0  0  0  0  0
  -26.7437  -30.6097   26.3607 C   0  0  0  0  0  0  0  0  0  0  0  0
  -25.9207  -32.9462   26.7237 C   0  0  0  0  0  0  0  0  0  0  0  0
  -27.9612  -32.5444   25.3462 C   0  0  0  0  0  0  0  0  0  0  0  0
  -23.0822  -34.2668   20.8629 C   0  0  0  0  0  0  0  0  0  0  0  0
  -17.9728  -21.8224   23.5285 C   0  0  0  0  0  0  0  0  0  0  0  0
  -19.2173  -26.1545   22.7783 C   0  0  0  0  0  0  0  0  0  1  0  0
  -25.6935  -31.9347   24.4094 C   0  0  1  0  0  0  0  0  0  0  0  0
  -24.3801  -35.1160   22.8207 C   0  0  2  0  0  0  0  0  0  0  0  0
  -18.6089  -23.2317   23.6683 C   0  0  1  0  0  0  0  0  0  0  0  0
  -17.5442  -24.3822   23.7892 C   0  0  0  0  0  0  0  0  0  0  0  0
  -26.5634  -31.9895   25.6969 C   0  0  0  0  0  0  0  0  0  0  0  0
  -25.8551  -15.1308   19.4801 N   0  0  0  0  0  0  0  0  0  0  0  0
  -24.5624  -15.3562   19.7705 N   0  0  0  0  0  0  0  0  0  0  0  0
  -25.4367  -29.9243   22.9894 N   0  0  0  0  0  0  0  0  0  0  0  0
  -23.4087  -18.9858   20.0505 N   0  0  0  0  0  0  0  0  0  0  0  0
  -22.6567  -14.3817   20.7851 N   0  0  0  0  0  0  0  0  0  0  0  0
  -25.8272  -11.1994   21.2510 N   0  0  0  0  0  0  0  0  0  0  0  0
  -21.8082  -18.9715   21.7828 N   0  0  0  0  0  0  0  0  0  0  0  0
  -27.0790  -26.7199   22.4143 N   0  0  0  0  0  0  0  0  0  0  0  0
  -25.5283  -33.2228   23.7445 N   0  0  0  0  0  0  0  0  0  0  0  0
  -23.2151  -35.3104   21.9118 N   0  3  0  0  0  0  0  0  0  0  0  0
  -23.6316  -11.7151   21.6659 O   0  0  0  0  0  0  0  0  0  0  0  0
  -26.2641  -27.8707   24.2675 O   0  0  0  0  0  0  0  0  0  0  0  0
  -18.0606  -26.5168   24.8430 O   0  0  0  0  0  0  0  0  0  0  0  0
  -27.3843  -31.2039   22.9149 O   0  0  0  0  0  0  0  0  0  0  0  0
  -23.2120  -33.2652   23.8441 O   0  0  0  0  0  0  0  0  0  0  0  0
  -21.8670  -20.6985   20.2350 O   0  0  0  0  0  0  0  0  0  0  0  0
  -31.1073  -11.5306   19.5060 O   0  0  0  0  0  0  0  0  0  0  0  0
  -19.7955  -27.4292   23.0563 O   0  0  0  0  0  0  0  0  0  1  0  0
  -31.3242   -6.2649   17.8845 F   0  0  0  0  0  0  0  0  0  0  0  0
  -32.4557  -10.8102   17.2026 F   0  0  0  0  0  0  0  0  0  0  0  0
  -18.9687  -19.3982   24.4763 S   0  0  0  0  0  0  0  0  0  0  0  0
  1  2  1  0  0  0  0
  1  5  2  0  0  0  0
  2  6  2  0  0  0  0
  3  8  2  0  0  0  0
  3 17  1  0  0  0  0
  4  9  1  0  0  0  0
  4 17  2  0  0  0  0
  5 19  1  0  0  0  0
  6 21  1  0  0  0  0
  7 10  2  0  0  0  0
  7 20  1  0  0  0  0
  8 24  1  0  0  0  0
  9 24  2  0  0  0  0
 10 25  1  0  0  0  0
 11 12  2  0  0  0  0
 11 26  1  0  0  0  0
 12 27  1  0  0  0  0
 13 22  1  0  0  0  0
 13 25  2  0  0  0  0
 14 23  1  0  0  0  0
 14 30  2  0  0  0  0
 15 27  2  0  0  0  0
 15 28  1  0  0  0  0
 16 23  2  0  0  0  0
 16 85  1  0  0  0  0
 17 29  1  0  0  0  0
 18 29  1  0  0  0  0
 18 31  2  0  0  0  0
 18 32  1  0  0  0  0
 19 21  2  0  0  0  0
 19 38  1  0  0  0  0
 20 22  2  0  0  0  0
 20 39  1  0  0  0  0
 21 47  1  0  0  0  0
 22 40  1  0  0  0  0
 23 71  1  0  0  0  0
 24 81  1  0  0  0  0
 25 82  1  0  0  0  0
 26 28  2  0  0  0  0
 26 81  1  0  0  0  0
 27 83  1  0  0  0  0
 28 84  1  0  0  0  0
 29 65  2  0  0  0  0
 30 58  1  0  0  0  0
 30 85  1  0  0  0  0
 31 66  1  0  0  0  0
 31 69  1  0  0  0  0
 32 70  1  0  0  0  0
 32 75  2  0  0  0  0
 33 48  1  0  0  0  0
 33 72  1  0  0  0  0
 33 76  2  0  0  0  0
 34 59  1  0  0  0  0
 34 63  1  0  0  0  0
 34 77  2  0  0  0  0
 35 60  1  0  0  0  0
 35 67  1  0  0  0  0
 35 78  2  0  0  0  0
 36 61  1  0  0  0  0
 36 73  1  0  0  0  0
 36 79  2  0  0  0  0
 37 68  1  0  0  0  0
 37 71  1  0  0  0  0
 37 80  2  0  0  0  0
 38 41  1  0  0  0  0
 39 48  1  0  0  0  0
 40 67  1  0  0  0  0
 41 43  1  0  0  0  0
 42 44  1  0  0  0  0
 42 45  1  0  0  0  0
 43 47  1  0  0  0  0
 44 49  1  0  0  0  0
 45 68  1  0  0  0  0
 46 49  1  0  0  0  0
 46 68  1  0  0  0  0
 47 72  1  0  0  0  0
 48 67  1  0  0  0  0
 49 66  1  0  0  0  0
 50 61  1  0  0  0  0
 51 62  1  0  0  0  0
 52 63  1  0  0  0  0
 53 63  1  0  0  0  0
 54 64  1  0  0  0  0
 55 64  1  0  0  0  0
 56 64  1  0  0  0  0
 57 74  1  0  0  0  0
 58 62  1  0  0  0  0
 59 82  1  0  0  0  0
 60 64  1  0  0  0  0
 60 73  1  0  0  0  0
 61 74  1  0  0  0  0
 62 63  1  0  0  0  0
 65 66  1  0  0  0  0
M  CHG  1  74   1
M  ISO  4  37 100  59 101  71 100  82 101
M  END
> <Batch ID>
0139

> <Smiles>
CNC(C)C(=O)NC(C(=O)N1Cc2cc([101O:1][101CH2:1]C(=O)C(C)(C)C(C)Cc3cc([100NH:0][100C:0](=O)N4CCCC(n5nc(-c6ccc(Oc7ccc(F)cc7F)cc6)c(C(N)=O)c5N)C4)cs3)ccc2CC1C(=O)NC1CCCc2ccccc21)C(C)(C)C

> <Shape>
0.229

> <Color>
0.062

> <Negative vol penalty>
0.000

$$$$

  -OEChem-04052302483D

 87 96  0     1  0  0  0  0  0999 V2000
  -31.3134  -24.0982   28.4590 C   0  0  0  0  0  0  0  0  0  0  0  0
  -31.8537  -23.1606   27.5847 C   0  0  0  0  0  0  0  0  0  0  0  0
  -22.9622   -9.9596   19.9852 C   0  0  0  0  0  0  0  0  0  0  0  0
  -23.7002   -9.9728   22.2856 C   0  0  0  0  0  0  0  0  0  0  0  0
  -30.1451  -24.7774   28.1159 C   0  0  0  0  0  0  0  0  0  0  0  0
  -31.2254  -22.9009   26.3673 C   0  0  0  0  0  0  0  0  0  0  0  0
  -34.4922  -22.6734   22.5045 C   0  0  0  0  0  0  0  0  0  0  0  0
  -22.1740   -8.8384   20.2444 C   0  0  0  0  0  0  0  0  0  0  0  0
  -22.9120   -8.8515   22.5449 C   0  0  0  0  0  0  0  0  0  0  0  0
  -35.2322  -21.5001   22.3646 C   0  0  0  0  0  0  0  0  0  0  0  0
  -21.3739   -5.7775   23.7256 C   0  0  0  0  0  0  0  0  0  0  0  0
  -21.9429   -4.7424   24.4675 C   0  0  0  0  0  0  0  0  0  0  0  0
  -33.7155  -20.7559   20.6427 C   0  0  0  0  0  0  0  0  0  0  0  0
  -30.6809  -18.2135   24.0460 C   0  0  0  0  0  0  0  0  0  0  0  0
  -32.1687  -16.3789   22.5615 C   0  0  0  0  0  0  0  0  0  0  0  0
  -23.6551   -4.4768   22.7838 C   0  0  0  0  0  0  0  0  0  0  0  0
  -23.7254  -10.5268   21.0058 C   0  0  0  0  0  0  0  0  0  0  0  0
  -24.1611  -13.0356   20.8526 C   0  0  0  0  0  0  0  0  0  0  0  0
  -29.5074  -24.5328   26.8895 C   0  0  0  0  0  0  0  0  0  0  0  0
  -33.3501  -22.8923   21.7208 C   0  0  0  0  0  0  0  0  0  0  0  0
  -30.0467  -23.5764   26.0081 C   0  0  0  0  0  0  0  0  0  0  0  0
  -32.9642  -21.9339   20.7727 C   0  0  0  0  0  0  0  0  0  0  0  0
  -32.0668  -18.1571   24.1939 C   0  0  0  0  0  0  0  0  0  0  0  0
  -30.7828  -16.4353   22.4136 C   0  0  0  0  0  0  0  0  0  0  0  0
  -22.1489   -8.2844   21.5243 C   0  0  0  0  0  0  0  0  0  0  0  0
  -34.8422  -20.5399   21.4357 C   0  0  0  0  0  0  0  0  0  0  0  0
  -21.9454   -6.1621   22.5127 C   0  0  0  0  0  0  0  0  0  0  0  0
  -32.8106  -17.2399   23.4516 C   0  0  0  0  0  0  0  0  0  0  0  0
  -23.0836   -4.0921   23.9967 C   0  0  0  0  0  0  0  0  0  0  0  0
  -23.0860   -5.5118   22.0418 C   0  0  0  0  0  0  0  0  0  0  0  0
  -30.0389  -17.3525   23.1559 C   0  0  0  0  0  0  0  0  0  0  0  0
  -24.5402  -11.6847   20.7385 C   0  0  0  0  0  0  0  0  0  0  0  0
  -25.2835  -13.7390   20.4894 C   0  0  0  0  0  0  0  0  0  0  0  0
  -22.9066  -13.6039   21.2513 C   0  0  0  0  0  0  0  0  0  0  0  0
  -30.2577  -23.3053   22.3291 C   0  0  0  0  0  0  0  0  0  0  0  0
  -30.1068  -23.8834   19.1408 C   0  0  0  0  0  0  0  0  0  0  0  0
  -31.4797  -23.4407   16.0479 C   0  0  0  0  0  0  0  0  0  0  0  0
  -30.7826  -14.5858   20.7032 C   0  0  0  0  0  0  0  0  0  0  0  0
  -28.2205  -25.2573   26.5832 C   0  0  0  0  0  0  0  0  0  0  0  0
  -32.5780  -24.1751   21.8650 C   0  0  0  0  0  0  0  0  0  0  0  0
  -31.7576  -22.1299   19.8929 C   0  0  0  0  0  0  0  0  0  0  0  0
  -27.8226  -25.1960   25.1108 C   0  0  0  0  0  0  0  0  0  0  0  0
  -29.6023  -12.1796   18.3592 C   0  0  0  0  0  0  0  0  0  0  0  0
  -33.6167  -18.5132   26.2298 C   0  0  0  0  0  0  0  0  0  0  0  0
  -32.2901  -19.1074   26.5867 C   0  0  0  0  0  0  0  0  0  0  0  0
  -27.9564  -23.7720   24.5804 C   0  0  0  0  0  0  0  0  0  0  0  0
  -28.1490  -11.9475   18.7786 C   0  0  0  0  0  0  0  0  0  0  0  0
  -30.5139  -12.3924   19.5664 C   0  0  0  0  0  0  0  0  0  0  0  0
  -28.6221  -13.2069   20.9180 C   0  0  0  0  0  0  0  0  0  0  0  0
  -32.7384  -19.0863   25.1495 C   0  0  0  0  0  0  0  0  0  0  0  0
  -29.4078  -23.2850   24.6675 C   0  0  1  0  0  0  0  0  0  0  0  0
  -31.1373  -24.0636   21.3757 C   0  0  1  0  0  0  0  0  0  0  0  0
  -27.6546  -13.0520   19.7332 C   0  0  2  0  0  0  0  0  0  0  0  0
  -31.1096  -24.0005   13.6299 C   0  0  0  0  0  0  0  0  0  0  0  0
  -27.9222  -21.7588   18.9858 C   0  0  0  0  0  0  0  0  0  0  0  0
  -28.2677  -21.6840   16.5073 C   0  0  0  0  0  0  0  0  0  0  0  0
  -27.4992  -23.7935   17.5945 C   0  0  0  0  0  0  0  0  0  0  0  0
  -37.0992  -16.9035   21.1900 C   0  0  0  0  0  0  0  0  0  0  0  0
  -37.0721  -16.8656   23.6919 C   0  0  0  0  0  0  0  0  0  0  0  0
  -34.0293  -24.9345   15.8835 C   0  0  0  0  0  0  0  0  0  0  0  0
  -36.2377  -18.9071   22.4569 C   0  0  0  0  0  0  0  0  0  1  0  0
  -34.9070  -16.7600   22.4364 C   0  0  0  0  0  0  0  0  0  0  0  0
  -29.8908  -23.0366   17.9098 C   0  0  1  0  0  0  0  0  0  0  0  0
  -31.7789  -24.4218   14.9288 C   0  0  2  0  0  0  0  0  0  0  0  0
  -28.4167  -22.5634   17.7671 C   0  0  0  0  0  0  0  0  0  0  0  0
  -36.3270  -17.3650   22.4408 C   0  0  0  0  0  0  0  0  0  0  0  0
  -25.8045  -11.5363   20.3342 N   0  0  0  0  0  0  0  0  0  0  0  0
  -26.2297  -12.8031   20.1910 N   0  0  0  0  0  0  0  0  0  0  0  0
  -31.0318  -23.3977   20.0758 N   0  0  0  0  0  0  0  0  0  0  0  0
  -29.9851  -13.4560   20.4232 N   0  0  0  0  0  0  0  0  0  0  0  0
  -25.5435  -15.0607   20.3992 N   0  0  0  0  0  0  0  0  0  0  0  0
  -21.8588  -12.7376   21.5917 N   0  0  0  0  0  0  0  0  0  0  0  0
  -30.1621  -15.5460   21.5016 N   0  0  0  0  0  0  0  0  0  0  0  0
  -30.1970  -23.8538   23.5960 N   0  0  0  0  0  0  0  0  0  0  0  0
  -30.3774  -23.8241   16.7822 N   0  0  0  0  0  0  0  0  0  0  0  0
  -33.2481  -24.5076   14.6942 N   0  3  0  0  0  0  0  0  0  0  0  0
  -22.7154  -14.8431   21.2885 O   0  0  0  0  0  0  0  0  0  0  0  0
  -29.6758  -22.2981   21.9435 O   0  0  0  0  0  0  0  0  0  0  0  0
  -29.4831  -24.9404   19.2647 O   0  0  0  0  0  0  0  0  0  0  0  0
  -32.1540  -22.4329   16.2482 O   0  0  0  0  0  0  0  0  0  0  0  0
  -31.9215  -14.7059   20.2444 O   0  0  0  0  0  0  0  0  0  0  0  0
  -21.3797   -7.1904   21.7776 O   0  0  0  0  0  0  0  0  0  0  0  0
  -35.5623  -19.3934   21.2977 O   0  0  0  0  0  0  0  0  0  1  0  0
  -34.1729  -17.1710   23.5827 O   0  0  0  0  0  0  0  0  0  0  0  0
  -23.6308   -3.0992   24.7100 F   0  0  0  0  0  0  0  0  0  0  0  0
  -23.6403   -5.8778   20.8779 F   0  0  0  0  0  0  0  0  0  0  0  0
  -28.3208  -17.4547   23.0050 Cl  0  0  0  0  0  0  0  0  0  0  0  0
  1  2  1  0  0  0  0
  1  5  2  0  0  0  0
  2  6  2  0  0  0  0
  3  8  2  0  0  0  0
  3 17  1  0  0  0  0
  4  9  1  0  0  0  0
  4 17  2  0  0  0  0
  5 19  1  0  0  0  0
  6 21  1  0  0  0  0
  7 10  2  0  0  0  0
  7 20  1  0  0  0  0
  8 25  1  0  0  0  0
  9 25  2  0  0  0  0
 10 26  1  0  0  0  0
 11 12  2  0  0  0  0
 11 27  1  0  0  0  0
 12 29  1  0  0  0  0
 13 22  1  0  0  0  0
 13 26  2  0  0  0  0
 14 23  1  0  0  0  0
 14 31  2  0  0  0  0
 15 24  2  0  0  0  0
 15 28  1  0  0  0  0
 16 29  2  0  0  0  0
 16 30  1  0  0  0  0
 17 32  1  0  0  0  0
 18 32  1  0  0  0  0
 18 33  2  0  0  0  0
 18 34  1  0  0  0  0
 19 21  2  0  0  0  0
 19 39  1  0  0  0  0
 20 22  2  0  0  0  0
 20 40  1  0  0  0  0
 21 51  1  0  0  0  0
 22 41  1  0  0  0  0
 23 28  2  0  0  0  0
 23 50  1  0  0  0  0
 24 31  1  0  0  0  0
 24 73  1  0  0  0  0
 25 82  1  0  0  0  0
 26 83  1  0  0  0  0
 27 30  2  0  0  0  0
 27 82  1  0  0  0  0
 28 84  1  0  0  0  0
 29 85  1  0  0  0  0
 30 86  1  0  0  0  0
 31 87  1  0  0  0  0
 32 67  2  0  0  0  0
 33 68  1  0  0  0  0
 33 71  1  0  0  0  0
 34 72  1  0  0  0  0
 34 77  2  0  0  0  0
 35 52  1  0  0  0  0
 35 74  1  0  0  0  0
 35 78  2  0  0  0  0
 36 63  1  0  0  0  0
 36 69  1  0  0  0  0
 36 79  2  0  0  0  0
 37 64  1  0  0  0  0
 37 75  1  0  0  0  0
 37 80  2  0  0  0  0
 38 70  1  0  0  0  0
 38 73  1  0  0  0  0
 38 81  2  0  0  0  0
 39 42  1  0  0  0  0
 40 52  1  0  0  0  0
 41 69  1  0  0  0  0
 42 46  1  0  0  0  0
 43 47  1  0  0  0  0
 43 48  1  0  0  0  0
 44 45  1  0  0  0  0
 44 50  1  0  0  0  0
 45 50  1  0  0  0  0
 46 51  1  0  0  0  0
 47 53  1  0  0  0  0
 48 70  1  0  0  0  0
 49 53  1  0  0  0  0
 49 70  1  0  0  0  0
 51 74  1  0  0  0  0
 52 69  1  0  0  0  0
 53 68  1  0  0  0  0
 54 64  1  0  0  0  0
 55 65  1  0  0  0  0
 56 65  1  0  0  0  0
 57 65  1  0  0  0  0
 58 66  1  0  0  0  0
 59 66  1  0  0  0  0
 60 76  1  0  0  0  0
 61 66  1  0  0  0  0
 61 83  1  0  0  0  0
 62 66  1  0  0  0  0
 62 84  1  0  0  0  0
 63 65  1  0  0  0  0
 63 75  1  0  0  0  0
 64 76  1  0  0  0  0
 67 68  1  0  0  0  0
M  CHG  1  76   1
M  ISO  4  38 100  61 101  73 100  83 101
M  END
> <Batch ID>
0139

> <Smiles>
CNC(C)C(=O)NC(C(=O)N1Cc2cc([101O:1][101CH2:1]C(C)(C)COc3cc([100NH:0][100C:0](=O)N4CCCC(n5nc(-c6ccc(Oc7ccc(F)cc7F)cc6)c(C(N)=O)c5N)C4)c(Cl)cc3C3CC3)ccc2CC1C(=O)NC1CCCc2ccccc21)C(C)(C)C

> <Shape>
0.216

> <Color>
0.201

> <Negative vol penalty>
0.000

$$$$

  -OEChem-04052302483D

 87 96  0     1  0  0  0  0  0999 V2000
  -19.6453  -33.8358   15.1518 C   0  0  0  0  0  0  0  0  0  0  0  0
  -20.9886  -33.9746   15.4863 C   0  0  0  0  0  0  0  0  0  0  0  0
  -24.0295   -9.4847   22.4636 C   0  0  0  0  0  0  0  0  0  0  0  0
  -25.2486   -8.6206   20.5652 C   0  0  0  0  0  0  0  0  0  0  0  0
  -18.7173  -33.4832   16.1308 C   0  0  0  0  0  0  0  0  0  0  0  0
  -21.4044  -33.7619   16.8001 C   0  0  0  0  0  0  0  0  0  0  0  0
  -26.4075  -28.8672   18.3558 C   0  0  0  0  0  0  0  0  0  0  0  0
  -25.5155  -20.6243   21.5840 C   0  0  0  0  0  0  0  0  0  0  0  0
  -26.5116  -21.5540   21.2855 C   0  0  0  0  0  0  0  0  0  0  0  0
  -23.8765   -8.1885   22.9554 C   0  0  0  0  0  0  0  0  0  0  0  0
  -25.0957   -7.3243   21.0570 C   0  0  0  0  0  0  0  0  0  0  0  0
  -27.5422  -28.1364   18.7092 C   0  0  0  0  0  0  0  0  0  0  0  0
  -21.9095   -5.5087   22.3437 C   0  0  0  0  0  0  0  0  0  0  0  0
  -20.6492   -5.1391   22.8135 C   0  0  0  0  0  0  0  0  0  0  0  0
  -27.1946  -28.7016   21.0344 C   0  0  0  0  0  0  0  0  0  0  0  0
  -28.0429  -19.7530   20.7866 C   0  0  0  0  0  0  0  0  0  0  0  0
  -21.5906   -4.7028   24.9954 C   0  0  0  0  0  0  0  0  0  0  0  0
  -24.7155   -9.7008   21.2684 C   0  0  0  0  0  0  0  0  0  0  0  0
  -23.8512  -11.9407   20.4061 C   0  0  0  0  0  0  0  0  0  0  0  0
  -19.1234  -33.2566   17.4553 C   0  0  0  0  0  0  0  0  0  0  0  0
  -25.6520  -29.5063   19.3432 C   0  0  0  0  0  0  0  0  0  0  0  0
  -20.4807  -33.4072   17.7980 C   0  0  0  0  0  0  0  0  0  0  0  0
  -26.0498  -29.4241   20.6877 C   0  0  0  0  0  0  0  0  0  0  0  0
  -25.7831  -19.2590   21.4839 C   0  0  0  0  0  0  0  0  0  0  0  0
  -27.7753  -21.1183   20.8868 C   0  0  0  0  0  0  0  0  0  0  0  0
  -27.0468  -18.8234   21.0852 C   0  0  0  0  0  0  0  0  0  0  0  0
  -24.4096   -7.1082   22.2522 C   0  0  0  0  0  0  0  0  0  0  0  0
  -27.9349  -28.0542   20.0451 C   0  0  0  0  0  0  0  0  0  0  0  0
  -23.0103   -5.4753   23.1997 C   0  0  0  0  0  0  0  0  0  0  0  0
  -20.4897   -4.7362   24.1393 C   0  0  0  0  0  0  0  0  0  0  0  0
  -22.8509   -5.0724   24.5255 C   0  0  0  0  0  0  0  0  0  0  0  0
  -24.8734  -11.0395   20.7595 C   0  0  0  0  0  0  0  0  0  0  0  0
  -24.5162  -13.0657   19.9838 C   0  0  0  0  0  0  0  0  0  0  0  0
  -30.9613  -25.3302   22.4237 C   0  0  0  0  0  0  0  0  0  0  0  0
  -22.4278  -11.7756   20.4554 C   0  0  0  0  0  0  0  0  0  0  0  0
  -29.8812  -25.4807   21.6422 C   0  0  0  0  0  0  0  0  0  0  0  0
  -22.7368  -31.6903   20.1676 C   0  0  0  0  0  0  0  0  0  0  0  0
  -22.9664  -29.4510   22.4226 C   0  0  0  0  0  0  0  0  0  0  0  0
  -19.5382  -30.1924   23.2684 C   0  0  0  0  0  0  0  0  0  0  0  0
  -28.5460  -16.8593   20.5943 C   0  0  0  0  0  0  0  0  0  0  0  0
  -18.0765  -32.9235   18.4886 C   0  0  0  0  0  0  0  0  0  0  0  0
  -24.4596  -30.3571   18.9974 C   0  0  0  0  0  0  0  0  0  0  0  0
  -25.2272  -30.1540   21.7121 C   0  0  0  0  0  0  0  0  0  0  0  0
  -18.6556  -32.3497   19.7793 C   0  0  0  0  0  0  0  0  0  0  0  0
  -30.1350  -22.9592   18.7811 C   0  0  0  0  0  0  0  0  0  0  0  0
  -29.4208  -13.8101   18.9774 C   0  0  0  0  0  0  0  0  0  0  0  0
  -19.8465  -33.1809   20.2459 C   0  0  0  0  0  0  0  0  0  0  0  0
  -30.5283  -24.1243   19.6842 C   0  0  0  0  0  0  0  0  0  0  0  0
  -28.2317  -12.8916   19.2679 C   0  0  0  0  0  0  0  0  0  0  0  0
  -29.7942  -21.7185   19.6018 C   0  0  0  0  0  0  0  0  0  0  0  0
  -29.7364  -14.7212   20.1624 C   0  0  0  0  0  0  0  0  0  0  0  0
  -29.0740  -23.1381   21.5076 C   0  0  0  0  0  0  0  0  0  0  0  0
  -27.4090  -14.5810   20.9578 C   0  0  0  0  0  0  0  0  0  0  0  0
  -20.9743  -33.1607   19.2071 C   0  0  1  0  0  0  0  0  0  0  0  0
  -29.4301  -24.3977   20.7115 C   0  0  1  0  0  0  0  0  0  0  0  0
  -23.3480  -30.3237   20.0653 C   0  0  1  0  0  0  0  0  0  0  0  0
  -27.0124  -13.6899   19.7695 C   0  0  2  0  0  0  0  0  0  0  0  0
  -24.6970  -18.2859   21.8099 C   0  0  0  0  0  0  0  0  0  0  0  0
  -18.0346  -29.1918   25.0108 C   0  0  0  0  0  0  0  0  0  0  0  0
  -22.0408  -27.6252   20.1598 C   0  0  0  0  0  0  0  0  0  0  0  0
  -19.7147  -27.7911   21.0709 C   0  0  0  0  0  0  0  0  0  0  0  0
  -21.5264  -26.7819   22.4573 C   0  0  0  0  0  0  0  0  0  0  0  0
  -18.9772  -32.8381   24.4702 C   0  0  0  0  0  0  0  0  0  0  0  0
  -29.0523  -26.7334   21.6775 C   0  0  0  0  0  0  0  0  0  1  0  0
  -21.5087  -29.2801   22.0688 C   0  0  1  0  0  0  0  0  0  0  0  0
  -18.9595  -30.3479   24.6632 C   0  0  2  0  0  0  0  0  0  0  0  0
  -21.2121  -27.8930   21.4319 C   0  0  0  0  0  0  0  0  0  0  0  0
  -26.0949  -11.5481   20.5773 N   0  0  0  0  0  0  0  0  0  0  0  0
  -25.8446  -12.7810   20.1047 N   0  0  0  0  0  0  0  0  0  0  0  0
  -28.7583  -22.0363   20.5923 N   0  0  2  0  0  0  0  0  0  0  0  0
  -23.7989  -29.9764   21.4266 N   0  0  0  0  0  0  0  0  0  0  0  0
  -28.5358  -15.4485   20.5800 N   0  0  0  0  0  0  0  0  0  0  0  0
  -24.0885  -14.2609   19.5243 N   0  0  0  0  0  0  0  0  0  0  0  0
  -21.9122  -10.5562   20.9153 N   0  0  0  0  0  0  0  0  0  0  0  0
  -27.3379  -17.4408   20.9775 N   0  0  0  0  0  0  0  0  0  0  0  0
  -21.7037  -31.9126   19.2773 N   0  0  0  0  0  0  0  0  0  0  0  0
  -20.7579  -29.5496   23.2903 N   0  0  0  0  0  0  0  0  0  0  0  0
  -18.1842  -31.6167   24.7639 N   0  3  0  0  0  0  0  0  0  0  0  0
  -21.6368  -12.6766   20.0866 O   0  0  0  0  0  0  0  0  0  0  0  0
  -23.1689  -32.4851   20.9942 O   0  0  0  0  0  0  0  0  0  0  0  0
  -23.3541  -29.1194   23.5460 O   0  0  0  0  0  0  0  0  0  0  0  0
  -18.9637  -30.5970   22.2600 O   0  0  0  0  0  0  0  0  0  0  0  0
  -29.5440  -17.5044   20.2628 O   0  0  0  0  0  0  0  0  0  0  0  0
  -24.2607   -5.8432   22.7319 O   0  0  0  0  0  0  0  0  0  0  0  0
  -29.0412  -27.3357   20.3839 O   0  0  0  0  0  0  0  0  0  1  0  0
  -19.2792   -4.3828   24.5908 F   0  0  0  0  0  0  0  0  0  0  0  0
  -23.9045   -5.0394   25.3529 F   0  0  0  0  0  0  0  0  0  0  0  0
  1  2  1  0  0  0  0
  1  5  2  0  0  0  0
  2  6  2  0  0  0  0
  3 10  2  0  0  0  0
  3 18  1  0  0  0  0
  4 11  1  0  0  0  0
  4 18  2  0  0  0  0
  5 20  1  0  0  0  0
  6 22  1  0  0  0  0
  7 12  2  0  0  0  0
  7 21  1  0  0  0  0
  8  9  2  0  0  0  0
  8 24  1  0  0  0  0
  9 25  1  0  0  0  0
 10 27  1  0  0  0  0
 11 27  2  0  0  0  0
 12 28  1  0  0  0  0
 13 14  2  0  0  0  0
 13 29  1  0  0  0  0
 14 30  1  0  0  0  0
 15 23  1  0  0  0  0
 15 28  2  0  0  0  0
 16 25  2  0  0  0  0
 16 26  1  0  0  0  0
 17 30  2  0  0  0  0
 17 31  1  0  0  0  0
 18 32  1  0  0  0  0
 19 32  1  0  0  0  0
 19 33  2  0  0  0  0
 19 35  1  0  0  0  0
 20 22  2  0  0  0  0
 20 41  1  0  0  0  0
 21 23  2  0  0  0  0
 21 42  1  0  0  0  0
 22 54  1  0  0  0  0
 23 43  1  0  0  0  0
 24 26  2  0  0  0  0
 24 58  1  0  0  0  0
 25 70  1  0  0  0  0
 26 75  1  0  0  0  0
 27 84  1  0  0  0  0
 28 85  1  0  0  0  0
 29 31  2  0  0  0  0
 29 84  1  0  0  0  0
 30 86  1  0  0  0  0
 31 87  1  0  0  0  0
 32 68  2  0  0  0  0
 33 69  1  0  0  0  0
 33 73  1  0  0  0  0
 34 36  2  0  0  0  0
 35 74  1  0  0  0  0
 35 79  2  0  0  0  0
 36 55  1  0  0  0  0
 36 64  1  0  0  0  0
 37 56  1  0  0  0  0
 37 76  1  0  0  0  0
 37 80  2  0  0  0  0
 38 65  1  0  0  0  0
 38 71  1  0  0  0  0
 38 81  2  0  0  0  0
 39 66  1  0  0  0  0
 39 77  1  0  0  0  0
 39 82  2  0  0  0  0
 40 72  1  0  0  0  0
 40 75  1  0  0  0  0
 40 83  2  0  0  0  0
 41 44  1  0  0  0  0
 42 56  1  0  0  0  0
 43 71  1  0  0  0  0
 44 47  1  0  0  0  0
 45 48  1  0  0  0  0
 45 50  1  0  0  0  0
 46 49  1  0  0  0  0
 46 51  1  0  0  0  0
 47 54  1  0  0  0  0
 48 55  1  0  0  0  0
 49 57  1  0  0  0  0
 50 70  1  0  0  0  0
 51 72  1  0  0  0  0
 52 55  1  0  0  0  0
 52 70  1  0  0  0  0
 53 57  1  0  0  0  0
 53 72  1  0  0  0  0
 54 76  1  0  0  0  0
 56 71  1  0  0  0  0
 57 69  1  0  0  0  0
 59 66  1  0  0  0  0
 60 67  1  0  0  0  0
 61 67  1  0  0  0  0
 62 67  1  0  0  0  0
 63 78  1  0  0  0  0
 64 85  1  0  0  0  0
 65 67  1  0  0  0  0
 65 77  1  0  0  0  0
 66 78  1  0  0  0  0
 68 69  1  0  0  0  0
M  CHG  1  78   1
M  ISO  4  40 100  64 101  75 100  85 101
M  END
> <Batch ID>
0139

> <Smiles>
C=C(C1CCCN(c2ccc(C)c([100NH:0][100C:0](=O)N3CCCC(n4nc(-c5ccc(Oc6ccc(F)cc6F)cc5)c(C(N)=O)c4N)C3)c2)C1)[101CH2:1][101O:1]c1ccc2c(c1)CN(C(=O)C(NC(=O)C(C)NC)C(C)(C)C)C(C(=O)NC1CCCc3ccccc31)C2

> <Shape>
0.304

> <Color>
0.115

> <Negative vol penalty>
0.000

$$$$

  -OEChem-04052302483D

 82 90  0     1  0  0  0  0  0999 V2000
  -24.1328  -36.0695   16.0044 C   0  0  0  0  0  0  0  0  0  0  0  0
  -24.5668  -34.7495   15.9369 C   0  0  0  0  0  0  0  0  0  0  0  0
  -24.1981   -9.4686   21.6364 C   0  0  0  0  0  0  0  0  0  0  0  0
  -24.5984  -10.7810   23.6250 C   0  0  0  0  0  0  0  0  0  0  0  0
  -24.3173  -36.8038   17.1752 C   0  0  0  0  0  0  0  0  0  0  0  0
  -25.1865  -34.1632   17.0400 C   0  0  0  0  0  0  0  0  0  0  0  0
  -24.7752  -28.3173   18.8180 C   0  0  0  0  0  0  0  0  0  0  0  0
  -23.7934   -8.3934   22.4274 C   0  0  0  0  0  0  0  0  0  0  0  0
  -24.1937   -9.7057   24.4160 C   0  0  0  0  0  0  0  0  0  0  0  0
  -25.6136  -27.2190   18.6318 C   0  0  0  0  0  0  0  0  0  0  0  0
  -21.0317   -7.4627   24.1419 C   0  0  0  0  0  0  0  0  0  0  0  0
  -19.8746   -6.7806   23.7658 C   0  0  0  0  0  0  0  0  0  0  0  0
  -29.6115  -20.8070   19.2634 C   0  0  0  0  0  0  0  0  0  0  0  0
  -29.9840  -19.4320   19.2934 C   0  0  0  0  0  0  0  0  0  0  0  0
  -26.6055  -27.6172   20.7943 C   0  0  0  0  0  0  0  0  0  0  0  0
  -21.1510   -4.7421   23.5363 C   0  0  0  0  0  0  0  0  0  0  0  0
  -24.6006  -10.6624   22.2352 C   0  0  0  0  0  0  0  0  0  0  0  0
  -24.2088  -12.8023   20.9029 C   0  0  0  0  0  0  0  0  0  0  0  0
  -24.9308  -36.2232   18.2964 C   0  0  0  0  0  0  0  0  0  0  0  0
  -24.8533  -29.0816   19.9911 C   0  0  0  0  0  0  0  0  0  0  0  0
  -25.3805  -34.8908   18.2265 C   0  0  0  0  0  0  0  0  0  0  0  0
  -25.7652  -28.7231   20.9941 C   0  0  0  0  0  0  0  0  0  0  0  0
  -23.7912   -8.5119   23.8172 C   0  0  0  0  0  0  0  0  0  0  0  0
  -26.5309  -26.8706   19.6188 C   0  0  0  0  0  0  0  0  0  0  0  0
  -22.2484   -6.7846   24.2151 C   0  0  0  0  0  0  0  0  0  0  0  0
  -19.9342   -5.4203   23.4631 C   0  0  0  0  0  0  0  0  0  0  0  0
  -22.3081   -5.4243   23.9124 C   0  0  0  0  0  0  0  0  0  0  0  0
  -25.0193  -11.7733   21.4186 C   0  0  0  0  0  0  0  0  0  0  0  0
  -25.0760  -13.6032   20.2008 C   0  0  0  0  0  0  0  0  0  0  0  0
  -28.3421  -21.0101   19.7582 C   0  0  0  0  0  0  0  0  0  0  0  0
  -28.9850  -18.6366   19.8104 C   0  0  0  0  0  0  0  0  0  0  0  0
  -22.7981  -13.0152   21.0458 C   0  0  0  0  0  0  0  0  0  0  0  0
  -25.5580  -32.1097   20.6527 C   0  0  0  0  0  0  0  0  0  0  0  0
  -24.6869  -31.2486   23.6563 C   0  0  0  0  0  0  0  0  0  0  0  0
  -24.2809  -28.7574   25.9533 C   0  0  0  0  0  0  0  0  0  0  0  0
  -27.9666  -23.4947   19.5826 C   0  0  0  0  0  0  0  0  0  0  0  0
  -29.9251  -16.3005   19.7385 C   0  0  0  0  0  0  0  0  0  0  0  0
  -25.1509  -37.0713   19.5240 C   0  0  0  0  0  0  0  0  0  0  0  0
  -23.9235  -30.2473   20.1882 C   0  0  0  0  0  0  0  0  0  0  0  0
  -25.8746  -29.4989   22.2805 C   0  0  0  0  0  0  0  0  0  0  0  0
  -25.4791  -36.2595   20.7744 C   0  0  0  0  0  0  0  0  0  0  0  0
  -29.8972  -12.8516   18.8544 C   0  0  0  0  0  0  0  0  0  0  0  0
  -26.5377  -35.2059   20.4642 C   0  0  0  0  0  0  0  0  0  0  0  0
  -28.5590  -12.3483   19.4003 C   0  0  0  0  0  0  0  0  0  0  0  0
  -30.5313  -13.8909   19.7772 C   0  0  0  0  0  0  0  0  0  0  0  0
  -28.3243  -14.5181   20.6745 C   0  0  0  0  0  0  0  0  0  0  0  0
  -26.0347  -34.2121   19.4103 C   0  0  1  0  0  0  0  0  0  0  0  0
  -24.4445  -31.2627   21.2006 C   0  0  1  0  0  0  0  0  0  0  0  0
  -27.6162  -13.5173   19.7469 C   0  0  2  0  0  0  0  0  0  0  0  0
  -23.5908  -28.3665   28.3341 C   0  0  0  0  0  0  0  0  0  0  0  0
  -25.5932  -24.2384   19.1165 C   0  0  0  0  0  0  0  0  0  0  0  0
  -26.6030  -24.6391   21.3937 C   0  0  0  0  0  0  0  0  0  0  0  0
  -27.3782  -32.3239   24.6105 C   0  0  0  0  0  0  0  0  0  0  0  0
  -27.0394  -31.0736   26.7530 C   0  0  0  0  0  0  0  0  0  0  0  0
  -25.4463  -32.8783   26.0988 C   0  0  0  0  0  0  0  0  0  0  0  0
  -22.0220  -27.0286   25.1364 C   0  0  0  0  0  0  0  0  0  0  0  0
  -25.4046  -30.6774   24.8553 C   0  0  1  0  0  0  0  0  0  0  0  0
  -23.1302  -28.4250   26.8859 C   0  0  2  0  0  0  0  0  0  0  0  0
  -26.8745  -24.5334   19.8936 C   0  0  0  0  0  0  0  0  0  1  0  0
  -26.3167  -31.7246   25.5545 C   0  0  0  0  0  0  0  0  0  0  0  0
  -26.3028  -11.9058   21.0733 N   0  0  0  0  0  0  0  0  0  0  0  0
  -26.3053  -13.0275   20.3331 N   0  0  0  0  0  0  0  0  0  0  0  0
  -24.9482  -30.6341   22.4235 N   0  0  0  0  0  0  0  0  0  0  0  0
  -29.5817  -14.9699   20.0583 N   0  0  0  0  0  0  0  0  0  0  0  0
  -24.8993  -14.7367   19.4892 N   0  0  0  0  0  0  0  0  0  0  0  0
  -22.0568  -12.0960   21.8008 N   0  0  0  0  0  0  0  0  0  0  0  0
  -27.5868  -22.1978   19.9109 N   0  0  0  0  0  0  0  0  0  0  0  0
  -28.9307  -17.2364   20.0208 N   0  0  0  0  0  0  0  0  0  0  0  0
  -25.1293  -33.2551   20.0094 N   0  0  0  0  0  0  0  0  0  0  0  0
  -24.3725  -30.1130   25.7182 N   0  0  0  0  0  0  0  0  0  0  0  0
  -22.5377  -27.1053   26.5275 N   0  3  0  0  0  0  0  0  0  0  0  0
  -22.2096  -13.9826   20.5061 O   0  0  0  0  0  0  0  0  0  0  0  0
  -26.7201  -31.7514   20.8037 O   0  0  0  0  0  0  0  0  0  0  0  0
  -23.9171  -32.2003   23.8092 O   0  0  0  0  0  0  0  0  0  0  0  0
  -25.0264  -27.9007   25.4835 O   0  0  0  0  0  0  0  0  0  0  0  0
  -29.0412  -23.8406   19.0959 O   0  0  0  0  0  0  0  0  0  0  0  0
  -31.0101  -16.5851   19.2249 O   0  0  0  0  0  0  0  0  0  0  0  0
  -23.3962   -7.4630   24.5894 O   0  0  0  0  0  0  0  0  0  0  0  0
  -27.3509  -25.7994   19.4393 O   0  0  0  0  0  0  0  0  0  1  0  0
  -18.8227   -4.7650   23.1035 F   0  0  0  0  0  0  0  0  0  0  0  0
  -23.4739   -4.7671   23.9821 F   0  0  0  0  0  0  0  0  0  0  0  0
  -27.6049  -19.5470   20.2563 S   0  0  0  0  0  0  0  0  0  0  0  0
  1  2  1  0  0  0  0
  1  5  2  0  0  0  0
  2  6  2  0  0  0  0
  3  8  2  0  0  0  0
  3 17  1  0  0  0  0
  4  9  1  0  0  0  0
  4 17  2  0  0  0  0
  5 19  1  0  0  0  0
  6 21  1  0  0  0  0
  7 10  2  0  0  0  0
  7 20  1  0  0  0  0
  8 23  1  0  0  0  0
  9 23  2  0  0  0  0
 10 24  1  0  0  0  0
 11 12  2  0  0  0  0
 11 25  1  0  0  0  0
 12 26  1  0  0  0  0
 13 14  1  0  0  0  0
 13 30  2  0  0  0  0
 14 31  2  0  0  0  0
 15 22  1  0  0  0  0
 15 24  2  0  0  0  0
 16 26  2  0  0  0  0
 16 27  1  0  0  0  0
 17 28  1  0  0  0  0
 18 28  1  0  0  0  0
 18 29  2  0  0  0  0
 18 32  1  0  0  0  0
 19 21  2  0  0  0  0
 19 38  1  0  0  0  0
 20 22  2  0  0  0  0
 20 39  1  0  0  0  0
 21 47  1  0  0  0  0
 22 40  1  0  0  0  0
 23 78  1  0  0  0  0
 24 79  1  0  0  0  0
 25 27  2  0  0  0  0
 25 78  1  0  0  0  0
 26 80  1  0  0  0  0
 27 81  1  0  0  0  0
 28 61  2  0  0  0  0
 29 62  1  0  0  0  0
 29 65  1  0  0  0  0
 30 67  1  0  0  0  0
 30 82  1  0  0  0  0
 31 68  1  0  0  0  0
 31 82  1  0  0  0  0
 32 66  1  0  0  0  0
 32 72  2  0  0  0  0
 33 48  1  0  0  0  0
 33 69  1  0  0  0  0
 33 73  2  0  0  0  0
 34 57  1  0  0  0  0
 34 63  1  0  0  0  0
 34 74  2  0  0  0  0
 35 58  1  0  0  0  0
 35 70  1  0  0  0  0
 35 75  2  0  0  0  0
 36 59  1  0  0  0  0
 36 67  1  0  0  0  0
 36 76  2  0  0  0  0
 37 64  1  0  0  0  0
 37 68  1  0  0  0  0
 37 77  2  0  0  0  0
 38 41  1  0  0  0  0
 39 48  1  0  0  0  0
 40 63  1  0  0  0  0
 41 43  1  0  0  0  0
 42 44  1  0  0  0  0
 42 45  1  0  0  0  0
 43 47  1  0  0  0  0
 44 49  1  0  0  0  0
 45 64  1  0  0  0  0
 46 49  1  0  0  0  0
 46 64  1  0  0  0  0
 47 69  1  0  0  0  0
 48 63  1  0  0  0  0
 49 62  1  0  0  0  0
 50 58  1  0  0  0  0
 51 59  1  0  0  0  0
 52 59  1  0  0  0  0
 53 60  1  0  0  0  0
 54 60  1  0  0  0  0
 55 60  1  0  0  0  0
 56 71  1  0  0  0  0
 57 60  1  0  0  0  0
 57 70  1  0  0  0  0
 58 71  1  0  0  0  0
 59 79  1  0  0  0  0
 61 62  1  0  0  0  0
M  CHG  1  71   1
M  ISO  4  37 100  59 101  68 100  79 101
M  END
> <Batch ID>
0139

> <Smiles>
CNC(C)C(=O)NC(C(=O)N1Cc2cc([101O:1][101C:1](C)(C)C(=O)Nc3ccc([100NH:0][100C:0](=O)N4CCCC(n5nc(-c6ccc(Oc7ccc(F)cc7F)cc6)c(C(N)=O)c5N)C4)s3)ccc2CC1C(=O)NC1CCCc2ccccc21)C(C)(C)C

> <Shape>
0.300

> <Color>
0.162

> <Negative vol penalty>
0.000

$$$$

  -OEChem-04052302483D

 85 93  0     1  0  0  0  0  0999 V2000
  -19.8413  -31.4111   23.8754 C   0  0  0  0  0  0  0  0  0  0  0  0
  -21.1610  -30.9828   23.7748 C   0  0  0  0  0  0  0  0  0  0  0  0
  -25.3965  -13.7872   19.6020 C   0  0  0  0  0  0  0  0  0  0  0  0
  -24.7743  -13.3313   21.8916 C   0  0  0  0  0  0  0  0  0  0  0  0
  -18.8016  -30.5502   23.5263 C   0  0  0  0  0  0  0  0  0  0  0  0
  -21.4419  -29.6927   23.3262 C   0  0  0  0  0  0  0  0  0  0  0  0
  -25.2086  -29.5893   19.9430 C   0  0  0  0  0  0  0  0  0  0  0  0
  -25.5626  -12.4210   19.3751 C   0  0  0  0  0  0  0  0  0  0  0  0
  -24.9403  -11.9651   21.6647 C   0  0  0  0  0  0  0  0  0  0  0  0
  -26.5090  -29.6937   20.4346 C   0  0  0  0  0  0  0  0  0  0  0  0
  -23.2017   -9.4521   20.2215 C   0  0  0  0  0  0  0  0  0  0  0  0
  -22.2152   -8.5920   20.7037 C   0  0  0  0  0  0  0  0  0  0  0  0
  -31.2425  -24.8037   20.5498 C   0  0  0  0  0  0  0  0  0  0  0  0
  -32.2368  -23.4916   22.3180 C   0  0  0  0  0  0  0  0  0  0  0  0
  -26.7668  -27.3029   20.2432 C   0  0  0  0  0  0  0  0  0  0  0  0
  -32.9581  -25.7680   21.9512 C   0  0  0  0  0  0  0  0  0  0  0  0
  -23.8611   -7.4708   22.0715 C   0  0  0  0  0  0  0  0  0  0  0  0
  -25.0024  -14.2423   20.8603 C   0  0  0  0  0  0  0  0  0  0  0  0
  -31.3335  -23.6076   21.2614 C   0  0  0  0  0  0  0  0  0  0  0  0
  -23.6542  -16.4070   20.9258 C   0  0  0  0  0  0  0  0  0  0  0  0
  -19.0702  -29.2522   23.0640 C   0  0  0  0  0  0  0  0  0  0  0  0
  -24.6728  -28.3376   19.6075 C   0  0  0  0  0  0  0  0  0  0  0  0
  -20.4048  -28.8131   22.9719 C   0  0  0  0  0  0  0  0  0  0  0  0
  -25.4602  -27.1856   19.7451 C   0  0  0  0  0  0  0  0  0  0  0  0
  -32.0549  -25.8840   20.8946 C   0  0  0  0  0  0  0  0  0  0  0  0
  -25.3345  -11.5099   20.4064 C   0  0  0  0  0  0  0  0  0  0  0  0
  -27.2874  -28.5501   20.5875 C   0  0  0  0  0  0  0  0  0  0  0  0
  -24.5180   -9.3215   20.6643 C   0  0  0  0  0  0  0  0  0  0  0  0
  -22.5448   -7.6013   21.6287 C   0  0  0  0  0  0  0  0  0  0  0  0
  -33.0491  -24.5718   22.6629 C   0  0  0  0  0  0  0  0  0  0  0  0
  -24.8477   -8.3309   21.5893 C   0  0  0  0  0  0  0  0  0  0  0  0
  -24.8312  -15.6535   21.0954 C   0  0  0  0  0  0  0  0  0  0  0  0
  -24.0112  -17.6856   21.2783 C   0  0  0  0  0  0  0  0  0  0  0  0
  -30.4874  -22.4805   20.9017 C   0  0  0  0  0  0  0  0  0  0  0  0
  -30.1932  -21.4348   21.7032 C   0  0  0  0  0  0  0  0  0  0  0  0
  -22.3543  -15.9885   20.4888 C   0  0  0  0  0  0  0  0  0  0  0  0
  -29.3071  -20.3686   21.1943 C   0  0  0  0  0  0  0  0  0  0  0  0
  -22.2237  -26.5956   20.6423 C   0  0  0  0  0  0  0  0  0  0  0  0
  -23.0499  -24.6710   18.1653 C   0  0  0  0  0  0  0  0  0  0  0  0
  -25.4663  -23.6105   16.0012 C   0  0  0  0  0  0  0  0  0  0  0  0
  -17.9115  -28.3415   22.7435 C   0  0  0  0  0  0  0  0  0  0  0  0
  -23.2776  -28.2449   19.0533 C   0  0  0  0  0  0  0  0  0  0  0  0
  -24.9389  -25.8205   19.3801 C   0  0  0  0  0  0  0  0  0  0  0  0
  -18.3078  -27.1181   21.9210 C   0  0  0  0  0  0  0  0  0  0  0  0
  -27.0369  -20.1072   24.0596 C   0  0  0  0  0  0  0  0  0  0  0  0
  -19.5582  -26.4660   22.5026 C   0  0  0  0  0  0  0  0  0  0  0  0
  -26.1329  -18.9607   23.6143 C   0  0  0  0  0  0  0  0  0  0  0  0
  -28.4719  -19.9286   23.5660 C   0  0  0  0  0  0  0  0  0  0  0  0
  -27.6702  -18.5828   21.6460 C   0  0  0  0  0  0  0  0  0  0  0  0
  -20.7507  -27.4295   22.4660 C   0  0  1  0  0  0  0  0  0  0  0  0
  -22.6558  -26.8629   19.2282 C   0  0  1  0  0  0  0  0  0  0  0  0
  -26.2110  -18.7658   22.0919 C   0  0  1  0  0  0  0  0  0  0  0  0
  -30.7462  -29.3568   18.2818 C   0  0  0  0  0  0  0  0  0  0  0  0
  -25.8528  -22.0012   14.1150 C   0  0  0  0  0  0  0  0  0  0  0  0
  -23.1712  -22.3655   20.1603 C   0  0  0  0  0  0  0  0  0  0  0  0
  -24.4512  -21.0508   18.4571 C   0  0  0  0  0  0  0  0  0  0  0  0
  -22.1205  -21.7910   17.9648 C   0  0  0  0  0  0  0  0  0  0  0  0
  -31.2838  -28.6671   22.0885 C   0  0  0  0  0  0  0  0  0  0  0  0
  -26.1238  -25.7962   14.1173 C   0  0  0  0  0  0  0  0  0  0  0  0
  -31.9575  -27.1808   20.1229 C   0  0  0  0  0  0  0  0  0  0  0  0
  -31.0471  -29.5314   19.7659 C   0  0  0  0  0  0  0  0  0  0  0  0
  -29.4986  -27.6751   20.6196 C   0  0  0  0  0  0  0  0  0  1  0  0
  -23.9846  -23.4988   17.9878 C   0  0  1  0  0  0  0  0  0  0  0  0
  -25.4563  -23.4192   14.4953 C   0  0  2  0  0  0  0  0  0  0  0  0
  -23.4413  -22.2019   18.6513 C   0  0  0  0  0  0  0  0  0  0  0  0
  -30.9381  -28.2424   20.6417 C   0  0  2  0  0  0  0  0  0  0  0  0
  -25.8590  -16.3919   21.5223 N   0  0  0  0  0  0  0  0  0  0  0  0
  -25.3291  -17.6228   21.6238 N   0  0  0  0  0  0  0  0  0  0  0  0
  -28.5161  -19.6854   22.1163 N   0  0  0  0  0  0  0  0  0  0  0  0
  -23.5666  -25.7811   18.8484 N   0  0  0  0  0  0  0  0  0  0  0  0
  -23.3232  -18.8462   21.3232 N   0  0  0  0  0  0  0  0  0  0  0  0
  -22.1604  -14.6384   20.1665 N   0  0  0  0  0  0  0  0  0  0  0  0
  -21.3012  -27.5018   21.1295 N   0  0  0  0  0  0  0  0  0  0  0  0
  -24.2239  -23.3812   16.5535 N   0  0  0  0  0  0  0  0  0  0  0  0
  -26.4095  -24.3637   13.8469 N   0  3  0  0  0  0  0  0  0  0  0  0
  -21.3976  -16.7913   20.3714 O   0  0  0  0  0  0  0  0  0  0  0  0
  -29.3250  -20.1445   19.9827 O   0  0  0  0  0  0  0  0  0  0  0  0
  -22.6914  -25.6373   21.2461 O   0  0  0  0  0  0  0  0  0  0  0  0
  -21.9060  -24.6069   17.7083 O   0  0  0  0  0  0  0  0  0  0  0  0
  -26.4762  -23.9277   16.6257 O   0  0  0  0  0  0  0  0  0  0  0  0
  -25.4962  -10.1767   20.1853 O   0  0  0  0  0  0  0  0  0  0  0  0
  -28.5568  -28.6490   21.0677 O   0  0  0  0  0  0  0  0  0  1  0  0
  -21.5970   -6.7764   22.0927 F   0  0  0  0  0  0  0  0  0  0  0  0
  -33.9178  -24.4600   23.6765 F   0  0  0  0  0  0  0  0  0  0  0  0
  -26.1103   -8.2013   22.0193 F   0  0  0  0  0  0  0  0  0  0  0  0
  1  2  1  0  0  0  0
  1  5  2  0  0  0  0
  2  6  2  0  0  0  0
  3  8  2  0  0  0  0
  3 18  1  0  0  0  0
  4  9  1  0  0  0  0
  4 18  2  0  0  0  0
  5 21  1  0  0  0  0
  6 23  1  0  0  0  0
  7 10  2  0  0  0  0
  7 22  1  0  0  0  0
  8 26  1  0  0  0  0
  9 26  2  0  0  0  0
 10 27  1  0  0  0  0
 11 12  2  0  0  0  0
 11 28  1  0  0  0  0
 12 29  1  0  0  0  0
 13 19  1  0  0  0  0
 13 25  2  0  0  0  0
 14 19  2  0  0  0  0
 14 30  1  0  0  0  0
 15 24  1  0  0  0  0
 15 27  2  0  0  0  0
 16 25  1  0  0  0  0
 16 30  2  0  0  0  0
 17 29  2  0  0  0  0
 17 31  1  0  0  0  0
 18 32  1  0  0  0  0
 19 34  1  0  0  0  0
 20 32  1  0  0  0  0
 20 33  2  0  0  0  0
 20 36  1  0  0  0  0
 21 23  2  0  0  0  0
 21 41  1  0  0  0  0
 22 24  2  0  0  0  0
 22 42  1  0  0  0  0
 23 50  1  0  0  0  0
 24 43  1  0  0  0  0
 25 60  1  0  0  0  0
 26 81  1  0  0  0  0
 27 82  1  0  0  0  0
 28 31  2  0  0  0  0
 28 81  1  0  0  0  0
 29 83  1  0  0  0  0
 30 84  1  0  0  0  0
 31 85  1  0  0  0  0
 32 67  2  0  0  0  0
 33 68  1  0  0  0  0
 33 71  1  0  0  0  0
 34 35  2  0  0  0  0
 35 37  1  0  0  0  0
 36 72  1  0  0  0  0
 36 76  2  0  0  0  0
 37 69  1  0  0  0  0
 37 77  2  0  0  0  0
 38 51  1  0  0  0  0
 38 73  1  0  0  0  0
 38 78  2  0  0  0  0
 39 63  1  0  0  0  0
 39 70  1  0  0  0  0
 39 79  2  0  0  0  0
 40 64  1  0  0  0  0
 40 74  1  0  0  0  0
 40 80  2  0  0  0  0
 41 44  1  0  0  0  0
 42 51  1  0  0  0  0
 43 70  1  0  0  0  0
 44 46  1  0  0  0  0
 45 47  1  0  0  0  0
 45 48  1  0  0  0  0
 46 50  1  0  0  0  0
 47 52  1  0  0  0  0
 48 69  1  0  0  0  0
 49 52  1  0  0  0  0
 49 69  1  0  0  0  0
 50 73  1  0  0  0  0
 51 70  1  0  0  0  0
 52 68  1  0  0  0  0
 53 61  1  0  0  0  0
 54 64  1  0  0  0  0
 55 65  1  0  0  0  0
 56 65  1  0  0  0  0
 57 65  1  0  0  0  0
 58 66  1  0  0  0  0
 59 75  1  0  0  0  0
 60 66  1  0  0  0  0
 61 66  1  0  0  0  0
 62 66  1  0  0  0  0
 62 82  1  0  0  0  0
 63 65  1  0  0  0  0
 63 74  1  0  0  0  0
 64 75  1  0  0  0  0
 67 68  1  0  0  0  0
M  CHG  1  75   1
M  ISO  4  35 100  37 100  62 101  82 101
M  END
> <Batch ID>
0139

> <Smiles>
CCC(C)(Cc1cc(F)cc(C=[100CH:0][100C:0](=O)N2CCCC(n3nc(-c4ccc(Oc5ccc(F)cc5F)cc4)c(C(N)=O)c3N)C2)c1)[101CH2:1][101O:1]c1ccc2c(c1)CN(C(=O)C(NC(=O)C(C)NC)C(C)(C)C)C(C(=O)NC1CCCc3ccccc31)C2

> <Shape>
0.224

> <Color>
0.087

> <Negative vol penalty>
0.000

$$$$

  -OEChem-04052302483D

 90 98  0     1  0  0  0  0  0999 V2000
  -16.7076  -28.7145   23.6336 C   0  0  0  0  0  0  0  0  0  0  0  0
  -17.5293  -27.9738   22.7901 C   0  0  0  0  0  0  0  0  0  0  0  0
  -29.1701  -17.1928   21.2171 C   0  0  0  0  0  0  0  0  0  0  0  0
  -26.8179  -17.6613   21.5074 C   0  0  0  0  0  0  0  0  0  0  0  0
  -17.2069  -29.8492   24.2715 C   0  0  0  0  0  0  0  0  0  0  0  0
  -18.8507  -28.3681   22.5831 C   0  0  0  0  0  0  0  0  0  0  0  0
  -25.3586  -25.6466   21.3350 C   0  0  0  0  0  0  0  0  0  0  0  0
  -28.9260  -15.8359   21.4287 C   0  0  0  0  0  0  0  0  0  0  0  0
  -26.5737  -16.3043   21.7190 C   0  0  0  0  0  0  0  0  0  0  0  0
  -26.4264  -25.7720   20.4474 C   0  0  0  0  0  0  0  0  0  0  0  0
  -25.2773  -12.9176   21.9783 C   0  0  0  0  0  0  0  0  0  0  0  0
  -24.1854  -12.3449   21.3262 C   0  0  0  0  0  0  0  0  0  0  0  0
  -27.2034  -27.7044   21.6644 C   0  0  0  0  0  0  0  0  0  0  0  0
  -31.9775  -24.6058   21.1322 C   0  0  0  0  0  0  0  0  0  0  0  0
  -32.3913  -23.6155   18.9677 C   0  0  0  0  0  0  0  0  0  0  0  0
  -33.5234  -22.7609   20.9235 C   0  0  0  0  0  0  0  0  0  0  0  0
  -25.1495  -12.9374   19.1915 C   0  0  0  0  0  0  0  0  0  0  0  0
  -28.1161  -18.1055   21.2565 C   0  0  0  0  0  0  0  0  0  0  0  0
  -28.3522  -20.1927   19.8089 C   0  0  0  0  0  0  0  0  0  0  0  0
  -18.5379  -30.2521   24.0798 C   0  0  0  0  0  0  0  0  0  0  0  0
  -25.1988  -26.5572   22.3894 C   0  0  0  0  0  0  0  0  0  0  0  0
  -19.3680  -29.5100   23.2180 C   0  0  0  0  0  0  0  0  0  0  0  0
  -26.1342  -27.5869   22.5656 C   0  0  0  0  0  0  0  0  0  0  0  0
  -31.7381  -24.5606   19.7588 C   0  0  0  0  0  0  0  0  0  0  0  0
  -32.8702  -23.7060   21.7145 C   0  0  0  0  0  0  0  0  0  0  0  0
  -27.6278  -15.3916   21.6796 C   0  0  0  0  0  0  0  0  0  0  0  0
  -27.3473  -26.8027   20.6103 C   0  0  0  0  0  0  0  0  0  0  0  0
  -26.3054  -13.5002   21.2370 C   0  0  0  0  0  0  0  0  0  0  0  0
  -33.2839  -22.7157   19.5501 C   0  0  0  0  0  0  0  0  0  0  0  0
  -24.1214  -12.3548   19.9328 C   0  0  0  0  0  0  0  0  0  0  0  0
  -26.2414  -13.5101   19.8437 C   0  0  0  0  0  0  0  0  0  0  0  0
  -28.3677  -19.5074   21.0385 C   0  0  0  0  0  0  0  0  0  0  0  0
  -28.6508  -21.4927   20.1366 C   0  0  0  0  0  0  0  0  0  0  0  0
  -28.0913  -19.6985   18.4886 C   0  0  0  0  0  0  0  0  0  0  0  0
  -22.9639  -28.6602   23.2178 C   0  0  0  0  0  0  0  0  0  0  0  0
  -24.8062  -28.9874   25.8676 C   0  0  0  0  0  0  0  0  0  0  0  0
  -30.4750  -25.5680   17.8256 C   0  0  0  0  0  0  0  0  0  0  0  0
  -27.8842  -28.6894   27.3111 C   0  0  0  0  0  0  0  0  0  0  0  0
  -32.1569  -24.1750   24.0730 C   0  0  0  0  0  0  0  0  0  0  0  0
  -19.0191  -31.5126   24.7539 C   0  0  0  0  0  0  0  0  0  0  0  0
  -24.0567  -26.3924   23.3541 C   0  0  0  0  0  0  0  0  0  0  0  0
  -26.0190  -28.5785   23.6934 C   0  0  0  0  0  0  0  0  0  0  0  0
  -20.5392  -31.6499   24.7749 C   0  0  0  0  0  0  0  0  0  0  0  0
  -28.4608  -24.2155   24.2473 C   0  0  0  0  0  0  0  0  0  0  0  0
  -21.1227  -31.3358   23.4010 C   0  0  0  0  0  0  0  0  0  0  0  0
  -28.0675  -23.0142   23.3897 C   0  0  0  0  0  0  0  0  0  0  0  0
  -29.8286  -24.0249   24.8958 C   0  0  0  0  0  0  0  0  0  0  0  0
  -30.5215  -22.5159   23.0562 C   0  0  0  0  0  0  0  0  0  0  0  0
  -20.8142  -29.8917   22.9876 C   0  0  1  0  0  0  0  0  0  0  0  0
  -23.7028  -27.6826   24.0872 C   0  0  1  0  0  0  0  0  0  0  0  0
  -29.1650  -22.7007   22.3595 C   0  0  1  0  0  0  0  0  0  0  0  0
  -35.2845  -24.8858   23.4313 C   0  0  0  0  0  0  0  0  0  0  0  0
  -29.1316  -26.7858   16.1048 C   0  0  0  0  0  0  0  0  0  0  0  0
  -29.6143  -28.6987   29.1288 C   0  0  0  0  0  0  0  0  0  0  0  0
  -24.8401  -31.9890   25.3208 C   0  0  0  0  0  0  0  0  0  0  0  0
  -26.7747  -32.1839   26.8980 C   0  0  0  0  0  0  0  0  0  0  0  0
  -24.5677  -31.3703   27.7286 C   0  0  0  0  0  0  0  0  0  0  0  0
  -31.9164  -20.7732   17.9434 C   0  0  0  0  0  0  0  0  0  0  0  0
  -34.1650  -19.6796   17.7043 C   0  0  0  0  0  0  0  0  0  0  0  0
  -33.1060  -19.8786   19.9730 C   0  0  0  0  0  0  0  0  0  0  0  0
  -27.3565  -25.8569   27.9875 C   0  0  0  0  0  0  0  0  0  0  0  0
  -34.4966  -23.6018   23.5946 C   0  0  0  0  0  0  0  0  0  0  0  0
  -28.1808  -26.4791   18.4065 C   0  0  0  0  0  0  0  0  0  1  0  0
  -25.9702  -29.8655   26.2586 C   0  0  1  0  0  0  0  0  0  0  0  0
  -29.4601  -26.6963   17.5946 C   0  0  1  0  0  0  0  0  0  0  0  0
  -28.3249  -28.0693   28.6248 C   0  0  2  0  0  0  0  0  0  0  0  0
  -25.5395  -31.3348   26.5290 C   0  0  0  0  0  0  0  0  0  0  0  0
  -33.2738  -20.5342   18.6031 C   0  0  0  0  0  0  0  0  0  0  0  0
  -28.6536  -20.3059   22.0703 N   0  0  0  0  0  0  0  0  0  0  0  0
  -28.8206  -21.5064   21.4898 N   0  0  0  0  0  0  0  0  0  0  0  0
  -24.8815  -28.3791   24.6066 N   0  0  0  0  0  0  0  0  0  0  0  0
  -30.8511  -23.6680   23.9111 N   0  0  0  0  0  0  0  0  0  0  0  0
  -28.7820  -22.6140   19.3964 N   0  0  0  0  0  0  0  0  0  0  0  0
  -27.8012  -18.3364   18.3303 N   0  0  0  0  0  0  0  0  0  0  0  0
  -30.8328  -25.4741   19.1679 N   0  0  0  0  0  0  0  0  0  0  0  0
  -21.6963  -28.9707   23.6718 N   0  0  0  0  0  0  0  0  0  0  0  0
  -26.6109  -29.2120   27.3947 N   0  0  0  0  0  0  0  0  0  0  0  0
  -33.1177  -23.7519   23.1349 N   0  0  0  0  0  0  0  0  0  0  0  0
  -28.5506  -26.6058   28.4569 N   0  3  0  0  0  0  0  0  0  0  0  0
  -28.1308  -20.4393   17.4771 O   0  0  0  0  0  0  0  0  0  0  0  0
  -23.5045  -29.1015   22.2104 O   0  0  0  0  0  0  0  0  0  0  0  0
  -23.8680  -28.8407   26.6550 O   0  0  0  0  0  0  0  0  0  0  0  0
  -30.8896  -24.8748   16.9011 O   0  0  0  0  0  0  0  0  0  0  0  0
  -28.5994  -28.7115   26.3119 O   0  0  0  0  0  0  0  0  0  0  0  0
  -32.4605  -24.9102   25.0206 O   0  0  0  0  0  0  0  0  0  0  0  0
  -27.3892  -14.0676   21.8859 O   0  0  0  0  0  0  0  0  0  0  0  0
  -28.3901  -26.9277   19.7449 O   0  0  0  0  0  0  0  0  0  1  0  0
  -33.9214  -21.7934   18.7783 O   0  0  0  0  0  0  0  0  0  0  0  0
  -23.0735  -11.8035   19.3067 F   0  0  0  0  0  0  0  0  0  0  0  0
  -27.2266  -14.0673   19.1262 F   0  0  0  0  0  0  0  0  0  0  0  0
  1  2  1  0  0  0  0
  1  5  2  0  0  0  0
  2  6  2  0  0  0  0
  3  8  2  0  0  0  0
  3 18  1  0  0  0  0
  4  9  1  0  0  0  0
  4 18  2  0  0  0  0
  5 20  1  0  0  0  0
  6 22  1  0  0  0  0
  7 10  2  0  0  0  0
  7 21  1  0  0  0  0
  8 26  1  0  0  0  0
  9 26  2  0  0  0  0
 10 27  1  0  0  0  0
 11 12  2  0  0  0  0
 11 28  1  0  0  0  0
 12 30  1  0  0  0  0
 13 23  1  0  0  0  0
 13 27  2  0  0  0  0
 14 24  2  0  0  0  0
 14 25  1  0  0  0  0
 15 24  1  0  0  0  0
 15 29  2  0  0  0  0
 16 25  2  0  0  0  0
 16 29  1  0  0  0  0
 17 30  2  0  0  0  0
 17 31  1  0  0  0  0
 18 32  1  0  0  0  0
 19 32  1  0  0  0  0
 19 33  2  0  0  0  0
 19 34  1  0  0  0  0
 20 22  2  0  0  0  0
 20 40  1  0  0  0  0
 21 23  2  0  0  0  0
 21 41  1  0  0  0  0
 22 49  1  0  0  0  0
 23 42  1  0  0  0  0
 24 75  1  0  0  0  0
 25 78  1  0  0  0  0
 26 86  1  0  0  0  0
 27 87  1  0  0  0  0
 28 31  2  0  0  0  0
 28 86  1  0  0  0  0
 29 88  1  0  0  0  0
 30 89  1  0  0  0  0
 31 90  1  0  0  0  0
 32 69  2  0  0  0  0
 33 70  1  0  0  0  0
 33 73  1  0  0  0  0
 34 74  1  0  0  0  0
 34 80  2  0  0  0  0
 35 50  1  0  0  0  0
 35 76  1  0  0  0  0
 35 81  2  0  0  0  0
 36 64  1  0  0  0  0
 36 71  1  0  0  0  0
 36 82  2  0  0  0  0
 37 65  1  0  0  0  0
 37 75  1  0  0  0  0
 37 83  2  0  0  0  0
 38 66  1  0  0  0  0
 38 77  1  0  0  0  0
 38 84  2  0  0  0  0
 39 72  1  0  0  0  0
 39 78  1  0  0  0  0
 39 85  2  0  0  0  0
 40 43  1  0  0  0  0
 41 50  1  0  0  0  0
 42 71  1  0  0  0  0
 43 45  1  0  0  0  0
 44 46  1  0  0  0  0
 44 47  1  0  0  0  0
 45 49  1  0  0  0  0
 46 51  1  0  0  0  0
 47 72  1  0  0  0  0
 48 51  1  0  0  0  0
 48 72  1  0  0  0  0
 49 76  1  0  0  0  0
 50 71  1  0  0  0  0
 51 70  1  0  0  0  0
 52 62  1  0  0  0  0
 53 65  1  0  0  0  0
 54 66  1  0  0  0  0
 55 67  1  0  0  0  0
 56 67  1  0  0  0  0
 57 67  1  0  0  0  0
 58 68  1  0  0  0  0
 59 68  1  0  0  0  0
 60 68  1  0  0  0  0
 61 79  1  0  0  0  0
 62 78  1  0  0  0  0
 63 65  1  0  0  0  0
 63 87  1  0  0  0  0
 64 67  1  0  0  0  0
 64 77  1  0  0  0  0
 66 79  1  0  0  0  0
 68 88  1  0  0  0  0
 69 70  1  0  0  0  0
M  CHG  1  79   1
M  ISO  4  39 100  63 101  78 100  87 101
M  END
> <Batch ID>
0139

> <Smiles>
CC[100N:0](c1cc(NC(=O)C(C)[101CH2:1][101O:1]c2ccc3c(c2)CN(C(=O)C(NC(=O)C(C)NC)C(C)(C)C)C(C(=O)NC2CCCc4ccccc42)C3)cc(OC(C)(C)C)c1)[100C:0](=O)N1CCCC(n2nc(-c3ccc(Oc4ccc(F)cc4F)cc3)c(C(N)=O)c2N)C1

> <Shape>
0.223

> <Color>
0.071

> <Negative vol penalty>
0.000

$$$$

  -OEChem-04052302483D

 89 98  0     1  0  0  0  0  0999 V2000
  -26.0796  -38.3546   21.8465 C   0  0  0  0  0  0  0  0  0  0  0  0
  -26.6846  -37.4011   21.0340 C   0  0  0  0  0  0  0  0  0  0  0  0
  -24.7280   -8.9607   21.9599 C   0  0  0  0  0  0  0  0  0  0  0  0
  -23.4362   -9.9378   20.1673 C   0  0  0  0  0  0  0  0  0  0  0  0
  -25.5249  -37.9767   23.0685 C   0  0  0  0  0  0  0  0  0  0  0  0
  -26.7363  -36.0693   21.4436 C   0  0  0  0  0  0  0  0  0  0  0  0
  -26.6126  -29.4091   18.8086 C   0  0  0  0  0  0  0  0  0  0  0  0
  -24.6018  -18.2580   16.4667 C   0  0  0  0  0  0  0  0  0  0  0  0
  -24.8123  -19.5551   16.9346 C   0  0  0  0  0  0  0  0  0  0  0  0
  -23.5589   -8.4507   22.5245 C   0  0  0  0  0  0  0  0  0  0  0  0
  -22.2671   -9.4278   20.7318 C   0  0  0  0  0  0  0  0  0  0  0  0
  -27.3353  -28.2178   18.8575 C   0  0  0  0  0  0  0  0  0  0  0  0
  -21.4727   -5.8416   22.0018 C   0  0  0  0  0  0  0  0  0  0  0  0
  -21.4896   -4.5187   22.4434 C   0  0  0  0  0  0  0  0  0  0  0  0
  -26.2738  -27.6671   20.9526 C   0  0  0  0  0  0  0  0  0  0  0  0
  -26.5034  -18.7332   18.4519 C   0  0  0  0  0  0  0  0  0  0  0  0
  -20.9703   -5.2598   24.6835 C   0  0  0  0  0  0  0  0  0  0  0  0
  -24.6667   -9.7043   20.7814 C   0  0  0  0  0  0  0  0  0  0  0  0
  -26.7074   -9.6025   19.2541 C   0  0  0  0  0  0  0  0  0  0  0  0
  -25.5612  -36.6378   23.4890 C   0  0  0  0  0  0  0  0  0  0  0  0
  -25.7217  -29.7440   19.8384 C   0  0  0  0  0  0  0  0  0  0  0  0
  -26.1828  -35.6733   22.6731 C   0  0  0  0  0  0  0  0  0  0  0  0
  -25.5392  -28.8620   20.9130 C   0  0  0  0  0  0  0  0  0  0  0  0
  -25.3420  -17.1985   16.9914 C   0  0  0  0  0  0  0  0  0  0  0  0
  -25.7631  -19.7927   17.9272 C   0  0  0  0  0  0  0  0  0  0  0  0
  -26.2928  -17.4361   17.9840 C   0  0  0  0  0  0  0  0  0  0  0  0
  -22.3284   -8.6843   21.9104 C   0  0  0  0  0  0  0  0  0  0  0  0
  -27.1681  -27.3480   19.9311 C   0  0  0  0  0  0  0  0  0  0  0  0
  -21.2046   -6.8737   22.9010 C   0  0  0  0  0  0  0  0  0  0  0  0
  -21.2384   -4.2277   23.7843 C   0  0  0  0  0  0  0  0  0  0  0  0
  -20.9534   -6.5828   24.2419 C   0  0  0  0  0  0  0  0  0  0  0  0
  -25.8740  -10.2318   20.1980 C   0  0  0  0  0  0  0  0  0  0  0  0
  -27.7121  -10.5103   19.0238 C   0  0  0  0  0  0  0  0  0  0  0  0
  -26.8892  -22.9306   19.4705 C   0  0  0  0  0  0  0  0  0  0  0  0
  -29.3828  -21.2323   17.5779 C   0  0  0  0  0  0  0  0  0  0  0  0
  -26.5845   -8.3126   18.6402 C   0  0  0  0  0  0  0  0  0  0  0  0
  -27.7385  -23.7956   20.0402 C   0  0  0  0  0  0  0  0  0  0  0  0
  -28.1762  -21.8140   17.6469 C   0  0  0  0  0  0  0  0  0  0  0  0
  -25.5235  -32.1098   21.9520 C   0  0  0  0  0  0  0  0  0  0  0  0
  -22.6880  -30.7081   22.6712 C   0  0  0  0  0  0  0  0  0  0  0  0
  -20.7647  -27.8890   22.6609 C   0  0  0  0  0  0  0  0  0  0  0  0
  -28.0334  -16.4564   19.5191 C   0  0  0  0  0  0  0  0  0  0  0  0
  -24.9902  -36.2853   24.8396 C   0  0  0  0  0  0  0  0  0  0  0  0
  -24.9298  -31.0202   19.7574 C   0  0  0  0  0  0  0  0  0  0  0  0
  -24.5800  -29.1654   22.0339 C   0  0  0  0  0  0  0  0  0  0  0  0
  -25.4076  -23.1457   19.4091 C   0  0  0  0  0  0  0  0  0  0  0  0
  -24.7549  -34.7891   25.0298 C   0  0  0  0  0  0  0  0  0  0  0  0
  -30.1054  -14.0682   21.1564 C   0  0  0  0  0  0  0  0  0  0  0  0
  -25.9713  -33.9942   24.5656 C   0  0  0  0  0  0  0  0  0  0  0  0
  -29.3342  -12.7550   21.0052 C   0  0  0  0  0  0  0  0  0  0  0  0
  -24.9201  -22.0930   18.4210 C   0  0  0  0  0  0  0  0  0  0  0  0
  -29.1680  -15.2545   21.3747 C   0  0  0  0  0  0  0  0  0  0  0  0
  -27.3321  -14.0838   20.2223 C   0  0  0  0  0  0  0  0  0  0  0  0
  -26.2368  -34.2143   23.0714 C   0  0  1  0  0  0  0  0  0  0  0  0
  -27.2680  -21.6191   18.8249 C   0  0  2  0  0  0  0  0  0  0  0  0
  -24.4324  -31.5020   21.1168 C   0  0  1  0  0  0  0  0  0  0  0  0
  -28.2305  -12.8696   19.9355 C   0  0  2  0  0  0  0  0  0  0  0  0
  -25.0952  -15.8197   16.4712 C   0  0  0  0  0  0  0  0  0  0  0  0
  -29.2170  -23.5364   20.0774 C   0  0  0  0  0  0  0  0  0  0  0  0
  -27.6573  -22.6961   16.5503 C   0  0  0  0  0  0  0  0  0  0  0  0
  -18.5046  -27.0437   23.3501 C   0  0  0  0  0  0  0  0  0  0  0  0
  -23.6064  -30.6311   25.5799 C   0  0  0  0  0  0  0  0  0  0  0  0
  -21.7906  -28.9690   26.0365 C   0  0  0  0  0  0  0  0  0  0  0  0
  -21.2091  -31.2670   25.2594 C   0  0  0  0  0  0  0  0  0  0  0  0
  -20.0424  -27.2044   19.8737 C   0  0  0  0  0  0  0  0  0  0  0  0
  -27.2600  -25.0828   20.6498 C   0  0  0  0  0  0  0  0  0  1  0  0
  -22.2404  -29.6316   23.6303 C   0  0  1  0  0  0  0  0  0  0  0  0
  -19.3301  -27.6499   22.2259 C   0  0  2  0  0  0  0  0  0  0  0  0
  -22.2312  -30.1196   25.1066 C   0  0  0  0  0  0  0  0  0  0  0  0
  -26.3112  -11.4456   20.5439 N   0  0  0  0  0  0  0  0  0  0  0  0
  -27.4305  -11.5861   19.8134 N   0  0  0  0  0  0  0  0  0  0  0  0
  -25.9717  -21.0798   18.3912 N   0  0  3  0  0  0  0  0  0  0  0  0
  -23.8334  -30.4285   21.9124 N   0  0  0  0  0  0  0  0  0  0  0  0
  -28.1517  -15.3017   20.3213 N   0  0  0  0  0  0  0  0  0  0  0  0
  -28.8001  -10.4852   18.2251 N   0  0  0  0  0  0  0  0  0  0  0  0
  -25.4917   -7.5077   18.9899 N   0  0  0  0  0  0  0  0  0  0  0  0
  -27.0546  -16.3732   18.5294 N   0  0  0  0  0  0  0  0  0  0  0  0
  -25.3126  -33.4370   22.2739 N   0  0  0  0  0  0  0  0  0  0  0  0
  -20.9449  -29.1668   23.1466 N   0  0  0  0  0  0  0  0  0  0  0  0
  -19.2900  -26.7221   21.0604 N   0  3  0  0  0  0  0  0  0  0  0  0
  -27.4277   -7.8798   17.8186 O   0  0  0  0  0  0  0  0  0  0  0  0
  -26.4849  -31.4250   22.2813 O   0  0  0  0  0  0  0  0  0  0  0  0
  -22.0410  -31.7554   22.5929 O   0  0  0  0  0  0  0  0  0  0  0  0
  -21.6372  -27.0270   22.5816 O   0  0  0  0  0  0  0  0  0  0  0  0
  -28.7663  -17.4358   19.6795 O   0  0  0  0  0  0  0  0  0  0  0  0
  -21.1874   -8.1866   22.4609 O   0  0  0  0  0  0  0  0  0  0  0  0
  -27.8728  -26.1849   19.9817 O   0  0  0  0  0  0  0  0  0  1  0  0
  -21.2531   -2.9571   24.2079 F   0  0  0  0  0  0  0  0  0  0  0  0
  -20.6941   -7.5700   25.1102 F   0  0  0  0  0  0  0  0  0  0  0  0
  1  2  1  0  0  0  0
  1  5  2  0  0  0  0
  2  6  2  0  0  0  0
  3 10  2  0  0  0  0
  3 18  1  0  0  0  0
  4 11  1  0  0  0  0
  4 18  2  0  0  0  0
  5 20  1  0  0  0  0
  6 22  1  0  0  0  0
  7 12  2  0  0  0  0
  7 21  1  0  0  0  0
  8  9  2  0  0  0  0
  8 24  1  0  0  0  0
  9 25  1  0  0  0  0
 10 27  1  0  0  0  0
 11 27  2  0  0  0  0
 12 28  1  0  0  0  0
 13 14  2  0  0  0  0
 13 29  1  0  0  0  0
 14 30  1  0  0  0  0
 15 23  1  0  0  0  0
 15 28  2  0  0  0  0
 16 25  2  0  0  0  0
 16 26  1  0  0  0  0
 17 30  2  0  0  0  0
 17 31  1  0  0  0  0
 18 32  1  0  0  0  0
 19 32  1  0  0  0  0
 19 33  2  0  0  0  0
 19 36  1  0  0  0  0
 20 22  2  0  0  0  0
 20 43  1  0  0  0  0
 21 23  2  0  0  0  0
 21 44  1  0  0  0  0
 22 54  1  0  0  0  0
 23 45  1  0  0  0  0
 24 26  2  0  0  0  0
 24 58  1  0  0  0  0
 25 72  1  0  0  0  0
 26 77  1  0  0  0  0
 27 86  1  0  0  0  0
 28 87  1  0  0  0  0
 29 31  2  0  0  0  0
 29 86  1  0  0  0  0
 30 88  1  0  0  0  0
 31 89  1  0  0  0  0
 32 70  2  0  0  0  0
 33 71  1  0  0  0  0
 33 75  1  0  0  0  0
 34 37  2  0  0  0  0
 34 46  1  0  0  0  0
 34 55  1  0  0  0  0
 35 38  2  0  0  0  0
 36 76  1  0  0  0  0
 36 81  2  0  0  0  0
 37 59  1  0  0  0  0
 37 66  1  0  0  0  0
 38 55  1  0  0  0  0
 38 60  1  0  0  0  0
 39 56  1  0  0  0  0
 39 78  1  0  0  0  0
 39 82  2  0  0  0  0
 40 67  1  0  0  0  0
 40 73  1  0  0  0  0
 40 83  2  0  0  0  0
 41 68  1  0  0  0  0
 41 79  1  0  0  0  0
 41 84  2  0  0  0  0
 42 74  1  0  0  0  0
 42 77  1  0  0  0  0
 42 85  2  0  0  0  0
 43 47  1  0  0  0  0
 44 56  1  0  0  0  0
 45 73  1  0  0  0  0
 46 51  1  0  0  0  0
 47 49  1  0  0  0  0
 48 50  1  0  0  0  0
 48 52  1  0  0  0  0
 49 54  1  0  0  0  0
 50 57  1  0  0  0  0
 51 72  1  0  0  0  0
 52 74  1  0  0  0  0
 53 57  1  0  0  0  0
 53 74  1  0  0  0  0
 54 78  1  0  0  0  0
 55 72  1  0  0  0  0
 56 73  1  0  0  0  0
 57 71  1  0  0  0  0
 61 68  1  0  0  0  0
 62 69  1  0  0  0  0
 63 69  1  0  0  0  0
 64 69  1  0  0  0  0
 65 80  1  0  0  0  0
 66 87  1  0  0  0  0
 67 69  1  0  0  0  0
 67 79  1  0  0  0  0
 68 80  1  0  0  0  0
 70 71  1  0  0  0  0
M  CHG  1  80   1
M  ISO  4  42 100  66 101  77 100  87 101
M  END
> <Batch ID>
0139

> <Smiles>
C=C(C)C1C(=C(C)[101CH2:1][101O:1]c2ccc3c(c2)CN(C(=O)C(NC(=O)C(C)NC)C(C)(C)C)C(C(=O)NC2CCCc4ccccc42)C3)CCN1c1ccc(C)c([100NH:0][100C:0](=O)N2CCCC(n3nc(-c4ccc(Oc5ccc(F)cc5F)cc4)c(C(N)=O)c3N)C2)c1

> <Shape>
0.311

> <Color>
0.105

> <Negative vol penalty>
0.000

$$$$

  -OEChem-04052302483D

 89 97  0     1  0  0  0  0  0999 V2000
  -30.0615  -23.9504   17.5762 C   0  0  0  0  0  0  0  0  0  0  0  0
  -28.8329  -23.9834   18.2280 C   0  0  0  0  0  0  0  0  0  0  0  0
  -26.5984  -12.4557   20.6194 C   0  0  0  0  0  0  0  0  0  0  0  0
  -24.8328  -14.0655   20.2612 C   0  0  0  0  0  0  0  0  0  0  0  0
  -31.1122  -24.7460   18.0311 C   0  0  0  0  0  0  0  0  0  0  0  0
  -28.6546  -24.8112   19.3359 C   0  0  0  0  0  0  0  0  0  0  0  0
  -24.2789  -27.3553   19.1760 C   0  0  0  0  0  0  0  0  0  0  0  0
  -25.6548  -11.5098   21.0198 C   0  0  0  0  0  0  0  0  0  0  0  0
  -23.8891  -13.1195   20.6617 C   0  0  0  0  0  0  0  0  0  0  0  0
  -23.1231  -26.6564   19.5213 C   0  0  0  0  0  0  0  0  0  0  0  0
  -22.3274  -10.4393   19.3207 C   0  0  0  0  0  0  0  0  0  0  0  0
  -21.1725  -10.3115   18.5492 C   0  0  0  0  0  0  0  0  0  0  0  0
  -25.3513  -23.7255   23.5491 C   0  0  0  0  0  0  0  0  0  0  0  0
  -25.8390  -21.9508   21.9841 C   0  0  0  0  0  0  0  0  0  0  0  0
  -23.1904  -27.6439   21.7212 C   0  0  0  0  0  0  0  0  0  0  0  0
  -27.4230  -22.4951   23.7253 C   0  0  0  0  0  0  0  0  0  0  0  0
  -19.8254  -10.8882   20.4702 C   0  0  0  0  0  0  0  0  0  0  0  0
  -26.1874  -13.7336   20.2401 C   0  0  0  0  0  0  0  0  0  0  0  0
  -24.9859  -22.9525   22.4470 C   0  0  0  0  0  0  0  0  0  0  0  0
  -27.6352  -14.9404   18.5210 C   0  0  0  0  0  0  0  0  0  0  0  0
  -30.9438  -25.5913   19.1392 C   0  0  0  0  0  0  0  0  0  0  0  0
  -24.9064  -28.1968   20.1058 C   0  0  0  0  0  0  0  0  0  0  0  0
  -29.7045  -25.6179   19.8068 C   0  0  0  0  0  0  0  0  0  0  0  0
  -24.3527  -28.3543   21.3843 C   0  0  0  0  0  0  0  0  0  0  0  0
  -26.5699  -23.4968   24.1882 C   0  0  0  0  0  0  0  0  0  0  0  0
  -27.0576  -21.7220   22.6232 C   0  0  0  0  0  0  0  0  0  0  0  0
  -24.3002  -11.8417   21.0410 C   0  0  0  0  0  0  0  0  0  0  0  0
  -22.5803  -26.7983   20.7950 C   0  0  0  0  0  0  0  0  0  0  0  0
  -22.2314  -10.7915   20.6670 C   0  0  0  0  0  0  0  0  0  0  0  0
  -19.9215  -10.5360   19.1239 C   0  0  0  0  0  0  0  0  0  0  0  0
  -20.9804  -11.0160   21.2417 C   0  0  0  0  0  0  0  0  0  0  0  0
  -27.1617  -14.7113   19.8269 C   0  0  0  0  0  0  0  0  0  0  0  0
  -28.5399  -15.9646   18.6586 C   0  0  0  0  0  0  0  0  0  0  0  0
  -23.6955  -23.1947   21.7711 C   0  0  0  0  0  0  0  0  0  0  0  0
  -27.2881  -14.2859   17.2935 C   0  0  0  0  0  0  0  0  0  0  0  0
  -27.7592  -28.2600   21.5062 C   0  0  0  0  0  0  0  0  0  0  0  0
  -26.6919  -31.0930   22.6712 C   0  0  0  0  0  0  0  0  0  0  0  0
  -24.0355  -33.0739   23.4874 C   0  0  0  0  0  0  0  0  0  0  0  0
  -29.1671  -20.3458   22.6731 C   0  0  0  0  0  0  0  0  0  0  0  0
  -32.1230  -26.3976   19.6230 C   0  0  0  0  0  0  0  0  0  0  0  0
  -26.1376  -28.9644   19.7090 C   0  0  0  0  0  0  0  0  0  0  0  0
  -24.9766  -29.2610   22.4125 C   0  0  0  0  0  0  0  0  0  0  0  0
  -31.7389  -27.5271   20.5753 C   0  0  0  0  0  0  0  0  0  0  0  0
  -31.5838  -17.8723   21.8255 C   0  0  0  0  0  0  0  0  0  0  0  0
  -30.7652  -27.0233   21.6359 C   0  0  0  0  0  0  0  0  0  0  0  0
  -30.7682  -16.8047   21.0926 C   0  0  0  0  0  0  0  0  0  0  0  0
  -30.7974  -18.4953   22.9776 C   0  0  0  0  0  0  0  0  0  0  0  0
  -28.6590  -17.9519   21.8814 C   0  0  0  0  0  0  0  0  0  0  0  0
  -29.4647  -26.5214   20.9969 C   0  0  1  0  0  0  0  0  0  0  0  0
  -26.9830  -29.3964   20.9031 C   0  0  1  0  0  0  0  0  0  0  0  0
  -29.3860  -17.3416   20.6721 C   0  0  2  0  0  0  0  0  0  0  0  0
  -23.4778  -35.3216   24.4540 C   0  0  0  0  0  0  0  0  0  0  0  0
  -25.9272  -24.1762   26.5273 C   0  0  0  0  0  0  0  0  0  0  0  0
  -27.0395  -25.8362   24.9965 C   0  0  0  0  0  0  0  0  0  0  0  0
  -28.3487  -23.9759   25.9999 C   0  0  0  0  0  0  0  0  0  0  0  0
  -27.3731  -30.0600   25.4603 C   0  0  0  0  0  0  0  0  0  0  0  0
  -25.9528  -31.8904   26.4092 C   0  0  0  0  0  0  0  0  0  0  0  0
  -27.9732  -32.4544   25.0593 C   0  0  0  0  0  0  0  0  0  0  0  0
  -19.1191  -24.5922   22.0188 C   0  0  0  0  0  0  0  0  0  0  0  0
  -20.3501  -24.1070   24.1415 C   0  0  0  0  0  0  0  0  0  0  0  0
  -22.6480  -33.9221   21.0147 C   0  0  0  0  0  0  0  0  0  0  0  0
  -21.2323  -23.2713   21.9238 C   0  0  0  0  0  0  0  0  0  0  0  0
  -21.3010  -25.7548   22.5069 C   0  0  0  0  0  0  0  0  0  1  0  0
  -25.9282  -31.5241   23.9000 C   0  0  1  0  0  0  0  0  0  0  0  0
  -23.7327  -34.5296   23.1810 C   0  0  2  0  0  0  0  0  0  0  0  0
  -26.9602  -24.3228   25.3673 C   0  0  0  0  0  0  0  0  0  0  0  0
  -26.7959  -31.4636   25.1887 C   0  0  0  0  0  0  0  0  0  0  0  0
  -20.5177  -24.4316   22.6465 C   0  0  0  0  0  0  0  0  0  0  0  0
  -27.7197  -15.5245   20.7277 N   0  0  0  0  0  0  0  0  0  0  0  0
  -28.5531  -16.2745   19.9867 N   0  0  0  0  0  0  0  0  0  0  0  0
  -26.1828  -29.9853   21.9788 N   0  0  0  0  0  0  0  0  0  0  0  0
  -29.5013  -18.9855   22.5036 N   0  0  0  0  0  0  0  0  0  0  0  0
  -29.3176  -16.6213   17.7718 N   0  0  0  0  0  0  0  0  0  0  0  0
  -23.7157  -23.5366   20.4828 N   0  0  0  0  0  0  0  0  0  0  0  0
  -26.3406  -13.2539   17.3312 N   0  0  0  0  0  0  0  0  0  0  0  0
  -27.9231  -20.7030   22.1540 N   0  0  0  0  0  0  0  0  0  0  0  0
  -28.6214  -27.6369   20.6242 N   0  0  0  0  0  0  0  0  0  0  0  0
  -25.3907  -32.8475   23.6031 N   0  0  0  0  0  0  0  0  0  0  0  0
  -22.5705  -23.0617   22.4832 N   0  3  0  0  0  0  0  0  0  0  0  0
  -22.5269  -34.6360   22.3118 N   0  3  0  0  0  0  0  0  0  0  0  0
  -27.8151  -14.5958   16.1981 O   0  0  0  0  0  0  0  0  0  0  0  0
  -27.5896  -27.9709   22.6849 O   0  0  0  0  0  0  0  0  0  0  0  0
  -27.6990  -31.7205   22.3341 O   0  0  0  0  0  0  0  0  0  0  0  0
  -23.1574  -32.2235   23.6153 O   0  0  0  0  0  0  0  0  0  0  0  0
  -29.9399  -21.1415   23.2131 O   0  0  0  0  0  0  0  0  0  0  0  0
  -23.3791  -10.9188   21.4315 O   0  0  0  0  0  0  0  0  0  0  0  0
  -21.4525  -26.1168   21.1349 O   0  0  0  0  0  0  0  0  0  1  0  0
  -18.8125  -10.4147   18.3825 F   0  0  0  0  0  0  0  0  0  0  0  0
  -20.8820  -11.3558   22.5342 F   0  0  0  0  0  0  0  0  0  0  0  0
  1  2  1  0  0  0  0
  1  5  2  0  0  0  0
  2  6  2  0  0  0  0
  3  8  2  0  0  0  0
  3 18  1  0  0  0  0
  4  9  1  0  0  0  0
  4 18  2  0  0  0  0
  5 21  1  0  0  0  0
  6 23  1  0  0  0  0
  7 10  2  0  0  0  0
  7 22  1  0  0  0  0
  8 27  1  0  0  0  0
  9 27  2  0  0  0  0
 10 28  1  0  0  0  0
 11 12  2  0  0  0  0
 11 29  1  0  0  0  0
 12 30  1  0  0  0  0
 13 19  2  0  0  0  0
 13 25  1  0  0  0  0
 14 19  1  0  0  0  0
 14 26  2  0  0  0  0
 15 24  1  0  0  0  0
 15 28  2  0  0  0  0
 16 25  2  0  0  0  0
 16 26  1  0  0  0  0
 17 30  2  0  0  0  0
 17 31  1  0  0  0  0
 18 32  1  0  0  0  0
 19 34  1  0  0  0  0
 20 32  1  0  0  0  0
 20 33  2  0  0  0  0
 20 35  1  0  0  0  0
 21 23  2  0  0  0  0
 21 40  1  0  0  0  0
 22 24  2  0  0  0  0
 22 41  1  0  0  0  0
 23 49  1  0  0  0  0
 24 42  1  0  0  0  0
 25 66  1  0  0  0  0
 26 76  1  0  0  0  0
 27 86  1  0  0  0  0
 28 87  1  0  0  0  0
 29 31  2  0  0  0  0
 29 86  1  0  0  0  0
 30 88  1  0  0  0  0
 31 89  1  0  0  0  0
 32 69  2  0  0  0  0
 33 70  1  0  0  0  0
 33 73  1  0  0  0  0
 34 74  1  0  0  0  0
 34 79  2  0  0  0  0
 35 75  1  0  0  0  0
 35 81  2  0  0  0  0
 36 50  1  0  0  0  0
 36 77  1  0  0  0  0
 36 82  2  0  0  0  0
 37 64  1  0  0  0  0
 37 71  1  0  0  0  0
 37 83  2  0  0  0  0
 38 65  1  0  0  0  0
 38 78  1  0  0  0  0
 38 84  2  0  0  0  0
 39 72  1  0  0  0  0
 39 76  1  0  0  0  0
 39 85  2  0  0  0  0
 40 43  1  0  0  0  0
 41 50  1  0  0  0  0
 42 71  1  0  0  0  0
 43 45  1  0  0  0  0
 44 46  1  0  0  0  0
 44 47  1  0  0  0  0
 45 49  1  0  0  0  0
 46 51  1  0  0  0  0
 47 72  1  0  0  0  0
 48 51  1  0  0  0  0
 48 72  1  0  0  0  0
 49 77  1  0  0  0  0
 50 71  1  0  0  0  0
 51 70  1  0  0  0  0
 52 65  1  0  0  0  0
 53 66  1  0  0  0  0
 54 66  1  0  0  0  0
 55 66  1  0  0  0  0
 56 67  1  0  0  0  0
 57 67  1  0  0  0  0
 58 67  1  0  0  0  0
 59 68  1  0  0  0  0
 60 68  1  0  0  0  0
 61 80  1  0  0  0  0
 62 68  1  0  0  0  0
 62 79  1  0  0  0  0
 63 68  1  0  0  0  0
 63 87  1  0  0  0  0
 64 67  1  0  0  0  0
 64 78  1  0  0  0  0
 65 80  1  0  0  0  0
 69 70  1  0  0  0  0
M  CHG  2  79   1  80   1
M  ISO  4  39 100  63 101  76 100  87 101
M  END
> <Batch ID>
0139

> <Smiles>
CNC(C)C(=O)NC(C(=O)N1Cc2cc([101O:1][101CH2:1]C(C)(C)CNC(=N)c3cc([100NH:0][100C:0](=O)N4CCCC(n5nc(-c6ccc(Oc7ccc(F)cc7F)cc6)c(C(N)=O)c5N)C4)cc(C(C)(C)C)c3)ccc2CC1C(=O)NC1CCCc2ccccc21)C(C)(C)C

> <Shape>
0.272

> <Color>
0.057

> <Negative vol penalty>
0.000

$$$$

  -OEChem-04052302483D

 90 99  0     1  0  0  0  0  0999 V2000
  -24.9775  -17.9599   17.6714 C   0  0  0  0  0  0  0  0  0  0  0  0
  -25.2493  -19.1292   16.9683 C   0  0  0  0  0  0  0  0  0  0  0  0
  -31.3962  -23.6329   17.4627 C   0  0  0  0  0  0  0  0  0  0  0  0
  -25.5379  -14.1342   18.8422 C   0  0  0  0  0  0  0  0  0  0  0  0
  -25.3200  -13.9676   21.2426 C   0  0  0  0  0  0  0  0  0  0  0  0
  -23.9929  -17.9543   18.6585 C   0  0  0  0  0  0  0  0  0  0  0  0
  -24.5359  -20.2934   17.2513 C   0  0  0  0  0  0  0  0  0  0  0  0
  -27.1242  -27.3665   19.3245 C   0  0  0  0  0  0  0  0  0  0  0  0
  -31.4796  -24.9364   17.9519 C   0  0  0  0  0  0  0  0  0  0  0  0
  -30.5054  -22.7273   18.0390 C   0  0  0  0  0  0  0  0  0  0  0  0
  -24.6325  -13.0846   18.6871 C   0  0  0  0  0  0  0  0  0  0  0  0
  -24.4146  -12.9180   21.0875 C   0  0  0  0  0  0  0  0  0  0  0  0
  -27.4526  -28.6164   19.8498 C   0  0  0  0  0  0  0  0  0  0  0  0
  -24.5308   -9.6060   20.4181 C   0  0  0  0  0  0  0  0  0  0  0  0
  -24.6920   -8.4853   21.2328 C   0  0  0  0  0  0  0  0  0  0  0  0
  -29.3489  -28.8500   23.9728 C   0  0  0  0  0  0  0  0  0  0  0  0
  -30.4174  -28.0723   23.4664 C   0  0  0  0  0  0  0  0  0  0  0  0
  -25.2744  -28.7636   20.8898 C   0  0  0  0  0  0  0  0  0  0  0  0
  -29.7816  -24.4288   19.5939 C   0  0  0  0  0  0  0  0  0  0  0  0
  -22.4837   -8.8335   22.1488 C   0  0  0  0  0  0  0  0  0  0  0  0
  -25.8817  -14.5757   20.1199 C   0  0  0  0  0  0  0  0  0  0  0  0
  -28.1540  -15.7011   19.8409 C   0  0  0  0  0  0  0  0  0  0  0  0
  -23.2737  -19.1215   18.9604 C   0  0  0  0  0  0  0  0  0  0  0  0
  -25.8738  -26.8028   19.5930 C   0  0  0  0  0  0  0  0  0  0  0  0
  -23.5398  -20.3030   18.2424 C   0  0  0  0  0  0  0  0  0  0  0  0
  -24.9445  -27.5063   20.3768 C   0  0  0  0  0  0  0  0  0  0  0  0
  -30.6724  -25.3344   19.0175 C   0  0  0  0  0  0  0  0  0  0  0  0
  -29.6981  -23.1252   19.1046 C   0  0  0  0  0  0  0  0  0  0  0  0
  -24.0708  -12.4765   19.8098 C   0  0  0  0  0  0  0  0  0  0  0  0
  -26.5299  -29.3133   20.6303 C   0  0  0  0  0  0  0  0  0  0  0  0
  -23.3460  -10.3405   20.4688 C   0  0  0  0  0  0  0  0  0  0  0  0
  -23.6685   -8.0990   22.0981 C   0  0  0  0  0  0  0  0  0  0  0  0
  -22.3224   -9.9542   21.3341 C   0  0  0  0  0  0  0  0  0  0  0  0
  -26.8174  -15.6596   20.2808 C   0  0  0  0  0  0  0  0  0  0  0  0
  -29.1860  -29.8945   23.0928 C   0  0  0  0  0  0  0  0  0  0  0  0
  -30.8312  -28.6968   22.3128 C   0  0  0  0  0  0  0  0  0  0  0  0
  -28.6068  -16.9366   20.2345 C   0  0  0  0  0  0  0  0  0  0  0  0
  -28.9180  -14.7114   19.1390 C   0  0  0  0  0  0  0  0  0  0  0  0
  -23.5540  -23.8925   19.1191 C   0  0  0  0  0  0  0  0  0  0  0  0
  -23.2628  -24.7984   22.0354 C   0  0  0  0  0  0  0  0  0  0  0  0
  -23.9677  -25.4754   25.0267 C   0  0  0  0  0  0  0  0  0  0  0  0
  -27.9209  -22.4379   20.7524 C   0  0  0  0  0  0  0  0  0  0  0  0
  -22.1860  -19.0547   20.0030 C   0  0  0  0  0  0  0  0  0  0  0  0
  -25.4543  -25.4864   18.9972 C   0  0  0  0  0  0  0  0  0  0  0  0
  -23.5986  -26.8764   20.6108 C   0  0  0  0  0  0  0  0  0  0  0  0
  -21.7346  -20.4253   20.5010 C   0  0  0  0  0  0  0  0  0  0  0  0
  -26.5271  -20.3826   23.3040 C   0  0  0  0  0  0  0  0  0  0  0  0
  -21.5081  -21.3720   19.3266 C   0  0  0  0  0  0  0  0  0  0  0  0
  -26.5884  -18.9741   22.7087 C   0  0  0  0  0  0  0  0  0  0  0  0
  -26.2049  -21.4333   22.2428 C   0  0  0  0  0  0  0  0  0  0  0  0
  -27.1402  -20.0038   20.4677 C   0  0  0  0  0  0  0  0  0  0  0  0
  -22.8044  -21.5923   18.5376 C   0  0  1  0  0  0  0  0  0  0  0  0
  -24.5540  -24.6600   19.9329 C   0  0  1  0  0  0  0  0  0  0  0  0
  -27.5259  -18.9190   21.4866 C   0  0  2  0  0  0  0  0  0  0  0  0
  -23.4627  -25.6471   27.4788 C   0  0  0  0  0  0  0  0  0  0  0  0
  -25.8055  -31.7190   22.9367 C   0  0  0  0  0  0  0  0  0  0  0  0
  -32.0115  -29.4118   20.1251 C   0  0  0  0  0  0  0  0  0  0  0  0
  -33.3106  -28.4531   22.0042 C   0  0  0  0  0  0  0  0  0  0  0  0
  -20.6926  -26.2671   21.3001 C   0  0  0  0  0  0  0  0  0  0  0  0
  -20.2843  -26.6292   23.7435 C   0  0  0  0  0  0  0  0  0  0  0  0
  -20.3767  -24.3113   22.8262 C   0  0  0  0  0  0  0  0  0  0  0  0
  -26.1872  -23.6484   25.7300 C   0  0  0  0  0  0  0  0  0  0  0  0
  -30.7629  -26.7429   19.5458 C   0  0  0  0  0  0  0  0  0  0  0  0
  -28.2360  -31.0679   23.0453 C   0  0  0  0  0  0  0  0  0  0  0  0
  -31.7922  -26.9460   20.6726 C   0  0  0  0  0  0  0  0  0  0  0  0
  -22.5114  -25.6512   23.0260 C   0  0  1  0  0  0  0  0  0  0  0  0
  -24.0598  -24.7865   26.3762 C   0  0  2  0  0  0  0  0  0  0  0  0
  -26.8384  -30.6629   22.5644 C   0  0  2  0  0  0  0  0  0  1  0  0
  -31.8829  -28.3991   21.3303 C   0  0  0  0  0  0  0  0  0  0  0  0
  -20.9903  -25.7237   22.7118 C   0  0  0  0  0  0  0  0  0  0  0  0
  -26.4454  -16.7796   20.9062 N   0  0  0  0  0  0  0  0  0  0  0  0
  -27.5550  -17.5365   20.8622 N   0  0  0  0  0  0  0  0  0  0  0  0
  -23.7580  -25.4416   20.8946 N   0  0  0  0  0  0  0  0  0  0  0  0
  -27.1362  -21.3237   21.1178 N   0  0  0  0  0  0  0  0  0  0  0  0
  -29.7982  -17.5575   20.1017 N   0  0  0  0  0  0  0  0  0  0  0  0
  -29.6424  -13.7727   19.8863 N   0  0  0  0  0  0  0  0  0  0  0  0
  -28.7929  -22.2053   19.6894 N   0  0  0  0  0  0  0  0  0  0  0  0
  -23.6688  -22.5203   19.2348 N   0  0  0  0  0  0  0  0  0  0  0  0
  -22.8239  -25.1148   24.3462 N   0  0  0  0  0  0  0  0  0  0  0  0
  -25.4828  -24.5053   26.7182 N   0  3  0  0  0  0  0  0  0  0  0  0
  -28.9701  -14.6710   17.8864 O   0  0  0  0  0  0  0  0  0  0  0  0
  -22.7367  -24.4995   18.4369 O   0  0  0  0  0  0  0  0  0  0  0  0
  -23.4035  -23.5932   22.2617 O   0  0  0  0  0  0  0  0  0  0  0  0
  -24.8228  -26.2582   24.6186 O   0  0  0  0  0  0  0  0  0  0  0  0
  -27.8458  -23.5107   21.3568 O   0  0  0  0  0  0  0  0  0  0  0  0
  -30.0856  -29.8083   22.0780 O   0  0  0  0  0  0  0  0  0  0  0  0
  -23.1871  -11.4523   19.6588 O   0  0  0  0  0  0  0  0  0  0  0  0
  -26.8587  -30.5311   21.1437 O   0  0  0  0  0  0  0  0  0  1  0  0
  -23.8229   -7.0219   22.8792 F   0  0  0  0  0  0  0  0  0  0  0  0
  -21.1815  -10.6551   21.3864 F   0  0  0  0  0  0  0  0  0  0  0  0
  1  2  1  0  0  0  0
  1  6  2  0  0  0  0
  2  7  2  0  0  0  0
  3  9  2  0  0  0  0
  3 10  1  0  0  0  0
  4 11  2  0  0  0  0
  4 21  1  0  0  0  0
  5 12  1  0  0  0  0
  5 21  2  0  0  0  0
  6 23  1  0  0  0  0
  7 25  1  0  0  0  0
  8 13  2  0  0  0  0
  8 24  1  0  0  0  0
  9 27  1  0  0  0  0
 10 28  2  0  0  0  0
 11 29  1  0  0  0  0
 12 29  2  0  0  0  0
 13 30  1  0  0  0  0
 14 15  2  0  0  0  0
 14 31  1  0  0  0  0
 15 32  1  0  0  0  0
 16 17  1  0  0  0  0
 16 35  2  0  0  0  0
 17 36  2  0  0  0  0
 18 26  1  0  0  0  0
 18 30  2  0  0  0  0
 19 27  2  0  0  0  0
 19 28  1  0  0  0  0
 20 32  2  0  0  0  0
 20 33  1  0  0  0  0
 21 34  1  0  0  0  0
 22 34  1  0  0  0  0
 22 37  2  0  0  0  0
 22 38  1  0  0  0  0
 23 25  2  0  0  0  0
 23 43  1  0  0  0  0
 24 26  2  0  0  0  0
 24 44  1  0  0  0  0
 25 52  1  0  0  0  0
 26 45  1  0  0  0  0
 27 63  1  0  0  0  0
 28 77  1  0  0  0  0
 29 87  1  0  0  0  0
 30 88  1  0  0  0  0
 31 33  2  0  0  0  0
 31 87  1  0  0  0  0
 32 89  1  0  0  0  0
 33 90  1  0  0  0  0
 34 71  2  0  0  0  0
 35 64  1  0  0  0  0
 35 86  1  0  0  0  0
 36 69  1  0  0  0  0
 36 86  1  0  0  0  0
 37 72  1  0  0  0  0
 37 75  1  0  0  0  0
 38 76  1  0  0  0  0
 38 81  2  0  0  0  0
 39 53  1  0  0  0  0
 39 78  1  0  0  0  0
 39 82  2  0  0  0  0
 40 66  1  0  0  0  0
 40 73  1  0  0  0  0
 40 83  2  0  0  0  0
 41 67  1  0  0  0  0
 41 79  1  0  0  0  0
 41 84  2  0  0  0  0
 42 74  1  0  0  0  0
 42 77  1  0  0  0  0
 42 85  2  0  0  0  0
 43 46  1  0  0  0  0
 44 53  1  0  0  0  0
 45 73  1  0  0  0  0
 46 48  1  0  0  0  0
 47 49  1  0  0  0  0
 47 50  1  0  0  0  0
 48 52  1  0  0  0  0
 49 54  1  0  0  0  0
 50 74  1  0  0  0  0
 51 54  1  0  0  0  0
 51 74  1  0  0  0  0
 52 78  1  0  0  0  0
 53 73  1  0  0  0  0
 54 72  1  0  0  0  0
 55 67  1  0  0  0  0
 56 68  1  0  0  0  0
 57 69  1  0  0  0  0
 58 69  1  0  0  0  0
 59 70  1  0  0  0  0
 60 70  1  0  0  0  0
 61 70  1  0  0  0  0
 62 80  1  0  0  0  0
 63 65  1  0  0  0  0
 64 68  1  0  0  0  0
 65 69  1  0  0  0  0
 66 70  1  0  0  0  0
 66 79  1  0  0  0  0
 67 80  1  0  0  0  0
 68 88  1  0  0  0  0
 71 72  1  0  0  0  0
M  CHG  1  80   1
M  ISO  4  42 100  68 101  77 100  88 101
M  END
> <Batch ID>
0139

> <Smiles>
CNC(C)C(=O)NC(C(=O)N1Cc2cc([101O:1][101CH:1](C)Cc3ccc(C(C)(C)CCc4cccc([100NH:0][100C:0](=O)N5CCCC(n6nc(-c7ccc(Oc8ccc(F)cc8F)cc7)c(C(N)=O)c6N)C5)c4)o3)ccc2CC1C(=O)NC1CCCc2ccccc21)C(C)(C)C

> <Shape>
0.226

> <Color>
0.052

> <Negative vol penalty>
0.000

$$$$

  -OEChem-04052302483D

 86 94  0     1  0  0  0  0  0999 V2000
  -22.6195  -25.2476   28.5980 C   0  0  0  0  0  0  0  0  0  0  0  0
  -23.4513  -25.1559   27.4866 C   0  0  0  0  0  0  0  0  0  0  0  0
  -22.9804   -9.9181   19.9923 C   0  0  0  0  0  0  0  0  0  0  0  0
  -23.7068   -9.9705   22.2959 C   0  0  0  0  0  0  0  0  0  0  0  0
  -21.3843  -24.6009   28.5980 C   0  0  0  0  0  0  0  0  0  0  0  0
  -23.0488  -24.4165   26.3750 C   0  0  0  0  0  0  0  0  0  0  0  0
  -23.9252  -26.8343   22.0125 C   0  0  0  0  0  0  0  0  0  0  0  0
  -22.2042   -8.7912   20.2627 C   0  0  0  0  0  0  0  0  0  0  0  0
  -22.9305   -8.8436   22.5664 C   0  0  0  0  0  0  0  0  0  0  0  0
  -25.2345  -26.8286   21.5333 C   0  0  0  0  0  0  0  0  0  0  0  0
  -23.1457   -5.5011   22.1057 C   0  0  0  0  0  0  0  0  0  0  0  0
  -23.7246   -4.4814   22.8610 C   0  0  0  0  0  0  0  0  0  0  0  0
  -24.6611  -25.0519   20.0057 C   0  0  0  0  0  0  0  0  0  0  0  0
  -30.3435  -19.1587   22.5442 C   0  0  0  0  0  0  0  0  0  0  0  0
  -30.9067  -18.9971   20.2003 C   0  0  0  0  0  0  0  0  0  0  0  0
  -22.0035   -4.7449   24.5360 C   0  0  0  0  0  0  0  0  0  0  0  0
  -23.7318  -10.5077   21.0089 C   0  0  0  0  0  0  0  0  0  0  0  0
  -24.1389  -13.0193   20.8243 C   0  0  0  0  0  0  0  0  0  0  0  0
  -20.9623  -23.8612   27.4820 C   0  0  0  0  0  0  0  0  0  0  0  0
  -22.9753  -25.9399   21.4987 C   0  0  0  0  0  0  0  0  0  0  0  0
  -21.8074  -23.7582   26.3606 C   0  0  0  0  0  0  0  0  0  0  0  0
  -23.3399  -25.0500   20.4783 C   0  0  0  0  0  0  0  0  0  0  0  0
  -30.1352  -17.7803   22.5892 C   0  0  0  0  0  0  0  0  0  0  0  0
  -30.7292  -19.7672   21.3497 C   0  0  0  0  0  0  0  0  0  0  0  0
  -30.3126  -17.0102   21.4398 C   0  0  0  0  0  0  0  0  0  0  0  0
  -22.1792   -8.2540   21.5497 C   0  0  0  0  0  0  0  0  0  0  0  0
  -25.6033  -25.9353   20.5317 C   0  0  0  0  0  0  0  0  0  0  0  0
  -21.9957   -6.1428   22.5655 C   0  0  0  0  0  0  0  0  0  0  0  0
  -23.1536   -4.1033   24.0761 C   0  0  0  0  0  0  0  0  0  0  0  0
  -30.6984  -17.6186   20.2453 C   0  0  0  0  0  0  0  0  0  0  0  0
  -21.4246   -5.7647   23.7806 C   0  0  0  0  0  0  0  0  0  0  0  0
  -24.5343  -11.6715   20.7300 C   0  0  0  0  0  0  0  0  0  0  0  0
  -25.2548  -13.7309   20.4571 C   0  0  0  0  0  0  0  0  0  0  0  0
  -30.1899  -21.8111   20.4793 C   0  0  0  0  0  0  0  0  0  0  0  0
  -22.8759  -13.5780   21.2093 C   0  0  0  0  0  0  0  0  0  0  0  0
  -21.2275  -23.5803   22.7158 C   0  0  0  0  0  0  0  0  0  0  0  0
  -29.0852  -24.0729   20.6987 C   0  0  0  0  0  0  0  0  0  0  0  0
  -19.8839  -23.5757   19.7633 C   0  0  0  0  0  0  0  0  0  0  0  0
  -20.1759  -24.3227   16.4461 C   0  0  0  0  0  0  0  0  0  0  0  0
  -30.7425  -14.6452   20.6860 C   0  0  0  0  0  0  0  0  0  0  0  0
  -19.6390  -23.1404   27.5470 C   0  0  0  0  0  0  0  0  0  0  0  0
  -21.5604  -25.9769   22.0077 C   0  0  0  0  0  0  0  0  0  0  0  0
  -22.3526  -24.0833   19.8789 C   0  0  0  0  0  0  0  0  0  0  0  0
  -19.1251  -22.6865   26.1832 C   0  0  0  0  0  0  0  0  0  0  0  0
  -29.6021  -12.1943   18.3687 C   0  0  0  0  0  0  0  0  0  0  0  0
  -20.2401  -22.0127   25.3897 C   0  0  0  0  0  0  0  0  0  0  0  0
  -28.1495  -11.9506   18.7842 C   0  0  0  0  0  0  0  0  0  0  0  0
  -30.5051  -12.4339   19.5774 C   0  0  0  0  0  0  0  0  0  0  0  0
  -28.5972  -13.2439   20.9088 C   0  0  0  0  0  0  0  0  0  0  0  0
  -21.3954  -22.9860   25.1261 C   0  0  1  0  0  0  0  0  0  0  0  0
  -20.8065  -24.6715   21.7726 C   0  0  1  0  0  0  0  0  0  0  0  0
  -27.6375  -13.0618   19.7216 C   0  0  2  0  0  0  0  0  0  0  0  0
  -29.7230  -17.1552   23.8825 C   0  0  0  0  0  0  0  0  0  0  0  0
  -18.9277  -24.1676   14.2747 C   0  0  0  0  0  0  0  0  0  0  0  0
  -20.5050  -20.5917   19.6222 C   0  0  0  0  0  0  0  0  0  0  0  0
  -20.1275  -20.7010   17.1496 C   0  0  0  0  0  0  0  0  0  0  0  0
  -18.2633  -21.2345   18.7189 C   0  0  0  0  0  0  0  0  0  0  0  0
  -20.1817  -27.2618   16.0993 C   0  0  0  0  0  0  0  0  0  0  0  0
  -30.3345  -23.2987   20.3310 C   0  0  0  0  0  0  0  0  0  0  0  0
  -29.1998  -25.5882   20.6094 C   0  0  0  0  0  0  0  0  0  0  0  0
  -27.9101  -26.3067   20.9751 C   0  0  0  0  0  0  0  0  0  1  0  0
  -20.1716  -22.8724   18.4589 C   0  0  1  0  0  0  0  0  0  0  0  0
  -19.2372  -25.0321   15.4869 C   0  0  2  0  0  0  0  0  0  0  0  0
  -19.7862  -21.3667   18.4998 C   0  0  0  0  0  0  0  0  0  0  0  0
  -25.8023  -11.5326   20.3339 N   0  0  0  0  0  0  0  0  0  0  0  0
  -30.9390  -21.1557   21.3044 N   0  0  0  0  0  0  0  0  0  0  0  0
  -26.2133  -12.8023   20.1758 N   0  0  0  0  0  0  0  0  0  0  0  0
  -20.9829  -24.1536   20.4144 N   0  0  0  0  0  0  0  0  0  0  0  0
  -29.9596  -13.5025   20.4173 N   0  0  0  0  0  0  0  0  0  0  0  0
  -25.4997  -15.0542   20.3504 N   0  0  0  0  0  0  0  0  0  0  0  0
  -21.8366  -12.7040   21.5562 N   0  0  0  0  0  0  0  0  0  0  0  0
  -30.1068  -15.6086   21.4685 N   0  0  0  0  0  0  0  0  0  0  0  0
  -21.0564  -23.8934   24.0507 N   0  0  0  0  0  0  0  0  0  0  0  0
  -19.4854  -23.6369   17.4229 N   0  0  0  0  0  0  0  0  0  0  0  0
  -19.8475  -26.3061   15.0122 N   0  3  0  0  0  0  0  0  0  0  0  0
  -22.6699  -14.8152   21.2290 O   0  0  0  0  0  0  0  0  0  0  0  0
  -21.6731  -22.5312   22.2656 O   0  0  0  0  0  0  0  0  0  0  0  0
  -28.0478  -23.5073   21.0410 O   0  0  0  0  0  0  0  0  0  0  0  0
  -18.7255  -23.6171   20.1853 O   0  0  0  0  0  0  0  0  0  0  0  0
  -21.3993  -24.3690   16.3374 O   0  0  0  0  0  0  0  0  0  0  0  0
  -31.8821  -14.7727   20.2311 O   0  0  0  0  0  0  0  0  0  0  0  0
  -21.4216   -7.1545   21.8140 O   0  0  0  0  0  0  0  0  0  0  0  0
  -26.8807  -25.9272   20.0626 O   0  0  0  0  0  0  0  0  0  1  0  0
  -23.7087   -3.1230   24.8006 F   0  0  0  0  0  0  0  0  0  0  0  0
  -30.8732  -16.8892   19.1340 F   0  0  0  0  0  0  0  0  0  0  0  0
  -20.3191   -6.3767   24.2270 F   0  0  0  0  0  0  0  0  0  0  0  0
  1  2  1  0  0  0  0
  1  5  2  0  0  0  0
  2  6  2  0  0  0  0
  3  8  2  0  0  0  0
  3 17  1  0  0  0  0
  4  9  1  0  0  0  0
  4 17  2  0  0  0  0
  5 19  1  0  0  0  0
  6 21  1  0  0  0  0
  7 10  2  0  0  0  0
  7 20  1  0  0  0  0
  8 26  1  0  0  0  0
  9 26  2  0  0  0  0
 10 27  1  0  0  0  0
 11 12  2  0  0  0  0
 11 28  1  0  0  0  0
 12 29  1  0  0  0  0
 13 22  1  0  0  0  0
 13 27  2  0  0  0  0
 14 23  2  0  0  0  0
 14 24  1  0  0  0  0
 15 24  2  0  0  0  0
 15 30  1  0  0  0  0
 16 29  2  0  0  0  0
 16 31  1  0  0  0  0
 17 32  1  0  0  0  0
 18 32  1  0  0  0  0
 18 33  2  0  0  0  0
 18 35  1  0  0  0  0
 19 21  2  0  0  0  0
 19 41  1  0  0  0  0
 20 22  2  0  0  0  0
 20 42  1  0  0  0  0
 21 50  1  0  0  0  0
 22 43  1  0  0  0  0
 23 25  1  0  0  0  0
 23 53  1  0  0  0  0
 24 66  1  0  0  0  0
 25 30  2  0  0  0  0
 25 72  1  0  0  0  0
 26 82  1  0  0  0  0
 27 83  1  0  0  0  0
 28 31  2  0  0  0  0
 28 82  1  0  0  0  0
 29 84  1  0  0  0  0
 30 85  1  0  0  0  0
 31 86  1  0  0  0  0
 32 65  2  0  0  0  0
 33 67  1  0  0  0  0
 33 70  1  0  0  0  0
 34 59  1  0  0  0  0
 34 66  2  0  0  0  0
 35 71  1  0  0  0  0
 35 76  2  0  0  0  0
 36 51  1  0  0  0  0
 36 73  1  0  0  0  0
 36 77  2  0  0  0  0
 37 59  1  0  0  0  0
 37 60  1  0  0  0  0
 37 78  2  0  0  0  0
 38 62  1  0  0  0  0
 38 68  1  0  0  0  0
 38 79  2  0  0  0  0
 39 63  1  0  0  0  0
 39 74  1  0  0  0  0
 39 80  2  0  0  0  0
 40 69  1  0  0  0  0
 40 72  1  0  0  0  0
 40 81  2  0  0  0  0
 41 44  1  0  0  0  0
 42 51  1  0  0  0  0
 43 68  1  0  0  0  0
 44 46  1  0  0  0  0
 45 47  1  0  0  0  0
 45 48  1  0  0  0  0
 46 50  1  0  0  0  0
 47 52  1  0  0  0  0
 48 69  1  0  0  0  0
 49 52  1  0  0  0  0
 49 69  1  0  0  0  0
 50 73  1  0  0  0  0
 51 68  1  0  0  0  0
 52 67  1  0  0  0  0
 54 63  1  0  0  0  0
 55 64  1  0  0  0  0
 56 64  1  0  0  0  0
 57 64  1  0  0  0  0
 58 75  1  0  0  0  0
 60 61  1  0  0  0  0
 61 83  1  0  0  0  0
 62 64  1  0  0  0  0
 62 74  1  0  0  0  0
 63 75  1  0  0  0  0
 65 67  1  0  0  0  0
M  CHG  1  75   1
M  ISO  4  40 100  61 101  72 100  83 101
M  END
> <Batch ID>
0139

> <Smiles>
CNC(C)C(=O)NC(C(=O)N1Cc2cc([101O:1][101CH2:1]CC(=O)C=CNc3cc(C)c([100NH:0][100C:0](=O)N4CCCC(n5nc(-c6ccc(Oc7ccc(F)cc7F)cc6)c(C(N)=O)c5N)C4)c(F)c3)ccc2CC1C(=O)NC1CCCc2ccccc21)C(C)(C)C

> <Shape>
0.232

> <Color>
0.199

> <Negative vol penalty>
0.000

$$$$

  -OEChem-04052302483D

 86 94  0     1  0  0  0  0  0999 V2000
  -30.5052  -24.7314   19.2261 C   0  0  0  0  0  0  0  0  0  0  0  0
  -29.1228  -24.8382   19.1130 C   0  0  0  0  0  0  0  0  0  0  0  0
  -28.2434  -16.6389   21.2953 C   0  0  0  0  0  0  0  0  0  0  0  0
  -25.8857  -16.7067   20.7719 C   0  0  0  0  0  0  0  0  0  0  0  0
  -31.1614  -25.3091   20.3122 C   0  0  0  0  0  0  0  0  0  0  0  0
  -28.3955  -25.5218   20.0867 C   0  0  0  0  0  0  0  0  0  0  0  0
  -23.3606  -28.9005   19.2259 C   0  0  0  0  0  0  0  0  0  0  0  0
  -20.0754  -25.0497   24.9298 C   0  0  0  0  0  0  0  0  0  0  0  0
  -21.3899  -24.5852   24.9724 C   0  0  0  0  0  0  0  0  0  0  0  0
  -28.2332  -15.2505   21.1613 C   0  0  0  0  0  0  0  0  0  0  0  0
  -25.8755  -15.3183   20.6379 C   0  0  0  0  0  0  0  0  0  0  0  0
  -22.0046  -28.6224   19.3921 C   0  0  0  0  0  0  0  0  0  0  0  0
  -28.2673  -12.9904   18.6467 C   0  0  0  0  0  0  0  0  0  0  0  0
  -29.3044  -12.4014   17.9233 C   0  0  0  0  0  0  0  0  0  0  0  0
  -22.0761  -29.6169   21.5887 C   0  0  0  0  0  0  0  0  0  0  0  0
  -20.0086  -24.6423   22.5493 C   0  0  0  0  0  0  0  0  0  0  0  0
  -29.9458  -11.1322   19.8765 C   0  0  0  0  0  0  0  0  0  0  0  0
  -27.0696  -17.3670   21.1007 C   0  0  0  0  0  0  0  0  0  0  0  0
  -27.3303  -19.7511   20.2313 C   0  0  0  0  0  0  0  0  0  0  0  0
  -30.4428  -26.0084   21.2947 C   0  0  0  0  0  0  0  0  0  0  0  0
  -24.0883  -29.5302   20.2459 C   0  0  0  0  0  0  0  0  0  0  0  0
  -29.0424  -26.1083   21.1877 C   0  0  0  0  0  0  0  0  0  0  0  0
  -23.4406  -29.9042   21.4320 C   0  0  0  0  0  0  0  0  0  0  0  0
  -19.3847  -25.0782   23.7182 C   0  0  0  0  0  0  0  0  0  0  0  0
  -21.3232  -24.1779   22.5919 C   0  0  0  0  0  0  0  0  0  0  0  0
  -22.0138  -24.1493   23.8035 C   0  0  0  0  0  0  0  0  0  0  0  0
  -27.0493  -14.5902   20.8326 C   0  0  0  0  0  0  0  0  0  0  0  0
  -21.3628  -28.9779   20.5748 C   0  0  0  0  0  0  0  0  0  0  0  0
  -28.0696  -12.6504   19.9850 C   0  0  0  0  0  0  0  0  0  0  0  0
  -30.1436  -11.4722   18.5382 C   0  0  0  0  0  0  0  0  0  0  0  0
  -28.9088  -11.7213   20.5999 C   0  0  0  0  0  0  0  0  0  0  0  0
  -27.0793  -18.8011   21.2395 C   0  0  0  0  0  0  0  0  0  0  0  0
  -27.2230  -20.9635   20.8677 C   0  0  0  0  0  0  0  0  0  0  0  0
  -27.6331  -19.5551   18.8437 C   0  0  0  0  0  0  0  0  0  0  0  0
  -26.5815  -28.7272   22.0467 C   0  0  0  0  0  0  0  0  0  0  0  0
  -18.4007  -27.5128   22.0617 C   0  0  0  0  0  0  0  0  0  0  0  0
  -26.3321  -31.7939   23.0741 C   0  0  0  0  0  0  0  0  0  0  0  0
  -24.3697  -34.5507   23.5163 C   0  0  0  0  0  0  0  0  0  0  0  0
  -24.1611  -23.5946   24.9984 C   0  0  0  0  0  0  0  0  0  0  0  0
  -31.1906  -26.5755   22.4753 C   0  0  0  0  0  0  0  0  0  0  0  0
  -25.5442  -29.8473   20.0404 C   0  0  0  0  0  0  0  0  0  0  0  0
  -24.1722  -30.6004   22.5494 C   0  0  0  0  0  0  0  0  0  0  0  0
  -30.3880  -27.6041   23.2677 C   0  0  0  0  0  0  0  0  0  0  0  0
  -27.4876  -22.4639   25.5754 C   0  0  0  0  0  0  0  0  0  0  0  0
  -28.9740  -27.0937   23.5265 C   0  0  0  0  0  0  0  0  0  0  0  0
  -27.7477  -21.4968   24.4182 C   0  0  0  0  0  0  0  0  0  0  0  0
  -26.0451  -22.3802   26.0712 C   0  0  0  0  0  0  0  0  0  0  0  0
  -25.2809  -21.5707   23.8735 C   0  0  0  0  0  0  0  0  0  0  0  0
  -28.2213  -26.8631   22.2106 C   0  0  1  0  0  0  0  0  0  0  0  0
  -26.3066  -30.0293   21.3492 C   0  0  1  0  0  0  0  0  0  0  0  0
  -26.7031  -21.6652   23.2974 C   0  0  2  0  0  0  0  0  0  0  0  0
  -22.9417  -24.7523   20.7652 C   0  0  0  0  0  0  0  0  0  0  0  0
  -24.4365  -36.8927   24.4152 C   0  0  0  0  0  0  0  0  0  0  0  0
  -16.2923  -27.5048   23.4386 C   0  0  0  0  0  0  0  0  0  0  0  0
  -18.4754  -27.8792   24.5555 C   0  0  0  0  0  0  0  0  0  0  0  0
  -26.2433  -30.7010   25.9215 C   0  0  0  0  0  0  0  0  0  0  0  0
  -25.3706  -32.9240   26.6731 C   0  0  0  0  0  0  0  0  0  0  0  0
  -27.6339  -32.7601   25.6373 C   0  0  0  0  0  0  0  0  0  0  0  0
  -23.6932  -35.7068   20.8772 C   0  0  0  0  0  0  0  0  0  0  0  0
  -17.9605  -25.5841   23.6718 C   0  0  0  0  0  0  0  0  0  0  0  0
  -21.9676  -23.7199   21.3237 C   0  0  0  0  0  0  0  0  0  0  0  0
  -19.5875  -28.4638   22.0714 C   0  0  0  0  0  0  0  0  0  1  0  0
  -25.5831  -32.4923   24.1832 C   0  0  1  0  0  0  0  0  0  0  0  0
  -24.5991  -36.0142   23.1845 C   0  0  2  0  0  0  0  0  0  0  0  0
  -17.7812  -27.1050   23.4179 C   0  0  0  0  0  0  0  0  0  0  0  0
  -26.1941  -32.2045   25.5837 C   0  0  0  0  0  0  0  0  0  0  0  0
  -26.8315  -19.3618   22.4262 N   0  0  0  0  0  0  0  0  0  0  0  0
  -26.9263  -20.6772   22.1677 N   0  0  0  0  0  0  0  0  0  0  0  0
  -25.5959  -30.8831   22.3033 N   0  0  0  0  0  0  0  0  0  0  0  0
  -25.1119  -22.5530   24.9558 N   0  0  0  0  0  0  0  0  0  0  0  0
  -27.3546  -22.2360   20.4364 N   0  0  0  0  0  0  0  0  0  0  0  0
  -27.7048  -18.2437   18.3542 N   0  0  0  0  0  0  0  0  0  0  0  0
  -23.3496  -23.6812   23.8676 N   0  0  0  0  0  0  0  0  0  0  0  0
  -27.7630  -28.1219   21.6631 N   0  0  0  0  0  0  0  0  0  0  0  0
  -25.5488  -33.9062   23.8254 N   0  0  0  0  0  0  0  0  0  0  0  0
  -23.6273  -36.4694   22.1504 N   0  3  0  0  0  0  0  0  0  0  0  0
  -27.8504  -20.5139   18.0646 O   0  0  0  0  0  0  0  0  0  0  0  0
  -25.7817  -28.3037   22.8730 O   0  0  0  0  0  0  0  0  0  0  0  0
  -17.9705  -27.0624   20.9969 O   0  0  0  0  0  0  0  0  0  0  0  0
  -27.5247  -32.0525   22.8935 O   0  0  0  0  0  0  0  0  0  0  0  0
  -23.2555  -34.0321   23.5062 O   0  0  0  0  0  0  0  0  0  0  0  0
  -24.0913  -24.3708   25.9547 O   0  0  0  0  0  0  0  0  0  0  0  0
  -27.0391  -13.2355   20.7015 O   0  0  0  0  0  0  0  0  0  0  0  0
  -20.0395  -28.7070   20.7399 O   0  0  0  0  0  0  0  0  0  1  0  0
  -31.1384  -10.9055   17.8431 F   0  0  0  0  0  0  0  0  0  0  0  0
  -28.7230  -11.3898   21.8849 F   0  0  0  0  0  0  0  0  0  0  0  0
  1  2  1  0  0  0  0
  1  5  2  0  0  0  0
  2  6  2  0  0  0  0
  3 10  2  0  0  0  0
  3 18  1  0  0  0  0
  4 11  1  0  0  0  0
  4 18  2  0  0  0  0
  5 20  1  0  0  0  0
  6 22  1  0  0  0  0
  7 12  2  0  0  0  0
  7 21  1  0  0  0  0
  8  9  2  0  0  0  0
  8 24  1  0  0  0  0
  9 26  1  0  0  0  0
 10 27  1  0  0  0  0
 11 27  2  0  0  0  0
 12 28  1  0  0  0  0
 13 14  2  0  0  0  0
 13 29  1  0  0  0  0
 14 30  1  0  0  0  0
 15 23  1  0  0  0  0
 15 28  2  0  0  0  0
 16 24  2  0  0  0  0
 16 25  1  0  0  0  0
 17 30  2  0  0  0  0
 17 31  1  0  0  0  0
 18 32  1  0  0  0  0
 19 32  1  0  0  0  0
 19 33  2  0  0  0  0
 19 34  1  0  0  0  0
 20 22  2  0  0  0  0
 20 40  1  0  0  0  0
 21 23  2  0  0  0  0
 21 41  1  0  0  0  0
 22 49  1  0  0  0  0
 23 42  1  0  0  0  0
 24 60  1  0  0  0  0
 25 26  2  0  0  0  0
 25 61  1  0  0  0  0
 26 73  1  0  0  0  0
 27 83  1  0  0  0  0
 28 84  1  0  0  0  0
 29 31  2  0  0  0  0
 29 83  1  0  0  0  0
 30 85  1  0  0  0  0
 31 86  1  0  0  0  0
 32 67  2  0  0  0  0
 33 68  1  0  0  0  0
 33 71  1  0  0  0  0
 34 72  1  0  0  0  0
 34 77  2  0  0  0  0
 35 50  1  0  0  0  0
 35 74  1  0  0  0  0
 35 78  2  0  0  0  0
 36 62  1  0  0  0  0
 36 65  1  0  0  0  0
 36 79  2  0  0  0  0
 37 63  1  0  0  0  0
 37 69  1  0  0  0  0
 37 80  2  0  0  0  0
 38 64  1  0  0  0  0
 38 75  1  0  0  0  0
 38 81  2  0  0  0  0
 39 70  1  0  0  0  0
 39 73  1  0  0  0  0
 39 82  2  0  0  0  0
 40 43  1  0  0  0  0
 41 50  1  0  0  0  0
 42 69  1  0  0  0  0
 43 45  1  0  0  0  0
 44 46  1  0  0  0  0
 44 47  1  0  0  0  0
 45 49  1  0  0  0  0
 46 51  1  0  0  0  0
 47 70  1  0  0  0  0
 48 51  1  0  0  0  0
 48 70  1  0  0  0  0
 49 74  1  0  0  0  0
 50 69  1  0  0  0  0
 51 68  1  0  0  0  0
 52 61  1  0  0  0  0
 53 64  1  0  0  0  0
 54 65  1  0  0  0  0
 55 65  1  0  0  0  0
 56 66  1  0  0  0  0
 57 66  1  0  0  0  0
 58 66  1  0  0  0  0
 59 76  1  0  0  0  0
 60 65  1  0  0  0  0
 62 84  1  0  0  0  0
 63 66  1  0  0  0  0
 63 75  1  0  0  0  0
 64 76  1  0  0  0  0
 67 68  1  0  0  0  0
M  CHG  1  76   1
M  ISO  4  39 100  62 101  73 100  84 101
M  END
> <Batch ID>
0139

> <Smiles>
CCc1cc(CC(C)(C)C(=O)[101CH2:1][101O:1]c2ccc3c(c2)CN(C(=O)C(NC(=O)C(C)NC)C(C)(C)C)C(C(=O)NC2CCCc4ccccc42)C3)ccc1[100NH:0][100C:0](=O)N1CCCC(n2nc(-c3ccc(Oc4ccc(F)cc4F)cc3)c(C(N)=O)c2N)C1

> <Shape>
0.297

> <Color>
0.051

> <Negative vol penalty>
0.000

$$$$

  -OEChem-04052302483D

 86 94  0     1  0  0  0  0  0999 V2000
  -29.7439  -15.2585   24.4726 C   0  0  0  0  0  0  0  0  0  0  0  0
  -29.7647  -16.6401   24.6265 C   0  0  0  0  0  0  0  0  0  0  0  0
  -27.4737  -19.0502   19.7529 C   0  0  0  0  0  0  0  0  0  0  0  0
  -23.1116   -9.8549   21.4327 C   0  0  0  0  0  0  0  0  0  0  0  0
  -23.8545  -10.7312   23.5581 C   0  0  0  0  0  0  0  0  0  0  0  0
  -28.5293  -14.5764   24.4990 C   0  0  0  0  0  0  0  0  0  0  0  0
  -28.5723  -17.3387   24.8188 C   0  0  0  0  0  0  0  0  0  0  0  0
  -28.9338  -22.1330   25.8614 C   0  0  0  0  0  0  0  0  0  0  0  0
  -28.4101  -18.0426   19.9843 C   0  0  0  0  0  0  0  0  0  0  0  0
  -27.8296  -20.3872   19.9308 C   0  0  0  0  0  0  0  0  0  0  0  0
  -22.3900   -8.8615   22.0945 C   0  0  0  0  0  0  0  0  0  0  0  0
  -23.1329   -9.7378   24.2199 C   0  0  0  0  0  0  0  0  0  0  0  0
  -29.3142  -23.0835   24.9151 C   0  0  0  0  0  0  0  0  0  0  0  0
  -23.0288   -5.9028   23.5986 C   0  0  0  0  0  0  0  0  0  0  0  0
  -23.1238   -4.5997   23.1104 C   0  0  0  0  0  0  0  0  0  0  0  0
  -27.0151  -23.7816   24.7008 C   0  0  0  0  0  0  0  0  0  0  0  0
  -20.7389   -4.5704   22.7246 C   0  0  0  0  0  0  0  0  0  0  0  0
  -23.8439  -10.7897   22.1645 C   0  0  0  0  0  0  0  0  0  0  0  0
  -24.1342  -13.0958   21.1132 C   0  0  0  0  0  0  0  0  0  0  0  0
  -27.3207  -15.2691   24.6792 C   0  0  0  0  0  0  0  0  0  0  0  0
  -27.5874  -21.9920   26.2271 C   0  0  0  0  0  0  0  0  0  0  0  0
  -27.3384  -16.6655   24.8723 C   0  0  0  0  0  0  0  0  0  0  0  0
  -26.6205  -22.8302   25.6539 C   0  0  0  0  0  0  0  0  0  0  0  0
  -29.7023  -18.3719   20.3935 C   0  0  0  0  0  0  0  0  0  0  0  0
  -30.0581  -19.7088   20.5714 C   0  0  0  0  0  0  0  0  0  0  0  0
  -29.1217  -20.7165   20.3400 C   0  0  0  0  0  0  0  0  0  0  0  0
  -22.4006   -8.8029   23.4881 C   0  0  0  0  0  0  0  0  0  0  0  0
  -28.3544  -23.9060   24.3325 C   0  0  0  0  0  0  0  0  0  0  0  0
  -21.7889   -6.5397   23.6499 C   0  0  0  0  0  0  0  0  0  0  0  0
  -21.9789   -3.9334   22.6734 C   0  0  0  0  0  0  0  0  0  0  0  0
  -20.6440   -5.8735   23.2129 C   0  0  0  0  0  0  0  0  0  0  0  0
  -24.5900  -11.8158   21.4814 C   0  0  0  0  0  0  0  0  0  0  0  0
  -25.2132  -13.6802   20.4961 C   0  0  0  0  0  0  0  0  0  0  0  0
  -22.8503  -13.7025   21.3114 C   0  0  0  0  0  0  0  0  0  0  0  0
  -25.4442  -19.6524   26.0357 C   0  0  0  0  0  0  0  0  0  0  0  0
  -23.6125  -21.7185   27.7382 C   0  0  0  0  0  0  0  0  0  0  0  0
  -28.6425  -23.1888   20.3227 C   0  0  0  0  0  0  0  0  0  0  0  0
  -22.9546  -24.9449   28.6350 C   0  0  0  0  0  0  0  0  0  0  0  0
  -30.6731  -14.8162   20.2864 C   0  0  0  0  0  0  0  0  0  0  0  0
  -26.0355  -14.4801   24.7074 C   0  0  0  0  0  0  0  0  0  0  0  0
  -27.1969  -20.9800   27.2691 C   0  0  0  0  0  0  0  0  0  0  0  0
  -25.1646  -22.7327   26.0271 C   0  0  0  0  0  0  0  0  0  0  0  0
  -24.8016  -15.3450   24.4715 C   0  0  0  0  0  0  0  0  0  0  0  0
  -29.6025  -11.6906   18.9593 C   0  0  0  0  0  0  0  0  0  0  0  0
  -24.8412  -16.5655   25.3789 C   0  0  0  0  0  0  0  0  0  0  0  0
  -28.1683  -11.5475   19.4718 C   0  0  0  0  0  0  0  0  0  0  0  0
  -30.5061  -12.3623   19.9909 C   0  0  0  0  0  0  0  0  0  0  0  0
  -28.5796  -13.5149   21.0078 C   0  0  0  0  0  0  0  0  0  0  0  0
  -26.0512  -17.4498   25.0522 C   0  0  1  0  0  0  0  0  0  0  0  0
  -25.7285  -20.5744   27.1875 C   0  0  1  0  0  0  0  0  0  0  0  0
  -27.6179  -12.8934   19.9806 C   0  0  2  0  0  0  0  0  0  0  0  0
  -32.3026  -20.5689   19.8579 C   0  0  0  0  0  0  0  0  0  0  0  0
  -21.3712  -26.3236   30.0095 C   0  0  0  0  0  0  0  0  0  0  0  0
  -21.4669  -21.3873   25.5943 C   0  0  0  0  0  0  0  0  0  0  0  0
  -20.3563  -23.4461   26.4865 C   0  0  0  0  0  0  0  0  0  0  0  0
  -20.5999  -21.4331   27.9396 C   0  0  0  0  0  0  0  0  0  0  0  0
  -25.1415  -25.9497   30.3575 C   0  0  0  0  0  0  0  0  0  0  0  0
  -31.4458  -20.0573   21.0104 C   0  0  0  0  0  0  0  0  0  0  0  0
  -30.6854  -17.2734   20.6342 C   0  0  0  0  0  0  0  0  0  0  0  0
  -29.4050  -24.4724   20.6206 C   0  0  0  0  0  0  0  0  0  0  0  0
  -28.5014  -25.5853   21.1401 C   0  0  0  0  0  0  0  0  0  0  0  0
  -27.7648  -25.1673   22.4044 C   0  0  0  0  0  0  0  0  0  1  0  0
  -22.6410  -22.8209   27.3921 C   0  0  1  0  0  0  0  0  0  0  0  0
  -22.6986  -25.5818   29.9890 C   0  0  2  0  0  0  0  0  0  0  0  0
  -21.2931  -22.2726   26.8444 C   0  0  0  0  0  0  0  0  0  0  0  0
  -25.8596  -11.5990   21.1275 N   0  0  0  0  0  0  0  0  0  0  0  0
  -26.2107  -12.7507   20.5305 N   0  0  0  0  0  0  0  0  0  0  0  0
  -24.8318  -21.7234   27.0460 N   0  0  0  0  0  0  0  0  0  0  0  0
  -29.9280  -13.6343   20.4311 N   0  0  0  0  0  0  0  0  0  0  0  0
  -25.3965  -14.8932   19.9327 N   0  0  0  0  0  0  0  0  0  0  0  0
  -21.8550  -12.9621   21.9637 N   0  0  0  0  0  0  0  0  0  0  0  0
  -29.4612  -22.0793   20.5137 N   0  0  0  0  0  0  0  0  0  0  0  0
  -26.1713  -18.4776   26.0627 N   0  0  0  0  0  0  0  0  0  0  0  0
  -22.5094  -23.6406   28.5918 N   0  0  0  0  0  0  0  0  0  0  0  0
  -30.0487  -15.9782   20.7229 N   0  0  0  0  0  0  0  0  0  0  0  0
  -23.7828  -26.5493   30.3196 N   0  3  0  0  0  0  0  0  0  0  0  0
  -22.5882  -14.8606   20.9069 O   0  0  0  0  0  0  0  0  0  0  0  0
  -24.6247  -19.9817   25.1862 O   0  0  0  0  0  0  0  0  0  0  0  0
  -23.3040  -20.8878   28.5964 O   0  0  0  0  0  0  0  0  0  0  0  0
  -27.4689  -23.1964   19.9664 O   0  0  0  0  0  0  0  0  0  0  0  0
  -23.4921  -25.5456   27.7072 O   0  0  0  0  0  0  0  0  0  0  0  0
  -31.8084  -14.8352   19.7989 O   0  0  0  0  0  0  0  0  0  0  0  0
  -21.6963   -7.8338   24.1342 O   0  0  0  0  0  0  0  0  0  0  0  0
  -28.7230  -24.8342   23.4080 O   0  0  0  0  0  0  0  0  0  1  0  0
  -22.0705   -2.6826   22.2031 F   0  0  0  0  0  0  0  0  0  0  0  0
  -19.4502   -6.4807   23.2586 F   0  0  0  0  0  0  0  0  0  0  0  0
  1  2  1  0  0  0  0
  1  6  2  0  0  0  0
  2  7  2  0  0  0  0
  3  9  1  0  0  0  0
  3 10  2  0  0  0  0
  4 11  2  0  0  0  0
  4 18  1  0  0  0  0
  5 12  1  0  0  0  0
  5 18  2  0  0  0  0
  6 20  1  0  0  0  0
  7 22  1  0  0  0  0
  8 13  2  0  0  0  0
  8 21  1  0  0  0  0
  9 24  2  0  0  0  0
 10 26  1  0  0  0  0
 11 27  1  0  0  0  0
 12 27  2  0  0  0  0
 13 28  1  0  0  0  0
 14 15  2  0  0  0  0
 14 29  1  0  0  0  0
 15 30  1  0  0  0  0
 16 23  1  0  0  0  0
 16 28  2  0  0  0  0
 17 30  2  0  0  0  0
 17 31  1  0  0  0  0
 18 32  1  0  0  0  0
 19 32  1  0  0  0  0
 19 33  2  0  0  0  0
 19 34  1  0  0  0  0
 20 22  2  0  0  0  0
 20 40  1  0  0  0  0
 21 23  2  0  0  0  0
 21 41  1  0  0  0  0
 22 49  1  0  0  0  0
 23 42  1  0  0  0  0
 24 25  1  0  0  0  0
 24 59  1  0  0  0  0
 25 26  2  0  0  0  0
 25 58  1  0  0  0  0
 26 72  1  0  0  0  0
 27 83  1  0  0  0  0
 28 84  1  0  0  0  0
 29 31  2  0  0  0  0
 29 83  1  0  0  0  0
 30 85  1  0  0  0  0
 31 86  1  0  0  0  0
 32 66  2  0  0  0  0
 33 67  1  0  0  0  0
 33 70  1  0  0  0  0
 34 71  1  0  0  0  0
 34 77  2  0  0  0  0
 35 50  1  0  0  0  0
 35 73  1  0  0  0  0
 35 78  2  0  0  0  0
 36 63  1  0  0  0  0
 36 68  1  0  0  0  0
 36 79  2  0  0  0  0
 37 60  1  0  0  0  0
 37 72  1  0  0  0  0
 37 80  2  0  0  0  0
 38 64  1  0  0  0  0
 38 74  1  0  0  0  0
 38 81  2  0  0  0  0
 39 69  1  0  0  0  0
 39 75  1  0  0  0  0
 39 82  2  0  0  0  0
 40 43  1  0  0  0  0
 41 50  1  0  0  0  0
 42 68  1  0  0  0  0
 43 45  1  0  0  0  0
 44 46  1  0  0  0  0
 44 47  1  0  0  0  0
 45 49  1  0  0  0  0
 46 51  1  0  0  0  0
 47 69  1  0  0  0  0
 48 51  1  0  0  0  0
 48 69  1  0  0  0  0
 49 73  1  0  0  0  0
 50 68  1  0  0  0  0
 51 67  1  0  0  0  0
 52 58  1  0  0  0  0
 53 64  1  0  0  0  0
 54 65  1  0  0  0  0
 55 65  1  0  0  0  0
 56 65  1  0  0  0  0
 57 76  1  0  0  0  0
 59 75  1  0  0  0  0
 60 61  1  0  0  0  0
 61 62  1  0  0  0  0
 62 84  1  0  0  0  0
 63 65  1  0  0  0  0
 63 74  1  0  0  0  0
 64 76  1  0  0  0  0
 66 67  1  0  0  0  0
M  CHG  1  76   1
M  ISO  4  39 100  62 101  75 100  84 101
M  END
> <Batch ID>
0139

> <Smiles>
CCc1c(C[100NH:0][100C:0](=O)N2CCCC(n3nc(-c4ccc(Oc5ccc(F)cc5F)cc4)c(C(N)=O)c3N)C2)cccc1NC(=O)CC[101CH2:1][101O:1]c1ccc2c(c1)CN(C(=O)C(NC(=O)C(C)NC)C(C)(C)C)C(C(=O)NC1CCCc3ccccc31)C2

> <Shape>
0.201

> <Color>
0.151

> <Negative vol penalty>
0.000

$$$$

  -OEChem-04052302483D

 86 94  0     1  0  0  0  0  0999 V2000
  -21.5007  -31.0939   22.2420 C   0  0  0  0  0  0  0  0  0  0  0  0
  -21.2712  -30.3589   21.0833 C   0  0  0  0  0  0  0  0  0  0  0  0
  -26.4227  -13.2006   21.0144 C   0  0  0  0  0  0  0  0  0  0  0  0
  -27.4625  -12.6410   18.9067 C   0  0  0  0  0  0  0  0  0  0  0  0
  -22.7982  -31.4797   22.5759 C   0  0  0  0  0  0  0  0  0  0  0  0
  -22.3392  -30.0102   20.2573 C   0  0  0  0  0  0  0  0  0  0  0  0
  -22.9464  -24.8581   17.0026 C   0  0  0  0  0  0  0  0  0  0  0  0
  -26.0365  -11.8703   21.1771 C   0  0  0  0  0  0  0  0  0  0  0  0
  -27.0764  -11.3106   19.0694 C   0  0  0  0  0  0  0  0  0  0  0  0
  -22.7092  -24.5628   15.6608 C   0  0  0  0  0  0  0  0  0  0  0  0
  -23.6137   -9.8203   20.0143 C   0  0  0  0  0  0  0  0  0  0  0  0
  -22.3075   -9.5724   20.4363 C   0  0  0  0  0  0  0  0  0  0  0  0
  -25.0430  -24.9304   15.1735 C   0  0  0  0  0  0  0  0  0  0  0  0
  -25.3739  -19.2467   12.4422 C   0  0  0  0  0  0  0  0  0  0  0  0
  -26.2252  -18.2144   10.4306 C   0  0  0  0  0  0  0  0  0  0  0  0
  -27.2496  -17.7288   12.5641 C   0  0  0  0  0  0  0  0  0  0  0  0
  -23.1553   -8.4426   22.3964 C   0  0  0  0  0  0  0  0  0  0  0  0
  -27.1357  -13.5860   19.8791 C   0  0  0  0  0  0  0  0  0  0  0  0
  -28.7337  -15.5569   20.1432 C   0  0  0  0  0  0  0  0  0  0  0  0
  -23.8837  -31.1273   21.7586 C   0  0  0  0  0  0  0  0  0  0  0  0
  -24.2338  -25.2030   17.4386 C   0  0  0  0  0  0  0  0  0  0  0  0
  -23.6523  -30.3928   20.5799 C   0  0  0  0  0  0  0  0  0  0  0  0
  -25.2944  -25.2272   16.5217 C   0  0  0  0  0  0  0  0  0  0  0  0
  -25.3162  -19.0645   11.0605 C   0  0  0  0  0  0  0  0  0  0  0  0
  -26.3406  -18.5789   13.1940 C   0  0  0  0  0  0  0  0  0  0  0  0
  -26.3633  -10.9252   20.2047 C   0  0  0  0  0  0  0  0  0  0  0  0
  -23.7569  -24.6017   14.7455 C   0  0  0  0  0  0  0  0  0  0  0  0
  -24.6907   -9.3793   20.7832 C   0  0  0  0  0  0  0  0  0  0  0  0
  -22.0784   -8.8836   21.6273 C   0  0  0  0  0  0  0  0  0  0  0  0
  -27.1919  -17.5465   11.1824 C   0  0  0  0  0  0  0  0  0  0  0  0
  -24.4615   -8.6905   21.9743 C   0  0  0  0  0  0  0  0  0  0  0  0
  -27.5344  -14.9603   19.7102 C   0  0  0  0  0  0  0  0  0  0  0  0
  -28.6297  -16.8667   19.7432 C   0  0  0  0  0  0  0  0  0  0  0  0
  -29.8427  -14.9787   20.8444 C   0  0  0  0  0  0  0  0  0  0  0  0
  -25.5357  -27.7783   18.7717 C   0  0  0  0  0  0  0  0  0  0  0  0
  -28.1479  -25.8671   18.9869 C   0  0  0  0  0  0  0  0  0  0  0  0
  -30.4193  -23.3701   17.7129 C   0  0  0  0  0  0  0  0  0  0  0  0
  -25.5735  -19.5714   15.3786 C   0  0  0  0  0  0  0  0  0  0  0  0
  -25.2627  -31.6076   22.1361 C   0  0  0  0  0  0  0  0  0  0  0  0
  -24.4784  -25.4928   18.8941 C   0  0  0  0  0  0  0  0  0  0  0  0
  -26.6989  -25.5719   16.9427 C   0  0  0  0  0  0  0  0  0  0  0  0
  -26.3843  -30.8767   21.4026 C   0  0  0  0  0  0  0  0  0  0  0  0
  -25.3734  -20.2666   18.8649 C   0  0  0  0  0  0  0  0  0  0  0  0
  -26.0716  -30.7770   19.9129 C   0  0  0  0  0  0  0  0  0  0  0  0
  -26.0195  -19.0418   19.5165 C   0  0  0  0  0  0  0  0  0  0  0  0
  -24.5627  -19.8888   17.6264 C   0  0  0  0  0  0  0  0  0  0  0  0
  -25.9367  -17.8741   17.2767 C   0  0  0  0  0  0  0  0  0  0  0  0
  -24.7877  -29.9742   19.6711 C   0  0  1  0  0  0  0  0  0  0  0  0
  -25.7290  -26.3330   19.1341 C   0  0  1  0  0  0  0  0  0  0  0  0
  -26.8171  -18.2127   18.4907 C   0  0  2  0  0  0  0  0  0  0  0  0
  -23.0475  -20.9881    7.6732 C   0  0  0  0  0  0  0  0  0  0  0  0
  -32.4250  -22.2967   18.7724 C   0  0  0  0  0  0  0  0  0  0  0  0
  -29.7155  -28.0603   17.5577 C   0  0  0  0  0  0  0  0  0  0  0  0
  -31.5119  -26.3788   17.0959 C   0  0  0  0  0  0  0  0  0  0  0  0
  -30.9349  -26.9701   19.4496 C   0  0  0  0  0  0  0  0  0  0  0  0
  -29.3401  -20.6496   17.2735 C   0  0  0  0  0  0  0  0  0  0  0  0
  -24.2668  -19.7886   10.2441 C   0  0  0  0  0  0  0  0  0  0  0  0
  -23.4965  -21.8035    8.8828 C   0  0  0  0  0  0  0  0  0  0  0  0
  -24.0298  -22.8225   11.6226 C   0  0  0  0  0  0  0  0  0  0  0  0
  -25.1376  -22.1794   10.7874 C   0  0  0  0  0  0  0  0  0  0  0  0
  -24.6044  -23.7342   12.6998 C   0  0  0  0  0  0  0  0  0  1  0  0
  -29.3278  -25.5649   18.0950 C   0  0  1  0  0  0  0  0  0  0  0  0
  -30.9442  -22.1551   18.4564 C   0  0  2  0  0  0  0  0  0  0  0  0
  -30.3458  -26.7389   18.0410 C   0  0  0  0  0  0  0  0  0  0  0  0
  -24.6645  -21.1856    9.6948 C   0  0  1  0  0  0  0  0  0  0  0  0
  -26.7277  -15.8205   19.0832 N   0  0  0  0  0  0  0  0  0  0  0  0
  -27.4213  -16.9710   19.1194 N   0  0  0  0  0  0  0  0  0  0  0  0
  -26.8862  -25.8536   18.3755 N   0  0  0  0  0  0  0  0  0  0  0  0
  -25.3840  -19.1088   16.6980 N   0  0  0  0  0  0  0  0  0  0  0  0
  -29.4549  -17.9278   19.8677 N   0  0  0  0  0  0  0  0  0  0  0  0
  -29.7863  -13.6187   21.1785 N   0  0  0  0  0  0  0  0  0  0  0  0
  -26.3997  -18.7640   14.5976 N   0  0  0  0  0  0  0  0  0  0  0  0
  -25.0457  -28.5563   19.8032 N   0  0  0  0  0  0  0  0  0  0  0  0
  -29.8908  -24.3075   18.5750 N   0  0  0  0  0  0  0  0  0  0  0  0
  -30.7539  -20.9246   17.6374 N   0  3  0  0  0  0  0  0  0  0  0  0
  -30.8466  -15.6521   21.1796 O   0  0  0  0  0  0  0  0  0  0  0  0
  -25.8121  -28.1596   17.6403 O   0  0  0  0  0  0  0  0  0  0  0  0
  -28.3379  -26.0993   20.1833 O   0  0  0  0  0  0  0  0  0  0  0  0
  -30.4762  -23.4786   16.4900 O   0  0  0  0  0  0  0  0  0  0  0  0
  -25.0641  -20.6219   14.9799 O   0  0  0  0  0  0  0  0  0  0  0  0
  -25.7536  -21.0232    8.7731 O   0  0  0  0  0  0  0  0  0  0  0  0
  -25.9868   -9.6269   20.3633 O   0  0  0  0  0  0  0  0  0  0  0  0
  -23.5280  -24.3145   13.4352 O   0  0  0  0  0  0  0  0  0  1  0  0
  -20.8240   -8.6470   22.0333 F   0  0  0  0  0  0  0  0  0  0  0  0
  -28.0647  -16.7302   10.5774 F   0  0  0  0  0  0  0  0  0  0  0  0
  -25.4921   -8.2653   22.7179 F   0  0  0  0  0  0  0  0  0  0  0  0
  1  2  1  0  0  0  0
  1  5  2  0  0  0  0
  2  6  2  0  0  0  0
  3  8  2  0  0  0  0
  3 18  1  0  0  0  0
  4  9  1  0  0  0  0
  4 18  2  0  0  0  0
  5 20  1  0  0  0  0
  6 22  1  0  0  0  0
  7 10  2  0  0  0  0
  7 21  1  0  0  0  0
  8 26  1  0  0  0  0
  9 26  2  0  0  0  0
 10 27  1  0  0  0  0
 11 12  2  0  0  0  0
 11 28  1  0  0  0  0
 12 29  1  0  0  0  0
 13 23  1  0  0  0  0
 13 27  2  0  0  0  0
 14 24  2  0  0  0  0
 14 25  1  0  0  0  0
 15 24  1  0  0  0  0
 15 30  2  0  0  0  0
 16 25  2  0  0  0  0
 16 30  1  0  0  0  0
 17 29  2  0  0  0  0
 17 31  1  0  0  0  0
 18 32  1  0  0  0  0
 19 32  1  0  0  0  0
 19 33  2  0  0  0  0
 19 34  1  0  0  0  0
 20 22  2  0  0  0  0
 20 39  1  0  0  0  0
 21 23  2  0  0  0  0
 21 40  1  0  0  0  0
 22 48  1  0  0  0  0
 23 41  1  0  0  0  0
 24 57  1  0  0  0  0
 25 72  1  0  0  0  0
 26 82  1  0  0  0  0
 27 83  1  0  0  0  0
 28 31  2  0  0  0  0
 28 82  1  0  0  0  0
 29 84  1  0  0  0  0
 30 85  1  0  0  0  0
 31 86  1  0  0  0  0
 32 66  2  0  0  0  0
 33 67  1  0  0  0  0
 33 70  1  0  0  0  0
 34 71  1  0  0  0  0
 34 76  2  0  0  0  0
 35 49  1  0  0  0  0
 35 73  1  0  0  0  0
 35 77  2  0  0  0  0
 36 62  1  0  0  0  0
 36 68  1  0  0  0  0
 36 78  2  0  0  0  0
 37 63  1  0  0  0  0
 37 74  1  0  0  0  0
 37 79  2  0  0  0  0
 38 69  1  0  0  0  0
 38 72  1  0  0  0  0
 38 80  2  0  0  0  0
 39 42  1  0  0  0  0
 40 49  1  0  0  0  0
 41 68  1  0  0  0  0
 42 44  1  0  0  0  0
 43 45  1  0  0  0  0
 43 46  1  0  0  0  0
 44 48  1  0  0  0  0
 45 50  1  0  0  0  0
 46 69  1  0  0  0  0
 47 50  1  0  0  0  0
 47 69  1  0  0  0  0
 48 73  1  0  0  0  0
 49 68  1  0  0  0  0
 50 67  1  0  0  0  0
 51 58  1  0  0  0  0
 52 63  1  0  0  0  0
 53 64  1  0  0  0  0
 54 64  1  0  0  0  0
 55 64  1  0  0  0  0
 56 75  1  0  0  0  0
 57 65  1  0  0  0  0
 58 65  1  0  0  0  0
 59 60  1  0  0  0  0
 59 61  1  0  0  0  0
 60 65  1  0  0  0  0
 61 83  1  0  0  0  0
 62 64  1  0  0  0  0
 62 74  1  0  0  0  0
 63 75  1  0  0  0  0
 65 81  1  0  0  0  0
 66 67  1  0  0  0  0
M  CHG  1  75   1
M  ISO  4  38 100  61 101  72 100  83 101
M  END
> <Batch ID>
0139

> <Smiles>
CCC(O)(CC[101CH2:1][101O:1]c1ccc2c(c1)CN(C(=O)C(NC(=O)C(C)NC)C(C)(C)C)C(C(=O)NC1CCCc3ccccc31)C2)Cc1cc(F)cc([100NH:0][100C:0](=O)N2CCCC(n3nc(-c4ccc(Oc5ccc(F)cc5F)cc4)c(C(N)=O)c3N)C2)c1

> <Shape>
0.217

> <Color>
0.051

> <Negative vol penalty>
0.000

$$$$

  -OEChem-04052302483D

 88 96  0     1  0  0  0  0  0999 V2000
  -22.5028  -22.2372   20.3064 C   0  0  0  0  0  0  0  0  0  0  0  0
  -23.4263  -23.2480   20.0598 C   0  0  0  0  0  0  0  0  0  0  0  0
  -26.9674  -12.9619   21.1759 C   0  0  0  0  0  0  0  0  0  0  0  0
  -26.5573  -13.6878   18.9083 C   0  0  0  0  0  0  0  0  0  0  0  0
  -21.4449  -22.4606   21.1867 C   0  0  0  0  0  0  0  0  0  0  0  0
  -23.2918  -24.4833   20.6925 C   0  0  0  0  0  0  0  0  0  0  0  0
  -27.6833  -26.2164   22.5244 C   0  0  0  0  0  0  0  0  0  0  0  0
  -26.2669  -11.7822   20.9249 C   0  0  0  0  0  0  0  0  0  0  0  0
  -25.8568  -12.5080   18.6573 C   0  0  0  0  0  0  0  0  0  0  0  0
  -28.5718  -26.7874   21.6143 C   0  0  0  0  0  0  0  0  0  0  0  0
  -23.0400  -10.7980   20.7177 C   0  0  0  0  0  0  0  0  0  0  0  0
  -22.1217  -10.3737   21.6781 C   0  0  0  0  0  0  0  0  0  0  0  0
  -27.8459  -28.9853   22.2938 C   0  0  0  0  0  0  0  0  0  0  0  0
  -30.4428  -24.7111   17.0327 C   0  0  0  0  0  0  0  0  0  0  0  0
  -28.8391  -24.0755   18.7242 C   0  0  0  0  0  0  0  0  0  0  0  0
  -30.5627  -22.5227   18.0493 C   0  0  0  0  0  0  0  0  0  0  0  0
  -23.3572   -8.3153   21.9499 C   0  0  0  0  0  0  0  0  0  0  0  0
  -27.1126  -13.9148   20.1676 C   0  0  0  0  0  0  0  0  0  0  0  0
  -29.2139  -15.3589   20.2488 C   0  0  0  0  0  0  0  0  0  0  0  0
  -21.3028  -23.6961   21.8379 C   0  0  0  0  0  0  0  0  0  0  0  0
  -26.8602  -27.0267   23.3196 C   0  0  0  0  0  0  0  0  0  0  0  0
  -22.2302  -24.7240   21.5812 C   0  0  0  0  0  0  0  0  0  0  0  0
  -26.9496  -28.4221   23.2150 C   0  0  0  0  0  0  0  0  0  0  0  0
  -29.3337  -25.0168   17.8214 C   0  0  0  0  0  0  0  0  0  0  0  0
  -31.0572  -23.4640   17.1466 C   0  0  0  0  0  0  0  0  0  0  0  0
  -29.4536  -22.8284   18.8381 C   0  0  0  0  0  0  0  0  0  0  0  0
  -25.7116  -11.5552   19.6657 C   0  0  0  0  0  0  0  0  0  0  0  0
  -28.6511  -28.1720   21.4968 C   0  0  0  0  0  0  0  0  0  0  0  0
  -24.1169   -9.9809   20.3734 C   0  0  0  0  0  0  0  0  0  0  0  0
  -22.2803   -9.1323   22.2942 C   0  0  0  0  0  0  0  0  0  0  0  0
  -24.2754   -8.7396   20.9895 C   0  0  0  0  0  0  0  0  0  0  0  0
  -27.8356  -15.1340   20.4263 C   0  0  0  0  0  0  0  0  0  0  0  0
  -29.4009  -16.6645   20.6321 C   0  0  0  0  0  0  0  0  0  0  0  0
  -30.2340  -14.4674   19.7794 C   0  0  0  0  0  0  0  0  0  0  0  0
  -23.7206  -27.4097   23.6351 C   0  0  0  0  0  0  0  0  0  0  0  0
  -24.5962  -29.3481   26.0843 C   0  0  0  0  0  0  0  0  0  0  0  0
  -26.9897  -31.3265   27.5000 C   0  0  0  0  0  0  0  0  0  0  0  0
  -27.8603  -22.0151   20.6119 C   0  0  0  0  0  0  0  0  0  0  0  0
  -20.1161  -23.9065   22.7446 C   0  0  0  0  0  0  0  0  0  0  0  0
  -25.9262  -26.3958   24.3155 C   0  0  0  0  0  0  0  0  0  0  0  0
  -26.1023  -29.3366   24.0602 C   0  0  0  0  0  0  0  0  0  0  0  0
  -20.2576  -25.1187   23.6616 C   0  0  0  0  0  0  0  0  0  0  0  0
  -26.2866  -19.8835   22.9903 C   0  0  0  0  0  0  0  0  0  0  0  0
  -20.7480  -26.3295   22.8740 C   0  0  0  0  0  0  0  0  0  0  0  0
  -26.6627  -18.4763   22.5207 C   0  0  0  0  0  0  0  0  0  0  0  0
  -26.0391  -20.8266   21.8143 C   0  0  0  0  0  0  0  0  0  0  0  0
  -27.5018  -19.4808   20.3587 C   0  0  0  0  0  0  0  0  0  0  0  0
  -22.1321  -26.0692   22.2673 C   0  0  1  0  0  0  0  0  0  0  0  0
  -24.7672  -27.3068   24.7082 C   0  0  1  0  0  0  0  0  0  0  0  0
  -27.8241  -18.5118   21.5080 C   0  0  2  0  0  0  0  0  0  0  0  0
  -30.8424  -22.3867   14.2322 C   0  0  0  0  0  0  0  0  0  0  0  0
  -27.4001  -32.8094   29.4823 C   0  0  0  0  0  0  0  0  0  0  0  0
  -32.8486  -21.7073   16.5183 C   0  0  0  0  0  0  0  0  0  0  0  0
  -33.4196  -24.1166   16.6303 C   0  0  0  0  0  0  0  0  0  0  0  0
  -22.8914  -31.5297   24.8021 C   0  0  0  0  0  0  0  0  0  0  0  0
  -24.0708  -33.2020   26.2446 C   0  0  0  0  0  0  0  0  0  0  0  0
  -22.7102  -31.3928   27.2927 C   0  0  0  0  0  0  0  0  0  0  0  0
  -31.0236  -27.0919   19.7083 C   0  0  0  0  0  0  0  0  0  0  0  0
  -30.1527  -28.9902   18.3229 C   0  0  0  0  0  0  0  0  0  0  0  0
  -29.2252  -29.6351   28.4488 C   0  0  0  0  0  0  0  0  0  0  0  0
  -31.9583  -23.2851   14.7580 C   0  0  0  0  0  0  0  0  0  0  0  0
  -28.5616  -27.1723   19.0142 C   0  0  0  0  0  0  0  0  0  0  0  0
  -28.6674  -26.3690   17.6977 C   0  0  2  0  0  0  0  0  0  0  0  0
  -24.9262  -30.8148   26.2214 C   0  0  1  0  0  0  0  0  0  0  0  0
  -27.5239  -31.4023   28.9189 C   0  0  2  0  0  0  0  0  0  0  0  0
  -32.2432  -23.1374   16.3032 C   0  0  0  0  0  0  0  0  0  0  0  0
  -23.6644  -31.7178   26.1227 C   0  0  0  0  0  0  0  0  0  0  0  0
  -29.8120  -27.9844   19.4296 C   0  0  0  0  0  0  0  0  0  1  0  0
  -27.1926  -16.2103   20.8867 N   0  0  0  0  0  0  0  0  0  0  0  0
  -28.1712  -17.1242   21.0018 N   0  0  0  0  0  0  0  0  0  0  0  0
  -25.2000  -28.6717   25.0148 N   0  0  0  0  0  0  0  0  0  0  0  0
  -27.1826  -20.8115   20.8994 N   0  0  0  0  0  0  0  0  0  0  0  0
  -30.4956  -17.4527   20.6856 N   0  0  0  0  0  0  0  0  0  0  0  0
  -29.8692  -13.1606   19.4278 N   0  0  0  0  0  0  0  0  0  0  0  0
  -28.9513  -21.8722   19.7552 N   0  0  0  0  0  0  0  0  0  0  0  0
  -23.1595  -26.1983   23.2784 N   0  0  0  0  0  0  0  0  0  0  0  0
  -25.6628  -30.9521   27.4732 N   0  0  0  0  0  0  0  0  0  0  0  0
  -27.2755  -26.2389   17.1444 N   0  3  0  0  0  0  0  0  0  0  0  0
  -28.9604  -31.0070   28.9533 N   0  3  0  0  0  0  0  0  0  0  0  0
  -31.4362  -14.8142   19.6904 O   0  0  0  0  0  0  0  0  0  0  0  0
  -23.4415  -28.5071   23.1665 O   0  0  0  0  0  0  0  0  0  0  0  0
  -23.8365  -28.8202   26.9003 O   0  0  0  0  0  0  0  0  0  0  0  0
  -27.6792  -31.5780   26.5142 O   0  0  0  0  0  0  0  0  0  0  0  0
  -27.5161  -23.0891   21.1120 O   0  0  0  0  0  0  0  0  0  0  0  0
  -25.0281  -10.4040   19.4204 O   0  0  0  0  0  0  0  0  0  0  0  0
  -29.5171  -28.7319   20.6088 O   0  0  0  0  0  0  0  0  0  1  0  0
  -21.3992   -8.7256   23.2175 F   0  0  0  0  0  0  0  0  0  0  0  0
  -25.3086   -7.9508   20.6638 F   0  0  0  0  0  0  0  0  0  0  0  0
  1  2  1  0  0  0  0
  1  5  2  0  0  0  0
  2  6  2  0  0  0  0
  3  8  2  0  0  0  0
  3 18  1  0  0  0  0
  4  9  1  0  0  0  0
  4 18  2  0  0  0  0
  5 20  1  0  0  0  0
  6 22  1  0  0  0  0
  7 10  2  0  0  0  0
  7 21  1  0  0  0  0
  8 27  1  0  0  0  0
  9 27  2  0  0  0  0
 10 28  1  0  0  0  0
 11 12  2  0  0  0  0
 11 29  1  0  0  0  0
 12 30  1  0  0  0  0
 13 23  1  0  0  0  0
 13 28  2  0  0  0  0
 14 24  1  0  0  0  0
 14 25  2  0  0  0  0
 15 24  2  0  0  0  0
 15 26  1  0  0  0  0
 16 25  1  0  0  0  0
 16 26  2  0  0  0  0
 17 30  2  0  0  0  0
 17 31  1  0  0  0  0
 18 32  1  0  0  0  0
 19 32  1  0  0  0  0
 19 33  2  0  0  0  0
 19 34  1  0  0  0  0
 20 22  2  0  0  0  0
 20 39  1  0  0  0  0
 21 23  2  0  0  0  0
 21 40  1  0  0  0  0
 22 48  1  0  0  0  0
 23 41  1  0  0  0  0
 24 63  1  0  0  0  0
 25 66  1  0  0  0  0
 26 75  1  0  0  0  0
 27 85  1  0  0  0  0
 28 86  1  0  0  0  0
 29 31  2  0  0  0  0
 29 85  1  0  0  0  0
 30 87  1  0  0  0  0
 31 88  1  0  0  0  0
 32 69  2  0  0  0  0
 33 70  1  0  0  0  0
 33 73  1  0  0  0  0
 34 74  1  0  0  0  0
 34 80  2  0  0  0  0
 35 49  1  0  0  0  0
 35 76  1  0  0  0  0
 35 81  2  0  0  0  0
 36 64  1  0  0  0  0
 36 71  1  0  0  0  0
 36 82  2  0  0  0  0
 37 65  1  0  0  0  0
 37 77  1  0  0  0  0
 37 83  2  0  0  0  0
 38 72  1  0  0  0  0
 38 75  1  0  0  0  0
 38 84  2  0  0  0  0
 39 42  1  0  0  0  0
 40 49  1  0  0  0  0
 41 71  1  0  0  0  0
 42 44  1  0  0  0  0
 43 45  1  0  0  0  0
 43 46  1  0  0  0  0
 44 48  1  0  0  0  0
 45 50  1  0  0  0  0
 46 72  1  0  0  0  0
 47 50  1  0  0  0  0
 47 72  1  0  0  0  0
 48 76  1  0  0  0  0
 49 71  1  0  0  0  0
 50 70  1  0  0  0  0
 51 61  1  0  0  0  0
 52 65  1  0  0  0  0
 53 66  1  0  0  0  0
 54 66  1  0  0  0  0
 55 67  1  0  0  0  0
 56 67  1  0  0  0  0
 57 67  1  0  0  0  0
 58 68  1  0  0  0  0
 59 68  1  0  0  0  0
 60 79  1  0  0  0  0
 61 66  1  0  0  0  0
 62 63  1  0  0  0  0
 62 68  1  0  0  0  0
 63 78  1  0  0  0  0
 64 67  1  0  0  0  0
 64 77  1  0  0  0  0
 65 79  1  0  0  0  0
 68 86  1  0  0  0  0
 69 70  1  0  0  0  0
M  CHG  2  78   1  79   1
M  ISO  4  38 100  68 101  75 100  86 101
M  END
> <Batch ID>
0139

> <Smiles>
CCC(C)(C)c1cc([100NH:0][100C:0](=O)N2CCCC(n3nc(-c4ccc(Oc5ccc(F)cc5F)cc4)c(C(N)=O)c3N)C2)cc(C(N)C[101C:1](C)(C)[101O:1]c2ccc3c(c2)CN(C(=O)C(NC(=O)C(C)NC)C(C)(C)C)C(C(=O)NC2CCCc4ccccc42)C3)c1

> <Shape>
0.231

> <Color>
0.058

> <Negative vol penalty>
0.000

$$$$

  -OEChem-04052302483D

 85 93  0     1  0  0  0  0  0999 V2000
  -29.9984  -34.2780   24.8084 C   0  0  0  0  0  0  0  0  0  0  0  0
  -29.3921  -33.0608   25.1019 C   0  0  0  0  0  0  0  0  0  0  0  0
  -24.3365   -9.8973   21.7046 C   0  0  0  0  0  0  0  0  0  0  0  0
  -24.6640  -11.0988   23.7749 C   0  0  0  0  0  0  0  0  0  0  0  0
  -29.2375  -35.3299   24.3000 C   0  0  0  0  0  0  0  0  0  0  0  0
  -28.0241  -32.8951   24.8881 C   0  0  0  0  0  0  0  0  0  0  0  0
  -26.9294  -28.4963   22.6305 C   0  0  0  0  0  0  0  0  0  0  0  0
  -23.9282   -8.7728   22.4218 C   0  0  0  0  0  0  0  0  0  0  0  0
  -24.2556   -9.9743   24.4921 C   0  0  0  0  0  0  0  0  0  0  0  0
  -26.9360  -27.3525   23.4276 C   0  0  0  0  0  0  0  0  0  0  0  0
  -21.1374   -7.7062   24.0050 C   0  0  0  0  0  0  0  0  0  0  0  0
  -20.0014   -7.0305   23.5595 C   0  0  0  0  0  0  0  0  0  0  0  0
  -24.5303  -27.4502   23.5773 C   0  0  0  0  0  0  0  0  0  0  0  0
  -29.9354  -21.2244   21.7801 C   0  0  0  0  0  0  0  0  0  0  0  0
  -21.3151   -5.0268   23.2487 C   0  0  0  0  0  0  0  0  0  0  0  0
  -24.7045  -11.0603   22.3812 C   0  0  0  0  0  0  0  0  0  0  0  0
  -24.3142  -13.2675   21.1630 C   0  0  0  0  0  0  0  0  0  0  0  0
  -27.8614  -35.1739   24.0708 C   0  0  0  0  0  0  0  0  0  0  0  0
  -25.7219  -29.1330   22.3092 C   0  0  0  0  0  0  0  0  0  0  0  0
  -27.2438  -33.9463   24.3774 C   0  0  0  0  0  0  0  0  0  0  0  0
  -24.5109  -28.6005   22.7738 C   0  0  0  0  0  0  0  0  0  0  0  0
  -30.2596  -19.9078   21.3422 C   0  0  0  0  0  0  0  0  0  0  0  0
  -23.8877   -8.8113   23.8155 C   0  0  0  0  0  0  0  0  0  0  0  0
  -25.7366  -26.8309   23.9036 C   0  0  0  0  0  0  0  0  0  0  0  0
  -22.3623   -7.0423   24.0723 C   0  0  0  0  0  0  0  0  0  0  0  0
  -20.0902   -5.6908   23.1813 C   0  0  0  0  0  0  0  0  0  0  0  0
  -22.4511   -5.7026   23.6942 C   0  0  0  0  0  0  0  0  0  0  0  0
  -25.1269  -12.2221   21.6409 C   0  0  0  0  0  0  0  0  0  0  0  0
  -25.1868  -14.1196   20.5315 C   0  0  0  0  0  0  0  0  0  0  0  0
  -28.5746  -21.4229   21.8593 C   0  0  0  0  0  0  0  0  0  0  0  0
  -29.1341  -19.1501   21.1036 C   0  0  0  0  0  0  0  0  0  0  0  0
  -22.8971  -13.4518   21.2797 C   0  0  0  0  0  0  0  0  0  0  0  0
  -24.4867  -32.0093   22.8612 C   0  0  0  0  0  0  0  0  0  0  0  0
  -22.1236  -30.9391   20.9137 C   0  0  0  0  0  0  0  0  0  0  0  0
  -28.3115  -23.7986   22.6418 C   0  0  0  0  0  0  0  0  0  0  0  0
  -20.4476  -28.2810   19.5823 C   0  0  0  0  0  0  0  0  0  0  0  0
  -30.0035  -16.9073   20.3552 C   0  0  0  0  0  0  0  0  0  0  0  0
  -27.0714  -36.3547   23.5644 C   0  0  0  0  0  0  0  0  0  0  0  0
  -25.7297  -30.3506   21.4262 C   0  0  0  0  0  0  0  0  0  0  0  0
  -23.1860  -29.2347   22.4407 C   0  0  0  0  0  0  0  0  0  0  0  0
  -25.6981  -35.9780   23.0145 C   0  0  0  0  0  0  0  0  0  0  0  0
  -30.0528  -13.5148   19.2754 C   0  0  0  0  0  0  0  0  0  0  0  0
  -24.9831  -35.0272   23.9693 C   0  0  0  0  0  0  0  0  0  0  0  0
  -28.7088  -12.9621   19.7553 C   0  0  0  0  0  0  0  0  0  0  0  0
  -30.6461  -14.5083   20.2728 C   0  0  0  0  0  0  0  0  0  0  0  0
  -28.4069  -15.0516   21.1444 C   0  0  0  0  0  0  0  0  0  0  0  0
  -25.7672  -33.7199   24.1359 C   0  0  1  0  0  0  0  0  0  0  0  0
  -24.4818  -31.2132   21.5869 C   0  0  1  0  0  0  0  0  0  0  0  0
  -27.7390  -14.0958   20.1423 C   0  0  2  0  0  0  0  0  0  0  0  0
  -32.1042  -18.5135   22.3117 C   0  0  0  0  0  0  0  0  0  0  0  0
  -18.5388  -27.7217   18.0523 C   0  0  0  0  0  0  0  0  0  0  0  0
  -20.1452  -31.6776   23.1161 C   0  0  0  0  0  0  0  0  0  0  0  0
  -18.4363  -30.2590   21.9605 C   0  0  0  0  0  0  0  0  0  0  0  0
  -19.3913  -32.2507   20.8014 C   0  0  0  0  0  0  0  0  0  0  0  0
  -27.9555  -25.1581   25.3783 C   0  0  0  0  0  0  0  0  0  0  0  0
  -26.2612  -23.3908   24.8577 C   0  0  0  0  0  0  0  0  0  0  0  0
  -22.2241  -26.8434   17.7018 C   0  0  0  0  0  0  0  0  0  0  0  0
  -31.6492  -19.4214   21.1675 C   0  0  0  0  0  0  0  0  0  0  0  0
  -27.1890  -24.7722   22.9771 C   0  0  0  0  0  0  0  0  0  0  0  0
  -20.8267  -30.1934   21.1164 C   0  0  1  0  0  0  0  0  0  0  0  0
  -20.0370  -27.9609   18.1563 C   0  0  2  0  0  0  0  0  0  0  0  0
  -19.7248  -31.0841   21.7566 C   0  0  0  0  0  0  0  0  0  0  0  0
  -26.7908  -24.7742   24.4643 C   0  0  0  0  0  0  0  0  0  1  0  0
  -26.4168  -12.3924   21.3387 N   0  0  0  0  0  0  0  0  0  0  0  0
  -26.4211  -13.5546   20.6640 N   0  0  0  0  0  0  0  0  0  0  0  0
  -23.2464  -30.4271   21.5792 N   0  0  0  0  0  0  0  0  0  0  0  0
  -29.6727  -15.5558   20.5892 N   0  0  0  0  0  0  0  0  0  0  0  0
  -25.0110  -15.2895   19.8812 N   0  0  0  0  0  0  0  0  0  0  0  0
  -22.1507  -12.4804   21.9606 N   0  0  0  0  0  0  0  0  0  0  0  0
  -27.8262  -22.5605   22.2430 N   0  0  0  0  0  0  0  0  0  0  0  0
  -28.9875  -17.8113   20.6635 N   0  0  0  0  0  0  0  0  0  0  0  0
  -25.5674  -32.8609   22.9884 N   0  0  0  0  0  0  0  0  0  0  0  0
  -20.4665  -29.6399   19.8155 N   0  0  0  0  0  0  0  0  0  0  0  0
  -20.7424  -26.7391   17.6761 N   0  3  0  0  0  0  0  0  0  0  0  0
  -22.3079  -14.4402   20.7802 O   0  0  0  0  0  0  0  0  0  0  0  0
  -23.5765  -31.8628   23.6686 O   0  0  0  0  0  0  0  0  0  0  0  0
  -22.1413  -31.9348   20.1858 O   0  0  0  0  0  0  0  0  0  0  0  0
  -29.4847  -24.1498   22.7346 O   0  0  0  0  0  0  0  0  0  0  0  0
  -20.7204  -27.4124   20.4079 O   0  0  0  0  0  0  0  0  0  0  0  0
  -31.0970  -17.2363   19.8883 O   0  0  0  0  0  0  0  0  0  0  0  0
  -23.4890   -7.7143   24.5156 O   0  0  0  0  0  0  0  0  0  0  0  0
  -25.7403  -25.7150   24.6824 O   0  0  0  0  0  0  0  0  0  1  0  0
  -18.9989   -5.0416   22.7550 F   0  0  0  0  0  0  0  0  0  0  0  0
  -23.6249   -5.0591   23.7578 F   0  0  0  0  0  0  0  0  0  0  0  0
  -27.6940  -20.0256   21.4069 S   0  0  0  0  0  0  0  0  0  0  0  0
  1  2  1  0  0  0  0
  1  5  2  0  0  0  0
  2  6  2  0  0  0  0
  3  8  2  0  0  0  0
  3 16  1  0  0  0  0
  4  9  1  0  0  0  0
  4 16  2  0  0  0  0
  5 18  1  0  0  0  0
  6 20  1  0  0  0  0
  7 10  2  0  0  0  0
  7 19  1  0  0  0  0
  8 23  1  0  0  0  0
  9 23  2  0  0  0  0
 10 24  1  0  0  0  0
 11 12  2  0  0  0  0
 11 25  1  0  0  0  0
 12 26  1  0  0  0  0
 13 21  1  0  0  0  0
 13 24  2  0  0  0  0
 14 22  1  0  0  0  0
 14 30  2  0  0  0  0
 15 26  2  0  0  0  0
 15 27  1  0  0  0  0
 16 28  1  0  0  0  0
 17 28  1  0  0  0  0
 17 29  2  0  0  0  0
 17 32  1  0  0  0  0
 18 20  2  0  0  0  0
 18 38  1  0  0  0  0
 19 21  2  0  0  0  0
 19 39  1  0  0  0  0
 20 47  1  0  0  0  0
 21 40  1  0  0  0  0
 22 31  2  0  0  0  0
 22 58  1  0  0  0  0
 23 81  1  0  0  0  0
 24 82  1  0  0  0  0
 25 27  2  0  0  0  0
 25 81  1  0  0  0  0
 26 83  1  0  0  0  0
 27 84  1  0  0  0  0
 28 64  2  0  0  0  0
 29 65  1  0  0  0  0
 29 68  1  0  0  0  0
 30 70  1  0  0  0  0
 30 85  1  0  0  0  0
 31 71  1  0  0  0  0
 31 85  1  0  0  0  0
 32 69  1  0  0  0  0
 32 75  2  0  0  0  0
 33 48  1  0  0  0  0
 33 72  1  0  0  0  0
 33 76  2  0  0  0  0
 34 60  1  0  0  0  0
 34 66  1  0  0  0  0
 34 77  2  0  0  0  0
 35 59  1  0  0  0  0
 35 70  1  0  0  0  0
 35 78  2  0  0  0  0
 36 61  1  0  0  0  0
 36 73  1  0  0  0  0
 36 79  2  0  0  0  0
 37 67  1  0  0  0  0
 37 71  1  0  0  0  0
 37 80  2  0  0  0  0
 38 41  1  0  0  0  0
 39 48  1  0  0  0  0
 40 66  1  0  0  0  0
 41 43  1  0  0  0  0
 42 44  1  0  0  0  0
 42 45  1  0  0  0  0
 43 47  1  0  0  0  0
 44 49  1  0  0  0  0
 45 67  1  0  0  0  0
 46 49  1  0  0  0  0
 46 67  1  0  0  0  0
 47 72  1  0  0  0  0
 48 66  1  0  0  0  0
 49 65  1  0  0  0  0
 50 58  1  0  0  0  0
 51 61  1  0  0  0  0
 52 62  1  0  0  0  0
 53 62  1  0  0  0  0
 54 62  1  0  0  0  0
 55 63  1  0  0  0  0
 56 63  1  0  0  0  0
 57 74  1  0  0  0  0
 59 63  1  0  0  0  0
 60 62  1  0  0  0  0
 60 73  1  0  0  0  0
 61 74  1  0  0  0  0
 63 82  1  0  0  0  0
 64 65  1  0  0  0  0
M  CHG  1  74   1
M  ISO  4  37 100  63 101  71 100  82 101
M  END
> <Batch ID>
0139

> <Smiles>
CCc1cc(NC(=O)C[101C:1](C)(C)[101O:1]c2ccc3c(c2)CN(C(=O)C(NC(=O)C(C)NC)C(C)(C)C)C(C(=O)NC2CCCc4ccccc42)C3)sc1[100NH:0][100C:0](=O)N1CCCC(n2nc(-c3ccc(Oc4ccc(F)cc4F)cc3)c(C(N)=O)c2N)C1

> <Shape>
0.270

> <Color>
0.117

> <Negative vol penalty>
0.000

$$$$

  -OEChem-04052302483D

 90100  0     1  0  0  0  0  0999 V2000
  -23.5060  -20.3233   20.3945 C   0  0  0  0  0  0  0  0  0  0  0  0
  -24.5021  -21.2677   20.6210 C   0  0  0  0  0  0  0  0  0  0  0  0
  -23.0942   -9.8206   19.9584 C   0  0  0  0  0  0  0  0  0  0  0  0
  -23.8317   -9.8771   22.2583 C   0  0  0  0  0  0  0  0  0  0  0  0
  -23.4946  -19.5954   19.2054 C   0  0  0  0  0  0  0  0  0  0  0  0
  -25.4880  -21.4840   19.6589 C   0  0  0  0  0  0  0  0  0  0  0  0
  -31.8548  -24.5451   20.4700 C   0  0  0  0  0  0  0  0  0  0  0  0
  -26.3797  -26.4051   18.8634 C   0  0  0  0  0  0  0  0  0  0  0  0
  -31.4633  -25.7734   21.0119 C   0  0  0  0  0  0  0  0  0  0  0  0
  -31.0843  -17.7543   20.5572 C   0  0  0  0  0  0  0  0  0  0  0  0
  -22.3581   -8.6657   20.2228 C   0  0  0  0  0  0  0  0  0  0  0  0
  -23.0955   -8.7222   22.5228 C   0  0  0  0  0  0  0  0  0  0  0  0
  -27.1630  -27.0707   19.8053 C   0  0  0  0  0  0  0  0  0  0  0  0
  -19.8688   -7.9070   23.1093 C   0  0  0  0  0  0  0  0  0  0  0  0
  -19.1009   -7.8822   24.2735 C   0  0  0  0  0  0  0  0  0  0  0  0
  -31.2184  -19.1383   20.5642 C   0  0  0  0  0  0  0  0  0  0  0  0
  -29.9084  -24.6714   22.5276 C   0  0  0  0  0  0  0  0  0  0  0  0
  -29.0755  -26.8679   18.3492 C   0  0  0  0  0  0  0  0  0  0  0  0
  -20.3520   -5.9699   25.0579 C   0  0  0  0  0  0  0  0  0  0  0  0
  -29.4606  -17.9552   22.2834 C   0  0  0  0  0  0  0  0  0  0  0  0
  -23.8311  -10.4263   20.9761 C   0  0  0  0  0  0  0  0  0  0  0  0
  -30.3135  -23.4712   21.9744 C   0  0  0  0  0  0  0  0  0  0  0  0
  -24.1520  -12.9517   20.8121 C   0  0  0  0  0  0  0  0  0  0  0  0
  -31.2669  -23.3959   20.9653 C   0  0  0  0  0  0  0  0  0  0  0  0
  -24.4753  -19.8097   18.2241 C   0  0  0  0  0  0  0  0  0  0  0  0
  -26.9419  -25.9555   17.6600 C   0  0  0  0  0  0  0  0  0  0  0  0
  -25.4905  -20.7574   18.4562 C   0  0  0  0  0  0  0  0  0  0  0  0
  -28.2967  -26.1991   17.3926 C   0  0  0  0  0  0  0  0  0  0  0  0
  -30.4978  -25.8357   22.0326 C   0  0  0  0  0  0  0  0  0  0  0  0
  -30.1908  -17.1437   21.4301 C   0  0  0  0  0  0  0  0  0  0  0  0
  -22.3587   -8.1165   21.5050 C   0  0  0  0  0  0  0  0  0  0  0  0
  -28.5118  -27.2996   19.5496 C   0  0  0  0  0  0  0  0  0  0  0  0
  -20.8782   -6.9633   22.9194 C   0  0  0  0  0  0  0  0  0  0  0  0
  -19.3425   -6.9137   25.2478 C   0  0  0  0  0  0  0  0  0  0  0  0
  -21.1198   -5.9948   23.8937 C   0  0  0  0  0  0  0  0  0  0  0  0
  -24.5922  -11.6189   20.7035 C   0  0  0  0  0  0  0  0  0  0  0  0
  -30.4421  -19.8605   21.4561 C   0  0  0  0  0  0  0  0  0  0  0  0
  -25.2411  -13.7040   20.4453 C   0  0  0  0  0  0  0  0  0  0  0  0
  -29.8690  -22.1110   22.2970 C   0  0  0  0  0  0  0  0  0  0  0  0
  -22.8731  -13.4639   21.2092 C   0  0  0  0  0  0  0  0  0  0  0  0
  -27.3473  -23.1124   16.2977 C   0  0  0  0  0  0  0  0  0  0  0  0
  -28.3991  -24.8936   13.7990 C   0  0  0  0  0  0  0  0  0  0  0  0
  -29.7397  -27.8322   12.6970 C   0  0  0  0  0  0  0  0  0  0  0  0
  -30.6959  -14.8013   20.6525 C   0  0  0  0  0  0  0  0  0  0  0  0
  -24.4490  -18.9652   16.9748 C   0  0  0  0  0  0  0  0  0  0  0  0
  -26.0773  -25.2628   16.6427 C   0  0  0  0  0  0  0  0  0  0  0  0
  -31.4958  -21.9774   20.5748 C   0  0  0  0  0  0  0  0  0  0  0  0
  -28.9437  -25.7547   16.1072 C   0  0  0  0  0  0  0  0  0  0  0  0
  -25.3135  -19.5205   15.8459 C   0  0  0  0  0  0  0  0  0  0  0  0
  -29.6257  -12.3340   18.3194 C   0  0  0  0  0  0  0  0  0  0  0  0
  -26.6849  -19.9285   16.3748 C   0  0  0  0  0  0  0  0  0  0  0  0
  -28.1846  -12.0376   18.7406 C   0  0  0  0  0  0  0  0  0  0  0  0
  -30.5271  -12.5933   19.5252 C   0  0  0  0  0  0  0  0  0  0  0  0
  -28.6006  -13.3263   20.8744 C   0  0  0  0  0  0  0  0  0  0  0  0
  -26.5629  -21.0382   17.4261 C   0  0  1  0  0  0  0  0  0  0  0  0
  -26.8738  -24.3945   15.6735 C   0  0  1  0  0  0  0  0  0  0  0  0
  -27.6408  -13.1225   19.6908 C   0  0  2  0  0  0  0  0  0  0  0  0
  -30.5225  -28.9788   10.6066 C   0  0  0  0  0  0  0  0  0  0  0  0
  -28.5667  -29.1688   22.4012 C   0  0  0  0  0  0  0  0  0  0  0  0
  -30.9419  -23.2074   13.8292 C   0  0  0  0  0  0  0  0  0  0  0  0
  -32.0367  -24.9586   12.4140 C   0  0  0  0  0  0  0  0  0  0  0  0
  -30.0548  -23.7165   11.5470 C   0  0  0  0  0  0  0  0  0  0  0  0
  -27.7420  -29.9951   12.9966 C   0  0  0  0  0  0  0  0  0  0  0  0
  -30.0963  -27.1777   22.5979 C   0  0  0  0  0  0  0  0  0  0  0  0
  -29.7368  -25.4433   13.3661 C   0  0  1  0  0  0  0  0  0  0  0  0
  -29.3525  -28.7487   11.5504 C   0  0  2  0  0  0  0  0  0  0  0  0
  -28.9173  -27.7967   21.8396 C   0  0  2  0  0  0  0  0  0  1  0  0
  -30.6811  -24.3382   12.8142 C   0  0  0  0  0  0  0  0  0  0  0  0
  -29.5636  -19.3026   22.3190 N   0  0  0  0  0  0  0  0  0  0  0  0
  -25.8619  -11.5266   20.2992 N   0  0  0  0  0  0  0  0  0  0  0  0
  -26.2288  -12.8109   20.1504 N   0  0  0  0  0  0  0  0  0  0  0  0
  -30.5833  -21.2432   21.4548 N   0  0  0  0  0  0  0  0  0  0  0  0
  -28.0581  -25.0758   15.1467 N   0  0  0  0  0  0  0  0  0  0  0  0
  -29.9506  -13.6353   20.3777 N   0  0  0  0  0  0  0  0  0  0  0  0
  -25.4405  -15.0357   20.3494 N   0  0  0  0  0  0  0  0  0  0  0  0
  -21.8659  -12.5522   21.5537 N   0  0  0  0  0  0  0  0  0  0  0  0
  -30.0326  -15.7357   21.4473 N   0  0  0  0  0  0  0  0  0  0  0  0
  -26.3299  -22.3158   16.7876 N   0  0  0  0  0  0  0  0  0  0  0  0
  -29.4505  -26.5134   12.4168 N   0  0  0  0  0  0  0  0  0  0  0  0
  -28.9029  -30.0701   12.0727 N   0  3  0  0  0  0  0  0  0  0  0  0
  -29.0358  -21.8515   23.1470 O   0  0  0  0  0  0  0  0  0  0  0  0
  -22.6255  -14.6932   21.2412 O   0  0  0  0  0  0  0  0  0  0  0  0
  -28.5467  -22.8635   16.3309 O   0  0  0  0  0  0  0  0  0  0  0  0
  -27.6801  -24.3299   12.9703 O   0  0  0  0  0  0  0  0  0  0  0  0
  -30.2513  -28.2444   13.7357 O   0  0  0  0  0  0  0  0  0  0  0  0
  -31.8280  -14.9714   20.1926 O   0  0  0  0  0  0  0  0  0  0  0  0
  -21.6403   -6.9898   21.7634 O   0  0  0  0  0  0  0  0  0  0  0  0
  -29.2787  -27.9485   20.4675 O   0  0  0  0  0  0  0  0  0  1  0  0
  -18.6060   -6.8909   26.3664 F   0  0  0  0  0  0  0  0  0  0  0  0
  -22.0890   -5.0863   23.7173 F   0  0  0  0  0  0  0  0  0  0  0  0
  1  2  1  0  0  0  0
  1  5  2  0  0  0  0
  2  6  2  0  0  0  0
  3 11  2  0  0  0  0
  3 21  1  0  0  0  0
  4 12  1  0  0  0  0
  4 21  2  0  0  0  0
  5 25  1  0  0  0  0
  6 27  1  0  0  0  0
  7  9  2  0  0  0  0
  7 24  1  0  0  0  0
  8 13  2  0  0  0  0
  8 26  1  0  0  0  0
  9 29  1  0  0  0  0
 10 16  2  0  0  0  0
 10 30  1  0  0  0  0
 11 31  1  0  0  0  0
 12 31  2  0  0  0  0
 13 32  1  0  0  0  0
 14 15  2  0  0  0  0
 14 33  1  0  0  0  0
 15 34  1  0  0  0  0
 16 37  1  0  0  0  0
 17 22  1  0  0  0  0
 17 29  2  0  0  0  0
 18 28  1  0  0  0  0
 18 32  2  0  0  0  0
 19 34  2  0  0  0  0
 19 35  1  0  0  0  0
 20 30  2  0  0  0  0
 20 69  1  0  0  0  0
 21 36  1  0  0  0  0
 22 24  2  0  0  0  0
 22 39  1  0  0  0  0
 23 36  1  0  0  0  0
 23 38  2  0  0  0  0
 23 40  1  0  0  0  0
 24 47  1  0  0  0  0
 25 27  2  0  0  0  0
 25 45  1  0  0  0  0
 26 28  2  0  0  0  0
 26 46  1  0  0  0  0
 27 55  1  0  0  0  0
 28 48  1  0  0  0  0
 29 64  1  0  0  0  0
 30 77  1  0  0  0  0
 31 87  1  0  0  0  0
 32 88  1  0  0  0  0
 33 35  2  0  0  0  0
 33 87  1  0  0  0  0
 34 89  1  0  0  0  0
 35 90  1  0  0  0  0
 36 70  2  0  0  0  0
 37 69  2  0  0  0  0
 37 72  1  0  0  0  0
 38 71  1  0  0  0  0
 38 75  1  0  0  0  0
 39 72  1  0  0  0  0
 39 81  2  0  0  0  0
 40 76  1  0  0  0  0
 40 82  2  0  0  0  0
 41 56  1  0  0  0  0
 41 78  1  0  0  0  0
 41 83  2  0  0  0  0
 42 65  1  0  0  0  0
 42 73  1  0  0  0  0
 42 84  2  0  0  0  0
 43 66  1  0  0  0  0
 43 79  1  0  0  0  0
 43 85  2  0  0  0  0
 44 74  1  0  0  0  0
 44 77  1  0  0  0  0
 44 86  2  0  0  0  0
 45 49  1  0  0  0  0
 46 56  1  0  0  0  0
 47 72  1  0  0  0  0
 48 73  1  0  0  0  0
 49 51  1  0  0  0  0
 50 52  1  0  0  0  0
 50 53  1  0  0  0  0
 51 55  1  0  0  0  0
 52 57  1  0  0  0  0
 53 74  1  0  0  0  0
 54 57  1  0  0  0  0
 54 74  1  0  0  0  0
 55 78  1  0  0  0  0
 56 73  1  0  0  0  0
 57 71  1  0  0  0  0
 58 66  1  0  0  0  0
 59 67  1  0  0  0  0
 60 68  1  0  0  0  0
 61 68  1  0  0  0  0
 62 68  1  0  0  0  0
 63 80  1  0  0  0  0
 64 67  1  0  0  0  0
 65 68  1  0  0  0  0
 65 79  1  0  0  0  0
 66 80  1  0  0  0  0
 67 88  1  0  0  0  0
 70 71  1  0  0  0  0
M  CHG  1  80   1
M  ISO  4  44 100  67 101  77 100  88 101
M  END
> <Batch ID>
0139

> <Smiles>
CNC(C)C(=O)NC(C(=O)N1Cc2cc([101O:1][101CH:1](C)Cc3ccc4c(c3)C(=O)N(c3ccc([100NH:0][100C:0](=O)N5CCCC(n6nc(-c7ccc(Oc8ccc(F)cc8F)cc7)c(C(N)=O)c6N)C5)cn3)C4)ccc2CC1C(=O)NC1CCCc2ccccc21)C(C)(C)C

> <Shape>
0.231

> <Color>
0.185

> <Negative vol penalty>
0.000

$$$$

  -OEChem-04052302483D

 94104  0     1  0  0  0  0  0999 V2000
  -37.1326  -28.5147   15.8324 C   0  0  0  0  0  0  0  0  0  0  0  0
  -36.8077  -27.6064   16.8348 C   0  0  0  0  0  0  0  0  0  0  0  0
  -22.4300  -21.0019   20.7535 C   0  0  0  0  0  0  0  0  0  0  0  0
  -22.6693  -10.1973   20.1661 C   0  0  0  0  0  0  0  0  0  0  0  0
  -24.3232   -9.4093   21.7412 C   0  0  0  0  0  0  0  0  0  0  0  0
  -36.4931  -29.7525   15.7808 C   0  0  0  0  0  0  0  0  0  0  0  0
  -35.8437  -27.9359   17.7869 C   0  0  0  0  0  0  0  0  0  0  0  0
  -23.5011  -21.3030   21.5947 C   0  0  0  0  0  0  0  0  0  0  0  0
  -29.9447  -23.8915   18.6451 C   0  0  0  0  0  0  0  0  0  0  0  0
  -22.6594  -20.3705   19.5310 C   0  0  0  0  0  0  0  0  0  0  0  0
  -21.9338   -9.0269   20.3529 C   0  0  0  0  0  0  0  0  0  0  0  0
  -23.5877   -8.2390   21.9280 C   0  0  0  0  0  0  0  0  0  0  0  0
  -28.8935  -23.0518   19.0141 C   0  0  0  0  0  0  0  0  0  0  0  0
  -20.8416   -7.2720   23.6440 C   0  0  0  0  0  0  0  0  0  0  0  0
  -20.6583   -6.8255   24.9527 C   0  0  0  0  0  0  0  0  0  0  0  0
  -29.5877  -17.7230   22.6380 C   0  0  0  0  0  0  0  0  0  0  0  0
  -25.0310  -20.3415   19.9910 C   0  0  0  0  0  0  0  0  0  0  0  0
  -28.1675  -24.6667   20.6612 C   0  0  0  0  0  0  0  0  0  0  0  0
  -31.1679  -17.6664   20.8113 C   0  0  0  0  0  0  0  0  0  0  0  0
  -21.7787   -4.7566   24.4038 C   0  0  0  0  0  0  0  0  0  0  0  0
  -23.8640  -10.3885   20.8602 C   0  0  0  0  0  0  0  0  0  0  0  0
  -29.7550  -19.1039   22.7401 C   0  0  0  0  0  0  0  0  0  0  0  0
  -24.2003  -12.9167   20.9127 C   0  0  0  0  0  0  0  0  0  0  0  0
  -24.8016  -20.9729   21.2135 C   0  0  0  0  0  0  0  0  0  0  0  0
  -35.5139  -30.0936   16.7270 C   0  0  0  0  0  0  0  0  0  0  0  0
  -30.1023  -25.1302   19.2729 C   0  0  0  0  0  0  0  0  0  0  0  0
  -35.1914  -29.1800   17.7487 C   0  0  0  0  0  0  0  0  0  0  0  0
  -29.2112  -25.5174   20.2872 C   0  0  0  0  0  0  0  0  0  0  0  0
  -23.9599  -20.0404   19.1498 C   0  0  0  0  0  0  0  0  0  0  0  0
  -30.6288  -19.7662   21.8777 C   0  0  0  0  0  0  0  0  0  0  0  0
  -30.2942  -17.0042   21.6737 C   0  0  0  0  0  0  0  0  0  0  0  0
  -22.3930   -8.0478   21.2338 C   0  0  0  0  0  0  0  0  0  0  0  0
  -28.0073  -23.4384   20.0198 C   0  0  0  0  0  0  0  0  0  0  0  0
  -21.4935   -6.4607   22.7151 C   0  0  0  0  0  0  0  0  0  0  0  0
  -21.1269   -5.5678   25.3326 C   0  0  0  0  0  0  0  0  0  0  0  0
  -31.3352  -19.0474   20.9134 C   0  0  0  0  0  0  0  0  0  0  0  0
  -21.9620   -5.2030   23.0951 C   0  0  0  0  0  0  0  0  0  0  0  0
  -24.6246  -11.5970   20.6673 C   0  0  0  0  0  0  0  0  0  0  0  0
  -25.2811  -13.6935   20.5736 C   0  0  0  0  0  0  0  0  0  0  0  0
  -28.9975  -19.8374   23.7664 C   0  0  0  0  0  0  0  0  0  0  0  0
  -22.9418  -13.3974   21.4034 C   0  0  0  0  0  0  0  0  0  0  0  0
  -32.0712  -28.3137   19.5282 C   0  0  0  0  0  0  0  0  0  0  0  0
  -29.1104  -29.0741   19.7851 C   0  0  0  0  0  0  0  0  0  0  0  0
  -26.0802  -30.6396   19.7208 C   0  0  0  0  0  0  0  0  0  0  0  0
  -30.7492  -14.7393   20.6688 C   0  0  0  0  0  0  0  0  0  0  0  0
  -34.8837  -31.4621   16.6586 C   0  0  0  0  0  0  0  0  0  0  0  0
  -31.2564  -26.0401   18.9505 C   0  0  0  0  0  0  0  0  0  0  0  0
  -29.4400  -26.8438   20.9589 C   0  0  0  0  0  0  0  0  0  0  0  0
  -33.6051  -31.5859   17.4833 C   0  0  0  0  0  0  0  0  0  0  0  0
  -29.5700  -12.4990   18.1653 C   0  0  0  0  0  0  0  0  0  0  0  0
  -33.8053  -30.9865   18.8717 C   0  0  0  0  0  0  0  0  0  0  0  0
  -28.1434  -12.1732   18.6132 C   0  0  0  0  0  0  0  0  0  0  0  0
  -25.6099  -21.2925   23.6422 C   0  0  0  0  0  0  0  0  0  0  0  0
  -30.5187  -12.6433   19.3540 C   0  0  0  0  0  0  0  0  0  0  0  0
  -26.9357  -21.0736   24.3570 C   0  0  0  0  0  0  0  0  0  0  0  0
  -28.6511  -13.2611   20.8371 C   0  0  0  0  0  0  0  0  0  0  0  0
  -27.0980  -20.2403   22.1082 C   0  0  0  0  0  0  0  0  0  0  0  0
  -34.1333  -29.4910   18.7849 C   0  0  1  0  0  0  0  0  0  0  0  0
  -30.8895  -27.5327   19.0331 C   0  0  1  0  0  0  0  0  0  0  0  0
  -27.6454  -13.1703   19.6778 C   0  0  2  0  0  0  0  0  0  0  0  0
  -25.9729  -21.3014   22.1353 C   0  0  1  0  0  0  0  0  0  0  0  0
  -24.2052  -19.3658   17.8422 C   0  0  0  0  0  0  0  0  0  0  0  0
  -30.8256  -21.2447   21.9686 C   0  0  0  0  0  0  0  0  0  0  0  0
  -24.9338  -32.7435   20.4669 C   0  0  0  0  0  0  0  0  0  0  0  0
  -29.0233  -28.0091   22.6421 C   0  0  0  0  0  0  0  0  0  0  0  0
  -27.1319  -29.5852   23.0965 C   0  0  0  0  0  0  0  0  0  0  0  0
  -29.3720  -30.4788   22.4592 C   0  0  0  0  0  0  0  0  0  0  0  0
  -25.4327  -31.4116   16.9380 C   0  0  0  0  0  0  0  0  0  0  0  0
  -26.5335  -22.6796   21.7256 C   0  0  0  0  0  0  0  0  0  1  0  0
  -27.9481  -29.3394   20.7081 C   0  0  1  0  0  0  0  0  0  0  0  0
  -25.6851  -32.0546   19.3383 C   0  0  2  0  0  0  0  0  0  0  0  0
  -28.3671  -29.3341   22.2054 C   0  0  0  0  0  0  0  0  0  0  0  0
  -25.8771  -11.5351   20.2076 N   0  0  0  0  0  0  0  0  0  0  0  0
  -26.2492  -12.8256   20.1615 N   0  0  0  0  0  0  0  0  0  0  0  0
  -27.7490  -20.3275   23.4146 N   0  0  0  0  0  0  0  0  0  0  0  0
  -29.7894  -27.8615   19.9555 N   0  0  0  0  0  0  0  0  0  0  0  0
  -29.9840  -13.6068   20.3187 N   0  0  0  0  0  0  0  0  0  0  0  0
  -25.4883  -15.0273   20.5908 N   0  0  0  0  0  0  0  0  0  0  0  0
  -22.7753  -13.5416   22.7875 N   0  0  0  0  0  0  0  0  0  0  0  0
  -30.1246  -15.6012   21.5696 N   0  0  0  0  0  0  0  0  0  0  0  0
  -32.9328  -28.7243   18.5290 N   0  0  0  0  0  0  0  0  0  0  0  0
  -27.3484  -30.5915   20.2599 N   0  0  0  0  0  0  0  0  0  0  0  0
  -24.8105  -32.0400   18.1317 N   0  3  0  0  0  0  0  0  0  0  0  0
  -29.5268  -19.9763   24.8673 O   0  0  0  0  0  0  0  0  0  0  0  0
  -21.9874  -13.6749   20.6381 O   0  0  0  0  0  0  0  0  0  0  0  0
  -32.1927  -28.5299   20.7283 O   0  0  0  0  0  0  0  0  0  0  0  0
  -29.4139  -29.9198   18.9390 O   0  0  0  0  0  0  0  0  0  0  0  0
  -25.3366  -29.6742   19.5610 O   0  0  0  0  0  0  0  0  0  0  0  0
  -31.8645  -14.9444   20.1829 O   0  0  0  0  0  0  0  0  0  0  0  0
  -21.6754   -6.9057   21.4165 O   0  0  0  0  0  0  0  0  0  0  0  0
  -26.9807  -22.6158   20.3719 O   0  0  0  0  0  0  0  0  0  1  0  0
  -20.9521   -5.1398   26.5897 F   0  0  0  0  0  0  0  0  0  0  0  0
  -32.1778  -19.6739   20.0801 F   0  0  0  0  0  0  0  0  0  0  0  0
  -22.5900   -4.4197   22.2075 F   0  0  0  0  0  0  0  0  0  0  0  0
  1  2  1  0  0  0  0
  1  6  2  0  0  0  0
  2  7  2  0  0  0  0
  3  8  2  0  0  0  0
  3 10  1  0  0  0  0
  4 11  2  0  0  0  0
  4 21  1  0  0  0  0
  5 12  1  0  0  0  0
  5 21  2  0  0  0  0
  6 25  1  0  0  0  0
  7 27  1  0  0  0  0
  8 24  1  0  0  0  0
  9 13  2  0  0  0  0
  9 26  1  0  0  0  0
 10 29  2  0  0  0  0
 11 32  1  0  0  0  0
 12 32  2  0  0  0  0
 13 33  1  0  0  0  0
 14 15  2  0  0  0  0
 14 34  1  0  0  0  0
 15 35  1  0  0  0  0
 16 22  1  0  0  0  0
 16 31  2  0  0  0  0
 17 24  2  0  0  0  0
 17 29  1  0  0  0  0
 18 28  1  0  0  0  0
 18 33  2  0  0  0  0
 19 31  1  0  0  0  0
 19 36  2  0  0  0  0
 20 35  2  0  0  0  0
 20 37  1  0  0  0  0
 21 38  1  0  0  0  0
 22 30  2  0  0  0  0
 22 40  1  0  0  0  0
 23 38  1  0  0  0  0
 23 39  2  0  0  0  0
 23 41  1  0  0  0  0
 24 61  1  0  0  0  0
 25 27  2  0  0  0  0
 25 46  1  0  0  0  0
 26 28  2  0  0  0  0
 26 47  1  0  0  0  0
 27 58  1  0  0  0  0
 28 48  1  0  0  0  0
 29 62  1  0  0  0  0
 30 36  1  0  0  0  0
 30 63  1  0  0  0  0
 31 80  1  0  0  0  0
 32 90  1  0  0  0  0
 33 91  1  0  0  0  0
 34 37  2  0  0  0  0
 34 90  1  0  0  0  0
 35 92  1  0  0  0  0
 36 93  1  0  0  0  0
 37 94  1  0  0  0  0
 38 73  2  0  0  0  0
 39 74  1  0  0  0  0
 39 78  1  0  0  0  0
 40 75  1  0  0  0  0
 40 84  2  0  0  0  0
 41 79  1  0  0  0  0
 41 85  2  0  0  0  0
 42 59  1  0  0  0  0
 42 81  1  0  0  0  0
 42 86  2  0  0  0  0
 43 70  1  0  0  0  0
 43 76  1  0  0  0  0
 43 87  2  0  0  0  0
 44 71  1  0  0  0  0
 44 82  1  0  0  0  0
 44 88  2  0  0  0  0
 45 77  1  0  0  0  0
 45 80  1  0  0  0  0
 45 89  2  0  0  0  0
 46 49  1  0  0  0  0
 47 59  1  0  0  0  0
 48 76  1  0  0  0  0
 49 51  1  0  0  0  0
 50 52  1  0  0  0  0
 50 54  1  0  0  0  0
 51 58  1  0  0  0  0
 52 60  1  0  0  0  0
 53 55  1  0  0  0  0
 53 61  1  0  0  0  0
 54 77  1  0  0  0  0
 55 75  1  0  0  0  0
 56 60  1  0  0  0  0
 56 77  1  0  0  0  0
 57 61  1  0  0  0  0
 57 75  1  0  0  0  0
 58 81  1  0  0  0  0
 59 76  1  0  0  0  0
 60 74  1  0  0  0  0
 61 69  1  0  0  0  0
 64 71  1  0  0  0  0
 65 72  1  0  0  0  0
 66 72  1  0  0  0  0
 67 72  1  0  0  0  0
 68 83  1  0  0  0  0
 69 91  1  0  0  0  0
 70 72  1  0  0  0  0
 70 82  1  0  0  0  0
 71 83  1  0  0  0  0
 73 74  1  0  0  0  0
M  CHG  1  83   1
M  ISO  4  45 100  69 101  80 100  91 101
M  END
> <Batch ID>
0139

> <Smiles>
CNC(C)C(=O)NC(C(=O)N1Cc2cc([101O:1][101CH2:1]C3(c4cccc(C)c4)CCN(C(=O)c4cc([100NH:0][100C:0](=O)N5CCCC(n6nc(-c7ccc(Oc8ccc(F)cc8F)cc7)c(C(N)=O)c6N)C5)cc(F)c4C)C3)ccc2CC1C(=O)NC1CCCc2ccccc21)C(C)(C)C

> <Shape>
0.289

> <Color>
0.175

> <Negative vol penalty>
0.000

$$$$

  -OEChem-04052302483D

 86 95  0     1  0  0  0  0  0999 V2000
  -19.5589  -34.3115   21.3183 C   0  0  0  0  0  0  0  0  0  0  0  0
  -20.8212  -33.8758   20.9283 C   0  0  0  0  0  0  0  0  0  0  0  0
  -27.0360  -13.1822   21.6930 C   0  0  0  0  0  0  0  0  0  0  0  0
  -26.5669  -13.6426   19.3682 C   0  0  0  0  0  0  0  0  0  0  0  0
  -18.8953  -33.6736   22.3656 C   0  0  0  0  0  0  0  0  0  0  0  0
  -21.4213  -32.8027   21.5861 C   0  0  0  0  0  0  0  0  0  0  0  0
  -25.0662  -28.5445   19.1186 C   0  0  0  0  0  0  0  0  0  0  0  0
  -26.2182  -12.0537   21.6346 C   0  0  0  0  0  0  0  0  0  0  0  0
  -25.7491  -12.5141   19.3097 C   0  0  0  0  0  0  0  0  0  0  0  0
  -26.4527  -28.4041   19.0811 C   0  0  0  0  0  0  0  0  0  0  0  0
  -26.4343   -8.8771   20.4964 C   0  0  0  0  0  0  0  0  0  0  0  0
  -26.9115   -7.7002   21.0730 C   0  0  0  0  0  0  0  0  0  0  0  0
  -31.3017  -23.3948   19.5345 C   0  0  0  0  0  0  0  0  0  0  0  0
  -26.3509  -26.9449   20.9992 C   0  0  0  0  0  0  0  0  0  0  0  0
  -25.0200   -7.6693   22.5758 C   0  0  0  0  0  0  0  0  0  0  0  0
  -33.3905  -23.4620   18.3991 C   0  0  0  0  0  0  0  0  0  0  0  0
  -31.9095  -21.7782   17.8993 C   0  0  0  0  0  0  0  0  0  0  0  0
  -27.2103  -13.9766   20.5598 C   0  0  0  0  0  0  0  0  0  0  0  0
  -32.5288  -24.0165   19.3317 C   0  0  0  0  0  0  0  0  0  0  0  0
  -29.4354  -15.2072   20.3536 C   0  0  0  0  0  0  0  0  0  0  0  0
  -19.4834  -32.5859   23.0302 C   0  0  0  0  0  0  0  0  0  0  0  0
  -24.3113  -27.8937   20.1051 C   0  0  0  0  0  0  0  0  0  0  0  0
  -20.7655  -32.1505   22.6442 C   0  0  0  0  0  0  0  0  0  0  0  0
  -24.9546  -27.0766   21.0456 C   0  0  0  0  0  0  0  0  0  0  0  0
  -30.9785  -22.2537   18.8087 C   0  0  0  0  0  0  0  0  0  0  0  0
  -25.5748  -11.7196   20.4429 C   0  0  0  0  0  0  0  0  0  0  0  0
  -27.0956  -27.6065   20.0232 C   0  0  0  0  0  0  0  0  0  0  0  0
  -25.2499   -9.4503   20.9595 C   0  0  0  0  0  0  0  0  0  0  0  0
  -26.2044   -7.0962   22.1126 C   0  0  0  0  0  0  0  0  0  0  0  0
  -24.5428   -8.8464   21.9992 C   0  0  0  0  0  0  0  0  0  0  0  0
  -28.0545  -15.1428   20.6197 C   0  0  0  0  0  0  0  0  0  0  0  0
  -29.7614  -16.5271   20.5483 C   0  0  0  0  0  0  0  0  0  0  0  0
  -32.9019  -25.2264   20.0861 C   0  0  0  0  0  0  0  0  0  0  0  0
  -30.3423  -14.1669   19.9651 C   0  0  0  0  0  0  0  0  0  0  0  0
  -22.4105  -28.8466   22.4679 C   0  0  0  0  0  0  0  0  0  0  0  0
  -21.8488  -25.6667   22.7761 C   0  0  0  0  0  0  0  0  0  0  0  0
  -22.9306  -22.4706   22.2646 C   0  0  0  0  0  0  0  0  0  0  0  0
  -28.7145  -21.9539   19.8721 C   0  0  0  0  0  0  0  0  0  0  0  0
  -18.7477  -31.9584   24.1876 C   0  0  0  0  0  0  0  0  0  0  0  0
  -22.8138  -28.0340   20.1156 C   0  0  0  0  0  0  0  0  0  0  0  0
  -24.1879  -26.3404   22.1126 C   0  0  0  0  0  0  0  0  0  0  0  0
  -19.2935  -30.5897   24.5862 C   0  0  0  0  0  0  0  0  0  0  0  0
  -27.0896  -20.3144   22.5830 C   0  0  0  0  0  0  0  0  0  0  0  0
  -20.8158  -30.6270   24.6745 C   0  0  0  0  0  0  0  0  0  0  0  0
  -27.3093  -18.8281   22.2920 C   0  0  0  0  0  0  0  0  0  0  0  0
  -31.1784  -28.3797   20.4667 C   0  0  0  0  0  0  0  0  0  0  0  0
  -26.8632  -21.1157   21.3022 C   0  0  0  0  0  0  0  0  0  0  0  0
  -32.4468  -27.5641   20.6947 C   0  0  0  0  0  0  0  0  0  0  0  0
  -28.1136  -19.4553   19.9797 C   0  0  0  0  0  0  0  0  0  0  0  0
  -30.9486  -26.3889   19.1395 C   0  0  0  0  0  0  0  0  0  0  0  0
  -21.4388  -30.9740   23.3169 C   0  0  1  0  0  0  0  0  0  0  0  0
  -22.1954  -27.7367   21.4782 C   0  0  1  0  0  0  0  0  0  0  0  0
  -28.4105  -18.6177   21.2342 C   0  0  2  0  0  0  0  0  0  0  0  0
  -30.6462  -27.8982   19.1037 C   0  0  2  0  0  0  0  0  0  0  0  0
  -31.4002  -28.5749   17.9477 C   0  0  0  0  0  0  0  0  0  0  0  0
  -22.8448  -19.9631   22.2160 C   0  0  0  0  0  0  0  0  0  0  0  0
  -22.6042  -25.9456   25.7191 C   0  0  0  0  0  0  0  0  0  0  0  0
  -22.8526  -23.4564   25.8193 C   0  0  0  0  0  0  0  0  0  0  0  0
  -20.6355  -24.4662   25.2831 C   0  0  0  0  0  0  0  0  0  0  0  0
  -21.7593  -22.4476   19.5468 C   0  0  0  0  0  0  0  0  0  0  0  0
  -29.1478  -28.1689   18.9610 C   0  0  0  0  0  0  0  0  0  1  0  0
  -22.4813  -24.5401   23.5569 C   0  0  1  0  0  0  0  0  0  0  0  0
  -22.2338  -21.2516   21.6876 C   0  0  2  0  0  0  0  0  0  0  0  0
  -22.1583  -24.6174   25.0758 C   0  0  0  0  0  0  0  0  0  0  0  0
  -33.1115  -22.3549   17.6751 N   0  0  0  0  0  0  0  0  0  0  0  0
  -27.5387  -16.3275   20.9579 N   0  0  0  0  0  0  0  0  0  0  0  0
  -28.6012  -17.1488   20.9056 N   0  0  0  0  0  0  0  0  0  0  0  0
  -32.1560  -26.3112   19.9825 N   0  0  0  0  0  0  0  0  0  0  0  0
  -22.7262  -26.5145   22.0852 N   0  0  0  0  0  0  0  0  0  0  0  0
  -27.9474  -20.8699   20.3488 N   0  0  0  0  0  0  0  0  0  0  0  0
  -30.9244  -17.2050   20.4472 N   0  0  0  0  0  0  0  0  0  0  0  0
  -29.8412  -12.8672   19.8096 N   0  0  0  0  0  0  0  0  0  0  0  0
  -29.7381  -21.5947   18.9959 N   0  0  0  0  0  0  0  0  0  0  0  0
  -21.4283  -29.8183   22.4458 N   0  0  0  0  0  0  0  0  0  0  0  0
  -22.0458  -23.3042   22.9155 N   0  0  0  0  0  0  0  0  0  0  0  0
  -33.9826  -25.2061   20.8605 N   0  3  0  0  0  0  0  0  0  0  0  0
  -22.3422  -21.2481   20.2013 N   0  3  0  0  0  0  0  0  0  0  0  0
  -31.5641  -14.3802   19.7777 O   0  0  0  0  0  0  0  0  0  0  0  0
  -23.3941  -28.8224   23.1985 O   0  0  0  0  0  0  0  0  0  0  0  0
  -20.6210  -25.7858   22.7732 O   0  0  0  0  0  0  0  0  0  0  0  0
  -24.1394  -22.6622   22.1526 O   0  0  0  0  0  0  0  0  0  0  0  0
  -28.4978  -23.1123   20.2369 O   0  0  0  0  0  0  0  0  0  0  0  0
  -24.7769  -10.6184   20.3855 O   0  0  0  0  0  0  0  0  0  0  0  0
  -28.4490  -27.4683   19.9892 O   0  0  0  0  0  0  0  0  0  1  0  0
  -26.6621   -5.9651   22.6652 F   0  0  0  0  0  0  0  0  0  0  0  0
  -23.4037   -9.3917   22.4475 F   0  0  0  0  0  0  0  0  0  0  0  0
  1  2  1  0  0  0  0
  1  5  2  0  0  0  0
  2  6  2  0  0  0  0
  3  8  2  0  0  0  0
  3 18  1  0  0  0  0
  4  9  1  0  0  0  0
  4 18  2  0  0  0  0
  5 21  1  0  0  0  0
  6 23  1  0  0  0  0
  7 10  2  0  0  0  0
  7 22  1  0  0  0  0
  8 26  1  0  0  0  0
  9 26  2  0  0  0  0
 10 27  1  0  0  0  0
 11 12  2  0  0  0  0
 11 28  1  0  0  0  0
 12 29  1  0  0  0  0
 13 19  2  0  0  0  0
 13 25  1  0  0  0  0
 14 24  1  0  0  0  0
 14 27  2  0  0  0  0
 15 29  2  0  0  0  0
 15 30  1  0  0  0  0
 16 19  1  0  0  0  0
 16 65  2  0  0  0  0
 17 25  2  0  0  0  0
 17 65  1  0  0  0  0
 18 31  1  0  0  0  0
 19 33  1  0  0  0  0
 20 31  1  0  0  0  0
 20 32  2  0  0  0  0
 20 34  1  0  0  0  0
 21 23  2  0  0  0  0
 21 39  1  0  0  0  0
 22 24  2  0  0  0  0
 22 40  1  0  0  0  0
 23 51  1  0  0  0  0
 24 41  1  0  0  0  0
 25 73  1  0  0  0  0
 26 83  1  0  0  0  0
 27 84  1  0  0  0  0
 28 30  2  0  0  0  0
 28 83  1  0  0  0  0
 29 85  1  0  0  0  0
 30 86  1  0  0  0  0
 31 66  2  0  0  0  0
 32 67  1  0  0  0  0
 32 71  1  0  0  0  0
 33 68  1  0  0  0  0
 33 76  2  0  0  0  0
 34 72  1  0  0  0  0
 34 78  2  0  0  0  0
 35 52  1  0  0  0  0
 35 74  1  0  0  0  0
 35 79  2  0  0  0  0
 36 62  1  0  0  0  0
 36 69  1  0  0  0  0
 36 80  2  0  0  0  0
 37 63  1  0  0  0  0
 37 75  1  0  0  0  0
 37 81  2  0  0  0  0
 38 70  1  0  0  0  0
 38 73  1  0  0  0  0
 38 82  2  0  0  0  0
 39 42  1  0  0  0  0
 40 52  1  0  0  0  0
 41 69  1  0  0  0  0
 42 44  1  0  0  0  0
 43 45  1  0  0  0  0
 43 47  1  0  0  0  0
 44 51  1  0  0  0  0
 45 53  1  0  0  0  0
 46 48  1  0  0  0  0
 46 54  1  0  0  0  0
 47 70  1  0  0  0  0
 48 68  1  0  0  0  0
 49 53  1  0  0  0  0
 49 70  1  0  0  0  0
 50 54  1  0  0  0  0
 50 68  1  0  0  0  0
 51 74  1  0  0  0  0
 52 69  1  0  0  0  0
 53 67  1  0  0  0  0
 54 55  1  0  0  0  0
 54 61  1  0  0  0  0
 56 63  1  0  0  0  0
 57 64  1  0  0  0  0
 58 64  1  0  0  0  0
 59 64  1  0  0  0  0
 60 77  1  0  0  0  0
 61 84  1  0  0  0  0
 62 64  1  0  0  0  0
 62 75  1  0  0  0  0
 63 77  1  0  0  0  0
 66 67  1  0  0  0  0
M  CHG  2  76   1  77   1
M  ISO  4  38 100  61 101  73 100  84 101
M  END
> <Batch ID>
0139

> <Smiles>
CNC(C)C(=O)NC(C(=O)N1Cc2cc([101O:1][101CH2:1]C3(C)CCN(C(=N)c4cncc([100NH:0][100C:0](=O)N5CCCC(n6nc(-c7ccc(Oc8ccc(F)cc8F)cc7)c(C(N)=O)c6N)C5)c4)C3)ccc2CC1C(=O)NC1CCCc2ccccc21)C(C)(C)C

> <Shape>
0.224

> <Color>
0.090

> <Negative vol penalty>
0.000

$$$$

  -OEChem-04052302483D

 84 93  0     1  0  0  0  0  0999 V2000
  -28.5194  -35.5853   25.5891 C   0  0  0  0  0  0  0  0  0  0  0  0
  -28.8482  -34.4154   24.9120 C   0  0  0  0  0  0  0  0  0  0  0  0
  -24.6129   -8.4711   20.6554 C   0  0  0  0  0  0  0  0  0  0  0  0
  -22.9082  -10.1689   20.4353 C   0  0  0  0  0  0  0  0  0  0  0  0
  -27.2396  -35.7470   26.1182 C   0  0  0  0  0  0  0  0  0  0  0  0
  -27.8976  -33.4059   24.7646 C   0  0  0  0  0  0  0  0  0  0  0  0
  -27.2289  -29.6498   19.9739 C   0  0  0  0  0  0  0  0  0  0  0  0
  -27.4698  -18.3674   17.8283 C   0  0  0  0  0  0  0  0  0  0  0  0
  -23.6425   -7.5469   21.0424 C   0  0  0  0  0  0  0  0  0  0  0  0
  -21.9377   -9.2447   20.8222 C   0  0  0  0  0  0  0  0  0  0  0  0
  -27.6478  -28.3401   19.7432 C   0  0  0  0  0  0  0  0  0  0  0  0
  -21.8964   -6.7915   23.8361 C   0  0  0  0  0  0  0  0  0  0  0  0
  -27.3089  -19.6166   17.2290 C   0  0  0  0  0  0  0  0  0  0  0  0
  -22.1797   -5.9758   24.9315 C   0  0  0  0  0  0  0  0  0  0  0  0
  -25.4869  -27.5314   20.4473 C   0  0  0  0  0  0  0  0  0  0  0  0
  -28.0928  -19.4419   19.9007 C   0  0  0  0  0  0  0  0  0  0  0  0
  -21.9462   -4.0186   23.5344 C   0  0  0  0  0  0  0  0  0  0  0  0
  -24.2457   -9.7822   20.3519 C   0  0  0  0  0  0  0  0  0  0  0  0
  -25.6884  -11.0104   18.6438 C   0  0  0  0  0  0  0  0  0  0  0  0
  -26.2699  -34.7430   25.9689 C   0  0  0  0  0  0  0  0  0  0  0  0
  -25.9374  -29.9098   20.4542 C   0  0  0  0  0  0  0  0  0  0  0  0
  -26.6041  -33.5537   25.2934 C   0  0  0  0  0  0  0  0  0  0  0  0
  -25.0532  -28.8454   20.6808 C   0  0  0  0  0  0  0  0  0  0  0  0
  -27.9319  -20.6911   19.3013 C   0  0  0  0  0  0  0  0  0  0  0  0
  -27.8617  -18.2800   19.1642 C   0  0  0  0  0  0  0  0  0  0  0  0
  -22.3049   -7.9337   21.1258 C   0  0  0  0  0  0  0  0  0  0  0  0
  -26.7777  -27.2805   19.9826 C   0  0  0  0  0  0  0  0  0  0  0  0
  -21.6380   -6.2208   22.5898 C   0  0  0  0  0  0  0  0  0  0  0  0
  -22.2046   -4.5893   24.7807 C   0  0  0  0  0  0  0  0  0  0  0  0
  -27.5399  -20.7784   17.9655 C   0  0  0  0  0  0  0  0  0  0  0  0
  -21.6629   -4.8344   22.4390 C   0  0  0  0  0  0  0  0  0  0  0  0
  -25.2478  -10.7375   19.9526 C   0  0  0  0  0  0  0  0  0  0  0  0
  -26.6407  -11.9879   18.7989 C   0  0  0  0  0  0  0  0  0  0  0  0
  -28.2133  -24.0656   20.6815 C   0  0  0  0  0  0  0  0  0  0  0  0
  -27.7759  -25.3248   20.7884 C   0  0  0  0  0  0  0  0  0  1  0  0
  -25.2739  -10.4322   17.3990 C   0  0  0  0  0  0  0  0  0  0  0  0
  -24.7482  -31.2492   23.0802 C   0  0  0  0  0  0  0  0  0  0  0  0
  -21.9283  -30.8852   21.5189 C   0  0  0  0  0  0  0  0  0  0  0  0
  -20.1237  -29.2235   19.1463 C   0  0  0  0  0  0  0  0  0  0  0  0
  -28.4086  -16.7465   21.0866 C   0  0  0  0  0  0  0  0  0  0  0  0
  -24.9145  -34.9434   26.5991 C   0  0  0  0  0  0  0  0  0  0  0  0
  -25.4919  -31.3298   20.6726 C   0  0  0  0  0  0  0  0  0  0  0  0
  -23.6495  -29.0724   21.1773 C   0  0  0  0  0  0  0  0  0  0  0  0
  -28.8649  -23.2851   21.7788 C   0  0  0  0  0  0  0  0  0  0  0  0
  -28.0176  -23.1861   19.4833 C   0  0  0  0  0  0  0  0  0  0  0  0
  -23.8507  -33.9825   26.0744 C   0  0  0  0  0  0  0  0  0  0  0  0
  -28.8879  -13.7645   22.9721 C   0  0  0  0  0  0  0  0  0  0  0  0
  -24.3910  -32.5565   26.0375 C   0  0  0  0  0  0  0  0  0  0  0  0
  -28.0199  -12.7336   22.2470 C   0  0  0  0  0  0  0  0  0  0  0  0
  -28.4557  -21.8491   21.4633 C   0  0  0  0  0  0  0  0  0  0  0  0
  -28.2384  -15.1472   22.9809 C   0  0  0  0  0  0  0  0  0  0  0  0
  -26.9675  -14.6214   20.9370 C   0  0  0  0  0  0  0  0  0  0  0  0
  -25.5928  -32.4462   25.0914 C   0  0  1  0  0  0  0  0  0  0  0  0
  -24.3276  -31.4469   21.6513 C   0  0  1  0  0  0  0  0  0  0  0  0
  -27.6102  -13.2277   20.8457 C   0  0  2  0  0  0  0  0  0  0  0  0
  -17.8341  -29.1239   18.1240 C   0  0  0  0  0  0  0  0  0  0  0  0
  -20.8897  -29.4317   23.9925 C   0  0  0  0  0  0  0  0  0  0  0  0
  -19.0075  -28.5486   22.5977 C   0  0  0  0  0  0  0  0  0  0  0  0
  -19.2540  -31.0066   22.9443 C   0  0  0  0  0  0  0  0  0  0  0  0
  -21.1655  -29.9096   16.4624 C   0  0  0  0  0  0  0  0  0  0  0  0
  -20.8844  -29.7978   21.4367 C   0  0  1  0  0  0  0  0  0  0  0  0
  -19.2279  -29.7246   18.0278 C   0  0  2  0  0  0  0  0  0  0  0  0
  -20.0359  -29.6914   22.7353 C   0  0  0  0  0  0  0  0  0  0  0  0
  -25.8692  -11.4813   20.8716 N   0  0  0  0  0  0  0  0  0  0  0  0
  -26.7101  -12.2313   20.1391 N   0  0  0  0  0  0  0  0  0  0  0  0
  -28.1623  -21.8401   20.0322 N   0  0  3  0  0  0  0  0  0  0  0  0
  -23.2630  -30.4783   21.3818 N   0  0  0  0  0  0  0  0  0  0  0  0
  -27.8812  -15.5512   21.6192 N   0  0  0  0  0  0  0  0  0  0  0  0
  -27.4172  -12.6544   17.9184 N   0  0  0  0  0  0  0  0  0  0  0  0
  -24.2841   -9.4401   17.4199 N   0  0  0  0  0  0  0  0  0  0  0  0
  -28.0252  -17.0106   19.7721 N   0  0  0  0  0  0  0  0  0  0  0  0
  -25.1500  -32.4095   23.7140 N   0  0  0  0  0  0  0  0  0  0  0  0
  -20.1047  -30.0705   20.2342 N   0  0  0  0  0  0  0  0  0  0  0  0
  -19.8045  -29.3643   16.7016 N   0  3  0  0  0  0  0  0  0  0  0  0
  -25.7783  -10.7732   16.3023 O   0  0  0  0  0  0  0  0  0  0  0  0
  -24.7097  -30.1273   23.5717 O   0  0  0  0  0  0  0  0  0  0  0  0
  -21.5722  -32.0536   21.6910 O   0  0  0  0  0  0  0  0  0  0  0  0
  -20.7724  -28.1828   19.0646 O   0  0  0  0  0  0  0  0  0  0  0  0
  -29.1680  -17.4679   21.7385 O   0  0  0  0  0  0  0  0  0  0  0  0
  -21.3577   -7.0321   21.5031 O   0  0  0  0  0  0  0  0  0  0  0  0
  -27.1842  -26.0013   19.7588 O   0  0  0  0  0  0  0  0  0  1  0  0
  -22.4782   -3.8061   25.8323 F   0  0  0  0  0  0  0  0  0  0  0  0
  -27.3843  -21.9739   17.3790 F   0  0  0  0  0  0  0  0  0  0  0  0
  -21.4166   -4.2803   21.2439 F   0  0  0  0  0  0  0  0  0  0  0  0
  1  2  1  0  0  0  0
  1  5  2  0  0  0  0
  2  6  2  0  0  0  0
  3  9  2  0  0  0  0
  3 18  1  0  0  0  0
  4 10  1  0  0  0  0
  4 18  2  0  0  0  0
  5 20  1  0  0  0  0
  6 22  1  0  0  0  0
  7 11  2  0  0  0  0
  7 21  1  0  0  0  0
  8 13  2  0  0  0  0
  8 25  1  0  0  0  0
  9 26  1  0  0  0  0
 10 26  2  0  0  0  0
 11 27  1  0  0  0  0
 12 14  2  0  0  0  0
 12 28  1  0  0  0  0
 13 30  1  0  0  0  0
 14 29  1  0  0  0  0
 15 23  1  0  0  0  0
 15 27  2  0  0  0  0
 16 24  1  0  0  0  0
 16 25  2  0  0  0  0
 17 29  2  0  0  0  0
 17 31  1  0  0  0  0
 18 32  1  0  0  0  0
 19 32  1  0  0  0  0
 19 33  2  0  0  0  0
 19 36  1  0  0  0  0
 20 22  2  0  0  0  0
 20 41  1  0  0  0  0
 21 23  2  0  0  0  0
 21 42  1  0  0  0  0
 22 53  1  0  0  0  0
 23 43  1  0  0  0  0
 24 30  2  0  0  0  0
 24 66  1  0  0  0  0
 25 71  1  0  0  0  0
 26 80  1  0  0  0  0
 27 81  1  0  0  0  0
 28 31  2  0  0  0  0
 28 80  1  0  0  0  0
 29 82  1  0  0  0  0
 30 83  1  0  0  0  0
 31 84  1  0  0  0  0
 32 64  2  0  0  0  0
 33 65  1  0  0  0  0
 33 69  1  0  0  0  0
 34 35  2  0  0  0  0
 34 44  1  0  0  0  0
 34 45  1  0  0  0  0
 35 81  1  0  0  0  0
 36 70  1  0  0  0  0
 36 75  2  0  0  0  0
 37 54  1  0  0  0  0
 37 72  1  0  0  0  0
 37 76  2  0  0  0  0
 38 61  1  0  0  0  0
 38 67  1  0  0  0  0
 38 77  2  0  0  0  0
 39 62  1  0  0  0  0
 39 73  1  0  0  0  0
 39 78  2  0  0  0  0
 40 68  1  0  0  0  0
 40 71  1  0  0  0  0
 40 79  2  0  0  0  0
 41 46  1  0  0  0  0
 42 54  1  0  0  0  0
 43 67  1  0  0  0  0
 44 50  1  0  0  0  0
 45 66  1  0  0  0  0
 46 48  1  0  0  0  0
 47 49  1  0  0  0  0
 47 51  1  0  0  0  0
 48 53  1  0  0  0  0
 49 55  1  0  0  0  0
 50 66  1  0  0  0  0
 51 68  1  0  0  0  0
 52 55  1  0  0  0  0
 52 68  1  0  0  0  0
 53 72  1  0  0  0  0
 54 67  1  0  0  0  0
 55 65  1  0  0  0  0
 56 62  1  0  0  0  0
 57 63  1  0  0  0  0
 58 63  1  0  0  0  0
 59 63  1  0  0  0  0
 60 74  1  0  0  0  0
 61 63  1  0  0  0  0
 61 73  1  0  0  0  0
 62 74  1  0  0  0  0
 64 65  1  0  0  0  0
M  CHG  1  74   1
M  ISO  4  35 101  40 100  71 100  81 101
M  END
> <Batch ID>
0139

> <Smiles>
CNC(C)C(=O)NC(C(=O)N1Cc2cc([101O:1][101CH:1]=C3CCN(c4cc([100NH:0][100C:0](=O)N5CCCC(n6nc(-c7ccc(Oc8ccc(F)cc8F)cc7)c(C(N)=O)c6N)C5)ccc4F)C3)ccc2CC1C(=O)NC1CCCc2ccccc21)C(C)(C)C

> <Shape>
0.318

> <Color>
0.110

> <Negative vol penalty>
0.000

$$$$

  -OEChem-04052302483D

 84 92  0     1  0  0  0  0  0999 V2000
  -32.7276  -19.1908   14.6421 C   0  0  0  0  0  0  0  0  0  0  0  0
  -31.7665  -19.3102   15.6407 C   0  0  0  0  0  0  0  0  0  0  0  0
  -23.0745   -9.8673   19.9438 C   0  0  0  0  0  0  0  0  0  0  0  0
  -23.8314   -9.8794   22.2381 C   0  0  0  0  0  0  0  0  0  0  0  0
  -34.0451  -19.5703   14.8952 C   0  0  0  0  0  0  0  0  0  0  0  0
  -32.1226  -19.8083   16.8935 C   0  0  0  0  0  0  0  0  0  0  0  0
  -28.6801  -23.2656   20.5952 C   0  0  0  0  0  0  0  0  0  0  0  0
  -32.6477  -17.4974   23.4512 C   0  0  0  0  0  0  0  0  0  0  0  0
  -32.0607  -16.6114   22.5478 C   0  0  0  0  0  0  0  0  0  0  0  0
  -22.3299   -8.7150   20.1955 C   0  0  0  0  0  0  0  0  0  0  0  0
  -23.0867   -8.7272   22.4899 C   0  0  0  0  0  0  0  0  0  0  0  0
  -27.8955  -22.9571   21.7056 C   0  0  0  0  0  0  0  0  0  0  0  0
  -19.3794   -7.9230   21.6448 C   0  0  0  0  0  0  0  0  0  0  0  0
  -18.0731   -7.8760   21.1579 C   0  0  0  0  0  0  0  0  0  0  0  0
  -29.7287  -23.5484   23.1577 C   0  0  0  0  0  0  0  0  0  0  0  0
  -29.8764  -17.4623   23.1324 C   0  0  0  0  0  0  0  0  0  0  0  0
  -18.6339   -5.9296   19.8411 C   0  0  0  0  0  0  0  0  0  0  0  0
  -23.8253  -10.4495   20.9651 C   0  0  0  0  0  0  0  0  0  0  0  0
  -24.1682  -12.9742   20.8394 C   0  0  0  0  0  0  0  0  0  0  0  0
  -34.4156  -20.0823   16.1486 C   0  0  0  0  0  0  0  0  0  0  0  0
  -30.0008  -23.7083   20.7577 C   0  0  0  0  0  0  0  0  0  0  0  0
  -33.4466  -20.1938   17.1641 C   0  0  0  0  0  0  0  0  0  0  0  0
  -30.5272  -23.8644   22.0479 C   0  0  0  0  0  0  0  0  0  0  0  0
  -31.8490  -18.3658   24.1952 C   0  0  0  0  0  0  0  0  0  0  0  0
  -30.6751  -16.5939   22.3884 C   0  0  0  0  0  0  0  0  0  0  0  0
  -30.4634  -18.3483   24.0358 C   0  0  0  0  0  0  0  0  0  0  0  0
  -22.3359   -8.1450   21.4685 C   0  0  0  0  0  0  0  0  0  0  0  0
  -28.4207  -23.0957   22.9870 C   0  0  0  0  0  0  0  0  0  0  0  0
  -20.3130   -6.9732   21.2297 C   0  0  0  0  0  0  0  0  0  0  0  0
  -17.7003   -6.8794   20.2561 C   0  0  0  0  0  0  0  0  0  0  0  0
  -19.9402   -5.9766   20.3279 C   0  0  0  0  0  0  0  0  0  0  0  0
  -24.5952  -11.6394   20.7055 C   0  0  0  0  0  0  0  0  0  0  0  0
  -25.2611  -13.7224   20.4758 C   0  0  0  0  0  0  0  0  0  0  0  0
  -22.8974  -13.4915   21.2554 C   0  0  0  0  0  0  0  0  0  0  0  0
  -32.8566  -22.6100   19.8966 C   0  0  0  0  0  0  0  0  0  0  0  0
  -33.8767  -25.4462   21.0957 C   0  0  0  0  0  0  0  0  0  0  0  0
  -28.2487  -19.3224   24.7350 C   0  0  0  0  0  0  0  0  0  0  0  0
  -33.3119  -28.0737   23.1990 C   0  0  0  0  0  0  0  0  0  0  0  0
  -30.7275  -14.7664   20.6552 C   0  0  0  0  0  0  0  0  0  0  0  0
  -35.8619  -20.4350   16.3901 C   0  0  0  0  0  0  0  0  0  0  0  0
  -30.8253  -24.0625   19.5506 C   0  0  0  0  0  0  0  0  0  0  0  0
  -31.9325  -24.3553   22.2770 C   0  0  0  0  0  0  0  0  0  0  0  0
  -36.0787  -21.3044   17.6260 C   0  0  0  0  0  0  0  0  0  0  0  0
  -29.6153  -12.3473   18.2913 C   0  0  0  0  0  0  0  0  0  0  0  0
  -35.2957  -20.7506   18.8122 C   0  0  0  0  0  0  0  0  0  0  0  0
  -28.1750  -12.0573   18.7196 C   0  0  0  0  0  0  0  0  0  0  0  0
  -30.5289  -12.5786   19.4936 C   0  0  0  0  0  0  0  0  0  0  0  0
  -28.6204  -13.3071   20.8706 C   0  0  0  0  0  0  0  0  0  0  0  0
  -33.7888  -20.7529   18.5280 C   0  0  1  0  0  0  0  0  0  0  0  0
  -32.3266  -24.0137   19.8172 C   0  0  1  0  0  0  0  0  0  0  0  0
  -27.6491  -13.1314   19.6919 C   0  0  2  0  0  0  0  0  0  0  0  0
  -32.5050  -19.3041   25.1555 C   0  0  0  0  0  0  0  0  0  0  0  0
  -34.3427  -30.2205   23.9903 C   0  0  0  0  0  0  0  0  0  0  0  0
  -35.8205  -23.8674   22.8390 C   0  0  0  0  0  0  0  0  0  0  0  0
  -36.1197  -25.9193   24.2421 C   0  0  0  0  0  0  0  0  0  0  0  0
  -36.7746  -25.9499   21.8353 C   0  0  0  0  0  0  0  0  0  0  0  0
  -31.0407  -29.6748   22.1805 C   0  0  0  0  0  0  0  0  0  0  0  0
  -27.7586  -20.3914   25.7019 C   0  0  0  0  0  0  0  0  0  0  0  0
  -26.4716  -21.0616   25.2334 C   0  0  0  0  0  0  0  0  0  0  0  0
  -26.6639  -21.7834   23.9076 C   0  0  0  0  0  0  0  0  0  1  0  0
  -34.3229  -25.9348   22.4526 C   0  0  1  0  0  0  0  0  0  0  0  0
  -33.4035  -29.5737   22.9841 C   0  0  2  0  0  0  0  0  0  0  0  0
  -35.7335  -25.4067   22.8382 C   0  0  0  0  0  0  0  0  0  0  0  0
  -25.8605  -11.5421   20.2891 N   0  0  0  0  0  0  0  0  0  0  0  0
  -26.2381  -12.8253   20.1582 N   0  0  0  0  0  0  0  0  0  0  0  0
  -32.7011  -24.6828   21.0647 N   0  0  0  0  0  0  0  0  0  0  0  0
  -29.9692  -13.6118   20.3677 N   0  0  0  0  0  0  0  0  0  0  0  0
  -25.4721  -15.0536   20.3999 N   0  0  0  0  0  0  0  0  0  0  0  0
  -21.8847  -12.5835   21.5936 N   0  0  0  0  0  0  0  0  0  0  0  0
  -29.6363  -19.2215   24.7817 N   0  0  0  0  0  0  0  0  0  0  0  0
  -30.0794  -15.6936   21.4705 N   0  0  0  0  0  0  0  0  0  0  0  0
  -33.2480  -22.0867   18.6790 N   0  0  0  0  0  0  0  0  0  0  0  0
  -34.2185  -27.3895   22.4173 N   0  0  0  0  0  0  0  0  0  0  0  0
  -32.0589  -30.2004   23.1261 N   0  3  0  0  0  0  0  0  0  0  0  0
  -22.6615  -14.7223   21.3095 O   0  0  0  0  0  0  0  0  0  0  0  0
  -32.9082  -22.0442   20.9823 O   0  0  0  0  0  0  0  0  0  0  0  0
  -34.5427  -25.7374   20.0991 O   0  0  0  0  0  0  0  0  0  0  0  0
  -27.4774  -18.6728   24.0370 O   0  0  0  0  0  0  0  0  0  0  0  0
  -32.5182  -27.5606   23.9846 O   0  0  0  0  0  0  0  0  0  0  0  0
  -31.8573  -14.9335   20.1887 O   0  0  0  0  0  0  0  0  0  0  0  0
  -21.6092   -7.0207   21.7146 O   0  0  0  0  0  0  0  0  0  0  0  0
  -27.6572  -22.7946   24.0725 O   0  0  0  0  0  0  0  0  0  1  0  0
  -16.4455   -6.8335   19.7898 F   0  0  0  0  0  0  0  0  0  0  0  0
  -20.8323   -5.0607   19.9265 F   0  0  0  0  0  0  0  0  0  0  0  0
  1  2  1  0  0  0  0
  1  5  2  0  0  0  0
  2  6  2  0  0  0  0
  3 10  2  0  0  0  0
  3 18  1  0  0  0  0
  4 11  1  0  0  0  0
  4 18  2  0  0  0  0
  5 20  1  0  0  0  0
  6 22  1  0  0  0  0
  7 12  2  0  0  0  0
  7 21  1  0  0  0  0
  8  9  2  0  0  0  0
  8 24  1  0  0  0  0
  9 25  1  0  0  0  0
 10 27  1  0  0  0  0
 11 27  2  0  0  0  0
 12 28  1  0  0  0  0
 13 14  2  0  0  0  0
 13 29  1  0  0  0  0
 14 30  1  0  0  0  0
 15 23  1  0  0  0  0
 15 28  2  0  0  0  0
 16 25  2  0  0  0  0
 16 26  1  0  0  0  0
 17 30  2  0  0  0  0
 17 31  1  0  0  0  0
 18 32  1  0  0  0  0
 19 32  1  0  0  0  0
 19 33  2  0  0  0  0
 19 34  1  0  0  0  0
 20 22  2  0  0  0  0
 20 40  1  0  0  0  0
 21 23  2  0  0  0  0
 21 41  1  0  0  0  0
 22 49  1  0  0  0  0
 23 42  1  0  0  0  0
 24 26  2  0  0  0  0
 24 52  1  0  0  0  0
 25 71  1  0  0  0  0
 26 70  1  0  0  0  0
 27 81  1  0  0  0  0
 28 82  1  0  0  0  0
 29 31  2  0  0  0  0
 29 81  1  0  0  0  0
 30 83  1  0  0  0  0
 31 84  1  0  0  0  0
 32 64  2  0  0  0  0
 33 65  1  0  0  0  0
 33 68  1  0  0  0  0
 34 69  1  0  0  0  0
 34 75  2  0  0  0  0
 35 50  1  0  0  0  0
 35 72  1  0  0  0  0
 35 76  2  0  0  0  0
 36 61  1  0  0  0  0
 36 66  1  0  0  0  0
 36 77  2  0  0  0  0
 37 58  1  0  0  0  0
 37 70  1  0  0  0  0
 37 78  2  0  0  0  0
 38 62  1  0  0  0  0
 38 73  1  0  0  0  0
 38 79  2  0  0  0  0
 39 67  1  0  0  0  0
 39 71  1  0  0  0  0
 39 80  2  0  0  0  0
 40 43  1  0  0  0  0
 41 50  1  0  0  0  0
 42 66  1  0  0  0  0
 43 45  1  0  0  0  0
 44 46  1  0  0  0  0
 44 47  1  0  0  0  0
 45 49  1  0  0  0  0
 46 51  1  0  0  0  0
 47 67  1  0  0  0  0
 48 51  1  0  0  0  0
 48 67  1  0  0  0  0
 49 72  1  0  0  0  0
 50 66  1  0  0  0  0
 51 65  1  0  0  0  0
 53 62  1  0  0  0  0
 54 63  1  0  0  0  0
 55 63  1  0  0  0  0
 56 63  1  0  0  0  0
 57 74  1  0  0  0  0
 58 59  1  0  0  0  0
 59 60  1  0  0  0  0
 60 82  1  0  0  0  0
 61 63  1  0  0  0  0
 61 73  1  0  0  0  0
 62 74  1  0  0  0  0
 64 65  1  0  0  0  0
M  CHG  1  74   1
M  ISO  4  39 100  60 101  71 100  82 101
M  END
> <Batch ID>
0139

> <Smiles>
CNC(C)C(=O)NC(C(=O)N1Cc2cc([101O:1][101CH2:1]CCC(=O)Nc3cc([100NH:0][100C:0](=O)N4CCCC(n5nc(-c6ccc(Oc7ccc(F)cc7F)cc6)c(C(N)=O)c5N)C4)ccc3C)ccc2CC1C(=O)NC1CCCc2ccccc21)C(C)(C)C

> <Shape>
0.170

> <Color>
0.191

> <Negative vol penalty>
0.000

$$$$

  -OEChem-04052302483D

 91 99  0     1  0  0  0  0  0999 V2000
  -17.4893  -25.4236   30.3203 C   0  0  0  0  0  0  0  0  0  0  0  0
  -18.2850  -26.3721   29.6856 C   0  0  0  0  0  0  0  0  0  0  0  0
  -22.7952  -14.7506   19.9925 C   0  0  0  0  0  0  0  0  0  0  0  0
  -23.3361  -15.5846   22.1945 C   0  0  0  0  0  0  0  0  0  0  0  0
  -17.2470  -24.1954   29.7065 C   0  0  0  0  0  0  0  0  0  0  0  0
  -18.8397  -26.0925   28.4372 C   0  0  0  0  0  0  0  0  0  0  0  0
  -19.7962  -30.0512   23.8634 C   0  0  0  0  0  0  0  0  0  0  0  0
  -22.4809  -13.5071   20.5406 C   0  0  0  0  0  0  0  0  0  0  0  0
  -23.0217  -14.3411   22.7427 C   0  0  0  0  0  0  0  0  0  0  0  0
  -20.9310  -30.7446   23.4450 C   0  0  0  0  0  0  0  0  0  0  0  0
  -21.8804  -10.0057   21.3173 C   0  0  0  0  0  0  0  0  0  0  0  0
  -22.3651   -8.8689   20.6705 C   0  0  0  0  0  0  0  0  0  0  0  0
  -27.7487  -26.5596   21.7989 C   0  0  0  0  0  0  0  0  0  0  0  0
  -26.2937  -24.7897   21.0327 C   0  0  0  0  0  0  0  0  0  0  0  0
  -21.3691  -29.0277   21.8081 C   0  0  0  0  0  0  0  0  0  0  0  0
  -28.6736  -24.6521   20.6400 C   0  0  0  0  0  0  0  0  0  0  0  0
  -24.6290   -9.6434   21.0058 C   0  0  0  0  0  0  0  0  0  0  0  0
  -23.2229  -15.7894   20.8194 C   0  0  0  0  0  0  0  0  0  0  0  0
  -26.4704  -26.0155   21.6744 C   0  0  0  0  0  0  0  0  0  0  0  0
  -22.6763  -18.1614   20.0563 C   0  0  0  0  0  0  0  0  0  0  0  0
  -17.7911  -23.9043   28.4456 C   0  0  0  0  0  0  0  0  0  0  0  0
  -19.4448  -28.8333   23.2637 C   0  0  0  0  0  0  0  0  0  0  0  0
  -18.6055  -24.8587   27.8066 C   0  0  0  0  0  0  0  0  0  0  0  0
  -20.2279  -28.3220   22.2190 C   0  0  0  0  0  0  0  0  0  0  0  0
  -28.8503  -25.8779   21.2817 C   0  0  0  0  0  0  0  0  0  0  0  0
  -27.3953  -24.1079   20.5154 C   0  0  0  0  0  0  0  0  0  0  0  0
  -22.5941  -13.3023   21.9157 C   0  0  0  0  0  0  0  0  0  0  0  0
  -21.7193  -30.2314   22.4191 C   0  0  0  0  0  0  0  0  0  0  0  0
  -22.7700  -10.9614   21.8083 C   0  0  0  0  0  0  0  0  0  0  0  0
  -23.7394   -8.6878   20.5147 C   0  0  0  0  0  0  0  0  0  0  0  0
  -24.1442  -10.7803   21.6525 C   0  0  0  0  0  0  0  0  0  0  0  0
  -23.5482  -17.0740   20.2537 C   0  0  0  0  0  0  0  0  0  0  0  0
  -23.4645  -19.1359   19.4945 C   0  0  0  0  0  0  0  0  0  0  0  0
  -25.3046  -26.7373   22.2225 C   0  0  0  0  0  0  0  0  0  0  0  0
  -21.2788  -18.2800   20.3541 C   0  0  0  0  0  0  0  0  0  0  0  0
  -19.1319  -25.8388   24.2831 C   0  0  0  0  0  0  0  0  0  0  0  0
  -18.0226  -25.3430   21.2754 C   0  0  0  0  0  0  0  0  0  0  0  0
  -17.9398  -26.3491   18.0154 C   0  0  0  0  0  0  0  0  0  0  0  0
  -28.2014  -22.0558   19.2967 C   0  0  0  0  0  0  0  0  0  0  0  0
  -17.5400  -22.5448   27.8429 C   0  0  0  0  0  0  0  0  0  0  0  0
  -18.2027  -28.1109   23.7084 C   0  0  0  0  0  0  0  0  0  0  0  0
  -19.8826  -27.0287   21.5287 C   0  0  0  0  0  0  0  0  0  0  0  0
  -17.8579  -22.4714   26.3517 C   0  0  0  0  0  0  0  0  0  0  0  0
  -28.1684  -18.9046   17.6395 C   0  0  0  0  0  0  0  0  0  0  0  0
  -19.2096  -23.1162   26.0617 C   0  0  0  0  0  0  0  0  0  0  0  0
  -26.8918  -18.2369   18.1557 C   0  0  0  0  0  0  0  0  0  0  0  0
  -28.8573  -19.7278   18.7266 C   0  0  0  0  0  0  0  0  0  0  0  0
  -26.7220  -20.0443   19.9140 C   0  0  0  0  0  0  0  0  0  0  0  0
  -19.2046  -24.6021   26.4409 C   0  0  1  0  0  0  0  0  0  0  0  0
  -18.2258  -26.6222   23.3759 C   0  0  1  0  0  0  0  0  0  0  0  0
  -25.9582  -19.2567   18.8369 C   0  0  2  0  0  0  0  0  0  0  0  0
  -23.5609  -31.3377   19.2301 C   0  0  0  0  0  0  0  0  0  0  0  0
  -16.9782  -25.7217   15.7840 C   0  0  0  0  0  0  0  0  0  0  0  0
  -32.1432  -28.8793   21.4559 C   0  0  0  0  0  0  0  0  0  0  0  0
  -32.2612  -28.8073   18.9615 C   0  0  0  0  0  0  0  0  0  0  0  0
  -33.0786  -26.8623   20.3167 C   0  0  0  0  0  0  0  0  0  0  0  0
  -20.0842  -23.1084   21.0179 C   0  0  0  0  0  0  0  0  0  0  0  0
  -19.7399  -23.1711   18.5389 C   0  0  0  0  0  0  0  0  0  0  0  0
  -17.8424  -22.5767   20.0452 C   0  0  0  0  0  0  0  0  0  0  0  0
  -25.2010  -30.8891   21.8112 C   0  0  0  0  0  0  0  0  0  0  0  0
  -16.4469  -28.8965   17.8126 C   0  0  0  0  0  0  0  0  0  0  0  0
  -30.2173  -26.4593   21.4157 C   0  0  0  0  0  0  0  0  0  0  0  0
  -23.6809  -30.0155   19.9736 C   0  0  0  0  0  0  0  0  0  0  0  0
  -30.5803  -27.3612   20.2198 C   0  0  0  0  0  0  0  0  0  0  0  0
  -23.9129  -28.7768   22.2210 C   0  0  0  0  0  0  0  0  0  0  0  0
  -18.6484  -24.9712   19.9529 C   0  0  1  0  0  0  0  0  0  0  0  0
  -16.7844  -26.5421   17.0498 C   0  0  2  0  0  0  0  0  0  0  0  0
  -32.0105  -27.9641   20.2225 C   0  0  0  0  0  0  0  0  0  0  0  0
  -19.0866  -23.4803   19.9028 C   0  0  0  0  0  0  0  0  0  0  0  0
  -23.9081  -30.1282   21.4948 C   0  0  1  0  0  0  0  0  0  1  0  0
  -24.7949  -17.3328   19.8500 N   0  0  0  0  0  0  0  0  0  0  0  0
  -24.7119  -18.5940   19.3932 N   0  0  0  0  0  0  0  0  0  0  0  0
  -18.6620  -26.3564   22.0035 N   0  0  0  0  0  0  0  0  0  0  0  0
  -27.9133  -20.6748   19.3239 N   0  0  0  0  0  0  0  0  0  0  0  0
  -23.2052  -20.3950   19.0822 N   0  0  0  0  0  0  0  0  0  0  0  0
  -24.5734  -26.1310   23.1577 N   0  0  0  0  0  0  0  0  0  0  0  0
  -20.6229  -17.1833   20.9297 N   0  0  0  0  0  0  0  0  0  0  0  0
  -27.2157  -22.8617   19.8655 N   0  0  0  0  0  0  0  0  0  0  0  0
  -18.5169  -25.3789   25.4319 N   0  0  0  0  0  0  0  0  0  0  0  0
  -17.6830  -25.3451   18.9250 N   0  0  0  0  0  0  0  0  0  0  0  0
  -25.0380  -27.9613   21.7532 N   0  3  0  0  0  0  0  0  0  0  0  0
  -16.6643  -27.9771   16.6661 N   0  3  0  0  0  0  0  0  0  0  0  0
  -20.6272  -19.3218   20.1017 O   0  0  0  0  0  0  0  0  0  0  0  0
  -20.3019  -25.6634   23.9637 O   0  0  0  0  0  0  0  0  0  0  0  0
  -17.0000  -24.7608   21.6454 O   0  0  0  0  0  0  0  0  0  0  0  0
  -18.9689  -27.0192   17.9653 O   0  0  0  0  0  0  0  0  0  0  0  0
  -29.2329  -22.4935   18.7807 O   0  0  0  0  0  0  0  0  0  0  0  0
  -22.2873  -12.0891   22.4509 O   0  0  0  0  0  0  0  0  0  0  0  0
  -22.8278  -30.9059   22.0092 O   0  0  0  0  0  0  0  0  0  1  0  0
  -24.2048   -7.5953   19.8950 F   0  0  0  0  0  0  0  0  0  0  0  0
  -25.0038  -11.6944   22.1232 F   0  0  0  0  0  0  0  0  0  0  0  0
  1  2  1  0  0  0  0
  1  5  2  0  0  0  0
  2  6  2  0  0  0  0
  3  8  2  0  0  0  0
  3 18  1  0  0  0  0
  4  9  1  0  0  0  0
  4 18  2  0  0  0  0
  5 21  1  0  0  0  0
  6 23  1  0  0  0  0
  7 10  2  0  0  0  0
  7 22  1  0  0  0  0
  8 27  1  0  0  0  0
  9 27  2  0  0  0  0
 10 28  1  0  0  0  0
 11 12  2  0  0  0  0
 11 29  1  0  0  0  0
 12 30  1  0  0  0  0
 13 19  1  0  0  0  0
 13 25  2  0  0  0  0
 14 19  2  0  0  0  0
 14 26  1  0  0  0  0
 15 24  1  0  0  0  0
 15 28  2  0  0  0  0
 16 25  1  0  0  0  0
 16 26  2  0  0  0  0
 17 30  2  0  0  0  0
 17 31  1  0  0  0  0
 18 32  1  0  0  0  0
 19 34  1  0  0  0  0
 20 32  1  0  0  0  0
 20 33  2  0  0  0  0
 20 35  1  0  0  0  0
 21 23  2  0  0  0  0
 21 40  1  0  0  0  0
 22 24  2  0  0  0  0
 22 41  1  0  0  0  0
 23 49  1  0  0  0  0
 24 42  1  0  0  0  0
 25 62  1  0  0  0  0
 26 78  1  0  0  0  0
 27 88  1  0  0  0  0
 28 89  1  0  0  0  0
 29 31  2  0  0  0  0
 29 88  1  0  0  0  0
 30 90  1  0  0  0  0
 31 91  1  0  0  0  0
 32 71  2  0  0  0  0
 33 72  1  0  0  0  0
 33 75  1  0  0  0  0
 34 76  1  0  0  0  0
 34 81  2  0  0  0  0
 35 77  1  0  0  0  0
 35 83  2  0  0  0  0
 36 50  1  0  0  0  0
 36 79  1  0  0  0  0
 36 84  2  0  0  0  0
 37 66  1  0  0  0  0
 37 73  1  0  0  0  0
 37 85  2  0  0  0  0
 38 67  1  0  0  0  0
 38 80  1  0  0  0  0
 38 86  2  0  0  0  0
 39 74  1  0  0  0  0
 39 78  1  0  0  0  0
 39 87  2  0  0  0  0
 40 43  1  0  0  0  0
 41 50  1  0  0  0  0
 42 73  1  0  0  0  0
 43 45  1  0  0  0  0
 44 46  1  0  0  0  0
 44 47  1  0  0  0  0
 45 49  1  0  0  0  0
 46 51  1  0  0  0  0
 47 74  1  0  0  0  0
 48 51  1  0  0  0  0
 48 74  1  0  0  0  0
 49 79  1  0  0  0  0
 50 73  1  0  0  0  0
 51 72  1  0  0  0  0
 52 63  1  0  0  0  0
 53 67  1  0  0  0  0
 54 68  1  0  0  0  0
 55 68  1  0  0  0  0
 56 68  1  0  0  0  0
 57 69  1  0  0  0  0
 58 69  1  0  0  0  0
 59 69  1  0  0  0  0
 60 70  1  0  0  0  0
 61 82  1  0  0  0  0
 62 64  1  0  0  0  0
 63 70  1  0  0  0  0
 64 68  1  0  0  0  0
 65 70  1  0  0  0  0
 65 81  1  0  0  0  0
 66 69  1  0  0  0  0
 66 80  1  0  0  0  0
 67 82  1  0  0  0  0
 70 89  1  0  0  0  0
 71 72  1  0  0  0  0
M  CHG  2  81   1  82   1
M  ISO  4  39 100  70 101  78 100  89 101
M  END
> <Batch ID>
0139

> <Smiles>
CC[101C:1](C)(CNC(=N)c1cc(CCC(C)(C)C)cc([100NH:0][100C:0](=O)N2CCCC(n3nc(-c4ccc(Oc5ccc(F)cc5F)cc4)c(C(N)=O)c3N)C2)c1)[101O:1]c1ccc2c(c1)CN(C(=O)C(NC(=O)C(C)NC)C(C)(C)C)C(C(=O)NC1CCCc3ccccc31)C2

> <Shape>
0.198

> <Color>
0.042

> <Negative vol penalty>
0.000

$$$$

  -OEChem-04052302483D

 86 95  0     1  0  0  0  0  0999 V2000
  -27.9359  -34.5156   25.0054 C   0  0  0  0  0  0  0  0  0  0  0  0
  -28.0567  -33.1739   24.6583 C   0  0  0  0  0  0  0  0  0  0  0  0
  -24.0094  -10.1244   22.6632 C   0  0  0  0  0  0  0  0  0  0  0  0
  -24.8156  -11.9335   24.0469 C   0  0  0  0  0  0  0  0  0  0  0  0
  -28.7137  -20.0318   17.8704 C   0  0  0  0  0  0  0  0  0  0  0  0
  -31.0282  -19.4281   17.5302 C   0  0  0  0  0  0  0  0  0  0  0  0
  -26.6719  -35.0870   25.1464 C   0  0  0  0  0  0  0  0  0  0  0  0
  -26.9134  -32.4023   24.4530 C   0  0  0  0  0  0  0  0  0  0  0  0
  -27.2386  -29.5127   20.3070 C   0  0  0  0  0  0  0  0  0  0  0  0
  -28.3811  -18.6834   18.0002 C   0  0  0  0  0  0  0  0  0  0  0  0
  -30.6956  -18.0797   17.6601 C   0  0  0  0  0  0  0  0  0  0  0  0
  -23.6484   -9.4111   23.8062 C   0  0  0  0  0  0  0  0  0  0  0  0
  -24.4545  -11.2201   25.1899 C   0  0  0  0  0  0  0  0  0  0  0  0
  -27.9991  -28.3479   20.4007 C   0  0  0  0  0  0  0  0  0  0  0  0
  -21.1207   -9.4181   26.0520 C   0  0  0  0  0  0  0  0  0  0  0  0
  -19.8690   -8.8027   26.0636 C   0  0  0  0  0  0  0  0  0  0  0  0
  -25.9799  -27.0601   20.6899 C   0  0  0  0  0  0  0  0  0  0  0  0
  -20.9290   -6.6524   26.3634 C   0  0  0  0  0  0  0  0  0  0  0  0
  -24.5931  -11.3856   22.7836 C   0  0  0  0  0  0  0  0  0  0  0  0
  -30.0373  -20.4041   17.6353 C   0  0  0  0  0  0  0  0  0  0  0  0
  -24.1702  -13.0309   20.8805 C   0  0  0  0  0  0  0  0  0  0  0  0
  -25.5127  -34.3245   24.9332 C   0  0  0  0  0  0  0  0  0  0  0  0
  -25.8414  -29.4612   20.4151 C   0  0  0  0  0  0  0  0  0  0  0  0
  -25.6328  -32.9637   24.5925 C   0  0  0  0  0  0  0  0  0  0  0  0
  -25.2038  -28.2254   20.5946 C   0  0  0  0  0  0  0  0  0  0  0  0
  -29.3720  -17.7074   17.8951 C   0  0  0  0  0  0  0  0  0  0  0  0
  -23.8709   -9.9589   25.0695 C   0  0  0  0  0  0  0  0  0  0  0  0
  -27.3699  -27.1218   20.5951 C   0  0  0  0  0  0  0  0  0  0  0  0
  -22.2766   -8.6507   26.1960 C   0  0  0  0  0  0  0  0  0  0  0  0
  -19.7732   -7.4199   26.2193 C   0  0  0  0  0  0  0  0  0  0  0  0
  -22.1807   -7.2679   26.3517 C   0  0  0  0  0  0  0  0  0  0  0  0
  -24.9668  -12.1228   21.6033 C   0  0  0  0  0  0  0  0  0  0  0  0
  -24.9788  -13.4561   19.8549 C   0  0  0  0  0  0  0  0  0  0  0  0
  -29.6722  -24.5499   19.5964 C   0  0  0  0  0  0  0  0  0  0  0  0
  -29.8601  -24.0051   18.3831 C   0  0  0  0  0  0  0  0  0  0  0  0
  -30.3888  -21.8288   17.4979 C   0  0  0  0  0  0  0  0  0  0  0  0
  -22.8200  -13.4524   21.1151 C   0  0  0  0  0  0  0  0  0  0  0  0
  -23.7007  -30.6790   22.4245 C   0  0  0  0  0  0  0  0  0  0  0  0
  -21.5816  -29.4212   20.3151 C   0  0  0  0  0  0  0  0  0  0  0  0
  -20.9355  -27.1143   17.8846 C   0  0  0  0  0  0  0  0  0  0  0  0
  -29.8958  -15.2438   17.9496 C   0  0  0  0  0  0  0  0  0  0  0  0
  -24.1678  -34.9740   25.1435 C   0  0  0  0  0  0  0  0  0  0  0  0
  -25.0337  -30.7233   20.2851 C   0  0  0  0  0  0  0  0  0  0  0  0
  -23.7053  -28.1136   20.6968 C   0  0  0  0  0  0  0  0  0  0  0  0
  -29.8390  -23.5180   20.6780 C   0  0  0  0  0  0  0  0  0  0  0  0
  -23.0088  -34.1832   24.5420 C   0  0  0  0  0  0  0  0  0  0  0  0
  -29.4585  -11.7237   18.2571 C   0  0  0  0  0  0  0  0  0  0  0  0
  -23.1262  -32.7059   24.9032 C   0  0  0  0  0  0  0  0  0  0  0  0
  -28.1854  -11.5884   19.0956 C   0  0  0  0  0  0  0  0  0  0  0  0
  -30.1663  -22.2335   19.9129 C   0  0  0  0  0  0  0  0  0  0  0  0
  -30.3081  -12.9122   18.7037 C   0  0  0  0  0  0  0  0  0  0  0  0
  -28.3233  -14.0599   19.6053 C   0  0  0  0  0  0  0  0  0  0  0  0
  -24.4164  -32.1003   24.3372 C   0  0  1  0  0  0  0  0  0  0  0  0
  -23.6524  -30.6172   20.9240 C   0  0  1  0  0  0  0  0  0  0  0  0
  -27.4031  -12.9153   19.1506 C   0  0  2  0  0  0  0  0  0  0  0  0
  -29.7873  -24.6697   17.0519 C   0  0  0  0  0  0  0  0  0  0  0  0
  -19.1020  -26.3045   16.3746 C   0  0  0  0  0  0  0  0  0  0  0  0
  -20.2769  -27.9882   22.6719 C   0  0  0  0  0  0  0  0  0  0  0  0
  -19.1088  -26.5011   21.0311 C   0  0  0  0  0  0  0  0  0  0  0  0
  -18.6685  -28.9564   21.0196 C   0  0  0  0  0  0  0  0  0  0  0  0
  -22.4803  -27.7923   15.4530 C   0  0  0  0  0  0  0  0  0  0  0  0
  -29.3419  -25.9494   19.9684 C   0  0  0  0  0  0  0  0  0  1  0  0
  -20.8847  -28.0905   20.1646 C   0  0  1  0  0  0  0  0  0  0  0  0
  -20.2880  -27.2455   16.5178 C   0  0  2  0  0  0  0  0  0  0  0  0
  -19.7631  -27.8861   21.2218 C   0  0  0  0  0  0  0  0  0  0  0  0
  -26.1877  -11.9788   21.0811 N   0  0  0  0  0  0  0  0  0  0  0  0
  -26.1643  -12.8020   20.0191 N   0  0  0  0  0  0  0  0  0  0  0  0
  -30.1514  -22.6553   18.5004 N   0  0  0  0  0  0  0  0  0  0  0  0
  -22.9596  -29.3767   20.5698 N   0  0  0  0  0  0  0  0  0  0  0  0
  -29.5019  -14.1347   18.7276 N   0  0  0  0  0  0  0  0  0  0  0  0
  -24.7842  -14.3219   18.8375 N   0  0  0  0  0  0  0  0  0  0  0  0
  -22.1342  -12.9168   22.2138 N   0  0  0  0  0  0  0  0  0  0  0  0
  -29.0343  -16.3376   18.0271 N   0  0  0  0  0  0  0  0  0  0  0  0
  -24.2716  -31.8349   22.9219 N   0  0  0  0  0  0  0  0  0  0  0  0
  -20.4220  -28.0260   18.7825 N   0  0  0  0  0  0  0  0  0  0  0  0
  -30.9412  -22.2594   16.3675 N   0  3  0  0  0  0  0  0  0  0  0  0
  -21.2727  -26.9270   15.4455 N   0  3  0  0  0  0  0  0  0  0  0  0
  -22.2335  -14.2672   20.3631 O   0  0  0  0  0  0  0  0  0  0  0  0
  -23.2518  -29.7476   23.0823 O   0  0  0  0  0  0  0  0  0  0  0  0
  -20.9287  -30.4618   20.2034 O   0  0  0  0  0  0  0  0  0  0  0  0
  -21.8067  -26.2834   18.1319 O   0  0  0  0  0  0  0  0  0  0  0  0
  -30.9072  -15.2151   17.2438 O   0  0  0  0  0  0  0  0  0  0  0  0
  -23.5185   -9.2632   26.1850 O   0  0  0  0  0  0  0  0  0  0  0  0
  -28.1098  -25.9834   20.6876 O   0  0  0  0  0  0  0  0  0  1  0  0
  -18.5710   -6.8292   26.2320 F   0  0  0  0  0  0  0  0  0  0  0  0
  -23.2876   -6.5255   26.4917 F   0  0  0  0  0  0  0  0  0  0  0  0
  1  2  1  0  0  0  0
  1  7  2  0  0  0  0
  2  8  2  0  0  0  0
  3 12  2  0  0  0  0
  3 19  1  0  0  0  0
  4 13  1  0  0  0  0
  4 19  2  0  0  0  0
  5 10  2  0  0  0  0
  5 20  1  0  0  0  0
  6 11  1  0  0  0  0
  6 20  2  0  0  0  0
  7 22  1  0  0  0  0
  8 24  1  0  0  0  0
  9 14  2  0  0  0  0
  9 23  1  0  0  0  0
 10 26  1  0  0  0  0
 11 26  2  0  0  0  0
 12 27  1  0  0  0  0
 13 27  2  0  0  0  0
 14 28  1  0  0  0  0
 15 16  2  0  0  0  0
 15 29  1  0  0  0  0
 16 30  1  0  0  0  0
 17 25  1  0  0  0  0
 17 28  2  0  0  0  0
 18 30  2  0  0  0  0
 18 31  1  0  0  0  0
 19 32  1  0  0  0  0
 20 36  1  0  0  0  0
 21 32  1  0  0  0  0
 21 33  2  0  0  0  0
 21 37  1  0  0  0  0
 22 24  2  0  0  0  0
 22 42  1  0  0  0  0
 23 25  2  0  0  0  0
 23 43  1  0  0  0  0
 24 53  1  0  0  0  0
 25 44  1  0  0  0  0
 26 73  1  0  0  0  0
 27 83  1  0  0  0  0
 28 84  1  0  0  0  0
 29 31  2  0  0  0  0
 29 83  1  0  0  0  0
 30 85  1  0  0  0  0
 31 86  1  0  0  0  0
 32 66  2  0  0  0  0
 33 67  1  0  0  0  0
 33 71  1  0  0  0  0
 34 35  2  0  0  0  0
 34 45  1  0  0  0  0
 34 62  1  0  0  0  0
 35 56  1  0  0  0  0
 35 68  1  0  0  0  0
 36 68  1  0  0  0  0
 36 76  2  0  0  0  0
 37 72  1  0  0  0  0
 37 78  2  0  0  0  0
 38 54  1  0  0  0  0
 38 74  1  0  0  0  0
 38 79  2  0  0  0  0
 39 63  1  0  0  0  0
 39 69  1  0  0  0  0
 39 80  2  0  0  0  0
 40 64  1  0  0  0  0
 40 75  1  0  0  0  0
 40 81  2  0  0  0  0
 41 70  1  0  0  0  0
 41 73  1  0  0  0  0
 41 82  2  0  0  0  0
 42 46  1  0  0  0  0
 43 54  1  0  0  0  0
 44 69  1  0  0  0  0
 45 50  1  0  0  0  0
 46 48  1  0  0  0  0
 47 49  1  0  0  0  0
 47 51  1  0  0  0  0
 48 53  1  0  0  0  0
 49 55  1  0  0  0  0
 50 68  1  0  0  0  0
 51 70  1  0  0  0  0
 52 55  1  0  0  0  0
 52 70  1  0  0  0  0
 53 74  1  0  0  0  0
 54 69  1  0  0  0  0
 55 67  1  0  0  0  0
 57 64  1  0  0  0  0
 58 65  1  0  0  0  0
 59 65  1  0  0  0  0
 60 65  1  0  0  0  0
 61 77  1  0  0  0  0
 62 84  1  0  0  0  0
 63 65  1  0  0  0  0
 63 75  1  0  0  0  0
 64 77  1  0  0  0  0
 66 67  1  0  0  0  0
M  CHG  2  76   1  77   1
M  ISO  4  41 100  62 101  73 100  84 101
M  END
> <Batch ID>
0139

> <Smiles>
CNC(C)C(=O)NC(C(=O)N1Cc2cc([101O:1][101CH2:1]C3=C(C)N(C(=N)c4ccc([100NH:0][100C:0](=O)N5CCCC(n6nc(-c7ccc(Oc8ccc(F)cc8F)cc7)c(C(N)=O)c6N)C5)cc4)CC3)ccc2CC1C(=O)NC1CCCc2ccccc21)C(C)(C)C

> <Shape>
0.297

> <Color>
0.116

> <Negative vol penalty>
0.000

$$$$

  -OEChem-04052302483D

 86 94  0     1  0  0  0  0  0999 V2000
  -30.1505  -24.8809   18.0861 C   0  0  0  0  0  0  0  0  0  0  0  0
  -28.7624  -24.9510   18.1483 C   0  0  0  0  0  0  0  0  0  0  0  0
  -27.3017  -14.5854   20.1670 C   0  0  0  0  0  0  0  0  0  0  0  0
  -25.3577  -14.3883   18.7461 C   0  0  0  0  0  0  0  0  0  0  0  0
  -30.9211  -25.4142   19.1184 C   0  0  0  0  0  0  0  0  0  0  0  0
  -28.1442  -25.5534   19.2434 C   0  0  0  0  0  0  0  0  0  0  0  0
  -22.9629  -28.8181   19.2101 C   0  0  0  0  0  0  0  0  0  0  0  0
  -27.1248  -13.2687   20.5918 C   0  0  0  0  0  0  0  0  0  0  0  0
  -25.1807  -13.0715   19.1709 C   0  0  0  0  0  0  0  0  0  0  0  0
  -21.6445  -28.4886   19.5219 C   0  0  0  0  0  0  0  0  0  0  0  0
  -24.0053   -9.7753   20.1522 C   0  0  0  0  0  0  0  0  0  0  0  0
  -22.7135   -9.3705   20.4885 C   0  0  0  0  0  0  0  0  0  0  0  0
  -21.9617  -29.3545   21.7510 C   0  0  0  0  0  0  0  0  0  0  0  0
  -20.0419  -22.1984   19.4761 C   0  0  0  0  0  0  0  0  0  0  0  0
  -20.2126  -20.5950   17.6770 C   0  0  0  0  0  0  0  0  0  0  0  0
  -18.0621  -21.5256   18.2658 C   0  0  0  0  0  0  0  0  0  0  0  0
  -22.6296  -11.0665   22.2072 C   0  0  0  0  0  0  0  0  0  0  0  0
  -26.4181  -15.1453   19.2442 C   0  0  0  0  0  0  0  0  0  0  0  0
  -27.3584  -16.9499   17.7058 C   0  0  0  0  0  0  0  0  0  0  0  0
  -30.3123  -26.0320   20.2221 C   0  0  0  0  0  0  0  0  0  0  0  0
  -23.7952  -29.4094   20.1714 C   0  0  0  0  0  0  0  0  0  0  0  0
  -28.9074  -26.0942   20.2920 C   0  0  0  0  0  0  0  0  0  0  0  0
  -23.2894  -29.6929   21.4481 C   0  0  0  0  0  0  0  0  0  0  0  0
  -20.8156  -21.3537   18.6801 C   0  0  0  0  0  0  0  0  0  0  0  0
  -26.0643  -12.5117   20.0937 C   0  0  0  0  0  0  0  0  0  0  0  0
  -21.1447  -28.7541   20.7934 C   0  0  0  0  0  0  0  0  0  0  0  0
  -24.6093  -10.8256   20.8434 C   0  0  0  0  0  0  0  0  0  0  0  0
  -18.6652  -22.2843   19.2690 C   0  0  0  0  0  0  0  0  0  0  0  0
  -22.0257  -10.0162   21.5160 C   0  0  0  0  0  0  0  0  0  0  0  0
  -18.8358  -20.6809   17.4698 C   0  0  0  0  0  0  0  0  0  0  0  0
  -23.9214  -11.4712   21.8709 C   0  0  0  0  0  0  0  0  0  0  0  0
  -26.6000  -16.5056   18.8054 C   0  0  0  0  0  0  0  0  0  0  0  0
  -27.2112  -18.3154   17.7164 C   0  0  0  0  0  0  0  0  0  0  0  0
  -28.1272  -16.1957   16.7593 C   0  0  0  0  0  0  0  0  0  0  0  0
  -26.5091  -28.5804   21.6035 C   0  0  0  0  0  0  0  0  0  0  0  0
  -26.3150  -31.5724   22.8415 C   0  0  0  0  0  0  0  0  0  0  0  0
  -24.3568  -34.2361   23.6882 C   0  0  0  0  0  0  0  0  0  0  0  0
  -22.9698  -21.9474   19.8435 C   0  0  0  0  0  0  0  0  0  0  0  0
  -31.1859  -26.5520   21.3362 C   0  0  0  0  0  0  0  0  0  0  0  0
  -25.2068  -29.7832   19.8110 C   0  0  0  0  0  0  0  0  0  0  0  0
  -24.1359  -30.3449   22.5096 C   0  0  0  0  0  0  0  0  0  0  0  0
  -30.4625  -27.5070   22.2822 C   0  0  0  0  0  0  0  0  0  0  0  0
  -26.4244  -21.9739   20.7049 C   0  0  0  0  0  0  0  0  0  0  0  0
  -29.1035  -26.9385   22.6784 C   0  0  0  0  0  0  0  0  0  0  0  0
  -26.9318  -20.6175   20.2100 C   0  0  0  0  0  0  0  0  0  0  0  0
  -25.0065  -21.8788   21.2655 C   0  0  0  0  0  0  0  0  0  0  0  0
  -24.5312  -19.9037   19.8718 C   0  0  0  0  0  0  0  0  0  0  0  0
  -28.2005  -26.7619   21.4516 C   0  0  1  0  0  0  0  0  0  0  0  0
  -26.1197  -29.9119   21.0265 C   0  0  1  0  0  0  0  0  0  0  0  0
  -25.9310  -19.9616   19.2386 C   0  0  2  0  0  0  0  0  0  0  0  0
  -16.8398  -24.6091   23.1686 C   0  0  0  0  0  0  0  0  0  0  0  0
  -24.4778  -36.5224   24.7156 C   0  0  0  0  0  0  0  0  0  0  0  0
  -26.6028  -30.3124   25.6054 C   0  0  0  0  0  0  0  0  0  0  0  0
  -25.7764  -32.4592   26.5935 C   0  0  0  0  0  0  0  0  0  0  0  0
  -27.8986  -32.4269   25.2829 C   0  0  0  0  0  0  0  0  0  0  0  0
  -16.8355  -25.7462   19.4304 C   0  0  0  0  0  0  0  0  0  0  0  0
  -23.3339  -35.5231   21.2272 C   0  0  0  0  0  0  0  0  0  0  0  0
  -16.3902  -24.9828   21.7609 C   0  0  0  0  0  0  0  0  0  0  0  0
  -18.2366  -26.6821   21.3332 C   0  0  0  0  0  0  0  0  0  0  0  0
  -19.2895  -27.3126   20.4242 C   0  0  0  0  0  0  0  0  0  1  0  0
  -18.5433  -24.2812   20.5548 C   0  0  0  0  0  0  0  0  0  0  0  0
  -25.6916  -32.1809   24.0743 C   0  0  1  0  0  0  0  0  0  0  0  0
  -24.5088  -35.7229   23.4223 C   0  0  2  0  0  0  0  0  0  0  0  0
  -26.4767  -31.8308   25.3699 C   0  0  0  0  0  0  0  0  0  0  0  0
  -17.5202  -25.4196   20.7775 C   0  0  2  0  0  0  0  0  0  0  0  0
  -26.0146  -17.5076   19.4666 N   0  0  0  0  0  0  0  0  0  0  0  0
  -26.4052  -18.5952   18.7806 N   0  0  0  0  0  0  0  0  0  0  0  0
  -25.5115  -30.6858   22.1107 N   0  0  0  0  0  0  0  0  0  0  0  0
  -24.1134  -21.2514   20.2890 N   0  0  0  0  0  0  0  0  0  0  0  0
  -27.6939  -19.2922   16.9193 N   0  0  0  0  0  0  0  0  0  0  0  0
  -28.1711  -14.8014   16.8939 N   0  0  0  0  0  0  0  0  0  0  0  0
  -22.2139  -21.2647   18.8910 N   0  0  0  0  0  0  0  0  0  0  0  0
  -27.6486  -28.0357   21.0428 N   0  0  0  0  0  0  0  0  0  0  0  0
  -25.5799  -33.6116   23.8115 N   0  0  0  0  0  0  0  0  0  0  0  0
  -23.4067  -36.2074   22.5438 N   0  3  0  0  0  0  0  0  0  0  0  0
  -28.7699  -16.7435   15.8317 O   0  0  0  0  0  0  0  0  0  0  0  0
  -25.8272  -28.0846   22.4928 O   0  0  0  0  0  0  0  0  0  0  0  0
  -27.4699  -31.8782   22.5341 O   0  0  0  0  0  0  0  0  0  0  0  0
  -23.2624  -33.6845   23.7811 O   0  0  0  0  0  0  0  0  0  0  0  0
  -22.6970  -23.0780   20.2549 O   0  0  0  0  0  0  0  0  0  0  0  0
  -25.8915  -11.2267   20.5078 O   0  0  0  0  0  0  0  0  0  0  0  0
  -19.8585  -28.4329   21.1006 O   0  0  0  0  0  0  0  0  0  1  0  0
  -17.9053  -23.1135   20.0510 O   0  0  0  0  0  0  0  0  0  0  0  0
  -20.7846   -9.6284   21.8378 F   0  0  0  0  0  0  0  0  0  0  0  0
  -18.2562  -19.9508   16.5078 F   0  0  0  0  0  0  0  0  0  0  0  0
  -24.4960  -12.4816   22.5377 F   0  0  0  0  0  0  0  0  0  0  0  0
  1  2  1  0  0  0  0
  1  5  2  0  0  0  0
  2  6  2  0  0  0  0
  3  8  2  0  0  0  0
  3 18  1  0  0  0  0
  4  9  1  0  0  0  0
  4 18  2  0  0  0  0
  5 20  1  0  0  0  0
  6 22  1  0  0  0  0
  7 10  2  0  0  0  0
  7 21  1  0  0  0  0
  8 25  1  0  0  0  0
  9 25  2  0  0  0  0
 10 26  1  0  0  0  0
 11 12  2  0  0  0  0
 11 27  1  0  0  0  0
 12 29  1  0  0  0  0
 13 23  1  0  0  0  0
 13 26  2  0  0  0  0
 14 24  1  0  0  0  0
 14 28  2  0  0  0  0
 15 24  2  0  0  0  0
 15 30  1  0  0  0  0
 16 28  1  0  0  0  0
 16 30  2  0  0  0  0
 17 29  2  0  0  0  0
 17 31  1  0  0  0  0
 18 32  1  0  0  0  0
 19 32  1  0  0  0  0
 19 33  2  0  0  0  0
 19 34  1  0  0  0  0
 20 22  2  0  0  0  0
 20 39  1  0  0  0  0
 21 23  2  0  0  0  0
 21 40  1  0  0  0  0
 22 48  1  0  0  0  0
 23 41  1  0  0  0  0
 24 72  1  0  0  0  0
 25 81  1  0  0  0  0
 26 82  1  0  0  0  0
 27 31  2  0  0  0  0
 27 81  1  0  0  0  0
 28 83  1  0  0  0  0
 29 84  1  0  0  0  0
 30 85  1  0  0  0  0
 31 86  1  0  0  0  0
 32 66  2  0  0  0  0
 33 67  1  0  0  0  0
 33 70  1  0  0  0  0
 34 71  1  0  0  0  0
 34 76  2  0  0  0  0
 35 49  1  0  0  0  0
 35 73  1  0  0  0  0
 35 77  2  0  0  0  0
 36 62  1  0  0  0  0
 36 68  1  0  0  0  0
 36 78  2  0  0  0  0
 37 63  1  0  0  0  0
 37 74  1  0  0  0  0
 37 79  2  0  0  0  0
 38 69  1  0  0  0  0
 38 72  1  0  0  0  0
 38 80  2  0  0  0  0
 39 42  1  0  0  0  0
 40 49  1  0  0  0  0
 41 68  1  0  0  0  0
 42 44  1  0  0  0  0
 43 45  1  0  0  0  0
 43 46  1  0  0  0  0
 44 48  1  0  0  0  0
 45 50  1  0  0  0  0
 46 69  1  0  0  0  0
 47 50  1  0  0  0  0
 47 69  1  0  0  0  0
 48 73  1  0  0  0  0
 49 68  1  0  0  0  0
 50 67  1  0  0  0  0
 51 58  1  0  0  0  0
 52 63  1  0  0  0  0
 53 64  1  0  0  0  0
 54 64  1  0  0  0  0
 55 64  1  0  0  0  0
 56 65  1  0  0  0  0
 57 75  1  0  0  0  0
 58 65  1  0  0  0  0
 59 60  1  0  0  0  0
 59 65  1  0  0  0  0
 60 82  1  0  0  0  0
 61 65  1  0  0  0  0
 61 83  1  0  0  0  0
 62 64  1  0  0  0  0
 62 74  1  0  0  0  0
 63 75  1  0  0  0  0
 66 67  1  0  0  0  0
M  CHG  1  75   1
M  ISO  4  38 100  60 101  72 100  82 101
M  END
> <Batch ID>
0139

> <Smiles>
CCC(C)(COc1cc(F)cc([100NH:0][100C:0](=O)N2CCCC(n3nc(-c4ccc(Oc5ccc(F)cc5F)cc4)c(C(N)=O)c3N)C2)c1)C[101CH2:1][101O:1]c1ccc2c(c1)CN(C(=O)C(NC(=O)C(C)NC)C(C)(C)C)C(C(=O)NC1CCCc3ccccc31)C2

> <Shape>
0.266

> <Color>
0.069

> <Negative vol penalty>
0.000

$$$$

  -OEChem-04052302483D

 87 95  0     1  0  0  0  0  0999 V2000
  -28.7177  -29.7511   27.5100 C   0  0  0  0  0  0  0  0  0  0  0  0
  -28.0255  -28.9264   26.6290 C   0  0  0  0  0  0  0  0  0  0  0  0
  -24.7659   -8.7298   21.4728 C   0  0  0  0  0  0  0  0  0  0  0  0
  -23.1026  -10.4185   21.0053 C   0  0  0  0  0  0  0  0  0  0  0  0
  -28.3037  -31.0688   27.7008 C   0  0  0  0  0  0  0  0  0  0  0  0
  -26.9182  -29.4186   25.9390 C   0  0  0  0  0  0  0  0  0  0  0  0
  -26.9501  -28.1295   21.0419 C   0  0  0  0  0  0  0  0  0  0  0  0
  -23.9064   -8.1398   22.3995 C   0  0  0  0  0  0  0  0  0  0  0  0
  -22.2430   -9.8285   21.9319 C   0  0  0  0  0  0  0  0  0  0  0  0
  -26.5615  -26.8290   20.7233 C   0  0  0  0  0  0  0  0  0  0  0  0
  -21.2053   -6.1064   22.3491 C   0  0  0  0  0  0  0  0  0  0  0  0
  -21.0715   -4.7183   22.3169 C   0  0  0  0  0  0  0  0  0  0  0  0
  -24.3721  -27.6387   20.1149 C   0  0  0  0  0  0  0  0  0  0  0  0
  -24.8523  -19.5005   18.7494 C   0  0  0  0  0  0  0  0  0  0  0  0
  -27.5477  -19.0414   19.3033 C   0  0  0  0  0  0  0  0  0  0  0  0
  -21.8754   -4.5881   24.5915 C   0  0  0  0  0  0  0  0  0  0  0  0
  -24.3640   -9.8692   20.7757 C   0  0  0  0  0  0  0  0  0  0  0  0
  -25.3465  -10.1925   18.4438 C   0  0  0  0  0  0  0  0  0  0  0  0
  -27.1966  -31.5802   27.0056 C   0  0  0  0  0  0  0  0  0  0  0  0
  -26.0477  -29.1946   20.9095 C   0  0  0  0  0  0  0  0  0  0  0  0
  -26.4882  -30.7439   26.1217 C   0  0  0  0  0  0  0  0  0  0  0  0
  -24.7525  -28.9521   20.4300 C   0  0  0  0  0  0  0  0  0  0  0  0
  -25.7567  -20.5623   18.7409 C   0  0  0  0  0  0  0  0  0  0  0  0
  -25.2955  -18.2090   19.0349 C   0  0  0  0  0  0  0  0  0  0  0  0
  -27.1044  -20.3328   19.0178 C   0  0  0  0  0  0  0  0  0  0  0  0
  -26.6432  -17.9795   19.3118 C   0  0  0  0  0  0  0  0  0  0  0  0
  -22.6450   -8.6891   22.6291 C   0  0  0  0  0  0  0  0  0  0  0  0
  -25.2715  -26.5830   20.2625 C   0  0  0  0  0  0  0  0  0  0  0  0
  -21.6743   -6.7353   23.5024 C   0  0  0  0  0  0  0  0  0  0  0  0
  -21.4065   -3.9592   23.4381 C   0  0  0  0  0  0  0  0  0  0  0  0
  -22.0093   -5.9762   24.6237 C   0  0  0  0  0  0  0  0  0  0  0  0
  -25.2516  -10.4794   19.8188 C   0  0  0  0  0  0  0  0  0  0  0  0
  -26.3294  -11.0346   17.9843 C   0  0  0  0  0  0  0  0  0  0  0  0
  -24.6118   -9.2491   17.6527 C   0  0  0  0  0  0  0  0  0  0  0  0
  -24.7436  -31.2916   22.9109 C   0  0  0  0  0  0  0  0  0  0  0  0
  -23.5636  -32.5785   20.1771 C   0  0  0  0  0  0  0  0  0  0  0  0
  -22.6733  -32.1310   16.9131 C   0  0  0  0  0  0  0  0  0  0  0  0
  -28.4218  -16.2944   19.8979 C   0  0  0  0  0  0  0  0  0  0  0  0
  -26.7581  -32.9969   27.2803 C   0  0  0  0  0  0  0  0  0  0  0  0
  -26.4907  -30.5954   21.2320 C   0  0  0  0  0  0  0  0  0  0  0  0
  -23.7521  -30.0637   20.2509 C   0  0  0  0  0  0  0  0  0  0  0  0
  -25.8014  -33.5531   26.2288 C   0  0  0  0  0  0  0  0  0  0  0  0
  -30.2933  -13.3024   19.4264 C   0  0  0  0  0  0  0  0  0  0  0  0
  -24.7055  -32.5397   25.9148 C   0  0  0  0  0  0  0  0  0  0  0  0
  -29.2211  -12.2136   19.3423 C   0  0  0  0  0  0  0  0  0  0  0  0
  -29.9217  -14.3875   20.4354 C   0  0  0  0  0  0  0  0  0  0  0  0
  -27.5232  -13.8985   20.1578 C   0  0  0  0  0  0  0  0  0  0  0  0
  -25.2972  -31.2486   25.3363 C   0  0  1  0  0  0  0  0  0  0  0  0
  -25.3285  -31.5318   21.5479 C   0  0  1  0  0  0  0  0  0  0  0  0
  -27.8225  -12.8169   19.1069 C   0  0  2  0  0  0  0  0  0  0  0  0
  -28.0909  -21.4541   19.0147 C   0  0  0  0  0  0  0  0  0  0  0  0
  -24.3916  -16.2393   17.7742 C   0  0  0  0  0  0  0  0  0  0  0  0
  -24.7424  -21.9942   16.9770 C   0  0  0  0  0  0  0  0  0  0  0  0
  -21.7046  -33.3572   14.9495 C   0  0  0  0  0  0  0  0  0  0  0  0
  -20.7916  -32.4069   21.4406 C   0  0  0  0  0  0  0  0  0  0  0  0
  -19.8088  -32.7285   19.1605 C   0  0  0  0  0  0  0  0  0  0  0  0
  -21.2292  -34.5147   20.1678 C   0  0  0  0  0  0  0  0  0  0  0  0
  -23.2760  -23.4588   21.5108 C   0  0  0  0  0  0  0  0  0  0  0  0
  -25.2525  -21.9564   21.6424 C   0  0  0  0  0  0  0  0  0  0  0  0
  -25.1044  -31.6826   15.2858 C   0  0  0  0  0  0  0  0  0  0  0  0
  -24.3046  -17.0905   19.0370 C   0  0  0  0  0  0  0  0  0  0  0  0
  -24.1462  -22.4840   19.3801 C   0  0  0  0  0  0  0  0  0  0  0  0
  -25.5098  -24.2532   20.6760 C   0  0  0  0  0  0  0  0  0  1  0  0
  -25.2510  -21.9582   18.4280 C   0  0  1  0  0  0  0  0  0  0  0  0
  -22.3132  -32.3801   19.3549 C   0  0  1  0  0  0  0  0  0  0  0  0
  -22.9797  -32.9398   15.6654 C   0  0  2  0  0  0  0  0  0  0  0  0
  -21.0537  -32.9861   20.0361 C   0  0  0  0  0  0  0  0  0  0  0  0
  -24.5714  -23.0319   20.7791 C   0  0  0  0  0  0  0  0  0  0  0  0
  -26.1062  -11.4295   20.2074 N   0  0  0  0  0  0  0  0  0  0  0  0
  -26.7475  -11.7468   19.0698 N   0  0  0  0  0  0  0  0  0  0  0  0
  -24.2309  -31.4151   20.5857 N   0  0  0  0  0  0  0  0  0  0  0  0
  -28.5863  -14.9155   20.1475 N   0  0  0  0  0  0  0  0  0  0  0  0
  -26.8683  -11.2279   16.7618 N   0  0  0  0  0  0  0  0  0  0  0  0
  -23.6377   -8.4633   18.2836 N   0  0  0  0  0  0  0  0  0  0  0  0
  -27.1128  -16.6749   19.6039 N   0  0  0  0  0  0  0  0  0  0  0  0
  -25.6494  -31.4332   23.9448 N   0  0  0  0  0  0  0  0  0  0  0  0
  -22.6013  -32.9299   18.0346 N   0  0  0  0  0  0  0  0  0  0  0  0
  -23.8090  -32.1398   14.7203 N   0  3  0  0  0  0  0  0  0  0  0  0
  -24.8245   -9.0956   16.4260 O   0  0  0  0  0  0  0  0  0  0  0  0
  -23.5579  -31.0008   23.0169 O   0  0  0  0  0  0  0  0  0  0  0  0
  -23.9386  -33.7237   20.4409 O   0  0  0  0  0  0  0  0  0  0  0  0
  -22.5103  -30.9130   16.8940 O   0  0  0  0  0  0  0  0  0  0  0  0
  -29.3766  -17.0755   19.9149 O   0  0  0  0  0  0  0  0  0  0  0  0
  -21.8059   -8.1135   23.5331 O   0  0  0  0  0  0  0  0  0  0  0  0
  -24.8894  -25.3145   19.9514 O   0  0  0  0  0  0  0  0  0  1  0  0
  -21.2764   -2.6264   23.4076 F   0  0  0  0  0  0  0  0  0  0  0  0
  -22.4592   -6.5748   25.7350 F   0  0  0  0  0  0  0  0  0  0  0  0
  1  2  1  0  0  0  0
  1  5  2  0  0  0  0
  2  6  2  0  0  0  0
  3  8  2  0  0  0  0
  3 17  1  0  0  0  0
  4  9  1  0  0  0  0
  4 17  2  0  0  0  0
  5 19  1  0  0  0  0
  6 21  1  0  0  0  0
  7 10  2  0  0  0  0
  7 20  1  0  0  0  0
  8 27  1  0  0  0  0
  9 27  2  0  0  0  0
 10 28  1  0  0  0  0
 11 12  2  0  0  0  0
 11 29  1  0  0  0  0
 12 30  1  0  0  0  0
 13 22  1  0  0  0  0
 13 28  2  0  0  0  0
 14 23  2  0  0  0  0
 14 24  1  0  0  0  0
 15 25  2  0  0  0  0
 15 26  1  0  0  0  0
 16 30  2  0  0  0  0
 16 31  1  0  0  0  0
 17 32  1  0  0  0  0
 18 32  1  0  0  0  0
 18 33  2  0  0  0  0
 18 34  1  0  0  0  0
 19 21  2  0  0  0  0
 19 39  1  0  0  0  0
 20 22  2  0  0  0  0
 20 40  1  0  0  0  0
 21 48  1  0  0  0  0
 22 41  1  0  0  0  0
 23 25  1  0  0  0  0
 23 64  1  0  0  0  0
 24 26  2  0  0  0  0
 24 61  1  0  0  0  0
 25 51  1  0  0  0  0
 26 75  1  0  0  0  0
 27 84  1  0  0  0  0
 28 85  1  0  0  0  0
 29 31  2  0  0  0  0
 29 84  1  0  0  0  0
 30 86  1  0  0  0  0
 31 87  1  0  0  0  0
 32 69  2  0  0  0  0
 33 70  1  0  0  0  0
 33 73  1  0  0  0  0
 34 74  1  0  0  0  0
 34 79  2  0  0  0  0
 35 49  1  0  0  0  0
 35 76  1  0  0  0  0
 35 80  2  0  0  0  0
 36 65  1  0  0  0  0
 36 71  1  0  0  0  0
 36 81  2  0  0  0  0
 37 66  1  0  0  0  0
 37 77  1  0  0  0  0
 37 82  2  0  0  0  0
 38 72  1  0  0  0  0
 38 75  1  0  0  0  0
 38 83  2  0  0  0  0
 39 42  1  0  0  0  0
 40 49  1  0  0  0  0
 41 71  1  0  0  0  0
 42 44  1  0  0  0  0
 43 45  1  0  0  0  0
 43 46  1  0  0  0  0
 44 48  1  0  0  0  0
 45 50  1  0  0  0  0
 46 72  1  0  0  0  0
 47 50  1  0  0  0  0
 47 72  1  0  0  0  0
 48 76  1  0  0  0  0
 49 71  1  0  0  0  0
 50 70  1  0  0  0  0
 52 61  1  0  0  0  0
 53 64  1  0  0  0  0
 54 66  1  0  0  0  0
 55 67  1  0  0  0  0
 56 67  1  0  0  0  0
 57 67  1  0  0  0  0
 58 68  1  0  0  0  0
 59 68  1  0  0  0  0
 60 78  1  0  0  0  0
 62 64  1  0  0  0  0
 62 68  1  0  0  0  0
 63 68  1  0  0  0  0
 63 85  1  0  0  0  0
 65 67  1  0  0  0  0
 65 77  1  0  0  0  0
 66 78  1  0  0  0  0
 69 70  1  0  0  0  0
M  CHG  1  78   1
M  ISO  4  38 100  63 101  75 100  85 101
M  END
> <Batch ID>
0139

> <Smiles>
CCc1cc(C(C)CC(C)(C)[101CH2:1][101O:1]c2ccc3c(c2)CN(C(=O)C(NC(=O)C(C)NC)C(C)(C)C)C(C(=O)NC2CCCc4ccccc42)C3)c(C)cc1[100NH:0][100C:0](=O)N1CCCC(n2nc(-c3ccc(Oc4ccc(F)cc4F)cc3)c(C(N)=O)c2N)C1

> <Shape>
0.247

> <Color>
0.092

> <Negative vol penalty>
0.000

$$$$

  -OEChem-04052302483D

 84 92  0     1  0  0  0  0  0999 V2000
  -22.3907  -33.2364   21.7394 C   0  0  0  0  0  0  0  0  0  0  0  0
  -22.7816  -32.4536   22.8209 C   0  0  0  0  0  0  0  0  0  0  0  0
  -23.0230   -9.9716   19.9299 C   0  0  0  0  0  0  0  0  0  0  0  0
  -23.8459   -9.8741   22.1993 C   0  0  0  0  0  0  0  0  0  0  0  0
  -21.4067  -32.7751   20.8660 C   0  0  0  0  0  0  0  0  0  0  0  0
  -22.1880  -31.2093   23.0303 C   0  0  0  0  0  0  0  0  0  0  0  0
  -26.1478  -25.1944   23.2095 C   0  0  0  0  0  0  0  0  0  0  0  0
  -22.2705   -8.8186   20.1532 C   0  0  0  0  0  0  0  0  0  0  0  0
  -23.0933   -8.7210   22.4226 C   0  0  0  0  0  0  0  0  0  0  0  0
  -26.8608  -24.0233   23.4671 C   0  0  0  0  0  0  0  0  0  0  0  0
  -19.3527   -7.9999   21.6529 C   0  0  0  0  0  0  0  0  0  0  0  0
  -18.0324   -7.9904   21.2031 C   0  0  0  0  0  0  0  0  0  0  0  0
  -24.7876  -22.8049   23.7232 C   0  0  0  0  0  0  0  0  0  0  0  0
  -29.9314  -17.6434   22.8685 C   0  0  0  0  0  0  0  0  0  0  0  0
  -31.9564  -17.2656   21.6062 C   0  0  0  0  0  0  0  0  0  0  0  0
  -31.7325  -19.2508   22.9648 C   0  0  0  0  0  0  0  0  0  0  0  0
  -18.5286   -6.0967   19.7870 C   0  0  0  0  0  0  0  0  0  0  0  0
  -23.8107  -10.4993   20.9530 C   0  0  0  0  0  0  0  0  0  0  0  0
  -24.1839  -13.0228   20.9270 C   0  0  0  0  0  0  0  0  0  0  0  0
  -20.8076  -31.5203   21.0592 C   0  0  0  0  0  0  0  0  0  0  0  0
  -24.7505  -25.1719   23.1926 C   0  0  0  0  0  0  0  0  0  0  0  0
  -21.1941  -30.7313   22.1594 C   0  0  0  0  0  0  0  0  0  0  0  0
  -24.0682  -23.9722   23.4535 C   0  0  0  0  0  0  0  0  0  0  0  0
  -30.6810  -16.8558   21.9948 C   0  0  0  0  0  0  0  0  0  0  0  0
  -30.4572  -18.8409   23.3535 C   0  0  0  0  0  0  0  0  0  0  0  0
  -22.3056   -8.1933   21.3995 C   0  0  0  0  0  0  0  0  0  0  0  0
  -26.1823  -22.8316   23.7235 C   0  0  0  0  0  0  0  0  0  0  0  0
  -20.2610   -7.0580   21.1697 C   0  0  0  0  0  0  0  0  0  0  0  0
  -17.6203   -7.0387   20.2702 C   0  0  0  0  0  0  0  0  0  0  0  0
  -32.4822  -18.4631   22.0912 C   0  0  0  0  0  0  0  0  0  0  0  0
  -19.8489   -6.1064   20.2368 C   0  0  0  0  0  0  0  0  0  0  0  0
  -24.5888  -11.6900   20.7228 C   0  0  0  0  0  0  0  0  0  0  0  0
  -25.2759  -13.7728   20.5643 C   0  0  0  0  0  0  0  0  0  0  0  0
  -27.2152  -21.4069   25.2651 C   0  0  0  0  0  0  0  0  0  1  0  0
  -22.9327  -13.5368   21.4023 C   0  0  0  0  0  0  0  0  0  0  0  0
  -27.9033  -20.3206   25.6532 C   0  0  0  0  0  0  0  0  0  0  0  0
  -21.5665  -27.0963   22.7081 C   0  0  0  0  0  0  0  0  0  0  0  0
  -21.1712  -24.3670   21.3646 C   0  0  0  0  0  0  0  0  0  0  0  0
  -21.2904  -21.4226   19.6461 C   0  0  0  0  0  0  0  0  0  0  0  0
  -30.7587  -14.7411   20.6279 C   0  0  0  0  0  0  0  0  0  0  0  0
  -19.7146  -31.0847   20.1156 C   0  0  0  0  0  0  0  0  0  0  0  0
  -23.9410  -26.4223   22.9805 C   0  0  0  0  0  0  0  0  0  0  0  0
  -22.5642  -24.0026   23.4592 C   0  0  0  0  0  0  0  0  0  0  0  0
  -19.4017  -29.5926   20.1933 C   0  0  0  0  0  0  0  0  0  0  0  0
  -29.5462  -12.4416   18.1949 C   0  0  0  0  0  0  0  0  0  0  0  0
  -19.2763  -29.1485   21.6472 C   0  0  0  0  0  0  0  0  0  0  0  0
  -28.1151  -12.1507   18.6525 C   0  0  0  0  0  0  0  0  0  0  0  0
  -30.4972  -12.6089   19.3787 C   0  0  0  0  0  0  0  0  0  0  0  0
  -28.6392  -13.2996   20.8416 C   0  0  0  0  0  0  0  0  0  0  0  0
  -20.5912  -29.3653   22.4057 C   0  0  1  0  0  0  0  0  0  0  0  0
  -22.6356  -26.1717   22.2045 C   0  0  1  0  0  0  0  0  0  0  0  0
  -27.6320  -13.1876   19.6855 C   0  0  2  0  0  0  0  0  0  0  0  0
  -27.1416  -19.3198   27.8475 C   0  0  0  0  0  0  0  0  0  0  0  0
  -19.9001  -19.9479   18.1663 C   0  0  0  0  0  0  0  0  0  0  0  0
  -19.5909  -23.4228   23.7966 C   0  0  0  0  0  0  0  0  0  0  0  0
  -18.9506  -21.3797   22.4987 C   0  0  0  0  0  0  0  0  0  0  0  0
  -18.2479  -23.6352   21.6976 C   0  0  0  0  0  0  0  0  0  0  0  0
  -23.2051  -21.6715   17.4031 C   0  0  0  0  0  0  0  0  0  0  0  0
  -28.2206  -20.1082   27.1179 C   0  0  0  0  0  0  0  0  0  0  0  0
  -28.3873  -19.2787   24.6762 C   0  0  0  0  0  0  0  0  0  0  0  0
  -20.6737  -22.9503   21.5009 C   0  0  1  0  0  0  0  0  0  0  0  0
  -20.9197  -21.0752   18.2156 C   0  0  2  0  0  0  0  0  0  0  0  0
  -19.3932  -22.8536   22.3775 C   0  0  0  0  0  0  0  0  0  0  0  0
  -25.8402  -11.5956   20.2655 N   0  0  0  0  0  0  0  0  0  0  0  0
  -26.2310  -12.8785   20.1794 N   0  0  0  0  0  0  0  0  0  0  0  0
  -22.0740  -24.8166   22.3358 N   0  0  0  0  0  0  0  0  0  0  0  0
  -29.9769  -13.6095   20.3130 N   0  0  0  0  0  0  0  0  0  0  0  0
  -25.5025  -15.1033   20.5400 N   0  0  0  0  0  0  0  0  0  0  0  0
  -21.9180  -12.6273   21.7304 N   0  0  0  0  0  0  0  0  0  0  0  0
  -30.1469  -15.6396   21.5015 N   0  0  0  0  0  0  0  0  0  0  0  0
  -29.7125  -19.6240   24.2218 N   0  0  0  0  0  0  0  0  0  0  0  0
  -21.5420  -28.3251   22.0765 N   0  0  0  0  0  0  0  0  0  0  0  0
  -20.5079  -22.4434   20.1430 N   0  0  0  0  0  0  0  0  0  0  0  0
  -22.1289  -20.6487   17.4561 N   0  3  0  0  0  0  0  0  0  0  0  0
  -22.7151  -14.7669   21.5167 O   0  0  0  0  0  0  0  0  0  0  0  0
  -20.8172  -26.7230   23.6030 O   0  0  0  0  0  0  0  0  0  0  0  0
  -20.7676  -25.0604   20.4267 O   0  0  0  0  0  0  0  0  0  0  0  0
  -22.1822  -20.8435   20.2625 O   0  0  0  0  0  0  0  0  0  0  0  0
  -31.8767  -14.9147   20.1360 O   0  0  0  0  0  0  0  0  0  0  0  0
  -21.5712   -7.0683   21.6178 O   0  0  0  0  0  0  0  0  0  0  0  0
  -26.8845  -21.6909   23.9698 O   0  0  0  0  0  0  0  0  0  1  0  0
  -16.3520   -7.0287   19.8395 F   0  0  0  0  0  0  0  0  0  0  0  0
  -33.7067  -18.8572   21.7176 F   0  0  0  0  0  0  0  0  0  0  0  0
  -20.7166   -5.1982   19.7699 F   0  0  0  0  0  0  0  0  0  0  0  0
  1  2  1  0  0  0  0
  1  5  2  0  0  0  0
  2  6  2  0  0  0  0
  3  8  2  0  0  0  0
  3 18  1  0  0  0  0
  4  9  1  0  0  0  0
  4 18  2  0  0  0  0
  5 20  1  0  0  0  0
  6 22  1  0  0  0  0
  7 10  2  0  0  0  0
  7 21  1  0  0  0  0
  8 26  1  0  0  0  0
  9 26  2  0  0  0  0
 10 27  1  0  0  0  0
 11 12  2  0  0  0  0
 11 28  1  0  0  0  0
 12 29  1  0  0  0  0
 13 23  1  0  0  0  0
 13 27  2  0  0  0  0
 14 24  1  0  0  0  0
 14 25  2  0  0  0  0
 15 24  2  0  0  0  0
 15 30  1  0  0  0  0
 16 25  1  0  0  0  0
 16 30  2  0  0  0  0
 17 29  2  0  0  0  0
 17 31  1  0  0  0  0
 18 32  1  0  0  0  0
 19 32  1  0  0  0  0
 19 33  2  0  0  0  0
 19 35  1  0  0  0  0
 20 22  2  0  0  0  0
 20 41  1  0  0  0  0
 21 23  2  0  0  0  0
 21 42  1  0  0  0  0
 22 50  1  0  0  0  0
 23 43  1  0  0  0  0
 24 70  1  0  0  0  0
 25 71  1  0  0  0  0
 26 80  1  0  0  0  0
 27 81  1  0  0  0  0
 28 31  2  0  0  0  0
 28 80  1  0  0  0  0
 29 82  1  0  0  0  0
 30 83  1  0  0  0  0
 31 84  1  0  0  0  0
 32 64  2  0  0  0  0
 33 65  1  0  0  0  0
 33 68  1  0  0  0  0
 34 36  2  0  0  0  0
 34 81  1  0  0  0  0
 35 69  1  0  0  0  0
 35 75  2  0  0  0  0
 36 59  1  0  0  0  0
 36 60  1  0  0  0  0
 37 51  1  0  0  0  0
 37 72  1  0  0  0  0
 37 76  2  0  0  0  0
 38 61  1  0  0  0  0
 38 66  1  0  0  0  0
 38 77  2  0  0  0  0
 39 62  1  0  0  0  0
 39 73  1  0  0  0  0
 39 78  2  0  0  0  0
 40 67  1  0  0  0  0
 40 70  1  0  0  0  0
 40 79  2  0  0  0  0
 41 44  1  0  0  0  0
 42 51  1  0  0  0  0
 43 66  1  0  0  0  0
 44 46  1  0  0  0  0
 45 47  1  0  0  0  0
 45 48  1  0  0  0  0
 46 50  1  0  0  0  0
 47 52  1  0  0  0  0
 48 67  1  0  0  0  0
 49 52  1  0  0  0  0
 49 67  1  0  0  0  0
 50 72  1  0  0  0  0
 51 66  1  0  0  0  0
 52 65  1  0  0  0  0
 53 59  1  0  0  0  0
 54 62  1  0  0  0  0
 55 63  1  0  0  0  0
 56 63  1  0  0  0  0
 57 63  1  0  0  0  0
 58 74  1  0  0  0  0
 60 71  1  0  0  0  0
 61 63  1  0  0  0  0
 61 73  1  0  0  0  0
 62 74  1  0  0  0  0
 64 65  1  0  0  0  0
M  CHG  1  74   1
M  ISO  4  34 101  40 100  70 100  81 101
M  END
> <Batch ID>
0139

> <Smiles>
CCC(CNc1cc(F)cc([100NH:0][100C:0](=O)N2CCCC(n3nc(-c4ccc(Oc5ccc(F)cc5F)cc4)c(C(N)=O)c3N)C2)c1)=[101CH:1][101O:1]c1ccc2c(c1)CN(C(=O)C(NC(=O)C(C)NC)C(C)(C)C)C(C(=O)NC1CCCc3ccccc31)C2

> <Shape>
0.197

> <Color>
0.198

> <Negative vol penalty>
0.000

$$$$

  -OEChem-04052302483D

 88 96  0     1  0  0  0  0  0999 V2000
  -31.3346  -25.5525   19.3554 C   0  0  0  0  0  0  0  0  0  0  0  0
  -30.0452  -25.5201   18.8340 C   0  0  0  0  0  0  0  0  0  0  0  0
  -28.0587  -14.7580   21.3610 C   0  0  0  0  0  0  0  0  0  0  0  0
  -25.9826  -15.4960   20.3699 C   0  0  0  0  0  0  0  0  0  0  0  0
  -31.5443  -25.9753   20.6673 C   0  0  0  0  0  0  0  0  0  0  0  0
  -28.9646  -25.9095   19.6247 C   0  0  0  0  0  0  0  0  0  0  0  0
  -22.5495  -29.0620   19.1509 C   0  0  0  0  0  0  0  0  0  0  0  0
  -27.6891  -13.4302   21.1465 C   0  0  0  0  0  0  0  0  0  0  0  0
  -25.6130  -14.1681   20.1553 C   0  0  0  0  0  0  0  0  0  0  0  0
  -21.2190  -28.8563   19.5131 C   0  0  0  0  0  0  0  0  0  0  0  0
  -24.3566  -11.6075   21.9706 C   0  0  0  0  0  0  0  0  0  0  0  0
  -23.0528  -11.2364   22.2993 C   0  0  0  0  0  0  0  0  0  0  0  0
  -21.7098  -29.6438   21.7398 C   0  0  0  0  0  0  0  0  0  0  0  0
  -22.7428  -23.5364   25.0568 C   0  0  0  0  0  0  0  0  0  0  0  0
  -22.1525  -22.3764   23.0213 C   0  0  0  0  0  0  0  0  0  0  0  0
  -22.6571  -10.5936   20.0043 C   0  0  0  0  0  0  0  0  0  0  0  0
  -27.2054  -15.7909   20.9727 C   0  0  0  0  0  0  0  0  0  0  0  0
  -28.3022  -17.9987   20.3168 C   0  0  0  0  0  0  0  0  0  0  0  0
  -30.4668  -26.3792   21.4714 C   0  0  0  0  0  0  0  0  0  0  0  0
  -23.4741  -29.5506   20.0851 C   0  0  0  0  0  0  0  0  0  0  0  0
  -29.1600  -26.3368   20.9491 C   0  0  0  0  0  0  0  0  0  0  0  0
  -23.0509  -29.8572   21.3862 C   0  0  0  0  0  0  0  0  0  0  0  0
  -21.6133  -24.3440   24.9241 C   0  0  0  0  0  0  0  0  0  0  0  0
  -23.0125  -22.5527   24.1053 C   0  0  0  0  0  0  0  0  0  0  0  0
  -20.7533  -24.1677   23.8402 C   0  0  0  0  0  0  0  0  0  0  0  0
  -26.4664  -13.1353   20.5437 C   0  0  0  0  0  0  0  0  0  0  0  0
  -20.7996  -29.1445   20.8085 C   0  0  0  0  0  0  0  0  0  0  0  0
  -24.8106  -11.4717   20.6587 C   0  0  0  0  0  0  0  0  0  0  0  0
  -22.2031  -10.7295   21.3162 C   0  0  0  0  0  0  0  0  0  0  0  0
  -21.0229  -23.1839   22.8887 C   0  0  0  0  0  0  0  0  0  0  0  0
  -23.9609  -10.9647   19.6755 C   0  0  0  0  0  0  0  0  0  0  0  0
  -27.5863  -17.1627   21.1945 C   0  0  0  0  0  0  0  0  0  0  0  0
  -28.4054  -19.1928   20.9877 C   0  0  0  0  0  0  0  0  0  0  0  0
  -28.8270  -17.7208   19.0118 C   0  0  0  0  0  0  0  0  0  0  0  0
  -26.1496  -28.4338   21.3883 C   0  0  0  0  0  0  0  0  0  0  0  0
  -26.3003  -31.4059   22.6790 C   0  0  0  0  0  0  0  0  0  0  0  0
  -24.6487  -34.2306   23.6486 C   0  0  0  0  0  0  0  0  0  0  0  0
  -25.1150  -21.7753   25.2548 C   0  0  0  0  0  0  0  0  0  0  0  0
  -30.7378  -26.7834   22.8989 C   0  0  0  0  0  0  0  0  0  0  0  0
  -24.8998  -29.7922   19.6710 C   0  0  0  0  0  0  0  0  0  0  0  0
  -23.9996  -30.4030   22.4208 C   0  0  0  0  0  0  0  0  0  0  0  0
  -29.5797  -27.5358   23.5492 C   0  0  0  0  0  0  0  0  0  0  0  0
  -28.5847  -20.9938   25.4214 C   0  0  0  0  0  0  0  0  0  0  0  0
  -28.2587  -26.8255   23.2717 C   0  0  0  0  0  0  0  0  0  0  0  0
  -28.7888  -20.0034   24.2727 C   0  0  0  0  0  0  0  0  0  0  0  0
  -27.2340  -20.7964   26.1073 C   0  0  0  0  0  0  0  0  0  0  0  0
  -26.2775  -19.8173   24.0589 C   0  0  0  0  0  0  0  0  0  0  0  0
  -27.9649  -26.7749   21.7675 C   0  0  1  0  0  0  0  0  0  0  0  0
  -25.8695  -29.8078   20.8487 C   0  0  1  0  0  0  0  0  0  0  0  0
  -27.5967  -20.0200   23.2959 C   0  0  2  0  0  0  0  0  0  0  0  0
  -21.7172  -26.7885   25.4719 C   0  0  0  0  0  0  0  0  0  0  0  0
  -25.0350  -36.4738   24.7050 C   0  0  0  0  0  0  0  0  0  0  0  0
  -26.5750  -30.0704   25.4087 C   0  0  0  0  0  0  0  0  0  0  0  0
  -26.0040  -32.2679   26.4637 C   0  0  0  0  0  0  0  0  0  0  0  0
  -28.0578  -32.0546   25.0641 C   0  0  0  0  0  0  0  0  0  0  0  0
  -16.6442  -28.4273   21.7219 C   0  0  0  0  0  0  0  0  0  0  0  0
  -16.8940  -26.2494   20.5376 C   0  0  0  0  0  0  0  0  0  0  0  0
  -23.6578  -35.6586   21.2532 C   0  0  0  0  0  0  0  0  0  0  0  0
  -21.3489  -25.3901   25.9577 C   0  0  0  0  0  0  0  0  0  0  0  0
  -19.1745  -25.4812   22.4232 C   0  0  0  0  0  0  0  0  0  0  0  0
  -18.7985  -27.8979   20.4960 C   0  0  0  0  0  0  0  0  0  1  0  0
  -25.7901  -32.0482   23.9464 C   0  0  1  0  0  0  0  0  0  0  0  0
  -24.9349  -35.7004   23.3994 C   0  0  2  0  0  0  0  0  0  0  0  0
  -18.2118  -26.6519   22.6597 C   0  0  1  0  0  0  0  0  0  0  0  0
  -26.5890  -31.5982   25.2020 C   0  0  0  0  0  0  0  0  0  0  0  0
  -17.6527  -27.3170   21.3611 C   0  0  0  0  0  0  0  0  0  0  0  0
  -27.2580  -17.7738   22.3359 N   0  0  0  0  0  0  0  0  0  0  0  0
  -27.7701  -19.0065   22.1801 N   0  0  0  0  0  0  0  0  0  0  0  0
  -25.3847  -30.6160   21.9694 N   0  0  0  0  0  0  0  0  0  0  0  0
  -26.1520  -20.8280   25.1208 N   0  0  0  0  0  0  0  0  0  0  0  0
  -28.9768  -20.3733   20.6680 N   0  0  0  0  0  0  0  0  0  0  0  0
  -28.6315  -16.4425   18.4714 N   0  0  0  0  0  0  0  0  0  0  0  0
  -24.1598  -21.7321   24.2398 N   0  0  0  0  0  0  0  0  0  0  0  0
  -19.6288  -24.9610   23.6951 N   0  0  0  0  0  0  0  0  0  0  0  0
  -27.4762  -28.0561   21.3046 N   0  0  0  0  0  0  0  0  0  0  0  0
  -25.8087  -33.4878   23.7105 N   0  0  0  0  0  0  0  0  0  0  0  0
  -23.8509  -36.3068   22.5758 N   0  3  0  0  0  0  0  0  0  0  0  0
  -29.4650  -18.5755   18.3515 O   0  0  0  0  0  0  0  0  0  0  0  0
  -25.2304  -27.7662   21.8479 O   0  0  0  0  0  0  0  0  0  0  0  0
  -27.4661  -31.6037   22.3278 O   0  0  0  0  0  0  0  0  0  0  0  0
  -23.5102  -33.7865   23.7792 O   0  0  0  0  0  0  0  0  0  0  0  0
  -25.0918  -22.5847   26.1856 O   0  0  0  0  0  0  0  0  0  0  0  0
  -17.1141  -26.1701   23.4441 O   0  0  0  0  0  0  0  0  0  0  0  0
  -26.1055  -11.8397   20.3340 O   0  0  0  0  0  0  0  0  0  0  0  0
  -19.5016  -28.9441   21.1649 O   0  0  0  0  0  0  0  0  0  1  0  0
  -20.9516  -10.3717   21.6324 F   0  0  0  0  0  0  0  0  0  0  0  0
  -20.2034  -23.0048   21.8428 F   0  0  0  0  0  0  0  0  0  0  0  0
  -24.3918  -10.8308   18.4137 F   0  0  0  0  0  0  0  0  0  0  0  0
  1  2  1  0  0  0  0
  1  5  2  0  0  0  0
  2  6  2  0  0  0  0
  3  8  2  0  0  0  0
  3 17  1  0  0  0  0
  4  9  1  0  0  0  0
  4 17  2  0  0  0  0
  5 19  1  0  0  0  0
  6 21  1  0  0  0  0
  7 10  2  0  0  0  0
  7 20  1  0  0  0  0
  8 26  1  0  0  0  0
  9 26  2  0  0  0  0
 10 27  1  0  0  0  0
 11 12  2  0  0  0  0
 11 28  1  0  0  0  0
 12 29  1  0  0  0  0
 13 22  1  0  0  0  0
 13 27  2  0  0  0  0
 14 23  1  0  0  0  0
 14 24  2  0  0  0  0
 15 24  1  0  0  0  0
 15 30  2  0  0  0  0
 16 29  2  0  0  0  0
 16 31  1  0  0  0  0
 17 32  1  0  0  0  0
 18 32  1  0  0  0  0
 18 33  2  0  0  0  0
 18 34  1  0  0  0  0
 19 21  2  0  0  0  0
 19 39  1  0  0  0  0
 20 22  2  0  0  0  0
 20 40  1  0  0  0  0
 21 48  1  0  0  0  0
 22 41  1  0  0  0  0
 23 25  2  0  0  0  0
 23 59  1  0  0  0  0
 24 73  1  0  0  0  0
 25 30  1  0  0  0  0
 25 74  1  0  0  0  0
 26 84  1  0  0  0  0
 27 85  1  0  0  0  0
 28 31  2  0  0  0  0
 28 84  1  0  0  0  0
 29 86  1  0  0  0  0
 30 87  1  0  0  0  0
 31 88  1  0  0  0  0
 32 67  2  0  0  0  0
 33 68  1  0  0  0  0
 33 71  1  0  0  0  0
 34 72  1  0  0  0  0
 34 78  2  0  0  0  0
 35 49  1  0  0  0  0
 35 75  1  0  0  0  0
 35 79  2  0  0  0  0
 36 62  1  0  0  0  0
 36 69  1  0  0  0  0
 36 80  2  0  0  0  0
 37 63  1  0  0  0  0
 37 76  1  0  0  0  0
 37 81  2  0  0  0  0
 38 70  1  0  0  0  0
 38 73  1  0  0  0  0
 38 82  2  0  0  0  0
 39 42  1  0  0  0  0
 40 49  1  0  0  0  0
 41 69  1  0  0  0  0
 42 44  1  0  0  0  0
 43 45  1  0  0  0  0
 43 46  1  0  0  0  0
 44 48  1  0  0  0  0
 45 50  1  0  0  0  0
 46 70  1  0  0  0  0
 47 50  1  0  0  0  0
 47 70  1  0  0  0  0
 48 75  1  0  0  0  0
 49 69  1  0  0  0  0
 50 68  1  0  0  0  0
 51 59  1  0  0  0  0
 52 63  1  0  0  0  0
 53 65  1  0  0  0  0
 54 65  1  0  0  0  0
 55 65  1  0  0  0  0
 56 66  1  0  0  0  0
 57 66  1  0  0  0  0
 58 77  1  0  0  0  0
 60 64  1  0  0  0  0
 60 74  1  0  0  0  0
 61 66  1  0  0  0  0
 61 85  1  0  0  0  0
 62 65  1  0  0  0  0
 62 76  1  0  0  0  0
 63 77  1  0  0  0  0
 64 66  1  0  0  0  0
 64 83  1  0  0  0  0
 67 68  1  0  0  0  0
M  CHG  1  77   1
M  ISO  4  38 100  61 101  73 100  85 101
M  END
> <Batch ID>
0139

> <Smiles>
CCc1cc([100NH:0][100C:0](=O)N2CCCC(n3nc(-c4ccc(Oc5ccc(F)cc5F)cc4)c(C(N)=O)c3N)C2)cc(F)c1NCC(O)C(C)(C)[101CH2:1][101O:1]c1ccc2c(c1)CN(C(=O)C(NC(=O)C(C)NC)C(C)(C)C)C(C(=O)NC1CCCc3ccccc31)C2

> <Shape>
0.307

> <Color>
0.072

> <Negative vol penalty>
0.000

$$$$

  -OEChem-04052302483D

 88 97  0     1  0  0  0  0  0999 V2000
  -31.7118  -24.4760   18.8414 C   0  0  0  0  0  0  0  0  0  0  0  0
  -30.3414  -24.2626   18.9499 C   0  0  0  0  0  0  0  0  0  0  0  0
  -25.7429  -22.7810   25.9014 C   0  0  0  0  0  0  0  0  0  0  0  0
  -26.5683  -13.2884   19.2762 C   0  0  0  0  0  0  0  0  0  0  0  0
  -24.6856  -13.9012   20.6606 C   0  0  0  0  0  0  0  0  0  0  0  0
  -24.4338  -22.4521   26.2533 C   0  0  0  0  0  0  0  0  0  0  0  0
  -32.3634  -25.2961   19.7615 C   0  0  0  0  0  0  0  0  0  0  0  0
  -29.6219  -24.8684   19.9793 C   0  0  0  0  0  0  0  0  0  0  0  0
  -23.8653  -26.9424   19.7222 C   0  0  0  0  0  0  0  0  0  0  0  0
  -26.2764  -22.3254   24.6958 C   0  0  0  0  0  0  0  0  0  0  0  0
  -26.5123  -11.9873   19.7758 C   0  0  0  0  0  0  0  0  0  0  0  0
  -24.6294  -12.6001   21.1602 C   0  0  0  0  0  0  0  0  0  0  0  0
  -22.6507  -26.3913   20.1282 C   0  0  0  0  0  0  0  0  0  0  0  0
  -23.4747   -9.5911   20.1439 C   0  0  0  0  0  0  0  0  0  0  0  0
  -22.2212   -8.9855   20.2312 C   0  0  0  0  0  0  0  0  0  0  0  0
  -24.1919  -21.2119   24.1940 C   0  0  0  0  0  0  0  0  0  0  0  0
  -22.8023  -27.6046   22.2077 C   0  0  0  0  0  0  0  0  0  0  0  0
  -22.5056   -8.7409   22.6179 C   0  0  0  0  0  0  0  0  0  0  0  0
  -25.6550  -14.2454   19.7186 C   0  0  0  0  0  0  0  0  0  0  0  0
  -23.6583  -21.6675   25.3996 C   0  0  0  0  0  0  0  0  0  0  0  0
  -25.0453  -16.0958   18.0719 C   0  0  0  0  0  0  0  0  0  0  0  0
  -31.6499  -25.9200   20.7970 C   0  0  0  0  0  0  0  0  0  0  0  0
  -24.5640  -27.8218   20.5618 C   0  0  0  0  0  0  0  0  0  0  0  0
  -30.2648  -25.6966   20.9150 C   0  0  0  0  0  0  0  0  0  0  0  0
  -24.0243  -28.1675   21.8089 C   0  0  0  0  0  0  0  0  0  0  0  0
  -25.5010  -21.5409   23.8422 C   0  0  0  0  0  0  0  0  0  0  0  0
  -25.5428  -11.6431   20.7178 C   0  0  0  0  0  0  0  0  0  0  0  0
  -22.1204  -26.7201   21.3723 C   0  0  0  0  0  0  0  0  0  0  0  0
  -24.2437   -9.7715   21.2935 C   0  0  0  0  0  0  0  0  0  0  0  0
  -21.7366   -8.5604   21.4682 C   0  0  0  0  0  0  0  0  0  0  0  0
  -23.7592   -9.3464   22.5305 C   0  0  0  0  0  0  0  0  0  0  0  0
  -25.7128  -15.5897   19.2033 C   0  0  0  0  0  0  0  0  0  0  0  0
  -25.4270  -17.4137   18.0091 C   0  0  0  0  0  0  0  0  0  0  0  0
  -22.2749  -21.3199   25.7703 C   0  0  0  0  0  0  0  0  0  0  0  0
  -24.1594  -15.4339   17.1594 C   0  0  0  0  0  0  0  0  0  0  0  0
  -19.8568  -24.7944   23.4331 C   0  0  0  0  0  0  0  0  0  0  0  0
  -27.4083  -27.7843   21.9804 C   0  0  0  0  0  0  0  0  0  0  0  0
  -26.5974  -30.8118   22.8163 C   0  0  0  0  0  0  0  0  0  0  0  0
  -24.1279  -33.0989   23.3800 C   0  0  0  0  0  0  0  0  0  0  0  0
  -27.3244  -21.3145   22.1187 C   0  0  0  0  0  0  0  0  0  0  0  0
  -32.4058  -26.7601   21.7958 C   0  0  0  0  0  0  0  0  0  0  0  0
  -25.8599  -28.4285   20.0980 C   0  0  0  0  0  0  0  0  0  0  0  0
  -24.7251  -29.1225   22.7391 C   0  0  0  0  0  0  0  0  0  0  0  0
  -31.5070  -27.6646   22.6350 C   0  0  0  0  0  0  0  0  0  0  0  0
  -29.0511  -20.3221   19.1673 C   0  0  0  0  0  0  0  0  0  0  0  0
  -30.3044  -26.8854   23.1580 C   0  0  0  0  0  0  0  0  0  0  0  0
  -28.3264  -19.0453   18.7353 C   0  0  0  0  0  0  0  0  0  0  0  0
  -19.1401  -22.8558   24.8466 C   0  0  0  0  0  0  0  0  0  0  0  0
  -29.1531  -20.4295   20.6878 C   0  0  0  0  0  0  0  0  0  0  0  0
  -19.8769  -21.8541   25.7282 C   0  0  0  0  0  0  0  0  0  0  0  0
  -27.1550  -19.0172   20.9745 C   0  0  0  0  0  0  0  0  0  0  0  0
  -21.4862  -23.3571   24.6374 C   0  0  0  0  0  0  0  0  0  0  0  0
  -29.4455  -26.3560   22.0032 C   0  0  1  0  0  0  0  0  0  0  0  0
  -26.7384  -28.9121   21.2476 C   0  0  1  0  0  0  0  0  0  0  0  0
  -26.9705  -18.8966   19.4530 C   0  0  2  0  0  0  0  0  0  0  0  0
  -20.1113  -24.0384   24.7066 C   0  0  1  0  0  0  0  0  0  0  0  0
  -20.0143  -24.9967   25.8956 C   0  0  0  0  0  0  0  0  0  0  0  0
  -23.7724  -35.4798   24.0886 C   0  0  0  0  0  0  0  0  0  0  0  0
  -27.1778  -30.0349   25.7093 C   0  0  0  0  0  0  0  0  0  0  0  0
  -25.9257  -32.0776   26.4359 C   0  0  0  0  0  0  0  0  0  0  0  0
  -27.9912  -32.3079   25.0563 C   0  0  0  0  0  0  0  0  0  0  0  0
  -22.8268  -33.7904   20.8133 C   0  0  0  0  0  0  0  0  0  0  0  0
  -20.7495  -25.9890   23.1728 C   0  0  0  0  0  0  0  0  0  1  0  0
  -25.8731  -31.4415   23.9816 C   0  0  1  0  0  0  0  0  0  0  0  0
  -23.9576  -34.5332   22.9129 C   0  0  2  0  0  0  0  0  0  0  0  0
  -26.7294  -31.4459   25.2793 C   0  0  0  0  0  0  0  0  0  0  0  0
  -26.4618  -16.5109   19.8151 N   0  0  0  0  0  0  0  0  0  0  0  0
  -26.2674  -17.6092   19.0654 N   0  0  0  0  0  0  0  0  0  0  0  0
  -21.2861  -22.1161   25.4061 N   0  0  0  0  0  0  0  0  0  0  0  0
  -25.9922  -29.6845   22.2431 N   0  0  0  0  0  0  0  0  0  0  0  0
  -27.8302  -20.2835   21.2990 N   0  0  0  0  0  0  0  0  0  0  0  0
  -25.1224  -18.4129   17.1539 N   0  0  0  0  0  0  0  0  0  0  0  0
  -23.8741  -14.0780   17.3702 N   0  0  0  0  0  0  0  0  0  0  0  0
  -26.0438  -21.0785   22.6177 N   0  0  0  0  0  0  0  0  0  0  0  0
  -28.6310  -27.4173   21.4513 N   0  0  0  0  0  0  0  0  0  0  0  0
  -25.4571  -32.7668   23.5357 N   0  0  0  0  0  0  0  0  0  0  0  0
  -22.0438  -20.2092   26.4640 N   0  3  0  0  0  0  0  0  0  0  0  0
  -22.7678  -34.6504   22.0232 N   0  3  0  0  0  0  0  0  0  0  0  0
  -23.6493  -16.0230   16.1764 O   0  0  0  0  0  0  0  0  0  0  0  0
  -18.9692  -24.4521   22.6532 O   0  0  0  0  0  0  0  0  0  0  0  0
  -26.8575  -27.2851   22.9545 O   0  0  0  0  0  0  0  0  0  0  0  0
  -27.6573  -31.3064   22.4245 O   0  0  0  0  0  0  0  0  0  0  0  0
  -23.1768  -32.3493   23.5897 O   0  0  0  0  0  0  0  0  0  0  0  0
  -27.9680  -22.3438   22.3383 O   0  0  0  0  0  0  0  0  0  0  0  0
  -25.4877  -10.3736   21.2053 O   0  0  0  0  0  0  0  0  0  0  0  0
  -20.9354  -26.1831   21.7713 O   0  0  0  0  0  0  0  0  0  1  0  0
  -20.5322   -7.9803   21.5521 F   0  0  0  0  0  0  0  0  0  0  0  0
  -24.4929   -9.5181   23.6387 F   0  0  0  0  0  0  0  0  0  0  0  0
  1  2  1  0  0  0  0
  1  7  2  0  0  0  0
  2  8  2  0  0  0  0
  3  6  2  0  0  0  0
  3 10  1  0  0  0  0
  4 11  2  0  0  0  0
  4 19  1  0  0  0  0
  5 12  1  0  0  0  0
  5 19  2  0  0  0  0
  6 20  1  0  0  0  0
  7 22  1  0  0  0  0
  8 24  1  0  0  0  0
  9 13  2  0  0  0  0
  9 23  1  0  0  0  0
 10 26  2  0  0  0  0
 11 27  1  0  0  0  0
 12 27  2  0  0  0  0
 13 28  1  0  0  0  0
 14 15  2  0  0  0  0
 14 29  1  0  0  0  0
 15 30  1  0  0  0  0
 16 20  2  0  0  0  0
 16 26  1  0  0  0  0
 17 25  1  0  0  0  0
 17 28  2  0  0  0  0
 18 30  2  0  0  0  0
 18 31  1  0  0  0  0
 19 32  1  0  0  0  0
 20 34  1  0  0  0  0
 21 32  1  0  0  0  0
 21 33  2  0  0  0  0
 21 35  1  0  0  0  0
 22 24  2  0  0  0  0
 22 41  1  0  0  0  0
 23 25  2  0  0  0  0
 23 42  1  0  0  0  0
 24 53  1  0  0  0  0
 25 43  1  0  0  0  0
 26 74  1  0  0  0  0
 27 85  1  0  0  0  0
 28 86  1  0  0  0  0
 29 31  2  0  0  0  0
 29 85  1  0  0  0  0
 30 87  1  0  0  0  0
 31 88  1  0  0  0  0
 32 67  2  0  0  0  0
 33 68  1  0  0  0  0
 33 72  1  0  0  0  0
 34 69  1  0  0  0  0
 34 77  2  0  0  0  0
 35 73  1  0  0  0  0
 35 79  2  0  0  0  0
 36 56  1  0  0  0  0
 36 63  1  0  0  0  0
 36 80  2  0  0  0  0
 37 54  1  0  0  0  0
 37 75  1  0  0  0  0
 37 81  2  0  0  0  0
 38 64  1  0  0  0  0
 38 70  1  0  0  0  0
 38 82  2  0  0  0  0
 39 65  1  0  0  0  0
 39 76  1  0  0  0  0
 39 83  2  0  0  0  0
 40 71  1  0  0  0  0
 40 74  1  0  0  0  0
 40 84  2  0  0  0  0
 41 44  1  0  0  0  0
 42 54  1  0  0  0  0
 43 70  1  0  0  0  0
 44 46  1  0  0  0  0
 45 47  1  0  0  0  0
 45 49  1  0  0  0  0
 46 53  1  0  0  0  0
 47 55  1  0  0  0  0
 48 50  1  0  0  0  0
 48 56  1  0  0  0  0
 49 71  1  0  0  0  0
 50 69  1  0  0  0  0
 51 55  1  0  0  0  0
 51 71  1  0  0  0  0
 52 56  1  0  0  0  0
 52 69  1  0  0  0  0
 53 75  1  0  0  0  0
 54 70  1  0  0  0  0
 55 68  1  0  0  0  0
 56 57  1  0  0  0  0
 58 65  1  0  0  0  0
 59 66  1  0  0  0  0
 60 66  1  0  0  0  0
 61 66  1  0  0  0  0
 62 78  1  0  0  0  0
 63 86  1  0  0  0  0
 64 66  1  0  0  0  0
 64 76  1  0  0  0  0
 65 78  1  0  0  0  0
 67 68  1  0  0  0  0
M  CHG  2  77   1  78   1
M  ISO  4  40 100  63 101  74 100  86 101
M  END
> <Batch ID>
0139

> <Smiles>
CNC(C)C(=O)NC(C(=O)N1Cc2cc([101O:1][101CH2:1]C(=O)C3(C)CCN(C(=N)c4cccc([100NH:0][100C:0](=O)N5CCCC(n6nc(-c7ccc(Oc8ccc(F)cc8F)cc7)c(C(N)=O)c6N)C5)c4)C3)ccc2CC1C(=O)NC1CCCc2ccccc21)C(C)(C)C

> <Shape>
0.248

> <Color>
0.069

> <Negative vol penalty>
0.000

$$$$

  -OEChem-04052302483D

 83 91  0     1  0  0  0  0  0999 V2000
  -18.1180  -26.9619   23.6419 C   0  0  0  0  0  0  0  0  0  0  0  0
  -19.4388  -27.0015   24.0771 C   0  0  0  0  0  0  0  0  0  0  0  0
  -28.1245  -23.1907   20.6687 C   0  0  0  0  0  0  0  0  0  0  0  0
  -26.7369  -12.5738   21.8906 C   0  0  0  0  0  0  0  0  0  0  0  0
  -25.9268  -14.3082   20.4166 C   0  0  0  0  0  0  0  0  0  0  0  0
  -17.8362  -26.9040   22.2777 C   0  0  0  0  0  0  0  0  0  0  0  0
  -20.4786  -26.9822   23.1482 C   0  0  0  0  0  0  0  0  0  0  0  0
  -25.8634  -29.8658   23.5896 C   0  0  0  0  0  0  0  0  0  0  0  0
  -28.2384  -24.1865   21.6387 C   0  0  0  0  0  0  0  0  0  0  0  0
  -28.7026  -21.9393   20.8826 C   0  0  0  0  0  0  0  0  0  0  0  0
  -25.4560  -12.0247   21.9487 C   0  0  0  0  0  0  0  0  0  0  0  0
  -24.6458  -13.7591   20.4746 C   0  0  0  0  0  0  0  0  0  0  0  0
  -27.1290  -29.4341   23.9840 C   0  0  0  0  0  0  0  0  0  0  0  0
  -23.4897  -10.0784   20.0049 C   0  0  0  0  0  0  0  0  0  0  0  0
  -23.3707   -8.6950   19.8715 C   0  0  0  0  0  0  0  0  0  0  0  0
  -27.7188  -29.0711   21.6732 C   0  0  0  0  0  0  0  0  0  0  0  0
  -29.5086  -22.6799   23.0364 C   0  0  0  0  0  0  0  0  0  0  0  0
  -22.3568   -8.5712   22.0610 C   0  0  0  0  0  0  0  0  0  0  0  0
  -26.9723  -13.7155   21.1246 C   0  0  0  0  0  0  0  0  0  0  0  0
  -29.3121  -13.9743   20.1417 C   0  0  0  0  0  0  0  0  0  0  0  0
  -18.8729  -26.8937   21.3312 C   0  0  0  0  0  0  0  0  0  0  0  0
  -25.5117  -29.8931   22.2324 C   0  0  0  0  0  0  0  0  0  0  0  0
  -20.2104  -26.9228   21.7701 C   0  0  0  0  0  0  0  0  0  0  0  0
  -26.4490  -29.5060   21.2640 C   0  0  0  0  0  0  0  0  0  0  0  0
  -28.9305  -23.9312   22.8225 C   0  0  0  0  0  0  0  0  0  0  0  0
  -29.3947  -21.6840   22.0665 C   0  0  0  0  0  0  0  0  0  0  0  0
  -24.4104  -12.6174   21.2407 C   0  0  0  0  0  0  0  0  0  0  0  0
  -28.0560  -29.0339   23.0260 C   0  0  0  0  0  0  0  0  0  0  0  0
  -23.0423  -10.7082   21.1663 C   0  0  0  0  0  0  0  0  0  0  0  0
  -22.8043   -7.9415   20.8996 C   0  0  0  0  0  0  0  0  0  0  0  0
  -22.4759   -9.9546   22.1944 C   0  0  0  0  0  0  0  0  0  0  0  0
  -28.2952  -14.2835   21.0647 C   0  0  0  0  0  0  0  0  0  0  0  0
  -30.3640  -14.7779   20.5077 C   0  0  0  0  0  0  0  0  0  0  0  0
  -29.3062  -13.0438   19.0508 C   0  0  0  0  0  0  0  0  0  0  0  0
  -23.3120  -28.4412   20.4556 C   0  0  0  0  0  0  0  0  0  0  0  0
  -24.4355  -30.4190   18.1430 C   0  0  0  0  0  0  0  0  0  0  0  0
  -27.0089  -32.3199   16.9551 C   0  0  0  0  0  0  0  0  0  0  0  0
  -30.7015  -19.9945   23.4023 C   0  0  0  0  0  0  0  0  0  0  0  0
  -18.5199  -26.7828   19.8691 C   0  0  0  0  0  0  0  0  0  0  0  0
  -24.1515  -30.3868   21.8215 C   0  0  0  0  0  0  0  0  0  0  0  0
  -26.1277  -29.5360   19.7928 C   0  0  0  0  0  0  0  0  0  0  0  0
  -19.6722  -27.1441   18.9353 C   0  0  0  0  0  0  0  0  0  0  0  0
  -32.2726  -16.9377   24.3322 C   0  0  0  0  0  0  0  0  0  0  0  0
  -20.9600  -26.4635   19.3883 C   0  0  0  0  0  0  0  0  0  0  0  0
  -31.5275  -15.8827   23.5113 C   0  0  0  0  0  0  0  0  0  0  0  0
  -31.3387  -18.0483   24.8099 C   0  0  0  0  0  0  0  0  0  0  0  0
  -29.7981  -17.6325   22.9329 C   0  0  0  0  0  0  0  0  0  0  0  0
  -21.3653  -26.9285   20.7922 C   0  0  1  0  0  0  0  0  0  0  0  0
  -23.7247  -29.8859   20.4452 C   0  0  1  0  0  0  0  0  0  0  0  0
  -30.7095  -16.5272   22.3750 C   0  0  2  0  0  0  0  0  0  0  0  0
  -27.6441  -33.7886   15.0221 C   0  0  0  0  0  0  0  0  0  0  0  0
  -24.8442  -27.9468   16.4020 C   0  0  0  0  0  0  0  0  0  0  0  0
  -26.3205  -29.3210   14.9187 C   0  0  0  0  0  0  0  0  0  0  0  0
  -23.9176  -29.9313   15.1947 C   0  0  0  0  0  0  0  0  0  0  0  0
  -31.8856  -27.7098   24.4137 C   0  0  0  0  0  0  0  0  0  0  0  0
  -30.6412  -26.3699   26.1294 C   0  0  0  0  0  0  0  0  0  0  0  0
  -27.3862  -34.6697   18.7144 C   0  0  0  0  0  0  0  0  0  0  0  0
  -29.0535  -25.0095   23.8720 C   0  0  0  0  0  0  0  0  0  0  0  0
  -30.3095  -25.8638   23.6512 C   0  0  0  0  0  0  0  0  0  0  0  0
  -29.3969  -27.9817   24.6845 C   0  0  0  0  0  0  0  0  0  1  0  0
  -25.5263  -30.3363   17.1026 C   0  0  1  0  0  0  0  0  0  0  0  0
  -27.0490  -33.7402   16.4207 C   0  0  2  0  0  0  0  0  0  0  0  0
  -25.1578  -29.3813   15.9323 C   0  0  0  0  0  0  0  0  0  0  0  0
  -30.5688  -26.9698   24.7139 C   0  0  0  0  0  0  0  0  0  0  0  0
  -28.6676  -15.2111   21.9507 N   0  0  0  0  0  0  0  0  0  0  0  0
  -29.9303  -15.4916   21.5860 N   0  0  0  0  0  0  0  0  0  0  0  0
  -24.7826  -30.0205   19.4417 N   0  0  0  0  0  0  0  0  0  0  0  0
  -30.6001  -18.6147   23.6791 N   0  0  0  0  0  0  0  0  0  0  0  0
  -31.6085  -14.9366   20.0092 N   0  0  0  0  0  0  0  0  0  0  0  0
  -28.1430  -12.2986   18.8145 N   0  0  0  0  0  0  0  0  0  0  0  0
  -29.9812  -20.4126   22.2837 N   0  0  0  0  0  0  0  0  0  0  0  0
  -21.9735  -28.2405   20.7341 N   0  0  0  0  0  0  0  0  0  0  0  0
  -25.8018  -31.7083   16.6902 N   0  0  0  0  0  0  0  0  0  0  0  0
  -27.8719  -34.6059   17.3119 N   0  3  0  0  0  0  0  0  0  0  0  0
  -30.3086  -12.8663   18.3178 O   0  0  0  0  0  0  0  0  0  0  0  0
  -24.1458  -27.5729   20.2264 O   0  0  0  0  0  0  0  0  0  0  0  0
  -23.3187  -30.8291   17.8170 O   0  0  0  0  0  0  0  0  0  0  0  0
  -27.9553  -31.8032   17.5451 O   0  0  0  0  0  0  0  0  0  0  0  0
  -31.3991  -20.7447   24.0895 O   0  0  0  0  0  0  0  0  0  0  0  0
  -23.1604  -12.0817   21.2969 O   0  0  0  0  0  0  0  0  0  0  0  0
  -29.2918  -28.6115   23.4083 O   0  0  0  0  0  0  0  0  0  1  0  0
  -22.6887   -6.6132   20.7708 F   0  0  0  0  0  0  0  0  0  0  0  0
  -22.0432  -10.5541   23.3120 F   0  0  0  0  0  0  0  0  0  0  0  0
  1  2  1  0  0  0  0
  1  6  2  0  0  0  0
  2  7  2  0  0  0  0
  3  9  2  0  0  0  0
  3 10  1  0  0  0  0
  4 11  2  0  0  0  0
  4 19  1  0  0  0  0
  5 12  1  0  0  0  0
  5 19  2  0  0  0  0
  6 21  1  0  0  0  0
  7 23  1  0  0  0  0
  8 13  2  0  0  0  0
  8 22  1  0  0  0  0
  9 25  1  0  0  0  0
 10 26  2  0  0  0  0
 11 27  1  0  0  0  0
 12 27  2  0  0  0  0
 13 28  1  0  0  0  0
 14 15  2  0  0  0  0
 14 29  1  0  0  0  0
 15 30  1  0  0  0  0
 16 24  1  0  0  0  0
 16 28  2  0  0  0  0
 17 25  2  0  0  0  0
 17 26  1  0  0  0  0
 18 30  2  0  0  0  0
 18 31  1  0  0  0  0
 19 32  1  0  0  0  0
 20 32  1  0  0  0  0
 20 33  2  0  0  0  0
 20 34  1  0  0  0  0
 21 23  2  0  0  0  0
 21 39  1  0  0  0  0
 22 24  2  0  0  0  0
 22 40  1  0  0  0  0
 23 48  1  0  0  0  0
 24 41  1  0  0  0  0
 25 58  1  0  0  0  0
 26 71  1  0  0  0  0
 27 80  1  0  0  0  0
 28 81  1  0  0  0  0
 29 31  2  0  0  0  0
 29 80  1  0  0  0  0
 30 82  1  0  0  0  0
 31 83  1  0  0  0  0
 32 65  2  0  0  0  0
 33 66  1  0  0  0  0
 33 69  1  0  0  0  0
 34 70  1  0  0  0  0
 34 75  2  0  0  0  0
 35 49  1  0  0  0  0
 35 72  1  0  0  0  0
 35 76  2  0  0  0  0
 36 61  1  0  0  0  0
 36 67  1  0  0  0  0
 36 77  2  0  0  0  0
 37 62  1  0  0  0  0
 37 73  1  0  0  0  0
 37 78  2  0  0  0  0
 38 68  1  0  0  0  0
 38 71  1  0  0  0  0
 38 79  2  0  0  0  0
 39 42  1  0  0  0  0
 40 49  1  0  0  0  0
 41 67  1  0  0  0  0
 42 44  1  0  0  0  0
 43 45  1  0  0  0  0
 43 46  1  0  0  0  0
 44 48  1  0  0  0  0
 45 50  1  0  0  0  0
 46 68  1  0  0  0  0
 47 50  1  0  0  0  0
 47 68  1  0  0  0  0
 48 72  1  0  0  0  0
 49 67  1  0  0  0  0
 50 66  1  0  0  0  0
 51 62  1  0  0  0  0
 52 63  1  0  0  0  0
 53 63  1  0  0  0  0
 54 63  1  0  0  0  0
 55 64  1  0  0  0  0
 56 64  1  0  0  0  0
 57 74  1  0  0  0  0
 58 59  1  0  0  0  0
 59 64  1  0  0  0  0
 60 64  1  0  0  0  0
 60 81  1  0  0  0  0
 61 63  1  0  0  0  0
 61 73  1  0  0  0  0
 62 74  1  0  0  0  0
 65 66  1  0  0  0  0
M  CHG  1  74   1
M  ISO  4  38 100  60 101  71 100  81 101
M  END
> <Batch ID>
0139

> <Smiles>
CNC(C)C(=O)NC(C(=O)N1Cc2cc([101O:1][101CH2:1]C(C)(C)CCc3cccc([100NH:0][100C:0](=O)N4CCCC(n5nc(-c6ccc(Oc7ccc(F)cc7F)cc6)c(C(N)=O)c5N)C4)c3)ccc2CC1C(=O)NC1CCCc2ccccc21)C(C)(C)C

> <Shape>
0.251

> <Color>
0.072

> <Negative vol penalty>
0.000

$$$$

  -OEChem-04052302483D

 89 97  0     1  0  0  0  0  0999 V2000
  -25.2580  -35.4670   22.5347 C   0  0  0  0  0  0  0  0  0  0  0  0
  -25.9259  -34.2526   22.4145 C   0  0  0  0  0  0  0  0  0  0  0  0
  -24.1044  -13.6302   21.6781 C   0  0  0  0  0  0  0  0  0  0  0  0
  -26.0794  -13.7095   20.2888 C   0  0  0  0  0  0  0  0  0  0  0  0
  -23.9607  -35.5004   23.0443 C   0  0  0  0  0  0  0  0  0  0  0  0
  -25.2971  -33.0708   22.8049 C   0  0  0  0  0  0  0  0  0  0  0  0
  -25.9197  -29.3363   19.4417 C   0  0  0  0  0  0  0  0  0  0  0  0
  -31.9229  -22.6591   22.4549 C   0  0  0  0  0  0  0  0  0  0  0  0
  -30.6963  -21.9959   22.4903 C   0  0  0  0  0  0  0  0  0  0  0  0
  -23.7351  -12.4233   21.0843 C   0  0  0  0  0  0  0  0  0  0  0  0
  -25.7102  -12.5026   19.6950 C   0  0  0  0  0  0  0  0  0  0  0  0
  -27.1473  -28.6755   19.4440 C   0  0  0  0  0  0  0  0  0  0  0  0
  -24.5890   -9.1610   21.3326 C   0  0  0  0  0  0  0  0  0  0  0  0
  -24.1522   -8.1339   22.1691 C   0  0  0  0  0  0  0  0  0  0  0  0
  -29.7505  -23.6670   21.0240 C   0  0  0  0  0  0  0  0  0  0  0  0
  -26.1670  -26.8717   20.7107 C   0  0  0  0  0  0  0  0  0  0  0  0
  -22.0231   -8.1093   21.0273 C   0  0  0  0  0  0  0  0  0  0  0  0
  -25.2765  -14.2734   21.2803 C   0  0  0  0  0  0  0  0  0  0  0  0
  -30.9771  -24.3302   20.9886 C   0  0  0  0  0  0  0  0  0  0  0  0
  -26.4573  -15.6952   23.0387 C   0  0  0  0  0  0  0  0  0  0  0  0
  -23.3121  -34.3173   23.4322 C   0  0  0  0  0  0  0  0  0  0  0  0
  -24.8074  -28.7740   20.0843 C   0  0  0  0  0  0  0  0  0  0  0  0
  -23.9903  -33.0885   23.3214 C   0  0  0  0  0  0  0  0  0  0  0  0
  -24.9258  -27.5262   20.7129 C   0  0  0  0  0  0  0  0  0  0  0  0
  -32.0633  -23.8263   21.7041 C   0  0  0  0  0  0  0  0  0  0  0  0
  -29.6101  -22.4998   21.7748 C   0  0  0  0  0  0  0  0  0  0  0  0
  -24.5380  -11.8595   20.0928 C   0  0  0  0  0  0  0  0  0  0  0  0
  -27.2719  -27.4443   20.0810 C   0  0  0  0  0  0  0  0  0  0  0  0
  -23.7428   -9.6624   20.3435 C   0  0  0  0  0  0  0  0  0  0  0  0
  -22.8693   -7.6080   22.0165 C   0  0  0  0  0  0  0  0  0  0  0  0
  -22.4599   -9.1365   20.1908 C   0  0  0  0  0  0  0  0  0  0  0  0
  -25.6581  -15.5204   21.8930 C   0  0  0  0  0  0  0  0  0  0  0  0
  -26.5223  -17.0567   23.2075 C   0  0  0  0  0  0  0  0  0  0  0  0
  -31.0980  -25.5600   20.1874 C   0  0  0  0  0  0  0  0  0  0  0  0
  -27.0847  -14.7145   23.8755 C   0  0  0  0  0  0  0  0  0  0  0  0
  -22.9411  -29.6405   22.5070 C   0  0  0  0  0  0  0  0  0  0  0  0
  -21.2489  -27.0146   21.6333 C   0  0  0  0  0  0  0  0  0  0  0  0
  -21.2157  -23.9698   20.0922 C   0  0  0  0  0  0  0  0  0  0  0  0
  -27.1862  -22.1923   21.1612 C   0  0  0  0  0  0  0  0  0  0  0  0
  -21.9269  -34.4086   24.0216 C   0  0  0  0  0  0  0  0  0  0  0  0
  -23.4834  -29.4869   20.0497 C   0  0  0  0  0  0  0  0  0  0  0  0
  -23.7569  -26.8701   21.3997 C   0  0  0  0  0  0  0  0  0  0  0  0
  -21.1930  -33.0707   24.0625 C   0  0  0  0  0  0  0  0  0  0  0  0
  -23.9229  -20.7809   20.9725 C   0  0  0  0  0  0  0  0  0  0  0  0
  -22.1056  -31.9777   24.6097 C   0  0  0  0  0  0  0  0  0  0  0  0
  -24.1492  -19.3008   21.2894 C   0  0  0  0  0  0  0  0  0  0  0  0
  -25.0706  -21.3671   20.1522 C   0  0  0  0  0  0  0  0  0  0  0  0
  -26.6348  -19.6831   21.0389 C   0  0  0  0  0  0  0  0  0  0  0  0
  -23.3327  -31.7824   23.7110 C   0  0  1  0  0  0  0  0  0  0  0  0
  -22.5470  -29.0631   21.1770 C   0  0  1  0  0  0  0  0  0  0  0  0
  -25.5361  -19.0650   21.9190 C   0  0  2  0  0  0  0  0  0  0  0  0
  -32.6137  -28.1407   19.4122 C   0  0  0  0  0  0  0  0  0  0  0  0
  -19.6960  -22.0417   19.5718 C   0  0  0  0  0  0  0  0  0  0  0  0
  -30.3595  -26.7688   22.3044 C   0  0  0  0  0  0  0  0  0  0  0  0
  -34.8154  -22.4799   21.2899 C   0  0  0  0  0  0  0  0  0  0  0  0
  -33.9879  -23.7529   19.3104 C   0  0  0  0  0  0  0  0  0  0  0  0
  -35.7769  -24.7236   20.7747 C   0  0  0  0  0  0  0  0  0  0  0  0
  -21.4647  -26.0671   24.5256 C   0  0  0  0  0  0  0  0  0  0  0  0
  -20.7976  -23.7809   23.7532 C   0  0  0  0  0  0  0  0  0  0  0  0
  -19.2271  -25.6984   23.4712 C   0  0  0  0  0  0  0  0  0  0  0  0
  -21.5501  -24.3429   17.1754 C   0  0  0  0  0  0  0  0  0  0  0  0
  -33.3881  -24.5167   21.6836 C   0  0  0  0  0  0  0  0  0  0  0  0
  -32.0595  -27.8342   20.7991 C   0  0  0  0  0  0  0  0  0  0  0  0
  -29.6443  -27.6060   20.0476 C   0  0  0  0  0  0  0  0  0  1  0  0
  -21.2797  -25.5511   22.0026 C   0  0  1  0  0  0  0  0  0  0  0  0
  -20.2618  -23.3643   19.0783 C   0  0  2  0  0  0  0  0  0  0  0  0
  -30.7976  -26.9330   20.8330 C   0  0  1  0  0  0  0  0  0  0  0  0
  -34.4830  -23.8911   20.7605 C   0  0  0  0  0  0  0  0  0  0  0  0
  -20.7150  -25.2874   23.4270 C   0  0  0  0  0  0  0  0  0  0  0  0
  -25.2450  -16.6783   21.3709 N   0  0  0  0  0  0  0  0  0  0  0  0
  -25.7866  -17.5937   22.1924 N   0  0  0  0  0  0  0  0  0  0  0  0
  -22.4850  -27.6096   21.3440 N   0  0  0  0  0  0  0  0  0  0  0  0
  -26.3524  -21.1091   20.8119 N   0  0  0  0  0  0  0  0  0  0  0  0
  -27.1364  -17.8350   24.1238 N   0  0  0  0  0  0  0  0  0  0  0  0
  -26.9158  -13.3596   23.5591 N   0  0  0  0  0  0  0  0  0  0  0  0
  -28.3637  -21.8269   21.8127 N   0  0  0  0  0  0  0  0  0  0  0  0
  -22.9794  -31.0215   22.5317 N   0  0  0  0  0  0  0  0  0  0  0  0
  -20.5717  -24.8468   20.9391 N   0  0  0  0  0  0  0  0  0  0  0  0
  -20.9642  -23.1222   17.7865 N   0  3  0  0  0  0  0  0  0  0  0  0
  -31.4650  -25.4233   19.0220 O   0  0  0  0  0  0  0  0  0  0  0  0
  -27.7613  -15.0298   24.8837 O   0  0  0  0  0  0  0  0  0  0  0  0
  -23.1904  -28.8887   23.4421 O   0  0  0  0  0  0  0  0  0  0  0  0
  -20.1671  -27.6061   21.5957 O   0  0  0  0  0  0  0  0  0  0  0  0
  -22.4118  -23.6897   20.1314 O   0  0  0  0  0  0  0  0  0  0  0  0
  -26.8657  -23.3602   20.9258 O   0  0  0  0  0  0  0  0  0  0  0  0
  -24.1782  -10.6817   19.5133 O   0  0  0  0  0  0  0  0  0  0  0  0
  -28.4691  -26.7974   20.0854 O   0  0  0  0  0  0  0  0  0  1  0  0
  -22.4506   -6.6206   22.8189 F   0  0  0  0  0  0  0  0  0  0  0  0
  -21.6429   -9.6133   19.2416 F   0  0  0  0  0  0  0  0  0  0  0  0
  1  2  1  0  0  0  0
  1  5  2  0  0  0  0
  2  6  2  0  0  0  0
  3 10  2  0  0  0  0
  3 18  1  0  0  0  0
  4 11  1  0  0  0  0
  4 18  2  0  0  0  0
  5 21  1  0  0  0  0
  6 23  1  0  0  0  0
  7 12  2  0  0  0  0
  7 22  1  0  0  0  0
  8  9  2  0  0  0  0
  8 25  1  0  0  0  0
  9 26  1  0  0  0  0
 10 27  1  0  0  0  0
 11 27  2  0  0  0  0
 12 28  1  0  0  0  0
 13 14  2  0  0  0  0
 13 29  1  0  0  0  0
 14 30  1  0  0  0  0
 15 19  1  0  0  0  0
 15 26  2  0  0  0  0
 16 24  1  0  0  0  0
 16 28  2  0  0  0  0
 17 30  2  0  0  0  0
 17 31  1  0  0  0  0
 18 32  1  0  0  0  0
 19 25  2  0  0  0  0
 19 34  1  0  0  0  0
 20 32  1  0  0  0  0
 20 33  2  0  0  0  0
 20 35  1  0  0  0  0
 21 23  2  0  0  0  0
 21 40  1  0  0  0  0
 22 24  2  0  0  0  0
 22 41  1  0  0  0  0
 23 49  1  0  0  0  0
 24 42  1  0  0  0  0
 25 62  1  0  0  0  0
 26 76  1  0  0  0  0
 27 86  1  0  0  0  0
 28 87  1  0  0  0  0
 29 31  2  0  0  0  0
 29 86  1  0  0  0  0
 30 88  1  0  0  0  0
 31 89  1  0  0  0  0
 32 70  2  0  0  0  0
 33 71  1  0  0  0  0
 33 74  1  0  0  0  0
 34 67  1  0  0  0  0
 34 80  2  0  0  0  0
 35 75  1  0  0  0  0
 35 81  2  0  0  0  0
 36 50  1  0  0  0  0
 36 77  1  0  0  0  0
 36 82  2  0  0  0  0
 37 65  1  0  0  0  0
 37 72  1  0  0  0  0
 37 83  2  0  0  0  0
 38 66  1  0  0  0  0
 38 78  1  0  0  0  0
 38 84  2  0  0  0  0
 39 73  1  0  0  0  0
 39 76  1  0  0  0  0
 39 85  2  0  0  0  0
 40 43  1  0  0  0  0
 41 50  1  0  0  0  0
 42 72  1  0  0  0  0
 43 45  1  0  0  0  0
 44 46  1  0  0  0  0
 44 47  1  0  0  0  0
 45 49  1  0  0  0  0
 46 51  1  0  0  0  0
 47 73  1  0  0  0  0
 48 51  1  0  0  0  0
 48 73  1  0  0  0  0
 49 77  1  0  0  0  0
 50 72  1  0  0  0  0
 51 71  1  0  0  0  0
 52 63  1  0  0  0  0
 53 66  1  0  0  0  0
 54 67  1  0  0  0  0
 55 68  1  0  0  0  0
 56 68  1  0  0  0  0
 57 68  1  0  0  0  0
 58 69  1  0  0  0  0
 59 69  1  0  0  0  0
 60 69  1  0  0  0  0
 61 79  1  0  0  0  0
 62 68  1  0  0  0  0
 63 67  1  0  0  0  0
 64 67  1  0  0  0  0
 64 87  1  0  0  0  0
 65 69  1  0  0  0  0
 65 78  1  0  0  0  0
 66 79  1  0  0  0  0
 70 71  1  0  0  0  0
M  CHG  1  79   1
M  ISO  4  39 100  64 101  76 100  87 101
M  END
> <Batch ID>
0139

> <Smiles>
CCC(C)(C(=O)c1cc([100NH:0][100C:0](=O)N2CCCC(n3nc(-c4ccc(Oc5ccc(F)cc5F)cc4)c(C(N)=O)c3N)C2)ccc1CC(C)(C)C)[101CH2:1][101O:1]c1ccc2c(c1)CN(C(=O)C(NC(=O)C(C)NC)C(C)(C)C)C(C(=O)NC1CCCc3ccccc31)C2

> <Shape>
0.236

> <Color>
0.092

> <Negative vol penalty>
0.000

$$$$

  -OEChem-04052302483D

 85 93  0     1  0  0  0  0  0999 V2000
  -27.8258  -17.3959   26.4317 C   0  0  0  0  0  0  0  0  0  0  0  0
  -28.3392  -18.5752   25.9016 C   0  0  0  0  0  0  0  0  0  0  0  0
  -26.4401  -12.8415   20.9794 C   0  0  0  0  0  0  0  0  0  0  0  0
  -24.8651  -14.4205   20.0504 C   0  0  0  0  0  0  0  0  0  0  0  0
  -26.5730  -16.9379   26.0261 C   0  0  0  0  0  0  0  0  0  0  0  0
  -27.6003  -19.2967   24.9646 C   0  0  0  0  0  0  0  0  0  0  0  0
  -27.4068  -25.3845   24.3262 C   0  0  0  0  0  0  0  0  0  0  0  0
  -25.3826  -12.0458   21.4199 C   0  0  0  0  0  0  0  0  0  0  0  0
  -23.8075  -13.6248   20.4908 C   0  0  0  0  0  0  0  0  0  0  0  0
  -28.0623  -26.2581   23.4597 C   0  0  0  0  0  0  0  0  0  0  0  0
  -23.1025   -9.4176   22.4728 C   0  0  0  0  0  0  0  0  0  0  0  0
  -23.1920   -8.0424   22.2574 C   0  0  0  0  0  0  0  0  0  0  0  0
  -27.5357  -24.5412   18.5825 C   0  0  0  0  0  0  0  0  0  0  0  0
  -28.9462  -23.2732   20.0791 C   0  0  0  0  0  0  0  0  0  0  0  0
  -26.7560  -22.4417   19.4888 C   0  0  0  0  0  0  0  0  0  0  0  0
  -26.1499  -26.2253   21.9897 C   0  0  0  0  0  0  0  0  0  0  0  0
  -23.3216   -8.4241   19.8752 C   0  0  0  0  0  0  0  0  0  0  0  0
  -26.1814  -14.0289   20.2947 C   0  0  0  0  0  0  0  0  0  0  0  0
  -28.7360  -24.3957   19.2782 C   0  0  0  0  0  0  0  0  0  0  0  0
  -26.5457  -23.5642   18.6879 C   0  0  0  0  0  0  0  0  0  0  0  0
  -27.9327  -14.7789   18.5982 C   0  0  0  0  0  0  0  0  0  0  0  0
  -25.8142  -17.6592   25.0908 C   0  0  0  0  0  0  0  0  0  0  0  0
  -26.1200  -24.9154   24.0251 C   0  0  0  0  0  0  0  0  0  0  0  0
  -26.3367  -18.8473   24.5450 C   0  0  0  0  0  0  0  0  0  0  0  0
  -25.4792  -25.3479   22.8553 C   0  0  0  0  0  0  0  0  0  0  0  0
  -27.9562  -22.2962   20.1844 C   0  0  0  0  0  0  0  0  0  0  0  0
  -24.0663  -12.4374   21.1756 C   0  0  0  0  0  0  0  0  0  0  0  0
  -27.4350  -26.6764   22.2898 C   0  0  0  0  0  0  0  0  0  0  0  0
  -23.1223  -10.2961   21.3895 C   0  0  0  0  0  0  0  0  0  0  0  0
  -23.3016   -7.5457   20.9586 C   0  0  0  0  0  0  0  0  0  0  0  0
  -23.2319   -9.7993   20.0907 C   0  0  0  0  0  0  0  0  0  0  0  0
  -27.2734  -14.8516   19.8399 C   0  0  0  0  0  0  0  0  0  0  0  0
  -28.8861  -15.7659   18.6573 C   0  0  0  0  0  0  0  0  0  0  0  0
  -29.7963  -25.4426   19.1650 C   0  0  0  0  0  0  0  0  0  0  0  0
  -25.2943  -23.7162   17.9627 C   0  0  0  0  0  0  0  0  0  0  0  0
  -27.7038  -13.8981   17.4903 C   0  0  0  0  0  0  0  0  0  0  0  0
  -24.8466  -22.0551   23.4765 C   0  0  0  0  0  0  0  0  0  0  0  0
  -22.0673  -23.7277   23.4573 C   0  0  0  0  0  0  0  0  0  0  0  0
  -20.9026  -26.8846   22.1552 C   0  0  0  0  0  0  0  0  0  0  0  0
  -29.3027  -20.8586   21.7550 C   0  0  0  0  0  0  0  0  0  0  0  0
  -24.4856  -17.0998   24.6476 C   0  0  0  0  0  0  0  0  0  0  0  0
  -25.4158  -23.9945   24.9835 C   0  0  0  0  0  0  0  0  0  0  0  0
  -24.0902  -24.8895   22.4962 C   0  0  0  0  0  0  0  0  0  0  0  0
  -23.6041  -18.1192   23.9306 C   0  0  0  0  0  0  0  0  0  0  0  0
  -31.6163  -18.1525   21.7853 C   0  0  0  0  0  0  0  0  0  0  0  0
  -24.4130  -18.8852   22.8886 C   0  0  0  0  0  0  0  0  0  0  0  0
  -30.8272  -16.9939   21.1713 C   0  0  0  0  0  0  0  0  0  0  0  0
  -30.7328  -19.0395   22.6607 C   0  0  0  0  0  0  0  0  0  0  0  0
  -28.7247  -18.3782   21.3961 C   0  0  0  0  0  0  0  0  0  0  0  0
  -25.5547  -19.6709   23.5449 C   0  0  1  0  0  0  0  0  0  0  0  0
  -24.3113  -23.1755   24.3227 C   0  0  1  0  0  0  0  0  0  0  0  0
  -29.5580  -17.4942   20.4539 C   0  0  2  0  0  0  0  0  0  0  0  0
  -24.8075  -25.1125   17.7047 C   0  0  0  0  0  0  0  0  0  0  0  0
  -19.0556  -28.3914   22.9397 C   0  0  0  0  0  0  0  0  0  0  0  0
  -20.3682  -22.2281   21.4142 C   0  0  0  0  0  0  0  0  0  0  0  0
  -19.2398  -24.3948   20.8659 C   0  0  0  0  0  0  0  0  0  0  0  0
  -19.0618  -23.4448   23.1656 C   0  0  0  0  0  0  0  0  0  0  0  0
  -22.7299  -29.2022   22.3756 C   0  0  0  0  0  0  0  0  0  0  0  0
  -29.4270  -26.8989   18.9152 C   0  0  0  0  0  0  0  0  0  0  0  0
  -29.9640  -27.8322   19.9976 C   0  0  0  0  0  0  0  0  0  0  0  0
  -29.4974  -27.4564   21.3987 C   0  0  0  0  0  0  0  0  0  1  0  0
  -21.2564  -24.4416   22.4028 C   0  0  1  0  0  0  0  0  0  0  0  0
  -20.5528  -28.1250   22.9573 C   0  0  2  0  0  0  0  0  0  0  0  0
  -20.0098  -23.6248   21.9599 C   0  0  0  0  0  0  0  0  0  0  0  0
  -27.7663  -15.8090   20.6302 N   0  0  0  0  0  0  0  0  0  0  0  0
  -31.0458  -25.1179   19.2819 N   0  0  0  0  0  0  0  0  0  0  0  0
  -28.7455  -16.3469   19.8833 N   0  0  0  0  0  0  0  0  0  0  0  0
  -23.4456  -23.9845   23.4622 N   0  0  0  0  0  0  0  0  0  0  0  0
  -29.5524  -19.4790   21.9135 N   0  0  0  0  0  0  0  0  0  0  0  0
  -29.8225  -16.1847   17.7798 N   0  0  0  0  0  0  0  0  0  0  0  0
  -26.6842  -12.9423   17.5963 N   0  0  0  0  0  0  0  0  0  0  0  0
  -28.1697  -21.1563   20.9985 N   0  0  0  0  0  0  0  0  0  0  0  0
  -25.0473  -20.8751   24.1669 N   0  0  0  0  0  0  0  0  0  0  0  0
  -20.9450  -25.7580   22.9492 N   0  0  0  0  0  0  0  0  0  0  0  0
  -21.2490  -29.3176   22.3970 N   0  3  0  0  0  0  0  0  0  0  0  0
  -24.6006  -22.7853   17.5479 O   0  0  0  0  0  0  0  0  0  0  0  0
  -28.3941  -13.9460   16.4440 O   0  0  0  0  0  0  0  0  0  0  0  0
  -25.0601  -22.2467   22.2851 O   0  0  0  0  0  0  0  0  0  0  0  0
  -21.4976  -22.9757   24.2520 O   0  0  0  0  0  0  0  0  0  0  0  0
  -21.1133  -26.9116   20.9446 O   0  0  0  0  0  0  0  0  0  0  0  0
  -30.0547  -21.7131   22.2307 O   0  0  0  0  0  0  0  0  0  0  0  0
  -23.0341  -11.6611   21.6051 O   0  0  0  0  0  0  0  0  0  0  0  0
  -28.0729  -27.5285   21.4419 O   0  0  0  0  0  0  0  0  0  1  0  0
  -23.3892   -6.2251   20.7519 F   0  0  0  0  0  0  0  0  0  0  0  0
  -23.2528  -10.6384   19.0460 F   0  0  0  0  0  0  0  0  0  0  0  0
  1  2  1  0  0  0  0
  1  5  2  0  0  0  0
  2  6  2  0  0  0  0
  3  8  2  0  0  0  0
  3 18  1  0  0  0  0
  4  9  1  0  0  0  0
  4 18  2  0  0  0  0
  5 22  1  0  0  0  0
  6 24  1  0  0  0  0
  7 10  2  0  0  0  0
  7 23  1  0  0  0  0
  8 27  1  0  0  0  0
  9 27  2  0  0  0  0
 10 28  1  0  0  0  0
 11 12  2  0  0  0  0
 11 29  1  0  0  0  0
 12 30  1  0  0  0  0
 13 19  2  0  0  0  0
 13 20  1  0  0  0  0
 14 19  1  0  0  0  0
 14 26  2  0  0  0  0
 15 20  2  0  0  0  0
 15 26  1  0  0  0  0
 16 25  1  0  0  0  0
 16 28  2  0  0  0  0
 17 30  2  0  0  0  0
 17 31  1  0  0  0  0
 18 32  1  0  0  0  0
 19 34  1  0  0  0  0
 20 35  1  0  0  0  0
 21 32  1  0  0  0  0
 21 33  2  0  0  0  0
 21 36  1  0  0  0  0
 22 24  2  0  0  0  0
 22 41  1  0  0  0  0
 23 25  2  0  0  0  0
 23 42  1  0  0  0  0
 24 50  1  0  0  0  0
 25 43  1  0  0  0  0
 26 72  1  0  0  0  0
 27 82  1  0  0  0  0
 28 83  1  0  0  0  0
 29 31  2  0  0  0  0
 29 82  1  0  0  0  0
 30 84  1  0  0  0  0
 31 85  1  0  0  0  0
 32 65  2  0  0  0  0
 33 67  1  0  0  0  0
 33 70  1  0  0  0  0
 34 59  1  0  0  0  0
 34 66  2  0  0  0  0
 35 53  1  0  0  0  0
 35 76  2  0  0  0  0
 36 71  1  0  0  0  0
 36 77  2  0  0  0  0
 37 51  1  0  0  0  0
 37 73  1  0  0  0  0
 37 78  2  0  0  0  0
 38 62  1  0  0  0  0
 38 68  1  0  0  0  0
 38 79  2  0  0  0  0
 39 63  1  0  0  0  0
 39 74  1  0  0  0  0
 39 80  2  0  0  0  0
 40 69  1  0  0  0  0
 40 72  1  0  0  0  0
 40 81  2  0  0  0  0
 41 44  1  0  0  0  0
 42 51  1  0  0  0  0
 43 68  1  0  0  0  0
 44 46  1  0  0  0  0
 45 47  1  0  0  0  0
 45 48  1  0  0  0  0
 46 50  1  0  0  0  0
 47 52  1  0  0  0  0
 48 69  1  0  0  0  0
 49 52  1  0  0  0  0
 49 69  1  0  0  0  0
 50 73  1  0  0  0  0
 51 68  1  0  0  0  0
 52 67  1  0  0  0  0
 54 63  1  0  0  0  0
 55 64  1  0  0  0  0
 56 64  1  0  0  0  0
 57 64  1  0  0  0  0
 58 75  1  0  0  0  0
 59 60  1  0  0  0  0
 60 61  1  0  0  0  0
 61 83  1  0  0  0  0
 62 64  1  0  0  0  0
 62 74  1  0  0  0  0
 63 75  1  0  0  0  0
 65 67  1  0  0  0  0
M  CHG  1  75   1
M  ISO  4  40 100  61 101  72 100  83 101
M  END
> <Batch ID>
0139

> <Smiles>
CNC(C)C(=O)NC(C(=O)N1Cc2cc([101O:1][101CH2:1]CCC(=N)c3cc([100NH:0][100C:0](=O)N4CCCC(n5nc(-c6ccc(Oc7ccc(F)cc7F)cc6)c(C(N)=O)c5N)C4)cc(C(C)=O)c3)ccc2CC1C(=O)NC1CCCc2ccccc21)C(C)(C)C

> <Shape>
0.214

> <Color>
0.066

> <Negative vol penalty>
0.000

$$$$

  -OEChem-04052302483D

 85 93  0     1  0  0  0  0  0999 V2000
  -30.6418  -24.6997   17.0532 C   0  0  0  0  0  0  0  0  0  0  0  0
  -29.4656  -24.5623   17.7834 C   0  0  0  0  0  0  0  0  0  0  0  0
  -25.6103  -14.7723   19.7160 C   0  0  0  0  0  0  0  0  0  0  0  0
  -23.5411  -14.5102   20.9354 C   0  0  0  0  0  0  0  0  0  0  0  0
  -31.6087  -25.6190   17.4579 C   0  0  0  0  0  0  0  0  0  0  0  0
  -29.2562  -25.3434   18.9194 C   0  0  0  0  0  0  0  0  0  0  0  0
  -24.5872  -27.2961   19.1007 C   0  0  0  0  0  0  0  0  0  0  0  0
  -18.4471  -22.8974   24.8647 C   0  0  0  0  0  0  0  0  0  0  0  0
  -25.9664  -13.4629   20.0388 C   0  0  0  0  0  0  0  0  0  0  0  0
  -23.8972  -13.2008   21.2581 C   0  0  0  0  0  0  0  0  0  0  0  0
  -23.5572  -26.4471   19.5034 C   0  0  0  0  0  0  0  0  0  0  0  0
  -24.0976   -9.6697   22.1003 C   0  0  0  0  0  0  0  0  0  0  0  0
  -18.6455  -21.5170   24.8409 C   0  0  0  0  0  0  0  0  0  0  0  0
  -23.1237   -8.6802   21.9662 C   0  0  0  0  0  0  0  0  0  0  0  0
  -23.6432  -27.4026   21.7167 C   0  0  0  0  0  0  0  0  0  0  0  0
  -20.7618  -23.2405   24.2635 C   0  0  0  0  0  0  0  0  0  0  0  0
  -22.9333   -9.1867   19.6116 C   0  0  0  0  0  0  0  0  0  0  0  0
  -24.3977  -15.2960   20.1644 C   0  0  0  0  0  0  0  0  0  0  0  0
  -23.3089  -17.0804   18.7021 C   0  0  0  0  0  0  0  0  0  0  0  0
  -31.4069  -26.4187   18.5939 C   0  0  0  0  0  0  0  0  0  0  0  0
  -25.1613  -28.1986   20.0075 C   0  0  0  0  0  0  0  0  0  0  0  0
  -30.2219  -26.2734   19.3404 C   0  0  0  0  0  0  0  0  0  0  0  0
  -24.6786  -28.2637   21.3223 C   0  0  0  0  0  0  0  0  0  0  0  0
  -19.5052  -23.7592   24.5759 C   0  0  0  0  0  0  0  0  0  0  0  0
  -20.9602  -21.8600   24.2397 C   0  0  0  0  0  0  0  0  0  0  0  0
  -25.1098  -12.6771   20.8098 C   0  0  0  0  0  0  0  0  0  0  0  0
  -23.0870  -26.4983   20.8123 C   0  0  0  0  0  0  0  0  0  0  0  0
  -24.4893  -10.4178   20.9901 C   0  0  0  0  0  0  0  0  0  0  0  0
  -22.5415   -8.4387   20.7219 C   0  0  0  0  0  0  0  0  0  0  0  0
  -19.9020  -20.9983   24.5284 C   0  0  0  0  0  0  0  0  0  0  0  0
  -23.9072  -10.1762   19.7457 C   0  0  0  0  0  0  0  0  0  0  0  0
  -24.0295  -16.6488   19.8318 C   0  0  0  0  0  0  0  0  0  0  0  0
  -23.2225  -18.4432   18.8500 C   0  0  0  0  0  0  0  0  0  0  0  0
  -22.7661  -16.3176   17.6161 C   0  0  0  0  0  0  0  0  0  0  0  0
  -28.0691  -28.6135   21.2224 C   0  0  0  0  0  0  0  0  0  0  0  0
  -26.7245  -31.2654   22.5192 C   0  0  0  0  0  0  0  0  0  0  0  0
  -23.8946  -32.8701   23.5506 C   0  0  0  0  0  0  0  0  0  0  0  0
  -23.3919  -22.0515   23.6098 C   0  0  0  0  0  0  0  0  0  0  0  0
  -32.5015  -27.3650   19.0194 C   0  0  0  0  0  0  0  0  0  0  0  0
  -26.2535  -29.1262   19.5502 C   0  0  0  0  0  0  0  0  0  0  0  0
  -25.2473  -29.2290   22.3290 C   0  0  0  0  0  0  0  0  0  0  0  0
  -32.0390  -28.4206   20.0204 C   0  0  0  0  0  0  0  0  0  0  0  0
  -25.5514  -22.1555   20.7809 C   0  0  0  0  0  0  0  0  0  0  0  0
  -31.2118  -27.7784   21.1295 C   0  0  0  0  0  0  0  0  0  0  0  0
  -25.3361  -20.7968   20.1103 C   0  0  0  0  0  0  0  0  0  0  0  0
  -25.5062  -22.0496   22.3042 C   0  0  0  0  0  0  0  0  0  0  0  0
  -24.0936  -20.0354   22.1751 C   0  0  0  0  0  0  0  0  0  0  0  0
  -29.9474  -27.1203   20.5641 C   0  0  1  0  0  0  0  0  0  0  0  0
  -27.1139  -29.6475   20.6971 C   0  0  1  0  0  0  0  0  0  0  0  0
  -24.0660  -20.1022   20.6394 C   0  0  2  0  0  0  0  0  0  0  0  0
  -23.1167  -35.0112   24.6030 C   0  0  0  0  0  0  0  0  0  0  0  0
  -19.2117  -26.0509   20.7098 C   0  0  0  0  0  0  0  0  0  0  0  0
  -27.7186  -30.2894   25.2339 C   0  0  0  0  0  0  0  0  0  0  0  0
  -26.1400  -31.9045   26.3146 C   0  0  0  0  0  0  0  0  0  0  0  0
  -27.9757  -32.7474   24.8509 C   0  0  0  0  0  0  0  0  0  0  0  0
  -18.6773  -27.4160   23.4807 C   0  0  0  0  0  0  0  0  0  0  0  0
  -22.2469  -33.5658   21.1927 C   0  0  0  0  0  0  0  0  0  0  0  0
  -19.2894  -25.2568   24.6026 C   0  0  0  0  0  0  0  0  0  0  0  0
  -21.2153  -26.1467   22.2367 C   0  0  0  0  0  0  0  0  0  1  0  0
  -25.9953  -31.5749   23.8043 C   0  0  1  0  0  0  0  0  0  0  0  0
  -23.3863  -34.2780   23.2982 C   0  0  2  0  0  0  0  0  0  0  0  0
  -19.7942  -25.5838   22.0587 C   0  0  1  0  0  0  0  0  0  0  0  0
  -26.9478  -31.6094   25.0327 C   0  0  0  0  0  0  0  0  0  0  0  0
  -18.8448  -25.9024   23.2589 C   0  0  2  0  0  0  0  0  0  0  0  0
  -24.3764  -17.6558   20.6378 N   0  0  0  0  0  0  0  0  0  0  0  0
  -23.8716  -18.7337   20.0138 N   0  0  0  0  0  0  0  0  0  0  0  0
  -26.3179  -30.1109   21.8354 N   0  0  0  0  0  0  0  0  0  0  0  0
  -24.2734  -21.3851   22.7326 N   0  0  0  0  0  0  0  0  0  0  0  0
  -22.6554  -19.4093   18.0968 N   0  0  0  0  0  0  0  0  0  0  0  0
  -22.9457  -14.9277   17.6205 N   0  0  0  0  0  0  0  0  0  0  0  0
  -22.2371  -21.3346   23.9213 N   0  0  0  0  0  0  0  0  0  0  0  0
  -28.9437  -28.1214   20.2725 N   0  0  0  0  0  0  0  0  0  0  0  0
  -25.2724  -32.8210   23.5735 N   0  0  0  0  0  0  0  0  0  0  0  0
  -22.1214  -34.2387   22.5112 N   0  3  0  0  0  0  0  0  0  0  0  0
  -22.1546  -16.8546   16.6615 O   0  0  0  0  0  0  0  0  0  0  0  0
  -28.0176  -28.2875   22.4026 O   0  0  0  0  0  0  0  0  0  0  0  0
  -27.6171  -32.0240   22.1326 O   0  0  0  0  0  0  0  0  0  0  0  0
  -23.1445  -31.9105   23.7149 O   0  0  0  0  0  0  0  0  0  0  0  0
  -23.6299  -23.1866   24.0305 O   0  0  0  0  0  0  0  0  0  0  0  0
  -17.5420  -25.3922   22.9354 O   0  0  0  0  0  0  0  0  0  0  0  0
  -25.4569  -11.3992   21.1247 O   0  0  0  0  0  0  0  0  0  0  0  0
  -22.0822  -25.6703   21.2082 O   0  0  0  0  0  0  0  0  0  1  0  0
  -21.6074   -7.4874   20.5929 F   0  0  0  0  0  0  0  0  0  0  0  0
  -20.0812  -19.6698   24.5092 F   0  0  0  0  0  0  0  0  0  0  0  0
  -24.2803  -10.8909   18.6753 F   0  0  0  0  0  0  0  0  0  0  0  0
  1  2  1  0  0  0  0
  1  5  2  0  0  0  0
  2  6  2  0  0  0  0
  3  9  2  0  0  0  0
  3 18  1  0  0  0  0
  4 10  1  0  0  0  0
  4 18  2  0  0  0  0
  5 20  1  0  0  0  0
  6 22  1  0  0  0  0
  7 11  2  0  0  0  0
  7 21  1  0  0  0  0
  8 13  2  0  0  0  0
  8 24  1  0  0  0  0
  9 26  1  0  0  0  0
 10 26  2  0  0  0  0
 11 27  1  0  0  0  0
 12 14  2  0  0  0  0
 12 28  1  0  0  0  0
 13 30  1  0  0  0  0
 14 29  1  0  0  0  0
 15 23  1  0  0  0  0
 15 27  2  0  0  0  0
 16 24  2  0  0  0  0
 16 25  1  0  0  0  0
 17 29  2  0  0  0  0
 17 31  1  0  0  0  0
 18 32  1  0  0  0  0
 19 32  1  0  0  0  0
 19 33  2  0  0  0  0
 19 34  1  0  0  0  0
 20 22  2  0  0  0  0
 20 39  1  0  0  0  0
 21 23  2  0  0  0  0
 21 40  1  0  0  0  0
 22 48  1  0  0  0  0
 23 41  1  0  0  0  0
 24 58  1  0  0  0  0
 25 30  2  0  0  0  0
 25 71  1  0  0  0  0
 26 81  1  0  0  0  0
 27 82  1  0  0  0  0
 28 31  2  0  0  0  0
 28 81  1  0  0  0  0
 29 83  1  0  0  0  0
 30 84  1  0  0  0  0
 31 85  1  0  0  0  0
 32 65  2  0  0  0  0
 33 66  1  0  0  0  0
 33 69  1  0  0  0  0
 34 70  1  0  0  0  0
 34 75  2  0  0  0  0
 35 49  1  0  0  0  0
 35 72  1  0  0  0  0
 35 76  2  0  0  0  0
 36 60  1  0  0  0  0
 36 67  1  0  0  0  0
 36 77  2  0  0  0  0
 37 61  1  0  0  0  0
 37 73  1  0  0  0  0
 37 78  2  0  0  0  0
 38 68  1  0  0  0  0
 38 71  1  0  0  0  0
 38 79  2  0  0  0  0
 39 42  1  0  0  0  0
 40 49  1  0  0  0  0
 41 67  1  0  0  0  0
 42 44  1  0  0  0  0
 43 45  1  0  0  0  0
 43 46  1  0  0  0  0
 44 48  1  0  0  0  0
 45 50  1  0  0  0  0
 46 68  1  0  0  0  0
 47 50  1  0  0  0  0
 47 68  1  0  0  0  0
 48 72  1  0  0  0  0
 49 67  1  0  0  0  0
 50 66  1  0  0  0  0
 51 61  1  0  0  0  0
 52 62  1  0  0  0  0
 53 63  1  0  0  0  0
 54 63  1  0  0  0  0
 55 63  1  0  0  0  0
 56 64  1  0  0  0  0
 57 74  1  0  0  0  0
 58 64  1  0  0  0  0
 59 62  1  0  0  0  0
 59 82  1  0  0  0  0
 60 63  1  0  0  0  0
 60 73  1  0  0  0  0
 61 74  1  0  0  0  0
 62 64  1  0  0  0  0
 64 80  1  0  0  0  0
 65 66  1  0  0  0  0
M  CHG  1  74   1
M  ISO  4  38 100  59 101  71 100  82 101
M  END
> <Batch ID>
0139

> <Smiles>
CNC(C)C(=O)NC(C(=O)N1Cc2cc([101O:1][101CH2:1]C(C)C(C)(O)Cc3ccc(F)c([100NH:0][100C:0](=O)N4CCCC(n5nc(-c6ccc(Oc7ccc(F)cc7F)cc6)c(C(N)=O)c5N)C4)c3)ccc2CC1C(=O)NC1CCCc2ccccc21)C(C)(C)C

> <Shape>
0.254

> <Color>
0.065

> <Negative vol penalty>
0.000

$$$$

  -OEChem-04052302483D

 84 92  0     1  0  0  0  0  0999 V2000
  -22.4802   -8.2967   21.1264 C   0  0  0  0  0  0  0  0  0  0  0  0
  -23.7800   -8.6374   20.7663 C   0  0  0  0  0  0  0  0  0  0  0  0
  -25.1630  -31.3344   22.0051 C   0  0  0  0  0  0  0  0  0  0  0  0
  -27.2764  -31.4944   20.8452 C   0  0  0  0  0  0  0  0  0  0  0  0
  -21.5469   -9.2976   21.3932 C   0  0  0  0  0  0  0  0  0  0  0  0
  -24.1472   -9.9793   20.6717 C   0  0  0  0  0  0  0  0  0  0  0  0
  -29.5977  -12.4105   22.0453 C   0  0  0  0  0  0  0  0  0  0  0  0
  -25.2286  -32.6935   22.3119 C   0  0  0  0  0  0  0  0  0  0  0  0
  -27.3419  -32.8535   21.1520 C   0  0  0  0  0  0  0  0  0  0  0  0
  -30.6899  -12.7700   21.2569 C   0  0  0  0  0  0  0  0  0  0  0  0
  -26.8172  -34.6678   24.5486 C   0  0  0  0  0  0  0  0  0  0  0  0
  -26.5058  -35.0528   25.8526 C   0  0  0  0  0  0  0  0  0  0  0  0
  -29.4347  -20.6916   17.3313 C   0  0  0  0  0  0  0  0  0  0  0  0
  -29.0549  -22.0072   17.6894 C   0  0  0  0  0  0  0  0  0  0  0  0
  -29.8925  -15.0460   21.2005 C   0  0  0  0  0  0  0  0  0  0  0  0
  -24.7042  -36.4282   25.0162 C   0  0  0  0  0  0  0  0  0  0  0  0
  -26.1870  -30.7348   21.2717 C   0  0  0  0  0  0  0  0  0  0  0  0
  -25.5393  -28.7432   19.8152 C   0  0  0  0  0  0  0  0  0  0  0  0
  -21.9054  -10.6524   21.3113 C   0  0  0  0  0  0  0  0  0  0  0  0
  -28.6372  -13.3654   22.4087 C   0  0  0  0  0  0  0  0  0  0  0  0
  -23.2175  -10.9993   20.9364 C   0  0  0  0  0  0  0  0  0  0  0  0
  -28.7903  -14.6966   21.9957 C   0  0  0  0  0  0  0  0  0  0  0  0
  -26.3180  -33.4530   21.8854 C   0  0  0  0  0  0  0  0  0  0  0  0
  -30.8359  -14.0873   20.8320 C   0  0  0  0  0  0  0  0  0  0  0  0
  -26.0722  -35.1631   23.4784 C   0  0  0  0  0  0  0  0  0  0  0  0
  -25.4493  -35.9329   26.0864 C   0  0  0  0  0  0  0  0  0  0  0  0
  -25.0157  -36.0433   23.7122 C   0  0  0  0  0  0  0  0  0  0  0  0
  -26.1201  -29.3308   20.9550 C   0  0  0  0  0  0  0  0  0  0  0  0
  -29.7158  -20.0409   18.5101 C   0  0  0  0  0  0  0  0  0  0  0  0
  -25.7360  -27.3947   19.9860 C   0  0  0  0  0  0  0  0  0  0  0  0
  -29.1307  -22.0665   19.0616 C   0  0  0  0  0  0  0  0  0  0  0  0
  -24.8808  -29.3611   18.7015 C   0  0  0  0  0  0  0  0  0  0  0  0
  -25.5230  -13.7267   21.8842 C   0  0  0  0  0  0  0  0  0  0  0  0
  -25.8641  -16.2206   23.9303 C   0  0  0  0  0  0  0  0  0  0  0  0
  -27.9218  -18.5464   25.3456 C   0  0  0  0  0  0  0  0  0  0  0  0
  -28.9765  -23.0809   21.3623 C   0  0  0  0  0  0  0  0  0  0  0  0
  -20.8493  -11.6993   21.5628 C   0  0  0  0  0  0  0  0  0  0  0  0
  -27.4790  -12.9672   23.2818 C   0  0  0  0  0  0  0  0  0  0  0  0
  -27.7979  -15.7639   22.3756 C   0  0  0  0  0  0  0  0  0  0  0  0
  -21.4199  -13.0943   21.8049 C   0  0  0  0  0  0  0  0  0  0  0  0
  -27.3272  -24.7829   24.0194 C   0  0  0  0  0  0  0  0  0  0  0  0
  -22.4844  -13.4238   20.7631 C   0  0  0  0  0  0  0  0  0  0  0  0
  -26.8183  -26.0695   23.3653 C   0  0  0  0  0  0  0  0  0  0  0  0
  -28.6903  -24.3675   23.4690 C   0  0  0  0  0  0  0  0  0  0  0  0
  -28.2546  -25.5496   21.3519 C   0  0  0  0  0  0  0  0  0  0  0  0
  -23.6606  -12.4435   20.8471 C   0  0  1  0  0  0  0  0  0  0  0  0
  -26.2884  -13.9138   23.1636 C   0  0  1  0  0  0  0  0  0  0  0  0
  -26.8551  -25.9725   21.8275 C   0  0  2  0  0  0  0  0  0  0  0  0
  -27.9052  -20.4734   26.9530 C   0  0  0  0  0  0  0  0  0  0  0  0
  -30.9142  -15.6729   16.6082 C   0  0  0  0  0  0  0  0  0  0  0  0
  -24.5697  -17.9821   21.8015 C   0  0  0  0  0  0  0  0  0  0  0  0
  -25.4318  -19.9840   23.0333 C   0  0  0  0  0  0  0  0  0  0  0  0
  -23.8114  -18.4434   24.1396 C   0  0  0  0  0  0  0  0  0  0  0  0
  -33.1271  -14.0380   18.0695 C   0  0  0  0  0  0  0  0  0  0  0  0
  -30.8099  -13.1537   18.3981 C   0  0  0  0  0  0  0  0  0  0  0  0
  -29.8242  -17.1950   27.1659 C   0  0  0  0  0  0  0  0  0  0  0  0
  -30.1690  -18.6390   18.8324 C   0  0  0  0  0  0  0  0  0  0  0  0
  -31.4892  -18.3012   18.1354 C   0  0  0  0  0  0  0  0  0  0  0  0
  -32.0453  -16.9212   18.5148 C   0  0  0  0  0  0  0  0  0  0  0  0
  -26.1971  -17.6858   23.7839 C   0  0  1  0  0  0  0  0  0  0  0  0
  -28.1141  -18.9761   26.7889 C   0  0  2  0  0  0  0  0  0  0  0  0
  -31.1705  -15.7062   18.1247 C   0  0  2  0  0  0  0  0  0  0  0  0
  -25.0203  -18.5035   23.1806 C   0  0  0  0  0  0  0  0  0  0  0  0
  -31.7391  -14.3459   18.6472 C   0  0  0  0  0  0  0  0  0  1  0  0
  -26.6463  -28.4293   21.7883 N   0  0  0  0  0  0  0  0  0  0  0  0
  -26.3968  -27.2616   21.1717 N   0  0  0  0  0  0  0  0  0  0  0  0
  -26.6791  -15.3237   23.2253 N   0  0  0  0  0  0  0  0  0  0  0  0
  -28.6482  -24.2923   22.0070 N   0  0  0  0  0  0  0  0  0  0  0  0
  -25.4065  -26.3215   19.2362 N   0  0  0  0  0  0  0  0  0  0  0  0
  -24.7650  -30.7578   18.6848 N   0  0  0  0  0  0  0  0  0  0  0  0
  -28.8693  -23.1199   19.9725 N   0  0  0  0  0  0  0  0  0  0  0  0
  -24.5199  -12.7795   21.9621 N   0  0  0  0  0  0  0  0  0  0  0  0
  -26.6268  -18.1404   25.1019 N   0  0  0  0  0  0  0  0  0  0  0  0
  -29.4909  -18.6402   27.2502 N   0  3  0  0  0  0  0  0  0  0  0  0
  -24.3945  -28.6934   17.7575 O   0  0  0  0  0  0  0  0  0  0  0  0
  -25.8196  -14.3935   20.8998 O   0  0  0  0  0  0  0  0  0  0  0  0
  -24.9202  -15.8839   24.6496 O   0  0  0  0  0  0  0  0  0  0  0  0
  -28.8286  -18.5723   24.5165 O   0  0  0  0  0  0  0  0  0  0  0  0
  -29.3007  -22.0746   21.9981 O   0  0  0  0  0  0  0  0  0  0  0  0
  -29.5328  -20.8720   19.5695 O   0  0  0  0  0  0  0  0  0  0  0  0
  -26.3821  -34.7793   22.1844 O   0  0  0  0  0  0  0  0  0  0  0  0
  -31.9007  -14.4407   20.0618 O   0  0  0  0  0  0  0  0  0  1  0  0
  -25.1494  -36.3013   27.3388 F   0  0  0  0  0  0  0  0  0  0  0  0
  -24.2955  -36.5215   22.6882 F   0  0  0  0  0  0  0  0  0  0  0  0
  1  2  1  0  0  0  0
  1  5  2  0  0  0  0
  2  6  2  0  0  0  0
  3  8  2  0  0  0  0
  3 17  1  0  0  0  0
  4  9  1  0  0  0  0
  4 17  2  0  0  0  0
  5 19  1  0  0  0  0
  6 21  1  0  0  0  0
  7 10  2  0  0  0  0
  7 20  1  0  0  0  0
  8 23  1  0  0  0  0
  9 23  2  0  0  0  0
 10 24  1  0  0  0  0
 11 12  2  0  0  0  0
 11 25  1  0  0  0  0
 12 26  1  0  0  0  0
 13 14  1  0  0  0  0
 13 29  2  0  0  0  0
 14 31  2  0  0  0  0
 15 22  1  0  0  0  0
 15 24  2  0  0  0  0
 16 26  2  0  0  0  0
 16 27  1  0  0  0  0
 17 28  1  0  0  0  0
 18 28  1  0  0  0  0
 18 30  2  0  0  0  0
 18 32  1  0  0  0  0
 19 21  2  0  0  0  0
 19 37  1  0  0  0  0
 20 22  2  0  0  0  0
 20 38  1  0  0  0  0
 21 46  1  0  0  0  0
 22 39  1  0  0  0  0
 23 81  1  0  0  0  0
 24 82  1  0  0  0  0
 25 27  2  0  0  0  0
 25 81  1  0  0  0  0
 26 83  1  0  0  0  0
 27 84  1  0  0  0  0
 28 65  2  0  0  0  0
 29 57  1  0  0  0  0
 29 80  1  0  0  0  0
 30 66  1  0  0  0  0
 30 69  1  0  0  0  0
 31 71  1  0  0  0  0
 31 80  1  0  0  0  0
 32 70  1  0  0  0  0
 32 75  2  0  0  0  0
 33 47  1  0  0  0  0
 33 72  1  0  0  0  0
 33 76  2  0  0  0  0
 34 60  1  0  0  0  0
 34 67  1  0  0  0  0
 34 77  2  0  0  0  0
 35 61  1  0  0  0  0
 35 73  1  0  0  0  0
 35 78  2  0  0  0  0
 36 68  1  0  0  0  0
 36 71  1  0  0  0  0
 36 79  2  0  0  0  0
 37 40  1  0  0  0  0
 38 47  1  0  0  0  0
 39 67  1  0  0  0  0
 40 42  1  0  0  0  0
 41 43  1  0  0  0  0
 41 44  1  0  0  0  0
 42 46  1  0  0  0  0
 43 48  1  0  0  0  0
 44 68  1  0  0  0  0
 45 48  1  0  0  0  0
 45 68  1  0  0  0  0
 46 72  1  0  0  0  0
 47 67  1  0  0  0  0
 48 66  1  0  0  0  0
 49 61  1  0  0  0  0
 50 62  1  0  0  0  0
 51 63  1  0  0  0  0
 52 63  1  0  0  0  0
 53 63  1  0  0  0  0
 54 64  1  0  0  0  0
 55 64  1  0  0  0  0
 56 74  1  0  0  0  0
 57 58  1  0  0  0  0
 58 59  1  0  0  0  0
 59 62  1  0  0  0  0
 60 63  1  0  0  0  0
 60 73  1  0  0  0  0
 61 74  1  0  0  0  0
 62 64  1  0  0  0  0
 64 82  1  0  0  0  0
 65 66  1  0  0  0  0
M  CHG  1  74   1
M  ISO  4  36 100  64 101  71 100  82 101
M  END
> <Batch ID>
0139

> <Smiles>
CNC(C)C(=O)NC(C(=O)N1Cc2cc([101O:1][101C:1](C)(C)C(C)CCCc3ccc([100NH:0][100C:0](=O)N4CCCC(n5nc(-c6ccc(Oc7ccc(F)cc7F)cc6)c(C(N)=O)c5N)C4)o3)ccc2CC1C(=O)NC1CCCc2ccccc21)C(C)(C)C

> <Shape>
0.232

> <Color>
0.080

> <Negative vol penalty>
0.000

$$$$

  -OEChem-04052302483D

 85 93  0     1  0  0  0  0  0999 V2000
  -19.9284  -24.4911   23.8416 C   0  0  0  0  0  0  0  0  0  0  0  0
  -21.0313  -24.6163   23.0031 C   0  0  0  0  0  0  0  0  0  0  0  0
  -23.9506  -14.1451   20.9885 C   0  0  0  0  0  0  0  0  0  0  0  0
  -26.2394  -14.0609   20.2193 C   0  0  0  0  0  0  0  0  0  0  0  0
  -18.9982  -25.5261   23.9273 C   0  0  0  0  0  0  0  0  0  0  0  0
  -21.2042  -25.7764   22.2488 C   0  0  0  0  0  0  0  0  0  0  0  0
  -25.9677  -27.4896   22.3838 C   0  0  0  0  0  0  0  0  0  0  0  0
  -31.5219  -24.6495   20.9121 C   0  0  0  0  0  0  0  0  0  0  0  0
  -31.1983  -23.6673   21.8480 C   0  0  0  0  0  0  0  0  0  0  0  0
  -23.7708  -12.8180   20.5988 C   0  0  0  0  0  0  0  0  0  0  0  0
  -26.0596  -12.7337   19.8296 C   0  0  0  0  0  0  0  0  0  0  0  0
  -26.9021  -26.8370   21.5808 C   0  0  0  0  0  0  0  0  0  0  0  0
  -24.5315   -9.7468   21.7912 C   0  0  0  0  0  0  0  0  0  0  0  0
  -23.8786   -8.8929   22.6802 C   0  0  0  0  0  0  0  0  0  0  0  0
  -26.7086  -28.5933   19.9386 C   0  0  0  0  0  0  0  0  0  0  0  0
  -29.4885  -24.1652   19.7006 C   0  0  0  0  0  0  0  0  0  0  0  0
  -22.1634   -8.4849   21.0283 C   0  0  0  0  0  0  0  0  0  0  0  0
  -25.1849  -14.7667   20.7987 C   0  0  0  0  0  0  0  0  0  0  0  0
  -25.8099  -16.6041   22.4543 C   0  0  0  0  0  0  0  0  0  0  0  0
  -19.1648  -26.7034   23.1811 C   0  0  0  0  0  0  0  0  0  0  0  0
  -25.3877  -28.6955   21.9645 C   0  0  0  0  0  0  0  0  0  0  0  0
  -20.2746  -26.8276   22.3236 C   0  0  0  0  0  0  0  0  0  0  0  0
  -25.7690  -29.2606   20.7392 C   0  0  0  0  0  0  0  0  0  0  0  0
  -30.6670  -24.8986   19.8384 C   0  0  0  0  0  0  0  0  0  0  0  0
  -30.0198  -22.9340   21.7103 C   0  0  0  0  0  0  0  0  0  0  0  0
  -29.1648  -23.1829   20.6366 C   0  0  0  0  0  0  0  0  0  0  0  0
  -24.8253  -12.1123   20.0194 C   0  0  0  0  0  0  0  0  0  0  0  0
  -27.2705  -27.3873   20.3567 C   0  0  0  0  0  0  0  0  0  0  0  0
  -24.0004   -9.9697   20.5208 C   0  0  0  0  0  0  0  0  0  0  0  0
  -22.6946   -8.2620   22.2987 C   0  0  0  0  0  0  0  0  0  0  0  0
  -22.8163   -9.3388   20.1394 C   0  0  0  0  0  0  0  0  0  0  0  0
  -25.3711  -16.1378   21.2005 C   0  0  0  0  0  0  0  0  0  0  0  0
  -25.8187  -17.9717   22.3280 C   0  0  0  0  0  0  0  0  0  0  0  0
  -26.1768  -15.8669   23.6280 C   0  0  0  0  0  0  0  0  0  0  0  0
  -22.4289  -29.6512   21.3042 C   0  0  0  0  0  0  0  0  0  0  0  0
  -23.8468  -32.5550   21.0225 C   0  0  0  0  0  0  0  0  0  0  0  0
  -26.6907  -34.3449   20.4262 C   0  0  0  0  0  0  0  0  0  0  0  0
  -27.0176  -22.5910   19.4595 C   0  0  0  0  0  0  0  0  0  0  0  0
  -18.1079  -27.7755   23.2710 C   0  0  0  0  0  0  0  0  0  0  0  0
  -24.4012  -29.4007   22.8545 C   0  0  0  0  0  0  0  0  0  0  0  0
  -25.1909  -30.5635   20.2527 C   0  0  0  0  0  0  0  0  0  0  0  0
  -18.5618  -29.1258   22.7225 C   0  0  0  0  0  0  0  0  0  0  0  0
  -23.9491  -20.9562   18.6921 C   0  0  0  0  0  0  0  0  0  0  0  0
  -19.2533  -28.9493   21.3743 C   0  0  0  0  0  0  0  0  0  0  0  0
  -24.0816  -19.5952   19.3795 C   0  0  0  0  0  0  0  0  0  0  0  0
  -25.2806  -21.4312   18.1132 C   0  0  0  0  0  0  0  0  0  0  0  0
  -26.5340  -20.0814   19.7492 C   0  0  0  0  0  0  0  0  0  0  0  0
  -20.5099  -28.0807   21.5084 C   0  0  1  0  0  0  0  0  0  0  0  0
  -23.4914  -30.3611   22.0947 C   0  0  1  0  0  0  0  0  0  0  0  0
  -25.2325  -19.5913   20.4047 C   0  0  2  0  0  0  0  0  0  0  0  0
  -27.5291  -36.7016   20.2244 C   0  0  0  0  0  0  0  0  0  0  0  0
  -28.6365  -27.2507   17.2793 C   0  0  0  0  0  0  0  0  0  0  0  0
  -22.5779  -32.7669   18.2557 C   0  0  0  0  0  0  0  0  0  0  0  0
  -24.1742  -34.6262   17.7426 C   0  0  0  0  0  0  0  0  0  0  0  0
  -22.5214  -34.8790   19.5938 C   0  0  0  0  0  0  0  0  0  0  0  0
  -31.3881  -28.3627   18.2583 C   0  0  0  0  0  0  0  0  0  0  0  0
  -30.7230  -27.7838   20.5882 C   0  0  0  0  0  0  0  0  0  0  0  0
  -30.1307  -22.0310   24.0337 C   0  0  0  0  0  0  0  0  0  0  0  0
  -28.5624  -33.9962   22.6920 C   0  0  0  0  0  0  0  0  0  0  0  0
  -31.0182  -25.9634   18.8241 C   0  0  0  0  0  0  0  0  0  0  0  0
  -24.4925  -33.3247   19.8956 C   0  0  1  0  0  0  0  0  0  0  0  0
  -27.3130  -35.5205   21.1577 C   0  0  2  0  0  0  0  0  0  0  0  0
  -28.9960  -27.5687   18.7301 C   0  0  2  0  0  0  0  0  0  1  0  0
  -23.4512  -33.8737   18.8799 C   0  0  0  0  0  0  0  0  0  0  0  0
  -30.5046  -27.4155   19.1059 C   0  0  0  0  0  0  0  0  0  0  0  0
  -25.1193  -17.1287   20.3411 N   0  0  0  0  0  0  0  0  0  0  0  0
  -25.4006  -18.2314   21.0560 N   0  0  0  0  0  0  0  0  0  0  0  0
  -24.2255  -31.2117   21.1557 N   0  0  0  0  0  0  0  0  0  0  0  0
  -26.3223  -21.4050   19.1423 N   0  0  0  0  0  0  0  0  0  0  0  0
  -26.1430  -18.9656   23.1821 N   0  0  0  0  0  0  0  0  0  0  0  0
  -26.1104  -14.4676   23.5860 N   0  0  0  0  0  0  0  0  0  0  0  0
  -27.9621  -22.4513   20.4760 N   0  0  0  0  0  0  0  0  0  0  0  0
  -29.7117  -21.9442   22.6704 N   0  0  0  0  0  0  0  0  0  0  0  0
  -21.5998  -28.8514   22.0674 N   0  0  0  0  0  0  0  0  0  0  0  0
  -25.3153  -34.3534   20.5228 N   0  0  0  0  0  0  0  0  0  0  0  0
  -28.6300  -35.1320   21.7368 N   0  3  0  0  0  0  0  0  0  0  0  0
  -26.5366  -16.4329   24.6880 O   0  0  0  0  0  0  0  0  0  0  0  0
  -22.3651  -29.8179   20.0919 O   0  0  0  0  0  0  0  0  0  0  0  0
  -23.0417  -33.1267   21.7618 O   0  0  0  0  0  0  0  0  0  0  0  0
  -27.3578  -33.5054   19.8257 O   0  0  0  0  0  0  0  0  0  0  0  0
  -26.7728  -23.6584   18.8916 O   0  0  0  0  0  0  0  0  0  0  0  0
  -24.6502  -10.8171   19.6392 O   0  0  0  0  0  0  0  0  0  0  0  0
  -28.1818  -26.7520   19.5706 O   0  0  0  0  0  0  0  0  0  1  0  0
  -22.0685   -7.4408   23.1519 F   0  0  0  0  0  0  0  0  0  0  0  0
  -22.3018   -9.5481   18.9198 F   0  0  0  0  0  0  0  0  0  0  0  0
  1  2  1  0  0  0  0
  1  5  2  0  0  0  0
  2  6  2  0  0  0  0
  3 10  2  0  0  0  0
  3 18  1  0  0  0  0
  4 11  1  0  0  0  0
  4 18  2  0  0  0  0
  5 20  1  0  0  0  0
  6 22  1  0  0  0  0
  7 12  2  0  0  0  0
  7 21  1  0  0  0  0
  8  9  2  0  0  0  0
  8 24  1  0  0  0  0
  9 25  1  0  0  0  0
 10 27  1  0  0  0  0
 11 27  2  0  0  0  0
 12 28  1  0  0  0  0
 13 14  2  0  0  0  0
 13 29  1  0  0  0  0
 14 30  1  0  0  0  0
 15 23  1  0  0  0  0
 15 28  2  0  0  0  0
 16 24  2  0  0  0  0
 16 26  1  0  0  0  0
 17 30  2  0  0  0  0
 17 31  1  0  0  0  0
 18 32  1  0  0  0  0
 19 32  1  0  0  0  0
 19 33  2  0  0  0  0
 19 34  1  0  0  0  0
 20 22  2  0  0  0  0
 20 39  1  0  0  0  0
 21 23  2  0  0  0  0
 21 40  1  0  0  0  0
 22 48  1  0  0  0  0
 23 41  1  0  0  0  0
 24 60  1  0  0  0  0
 25 26  2  0  0  0  0
 25 73  1  0  0  0  0
 26 72  1  0  0  0  0
 27 82  1  0  0  0  0
 28 83  1  0  0  0  0
 29 31  2  0  0  0  0
 29 82  1  0  0  0  0
 30 84  1  0  0  0  0
 31 85  1  0  0  0  0
 32 66  2  0  0  0  0
 33 67  1  0  0  0  0
 33 70  1  0  0  0  0
 34 71  1  0  0  0  0
 34 77  2  0  0  0  0
 35 49  1  0  0  0  0
 35 74  1  0  0  0  0
 35 78  2  0  0  0  0
 36 61  1  0  0  0  0
 36 68  1  0  0  0  0
 36 79  2  0  0  0  0
 37 62  1  0  0  0  0
 37 75  1  0  0  0  0
 37 80  2  0  0  0  0
 38 69  1  0  0  0  0
 38 72  1  0  0  0  0
 38 81  2  0  0  0  0
 39 42  1  0  0  0  0
 40 49  1  0  0  0  0
 41 68  1  0  0  0  0
 42 44  1  0  0  0  0
 43 45  1  0  0  0  0
 43 46  1  0  0  0  0
 44 48  1  0  0  0  0
 45 50  1  0  0  0  0
 46 69  1  0  0  0  0
 47 50  1  0  0  0  0
 47 69  1  0  0  0  0
 48 74  1  0  0  0  0
 49 68  1  0  0  0  0
 50 67  1  0  0  0  0
 51 62  1  0  0  0  0
 52 63  1  0  0  0  0
 53 64  1  0  0  0  0
 54 64  1  0  0  0  0
 55 64  1  0  0  0  0
 56 65  1  0  0  0  0
 57 65  1  0  0  0  0
 58 73  1  0  0  0  0
 59 76  1  0  0  0  0
 60 65  1  0  0  0  0
 61 64  1  0  0  0  0
 61 75  1  0  0  0  0
 62 76  1  0  0  0  0
 63 65  1  0  0  0  0
 63 83  1  0  0  0  0
 66 67  1  0  0  0  0
M  CHG  1  76   1
M  ISO  4  38 100  63 101  72 100  83 101
M  END
> <Batch ID>
0139

> <Smiles>
CNc1ccc(CC(C)(C)[101CH:1](C)[101O:1]c2ccc3c(c2)CN(C(=O)C(NC(=O)C(C)NC)C(C)(C)C)C(C(=O)NC2CCCc4ccccc42)C3)cc1[100NH:0][100C:0](=O)N1CCCC(n2nc(-c3ccc(Oc4ccc(F)cc4F)cc3)c(C(N)=O)c2N)C1

> <Shape>
0.245

> <Color>
0.095

> <Negative vol penalty>
0.000

$$$$

  -OEChem-04052302483D

 87 95  0     1  0  0  0  0  0999 V2000
  -17.3107  -30.6959   18.5350 C   0  0  0  0  0  0  0  0  0  0  0  0
  -18.1676  -29.6188   18.3325 C   0  0  0  0  0  0  0  0  0  0  0  0
  -23.9039   -9.9107   21.8102 C   0  0  0  0  0  0  0  0  0  0  0  0
  -24.5469  -11.1844   23.7599 C   0  0  0  0  0  0  0  0  0  0  0  0
  -17.8293  -31.9411   18.8875 C   0  0  0  0  0  0  0  0  0  0  0  0
  -19.5438  -29.7866   18.4813 C   0  0  0  0  0  0  0  0  0  0  0  0
  -25.4060  -26.2425   20.5766 C   0  0  0  0  0  0  0  0  0  0  0  0
  -31.2368  -20.2441   20.5321 C   0  0  0  0  0  0  0  0  0  0  0  0
  -30.9146  -18.9273   20.2038 C   0  0  0  0  0  0  0  0  0  0  0  0
  -23.4465   -8.8817   22.6333 C   0  0  0  0  0  0  0  0  0  0  0  0
  -24.0894  -10.1554   24.5830 C   0  0  0  0  0  0  0  0  0  0  0  0
  -26.6878  -25.9224   20.1313 C   0  0  0  0  0  0  0  0  0  0  0  0
  -20.7164   -8.2258   24.5172 C   0  0  0  0  0  0  0  0  0  0  0  0
  -19.4788   -7.6569   24.2167 C   0  0  0  0  0  0  0  0  0  0  0  0
  -27.4644  -28.0998   20.8203 C   0  0  0  0  0  0  0  0  0  0  0  0
  -28.5689  -19.4296   20.4912 C   0  0  0  0  0  0  0  0  0  0  0  0
  -20.5380   -5.5045   23.9293 C   0  0  0  0  0  0  0  0  0  0  0  0
  -24.4542  -11.0621   22.3735 C   0  0  0  0  0  0  0  0  0  0  0  0
  -24.1897  -13.2258   21.0484 C   0  0  0  0  0  0  0  0  0  0  0  0
  -19.2119  -32.1220   19.0501 C   0  0  0  0  0  0  0  0  0  0  0  0
  -25.1409  -27.4998   21.1381 C   0  0  0  0  0  0  0  0  0  0  0  0
  -20.0816  -31.0358   18.8350 C   0  0  0  0  0  0  0  0  0  0  0  0
  -26.1790  -28.4325   21.2743 C   0  0  0  0  0  0  0  0  0  0  0  0
  -30.2251  -21.1537   20.8400 C   0  0  0  0  0  0  0  0  0  0  0  0
  -28.8912  -20.7465   20.8195 C   0  0  0  0  0  0  0  0  0  0  0  0
  -29.5807  -18.5201   20.1833 C   0  0  0  0  0  0  0  0  0  0  0  0
  -23.5391   -9.0040   24.0196 C   0  0  0  0  0  0  0  0  0  0  0  0
  -27.7166  -26.8521   20.2504 C   0  0  0  0  0  0  0  0  0  0  0  0
  -21.8648   -7.4341   24.5237 C   0  0  0  0  0  0  0  0  0  0  0  0
  -19.3896   -6.2963   23.9228 C   0  0  0  0  0  0  0  0  0  0  0  0
  -21.7756   -6.0735   24.2298 C   0  0  0  0  0  0  0  0  0  0  0  0
  -24.9275  -12.1251   21.5238 C   0  0  0  0  0  0  0  0  0  0  0  0
  -25.0858  -13.9376   20.2889 C   0  0  0  0  0  0  0  0  0  0  0  0
  -22.8170  -13.5737   21.2732 C   0  0  0  0  0  0  0  0  0  0  0  0
  -23.2572  -29.9443   20.3768 C   0  0  0  0  0  0  0  0  0  0  0  0
  -24.2707  -31.1089   23.2296 C   0  0  0  0  0  0  0  0  0  0  0  0
  -26.6577  -31.1266   25.6687 C   0  0  0  0  0  0  0  0  0  0  0  0
  -30.1343  -16.1550   19.5151 C   0  0  0  0  0  0  0  0  0  0  0  0
  -19.7294  -33.4983   19.3858 C   0  0  0  0  0  0  0  0  0  0  0  0
  -23.7589  -27.8198   21.6381 C   0  0  0  0  0  0  0  0  0  0  0  0
  -25.9511  -29.7887   21.8885 C   0  0  0  0  0  0  0  0  0  0  0  0
  -21.1704  -33.5010   19.8897 C   0  0  0  0  0  0  0  0  0  0  0  0
  -29.7232  -12.7221   18.6646 C   0  0  0  0  0  0  0  0  0  0  0  0
  -22.0498  -32.6313   18.9968 C   0  0  0  0  0  0  0  0  0  0  0  0
  -28.3782  -12.3513   19.2935 C   0  0  0  0  0  0  0  0  0  0  0  0
  -30.5082  -13.6985   19.5388 C   0  0  0  0  0  0  0  0  0  0  0  0
  -28.4293  -14.5375   20.5604 C   0  0  0  0  0  0  0  0  0  0  0  0
  -21.5784  -31.1722   19.0112 C   0  0  1  0  0  0  0  0  0  0  0  0
  -23.4865  -29.3185   21.7234 C   0  0  1  0  0  0  0  0  0  0  0  0
  -27.5742  -13.6065   19.6854 C   0  0  2  0  0  0  0  0  0  0  0  0
  -27.7912  -21.7033   21.1436 C   0  0  0  0  0  0  0  0  0  0  0  0
  -31.3191  -22.5805   22.5677 C   0  0  0  0  0  0  0  0  0  0  0  0
  -27.2269  -32.2088   27.8601 C   0  0  0  0  0  0  0  0  0  0  0  0
  -25.0946  -33.6513   21.7574 C   0  0  0  0  0  0  0  0  0  0  0  0
  -26.4797  -34.2721   23.7484 C   0  0  0  0  0  0  0  0  0  0  0  0
  -24.0068  -34.0367   23.9760 C   0  0  0  0  0  0  0  0  0  0  0  0
  -31.2796  -25.7149   21.3688 C   0  0  0  0  0  0  0  0  0  0  0  0
  -31.5806  -25.7894   18.9042 C   0  0  0  0  0  0  0  0  0  0  0  0
  -32.8813  -23.3213   20.2044 C   0  0  0  0  0  0  0  0  0  0  0  0
  -31.0269  -22.8168   18.6449 C   0  0  0  0  0  0  0  0  0  0  0  0
  -26.6261  -28.5313   27.0909 C   0  0  0  0  0  0  0  0  0  0  0  0
  -29.3507  -25.1659   19.8730 C   0  0  0  0  0  0  0  0  0  1  0  0
  -30.6041  -22.5937   21.1981 C   0  0  1  0  0  0  0  0  0  0  0  0
  -25.4274  -31.9657   23.6845 C   0  0  1  0  0  0  0  0  0  0  0  0
  -26.5544  -31.0265   27.1799 C   0  0  2  0  0  0  0  0  0  0  0  0
  -25.2563  -33.4567   23.2782 C   0  0  0  0  0  0  0  0  0  0  0  0
  -30.8870  -24.9972   20.0462 C   0  0  0  0  0  0  0  0  0  0  0  0
  -31.3417  -23.4333   20.0431 C   0  0  0  0  0  0  0  0  0  0  0  0
  -26.1946  -12.1327   21.1017 N   0  0  0  0  0  0  0  0  0  0  0  0
  -26.2600  -13.2467   20.3529 N   0  0  0  0  0  0  0  0  0  0  0  0
  -24.5812  -30.0567   22.3565 N   0  0  0  0  0  0  0  0  0  0  0  0
  -29.6849  -14.8645   19.8665 N   0  0  0  0  0  0  0  0  0  0  0  0
  -24.9760  -15.0807   19.5793 N   0  0  0  0  0  0  0  0  0  0  0  0
  -22.0378  -12.7322   22.0789 N   0  0  0  0  0  0  0  0  0  0  0  0
  -29.2527  -17.1830   19.8480 N   0  0  0  0  0  0  0  0  0  0  0  0
  -22.0074  -30.5144   20.2268 N   0  0  0  0  0  0  0  0  0  0  0  0
  -25.5556  -31.7489   25.1215 N   0  0  0  0  0  0  0  0  0  0  0  0
  -27.2044  -29.7750   27.6617 N   0  3  0  0  0  0  0  0  0  0  0  0
  -22.2925  -14.5915   20.7610 O   0  0  0  0  0  0  0  0  0  0  0  0
  -24.1487  -29.9136   19.5366 O   0  0  0  0  0  0  0  0  0  0  0  0
  -23.1346  -31.3595   23.6397 O   0  0  0  0  0  0  0  0  0  0  0  0
  -27.6214  -30.6991   25.0371 O   0  0  0  0  0  0  0  0  0  0  0  0
  -31.2087  -16.3326   18.9354 O   0  0  0  0  0  0  0  0  0  0  0  0
  -23.0926   -8.0002   24.8231 O   0  0  0  0  0  0  0  0  0  0  0  0
  -28.9754  -26.5408   19.8136 O   0  0  0  0  0  0  0  0  0  1  0  0
  -18.2008   -5.7498   23.6357 F   0  0  0  0  0  0  0  0  0  0  0  0
  -22.8752   -5.3075   24.2357 F   0  0  0  0  0  0  0  0  0  0  0  0
  1  2  1  0  0  0  0
  1  5  2  0  0  0  0
  2  6  2  0  0  0  0
  3 10  2  0  0  0  0
  3 18  1  0  0  0  0
  4 11  1  0  0  0  0
  4 18  2  0  0  0  0
  5 20  1  0  0  0  0
  6 22  1  0  0  0  0
  7 12  2  0  0  0  0
  7 21  1  0  0  0  0
  8  9  2  0  0  0  0
  8 24  1  0  0  0  0
  9 26  1  0  0  0  0
 10 27  1  0  0  0  0
 11 27  2  0  0  0  0
 12 28  1  0  0  0  0
 13 14  2  0  0  0  0
 13 29  1  0  0  0  0
 14 30  1  0  0  0  0
 15 23  1  0  0  0  0
 15 28  2  0  0  0  0
 16 25  1  0  0  0  0
 16 26  2  0  0  0  0
 17 30  2  0  0  0  0
 17 31  1  0  0  0  0
 18 32  1  0  0  0  0
 19 32  1  0  0  0  0
 19 33  2  0  0  0  0
 19 34  1  0  0  0  0
 20 22  2  0  0  0  0
 20 39  1  0  0  0  0
 21 23  2  0  0  0  0
 21 40  1  0  0  0  0
 22 48  1  0  0  0  0
 23 41  1  0  0  0  0
 24 25  2  0  0  0  0
 24 63  1  0  0  0  0
 25 51  1  0  0  0  0
 26 75  1  0  0  0  0
 27 84  1  0  0  0  0
 28 85  1  0  0  0  0
 29 31  2  0  0  0  0
 29 84  1  0  0  0  0
 30 86  1  0  0  0  0
 31 87  1  0  0  0  0
 32 69  2  0  0  0  0
 33 70  1  0  0  0  0
 33 73  1  0  0  0  0
 34 74  1  0  0  0  0
 34 79  2  0  0  0  0
 35 49  1  0  0  0  0
 35 76  1  0  0  0  0
 35 80  2  0  0  0  0
 36 64  1  0  0  0  0
 36 71  1  0  0  0  0
 36 81  2  0  0  0  0
 37 65  1  0  0  0  0
 37 77  1  0  0  0  0
 37 82  2  0  0  0  0
 38 72  1  0  0  0  0
 38 75  1  0  0  0  0
 38 83  2  0  0  0  0
 39 42  1  0  0  0  0
 40 49  1  0  0  0  0
 41 71  1  0  0  0  0
 42 44  1  0  0  0  0
 43 45  1  0  0  0  0
 43 46  1  0  0  0  0
 44 48  1  0  0  0  0
 45 50  1  0  0  0  0
 46 72  1  0  0  0  0
 47 50  1  0  0  0  0
 47 72  1  0  0  0  0
 48 76  1  0  0  0  0
 49 71  1  0  0  0  0
 50 70  1  0  0  0  0
 52 63  1  0  0  0  0
 53 65  1  0  0  0  0
 54 66  1  0  0  0  0
 55 66  1  0  0  0  0
 56 66  1  0  0  0  0
 57 67  1  0  0  0  0
 58 67  1  0  0  0  0
 59 68  1  0  0  0  0
 60 68  1  0  0  0  0
 61 78  1  0  0  0  0
 62 67  1  0  0  0  0
 62 85  1  0  0  0  0
 63 68  1  0  0  0  0
 64 66  1  0  0  0  0
 64 77  1  0  0  0  0
 65 78  1  0  0  0  0
 67 68  1  0  0  0  0
 69 70  1  0  0  0  0
M  CHG  1  78   1
M  ISO  4  38 100  62 101  75 100  85 101
M  END
> <Batch ID>
0139

> <Smiles>
CNC(C)C(=O)NC(C(=O)N1Cc2cc([101O:1][101CH2:1]C(C)(C)C(C)(C)C(C)c3ccc([100NH:0][100C:0](=O)N4CCCC(n5nc(-c6ccc(Oc7ccc(F)cc7F)cc6)c(C(N)=O)c5N)C4)cc3C)ccc2CC1C(=O)NC1CCCc2ccccc21)C(C)(C)C

> <Shape>
0.324

> <Color>
0.123

> <Negative vol penalty>
0.000

$$$$

  -OEChem-04052302483D

 83 92  0     1  0  0  0  0  0999 V2000
  -22.9845  -35.0216   15.0674 C   0  0  0  0  0  0  0  0  0  0  0  0
  -23.6795  -33.8268   15.2246 C   0  0  0  0  0  0  0  0  0  0  0  0
  -23.9801   -9.6240   21.8115 C   0  0  0  0  0  0  0  0  0  0  0  0
  -24.6534  -10.9764   23.6969 C   0  0  0  0  0  0  0  0  0  0  0  0
  -23.0050  -35.9774   16.0823 C   0  0  0  0  0  0  0  0  0  0  0  0
  -24.3964  -33.5875   16.3964 C   0  0  0  0  0  0  0  0  0  0  0  0
  -31.0761  -20.0368   19.9696 C   0  0  0  0  0  0  0  0  0  0  0  0
  -28.7306  -20.5063   20.3088 C   0  0  0  0  0  0  0  0  0  0  0  0
  -25.1730  -28.1994   19.2020 C   0  0  0  0  0  0  0  0  0  0  0  0
  -30.7696  -18.7042   19.6946 C   0  0  0  0  0  0  0  0  0  0  0  0
  -28.4240  -19.1736   20.0338 C   0  0  0  0  0  0  0  0  0  0  0  0
  -23.5658   -8.6163   22.6823 C   0  0  0  0  0  0  0  0  0  0  0  0
  -24.2390   -9.9686   24.5677 C   0  0  0  0  0  0  0  0  0  0  0  0
  -26.2196  -27.2785   19.1911 C   0  0  0  0  0  0  0  0  0  0  0  0
  -20.9029   -7.9773   24.6656 C   0  0  0  0  0  0  0  0  0  0  0  0
  -19.6684   -7.3760   24.4206 C   0  0  0  0  0  0  0  0  0  0  0  0
  -27.0908  -28.2536   21.2182 C   0  0  0  0  0  0  0  0  0  0  0  0
  -20.7599   -5.2344   24.1769 C   0  0  0  0  0  0  0  0  0  0  0  0
  -24.5240  -10.8041   22.3188 C   0  0  0  0  0  0  0  0  0  0  0  0
  -24.1810  -12.9151   20.9283 C   0  0  0  0  0  0  0  0  0  0  0  0
  -30.0566  -20.9379   20.2768 C   0  0  0  0  0  0  0  0  0  0  0  0
  -23.7146  -35.7456   17.2711 C   0  0  0  0  0  0  0  0  0  0  0  0
  -25.0833  -29.1630   20.2168 C   0  0  0  0  0  0  0  0  0  0  0  0
  -24.4276  -34.5417   17.4276 C   0  0  0  0  0  0  0  0  0  0  0  0
  -26.0406  -29.1841   21.2412 C   0  0  0  0  0  0  0  0  0  0  0  0
  -29.4436  -18.2726   19.7267 C   0  0  0  0  0  0  0  0  0  0  0  0
  -23.6952   -8.7885   24.0604 C   0  0  0  0  0  0  0  0  0  0  0  0
  -27.1803  -27.3073   20.1977 C   0  0  0  0  0  0  0  0  0  0  0  0
  -22.0659   -7.2071   24.6662 C   0  0  0  0  0  0  0  0  0  0  0  0
  -19.5969   -6.0045   24.1763 C   0  0  0  0  0  0  0  0  0  0  0  0
  -21.9944   -5.8357   24.4219 C   0  0  0  0  0  0  0  0  0  0  0  0
  -24.9528  -11.8452   21.4198 C   0  0  0  0  0  0  0  0  0  0  0  0
  -25.0417  -13.6161   20.1193 C   0  0  0  0  0  0  0  0  0  0  0  0
  -29.7193  -23.3367   19.6287 C   0  0  0  0  0  0  0  0  0  0  0  0
  -28.8072  -24.1034   20.2381 C   0  0  0  0  0  0  0  0  0  0  0  0
  -22.8089  -13.2458   21.1805 C   0  0  0  0  0  0  0  0  0  0  0  0
  -25.1488  -32.3397   20.3059 C   0  0  0  0  0  0  0  0  0  0  0  0
  -24.4463  -31.8779   23.4388 C   0  0  0  0  0  0  0  0  0  0  0  0
  -24.5383  -29.8136   26.1549 C   0  0  0  0  0  0  0  0  0  0  0  0
  -30.0231  -15.8960   19.1245 C   0  0  0  0  0  0  0  0  0  0  0  0
  -23.7462  -36.8285   18.3205 C   0  0  0  0  0  0  0  0  0  0  0  0
  -23.9332  -30.1323   20.2290 C   0  0  0  0  0  0  0  0  0  0  0  0
  -25.9782  -30.1855   22.3644 C   0  0  0  0  0  0  0  0  0  0  0  0
  -28.7060  -23.7958   21.6977 C   0  0  0  0  0  0  0  0  0  0  0  0
  -24.2227  -36.3397   19.6859 C   0  0  0  0  0  0  0  0  0  0  0  0
  -29.9230  -22.9006   21.9510 C   0  0  0  0  0  0  0  0  0  0  0  0
  -29.6538  -12.4287   18.4046 C   0  0  0  0  0  0  0  0  0  0  0  0
  -25.4768  -35.4839   19.5388 C   0  0  0  0  0  0  0  0  0  0  0  0
  -28.3344  -12.0558   19.0844 C   0  0  0  0  0  0  0  0  0  0  0  0
  -30.4443  -13.4490   19.2218 C   0  0  0  0  0  0  0  0  0  0  0  0
  -28.3795  -14.2855   20.2734 C   0  0  0  0  0  0  0  0  0  0  0  0
  -30.3894  -22.3846   20.5753 C   0  0  1  0  0  0  0  0  0  0  0  0
  -25.1965  -34.2349   18.6944 C   0  0  1  0  0  0  0  0  0  0  0  0
  -24.2271  -31.3982   21.0282 C   0  0  1  0  0  0  0  0  0  0  0  0
  -27.5179  -13.3092   19.4559 C   0  0  2  0  0  0  0  0  0  0  0  0
  -23.9223  -29.7282   28.5860 C   0  0  0  0  0  0  0  0  0  0  0  0
  -26.8530  -33.6302   24.1077 C   0  0  0  0  0  0  0  0  0  0  0  0
  -26.7585  -32.7459   26.4480 C   0  0  0  0  0  0  0  0  0  0  0  0
  -24.8360  -34.0419   25.5278 C   0  0  0  0  0  0  0  0  0  0  0  0
  -22.6873  -27.5446   25.7255 C   0  0  0  0  0  0  0  0  0  0  0  0
  -27.9426  -25.1334   19.6071 C   0  0  0  0  0  0  0  0  0  1  0  0
  -25.2554  -31.6903   24.6995 C   0  0  1  0  0  0  0  0  0  0  0  0
  -23.4719  -29.4293   27.1646 C   0  0  2  0  0  0  0  0  0  0  0  0
  -25.9282  -33.0093   25.1737 C   0  0  0  0  0  0  0  0  0  0  0  0
  -26.2072  -11.8610   20.9612 N   0  0  0  0  0  0  0  0  0  0  0  0
  -26.2302  -12.9492   20.1730 N   0  0  0  0  0  0  0  0  0  0  0  0
  -24.8382  -31.1164   22.3287 N   0  0  0  0  0  0  0  0  0  0  0  0
  -29.6085  -14.6107   19.5327 N   0  0  0  0  0  0  0  0  0  0  0  0
  -24.8901  -14.7315   19.3742 N   0  0  0  0  0  0  0  0  0  0  0  0
  -22.0689  -12.4190   22.0368 N   0  0  0  0  0  0  0  0  0  0  0  0
  -29.1319  -16.9189   19.4471 N   0  0  0  0  0  0  0  0  0  0  0  0
  -24.5007  -33.2390   19.4808 N   0  0  0  0  0  0  0  0  0  0  0  0
  -24.3530  -31.0943   25.6787 N   0  0  0  0  0  0  0  0  0  0  0  0
  -23.1645  -27.9745   27.0651 N   0  3  0  0  0  0  0  0  0  0  0  0
  -22.2508  -14.2355   20.6490 O   0  0  0  0  0  0  0  0  0  0  0  0
  -26.3583  -32.2574   20.4850 O   0  0  0  0  0  0  0  0  0  0  0  0
  -23.4971  -32.6657   23.4411 O   0  0  0  0  0  0  0  0  0  0  0  0
  -25.4471  -29.0550   25.8246 O   0  0  0  0  0  0  0  0  0  0  0  0
  -31.0772  -16.0727   18.5083 O   0  0  0  0  0  0  0  0  0  0  0  0
  -23.2907   -7.8055   24.9104 O   0  0  0  0  0  0  0  0  0  0  0  0
  -28.2033  -26.4099   20.1891 O   0  0  0  0  0  0  0  0  0  1  0  0
  -18.4111   -5.4270   23.9425 F   0  0  0  0  0  0  0  0  0  0  0  0
  -23.1081   -5.0905   24.4224 F   0  0  0  0  0  0  0  0  0  0  0  0
  1  2  1  0  0  0  0
  1  5  2  0  0  0  0
  2  6  2  0  0  0  0
  3 12  2  0  0  0  0
  3 19  1  0  0  0  0
  4 13  1  0  0  0  0
  4 19  2  0  0  0  0
  5 22  1  0  0  0  0
  6 24  1  0  0  0  0
  7 10  2  0  0  0  0
  7 21  1  0  0  0  0
  8 11  1  0  0  0  0
  8 21  2  0  0  0  0
  9 14  2  0  0  0  0
  9 23  1  0  0  0  0
 10 26  1  0  0  0  0
 11 26  2  0  0  0  0
 12 27  1  0  0  0  0
 13 27  2  0  0  0  0
 14 28  1  0  0  0  0
 15 16  2  0  0  0  0
 15 29  1  0  0  0  0
 16 30  1  0  0  0  0
 17 25  1  0  0  0  0
 17 28  2  0  0  0  0
 18 30  2  0  0  0  0
 18 31  1  0  0  0  0
 19 32  1  0  0  0  0
 20 32  1  0  0  0  0
 20 33  2  0  0  0  0
 20 36  1  0  0  0  0
 21 52  1  0  0  0  0
 22 24  2  0  0  0  0
 22 41  1  0  0  0  0
 23 25  2  0  0  0  0
 23 42  1  0  0  0  0
 24 53  1  0  0  0  0
 25 43  1  0  0  0  0
 26 71  1  0  0  0  0
 27 80  1  0  0  0  0
 28 81  1  0  0  0  0
 29 31  2  0  0  0  0
 29 80  1  0  0  0  0
 30 82  1  0  0  0  0
 31 83  1  0  0  0  0
 32 65  2  0  0  0  0
 33 66  1  0  0  0  0
 33 69  1  0  0  0  0
 34 35  2  0  0  0  0
 34 52  1  0  0  0  0
 35 44  1  0  0  0  0
 35 61  1  0  0  0  0
 36 70  1  0  0  0  0
 36 75  2  0  0  0  0
 37 54  1  0  0  0  0
 37 72  1  0  0  0  0
 37 76  2  0  0  0  0
 38 62  1  0  0  0  0
 38 67  1  0  0  0  0
 38 77  2  0  0  0  0
 39 63  1  0  0  0  0
 39 73  1  0  0  0  0
 39 78  2  0  0  0  0
 40 68  1  0  0  0  0
 40 71  1  0  0  0  0
 40 79  2  0  0  0  0
 41 45  1  0  0  0  0
 42 54  1  0  0  0  0
 43 67  1  0  0  0  0
 44 46  1  0  0  0  0
 45 48  1  0  0  0  0
 46 52  1  0  0  0  0
 47 49  1  0  0  0  0
 47 50  1  0  0  0  0
 48 53  1  0  0  0  0
 49 55  1  0  0  0  0
 50 68  1  0  0  0  0
 51 55  1  0  0  0  0
 51 68  1  0  0  0  0
 53 72  1  0  0  0  0
 54 67  1  0  0  0  0
 55 66  1  0  0  0  0
 56 63  1  0  0  0  0
 57 64  1  0  0  0  0
 58 64  1  0  0  0  0
 59 64  1  0  0  0  0
 60 74  1  0  0  0  0
 61 81  1  0  0  0  0
 62 64  1  0  0  0  0
 62 73  1  0  0  0  0
 63 74  1  0  0  0  0
 65 66  1  0  0  0  0
M  CHG  1  74   1
M  ISO  4  40 100  61 101  71 100  81 101
M  END
> <Batch ID>
0139

> <Smiles>
CNC(C)C(=O)NC(C(=O)N1Cc2cc([101O:1][101CH2:1]C3=CC(c4ccc([100NH:0][100C:0](=O)N5CCCC(n6nc(-c7ccc(Oc8ccc(F)cc8F)cc7)c(C(N)=O)c6N)C5)cc4)CC3)ccc2CC1C(=O)NC1CCCc2ccccc21)C(C)(C)C

> <Shape>
0.308

> <Color>
0.171

> <Negative vol penalty>
0.000

$$$$

  -OEChem-04052302483D

 87 96  0     1  0  0  0  0  0999 V2000
  -31.2449  -24.4482   14.7088 C   0  0  0  0  0  0  0  0  0  0  0  0
  -29.9282  -24.2967   15.1315 C   0  0  0  0  0  0  0  0  0  0  0  0
  -27.6330  -11.3564   20.4882 C   0  0  0  0  0  0  0  0  0  0  0  0
  -28.1254  -11.6828   22.8309 C   0  0  0  0  0  0  0  0  0  0  0  0
  -25.6196  -20.2171   17.4427 C   0  0  0  0  0  0  0  0  0  0  0  0
  -25.8201  -21.9538   19.1103 C   0  0  0  0  0  0  0  0  0  0  0  0
  -32.2062  -24.9421   15.5896 C   0  0  0  0  0  0  0  0  0  0  0  0
  -29.5722  -24.6380   16.4358 C   0  0  0  0  0  0  0  0  0  0  0  0
  -25.2655  -27.2941   16.6423 C   0  0  0  0  0  0  0  0  0  0  0  0
  -26.6267  -19.4907   18.0781 C   0  0  0  0  0  0  0  0  0  0  0  0
  -26.8272  -21.2273   19.7458 C   0  0  0  0  0  0  0  0  0  0  0  0
  -26.6863  -10.3880   20.8221 C   0  0  0  0  0  0  0  0  0  0  0  0
  -27.1786  -10.7143   23.1648 C   0  0  0  0  0  0  0  0  0  0  0  0
  -24.0728  -26.5844   16.5101 C   0  0  0  0  0  0  0  0  0  0  0  0
  -23.5050  -10.3039   21.9645 C   0  0  0  0  0  0  0  0  0  0  0  0
  -22.2701  -10.3545   21.3180 C   0  0  0  0  0  0  0  0  0  0  0  0
  -23.7850  -26.6341   18.9047 C   0  0  0  0  0  0  0  0  0  0  0  0
  -22.6448   -8.1394   20.4291 C   0  0  0  0  0  0  0  0  0  0  0  0
  -28.3526  -12.0038   21.4926 C   0  0  0  0  0  0  0  0  0  0  0  0
  -25.2164  -21.4487   17.9588 C   0  0  0  0  0  0  0  0  0  0  0  0
  -30.4796  -12.8311   20.3530 C   0  0  0  0  0  0  0  0  0  0  0  0
  -31.8598  -25.2988   16.9024 C   0  0  0  0  0  0  0  0  0  0  0  0
  -25.7333  -27.6703   17.9096 C   0  0  0  0  0  0  0  0  0  0  0  0
  -30.5300  -25.1359   17.3355 C   0  0  0  0  0  0  0  0  0  0  0  0
  -24.9827  -27.3507   19.0500 C   0  0  0  0  0  0  0  0  0  0  0  0
  -27.2304  -19.9958   19.2297 C   0  0  0  0  0  0  0  0  0  0  0  0
  -26.4591  -10.0669   22.1604 C   0  0  0  0  0  0  0  0  0  0  0  0
  -23.3338  -26.2518   17.6417 C   0  0  0  0  0  0  0  0  0  0  0  0
  -24.3098   -9.1711   21.8434 C   0  0  0  0  0  0  0  0  0  0  0  0
  -21.8400   -9.2723   20.5503 C   0  0  0  0  0  0  0  0  0  0  0  0
  -23.8797   -8.0889   21.0757 C   0  0  0  0  0  0  0  0  0  0  0  0
  -29.3310  -13.0039   21.1484 C   0  0  0  0  0  0  0  0  0  0  0  0
  -31.0707  -14.0707   20.3294 C   0  0  0  0  0  0  0  0  0  0  0  0
  -24.1524  -22.2164   17.2874 C   0  0  0  0  0  0  0  0  0  0  0  0
  -30.9686  -11.6552   19.6943 C   0  0  0  0  0  0  0  0  0  0  0  0
  -28.3269  -27.0186   19.6277 C   0  0  0  0  0  0  0  0  0  0  0  0
  -27.0746  -29.2334   21.6399 C   0  0  0  0  0  0  0  0  0  0  0  0
  -23.8089  -30.0843   22.9161 C   0  0  0  0  0  0  0  0  0  0  0  0
  -28.9553  -19.6155   21.0259 C   0  0  0  0  0  0  0  0  0  0  0  0
  -32.9433  -25.7838   17.8328 C   0  0  0  0  0  0  0  0  0  0  0  0
  -27.0082  -28.4588   18.0331 C   0  0  0  0  0  0  0  0  0  0  0  0
  -25.4309  -27.7489   20.4317 C   0  0  0  0  0  0  0  0  0  0  0  0
  -32.4074  -26.4749   19.0840 C   0  0  0  0  0  0  0  0  0  0  0  0
  -31.5169  -18.0569   22.9459 C   0  0  0  0  0  0  0  0  0  0  0  0
  -21.7474  -21.7852   19.7752 C   0  0  0  0  0  0  0  0  0  0  0  0
  -31.2799  -25.6562   19.7046 C   0  0  0  0  0  0  0  0  0  0  0  0
  -31.3554  -16.5690   22.6257 C   0  0  0  0  0  0  0  0  0  0  0  0
  -20.5669  -22.5619   19.1870 C   0  0  0  0  0  0  0  0  0  0  0  0
  -22.5275  -21.0561   18.6912 C   0  0  0  0  0  0  0  0  0  0  0  0
  -30.1680  -18.7699   23.0232 C   0  0  0  0  0  0  0  0  0  0  0  0
  -29.1402  -17.1004   21.5314 C   0  0  0  0  0  0  0  0  0  0  0  0
  -21.7891  -22.7603   16.9828 C   0  0  0  0  0  0  0  0  0  0  0  0
  -30.0999  -25.5185   18.7350 C   0  0  1  0  0  0  0  0  0  0  0  0
  -27.6511  -28.3431   19.4118 C   0  0  1  0  0  0  0  0  0  0  0  0
  -30.4751  -16.3531   21.3791 C   0  0  2  0  0  0  0  0  0  0  0  0
  -20.9761  -23.5247   18.0454 C   0  0  1  0  0  0  0  0  0  0  0  0
  -19.7052  -24.0945   17.3912 C   0  0  0  0  0  0  0  0  0  0  0  0
  -22.8966  -32.2743   23.7339 C   0  0  0  0  0  0  0  0  0  0  0  0
  -27.9172  -28.2253   24.3938 C   0  0  0  0  0  0  0  0  0  0  0  0
  -25.8360  -29.2545   25.3304 C   0  0  0  0  0  0  0  0  0  0  0  0
  -27.5618  -30.6967   24.2514 C   0  0  0  0  0  0  0  0  0  0  0  0
  -21.5396  -29.9798   21.0192 C   0  0  0  0  0  0  0  0  0  0  0  0
  -21.8037  -24.7015   18.5963 C   0  0  0  0  0  0  0  0  0  1  0  0
  -26.1233  -29.1969   22.8115 C   0  0  1  0  0  0  0  0  0  0  0  0
  -22.9857  -31.3095   22.5617 C   0  0  2  0  0  0  0  0  0  0  0  0
  -26.8581  -29.3242   24.1758 C   0  0  0  0  0  0  0  0  0  0  0  0
  -29.1984  -14.2547   21.5977 N   0  0  0  0  0  0  0  0  0  0  0  0
  -30.2714  -14.8791   21.0831 N   0  0  0  0  0  0  0  0  0  0  0  0
  -22.8888  -22.0239   17.6399 N   0  0  0  0  0  0  0  0  0  0  0  0
  -26.6873  -28.5133   20.5009 N   0  0  0  0  0  0  0  0  0  0  0  0
  -29.3909  -18.5239   21.8065 N   0  0  0  0  0  0  0  0  0  0  0  0
  -32.1909  -14.5371   19.7379 N   0  0  0  0  0  0  0  0  0  0  0  0
  -31.8479  -10.8156   20.3915 N   0  0  0  0  0  0  0  0  0  0  0  0
  -28.2534  -19.2579   19.8752 N   0  0  0  0  0  0  0  0  0  0  0  0
  -29.3212  -26.7381   18.7101 N   0  0  0  0  0  0  0  0  0  0  0  0
  -25.1335  -30.2403   22.5662 N   0  0  0  0  0  0  0  0  0  0  0  0
  -24.4766  -23.0914   16.3400 N   0  3  0  0  0  0  0  0  0  0  0  0
  -21.6028  -30.9104   22.1755 N   0  3  0  0  0  0  0  0  0  0  0  0
  -30.6484  -11.3665   18.5163 O   0  0  0  0  0  0  0  0  0  0  0  0
  -27.9735  -26.3047   20.5590 O   0  0  0  0  0  0  0  0  0  0  0  0
  -28.1195  -29.8830   21.7294 O   0  0  0  0  0  0  0  0  0  0  0  0
  -23.3261  -29.0898   23.4532 O   0  0  0  0  0  0  0  0  0  0  0  0
  -29.2113  -20.7809   21.3397 O   0  0  0  0  0  0  0  0  0  0  0  0
  -25.5352   -9.1221   22.4866 O   0  0  0  0  0  0  0  0  0  0  0  0
  -22.1696  -25.5585   17.5156 O   0  0  0  0  0  0  0  0  0  1  0  0
  -20.6534   -9.3203   19.9307 F   0  0  0  0  0  0  0  0  0  0  0  0
  -24.6480   -6.9974   20.9566 F   0  0  0  0  0  0  0  0  0  0  0  0
  1  2  1  0  0  0  0
  1  7  2  0  0  0  0
  2  8  2  0  0  0  0
  3 12  2  0  0  0  0
  3 19  1  0  0  0  0
  4 13  1  0  0  0  0
  4 19  2  0  0  0  0
  5 10  2  0  0  0  0
  5 20  1  0  0  0  0
  6 11  1  0  0  0  0
  6 20  2  0  0  0  0
  7 22  1  0  0  0  0
  8 24  1  0  0  0  0
  9 14  2  0  0  0  0
  9 23  1  0  0  0  0
 10 26  1  0  0  0  0
 11 26  2  0  0  0  0
 12 27  1  0  0  0  0
 13 27  2  0  0  0  0
 14 28  1  0  0  0  0
 15 16  2  0  0  0  0
 15 29  1  0  0  0  0
 16 30  1  0  0  0  0
 17 25  1  0  0  0  0
 17 28  2  0  0  0  0
 18 30  2  0  0  0  0
 18 31  1  0  0  0  0
 19 32  1  0  0  0  0
 20 34  1  0  0  0  0
 21 32  1  0  0  0  0
 21 33  2  0  0  0  0
 21 35  1  0  0  0  0
 22 24  2  0  0  0  0
 22 40  1  0  0  0  0
 23 25  2  0  0  0  0
 23 41  1  0  0  0  0
 24 53  1  0  0  0  0
 25 42  1  0  0  0  0
 26 74  1  0  0  0  0
 27 84  1  0  0  0  0
 28 85  1  0  0  0  0
 29 31  2  0  0  0  0
 29 84  1  0  0  0  0
 30 86  1  0  0  0  0
 31 87  1  0  0  0  0
 32 67  2  0  0  0  0
 33 68  1  0  0  0  0
 33 72  1  0  0  0  0
 34 69  1  0  0  0  0
 34 77  2  0  0  0  0
 35 73  1  0  0  0  0
 35 79  2  0  0  0  0
 36 54  1  0  0  0  0
 36 75  1  0  0  0  0
 36 80  2  0  0  0  0
 37 64  1  0  0  0  0
 37 70  1  0  0  0  0
 37 81  2  0  0  0  0
 38 65  1  0  0  0  0
 38 76  1  0  0  0  0
 38 82  2  0  0  0  0
 39 71  1  0  0  0  0
 39 74  1  0  0  0  0
 39 83  2  0  0  0  0
 40 43  1  0  0  0  0
 41 54  1  0  0  0  0
 42 70  1  0  0  0  0
 43 46  1  0  0  0  0
 44 47  1  0  0  0  0
 44 50  1  0  0  0  0
 45 48  1  0  0  0  0
 45 49  1  0  0  0  0
 46 53  1  0  0  0  0
 47 55  1  0  0  0  0
 48 56  1  0  0  0  0
 49 69  1  0  0  0  0
 50 71  1  0  0  0  0
 51 55  1  0  0  0  0
 51 71  1  0  0  0  0
 52 56  1  0  0  0  0
 52 69  1  0  0  0  0
 53 75  1  0  0  0  0
 54 70  1  0  0  0  0
 55 68  1  0  0  0  0
 56 57  1  0  0  0  0
 56 63  1  0  0  0  0
 58 65  1  0  0  0  0
 59 66  1  0  0  0  0
 60 66  1  0  0  0  0
 61 66  1  0  0  0  0
 62 78  1  0  0  0  0
 63 85  1  0  0  0  0
 64 66  1  0  0  0  0
 64 76  1  0  0  0  0
 65 78  1  0  0  0  0
 67 68  1  0  0  0  0
M  CHG  2  77   1  78   1
M  ISO  4  39 100  63 101  74 100  85 101
M  END
> <Batch ID>
0139

> <Smiles>
CNC(C)C(=O)NC(C(=O)N1Cc2cc([101O:1][101CH2:1]C3(C)CCCN(C(=N)c4ccc([100NH:0][100C:0](=O)N5CCCC(n6nc(-c7ccc(Oc8ccc(F)cc8F)cc7)c(C(N)=O)c6N)C5)cc4)C3)ccc2CC1C(=O)NC1CCCc2ccccc21)C(C)(C)C

> <Shape>
0.263

> <Color>
0.071

> <Negative vol penalty>
0.000

$$$$

  -OEChem-04052302483D

 87 95  0     1  0  0  0  0  0999 V2000
  -16.8011  -29.7578   22.7150 C   0  0  0  0  0  0  0  0  0  0  0  0
  -18.0203  -30.3196   23.0801 C   0  0  0  0  0  0  0  0  0  0  0  0
  -26.6434  -12.8275   20.3605 C   0  0  0  0  0  0  0  0  0  0  0  0
  -25.1096  -14.6843   20.1684 C   0  0  0  0  0  0  0  0  0  0  0  0
  -16.6384  -28.3733   22.7368 C   0  0  0  0  0  0  0  0  0  0  0  0
  -19.0773  -29.4971   23.4683 C   0  0  0  0  0  0  0  0  0  0  0  0
  -25.3621  -29.6264   19.9503 C   0  0  0  0  0  0  0  0  0  0  0  0
  -25.5834  -11.9353   20.1996 C   0  0  0  0  0  0  0  0  0  0  0  0
  -24.0496  -13.7921   20.0074 C   0  0  0  0  0  0  0  0  0  0  0  0
  -26.6631  -29.7448   19.4610 C   0  0  0  0  0  0  0  0  0  0  0  0
  -23.2289   -9.1640   20.1989 C   0  0  0  0  0  0  0  0  0  0  0  0
  -23.1678   -8.0658   21.0567 C   0  0  0  0  0  0  0  0  0  0  0  0
  -27.3884  -27.9649   20.9286 C   0  0  0  0  0  0  0  0  0  0  0  0
  -30.4788  -25.0592   22.0815 C   0  0  0  0  0  0  0  0  0  0  0  0
  -30.4256  -23.2170   23.6436 C   0  0  0  0  0  0  0  0  0  0  0  0
  -30.4000  -22.7863   21.2664 C   0  0  0  0  0  0  0  0  0  0  0  0
  -23.0326   -9.5553   22.9541 C   0  0  0  0  0  0  0  0  0  0  0  0
  -26.4065  -14.2021   20.3449 C   0  0  0  0  0  0  0  0  0  0  0  0
  -28.3037  -15.6828   19.4990 C   0  0  0  0  0  0  0  0  0  0  0  0
  -17.6969  -27.5329   23.1162 C   0  0  0  0  0  0  0  0  0  0  0  0
  -25.0657  -28.6652   20.9207 C   0  0  0  0  0  0  0  0  0  0  0  0
  -18.9282  -28.1001   23.4965 C   0  0  0  0  0  0  0  0  0  0  0  0
  -26.0845  -27.8333   21.4135 C   0  0  0  0  0  0  0  0  0  0  0  0
  -30.4696  -24.5887   23.3946 C   0  0  0  0  0  0  0  0  0  0  0  0
  -30.4440  -24.1580   21.0174 C   0  0  0  0  0  0  0  0  0  0  0  0
  -30.3908  -22.3157   22.5795 C   0  0  0  0  0  0  0  0  0  0  0  0
  -24.2865  -12.4175   20.0231 C   0  0  0  0  0  0  0  0  0  0  0  0
  -27.6738  -28.9162   19.9492 C   0  0  0  0  0  0  0  0  0  0  0  0
  -23.1919  -10.4579   20.7188 C   0  0  0  0  0  0  0  0  0  0  0  0
  -23.0696   -8.2614   22.4343 C   0  0  0  0  0  0  0  0  0  0  0  0
  -23.0937  -10.6535   22.0963 C   0  0  0  0  0  0  0  0  0  0  0  0
  -27.5009  -15.1243   20.5116 C   0  0  0  0  0  0  0  0  0  0  0  0
  -29.1922  -16.4873   20.1697 C   0  0  0  0  0  0  0  0  0  0  0  0
  -28.2508  -15.4917   18.0790 C   0  0  0  0  0  0  0  0  0  0  0  0
  -22.4572  -27.0788   23.1013 C   0  0  0  0  0  0  0  0  0  0  0  0
  -24.2461  -24.8144   22.0608 C   0  0  0  0  0  0  0  0  0  0  0  0
  -30.3331  -27.3591   17.4794 C   0  0  0  0  0  0  0  0  0  0  0  0
  -26.1878  -22.5791   20.3665 C   0  0  0  0  0  0  0  0  0  0  0  0
  -30.3315  -20.2892   24.0749 C   0  0  0  0  0  0  0  0  0  0  0  0
  -17.4589  -26.0445   23.1697 C   0  0  0  0  0  0  0  0  0  0  0  0
  -23.6914  -28.5437   21.5210 C   0  0  0  0  0  0  0  0  0  0  0  0
  -25.7266  -26.8370   22.4823 C   0  0  0  0  0  0  0  0  0  0  0  0
  -18.7446  -25.2240   23.2334 C   0  0  0  0  0  0  0  0  0  0  0  0
  -30.1873  -16.8876   25.1166 C   0  0  0  0  0  0  0  0  0  0  0  0
  -19.6998  -25.8081   24.2693 C   0  0  0  0  0  0  0  0  0  0  0  0
  -29.5415  -16.1715   23.9281 C   0  0  0  0  0  0  0  0  0  0  0  0
  -29.5920  -18.2778   25.3327 C   0  0  0  0  0  0  0  0  0  0  0  0
  -28.9488  -18.4293   22.9594 C   0  0  0  0  0  0  0  0  0  0  0  0
  -20.1062  -27.2398   23.8997 C   0  0  1  0  0  0  0  0  0  0  0  0
  -23.3100  -27.0932   21.8669 C   0  0  1  0  0  0  0  0  0  0  0  0
  -29.5609  -17.0506   22.6622 C   0  0  2  0  0  0  0  0  0  0  0  0
  -30.5066  -25.5524   24.5322 C   0  0  0  0  0  0  0  0  0  0  0  0
  -26.5882  -20.1151   20.1103 C   0  0  0  0  0  0  0  0  0  0  0  0
  -33.2426  -25.1616   16.9239 C   0  0  0  0  0  0  0  0  0  0  0  0
  -25.7192  -24.7798   24.7315 C   0  0  0  0  0  0  0  0  0  0  0  0
  -26.8635  -22.6792   23.9924 C   0  0  0  0  0  0  0  0  0  0  0  0
  -24.3827  -22.7215   24.2501 C   0  0  0  0  0  0  0  0  0  0  0  0
  -25.4821  -22.6455   17.4931 C   0  0  0  0  0  0  0  0  0  0  0  0
  -30.4541  -24.6669   19.5980 C   0  0  0  0  0  0  0  0  0  0  0  0
  -30.3485  -28.8792   17.5184 C   0  0  0  0  0  0  0  0  0  0  0  0
  -31.8618  -24.8308   19.0053 C   0  0  0  0  0  0  0  0  0  0  0  0
  -29.0796  -29.4710   18.1125 C   0  0  0  0  0  0  0  0  0  1  0  0
  -25.4478  -23.9374   22.3061 C   0  0  1  0  0  0  0  0  0  0  0  0
  -25.8341  -21.3267   19.5849 C   0  0  2  0  0  0  0  0  0  0  0  0
  -31.8906  -25.4167   17.5839 C   0  0  1  0  0  0  0  0  0  0  0  0
  -25.6051  -23.5532   23.8045 C   0  0  0  0  0  0  0  0  0  0  0  0
  -27.8488  -15.5387   21.7328 N   0  0  0  0  0  0  0  0  0  0  0  0
  -28.8800  -16.3661   21.4918 N   0  0  0  0  0  0  0  0  0  0  0  0
  -24.4409  -26.1972   22.1625 N   0  0  0  0  0  0  0  0  0  0  0  0
  -29.6484  -19.0548   24.0926 N   0  0  0  0  0  0  0  0  0  0  0  0
  -30.2023  -17.2793   19.7516 N   0  0  0  0  0  0  0  0  0  0  0  0
  -27.2757  -14.6312   17.5565 N   0  0  0  0  0  0  0  0  0  0  0  0
  -30.3463  -20.9222   22.8324 N   0  0  0  0  0  0  0  0  0  0  0  0
  -21.1060  -27.2273   22.8534 N   0  0  0  0  0  0  0  0  0  0  0  0
  -25.3103  -22.7961   21.4078 N   0  0  0  0  0  0  0  0  0  0  0  0
  -31.6128  -26.8349   17.5916 N   0  0  0  0  0  0  0  0  0  0  0  0
  -26.1724  -21.5025   18.1442 N   0  3  0  0  0  0  0  0  0  0  0  0
  -29.0553  -16.0542   17.2980 O   0  0  0  0  0  0  0  0  0  0  0  0
  -22.9851  -26.9416   24.1987 O   0  0  0  0  0  0  0  0  0  0  0  0
  -23.1616  -24.2901   21.7917 O   0  0  0  0  0  0  0  0  0  0  0  0
  -29.3044  -26.6986   17.3626 O   0  0  0  0  0  0  0  0  0  0  0  0
  -27.1487  -23.2915   20.0841 O   0  0  0  0  0  0  0  0  0  0  0  0
  -30.8875  -20.7377   25.0807 O   0  0  0  0  0  0  0  0  0  0  0  0
  -23.2519  -11.5472   19.8658 O   0  0  0  0  0  0  0  0  0  0  0  0
  -28.9408  -29.0341   19.4639 O   0  0  0  0  0  0  0  0  0  1  0  0
  -23.0093   -7.2066   23.2577 F   0  0  0  0  0  0  0  0  0  0  0  0
  -23.0566  -11.8941   22.6015 F   0  0  0  0  0  0  0  0  0  0  0  0
  1  2  1  0  0  0  0
  1  5  2  0  0  0  0
  2  6  2  0  0  0  0
  3  8  2  0  0  0  0
  3 18  1  0  0  0  0
  4  9  1  0  0  0  0
  4 18  2  0  0  0  0
  5 20  1  0  0  0  0
  6 22  1  0  0  0  0
  7 10  2  0  0  0  0
  7 21  1  0  0  0  0
  8 27  1  0  0  0  0
  9 27  2  0  0  0  0
 10 28  1  0  0  0  0
 11 12  2  0  0  0  0
 11 29  1  0  0  0  0
 12 30  1  0  0  0  0
 13 23  1  0  0  0  0
 13 28  2  0  0  0  0
 14 24  2  0  0  0  0
 14 25  1  0  0  0  0
 15 24  1  0  0  0  0
 15 26  2  0  0  0  0
 16 25  2  0  0  0  0
 16 26  1  0  0  0  0
 17 30  2  0  0  0  0
 17 31  1  0  0  0  0
 18 32  1  0  0  0  0
 19 32  1  0  0  0  0
 19 33  2  0  0  0  0
 19 34  1  0  0  0  0
 20 22  2  0  0  0  0
 20 40  1  0  0  0  0
 21 23  2  0  0  0  0
 21 41  1  0  0  0  0
 22 49  1  0  0  0  0
 23 42  1  0  0  0  0
 24 52  1  0  0  0  0
 25 59  1  0  0  0  0
 26 73  1  0  0  0  0
 27 84  1  0  0  0  0
 28 85  1  0  0  0  0
 29 31  2  0  0  0  0
 29 84  1  0  0  0  0
 30 86  1  0  0  0  0
 31 87  1  0  0  0  0
 32 67  2  0  0  0  0
 33 68  1  0  0  0  0
 33 71  1  0  0  0  0
 34 72  1  0  0  0  0
 34 78  2  0  0  0  0
 35 50  1  0  0  0  0
 35 74  1  0  0  0  0
 35 79  2  0  0  0  0
 36 63  1  0  0  0  0
 36 69  1  0  0  0  0
 36 80  2  0  0  0  0
 37 60  1  0  0  0  0
 37 76  1  0  0  0  0
 37 81  2  0  0  0  0
 38 64  1  0  0  0  0
 38 75  1  0  0  0  0
 38 82  2  0  0  0  0
 39 70  1  0  0  0  0
 39 73  1  0  0  0  0
 39 83  2  0  0  0  0
 40 43  1  0  0  0  0
 41 50  1  0  0  0  0
 42 69  1  0  0  0  0
 43 45  1  0  0  0  0
 44 46  1  0  0  0  0
 44 47  1  0  0  0  0
 45 49  1  0  0  0  0
 46 51  1  0  0  0  0
 47 70  1  0  0  0  0
 48 51  1  0  0  0  0
 48 70  1  0  0  0  0
 49 74  1  0  0  0  0
 50 69  1  0  0  0  0
 51 68  1  0  0  0  0
 53 64  1  0  0  0  0
 54 65  1  0  0  0  0
 55 66  1  0  0  0  0
 56 66  1  0  0  0  0
 57 66  1  0  0  0  0
 58 77  1  0  0  0  0
 59 61  1  0  0  0  0
 60 62  1  0  0  0  0
 61 65  1  0  0  0  0
 62 85  1  0  0  0  0
 63 66  1  0  0  0  0
 63 75  1  0  0  0  0
 64 77  1  0  0  0  0
 65 76  1  0  0  0  0
 67 68  1  0  0  0  0
M  CHG  1  77   1
M  ISO  4  39 100  62 101  73 100  85 101
M  END
> <Batch ID>
0139

> <Smiles>
CNC(C)C(=O)NC(C(=O)N1Cc2cc([101O:1][101CH2:1]CC(=O)NC(C)CCc3cc(C)cc([100NH:0][100C:0](=O)N4CCCC(n5nc(-c6ccc(Oc7ccc(F)cc7F)cc6)c(C(N)=O)c5N)C4)c3)ccc2CC1C(=O)NC1CCCc2ccccc21)C(C)(C)C

> <Shape>
0.215

> <Color>
0.069

> <Negative vol penalty>
0.000

$$$$

  -OEChem-04052302483D

 84 92  0     1  0  0  0  0  0999 V2000
  -33.4038  -25.5608   19.1782 C   0  0  0  0  0  0  0  0  0  0  0  0
  -32.6710  -24.5783   19.8362 C   0  0  0  0  0  0  0  0  0  0  0  0
  -32.6208  -17.5309   23.4598 C   0  0  0  0  0  0  0  0  0  0  0  0
  -23.0819   -9.8628   19.9409 C   0  0  0  0  0  0  0  0  0  0  0  0
  -23.8388   -9.8749   22.2353 C   0  0  0  0  0  0  0  0  0  0  0  0
  -31.8181  -18.3948   24.2046 C   0  0  0  0  0  0  0  0  0  0  0  0
  -33.0984  -26.9067   19.3762 C   0  0  0  0  0  0  0  0  0  0  0  0
  -31.6329  -24.9413   20.6936 C   0  0  0  0  0  0  0  0  0  0  0  0
  -26.3868  -21.9171   21.6095 C   0  0  0  0  0  0  0  0  0  0  0  0
  -32.0380  -16.6433   22.5552 C   0  0  0  0  0  0  0  0  0  0  0  0
  -22.3424   -8.7069   20.1909 C   0  0  0  0  0  0  0  0  0  0  0  0
  -23.0993   -8.7189   22.4853 C   0  0  0  0  0  0  0  0  0  0  0  0
  -25.9762  -21.0312   22.6047 C   0  0  0  0  0  0  0  0  0  0  0  0
  -19.8736   -7.9084   23.0844 C   0  0  0  0  0  0  0  0  0  0  0  0
  -19.1154   -7.8664   24.2543 C   0  0  0  0  0  0  0  0  0  0  0  0
  -29.8498  -17.4835   23.1405 C   0  0  0  0  0  0  0  0  0  0  0  0
  -24.9203  -22.8528   23.7820 C   0  0  0  0  0  0  0  0  0  0  0  0
  -20.3638   -5.9346   24.9940 C   0  0  0  0  0  0  0  0  0  0  0  0
  -23.8301  -10.4468   20.9631 C   0  0  0  0  0  0  0  0  0  0  0  0
  -30.4326  -18.3711   24.0450 C   0  0  0  0  0  0  0  0  0  0  0  0
  -24.1618  -12.9732   20.8413 C   0  0  0  0  0  0  0  0  0  0  0  0
  -32.0498  -27.2860   20.2290 C   0  0  0  0  0  0  0  0  0  0  0  0
  -26.0760  -23.2816   21.6987 C   0  0  0  0  0  0  0  0  0  0  0  0
  -31.3140  -26.2936   20.9043 C   0  0  0  0  0  0  0  0  0  0  0  0
  -25.3259  -23.7535   22.7853 C   0  0  0  0  0  0  0  0  0  0  0  0
  -30.6525  -16.6196   22.3955 C   0  0  0  0  0  0  0  0  0  0  0  0
  -22.3511   -8.1349   21.4631 C   0  0  0  0  0  0  0  0  0  0  0  0
  -25.2453  -21.4995   23.6926 C   0  0  0  0  0  0  0  0  0  0  0  0
  -20.8769   -6.9635   22.8691 C   0  0  0  0  0  0  0  0  0  0  0  0
  -19.3604   -6.8795   25.2092 C   0  0  0  0  0  0  0  0  0  0  0  0
  -21.1220   -5.9767   23.8240 C   0  0  0  0  0  0  0  0  0  0  0  0
  -24.5947  -11.6406   20.7053 C   0  0  0  0  0  0  0  0  0  0  0  0
  -25.2513  -13.7269   20.4788 C   0  0  0  0  0  0  0  0  0  0  0  0
  -29.5763  -19.2947   24.8414 C   0  0  0  0  0  0  0  0  0  0  0  0
  -22.8887  -13.4842   21.2582 C   0  0  0  0  0  0  0  0  0  0  0  0
  -27.7747  -25.9598   21.9117 C   0  0  0  0  0  0  0  0  0  0  0  0
  -24.8667  -27.3668   21.6186 C   0  0  0  0  0  0  0  0  0  0  0  0
  -21.4823  -27.1280   21.9872 C   0  0  0  0  0  0  0  0  0  0  0  0
  -30.7129  -14.7950   20.6596 C   0  0  0  0  0  0  0  0  0  0  0  0
  -31.7875  -28.7550   20.4481 C   0  0  0  0  0  0  0  0  0  0  0  0
  -26.5033  -24.2197   20.6034 C   0  0  0  0  0  0  0  0  0  0  0  0
  -24.9489  -25.2056   22.9178 C   0  0  0  0  0  0  0  0  0  0  0  0
  -30.4295  -29.0432   21.0828 C   0  0  0  0  0  0  0  0  0  0  0  0
  -29.6115  -12.3746   18.2920 C   0  0  0  0  0  0  0  0  0  0  0  0
  -30.1861  -28.1140   22.2678 C   0  0  0  0  0  0  0  0  0  0  0  0
  -28.1725  -12.0775   18.7200 C   0  0  0  0  0  0  0  0  0  0  0  0
  -30.5241  -12.6082   19.4946 C   0  0  0  0  0  0  0  0  0  0  0  0
  -28.6124  -13.3260   20.8728 C   0  0  0  0  0  0  0  0  0  0  0  0
  -30.1645  -26.6467   21.8230 C   0  0  1  0  0  0  0  0  0  0  0  0
  -26.5727  -25.6749   21.0563 C   0  0  1  0  0  0  0  0  0  0  0  0
  -27.6418  -13.1478   19.6939 C   0  0  2  0  0  0  0  0  0  0  0  0
  -19.3712  -28.4543   21.7012 C   0  0  0  0  0  0  0  0  0  0  0  0
  -25.5011  -28.9214   24.1663 C   0  0  0  0  0  0  0  0  0  0  0  0
  -23.0669  -29.4772   24.3502 C   0  0  0  0  0  0  0  0  0  0  0  0
  -24.3781  -30.2620   22.3786 C   0  0  0  0  0  0  0  0  0  0  0  0
  -25.1822  -18.3735   23.9992 C   0  0  0  0  0  0  0  0  0  0  0  0
  -25.4962  -19.0957   26.3756 C   0  0  0  0  0  0  0  0  0  0  0  0
  -20.4118  -25.2142   19.9997 C   0  0  0  0  0  0  0  0  0  0  0  0
  -28.1609  -18.8903   25.2255 C   0  0  0  0  0  0  0  0  0  0  0  0
  -27.1437  -19.8745   24.6391 C   0  0  0  0  0  0  0  0  0  0  0  0
  -23.7920  -27.8110   22.5814 C   0  0  1  0  0  0  0  0  0  0  0  0
  -20.3399  -27.4788   21.0510 C   0  0  2  0  0  0  0  0  0  0  0  0
  -24.1931  -29.0908   23.3679 C   0  0  0  0  0  0  0  0  0  0  0  0
  -25.6723  -19.5008   24.9087 C   0  0  0  0  0  0  0  0  0  1  0  0
  -25.8604  -11.5496   20.2887 N   0  0  0  0  0  0  0  0  0  0  0  0
  -30.0305  -20.4511   25.2103 N   0  0  0  0  0  0  0  0  0  0  0  0
  -26.2322  -12.8346   20.1598 N   0  0  0  0  0  0  0  0  0  0  0  0
  -25.3953  -26.0846   21.8244 N   0  0  0  0  0  0  0  0  0  0  0  0
  -29.9598  -13.6375   20.3704 N   0  0  0  0  0  0  0  0  0  0  0  0
  -25.4564  -15.0591   20.4049 N   0  0  0  0  0  0  0  0  0  0  0  0
  -21.8800  -12.5712   21.5949 N   0  0  0  0  0  0  0  0  0  0  0  0
  -30.0608  -15.7181   21.4764 N   0  0  0  0  0  0  0  0  0  0  0  0
  -28.8993  -26.3267   21.1975 N   0  0  0  0  0  0  0  0  0  0  0  0
  -22.5716  -27.9512   21.7944 N   0  0  0  0  0  0  0  0  0  0  0  0
  -19.5860  -26.2507   20.6710 N   0  3  0  0  0  0  0  0  0  0  0  0
  -22.6473  -14.7139   21.3141 O   0  0  0  0  0  0  0  0  0  0  0  0
  -27.6879  -25.8560   23.1296 O   0  0  0  0  0  0  0  0  0  0  0  0
  -25.2189  -28.1266   20.7130 O   0  0  0  0  0  0  0  0  0  0  0  0
  -21.4138  -26.2175   22.8098 O   0  0  0  0  0  0  0  0  0  0  0  0
  -31.8419  -14.9679   20.1933 O   0  0  0  0  0  0  0  0  0  0  0  0
  -21.6294   -7.0070   21.7075 O   0  0  0  0  0  0  0  0  0  0  0  0
  -24.8439  -20.6371   24.6657 O   0  0  0  0  0  0  0  0  0  1  0  0
  -18.6332   -6.8402   26.3333 F   0  0  0  0  0  0  0  0  0  0  0  0
  -22.0853   -5.0669   23.6234 F   0  0  0  0  0  0  0  0  0  0  0  0
  1  2  1  0  0  0  0
  1  7  2  0  0  0  0
  2  8  2  0  0  0  0
  3  6  2  0  0  0  0
  3 10  1  0  0  0  0
  4 11  2  0  0  0  0
  4 19  1  0  0  0  0
  5 12  1  0  0  0  0
  5 19  2  0  0  0  0
  6 20  1  0  0  0  0
  7 22  1  0  0  0  0
  8 24  1  0  0  0  0
  9 13  2  0  0  0  0
  9 23  1  0  0  0  0
 10 26  2  0  0  0  0
 11 27  1  0  0  0  0
 12 27  2  0  0  0  0
 13 28  1  0  0  0  0
 14 15  2  0  0  0  0
 14 29  1  0  0  0  0
 15 30  1  0  0  0  0
 16 20  2  0  0  0  0
 16 26  1  0  0  0  0
 17 25  1  0  0  0  0
 17 28  2  0  0  0  0
 18 30  2  0  0  0  0
 18 31  1  0  0  0  0
 19 32  1  0  0  0  0
 20 34  1  0  0  0  0
 21 32  1  0  0  0  0
 21 33  2  0  0  0  0
 21 35  1  0  0  0  0
 22 24  2  0  0  0  0
 22 40  1  0  0  0  0
 23 25  2  0  0  0  0
 23 41  1  0  0  0  0
 24 49  1  0  0  0  0
 25 42  1  0  0  0  0
 26 72  1  0  0  0  0
 27 81  1  0  0  0  0
 28 82  1  0  0  0  0
 29 31  2  0  0  0  0
 29 81  1  0  0  0  0
 30 83  1  0  0  0  0
 31 84  1  0  0  0  0
 32 65  2  0  0  0  0
 33 67  1  0  0  0  0
 33 70  1  0  0  0  0
 34 59  1  0  0  0  0
 34 66  2  0  0  0  0
 35 71  1  0  0  0  0
 35 76  2  0  0  0  0
 36 50  1  0  0  0  0
 36 73  1  0  0  0  0
 36 77  2  0  0  0  0
 37 61  1  0  0  0  0
 37 68  1  0  0  0  0
 37 78  2  0  0  0  0
 38 62  1  0  0  0  0
 38 74  1  0  0  0  0
 38 79  2  0  0  0  0
 39 69  1  0  0  0  0
 39 72  1  0  0  0  0
 39 80  2  0  0  0  0
 40 43  1  0  0  0  0
 41 50  1  0  0  0  0
 42 68  1  0  0  0  0
 43 45  1  0  0  0  0
 44 46  1  0  0  0  0
 44 47  1  0  0  0  0
 45 49  1  0  0  0  0
 46 51  1  0  0  0  0
 47 69  1  0  0  0  0
 48 51  1  0  0  0  0
 48 69  1  0  0  0  0
 49 73  1  0  0  0  0
 50 68  1  0  0  0  0
 51 67  1  0  0  0  0
 52 62  1  0  0  0  0
 53 63  1  0  0  0  0
 54 63  1  0  0  0  0
 55 63  1  0  0  0  0
 56 64  1  0  0  0  0
 57 64  1  0  0  0  0
 58 75  1  0  0  0  0
 59 60  1  0  0  0  0
 60 64  1  0  0  0  0
 61 63  1  0  0  0  0
 61 74  1  0  0  0  0
 62 75  1  0  0  0  0
 64 82  1  0  0  0  0
 65 67  1  0  0  0  0
M  CHG  1  75   1
M  ISO  4  39 100  64 101  72 100  82 101
M  END
> <Batch ID>
0139

> <Smiles>
CNC(C)C(=O)NC(C(=O)N1Cc2cc([101O:1][101C:1](C)(C)CCC(=N)c3cccc([100NH:0][100C:0](=O)N4CCCC(n5nc(-c6ccc(Oc7ccc(F)cc7F)cc6)c(C(N)=O)c5N)C4)c3)ccc2CC1C(=O)NC1CCCc2ccccc21)C(C)(C)C

> <Shape>
0.261

> <Color>
0.188

> <Negative vol penalty>
0.000

$$$$

  -OEChem-04052302483D

 84 92  0     1  0  0  0  0  0999 V2000
  -22.0367  -26.7688   19.5705 C   0  0  0  0  0  0  0  0  0  0  0  0
  -22.6906  -26.0986   20.5995 C   0  0  0  0  0  0  0  0  0  0  0  0
  -23.0700   -9.8963   19.9143 C   0  0  0  0  0  0  0  0  0  0  0  0
  -23.8867   -9.8161   22.1867 C   0  0  0  0  0  0  0  0  0  0  0  0
  -20.8252  -27.4125   19.8188 C   0  0  0  0  0  0  0  0  0  0  0  0
  -22.1339  -26.0728   21.8777 C   0  0  0  0  0  0  0  0  0  0  0  0
  -22.3011  -21.4674   23.9769 C   0  0  0  0  0  0  0  0  0  0  0  0
  -22.3479   -8.7230   20.1324 C   0  0  0  0  0  0  0  0  0  0  0  0
  -23.1645   -8.6428   22.4048 C   0  0  0  0  0  0  0  0  0  0  0  0
  -23.5220  -21.0538   24.5082 C   0  0  0  0  0  0  0  0  0  0  0  0
  -19.9632   -7.7740   23.0508 C   0  0  0  0  0  0  0  0  0  0  0  0
  -19.2363   -7.6733   24.2370 C   0  0  0  0  0  0  0  0  0  0  0  0
  -22.7475  -21.6284   26.7193 C   0  0  0  0  0  0  0  0  0  0  0  0
  -29.8320  -17.8408   22.9152 C   0  0  0  0  0  0  0  0  0  0  0  0
  -20.5212   -5.7240   24.8589 C   0  0  0  0  0  0  0  0  0  0  0  0
  -31.7714  -17.4791   21.6864 C   0  0  0  0  0  0  0  0  0  0  0  0
  -23.8394  -10.4428   20.9415 C   0  0  0  0  0  0  0  0  0  0  0  0
  -24.1448  -12.9754   20.9220 C   0  0  0  0  0  0  0  0  0  0  0  0
  -20.2484  -27.3864   21.0984 C   0  0  0  0  0  0  0  0  0  0  0  0
  -21.2966  -21.9756   24.8130 C   0  0  0  0  0  0  0  0  0  0  0  0
  -20.9141  -26.7180   22.1436 C   0  0  0  0  0  0  0  0  0  0  0  0
  -21.5139  -22.0454   26.1965 C   0  0  0  0  0  0  0  0  0  0  0  0
  -30.5323  -16.9795   22.0219 C   0  0  0  0  0  0  0  0  0  0  0  0
  -22.3951   -8.0963   21.3777 C   0  0  0  0  0  0  0  0  0  0  0  0
  -23.7464  -21.1369   25.8792 C   0  0  0  0  0  0  0  0  0  0  0  0
  -20.9691   -6.8497   22.7686 C   0  0  0  0  0  0  0  0  0  0  0  0
  -19.5153   -6.6483   25.1410 C   0  0  0  0  0  0  0  0  0  0  0  0
  -21.2481   -5.8247   23.6726 C   0  0  0  0  0  0  0  0  0  0  0  0
  -24.5861  -11.6545   20.7166 C   0  0  0  0  0  0  0  0  0  0  0  0
  -25.2175  -13.7552   20.5649 C   0  0  0  0  0  0  0  0  0  0  0  0
  -30.5627  -18.9659   23.2285 C   0  0  0  0  0  0  0  0  0  0  0  0
  -22.8784  -13.4547   21.3936 C   0  0  0  0  0  0  0  0  0  0  0  0
  -19.7881  -24.7618   25.0690 C   0  0  0  0  0  0  0  0  0  0  0  0
  -18.0104  -23.1553   27.2557 C   0  0  0  0  0  0  0  0  0  0  0  0
  -17.7829  -20.5643   29.4651 C   0  0  0  0  0  0  0  0  0  0  0  0
  -30.6720  -14.8705   20.6513 C   0  0  0  0  0  0  0  0  0  0  0  0
  -18.9608  -28.1368   21.3298 C   0  0  0  0  0  0  0  0  0  0  0  0
  -19.9754  -22.3927   24.2274 C   0  0  0  0  0  0  0  0  0  0  0  0
  -20.4605  -22.5646   27.1395 C   0  0  0  0  0  0  0  0  0  0  0  0
  -18.2514  -27.7449   22.6234 C   0  0  0  0  0  0  0  0  0  0  0  0
  -29.5310  -12.5442   18.2092 C   0  0  0  0  0  0  0  0  0  0  0  0
  -19.2418  -27.6992   23.7826 C   0  0  0  0  0  0  0  0  0  0  0  0
  -28.1065  -12.2140   18.6608 C   0  0  0  0  0  0  0  0  0  0  0  0
  -30.4727  -12.7346   19.3970 C   0  0  0  0  0  0  0  0  0  0  0  0
  -28.5913  -13.3721   20.8541 C   0  0  0  0  0  0  0  0  0  0  0  0
  -20.3297  -26.6465   23.5377 C   0  0  1  0  0  0  0  0  0  0  0  0
  -19.2130  -23.3743   25.1120 C   0  0  1  0  0  0  0  0  0  0  0  0
  -27.5918  -13.2354   19.6939 C   0  0  2  0  0  0  0  0  0  0  0  0
  -16.2207  -19.5308   31.1350 C   0  0  0  0  0  0  0  0  0  0  0  0
  -28.6774  -22.4125   24.6125 C   0  0  0  0  0  0  0  0  0  0  0  0
  -18.6446  -25.3932   29.2305 C   0  0  0  0  0  0  0  0  0  0  0  0
  -17.8932  -23.8806   31.0786 C   0  0  0  0  0  0  0  0  0  0  0  0
  -16.2826  -24.5748   29.3046 C   0  0  0  0  0  0  0  0  0  0  0  0
  -27.2129  -22.3391   27.2763 C   0  0  0  0  0  0  0  0  0  0  0  0
  -27.5066  -19.8784   27.4025 C   0  0  0  0  0  0  0  0  0  0  0  0
  -17.6945  -18.0090   27.9746 C   0  0  0  0  0  0  0  0  0  0  0  0
  -28.9163  -19.9131   24.6596 C   0  0  0  0  0  0  0  0  0  0  0  0
  -26.0884  -20.8657   25.5671 C   0  0  0  0  0  0  0  0  0  1  0  0
  -18.1058  -22.9156   28.7431 C   0  0  1  0  0  0  0  0  0  0  0  0
  -16.6992  -19.5257   29.6915 C   0  0  2  0  0  0  0  0  0  0  0  0
  -28.6577  -21.1670   25.5185 C   0  0  2  0  0  0  0  0  0  0  0  0
  -17.7523  -24.1830   29.5715 C   0  0  0  0  0  0  0  0  0  0  0  0
  -27.3677  -21.0625   26.4157 C   0  0  0  0  0  0  0  0  0  0  0  0
  -25.8412  -11.5947   20.2639 N   0  0  0  0  0  0  0  0  0  0  0  0
  -26.1978  -12.8878   20.1819 N   0  0  0  0  0  0  0  0  0  0  0  0
  -19.1876  -22.9660   26.5180 N   0  0  0  0  0  0  0  0  0  0  0  0
  -29.9221  -13.7190   20.3312 N   0  0  0  0  0  0  0  0  0  0  0  0
  -25.4084  -15.0915   20.5442 N   0  0  0  0  0  0  0  0  0  0  0  0
  -21.8873  -12.5176   21.7159 N   0  0  0  0  0  0  0  0  0  0  0  0
  -30.0330  -15.7504   21.5242 N   0  0  0  0  0  0  0  0  0  0  0  0
  -19.8181  -25.3194   23.8051 N   0  0  0  0  0  0  0  0  0  0  0  0
  -17.2591  -21.7617   29.0258 N   0  0  0  0  0  0  0  0  0  0  0  0
  -17.2120  -18.1636   29.3711 N   0  3  0  0  0  0  0  0  0  0  0  0
  -22.6274  -14.6782   21.5096 O   0  0  0  0  0  0  0  0  0  0  0  0
  -20.1746  -25.2880   26.1061 O   0  0  0  0  0  0  0  0  0  0  0  0
  -16.9294  -23.4910   26.7654 O   0  0  0  0  0  0  0  0  0  0  0  0
  -18.9746  -20.3373   29.6622 O   0  0  0  0  0  0  0  0  0  0  0  0
  -31.7868  -15.0751   20.1640 O   0  0  0  0  0  0  0  0  0  0  0  0
  -21.6904   -6.9515   21.5909 O   0  0  0  0  0  0  0  0  0  0  0  0
  -24.9374  -20.7345   26.4003 O   0  0  0  0  0  0  0  0  0  1  0  0
  -30.2011  -19.9998   24.0497 O   0  0  0  0  0  0  0  0  0  0  0  0
  -18.8182   -6.5526   26.2808 F   0  0  0  0  0  0  0  0  0  0  0  0
  -22.2141   -4.9345   23.4076 F   0  0  0  0  0  0  0  0  0  0  0  0
  -32.0863  -18.9807   22.4470 S   0  0  0  0  0  0  0  0  0  0  0  0
  1  2  1  0  0  0  0
  1  5  2  0  0  0  0
  2  6  2  0  0  0  0
  3  8  2  0  0  0  0
  3 17  1  0  0  0  0
  4  9  1  0  0  0  0
  4 17  2  0  0  0  0
  5 19  1  0  0  0  0
  6 21  1  0  0  0  0
  7 10  2  0  0  0  0
  7 20  1  0  0  0  0
  8 24  1  0  0  0  0
  9 24  2  0  0  0  0
 10 25  1  0  0  0  0
 11 12  2  0  0  0  0
 11 26  1  0  0  0  0
 12 27  1  0  0  0  0
 13 22  1  0  0  0  0
 13 25  2  0  0  0  0
 14 23  1  0  0  0  0
 14 31  2  0  0  0  0
 15 27  2  0  0  0  0
 15 28  1  0  0  0  0
 16 23  2  0  0  0  0
 16 84  1  0  0  0  0
 17 29  1  0  0  0  0
 18 29  1  0  0  0  0
 18 30  2  0  0  0  0
 18 32  1  0  0  0  0
 19 21  2  0  0  0  0
 19 37  1  0  0  0  0
 20 22  2  0  0  0  0
 20 38  1  0  0  0  0
 21 46  1  0  0  0  0
 22 39  1  0  0  0  0
 23 70  1  0  0  0  0
 24 79  1  0  0  0  0
 25 80  1  0  0  0  0
 26 28  2  0  0  0  0
 26 79  1  0  0  0  0
 27 82  1  0  0  0  0
 28 83  1  0  0  0  0
 29 64  2  0  0  0  0
 30 65  1  0  0  0  0
 30 68  1  0  0  0  0
 31 81  1  0  0  0  0
 31 84  1  0  0  0  0
 32 69  1  0  0  0  0
 32 74  2  0  0  0  0
 33 47  1  0  0  0  0
 33 71  1  0  0  0  0
 33 75  2  0  0  0  0
 34 59  1  0  0  0  0
 34 66  1  0  0  0  0
 34 76  2  0  0  0  0
 35 60  1  0  0  0  0
 35 72  1  0  0  0  0
 35 77  2  0  0  0  0
 36 67  1  0  0  0  0
 36 70  1  0  0  0  0
 36 78  2  0  0  0  0
 37 40  1  0  0  0  0
 38 47  1  0  0  0  0
 39 66  1  0  0  0  0
 40 42  1  0  0  0  0
 41 43  1  0  0  0  0
 41 44  1  0  0  0  0
 42 46  1  0  0  0  0
 43 48  1  0  0  0  0
 44 67  1  0  0  0  0
 45 48  1  0  0  0  0
 45 67  1  0  0  0  0
 46 71  1  0  0  0  0
 47 66  1  0  0  0  0
 48 65  1  0  0  0  0
 49 60  1  0  0  0  0
 50 61  1  0  0  0  0
 51 62  1  0  0  0  0
 52 62  1  0  0  0  0
 53 62  1  0  0  0  0
 54 63  1  0  0  0  0
 55 63  1  0  0  0  0
 56 73  1  0  0  0  0
 57 61  1  0  0  0  0
 57 81  1  0  0  0  0
 58 63  1  0  0  0  0
 58 80  1  0  0  0  0
 59 62  1  0  0  0  0
 59 72  1  0  0  0  0
 60 73  1  0  0  0  0
 61 63  1  0  0  0  0
 64 65  1  0  0  0  0
M  CHG  1  73   1
M  ISO  4  36 100  58 101  70 100  80 101
M  END
> <Batch ID>
0139

> <Smiles>
CNC(C)C(=O)NC(C(=O)N1Cc2cc([101O:1][101CH2:1]C(C)(C)C(C)COc3cc([100NH:0][100C:0](=O)N4CCCC(n5nc(-c6ccc(Oc7ccc(F)cc7F)cc6)c(C(N)=O)c5N)C4)cs3)ccc2CC1C(=O)NC1CCCc2ccccc21)C(C)(C)C

> <Shape>
0.215

> <Color>
0.205

> <Negative vol penalty>
0.000

$$$$

  -OEChem-04052302483D

 84 93  0     1  0  0  0  0  0999 V2000
  -16.3506  -27.1668   25.8424 C   0  0  0  0  0  0  0  0  0  0  0  0
  -17.5363  -26.4412   25.7881 C   0  0  0  0  0  0  0  0  0  0  0  0
  -32.7016  -18.9659   21.5773 C   0  0  0  0  0  0  0  0  0  0  0  0
  -22.7186  -10.6200   20.9553 C   0  0  0  0  0  0  0  0  0  0  0  0
  -24.4913   -9.0633   21.4763 C   0  0  0  0  0  0  0  0  0  0  0  0
  -16.2095  -28.3274   25.0828 C   0  0  0  0  0  0  0  0  0  0  0  0
  -18.5813  -26.8752   24.9732 C   0  0  0  0  0  0  0  0  0  0  0  0
  -31.7502  -19.7987   22.1660 C   0  0  0  0  0  0  0  0  0  0  0  0
  -24.5802  -26.3700   26.0973 C   0  0  0  0  0  0  0  0  0  0  0  0
  -32.3365  -17.6954   21.1319 C   0  0  0  0  0  0  0  0  0  0  0  0
  -21.8946   -9.9949   21.8912 C   0  0  0  0  0  0  0  0  0  0  0  0
  -23.6673   -8.4383   22.4123 C   0  0  0  0  0  0  0  0  0  0  0  0
  -25.5413  -25.4560   25.6675 C   0  0  0  0  0  0  0  0  0  0  0  0
  -21.1151   -6.2209   22.3974 C   0  0  0  0  0  0  0  0  0  0  0  0
  -21.0786   -4.8265   22.3999 C   0  0  0  0  0  0  0  0  0  0  0  0
  -30.0683  -18.0907   21.8642 C   0  0  0  0  0  0  0  0  0  0  0  0
  -26.1843  -26.9709   23.9037 C   0  0  0  0  0  0  0  0  0  0  0  0
  -21.8724   -4.8098   24.6817 C   0  0  0  0  0  0  0  0  0  0  0  0
  -24.0169  -10.1541   20.7478 C   0  0  0  0  0  0  0  0  0  0  0  0
  -24.6329  -10.9385   18.3998 C   0  0  0  0  0  0  0  0  0  0  0  0
  -30.4335  -19.3611   22.3095 C   0  0  0  0  0  0  0  0  0  0  0  0
  -17.2568  -28.7812   24.2656 C   0  0  0  0  0  0  0  0  0  0  0  0
  -24.4062  -27.5886   25.4257 C   0  0  0  0  0  0  0  0  0  0  0  0
  -18.4536  -28.0422   24.2009 C   0  0  0  0  0  0  0  0  0  0  0  0
  -25.2220  -27.8997   24.3285 C   0  0  0  0  0  0  0  0  0  0  0  0
  -31.0198  -17.2579   21.2754 C   0  0  0  0  0  0  0  0  0  0  0  0
  -22.3690   -8.9041   22.6197 C   0  0  0  0  0  0  0  0  0  0  0  0
  -26.3416  -25.7552   24.5688 C   0  0  0  0  0  0  0  0  0  0  0  0
  -21.5304   -6.9097   23.5371 C   0  0  0  0  0  0  0  0  0  0  0  0
  -21.4572   -4.1210   23.5420 C   0  0  0  0  0  0  0  0  0  0  0  0
  -21.9090   -6.2042   24.6792 C   0  0  0  0  0  0  0  0  0  0  0  0
  -24.8684  -10.7990   19.7807 C   0  0  0  0  0  0  0  0  0  0  0  0
  -25.7298  -11.6196   17.9315 C   0  0  0  0  0  0  0  0  0  0  0  0
  -23.5218  -10.4925   17.6109 C   0  0  0  0  0  0  0  0  0  0  0  0
  -22.0161  -28.9511   23.8335 C   0  0  0  0  0  0  0  0  0  0  0  0
  -24.0345  -31.4891   23.7507 C   0  0  0  0  0  0  0  0  0  0  0  0
  -27.2425  -32.6453   23.8877 C   0  0  0  0  0  0  0  0  0  0  0  0
  -29.3875  -15.3693   20.8840 C   0  0  0  0  0  0  0  0  0  0  0  0
  -17.0403  -30.0155   23.4265 C   0  0  0  0  0  0  0  0  0  0  0  0
  -23.3832  -28.5752   25.9182 C   0  0  0  0  0  0  0  0  0  0  0  0
  -25.0888  -29.2030   23.5855 C   0  0  0  0  0  0  0  0  0  0  0  0
  -18.3330  -30.6121   22.8757 C   0  0  0  0  0  0  0  0  0  0  0  0
  -30.2764  -11.8763   19.5677 C   0  0  0  0  0  0  0  0  0  0  0  0
  -29.1829  -21.5550   22.1367 C   0  0  0  0  0  0  0  0  0  0  0  0
  -29.7500  -20.5943   24.4115 C   0  0  0  0  0  0  0  0  0  0  0  0
  -19.2145  -29.5186   22.2807 C   0  0  0  0  0  0  0  0  0  0  0  0
  -28.1300  -22.4551   22.7828 C   0  0  0  0  0  0  0  0  0  0  0  0
  -28.6957  -21.4968   25.0519 C   0  0  0  0  0  0  0  0  0  0  0  0
  -29.0298  -11.5955   18.7320 C   0  0  0  0  0  0  0  0  0  0  0  0
  -30.5100  -13.3676   19.7733 C   0  0  0  0  0  0  0  0  0  0  0  0
  -28.0795  -13.3192   20.3617 C   0  0  0  0  0  0  0  0  0  0  0  0
  -29.3985  -20.2679   22.9503 C   0  0  0  0  0  0  0  0  0  0  0  0
  -19.6190  -28.4944   23.3479 C   0  0  1  0  0  0  0  0  0  0  0  0
  -22.9426  -29.5653   24.8445 C   0  0  1  0  0  0  0  0  0  0  0  0
  -28.4800  -22.7810   24.2406 C   0  0  0  0  0  0  0  0  0  0  0  0
  -27.8635  -12.5528   19.0475 C   0  0  2  0  0  0  0  0  0  0  0  0
  -28.5802  -34.7642   23.7525 C   0  0  0  0  0  0  0  0  0  0  0  0
  -23.6558  -31.5322   20.7234 C   0  0  0  0  0  0  0  0  0  0  0  0
  -25.6857  -32.9886   20.5602 C   0  0  0  0  0  0  0  0  0  0  0  0
  -23.6765  -33.7873   21.8043 C   0  0  0  0  0  0  0  0  0  0  0  0
  -28.2963  -32.2919   26.6306 C   0  0  0  0  0  0  0  0  0  0  0  0
  -27.3908  -23.6431   24.8762 C   0  0  0  0  0  0  0  0  0  1  0  0
  -25.1139  -31.9664   22.8094 C   0  0  1  0  0  0  0  0  0  0  0  0
  -27.8706  -33.7829   24.6724 C   0  0  2  0  0  0  0  0  0  0  0  0
  -24.5344  -32.5432   21.4869 C   0  0  0  0  0  0  0  0  0  0  0  0
  -26.0243  -11.3473   20.1646 N   0  0  0  0  0  0  0  0  0  0  0  0
  -26.5249  -11.8378   19.0179 N   0  0  0  0  0  0  0  0  0  0  0  0
  -24.0700  -30.1321   24.1015 N   0  0  0  0  0  0  0  0  0  0  0  0
  -29.3452  -14.0615   20.3416 N   0  0  0  0  0  0  0  0  0  0  0  0
  -26.0822  -12.0470   16.7004 N   0  0  0  0  0  0  0  0  0  0  0  0
  -23.5799   -9.2151   17.0371 N   0  0  0  0  0  0  0  0  0  0  0  0
  -30.6490  -15.9671   20.8221 N   0  0  0  0  0  0  0  0  0  0  0  0
  -20.6800  -29.0222   24.1787 N   0  0  0  0  0  0  0  0  0  0  0  0
  -25.9280  -32.9107   23.5671 N   0  0  0  0  0  0  0  0  0  0  0  0
  -28.8633  -33.2523   25.6491 N   0  3  0  0  0  0  0  0  0  0  0  0
  -22.5146  -11.2119   17.4070 O   0  0  0  0  0  0  0  0  0  0  0  0
  -22.4791  -28.4511   22.8150 O   0  0  0  0  0  0  0  0  0  0  0  0
  -23.1951  -32.2924   24.1653 O   0  0  0  0  0  0  0  0  0  0  0  0
  -27.8577  -31.6250   23.5858 O   0  0  0  0  0  0  0  0  0  0  0  0
  -28.3823  -15.9102   21.3499 O   0  0  0  0  0  0  0  0  0  0  0  0
  -21.5653   -8.2941   23.5333 O   0  0  0  0  0  0  0  0  0  0  0  0
  -27.2801  -24.8646   24.1468 O   0  0  0  0  0  0  0  0  0  1  0  0
  -21.4207   -2.7820   23.5448 F   0  0  0  0  0  0  0  0  0  0  0  0
  -22.3077   -6.8605   25.7775 F   0  0  0  0  0  0  0  0  0  0  0  0
  1  2  1  0  0  0  0
  1  6  2  0  0  0  0
  2  7  2  0  0  0  0
  3  8  2  0  0  0  0
  3 10  1  0  0  0  0
  4 11  2  0  0  0  0
  4 19  1  0  0  0  0
  5 12  1  0  0  0  0
  5 19  2  0  0  0  0
  6 22  1  0  0  0  0
  7 24  1  0  0  0  0
  8 21  1  0  0  0  0
  9 13  2  0  0  0  0
  9 23  1  0  0  0  0
 10 26  2  0  0  0  0
 11 27  1  0  0  0  0
 12 27  2  0  0  0  0
 13 28  1  0  0  0  0
 14 15  2  0  0  0  0
 14 29  1  0  0  0  0
 15 30  1  0  0  0  0
 16 21  2  0  0  0  0
 16 26  1  0  0  0  0
 17 25  1  0  0  0  0
 17 28  2  0  0  0  0
 18 30  2  0  0  0  0
 18 31  1  0  0  0  0
 19 32  1  0  0  0  0
 20 32  1  0  0  0  0
 20 33  2  0  0  0  0
 20 34  1  0  0  0  0
 21 52  1  0  0  0  0
 22 24  2  0  0  0  0
 22 39  1  0  0  0  0
 23 25  2  0  0  0  0
 23 40  1  0  0  0  0
 24 53  1  0  0  0  0
 25 41  1  0  0  0  0
 26 72  1  0  0  0  0
 27 81  1  0  0  0  0
 28 82  1  0  0  0  0
 29 31  2  0  0  0  0
 29 81  1  0  0  0  0
 30 83  1  0  0  0  0
 31 84  1  0  0  0  0
 32 66  2  0  0  0  0
 33 67  1  0  0  0  0
 33 70  1  0  0  0  0
 34 71  1  0  0  0  0
 34 76  2  0  0  0  0
 35 54  1  0  0  0  0
 35 73  1  0  0  0  0
 35 77  2  0  0  0  0
 36 63  1  0  0  0  0
 36 68  1  0  0  0  0
 36 78  2  0  0  0  0
 37 64  1  0  0  0  0
 37 74  1  0  0  0  0
 37 79  2  0  0  0  0
 38 69  1  0  0  0  0
 38 72  1  0  0  0  0
 38 80  2  0  0  0  0
 39 42  1  0  0  0  0
 40 54  1  0  0  0  0
 41 68  1  0  0  0  0
 42 46  1  0  0  0  0
 43 49  1  0  0  0  0
 43 50  1  0  0  0  0
 44 47  1  0  0  0  0
 44 52  1  0  0  0  0
 45 48  1  0  0  0  0
 45 52  1  0  0  0  0
 46 53  1  0  0  0  0
 47 55  1  0  0  0  0
 48 55  1  0  0  0  0
 49 56  1  0  0  0  0
 50 69  1  0  0  0  0
 51 56  1  0  0  0  0
 51 69  1  0  0  0  0
 53 73  1  0  0  0  0
 54 68  1  0  0  0  0
 55 62  1  0  0  0  0
 56 67  1  0  0  0  0
 57 64  1  0  0  0  0
 58 65  1  0  0  0  0
 59 65  1  0  0  0  0
 60 65  1  0  0  0  0
 61 75  1  0  0  0  0
 62 82  1  0  0  0  0
 63 65  1  0  0  0  0
 63 74  1  0  0  0  0
 64 75  1  0  0  0  0
 66 67  1  0  0  0  0
M  CHG  1  75   1
M  ISO  4  38 100  62 101  72 100  82 101
M  END
> <Batch ID>
0139

> <Smiles>
CNC(C)C(=O)NC(C(=O)N1Cc2cc([101O:1][101CH2:1]C3CCC(c4cccc([100NH:0][100C:0](=O)N5CCCC(n6nc(-c7ccc(Oc8ccc(F)cc8F)cc7)c(C(N)=O)c6N)C5)c4)CC3)ccc2CC1C(=O)NC1CCCc2ccccc21)C(C)(C)C

> <Shape>
0.258

> <Color>
0.109

> <Negative vol penalty>
0.000

$$$$

  -OEChem-04052302483D

 83 91  0     1  0  0  0  0  0999 V2000
  -29.3712  -23.2548   16.1072 C   0  0  0  0  0  0  0  0  0  0  0  0
  -28.0529  -23.4903   16.4840 C   0  0  0  0  0  0  0  0  0  0  0  0
  -26.6074  -13.1177   20.6827 C   0  0  0  0  0  0  0  0  0  0  0  0
  -24.2584  -13.3900   20.1875 C   0  0  0  0  0  0  0  0  0  0  0  0
  -30.4017  -23.4388   17.0282 C   0  0  0  0  0  0  0  0  0  0  0  0
  -27.7641  -23.9089   17.7824 C   0  0  0  0  0  0  0  0  0  0  0  0
  -23.3163  -27.7482   19.5095 C   0  0  0  0  0  0  0  0  0  0  0  0
  -26.3234  -11.9472   21.3861 C   0  0  0  0  0  0  0  0  0  0  0  0
  -23.9744  -12.2195   20.8909 C   0  0  0  0  0  0  0  0  0  0  0  0
  -22.0424  -27.5328   20.0335 C   0  0  0  0  0  0  0  0  0  0  0  0
  -24.1591   -8.8876   20.3569 C   0  0  0  0  0  0  0  0  0  0  0  0
  -23.2791   -7.9782   19.7703 C   0  0  0  0  0  0  0  0  0  0  0  0
  -22.9154  -27.8304   22.2625 C   0  0  0  0  0  0  0  0  0  0  0  0
  -21.7497  -22.4463   21.4029 C   0  0  0  0  0  0  0  0  0  0  0  0
  -20.7607  -20.7301   20.0198 C   0  0  0  0  0  0  0  0  0  0  0  0
  -19.3470  -22.2919   21.2026 C   0  0  0  0  0  0  0  0  0  0  0  0
  -21.7912   -8.1983   21.6611 C   0  0  0  0  0  0  0  0  0  0  0  0
  -25.5749  -13.8392   20.0834 C   0  0  0  0  0  0  0  0  0  0  0  0
  -26.1697  -15.1657   17.9872 C   0  0  0  0  0  0  0  0  0  0  0  0
  -30.1263  -23.8691   18.3358 C   0  0  0  0  0  0  0  0  0  0  0  0
  -24.4033  -27.9958   20.3602 C   0  0  0  0  0  0  0  0  0  0  0  0
  -28.7918  -24.0974   18.7222 C   0  0  0  0  0  0  0  0  0  0  0  0
  -24.2017  -28.0511   21.7467 C   0  0  0  0  0  0  0  0  0  0  0  0
  -21.8913  -21.3536   20.5477 C   0  0  0  0  0  0  0  0  0  0  0  0
  -25.0069  -11.4980   21.4902 C   0  0  0  0  0  0  0  0  0  0  0  0
  -21.8423  -27.5711   21.4103 C   0  0  0  0  0  0  0  0  0  0  0  0
  -23.8552   -9.4524   21.5956 C   0  0  0  0  0  0  0  0  0  0  0  0
  -20.4775  -22.9155   21.7305 C   0  0  0  0  0  0  0  0  0  0  0  0
  -22.0951   -7.6335   20.4224 C   0  0  0  0  0  0  0  0  0  0  0  0
  -19.4885  -21.1992   20.3473 C   0  0  0  0  0  0  0  0  0  0  0  0
  -22.6713   -9.1078   22.2477 C   0  0  0  0  0  0  0  0  0  0  0  0
  -25.8675  -15.0487   19.3572 C   0  0  0  0  0  0  0  0  0  0  0  0
  -26.3658  -16.5111   17.7925 C   0  0  0  0  0  0  0  0  0  0  0  0
  -26.2644  -14.1491   16.9806 C   0  0  0  0  0  0  0  0  0  0  0  0
  -27.1501  -26.5203   20.9777 C   0  0  0  0  0  0  0  0  0  0  0  0
  -27.7141  -29.1597   22.7771 C   0  0  0  0  0  0  0  0  0  0  0  0
  -26.4423  -31.8002   24.5255 C   0  0  0  0  0  0  0  0  0  0  0  0
  -24.4081  -21.3780   20.6536 C   0  0  0  0  0  0  0  0  0  0  0  0
  -31.2692  -24.0084   19.3100 C   0  0  0  0  0  0  0  0  0  0  0  0
  -25.7661  -28.2526   19.7778 C   0  0  0  0  0  0  0  0  0  0  0  0
  -25.3316  -28.3333   22.7018 C   0  0  0  0  0  0  0  0  0  0  0  0
  -30.9124  -24.8145   20.5562 C   0  0  0  0  0  0  0  0  0  0  0  0
  -27.8018  -20.4577   20.0939 C   0  0  0  0  0  0  0  0  0  0  0  0
  -29.5733  -24.3549   21.1240 C   0  0  0  0  0  0  0  0  0  0  0  0
  -27.7178  -18.9784   19.7109 C   0  0  0  0  0  0  0  0  0  0  0  0
  -26.7763  -20.8253   21.1648 C   0  0  0  0  0  0  0  0  0  0  0  0
  -25.3066  -18.9751   20.4678 C   0  0  0  0  0  0  0  0  0  0  0  0
  -28.4407  -24.5762   20.1142 C   0  0  1  0  0  0  0  0  0  0  0  0
  -26.8979  -27.9863   20.7656 C   0  0  1  0  0  0  0  0  0  0  0  0
  -26.2768  -18.5718   19.3454 C   0  0  2  0  0  0  0  0  0  0  0  0
  -27.1489  -33.7636   25.9195 C   0  0  0  0  0  0  0  0  0  0  0  0
  -18.0013  -26.8932   23.1704 C   0  0  0  0  0  0  0  0  0  0  0  0
  -28.2883  -27.2883   25.1176 C   0  0  0  0  0  0  0  0  0  0  0  0
  -28.0472  -29.2498   26.6547 C   0  0  0  0  0  0  0  0  0  0  0  0
  -29.8492  -29.2332   24.9298 C   0  0  0  0  0  0  0  0  0  0  0  0
  -25.2184  -33.7264   22.6411 C   0  0  0  0  0  0  0  0  0  0  0  0
  -20.5253  -26.7706   23.2215 C   0  0  0  0  0  0  0  0  0  1  0  0
  -19.1971  -24.8131   22.3750 C   0  0  0  0  0  0  0  0  0  0  0  0
  -27.4471  -29.5541   24.2096 C   0  0  1  0  0  0  0  0  0  0  0  0
  -26.7985  -33.2758   24.5223 C   0  0  2  0  0  0  0  0  0  0  0  0
  -19.2200  -25.9826   23.3634 C   0  0  2  0  0  0  0  0  0  0  0  0
  -28.3868  -28.8241   25.2103 C   0  0  0  0  0  0  0  0  0  0  0  0
  -25.8705  -16.2259   19.9882 N   0  0  0  0  0  0  0  0  0  0  0  0
  -26.1770  -17.0954   19.0103 N   0  0  0  0  0  0  0  0  0  0  0  0
  -26.6466  -28.5715   22.0842 N   0  0  0  0  0  0  0  0  0  0  0  0
  -25.4340  -20.4139   20.7478 N   0  0  0  0  0  0  0  0  0  0  0  0
  -26.6798  -17.2394   16.7001 N   0  0  0  0  0  0  0  0  0  0  0  0
  -26.0326  -12.8176   17.3518 N   0  0  0  0  0  0  0  0  0  0  0  0
  -23.1832  -20.8755   20.2158 N   0  0  0  0  0  0  0  0  0  0  0  0
  -28.0526  -25.9702   20.0875 N   0  0  0  0  0  0  0  0  0  0  0  0
  -27.5392  -31.0094   24.2563 N   0  0  0  0  0  0  0  0  0  0  0  0
  -25.6535  -34.0841   24.0158 N   0  3  0  0  0  0  0  0  0  0  0  0
  -26.5625  -14.4117   15.7908 O   0  0  0  0  0  0  0  0  0  0  0  0
  -26.5702  -25.9322   21.8830 O   0  0  0  0  0  0  0  0  0  0  0  0
  -28.8267  -29.3725   22.2886 O   0  0  0  0  0  0  0  0  0  0  0  0
  -25.3054  -31.3899   24.7485 O   0  0  0  0  0  0  0  0  0  0  0  0
  -24.6091  -22.5670   20.9140 O   0  0  0  0  0  0  0  0  0  0  0  0
  -24.7295  -10.3557   22.1763 O   0  0  0  0  0  0  0  0  0  0  0  0
  -20.6000  -27.3606   21.9243 O   0  0  0  0  0  0  0  0  0  1  0  0
  -20.3385  -23.9888   22.5712 O   0  0  0  0  0  0  0  0  0  0  0  0
  -21.2495   -6.7613   19.8582 F   0  0  0  0  0  0  0  0  0  0  0  0
  -18.4026  -20.5992   19.8421 F   0  0  0  0  0  0  0  0  0  0  0  0
  -22.3733   -9.6479   23.4373 F   0  0  0  0  0  0  0  0  0  0  0  0
  1  2  1  0  0  0  0
  1  5  2  0  0  0  0
  2  6  2  0  0  0  0
  3  8  2  0  0  0  0
  3 18  1  0  0  0  0
  4  9  1  0  0  0  0
  4 18  2  0  0  0  0
  5 20  1  0  0  0  0
  6 22  1  0  0  0  0
  7 10  2  0  0  0  0
  7 21  1  0  0  0  0
  8 25  1  0  0  0  0
  9 25  2  0  0  0  0
 10 26  1  0  0  0  0
 11 12  2  0  0  0  0
 11 27  1  0  0  0  0
 12 29  1  0  0  0  0
 13 23  1  0  0  0  0
 13 26  2  0  0  0  0
 14 24  1  0  0  0  0
 14 28  2  0  0  0  0
 15 24  2  0  0  0  0
 15 30  1  0  0  0  0
 16 28  1  0  0  0  0
 16 30  2  0  0  0  0
 17 29  2  0  0  0  0
 17 31  1  0  0  0  0
 18 32  1  0  0  0  0
 19 32  1  0  0  0  0
 19 33  2  0  0  0  0
 19 34  1  0  0  0  0
 20 22  2  0  0  0  0
 20 39  1  0  0  0  0
 21 23  2  0  0  0  0
 21 40  1  0  0  0  0
 22 48  1  0  0  0  0
 23 41  1  0  0  0  0
 24 69  1  0  0  0  0
 25 78  1  0  0  0  0
 26 79  1  0  0  0  0
 27 31  2  0  0  0  0
 27 78  1  0  0  0  0
 28 80  1  0  0  0  0
 29 81  1  0  0  0  0
 30 82  1  0  0  0  0
 31 83  1  0  0  0  0
 32 63  2  0  0  0  0
 33 64  1  0  0  0  0
 33 67  1  0  0  0  0
 34 68  1  0  0  0  0
 34 73  2  0  0  0  0
 35 49  1  0  0  0  0
 35 70  1  0  0  0  0
 35 74  2  0  0  0  0
 36 59  1  0  0  0  0
 36 65  1  0  0  0  0
 36 75  2  0  0  0  0
 37 60  1  0  0  0  0
 37 71  1  0  0  0  0
 37 76  2  0  0  0  0
 38 66  1  0  0  0  0
 38 69  1  0  0  0  0
 38 77  2  0  0  0  0
 39 42  1  0  0  0  0
 40 49  1  0  0  0  0
 41 65  1  0  0  0  0
 42 44  1  0  0  0  0
 43 45  1  0  0  0  0
 43 46  1  0  0  0  0
 44 48  1  0  0  0  0
 45 50  1  0  0  0  0
 46 66  1  0  0  0  0
 47 50  1  0  0  0  0
 47 66  1  0  0  0  0
 48 70  1  0  0  0  0
 49 65  1  0  0  0  0
 50 64  1  0  0  0  0
 51 60  1  0  0  0  0
 52 61  1  0  0  0  0
 53 62  1  0  0  0  0
 54 62  1  0  0  0  0
 55 62  1  0  0  0  0
 56 72  1  0  0  0  0
 57 61  1  0  0  0  0
 57 79  1  0  0  0  0
 58 61  1  0  0  0  0
 58 80  1  0  0  0  0
 59 62  1  0  0  0  0
 59 71  1  0  0  0  0
 60 72  1  0  0  0  0
 63 64  1  0  0  0  0
M  CHG  1  72   1
M  ISO  4  38 100  57 101  69 100  79 101
M  END
> <Batch ID>
0139

> <Smiles>
CNC(C)C(=O)NC(C(=O)N1Cc2cc([101O:1][101CH2:1]C(C)COc3cc(F)cc([100NH:0][100C:0](=O)N4CCCC(n5nc(-c6ccc(Oc7ccc(F)cc7F)cc6)c(C(N)=O)c5N)C4)c3)ccc2CC1C(=O)NC1CCCc2ccccc21)C(C)(C)C

> <Shape>
0.241

> <Color>
0.056

> <Negative vol penalty>
0.000

$$$$

  -OEChem-04052302483D

 89 98  0     1  0  0  0  0  0999 V2000
  -16.4381  -28.8326   23.2563 C   0  0  0  0  0  0  0  0  0  0  0  0
  -17.2482  -28.6577   22.1390 C   0  0  0  0  0  0  0  0  0  0  0  0
  -26.0682  -12.8254   22.1198 C   0  0  0  0  0  0  0  0  0  0  0  0
  -26.1658  -13.7233   19.8790 C   0  0  0  0  0  0  0  0  0  0  0  0
  -16.9107  -29.5525   24.3528 C   0  0  0  0  0  0  0  0  0  0  0  0
  -18.5311  -29.2036   22.1170 C   0  0  0  0  0  0  0  0  0  0  0  0
  -23.5033  -26.8151   19.4565 C   0  0  0  0  0  0  0  0  0  0  0  0
  -24.8927  -12.1476   21.7970 C   0  0  0  0  0  0  0  0  0  0  0  0
  -24.9902  -13.0455   19.5562 C   0  0  0  0  0  0  0  0  0  0  0  0
  -24.1233  -27.0637   18.2328 C   0  0  0  0  0  0  0  0  0  0  0  0
  -24.0147   -9.3301   20.1467 C   0  0  0  0  0  0  0  0  0  0  0  0
  -23.9026   -7.9991   20.5484 C   0  0  0  0  0  0  0  0  0  0  0  0
  -28.7652  -21.2931   18.4291 C   0  0  0  0  0  0  0  0  0  0  0  0
  -25.6555  -28.5748   19.3229 C   0  0  0  0  0  0  0  0  0  0  0  0
  -28.4636  -22.9094   20.1992 C   0  0  0  0  0  0  0  0  0  0  0  0
  -21.9503   -8.5583   21.8570 C   0  0  0  0  0  0  0  0  0  0  0  0
  -26.7048  -13.6133   21.1608 C   0  0  0  0  0  0  0  0  0  0  0  0
  -29.2378  -13.8402   21.3610 C   0  0  0  0  0  0  0  0  0  0  0  0
  -18.2036  -30.0993   24.3482 C   0  0  0  0  0  0  0  0  0  0  0  0
  -23.9486  -27.4538   20.6228 C   0  0  0  0  0  0  0  0  0  0  0  0
  -19.0210  -29.9327   23.2139 C   0  0  0  0  0  0  0  0  0  0  0  0
  -28.4282  -22.2635   17.4855 C   0  0  0  0  0  0  0  0  0  0  0  0
  -25.0411  -28.3305   20.5606 C   0  0  0  0  0  0  0  0  0  0  0  0
  -28.1266  -23.8799   19.2556 C   0  0  0  0  0  0  0  0  0  0  0  0
  -28.7828  -21.6160   19.7859 C   0  0  0  0  0  0  0  0  0  0  0  0
  -28.1090  -23.5569   17.8988 C   0  0  0  0  0  0  0  0  0  0  0  0
  -24.3536  -12.2576   20.5152 C   0  0  0  0  0  0  0  0  0  0  0  0
  -25.1977  -27.9459   18.1653 C   0  0  0  0  0  0  0  0  0  0  0  0
  -23.0945  -10.2753   20.6002 C   0  0  0  0  0  0  0  0  0  0  0  0
  -22.8704   -7.6132   21.4035 C   0  0  0  0  0  0  0  0  0  0  0  0
  -22.0623   -9.8894   21.4553 C   0  0  0  0  0  0  0  0  0  0  0  0
  -27.9189  -14.3142   21.4937 C   0  0  0  0  0  0  0  0  0  0  0  0
  -30.0214  -14.8754   21.8090 C   0  0  0  0  0  0  0  0  0  0  0  0
  -29.7122  -12.5771   20.8760 C   0  0  0  0  0  0  0  0  0  0  0  0
  -22.6522  -29.4694   22.7110 C   0  0  0  0  0  0  0  0  0  0  0  0
  -25.4365  -28.9951   24.3063 C   0  0  0  0  0  0  0  0  0  0  0  0
  -28.4125  -25.7485   16.6958 C   0  0  0  0  0  0  0  0  0  0  0  0
  -28.7295  -28.1071   24.1861 C   0  0  0  0  0  0  0  0  0  0  0  0
  -29.1883  -20.7837   22.1289 C   0  0  0  0  0  0  0  0  0  0  0  0
  -18.6533  -30.9100   25.5378 C   0  0  0  0  0  0  0  0  0  0  0  0
  -23.2862  -27.1544   21.9396 C   0  0  0  0  0  0  0  0  0  0  0  0
  -25.5705  -29.0262   21.7871 C   0  0  0  0  0  0  0  0  0  0  0  0
  -20.1621  -31.1369   25.5851 C   0  0  0  0  0  0  0  0  0  0  0  0
  -27.2495  -20.8893   14.3852 C   0  0  0  0  0  0  0  0  0  0  0  0
  -29.9493  -18.5913   24.8291 C   0  0  0  0  0  0  0  0  0  0  0  0
  -20.6796  -31.5719   24.2177 C   0  0  0  0  0  0  0  0  0  0  0  0
  -29.6408  -17.2021   24.2661 C   0  0  0  0  0  0  0  0  0  0  0  0
  -28.0642  -20.3760   15.5853 C   0  0  0  0  0  0  0  0  0  0  0  0
  -27.1327  -22.2399   15.1132 C   0  0  0  0  0  0  0  0  0  0  0  0
  -28.9607  -19.6405   24.3235 C   0  0  0  0  0  0  0  0  0  0  0  0
  -28.5025  -18.3107   22.3009 C   0  0  0  0  0  0  0  0  0  0  0  0
  -20.4276  -30.4885   23.1622 C   0  0  1  0  0  0  0  0  0  0  0  0
  -23.4943  -28.2537   22.9767 C   0  0  1  0  0  0  0  0  0  0  0  0
  -29.5106  -17.2324   22.7306 C   0  0  2  0  0  0  0  0  0  0  0  0
  -28.4144  -21.8638   15.9338 C   0  0  0  0  0  0  0  0  0  0  0  0
  -27.7906  -25.2575   19.7283 C   0  0  0  0  0  0  0  0  0  0  0  0
  -29.7174  -22.3502   15.2833 C   0  0  0  0  0  0  0  0  0  0  0  0
  -31.0197  -27.5358   25.0382 C   0  0  0  0  0  0  0  0  0  0  0  0
  -25.7764  -32.0269   24.3609 C   0  0  0  0  0  0  0  0  0  0  0  0
  -28.1853  -31.6764   24.9461 C   0  0  0  0  0  0  0  0  0  0  0  0
  -26.3987  -30.8689   26.4884 C   0  0  0  0  0  0  0  0  0  0  0  0
  -28.0292  -25.2479   24.4915 C   0  0  0  0  0  0  0  0  0  0  0  0
  -27.7169  -26.5085   15.5750 C   0  0  0  0  0  0  0  0  0  0  0  0
  -27.8455  -28.0207   15.7227 C   0  0  0  0  0  0  0  0  0  0  0  0
  -27.1928  -28.5180   17.0042 C   0  0  0  0  0  0  0  0  0  1  0  0
  -26.7944  -29.6548   24.3063 C   0  0  1  0  0  0  0  0  0  0  0  0
  -29.5475  -27.1541   25.0388 C   0  0  2  0  0  0  0  0  0  0  0  0
  -26.7777  -31.0453   25.0018 C   0  0  0  0  0  0  0  0  0  0  0  0
  -27.8638  -15.5539   21.9876 N   0  0  0  0  0  0  0  0  0  0  0  0
  -29.1579  -15.8677   22.1692 N   0  0  0  0  0  0  0  0  0  0  0  0
  -24.8853  -28.7055   23.0501 N   0  0  0  0  0  0  0  0  0  0  0  0
  -28.8932  -19.6141   22.8607 N   0  0  0  0  0  0  0  0  0  0  0  0
  -31.3580  -15.0245   21.9262 N   0  0  0  0  0  0  0  0  0  0  0  0
  -28.7716  -11.6270   20.4551 N   0  0  0  0  0  0  0  0  0  0  0  0
  -27.7670  -24.5394   16.9394 N   0  0  0  0  0  0  0  0  0  0  0  0
  -29.1230  -20.6295   20.7445 N   0  0  0  0  0  0  0  0  0  0  0  0
  -21.3984  -29.4228   23.2901 N   0  0  0  0  0  0  0  0  0  0  0  0
  -27.7139  -28.6960   24.9093 N   0  0  0  0  0  0  0  0  0  0  0  0
  -29.4229  -25.7612   24.5238 N   0  3  0  0  0  0  0  0  0  0  0  0
  -30.9332  -12.2930   20.8329 O   0  0  0  0  0  0  0  0  0  0  0  0
  -23.1068  -30.3827   22.0321 O   0  0  0  0  0  0  0  0  0  0  0  0
  -24.8884  -28.7395   25.3814 O   0  0  0  0  0  0  0  0  0  0  0  0
  -29.4021  -26.1933   17.2677 O   0  0  0  0  0  0  0  0  0  0  0  0
  -28.9698  -28.3116   22.9982 O   0  0  0  0  0  0  0  0  0  0  0  0
  -29.5041  -21.8369   22.6883 O   0  0  0  0  0  0  0  0  0  0  0  0
  -23.2066  -11.5962   20.1999 O   0  0  0  0  0  0  0  0  0  0  0  0
  -25.8042  -28.1909   16.9720 O   0  0  0  0  0  0  0  0  0  1  0  0
  -22.7621   -6.3346   21.7880 F   0  0  0  0  0  0  0  0  0  0  0  0
  -21.1746  -10.7927   21.8934 F   0  0  0  0  0  0  0  0  0  0  0  0
  1  2  1  0  0  0  0
  1  5  2  0  0  0  0
  2  6  2  0  0  0  0
  3  8  2  0  0  0  0
  3 17  1  0  0  0  0
  4  9  1  0  0  0  0
  4 17  2  0  0  0  0
  5 19  1  0  0  0  0
  6 21  1  0  0  0  0
  7 10  2  0  0  0  0
  7 20  1  0  0  0  0
  8 27  1  0  0  0  0
  9 27  2  0  0  0  0
 10 28  1  0  0  0  0
 11 12  2  0  0  0  0
 11 29  1  0  0  0  0
 12 30  1  0  0  0  0
 13 22  1  0  0  0  0
 13 25  2  0  0  0  0
 14 23  1  0  0  0  0
 14 28  2  0  0  0  0
 15 24  2  0  0  0  0
 15 25  1  0  0  0  0
 16 30  2  0  0  0  0
 16 31  1  0  0  0  0
 17 32  1  0  0  0  0
 18 32  1  0  0  0  0
 18 33  2  0  0  0  0
 18 34  1  0  0  0  0
 19 21  2  0  0  0  0
 19 40  1  0  0  0  0
 20 23  2  0  0  0  0
 20 41  1  0  0  0  0
 21 52  1  0  0  0  0
 22 26  2  0  0  0  0
 22 55  1  0  0  0  0
 23 42  1  0  0  0  0
 24 26  1  0  0  0  0
 24 56  1  0  0  0  0
 25 76  1  0  0  0  0
 26 75  1  0  0  0  0
 27 86  1  0  0  0  0
 28 87  1  0  0  0  0
 29 31  2  0  0  0  0
 29 86  1  0  0  0  0
 30 88  1  0  0  0  0
 31 89  1  0  0  0  0
 32 69  2  0  0  0  0
 33 70  1  0  0  0  0
 33 73  1  0  0  0  0
 34 74  1  0  0  0  0
 34 80  2  0  0  0  0
 35 53  1  0  0  0  0
 35 77  1  0  0  0  0
 35 81  2  0  0  0  0
 36 66  1  0  0  0  0
 36 71  1  0  0  0  0
 36 82  2  0  0  0  0
 37 63  1  0  0  0  0
 37 75  1  0  0  0  0
 37 83  2  0  0  0  0
 38 67  1  0  0  0  0
 38 78  1  0  0  0  0
 38 84  2  0  0  0  0
 39 72  1  0  0  0  0
 39 76  1  0  0  0  0
 39 85  2  0  0  0  0
 40 43  1  0  0  0  0
 41 53  1  0  0  0  0
 42 71  1  0  0  0  0
 43 46  1  0  0  0  0
 44 48  1  0  0  0  0
 44 49  1  0  0  0  0
 45 47  1  0  0  0  0
 45 50  1  0  0  0  0
 46 52  1  0  0  0  0
 47 54  1  0  0  0  0
 48 55  1  0  0  0  0
 49 55  1  0  0  0  0
 50 72  1  0  0  0  0
 51 54  1  0  0  0  0
 51 72  1  0  0  0  0
 52 77  1  0  0  0  0
 53 71  1  0  0  0  0
 54 70  1  0  0  0  0
 55 57  1  0  0  0  0
 58 67  1  0  0  0  0
 59 68  1  0  0  0  0
 60 68  1  0  0  0  0
 61 68  1  0  0  0  0
 62 79  1  0  0  0  0
 63 64  1  0  0  0  0
 64 65  1  0  0  0  0
 65 87  1  0  0  0  0
 66 68  1  0  0  0  0
 66 78  1  0  0  0  0
 67 79  1  0  0  0  0
 69 70  1  0  0  0  0
M  CHG  1  79   1
M  ISO  4  39 100  65 101  76 100  87 101
M  END
> <Batch ID>
0139

> <Smiles>
CNC(C)C(=O)NC(C(=O)N1Cc2cc([101O:1][101CH2:1]CCC(=O)Nc3c(C)cc([100NH:0][100C:0](=O)N4CCCC(n5nc(-c6ccc(Oc7ccc(F)cc7F)cc6)c(C(N)=O)c5N)C4)cc3C3(C)CCC3)ccc2CC1C(=O)NC1CCCc2ccccc21)C(C)(C)C

> <Shape>
0.279

> <Color>
0.078

> <Negative vol penalty>
0.000

$$$$

  -OEChem-04052302483D

 86 95  0     1  0  0  0  0  0999 V2000
  -28.2581  -34.5928   25.9634 C   0  0  0  0  0  0  0  0  0  0  0  0
  -28.2486  -33.2533   25.5878 C   0  0  0  0  0  0  0  0  0  0  0  0
  -32.1271  -19.0343   20.3200 C   0  0  0  0  0  0  0  0  0  0  0  0
  -23.4394   -9.8678   21.9529 C   0  0  0  0  0  0  0  0  0  0  0  0
  -24.1977  -11.1646   23.8450 C   0  0  0  0  0  0  0  0  0  0  0  0
  -31.2405  -20.0880   20.5417 C   0  0  0  0  0  0  0  0  0  0  0  0
  -27.0715  -35.3248   25.9608 C   0  0  0  0  0  0  0  0  0  0  0  0
  -27.0521  -32.6447   25.2105 C   0  0  0  0  0  0  0  0  0  0  0  0
  -27.5436  -29.8118   21.0418 C   0  0  0  0  0  0  0  0  0  0  0  0
  -31.6379  -17.7547   20.0570 C   0  0  0  0  0  0  0  0  0  0  0  0
  -22.8268   -8.9622   22.8190 C   0  0  0  0  0  0  0  0  0  0  0  0
  -23.5851  -10.2590   24.7112 C   0  0  0  0  0  0  0  0  0  0  0  0
  -28.1275  -28.5547   21.1915 C   0  0  0  0  0  0  0  0  0  0  0  0
  -19.9861   -8.7936   24.6451 C   0  0  0  0  0  0  0  0  0  0  0  0
  -18.6913   -8.3763   24.3369 C   0  0  0  0  0  0  0  0  0  0  0  0
  -29.3754  -18.5827   20.2375 C   0  0  0  0  0  0  0  0  0  0  0  0
  -25.9380  -27.5423   21.1737 C   0  0  0  0  0  0  0  0  0  0  0  0
  -19.4584   -6.0887   24.2122 C   0  0  0  0  0  0  0  0  0  0  0  0
  -24.1249  -10.9690   22.4659 C   0  0  0  0  0  0  0  0  0  0  0  0
  -29.8646  -19.8622   20.5004 C   0  0  0  0  0  0  0  0  0  0  0  0
  -24.1877  -13.0614   21.0079 C   0  0  0  0  0  0  0  0  0  0  0  0
  -25.8615  -34.7275   25.5740 C   0  0  0  0  0  0  0  0  0  0  0  0
  -26.1496  -29.9449   20.9678 C   0  0  0  0  0  0  0  0  0  0  0  0
  -25.8479  -33.3690   25.2041 C   0  0  0  0  0  0  0  0  0  0  0  0
  -25.3390  -28.8020   21.0205 C   0  0  0  0  0  0  0  0  0  0  0  0
  -30.2620  -17.5289   20.0158 C   0  0  0  0  0  0  0  0  0  0  0  0
  -22.8996   -9.1578   24.1981 C   0  0  0  0  0  0  0  0  0  0  0  0
  -27.3245  -27.4199   21.2604 C   0  0  0  0  0  0  0  0  0  0  0  0
  -21.0170   -7.8586   24.7368 C   0  0  0  0  0  0  0  0  0  0  0  0
  -18.4275   -7.0238   24.1205 C   0  0  0  0  0  0  0  0  0  0  0  0
  -20.7532   -6.5061   24.5204 C   0  0  0  0  0  0  0  0  0  0  0  0
  -24.7584  -11.9045   21.5717 C   0  0  0  0  0  0  0  0  0  0  0  0
  -25.1905  -13.5990   20.2386 C   0  0  0  0  0  0  0  0  0  0  0  0
  -28.9270  -20.9751   20.7340 C   0  0  0  0  0  0  0  0  0  0  0  0
  -22.8690  -13.6017   21.1655 C   0  0  0  0  0  0  0  0  0  0  0  0
  -23.9387  -31.4010   22.7272 C   0  0  0  0  0  0  0  0  0  0  0  0
  -21.9713  -30.4743   20.3204 C   0  0  0  0  0  0  0  0  0  0  0  0
  -21.3576  -28.3177   17.7476 C   0  0  0  0  0  0  0  0  0  0  0  0
  -30.5094  -15.0742   19.5066 C   0  0  0  0  0  0  0  0  0  0  0  0
  -24.5963  -35.5464   25.6326 C   0  0  0  0  0  0  0  0  0  0  0  0
  -25.5366  -31.3055   20.7795 C   0  0  0  0  0  0  0  0  0  0  0  0
  -23.8384  -28.8890   20.9255 C   0  0  0  0  0  0  0  0  0  0  0  0
  -23.4341  -34.9278   24.8599 C   0  0  0  0  0  0  0  0  0  0  0  0
  -29.6624  -11.6797   18.8456 C   0  0  0  0  0  0  0  0  0  0  0  0
  -28.3857  -22.6498   17.5694 C   0  0  0  0  0  0  0  0  0  0  0  0
  -23.3102  -33.4418   25.1812 C   0  0  0  0  0  0  0  0  0  0  0  0
  -28.2641  -11.5307   19.4495 C   0  0  0  0  0  0  0  0  0  0  0  0
  -27.1370  -23.0289   18.3586 C   0  0  0  0  0  0  0  0  0  0  0  0
  -28.9388  -21.4467   18.3228 C   0  0  0  0  0  0  0  0  0  0  0  0
  -30.5489  -12.5961   19.6870 C   0  0  0  0  0  0  0  0  0  0  0  0
  -28.5763  -13.7659   20.5869 C   0  0  0  0  0  0  0  0  0  0  0  0
  -24.5742  -32.6801   24.7646 C   0  0  1  0  0  0  0  0  0  0  0  0
  -24.0812  -31.3729   21.2317 C   0  0  1  0  0  0  0  0  0  0  0  0
  -27.6264  -12.9036   19.7397 C   0  0  2  0  0  0  0  0  0  0  0  0
  -27.5352  -22.8034   19.8204 C   0  0  2  0  0  0  0  0  0  0  0  0
  -19.6499  -27.7863   15.9874 C   0  0  0  0  0  0  0  0  0  0  0  0
  -20.1924  -29.1862   22.4385 C   0  0  0  0  0  0  0  0  0  0  0  0
  -19.0679  -27.8973   20.6102 C   0  0  0  0  0  0  0  0  0  0  0  0
  -18.9553  -30.3892   20.6283 C   0  0  0  0  0  0  0  0  0  0  0  0
  -23.2844  -28.8272   15.5598 C   0  0  0  0  0  0  0  0  0  0  0  0
  -28.2064  -24.0152   20.4494 C   0  0  0  0  0  0  0  0  0  0  0  0
  -27.1956  -25.0827   20.8399 C   0  0  0  0  0  0  0  0  0  1  0  0
  -21.1336  -29.2512   20.0352 C   0  0  1  0  0  0  0  0  0  0  0  0
  -20.9186  -28.5583   16.3145 C   0  0  2  0  0  0  0  0  0  0  0  0
  -19.8655  -29.1792   20.9318 C   0  0  0  0  0  0  0  0  0  0  0  0
  -26.0254  -11.7174   21.1927 N   0  0  0  0  0  0  0  0  0  0  0  0
  -26.2591  -12.7638   20.3825 N   0  0  0  0  0  0  0  0  0  0  0  0
  -28.5095  -21.6983   19.7094 N   0  0  0  0  0  0  0  0  0  0  0  0
  -23.2862  -30.2422   20.7482 N   0  0  0  0  0  0  0  0  0  0  0  0
  -29.8817  -13.8793   19.9177 N   0  0  0  0  0  0  0  0  0  0  0  0
  -25.2536  -14.6998   19.4598 N   0  0  0  0  0  0  0  0  0  0  0  0
  -21.9634  -12.9232   21.9925 N   0  0  0  0  0  0  0  0  0  0  0  0
  -29.7659  -16.2288   19.7487 N   0  0  0  0  0  0  0  0  0  0  0  0
  -24.5841  -32.4615   23.3340 N   0  0  0  0  0  0  0  0  0  0  0  0
  -20.8529  -29.2735   18.6037 N   0  0  0  0  0  0  0  0  0  0  0  0
  -28.5144  -21.2331   21.9715 N   0  3  0  0  0  0  0  0  0  0  0  0
  -21.9865  -28.1306   15.3670 N   0  3  0  0  0  0  0  0  0  0  0  0
  -22.4994  -14.6460   20.5771 O   0  0  0  0  0  0  0  0  0  0  0  0
  -23.2900  -30.5261   23.2889 O   0  0  0  0  0  0  0  0  0  0  0  0
  -21.4794  -31.5945   20.1624 O   0  0  0  0  0  0  0  0  0  0  0  0
  -22.0734  -27.3739   18.0755 O   0  0  0  0  0  0  0  0  0  0  0  0
  -31.6124  -15.0709   18.9540 O   0  0  0  0  0  0  0  0  0  0  0  0
  -22.3018   -8.2744   25.0436 O   0  0  0  0  0  0  0  0  0  0  0  0
  -27.8918  -26.1917   21.4071 O   0  0  0  0  0  0  0  0  0  1  0  0
  -17.1838   -6.6230   23.8261 F   0  0  0  0  0  0  0  0  0  0  0  0
  -21.7393   -5.6029   24.6082 F   0  0  0  0  0  0  0  0  0  0  0  0
  1  2  1  0  0  0  0
  1  7  2  0  0  0  0
  2  8  2  0  0  0  0
  3  6  2  0  0  0  0
  3 10  1  0  0  0  0
  4 11  2  0  0  0  0
  4 19  1  0  0  0  0
  5 12  1  0  0  0  0
  5 19  2  0  0  0  0
  6 20  1  0  0  0  0
  7 22  1  0  0  0  0
  8 24  1  0  0  0  0
  9 13  2  0  0  0  0
  9 23  1  0  0  0  0
 10 26  2  0  0  0  0
 11 27  1  0  0  0  0
 12 27  2  0  0  0  0
 13 28  1  0  0  0  0
 14 15  2  0  0  0  0
 14 29  1  0  0  0  0
 15 30  1  0  0  0  0
 16 20  2  0  0  0  0
 16 26  1  0  0  0  0
 17 25  1  0  0  0  0
 17 28  2  0  0  0  0
 18 30  2  0  0  0  0
 18 31  1  0  0  0  0
 19 32  1  0  0  0  0
 20 34  1  0  0  0  0
 21 32  1  0  0  0  0
 21 33  2  0  0  0  0
 21 35  1  0  0  0  0
 22 24  2  0  0  0  0
 22 40  1  0  0  0  0
 23 25  2  0  0  0  0
 23 41  1  0  0  0  0
 24 52  1  0  0  0  0
 25 42  1  0  0  0  0
 26 73  1  0  0  0  0
 27 83  1  0  0  0  0
 28 84  1  0  0  0  0
 29 31  2  0  0  0  0
 29 83  1  0  0  0  0
 30 85  1  0  0  0  0
 31 86  1  0  0  0  0
 32 66  2  0  0  0  0
 33 67  1  0  0  0  0
 33 71  1  0  0  0  0
 34 68  1  0  0  0  0
 34 76  2  0  0  0  0
 35 72  1  0  0  0  0
 35 78  2  0  0  0  0
 36 53  1  0  0  0  0
 36 74  1  0  0  0  0
 36 79  2  0  0  0  0
 37 63  1  0  0  0  0
 37 69  1  0  0  0  0
 37 80  2  0  0  0  0
 38 64  1  0  0  0  0
 38 75  1  0  0  0  0
 38 81  2  0  0  0  0
 39 70  1  0  0  0  0
 39 73  1  0  0  0  0
 39 82  2  0  0  0  0
 40 43  1  0  0  0  0
 41 53  1  0  0  0  0
 42 69  1  0  0  0  0
 43 46  1  0  0  0  0
 44 47  1  0  0  0  0
 44 50  1  0  0  0  0
 45 48  1  0  0  0  0
 45 49  1  0  0  0  0
 46 52  1  0  0  0  0
 47 54  1  0  0  0  0
 48 55  1  0  0  0  0
 49 68  1  0  0  0  0
 50 70  1  0  0  0  0
 51 54  1  0  0  0  0
 51 70  1  0  0  0  0
 52 74  1  0  0  0  0
 53 69  1  0  0  0  0
 54 67  1  0  0  0  0
 55 61  1  0  0  0  0
 55 68  1  0  0  0  0
 56 64  1  0  0  0  0
 57 65  1  0  0  0  0
 58 65  1  0  0  0  0
 59 65  1  0  0  0  0
 60 77  1  0  0  0  0
 61 62  1  0  0  0  0
 62 84  1  0  0  0  0
 63 65  1  0  0  0  0
 63 75  1  0  0  0  0
 64 77  1  0  0  0  0
 66 67  1  0  0  0  0
M  CHG  2  76   1  77   1
M  ISO  4  39 100  62 101  73 100  84 101
M  END
> <Batch ID>
0139

> <Smiles>
CNC(C)C(=O)NC(C(=O)N1Cc2cc([101O:1][101CH2:1]CC3CCCN3C(=N)c3cccc([100NH:0][100C:0](=O)N4CCCC(n5nc(-c6ccc(Oc7ccc(F)cc7F)cc6)c(C(N)=O)c5N)C4)c3)ccc2CC1C(=O)NC1CCCc2ccccc21)C(C)(C)C

> <Shape>
0.308

> <Color>
0.137

> <Negative vol penalty>
0.000

$$$$

  -OEChem-04052302483D

 90 99  0     1  0  0  0  0  0999 V2000
  -26.8768  -23.5487   24.0513 C   0  0  0  0  0  0  0  0  0  0  0  0
  -27.3138  -23.4986   22.7315 C   0  0  0  0  0  0  0  0  0  0  0  0
  -29.0766  -26.4334   20.5028 C   0  0  0  0  0  0  0  0  0  0  0  0
  -26.8950  -25.6147   21.1410 C   0  0  0  0  0  0  0  0  0  0  0  0
  -27.1724  -22.5012   24.9226 C   0  0  0  0  0  0  0  0  0  0  0  0
  -28.0478  -22.4013   22.2825 C   0  0  0  0  0  0  0  0  0  0  0  0
  -26.0641  -14.8578   20.1658 C   0  0  0  0  0  0  0  0  0  0  0  0
  -28.4918  -27.5902   19.9876 C   0  0  0  0  0  0  0  0  0  0  0  0
  -26.3102  -26.7715   20.6258 C   0  0  0  0  0  0  0  0  0  0  0  0
  -24.7900  -14.2929   20.2275 C   0  0  0  0  0  0  0  0  0  0  0  0
  -24.2766  -29.6707   19.8031 C   0  0  0  0  0  0  0  0  0  0  0  0
  -23.2972  -30.3006   20.5711 C   0  0  0  0  0  0  0  0  0  0  0  0
  -23.5664  -13.9793   22.1449 C   0  0  0  0  0  0  0  0  0  0  0  0
  -25.7126  -14.5070   21.1691 C   0  0  0  0  0  0  0  0  0  0  0  0
  -23.8298  -16.4758   20.6283 C   0  0  0  0  0  0  0  0  0  0  0  0
  -24.3670  -16.2588   22.1476 C   0  0  0  0  0  0  0  0  0  0  0  0
  -24.8972  -30.6146   22.3539 C   0  0  0  0  0  0  0  0  0  0  0  0
  -28.2782  -25.4456   21.0795 C   0  0  0  0  0  0  0  0  0  0  0  0
  -24.7303  -13.5713   21.4934 C   0  0  0  0  0  0  0  0  0  0  0  0
  -29.8360  -24.1663   22.6429 C   0  0  0  0  0  0  0  0  0  0  0  0
  -27.9021  -21.3860   24.4815 C   0  0  0  0  0  0  0  0  0  0  0  0
  -26.2243  -16.2376   20.3199 C   0  0  0  0  0  0  0  0  0  0  0  0
  -28.3547  -21.3385   23.1491 C   0  0  0  0  0  0  0  0  0  0  0  0
  -25.1022  -17.0490   20.5550 C   0  0  0  0  0  0  0  0  0  0  0  0
  -23.3847  -15.3231   22.4719 C   0  0  0  0  0  0  0  0  0  0  0  0
  -25.5310  -15.8508   21.4962 C   0  0  0  0  0  0  0  0  0  0  0  0
  -27.1086  -27.7592   20.0491 C   0  0  0  0  0  0  0  0  0  0  0  0
  -23.6757  -15.0999   20.4584 C   0  0  0  0  0  0  0  0  0  0  0  0
  -25.5662  -29.5128   20.3106 C   0  0  0  0  0  0  0  0  0  0  0  0
  -23.6075  -30.7725   21.8465 C   0  0  0  0  0  0  0  0  0  0  0  0
  -25.8766  -29.9848   21.5860 C   0  0  0  0  0  0  0  0  0  0  0  0
  -28.8817  -24.2502   21.6114 C   0  0  0  0  0  0  0  0  0  0  0  0
  -30.0845  -22.8217   22.7723 C   0  0  0  0  0  0  0  0  0  0  0  0
  -24.9201  -12.1660   21.1513 C   0  0  0  0  0  0  0  0  0  0  0  0
  -30.4435  -25.2105   23.4152 C   0  0  0  0  0  0  0  0  0  0  0  0
  -28.5846  -19.1527   20.4068 C   0  0  0  0  0  0  0  0  0  0  0  0
  -26.0861  -20.0743   18.8841 C   0  0  0  0  0  0  0  0  0  0  0  0
  -27.1411  -19.3355   15.7253 C   0  0  0  0  0  0  0  0  0  0  0  0
  -26.5147  -18.1769   21.4165 C   0  0  0  0  0  0  0  0  0  0  0  0
  -28.2380  -20.2999   25.4726 C   0  0  0  0  0  0  0  0  0  0  0  0
  -27.5843  -16.8814   20.3221 C   0  0  0  0  0  0  0  0  0  0  0  0
  -25.3261  -18.5238   20.7493 C   0  0  0  0  0  0  0  0  0  0  0  0
  -28.6991  -18.9999   24.8186 C   0  0  0  0  0  0  0  0  0  0  0  0
  -29.7413  -19.1838   19.6001 C   0  0  0  0  0  0  0  0  0  0  0  0
  -23.1530   -9.1579   22.1874 C   0  0  0  0  0  0  0  0  0  0  0  0
  -29.7304  -19.2857   23.7316 C   0  0  0  0  0  0  0  0  0  0  0  0
  -30.2598  -20.2413   20.5719 C   0  0  0  0  0  0  0  0  0  0  0  0
  -21.9885  -10.1271   22.3153 C   0  0  0  0  0  0  0  0  0  0  0  0
  -24.0455   -9.8545   21.1773 C   0  0  0  0  0  0  0  0  0  0  0  0
  -28.7923  -18.1987   20.2710 C   0  0  0  0  0  0  0  0  0  0  0  0
  -27.7710  -20.3067   21.1480 C   0  0  0  0  0  0  0  0  0  0  0  0
  -29.1321  -20.1537   22.6180 C   0  0  1  0  0  0  0  0  0  0  0  0
  -27.5877  -18.2867   19.6943 C   0  0  1  0  0  0  0  0  0  0  0  0
  -29.1893  -20.7164   21.5743 C   0  0  2  0  0  0  0  0  0  0  0  0
  -22.6541  -11.5122   22.2373 C   0  0  2  0  0  0  0  0  0  0  0  0
  -26.6138  -16.8828   15.6679 C   0  0  0  0  0  0  0  0  0  0  0  0
  -21.1862  -14.5535   23.4309 C   0  0  0  0  0  0  0  0  0  0  0  0
  -21.3534  -16.8054   22.3188 C   0  0  0  0  0  0  0  0  0  0  0  0
  -22.3533  -16.4335   24.5645 C   0  0  0  0  0  0  0  0  0  0  0  0
  -28.9100  -22.3232   18.4086 C   0  0  0  0  0  0  0  0  0  0  0  0
  -29.6726  -19.9396   18.3373 C   0  0  0  0  0  0  0  0  0  0  0  0
  -28.2600  -20.7392   20.2315 C   0  0  0  0  0  0  0  0  0  0  0  0
  -29.5557  -17.5454   13.8325 C   0  0  0  0  0  0  0  0  0  0  0  0
  -21.7170  -12.5078   21.5614 C   0  0  0  0  0  0  0  0  0  0  0  0
  -22.3487  -13.1304   20.3257 C   0  0  0  0  0  0  0  0  0  1  0  0
  -27.2149  -20.4304   17.9502 C   0  0  1  0  0  0  0  0  0  0  0  0
  -27.4192  -18.0097   15.0401 C   0  0  2  0  0  0  0  0  0  0  0  0
  -22.1401  -15.7597   23.1684 C   0  0  0  0  0  0  0  0  0  0  0  0
  -28.4979  -20.8687   18.7112 C   0  0  0  0  0  0  0  0  0  0  0  0
  -28.5468  -23.0541   21.1202 N   0  0  0  0  0  0  0  0  0  0  0  0
  -29.2949  -22.2059   21.8462 N   0  0  0  0  0  0  0  0  0  0  0  0
  -23.9080  -11.2692   21.4974 N   0  0  0  0  0  0  0  0  0  0  0  0
  -26.3103  -19.0155   19.7725 N   0  0  0  0  0  0  0  0  0  0  0  0
  -27.6717  -18.8546   20.9602 N   0  0  0  0  0  0  0  0  0  0  0  0
  -30.8992  -22.1178   23.5867 N   0  0  0  0  0  0  0  0  0  0  0  0
  -29.8210  -25.6095   24.6058 N   0  0  0  0  0  0  0  0  0  0  0  0
  -26.5290  -16.8020   21.1672 N   0  0  0  0  0  0  0  0  0  0  0  0
  -28.3013  -19.3531   21.7444 N   0  0  0  0  0  0  0  0  0  0  0  0
  -27.4025  -19.2762   17.0778 N   0  0  0  0  0  0  0  0  0  0  0  0
  -28.8659  -17.6671   15.1426 N   0  3  0  0  0  0  0  0  0  0  0  0
  -25.9506  -11.8166   20.5747 O   0  0  0  0  0  0  0  0  0  0  0  0
  -31.4981  -25.7842   23.0516 O   0  0  0  0  0  0  0  0  0  0  0  0
  -29.5419  -19.6052   19.7900 O   0  0  0  0  0  0  0  0  0  0  0  0
  -25.0311  -20.7121   18.8260 O   0  0  0  0  0  0  0  0  0  0  0  0
  -26.7362  -20.3259   15.1204 O   0  0  0  0  0  0  0  0  0  0  0  0
  -25.5997  -18.7713   21.9903 O   0  0  0  0  0  0  0  0  0  0  0  0
  -26.5377  -28.8880   19.5466 O   0  0  0  0  0  0  0  0  0  0  0  0
  -22.4343  -14.5424   20.5131 O   0  0  0  0  0  0  0  0  0  1  0  0
  -22.6673  -31.3787   22.5832 F   0  0  0  0  0  0  0  0  0  0  0  0
  -27.1141  -29.8370   22.0784 F   0  0  0  0  0  0  0  0  0  0  0  0
  1  2  1  0  0  0  0
  1  5  2  0  0  0  0
  2  6  2  0  0  0  0
  3  8  2  0  0  0  0
  3 18  1  0  0  0  0
  4  9  1  0  0  0  0
  4 18  2  0  0  0  0
  5 21  1  0  0  0  0
  6 23  1  0  0  0  0
  7 10  2  0  0  0  0
  7 22  1  0  0  0  0
  8 27  1  0  0  0  0
  9 27  2  0  0  0  0
 10 28  1  0  0  0  0
 11 12  2  0  0  0  0
 11 29  1  0  0  0  0
 12 30  1  0  0  0  0
 13 19  2  0  0  0  0
 13 25  1  0  0  0  0
 14 19  1  0  0  0  0
 14 26  2  0  0  0  0
 15 24  1  0  0  0  0
 15 28  2  0  0  0  0
 16 25  2  0  0  0  0
 16 26  1  0  0  0  0
 17 30  2  0  0  0  0
 17 31  1  0  0  0  0
 18 32  1  0  0  0  0
 19 34  1  0  0  0  0
 20 32  1  0  0  0  0
 20 33  2  0  0  0  0
 20 35  1  0  0  0  0
 21 23  2  0  0  0  0
 21 40  1  0  0  0  0
 22 24  2  0  0  0  0
 22 41  1  0  0  0  0
 23 52  1  0  0  0  0
 24 42  1  0  0  0  0
 25 68  1  0  0  0  0
 26 77  1  0  0  0  0
 27 87  1  0  0  0  0
 28 88  1  0  0  0  0
 29 31  2  0  0  0  0
 29 87  1  0  0  0  0
 30 89  1  0  0  0  0
 31 90  1  0  0  0  0
 32 70  2  0  0  0  0
 33 71  1  0  0  0  0
 33 75  1  0  0  0  0
 34 72  1  0  0  0  0
 34 81  2  0  0  0  0
 35 76  1  0  0  0  0
 35 82  2  0  0  0  0
 36 53  1  0  0  0  0
 36 78  1  0  0  0  0
 36 83  2  0  0  0  0
 37 66  1  0  0  0  0
 37 73  1  0  0  0  0
 37 84  2  0  0  0  0
 38 67  1  0  0  0  0
 38 79  1  0  0  0  0
 38 85  2  0  0  0  0
 39 74  1  0  0  0  0
 39 77  1  0  0  0  0
 39 86  2  0  0  0  0
 40 43  1  0  0  0  0
 41 53  1  0  0  0  0
 42 73  1  0  0  0  0
 43 46  1  0  0  0  0
 44 47  1  0  0  0  0
 44 50  1  0  0  0  0
 45 48  1  0  0  0  0
 45 49  1  0  0  0  0
 46 52  1  0  0  0  0
 47 54  1  0  0  0  0
 48 55  1  0  0  0  0
 49 72  1  0  0  0  0
 50 74  1  0  0  0  0
 51 54  1  0  0  0  0
 51 74  1  0  0  0  0
 52 78  1  0  0  0  0
 53 73  1  0  0  0  0
 54 71  1  0  0  0  0
 55 64  1  0  0  0  0
 55 72  1  0  0  0  0
 56 67  1  0  0  0  0
 57 68  1  0  0  0  0
 58 68  1  0  0  0  0
 59 68  1  0  0  0  0
 60 69  1  0  0  0  0
 61 69  1  0  0  0  0
 62 69  1  0  0  0  0
 63 80  1  0  0  0  0
 64 65  1  0  0  0  0
 65 88  1  0  0  0  0
 66 69  1  0  0  0  0
 66 79  1  0  0  0  0
 67 80  1  0  0  0  0
 70 71  1  0  0  0  0
M  CHG  1  80   1
M  ISO  4  39 100  65 101  77 100  88 101
M  END
> <Batch ID>
0139

> <Smiles>
CNC(C)C(=O)NC(C(=O)N1Cc2cc([101O:1][101CH2:1]CC3CCCN3C(=O)c3cc([100NH:0][100C:0](=O)N4CCCC(n5nc(-c6ccc(Oc7ccc(F)cc7F)cc6)c(C(N)=O)c5N)C4)cc(C(C)(C)C)c3)ccc2CC1C(=O)NC1CCCc2ccccc21)C(C)(C)C

> <Shape>
0.221

> <Color>
0.067

> <Negative vol penalty>
0.000

$$$$

  -OEChem-04052302483D

 83 92  0     1  0  0  0  0  0999 V2000
  -24.5154  -23.1456   10.5642 C   0  0  0  0  0  0  0  0  0  0  0  0
  -24.9762  -22.7015   11.7995 C   0  0  0  0  0  0  0  0  0  0  0  0
  -23.1758   -9.7358   19.9289 C   0  0  0  0  0  0  0  0  0  0  0  0
  -23.8709   -9.8270   22.2410 C   0  0  0  0  0  0  0  0  0  0  0  0
  -24.5071  -24.5092   10.2737 C   0  0  0  0  0  0  0  0  0  0  0  0
  -25.4302  -23.6209   12.7446 C   0  0  0  0  0  0  0  0  0  0  0  0
  -31.0749  -19.2461   20.5829 C   0  0  0  0  0  0  0  0  0  0  0  0
  -24.8491  -23.2369   18.8290 C   0  0  0  0  0  0  0  0  0  0  0  0
  -30.9534  -17.8573   20.6013 C   0  0  0  0  0  0  0  0  0  0  0  0
  -22.4653   -8.5640   20.1887 C   0  0  0  0  0  0  0  0  0  0  0  0
  -23.1603   -8.6551   22.5008 C   0  0  0  0  0  0  0  0  0  0  0  0
  -25.7241  -22.8176   19.8302 C   0  0  0  0  0  0  0  0  0  0  0  0
  -19.9459   -7.7602   23.0367 C   0  0  0  0  0  0  0  0  0  0  0  0
  -19.1585   -7.7233   24.1874 C   0  0  0  0  0  0  0  0  0  0  0  0
  -29.2717  -18.0333   22.3209 C   0  0  0  0  0  0  0  0  0  0  0  0
  -26.3682  -25.1097   20.2187 C   0  0  0  0  0  0  0  0  0  0  0  0
  -20.4446   -5.8495   25.0073 C   0  0  0  0  0  0  0  0  0  0  0  0
  -23.8787  -10.3673   20.9550 C   0  0  0  0  0  0  0  0  0  0  0  0
  -24.1370  -12.8991   20.7785 C   0  0  0  0  0  0  0  0  0  0  0  0
  -24.9522  -25.4464   11.2193 C   0  0  0  0  0  0  0  0  0  0  0  0
  -30.3007  -20.0445   21.4393 C   0  0  0  0  0  0  0  0  0  0  0  0
  -24.7350  -24.5970   18.5071 C   0  0  0  0  0  0  0  0  0  0  0  0
  -25.4291  -24.9982   12.4659 C   0  0  0  0  0  0  0  0  0  0  0  0
  -29.3768  -19.4331   22.3049 C   0  0  0  0  0  0  0  0  0  0  0  0
  -25.4892  -25.5438   19.2148 C   0  0  0  0  0  0  0  0  0  0  0  0
  -30.0533  -17.2508   21.4718 C   0  0  0  0  0  0  0  0  0  0  0  0
  -22.4575   -8.0237   21.4746 C   0  0  0  0  0  0  0  0  0  0  0  0
  -26.4859  -23.7538   20.5233 C   0  0  0  0  0  0  0  0  0  0  0  0
  -20.9827   -6.8418   22.8712 C   0  0  0  0  0  0  0  0  0  0  0  0
  -19.4079   -6.7679   25.1727 C   0  0  0  0  0  0  0  0  0  0  0  0
  -21.2320   -5.8865   23.8565 C   0  0  0  0  0  0  0  0  0  0  0  0
  -24.6134  -11.5775   20.6872 C   0  0  0  0  0  0  0  0  0  0  0  0
  -25.2124  -13.6769   20.4254 C   0  0  0  0  0  0  0  0  0  0  0  0
  -22.8384  -13.3805   21.1495 C   0  0  0  0  0  0  0  0  0  0  0  0
  -25.2807  -26.3398   15.9055 C   0  0  0  0  0  0  0  0  0  0  0  0
  -23.9763  -28.7106   17.6945 C   0  0  0  0  0  0  0  0  0  0  0  0
  -23.2662  -29.9431   20.7966 C   0  0  0  0  0  0  0  0  0  0  0  0
  -30.6326  -14.9172   20.7200 C   0  0  0  0  0  0  0  0  0  0  0  0
  -24.9686  -26.9066   10.8420 C   0  0  0  0  0  0  0  0  0  0  0  0
  -30.4393  -21.5426   21.3604 C   0  0  0  0  0  0  0  0  0  0  0  0
  -23.7669  -25.0355   17.4428 C   0  0  0  0  0  0  0  0  0  0  0  0
  -28.5359  -20.2378   23.2676 C   0  0  0  0  0  0  0  0  0  0  0  0
  -25.3885  -27.0177   18.9213 C   0  0  0  0  0  0  0  0  0  0  0  0
  -25.1158  -27.8432   12.0384 C   0  0  0  0  0  0  0  0  0  0  0  0
  -29.8212  -22.2747   22.5516 C   0  0  0  0  0  0  0  0  0  0  0  0
  -29.6679  -12.4072   18.3862 C   0  0  0  0  0  0  0  0  0  0  0  0
  -26.2265  -27.3566   12.9638 C   0  0  0  0  0  0  0  0  0  0  0  0
  -28.2277  -12.0763   18.7843 C   0  0  0  0  0  0  0  0  0  0  0  0
  -30.5409  -12.6980   19.6057 C   0  0  0  0  0  0  0  0  0  0  0  0
  -28.5725  -13.3897   20.9158 C   0  0  0  0  0  0  0  0  0  0  0  0
  -25.9064  -25.9665   13.5265 C   0  0  1  0  0  0  0  0  0  0  0  0
  -24.1108  -26.3970   16.8466 C   0  0  1  0  0  0  0  0  0  0  0  0
  -27.6393  -13.1530   19.7171 C   0  0  2  0  0  0  0  0  0  0  0  0
  -28.4228  -21.7408   22.9218 C   0  0  2  0  0  0  0  0  0  0  0  0
  -27.9065  -22.5031   24.1566 C   0  0  0  0  0  0  0  0  0  0  0  0
  -22.2279  -31.9209   21.9403 C   0  0  0  0  0  0  0  0  0  0  0  0
  -26.4728  -30.3614   17.1009 C   0  0  0  0  0  0  0  0  0  0  0  0
  -25.8322  -31.8797   18.9857 C   0  0  0  0  0  0  0  0  0  0  0  0
  -24.3279  -31.6442   17.0098 C   0  0  0  0  0  0  0  0  0  0  0  0
  -21.1870  -28.2635   22.0672 C   0  0  0  0  0  0  0  0  0  0  0  0
  -27.4181  -21.9581   21.7733 C   0  0  0  0  0  0  0  0  0  1  0  0
  -24.5123  -29.7387   18.6612 C   0  0  1  0  0  0  0  0  0  0  0  0
  -21.9925  -30.5262   21.3816 C   0  0  2  0  0  0  0  0  0  0  0  0
  -25.2898  -30.8781   17.9438 C   0  0  0  0  0  0  0  0  0  0  0  0
  -25.8919  -11.5155   20.3058 N   0  0  0  0  0  0  0  0  0  0  0  0
  -26.2280  -12.8079   20.1542 N   0  0  0  0  0  0  0  0  0  0  0  0
  -24.4325  -27.3962   17.8676 N   0  0  0  0  0  0  0  0  0  0  0  0
  -29.9227  -13.7303   20.4406 N   0  0  0  0  0  0  0  0  0  0  0  0
  -25.3790  -15.0127   20.3234 N   0  0  0  0  0  0  0  0  0  0  0  0
  -21.8492  -12.4452   21.4829 N   0  0  0  0  0  0  0  0  0  0  0  0
  -29.9314  -15.8393   21.4963 N   0  0  0  0  0  0  0  0  0  0  0  0
  -24.9362  -26.0651   14.5958 N   0  0  0  0  0  0  0  0  0  0  0  0
  -23.3702  -30.1963   19.4452 N   0  0  0  0  0  0  0  0  0  0  0  0
  -21.4833  -29.6590   22.4814 N   0  3  0  0  0  0  0  0  0  0  0  0
  -22.5585  -14.6031   21.1684 O   0  0  0  0  0  0  0  0  0  0  0  0
  -26.4120  -26.5321   16.3355 O   0  0  0  0  0  0  0  0  0  0  0  0
  -23.1767  -29.0595   16.8224 O   0  0  0  0  0  0  0  0  0  0  0  0
  -24.0887  -29.3281   21.4718 O   0  0  0  0  0  0  0  0  0  0  0  0
  -31.7678  -15.1136   20.2787 O   0  0  0  0  0  0  0  0  0  0  0  0
  -21.7640   -6.8803   21.7285 O   0  0  0  0  0  0  0  0  0  0  0  0
  -27.3503  -23.3428   21.5110 O   0  0  0  0  0  0  0  0  0  1  0  0
  -18.6526   -6.7335   26.2784 F   0  0  0  0  0  0  0  0  0  0  0  0
  -22.2274   -5.0023   23.7037 F   0  0  0  0  0  0  0  0  0  0  0  0
  1  2  1  0  0  0  0
  1  5  2  0  0  0  0
  2  6  2  0  0  0  0
  3 10  2  0  0  0  0
  3 18  1  0  0  0  0
  4 11  1  0  0  0  0
  4 18  2  0  0  0  0
  5 20  1  0  0  0  0
  6 23  1  0  0  0  0
  7  9  2  0  0  0  0
  7 21  1  0  0  0  0
  8 12  2  0  0  0  0
  8 22  1  0  0  0  0
  9 26  1  0  0  0  0
 10 27  1  0  0  0  0
 11 27  2  0  0  0  0
 12 28  1  0  0  0  0
 13 14  2  0  0  0  0
 13 29  1  0  0  0  0
 14 30  1  0  0  0  0
 15 24  1  0  0  0  0
 15 26  2  0  0  0  0
 16 25  1  0  0  0  0
 16 28  2  0  0  0  0
 17 30  2  0  0  0  0
 17 31  1  0  0  0  0
 18 32  1  0  0  0  0
 19 32  1  0  0  0  0
 19 33  2  0  0  0  0
 19 34  1  0  0  0  0
 20 23  2  0  0  0  0
 20 39  1  0  0  0  0
 21 24  2  0  0  0  0
 21 40  1  0  0  0  0
 22 25  2  0  0  0  0
 22 41  1  0  0  0  0
 23 51  1  0  0  0  0
 24 42  1  0  0  0  0
 25 43  1  0  0  0  0
 26 71  1  0  0  0  0
 27 80  1  0  0  0  0
 28 81  1  0  0  0  0
 29 31  2  0  0  0  0
 29 80  1  0  0  0  0
 30 82  1  0  0  0  0
 31 83  1  0  0  0  0
 32 65  2  0  0  0  0
 33 66  1  0  0  0  0
 33 69  1  0  0  0  0
 34 70  1  0  0  0  0
 34 75  2  0  0  0  0
 35 52  1  0  0  0  0
 35 72  1  0  0  0  0
 35 76  2  0  0  0  0
 36 62  1  0  0  0  0
 36 67  1  0  0  0  0
 36 77  2  0  0  0  0
 37 63  1  0  0  0  0
 37 73  1  0  0  0  0
 37 78  2  0  0  0  0
 38 68  1  0  0  0  0
 38 71  1  0  0  0  0
 38 79  2  0  0  0  0
 39 44  1  0  0  0  0
 40 45  1  0  0  0  0
 41 52  1  0  0  0  0
 42 54  1  0  0  0  0
 43 67  1  0  0  0  0
 44 47  1  0  0  0  0
 45 54  1  0  0  0  0
 46 48  1  0  0  0  0
 46 49  1  0  0  0  0
 47 51  1  0  0  0  0
 48 53  1  0  0  0  0
 49 68  1  0  0  0  0
 50 53  1  0  0  0  0
 50 68  1  0  0  0  0
 51 72  1  0  0  0  0
 52 67  1  0  0  0  0
 53 66  1  0  0  0  0
 54 55  1  0  0  0  0
 54 61  1  0  0  0  0
 56 63  1  0  0  0  0
 57 64  1  0  0  0  0
 58 64  1  0  0  0  0
 59 64  1  0  0  0  0
 60 74  1  0  0  0  0
 61 81  1  0  0  0  0
 62 64  1  0  0  0  0
 62 73  1  0  0  0  0
 63 74  1  0  0  0  0
 65 66  1  0  0  0  0
M  CHG  1  74   1
M  ISO  4  38 100  61 101  71 100  81 101
M  END
> <Batch ID>
0139

> <Smiles>
CNC(C)C(=O)NC(C(=O)N1Cc2cc([101O:1][101CH2:1]C3(C)CCc4ccc([100NH:0][100C:0](=O)N5CCCC(n6nc(-c7ccc(Oc8ccc(F)cc8F)cc7)c(C(N)=O)c6N)C5)cc4C3)ccc2CC1C(=O)NC1CCCc2ccccc21)C(C)(C)C

> <Shape>
0.253

> <Color>
0.215

> <Negative vol penalty>
0.000

$$$$

  -OEChem-04052302483D

 85 93  0     1  0  0  0  0  0999 V2000
  -16.6960  -28.9039   23.9187 C   0  0  0  0  0  0  0  0  0  0  0  0
  -17.3178  -28.1622   22.9194 C   0  0  0  0  0  0  0  0  0  0  0  0
  -27.9737  -23.1651   17.6604 C   0  0  0  0  0  0  0  0  0  0  0  0
  -27.6925  -10.6074   21.9997 C   0  0  0  0  0  0  0  0  0  0  0  0
  -26.1555  -10.9603   20.1694 C   0  0  0  0  0  0  0  0  0  0  0  0
  -17.2465  -30.1172   24.3295 C   0  0  0  0  0  0  0  0  0  0  0  0
  -18.4899  -28.6340   22.3294 C   0  0  0  0  0  0  0  0  0  0  0  0
  -22.0071  -25.0239   21.8381 C   0  0  0  0  0  0  0  0  0  0  0  0
  -26.7746  -23.0065   16.9658 C   0  0  0  0  0  0  0  0  0  0  0  0
  -28.5763  -22.0656   18.2717 C   0  0  0  0  0  0  0  0  0  0  0  0
  -26.7354   -9.8317   22.6539 C   0  0  0  0  0  0  0  0  0  0  0  0
  -25.1984  -10.1846   20.8235 C   0  0  0  0  0  0  0  0  0  0  0  0
  -21.8503  -24.1209   20.7874 C   0  0  0  0  0  0  0  0  0  0  0  0
  -24.5649   -6.9010   21.3106 C   0  0  0  0  0  0  0  0  0  0  0  0
  -23.8743   -5.9534   20.5551 C   0  0  0  0  0  0  0  0  0  0  0  0
  -23.4677  -25.3562   19.4924 C   0  0  0  0  0  0  0  0  0  0  0  0
  -26.7805  -20.6489   17.4939 C   0  0  0  0  0  0  0  0  0  0  0  0
  -21.7881   -7.0494   21.0876 C   0  0  0  0  0  0  0  0  0  0  0  0
  -27.4025  -11.1718   20.7575 C   0  0  0  0  0  0  0  0  0  0  0  0
  -29.3697  -11.5289   19.1732 C   0  0  0  0  0  0  0  0  0  0  0  0
  -18.4311  -30.5995   23.7510 C   0  0  0  0  0  0  0  0  0  0  0  0
  -22.8888  -26.1078   21.7194 C   0  0  0  0  0  0  0  0  0  0  0  0
  -19.0560  -29.8556   22.7319 C   0  0  0  0  0  0  0  0  0  0  0  0
  -23.6358  -26.2700   20.5440 C   0  0  0  0  0  0  0  0  0  0  0  0
  -26.1780  -21.7484   16.8825 C   0  0  0  0  0  0  0  0  0  0  0  0
  -27.9797  -20.8076   18.1885 C   0  0  0  0  0  0  0  0  0  0  0  0
  -25.4884   -9.6203   22.0658 C   0  0  0  0  0  0  0  0  0  0  0  0
  -22.5785  -24.2887   19.6133 C   0  0  0  0  0  0  0  0  0  0  0  0
  -23.8672   -7.9228   21.9547 C   0  0  0  0  0  0  0  0  0  0  0  0
  -22.4859   -6.0276   20.4436 C   0  0  0  0  0  0  0  0  0  0  0  0
  -22.4787   -7.9970   21.8431 C   0  0  0  0  0  0  0  0  0  0  0  0
  -28.3905  -11.9736   20.0815 C   0  0  0  0  0  0  0  0  0  0  0  0
  -30.0517  -12.6672   18.8189 C   0  0  0  0  0  0  0  0  0  0  0  0
  -29.6388  -10.2051   18.6926 C   0  0  0  0  0  0  0  0  0  0  0  0
  -22.5748  -29.2705   21.7685 C   0  0  0  0  0  0  0  0  0  0  0  0
  -25.8164  -29.2036   21.6696 C   0  0  0  0  0  0  0  0  0  0  0  0
  -28.6551  -27.5032   20.8343 C   0  0  0  0  0  0  0  0  0  0  0  0
  -28.1405  -18.3684   18.8280 C   0  0  0  0  0  0  0  0  0  0  0  0
  -18.9627  -31.9393   24.1949 C   0  0  0  0  0  0  0  0  0  0  0  0
  -23.0664  -27.0577   22.8721 C   0  0  0  0  0  0  0  0  0  0  0  0
  -24.6106  -27.4056   20.3742 C   0  0  0  0  0  0  0  0  0  0  0  0
  -20.4110  -32.1874   23.7814 C   0  0  0  0  0  0  0  0  0  0  0  0
  -30.7632  -16.8350   21.1721 C   0  0  0  0  0  0  0  0  0  0  0  0
  -20.6201  -31.8121   22.3177 C   0  0  0  0  0  0  0  0  0  0  0  0
  -30.9539  -15.4828   20.4891 C   0  0  0  0  0  0  0  0  0  0  0  0
  -30.2248  -17.8933   20.2175 C   0  0  0  0  0  0  0  0  0  0  0  0
  -28.6134  -16.0676   19.6462 C   0  0  0  0  0  0  0  0  0  0  0  0
  -20.3421  -30.3220   22.0852 C   0  0  1  0  0  0  0  0  0  0  0  0
  -23.6099  -28.4183   22.4467 C   0  0  1  0  0  0  0  0  0  0  0  0
  -29.8383  -15.1552   19.4770 C   0  0  2  0  0  0  0  0  0  0  0  0
  -25.9030  -19.8799   14.3872 C   0  0  0  0  0  0  0  0  0  0  0  0
  -31.1550  -27.7213   20.8378 C   0  0  0  0  0  0  0  0  0  0  0  0
  -24.7451  -22.6122   14.9450 C   0  0  0  0  0  0  0  0  0  0  0  0
  -25.6561  -31.0540   19.2488 C   0  0  0  0  0  0  0  0  0  0  0  0
  -28.0368  -30.4739   18.7352 C   0  0  0  0  0  0  0  0  0  0  0  0
  -27.4683  -31.6204   20.8765 C   0  0  0  0  0  0  0  0  0  0  0  0
  -23.5671  -20.7438   18.2742 C   0  0  0  0  0  0  0  0  0  0  0  0
  -22.2239  -21.5635   16.3607 C   0  0  0  0  0  0  0  0  0  0  0  0
  -28.9714  -25.1772   22.6366 C   0  0  0  0  0  0  0  0  0  0  0  0
  -24.7953  -20.1575   15.4064 C   0  0  0  0  0  0  0  0  0  0  0  0
  -23.5574  -23.1950   17.7420 C   0  0  0  0  0  0  0  0  0  1  0  0
  -26.8524  -29.1873   20.5717 C   0  0  1  0  0  0  0  0  0  0  0  0
  -29.9349  -27.2387   21.6067 C   0  0  2  0  0  0  0  0  0  0  0  0
  -24.8398  -21.5720   16.1072 C   0  0  1  0  0  0  0  0  0  0  0  0
  -26.9837  -30.5635   19.8602 C   0  0  0  0  0  0  0  0  0  0  0  0
  -23.5709  -21.7670   17.1086 C   0  0  0  0  0  0  0  0  0  0  0  0
  -28.4425  -13.2917   20.2913 N   0  0  0  0  0  0  0  0  0  0  0  0
  -29.4627  -13.6849   19.5099 N   0  0  0  0  0  0  0  0  0  0  0  0
  -24.7443  -28.3114   21.5270 N   0  0  0  0  0  0  0  0  0  0  0  0
  -28.9868  -17.4828   19.5392 N   0  0  0  0  0  0  0  0  0  0  0  0
  -31.0919  -12.8869   17.9868 N   0  0  0  0  0  0  0  0  0  0  0  0
  -28.8424   -9.1503   19.1589 N   0  0  0  0  0  0  0  0  0  0  0  0
  -28.5926  -19.6905   18.8092 N   0  0  0  0  0  0  0  0  0  0  0  0
  -21.4582  -29.5223   22.5426 N   0  0  0  0  0  0  0  0  0  0  0  0
  -28.0881  -28.7107   21.1835 N   0  0  0  0  0  0  0  0  0  0  0  0
  -30.0904  -25.7796   21.8672 N   0  3  0  0  0  0  0  0  0  0  0  0
  -30.5687   -9.9623   17.8864 O   0  0  0  0  0  0  0  0  0  0  0  0
  -22.7751  -29.6713   20.6279 O   0  0  0  0  0  0  0  0  0  0  0  0
  -25.9571  -29.9744   22.6224 O   0  0  0  0  0  0  0  0  0  0  0  0
  -28.2054  -26.7191   20.0016 O   0  0  0  0  0  0  0  0  0  0  0  0
  -27.1110  -17.9763   18.2747 O   0  0  0  0  0  0  0  0  0  0  0  0
  -24.5543   -8.8632   22.7037 O   0  0  0  0  0  0  0  0  0  0  0  0
  -22.4268  -23.4092   18.5860 O   0  0  0  0  0  0  0  0  0  1  0  0
  -21.8230   -5.1185   19.7168 F   0  0  0  0  0  0  0  0  0  0  0  0
  -21.8030   -8.9770   22.4586 F   0  0  0  0  0  0  0  0  0  0  0  0
  1  2  1  0  0  0  0
  1  6  2  0  0  0  0
  2  7  2  0  0  0  0
  3  9  2  0  0  0  0
  3 10  1  0  0  0  0
  4 11  2  0  0  0  0
  4 19  1  0  0  0  0
  5 12  1  0  0  0  0
  5 19  2  0  0  0  0
  6 21  1  0  0  0  0
  7 23  1  0  0  0  0
  8 13  2  0  0  0  0
  8 22  1  0  0  0  0
  9 25  1  0  0  0  0
 10 26  2  0  0  0  0
 11 27  1  0  0  0  0
 12 27  2  0  0  0  0
 13 28  1  0  0  0  0
 14 15  2  0  0  0  0
 14 29  1  0  0  0  0
 15 30  1  0  0  0  0
 16 24  1  0  0  0  0
 16 28  2  0  0  0  0
 17 25  2  0  0  0  0
 17 26  1  0  0  0  0
 18 30  2  0  0  0  0
 18 31  1  0  0  0  0
 19 32  1  0  0  0  0
 20 32  1  0  0  0  0
 20 33  2  0  0  0  0
 20 34  1  0  0  0  0
 21 23  2  0  0  0  0
 21 39  1  0  0  0  0
 22 24  2  0  0  0  0
 22 40  1  0  0  0  0
 23 48  1  0  0  0  0
 24 41  1  0  0  0  0
 25 64  1  0  0  0  0
 26 73  1  0  0  0  0
 27 82  1  0  0  0  0
 28 83  1  0  0  0  0
 29 31  2  0  0  0  0
 29 82  1  0  0  0  0
 30 84  1  0  0  0  0
 31 85  1  0  0  0  0
 32 67  2  0  0  0  0
 33 68  1  0  0  0  0
 33 71  1  0  0  0  0
 34 72  1  0  0  0  0
 34 77  2  0  0  0  0
 35 49  1  0  0  0  0
 35 74  1  0  0  0  0
 35 78  2  0  0  0  0
 36 62  1  0  0  0  0
 36 69  1  0  0  0  0
 36 79  2  0  0  0  0
 37 63  1  0  0  0  0
 37 75  1  0  0  0  0
 37 80  2  0  0  0  0
 38 70  1  0  0  0  0
 38 73  1  0  0  0  0
 38 81  2  0  0  0  0
 39 42  1  0  0  0  0
 40 49  1  0  0  0  0
 41 69  1  0  0  0  0
 42 44  1  0  0  0  0
 43 45  1  0  0  0  0
 43 46  1  0  0  0  0
 44 48  1  0  0  0  0
 45 50  1  0  0  0  0
 46 70  1  0  0  0  0
 47 50  1  0  0  0  0
 47 70  1  0  0  0  0
 48 74  1  0  0  0  0
 49 69  1  0  0  0  0
 50 68  1  0  0  0  0
 51 60  1  0  0  0  0
 52 63  1  0  0  0  0
 53 64  1  0  0  0  0
 54 65  1  0  0  0  0
 55 65  1  0  0  0  0
 56 65  1  0  0  0  0
 57 66  1  0  0  0  0
 58 66  1  0  0  0  0
 59 76  1  0  0  0  0
 60 64  1  0  0  0  0
 61 66  1  0  0  0  0
 61 83  1  0  0  0  0
 62 65  1  0  0  0  0
 62 75  1  0  0  0  0
 63 76  1  0  0  0  0
 64 66  1  0  0  0  0
 67 68  1  0  0  0  0
M  CHG  1  76   1
M  ISO  4  38 100  61 101  73 100  83 101
M  END
> <Batch ID>
0139

> <Smiles>
CCC(C)(c1cccc([100NH:0][100C:0](=O)N2CCCC(n3nc(-c4ccc(Oc5ccc(F)cc5F)cc4)c(C(N)=O)c3N)C2)c1)C(C)(C)[101CH2:1][101O:1]c1ccc2c(c1)CN(C(=O)C(NC(=O)C(C)NC)C(C)(C)C)C(C(=O)NC1CCCc3ccccc31)C2

> <Shape>
0.256

> <Color>
0.073

> <Negative vol penalty>
0.000

$$$$

  -OEChem-04052302483D

 84 92  0     1  0  0  0  0  0999 V2000
  -17.9676  -32.8916   23.6345 C   0  0  0  0  0  0  0  0  0  0  0  0
  -19.3302  -33.1483   23.5209 C   0  0  0  0  0  0  0  0  0  0  0  0
  -26.8583  -12.8510   20.9564 C   0  0  0  0  0  0  0  0  0  0  0  0
  -27.0742  -12.8459   18.5501 C   0  0  0  0  0  0  0  0  0  0  0  0
  -17.5166  -31.5811   23.7859 C   0  0  0  0  0  0  0  0  0  0  0  0
  -20.2426  -32.0946   23.5597 C   0  0  0  0  0  0  0  0  0  0  0  0
  -26.5732  -30.0894   20.8727 C   0  0  0  0  0  0  0  0  0  0  0  0
  -26.3373  -11.5579   20.9125 C   0  0  0  0  0  0  0  0  0  0  0  0
  -26.5532  -11.5528   18.5061 C   0  0  0  0  0  0  0  0  0  0  0  0
  -27.8206  -29.6246   21.2870 C   0  0  0  0  0  0  0  0  0  0  0  0
  -24.6146   -8.3931   21.4023 C   0  0  0  0  0  0  0  0  0  0  0  0
  -23.4888   -8.1191   22.1789 C   0  0  0  0  0  0  0  0  0  0  0  0
  -31.4396  -23.8624   19.4367 C   0  0  0  0  0  0  0  0  0  0  0  0
  -26.9211  -27.3940   21.4727 C   0  0  0  0  0  0  0  0  0  0  0  0
  -22.2501   -9.8120   20.9801 C   0  0  0  0  0  0  0  0  0  0  0  0
  -27.2267  -13.4951   19.7752 C   0  0  0  0  0  0  0  0  0  0  0  0
  -31.2248  -22.7597   18.5759 C   0  0  0  0  0  0  0  0  0  0  0  0
  -29.1179  -15.1991   19.9404 C   0  0  0  0  0  0  0  0  0  0  0  0
  -18.4233  -30.5098   23.8169 C   0  0  0  0  0  0  0  0  0  0  0  0
  -25.4858  -29.2105   20.7656 C   0  0  0  0  0  0  0  0  0  0  0  0
  -19.8034  -30.7686   23.7130 C   0  0  0  0  0  0  0  0  0  0  0  0
  -25.6615  -27.8497   21.0544 C   0  0  0  0  0  0  0  0  0  0  0  0
  -26.1847  -10.9088   19.6873 C   0  0  0  0  0  0  0  0  0  0  0  0
  -27.9940  -28.2773   21.5899 C   0  0  0  0  0  0  0  0  0  0  0  0
  -24.5582   -9.3765   20.4147 C   0  0  0  0  0  0  0  0  0  0  0  0
  -22.3065   -8.8285   21.9678 C   0  0  0  0  0  0  0  0  0  0  0  0
  -23.3759  -10.0859   20.2036 C   0  0  0  0  0  0  0  0  0  0  0  0
  -27.7645  -14.8311   19.8199 C   0  0  0  0  0  0  0  0  0  0  0  0
  -30.0837  -23.0475   17.8639 C   0  0  0  0  0  0  0  0  0  0  0  0
  -29.1021  -16.5725   19.9352 C   0  0  0  0  0  0  0  0  0  0  0  0
  -30.4146  -24.7456   19.1892 C   0  0  0  0  0  0  0  0  0  0  0  0
  -32.0111  -21.5692   18.4435 C   0  0  0  0  0  0  0  0  0  0  0  0
  -30.2851  -14.3733   20.0472 C   0  0  0  0  0  0  0  0  0  0  0  0
  -22.6425  -28.9786   22.1676 C   0  0  0  0  0  0  0  0  0  0  0  0
  -22.2018  -26.6049   20.0011 C   0  0  0  0  0  0  0  0  0  0  0  0
  -23.5944  -24.2699   17.9383 C   0  0  0  0  0  0  0  0  0  0  0  0
  -27.2652  -21.4105   17.8460 C   0  0  0  0  0  0  0  0  0  0  0  0
  -17.8916  -29.1146   24.0298 C   0  0  0  0  0  0  0  0  0  0  0  0
  -24.1533  -29.7227   20.2916 C   0  0  0  0  0  0  0  0  0  0  0  0
  -24.5312  -26.8614   20.9359 C   0  0  0  0  0  0  0  0  0  0  0  0
  -18.8982  -28.0200   23.6852 C   0  0  0  0  0  0  0  0  0  0  0  0
  -25.2436  -19.8219   20.3089 C   0  0  0  0  0  0  0  0  0  0  0  0
  -20.2617  -28.3390   24.2901 C   0  0  0  0  0  0  0  0  0  0  0  0
  -25.8268  -18.4111   20.4064 C   0  0  0  0  0  0  0  0  0  0  0  0
  -25.2781  -20.3491   18.8761 C   0  0  0  0  0  0  0  0  0  0  0  0
  -27.1861  -18.8889   18.3273 C   0  0  0  0  0  0  0  0  0  0  0  0
  -20.8225  -29.6499   23.7258 C   0  0  1  0  0  0  0  0  0  0  0  0
  -22.9873  -28.8335   20.7124 C   0  0  1  0  0  0  0  0  0  0  0  0
  -27.2242  -18.3363   19.7624 C   0  0  2  0  0  0  0  0  0  0  0  0
  -33.2387  -21.4229   19.3126 C   0  0  0  0  0  0  0  0  0  0  0  0
  -22.9790  -22.4519   16.3216 C   0  0  0  0  0  0  0  0  0  0  0  0
  -31.3250  -28.8911   21.7678 C   0  0  0  0  0  0  0  0  0  0  0  0
  -21.4671  -24.7816   22.3348 C   0  0  0  0  0  0  0  0  0  0  0  0
  -21.7944  -22.8197   20.8142 C   0  0  0  0  0  0  0  0  0  0  0  0
  -20.0308  -24.5091   20.3057 C   0  0  0  0  0  0  0  0  0  0  0  0
  -24.9713  -25.6334   15.7014 C   0  0  0  0  0  0  0  0  0  0  0  0
  -29.3315  -22.3293   16.8235 C   0  0  0  0  0  0  0  0  0  0  0  0
  -30.9021  -26.6282   20.7525 C   0  0  0  0  0  0  0  0  0  0  0  0
  -22.4624  -25.1181   19.9763 C   0  0  1  0  0  0  0  0  0  0  0  0
  -23.3281  -23.9231   16.4846 C   0  0  2  0  0  0  0  0  0  0  0  0
  -30.3016  -27.9906   21.0914 C   0  0  1  0  0  0  0  0  0  1  0  0
  -21.4597  -24.3259   20.8619 C   0  0  0  0  0  0  0  0  0  0  0  0
  -26.9482  -15.8856   19.7440 N   0  0  0  0  0  0  0  0  0  0  0  0
  -27.7911  -16.9297   19.8169 N   0  0  0  0  0  0  0  0  0  0  0  0
  -23.2460  -27.4120   20.4746 N   0  0  0  0  0  0  0  0  0  0  0  0
  -26.6315  -20.2517   18.3242 N   0  0  0  0  0  0  0  0  0  0  0  0
  -30.0818  -17.4973   20.0204 N   0  0  0  0  0  0  0  0  0  0  0  0
  -30.1221  -12.9814   20.0363 N   0  0  0  0  0  0  0  0  0  0  0  0
  -30.1105  -25.9842   19.7289 N   0  0  0  0  0  0  0  0  0  0  0  0
  -21.3606  -29.4397   22.3988 N   0  0  0  0  0  0  0  0  0  0  0  0
  -22.4575  -24.7262   18.5711 N   0  0  0  0  0  0  0  0  0  0  0  0
  -28.5490  -21.2311   17.3455 N   0  0  0  0  0  0  0  0  0  0  0  0
  -24.5302  -24.2156   15.6537 N   0  3  0  0  0  0  0  0  0  0  0  0
  -31.7794  -20.6267   17.6634 O   0  0  0  0  0  0  0  0  0  0  0  0
  -31.4370  -14.8556   20.1659 O   0  0  0  0  0  0  0  0  0  0  0  0
  -23.4772  -28.6919   23.0178 O   0  0  0  0  0  0  0  0  0  0  0  0
  -21.1146  -27.0349   19.6080 O   0  0  0  0  0  0  0  0  0  0  0  0
  -24.6996  -24.1446   18.4614 O   0  0  0  0  0  0  0  0  0  0  0  0
  -26.7288  -22.5235   17.8686 O   0  0  0  0  0  0  0  0  0  0  0  0
  -29.5837  -24.2563   18.2317 O   0  0  0  0  0  0  0  0  0  0  0  0
  -25.6766   -9.6468   19.6441 O   0  0  0  0  0  0  0  0  0  0  0  0
  -29.2104  -27.8211   21.9951 O   0  0  0  0  0  0  0  0  0  1  0  0
  -21.2250   -8.5643   22.7125 F   0  0  0  0  0  0  0  0  0  0  0  0
  -23.3153  -11.0311   19.2555 F   0  0  0  0  0  0  0  0  0  0  0  0
  1  2  1  0  0  0  0
  1  5  2  0  0  0  0
  2  6  2  0  0  0  0
  3  8  2  0  0  0  0
  3 16  1  0  0  0  0
  4  9  1  0  0  0  0
  4 16  2  0  0  0  0
  5 19  1  0  0  0  0
  6 21  1  0  0  0  0
  7 10  2  0  0  0  0
  7 20  1  0  0  0  0
  8 23  1  0  0  0  0
  9 23  2  0  0  0  0
 10 24  1  0  0  0  0
 11 12  2  0  0  0  0
 11 25  1  0  0  0  0
 12 26  1  0  0  0  0
 13 17  1  0  0  0  0
 13 31  2  0  0  0  0
 14 22  1  0  0  0  0
 14 24  2  0  0  0  0
 15 26  2  0  0  0  0
 15 27  1  0  0  0  0
 16 28  1  0  0  0  0
 17 29  2  0  0  0  0
 17 32  1  0  0  0  0
 18 28  1  0  0  0  0
 18 30  2  0  0  0  0
 18 33  1  0  0  0  0
 19 21  2  0  0  0  0
 19 38  1  0  0  0  0
 20 22  2  0  0  0  0
 20 39  1  0  0  0  0
 21 47  1  0  0  0  0
 22 40  1  0  0  0  0
 23 81  1  0  0  0  0
 24 82  1  0  0  0  0
 25 27  2  0  0  0  0
 25 81  1  0  0  0  0
 26 83  1  0  0  0  0
 27 84  1  0  0  0  0
 28 63  2  0  0  0  0
 29 57  1  0  0  0  0
 29 80  1  0  0  0  0
 30 64  1  0  0  0  0
 30 67  1  0  0  0  0
 31 69  1  0  0  0  0
 31 80  1  0  0  0  0
 32 50  1  0  0  0  0
 32 74  2  0  0  0  0
 33 68  1  0  0  0  0
 33 75  2  0  0  0  0
 34 48  1  0  0  0  0
 34 70  1  0  0  0  0
 34 76  2  0  0  0  0
 35 59  1  0  0  0  0
 35 65  1  0  0  0  0
 35 77  2  0  0  0  0
 36 60  1  0  0  0  0
 36 71  1  0  0  0  0
 36 78  2  0  0  0  0
 37 66  1  0  0  0  0
 37 72  1  0  0  0  0
 37 79  2  0  0  0  0
 38 41  1  0  0  0  0
 39 48  1  0  0  0  0
 40 65  1  0  0  0  0
 41 43  1  0  0  0  0
 42 44  1  0  0  0  0
 42 45  1  0  0  0  0
 43 47  1  0  0  0  0
 44 49  1  0  0  0  0
 45 66  1  0  0  0  0
 46 49  1  0  0  0  0
 46 66  1  0  0  0  0
 47 70  1  0  0  0  0
 48 65  1  0  0  0  0
 49 64  1  0  0  0  0
 51 60  1  0  0  0  0
 52 61  1  0  0  0  0
 53 62  1  0  0  0  0
 54 62  1  0  0  0  0
 55 62  1  0  0  0  0
 56 73  1  0  0  0  0
 57 72  1  0  0  0  0
 58 61  1  0  0  0  0
 58 69  1  0  0  0  0
 59 62  1  0  0  0  0
 59 71  1  0  0  0  0
 60 73  1  0  0  0  0
 61 82  1  0  0  0  0
 63 64  1  0  0  0  0
M  CHG  1  73   1
M  ISO  4  37 100  61 101  72 100  82 101
M  END
> <Batch ID>
0139

> <Smiles>
CNC(C)C(=O)NC(C(=O)N1Cc2cc([101O:1][101CH:1](C)CNc3cc(C(C)=O)c(C[100NH:0][100C:0](=O)N4CCCC(n5nc(-c6ccc(Oc7ccc(F)cc7F)cc6)c(C(N)=O)c5N)C4)o3)ccc2CC1C(=O)NC1CCCc2ccccc21)C(C)(C)C

> <Shape>
0.261

> <Color>
0.098

> <Negative vol penalty>
0.000

$$$$

  -OEChem-04052302483D

 80 88  0     1  0  0  0  0  0999 V2000
  -26.1523  -10.3451   19.9226 C   0  0  0  0  0  0  0  0  0  0  0  0
  -26.5423  -11.2982   18.9872 C   0  0  0  0  0  0  0  0  0  0  0  0
  -23.0294  -26.7062   22.2669 C   0  0  0  0  0  0  0  0  0  0  0  0
  -22.9129  -29.1158   22.1346 C   0  0  0  0  0  0  0  0  0  0  0  0
  -25.2227  -10.6762   20.9075 C   0  0  0  0  0  0  0  0  0  0  0  0
  -26.0019  -12.5828   19.0356 C   0  0  0  0  0  0  0  0  0  0  0  0
  -28.8382  -17.8251   17.6288 C   0  0  0  0  0  0  0  0  0  0  0  0
  -21.8766  -26.6935   23.0520 C   0  0  0  0  0  0  0  0  0  0  0  0
  -21.7600  -29.1031   22.9197 C   0  0  0  0  0  0  0  0  0  0  0  0
  -28.8362  -18.6134   16.4788 C   0  0  0  0  0  0  0  0  0  0  0  0
  -18.5818  -29.6791   24.5887 C   0  0  0  0  0  0  0  0  0  0  0  0
  -17.5139  -30.4815   24.1871 C   0  0  0  0  0  0  0  0  0  0  0  0
  -27.1247  -20.0107   17.4469 C   0  0  0  0  0  0  0  0  0  0  0  0
  -29.9997  -23.7858   16.9753 C   0  0  0  0  0  0  0  0  0  0  0  0
  -17.3962  -29.2779   22.0956 C   0  0  0  0  0  0  0  0  0  0  0  0
  -30.9727  -21.9019   16.0233 C   0  0  0  0  0  0  0  0  0  0  0  0
  -23.5476  -27.9174   21.8082 C   0  0  0  0  0  0  0  0  0  0  0  0
  -24.8126  -27.8579   19.5937 C   0  0  0  0  0  0  0  0  0  0  0  0
  -24.6780  -11.9682   20.9739 C   0  0  0  0  0  0  0  0  0  0  0  0
  -27.9742  -18.1178   18.6938 C   0  0  0  0  0  0  0  0  0  0  0  0
  -25.0632  -12.9311   20.0215 C   0  0  0  0  0  0  0  0  0  0  0  0
  -27.1195  -19.2262   18.6103 C   0  0  0  0  0  0  0  0  0  0  0  0
  -29.9194  -22.7875   15.9619 C   0  0  0  0  0  0  0  0  0  0  0  0
  -21.2419  -27.8919   23.3784 C   0  0  0  0  0  0  0  0  0  0  0  0
  -27.9773  -19.7046   16.3865 C   0  0  0  0  0  0  0  0  0  0  0  0
  -19.0570  -28.6761   23.7438 C   0  0  0  0  0  0  0  0  0  0  0  0
  -16.9211  -30.2809   22.9405 C   0  0  0  0  0  0  0  0  0  0  0  0
  -18.4641  -28.4755   22.4972 C   0  0  0  0  0  0  0  0  0  0  0  0
  -24.7388  -27.9312   20.9977 C   0  0  0  0  0  0  0  0  0  0  0  0
  -31.1114  -23.6251   17.7729 C   0  0  0  0  0  0  0  0  0  0  0  0
  -26.1570  -27.9086   19.3175 C   0  0  0  0  0  0  0  0  0  0  0  0
  -31.5516  -24.4393   18.9197 C   0  0  0  0  0  0  0  0  0  0  0  0
  -23.7599  -27.7534   18.6259 C   0  0  0  0  0  0  0  0  0  0  0  0
  -25.5897  -16.5866   20.1337 C   0  0  0  0  0  0  0  0  0  0  0  0
  -25.7112  -19.1132   22.1645 C   0  0  0  0  0  0  0  0  0  0  0  0
  -26.5794  -22.3722   22.6857 C   0  0  0  0  0  0  0  0  0  0  0  0
  -31.3551  -26.1885   20.4006 C   0  0  0  0  0  0  0  0  0  0  0  0
  -23.6409  -12.2655   22.0278 C   0  0  0  0  0  0  0  0  0  0  0  0
  -28.0075  -17.2736   19.9383 C   0  0  0  0  0  0  0  0  0  0  0  0
  -26.1869  -19.5949   19.7341 C   0  0  0  0  0  0  0  0  0  0  0  0
  -23.3972  -13.7576   22.2388 C   0  0  0  0  0  0  0  0  0  0  0  0
  -30.1009  -28.9999   22.2788 C   0  0  0  0  0  0  0  0  0  0  0  0
  -23.2424  -14.4681   20.8979 C   0  0  0  0  0  0  0  0  0  0  0  0
  -28.5948  -28.9432   22.0242 C   0  0  0  0  0  0  0  0  0  0  0  0
  -30.7095  -27.6028   22.3516 C   0  0  0  0  0  0  0  0  0  0  0  0
  -28.9192  -26.6994   20.8930 C   0  0  0  0  0  0  0  0  0  0  0  0
  -24.5181  -14.3424   20.0564 C   0  0  1  0  0  0  0  0  0  0  0  0
  -26.7204  -17.3588   20.7527 C   0  0  1  0  0  0  0  0  0  0  0  0
  -28.2756  -28.0921   20.7821 C   0  0  1  0  0  0  0  0  0  0  0  0
  -26.5199  -24.1712   24.4342 C   0  0  0  0  0  0  0  0  0  0  0  0
  -26.3783  -22.1387   14.6124 C   0  0  0  0  0  0  0  0  0  0  0  0
  -22.7280  -19.5044   21.6571 C   0  0  0  0  0  0  0  0  0  0  0  0
  -22.9345  -21.8015   22.6312 C   0  0  0  0  0  0  0  0  0  0  0  0
  -23.4289  -19.8025   24.0392 C   0  0  0  0  0  0  0  0  0  0  0  0
  -29.5293  -22.6101   22.7071 C   0  0  0  0  0  0  0  0  0  0  0  0
  -28.8089  -22.7107   14.9408 C   0  0  0  0  0  0  0  0  0  0  0  0
  -25.0544  -20.4712   22.2219 C   0  0  1  0  0  0  0  0  0  0  0  0
  -27.3347  -23.0448   23.8178 C   0  0  2  0  0  0  0  0  0  0  0  0
  -27.6351  -21.8525   15.4245 C   0  0  2  0  0  0  0  0  0  1  0  0
  -23.5525  -20.3871   22.6152 C   0  0  0  0  0  0  0  0  0  0  0  0
  -25.9407  -28.0214   21.5732 N   0  0  0  0  0  0  0  0  0  0  0  0
  -30.8821  -25.4707   19.3187 N   0  0  0  0  0  0  0  0  0  0  0  0
  -26.7825  -28.0051   20.5257 N   0  0  0  0  0  0  0  0  0  0  0  0
  -26.2521  -18.7352   20.9274 N   0  0  0  0  0  0  0  0  0  0  0  0
  -30.3571  -26.8133   21.1707 N   0  0  0  0  0  0  0  0  0  0  0  0
  -26.8535  -27.8796   18.1614 N   0  0  0  0  0  0  0  0  0  0  0  0
  -22.4351  -27.7135   19.0814 N   0  0  0  0  0  0  0  0  0  0  0  0
  -25.5286  -15.2641   20.5296 N   0  0  0  0  0  0  0  0  0  0  0  0
  -25.8649  -21.2787   23.1272 N   0  0  0  0  0  0  0  0  0  0  0  0
  -28.6189  -23.6124   23.3183 N   0  3  0  0  0  0  0  0  0  0  0  0
  -23.9883  -27.6805   17.3946 O   0  0  0  0  0  0  0  0  0  0  0  0
  -24.8283  -17.1494   19.3558 O   0  0  0  0  0  0  0  0  0  0  0  0
  -25.7494  -18.4165   23.1817 O   0  0  0  0  0  0  0  0  0  0  0  0
  -26.6164  -22.7787   21.5264 O   0  0  0  0  0  0  0  0  0  0  0  0
  -32.5495  -26.2846   20.6926 O   0  0  0  0  0  0  0  0  0  0  0  0
  -20.1168  -27.8799   24.1443 O   0  0  0  0  0  0  0  0  0  0  0  0
  -27.9729  -20.4753   15.2649 O   0  0  0  0  0  0  0  0  0  1  0  0
  -15.8946  -31.0505   22.5556 F   0  0  0  0  0  0  0  0  0  0  0  0
  -18.9155  -27.5127   21.6816 F   0  0  0  0  0  0  0  0  0  0  0  0
  -32.0524  -22.2752   17.2989 S   0  0  0  0  0  0  0  0  0  0  0  0
  1  2  1  0  0  0  0
  1  5  2  0  0  0  0
  2  6  2  0  0  0  0
  3  8  2  0  0  0  0
  3 17  1  0  0  0  0
  4  9  1  0  0  0  0
  4 17  2  0  0  0  0
  5 19  1  0  0  0  0
  6 21  1  0  0  0  0
  7 10  2  0  0  0  0
  7 20  1  0  0  0  0
  8 24  1  0  0  0  0
  9 24  2  0  0  0  0
 10 25  1  0  0  0  0
 11 12  2  0  0  0  0
 11 26  1  0  0  0  0
 12 27  1  0  0  0  0
 13 22  1  0  0  0  0
 13 25  2  0  0  0  0
 14 23  1  0  0  0  0
 14 30  2  0  0  0  0
 15 27  2  0  0  0  0
 15 28  1  0  0  0  0
 16 23  2  0  0  0  0
 16 80  1  0  0  0  0
 17 29  1  0  0  0  0
 18 29  1  0  0  0  0
 18 31  2  0  0  0  0
 18 33  1  0  0  0  0
 19 21  2  0  0  0  0
 19 38  1  0  0  0  0
 20 22  2  0  0  0  0
 20 39  1  0  0  0  0
 21 47  1  0  0  0  0
 22 40  1  0  0  0  0
 23 56  1  0  0  0  0
 24 76  1  0  0  0  0
 25 77  1  0  0  0  0
 26 28  2  0  0  0  0
 26 76  1  0  0  0  0
 27 78  1  0  0  0  0
 28 79  1  0  0  0  0
 29 61  2  0  0  0  0
 30 32  1  0  0  0  0
 30 80  1  0  0  0  0
 31 63  1  0  0  0  0
 31 66  1  0  0  0  0
 32 62  2  0  0  0  0
 33 67  1  0  0  0  0
 33 71  2  0  0  0  0
 34 48  1  0  0  0  0
 34 68  1  0  0  0  0
 34 72  2  0  0  0  0
 35 57  1  0  0  0  0
 35 64  1  0  0  0  0
 35 73  2  0  0  0  0
 36 58  1  0  0  0  0
 36 69  1  0  0  0  0
 36 74  2  0  0  0  0
 37 62  1  0  0  0  0
 37 65  1  0  0  0  0
 37 75  2  0  0  0  0
 38 41  1  0  0  0  0
 39 48  1  0  0  0  0
 40 64  1  0  0  0  0
 41 43  1  0  0  0  0
 42 44  1  0  0  0  0
 42 45  1  0  0  0  0
 43 47  1  0  0  0  0
 44 49  1  0  0  0  0
 45 65  1  0  0  0  0
 46 49  1  0  0  0  0
 46 65  1  0  0  0  0
 47 68  1  0  0  0  0
 48 64  1  0  0  0  0
 49 63  1  0  0  0  0
 50 58  1  0  0  0  0
 51 59  1  0  0  0  0
 52 60  1  0  0  0  0
 53 60  1  0  0  0  0
 54 60  1  0  0  0  0
 55 70  1  0  0  0  0
 56 59  1  0  0  0  0
 57 60  1  0  0  0  0
 57 69  1  0  0  0  0
 58 70  1  0  0  0  0
 59 77  1  0  0  0  0
 61 63  1  0  0  0  0
M  CHG  1  70   1
M  ISO  4  37 100  59 101  62 100  77 101
M  END
> <Batch ID>
0139

> <Smiles>
CNC(C)C(=O)NC(C(=O)N1Cc2cc([101O:1][101CH:1](C)Cc3csc(C=[100N:0][100C:0](=O)N4CCCC(n5nc(-c6ccc(Oc7ccc(F)cc7F)cc6)c(C(N)=O)c5N)C4)c3)ccc2CC1C(=O)NC1CCCc2ccccc21)C(C)(C)C

> <Shape>
0.221

> <Color>
0.078

> <Negative vol penalty>
0.000

$$$$

  -OEChem-04052302483D

 84 92  0     1  0  0  0  0  0999 V2000
  -23.3961   -7.8795   21.7651 C   0  0  0  0  0  0  0  0  0  0  0  0
  -24.0838   -8.8283   21.0151 C   0  0  0  0  0  0  0  0  0  0  0  0
  -28.8463  -19.3324   22.4472 C   0  0  0  0  0  0  0  0  0  0  0  0
  -26.8145  -30.0119   21.0209 C   0  0  0  0  0  0  0  0  0  0  0  0
  -26.4499  -28.4100   22.7924 C   0  0  0  0  0  0  0  0  0  0  0  0
  -22.1470   -8.1887   22.3018 C   0  0  0  0  0  0  0  0  0  0  0  0
  -23.5221  -10.0864   20.8004 C   0  0  0  0  0  0  0  0  0  0  0  0
  -26.8549  -13.8409   21.4646 C   0  0  0  0  0  0  0  0  0  0  0  0
  -28.3782  -20.4466   21.7508 C   0  0  0  0  0  0  0  0  0  0  0  0
  -29.6305  -18.3810   21.7947 C   0  0  0  0  0  0  0  0  0  0  0  0
  -25.7460  -30.7752   21.4912 C   0  0  0  0  0  0  0  0  0  0  0  0
  -25.3814  -29.1733   23.2627 C   0  0  0  0  0  0  0  0  0  0  0  0
  -27.7616  -14.0775   20.4322 C   0  0  0  0  0  0  0  0  0  0  0  0
  -23.3422  -33.3317   22.4405 C   0  0  0  0  0  0  0  0  0  0  0  0
  -23.5223  -34.7118   22.5331 C   0  0  0  0  0  0  0  0  0  0  0  0
  -26.4014  -15.9171   19.6673 C   0  0  0  0  0  0  0  0  0  0  0  0
  -29.4781  -19.6580   19.7495 C   0  0  0  0  0  0  0  0  0  0  0  0
  -25.3509  -34.3697   24.0746 C   0  0  0  0  0  0  0  0  0  0  0  0
  -27.1664  -28.8292   21.6714 C   0  0  0  0  0  0  0  0  0  0  0  0
  -29.6221  -28.1473   21.5615 C   0  0  0  0  0  0  0  0  0  0  0  0
  -21.5740   -9.4545   22.1016 C   0  0  0  0  0  0  0  0  0  0  0  0
  -25.7071  -14.6351   21.5997 C   0  0  0  0  0  0  0  0  0  0  0  0
  -22.2635  -10.4122   21.3337 C   0  0  0  0  0  0  0  0  0  0  0  0
  -25.4831  -15.6901   20.7038 C   0  0  0  0  0  0  0  0  0  0  0  0
  -28.6940  -20.6094   20.4020 C   0  0  0  0  0  0  0  0  0  0  0  0
  -25.0294  -30.3560   22.6121 C   0  0  0  0  0  0  0  0  0  0  0  0
  -27.5335  -15.1138   19.5317 C   0  0  0  0  0  0  0  0  0  0  0  0
  -29.9463  -18.5437   20.4459 C   0  0  0  0  0  0  0  0  0  0  0  0
  -24.1664  -32.4706   23.1651 C   0  0  0  0  0  0  0  0  0  0  0  0
  -24.5266  -35.2308   23.3501 C   0  0  0  0  0  0  0  0  0  0  0  0
  -25.1708  -32.9896   23.9821 C   0  0  0  0  0  0  0  0  0  0  0  0
  -28.2697  -28.0399   21.1858 C   0  0  0  0  0  0  0  0  0  0  0  0
  -30.2616  -27.1827   20.8219 C   0  0  0  0  0  0  0  0  0  0  0  0
  -30.2447  -29.0393   22.4956 C   0  0  0  0  0  0  0  0  0  0  0  0
  -22.5773  -14.0904   21.4945 C   0  0  0  0  0  0  0  0  0  0  0  0
  -22.3997  -17.2044   22.3855 C   0  0  0  0  0  0  0  0  0  0  0  0
  -23.8774  -20.2791   22.4818 C   0  0  0  0  0  0  0  0  0  0  0  0
  -28.4398  -22.0546   18.3543 C   0  0  0  0  0  0  0  0  0  0  0  0
  -20.2003   -9.7263   22.6618 C   0  0  0  0  0  0  0  0  0  0  0  0
  -24.7526  -14.3839   22.7347 C   0  0  0  0  0  0  0  0  0  0  0  0
  -24.2765  -16.5845   20.8175 C   0  0  0  0  0  0  0  0  0  0  0  0
  -19.8419  -11.2096   22.7030 C   0  0  0  0  0  0  0  0  0  0  0  0
  -29.9334  -24.8146   16.6724 C   0  0  0  0  0  0  0  0  0  0  0  0
  -20.1928  -11.8806   21.3789 C   0  0  0  0  0  0  0  0  0  0  0  0
  -29.8048  -25.9632   17.6755 C   0  0  0  0  0  0  0  0  0  0  0  0
  -28.7152  -23.8935   16.7057 C   0  0  0  0  0  0  0  0  0  0  0  0
  -28.2348  -24.5257   19.0378 C   0  0  0  0  0  0  0  0  0  0  0  0
  -21.6983  -11.7964   21.0997 C   0  0  1  0  0  0  0  0  0  0  0  0
  -23.3528  -14.9297   22.4701 C   0  0  1  0  0  0  0  0  0  0  0  0
  -29.4671  -25.4437   19.0868 C   0  0  2  0  0  0  0  0  0  0  0  0
  -33.3026  -16.2979   17.6350 C   0  0  0  0  0  0  0  0  0  0  0  0
  -24.1846  -22.6972   23.0781 C   0  0  0  0  0  0  0  0  0  0  0  0
  -20.5540  -17.6525   19.9975 C   0  0  0  0  0  0  0  0  0  0  0  0
  -20.9507  -20.1125   20.2412 C   0  0  0  0  0  0  0  0  0  0  0  0
  -19.8615  -18.8376   22.0880 C   0  0  0  0  0  0  0  0  0  0  0  0
  -30.4585  -15.8409   16.4839 C   0  0  0  0  0  0  0  0  0  0  0  0
  -25.2580  -19.6003   25.0100 C   0  0  0  0  0  0  0  0  0  0  0  0
  -32.1906  -15.5134   18.3211 C   0  0  0  0  0  0  0  0  0  0  0  0
  -29.7833  -15.0171   18.7670 C   0  0  0  0  0  0  0  0  0  1  0  0
  -30.4841  -17.4323   18.4133 C   0  0  0  0  0  0  0  0  0  0  0  0
  -22.3324  -18.5234   21.6543 C   0  0  1  0  0  0  0  0  0  0  0  0
  -24.0490  -21.2793   23.6108 C   0  0  2  0  0  0  0  0  0  0  0  0
  -20.9465  -18.7636   20.9917 C   0  0  0  0  0  0  0  0  0  0  0  0
  -30.7382  -15.9653   17.9950 C   0  0  2  0  0  0  0  0  0  0  0  0
  -28.0612  -27.0827   20.2779 N   0  0  0  0  0  0  0  0  0  0  0  0
  -29.2912  -26.5798   20.0769 N   0  0  0  0  0  0  0  0  0  0  0  0
  -23.3693  -16.2947   21.9402 N   0  0  0  0  0  0  0  0  0  0  0  0
  -28.4584  -23.4372   18.0734 N   0  0  0  0  0  0  0  0  0  0  0  0
  -31.5537  -26.7998   20.7427 N   0  0  0  0  0  0  0  0  0  0  0  0
  -29.4407  -29.9687   23.1695 N   0  0  0  0  0  0  0  0  0  0  0  0
  -28.2185  -21.7416   19.6950 N   0  0  0  0  0  0  0  0  0  0  0  0
  -22.4142  -12.7760   21.8886 N   0  0  0  0  0  0  0  0  0  0  0  0
  -22.7179  -19.5460   22.6207 N   0  0  0  0  0  0  0  0  0  0  0  0
  -25.2672  -20.9579   24.4069 N   0  3  0  0  0  0  0  0  0  0  0  0
  -31.4799  -29.0239   22.7137 O   0  0  0  0  0  0  0  0  0  0  0  0
  -22.1567  -14.5980   20.4615 O   0  0  0  0  0  0  0  0  0  0  0  0
  -21.6255  -16.9919   23.3220 O   0  0  0  0  0  0  0  0  0  0  0  0
  -24.6888  -20.1625   21.5660 O   0  0  0  0  0  0  0  0  0  0  0  0
  -28.6349  -21.2112   17.4753 O   0  0  0  0  0  0  0  0  0  0  0  0
  -23.9869  -31.1007   23.0715 O   0  0  0  0  0  0  0  0  0  0  0  0
  -28.4165  -15.3465   18.5227 O   0  0  0  0  0  0  0  0  0  1  0  0
  -30.7165  -17.6090   19.8048 O   0  0  0  0  0  0  0  0  0  0  0  0
  -24.7005  -36.5560   23.4377 F   0  0  0  0  0  0  0  0  0  0  0  0
  -25.9665  -32.1673   24.6796 F   0  0  0  0  0  0  0  0  0  0  0  0
  1  2  1  0  0  0  0
  1  6  2  0  0  0  0
  2  7  2  0  0  0  0
  3  9  1  0  0  0  0
  3 10  2  0  0  0  0
  4 11  2  0  0  0  0
  4 19  1  0  0  0  0
  5 12  1  0  0  0  0
  5 19  2  0  0  0  0
  6 21  1  0  0  0  0
  7 23  1  0  0  0  0
  8 13  2  0  0  0  0
  8 22  1  0  0  0  0
  9 25  2  0  0  0  0
 10 28  1  0  0  0  0
 11 26  1  0  0  0  0
 12 26  2  0  0  0  0
 13 27  1  0  0  0  0
 14 15  2  0  0  0  0
 14 29  1  0  0  0  0
 15 30  1  0  0  0  0
 16 24  1  0  0  0  0
 16 27  2  0  0  0  0
 17 25  1  0  0  0  0
 17 28  2  0  0  0  0
 18 30  2  0  0  0  0
 18 31  1  0  0  0  0
 19 32  1  0  0  0  0
 20 32  1  0  0  0  0
 20 33  2  0  0  0  0
 20 34  1  0  0  0  0
 21 23  2  0  0  0  0
 21 39  1  0  0  0  0
 22 24  2  0  0  0  0
 22 40  1  0  0  0  0
 23 48  1  0  0  0  0
 24 41  1  0  0  0  0
 25 71  1  0  0  0  0
 26 80  1  0  0  0  0
 27 81  1  0  0  0  0
 28 82  1  0  0  0  0
 29 31  2  0  0  0  0
 29 80  1  0  0  0  0
 30 83  1  0  0  0  0
 31 84  1  0  0  0  0
 32 65  2  0  0  0  0
 33 66  1  0  0  0  0
 33 69  1  0  0  0  0
 34 70  1  0  0  0  0
 34 75  2  0  0  0  0
 35 49  1  0  0  0  0
 35 72  1  0  0  0  0
 35 76  2  0  0  0  0
 36 61  1  0  0  0  0
 36 67  1  0  0  0  0
 36 77  2  0  0  0  0
 37 62  1  0  0  0  0
 37 73  1  0  0  0  0
 37 78  2  0  0  0  0
 38 68  1  0  0  0  0
 38 71  1  0  0  0  0
 38 79  2  0  0  0  0
 39 42  1  0  0  0  0
 40 49  1  0  0  0  0
 41 67  1  0  0  0  0
 42 44  1  0  0  0  0
 43 45  1  0  0  0  0
 43 46  1  0  0  0  0
 44 48  1  0  0  0  0
 45 50  1  0  0  0  0
 46 68  1  0  0  0  0
 47 50  1  0  0  0  0
 47 68  1  0  0  0  0
 48 72  1  0  0  0  0
 49 67  1  0  0  0  0
 50 66  1  0  0  0  0
 51 58  1  0  0  0  0
 52 62  1  0  0  0  0
 53 63  1  0  0  0  0
 54 63  1  0  0  0  0
 55 63  1  0  0  0  0
 56 64  1  0  0  0  0
 57 74  1  0  0  0  0
 58 64  1  0  0  0  0
 59 64  1  0  0  0  0
 59 81  1  0  0  0  0
 60 64  1  0  0  0  0
 60 82  1  0  0  0  0
 61 63  1  0  0  0  0
 61 73  1  0  0  0  0
 62 74  1  0  0  0  0
 65 66  1  0  0  0  0
M  CHG  1  74   1
M  ISO  4  38 100  59 101  71 100  81 101
M  END
> <Batch ID>
0139

> <Smiles>
CCC(C)(COc1cccc([100NH:0][100C:0](=O)N2CCCC(n3nc(-c4ccc(Oc5ccc(F)cc5F)cc4)c(C(N)=O)c3N)C2)c1)[101CH2:1][101O:1]c1ccc2c(c1)CN(C(=O)C(NC(=O)C(C)NC)C(C)(C)C)C(C(=O)NC1CCCc3ccccc31)C2

> <Shape>
0.256

> <Color>
0.083

> <Negative vol penalty>
0.000

$$$$

  -OEChem-04052302483D

 87 96  0     1  0  0  0  0  0999 V2000
  -31.0806  -35.7375   23.7838 C   0  0  0  0  0  0  0  0  0  0  0  0
  -31.3916  -34.5636   24.4626 C   0  0  0  0  0  0  0  0  0  0  0  0
  -22.6732  -10.1800   20.1869 C   0  0  0  0  0  0  0  0  0  0  0  0
  -24.3117   -9.4450   21.8031 C   0  0  0  0  0  0  0  0  0  0  0  0
  -29.8853  -35.8344   23.0727 C   0  0  0  0  0  0  0  0  0  0  0  0
  -30.5068  -33.4863   24.4316 C   0  0  0  0  0  0  0  0  0  0  0  0
  -30.4281  -26.3234   24.4800 C   0  0  0  0  0  0  0  0  0  0  0  0
  -21.9412   -9.0115   20.3976 C   0  0  0  0  0  0  0  0  0  0  0  0
  -23.5797   -8.2765   22.0139 C   0  0  0  0  0  0  0  0  0  0  0  0
  -29.8442  -25.2572   25.1628 C   0  0  0  0  0  0  0  0  0  0  0  0
  -20.8178   -7.3437   23.7233 C   0  0  0  0  0  0  0  0  0  0  0  0
  -20.6208   -6.9331   25.0417 C   0  0  0  0  0  0  0  0  0  0  0  0
  -27.8453  -25.5105   23.8363 C   0  0  0  0  0  0  0  0  0  0  0  0
  -31.6219  -19.2876   23.0007 C   0  0  0  0  0  0  0  0  0  0  0  0
  -31.8628  -17.3020   21.6458 C   0  0  0  0  0  0  0  0  0  0  0  0
  -21.7578   -4.8555   24.5646 C   0  0  0  0  0  0  0  0  0  0  0  0
  -23.8585  -10.3967   20.8896 C   0  0  0  0  0  0  0  0  0  0  0  0
  -24.1818  -12.9271   20.8752 C   0  0  0  0  0  0  0  0  0  0  0  0
  -28.9898  -34.7543   23.0250 C   0  0  0  0  0  0  0  0  0  0  0  0
  -29.7198  -26.9992   23.4761 C   0  0  0  0  0  0  0  0  0  0  0  0
  -29.2977  -33.5693   23.7204 C   0  0  0  0  0  0  0  0  0  0  0  0
  -28.4234  -26.5832   23.1406 C   0  0  0  0  0  0  0  0  0  0  0  0
  -32.3795  -18.5034   22.1309 C   0  0  0  0  0  0  0  0  0  0  0  0
  -29.8310  -17.6690   22.9004 C   0  0  0  0  0  0  0  0  0  0  0  0
  -30.3476  -18.8704   23.3855 C   0  0  0  0  0  0  0  0  0  0  0  0
  -30.5886  -16.8848   22.0305 C   0  0  0  0  0  0  0  0  0  0  0  0
  -22.3944   -8.0598   21.3111 C   0  0  0  0  0  0  0  0  0  0  0  0
  -28.5515  -24.8525   24.8430 C   0  0  0  0  0  0  0  0  0  0  0  0
  -21.4847   -6.5102   22.8255 C   0  0  0  0  0  0  0  0  0  0  0  0
  -21.0908   -5.6890   25.4624 C   0  0  0  0  0  0  0  0  0  0  0  0
  -21.9548   -5.2661   23.2461 C   0  0  0  0  0  0  0  0  0  0  0  0
  -24.6154  -11.6033   20.6720 C   0  0  0  0  0  0  0  0  0  0  0  0
  -25.2629  -13.6997   20.5274 C   0  0  0  0  0  0  0  0  0  0  0  0
  -22.9152  -13.4149   21.3370 C   0  0  0  0  0  0  0  0  0  0  0  0
  -28.6970  -29.9816   23.0723 C   0  0  0  0  0  0  0  0  0  0  0  0
  -27.8597  -28.8832   20.1371 C   0  0  0  0  0  0  0  0  0  0  0  0
  -26.3682  -25.8959   18.7702 C   0  0  0  0  0  0  0  0  0  0  0  0
  -30.7243  -14.7762   20.6587 C   0  0  0  0  0  0  0  0  0  0  0  0
  -27.6880  -34.9228   22.2823 C   0  0  0  0  0  0  0  0  0  0  0  0
  -30.3737  -28.1302   22.7306 C   0  0  0  0  0  0  0  0  0  0  0  0
  -27.6281  -27.2626   22.0568 C   0  0  0  0  0  0  0  0  0  0  0  0
  -26.9783  -33.6033   21.9901 C   0  0  0  0  0  0  0  0  0  0  0  0
  -29.5865  -12.4606   18.2051 C   0  0  0  0  0  0  0  0  0  0  0  0
  -26.9536  -32.7231   23.2357 C   0  0  0  0  0  0  0  0  0  0  0  0
  -28.1561  -12.1400   18.6449 C   0  0  0  0  0  0  0  0  0  0  0  0
  -27.5996  -21.0707   24.6202 C   0  0  0  0  0  0  0  0  0  0  0  0
  -28.9962  -20.3257   26.5602 C   0  0  0  0  0  0  0  0  0  0  0  0
  -30.5199  -12.6431   19.4006 C   0  0  0  0  0  0  0  0  0  0  0  0
  -28.7291  -20.6902   23.6623 C   0  0  0  0  0  0  0  0  0  0  0  0
  -30.1256  -19.9456   25.6013 C   0  0  0  0  0  0  0  0  0  0  0  0
  -28.6315  -13.2924   20.8433 C   0  0  0  0  0  0  0  0  0  0  0  0
  -28.3750  -32.3702   23.6900 C   0  0  1  0  0  0  0  0  0  0  0  0
  -29.3696  -29.0763   22.0795 C   0  0  1  0  0  0  0  0  0  0  0  0
  -27.6404  -13.1639   19.6750 C   0  0  2  0  0  0  0  0  0  0  0  0
  -28.0930  -21.4554   26.0288 C   0  0  0  0  0  0  0  0  0  0  0  0
  -33.7431  -18.9476   21.7213 C   0  0  0  0  0  0  0  0  0  0  0  0
  -28.4629  -17.2223   23.3136 C   0  0  0  0  0  0  0  0  0  0  0  0
  -26.8800  -21.6155   26.9632 C   0  0  0  0  0  0  0  0  0  0  0  0
  -26.5816  -24.8602   16.4945 C   0  0  0  0  0  0  0  0  0  0  0  0
  -25.3333  -30.4696   19.4965 C   0  0  0  0  0  0  0  0  0  0  0  0
  -24.5331  -28.5174   18.1485 C   0  0  0  0  0  0  0  0  0  0  0  0
  -26.6240  -29.7099   17.4937 C   0  0  0  0  0  0  0  0  0  0  0  0
  -27.2356  -23.3034   19.9040 C   0  0  0  0  0  0  0  0  0  0  0  0
  -28.8518  -22.7954   25.9980 C   0  0  0  0  0  0  0  0  0  1  0  0
  -26.6289  -28.2370   19.5485 C   0  0  1  0  0  0  0  0  0  0  0  0
  -27.0618  -24.8332   17.9372 C   0  0  2  0  0  0  0  0  0  0  0  0
  -25.7866  -29.2303   18.6993 C   0  0  0  0  0  0  0  0  0  0  0  0
  -25.8738  -11.5351   20.2293 N   0  0  0  0  0  0  0  0  0  0  0  0
  -26.2401  -12.8257   20.1514 N   0  0  0  0  0  0  0  0  0  0  0  0
  -29.6021  -19.6725   24.2598 N   0  0  0  0  0  0  0  0  0  0  0  0
  -28.3087  -28.3673   21.3611 N   0  0  0  0  0  0  0  0  0  0  0  0
  -29.9689  -13.6303   20.3314 N   0  0  0  0  0  0  0  0  0  0  0  0
  -25.4634  -15.0346   20.5096 N   0  0  0  0  0  0  0  0  0  0  0  0
  -21.9149  -12.4845   21.6505 N   0  0  0  0  0  0  0  0  0  0  0  0
  -30.0846  -15.6598   21.5275 N   0  0  0  0  0  0  0  0  0  0  0  0
  -28.9283  -31.3264   22.8542 N   0  0  0  0  0  0  0  0  0  0  0  0
  -27.0948  -27.0670   18.8120 N   0  0  0  0  0  0  0  0  0  0  0  0
  -26.7923  -23.4786   18.4970 N   0  3  0  0  0  0  0  0  0  0  0  0
  -22.6719  -14.6400   21.4523 O   0  0  0  0  0  0  0  0  0  0  0  0
  -28.0172  -29.4961   23.9688 O   0  0  0  0  0  0  0  0  0  0  0  0
  -28.4069  -29.8069   19.5297 O   0  0  0  0  0  0  0  0  0  0  0  0
  -25.2879  -25.7073   19.3251 O   0  0  0  0  0  0  0  0  0  0  0  0
  -31.8443  -14.9734   20.1806 O   0  0  0  0  0  0  0  0  0  0  0  0
  -21.6802   -6.9196   21.5171 O   0  0  0  0  0  0  0  0  0  0  0  0
  -27.9789  -23.8126   25.5083 O   0  0  0  0  0  0  0  0  0  1  0  0
  -20.9029   -5.2955   26.7289 F   0  0  0  0  0  0  0  0  0  0  0  0
  -22.5973   -4.4615   22.3885 F   0  0  0  0  0  0  0  0  0  0  0  0
  1  2  1  0  0  0  0
  1  5  2  0  0  0  0
  2  6  2  0  0  0  0
  3  8  2  0  0  0  0
  3 17  1  0  0  0  0
  4  9  1  0  0  0  0
  4 17  2  0  0  0  0
  5 19  1  0  0  0  0
  6 21  1  0  0  0  0
  7 10  2  0  0  0  0
  7 20  1  0  0  0  0
  8 27  1  0  0  0  0
  9 27  2  0  0  0  0
 10 28  1  0  0  0  0
 11 12  2  0  0  0  0
 11 29  1  0  0  0  0
 12 30  1  0  0  0  0
 13 22  1  0  0  0  0
 13 28  2  0  0  0  0
 14 23  2  0  0  0  0
 14 25  1  0  0  0  0
 15 23  1  0  0  0  0
 15 26  2  0  0  0  0
 16 30  2  0  0  0  0
 16 31  1  0  0  0  0
 17 32  1  0  0  0  0
 18 32  1  0  0  0  0
 18 33  2  0  0  0  0
 18 34  1  0  0  0  0
 19 21  2  0  0  0  0
 19 39  1  0  0  0  0
 20 22  2  0  0  0  0
 20 40  1  0  0  0  0
 21 52  1  0  0  0  0
 22 41  1  0  0  0  0
 23 56  1  0  0  0  0
 24 25  2  0  0  0  0
 24 26  1  0  0  0  0
 24 57  1  0  0  0  0
 25 70  1  0  0  0  0
 26 75  1  0  0  0  0
 27 84  1  0  0  0  0
 28 85  1  0  0  0  0
 29 31  2  0  0  0  0
 29 84  1  0  0  0  0
 30 86  1  0  0  0  0
 31 87  1  0  0  0  0
 32 68  2  0  0  0  0
 33 69  1  0  0  0  0
 33 73  1  0  0  0  0
 34 74  1  0  0  0  0
 34 79  2  0  0  0  0
 35 53  1  0  0  0  0
 35 76  1  0  0  0  0
 35 80  2  0  0  0  0
 36 65  1  0  0  0  0
 36 71  1  0  0  0  0
 36 81  2  0  0  0  0
 37 66  1  0  0  0  0
 37 77  1  0  0  0  0
 37 82  2  0  0  0  0
 38 72  1  0  0  0  0
 38 75  1  0  0  0  0
 38 83  2  0  0  0  0
 39 42  1  0  0  0  0
 40 53  1  0  0  0  0
 41 71  1  0  0  0  0
 42 44  1  0  0  0  0
 43 45  1  0  0  0  0
 43 48  1  0  0  0  0
 44 52  1  0  0  0  0
 45 54  1  0  0  0  0
 46 49  1  0  0  0  0
 46 55  1  0  0  0  0
 47 50  1  0  0  0  0
 47 55  1  0  0  0  0
 48 72  1  0  0  0  0
 49 70  1  0  0  0  0
 50 70  1  0  0  0  0
 51 54  1  0  0  0  0
 51 72  1  0  0  0  0
 52 76  1  0  0  0  0
 53 71  1  0  0  0  0
 54 69  1  0  0  0  0
 55 58  1  0  0  0  0
 55 64  1  0  0  0  0
 59 66  1  0  0  0  0
 60 67  1  0  0  0  0
 61 67  1  0  0  0  0
 62 67  1  0  0  0  0
 63 78  1  0  0  0  0
 64 85  1  0  0  0  0
 65 67  1  0  0  0  0
 65 77  1  0  0  0  0
 66 78  1  0  0  0  0
 68 69  1  0  0  0  0
M  CHG  1  78   1
M  ISO  4  38 100  64 101  75 100  85 101
M  END
> <Batch ID>
0139

> <Smiles>
CNC(C)C(=O)NC(C(=O)N1Cc2cc([101O:1][101CH2:1]C3(C)CCN(c4cc(C)cc([100NH:0][100C:0](=O)N5CCCC(n6nc(-c7ccc(Oc8ccc(F)cc8F)cc7)c(C(N)=O)c6N)C5)c4C)CC3)ccc2CC1C(=O)NC1CCCc2ccccc21)C(C)(C)C

> <Shape>
0.262

> <Color>
0.200

> <Negative vol penalty>
0.000

$$$$

  -OEChem-04052302483D

 84 93  0     1  0  0  0  0  0999 V2000
  -26.6815  -35.2815   23.7849 C   0  0  0  0  0  0  0  0  0  0  0  0
  -27.1194  -34.0000   23.4665 C   0  0  0  0  0  0  0  0  0  0  0  0
  -23.6510  -14.1596   21.5723 C   0  0  0  0  0  0  0  0  0  0  0  0
  -25.8307  -14.2184   22.6128 C   0  0  0  0  0  0  0  0  0  0  0  0
  -25.3862  -35.4757   24.2628 C   0  0  0  0  0  0  0  0  0  0  0  0
  -26.2625  -32.9117   23.6269 C   0  0  0  0  0  0  0  0  0  0  0  0
  -31.9415  -22.4262   22.2409 C   0  0  0  0  0  0  0  0  0  0  0  0
  -26.3722  -29.7532   19.6700 C   0  0  0  0  0  0  0  0  0  0  0  0
  -31.4813  -21.4375   23.1105 C   0  0  0  0  0  0  0  0  0  0  0  0
  -23.9400  -12.9041   21.0378 C   0  0  0  0  0  0  0  0  0  0  0  0
  -26.1197  -12.9629   22.0782 C   0  0  0  0  0  0  0  0  0  0  0  0
  -27.4547  -28.8788   19.5831 C   0  0  0  0  0  0  0  0  0  0  0  0
  -23.9659   -9.5252   19.6971 C   0  0  0  0  0  0  0  0  0  0  0  0
  -22.9816   -8.5408   19.7847 C   0  0  0  0  0  0  0  0  0  0  0  0
  -29.6836  -22.7942   21.4642 C   0  0  0  0  0  0  0  0  0  0  0  0
  -26.0891  -27.1078   20.4874 C   0  0  0  0  0  0  0  0  0  0  0  0
  -23.0251   -8.7117   22.1943 C   0  0  0  0  0  0  0  0  0  0  0  0
  -24.5964  -14.8168   22.3598 C   0  0  0  0  0  0  0  0  0  0  0  0
  -23.6982  -16.3916   24.1545 C   0  0  0  0  0  0  0  0  0  0  0  0
  -31.0427  -23.1046   21.4178 C   0  0  0  0  0  0  0  0  0  0  0  0
  -24.5098  -34.3904   24.4199 C   0  0  0  0  0  0  0  0  0  0  0  0
  -25.1411  -29.3135   20.1773 C   0  0  0  0  0  0  0  0  0  0  0  0
  -24.9547  -33.0913   24.1085 C   0  0  0  0  0  0  0  0  0  0  0  0
  -24.9918  -27.9779   20.5773 C   0  0  0  0  0  0  0  0  0  0  0  0
  -30.1222  -21.1272   23.1570 C   0  0  0  0  0  0  0  0  0  0  0  0
  -29.2233  -21.8055   22.3339 C   0  0  0  0  0  0  0  0  0  0  0  0
  -25.1744  -12.3057   21.2907 C   0  0  0  0  0  0  0  0  0  0  0  0
  -27.3141  -27.5567   19.9945 C   0  0  0  0  0  0  0  0  0  0  0  0
  -24.4799  -10.1028   20.8581 C   0  0  0  0  0  0  0  0  0  0  0  0
  -22.5111   -8.1341   21.0332 C   0  0  0  0  0  0  0  0  0  0  0  0
  -24.0095   -9.6960   22.1067 C   0  0  0  0  0  0  0  0  0  0  0  0
  -24.2986  -16.1140   22.9118 C   0  0  0  0  0  0  0  0  0  0  0  0
  -23.6368  -17.7627   24.2075 C   0  0  0  0  0  0  0  0  0  0  0  0
  -23.2372  -15.4907   25.1701 C   0  0  0  0  0  0  0  0  0  0  0  0
  -23.3343  -30.0973   22.6723 C   0  0  0  0  0  0  0  0  0  0  0  0
  -21.2381  -28.0312   21.3087 C   0  0  0  0  0  0  0  0  0  0  0  0
  -20.7297  -25.3557   19.2520 C   0  0  0  0  0  0  0  0  0  0  0  0
  -26.8280  -22.0953   21.6093 C   0  0  0  0  0  0  0  0  0  0  0  0
  -23.1344  -34.6438   24.9846 C   0  0  0  0  0  0  0  0  0  0  0  0
  -23.9755  -30.2621   20.2397 C   0  0  0  0  0  0  0  0  0  0  0  0
  -23.6854  -27.4509   21.1102 C   0  0  0  0  0  0  0  0  0  0  0  0
  -22.1651  -33.4840   24.7710 C   0  0  0  0  0  0  0  0  0  0  0  0
  -23.3088  -21.6089   21.3731 C   0  0  0  0  0  0  0  0  0  0  0  0
  -31.2078  -23.8355   19.0162 C   0  0  0  0  0  0  0  0  0  0  0  0
  -22.8283  -32.1598   25.1364 C   0  0  0  0  0  0  0  0  0  0  0  0
  -30.2425  -24.9228   18.5547 C   0  0  0  0  0  0  0  0  0  0  0  0
  -23.1080  -20.1719   21.8597 C   0  0  0  0  0  0  0  0  0  0  0  0
  -30.8615  -25.5164   20.7755 C   0  0  0  0  0  0  0  0  0  0  0  0
  -24.5975  -21.7597   20.5666 C   0  0  0  0  0  0  0  0  0  0  0  0
  -25.6087  -19.8334   21.7226 C   0  0  0  0  0  0  0  0  0  0  0  0
  -31.5357  -24.1618   20.4883 C   0  0  1  0  0  0  0  0  0  0  0  0
  -24.0465  -31.8886   24.2454 C   0  0  1  0  0  0  0  0  0  0  0  0
  -22.9153  -29.8403   21.2524 C   0  0  1  0  0  0  0  0  0  0  0  0
  -30.6374  -26.1318   19.3957 C   0  0  2  0  0  0  0  0  0  0  0  0
  -24.3565  -19.6461   22.5947 C   0  0  2  0  0  0  0  0  0  0  0  0
  -29.6576  -20.0629   24.0976 C   0  0  0  0  0  0  0  0  0  0  0  0
  -18.9118  -23.8712   18.3637 C   0  0  0  0  0  0  0  0  0  0  0  0
  -21.1132  -26.5830   23.9914 C   0  0  0  0  0  0  0  0  0  0  0  0
  -20.0799  -24.6318   22.8111 C   0  0  0  0  0  0  0  0  0  0  0  0
  -18.9085  -26.8340   22.8378 C   0  0  0  0  0  0  0  0  0  0  0  0
  -21.2897  -26.1475   16.4558 C   0  0  0  0  0  0  0  0  0  0  0  0
  -29.5910  -27.2256   19.3928 C   0  0  0  0  0  0  0  0  0  1  0  0
  -20.9776  -26.5479   21.4133 C   0  0  1  0  0  0  0  0  0  0  0  0
  -19.7386  -25.1251   18.1254 C   0  0  2  0  0  0  0  0  0  0  0  0
  -20.2951  -26.1593   22.7552 C   0  0  0  0  0  0  0  0  0  0  0  0
  -24.5972  -17.2199   22.2249 N   0  0  0  0  0  0  0  0  0  0  0  0
  -24.1827  -18.2057   23.0387 N   0  0  0  0  0  0  0  0  0  0  0  0
  -22.5770  -28.4188   21.1576 N   0  0  0  0  0  0  0  0  0  0  0  0
  -25.7381  -21.2448   21.3274 N   0  0  0  0  0  0  0  0  0  0  0  0
  -23.1697  -18.6206   25.1393 N   0  0  0  0  0  0  0  0  0  0  0  0
  -23.3766  -14.1129   24.9543 N   0  0  0  0  0  0  0  0  0  0  0  0
  -27.8390  -21.5051   22.3671 N   0  0  0  0  0  0  0  0  0  0  0  0
  -23.6254  -31.4209   22.9422 N   0  0  0  0  0  0  0  0  0  0  0  0
  -20.2122  -26.1831   20.2261 N   0  0  0  0  0  0  0  0  0  0  0  0
  -20.4554  -24.9758   16.8274 N   0  3  0  0  0  0  0  0  0  0  0  0
  -22.7022  -15.8951   26.2302 O   0  0  0  0  0  0  0  0  0  0  0  0
  -23.3879  -29.1641   23.4647 O   0  0  0  0  0  0  0  0  0  0  0  0
  -20.2878  -28.8166   21.3519 O   0  0  0  0  0  0  0  0  0  0  0  0
  -21.8494  -24.8493   19.2681 O   0  0  0  0  0  0  0  0  0  0  0  0
  -26.8497  -23.2694   21.2311 O   0  0  0  0  0  0  0  0  0  0  0  0
  -25.4566  -11.0805   20.7695 O   0  0  0  0  0  0  0  0  0  0  0  0
  -28.3692  -26.7014   19.9113 O   0  0  0  0  0  0  0  0  0  1  0  0
  -21.5648   -7.1899   21.1171 F   0  0  0  0  0  0  0  0  0  0  0  0
  -24.4986  -10.2481   23.2255 F   0  0  0  0  0  0  0  0  0  0  0  0
  1  2  1  0  0  0  0
  1  5  2  0  0  0  0
  2  6  2  0  0  0  0
  3 10  2  0  0  0  0
  3 18  1  0  0  0  0
  4 11  1  0  0  0  0
  4 18  2  0  0  0  0
  5 21  1  0  0  0  0
  6 23  1  0  0  0  0
  7  9  2  0  0  0  0
  7 20  1  0  0  0  0
  8 12  2  0  0  0  0
  8 22  1  0  0  0  0
  9 25  1  0  0  0  0
 10 27  1  0  0  0  0
 11 27  2  0  0  0  0
 12 28  1  0  0  0  0
 13 14  2  0  0  0  0
 13 29  1  0  0  0  0
 14 30  1  0  0  0  0
 15 20  2  0  0  0  0
 15 26  1  0  0  0  0
 16 24  1  0  0  0  0
 16 28  2  0  0  0  0
 17 30  2  0  0  0  0
 17 31  1  0  0  0  0
 18 32  1  0  0  0  0
 19 32  1  0  0  0  0
 19 33  2  0  0  0  0
 19 34  1  0  0  0  0
 20 51  1  0  0  0  0
 21 23  2  0  0  0  0
 21 39  1  0  0  0  0
 22 24  2  0  0  0  0
 22 40  1  0  0  0  0
 23 52  1  0  0  0  0
 24 41  1  0  0  0  0
 25 26  2  0  0  0  0
 25 56  1  0  0  0  0
 26 72  1  0  0  0  0
 27 81  1  0  0  0  0
 28 82  1  0  0  0  0
 29 31  2  0  0  0  0
 29 81  1  0  0  0  0
 30 83  1  0  0  0  0
 31 84  1  0  0  0  0
 32 66  2  0  0  0  0
 33 67  1  0  0  0  0
 33 70  1  0  0  0  0
 34 71  1  0  0  0  0
 34 76  2  0  0  0  0
 35 53  1  0  0  0  0
 35 73  1  0  0  0  0
 35 77  2  0  0  0  0
 36 63  1  0  0  0  0
 36 68  1  0  0  0  0
 36 78  2  0  0  0  0
 37 64  1  0  0  0  0
 37 74  1  0  0  0  0
 37 79  2  0  0  0  0
 38 69  1  0  0  0  0
 38 72  1  0  0  0  0
 38 80  2  0  0  0  0
 39 42  1  0  0  0  0
 40 53  1  0  0  0  0
 41 68  1  0  0  0  0
 42 45  1  0  0  0  0
 43 47  1  0  0  0  0
 43 49  1  0  0  0  0
 44 46  1  0  0  0  0
 44 51  1  0  0  0  0
 45 52  1  0  0  0  0
 46 54  1  0  0  0  0
 47 55  1  0  0  0  0
 48 51  1  0  0  0  0
 48 54  1  0  0  0  0
 49 69  1  0  0  0  0
 50 55  1  0  0  0  0
 50 69  1  0  0  0  0
 52 73  1  0  0  0  0
 53 68  1  0  0  0  0
 54 62  1  0  0  0  0
 55 67  1  0  0  0  0
 57 64  1  0  0  0  0
 58 65  1  0  0  0  0
 59 65  1  0  0  0  0
 60 65  1  0  0  0  0
 61 75  1  0  0  0  0
 62 82  1  0  0  0  0
 63 65  1  0  0  0  0
 63 74  1  0  0  0  0
 64 75  1  0  0  0  0
 66 67  1  0  0  0  0
M  CHG  1  75   1
M  ISO  4  38 100  62 101  72 100  82 101
M  END
> <Batch ID>
0139

> <Smiles>
CNC(C)C(=O)NC(C(=O)N1Cc2cc([101O:1][101CH2:1]C3CCC(c4ccc(C)c([100NH:0][100C:0](=O)N5CCCC(n6nc(-c7ccc(Oc8ccc(F)cc8F)cc7)c(C(N)=O)c6N)C5)c4)C3)ccc2CC1C(=O)NC1CCCc2ccccc21)C(C)(C)C

> <Shape>
0.243

> <Color>
0.086

> <Negative vol penalty>
0.000

$$$$

  -OEChem-04052302483D

 86 94  0     1  0  0  0  0  0999 V2000
  -23.7493  -18.0067   20.4488 C   0  0  0  0  0  0  0  0  0  0  0  0
  -24.4790  -19.1288   20.0694 C   0  0  0  0  0  0  0  0  0  0  0  0
  -26.5145  -12.9339   21.5523 C   0  0  0  0  0  0  0  0  0  0  0  0
  -26.1965  -13.7842   19.3133 C   0  0  0  0  0  0  0  0  0  0  0  0
  -22.3693  -18.1004   20.6238 C   0  0  0  0  0  0  0  0  0  0  0  0
  -23.8288  -20.3451   19.8637 C   0  0  0  0  0  0  0  0  0  0  0  0
  -26.2789  -24.2398   21.9786 C   0  0  0  0  0  0  0  0  0  0  0  0
  -25.2426  -12.3623   21.5159 C   0  0  0  0  0  0  0  0  0  0  0  0
  -24.9246  -13.2126   19.2769 C   0  0  0  0  0  0  0  0  0  0  0  0
  -27.3959  -24.7311   21.3043 C   0  0  0  0  0  0  0  0  0  0  0  0
  -23.7844   -9.6124   20.1951 C   0  0  0  0  0  0  0  0  0  0  0  0
  -23.6484   -8.3037   20.6582 C   0  0  0  0  0  0  0  0  0  0  0  0
  -29.6674  -21.8636   15.9215 C   0  0  0  0  0  0  0  0  0  0  0  0
  -29.5416  -20.9529   16.9646 C   0  0  0  0  0  0  0  0  0  0  0  0
  -26.0599  -26.5328   20.4165 C   0  0  0  0  0  0  0  0  0  0  0  0
  -22.0856   -9.0606   22.3381 C   0  0  0  0  0  0  0  0  0  0  0  0
  -26.9914  -13.6449   20.4510 C   0  0  0  0  0  0  0  0  0  0  0  0
  -29.5167  -13.6406   20.0898 C   0  0  0  0  0  0  0  0  0  0  0  0
  -21.7032  -19.3208   20.4296 C   0  0  0  0  0  0  0  0  0  0  0  0
  -25.0394  -24.8862   21.8680 C   0  0  0  0  0  0  0  0  0  0  0  0
  -22.4383  -20.4549   20.0350 C   0  0  0  0  0  0  0  0  0  0  0  0
  -24.9294  -26.0491   21.0924 C   0  0  0  0  0  0  0  0  0  0  0  0
  -24.4477  -12.5016   20.3782 C   0  0  0  0  0  0  0  0  0  0  0  0
  -27.2859  -25.8761   20.5208 C   0  0  0  0  0  0  0  0  0  0  0  0
  -23.0711  -10.6452   20.8036 C   0  0  0  0  0  0  0  0  0  0  0  0
  -22.7989   -8.0278   21.7296 C   0  0  0  0  0  0  0  0  0  0  0  0
  -30.2301  -23.1125   16.1605 C   0  0  0  0  0  0  0  0  0  0  0  0
  -22.2217  -10.3693   21.8750 C   0  0  0  0  0  0  0  0  0  0  0  0
  -28.3049  -14.2360   20.4883 C   0  0  0  0  0  0  0  0  0  0  0  0
  -30.6479  -23.3996   17.4500 C   0  0  0  0  0  0  0  0  0  0  0  0
  -29.9904  -21.3366   18.2181 C   0  0  0  0  0  0  0  0  0  0  0  0
  -30.4659  -14.6060   20.3208 C   0  0  0  0  0  0  0  0  0  0  0  0
  -29.7623  -12.3318   19.5584 C   0  0  0  0  0  0  0  0  0  0  0  0
  -22.1736  -24.0678   20.7629 C   0  0  0  0  0  0  0  0  0  0  0  0
  -21.3171  -26.9582   21.9605 C   0  0  0  0  0  0  0  0  0  0  0  0
  -22.2606  -30.1018   22.8958 C   0  0  0  0  0  0  0  0  0  0  0  0
  -30.2371  -20.5703   20.6052 C   0  0  0  0  0  0  0  0  0  0  0  0
  -20.2035  -19.3620   20.5847 C   0  0  0  0  0  0  0  0  0  0  0  0
  -23.8503  -24.3587   22.6231 C   0  0  0  0  0  0  0  0  0  0  0  0
  -23.6260  -26.7917   20.9571 C   0  0  0  0  0  0  0  0  0  0  0  0
  -19.6429  -20.7762   20.7112 C   0  0  0  0  0  0  0  0  0  0  0  0
  -31.3782  -18.3592   23.1520 C   0  0  0  0  0  0  0  0  0  0  0  0
  -20.2528  -21.6890   19.6521 C   0  0  0  0  0  0  0  0  0  0  0  0
  -30.8350  -16.9957   22.7185 C   0  0  0  0  0  0  0  0  0  0  0  0
  -30.3974  -19.4870   22.8358 C   0  0  0  0  0  0  0  0  0  0  0  0
  -29.3944  -18.1739   21.0086 C   0  0  0  0  0  0  0  0  0  0  0  0
  -21.7725  -21.7978   19.8265 C   0  0  1  0  0  0  0  0  0  0  0  0
  -22.5185  -24.8037   22.0267 C   0  0  1  0  0  0  0  0  0  0  0  0
  -30.3750  -17.0141   21.2475 C   0  0  2  0  0  0  0  0  0  0  0  0
  -33.2750  -24.4015   16.0758 C   0  0  0  0  0  0  0  0  0  0  0  0
  -21.3314  -32.2500   23.8007 C   0  0  0  0  0  0  0  0  0  0  0  0
  -32.3142  -24.6632   18.9264 C   0  0  0  0  0  0  0  0  0  0  0  0
  -20.1708  -27.6179   19.2108 C   0  0  0  0  0  0  0  0  0  0  0  0
  -20.1330  -30.0296   19.8822 C   0  0  0  0  0  0  0  0  0  0  0  0
  -18.7605  -28.3661   21.1358 C   0  0  0  0  0  0  0  0  0  0  0  0
  -29.0831  -26.0740   17.0471 C   0  0  0  0  0  0  0  0  0  0  0  0
  -30.7403  -27.2631   18.4532 C   0  0  0  0  0  0  0  0  0  0  0  0
  -23.9404  -29.9392   25.3270 C   0  0  0  0  0  0  0  0  0  0  0  0
  -32.1152  -25.2971   16.5182 C   0  0  0  0  0  0  0  0  0  0  0  0
  -29.3570  -25.4079   19.4498 C   0  0  0  0  0  0  0  0  0  1  0  0
  -21.2725  -28.3679   21.4221 C   0  0  1  0  0  0  0  0  0  0  0  0
  -21.9664  -30.9118   24.1454 C   0  0  2  0  0  0  0  0  0  0  0  0
  -31.2826  -24.7868   17.7593 C   0  0  1  0  0  0  0  0  0  0  0  0
  -20.1085  -28.5805   20.4135 C   0  0  0  0  0  0  0  0  0  0  0  0
  -30.1309  -25.8616   18.1708 C   0  0  0  0  0  0  0  0  0  0  0  0
  -28.4666  -15.4831   20.9384 N   0  0  0  0  0  0  0  0  0  0  0  0
  -30.5422  -22.5408   18.4886 N   0  0  0  0  0  0  0  0  0  0  0  0
  -29.7913  -15.6792   20.8242 N   0  0  0  0  0  0  0  0  0  0  0  0
  -22.4906  -26.2330   21.7097 N   0  0  0  0  0  0  0  0  0  0  0  0
  -30.0094  -19.4442   21.4243 N   0  0  0  0  0  0  0  0  0  0  0  0
  -31.8035  -14.6332   20.1404 N   0  0  0  0  0  0  0  0  0  0  0  0
  -28.6739  -11.4660   19.3849 N   0  0  0  0  0  0  0  0  0  0  0  0
  -29.8574  -20.4012   19.2741 N   0  0  0  0  0  0  0  0  0  0  0  0
  -22.0933  -22.6966   20.9144 N   0  0  0  0  0  0  0  0  0  0  0  0
  -21.2238  -29.2476   22.5849 N   0  0  0  0  0  0  0  0  0  0  0  0
  -23.2233  -31.1694   24.9036 N   0  3  0  0  0  0  0  0  0  0  0  0
  -30.9151  -11.9359   19.2619 O   0  0  0  0  0  0  0  0  0  0  0  0
  -21.9923  -24.6975   19.7274 O   0  0  0  0  0  0  0  0  0  0  0  0
  -20.3493  -26.5192   22.5869 O   0  0  0  0  0  0  0  0  0  0  0  0
  -23.3042  -30.2180   22.2570 O   0  0  0  0  0  0  0  0  0  0  0  0
  -30.7576  -21.5985   21.0455 O   0  0  0  0  0  0  0  0  0  0  0  0
  -23.2067  -11.9438   20.3422 O   0  0  0  0  0  0  0  0  0  0  0  0
  -28.3744  -26.3575   19.8611 O   0  0  0  0  0  0  0  0  0  1  0  0
  -22.6672   -6.7708   22.1732 F   0  0  0  0  0  0  0  0  0  0  0  0
  -30.3585  -24.0019   15.1684 F   0  0  0  0  0  0  0  0  0  0  0  0
  -21.5329  -11.3572   22.4628 F   0  0  0  0  0  0  0  0  0  0  0  0
  1  2  1  0  0  0  0
  1  5  2  0  0  0  0
  2  6  2  0  0  0  0
  3  8  2  0  0  0  0
  3 17  1  0  0  0  0
  4  9  1  0  0  0  0
  4 17  2  0  0  0  0
  5 19  1  0  0  0  0
  6 21  1  0  0  0  0
  7 10  2  0  0  0  0
  7 20  1  0  0  0  0
  8 23  1  0  0  0  0
  9 23  2  0  0  0  0
 10 24  1  0  0  0  0
 11 12  2  0  0  0  0
 11 25  1  0  0  0  0
 12 26  1  0  0  0  0
 13 14  2  0  0  0  0
 13 27  1  0  0  0  0
 14 31  1  0  0  0  0
 15 22  1  0  0  0  0
 15 24  2  0  0  0  0
 16 26  2  0  0  0  0
 16 28  1  0  0  0  0
 17 29  1  0  0  0  0
 18 29  1  0  0  0  0
 18 32  2  0  0  0  0
 18 33  1  0  0  0  0
 19 21  2  0  0  0  0
 19 38  1  0  0  0  0
 20 22  2  0  0  0  0
 20 39  1  0  0  0  0
 21 47  1  0  0  0  0
 22 40  1  0  0  0  0
 23 82  1  0  0  0  0
 24 83  1  0  0  0  0
 25 28  2  0  0  0  0
 25 82  1  0  0  0  0
 26 84  1  0  0  0  0
 27 30  2  0  0  0  0
 27 85  1  0  0  0  0
 28 86  1  0  0  0  0
 29 66  2  0  0  0  0
 30 63  1  0  0  0  0
 30 67  1  0  0  0  0
 31 67  2  0  0  0  0
 31 73  1  0  0  0  0
 32 68  1  0  0  0  0
 32 71  1  0  0  0  0
 33 72  1  0  0  0  0
 33 77  2  0  0  0  0
 34 48  1  0  0  0  0
 34 74  1  0  0  0  0
 34 78  2  0  0  0  0
 35 61  1  0  0  0  0
 35 69  1  0  0  0  0
 35 79  2  0  0  0  0
 36 62  1  0  0  0  0
 36 75  1  0  0  0  0
 36 80  2  0  0  0  0
 37 70  1  0  0  0  0
 37 73  1  0  0  0  0
 37 81  2  0  0  0  0
 38 41  1  0  0  0  0
 39 48  1  0  0  0  0
 40 69  1  0  0  0  0
 41 43  1  0  0  0  0
 42 44  1  0  0  0  0
 42 45  1  0  0  0  0
 43 47  1  0  0  0  0
 44 49  1  0  0  0  0
 45 70  1  0  0  0  0
 46 49  1  0  0  0  0
 46 70  1  0  0  0  0
 47 74  1  0  0  0  0
 48 69  1  0  0  0  0
 49 68  1  0  0  0  0
 50 59  1  0  0  0  0
 51 62  1  0  0  0  0
 52 63  1  0  0  0  0
 53 64  1  0  0  0  0
 54 64  1  0  0  0  0
 55 64  1  0  0  0  0
 56 65  1  0  0  0  0
 57 65  1  0  0  0  0
 58 76  1  0  0  0  0
 59 63  1  0  0  0  0
 60 65  1  0  0  0  0
 60 83  1  0  0  0  0
 61 64  1  0  0  0  0
 61 75  1  0  0  0  0
 62 76  1  0  0  0  0
 63 65  1  0  0  0  0
 66 68  1  0  0  0  0
M  CHG  1  76   1
M  ISO  4  37 100  60 101  73 100  83 101
M  END
> <Batch ID>
0139

> <Smiles>
CCC(C)(c1nc([100NH:0][100C:0](=O)N2CCCC(n3nc(-c4ccc(Oc5ccc(F)cc5F)cc4)c(C(N)=O)c3N)C2)ccc1F)C(C)(C)[101CH2:1][101O:1]c1ccc2c(c1)CN(C(=O)C(NC(=O)C(C)NC)C(C)(C)C)C(C(=O)NC1CCCc3ccccc31)C2

> <Shape>
0.252

> <Color>
0.083

> <Negative vol penalty>
0.000

$$$$

  -OEChem-04052302483D

 90 98  0     1  0  0  0  0  0999 V2000
  -31.6580  -13.4812   22.5072 C   0  0  0  0  0  0  0  0  0  0  0  0
  -30.6387  -14.3983   22.7422 C   0  0  0  0  0  0  0  0  0  0  0  0
  -23.2816  -31.5693   23.0008 C   0  0  0  0  0  0  0  0  0  0  0  0
  -22.8473  -29.2184   23.3498 C   0  0  0  0  0  0  0  0  0  0  0  0
  -31.5492  -12.5744   21.4537 C   0  0  0  0  0  0  0  0  0  0  0  0
  -29.5103  -14.4099   21.9230 C   0  0  0  0  0  0  0  0  0  0  0  0
  -25.2013  -14.7854   24.5567 C   0  0  0  0  0  0  0  0  0  0  0  0
  -21.9713  -31.7454   22.5563 C   0  0  0  0  0  0  0  0  0  0  0  0
  -21.5369  -29.3945   22.9053 C   0  0  0  0  0  0  0  0  0  0  0  0
  -24.8566  -16.0480   25.0371 C   0  0  0  0  0  0  0  0  0  0  0  0
  -17.9709  -29.2950   22.2038 C   0  0  0  0  0  0  0  0  0  0  0  0
  -16.9494  -28.6951   22.9401 C   0  0  0  0  0  0  0  0  0  0  0  0
  -23.3223  -16.3230   23.1960 C   0  0  0  0  0  0  0  0  0  0  0  0
  -28.4957  -23.5667   21.8245 C   0  0  0  0  0  0  0  0  0  0  0  0
  -30.1441  -24.0949   20.1391 C   0  0  0  0  0  0  0  0  0  0  0  0
  -17.5997  -29.9737   24.8842 C   0  0  0  0  0  0  0  0  0  0  0  0
  -23.7196  -30.3057   23.3975 C   0  0  0  0  0  0  0  0  0  0  0  0
  -25.5449  -30.2319   25.1782 C   0  0  0  0  0  0  0  0  0  0  0  0
  -30.4146  -12.5685   20.6272 C   0  0  0  0  0  0  0  0  0  0  0  0
  -24.6161  -14.2857   23.3844 C   0  0  0  0  0  0  0  0  0  0  0  0
  -29.3868  -13.5031   20.8566 C   0  0  0  0  0  0  0  0  0  0  0  0
  -23.6594  -15.0527   22.7043 C   0  0  0  0  0  0  0  0  0  0  0  0
  -29.3443  -24.4887   21.2119 C   0  0  0  0  0  0  0  0  0  0  0  0
  -28.4469  -22.2508   21.3644 C   0  0  0  0  0  0  0  0  0  0  0  0
  -21.0989  -30.6581   22.5086 C   0  0  0  0  0  0  0  0  0  0  0  0
  -23.9192  -16.8182   24.3552 C   0  0  0  0  0  0  0  0  0  0  0  0
  -18.8069  -30.2343   22.8077 C   0  0  0  0  0  0  0  0  0  0  0  0
  -29.2466  -21.8569   20.2916 C   0  0  0  0  0  0  0  0  0  0  0  0
  -16.7638  -29.0344   24.2803 C   0  0  0  0  0  0  0  0  0  0  0  0
  -30.0952  -22.7790   19.6790 C   0  0  0  0  0  0  0  0  0  0  0  0
  -18.6213  -30.5736   24.1479 C   0  0  0  0  0  0  0  0  0  0  0  0
  -25.0733  -30.1230   23.8563 C   0  0  0  0  0  0  0  0  0  0  0  0
  -26.8897  -29.9689   25.0857 C   0  0  0  0  0  0  0  0  0  0  0  0
  -24.8310  -30.5430   26.3821 C   0  0  0  0  0  0  0  0  0  0  0  0
  -25.7074  -13.4053   20.5317 C   0  0  0  0  0  0  0  0  0  0  0  0
  -25.9490  -20.4574   23.5194 C   0  0  0  0  0  0  0  0  0  0  0  0
  -22.6356  -12.4666   20.0789 C   0  0  0  0  0  0  0  0  0  0  0  0
  -19.3477  -12.8042   20.9289 C   0  0  0  0  0  0  0  0  0  0  0  0
  -30.1832  -26.8640   21.1847 C   0  0  0  0  0  0  0  0  0  0  0  0
  -30.3633  -11.6007   19.4716 C   0  0  0  0  0  0  0  0  0  0  0  0
  -24.9789  -12.9108   22.8941 C   0  0  0  0  0  0  0  0  0  0  0  0
  -22.9871  -14.5536   21.4523 C   0  0  0  0  0  0  0  0  0  0  0  0
  -28.9659  -11.4307   18.8810 C   0  0  0  0  0  0  0  0  0  0  0  0
  -30.5692  -30.2990   22.0383 C   0  0  0  0  0  0  0  0  0  0  0  0
  -28.3053  -12.7899   18.6732 C   0  0  0  0  0  0  0  0  0  0  0  0
  -29.2489  -30.6520   22.7271 C   0  0  0  0  0  0  0  0  0  0  0  0
  -30.3620  -29.3238   20.8808 C   0  0  0  0  0  0  0  0  0  0  0  0
  -28.2989  -28.4569   21.9110 C   0  0  0  0  0  0  0  0  0  0  0  0
  -28.1360  -13.5305   20.0052 C   0  0  1  0  0  0  0  0  0  0  0  0
  -24.7007  -12.7140   21.4070 C   0  0  1  0  0  0  0  0  0  0  0  0
  -28.4646  -29.3861   23.1245 C   0  0  2  0  0  0  0  0  0  0  0  0
  -29.9229  -18.2900   19.7819 C   0  0  0  0  0  0  0  0  0  0  0  0
  -17.0659  -11.9286   20.3596 C   0  0  0  0  0  0  0  0  0  0  0  0
  -22.6298  -14.1454   17.5311 C   0  0  0  0  0  0  0  0  0  0  0  0
  -20.1298  -14.0097   17.5305 C   0  0  0  0  0  0  0  0  0  0  0  0
  -21.4901  -11.9291   17.3226 C   0  0  0  0  0  0  0  0  0  0  0  0
  -23.0368  -21.4606   23.2823 C   0  0  0  0  0  0  0  0  0  0  0  0
  -22.6912  -20.7275   25.6419 C   0  0  0  0  0  0  0  0  0  0  0  0
  -18.9325  -11.7719   23.6713 C   0  0  0  0  0  0  0  0  0  0  0  0
  -24.9942  -20.6412   24.6903 C   0  0  0  0  0  0  0  0  0  0  0  0
  -26.7438  -21.6753   23.0947 C   0  0  0  0  0  0  0  0  0  0  0  0
  -30.1242  -19.6501   20.4155 C   0  0  0  0  0  0  0  0  0  0  0  0
  -23.1870  -19.0252   23.8560 C   0  0  0  0  0  0  0  0  0  1  0  0
  -21.3841  -13.1234   19.5485 C   0  0  1  0  0  0  0  0  0  0  0  0
  -18.2820  -11.7750   21.2597 C   0  0  2  0  0  0  0  0  0  0  0  0
  -21.4224  -13.3124   18.0057 C   0  0  0  0  0  0  0  0  0  0  0  0
  -23.4953  -20.4535   24.3523 C   0  0  0  0  0  0  0  0  0  0  0  0
  -26.0400  -29.8150   22.9876 N   0  0  0  0  0  0  0  0  0  0  0  0
  -27.1325  -29.7281   23.7654 N   0  0  0  0  0  0  0  0  0  0  0  0
  -23.3800  -13.2057   21.0092 N   0  0  0  0  0  0  0  0  0  0  0  0
  -29.6160  -28.1474   21.3328 N   0  0  0  0  0  0  0  0  0  0  0  0
  -27.8765  -29.9224   26.0058 N   0  0  0  0  0  0  0  0  0  0  0  0
  -23.4533  -30.7858   26.2982 N   0  0  0  0  0  0  0  0  0  0  0  0
  -29.3961  -25.8250   21.6803 N   0  0  0  0  0  0  0  0  0  0  0  0
  -27.5988  -21.3439   21.9827 N   0  0  0  0  0  0  0  0  0  0  0  0
  -27.0104  -12.9958   20.7412 N   0  0  0  0  0  0  0  0  0  0  0  0
  -20.2662  -12.3156   20.0240 N   0  0  0  0  0  0  0  0  0  0  0  0
  -17.8406  -11.9232   22.6754 N   0  3  0  0  0  0  0  0  0  0  0  0
  -25.4012  -30.6199   27.4968 O   0  0  0  0  0  0  0  0  0  0  0  0
  -25.3298  -14.2469   19.7249 O   0  0  0  0  0  0  0  0  0  0  0  0
  -26.0484  -19.3714   22.9479 O   0  0  0  0  0  0  0  0  0  0  0  0
  -22.9377  -11.3364   19.6878 O   0  0  0  0  0  0  0  0  0  0  0  0
  -19.3617  -13.9304   21.4209 O   0  0  0  0  0  0  0  0  0  0  0  0
  -31.2979  -26.7012   20.6817 O   0  0  0  0  0  0  0  0  0  0  0  0
  -19.8201  -30.8296   22.0752 O   0  0  0  0  0  0  0  0  0  0  0  0
  -23.5814  -18.0512   24.8215 O   0  0  0  0  0  0  0  0  0  1  0  0
  -29.2126  -20.5757   19.8278 O   0  0  0  0  0  0  0  0  0  0  0  0
  -15.7818  -28.4594   24.9868 F   0  0  0  0  0  0  0  0  0  0  0  0
  -30.8671  -22.4077   18.6482 F   0  0  0  0  0  0  0  0  0  0  0  0
  -19.4205  -31.4762   24.7331 F   0  0  0  0  0  0  0  0  0  0  0  0
  1  2  1  0  0  0  0
  1  5  2  0  0  0  0
  2  6  2  0  0  0  0
  3  8  2  0  0  0  0
  3 17  1  0  0  0  0
  4  9  1  0  0  0  0
  4 17  2  0  0  0  0
  5 19  1  0  0  0  0
  6 21  1  0  0  0  0
  7 10  2  0  0  0  0
  7 20  1  0  0  0  0
  8 25  1  0  0  0  0
  9 25  2  0  0  0  0
 10 26  1  0  0  0  0
 11 12  2  0  0  0  0
 11 27  1  0  0  0  0
 12 29  1  0  0  0  0
 13 22  1  0  0  0  0
 13 26  2  0  0  0  0
 14 23  2  0  0  0  0
 14 24  1  0  0  0  0
 15 23  1  0  0  0  0
 15 30  2  0  0  0  0
 16 29  2  0  0  0  0
 16 31  1  0  0  0  0
 17 32  1  0  0  0  0
 18 32  1  0  0  0  0
 18 33  2  0  0  0  0
 18 34  1  0  0  0  0
 19 21  2  0  0  0  0
 19 40  1  0  0  0  0
 20 22  2  0  0  0  0
 20 41  1  0  0  0  0
 21 49  1  0  0  0  0
 22 42  1  0  0  0  0
 23 74  1  0  0  0  0
 24 28  2  0  0  0  0
 24 75  1  0  0  0  0
 25 85  1  0  0  0  0
 26 86  1  0  0  0  0
 27 31  2  0  0  0  0
 27 85  1  0  0  0  0
 28 30  1  0  0  0  0
 28 87  1  0  0  0  0
 29 88  1  0  0  0  0
 30 89  1  0  0  0  0
 31 90  1  0  0  0  0
 32 68  2  0  0  0  0
 33 69  1  0  0  0  0
 33 72  1  0  0  0  0
 34 73  1  0  0  0  0
 34 79  2  0  0  0  0
 35 50  1  0  0  0  0
 35 76  1  0  0  0  0
 35 80  2  0  0  0  0
 36 60  1  0  0  0  0
 36 61  1  0  0  0  0
 36 81  2  0  0  0  0
 37 64  1  0  0  0  0
 37 70  1  0  0  0  0
 37 82  2  0  0  0  0
 38 65  1  0  0  0  0
 38 77  1  0  0  0  0
 38 83  2  0  0  0  0
 39 71  1  0  0  0  0
 39 74  1  0  0  0  0
 39 84  2  0  0  0  0
 40 43  1  0  0  0  0
 41 50  1  0  0  0  0
 42 70  1  0  0  0  0
 43 45  1  0  0  0  0
 44 46  1  0  0  0  0
 44 47  1  0  0  0  0
 45 49  1  0  0  0  0
 46 51  1  0  0  0  0
 47 71  1  0  0  0  0
 48 51  1  0  0  0  0
 48 71  1  0  0  0  0
 49 76  1  0  0  0  0
 50 70  1  0  0  0  0
 51 69  1  0  0  0  0
 52 62  1  0  0  0  0
 53 65  1  0  0  0  0
 54 66  1  0  0  0  0
 55 66  1  0  0  0  0
 56 66  1  0  0  0  0
 57 67  1  0  0  0  0
 58 67  1  0  0  0  0
 59 78  1  0  0  0  0
 60 67  1  0  0  0  0
 61 75  1  0  0  0  0
 62 87  1  0  0  0  0
 63 67  1  0  0  0  0
 63 86  1  0  0  0  0
 64 66  1  0  0  0  0
 64 77  1  0  0  0  0
 65 78  1  0  0  0  0
 68 69  1  0  0  0  0
M  CHG  1  78   1
M  ISO  4  39 100  63 101  74 100  86 101
M  END
> <Batch ID>
0139

> <Smiles>
CCOc1c(F)cc([100NH:0][100C:0](=O)N2CCCC(n3nc(-c4ccc(Oc5ccc(F)cc5F)cc4)c(C(N)=O)c3N)C2)cc1NCC(=O)CC(C)(C)[101CH2:1][101O:1]c1ccc2c(c1)CN(C(=O)C(NC(=O)C(C)NC)C(C)(C)C)C(C(=O)NC1CCCc3ccccc31)C2

> <Shape>
0.262

> <Color>
0.056

> <Negative vol penalty>
0.000

$$$$

  -OEChem-04052302483D

 85 93  0     1  0  0  0  0  0999 V2000
  -30.8854  -33.6630   25.2903 C   0  0  0  0  0  0  0  0  0  0  0  0
  -30.8210  -33.2908   23.9513 C   0  0  0  0  0  0  0  0  0  0  0  0
  -28.6295  -23.9440   21.8812 C   0  0  0  0  0  0  0  0  0  0  0  0
  -26.6873  -12.5021   21.8384 C   0  0  0  0  0  0  0  0  0  0  0  0
  -25.9532  -14.0790   20.1617 C   0  0  0  0  0  0  0  0  0  0  0  0
  -30.1264  -32.9801   26.2397 C   0  0  0  0  0  0  0  0  0  0  0  0
  -29.9984  -32.2346   23.5613 C   0  0  0  0  0  0  0  0  0  0  0  0
  -25.9393  -30.0507   18.0776 C   0  0  0  0  0  0  0  0  0  0  0  0
  -28.0176  -24.0778   20.6349 C   0  0  0  0  0  0  0  0  0  0  0  0
  -29.2102  -22.7295   22.2463 C   0  0  0  0  0  0  0  0  0  0  0  0
  -25.4144  -11.9320   21.8595 C   0  0  0  0  0  0  0  0  0  0  0  0
  -24.6804  -13.5089   20.1827 C   0  0  0  0  0  0  0  0  0  0  0  0
  -25.7531  -28.9452   17.2487 C   0  0  0  0  0  0  0  0  0  0  0  0
  -23.6192   -9.7760   19.9722 C   0  0  0  0  0  0  0  0  0  0  0  0
  -23.5321   -8.3840   19.9573 C   0  0  0  0  0  0  0  0  0  0  0  0
  -24.4267  -27.8894   18.9648 C   0  0  0  0  0  0  0  0  0  0  0  0
  -28.5669  -21.7824   20.1188 C   0  0  0  0  0  0  0  0  0  0  0  0
  -22.3712   -8.4340   22.0755 C   0  0  0  0  0  0  0  0  0  0  0  0
  -26.9566  -13.5757   20.9895 C   0  0  0  0  0  0  0  0  0  0  0  0
  -29.3544  -13.7976   20.1473 C   0  0  0  0  0  0  0  0  0  0  0  0
  -29.2867  -31.9213   25.8597 C   0  0  0  0  0  0  0  0  0  0  0  0
  -25.3787  -30.0792   19.3626 C   0  0  0  0  0  0  0  0  0  0  0  0
  -29.2284  -31.5360   24.5068 C   0  0  0  0  0  0  0  0  0  0  0  0
  -24.6051  -28.9975   19.8071 C   0  0  0  0  0  0  0  0  0  0  0  0
  -27.9862  -22.9970   19.7537 C   0  0  0  0  0  0  0  0  0  0  0  0
  -29.1789  -21.6486   21.3651 C   0  0  0  0  0  0  0  0  0  0  0  0
  -24.4110  -12.4353   21.0316 C   0  0  0  0  0  0  0  0  0  0  0  0
  -24.9991  -27.8631   17.6933 C   0  0  0  0  0  0  0  0  0  0  0  0
  -23.0824  -10.4971   21.0388 C   0  0  0  0  0  0  0  0  0  0  0  0
  -22.9081   -7.7129   21.0089 C   0  0  0  0  0  0  0  0  0  0  0  0
  -22.4583   -9.8260   22.0904 C   0  0  0  0  0  0  0  0  0  0  0  0
  -28.2711  -14.1654   20.9677 C   0  0  0  0  0  0  0  0  0  0  0  0
  -30.3653  -14.6541   20.5090 C   0  0  0  0  0  0  0  0  0  0  0  0
  -29.4392  -12.7734   19.1476 C   0  0  0  0  0  0  0  0  0  0  0  0
  -26.5440  -30.2547   22.3148 C   0  0  0  0  0  0  0  0  0  0  0  0
  -25.1556  -24.4016   16.6207 C   0  0  0  0  0  0  0  0  0  0  0  0
  -23.4104  -30.4903   23.1196 C   0  0  0  0  0  0  0  0  0  0  0  0
  -20.1551  -29.8702   22.3039 C   0  0  0  0  0  0  0  0  0  0  0  0
  -30.4171  -20.1151   22.9340 C   0  0  0  0  0  0  0  0  0  0  0  0
  -28.5211  -31.1824   26.9287 C   0  0  0  0  0  0  0  0  0  0  0  0
  -25.5666  -31.2904   20.2344 C   0  0  0  0  0  0  0  0  0  0  0  0
  -23.9650  -28.9875   21.1704 C   0  0  0  0  0  0  0  0  0  0  0  0
  -27.3893  -30.3176   26.3797 C   0  0  0  0  0  0  0  0  0  0  0  0
  -31.9693  -17.1897   24.2417 C   0  0  0  0  0  0  0  0  0  0  0  0
  -27.8729  -29.4997   25.1864 C   0  0  0  0  0  0  0  0  0  0  0  0
  -31.3000  -16.0491   23.4715 C   0  0  0  0  0  0  0  0  0  0  0  0
  -30.9867  -18.3174   24.5523 C   0  0  0  0  0  0  0  0  0  0  0  0
  -29.5867  -17.7010   22.6212 C   0  0  0  0  0  0  0  0  0  0  0  0
  -28.3290  -30.4116   24.0410 C   0  0  1  0  0  0  0  0  0  0  0  0
  -25.3789  -30.9931   21.7189 C   0  0  1  0  0  0  0  0  0  0  0  0
  -30.5523  -16.5708   22.2288 C   0  0  2  0  0  0  0  0  0  0  0  0
  -17.8188  -30.1448   23.1775 C   0  0  0  0  0  0  0  0  0  0  0  0
  -25.6186  -21.9853   16.0663 C   0  0  0  0  0  0  0  0  0  0  0  0
  -23.5842  -22.5974   17.3614 C   0  0  0  0  0  0  0  0  0  0  0  0
  -23.8577  -28.1623   25.0406 C   0  0  0  0  0  0  0  0  0  0  0  0
  -21.3738  -27.8706   25.1552 C   0  0  0  0  0  0  0  0  0  0  0  0
  -22.4158  -29.9962   25.9418 C   0  0  0  0  0  0  0  0  0  0  0  0
  -19.3754  -31.5762   20.0146 C   0  0  0  0  0  0  0  0  0  0  0  0
  -27.3241  -23.1422   18.4056 C   0  0  0  0  0  0  0  0  0  0  0  0
  -24.6504  -25.5167   17.5240 C   0  0  0  0  0  0  0  0  0  1  0  0
  -25.8355  -22.7718   18.4695 C   0  0  0  0  0  0  0  0  0  0  0  0
  -22.3180  -29.5067   23.4633 C   0  0  1  0  0  0  0  0  0  0  0  0
  -18.9235  -30.7572   22.3306 C   0  0  2  0  0  0  0  0  0  0  0  0
  -25.0662  -22.9470   17.1365 C   0  0  0  0  0  0  0  0  0  0  0  0
  -22.5049  -28.8830   24.8752 C   0  0  0  0  0  0  0  0  0  0  0  0
  -28.5663  -15.1767   21.7889 N   0  0  0  0  0  0  0  0  0  0  0  0
  -29.8465  -15.4516   21.4863 N   0  0  0  0  0  0  0  0  0  0  0  0
  -24.1830  -30.1922   21.9881 N   0  0  0  0  0  0  0  0  0  0  0  0
  -30.3192  -18.7637   23.3275 N   0  0  0  0  0  0  0  0  0  0  0  0
  -31.6386  -14.7953   20.0834 N   0  0  0  0  0  0  0  0  0  0  0  0
  -28.3073  -11.9842   18.9020 N   0  0  0  0  0  0  0  0  0  0  0  0
  -29.7694  -20.4152   21.7361 N   0  0  0  0  0  0  0  0  0  0  0  0
  -27.1849  -30.9398   23.3293 N   0  0  0  0  0  0  0  0  0  0  0  0
  -21.0571  -30.2190   23.2868 N   0  0  0  0  0  0  0  0  0  0  0  0
  -18.4002  -30.9587   20.9498 N   0  3  0  0  0  0  0  0  0  0  0  0
  -30.4926  -12.5535   18.5031 O   0  0  0  0  0  0  0  0  0  0  0  0
  -26.8386  -29.1448   21.8869 O   0  0  0  0  0  0  0  0  0  0  0  0
  -25.6147  -24.6620   15.5058 O   0  0  0  0  0  0  0  0  0  0  0  0
  -23.5677  -31.4902   23.8247 O   0  0  0  0  0  0  0  0  0  0  0  0
  -20.3008  -28.9568   21.4946 O   0  0  0  0  0  0  0  0  0  0  0  0
  -31.0533  -20.9393   23.5958 O   0  0  0  0  0  0  0  0  0  0  0  0
  -23.1689  -11.8791   21.0517 O   0  0  0  0  0  0  0  0  0  0  0  0
  -24.8163  -26.7826   16.8865 O   0  0  0  0  0  0  0  0  0  1  0  0
  -22.8232   -6.3763   20.9938 F   0  0  0  0  0  0  0  0  0  0  0  0
  -21.9396  -10.5134   23.1172 F   0  0  0  0  0  0  0  0  0  0  0  0
  1  2  1  0  0  0  0
  1  6  2  0  0  0  0
  2  7  2  0  0  0  0
  3  9  2  0  0  0  0
  3 10  1  0  0  0  0
  4 11  2  0  0  0  0
  4 19  1  0  0  0  0
  5 12  1  0  0  0  0
  5 19  2  0  0  0  0
  6 21  1  0  0  0  0
  7 23  1  0  0  0  0
  8 13  2  0  0  0  0
  8 22  1  0  0  0  0
  9 25  1  0  0  0  0
 10 26  2  0  0  0  0
 11 27  1  0  0  0  0
 12 27  2  0  0  0  0
 13 28  1  0  0  0  0
 14 15  2  0  0  0  0
 14 29  1  0  0  0  0
 15 30  1  0  0  0  0
 16 24  1  0  0  0  0
 16 28  2  0  0  0  0
 17 25  2  0  0  0  0
 17 26  1  0  0  0  0
 18 30  2  0  0  0  0
 18 31  1  0  0  0  0
 19 32  1  0  0  0  0
 20 32  1  0  0  0  0
 20 33  2  0  0  0  0
 20 34  1  0  0  0  0
 21 23  2  0  0  0  0
 21 40  1  0  0  0  0
 22 24  2  0  0  0  0
 22 41  1  0  0  0  0
 23 49  1  0  0  0  0
 24 42  1  0  0  0  0
 25 59  1  0  0  0  0
 26 72  1  0  0  0  0
 27 82  1  0  0  0  0
 28 83  1  0  0  0  0
 29 31  2  0  0  0  0
 29 82  1  0  0  0  0
 30 84  1  0  0  0  0
 31 85  1  0  0  0  0
 32 66  2  0  0  0  0
 33 67  1  0  0  0  0
 33 70  1  0  0  0  0
 34 71  1  0  0  0  0
 34 76  2  0  0  0  0
 35 50  1  0  0  0  0
 35 73  1  0  0  0  0
 35 77  2  0  0  0  0
 36 60  1  0  0  0  0
 36 64  1  0  0  0  0
 36 78  2  0  0  0  0
 37 62  1  0  0  0  0
 37 68  1  0  0  0  0
 37 79  2  0  0  0  0
 38 63  1  0  0  0  0
 38 74  1  0  0  0  0
 38 80  2  0  0  0  0
 39 69  1  0  0  0  0
 39 72  1  0  0  0  0
 39 81  2  0  0  0  0
 40 43  1  0  0  0  0
 41 50  1  0  0  0  0
 42 68  1  0  0  0  0
 43 45  1  0  0  0  0
 44 46  1  0  0  0  0
 44 47  1  0  0  0  0
 45 49  1  0  0  0  0
 46 51  1  0  0  0  0
 47 69  1  0  0  0  0
 48 51  1  0  0  0  0
 48 69  1  0  0  0  0
 49 73  1  0  0  0  0
 50 68  1  0  0  0  0
 51 67  1  0  0  0  0
 52 63  1  0  0  0  0
 53 64  1  0  0  0  0
 54 64  1  0  0  0  0
 55 65  1  0  0  0  0
 56 65  1  0  0  0  0
 57 65  1  0  0  0  0
 58 75  1  0  0  0  0
 59 61  1  0  0  0  0
 60 83  1  0  0  0  0
 61 64  1  0  0  0  0
 62 65  1  0  0  0  0
 62 74  1  0  0  0  0
 63 75  1  0  0  0  0
 66 67  1  0  0  0  0
M  CHG  1  75   1
M  ISO  4  39 100  60 101  72 100  83 101
M  END
> <Batch ID>
0139

> <Smiles>
CNC(C)C(=O)NC(C(=O)N1Cc2cc([101O:1][101CH2:1]C(=O)C(C)(C)CCc3cccc([100NH:0][100C:0](=O)N4CCCC(n5nc(-c6ccc(Oc7ccc(F)cc7F)cc6)c(C(N)=O)c5N)C4)c3)ccc2CC1C(=O)NC1CCCc2ccccc21)C(C)(C)C

> <Shape>
0.275

> <Color>
0.083

> <Negative vol penalty>
0.000

$$$$

  -OEChem-04052302483D

 86 95  0     1  0  0  0  0  0999 V2000
  -16.8702  -30.3612   23.2731 C   0  0  0  0  0  0  0  0  0  0  0  0
  -18.0733  -30.7911   22.7226 C   0  0  0  0  0  0  0  0  0  0  0  0
  -26.2345  -12.8821   21.0058 C   0  0  0  0  0  0  0  0  0  0  0  0
  -24.4003  -14.4222   20.6879 C   0  0  0  0  0  0  0  0  0  0  0  0
  -16.7960  -29.1172   23.8982 C   0  0  0  0  0  0  0  0  0  0  0  0
  -19.2033  -29.9776   22.7979 C   0  0  0  0  0  0  0  0  0  0  0  0
  -25.1241  -28.2935   19.1340 C   0  0  0  0  0  0  0  0  0  0  0  0
  -25.3374  -11.9007   21.4275 C   0  0  0  0  0  0  0  0  0  0  0  0
  -23.5032  -13.4408   21.1096 C   0  0  0  0  0  0  0  0  0  0  0  0
  -26.5056  -28.2069   19.3004 C   0  0  0  0  0  0  0  0  0  0  0  0
  -23.1707   -9.7295   20.0048 C   0  0  0  0  0  0  0  0  0  0  0  0
  -23.3281   -8.4429   19.4896 C   0  0  0  0  0  0  0  0  0  0  0  0
  -26.2395  -26.0438   20.3344 C   0  0  0  0  0  0  0  0  0  0  0  0
  -30.8793  -23.0189   18.9208 C   0  0  0  0  0  0  0  0  0  0  0  0
  -23.6505   -7.5868   21.7257 C   0  0  0  0  0  0  0  0  0  0  0  0
  -29.1788  -22.4475   17.4430 C   0  0  0  0  0  0  0  0  0  0  0  0
  -25.7659  -14.1428   20.6360 C   0  0  0  0  0  0  0  0  0  0  0  0
  -27.1266  -15.4033   18.8846 C   0  0  0  0  0  0  0  0  0  0  0  0
  -17.9233  -28.2839   23.9727 C   0  0  0  0  0  0  0  0  0  0  0  0
  -24.2876  -27.2589   19.5771 C   0  0  0  0  0  0  0  0  0  0  0  0
  -19.1445  -28.7218   23.4258 C   0  0  0  0  0  0  0  0  0  0  0  0
  -24.8479  -26.1184   20.1701 C   0  0  0  0  0  0  0  0  0  0  0  0
  -29.6422  -22.3366   18.7354 C   0  0  0  0  0  0  0  0  0  0  0  0
  -23.9718  -12.1801   21.4793 C   0  0  0  0  0  0  0  0  0  0  0  0
  -27.0633  -27.0833   19.9033 C   0  0  0  0  0  0  0  0  0  0  0  0
  -23.2534   -9.9448   21.3805 C   0  0  0  0  0  0  0  0  0  0  0  0
  -23.5679   -7.3715   20.3500 C   0  0  0  0  0  0  0  0  0  0  0  0
  -23.4932   -8.8735   22.2409 C   0  0  0  0  0  0  0  0  0  0  0  0
  -26.6921  -15.1572   20.2009 C   0  0  0  0  0  0  0  0  0  0  0  0
  -31.3143  -23.6251   17.7627 C   0  0  0  0  0  0  0  0  0  0  0  0
  -27.9940  -16.4618   19.0017 C   0  0  0  0  0  0  0  0  0  0  0  0
  -31.0553  -26.4167   17.8792 C   0  0  0  0  0  0  0  0  0  0  0  0
  -30.5348  -26.9676   18.9828 C   0  0  0  0  0  0  0  0  0  0  0  0
  -26.7774  -14.7349   17.6652 C   0  0  0  0  0  0  0  0  0  0  0  0
  -21.9468  -27.0268   21.7149 C   0  0  0  0  0  0  0  0  0  0  0  0
  -21.6572  -24.0348   20.4958 C   0  0  0  0  0  0  0  0  0  0  0  0
  -23.1153  -21.4204   18.8569 C   0  0  0  0  0  0  0  0  0  0  0  0
  -29.3378  -21.4519   21.0744 C   0  0  0  0  0  0  0  0  0  0  0  0
  -17.8063  -26.9678   24.7000 C   0  0  0  0  0  0  0  0  0  0  0  0
  -22.8015  -27.3556   19.3661 C   0  0  0  0  0  0  0  0  0  0  0  0
  -23.9952  -24.9713   20.6448 C   0  0  0  0  0  0  0  0  0  0  0  0
  -31.4639  -26.8521   20.1487 C   0  0  0  0  0  0  0  0  0  0  0  0
  -18.9552  -26.0061   24.4076 C   0  0  0  0  0  0  0  0  0  0  0  0
  -32.4846  -25.8186   19.6654 C   0  0  0  0  0  0  0  0  0  0  0  0
  -30.0327  -18.6115   23.1059 C   0  0  0  0  0  0  0  0  0  0  0  0
  -20.2945  -26.7302   24.5014 C   0  0  0  0  0  0  0  0  0  0  0  0
  -29.2613  -17.4799   22.4229 C   0  0  0  0  0  0  0  0  0  0  0  0
  -29.2728  -19.9352   23.0418 C   0  0  0  0  0  0  0  0  0  0  0  0
  -28.0766  -19.2111   21.0135 C   0  0  0  0  0  0  0  0  0  0  0  0
  -20.3860  -27.8573   23.4656 C   0  0  1  0  0  0  0  0  0  0  0  0
  -22.0038  -26.4717   20.3199 C   0  0  1  0  0  0  0  0  0  0  0  0
  -28.8317  -17.8720   20.9956 C   0  0  2  0  0  0  0  0  0  0  0  0
  -32.4255  -25.8437   18.1228 C   0  0  1  0  0  0  0  0  0  0  0  0
  -22.6393  -19.0963   18.0389 C   0  0  0  0  0  0  0  0  0  0  0  0
  -34.8911  -26.2018   17.8120 C   0  0  0  0  0  0  0  0  0  0  0  0
  -33.2802  -26.9496   16.0373 C   0  0  0  0  0  0  0  0  0  0  0  0
  -21.8974  -22.9836   23.3501 C   0  0  0  0  0  0  0  0  0  0  0  0
  -22.3692  -20.7154   22.4009 C   0  0  0  0  0  0  0  0  0  0  0  0
  -20.1794  -21.8226   21.9520 C   0  0  0  0  0  0  0  0  0  0  0  0
  -23.6159  -22.1839   16.0417 C   0  0  0  0  0  0  0  0  0  0  0  0
  -32.5612  -24.4347   17.5421 C   0  0  0  0  0  0  0  0  0  0  0  0
  -29.2272  -27.6615   19.1039 C   0  0  0  0  0  0  0  0  0  1  0  0
  -22.2629  -22.6885   20.8114 C   0  0  1  0  0  0  0  0  0  0  0  0
  -22.6436  -20.5758   17.6871 C   0  0  2  0  0  0  0  0  0  0  0  0
  -33.5010  -26.7643   17.5348 C   0  0  0  0  0  0  0  0  0  0  0  0
  -21.6934  -22.0748   22.1215 C   0  0  0  0  0  0  0  0  0  0  0  0
  -27.2385  -15.9920   21.0888 N   0  0  0  0  0  0  0  0  0  0  0  0
  -28.0254  -16.7730   20.3292 N   0  0  0  0  0  0  0  0  0  0  0  0
  -22.5471  -25.1157   20.4217 N   0  0  0  0  0  0  0  0  0  0  0  0
  -28.9023  -20.2438   21.6589 N   0  0  0  0  0  0  0  0  0  0  0  0
  -28.7254  -17.1474   18.0975 N   0  0  0  0  0  0  0  0  0  0  0  0
  -25.8715  -13.6671   17.7244 N   0  0  0  0  0  0  0  0  0  0  0  0
  -28.9519  -21.6213   19.7451 N   0  0  0  0  0  0  0  0  0  0  0  0
  -20.6688  -27.3163   22.1535 N   0  0  0  0  0  0  0  0  0  0  0  0
  -22.0598  -21.8617   19.6267 N   0  0  0  0  0  0  0  0  0  0  0  0
  -23.5357  -20.7764   16.5103 N   0  3  0  0  0  0  0  0  0  0  0  0
  -27.2670  -15.0640   16.5582 O   0  0  0  0  0  0  0  0  0  0  0  0
  -22.9853  -27.1797   22.3473 O   0  0  0  0  0  0  0  0  0  0  0  0
  -20.4402  -24.1228   20.3144 O   0  0  0  0  0  0  0  0  0  0  0  0
  -24.3017  -21.6614   19.0690 O   0  0  0  0  0  0  0  0  0  0  0  0
  -30.0271  -22.2630   21.6981 O   0  0  0  0  0  0  0  0  0  0  0  0
  -23.0961  -11.2226   21.8906 O   0  0  0  0  0  0  0  0  0  0  0  0
  -28.4114  -26.9965   20.0676 O   0  0  0  0  0  0  0  0  0  1  0  0
  -23.7175   -6.1358   19.8552 F   0  0  0  0  0  0  0  0  0  0  0  0
  -23.5725   -9.0739   23.5636 F   0  0  0  0  0  0  0  0  0  0  0  0
  -30.2332  -23.3710   16.4593 S   0  0  0  0  0  0  0  0  0  0  0  0
  1  2  1  0  0  0  0
  1  5  2  0  0  0  0
  2  6  2  0  0  0  0
  3  8  2  0  0  0  0
  3 17  1  0  0  0  0
  4  9  1  0  0  0  0
  4 17  2  0  0  0  0
  5 19  1  0  0  0  0
  6 21  1  0  0  0  0
  7 10  2  0  0  0  0
  7 20  1  0  0  0  0
  8 24  1  0  0  0  0
  9 24  2  0  0  0  0
 10 25  1  0  0  0  0
 11 12  2  0  0  0  0
 11 26  1  0  0  0  0
 12 27  1  0  0  0  0
 13 22  1  0  0  0  0
 13 25  2  0  0  0  0
 14 23  1  0  0  0  0
 14 30  2  0  0  0  0
 15 27  2  0  0  0  0
 15 28  1  0  0  0  0
 16 23  2  0  0  0  0
 16 86  1  0  0  0  0
 17 29  1  0  0  0  0
 18 29  1  0  0  0  0
 18 31  2  0  0  0  0
 18 34  1  0  0  0  0
 19 21  2  0  0  0  0
 19 39  1  0  0  0  0
 20 22  2  0  0  0  0
 20 40  1  0  0  0  0
 21 50  1  0  0  0  0
 22 41  1  0  0  0  0
 23 73  1  0  0  0  0
 24 82  1  0  0  0  0
 25 83  1  0  0  0  0
 26 28  2  0  0  0  0
 26 82  1  0  0  0  0
 27 84  1  0  0  0  0
 28 85  1  0  0  0  0
 29 67  2  0  0  0  0
 30 61  1  0  0  0  0
 30 86  1  0  0  0  0
 31 68  1  0  0  0  0
 31 71  1  0  0  0  0
 32 33  2  0  0  0  0
 32 53  1  0  0  0  0
 33 42  1  0  0  0  0
 33 62  1  0  0  0  0
 34 72  1  0  0  0  0
 34 77  2  0  0  0  0
 35 51  1  0  0  0  0
 35 74  1  0  0  0  0
 35 78  2  0  0  0  0
 36 63  1  0  0  0  0
 36 69  1  0  0  0  0
 36 79  2  0  0  0  0
 37 64  1  0  0  0  0
 37 75  1  0  0  0  0
 37 80  2  0  0  0  0
 38 70  1  0  0  0  0
 38 73  1  0  0  0  0
 38 81  2  0  0  0  0
 39 43  1  0  0  0  0
 40 51  1  0  0  0  0
 41 69  1  0  0  0  0
 42 44  1  0  0  0  0
 43 46  1  0  0  0  0
 44 53  1  0  0  0  0
 45 47  1  0  0  0  0
 45 48  1  0  0  0  0
 46 50  1  0  0  0  0
 47 52  1  0  0  0  0
 48 70  1  0  0  0  0
 49 52  1  0  0  0  0
 49 70  1  0  0  0  0
 50 74  1  0  0  0  0
 51 69  1  0  0  0  0
 52 68  1  0  0  0  0
 53 61  1  0  0  0  0
 53 65  1  0  0  0  0
 54 64  1  0  0  0  0
 55 65  1  0  0  0  0
 56 65  1  0  0  0  0
 57 66  1  0  0  0  0
 58 66  1  0  0  0  0
 59 66  1  0  0  0  0
 60 76  1  0  0  0  0
 62 83  1  0  0  0  0
 63 66  1  0  0  0  0
 63 75  1  0  0  0  0
 64 76  1  0  0  0  0
 67 68  1  0  0  0  0
M  CHG  1  76   1
M  ISO  4  38 100  62 101  73 100  83 101
M  END
> <Batch ID>
0139

> <Smiles>
CNC(C)C(=O)NC(C(=O)N1Cc2cc([101O:1][101CH2:1]C3=CC(Cc4cc([100NH:0][100C:0](=O)N5CCCC(n6nc(-c7ccc(Oc8ccc(F)cc8F)cc7)c(C(N)=O)c6N)C5)cs4)(C(C)C)CC3)ccc2CC1C(=O)NC1CCCc2ccccc21)C(C)(C)C

> <Shape>
0.250

> <Color>
0.065

> <Negative vol penalty>
0.000

$$$$

  -OEChem-04052302483D

 83 91  0     1  0  0  0  0  0999 V2000
  -17.9926  -33.7536   22.4742 C   0  0  0  0  0  0  0  0  0  0  0  0
  -19.2246  -33.7728   21.8283 C   0  0  0  0  0  0  0  0  0  0  0  0
  -26.6114  -12.0397   21.6455 C   0  0  0  0  0  0  0  0  0  0  0  0
  -25.9048  -13.3130   19.7177 C   0  0  0  0  0  0  0  0  0  0  0  0
  -17.7445  -32.8120   23.4720 C   0  0  0  0  0  0  0  0  0  0  0  0
  -20.2097  -32.8510   22.1807 C   0  0  0  0  0  0  0  0  0  0  0  0
  -25.6144  -29.0988   19.3476 C   0  0  0  0  0  0  0  0  0  0  0  0
  -25.3680  -11.4089   21.6846 C   0  0  0  0  0  0  0  0  0  0  0  0
  -24.6614  -12.6822   19.7567 C   0  0  0  0  0  0  0  0  0  0  0  0
  -26.9695  -28.8410   19.5506 C   0  0  0  0  0  0  0  0  0  0  0  0
  -23.7924   -8.9052   20.0468 C   0  0  0  0  0  0  0  0  0  0  0  0
  -23.7723   -7.5231   20.2339 C   0  0  0  0  0  0  0  0  0  0  0  0
  -29.6582  -22.4516   19.9038 C   0  0  0  0  0  0  0  0  0  0  0  0
  -26.4007  -27.2094   21.2339 C   0  0  0  0  0  0  0  0  0  0  0  0
  -22.4860   -7.8158   22.2580 C   0  0  0  0  0  0  0  0  0  0  0  0
  -28.6835  -22.6188   17.8003 C   0  0  0  0  0  0  0  0  0  0  0  0
  -26.8798  -12.9918   20.6621 C   0  0  0  0  0  0  0  0  0  0  0  0
  -29.3471  -23.2964   18.7994 C   0  0  0  0  0  0  0  0  0  0  0  0
  -29.3103  -13.2219   19.9222 C   0  0  0  0  0  0  0  0  0  0  0  0
  -18.7237  -31.8720   23.8301 C   0  0  0  0  0  0  0  0  0  0  0  0
  -24.6410  -28.4205   20.0952 C   0  0  0  0  0  0  0  0  0  0  0  0
  -19.9750  -31.8968   23.1852 C   0  0  0  0  0  0  0  0  0  0  0  0
  -25.0339  -27.4586   21.0367 C   0  0  0  0  0  0  0  0  0  0  0  0
  -24.3930  -11.7301   20.7402 C   0  0  0  0  0  0  0  0  0  0  0  0
  -27.3629  -27.8983   20.4959 C   0  0  0  0  0  0  0  0  0  0  0  0
  -23.1594   -9.7426   20.9654 C   0  0  0  0  0  0  0  0  0  0  0  0
  -23.1191   -6.9784   21.3394 C   0  0  0  0  0  0  0  0  0  0  0  0
  -22.5062   -9.1979   22.0709 C   0  0  0  0  0  0  0  0  0  0  0  0
  -28.1639  -13.6442   20.6216 C   0  0  0  0  0  0  0  0  0  0  0  0
  -30.2563  -14.1766   20.2051 C   0  0  0  0  0  0  0  0  0  0  0  0
  -29.2202  -21.1603   19.7067 C   0  0  0  0  0  0  0  0  0  0  0  0
  -29.6823  -24.7469   18.6976 C   0  0  0  0  0  0  0  0  0  0  0  0
  -29.5029  -12.0696   19.0910 C   0  0  0  0  0  0  0  0  0  0  0  0
  -22.3883  -29.2929   22.1610 C   0  0  0  0  0  0  0  0  0  0  0  0
  -21.5643  -26.1603   21.9880 C   0  0  0  0  0  0  0  0  0  0  0  0
  -22.5063  -22.9496   21.3166 C   0  0  0  0  0  0  0  0  0  0  0  0
  -29.9050  -19.9263   21.7935 C   0  0  0  0  0  0  0  0  0  0  0  0
  -18.4262  -30.9038   24.9476 C   0  0  0  0  0  0  0  0  0  0  0  0
  -23.1826  -28.6908   19.8454 C   0  0  0  0  0  0  0  0  0  0  0  0
  -24.0275  -26.6885   21.8508 C   0  0  0  0  0  0  0  0  0  0  0  0
  -19.3900  -29.7212   25.0016 C   0  0  0  0  0  0  0  0  0  0  0  0
  -31.5132  -17.3127   23.5991 C   0  0  0  0  0  0  0  0  0  0  0  0
  -20.8319  -30.2011   24.8693 C   0  0  0  0  0  0  0  0  0  0  0  0
  -30.9457  -16.0369   22.9727 C   0  0  0  0  0  0  0  0  0  0  0  0
  -30.4616  -18.4173   23.6877 C   0  0  0  0  0  0  0  0  0  0  0  0
  -29.2099  -17.4500   21.7992 C   0  0  0  0  0  0  0  0  0  0  0  0
  -21.0602  -30.8973   23.5223 C   0  0  1  0  0  0  0  0  0  0  0  0
  -22.2940  -28.3125   21.0263 C   0  0  1  0  0  0  0  0  0  0  0  0
  -30.2495  -16.3302   21.6292 C   0  0  2  0  0  0  0  0  0  0  0  0
  -21.6244  -20.6002   21.3009 C   0  0  0  0  0  0  0  0  0  0  0  0
  -21.7539  -26.0713   25.0320 C   0  0  0  0  0  0  0  0  0  0  0  0
  -21.8097  -23.5726   24.8860 C   0  0  0  0  0  0  0  0  0  0  0  0
  -19.8113  -24.8235   24.0709 C   0  0  0  0  0  0  0  0  0  0  0  0
  -31.7184  -27.1235   18.4889 C   0  0  0  0  0  0  0  0  0  0  0  0
  -31.5854  -27.3114   20.9688 C   0  0  0  0  0  0  0  0  0  0  0  0
  -23.0020  -22.6594   18.4133 C   0  0  0  0  0  0  0  0  0  0  0  0
  -30.4204  -25.4042   19.8613 C   0  0  0  0  0  0  0  0  0  0  0  0
  -29.5553  -27.8135   19.5784 C   0  0  0  0  0  0  0  0  0  1  0  0
  -21.9565  -24.9088   22.7356 C   0  0  1  0  0  0  0  0  0  0  0  0
  -21.8536  -21.8617   20.4830 C   0  0  2  0  0  0  0  0  0  0  0  0
  -21.3521  -24.8598   24.1673 C   0  0  0  0  0  0  0  0  0  0  0  0
  -30.7966  -26.9029   19.7020 C   0  0  0  0  0  0  0  0  0  0  0  0
  -28.3614  -14.7789   21.2980 N   0  0  0  0  0  0  0  0  0  0  0  0
  -29.6430  -15.0776   21.0251 N   0  0  0  0  0  0  0  0  0  0  0  0
  -22.6139  -26.9929   21.5745 N   0  0  0  0  0  0  0  0  0  0  0  0
  -29.8479  -18.6431   22.3773 N   0  0  0  0  0  0  0  0  0  0  0  0
  -31.5446  -14.3250   19.8300 N   0  0  0  0  0  0  0  0  0  0  0  0
  -28.4263  -11.1914   18.9065 N   0  0  0  0  0  0  0  0  0  0  0  0
  -29.3163  -20.0127   20.5323 N   0  0  0  0  0  0  0  0  0  0  0  0
  -21.1944  -29.9192   22.4641 N   0  0  0  0  0  0  0  0  0  0  0  0
  -21.5708  -23.7877   21.8855 N   0  0  0  0  0  0  0  0  0  0  0  0
  -22.7147  -21.5158   19.3169 N   0  3  0  0  0  0  0  0  0  0  0  0
  -29.3660  -25.3514   17.6772 O   0  0  0  0  0  0  0  0  0  0  0  0
  -30.6021  -11.8171   18.5419 O   0  0  0  0  0  0  0  0  0  0  0  0
  -23.4642  -29.4671   22.7212 O   0  0  0  0  0  0  0  0  0  0  0  0
  -20.3711  -26.3870   21.7724 O   0  0  0  0  0  0  0  0  0  0  0  0
  -23.7242  -23.0440   21.4528 O   0  0  0  0  0  0  0  0  0  0  0  0
  -30.4609  -20.8719   22.3581 O   0  0  0  0  0  0  0  0  0  0  0  0
  -23.1796  -11.1145   20.7778 O   0  0  0  0  0  0  0  0  0  0  0  0
  -28.6848  -27.6452   20.6966 O   0  0  0  0  0  0  0  0  0  1  0  0
  -23.0985   -5.6511   21.5181 F   0  0  0  0  0  0  0  0  0  0  0  0
  -21.8953   -9.9973   22.9561 F   0  0  0  0  0  0  0  0  0  0  0  0
  -28.4380  -20.9708   18.1953 S   0  0  0  0  0  0  0  0  0  0  0  0
  1  2  1  0  0  0  0
  1  5  2  0  0  0  0
  2  6  2  0  0  0  0
  3  8  2  0  0  0  0
  3 17  1  0  0  0  0
  4  9  1  0  0  0  0
  4 17  2  0  0  0  0
  5 20  1  0  0  0  0
  6 22  1  0  0  0  0
  7 10  2  0  0  0  0
  7 21  1  0  0  0  0
  8 24  1  0  0  0  0
  9 24  2  0  0  0  0
 10 25  1  0  0  0  0
 11 12  2  0  0  0  0
 11 26  1  0  0  0  0
 12 27  1  0  0  0  0
 13 18  1  0  0  0  0
 13 31  2  0  0  0  0
 14 23  1  0  0  0  0
 14 25  2  0  0  0  0
 15 27  2  0  0  0  0
 15 28  1  0  0  0  0
 16 18  2  0  0  0  0
 16 83  1  0  0  0  0
 17 29  1  0  0  0  0
 18 32  1  0  0  0  0
 19 29  1  0  0  0  0
 19 30  2  0  0  0  0
 19 33  1  0  0  0  0
 20 22  2  0  0  0  0
 20 38  1  0  0  0  0
 21 23  2  0  0  0  0
 21 39  1  0  0  0  0
 22 47  1  0  0  0  0
 23 40  1  0  0  0  0
 24 79  1  0  0  0  0
 25 80  1  0  0  0  0
 26 28  2  0  0  0  0
 26 79  1  0  0  0  0
 27 81  1  0  0  0  0
 28 82  1  0  0  0  0
 29 63  2  0  0  0  0
 30 64  1  0  0  0  0
 30 67  1  0  0  0  0
 31 69  1  0  0  0  0
 31 83  1  0  0  0  0
 32 57  1  0  0  0  0
 32 73  2  0  0  0  0
 33 68  1  0  0  0  0
 33 74  2  0  0  0  0
 34 48  1  0  0  0  0
 34 70  1  0  0  0  0
 34 75  2  0  0  0  0
 35 59  1  0  0  0  0
 35 65  1  0  0  0  0
 35 76  2  0  0  0  0
 36 60  1  0  0  0  0
 36 71  1  0  0  0  0
 36 77  2  0  0  0  0
 37 66  1  0  0  0  0
 37 69  1  0  0  0  0
 37 78  2  0  0  0  0
 38 41  1  0  0  0  0
 39 48  1  0  0  0  0
 40 65  1  0  0  0  0
 41 43  1  0  0  0  0
 42 44  1  0  0  0  0
 42 45  1  0  0  0  0
 43 47  1  0  0  0  0
 44 49  1  0  0  0  0
 45 66  1  0  0  0  0
 46 49  1  0  0  0  0
 46 66  1  0  0  0  0
 47 70  1  0  0  0  0
 48 65  1  0  0  0  0
 49 64  1  0  0  0  0
 50 60  1  0  0  0  0
 51 61  1  0  0  0  0
 52 61  1  0  0  0  0
 53 61  1  0  0  0  0
 54 62  1  0  0  0  0
 55 62  1  0  0  0  0
 56 72  1  0  0  0  0
 57 62  1  0  0  0  0
 58 62  1  0  0  0  0
 58 80  1  0  0  0  0
 59 61  1  0  0  0  0
 59 71  1  0  0  0  0
 60 72  1  0  0  0  0
 63 64  1  0  0  0  0
M  CHG  1  72   1
M  ISO  4  37 100  58 101  69 100  80 101
M  END
> <Batch ID>
0139

> <Smiles>
CNC(C)C(=O)NC(C(=O)N1Cc2cc([101O:1][101CH2:1]C(C)(C)CC(=O)c3csc([100NH:0][100C:0](=O)N4CCCC(n5nc(-c6ccc(Oc7ccc(F)cc7F)cc6)c(C(N)=O)c5N)C4)c3)ccc2CC1C(=O)NC1CCCc2ccccc21)C(C)(C)C

> <Shape>
0.306

> <Color>
0.087

> <Negative vol penalty>
0.000

$$$$

  -OEChem-04052302483D

 86 95  0     1  0  0  0  0  0999 V2000
  -22.9065  -20.0667   24.8966 C   0  0  0  0  0  0  0  0  0  0  0  0
  -23.8098  -21.0582   24.5308 C   0  0  0  0  0  0  0  0  0  0  0  0
  -25.4196  -13.4922   21.8470 C   0  0  0  0  0  0  0  0  0  0  0  0
  -26.2434  -13.6640   19.5823 C   0  0  0  0  0  0  0  0  0  0  0  0
  -21.5374  -20.3113   24.8133 C   0  0  0  0  0  0  0  0  0  0  0  0
  -23.3445  -22.2986   24.0929 C   0  0  0  0  0  0  0  0  0  0  0  0
  -26.7066  -25.8140   23.3571 C   0  0  0  0  0  0  0  0  0  0  0  0
  -26.9066  -24.9372   16.4633 C   0  0  0  0  0  0  0  0  0  0  0  0
  -26.1777  -24.0408   17.2447 C   0  0  0  0  0  0  0  0  0  0  0  0
  -25.2291  -12.1213   21.6737 C   0  0  0  0  0  0  0  0  0  0  0  0
  -26.0530  -12.2931   19.4090 C   0  0  0  0  0  0  0  0  0  0  0  0
  -27.5973  -25.7925   22.2847 C   0  0  0  0  0  0  0  0  0  0  0  0
  -24.1882   -8.6372   21.7082 C   0  0  0  0  0  0  0  0  0  0  0  0
  -22.9906   -8.0848   22.1624 C   0  0  0  0  0  0  0  0  0  0  0  0
  -26.2777  -27.4717   21.1629 C   0  0  0  0  0  0  0  0  0  0  0  0
  -28.2374  -23.0737   18.0567 C   0  0  0  0  0  0  0  0  0  0  0  0
  -21.7576   -9.5321   20.6718 C   0  0  0  0  0  0  0  0  0  0  0  0
  -25.9267  -14.2636   20.8012 C   0  0  0  0  0  0  0  0  0  0  0  0
  -27.2827  -16.3246   21.4500 C   0  0  0  0  0  0  0  0  0  0  0  0
  -21.0558  -21.5513   24.3623 C   0  0  0  0  0  0  0  0  0  0  0  0
  -25.5869  -26.6580   23.3356 C   0  0  0  0  0  0  0  0  0  0  0  0
  -21.9666  -22.5730   24.0247 C   0  0  0  0  0  0  0  0  0  0  0  0
  -25.3758  -27.5039   22.2374 C   0  0  0  0  0  0  0  0  0  0  0  0
  -28.3010  -24.9018   16.4784 C   0  0  0  0  0  0  0  0  0  0  0  0
  -28.9664  -23.9701   17.2751 C   0  0  0  0  0  0  0  0  0  0  0  0
  -26.8431  -23.1091   18.0415 C   0  0  0  0  0  0  0  0  0  0  0  0
  -25.5458  -11.5218   20.4547 C   0  0  0  0  0  0  0  0  0  0  0  0
  -27.3814  -26.6193   21.1861 C   0  0  0  0  0  0  0  0  0  0  0  0
  -24.1705   -9.6372   20.7358 C   0  0  0  0  0  0  0  0  0  0  0  0
  -21.7754   -8.5322   21.6442 C   0  0  0  0  0  0  0  0  0  0  0  0
  -22.9552  -10.0846   20.2176 C   0  0  0  0  0  0  0  0  0  0  0  0
  -26.1232  -15.6798   20.9795 C   0  0  0  0  0  0  0  0  0  0  0  0
  -26.9632  -17.6603   21.4342 C   0  0  0  0  0  0  0  0  0  0  0  0
  -28.5366  -15.7661   21.8643 C   0  0  0  0  0  0  0  0  0  0  0  0
  -30.2457  -25.8136   19.0031 C   0  0  0  0  0  0  0  0  0  0  0  0
  -22.4403  -26.2122   23.3962 C   0  0  0  0  0  0  0  0  0  0  0  0
  -22.3778  -29.4490   23.6002 C   0  0  0  0  0  0  0  0  0  0  0  0
  -23.9509  -32.4199   23.0121 C   0  0  0  0  0  0  0  0  0  0  0  0
  -24.7157  -22.1018   18.9393 C   0  0  0  0  0  0  0  0  0  0  0  0
  -19.5640  -21.7649   24.2992 C   0  0  0  0  0  0  0  0  0  0  0  0
  -24.6502  -26.6889   24.5120 C   0  0  0  0  0  0  0  0  0  0  0  0
  -24.2000  -28.4431   22.1743 C   0  0  0  0  0  0  0  0  0  0  0  0
  -19.1687  -22.9396   23.4102 C   0  0  0  0  0  0  0  0  0  0  0  0
  -32.6781  -23.3004   19.2679 C   0  0  0  0  0  0  0  0  0  0  0  0
  -22.5130  -19.9749   20.7563 C   0  0  0  0  0  0  0  0  0  0  0  0
  -19.9916  -24.1665   23.7738 C   0  0  0  0  0  0  0  0  0  0  0  0
  -23.3512  -18.7209   21.0150 C   0  0  0  0  0  0  0  0  0  0  0  0
  -32.5797  -24.6745   18.5832 C   0  0  0  0  0  0  0  0  0  0  0  0
  -31.2258  -23.4860   19.7400 C   0  0  0  0  0  0  0  0  0  0  0  0
  -22.8036  -20.5780   19.3831 C   0  0  0  0  0  0  0  0  0  0  0  0
  -25.0600  -19.5892   19.3678 C   0  0  0  0  0  0  0  0  0  0  0  0
  -21.4835  -23.9194   23.5165 C   0  0  1  0  0  0  0  0  0  0  0  0
  -23.2624  -27.2136   24.1571 C   0  0  1  0  0  0  0  0  0  0  0  0
  -24.8494  -18.9830   20.7649 C   0  0  2  0  0  0  0  0  0  0  0  0
  -31.0166  -24.5429   18.5999 C   0  0  0  0  0  0  0  0  0  0  0  0
  -29.0598  -25.8710   15.6326 C   0  0  0  0  0  0  0  0  0  0  0  0
  -23.6346  -34.8977   23.2523 C   0  0  0  0  0  0  0  0  0  0  0  0
  -20.4949  -29.4390   21.1992 C   0  0  0  0  0  0  0  0  0  0  0  0
  -20.9721  -31.8789   20.9031 C   0  0  0  0  0  0  0  0  0  0  0  0
  -19.8850  -31.0675   22.9966 C   0  0  0  0  0  0  0  0  0  0  0  0
  -26.2925  -32.6619   24.8057 C   0  0  0  0  0  0  0  0  0  0  0  0
  -30.4650  -23.9148   17.3091 C   0  0  0  0  0  0  0  0  0  0  0  0
  -29.3590  -25.7080   20.2299 C   0  0  0  0  0  0  0  0  0  1  0  0
  -22.3350  -30.5824   22.6039 C   0  0  1  0  0  0  0  0  0  0  0  0
  -24.1777  -33.6321   23.8973 C   0  0  2  0  0  0  0  0  0  0  0  0
  -20.9429  -30.7230   21.9257 C   0  0  0  0  0  0  0  0  0  0  0  0
  -25.1403  -16.5354   20.6863 N   0  0  0  0  0  0  0  0  0  0  0  0
  -25.6815  -17.7316   20.9735 N   0  0  0  0  0  0  0  0  0  0  0  0
  -23.3091  -28.4321   23.3463 N   0  0  0  0  0  0  0  0  0  0  0  0
  -24.2415  -20.8028   19.2192 N   0  0  0  0  0  0  0  0  0  0  0  0
  -27.6564  -18.7691   21.7698 N   0  0  0  0  0  0  0  0  0  0  0  0
  -28.6962  -14.3744   21.8175 N   0  0  0  0  0  0  0  0  0  0  0  0
  -26.1030  -22.1996   18.8370 N   0  0  0  0  0  0  0  0  0  0  0  0
  -22.2457  -25.0191   24.0656 N   0  0  0  0  0  0  0  0  0  0  0  0
  -22.7727  -31.7742   23.3224 N   0  0  0  0  0  0  0  0  0  0  0  0
  -25.6337  -33.8221   24.1523 N   0  3  0  0  0  0  0  0  0  0  0  0
  -29.4817  -16.4788   22.2796 O   0  0  0  0  0  0  0  0  0  0  0  0
  -30.3311  -26.8741   18.3731 O   0  0  0  0  0  0  0  0  0  0  0  0
  -22.0129  -26.5011   22.2846 O   0  0  0  0  0  0  0  0  0  0  0  0
  -21.6181  -29.4689   24.5718 O   0  0  0  0  0  0  0  0  0  0  0  0
  -24.7381  -32.0819   22.1308 O   0  0  0  0  0  0  0  0  0  0  0  0
  -23.9495  -23.0623   18.8277 O   0  0  0  0  0  0  0  0  0  0  0  0
  -25.3603  -10.1841   20.2853 O   0  0  0  0  0  0  0  0  0  0  0  0
  -28.2488  -26.5998   20.1378 O   0  0  0  0  0  0  0  0  0  1  0  0
  -20.6255   -8.0005   22.0794 F   0  0  0  0  0  0  0  0  0  0  0  0
  -22.9318  -11.0441   19.2824 F   0  0  0  0  0  0  0  0  0  0  0  0
  1  2  1  0  0  0  0
  1  5  2  0  0  0  0
  2  6  2  0  0  0  0
  3 10  2  0  0  0  0
  3 18  1  0  0  0  0
  4 11  1  0  0  0  0
  4 18  2  0  0  0  0
  5 20  1  0  0  0  0
  6 22  1  0  0  0  0
  7 12  2  0  0  0  0
  7 21  1  0  0  0  0
  8  9  2  0  0  0  0
  8 24  1  0  0  0  0
  9 26  1  0  0  0  0
 10 27  1  0  0  0  0
 11 27  2  0  0  0  0
 12 28  1  0  0  0  0
 13 14  2  0  0  0  0
 13 29  1  0  0  0  0
 14 30  1  0  0  0  0
 15 23  1  0  0  0  0
 15 28  2  0  0  0  0
 16 25  1  0  0  0  0
 16 26  2  0  0  0  0
 17 30  2  0  0  0  0
 17 31  1  0  0  0  0
 18 32  1  0  0  0  0
 19 32  1  0  0  0  0
 19 33  2  0  0  0  0
 19 34  1  0  0  0  0
 20 22  2  0  0  0  0
 20 40  1  0  0  0  0
 21 23  2  0  0  0  0
 21 41  1  0  0  0  0
 22 52  1  0  0  0  0
 23 42  1  0  0  0  0
 24 25  2  0  0  0  0
 24 56  1  0  0  0  0
 25 62  1  0  0  0  0
 26 73  1  0  0  0  0
 27 83  1  0  0  0  0
 28 84  1  0  0  0  0
 29 31  2  0  0  0  0
 29 83  1  0  0  0  0
 30 85  1  0  0  0  0
 31 86  1  0  0  0  0
 32 67  2  0  0  0  0
 33 68  1  0  0  0  0
 33 71  1  0  0  0  0
 34 72  1  0  0  0  0
 34 77  2  0  0  0  0
 35 55  1  0  0  0  0
 35 63  1  0  0  0  0
 35 78  2  0  0  0  0
 36 53  1  0  0  0  0
 36 74  1  0  0  0  0
 36 79  2  0  0  0  0
 37 64  1  0  0  0  0
 37 69  1  0  0  0  0
 37 80  2  0  0  0  0
 38 65  1  0  0  0  0
 38 75  1  0  0  0  0
 38 81  2  0  0  0  0
 39 70  1  0  0  0  0
 39 73  1  0  0  0  0
 39 82  2  0  0  0  0
 40 43  1  0  0  0  0
 41 53  1  0  0  0  0
 42 69  1  0  0  0  0
 43 46  1  0  0  0  0
 44 48  1  0  0  0  0
 44 49  1  0  0  0  0
 45 47  1  0  0  0  0
 45 50  1  0  0  0  0
 46 52  1  0  0  0  0
 47 54  1  0  0  0  0
 48 55  1  0  0  0  0
 49 55  1  0  0  0  0
 50 70  1  0  0  0  0
 51 54  1  0  0  0  0
 51 70  1  0  0  0  0
 52 74  1  0  0  0  0
 53 69  1  0  0  0  0
 54 68  1  0  0  0  0
 55 62  1  0  0  0  0
 57 65  1  0  0  0  0
 58 66  1  0  0  0  0
 59 66  1  0  0  0  0
 60 66  1  0  0  0  0
 61 76  1  0  0  0  0
 63 84  1  0  0  0  0
 64 66  1  0  0  0  0
 64 75  1  0  0  0  0
 65 76  1  0  0  0  0
 67 68  1  0  0  0  0
M  CHG  1  76   1
M  ISO  4  39 100  63 101  73 100  84 101
M  END
> <Batch ID>
0139

> <Smiles>
CNC(C)C(=O)NC(C(=O)N1Cc2cc([101O:1][101CH2:1]C(=O)C3(Cc4cc([100NH:0][100C:0](=O)N5CCCC(n6nc(-c7ccc(Oc8ccc(F)cc8F)cc7)c(C(N)=O)c6N)C5)ccc4C)CCC3)ccc2CC1C(=O)NC1CCCc2ccccc21)C(C)(C)C

> <Shape>
0.206

> <Color>
0.074

> <Negative vol penalty>
0.000

$$$$
