
  -OEChem-04052302513D

 84 92  0     1  0  0  0  0  0999 V2000
  -25.4882  -18.0162   16.2811 C   0  0  0  0  0  0  0  0  0  0  0  0
  -25.6406  -18.2625   17.6418 C   0  0  0  0  0  0  0  0  0  0  0  0
  -23.0861   -9.8304   19.9413 C   0  0  0  0  0  0  0  0  0  0  0  0
  -23.8372   -9.8574   22.2374 C   0  0  0  0  0  0  0  0  0  0  0  0
  -26.5673  -18.1944   15.4164 C   0  0  0  0  0  0  0  0  0  0  0  0
  -26.8726  -18.6861   18.1388 C   0  0  0  0  0  0  0  0  0  0  0  0
  -29.7046  -22.8191   23.2589 C   0  0  0  0  0  0  0  0  0  0  0  0
  -32.5747  -17.5649   23.4361 C   0  0  0  0  0  0  0  0  0  0  0  0
  -31.9828  -16.6777   22.5372 C   0  0  0  0  0  0  0  0  0  0  0  0
  -22.3553   -8.6695   20.1940 C   0  0  0  0  0  0  0  0  0  0  0  0
  -23.1064   -8.6964   22.4901 C   0  0  0  0  0  0  0  0  0  0  0  0
  -30.6411  -22.7664   24.2904 C   0  0  0  0  0  0  0  0  0  0  0  0
  -19.8859   -7.8623   23.0845 C   0  0  0  0  0  0  0  0  0  0  0  0
  -19.1251   -7.8186   24.2527 C   0  0  0  0  0  0  0  0  0  0  0  0
  -32.4131  -23.1166   22.6915 C   0  0  0  0  0  0  0  0  0  0  0  0
  -30.3931  -18.4112   24.0374 C   0  0  0  0  0  0  0  0  0  0  0  0
  -20.3872   -5.8999   25.0029 C   0  0  0  0  0  0  0  0  0  0  0  0
  -23.8271  -10.4243   20.9630 C   0  0  0  0  0  0  0  0  0  0  0  0
  -24.1387  -12.9529   20.8324 C   0  0  0  0  0  0  0  0  0  0  0  0
  -27.8105  -18.6298   15.9017 C   0  0  0  0  0  0  0  0  0  0  0  0
  -30.1170  -23.0104   21.9323 C   0  0  0  0  0  0  0  0  0  0  0  0
  -27.9698  -18.8691   17.2800 C   0  0  0  0  0  0  0  0  0  0  0  0
  -31.4797  -23.1739   21.6452 C   0  0  0  0  0  0  0  0  0  0  0  0
  -29.8012  -17.5240   23.1384 C   0  0  0  0  0  0  0  0  0  0  0  0
  -31.7799  -18.4317   24.1863 C   0  0  0  0  0  0  0  0  0  0  0  0
  -30.5961  -16.6572   22.3883 C   0  0  0  0  0  0  0  0  0  0  0  0
  -22.3654   -8.1025   21.4684 C   0  0  0  0  0  0  0  0  0  0  0  0
  -31.9958  -22.9122   24.0064 C   0  0  0  0  0  0  0  0  0  0  0  0
  -20.8973   -6.9247   22.8753 C   0  0  0  0  0  0  0  0  0  0  0  0
  -19.3758   -6.8375   25.2120 C   0  0  0  0  0  0  0  0  0  0  0  0
  -21.1480   -5.9435   23.8346 C   0  0  0  0  0  0  0  0  0  0  0  0
  -24.5826  -11.6233   20.7025 C   0  0  0  0  0  0  0  0  0  0  0  0
  -25.2230  -13.7139   20.4696 C   0  0  0  0  0  0  0  0  0  0  0  0
  -22.8605  -13.4552   21.2442 C   0  0  0  0  0  0  0  0  0  0  0  0
  -29.9190  -21.3094   19.2543 C   0  0  0  0  0  0  0  0  0  0  0  0
  -31.1711  -23.9884   17.9210 C   0  0  0  0  0  0  0  0  0  0  0  0
  -33.7368  -19.4810   25.3744 C   0  0  0  0  0  0  0  0  0  0  0  0
  -32.9874  -26.8492   18.3260 C   0  0  0  0  0  0  0  0  0  0  0  0
  -30.6754  -14.8266   20.6595 C   0  0  0  0  0  0  0  0  0  0  0  0
  -28.9608  -18.7627   14.9353 C   0  0  0  0  0  0  0  0  0  0  0  0
  -29.0922  -23.0916   20.8343 C   0  0  0  0  0  0  0  0  0  0  0  0
  -31.9724  -23.4018   20.2403 C   0  0  0  0  0  0  0  0  0  0  0  0
  -30.1297  -19.5743   15.4878 C   0  0  0  0  0  0  0  0  0  0  0  0
  -29.5993  -12.3884   18.2986 C   0  0  0  0  0  0  0  0  0  0  0  0
  -30.4678  -19.1261   16.9061 C   0  0  0  0  0  0  0  0  0  0  0  0
  -28.1617  -12.0813   18.7242 C   0  0  0  0  0  0  0  0  0  0  0  0
  -30.5070  -12.6339   19.5025 C   0  0  0  0  0  0  0  0  0  0  0  0
  -28.5863  -13.3416   20.8733 C   0  0  0  0  0  0  0  0  0  0  0  0
  -29.2837  -19.3537   17.8536 C   0  0  1  0  0  0  0  0  0  0  0  0
  -29.6665  -22.7768   19.4564 C   0  0  1  0  0  0  0  0  0  0  0  0
  -27.6200  -13.1510   19.6927 C   0  0  2  0  0  0  0  0  0  0  0  0
  -28.3133  -17.5220   23.0007 C   0  0  0  0  0  0  0  0  0  0  0  0
  -33.8751  -28.8167   17.0462 C   0  0  0  0  0  0  0  0  0  0  0  0
  -33.3510  -22.2220   16.7221 C   0  0  0  0  0  0  0  0  0  0  0  0
  -34.6891  -24.2918   16.2821 C   0  0  0  0  0  0  0  0  0  0  0  0
  -32.4718  -23.9847   15.1813 C   0  0  0  0  0  0  0  0  0  0  0  0
  -31.4468  -28.7641   19.9748 C   0  0  0  0  0  0  0  0  0  0  0  0
  -33.9517  -20.5615   26.4252 C   0  0  0  0  0  0  0  0  0  0  0  0
  -34.8138  -21.7119   25.9170 C   0  0  0  0  0  0  0  0  0  0  0  0
  -34.2091  -22.3649   24.6827 C   0  0  0  0  0  0  0  0  0  1  0  0
  -32.5669  -24.4981   17.6550 C   0  0  1  0  0  0  0  0  0  0  0  0
  -32.7270  -28.2784   17.8858 C   0  0  2  0  0  0  0  0  0  0  0  0
  -33.2609  -23.7429   16.4865 C   0  0  0  0  0  0  0  0  0  0  0  0
  -25.8501  -11.5408   20.2894 N   0  0  0  0  0  0  0  0  0  0  0  0
  -26.2119  -12.8283   20.1564 N   0  0  0  0  0  0  0  0  0  0  0  0
  -30.9322  -23.4671   19.2005 N   0  0  0  0  0  0  0  0  0  0  0  0
  -29.9323  -13.6619   20.3729 N   0  0  0  0  0  0  0  0  0  0  0  0
  -25.4175  -15.0474   20.3911 N   0  0  0  0  0  0  0  0  0  0  0  0
  -21.8584  -12.5354   21.5820 N   0  0  0  0  0  0  0  0  0  0  0  0
  -32.3804  -19.3298   25.1002 N   0  0  0  0  0  0  0  0  0  0  0  0
  -30.0138  -15.7475   21.4712 N   0  0  0  0  0  0  0  0  0  0  0  0
  -29.1916  -20.7504   18.2210 N   0  0  0  0  0  0  0  0  0  0  0  0
  -32.4434  -25.9368   17.4469 N   0  0  0  0  0  0  0  0  0  0  0  0
  -32.5577  -29.1634   19.0729 N   0  3  0  0  0  0  0  0  0  0  0  0
  -22.6091  -14.6831   21.2948 O   0  0  0  0  0  0  0  0  0  0  0  0
  -30.7160  -20.7278   19.9811 O   0  0  0  0  0  0  0  0  0  0  0  0
  -30.3220  -24.0570   17.0289 O   0  0  0  0  0  0  0  0  0  0  0  0
  -34.6713  -18.8630   24.8753 O   0  0  0  0  0  0  0  0  0  0  0  0
  -33.6141  -26.5699   19.3457 O   0  0  0  0  0  0  0  0  0  0  0  0
  -31.8042  -15.0068   20.1953 O   0  0  0  0  0  0  0  0  0  0  0  0
  -21.6523   -6.9698   21.7153 O   0  0  0  0  0  0  0  0  0  0  0  0
  -32.9119  -22.8605   25.0113 O   0  0  0  0  0  0  0  0  0  1  0  0
  -18.6461   -6.7966   26.3345 F   0  0  0  0  0  0  0  0  0  0  0  0
  -22.1191   -5.0408   23.6398 F   0  0  0  0  0  0  0  0  0  0  0  0
  1  2  1  0  0  0  0
  1  5  2  0  0  0  0
  2  6  2  0  0  0  0
  3 10  2  0  0  0  0
  3 18  1  0  0  0  0
  4 11  1  0  0  0  0
  4 18  2  0  0  0  0
  5 20  1  0  0  0  0
  6 22  1  0  0  0  0
  7 12  2  0  0  0  0
  7 21  1  0  0  0  0
  8  9  2  0  0  0  0
  8 25  1  0  0  0  0
  9 26  1  0  0  0  0
 10 27  1  0  0  0  0
 11 27  2  0  0  0  0
 12 28  1  0  0  0  0
 13 14  2  0  0  0  0
 13 29  1  0  0  0  0
 14 30  1  0  0  0  0
 15 23  1  0  0  0  0
 15 28  2  0  0  0  0
 16 24  1  0  0  0  0
 16 25  2  0  0  0  0
 17 30  2  0  0  0  0
 17 31  1  0  0  0  0
 18 32  1  0  0  0  0
 19 32  1  0  0  0  0
 19 33  2  0  0  0  0
 19 34  1  0  0  0  0
 20 22  2  0  0  0  0
 20 40  1  0  0  0  0
 21 23  2  0  0  0  0
 21 41  1  0  0  0  0
 22 49  1  0  0  0  0
 23 42  1  0  0  0  0
 24 26  2  0  0  0  0
 24 52  1  0  0  0  0
 25 70  1  0  0  0  0
 26 71  1  0  0  0  0
 27 81  1  0  0  0  0
 28 82  1  0  0  0  0
 29 31  2  0  0  0  0
 29 81  1  0  0  0  0
 30 83  1  0  0  0  0
 31 84  1  0  0  0  0
 32 64  2  0  0  0  0
 33 65  1  0  0  0  0
 33 68  1  0  0  0  0
 34 69  1  0  0  0  0
 34 75  2  0  0  0  0
 35 50  1  0  0  0  0
 35 72  1  0  0  0  0
 35 76  2  0  0  0  0
 36 61  1  0  0  0  0
 36 66  1  0  0  0  0
 36 77  2  0  0  0  0
 37 58  1  0  0  0  0
 37 70  1  0  0  0  0
 37 78  2  0  0  0  0
 38 62  1  0  0  0  0
 38 73  1  0  0  0  0
 38 79  2  0  0  0  0
 39 67  1  0  0  0  0
 39 71  1  0  0  0  0
 39 80  2  0  0  0  0
 40 43  1  0  0  0  0
 41 50  1  0  0  0  0
 42 66  1  0  0  0  0
 43 45  1  0  0  0  0
 44 46  1  0  0  0  0
 44 47  1  0  0  0  0
 45 49  1  0  0  0  0
 46 51  1  0  0  0  0
 47 67  1  0  0  0  0
 48 51  1  0  0  0  0
 48 67  1  0  0  0  0
 49 72  1  0  0  0  0
 50 66  1  0  0  0  0
 51 65  1  0  0  0  0
 53 62  1  0  0  0  0
 54 63  1  0  0  0  0
 55 63  1  0  0  0  0
 56 63  1  0  0  0  0
 57 74  1  0  0  0  0
 58 59  1  0  0  0  0
 59 60  1  0  0  0  0
 60 82  1  0  0  0  0
 61 63  1  0  0  0  0
 61 73  1  0  0  0  0
 62 74  1  0  0  0  0
 64 65  1  0  0  0  0
M  CHG  1  74   1
M  ISO  4  39 100  60 101  71 100  82 101
M  END
> <Batch ID>
0140

> <Smiles>
CNC(C)C(=O)NC(C(=O)N1Cc2cc([101O:1][101CH2:1]CCC(=O)Nc3ccc([100NH:0][100C:0](=O)N4CCCC(n5nc(-c6ccc(Oc7ccc(F)cc7F)cc6)c(C(N)=O)c5N)C4)c(C)c3)ccc2CC1C(=O)NC1CCCc2ccccc21)C(C)(C)C

> <Shape>
0.229

> <Color>
0.195

> <Negative vol penalty>
0.000

$$$$

  -OEChem-04052302513D

 88 97  0     1  0  0  0  0  0999 V2000
  -18.8138  -30.9333   18.6481 C   0  0  0  0  0  0  0  0  0  0  0  0
  -19.6844  -29.8678   18.8533 C   0  0  0  0  0  0  0  0  0  0  0  0
  -28.3963  -18.8206   24.0412 C   0  0  0  0  0  0  0  0  0  0  0  0
  -23.1135   -9.6237   20.0577 C   0  0  0  0  0  0  0  0  0  0  0  0
  -23.6149  -10.0586   22.3808 C   0  0  0  0  0  0  0  0  0  0  0  0
  -18.8586  -32.0413   19.4933 C   0  0  0  0  0  0  0  0  0  0  0  0
  -20.6011  -29.9102   19.9033 C   0  0  0  0  0  0  0  0  0  0  0  0
  -22.5473  -25.1891   23.2841 C   0  0  0  0  0  0  0  0  0  0  0  0
  -27.8532  -19.8427   23.2628 C   0  0  0  0  0  0  0  0  0  0  0  0
  -29.2878  -17.9102   23.4736 C   0  0  0  0  0  0  0  0  0  0  0  0
  -22.3452   -8.5207   20.4301 C   0  0  0  0  0  0  0  0  0  0  0  0
  -22.8465   -8.9556   22.7531 C   0  0  0  0  0  0  0  0  0  0  0  0
  -23.6975  -24.4035   23.2240 C   0  0  0  0  0  0  0  0  0  0  0  0
  -23.1935   -5.5937   22.8427 C   0  0  0  0  0  0  0  0  0  0  0  0
  -23.7245   -4.7266   23.7975 C   0  0  0  0  0  0  0  0  0  0  0  0
  -24.7288  -25.7956   24.9025 C   0  0  0  0  0  0  0  0  0  0  0  0
  -21.8449   -5.1729   25.2483 C   0  0  0  0  0  0  0  0  0  0  0  0
  -23.7485  -10.3927   21.0331 C   0  0  0  0  0  0  0  0  0  0  0  0
  -24.1044  -12.8607   20.4951 C   0  0  0  0  0  0  0  0  0  0  0  0
  -19.7697  -32.0931   20.5599 C   0  0  0  0  0  0  0  0  0  0  0  0
  -22.4832  -26.2923   24.1474 C   0  0  0  0  0  0  0  0  0  0  0  0
  -20.6590  -31.0205   20.7627 C   0  0  0  0  0  0  0  0  0  0  0  0
  -23.5757  -26.5922   24.9735 C   0  0  0  0  0  0  0  0  0  0  0  0
  -29.0929  -19.0440   21.3491 C   0  0  0  0  0  0  0  0  0  0  0  0
  -28.2015  -19.9544   21.9168 C   0  0  0  0  0  0  0  0  0  0  0  0
  -29.6361  -18.0218   22.1276 C   0  0  0  0  0  0  0  0  0  0  0  0
  -22.2117   -8.1866   21.7777 C   0  0  0  0  0  0  0  0  0  0  0  0
  -24.7895  -24.7084   24.0311 C   0  0  0  0  0  0  0  0  0  0  0  0
  -21.9881   -6.2506   23.0907 C   0  0  0  0  0  0  0  0  0  0  0  0
  -23.0502   -4.5161   25.0002 C   0  0  0  0  0  0  0  0  0  0  0  0
  -21.3138   -6.0401   24.2935 C   0  0  0  0  0  0  0  0  0  0  0  0
  -24.5427  -11.5318   20.6491 C   0  0  0  0  0  0  0  0  0  0  0  0
  -25.2310  -13.5529   20.1232 C   0  0  0  0  0  0  0  0  0  0  0  0
  -22.7960  -13.4195   20.6724 C   0  0  0  0  0  0  0  0  0  0  0  0
  -22.1186  -29.4260   23.7594 C   0  0  0  0  0  0  0  0  0  0  0  0
  -27.7142  -23.1588   22.5594 C   0  0  0  0  0  0  0  0  0  0  0  0
  -21.9831  -29.4177   27.0003 C   0  0  0  0  0  0  0  0  0  0  0  0
  -22.7829  -27.8599   29.9295 C   0  0  0  0  0  0  0  0  0  0  0  0
  -30.6614  -14.6928   20.7206 C   0  0  0  0  0  0  0  0  0  0  0  0
  -19.8130  -33.3325   21.4182 C   0  0  0  0  0  0  0  0  0  0  0  0
  -21.2253  -27.1139   24.2198 C   0  0  0  0  0  0  0  0  0  0  0  0
  -23.5499  -27.7536   25.9321 C   0  0  0  0  0  0  0  0  0  0  0  0
  -20.5594  -33.1357   22.7352 C   0  0  0  0  0  0  0  0  0  0  0  0
  -29.7921  -11.8958   18.6963 C   0  0  0  0  0  0  0  0  0  0  0  0
  -28.3730  -19.1772   18.8716 C   0  0  0  0  0  0  0  0  0  0  0  0
  -29.2630  -17.9807   18.9999 C   0  0  0  0  0  0  0  0  0  0  0  0
  -21.8822  -32.4146   22.4965 C   0  0  0  0  0  0  0  0  0  0  0  0
  -28.3153  -11.6578   19.0159 C   0  0  0  0  0  0  0  0  0  0  0  0
  -30.5710  -12.3470   19.9299 C   0  0  0  0  0  0  0  0  0  0  0  0
  -28.5283  -13.2800   20.9451 C   0  0  0  0  0  0  0  0  0  0  0  0
  -29.4653  -19.1644   19.9056 C   0  0  0  0  0  0  0  0  0  0  0  0
  -21.6507  -31.0185   21.9057 C   0  0  1  0  0  0  0  0  0  0  0  0
  -21.4607  -28.5204   24.7617 C   0  0  1  0  0  0  0  0  0  0  0  0
  -27.6903  -12.8775   19.7196 C   0  0  2  0  0  0  0  0  0  0  0  0
  -22.5704  -28.1128   32.4171 C   0  0  0  0  0  0  0  0  0  0  0  0
  -29.7755  -22.3867   21.3363 C   0  0  0  0  0  0  0  0  0  0  0  0
  -27.8803  -23.3389   20.0496 C   0  0  0  0  0  0  0  0  0  0  0  0
  -24.1966  -31.5176   26.9735 C   0  0  0  0  0  0  0  0  0  0  0  0
  -24.5913  -31.0316   29.3976 C   0  0  0  0  0  0  0  0  0  0  0  0
  -22.3875  -31.9302   28.6502 C   0  0  0  0  0  0  0  0  0  0  0  0
  -21.2220  -25.3567   30.1673 C   0  0  0  0  0  0  0  0  0  0  0  0
  -27.5981  -21.0723   21.0968 C   0  0  0  0  0  0  0  0  0  0  0  0
  -30.5924  -17.0321   21.5466 C   0  0  0  0  0  0  0  0  0  0  0  0
  -26.2109  -23.3181   22.7263 C   0  0  0  0  0  0  0  0  0  1  0  0
  -22.9965  -29.5359   28.1130 C   0  0  1  0  0  0  0  0  0  0  0  0
  -21.9505  -27.5317   31.1558 C   0  0  2  0  0  0  0  0  0  0  0  0
  -28.2375  -22.4756   21.2753 C   0  0  0  0  0  0  0  0  0  0  0  0
  -23.5445  -30.9830   28.2642 C   0  0  0  0  0  0  0  0  0  0  0  0
  -25.8460  -11.3861   20.3956 N   0  0  0  0  0  0  0  0  0  0  0  0
  -26.2363  -12.6323   20.0785 N   0  0  0  0  0  0  0  0  0  0  0  0
  -22.2998  -28.5307   25.9617 N   0  0  0  0  0  0  0  0  0  0  0  0
  -29.9269  -13.5078   20.5493 N   0  0  0  0  0  0  0  0  0  0  0  0
  -25.4497  -14.8531   19.8333 N   0  0  0  0  0  0  0  0  0  0  0  0
  -21.7519  -12.5671   21.0566 N   0  0  0  0  0  0  0  0  0  0  0  0
  -21.2312  -30.0958   22.9387 N   0  0  0  0  0  0  0  0  0  0  0  0
  -22.3492  -29.0138   29.3117 N   0  0  0  0  0  0  0  0  0  0  0  0
  -29.9738  -15.7468   21.3097 N   0  0  0  0  0  0  0  0  0  0  0  0
  -21.8371  -26.0554   31.3250 N   0  3  0  0  0  0  0  0  0  0  0  0
  -22.5563  -14.6356   20.4795 O   0  0  0  0  0  0  0  0  0  0  0  0
  -23.3407  -29.5120   23.7334 O   0  0  0  0  0  0  0  0  0  0  0  0
  -28.4844  -23.5417   23.4436 O   0  0  0  0  0  0  0  0  0  0  0  0
  -20.9454  -30.0824   27.0543 O   0  0  0  0  0  0  0  0  0  0  0  0
  -23.7260  -27.1643   29.5590 O   0  0  0  0  0  0  0  0  0  0  0  0
  -31.8407  -14.8051   20.3693 O   0  0  0  0  0  0  0  0  0  0  0  0
  -21.4618   -7.1105   22.1414 O   0  0  0  0  0  0  0  0  0  0  0  0
  -25.9137  -23.9436   23.9740 O   0  0  0  0  0  0  0  0  0  1  0  0
  -23.5595   -3.6822   25.9164 F   0  0  0  0  0  0  0  0  0  0  0  0
  -20.1549   -6.6674   24.5369 F   0  0  0  0  0  0  0  0  0  0  0  0
  1  2  1  0  0  0  0
  1  6  2  0  0  0  0
  2  7  2  0  0  0  0
  3  9  2  0  0  0  0
  3 10  1  0  0  0  0
  4 11  2  0  0  0  0
  4 18  1  0  0  0  0
  5 12  1  0  0  0  0
  5 18  2  0  0  0  0
  6 20  1  0  0  0  0
  7 22  1  0  0  0  0
  8 13  2  0  0  0  0
  8 21  1  0  0  0  0
  9 25  1  0  0  0  0
 10 26  2  0  0  0  0
 11 27  1  0  0  0  0
 12 27  2  0  0  0  0
 13 28  1  0  0  0  0
 14 15  2  0  0  0  0
 14 29  1  0  0  0  0
 15 30  1  0  0  0  0
 16 23  1  0  0  0  0
 16 28  2  0  0  0  0
 17 30  2  0  0  0  0
 17 31  1  0  0  0  0
 18 32  1  0  0  0  0
 19 32  1  0  0  0  0
 19 33  2  0  0  0  0
 19 34  1  0  0  0  0
 20 22  2  0  0  0  0
 20 40  1  0  0  0  0
 21 23  2  0  0  0  0
 21 41  1  0  0  0  0
 22 52  1  0  0  0  0
 23 42  1  0  0  0  0
 24 25  2  0  0  0  0
 24 26  1  0  0  0  0
 24 51  1  0  0  0  0
 25 62  1  0  0  0  0
 26 63  1  0  0  0  0
 27 85  1  0  0  0  0
 28 86  1  0  0  0  0
 29 31  2  0  0  0  0
 29 85  1  0  0  0  0
 30 87  1  0  0  0  0
 31 88  1  0  0  0  0
 32 69  2  0  0  0  0
 33 70  1  0  0  0  0
 33 73  1  0  0  0  0
 34 74  1  0  0  0  0
 34 79  2  0  0  0  0
 35 53  1  0  0  0  0
 35 75  1  0  0  0  0
 35 80  2  0  0  0  0
 36 64  1  0  0  0  0
 36 67  1  0  0  0  0
 36 81  2  0  0  0  0
 37 65  1  0  0  0  0
 37 71  1  0  0  0  0
 37 82  2  0  0  0  0
 38 66  1  0  0  0  0
 38 76  1  0  0  0  0
 38 83  2  0  0  0  0
 39 72  1  0  0  0  0
 39 77  1  0  0  0  0
 39 84  2  0  0  0  0
 40 43  1  0  0  0  0
 41 53  1  0  0  0  0
 42 71  1  0  0  0  0
 43 47  1  0  0  0  0
 44 48  1  0  0  0  0
 44 49  1  0  0  0  0
 45 46  1  0  0  0  0
 45 51  1  0  0  0  0
 46 51  1  0  0  0  0
 47 52  1  0  0  0  0
 48 54  1  0  0  0  0
 49 72  1  0  0  0  0
 50 54  1  0  0  0  0
 50 72  1  0  0  0  0
 52 75  1  0  0  0  0
 53 71  1  0  0  0  0
 54 70  1  0  0  0  0
 55 66  1  0  0  0  0
 56 67  1  0  0  0  0
 57 67  1  0  0  0  0
 58 68  1  0  0  0  0
 59 68  1  0  0  0  0
 60 68  1  0  0  0  0
 61 78  1  0  0  0  0
 62 67  1  0  0  0  0
 63 77  1  0  0  0  0
 64 86  1  0  0  0  0
 65 68  1  0  0  0  0
 65 76  1  0  0  0  0
 66 78  1  0  0  0  0
 69 70  1  0  0  0  0
M  CHG  1  78   1
M  ISO  4  39 100  64 101  77 100  86 101
M  END
> <Batch ID>
0140

> <Smiles>
CNC(C)C(=O)NC(C(=O)N1Cc2cc([101O:1][101CH2:1]C(=O)C(C)(C)Cc3cccc(C[100NH:0][100C:0](=O)N4CCCC(n5nc(-c6ccc(Oc7ccc(F)cc7F)cc6)c(C(N)=O)c5N)C4)c3C3CC3)ccc2CC1C(=O)NC1CCCc2ccccc21)C(C)(C)C

> <Shape>
0.247

> <Color>
0.188

> <Negative vol penalty>
0.000

$$$$

  -OEChem-04052302513D

 86 94  0     1  0  0  0  0  0999 V2000
  -27.0209  -34.5390   17.4543 C   0  0  0  0  0  0  0  0  0  0  0  0
  -27.3143  -33.6048   16.4661 C   0  0  0  0  0  0  0  0  0  0  0  0
  -23.0742   -9.8697   19.9387 C   0  0  0  0  0  0  0  0  0  0  0  0
  -23.8351   -9.8711   22.2317 C   0  0  0  0  0  0  0  0  0  0  0  0
  -27.9824  -34.8671   18.4092 C   0  0  0  0  0  0  0  0  0  0  0  0
  -28.5697  -32.9990   16.4315 C   0  0  0  0  0  0  0  0  0  0  0  0
  -29.2464  -25.8408   16.8716 C   0  0  0  0  0  0  0  0  0  0  0  0
  -30.6151  -19.8622   21.4817 C   0  0  0  0  0  0  0  0  0  0  0  0
  -29.7112  -19.2805   22.3706 C   0  0  0  0  0  0  0  0  0  0  0  0
  -22.3301   -8.7162   20.1863 C   0  0  0  0  0  0  0  0  0  0  0  0
  -23.0910   -8.7176   22.4794 C   0  0  0  0  0  0  0  0  0  0  0  0
  -29.4461  -24.4665   16.7383 C   0  0  0  0  0  0  0  0  0  0  0  0
  -19.8630   -7.9192   23.0816 C   0  0  0  0  0  0  0  0  0  0  0  0
  -19.1066   -7.8768   24.2527 C   0  0  0  0  0  0  0  0  0  0  0  0
  -31.8400  -24.8072   16.7016 C   0  0  0  0  0  0  0  0  0  0  0  0
  -31.1560  -17.6779   20.6023 C   0  0  0  0  0  0  0  0  0  0  0  0
  -20.3478   -5.9373   24.9841 C   0  0  0  0  0  0  0  0  0  0  0  0
  -23.8267  -10.4472   20.9614 C   0  0  0  0  0  0  0  0  0  0  0  0
  -24.1692  -12.9725   20.8471 C   0  0  0  0  0  0  0  0  0  0  0  0
  -29.2470  -34.2579   18.3921 C   0  0  0  0  0  0  0  0  0  0  0  0
  -30.3445  -26.7030   16.9360 C   0  0  0  0  0  0  0  0  0  0  0  0
  -29.5495  -33.3203   17.3863 C   0  0  0  0  0  0  0  0  0  0  0  0
  -31.6464  -26.1834   16.8476 C   0  0  0  0  0  0  0  0  0  0  0  0
  -31.3375  -19.0609   20.5975 C   0  0  0  0  0  0  0  0  0  0  0  0
  -29.5297  -17.8975   22.3754 C   0  0  0  0  0  0  0  0  0  0  0  0
  -30.2521  -17.0961   21.4913 C   0  0  0  0  0  0  0  0  0  0  0  0
  -22.3385   -8.1401   21.4566 C   0  0  0  0  0  0  0  0  0  0  0  0
  -30.7397  -23.9511   16.6532 C   0  0  0  0  0  0  0  0  0  0  0  0
  -20.8618   -6.9707   22.8616 C   0  0  0  0  0  0  0  0  0  0  0  0
  -19.3490   -6.8858   25.2040 C   0  0  0  0  0  0  0  0  0  0  0  0
  -21.1042   -5.9797   23.8128 C   0  0  0  0  0  0  0  0  0  0  0  0
  -24.5960  -11.6384   20.7061 C   0  0  0  0  0  0  0  0  0  0  0  0
  -25.2614  -13.7225   20.4851 C   0  0  0  0  0  0  0  0  0  0  0  0
  -22.8990  -13.4877   21.2678 C   0  0  0  0  0  0  0  0  0  0  0  0
  -31.5738  -30.2309   17.2802 C   0  0  0  0  0  0  0  0  0  0  0  0
  -33.4379  -28.4695   18.9633 C   0  0  0  0  0  0  0  0  0  0  0  0
  -34.9975  -26.2469   21.0284 C   0  0  0  0  0  0  0  0  0  0  0  0
  -30.7279  -14.7663   20.6596 C   0  0  0  0  0  0  0  0  0  0  0  0
  -30.2699  -34.6797   19.4170 C   0  0  0  0  0  0  0  0  0  0  0  0
  -30.1752  -28.1958   17.0174 C   0  0  0  0  0  0  0  0  0  0  0  0
  -32.7967  -27.1520   16.8864 C   0  0  0  0  0  0  0  0  0  0  0  0
  -31.4476  -33.7157   19.5347 C   0  0  0  0  0  0  0  0  0  0  0  0
  -29.6117  -12.3583   18.2862 C   0  0  0  0  0  0  0  0  0  0  0  0
  -31.9701  -33.3399   18.1517 C   0  0  0  0  0  0  0  0  0  0  0  0
  -28.1722  -12.0661   18.7158 C   0  0  0  0  0  0  0  0  0  0  0  0
  -30.5275  -12.5841   19.4880 C   0  0  0  0  0  0  0  0  0  0  0  0
  -28.6214  -13.3058   20.8718 C   0  0  0  0  0  0  0  0  0  0  0  0
  -30.8915  -32.6232   17.3304 C   0  0  1  0  0  0  0  0  0  0  0  0
  -31.2655  -28.8817   17.8600 C   0  0  1  0  0  0  0  0  0  0  0  0
  -27.6479  -13.1355   19.6941 C   0  0  2  0  0  0  0  0  0  0  0  0
  -28.5554  -17.3017   23.3392 C   0  0  0  0  0  0  0  0  0  0  0  0
  -36.8417  -26.0924   22.7232 C   0  0  0  0  0  0  0  0  0  0  0  0
  -33.3956  -20.4431   20.4844 C   0  0  0  0  0  0  0  0  0  0  0  0
  -33.1305  -18.6829   18.7743 C   0  0  0  0  0  0  0  0  0  0  0  0
  -35.5020  -28.5466   16.7188 C   0  0  0  0  0  0  0  0  0  0  0  0
  -37.1350  -27.4668   18.2795 C   0  0  0  0  0  0  0  0  0  0  0  0
  -36.1981  -29.7153   18.8174 C   0  0  0  0  0  0  0  0  0  0  0  0
  -31.2056  -19.7233   16.3952 C   0  0  0  0  0  0  0  0  0  0  0  0
  -29.4430  -19.5596   18.1678 C   0  0  0  0  0  0  0  0  0  0  0  0
  -33.1248  -25.4071   23.1608 C   0  0  0  0  0  0  0  0  0  0  0  0
  -31.6759  -20.7863   18.6844 C   0  0  0  0  0  0  0  0  0  0  0  0
  -29.9464  -21.7578   17.1199 C   0  0  0  0  0  0  0  0  0  1  0  0
  -34.7184  -27.6754   19.0195 C   0  0  1  0  0  0  0  0  0  0  0  0
  -35.3544  -26.3202   22.5021 C   0  0  2  0  0  0  0  0  0  0  0  0
  -32.3363  -19.7048   19.6151 C   0  0  0  0  0  0  0  0  0  0  0  0
  -35.8634  -28.3386   18.2031 C   0  0  0  0  0  0  0  0  0  0  0  0
  -30.5829  -20.4284   17.6191 C   0  0  0  0  0  0  0  0  0  0  0  0
  -25.8606  -11.5433   20.2870 N   0  0  0  0  0  0  0  0  0  0  0  0
  -26.2378  -12.8270   20.1615 N   0  0  0  0  0  0  0  0  0  0  0  0
  -32.5569  -28.1758   17.9155 N   0  0  0  0  0  0  0  0  0  0  0  0
  -29.9692  -13.6130   20.3680 N   0  0  0  0  0  0  0  0  0  0  0  0
  -25.4721  -15.0541   20.4151 N   0  0  0  0  0  0  0  0  0  0  0  0
  -21.8870  -12.5780   21.6035 N   0  0  0  0  0  0  0  0  0  0  0  0
  -30.0812  -15.6896   21.4805 N   0  0  0  0  0  0  0  0  0  0  0  0
  -30.7649  -31.2456   17.7553 N   0  0  0  0  0  0  0  0  0  0  0  0
  -35.0226  -27.4909   20.4344 N   0  0  0  0  0  0  0  0  0  0  0  0
  -34.6017  -25.2879   23.2694 N   0  3  0  0  0  0  0  0  0  0  0  0
  -22.6631  -14.7182   21.3282 O   0  0  0  0  0  0  0  0  0  0  0  0
  -32.4797  -30.3447   16.4630 O   0  0  0  0  0  0  0  0  0  0  0  0
  -33.2247  -29.3314   19.8206 O   0  0  0  0  0  0  0  0  0  0  0  0
  -34.7273  -25.1911   20.4602 O   0  0  0  0  0  0  0  0  0  0  0  0
  -31.8568  -14.9358   20.1918 O   0  0  0  0  0  0  0  0  0  0  0  0
  -21.6124   -7.0146   21.6987 O   0  0  0  0  0  0  0  0  0  0  0  0
  -30.9276  -22.6081   16.5277 O   0  0  0  0  0  0  0  0  0  1  0  0
  -18.6236   -6.8461   26.3293 F   0  0  0  0  0  0  0  0  0  0  0  0
  -22.0632   -5.0665   23.6076 F   0  0  0  0  0  0  0  0  0  0  0  0
  1  2  1  0  0  0  0
  1  5  2  0  0  0  0
  2  6  2  0  0  0  0
  3 10  2  0  0  0  0
  3 18  1  0  0  0  0
  4 11  1  0  0  0  0
  4 18  2  0  0  0  0
  5 20  1  0  0  0  0
  6 22  1  0  0  0  0
  7 12  2  0  0  0  0
  7 21  1  0  0  0  0
  8  9  2  0  0  0  0
  8 24  1  0  0  0  0
  9 25  1  0  0  0  0
 10 27  1  0  0  0  0
 11 27  2  0  0  0  0
 12 28  1  0  0  0  0
 13 14  2  0  0  0  0
 13 29  1  0  0  0  0
 14 30  1  0  0  0  0
 15 23  1  0  0  0  0
 15 28  2  0  0  0  0
 16 24  2  0  0  0  0
 16 26  1  0  0  0  0
 17 30  2  0  0  0  0
 17 31  1  0  0  0  0
 18 32  1  0  0  0  0
 19 32  1  0  0  0  0
 19 33  2  0  0  0  0
 19 34  1  0  0  0  0
 20 22  2  0  0  0  0
 20 39  1  0  0  0  0
 21 23  2  0  0  0  0
 21 40  1  0  0  0  0
 22 48  1  0  0  0  0
 23 41  1  0  0  0  0
 24 65  1  0  0  0  0
 25 26  2  0  0  0  0
 25 51  1  0  0  0  0
 26 74  1  0  0  0  0
 27 83  1  0  0  0  0
 28 84  1  0  0  0  0
 29 31  2  0  0  0  0
 29 83  1  0  0  0  0
 30 85  1  0  0  0  0
 31 86  1  0  0  0  0
 32 68  2  0  0  0  0
 33 69  1  0  0  0  0
 33 72  1  0  0  0  0
 34 73  1  0  0  0  0
 34 78  2  0  0  0  0
 35 49  1  0  0  0  0
 35 75  1  0  0  0  0
 35 79  2  0  0  0  0
 36 63  1  0  0  0  0
 36 70  1  0  0  0  0
 36 80  2  0  0  0  0
 37 64  1  0  0  0  0
 37 76  1  0  0  0  0
 37 81  2  0  0  0  0
 38 71  1  0  0  0  0
 38 74  1  0  0  0  0
 38 82  2  0  0  0  0
 39 42  1  0  0  0  0
 40 49  1  0  0  0  0
 41 70  1  0  0  0  0
 42 44  1  0  0  0  0
 43 45  1  0  0  0  0
 43 46  1  0  0  0  0
 44 48  1  0  0  0  0
 45 50  1  0  0  0  0
 46 71  1  0  0  0  0
 47 50  1  0  0  0  0
 47 71  1  0  0  0  0
 48 75  1  0  0  0  0
 49 70  1  0  0  0  0
 50 69  1  0  0  0  0
 52 64  1  0  0  0  0
 53 65  1  0  0  0  0
 54 65  1  0  0  0  0
 55 66  1  0  0  0  0
 56 66  1  0  0  0  0
 57 66  1  0  0  0  0
 58 67  1  0  0  0  0
 59 67  1  0  0  0  0
 60 77  1  0  0  0  0
 61 65  1  0  0  0  0
 61 67  1  0  0  0  0
 62 67  1  0  0  0  0
 62 84  1  0  0  0  0
 63 66  1  0  0  0  0
 63 76  1  0  0  0  0
 64 77  1  0  0  0  0
 68 69  1  0  0  0  0
M  CHG  1  77   1
M  ISO  4  38 100  62 101  74 100  84 101
M  END
> <Batch ID>
0140

> <Smiles>
CNC(C)C(=O)NC(C(=O)N1Cc2cc([101O:1][101CH2:1]C(C)(C)CC(C)(C)c3ccc(C)c([100NH:0][100C:0](=O)N4CCCC(n5nc(-c6ccc(Oc7ccc(F)cc7F)cc6)c(C(N)=O)c5N)C4)c3)ccc2CC1C(=O)NC1CCCc2ccccc21)C(C)(C)C

> <Shape>
0.203

> <Color>
0.191

> <Negative vol penalty>
0.000

$$$$

  -OEChem-04052302513D

 85 93  0     1  0  0  0  0  0999 V2000
  -33.9164  -27.8223   16.7044 C   0  0  0  0  0  0  0  0  0  0  0  0
  -33.4022  -27.3099   17.8912 C   0  0  0  0  0  0  0  0  0  0  0  0
  -24.4047   -8.8319   21.4899 C   0  0  0  0  0  0  0  0  0  0  0  0
  -24.1151  -10.5549   23.1586 C   0  0  0  0  0  0  0  0  0  0  0  0
  -33.5991  -29.1221   16.3122 C   0  0  0  0  0  0  0  0  0  0  0  0
  -32.5712  -28.0976   18.6871 C   0  0  0  0  0  0  0  0  0  0  0  0
  -28.5089  -25.5715   20.3491 C   0  0  0  0  0  0  0  0  0  0  0  0
  -31.4784  -16.5143   22.9301 C   0  0  0  0  0  0  0  0  0  0  0  0
  -23.9842   -7.8709   22.4092 C   0  0  0  0  0  0  0  0  0  0  0  0
  -23.6946   -9.5939   24.0779 C   0  0  0  0  0  0  0  0  0  0  0  0
  -28.6960  -24.6991   21.4203 C   0  0  0  0  0  0  0  0  0  0  0  0
  -21.0586   -6.7639   23.6932 C   0  0  0  0  0  0  0  0  0  0  0  0
  -31.9582  -17.2803   23.9924 C   0  0  0  0  0  0  0  0  0  0  0  0
  -20.1401   -5.8086   23.2580 C   0  0  0  0  0  0  0  0  0  0  0  0
  -27.8151  -26.3666   22.9245 C   0  0  0  0  0  0  0  0  0  0  0  0
  -29.2148  -16.8700   23.6959 C   0  0  0  0  0  0  0  0  0  0  0  0
  -21.7204   -4.0550   23.7724 C   0  0  0  0  0  0  0  0  0  0  0  0
  -24.4702  -10.1740   21.8646 C   0  0  0  0  0  0  0  0  0  0  0  0
  -24.1004  -11.8983   20.0213 C   0  0  0  0  0  0  0  0  0  0  0  0
  -32.7561  -29.9227   17.0989 C   0  0  0  0  0  0  0  0  0  0  0  0
  -27.9828  -26.8543   20.5593 C   0  0  0  0  0  0  0  0  0  0  0  0
  -32.2434  -29.4098   18.3058 C   0  0  0  0  0  0  0  0  0  0  0  0
  -27.6200  -27.2525   21.8539 C   0  0  0  0  0  0  0  0  0  0  0  0
  -29.6946  -17.6361   24.7583 C   0  0  0  0  0  0  0  0  0  0  0  0
  -30.1066  -16.3092   22.7818 C   0  0  0  0  0  0  0  0  0  0  0  0
  -23.6291   -8.2518   23.7032 C   0  0  0  0  0  0  0  0  0  0  0  0
  -28.3518  -25.0976   22.7086 C   0  0  0  0  0  0  0  0  0  0  0  0
  -22.3080   -6.3648   24.1680 C   0  0  0  0  0  0  0  0  0  0  0  0
  -20.4710   -4.4542   23.2976 C   0  0  0  0  0  0  0  0  0  0  0  0
  -31.0664  -17.8412   24.9065 C   0  0  0  0  0  0  0  0  0  0  0  0
  -22.6389   -5.0103   24.2076 C   0  0  0  0  0  0  0  0  0  0  0  0
  -24.9051  -11.1671   20.9156 C   0  0  0  0  0  0  0  0  0  0  0  0
  -24.9835  -12.7034   19.3444 C   0  0  0  0  0  0  0  0  0  0  0  0
  -22.6815  -11.8536   19.8205 C   0  0  0  0  0  0  0  0  0  0  0  0
  -29.0488  -29.8161   20.1174 C   0  0  0  0  0  0  0  0  0  0  0  0
  -26.0245  -30.6158   20.9757 C   0  0  0  0  0  0  0  0  0  0  0  0
  -23.1574  -29.7623   22.6182 C   0  0  0  0  0  0  0  0  0  0  0  0
  -30.3689  -14.9052   20.7066 C   0  0  0  0  0  0  0  0  0  0  0  0
  -32.4795  -31.3381   16.6576 C   0  0  0  0  0  0  0  0  0  0  0  0
  -27.7623  -27.7737   19.3896 C   0  0  0  0  0  0  0  0  0  0  0  0
  -27.0325  -28.6116   22.1300 C   0  0  0  0  0  0  0  0  0  0  0  0
  -31.2902  -31.9769   17.3700 C   0  0  0  0  0  0  0  0  0  0  0  0
  -29.5467  -12.8729   17.9011 C   0  0  0  0  0  0  0  0  0  0  0  0
  -31.3697  -31.7252   18.8724 C   0  0  0  0  0  0  0  0  0  0  0  0
  -28.1870  -12.2761   18.2718 C   0  0  0  0  0  0  0  0  0  0  0  0
  -30.4623  -12.9969   19.1177 C   0  0  0  0  0  0  0  0  0  0  0  0
  -28.5224  -13.1162   20.6316 C   0  0  0  0  0  0  0  0  0  0  0  0
  -31.3186  -30.2246   19.1838 C   0  0  1  0  0  0  0  0  0  0  0  0
  -27.6984  -29.2446   19.7894 C   0  0  1  0  0  0  0  0  0  0  0  0
  -27.5422  -13.0319   19.4501 C   0  0  2  0  0  0  0  0  0  0  0  0
  -20.8719  -30.6359   23.1755 C   0  0  0  0  0  0  0  0  0  0  0  0
  -27.2240  -17.9373   25.4632 C   0  0  0  0  0  0  0  0  0  0  0  0
  -29.0041  -17.6597   27.1651 C   0  0  0  0  0  0  0  0  0  0  0  0
  -27.2427  -32.4459   23.0916 C   0  0  0  0  0  0  0  0  0  0  0  0
  -25.0008  -32.5382   24.2024 C   0  0  0  0  0  0  0  0  0  0  0  0
  -25.2783  -33.4121   21.8825 C   0  0  0  0  0  0  0  0  0  0  0  0
  -21.8309  -27.5384   21.1851 C   0  0  0  0  0  0  0  0  0  0  0  0
  -28.5820  -20.5698   24.5556 C   0  0  0  0  0  0  0  0  0  0  0  0
  -28.6887  -22.0797   24.7717 C   0  0  0  0  0  0  0  0  0  0  0  0
  -28.8835  -19.8046   25.8528 C   0  0  0  0  0  0  0  0  0  0  0  0
  -28.4347  -22.8509   23.4841 C   0  0  0  0  0  0  0  0  0  1  0  0
  -25.3276  -30.9159   22.2808 C   0  0  1  0  0  0  0  0  0  0  0  0
  -21.7001  -29.8184   22.1965 C   0  0  2  0  0  0  0  0  0  0  0  0
  -28.7082  -18.2553   25.7654 C   0  0  0  0  0  0  0  0  0  0  0  0
  -25.7252  -32.3031   22.8597 C   0  0  0  0  0  0  0  0  0  0  0  0
  -26.1999  -11.4800   20.8179 N   0  0  0  0  0  0  0  0  0  0  0  0
  -26.2156  -12.4165   19.8543 N   0  0  0  0  0  0  0  0  0  0  0  0
  -26.8420  -29.4769   20.9543 N   0  0  0  0  0  0  0  0  0  0  0  0
  -29.7863  -13.7277   20.1919 N   0  0  0  0  0  0  0  0  0  0  0  0
  -24.8187  -13.6217   18.3687 N   0  0  0  0  0  0  0  0  0  0  0  0
  -21.9237  -10.9696   20.6007 N   0  0  0  0  0  0  0  0  0  0  0  0
  -29.6196  -15.5317   21.7020 N   0  0  0  0  0  0  0  0  0  0  0  0
  -29.9611  -29.7334   19.0829 N   0  0  0  0  0  0  0  0  0  0  0  0
  -23.8994  -30.7620   22.0256 N   0  0  0  0  0  0  0  0  0  0  0  0
  -21.1271  -28.4444   22.1290 N   0  3  0  0  0  0  0  0  0  0  0  0
  -22.1046  -12.5645   18.9629 O   0  0  0  0  0  0  0  0  0  0  0  0
  -29.2478  -30.2977   21.2265 O   0  0  0  0  0  0  0  0  0  0  0  0
  -25.8445  -31.3604   20.0088 O   0  0  0  0  0  0  0  0  0  0  0  0
  -23.5930  -28.9184   23.3983 O   0  0  0  0  0  0  0  0  0  0  0  0
  -31.4393  -15.3416   20.2757 O   0  0  0  0  0  0  0  0  0  0  0  0
  -23.2185   -7.3143   24.6004 O   0  0  0  0  0  0  0  0  0  0  0  0
  -28.5339  -24.2482   23.7561 O   0  0  0  0  0  0  0  0  0  1  0  0
  -19.5883   -3.5368   22.8810 F   0  0  0  0  0  0  0  0  0  0  0  0
  -31.5371  -18.5747   25.9248 F   0  0  0  0  0  0  0  0  0  0  0  0
  -23.8372   -4.6207   24.6638 F   0  0  0  0  0  0  0  0  0  0  0  0
  1  2  1  0  0  0  0
  1  5  2  0  0  0  0
  2  6  2  0  0  0  0
  3  9  2  0  0  0  0
  3 18  1  0  0  0  0
  4 10  1  0  0  0  0
  4 18  2  0  0  0  0
  5 20  1  0  0  0  0
  6 22  1  0  0  0  0
  7 11  2  0  0  0  0
  7 21  1  0  0  0  0
  8 13  2  0  0  0  0
  8 25  1  0  0  0  0
  9 26  1  0  0  0  0
 10 26  2  0  0  0  0
 11 27  1  0  0  0  0
 12 14  2  0  0  0  0
 12 28  1  0  0  0  0
 13 30  1  0  0  0  0
 14 29  1  0  0  0  0
 15 23  1  0  0  0  0
 15 27  2  0  0  0  0
 16 24  1  0  0  0  0
 16 25  2  0  0  0  0
 17 29  2  0  0  0  0
 17 31  1  0  0  0  0
 18 32  1  0  0  0  0
 19 32  1  0  0  0  0
 19 33  2  0  0  0  0
 19 34  1  0  0  0  0
 20 22  2  0  0  0  0
 20 39  1  0  0  0  0
 21 23  2  0  0  0  0
 21 40  1  0  0  0  0
 22 48  1  0  0  0  0
 23 41  1  0  0  0  0
 24 30  2  0  0  0  0
 24 64  1  0  0  0  0
 25 72  1  0  0  0  0
 26 81  1  0  0  0  0
 27 82  1  0  0  0  0
 28 31  2  0  0  0  0
 28 81  1  0  0  0  0
 29 83  1  0  0  0  0
 30 84  1  0  0  0  0
 31 85  1  0  0  0  0
 32 66  2  0  0  0  0
 33 67  1  0  0  0  0
 33 70  1  0  0  0  0
 34 71  1  0  0  0  0
 34 76  2  0  0  0  0
 35 49  1  0  0  0  0
 35 73  1  0  0  0  0
 35 77  2  0  0  0  0
 36 62  1  0  0  0  0
 36 68  1  0  0  0  0
 36 78  2  0  0  0  0
 37 63  1  0  0  0  0
 37 74  1  0  0  0  0
 37 79  2  0  0  0  0
 38 69  1  0  0  0  0
 38 72  1  0  0  0  0
 38 80  2  0  0  0  0
 39 42  1  0  0  0  0
 40 49  1  0  0  0  0
 41 68  1  0  0  0  0
 42 44  1  0  0  0  0
 43 45  1  0  0  0  0
 43 46  1  0  0  0  0
 44 48  1  0  0  0  0
 45 50  1  0  0  0  0
 46 69  1  0  0  0  0
 47 50  1  0  0  0  0
 47 69  1  0  0  0  0
 48 73  1  0  0  0  0
 49 68  1  0  0  0  0
 50 67  1  0  0  0  0
 51 63  1  0  0  0  0
 52 64  1  0  0  0  0
 53 64  1  0  0  0  0
 54 65  1  0  0  0  0
 55 65  1  0  0  0  0
 56 65  1  0  0  0  0
 57 75  1  0  0  0  0
 58 59  1  0  0  0  0
 58 60  1  0  0  0  0
 59 61  1  0  0  0  0
 60 64  1  0  0  0  0
 61 82  1  0  0  0  0
 62 65  1  0  0  0  0
 62 74  1  0  0  0  0
 63 75  1  0  0  0  0
 66 67  1  0  0  0  0
M  CHG  1  75   1
M  ISO  4  38 100  61 101  72 100  82 101
M  END
> <Batch ID>
0140

> <Smiles>
CNC(C)C(=O)NC(C(=O)N1Cc2cc([101O:1][101CH2:1]CCCC(C)(C)c3cc([100NH:0][100C:0](=O)N4CCCC(n5nc(-c6ccc(Oc7ccc(F)cc7F)cc6)c(C(N)=O)c5N)C4)ccc3F)ccc2CC1C(=O)NC1CCCc2ccccc21)C(C)(C)C

> <Shape>
0.252

> <Color>
0.100

> <Negative vol penalty>
0.000

$$$$

  -OEChem-04052302513D

 88 96  0     1  0  0  0  0  0999 V2000
  -20.4910  -30.9105   24.6332 C   0  0  0  0  0  0  0  0  0  0  0  0
  -21.7236  -30.3326   24.3468 C   0  0  0  0  0  0  0  0  0  0  0  0
  -25.5944  -12.8730   21.9181 C   0  0  0  0  0  0  0  0  0  0  0  0
  -25.6385  -13.5338   19.5946 C   0  0  0  0  0  0  0  0  0  0  0  0
  -19.3179  -30.3087   24.1797 C   0  0  0  0  0  0  0  0  0  0  0  0
  -21.7837  -29.1518   23.6074 C   0  0  0  0  0  0  0  0  0  0  0  0
  -25.3576  -29.2846   20.0221 C   0  0  0  0  0  0  0  0  0  0  0  0
  -32.8486  -22.7595   17.7657 C   0  0  0  0  0  0  0  0  0  0  0  0
  -33.0543  -21.3963   17.9779 C   0  0  0  0  0  0  0  0  0  0  0  0
  -24.5928  -11.9444   21.6350 C   0  0  0  0  0  0  0  0  0  0  0  0
  -24.6369  -12.6052   19.3115 C   0  0  0  0  0  0  0  0  0  0  0  0
  -26.6762  -29.0879   20.4298 C   0  0  0  0  0  0  0  0  0  0  0  0
  -24.3722   -8.8521   20.2854 C   0  0  0  0  0  0  0  0  0  0  0  0
  -24.4994   -7.5747   20.8311 C   0  0  0  0  0  0  0  0  0  0  0  0
  -26.5527  -26.7916   19.7013 C   0  0  0  0  0  0  0  0  0  0  0  0
  -30.9819  -22.7166   19.2989 C   0  0  0  0  0  0  0  0  0  0  0  0
  -22.4065   -7.8665   22.0022 C   0  0  0  0  0  0  0  0  0  0  0  0
  -26.1173  -13.6677   20.8979 C   0  0  0  0  0  0  0  0  0  0  0  0
  -28.5428  -14.4149   21.1556 C   0  0  0  0  0  0  0  0  0  0  0  0
  -19.3642  -29.1252   23.4263 C   0  0  0  0  0  0  0  0  0  0  0  0
  -24.6218  -28.2314   19.4599 C   0  0  0  0  0  0  0  0  0  0  0  0
  -20.6101  -28.5329   23.1446 C   0  0  0  0  0  0  0  0  0  0  0  0
  -25.2258  -26.9781   19.2849 C   0  0  0  0  0  0  0  0  0  0  0  0
  -31.8125  -23.4197   18.4262 C   0  0  0  0  0  0  0  0  0  0  0  0
  -32.2237  -20.6932   18.8505 C   0  0  0  0  0  0  0  0  0  0  0  0
  -31.1875  -21.3533   19.5110 C   0  0  0  0  0  0  0  0  0  0  0  0
  -24.1141  -11.8105   20.3317 C   0  0  0  0  0  0  0  0  0  0  0  0
  -27.2731  -27.8405   20.2722 C   0  0  0  0  0  0  0  0  0  0  0  0
  -23.2621   -9.6367   20.5982 C   0  0  0  0  0  0  0  0  0  0  0  0
  -23.5166   -7.0819   21.6894 C   0  0  0  0  0  0  0  0  0  0  0  0
  -22.2793   -9.1439   21.4566 C   0  0  0  0  0  0  0  0  0  0  0  0
  -27.1516  -14.6275   21.1898 C   0  0  0  0  0  0  0  0  0  0  0  0
  -29.0840  -15.6266   21.5096 C   0  0  0  0  0  0  0  0  0  0  0  0
  -29.2799  -13.2283   20.8325 C   0  0  0  0  0  0  0  0  0  0  0  0
  -21.9733  -26.6671   20.2612 C   0  0  0  0  0  0  0  0  0  0  0  0
  -22.3965  -25.2585   17.3700 C   0  0  0  0  0  0  0  0  0  0  0  0
  -24.5352  -24.3845   14.8583 C   0  0  0  0  0  0  0  0  0  0  0  0
  -29.2644  -21.1787   21.1288 C   0  0  0  0  0  0  0  0  0  0  0  0
  -18.0670  -28.4859   22.9981 C   0  0  0  0  0  0  0  0  0  0  0  0
  -23.2091  -28.4670   19.0006 C   0  0  0  0  0  0  0  0  0  0  0  0
  -24.4856  -25.8204   18.6682 C   0  0  0  0  0  0  0  0  0  0  0  0
  -18.2373  -27.4379   21.9013 C   0  0  0  0  0  0  0  0  0  0  0  0
  -26.9000  -19.7848   23.3968 C   0  0  0  0  0  0  0  0  0  0  0  0
  -19.3926  -26.4993   22.2345 C   0  0  0  0  0  0  0  0  0  0  0  0
  -26.8691  -18.3013   23.0220 C   0  0  0  0  0  0  0  0  0  0  0  0
  -27.0634  -20.6770   22.1676 C   0  0  0  0  0  0  0  0  0  0  0  0
  -28.1723  -18.8585   20.9296 C   0  0  0  0  0  0  0  0  0  0  0  0
  -20.7178  -27.2657   22.3243 C   0  0  1  0  0  0  0  0  0  0  0  0
  -22.3876  -27.1845   18.9128 C   0  0  1  0  0  0  0  0  0  0  0  0
  -28.0743  -17.9173   22.1413 C   0  0  2  0  0  0  0  0  0  0  0  0
  -32.4668  -19.2334   19.0579 C   0  0  0  0  0  0  0  0  0  0  0  0
  -29.9487  -24.4111   16.1955 C   0  0  0  0  0  0  0  0  0  0  0  0
  -24.5956  -23.2080   12.6426 C   0  0  0  0  0  0  0  0  0  0  0  0
  -33.2138  -25.9089   19.9617 C   0  0  0  0  0  0  0  0  0  0  0  0
  -32.6168  -25.5312   17.1829 C   0  0  0  0  0  0  0  0  0  0  0  0
  -22.2345  -22.5667   18.7976 C   0  0  0  0  0  0  0  0  0  0  0  0
  -23.2296  -21.5050   16.7602 C   0  0  0  0  0  0  0  0  0  0  0  0
  -21.0248  -22.6623   16.6108 C   0  0  0  0  0  0  0  0  0  0  0  0
  -31.1487  -27.4435   21.4454 C   0  0  0  0  0  0  0  0  0  0  0  0
  -31.1465  -28.1951   19.0869 C   0  0  0  0  0  0  0  0  0  0  0  0
  -25.4516  -26.8247   13.4567 C   0  0  0  0  0  0  0  0  0  0  0  0
  -30.1703  -25.1132   17.5382 C   0  0  0  0  0  0  0  0  0  0  0  0
  -29.3191  -26.6723   19.9486 C   0  0  0  0  0  0  0  0  0  1  0  0
  -23.1306  -24.0365   16.8734 C   0  0  1  0  0  0  0  0  0  0  0  0
  -24.4385  -24.5441   13.3518 C   0  0  2  0  0  0  0  0  0  0  0  0
  -31.7121  -25.6841   19.6269 C   0  0  2  0  0  0  0  0  0  0  0  0
  -31.5829  -24.9479   18.1879 C   0  0  1  0  0  0  0  0  0  0  0  0
  -22.4185  -22.7137   17.2739 C   0  0  0  0  0  0  0  0  0  0  0  0
  -30.8435  -26.9846   19.9862 C   0  0  0  0  0  0  0  0  0  0  0  0
  -26.8291  -15.8760   21.5383 N   0  0  0  0  0  0  0  0  0  0  0  0
  -28.0254  -16.4588   21.7263 N   0  0  0  0  0  0  0  0  0  0  0  0
  -23.1046  -26.0989   18.2407 N   0  0  0  0  0  0  0  0  0  0  0  0
  -28.2271  -20.2569   21.3839 N   0  0  0  0  0  0  0  0  0  0  0  0
  -30.3575  -16.0507   21.6537 N   0  0  0  0  0  0  0  0  0  0  0  0
  -28.5668  -12.0712   20.4907 N   0  0  0  0  0  0  0  0  0  0  0  0
  -30.3337  -20.6567   20.4018 N   0  0  0  0  0  0  0  0  0  0  0  0
  -21.2217  -27.5608   21.0001 N   0  0  0  0  0  0  0  0  0  0  0  0
  -23.2941  -24.2152   15.4347 N   0  0  0  0  0  0  0  0  0  0  0  0
  -25.5012  -25.4655   12.8592 N   0  3  0  0  0  0  0  0  0  0  0  0
  -30.5333  -13.1906   20.8626 O   0  0  0  0  0  0  0  0  0  0  0  0
  -22.3094  -25.5400   20.6053 O   0  0  0  0  0  0  0  0  0  0  0  0
  -21.2399  -25.4638   16.9935 O   0  0  0  0  0  0  0  0  0  0  0  0
  -25.6051  -24.4042   15.4629 O   0  0  0  0  0  0  0  0  0  0  0  0
  -29.2206  -22.3376   21.5494 O   0  0  0  0  0  0  0  0  0  0  0  0
  -23.1369  -10.9044   20.0551 O   0  0  0  0  0  0  0  0  0  0  0  0
  -28.5669  -27.6446   20.6721 O   0  0  0  0  0  0  0  0  0  1  0  0
  -23.6381   -5.8546   22.2121 F   0  0  0  0  0  0  0  0  0  0  0  0
  -21.2100   -9.8926   21.7599 F   0  0  0  0  0  0  0  0  0  0  0  0
  1  2  1  0  0  0  0
  1  5  2  0  0  0  0
  2  6  2  0  0  0  0
  3 10  2  0  0  0  0
  3 18  1  0  0  0  0
  4 11  1  0  0  0  0
  4 18  2  0  0  0  0
  5 20  1  0  0  0  0
  6 22  1  0  0  0  0
  7 12  2  0  0  0  0
  7 21  1  0  0  0  0
  8  9  2  0  0  0  0
  8 24  1  0  0  0  0
  9 25  1  0  0  0  0
 10 27  1  0  0  0  0
 11 27  2  0  0  0  0
 12 28  1  0  0  0  0
 13 14  2  0  0  0  0
 13 29  1  0  0  0  0
 14 30  1  0  0  0  0
 15 23  1  0  0  0  0
 15 28  2  0  0  0  0
 16 24  2  0  0  0  0
 16 26  1  0  0  0  0
 17 30  2  0  0  0  0
 17 31  1  0  0  0  0
 18 32  1  0  0  0  0
 19 32  1  0  0  0  0
 19 33  2  0  0  0  0
 19 34  1  0  0  0  0
 20 22  2  0  0  0  0
 20 39  1  0  0  0  0
 21 23  2  0  0  0  0
 21 40  1  0  0  0  0
 22 48  1  0  0  0  0
 23 41  1  0  0  0  0
 24 67  1  0  0  0  0
 25 26  2  0  0  0  0
 25 51  1  0  0  0  0
 26 76  1  0  0  0  0
 27 85  1  0  0  0  0
 28 86  1  0  0  0  0
 29 31  2  0  0  0  0
 29 85  1  0  0  0  0
 30 87  1  0  0  0  0
 31 88  1  0  0  0  0
 32 70  2  0  0  0  0
 33 71  1  0  0  0  0
 33 74  1  0  0  0  0
 34 75  1  0  0  0  0
 34 80  2  0  0  0  0
 35 49  1  0  0  0  0
 35 77  1  0  0  0  0
 35 81  2  0  0  0  0
 36 64  1  0  0  0  0
 36 72  1  0  0  0  0
 36 82  2  0  0  0  0
 37 65  1  0  0  0  0
 37 78  1  0  0  0  0
 37 83  2  0  0  0  0
 38 73  1  0  0  0  0
 38 76  1  0  0  0  0
 38 84  2  0  0  0  0
 39 42  1  0  0  0  0
 40 49  1  0  0  0  0
 41 72  1  0  0  0  0
 42 44  1  0  0  0  0
 43 45  1  0  0  0  0
 43 46  1  0  0  0  0
 44 48  1  0  0  0  0
 45 50  1  0  0  0  0
 46 73  1  0  0  0  0
 47 50  1  0  0  0  0
 47 73  1  0  0  0  0
 48 77  1  0  0  0  0
 49 72  1  0  0  0  0
 50 71  1  0  0  0  0
 52 62  1  0  0  0  0
 53 65  1  0  0  0  0
 54 66  1  0  0  0  0
 55 67  1  0  0  0  0
 56 68  1  0  0  0  0
 57 68  1  0  0  0  0
 58 68  1  0  0  0  0
 59 69  1  0  0  0  0
 60 69  1  0  0  0  0
 61 79  1  0  0  0  0
 62 67  1  0  0  0  0
 63 69  1  0  0  0  0
 63 86  1  0  0  0  0
 64 68  1  0  0  0  0
 64 78  1  0  0  0  0
 65 79  1  0  0  0  0
 66 67  1  0  0  0  0
 66 69  1  0  0  0  0
 70 71  1  0  0  0  0
M  CHG  1  79   1
M  ISO  4  38 100  63 101  76 100  86 101
M  END
> <Batch ID>
0140

> <Smiles>
CCC(C)(c1ccc(C)c([100NH:0][100C:0](=O)N2CCCC(n3nc(-c4ccc(Oc5ccc(F)cc5F)cc4)c(C(N)=O)c3N)C2)c1)C(C)C(C)(C)[101CH2:1][101O:1]c1ccc2c(c1)CN(C(=O)C(NC(=O)C(C)NC)C(C)(C)C)C(C(=O)NC1CCCc3ccccc31)C2

> <Shape>
0.282

> <Color>
0.064

> <Negative vol penalty>
0.000

$$$$

  -OEChem-04052302513D

 89 97  0     1  0  0  0  0  0999 V2000
  -27.4263  -37.3811   23.3118 C   0  0  0  0  0  0  0  0  0  0  0  0
  -27.9744  -36.2404   22.7340 C   0  0  0  0  0  0  0  0  0  0  0  0
  -26.6459   -9.7802   21.6975 C   0  0  0  0  0  0  0  0  0  0  0  0
  -25.8969  -11.0241   23.6284 C   0  0  0  0  0  0  0  0  0  0  0  0
  -26.3999  -37.2625   24.2480 C   0  0  0  0  0  0  0  0  0  0  0  0
  -27.4971  -34.9803   23.0929 C   0  0  0  0  0  0  0  0  0  0  0  0
  -26.9901  -30.0671   19.4723 C   0  0  0  0  0  0  0  0  0  0  0  0
  -27.1574   -8.7886   22.5346 C   0  0  0  0  0  0  0  0  0  0  0  0
  -26.4083  -10.0325   24.4656 C   0  0  0  0  0  0  0  0  0  0  0  0
  -27.8014  -28.9479   19.2908 C   0  0  0  0  0  0  0  0  0  0  0  0
  -25.4926   -6.9594   25.5324 C   0  0  0  0  0  0  0  0  0  0  0  0
  -24.6918   -6.5304   26.5907 C   0  0  0  0  0  0  0  0  0  0  0  0
  -26.4368  -27.7134   20.8507 C   0  0  0  0  0  0  0  0  0  0  0  0
  -26.2018  -19.1495   23.8465 C   0  0  0  0  0  0  0  0  0  0  0  0
  -27.9008  -20.2167   22.5007 C   0  0  0  0  0  0  0  0  0  0  0  0
  -26.3929   -7.2247   28.1595 C   0  0  0  0  0  0  0  0  0  0  0  0
  -26.0158  -10.8980   22.2444 C   0  0  0  0  0  0  0  0  0  0  0  0
  -24.1918  -11.9902   20.8344 C   0  0  0  0  0  0  0  0  0  0  0  0
  -25.9032  -36.0008   24.6114 C   0  0  0  0  0  0  0  0  0  0  0  0
  -25.9007  -30.0211   20.3540 C   0  0  0  0  0  0  0  0  0  0  0  0
  -26.4640  -34.8447   24.0359 C   0  0  0  0  0  0  0  0  0  0  0  0
  -25.6117  -28.8326   21.0396 C   0  0  0  0  0  0  0  0  0  0  0  0
  -26.4213  -20.0804   24.8618 C   0  0  0  0  0  0  0  0  0  0  0  0
  -27.3806  -21.0794   24.6966 C   0  0  0  0  0  0  0  0  0  0  0  0
  -26.9416  -19.2177   22.6659 C   0  0  0  0  0  0  0  0  0  0  0  0
  -27.0386   -8.9147   23.9186 C   0  0  0  0  0  0  0  0  0  0  0  0
  -27.5265  -27.7717   19.9823 C   0  0  0  0  0  0  0  0  0  0  0  0
  -26.7437   -7.5210   25.7876 C   0  0  0  0  0  0  0  0  0  0  0  0
  -28.1204  -21.1476   23.5160 C   0  0  0  0  0  0  0  0  0  0  0  0
  -25.1419   -6.6630   27.9043 C   0  0  0  0  0  0  0  0  0  0  0  0
  -27.1938   -7.6537   27.1011 C   0  0  0  0  0  0  0  0  0  0  0  0
  -25.4878  -11.9229   21.3802 C   0  0  0  0  0  0  0  0  0  0  0  0
  -24.1918  -13.1453   20.0913 C   0  0  0  0  0  0  0  0  0  0  0  0
  -23.0869  -11.0892   20.9857 C   0  0  0  0  0  0  0  0  0  0  0  0
  -25.1024  -31.5647   23.0156 C   0  0  0  0  0  0  0  0  0  0  0  0
  -22.3291  -29.9168   22.6758 C   0  0  0  0  0  0  0  0  0  0  0  0
  -20.7141  -27.1949   21.3993 C   0  0  0  0  0  0  0  0  0  0  0  0
  -27.3654  -18.1988   20.4013 C   0  0  0  0  0  0  0  0  0  0  0  0
  -24.8250  -35.9204   25.6629 C   0  0  0  0  0  0  0  0  0  0  0  0
  -25.0193  -31.2289   20.5183 C   0  0  0  0  0  0  0  0  0  0  0  0
  -24.4420  -28.7252   21.9824 C   0  0  0  0  0  0  0  0  0  0  0  0
  -24.1201  -34.5673   25.7103 C   0  0  0  0  0  0  0  0  0  0  0  0
  -27.1272  -16.0017   17.6096 C   0  0  0  0  0  0  0  0  0  0  0  0
  -25.1394  -33.4329   25.6784 C   0  0  0  0  0  0  0  0  0  0  0  0
  -26.5561  -14.7145   18.2090 C   0  0  0  0  0  0  0  0  0  0  0  0
  -28.0979  -16.6910   18.5668 C   0  0  0  0  0  0  0  0  0  0  0  0
  -26.9974  -15.6556   20.5126 C   0  0  0  0  0  0  0  0  0  0  0  0
  -25.9562  -33.4615   24.3809 C   0  0  1  0  0  0  0  0  0  0  0  0
  -24.2419  -31.2271   21.8310 C   0  0  1  0  0  0  0  0  0  0  0  0
  -25.9647  -14.9597   19.6110 C   0  0  2  0  0  0  0  0  0  0  0  0
  -25.6164  -19.9860   26.1166 C   0  0  0  0  0  0  0  0  0  0  0  0
  -26.5338  -23.1522   25.8249 C   0  0  0  0  0  0  0  0  0  0  0  0
  -18.4570  -26.1009   21.3211 C   0  0  0  0  0  0  0  0  0  0  0  0
  -22.7118  -28.9283   25.5370 C   0  0  0  0  0  0  0  0  0  0  0  0
  -21.0087  -27.1517   25.0770 C   0  0  0  0  0  0  0  0  0  0  0  0
  -20.3621  -29.5580   24.9563 C   0  0  0  0  0  0  0  0  0  0  0  0
  -29.8741  -24.2209   19.5673 C   0  0  0  0  0  0  0  0  0  0  0  0
  -30.9360  -26.1008   20.7940 C   0  0  0  0  0  0  0  0  0  0  0  0
  -29.9239  -24.9056   23.4892 C   0  0  0  0  0  0  0  0  0  0  0  0
  -31.3583  -23.3651   22.1714 C   0  0  0  0  0  0  0  0  0  0  0  0
  -20.5736  -27.4304   18.4525 C   0  0  0  0  0  0  0  0  0  0  0  0
  -27.6187  -22.0814   25.7808 C   0  0  0  0  0  0  0  0  0  0  0  0
  -28.4465  -25.7865   20.9143 C   0  0  0  0  0  0  0  0  0  1  0  0
  -28.8732  -23.0029   22.2326 C   0  0  0  0  0  0  0  0  0  0  0  0
  -21.8198  -28.5737   23.1402 C   0  0  1  0  0  0  0  0  0  0  0  0
  -19.4104  -27.0650   20.6325 C   0  0  2  0  0  0  0  0  0  0  0  0
  -21.4989  -28.5552   24.6614 C   0  0  0  0  0  0  0  0  0  0  0  0
  -29.8112  -25.0362   20.8851 C   0  0  0  0  0  0  0  0  0  0  0  0
  -29.9868  -24.0903   22.1714 C   0  0  0  0  0  0  0  0  0  0  0  0
  -26.2552  -12.9532   21.0148 N   0  0  0  0  0  0  0  0  0  0  0  0
  -25.4392  -13.6787   20.2314 N   0  0  0  0  0  0  0  0  0  0  0  0
  -23.6136  -29.9351   22.1141 N   0  0  0  0  0  0  0  0  0  0  0  0
  -27.4676  -16.8944   19.8730 N   0  0  0  0  0  0  0  0  0  0  0  0
  -23.2464  -13.7466   19.3382 N   0  0  0  0  0  0  0  0  0  0  0  0
  -23.2579   -9.9504   21.7846 N   0  0  0  0  0  0  0  0  0  0  0  0
  -26.7181  -18.2724   21.6342 N   0  0  0  0  0  0  0  0  0  0  0  0
  -25.1832  -32.9176   23.2850 N   0  0  0  0  0  0  0  0  0  0  0  0
  -20.6824  -28.2507   22.2856 N   0  0  0  0  0  0  0  0  0  0  0  0
  -19.6688  -26.5653   19.2525 N   0  3  0  0  0  0  0  0  0  0  0  0
  -21.9858  -11.2794   20.4156 O   0  0  0  0  0  0  0  0  0  0  0  0
  -25.6512  -30.6643   23.6399 O   0  0  0  0  0  0  0  0  0  0  0  0
  -21.6108  -30.9119   22.8002 O   0  0  0  0  0  0  0  0  0  0  0  0
  -21.6642  -26.4333   21.2318 O   0  0  0  0  0  0  0  0  0  0  0  0
  -27.7944  -19.1815   19.7912 O   0  0  0  0  0  0  0  0  0  0  0  0
  -27.5373   -7.9472   24.7358 O   0  0  0  0  0  0  0  0  0  0  0  0
  -28.3172  -26.6780   19.8076 O   0  0  0  0  0  0  0  0  0  1  0  0
  -29.0658  -22.1207   23.3359 O   0  0  0  0  0  0  0  0  0  0  0  0
  -24.3720   -6.2524   28.9206 F   0  0  0  0  0  0  0  0  0  0  0  0
  -28.3943   -8.1936   27.3526 F   0  0  0  0  0  0  0  0  0  0  0  0
  1  2  1  0  0  0  0
  1  5  2  0  0  0  0
  2  6  2  0  0  0  0
  3  8  2  0  0  0  0
  3 17  1  0  0  0  0
  4  9  1  0  0  0  0
  4 17  2  0  0  0  0
  5 19  1  0  0  0  0
  6 21  1  0  0  0  0
  7 10  2  0  0  0  0
  7 20  1  0  0  0  0
  8 26  1  0  0  0  0
  9 26  2  0  0  0  0
 10 27  1  0  0  0  0
 11 12  2  0  0  0  0
 11 28  1  0  0  0  0
 12 30  1  0  0  0  0
 13 22  1  0  0  0  0
 13 27  2  0  0  0  0
 14 23  2  0  0  0  0
 14 25  1  0  0  0  0
 15 25  2  0  0  0  0
 15 29  1  0  0  0  0
 16 30  2  0  0  0  0
 16 31  1  0  0  0  0
 17 32  1  0  0  0  0
 18 32  1  0  0  0  0
 18 33  2  0  0  0  0
 18 34  1  0  0  0  0
 19 21  2  0  0  0  0
 19 39  1  0  0  0  0
 20 22  2  0  0  0  0
 20 40  1  0  0  0  0
 21 48  1  0  0  0  0
 22 41  1  0  0  0  0
 23 24  1  0  0  0  0
 23 51  1  0  0  0  0
 24 29  2  0  0  0  0
 24 62  1  0  0  0  0
 25 76  1  0  0  0  0
 26 85  1  0  0  0  0
 27 86  1  0  0  0  0
 28 31  2  0  0  0  0
 28 85  1  0  0  0  0
 29 87  1  0  0  0  0
 30 88  1  0  0  0  0
 31 89  1  0  0  0  0
 32 70  2  0  0  0  0
 33 71  1  0  0  0  0
 33 74  1  0  0  0  0
 34 75  1  0  0  0  0
 34 80  2  0  0  0  0
 35 49  1  0  0  0  0
 35 77  1  0  0  0  0
 35 81  2  0  0  0  0
 36 65  1  0  0  0  0
 36 72  1  0  0  0  0
 36 82  2  0  0  0  0
 37 66  1  0  0  0  0
 37 78  1  0  0  0  0
 37 83  2  0  0  0  0
 38 73  1  0  0  0  0
 38 76  1  0  0  0  0
 38 84  2  0  0  0  0
 39 42  1  0  0  0  0
 40 49  1  0  0  0  0
 41 72  1  0  0  0  0
 42 44  1  0  0  0  0
 43 45  1  0  0  0  0
 43 46  1  0  0  0  0
 44 48  1  0  0  0  0
 45 50  1  0  0  0  0
 46 73  1  0  0  0  0
 47 50  1  0  0  0  0
 47 73  1  0  0  0  0
 48 77  1  0  0  0  0
 49 72  1  0  0  0  0
 50 71  1  0  0  0  0
 52 62  1  0  0  0  0
 53 66  1  0  0  0  0
 54 67  1  0  0  0  0
 55 67  1  0  0  0  0
 56 67  1  0  0  0  0
 57 68  1  0  0  0  0
 58 68  1  0  0  0  0
 59 69  1  0  0  0  0
 60 69  1  0  0  0  0
 61 79  1  0  0  0  0
 63 68  1  0  0  0  0
 63 86  1  0  0  0  0
 64 69  1  0  0  0  0
 64 87  1  0  0  0  0
 65 67  1  0  0  0  0
 65 78  1  0  0  0  0
 66 79  1  0  0  0  0
 68 69  1  0  0  0  0
 70 71  1  0  0  0  0
M  CHG  1  79   1
M  ISO  4  38 100  63 101  76 100  86 101
M  END
> <Batch ID>
0140

> <Smiles>
CCc1c(C)cc([100NH:0][100C:0](=O)N2CCCC(n3nc(-c4ccc(Oc5ccc(F)cc5F)cc4)c(C(N)=O)c3N)C2)cc1OCC(C)(C)C(C)(C)[101CH2:1][101O:1]c1ccc2c(c1)CN(C(=O)C(NC(=O)C(C)NC)C(C)(C)C)C(C(=O)NC1CCCc3ccccc31)C2

> <Shape>
0.255

> <Color>
0.069

> <Negative vol penalty>
0.000

$$$$

  -OEChem-04052302513D

 86 94  0     1  0  0  0  0  0999 V2000
  -15.6706  -28.2726   23.6224 C   0  0  0  0  0  0  0  0  0  0  0  0
  -15.9381  -26.9266   23.8505 C   0  0  0  0  0  0  0  0  0  0  0  0
  -32.4577  -17.7118   23.4381 C   0  0  0  0  0  0  0  0  0  0  0  0
  -23.1443   -9.7547   19.9568 C   0  0  0  0  0  0  0  0  0  0  0  0
  -23.8197   -9.8844   22.2728 C   0  0  0  0  0  0  0  0  0  0  0  0
  -16.6883  -29.1203   23.1870 C   0  0  0  0  0  0  0  0  0  0  0  0
  -17.2234  -26.4272   23.6424 C   0  0  0  0  0  0  0  0  0  0  0  0
  -21.7778  -21.5073   26.1657 C   0  0  0  0  0  0  0  0  0  0  0  0
  -31.6187  -18.5985   24.1129 C   0  0  0  0  0  0  0  0  0  0  0  0
  -31.9180  -16.7746   22.5570 C   0  0  0  0  0  0  0  0  0  0  0  0
  -22.4109   -8.6014   20.2352 C   0  0  0  0  0  0  0  0  0  0  0  0
  -23.0862   -8.7312   22.5513 C   0  0  0  0  0  0  0  0  0  0  0  0
  -22.5758  -20.4521   25.7257 C   0  0  0  0  0  0  0  0  0  0  0  0
  -19.8517   -7.9044   23.0758 C   0  0  0  0  0  0  0  0  0  0  0  0
  -19.0532   -7.9064   24.2195 C   0  0  0  0  0  0  0  0  0  0  0  0
  -24.2737  -22.0265   25.0488 C   0  0  0  0  0  0  0  0  0  0  0  0
  -29.7004  -17.6109   23.0257 C   0  0  0  0  0  0  0  0  0  0  0  0
  -20.2985   -6.0290   25.0923 C   0  0  0  0  0  0  0  0  0  0  0  0
  -23.8488  -10.3962   20.9756 C   0  0  0  0  0  0  0  0  0  0  0  0
  -24.1532  -12.9186   20.7464 C   0  0  0  0  0  0  0  0  0  0  0  0
  -17.9889  -28.6332   22.9827 C   0  0  0  0  0  0  0  0  0  0  0  0
  -22.2178  -22.8328   26.0403 C   0  0  0  0  0  0  0  0  0  0  0  0
  -18.2591  -27.2690   23.2026 C   0  0  0  0  0  0  0  0  0  0  0  0
  -23.4804  -23.0965   25.4903 C   0  0  0  0  0  0  0  0  0  0  0  0
  -30.2401  -18.5481   23.9068 C   0  0  0  0  0  0  0  0  0  0  0  0
  -30.5394  -16.7242   22.3509 C   0  0  0  0  0  0  0  0  0  0  0  0
  -22.3818   -8.0896   21.5325 C   0  0  0  0  0  0  0  0  0  0  0  0
  -23.8227  -20.7118   25.1645 C   0  0  0  0  0  0  0  0  0  0  0  0
  -20.8736   -6.9646   22.9403 C   0  0  0  0  0  0  0  0  0  0  0  0
  -19.2766   -6.9688   25.2277 C   0  0  0  0  0  0  0  0  0  0  0  0
  -21.0970   -6.0270   23.9486 C   0  0  0  0  0  0  0  0  0  0  0  0
  -24.6071  -11.5872   20.6884 C   0  0  0  0  0  0  0  0  0  0  0  0
  -25.2454  -13.6697   20.3867 C   0  0  0  0  0  0  0  0  0  0  0  0
  -22.8600  -13.4305   21.0943 C   0  0  0  0  0  0  0  0  0  0  0  0
  -21.1789  -25.4038   24.4864 C   0  0  0  0  0  0  0  0  0  0  0  0
  -23.5784  -26.8705   26.1031 C   0  0  0  0  0  0  0  0  0  0  0  0
  -26.5751  -26.6004   27.7135 C   0  0  0  0  0  0  0  0  0  0  0  0
  -30.6837  -14.8215   20.7060 C   0  0  0  0  0  0  0  0  0  0  0  0
  -19.0451  -29.5779   22.4662 C   0  0  0  0  0  0  0  0  0  0  0  0
  -21.3564  -23.9582   26.5443 C   0  0  0  0  0  0  0  0  0  0  0  0
  -24.0076  -24.5005   25.3519 C   0  0  0  0  0  0  0  0  0  0  0  0
  -20.4677  -29.0489   22.6293 C   0  0  0  0  0  0  0  0  0  0  0  0
  -29.6964  -12.2780   18.4185 C   0  0  0  0  0  0  0  0  0  0  0  0
  -20.5539  -27.5977   22.1673 C   0  0  0  0  0  0  0  0  0  0  0  0
  -28.2470  -11.9811   18.8099 C   0  0  0  0  0  0  0  0  0  0  0  0
  -30.5631  -12.5803   19.6396 C   0  0  0  0  0  0  0  0  0  0  0  0
  -28.5953  -13.3348   20.9154 C   0  0  0  0  0  0  0  0  0  0  0  0
  -19.6463  -26.6951   23.0119 C   0  0  1  0  0  0  0  0  0  0  0  0
  -21.6866  -25.2995   25.8968 C   0  0  1  0  0  0  0  0  0  0  0  0
  -27.6691  -13.0881   19.7132 C   0  0  2  0  0  0  0  0  0  0  0  0
  -28.3068  -27.9784   28.8968 C   0  0  0  0  0  0  0  0  0  0  0  0
  -24.5885  -27.9042   23.4159 C   0  0  0  0  0  0  0  0  0  0  0  0
  -26.7704  -28.4396   24.5209 C   0  0  0  0  0  0  0  0  0  0  0  0
  -24.6805  -29.5725   25.2767 C   0  0  0  0  0  0  0  0  0  0  0  0
  -28.6063  -21.1342   27.1664 C   0  0  0  0  0  0  0  0  0  0  0  0
  -27.5995  -19.0813   28.1372 C   0  0  0  0  0  0  0  0  0  0  0  0
  -24.6972  -18.5830   26.8631 C   0  0  0  0  0  0  0  0  0  0  0  0
  -26.2228  -17.9475   24.9938 C   0  0  0  0  0  0  0  0  0  0  0  0
  -26.1985  -25.1117   30.2435 C   0  0  0  0  0  0  0  0  0  0  0  0
  -29.3323  -19.5082   24.6376 C   0  0  0  0  0  0  0  0  0  0  0  0
  -28.8705  -18.9269   25.9809 C   0  0  0  0  0  0  0  0  0  0  0  0
  -26.5697  -20.1886   26.0605 C   0  0  0  0  0  0  0  0  0  0  0  0
  -25.0411  -27.1339   25.8383 C   0  0  1  0  0  0  0  0  0  0  0  0
  -27.0510  -27.1349   29.0523 C   0  0  2  0  0  0  0  0  0  0  0  0
  -25.2597  -28.2361   24.7636 C   0  0  0  0  0  0  0  0  0  0  0  0
  -27.8884  -19.8071   26.8086 C   0  0  0  0  0  0  0  0  0  0  0  0
  -25.5103  -19.1200   25.6882 C   0  0  0  0  0  0  0  0  0  1  0  0
  -25.8878  -11.4946   20.3207 N   0  0  0  0  0  0  0  0  0  0  0  0
  -26.2480  -12.7773   20.1443 N   0  0  0  0  0  0  0  0  0  0  0  0
  -23.1256  -25.5672   25.8535 N   0  0  0  0  0  0  0  0  0  0  0  0
  -29.9556  -13.6413   20.4458 N   0  0  0  0  0  0  0  0  0  0  0  0
  -25.4365  -14.9997   20.2572 N   0  0  0  0  0  0  0  0  0  0  0  0
  -21.8515  -12.5202   21.4386 N   0  0  0  0  0  0  0  0  0  0  0  0
  -29.9917  -15.7725   21.4553 N   0  0  0  0  0  0  0  0  0  0  0  0
  -20.2602  -26.4176   24.2927 N   0  0  0  0  0  0  0  0  0  0  0  0
  -25.6427  -27.4341   27.1330 N   0  0  0  0  0  0  0  0  0  0  0  0
  -27.3527  -26.0096   29.9816 N   0  3  0  0  0  0  0  0  0  0  0  0
  -22.6016  -14.6580   21.0838 O   0  0  0  0  0  0  0  0  0  0  0  0
  -21.5914  -24.6232   23.6366 O   0  0  0  0  0  0  0  0  0  0  0  0
  -22.8655  -27.7854   26.5230 O   0  0  0  0  0  0  0  0  0  0  0  0
  -26.9919  -25.5505   27.2293 O   0  0  0  0  0  0  0  0  0  0  0  0
  -31.8262  -14.9883   20.2715 O   0  0  0  0  0  0  0  0  0  0  0  0
  -21.6660   -6.9644   21.8046 O   0  0  0  0  0  0  0  0  0  0  0  0
  -24.6069  -19.6792   24.7317 O   0  0  0  0  0  0  0  0  0  1  0  0
  -18.5107   -6.9718   26.3266 F   0  0  0  0  0  0  0  0  0  0  0  0
  -22.0780   -5.1225   23.8246 F   0  0  0  0  0  0  0  0  0  0  0  0
  1  2  1  0  0  0  0
  1  6  2  0  0  0  0
  2  7  2  0  0  0  0
  3  9  2  0  0  0  0
  3 10  1  0  0  0  0
  4 11  2  0  0  0  0
  4 19  1  0  0  0  0
  5 12  1  0  0  0  0
  5 19  2  0  0  0  0
  6 21  1  0  0  0  0
  7 23  1  0  0  0  0
  8 13  2  0  0  0  0
  8 22  1  0  0  0  0
  9 25  1  0  0  0  0
 10 26  2  0  0  0  0
 11 27  1  0  0  0  0
 12 27  2  0  0  0  0
 13 28  1  0  0  0  0
 14 15  2  0  0  0  0
 14 29  1  0  0  0  0
 15 30  1  0  0  0  0
 16 24  1  0  0  0  0
 16 28  2  0  0  0  0
 17 25  2  0  0  0  0
 17 26  1  0  0  0  0
 18 30  2  0  0  0  0
 18 31  1  0  0  0  0
 19 32  1  0  0  0  0
 20 32  1  0  0  0  0
 20 33  2  0  0  0  0
 20 34  1  0  0  0  0
 21 23  2  0  0  0  0
 21 39  1  0  0  0  0
 22 24  2  0  0  0  0
 22 40  1  0  0  0  0
 23 48  1  0  0  0  0
 24 41  1  0  0  0  0
 25 60  1  0  0  0  0
 26 74  1  0  0  0  0
 27 83  1  0  0  0  0
 28 84  1  0  0  0  0
 29 31  2  0  0  0  0
 29 83  1  0  0  0  0
 30 85  1  0  0  0  0
 31 86  1  0  0  0  0
 32 68  2  0  0  0  0
 33 69  1  0  0  0  0
 33 72  1  0  0  0  0
 34 73  1  0  0  0  0
 34 78  2  0  0  0  0
 35 49  1  0  0  0  0
 35 75  1  0  0  0  0
 35 79  2  0  0  0  0
 36 63  1  0  0  0  0
 36 70  1  0  0  0  0
 36 80  2  0  0  0  0
 37 64  1  0  0  0  0
 37 76  1  0  0  0  0
 37 81  2  0  0  0  0
 38 71  1  0  0  0  0
 38 74  1  0  0  0  0
 38 82  2  0  0  0  0
 39 42  1  0  0  0  0
 40 49  1  0  0  0  0
 41 70  1  0  0  0  0
 42 44  1  0  0  0  0
 43 45  1  0  0  0  0
 43 46  1  0  0  0  0
 44 48  1  0  0  0  0
 45 50  1  0  0  0  0
 46 71  1  0  0  0  0
 47 50  1  0  0  0  0
 47 71  1  0  0  0  0
 48 75  1  0  0  0  0
 49 70  1  0  0  0  0
 50 69  1  0  0  0  0
 51 64  1  0  0  0  0
 52 65  1  0  0  0  0
 53 65  1  0  0  0  0
 54 65  1  0  0  0  0
 55 66  1  0  0  0  0
 56 66  1  0  0  0  0
 57 67  1  0  0  0  0
 58 67  1  0  0  0  0
 59 77  1  0  0  0  0
 60 61  1  0  0  0  0
 61 66  1  0  0  0  0
 62 66  1  0  0  0  0
 62 67  1  0  0  0  0
 63 65  1  0  0  0  0
 63 76  1  0  0  0  0
 64 77  1  0  0  0  0
 67 84  1  0  0  0  0
 68 69  1  0  0  0  0
M  CHG  1  77   1
M  ISO  4  38 100  67 101  74 100  84 101
M  END
> <Batch ID>
0140

> <Smiles>
CNC(C)C(=O)NC(C(=O)N1Cc2cc([101O:1][101C:1](C)(C)CC(C)(C)CCc3cccc([100NH:0][100C:0](=O)N4CCCC(n5nc(-c6ccc(Oc7ccc(F)cc7F)cc6)c(C(N)=O)c5N)C4)c3)ccc2CC1C(=O)NC1CCCc2ccccc21)C(C)(C)C

> <Shape>
0.232

> <Color>
0.203

> <Negative vol penalty>
0.000

$$$$

  -OEChem-04052302513D

 85 93  0     1  0  0  0  0  0999 V2000
  -27.8258  -33.2582   25.9835 C   0  0  0  0  0  0  0  0  0  0  0  0
  -27.9658  -31.9753   25.4640 C   0  0  0  0  0  0  0  0  0  0  0  0
  -24.6259  -18.9021   17.8540 C   0  0  0  0  0  0  0  0  0  0  0  0
  -24.7601   -8.7784   21.5457 C   0  0  0  0  0  0  0  0  0  0  0  0
  -23.1519  -10.2776   20.5443 C   0  0  0  0  0  0  0  0  0  0  0  0
  -26.5553  -33.8107   26.1403 C   0  0  0  0  0  0  0  0  0  0  0  0
  -26.8353  -31.2436   25.1020 C   0  0  0  0  0  0  0  0  0  0  0  0
  -27.3638  -28.9404   20.6231 C   0  0  0  0  0  0  0  0  0  0  0  0
  -25.2379  -20.0427   18.3737 C   0  0  0  0  0  0  0  0  0  0  0  0
  -25.2816  -17.6721   17.9094 C   0  0  0  0  0  0  0  0  0  0  0  0
  -23.7879   -8.3338   22.4417 C   0  0  0  0  0  0  0  0  0  0  0  0
  -22.1796   -9.8330   21.4402 C   0  0  0  0  0  0  0  0  0  0  0  0
  -28.1214  -27.7704   20.5942 C   0  0  0  0  0  0  0  0  0  0  0  0
  -21.1559   -6.2115   22.4104 C   0  0  0  0  0  0  0  0  0  0  0  0
  -21.0513   -4.8371   22.6241 C   0  0  0  0  0  0  0  0  0  0  0  0
  -26.0934  -26.4641   20.6101 C   0  0  0  0  0  0  0  0  0  0  0  0
  -27.1612  -18.7235   19.0042 C   0  0  0  0  0  0  0  0  0  0  0  0
  -21.5264   -5.1658   24.9701 C   0  0  0  0  0  0  0  0  0  0  0  0
  -24.4421   -9.7503   20.5970 C   0  0  0  0  0  0  0  0  0  0  0  0
  -25.7400   -9.6778   18.4021 C   0  0  0  0  0  0  0  0  0  0  0  0
  -25.4092  -33.0892   25.7710 C   0  0  0  0  0  0  0  0  0  0  0  0
  -25.9631  -28.8808   20.6567 C   0  0  0  0  0  0  0  0  0  0  0  0
  -25.5482  -31.7865   25.2553 C   0  0  0  0  0  0  0  0  0  0  0  0
  -25.3203  -27.6348   20.6368 C   0  0  0  0  0  0  0  0  0  0  0  0
  -26.5055  -19.9534   18.9488 C   0  0  0  0  0  0  0  0  0  0  0  0
  -26.5492  -17.5829   18.4845 C   0  0  0  0  0  0  0  0  0  0  0  0
  -22.4976   -8.8611   22.3889 C   0  0  0  0  0  0  0  0  0  0  0  0
  -27.4863  -26.5319   20.5907 C   0  0  0  0  0  0  0  0  0  0  0  0
  -21.4458   -7.0630   23.4765 C   0  0  0  0  0  0  0  0  0  0  0  0
  -21.2365   -4.3142   23.9040 C   0  0  0  0  0  0  0  0  0  0  0  0
  -21.6310   -6.5402   24.7563 C   0  0  0  0  0  0  0  0  0  0  0  0
  -25.4462  -10.2104   19.6717 C   0  0  0  0  0  0  0  0  0  0  0  0
  -26.7639  -10.4618   17.9294 C   0  0  0  0  0  0  0  0  0  0  0  0
  -25.1409   -8.5732   17.7117 C   0  0  0  0  0  0  0  0  0  0  0  0
  -23.7265  -29.8247   22.7086 C   0  0  0  0  0  0  0  0  0  0  0  0
  -21.7130  -28.8732   20.3500 C   0  0  0  0  0  0  0  0  0  0  0  0
  -21.1883  -26.9193   17.6016 C   0  0  0  0  0  0  0  0  0  0  0  0
  -28.4749  -16.0707   19.0774 C   0  0  0  0  0  0  0  0  0  0  0  0
  -24.0544  -33.7100   26.0032 C   0  0  0  0  0  0  0  0  0  0  0  0
  -25.1598  -30.1524   20.6606 C   0  0  0  0  0  0  0  0  0  0  0  0
  -23.8189  -27.5168   20.6516 C   0  0  0  0  0  0  0  0  0  0  0  0
  -22.9271  -33.0130   25.2458 C   0  0  0  0  0  0  0  0  0  0  0  0
  -30.4444  -13.1269   19.4413 C   0  0  0  0  0  0  0  0  0  0  0  0
  -23.0303  -31.4998   25.4089 C   0  0  0  0  0  0  0  0  0  0  0  0
  -29.4134  -11.9961   19.4200 C   0  0  0  0  0  0  0  0  0  0  0  0
  -29.9152  -14.3632   20.1660 C   0  0  0  0  0  0  0  0  0  0  0  0
  -27.5889  -13.7279   19.6622 C   0  0  0  0  0  0  0  0  0  0  0  0
  -24.3472  -30.9709   24.8280 C   0  0  1  0  0  0  0  0  0  0  0  0
  -23.7499  -29.9668   21.2130 C   0  0  1  0  0  0  0  0  0  0  0  0
  -28.0524  -12.4843   18.8863 C   0  0  2  0  0  0  0  0  0  0  0  0
  -19.4305  -26.3294   15.9106 C   0  0  0  0  0  0  0  0  0  0  0  0
  -20.3006  -27.1401   22.4264 C   0  0  0  0  0  0  0  0  0  0  0  0
  -19.2151  -25.8938   20.5458 C   0  0  0  0  0  0  0  0  0  0  0  0
  -18.7707  -28.3300   20.8460 C   0  0  0  0  0  0  0  0  0  0  0  0
  -27.2042  -22.5484   17.3683 C   0  0  0  0  0  0  0  0  0  0  0  0
  -29.1816  -21.1531   17.9453 C   0  0  0  0  0  0  0  0  0  0  0  0
  -29.6029  -22.8240   20.5363 C   0  0  0  0  0  0  0  0  0  0  0  0
  -29.6524  -24.1388   18.4256 C   0  0  0  0  0  0  0  0  0  0  0  0
  -22.8457  -27.9136   15.3603 C   0  0  0  0  0  0  0  0  0  0  0  0
  -27.1698  -21.1927   19.5132 C   0  0  0  0  0  0  0  0  0  0  0  0
  -27.6388  -24.2540   19.9245 C   0  0  0  0  0  0  0  0  0  1  0  0
  -21.0269  -27.5782   19.9879 C   0  0  1  0  0  0  0  0  0  0  0  0
  -20.6064  -27.2371   16.2360 C   0  0  2  0  0  0  0  0  0  0  0  0
  -19.8566  -27.2374   20.9532 C   0  0  0  0  0  0  0  0  0  0  0  0
  -28.0735  -22.0514   18.5520 C   0  0  0  0  0  0  0  0  0  0  0  0
  -28.7281  -23.2990   19.3466 C   0  0  0  0  0  0  0  0  0  0  0  0
  -26.2209  -11.2521   19.9857 N   0  0  0  0  0  0  0  0  0  0  0  0
  -27.0117  -11.3803   18.9067 N   0  0  0  0  0  0  0  0  0  0  0  0
  -23.0774  -28.7887   20.6616 N   0  0  0  0  0  0  0  0  0  0  0  0
  -28.6255  -14.7704   19.6041 N   0  0  0  0  0  0  0  0  0  0  0  0
  -27.4675  -10.4482   16.7774 N   0  0  0  0  0  0  0  0  0  0  0  0
  -24.1005   -7.8766   18.3415 N   0  0  0  0  0  0  0  0  0  0  0  0
  -27.2147  -16.3332   18.5412 N   0  0  0  0  0  0  0  0  0  0  0  0
  -24.2706  -30.9001   23.3845 N   0  0  0  0  0  0  0  0  0  0  0  0
  -20.6307  -27.7033   18.5894 N   0  0  0  0  0  0  0  0  0  0  0  0
  -21.6418  -27.0625   15.1784 N   0  3  0  0  0  0  0  0  0  0  0  0
  -25.5281   -8.2043   16.5770 O   0  0  0  0  0  0  0  0  0  0  0  0
  -23.2487  -28.8148   23.2122 O   0  0  0  0  0  0  0  0  0  0  0  0
  -21.0640  -29.9222   20.3494 O   0  0  0  0  0  0  0  0  0  0  0  0
  -22.0485  -26.0588   17.7753 O   0  0  0  0  0  0  0  0  0  0  0  0
  -29.4043  -16.8819   19.0759 O   0  0  0  0  0  0  0  0  0  0  0  0
  -21.5486   -8.4274   23.2628 O   0  0  0  0  0  0  0  0  0  0  0  0
  -28.2234  -25.3883   20.5632 O   0  0  0  0  0  0  0  0  0  1  0  0
  -21.1345   -2.9945   24.1094 F   0  0  0  0  0  0  0  0  0  0  0  0
  -21.9086   -7.3534   25.7846 F   0  0  0  0  0  0  0  0  0  0  0  0
  1  2  1  0  0  0  0
  1  6  2  0  0  0  0
  2  7  2  0  0  0  0
  3  9  2  0  0  0  0
  3 10  1  0  0  0  0
  4 11  2  0  0  0  0
  4 19  1  0  0  0  0
  5 12  1  0  0  0  0
  5 19  2  0  0  0  0
  6 21  1  0  0  0  0
  7 23  1  0  0  0  0
  8 13  2  0  0  0  0
  8 22  1  0  0  0  0
  9 25  1  0  0  0  0
 10 26  2  0  0  0  0
 11 27  1  0  0  0  0
 12 27  2  0  0  0  0
 13 28  1  0  0  0  0
 14 15  2  0  0  0  0
 14 29  1  0  0  0  0
 15 30  1  0  0  0  0
 16 24  1  0  0  0  0
 16 28  2  0  0  0  0
 17 25  2  0  0  0  0
 17 26  1  0  0  0  0
 18 30  2  0  0  0  0
 18 31  1  0  0  0  0
 19 32  1  0  0  0  0
 20 32  1  0  0  0  0
 20 33  2  0  0  0  0
 20 34  1  0  0  0  0
 21 23  2  0  0  0  0
 21 39  1  0  0  0  0
 22 24  2  0  0  0  0
 22 40  1  0  0  0  0
 23 48  1  0  0  0  0
 24 41  1  0  0  0  0
 25 60  1  0  0  0  0
 26 73  1  0  0  0  0
 27 82  1  0  0  0  0
 28 83  1  0  0  0  0
 29 31  2  0  0  0  0
 29 82  1  0  0  0  0
 30 84  1  0  0  0  0
 31 85  1  0  0  0  0
 32 67  2  0  0  0  0
 33 68  1  0  0  0  0
 33 71  1  0  0  0  0
 34 72  1  0  0  0  0
 34 77  2  0  0  0  0
 35 49  1  0  0  0  0
 35 74  1  0  0  0  0
 35 78  2  0  0  0  0
 36 62  1  0  0  0  0
 36 69  1  0  0  0  0
 36 79  2  0  0  0  0
 37 63  1  0  0  0  0
 37 75  1  0  0  0  0
 37 80  2  0  0  0  0
 38 70  1  0  0  0  0
 38 73  1  0  0  0  0
 38 81  2  0  0  0  0
 39 42  1  0  0  0  0
 40 49  1  0  0  0  0
 41 69  1  0  0  0  0
 42 44  1  0  0  0  0
 43 45  1  0  0  0  0
 43 46  1  0  0  0  0
 44 48  1  0  0  0  0
 45 50  1  0  0  0  0
 46 70  1  0  0  0  0
 47 50  1  0  0  0  0
 47 70  1  0  0  0  0
 48 74  1  0  0  0  0
 49 69  1  0  0  0  0
 50 68  1  0  0  0  0
 51 63  1  0  0  0  0
 52 64  1  0  0  0  0
 53 64  1  0  0  0  0
 54 64  1  0  0  0  0
 55 65  1  0  0  0  0
 56 65  1  0  0  0  0
 57 66  1  0  0  0  0
 58 66  1  0  0  0  0
 59 76  1  0  0  0  0
 60 65  1  0  0  0  0
 61 66  1  0  0  0  0
 61 83  1  0  0  0  0
 62 64  1  0  0  0  0
 62 75  1  0  0  0  0
 63 76  1  0  0  0  0
 65 66  1  0  0  0  0
 67 68  1  0  0  0  0
M  CHG  1  76   1
M  ISO  4  38 100  61 101  73 100  83 101
M  END
> <Batch ID>
0140

> <Smiles>
CNC(C)C(=O)NC(C(=O)N1Cc2cc([101O:1][101CH2:1]C(C)(C)C(C)(C)Cc3cccc([100NH:0][100C:0](=O)N4CCCC(n5nc(-c6ccc(Oc7ccc(F)cc7F)cc6)c(C(N)=O)c5N)C4)c3)ccc2CC1C(=O)NC1CCCc2ccccc21)C(C)(C)C

> <Shape>
0.305

> <Color>
0.087

> <Negative vol penalty>
0.000

$$$$

  -OEChem-04052302513D

 86 94  0     1  0  0  0  0  0999 V2000
  -34.0370  -27.9978   16.9259 C   0  0  0  0  0  0  0  0  0  0  0  0
  -33.7447  -27.2069   18.0324 C   0  0  0  0  0  0  0  0  0  0  0  0
  -23.0314   -9.9999   19.9163 C   0  0  0  0  0  0  0  0  0  0  0  0
  -23.8367   -9.9009   22.1920 C   0  0  0  0  0  0  0  0  0  0  0  0
  -32.8826  -17.2260   23.4976 C   0  0  0  0  0  0  0  0  0  0  0  0
  -33.0215  -28.7166   16.2965 C   0  0  0  0  0  0  0  0  0  0  0  0
  -32.4369  -27.1351   18.5108 C   0  0  0  0  0  0  0  0  0  0  0  0
  -31.0196  -22.3941   19.5876 C   0  0  0  0  0  0  0  0  0  0  0  0
  -32.2405  -16.3991   22.5760 C   0  0  0  0  0  0  0  0  0  0  0  0
  -22.2631   -8.8572   20.1384 C   0  0  0  0  0  0  0  0  0  0  0  0
  -23.0683   -8.7581   22.4141 C   0  0  0  0  0  0  0  0  0  0  0  0
  -31.4800  -21.8483   20.7850 C   0  0  0  0  0  0  0  0  0  0  0  0
  -19.8333   -8.0191   23.0536 C   0  0  0  0  0  0  0  0  0  0  0  0
  -19.0990   -7.9538   24.2377 C   0  0  0  0  0  0  0  0  0  0  0  0
  -30.7458  -18.1210   24.1833 C   0  0  0  0  0  0  0  0  0  0  0  0
  -29.3508  -22.3250   21.8139 C   0  0  0  0  0  0  0  0  0  0  0  0
  -20.3043   -5.9593   24.8751 C   0  0  0  0  0  0  0  0  0  0  0  0
  -23.8182  -10.5218   20.9431 C   0  0  0  0  0  0  0  0  0  0  0  0
  -32.1352  -18.0870   24.3014 C   0  0  0  0  0  0  0  0  0  0  0  0
  -24.2227  -13.0403   20.9105 C   0  0  0  0  0  0  0  0  0  0  0  0
  -31.6989  -28.6460   16.7616 C   0  0  0  0  0  0  0  0  0  0  0  0
  -29.7229  -22.9202   19.4972 C   0  0  0  0  0  0  0  0  0  0  0  0
  -31.4031  -27.8547   17.8879 C   0  0  0  0  0  0  0  0  0  0  0  0
  -28.8755  -22.8745   20.6134 C   0  0  0  0  0  0  0  0  0  0  0  0
  -30.8511  -16.4331   22.4579 C   0  0  0  0  0  0  0  0  0  0  0  0
  -22.2815   -8.2362   21.3873 C   0  0  0  0  0  0  0  0  0  0  0  0
  -30.6466  -21.8163   21.8992 C   0  0  0  0  0  0  0  0  0  0  0  0
  -20.8031   -7.0545   22.7801 C   0  0  0  0  0  0  0  0  0  0  0  0
  -30.1037  -17.2941   23.2616 C   0  0  0  0  0  0  0  0  0  0  0  0
  -19.3345   -6.9239   25.1484 C   0  0  0  0  0  0  0  0  0  0  0  0
  -21.0386   -6.0247   23.6909 C   0  0  0  0  0  0  0  0  0  0  0  0
  -24.6125  -11.7019   20.7141 C   0  0  0  0  0  0  0  0  0  0  0  0
  -25.3264  -13.7754   20.5529 C   0  0  0  0  0  0  0  0  0  0  0  0
  -32.8194  -18.9679   25.2838 C   0  0  0  0  0  0  0  0  0  0  0  0
  -22.9745  -13.5715   21.3749 C   0  0  0  0  0  0  0  0  0  0  0  0
  -28.5048  -25.7922   18.8877 C   0  0  0  0  0  0  0  0  0  0  0  0
  -25.6898  -24.1816   18.9485 C   0  0  0  0  0  0  0  0  0  0  0  0
  -23.9278  -21.4672   20.0321 C   0  0  0  0  0  0  0  0  0  0  0  0
  -30.8202  -14.6764   20.6526 C   0  0  0  0  0  0  0  0  0  0  0  0
  -30.6434  -29.4781   16.0773 C   0  0  0  0  0  0  0  0  0  0  0  0
  -29.2322  -23.4812   18.1907 C   0  0  0  0  0  0  0  0  0  0  0  0
  -27.4678  -23.4078   20.5627 C   0  0  0  0  0  0  0  0  0  0  0  0
  -29.2173  -29.0534   16.4181 C   0  0  0  0  0  0  0  0  0  0  0  0
  -29.5969  -12.3828   18.2194 C   0  0  0  0  0  0  0  0  0  0  0  0
  -29.0666  -28.8474   17.9219 C   0  0  0  0  0  0  0  0  0  0  0  0
  -28.1590  -12.1113   18.6677 C   0  0  0  0  0  0  0  0  0  0  0  0
  -30.5413  -12.5428   19.4095 C   0  0  0  0  0  0  0  0  0  0  0  0
  -28.6816  -13.2620   20.8563 C   0  0  0  0  0  0  0  0  0  0  0  0
  -29.9923  -27.7316   18.4215 C   0  0  1  0  0  0  0  0  0  0  0  0
  -28.0700  -24.4553   18.3575 C   0  0  1  0  0  0  0  0  0  0  0  0
  -27.6814  -13.1579   19.6934 C   0  0  2  0  0  0  0  0  0  0  0  0
  -21.6371  -20.4456   19.9523 C   0  0  0  0  0  0  0  0  0  0  0  0
  -24.7133  -26.2168   21.0013 C   0  0  0  0  0  0  0  0  0  0  0  0
  -22.8534  -24.6419   21.5749 C   0  0  0  0  0  0  0  0  0  0  0  0
  -23.0209  -25.5854   19.2717 C   0  0  0  0  0  0  0  0  0  0  0  0
  -32.0458  -22.7932   25.3677 C   0  0  0  0  0  0  0  0  0  0  0  0
  -34.2746  -21.7133   25.0642 C   0  0  0  0  0  0  0  0  0  0  0  0
  -24.9316  -19.0387   18.6705 C   0  0  0  0  0  0  0  0  0  0  0  0
  -28.1960  -18.2732   22.2330 C   0  0  0  0  0  0  0  0  0  0  0  0
  -32.2192  -20.3198   25.6624 C   0  0  0  0  0  0  0  0  0  0  0  0
  -32.4923  -21.3827   23.3349 C   0  0  0  0  0  0  0  0  0  1  0  0
  -24.6818  -23.8306   20.0161 C   0  0  1  0  0  0  0  0  0  0  0  0
  -23.0099  -20.5045   19.3005 C   0  0  2  0  0  0  0  0  0  0  0  0
  -23.8445  -25.0603   20.4678 C   0  0  0  0  0  0  0  0  0  0  0  0
  -32.7623  -21.5264   24.8482 C   0  0  0  0  0  0  0  0  0  0  0  0
  -25.8659  -11.5904   20.2663 N   0  0  0  0  0  0  0  0  0  0  0  0
  -33.9408  -18.5853   25.8090 N   0  0  0  0  0  0  0  0  0  0  0  0
  -26.2732  -12.8681   20.1782 N   0  0  0  0  0  0  0  0  0  0  0  0
  -27.0364  -23.9519   19.2645 N   0  0  0  0  0  0  0  0  0  0  0  0
  -30.0267  -13.5533   20.3363 N   0  0  0  0  0  0  0  0  0  0  0  0
  -25.5696  -15.1030   20.5254 N   0  0  0  0  0  0  0  0  0  0  0  0
  -21.9464  -12.6759   21.6989 N   0  0  0  0  0  0  0  0  0  0  0  0
  -30.2133  -15.5856   21.5184 N   0  0  0  0  0  0  0  0  0  0  0  0
  -29.4398  -26.4337   18.0978 N   0  0  0  0  0  0  0  0  0  0  0  0
  -23.8869  -22.7304   19.4810 N   0  0  0  0  0  0  0  0  0  0  0  0
  -23.5906  -19.1321   19.3029 N   0  3  0  0  0  0  0  0  0  0  0  0
  -22.7713  -14.8046   21.4831 O   0  0  0  0  0  0  0  0  0  0  0  0
  -28.0264  -26.2115   19.9351 O   0  0  0  0  0  0  0  0  0  0  0  0
  -25.2964  -24.6359   17.8713 O   0  0  0  0  0  0  0  0  0  0  0  0
  -24.6099  -21.1329   20.9983 O   0  0  0  0  0  0  0  0  0  0  0  0
  -31.9437  -14.8343   20.1682 O   0  0  0  0  0  0  0  0  0  0  0  0
  -21.5318   -7.1212   21.6045 O   0  0  0  0  0  0  0  0  0  0  0  0
  -28.7451  -17.3423   23.1631 O   0  0  0  0  0  0  0  0  0  0  0  0
  -31.0936  -21.2848   23.0695 O   0  0  0  0  0  0  0  0  0  1  0  0
  -18.6304   -6.8622   26.2862 F   0  0  0  0  0  0  0  0  0  0  0  0
  -21.9698   -5.0957   23.4343 F   0  0  0  0  0  0  0  0  0  0  0  0
  1  2  1  0  0  0  0
  1  6  2  0  0  0  0
  2  7  2  0  0  0  0
  3 10  2  0  0  0  0
  3 18  1  0  0  0  0
  4 11  1  0  0  0  0
  4 18  2  0  0  0  0
  5  9  2  0  0  0  0
  5 19  1  0  0  0  0
  6 21  1  0  0  0  0
  7 23  1  0  0  0  0
  8 12  2  0  0  0  0
  8 22  1  0  0  0  0
  9 25  1  0  0  0  0
 10 26  1  0  0  0  0
 11 26  2  0  0  0  0
 12 27  1  0  0  0  0
 13 14  2  0  0  0  0
 13 28  1  0  0  0  0
 14 30  1  0  0  0  0
 15 19  2  0  0  0  0
 15 29  1  0  0  0  0
 16 24  1  0  0  0  0
 16 27  2  0  0  0  0
 17 30  2  0  0  0  0
 17 31  1  0  0  0  0
 18 32  1  0  0  0  0
 19 34  1  0  0  0  0
 20 32  1  0  0  0  0
 20 33  2  0  0  0  0
 20 35  1  0  0  0  0
 21 23  2  0  0  0  0
 21 40  1  0  0  0  0
 22 24  2  0  0  0  0
 22 41  1  0  0  0  0
 23 49  1  0  0  0  0
 24 42  1  0  0  0  0
 25 29  2  0  0  0  0
 25 73  1  0  0  0  0
 26 82  1  0  0  0  0
 27 84  1  0  0  0  0
 28 31  2  0  0  0  0
 28 82  1  0  0  0  0
 29 83  1  0  0  0  0
 30 85  1  0  0  0  0
 31 86  1  0  0  0  0
 32 66  2  0  0  0  0
 33 68  1  0  0  0  0
 33 71  1  0  0  0  0
 34 60  1  0  0  0  0
 34 67  2  0  0  0  0
 35 72  1  0  0  0  0
 35 77  2  0  0  0  0
 36 50  1  0  0  0  0
 36 74  1  0  0  0  0
 36 78  2  0  0  0  0
 37 62  1  0  0  0  0
 37 69  1  0  0  0  0
 37 79  2  0  0  0  0
 38 63  1  0  0  0  0
 38 75  1  0  0  0  0
 38 80  2  0  0  0  0
 39 70  1  0  0  0  0
 39 73  1  0  0  0  0
 39 81  2  0  0  0  0
 40 43  1  0  0  0  0
 41 50  1  0  0  0  0
 42 69  1  0  0  0  0
 43 45  1  0  0  0  0
 44 46  1  0  0  0  0
 44 47  1  0  0  0  0
 45 49  1  0  0  0  0
 46 51  1  0  0  0  0
 47 70  1  0  0  0  0
 48 51  1  0  0  0  0
 48 70  1  0  0  0  0
 49 74  1  0  0  0  0
 50 69  1  0  0  0  0
 51 68  1  0  0  0  0
 52 63  1  0  0  0  0
 53 64  1  0  0  0  0
 54 64  1  0  0  0  0
 55 64  1  0  0  0  0
 56 65  1  0  0  0  0
 57 65  1  0  0  0  0
 58 76  1  0  0  0  0
 59 83  1  0  0  0  0
 60 65  1  0  0  0  0
 61 65  1  0  0  0  0
 61 84  1  0  0  0  0
 62 64  1  0  0  0  0
 62 75  1  0  0  0  0
 63 76  1  0  0  0  0
 66 68  1  0  0  0  0
M  CHG  1  76   1
M  ISO  4  39 100  61 101  73 100  84 101
M  END
> <Batch ID>
0140

> <Smiles>
CNC(C)C(=O)NC(C(=O)N1Cc2cc([101O:1][101CH2:1]C(C)(C)CC(=N)c3ccc([100NH:0][100C:0](=O)N4CCCC(n5nc(-c6ccc(Oc7ccc(F)cc7F)cc6)c(C(N)=O)c5N)C4)c(OC)c3)ccc2CC1C(=O)NC1CCCc2ccccc21)C(C)(C)C

> <Shape>
0.232

> <Color>
0.197

> <Negative vol penalty>
0.000

$$$$

  -OEChem-04052302513D

 88 96  0     1  0  0  0  0  0999 V2000
  -30.0949  -25.8783   17.0366 C   0  0  0  0  0  0  0  0  0  0  0  0
  -28.7116  -25.8756   17.1841 C   0  0  0  0  0  0  0  0  0  0  0  0
  -25.1005  -12.7596   24.0856 C   0  0  0  0  0  0  0  0  0  0  0  0
  -26.0953  -14.1071   22.3444 C   0  0  0  0  0  0  0  0  0  0  0  0
  -30.9052  -26.3232   18.0803 C   0  0  0  0  0  0  0  0  0  0  0  0
  -28.1378  -26.3168   18.3760 C   0  0  0  0  0  0  0  0  0  0  0  0
  -22.8379  -29.3171   19.0210 C   0  0  0  0  0  0  0  0  0  0  0  0
  -25.0925  -11.6587   23.2292 C   0  0  0  0  0  0  0  0  0  0  0  0
  -26.0873  -13.0062   21.4879 C   0  0  0  0  0  0  0  0  0  0  0  0
  -21.5553  -28.8921   19.3645 C   0  0  0  0  0  0  0  0  0  0  0  0
  -23.2197  -10.5182   20.6569 C   0  0  0  0  0  0  0  0  0  0  0  0
  -22.0598   -9.7451   20.6072 C   0  0  0  0  0  0  0  0  0  0  0  0
  -21.9731  -29.5065   21.6596 C   0  0  0  0  0  0  0  0  0  0  0  0
  -24.0848  -21.9230   21.3288 C   0  0  0  0  0  0  0  0  0  0  0  0
  -21.8713  -22.5838   22.0366 C   0  0  0  0  0  0  0  0  0  0  0  0
  -23.3161   -7.8134   21.3333 C   0  0  0  0  0  0  0  0  0  0  0  0
  -25.6018  -13.9838   23.6433 C   0  0  0  0  0  0  0  0  0  0  0  0
  -26.6370  -15.5047   25.4105 C   0  0  0  0  0  0  0  0  0  0  0  0
  -30.3407  -26.7792   19.2820 C   0  0  0  0  0  0  0  0  0  0  0  0
  -23.7031  -29.8307   19.9978 C   0  0  0  0  0  0  0  0  0  0  0  0
  -28.9414  -26.7670   19.4373 C   0  0  0  0  0  0  0  0  0  0  0  0
  -23.2653  -29.9396   21.3254 C   0  0  0  0  0  0  0  0  0  0  0  0
  -23.9770  -22.7551   20.2146 C   0  0  0  0  0  0  0  0  0  0  0  0
  -22.8163  -23.5015   20.0113 C   0  0  0  0  0  0  0  0  0  0  0  0
  -23.0320  -21.8374   22.2398 C   0  0  0  0  0  0  0  0  0  0  0  0
  -25.5859  -11.7820   21.9303 C   0  0  0  0  0  0  0  0  0  0  0  0
  -21.1237  -28.9841   20.6845 C   0  0  0  0  0  0  0  0  0  0  0  0
  -24.4279   -9.9389   21.0448 C   0  0  0  0  0  0  0  0  0  0  0  0
  -21.7635  -23.4159   20.9223 C   0  0  0  0  0  0  0  0  0  0  0  0
  -22.1079   -8.3928   20.9454 C   0  0  0  0  0  0  0  0  0  0  0  0
  -24.4761   -8.5865   21.3830 C   0  0  0  0  0  0  0  0  0  0  0  0
  -25.6098  -15.1216   24.5274 C   0  0  0  0  0  0  0  0  0  0  0  0
  -26.1618  -16.6414   26.0174 C   0  0  0  0  0  0  0  0  0  0  0  0
  -27.9073  -14.8882   25.6597 C   0  0  0  0  0  0  0  0  0  0  0  0
  -26.5303  -28.9685   21.1672 C   0  0  0  0  0  0  0  0  0  0  0  0
  -26.2928  -31.7836   22.7613 C   0  0  0  0  0  0  0  0  0  0  0  0
  -24.2852  -34.2360   24.0270 C   0  0  0  0  0  0  0  0  0  0  0  0
  -22.1907  -20.7921   24.3720 C   0  0  0  0  0  0  0  0  0  0  0  0
  -31.2591  -27.2062   20.3995 C   0  0  0  0  0  0  0  0  0  0  0  0
  -25.0741  -30.3096   19.6061 C   0  0  0  0  0  0  0  0  0  0  0  0
  -24.1483  -30.5025   22.4080 C   0  0  0  0  0  0  0  0  0  0  0  0
  -30.5573  -28.0096   21.4914 C   0  0  0  0  0  0  0  0  0  0  0  0
  -22.0678  -18.7697   27.2998 C   0  0  0  0  0  0  0  0  0  0  0  0
  -29.2488  -27.3358   21.8924 C   0  0  0  0  0  0  0  0  0  0  0  0
  -23.0602  -17.6429   27.0039 C   0  0  0  0  0  0  0  0  0  0  0  0
  -21.2981  -19.1904   26.0491 C   0  0  0  0  0  0  0  0  0  0  0  0
  -23.1265  -18.4068   24.5958 C   0  0  0  0  0  0  0  0  0  0  0  0
  -28.2804  -27.2613   20.7057 C   0  0  1  0  0  0  0  0  0  0  0  0
  -26.0536  -30.3385   20.7754 C   0  0  1  0  0  0  0  0  0  0  0  0
  -23.9718  -17.9934   25.8116 C   0  0  2  0  0  0  0  0  0  0  0  0
  -25.1181  -22.8292   19.2536 C   0  0  0  0  0  0  0  0  0  0  0  0
  -23.4809  -25.6932   18.9907 C   0  0  0  0  0  0  0  0  0  0  0  0
  -24.3774  -36.3902   25.3108 C   0  0  0  0  0  0  0  0  0  0  0  0
  -17.8262  -24.7134   21.3265 C   0  0  0  0  0  0  0  0  0  0  0  0
  -26.7986  -30.2252   25.3353 C   0  0  0  0  0  0  0  0  0  0  0  0
  -25.9491  -32.2013   26.6164 C   0  0  0  0  0  0  0  0  0  0  0  0
  -27.9870  -32.4212   25.1947 C   0  0  0  0  0  0  0  0  0  0  0  0
  -18.4296  -26.4637   23.8287 C   0  0  0  0  0  0  0  0  0  0  0  0
  -17.2433  -27.5949   21.9658 C   0  0  0  0  0  0  0  0  0  0  0  0
  -23.0635  -35.7515   21.7977 C   0  0  0  0  0  0  0  0  0  0  0  0
  -22.6960  -24.3969   18.8196 C   0  0  0  0  0  0  0  0  0  0  0  0
  -20.2732  -25.0650   21.7682 C   0  0  0  0  0  0  0  0  0  0  0  0
  -19.6904  -28.0660   22.3455 C   0  0  0  0  0  0  0  0  0  1  0  0
  -25.7219  -32.2146   24.0907 C   0  0  1  0  0  0  0  0  0  0  0  0
  -24.3613  -35.7491   23.9319 C   0  0  2  0  0  0  0  0  0  0  0  0
  -18.9455  -25.7673   21.4204 C   0  0  2  0  0  0  0  0  0  0  0  0
  -26.5980  -31.7531   25.2895 C   0  0  0  0  0  0  0  0  0  0  0  0
  -18.5983  -26.9698   22.3762 C   0  0  0  0  0  0  0  0  0  0  0  0
  -24.5611  -15.9477   24.5668 N   0  0  0  0  0  0  0  0  0  0  0  0
  -24.9268  -16.8613   25.4821 N   0  0  0  0  0  0  0  0  0  0  0  0
  -25.4822  -30.9515   21.9762 N   0  0  0  0  0  0  0  0  0  0  0  0
  -22.2266  -19.5114   24.9630 N   0  0  0  0  0  0  0  0  0  0  0  0
  -26.6839  -17.4643   26.9516 N   0  0  0  0  0  0  0  0  0  0  0  0
  -28.2367  -13.7258   24.9494 N   0  0  0  0  0  0  0  0  0  0  0  0
  -23.1418  -20.9926   23.3721 N   0  0  0  0  0  0  0  0  0  0  0  0
  -27.6542  -28.5468   20.4829 N   0  0  0  0  0  0  0  0  0  0  0  0
  -25.5375  -33.6594   24.0067 N   0  0  0  0  0  0  0  0  0  0  0  0
  -23.1892  -36.2805   23.1803 N   0  3  0  0  0  0  0  0  0  0  0  0
  -28.7191  -15.3451   26.4998 O   0  0  0  0  0  0  0  0  0  0  0  0
  -25.9241  -28.3411   22.0279 O   0  0  0  0  0  0  0  0  0  0  0  0
  -27.4136  -32.1768   22.4284 O   0  0  0  0  0  0  0  0  0  0  0  0
  -23.2214  -33.6267   24.1146 O   0  0  0  0  0  0  0  0  0  0  0  0
  -21.3942  -21.6571   24.7454 O   0  0  0  0  0  0  0  0  0  0  0  0
  -25.5785  -10.7079   21.0944 O   0  0  0  0  0  0  0  0  0  0  0  0
  -19.8725  -28.5694   21.0227 O   0  0  0  0  0  0  0  0  0  1  0  0
  -20.6167  -24.1410   20.7394 O   0  0  0  0  0  0  0  0  0  0  0  0
  -20.9937   -7.6509   20.8991 F   0  0  0  0  0  0  0  0  0  0  0  0
  -25.6336   -8.0246   21.7575 F   0  0  0  0  0  0  0  0  0  0  0  0
  1  2  1  0  0  0  0
  1  5  2  0  0  0  0
  2  6  2  0  0  0  0
  3  8  2  0  0  0  0
  3 17  1  0  0  0  0
  4  9  1  0  0  0  0
  4 17  2  0  0  0  0
  5 19  1  0  0  0  0
  6 21  1  0  0  0  0
  7 10  2  0  0  0  0
  7 20  1  0  0  0  0
  8 26  1  0  0  0  0
  9 26  2  0  0  0  0
 10 27  1  0  0  0  0
 11 12  2  0  0  0  0
 11 28  1  0  0  0  0
 12 30  1  0  0  0  0
 13 22  1  0  0  0  0
 13 27  2  0  0  0  0
 14 23  2  0  0  0  0
 14 25  1  0  0  0  0
 15 25  2  0  0  0  0
 15 29  1  0  0  0  0
 16 30  2  0  0  0  0
 16 31  1  0  0  0  0
 17 32  1  0  0  0  0
 18 32  1  0  0  0  0
 18 33  2  0  0  0  0
 18 34  1  0  0  0  0
 19 21  2  0  0  0  0
 19 39  1  0  0  0  0
 20 22  2  0  0  0  0
 20 40  1  0  0  0  0
 21 48  1  0  0  0  0
 22 41  1  0  0  0  0
 23 24  1  0  0  0  0
 23 51  1  0  0  0  0
 24 29  2  0  0  0  0
 24 61  1  0  0  0  0
 25 75  1  0  0  0  0
 26 84  1  0  0  0  0
 27 85  1  0  0  0  0
 28 31  2  0  0  0  0
 28 84  1  0  0  0  0
 29 86  1  0  0  0  0
 30 87  1  0  0  0  0
 31 88  1  0  0  0  0
 32 69  2  0  0  0  0
 33 70  1  0  0  0  0
 33 73  1  0  0  0  0
 34 74  1  0  0  0  0
 34 79  2  0  0  0  0
 35 49  1  0  0  0  0
 35 76  1  0  0  0  0
 35 80  2  0  0  0  0
 36 64  1  0  0  0  0
 36 71  1  0  0  0  0
 36 81  2  0  0  0  0
 37 65  1  0  0  0  0
 37 77  1  0  0  0  0
 37 82  2  0  0  0  0
 38 72  1  0  0  0  0
 38 75  1  0  0  0  0
 38 83  2  0  0  0  0
 39 42  1  0  0  0  0
 40 49  1  0  0  0  0
 41 71  1  0  0  0  0
 42 44  1  0  0  0  0
 43 45  1  0  0  0  0
 43 46  1  0  0  0  0
 44 48  1  0  0  0  0
 45 50  1  0  0  0  0
 46 72  1  0  0  0  0
 47 50  1  0  0  0  0
 47 72  1  0  0  0  0
 48 76  1  0  0  0  0
 49 71  1  0  0  0  0
 50 70  1  0  0  0  0
 52 61  1  0  0  0  0
 53 65  1  0  0  0  0
 54 66  1  0  0  0  0
 55 67  1  0  0  0  0
 56 67  1  0  0  0  0
 57 67  1  0  0  0  0
 58 68  1  0  0  0  0
 59 68  1  0  0  0  0
 60 78  1  0  0  0  0
 62 66  1  0  0  0  0
 62 86  1  0  0  0  0
 63 68  1  0  0  0  0
 63 85  1  0  0  0  0
 64 67  1  0  0  0  0
 64 77  1  0  0  0  0
 65 78  1  0  0  0  0
 66 68  1  0  0  0  0
 69 70  1  0  0  0  0
M  CHG  1  78   1
M  ISO  4  38 100  63 101  75 100  85 101
M  END
> <Batch ID>
0140

> <Smiles>
CCc1c(C)cc([100NH:0][100C:0](=O)N2CCCC(n3nc(-c4ccc(Oc5ccc(F)cc5F)cc4)c(C(N)=O)c3N)C2)cc1OCC(C)C(C)(C)[101CH2:1][101O:1]c1ccc2c(c1)CN(C(=O)C(NC(=O)C(C)NC)C(C)(C)C)C(C(=O)NC1CCCc3ccccc31)C2

> <Shape>
0.265

> <Color>
0.075

> <Negative vol penalty>
0.000

$$$$

  -OEChem-04052302513D

 84 92  0     1  0  0  0  0  0999 V2000
  -37.6259  -26.8707   20.9437 C   0  0  0  0  0  0  0  0  0  0  0  0
  -36.2880  -26.5956   21.2081 C   0  0  0  0  0  0  0  0  0  0  0  0
  -29.0646  -18.4608   19.4743 C   0  0  0  0  0  0  0  0  0  0  0  0
  -23.0539   -9.8801   19.9587 C   0  0  0  0  0  0  0  0  0  0  0  0
  -23.8636   -9.8772   22.2350 C   0  0  0  0  0  0  0  0  0  0  0  0
  -29.7622  -17.3462   19.9397 C   0  0  0  0  0  0  0  0  0  0  0  0
  -38.5508  -25.8295   20.8783 C   0  0  0  0  0  0  0  0  0  0  0  0
  -35.8741  -25.2788   21.4062 C   0  0  0  0  0  0  0  0  0  0  0  0
  -31.4792  -23.3327   25.2013 C   0  0  0  0  0  0  0  0  0  0  0  0
  -28.0211  -18.9959   20.2297 C   0  0  0  0  0  0  0  0  0  0  0  0
  -22.3149   -8.7263   20.2200 C   0  0  0  0  0  0  0  0  0  0  0  0
  -23.1246   -8.7234   22.4964 C   0  0  0  0  0  0  0  0  0  0  0  0
  -30.1428  -22.9940   24.9936 C   0  0  0  0  0  0  0  0  0  0  0  0
  -22.8914   -5.4064   20.4847 C   0  0  0  0  0  0  0  0  0  0  0  0
  -22.9372   -4.3807   19.5407 C   0  0  0  0  0  0  0  0  0  0  0  0
  -30.7656  -20.6703   24.8156 C   0  0  0  0  0  0  0  0  0  0  0  0
  -20.5456   -4.5491   19.2417 C   0  0  0  0  0  0  0  0  0  0  0  0
  -23.8282  -10.4556   20.9661 C   0  0  0  0  0  0  0  0  0  0  0  0
  -29.4163  -16.7666   21.1603 C   0  0  0  0  0  0  0  0  0  0  0  0
  -24.1689  -12.9810   20.8491 C   0  0  0  0  0  0  0  0  0  0  0  0
  -38.1497  -24.5002   21.0853 C   0  0  0  0  0  0  0  0  0  0  0  0
  -32.4719  -22.3422   25.2068 C   0  0  0  0  0  0  0  0  0  0  0  0
  -36.7943  -24.2187   21.3422 C   0  0  0  0  0  0  0  0  0  0  0  0
  -32.1136  -20.9987   25.0261 C   0  0  0  0  0  0  0  0  0  0  0  0
  -27.6752  -18.4163   21.4503 C   0  0  0  0  0  0  0  0  0  0  0  0
  -28.3728  -17.3017   21.9157 C   0  0  0  0  0  0  0  0  0  0  0  0
  -22.3502   -8.1480   21.4889 C   0  0  0  0  0  0  0  0  0  0  0  0
  -29.7862  -21.6630   24.7979 C   0  0  0  0  0  0  0  0  0  0  0  0
  -21.6728   -6.0035   20.8074 C   0  0  0  0  0  0  0  0  0  0  0  0
  -21.7643   -3.9520   18.9191 C   0  0  0  0  0  0  0  0  0  0  0  0
  -20.4999   -5.5749   20.1858 C   0  0  0  0  0  0  0  0  0  0  0  0
  -24.5923  -11.6471   20.6966 C   0  0  0  0  0  0  0  0  0  0  0  0
  -25.2534  -13.7314   20.4652 C   0  0  0  0  0  0  0  0  0  0  0  0
  -30.1639  -15.6038   21.6210 C   0  0  0  0  0  0  0  0  0  0  0  0
  -22.9082  -13.4957   21.2977 C   0  0  0  0  0  0  0  0  0  0  0  0
  -30.7679  -14.6491   20.6634 C   0  0  0  0  0  0  0  0  0  0  0  0
  -35.0405  -21.7309   23.4370 C   0  0  0  0  0  0  0  0  0  0  0  0
  -35.5391  -19.4186   25.6566 C   0  0  0  0  0  0  0  0  0  0  0  0
  -34.2232  -17.3467   28.0278 C   0  0  0  0  0  0  0  0  0  0  0  0
  -39.1774  -23.4037   20.9580 C   0  0  0  0  0  0  0  0  0  0  0  0
  -33.9056  -22.7210   25.4588 C   0  0  0  0  0  0  0  0  0  0  0  0
  -33.1387  -19.8954   25.0433 C   0  0  0  0  0  0  0  0  0  0  0  0
  -38.7239  -22.0721   21.5508 C   0  0  0  0  0  0  0  0  0  0  0  0
  -29.5417  -12.3994   18.1550 C   0  0  0  0  0  0  0  0  0  0  0  0
  -37.3040  -21.7433   21.1006 C   0  0  0  0  0  0  0  0  0  0  0  0
  -28.1232  -12.0829   18.6276 C   0  0  0  0  0  0  0  0  0  0  0  0
  -30.4918  -12.5948   19.3321 C   0  0  0  0  0  0  0  0  0  0  0  0
  -28.6170  -13.3220   20.7831 C   0  0  0  0  0  0  0  0  0  0  0  0
  -36.3110  -22.8057   21.5873 C   0  0  1  0  0  0  0  0  0  0  0  0
  -34.8977  -21.6887   24.9321 C   0  0  1  0  0  0  0  0  0  0  0  0
  -27.6226  -13.1453   19.6223 C   0  0  2  0  0  0  0  0  0  0  0  0
  -27.9993  -16.6827   23.2259 C   0  0  0  0  0  0  0  0  0  0  0  0
  -34.8723  -15.5425   29.6467 C   0  0  0  0  0  0  0  0  0  0  0  0
  -35.7302  -17.4250   23.3546 C   0  0  0  0  0  0  0  0  0  0  0  0
  -35.4228  -15.5800   25.0189 C   0  0  0  0  0  0  0  0  0  0  0  0
  -37.4096  -17.0802   25.1753 C   0  0  0  0  0  0  0  0  0  0  0  0
  -26.8498  -21.5553   22.1731 C   0  0  0  0  0  0  0  0  0  0  0  0
  -25.7435  -20.4700   24.1240 C   0  0  0  0  0  0  0  0  0  0  0  0
  -33.3378  -18.9521   30.3510 C   0  0  0  0  0  0  0  0  0  0  0  0
  -26.5424  -19.0166   22.2499 C   0  0  0  0  0  0  0  0  0  0  0  0
  -28.2241  -20.1816   23.7872 C   0  0  0  0  0  0  0  0  0  1  0  0
  -35.1297  -17.9731   25.8051 C   0  0  1  0  0  0  0  0  0  0  0  0
  -34.6601  -17.0352   29.4478 C   0  0  2  0  0  0  0  0  0  0  0  0
  -35.9037  -17.0354   24.8362 C   0  0  0  0  0  0  0  0  0  0  0  0
  -26.8608  -20.3019   23.0693 C   0  0  0  0  0  0  0  0  0  0  0  0
  -25.8476  -11.5523   20.2504 N   0  0  0  0  0  0  0  0  0  0  0  0
  -30.3513  -15.3294   22.8822 N   0  0  0  0  0  0  0  0  0  0  0  0
  -26.2224  -12.8362   20.1192 N   0  0  0  0  0  0  0  0  0  0  0  0
  -29.9696  -13.5825   20.2745 N   0  0  0  0  0  0  0  0  0  0  0  0
  -34.5280  -20.3170   25.2871 N   0  0  0  0  0  0  0  0  0  0  0  0
  -25.4629  -15.0630   20.3931 N   0  0  0  0  0  0  0  0  0  0  0  0
  -21.9033  -12.5857   21.6532 N   0  0  0  0  0  0  0  0  0  0  0  0
  -36.0079  -22.6099   22.9888 N   0  0  0  0  0  0  0  0  0  0  0  0
  -35.2977  -17.6442   27.2165 N   0  0  0  0  0  0  0  0  0  0  0  0
  -33.6293  -17.4971   30.4200 N   0  3  0  0  0  0  0  0  0  0  0  0
  -22.6740  -14.7262   21.3652 O   0  0  0  0  0  0  0  0  0  0  0  0
  -31.9135  -14.9043   20.3159 O   0  0  0  0  0  0  0  0  0  0  0  0
  -34.3268  -21.0177   22.7415 O   0  0  0  0  0  0  0  0  0  0  0  0
  -36.7112  -19.7399   25.8677 O   0  0  0  0  0  0  0  0  0  0  0  0
  -33.0468  -17.3243   27.6728 O   0  0  0  0  0  0  0  0  0  0  0  0
  -21.6291   -7.0223   21.7443 O   0  0  0  0  0  0  0  0  0  0  0  0
  -28.4826  -21.3297   24.5943 O   0  0  0  0  0  0  0  0  0  1  0  0
  -21.8086   -2.9681   18.0114 F   0  0  0  0  0  0  0  0  0  0  0  0
  -19.3264   -6.1455   20.4908 F   0  0  0  0  0  0  0  0  0  0  0  0
  1  2  1  0  0  0  0
  1  7  2  0  0  0  0
  2  8  2  0  0  0  0
  3  6  1  0  0  0  0
  3 10  2  0  0  0  0
  4 11  2  0  0  0  0
  4 18  1  0  0  0  0
  5 12  1  0  0  0  0
  5 18  2  0  0  0  0
  6 19  2  0  0  0  0
  7 21  1  0  0  0  0
  8 23  1  0  0  0  0
  9 13  2  0  0  0  0
  9 22  1  0  0  0  0
 10 25  1  0  0  0  0
 11 27  1  0  0  0  0
 12 27  2  0  0  0  0
 13 28  1  0  0  0  0
 14 15  2  0  0  0  0
 14 29  1  0  0  0  0
 15 30  1  0  0  0  0
 16 24  1  0  0  0  0
 16 28  2  0  0  0  0
 17 30  2  0  0  0  0
 17 31  1  0  0  0  0
 18 32  1  0  0  0  0
 19 26  1  0  0  0  0
 19 34  1  0  0  0  0
 20 32  1  0  0  0  0
 20 33  2  0  0  0  0
 20 35  1  0  0  0  0
 21 23  2  0  0  0  0
 21 40  1  0  0  0  0
 22 24  2  0  0  0  0
 22 41  1  0  0  0  0
 23 49  1  0  0  0  0
 24 42  1  0  0  0  0
 25 26  2  0  0  0  0
 25 60  1  0  0  0  0
 26 52  1  0  0  0  0
 27 81  1  0  0  0  0
 28 82  1  0  0  0  0
 29 31  2  0  0  0  0
 29 81  1  0  0  0  0
 30 83  1  0  0  0  0
 31 84  1  0  0  0  0
 32 66  2  0  0  0  0
 33 68  1  0  0  0  0
 33 71  1  0  0  0  0
 34 36  1  0  0  0  0
 34 67  2  0  0  0  0
 35 72  1  0  0  0  0
 35 76  2  0  0  0  0
 36 69  1  0  0  0  0
 36 77  2  0  0  0  0
 37 50  1  0  0  0  0
 37 73  1  0  0  0  0
 37 78  2  0  0  0  0
 38 62  1  0  0  0  0
 38 70  1  0  0  0  0
 38 79  2  0  0  0  0
 39 63  1  0  0  0  0
 39 74  1  0  0  0  0
 39 80  2  0  0  0  0
 40 43  1  0  0  0  0
 41 50  1  0  0  0  0
 42 70  1  0  0  0  0
 43 45  1  0  0  0  0
 44 46  1  0  0  0  0
 44 47  1  0  0  0  0
 45 49  1  0  0  0  0
 46 51  1  0  0  0  0
 47 69  1  0  0  0  0
 48 51  1  0  0  0  0
 48 69  1  0  0  0  0
 49 73  1  0  0  0  0
 50 70  1  0  0  0  0
 51 68  1  0  0  0  0
 53 63  1  0  0  0  0
 54 64  1  0  0  0  0
 55 64  1  0  0  0  0
 56 64  1  0  0  0  0
 57 65  1  0  0  0  0
 58 65  1  0  0  0  0
 59 75  1  0  0  0  0
 60 65  1  0  0  0  0
 61 65  1  0  0  0  0
 61 82  1  0  0  0  0
 62 64  1  0  0  0  0
 62 74  1  0  0  0  0
 63 75  1  0  0  0  0
 66 68  1  0  0  0  0
M  CHG  1  75   1
M  ISO  4  34 100  36 100  61 101  82 101
M  END
> <Batch ID>
0140

> <Smiles>
CNC(C)C(=O)NC(C(=O)N1Cc2cc([101O:1][101CH2:1]C(C)(C)Cc3cccc([100C:0](=N)[100C:0](=O)N4CCCC(n5nc(-c6ccc(Oc7ccc(F)cc7F)cc6)c(C(N)=O)c5N)C4)c3C)ccc2CC1C(=O)NC1CCCc2ccccc21)C(C)(C)C

> <Shape>
0.173

> <Color>
0.189

> <Negative vol penalty>
0.000

$$$$

  -OEChem-04052302513D

 85 93  0     1  0  0  0  0  0999 V2000
  -29.0901  -22.2296   22.5287 C   0  0  0  0  0  0  0  0  0  0  0  0
  -27.7486  -22.2069   22.1606 C   0  0  0  0  0  0  0  0  0  0  0  0
  -28.9934  -28.0758   18.4618 C   0  0  0  0  0  0  0  0  0  0  0  0
  -27.7125  -26.1216   19.0761 C   0  0  0  0  0  0  0  0  0  0  0  0
  -29.8844  -21.1005   22.3339 C   0  0  0  0  0  0  0  0  0  0  0  0
  -27.2010  -21.0553   21.5965 C   0  0  0  0  0  0  0  0  0  0  0  0
  -22.6869  -19.8830   23.5697 C   0  0  0  0  0  0  0  0  0  0  0  0
  -17.8975  -28.4427   22.7490 C   0  0  0  0  0  0  0  0  0  0  0  0
  -19.1540  -29.0462   22.6980 C   0  0  0  0  0  0  0  0  0  0  0  0
  -30.1760  -27.3730   18.6916 C   0  0  0  0  0  0  0  0  0  0  0  0
  -28.8952  -25.4186   19.3058 C   0  0  0  0  0  0  0  0  0  0  0  0
  -21.5876  -20.6154   23.1239 C   0  0  0  0  0  0  0  0  0  0  0  0
  -31.5789  -22.9989   19.7071 C   0  0  0  0  0  0  0  0  0  0  0  0
  -31.6706  -21.7008   19.2051 C   0  0  0  0  0  0  0  0  0  0  0  0
  -20.9941  -18.8093   21.6390 C   0  0  0  0  0  0  0  0  0  0  0  0
  -31.3466  -22.5444   16.9644 C   0  0  0  0  0  0  0  0  0  0  0  0
  -27.7616  -27.4502   18.6541 C   0  0  0  0  0  0  0  0  0  0  0  0
  -25.8240  -28.2646   17.2083 C   0  0  0  0  0  0  0  0  0  0  0  0
  -29.3438  -19.9312   21.7761 C   0  0  0  0  0  0  0  0  0  0  0  0
  -22.9548  -18.6106   23.0447 C   0  0  0  0  0  0  0  0  0  0  0  0
  -27.9892  -19.9098   21.3929 C   0  0  0  0  0  0  0  0  0  0  0  0
  -22.0961  -18.0618   22.0816 C   0  0  0  0  0  0  0  0  0  0  0  0
  -17.7852  -27.0559   22.6483 C   0  0  0  0  0  0  0  0  0  0  0  0
  -20.1860  -26.8763   22.4453 C   0  0  0  0  0  0  0  0  0  0  0  0
  -20.2982  -28.2631   22.5461 C   0  0  0  0  0  0  0  0  0  0  0  0
  -30.1270  -26.0444   19.1136 C   0  0  0  0  0  0  0  0  0  0  0  0
  -20.7426  -20.0798   22.1563 C   0  0  0  0  0  0  0  0  0  0  0  0
  -31.3709  -24.0698   18.8378 C   0  0  0  0  0  0  0  0  0  0  0  0
  -18.9295  -26.2728   22.4964 C   0  0  0  0  0  0  0  0  0  0  0  0
  -31.5545  -21.4735   17.8337 C   0  0  0  0  0  0  0  0  0  0  0  0
  -31.2548  -23.8426   17.4665 C   0  0  0  0  0  0  0  0  0  0  0  0
  -26.5395  -28.1759   18.4175 C   0  0  0  0  0  0  0  0  0  0  0  0
  -24.7464  -29.0630   17.5048 C   0  0  0  0  0  0  0  0  0  0  0  0
  -26.1080  -27.6777   15.9314 C   0  0  0  0  0  0  0  0  0  0  0  0
  -25.3558  -17.3180   21.4112 C   0  0  0  0  0  0  0  0  0  0  0  0
  -23.6683  -14.5828   21.8508 C   0  0  0  0  0  0  0  0  0  0  0  0
  -20.6510  -13.1045   22.4486 C   0  0  0  0  0  0  0  0  0  0  0  0
  -21.8289  -30.2636   22.5794 C   0  0  0  0  0  0  0  0  0  0  0  0
  -30.2534  -18.7512   21.5413 C   0  0  0  0  0  0  0  0  0  0  0  0
  -24.1295  -17.8223   23.5555 C   0  0  0  0  0  0  0  0  0  0  0  0
  -22.3282  -16.6916   21.5008 C   0  0  0  0  0  0  0  0  0  0  0  0
  -29.5041  -17.4466   21.2829 C   0  0  0  0  0  0  0  0  0  0  0  0
  -23.4089  -32.6161   20.4238 C   0  0  0  0  0  0  0  0  0  0  0  0
  -28.3829  -17.6660   20.2722 C   0  0  0  0  0  0  0  0  0  0  0  0
  -24.3214  -31.7518   19.5506 C   0  0  0  0  0  0  0  0  0  0  0  0
  -23.3419  -32.0988   21.8597 C   0  0  0  0  0  0  0  0  0  0  0  0
  -23.8985  -29.8160   21.1193 C   0  0  0  0  0  0  0  0  0  0  0  0
  -27.3525  -18.6712   20.8008 C   0  0  1  0  0  0  0  0  0  0  0  0
  -24.5994  -16.7492   22.5782 C   0  0  1  0  0  0  0  0  0  0  0  0
  -23.9468  -30.2599   19.6481 C   0  0  2  0  0  0  0  0  0  0  0  0
  -16.4314  -26.4287   22.7070 C   0  0  0  0  0  0  0  0  0  0  0  0
  -21.9543  -26.0716   20.8604 C   0  0  0  0  0  0  0  0  0  0  0  0
  -19.5801  -10.8508   22.7162 C   0  0  0  0  0  0  0  0  0  0  0  0
  -17.2840  -22.4598   22.0063 C   0  0  0  0  0  0  0  0  0  0  0  0
  -23.7979  -14.1653   18.8310 C   0  0  0  0  0  0  0  0  0  0  0  0
  -21.9581  -12.4821   19.0548 C   0  0  0  0  0  0  0  0  0  0  0  0
  -24.1468  -12.0928   20.1866 C   0  0  0  0  0  0  0  0  0  0  0  0
  -19.7916  -13.7125   25.2146 C   0  0  0  0  0  0  0  0  0  0  0  0
  -21.4086  -26.0288   22.2833 C   0  0  0  0  0  0  0  0  0  0  0  0
  -19.7848  -22.2151   21.7332 C   0  0  0  0  0  0  0  0  0  1  0  0
  -18.6639  -24.3708   21.0936 C   0  0  0  0  0  0  0  0  0  0  0  0
  -22.5824  -13.8623   21.0886 C   0  0  1  0  0  0  0  0  0  0  0  0
  -20.2360  -12.0228   23.4296 C   0  0  2  0  0  0  0  0  0  0  0  0
  -18.5095  -22.8492   21.1707 C   0  0  2  0  0  0  0  0  0  0  0  0
  -23.1178  -13.1773   19.7996 C   0  0  0  0  0  0  0  0  0  0  0  0
  -25.9650  -28.8632   19.4082 N   0  0  0  0  0  0  0  0  0  0  0  0
  -24.8771  -29.3915   18.8221 N   0  0  0  0  0  0  0  0  0  0  0  0
  -23.4936  -15.9626   22.0280 N   0  0  0  0  0  0  0  0  0  0  0  0
  -22.9776  -30.6804   21.8739 N   0  0  0  0  0  0  0  0  0  0  0  0
  -23.7094  -29.5091   16.7646 N   0  0  0  0  0  0  0  0  0  0  0  0
  -27.2564  -26.8849   15.8010 N   0  0  0  0  0  0  0  0  0  0  0  0
  -21.5643  -28.8971   22.4945 N   0  0  0  0  0  0  0  0  0  0  0  0
  -26.4795  -18.0393   21.7667 N   0  0  0  0  0  0  0  0  0  0  0  0
  -21.9573  -12.9463   22.0365 N   0  0  0  0  0  0  0  0  0  0  0  0
  -19.2692  -12.5685   24.4238 N   0  3  0  0  0  0  0  0  0  0  0  0
  -25.3742  -27.8645   14.9314 O   0  0  0  0  0  0  0  0  0  0  0  0
  -24.9507  -17.1161   20.2724 O   0  0  0  0  0  0  0  0  0  0  0  0
  -24.6322  -13.9435   22.2794 O   0  0  0  0  0  0  0  0  0  0  0  0
  -19.8911  -13.9979   22.0815 O   0  0  0  0  0  0  0  0  0  0  0  0
  -21.1161  -31.0644   23.1897 O   0  0  0  0  0  0  0  0  0  0  0  0
  -31.2808  -25.3581   19.3377 O   0  0  0  0  0  0  0  0  0  0  0  0
  -19.6692  -20.7928   21.7190 O   0  0  0  0  0  0  0  0  0  1  0  0
  -18.8170  -24.9104   22.3998 O   0  0  0  0  0  0  0  0  0  0  0  0
  -31.6442  -20.2270   17.3516 F   0  0  0  0  0  0  0  0  0  0  0  0
  -31.0562  -24.8675   16.6263 F   0  0  0  0  0  0  0  0  0  0  0  0
  1  2  1  0  0  0  0
  1  5  2  0  0  0  0
  2  6  2  0  0  0  0
  3 10  2  0  0  0  0
  3 17  1  0  0  0  0
  4 11  1  0  0  0  0
  4 17  2  0  0  0  0
  5 19  1  0  0  0  0
  6 21  1  0  0  0  0
  7 12  2  0  0  0  0
  7 20  1  0  0  0  0
  8  9  1  0  0  0  0
  8 23  2  0  0  0  0
  9 25  2  0  0  0  0
 10 26  1  0  0  0  0
 11 26  2  0  0  0  0
 12 27  1  0  0  0  0
 13 14  2  0  0  0  0
 13 28  1  0  0  0  0
 14 30  1  0  0  0  0
 15 22  1  0  0  0  0
 15 27  2  0  0  0  0
 16 30  2  0  0  0  0
 16 31  1  0  0  0  0
 17 32  1  0  0  0  0
 18 32  1  0  0  0  0
 18 33  2  0  0  0  0
 18 34  1  0  0  0  0
 19 21  2  0  0  0  0
 19 39  1  0  0  0  0
 20 22  2  0  0  0  0
 20 40  1  0  0  0  0
 21 48  1  0  0  0  0
 22 41  1  0  0  0  0
 23 29  1  0  0  0  0
 23 51  1  0  0  0  0
 24 25  1  0  0  0  0
 24 29  2  0  0  0  0
 24 59  1  0  0  0  0
 25 72  1  0  0  0  0
 26 81  1  0  0  0  0
 27 82  1  0  0  0  0
 28 31  2  0  0  0  0
 28 81  1  0  0  0  0
 29 83  1  0  0  0  0
 30 84  1  0  0  0  0
 31 85  1  0  0  0  0
 32 66  2  0  0  0  0
 33 67  1  0  0  0  0
 33 70  1  0  0  0  0
 34 71  1  0  0  0  0
 34 76  2  0  0  0  0
 35 49  1  0  0  0  0
 35 73  1  0  0  0  0
 35 77  2  0  0  0  0
 36 62  1  0  0  0  0
 36 68  1  0  0  0  0
 36 78  2  0  0  0  0
 37 63  1  0  0  0  0
 37 74  1  0  0  0  0
 37 79  2  0  0  0  0
 38 69  1  0  0  0  0
 38 72  1  0  0  0  0
 38 80  2  0  0  0  0
 39 42  1  0  0  0  0
 40 49  1  0  0  0  0
 41 68  1  0  0  0  0
 42 44  1  0  0  0  0
 43 45  1  0  0  0  0
 43 46  1  0  0  0  0
 44 48  1  0  0  0  0
 45 50  1  0  0  0  0
 46 69  1  0  0  0  0
 47 50  1  0  0  0  0
 47 69  1  0  0  0  0
 48 73  1  0  0  0  0
 49 68  1  0  0  0  0
 50 67  1  0  0  0  0
 52 59  1  0  0  0  0
 53 63  1  0  0  0  0
 54 64  1  0  0  0  0
 55 65  1  0  0  0  0
 56 65  1  0  0  0  0
 57 65  1  0  0  0  0
 58 75  1  0  0  0  0
 60 64  1  0  0  0  0
 60 82  1  0  0  0  0
 61 64  1  0  0  0  0
 61 83  1  0  0  0  0
 62 65  1  0  0  0  0
 62 74  1  0  0  0  0
 63 75  1  0  0  0  0
 66 67  1  0  0  0  0
M  CHG  1  75   1
M  ISO  4  38 100  60 101  72 100  82 101
M  END
> <Batch ID>
0140

> <Smiles>
CCc1c([100NH:0][100C:0](=O)N2CCCC(n3nc(-c4ccc(Oc5ccc(F)cc5F)cc4)c(C(N)=O)c3N)C2)ccc(C)c1OCC(C)[101CH2:1][101O:1]c1ccc2c(c1)CN(C(=O)C(NC(=O)C(C)NC)C(C)(C)C)C(C(=O)NC1CCCc3ccccc31)C2

> <Shape>
0.209

> <Color>
0.067

> <Negative vol penalty>
0.000

$$$$

  -OEChem-04052302513D

 86 94  0     1  0  0  0  0  0999 V2000
  -26.5725  -36.7340   21.5092 C   0  0  0  0  0  0  0  0  0  0  0  0
  -27.1415  -35.4735   21.3574 C   0  0  0  0  0  0  0  0  0  0  0  0
  -26.6229  -12.3268   21.7972 C   0  0  0  0  0  0  0  0  0  0  0  0
  -25.9483  -13.8410   20.0397 C   0  0  0  0  0  0  0  0  0  0  0  0
  -25.4957  -36.9115   22.3768 C   0  0  0  0  0  0  0  0  0  0  0  0
  -26.6345  -34.3901   22.0740 C   0  0  0  0  0  0  0  0  0  0  0  0
  -26.1031  -30.2459   19.2126 C   0  0  0  0  0  0  0  0  0  0  0  0
  -31.6735  -22.9083   19.7525 C   0  0  0  0  0  0  0  0  0  0  0  0
  -29.8323  -22.2261   18.3448 C   0  0  0  0  0  0  0  0  0  0  0  0
  -31.2915  -21.9670   20.7084 C   0  0  0  0  0  0  0  0  0  0  0  0
  -29.4503  -21.2848   19.3006 C   0  0  0  0  0  0  0  0  0  0  0  0
  -25.3438  -11.7704   21.8088 C   0  0  0  0  0  0  0  0  0  0  0  0
  -24.6693  -13.2846   20.0512 C   0  0  0  0  0  0  0  0  0  0  0  0
  -27.2556  -29.5127   18.9335 C   0  0  0  0  0  0  0  0  0  0  0  0
  -23.5736   -9.5568   19.9652 C   0  0  0  0  0  0  0  0  0  0  0  0
  -23.4719   -8.1662   20.0046 C   0  0  0  0  0  0  0  0  0  0  0  0
  -26.6683  -27.9411   20.6668 C   0  0  0  0  0  0  0  0  0  0  0  0
  -22.2586   -8.3139   22.0886 C   0  0  0  0  0  0  0  0  0  0  0  0
  -26.9251  -13.3622   20.9127 C   0  0  0  0  0  0  0  0  0  0  0  0
  -29.3455  -13.5262   20.1239 C   0  0  0  0  0  0  0  0  0  0  0  0
  -24.9690  -35.8278   23.0971 C   0  0  0  0  0  0  0  0  0  0  0  0
  -25.2286  -29.8374   20.2299 C   0  0  0  0  0  0  0  0  0  0  0  0
  -25.5504  -34.5536   22.9531 C   0  0  0  0  0  0  0  0  0  0  0  0
  -25.5040  -28.6694   20.9550 C   0  0  0  0  0  0  0  0  0  0  0  0
  -30.9439  -23.0379   18.5707 C   0  0  0  0  0  0  0  0  0  0  0  0
  -30.1799  -21.1552   20.4824 C   0  0  0  0  0  0  0  0  0  0  0  0
  -24.3670  -12.2493   20.9358 C   0  0  0  0  0  0  0  0  0  0  0  0
  -27.5399  -28.3617   19.6626 C   0  0  0  0  0  0  0  0  0  0  0  0
  -23.0178  -10.3260   20.9876 C   0  0  0  0  0  0  0  0  0  0  0  0
  -22.8144   -7.5448   21.0662 C   0  0  0  0  0  0  0  0  0  0  0  0
  -22.3603   -9.7045   22.0492 C   0  0  0  0  0  0  0  0  0  0  0  0
  -28.2460  -13.9377   20.9007 C   0  0  0  0  0  0  0  0  0  0  0  0
  -30.3562  -14.3868   20.4763 C   0  0  0  0  0  0  0  0  0  0  0  0
  -29.4444  -12.4612   19.1690 C   0  0  0  0  0  0  0  0  0  0  0  0
  -24.2183  -31.1071   22.9632 C   0  0  0  0  0  0  0  0  0  0  0  0
  -22.2762  -28.5092   23.0006 C   0  0  0  0  0  0  0  0  0  0  0  0
  -21.6974  -25.3095   21.9643 C   0  0  0  0  0  0  0  0  0  0  0  0
  -30.4058  -19.9415   22.6783 C   0  0  0  0  0  0  0  0  0  0  0  0
  -23.8344  -36.0780   24.0588 C   0  0  0  0  0  0  0  0  0  0  0  0
  -23.9758  -30.6245   20.5006 C   0  0  0  0  0  0  0  0  0  0  0  0
  -24.5869  -28.1771   22.0437 C   0  0  0  0  0  0  0  0  0  0  0  0
  -23.1163  -34.8046   24.4981 C   0  0  0  0  0  0  0  0  0  0  0  0
  -31.8929  -17.0569   24.1429 C   0  0  0  0  0  0  0  0  0  0  0  0
  -24.1260  -33.7292   24.8863 C   0  0  0  0  0  0  0  0  0  0  0  0
  -31.2309  -15.8924   23.4027 C   0  0  0  0  0  0  0  0  0  0  0  0
  -30.9150  -18.2059   24.3823 C   0  0  0  0  0  0  0  0  0  0  0  0
  -29.5575  -17.5248   22.4426 C   0  0  0  0  0  0  0  0  0  0  0  0
  -25.0126  -33.3488   23.6943 C   0  0  1  0  0  0  0  0  0  0  0  0
  -23.4208  -30.4003   21.9038 C   0  0  1  0  0  0  0  0  0  0  0  0
  -30.5204  -16.3702   22.1211 C   0  0  2  0  0  0  0  0  0  0  0  0
  -20.0450  -23.4343   22.1898 C   0  0  0  0  0  0  0  0  0  0  0  0
  -23.3468  -27.9047   25.7931 C   0  0  0  0  0  0  0  0  0  0  0  0
  -22.4194  -25.5897   25.5718 C   0  0  0  0  0  0  0  0  0  0  0  0
  -20.8853  -27.5561   25.5216 C   0  0  0  0  0  0  0  0  0  0  0  0
  -29.2029  -25.3970   17.5408 C   0  0  0  0  0  0  0  0  0  0  0  0
  -31.2449  -26.2858   16.4286 C   0  0  0  0  0  0  0  0  0  0  0  0
  -32.3055  -28.4603   18.7414 C   0  0  0  0  0  0  0  0  0  0  0  0
  -21.1286  -25.3067   19.0599 C   0  0  0  0  0  0  0  0  0  0  0  0
  -31.3583  -24.0587   17.5344 C   0  0  0  0  0  0  0  0  0  0  0  0
  -31.1830  -26.1435   19.0035 C   0  0  0  0  0  0  0  0  0  0  0  0
  -29.7907  -28.3635   18.8947 C   0  0  0  0  0  0  0  0  0  1  0  0
  -22.3834  -27.1019   23.5363 C   0  0  1  0  0  0  0  0  0  0  0  0
  -20.4637  -24.6489   21.3759 C   0  0  2  0  0  0  0  0  0  0  0  0
  -22.2772  -27.0482   25.0865 C   0  0  0  0  0  0  0  0  0  0  0  0
  -30.7372  -25.4978   17.6494 C   0  0  0  0  0  0  0  0  0  0  0  0
  -31.1032  -27.6728   19.2792 C   0  0  2  0  0  0  0  0  0  0  0  0
  -28.5312  -14.9787   21.6874 N   0  0  0  0  0  0  0  0  0  0  0  0
  -29.8215  -15.2285   21.4068 N   0  0  0  0  0  0  0  0  0  0  0  0
  -23.3778  -28.9845   22.2751 N   0  0  0  0  0  0  0  0  0  0  0  0
  -30.2834  -18.6083   23.1237 N   0  0  0  0  0  0  0  0  0  0  0  0
  -31.6413  -14.4981   20.0780 N   0  0  0  0  0  0  0  0  0  0  0  0
  -28.3106  -11.6737   18.9267 N   0  0  0  0  0  0  0  0  0  0  0  0
  -29.7917  -20.1987   21.4530 N   0  0  0  0  0  0  0  0  0  0  0  0
  -24.2959  -32.4758   22.7896 N   0  0  0  0  0  0  0  0  0  0  0  0
  -21.3661  -26.3215   22.8403 N   0  0  0  0  0  0  0  0  0  0  0  0
  -31.2061  -27.7996   20.7946 N   0  3  0  0  0  0  0  0  0  0  0  0
  -20.7293  -24.2085   19.9772 N   0  3  0  0  0  0  0  0  0  0  0  0
  -30.5113  -12.2049   18.5611 O   0  0  0  0  0  0  0  0  0  0  0  0
  -24.7244  -30.4589   23.8716 O   0  0  0  0  0  0  0  0  0  0  0  0
  -21.2499  -29.1600   23.2117 O   0  0  0  0  0  0  0  0  0  0  0  0
  -22.8405  -24.9601   21.6785 O   0  0  0  0  0  0  0  0  0  0  0  0
  -31.0339  -20.7857   23.3222 O   0  0  0  0  0  0  0  0  0  0  0  0
  -23.1189  -11.7065   20.9466 O   0  0  0  0  0  0  0  0  0  0  0  0
  -28.6726  -27.6395   19.3908 O   0  0  0  0  0  0  0  0  0  1  0  0
  -22.7155   -6.2095   21.1031 F   0  0  0  0  0  0  0  0  0  0  0  0
  -21.8234  -10.4382   23.0337 F   0  0  0  0  0  0  0  0  0  0  0  0
  1  2  1  0  0  0  0
  1  5  2  0  0  0  0
  2  6  2  0  0  0  0
  3 12  2  0  0  0  0
  3 19  1  0  0  0  0
  4 13  1  0  0  0  0
  4 19  2  0  0  0  0
  5 21  1  0  0  0  0
  6 23  1  0  0  0  0
  7 14  2  0  0  0  0
  7 22  1  0  0  0  0
  8 10  2  0  0  0  0
  8 25  1  0  0  0  0
  9 11  1  0  0  0  0
  9 25  2  0  0  0  0
 10 26  1  0  0  0  0
 11 26  2  0  0  0  0
 12 27  1  0  0  0  0
 13 27  2  0  0  0  0
 14 28  1  0  0  0  0
 15 16  2  0  0  0  0
 15 29  1  0  0  0  0
 16 30  1  0  0  0  0
 17 24  1  0  0  0  0
 17 28  2  0  0  0  0
 18 30  2  0  0  0  0
 18 31  1  0  0  0  0
 19 32  1  0  0  0  0
 20 32  1  0  0  0  0
 20 33  2  0  0  0  0
 20 34  1  0  0  0  0
 21 23  2  0  0  0  0
 21 39  1  0  0  0  0
 22 24  2  0  0  0  0
 22 40  1  0  0  0  0
 23 48  1  0  0  0  0
 24 41  1  0  0  0  0
 25 59  1  0  0  0  0
 26 73  1  0  0  0  0
 27 83  1  0  0  0  0
 28 84  1  0  0  0  0
 29 31  2  0  0  0  0
 29 83  1  0  0  0  0
 30 85  1  0  0  0  0
 31 86  1  0  0  0  0
 32 67  2  0  0  0  0
 33 68  1  0  0  0  0
 33 71  1  0  0  0  0
 34 72  1  0  0  0  0
 34 78  2  0  0  0  0
 35 49  1  0  0  0  0
 35 74  1  0  0  0  0
 35 79  2  0  0  0  0
 36 62  1  0  0  0  0
 36 69  1  0  0  0  0
 36 80  2  0  0  0  0
 37 63  1  0  0  0  0
 37 75  1  0  0  0  0
 37 81  2  0  0  0  0
 38 70  1  0  0  0  0
 38 73  1  0  0  0  0
 38 82  2  0  0  0  0
 39 42  1  0  0  0  0
 40 49  1  0  0  0  0
 41 69  1  0  0  0  0
 42 44  1  0  0  0  0
 43 45  1  0  0  0  0
 43 46  1  0  0  0  0
 44 48  1  0  0  0  0
 45 50  1  0  0  0  0
 46 70  1  0  0  0  0
 47 50  1  0  0  0  0
 47 70  1  0  0  0  0
 48 74  1  0  0  0  0
 49 69  1  0  0  0  0
 50 68  1  0  0  0  0
 51 63  1  0  0  0  0
 52 64  1  0  0  0  0
 53 64  1  0  0  0  0
 54 64  1  0  0  0  0
 55 65  1  0  0  0  0
 56 65  1  0  0  0  0
 57 66  1  0  0  0  0
 58 77  1  0  0  0  0
 59 65  1  0  0  0  0
 60 65  1  0  0  0  0
 60 66  1  0  0  0  0
 61 66  1  0  0  0  0
 61 84  1  0  0  0  0
 62 64  1  0  0  0  0
 62 75  1  0  0  0  0
 63 77  1  0  0  0  0
 66 76  1  0  0  0  0
 67 68  1  0  0  0  0
M  CHG  2  76   1  77   1
M  ISO  4  38 100  61 101  73 100  84 101
M  END
> <Batch ID>
0140

> <Smiles>
CNC(C)C(=O)NC(C(=O)N1Cc2cc([101O:1][101CH2:1]C(C)(N)CC(C)(C)Cc3ccc([100NH:0][100C:0](=O)N4CCCC(n5nc(-c6ccc(Oc7ccc(F)cc7F)cc6)c(C(N)=O)c5N)C4)cc3)ccc2CC1C(=O)NC1CCCc2ccccc21)C(C)(C)C

> <Shape>
0.335

> <Color>
0.072

> <Negative vol penalty>
0.000

$$$$

  -OEChem-04052302513D

 84 92  0     1  0  0  0  0  0999 V2000
  -30.4733  -24.1755   17.8206 C   0  0  0  0  0  0  0  0  0  0  0  0
  -29.2219  -24.1757   18.4285 C   0  0  0  0  0  0  0  0  0  0  0  0
  -27.7870  -14.2410   22.2077 C   0  0  0  0  0  0  0  0  0  0  0  0
  -26.2116  -15.3048   20.7167 C   0  0  0  0  0  0  0  0  0  0  0  0
  -21.4825  -22.9797   22.3010 C   0  0  0  0  0  0  0  0  0  0  0  0
  -21.2226  -23.4952   24.6470 C   0  0  0  0  0  0  0  0  0  0  0  0
  -31.4858  -24.9985   18.3118 C   0  0  0  0  0  0  0  0  0  0  0  0
  -28.9827  -24.9983   19.5288 C   0  0  0  0  0  0  0  0  0  0  0  0
  -24.5495  -27.4256   19.2122 C   0  0  0  0  0  0  0  0  0  0  0  0
  -22.7337  -22.4214   22.5623 C   0  0  0  0  0  0  0  0  0  0  0  0
  -22.4739  -22.9369   24.9083 C   0  0  0  0  0  0  0  0  0  0  0  0
  -27.2689  -12.9923   21.8643 C   0  0  0  0  0  0  0  0  0  0  0  0
  -25.6935  -14.0561   20.3732 C   0  0  0  0  0  0  0  0  0  0  0  0
  -23.4011  -26.6963   19.5169 C   0  0  0  0  0  0  0  0  0  0  0  0
  -24.5715  -11.1135   22.6503 C   0  0  0  0  0  0  0  0  0  0  0  0
  -24.3224  -10.2096   23.6831 C   0  0  0  0  0  0  0  0  0  0  0  0
  -23.3644  -27.6848   21.7171 C   0  0  0  0  0  0  0  0  0  0  0  0
  -25.8699   -8.6446   22.6867 C   0  0  0  0  0  0  0  0  0  0  0  0
  -27.2583  -15.3973   21.6340 C   0  0  0  0  0  0  0  0  0  0  0  0
  -20.7269  -23.5167   23.3434 C   0  0  0  0  0  0  0  0  0  0  0  0
  -28.8499  -17.3719   21.3598 C   0  0  0  0  0  0  0  0  0  0  0  0
  -31.2560  -25.8388   19.4126 C   0  0  0  0  0  0  0  0  0  0  0  0
  -25.1212  -28.2833   20.1630 C   0  0  0  0  0  0  0  0  0  0  0  0
  -29.9935  -25.8324   20.0360 C   0  0  0  0  0  0  0  0  0  0  0  0
  -24.5186  -28.4259   21.4211 C   0  0  0  0  0  0  0  0  0  0  0  0
  -23.2294  -22.4000   23.8659 C   0  0  0  0  0  0  0  0  0  0  0  0
  -26.2222  -12.8999   20.9470 C   0  0  0  0  0  0  0  0  0  0  0  0
  -22.8100  -26.8236   20.7705 C   0  0  0  0  0  0  0  0  0  0  0  0
  -25.4697  -10.7828   21.6356 C   0  0  0  0  0  0  0  0  0  0  0  0
  -24.9716   -8.9752   23.7013 C   0  0  0  0  0  0  0  0  0  0  0  0
  -26.1190   -9.5484   21.6538 C   0  0  0  0  0  0  0  0  0  0  0  0
  -27.7927  -16.6875   21.9888 C   0  0  0  0  0  0  0  0  0  0  0  0
  -28.9698  -18.5431   22.0673 C   0  0  0  0  0  0  0  0  0  0  0  0
  -19.3937  -24.1118   23.0650 C   0  0  0  0  0  0  0  0  0  0  0  0
  -29.6518  -16.9839   20.2363 C   0  0  0  0  0  0  0  0  0  0  0  0
  -27.9200  -28.4218   21.6635 C   0  0  0  0  0  0  0  0  0  0  0  0
  -26.7375  -31.2253   22.7879 C   0  0  0  0  0  0  0  0  0  0  0  0
  -24.0023  -33.1350   23.5080 C   0  0  0  0  0  0  0  0  0  0  0  0
  -25.1399  -21.7304   25.3653 C   0  0  0  0  0  0  0  0  0  0  0  0
  -32.3955  -26.6760   19.9372 C   0  0  0  0  0  0  0  0  0  0  0  0
  -26.3449  -29.0833   19.8095 C   0  0  0  0  0  0  0  0  0  0  0  0
  -25.0815  -29.3486   22.4700 C   0  0  0  0  0  0  0  0  0  0  0  0
  -31.9482  -27.7948   20.8746 C   0  0  0  0  0  0  0  0  0  0  0  0
  -28.2511  -20.3695   26.4356 C   0  0  0  0  0  0  0  0  0  0  0  0
  -30.9512  -27.2651   21.9004 C   0  0  0  0  0  0  0  0  0  0  0  0
  -28.5858  -19.3374   25.3562 C   0  0  0  0  0  0  0  0  0  0  0  0
  -26.7524  -20.4191   26.7274 C   0  0  0  0  0  0  0  0  0  0  0  0
  -26.2313  -19.5801   24.4705 C   0  0  0  0  0  0  0  0  0  0  0  0
  -29.6879  -26.7291   21.2161 C   0  0  1  0  0  0  0  0  0  0  0  0
  -27.1358  -29.5374   21.0324 C   0  0  1  0  0  0  0  0  0  0  0  0
  -27.7219  -19.5396   24.0959 C   0  0  2  0  0  0  0  0  0  0  0  0
  -23.3514  -35.3670   24.4525 C   0  0  0  0  0  0  0  0  0  0  0  0
  -27.3466  -30.2102   25.6000 C   0  0  0  0  0  0  0  0  0  0  0  0
  -25.8456  -32.0021   26.4967 C   0  0  0  0  0  0  0  0  0  0  0  0
  -27.8970  -32.6198   25.2188 C   0  0  0  0  0  0  0  0  0  0  0  0
  -18.9807  -26.7788   20.2446 C   0  0  0  0  0  0  0  0  0  0  0  0
  -18.3828  -27.0294   22.6542 C   0  0  0  0  0  0  0  0  0  0  0  0
  -22.6812  -33.9466   20.9871 C   0  0  0  0  0  0  0  0  0  0  0  0
  -19.1027  -24.7653   21.7161 C   0  0  0  0  0  0  0  0  0  0  0  0
  -20.7784  -26.6974   22.0004 C   0  0  0  0  0  0  0  0  0  1  0  0
  -25.9196  -31.6358   23.9885 C   0  0  1  0  0  0  0  0  0  0  0  0
  -23.6721  -34.5822   23.1900 C   0  0  2  0  0  0  0  0  0  0  0  0
  -26.7425  -31.5980   25.3071 C   0  0  0  0  0  0  0  0  0  0  0  0
  -19.3217  -26.3029   21.6747 C   0  0  0  0  0  0  0  0  0  0  0  0
  -27.2778  -17.3671   23.0169 N   0  0  0  0  0  0  0  0  0  0  0  0
  -18.4799  -24.0844   23.9838 N   0  0  0  0  0  0  0  0  0  0  0  0
  -28.0146  -18.4907   23.0394 N   0  0  0  0  0  0  0  0  0  0  0  0
  -26.2827  -30.1046   22.0786 N   0  0  0  0  0  0  0  0  0  0  0  0
  -25.9980  -20.6171   25.4879 N   0  0  0  0  0  0  0  0  0  0  0  0
  -29.7982  -19.6021   21.9465 N   0  0  0  0  0  0  0  0  0  0  0  0
  -29.3949  -15.7480   19.6272 N   0  0  0  0  0  0  0  0  0  0  0  0
  -24.5005  -21.8324   24.1302 N   0  0  0  0  0  0  0  0  0  0  0  0
  -28.8290  -27.8219   20.8130 N   0  0  0  0  0  0  0  0  0  0  0  0
  -25.3581  -32.9445   23.6718 N   0  0  0  0  0  0  0  0  0  0  0  0
  -22.4954  -34.6568   22.2786 N   0  3  0  0  0  0  0  0  0  0  0  0
  -30.5797  -17.7042   19.7962 O   0  0  0  0  0  0  0  0  0  0  0  0
  -27.7165  -28.1281   22.8357 O   0  0  0  0  0  0  0  0  0  0  0  0
  -27.7389  -31.8794   22.4861 O   0  0  0  0  0  0  0  0  0  0  0  0
  -23.1430  -32.2616   23.6054 O   0  0  0  0  0  0  0  0  0  0  0  0
  -25.0045  -22.5491   26.2783 O   0  0  0  0  0  0  0  0  0  0  0  0
  -25.7165  -11.6816   20.6114 O   0  0  0  0  0  0  0  0  0  0  0  0
  -21.6894  -26.1123   21.0708 O   0  0  0  0  0  0  0  0  0  1  0  0
  -24.7335   -8.1080   24.6940 F   0  0  0  0  0  0  0  0  0  0  0  0
  -26.9839   -9.2257   20.6825 F   0  0  0  0  0  0  0  0  0  0  0  0
  1  2  1  0  0  0  0
  1  7  2  0  0  0  0
  2  8  2  0  0  0  0
  3 12  2  0  0  0  0
  3 19  1  0  0  0  0
  4 13  1  0  0  0  0
  4 19  2  0  0  0  0
  5 10  2  0  0  0  0
  5 20  1  0  0  0  0
  6 11  1  0  0  0  0
  6 20  2  0  0  0  0
  7 22  1  0  0  0  0
  8 24  1  0  0  0  0
  9 14  2  0  0  0  0
  9 23  1  0  0  0  0
 10 26  1  0  0  0  0
 11 26  2  0  0  0  0
 12 27  1  0  0  0  0
 13 27  2  0  0  0  0
 14 28  1  0  0  0  0
 15 16  2  0  0  0  0
 15 29  1  0  0  0  0
 16 30  1  0  0  0  0
 17 25  1  0  0  0  0
 17 28  2  0  0  0  0
 18 30  2  0  0  0  0
 18 31  1  0  0  0  0
 19 32  1  0  0  0  0
 20 34  1  0  0  0  0
 21 32  1  0  0  0  0
 21 33  2  0  0  0  0
 21 35  1  0  0  0  0
 22 24  2  0  0  0  0
 22 40  1  0  0  0  0
 23 25  2  0  0  0  0
 23 41  1  0  0  0  0
 24 49  1  0  0  0  0
 25 42  1  0  0  0  0
 26 72  1  0  0  0  0
 27 81  1  0  0  0  0
 28 82  1  0  0  0  0
 29 31  2  0  0  0  0
 29 81  1  0  0  0  0
 30 83  1  0  0  0  0
 31 84  1  0  0  0  0
 32 65  2  0  0  0  0
 33 67  1  0  0  0  0
 33 70  1  0  0  0  0
 34 59  1  0  0  0  0
 34 66  2  0  0  0  0
 35 71  1  0  0  0  0
 35 76  2  0  0  0  0
 36 50  1  0  0  0  0
 36 73  1  0  0  0  0
 36 77  2  0  0  0  0
 37 61  1  0  0  0  0
 37 68  1  0  0  0  0
 37 78  2  0  0  0  0
 38 62  1  0  0  0  0
 38 74  1  0  0  0  0
 38 79  2  0  0  0  0
 39 69  1  0  0  0  0
 39 72  1  0  0  0  0
 39 80  2  0  0  0  0
 40 43  1  0  0  0  0
 41 50  1  0  0  0  0
 42 68  1  0  0  0  0
 43 45  1  0  0  0  0
 44 46  1  0  0  0  0
 44 47  1  0  0  0  0
 45 49  1  0  0  0  0
 46 51  1  0  0  0  0
 47 69  1  0  0  0  0
 48 51  1  0  0  0  0
 48 69  1  0  0  0  0
 49 73  1  0  0  0  0
 50 68  1  0  0  0  0
 51 67  1  0  0  0  0
 52 62  1  0  0  0  0
 53 63  1  0  0  0  0
 54 63  1  0  0  0  0
 55 63  1  0  0  0  0
 56 64  1  0  0  0  0
 57 64  1  0  0  0  0
 58 75  1  0  0  0  0
 59 64  1  0  0  0  0
 60 64  1  0  0  0  0
 60 82  1  0  0  0  0
 61 63  1  0  0  0  0
 61 74  1  0  0  0  0
 62 75  1  0  0  0  0
 65 67  1  0  0  0  0
M  CHG  1  75   1
M  ISO  4  39 100  60 101  72 100  82 101
M  END
> <Batch ID>
0140

> <Smiles>
CNC(C)C(=O)NC(C(=O)N1Cc2cc([101O:1][101CH2:1]C(C)(C)CC(=N)c3ccc([100NH:0][100C:0](=O)N4CCCC(n5nc(-c6ccc(Oc7ccc(F)cc7F)cc6)c(C(N)=O)c5N)C4)cc3)ccc2CC1C(=O)NC1CCCc2ccccc21)C(C)(C)C

> <Shape>
0.260

> <Color>
0.077

> <Negative vol penalty>
0.000

$$$$

  -OEChem-04052302513D

 83 91  0     1  0  0  0  0  0999 V2000
  -20.6347  -33.8594   24.6252 C   0  0  0  0  0  0  0  0  0  0  0  0
  -21.8899  -33.4107   24.2271 C   0  0  0  0  0  0  0  0  0  0  0  0
  -25.1135  -12.8665   21.8549 C   0  0  0  0  0  0  0  0  0  0  0  0
  -26.4611  -12.5982   19.8676 C   0  0  0  0  0  0  0  0  0  0  0  0
  -19.5943  -32.9485   24.8034 C   0  0  0  0  0  0  0  0  0  0  0  0
  -22.1058  -32.0506   24.0080 C   0  0  0  0  0  0  0  0  0  0  0  0
  -25.7850  -29.5370   19.8067 C   0  0  0  0  0  0  0  0  0  0  0  0
  -24.8263  -11.5016   21.8444 C   0  0  0  0  0  0  0  0  0  0  0  0
  -26.1739  -11.2333   19.8572 C   0  0  0  0  0  0  0  0  0  0  0  0
  -27.0804  -29.0266   19.8792 C   0  0  0  0  0  0  0  0  0  0  0  0
  -22.7607   -9.4039   20.1839 C   0  0  0  0  0  0  0  0  0  0  0  0
  -21.4375   -9.0191   20.3998 C   0  0  0  0  0  0  0  0  0  0  0  0
  -26.1828  -26.8049   20.1584 C   0  0  0  0  0  0  0  0  0  0  0  0
  -29.6252  -23.1191   17.6692 C   0  0  0  0  0  0  0  0  0  0  0  0
  -22.1201   -7.7655   22.3490 C   0  0  0  0  0  0  0  0  0  0  0  0
  -25.9308  -13.4148   20.8664 C   0  0  0  0  0  0  0  0  0  0  0  0
  -27.3046  -15.4624   21.5205 C   0  0  0  0  0  0  0  0  0  0  0  0
  -19.7949  -31.5777   24.5770 C   0  0  0  0  0  0  0  0  0  0  0  0
  -24.6769  -28.6852   19.9207 C   0  0  0  0  0  0  0  0  0  0  0  0
  -21.0675  -31.1204   24.1846 C   0  0  0  0  0  0  0  0  0  0  0  0
  -24.8745  -27.3067   20.0845 C   0  0  0  0  0  0  0  0  0  0  0  0
  -29.2660  -21.8435   17.1457 C   0  0  0  0  0  0  0  0  0  0  0  0
  -25.3565  -10.6849   20.8456 C   0  0  0  0  0  0  0  0  0  0  0  0
  -27.2794  -27.6607   20.0580 C   0  0  0  0  0  0  0  0  0  0  0  0
  -23.7636   -8.9694   21.0505 C   0  0  0  0  0  0  0  0  0  0  0  0
  -21.1172   -8.2000   21.4824 C   0  0  0  0  0  0  0  0  0  0  0  0
  -23.4434   -8.1503   22.1330 C   0  0  0  0  0  0  0  0  0  0  0  0
  -26.2274  -14.8248   20.8764 C   0  0  0  0  0  0  0  0  0  0  0  0
  -28.1244  -21.9024   16.3771 C   0  0  0  0  0  0  0  0  0  0  0  0
  -27.1398  -16.7943   21.2280 C   0  0  0  0  0  0  0  0  0  0  0  0
  -28.7444  -24.1045   17.2806 C   0  0  0  0  0  0  0  0  0  0  0  0
  -28.3598  -14.9010   22.3124 C   0  0  0  0  0  0  0  0  0  0  0  0
  -22.2519  -28.4196   21.9584 C   0  0  0  0  0  0  0  0  0  0  0  0
  -21.2253  -26.1876   19.8402 C   0  0  0  0  0  0  0  0  0  0  0  0
  -22.0028  -23.9560   17.3782 C   0  0  0  0  0  0  0  0  0  0  0  0
  -25.3692  -20.2396   16.9258 C   0  0  0  0  0  0  0  0  0  0  0  0
  -18.6526  -30.6255   24.8284 C   0  0  0  0  0  0  0  0  0  0  0  0
  -23.2861  -29.2480   19.8136 C   0  0  0  0  0  0  0  0  0  0  0  0
  -23.7185  -26.3472   20.1920 C   0  0  0  0  0  0  0  0  0  0  0  0
  -18.8639  -29.2447   24.2129 C   0  0  0  0  0  0  0  0  0  0  0  0
  -23.3353  -19.5982   19.7769 C   0  0  0  0  0  0  0  0  0  0  0  0
  -20.2685  -28.7337   24.5177 C   0  0  0  0  0  0  0  0  0  0  0  0
  -23.9739  -18.3612   20.4109 C   0  0  0  0  0  0  0  0  0  0  0  0
  -23.3953  -19.5454   18.2519 C   0  0  0  0  0  0  0  0  0  0  0  0
  -25.3804  -18.0868   18.3264 C   0  0  0  0  0  0  0  0  0  0  0  0
  -21.3342  -29.6557   23.9131 C   0  0  1  0  0  0  0  0  0  0  0  0
  -22.2293  -28.3557   20.4574 C   0  0  1  0  0  0  0  0  0  0  0  0
  -25.3939  -18.1207   19.8643 C   0  0  2  0  0  0  0  0  0  0  0  0
  -31.3164  -20.5209   16.5684 C   0  0  0  0  0  0  0  0  0  0  0  0
  -20.9574  -22.2489   15.8648 C   0  0  0  0  0  0  0  0  0  0  0  0
  -30.5720  -28.2046   19.4520 C   0  0  0  0  0  0  0  0  0  0  0  0
  -21.0205  -24.2414   22.1812 C   0  0  0  0  0  0  0  0  0  0  0  0
  -20.9079  -22.3684   20.5237 C   0  0  0  0  0  0  0  0  0  0  0  0
  -19.1278  -24.1157   20.5514 C   0  0  0  0  0  0  0  0  0  0  0  0
  -22.8393  -25.4264   14.9498 C   0  0  0  0  0  0  0  0  0  0  0  0
  -30.0383  -20.6051   17.4052 C   0  0  0  0  0  0  0  0  0  0  0  0
  -27.4279  -20.8089   15.6621 C   0  0  0  0  0  0  0  0  0  0  0  0
  -29.8449  -26.0140   18.4503 C   0  0  0  0  0  0  0  0  0  0  0  0
  -21.4252  -24.7007   19.6730 C   0  0  1  0  0  0  0  0  0  0  0  0
  -21.3817  -23.7013   16.0166 C   0  0  2  0  0  0  0  0  0  0  0  0
  -29.3875  -27.3640   18.9979 C   0  0  1  0  0  0  0  0  0  1  0  0
  -20.6424  -23.8746   20.7323 C   0  0  0  0  0  0  0  0  0  0  0  0
  -25.4367  -15.6812   20.2240 N   0  0  0  0  0  0  0  0  0  0  0  0
  -26.0175  -16.8705   20.4568 N   0  0  0  0  0  0  0  0  0  0  0  0
  -22.3779  -26.9466   20.0878 N   0  0  0  0  0  0  0  0  0  0  0  0
  -24.7693  -19.3166   17.7984 N   0  0  0  0  0  0  0  0  0  0  0  0
  -27.8469  -17.8959   21.5579 N   0  0  0  0  0  0  0  0  0  0  0  0
  -28.3788  -13.5141   22.5134 N   0  0  0  0  0  0  0  0  0  0  0  0
  -28.8092  -25.4462   17.6172 N   0  0  0  0  0  0  0  0  0  0  0  0
  -21.4597  -29.4188   22.4910 N   0  0  0  0  0  0  0  0  0  0  0  0
  -21.0679  -24.3935   18.2923 N   0  0  0  0  0  0  0  0  0  0  0  0
  -26.6754  -19.9508   16.5500 N   0  0  0  0  0  0  0  0  0  0  0  0
  -22.3554  -24.0219   14.9349 N   0  3  0  0  0  0  0  0  0  0  0  0
  -29.2498  -15.6101   22.8401 O   0  0  0  0  0  0  0  0  0  0  0  0
  -22.9361  -27.6206   22.5870 O   0  0  0  0  0  0  0  0  0  0  0  0
  -20.0893  -26.6593   19.7474 O   0  0  0  0  0  0  0  0  0  0  0  0
  -23.1972  -23.7804   17.6088 O   0  0  0  0  0  0  0  0  0  0  0  0
  -24.7859  -21.2491   16.5165 O   0  0  0  0  0  0  0  0  0  0  0  0
  -25.0767   -9.3530   20.8352 O   0  0  0  0  0  0  0  0  0  0  0  0
  -28.5428  -27.1600   20.1297 O   0  0  0  0  0  0  0  0  0  1  0  0
  -19.8462   -7.8318   21.6905 F   0  0  0  0  0  0  0  0  0  0  0  0
  -24.4024   -7.7307   22.9697 F   0  0  0  0  0  0  0  0  0  0  0  0
  -27.4905  -23.4908   16.2889 S   0  0  0  0  0  0  0  0  0  0  0  0
  1  2  1  0  0  0  0
  1  5  2  0  0  0  0
  2  6  2  0  0  0  0
  3  8  2  0  0  0  0
  3 16  1  0  0  0  0
  4  9  1  0  0  0  0
  4 16  2  0  0  0  0
  5 18  1  0  0  0  0
  6 20  1  0  0  0  0
  7 10  2  0  0  0  0
  7 19  1  0  0  0  0
  8 23  1  0  0  0  0
  9 23  2  0  0  0  0
 10 24  1  0  0  0  0
 11 12  2  0  0  0  0
 11 25  1  0  0  0  0
 12 26  1  0  0  0  0
 13 21  1  0  0  0  0
 13 24  2  0  0  0  0
 14 22  1  0  0  0  0
 14 31  2  0  0  0  0
 15 26  2  0  0  0  0
 15 27  1  0  0  0  0
 16 28  1  0  0  0  0
 17 28  1  0  0  0  0
 17 30  2  0  0  0  0
 17 32  1  0  0  0  0
 18 20  2  0  0  0  0
 18 37  1  0  0  0  0
 19 21  2  0  0  0  0
 19 38  1  0  0  0  0
 20 46  1  0  0  0  0
 21 39  1  0  0  0  0
 22 29  2  0  0  0  0
 22 56  1  0  0  0  0
 23 79  1  0  0  0  0
 24 80  1  0  0  0  0
 25 27  2  0  0  0  0
 25 79  1  0  0  0  0
 26 81  1  0  0  0  0
 27 82  1  0  0  0  0
 28 63  2  0  0  0  0
 29 57  1  0  0  0  0
 29 83  1  0  0  0  0
 30 64  1  0  0  0  0
 30 67  1  0  0  0  0
 31 69  1  0  0  0  0
 31 83  1  0  0  0  0
 32 68  1  0  0  0  0
 32 74  2  0  0  0  0
 33 47  1  0  0  0  0
 33 70  1  0  0  0  0
 33 75  2  0  0  0  0
 34 59  1  0  0  0  0
 34 65  1  0  0  0  0
 34 76  2  0  0  0  0
 35 60  1  0  0  0  0
 35 71  1  0  0  0  0
 35 77  2  0  0  0  0
 36 66  1  0  0  0  0
 36 72  1  0  0  0  0
 36 78  2  0  0  0  0
 37 40  1  0  0  0  0
 38 47  1  0  0  0  0
 39 65  1  0  0  0  0
 40 42  1  0  0  0  0
 41 43  1  0  0  0  0
 41 44  1  0  0  0  0
 42 46  1  0  0  0  0
 43 48  1  0  0  0  0
 44 66  1  0  0  0  0
 45 48  1  0  0  0  0
 45 66  1  0  0  0  0
 46 70  1  0  0  0  0
 47 65  1  0  0  0  0
 48 64  1  0  0  0  0
 49 56  1  0  0  0  0
 50 60  1  0  0  0  0
 51 61  1  0  0  0  0
 52 62  1  0  0  0  0
 53 62  1  0  0  0  0
 54 62  1  0  0  0  0
 55 73  1  0  0  0  0
 57 72  1  0  0  0  0
 58 61  1  0  0  0  0
 58 69  1  0  0  0  0
 59 62  1  0  0  0  0
 59 71  1  0  0  0  0
 60 73  1  0  0  0  0
 61 80  1  0  0  0  0
 63 64  1  0  0  0  0
M  CHG  1  73   1
M  ISO  4  36 100  61 101  72 100  80 101
M  END
> <Batch ID>
0140

> <Smiles>
CCc1cc(NC[101CH:1](C)[101O:1]c2ccc3c(c2)CN(C(=O)C(NC(=O)C(C)NC)C(C)(C)C)C(C(=O)NC2CCCc4ccccc42)C3)sc1C[100NH:0][100C:0](=O)N1CCCC(n2nc(-c3ccc(Oc4ccc(F)cc4F)cc3)c(C(N)=O)c2N)C1

> <Shape>
0.207

> <Color>
0.089

> <Negative vol penalty>
0.000

$$$$

  -OEChem-04052302513D

 89 98  0     1  0  0  0  0  0999 V2000
  -30.7811  -28.3035   17.2213 C   0  0  0  0  0  0  0  0  0  0  0  0
  -30.3764  -27.2916   18.0860 C   0  0  0  0  0  0  0  0  0  0  0  0
  -23.0740   -9.8691   19.9409 C   0  0  0  0  0  0  0  0  0  0  0  0
  -23.8315   -9.8770   22.2350 C   0  0  0  0  0  0  0  0  0  0  0  0
  -32.1391  -28.5586   17.0356 C   0  0  0  0  0  0  0  0  0  0  0  0
  -31.3298  -26.5334   18.7647 C   0  0  0  0  0  0  0  0  0  0  0  0
  -30.1723  -25.8793   23.6512 C   0  0  0  0  0  0  0  0  0  0  0  0
  -22.3293   -8.7165   20.1907 C   0  0  0  0  0  0  0  0  0  0  0  0
  -23.0867   -8.7244   22.4849 C   0  0  0  0  0  0  0  0  0  0  0  0
  -29.2056  -24.9214   23.9538 C   0  0  0  0  0  0  0  0  0  0  0  0
  -19.3790   -7.9224   21.6393 C   0  0  0  0  0  0  0  0  0  0  0  0
  -18.0726   -7.8766   21.1527 C   0  0  0  0  0  0  0  0  0  0  0  0
  -30.5917  -19.8669   21.5008 C   0  0  0  0  0  0  0  0  0  0  0  0
  -29.5194  -17.8851   22.3724 C   0  0  0  0  0  0  0  0  0  0  0  0
  -30.9467  -23.3577   24.5387 C   0  0  0  0  0  0  0  0  0  0  0  0
  -31.1539  -17.6953   20.6034 C   0  0  0  0  0  0  0  0  0  0  0  0
  -18.6327   -5.9325   19.8321 C   0  0  0  0  0  0  0  0  0  0  0  0
  -23.8252  -10.4493   20.9630 C   0  0  0  0  0  0  0  0  0  0  0  0
  -29.6894  -19.2695   22.3809 C   0  0  0  0  0  0  0  0  0  0  0  0
  -24.1686  -12.9742   20.8420 C   0  0  0  0  0  0  0  0  0  0  0  0
  -33.1094  -27.8095   17.7197 C   0  0  0  0  0  0  0  0  0  0  0  0
  -31.5361  -25.5795   23.7798 C   0  0  0  0  0  0  0  0  0  0  0  0
  -32.7022  -26.7778   18.5869 C   0  0  0  0  0  0  0  0  0  0  0  0
  -31.9288  -24.3143   24.2396 C   0  0  0  0  0  0  0  0  0  0  0  0
  -31.3239  -19.0798   20.6119 C   0  0  0  0  0  0  0  0  0  0  0  0
  -30.2517  -17.0980   21.4836 C   0  0  0  0  0  0  0  0  0  0  0  0
  -22.3356   -8.1442   21.4627 C   0  0  0  0  0  0  0  0  0  0  0  0
  -29.5927  -23.6595   24.3949 C   0  0  0  0  0  0  0  0  0  0  0  0
  -20.3123   -6.9733   21.2222 C   0  0  0  0  0  0  0  0  0  0  0  0
  -17.6994   -6.8816   20.2491 C   0  0  0  0  0  0  0  0  0  0  0  0
  -19.9391   -5.9783   20.3187 C   0  0  0  0  0  0  0  0  0  0  0  0
  -24.5952  -11.6396   20.7055 C   0  0  0  0  0  0  0  0  0  0  0  0
  -25.2615  -13.7229   20.4794 C   0  0  0  0  0  0  0  0  0  0  0  0
  -28.9163  -20.1015   23.3202 C   0  0  0  0  0  0  0  0  0  0  0  0
  -22.8979  -13.4910   21.2593 C   0  0  0  0  0  0  0  0  0  0  0  0
  -34.0014  -25.4426   21.7779 C   0  0  0  0  0  0  0  0  0  0  0  0
  -35.6891  -24.9602   24.5058 C   0  0  0  0  0  0  0  0  0  0  0  0
  -35.7087  -23.9123   27.7535 C   0  0  0  0  0  0  0  0  0  0  0  0
  -30.7281  -14.7656   20.6593 C   0  0  0  0  0  0  0  0  0  0  0  0
  -34.5665  -28.0906   17.4506 C   0  0  0  0  0  0  0  0  0  0  0  0
  -32.5660  -26.6325   23.4749 C   0  0  0  0  0  0  0  0  0  0  0  0
  -33.3795  -23.9490   24.4140 C   0  0  0  0  0  0  0  0  0  0  0  0
  -35.5056  -27.4898   18.4934 C   0  0  0  0  0  0  0  0  0  0  0  0
  -29.6148  -12.3511   18.2912 C   0  0  0  0  0  0  0  0  0  0  0  0
  -25.9384  -21.2369   21.6011 C   0  0  0  0  0  0  0  0  0  0  0  0
  -35.1240  -26.0418   18.7841 C   0  0  0  0  0  0  0  0  0  0  0  0
  -28.1746  -12.0605   18.7194 C   0  0  0  0  0  0  0  0  0  0  0  0
  -25.5294  -21.3380   23.0668 C   0  0  0  0  0  0  0  0  0  0  0  0
  -27.1495  -20.3130   21.6261 C   0  0  0  0  0  0  0  0  0  0  0  0
  -30.5288  -12.5800   19.4937 C   0  0  0  0  0  0  0  0  0  0  0  0
  -28.6208  -13.3063   20.8726 C   0  0  0  0  0  0  0  0  0  0  0  0
  -33.7057  -25.9500   19.3601 C   0  0  1  0  0  0  0  0  0  0  0  0
  -33.9382  -26.0501   23.1507 C   0  0  1  0  0  0  0  0  0  0  0  0
  -27.6491  -13.1329   19.6938 C   0  0  2  0  0  0  0  0  0  0  0  0
  -26.8597  -21.3783   23.8249 C   0  0  2  0  0  0  0  0  0  0  0  0
  -36.0519  -20.6694   19.9473 C   0  0  0  0  0  0  0  0  0  0  0  0
  -37.2444  -23.6002   29.7135 C   0  0  0  0  0  0  0  0  0  0  0  0
  -36.8381  -22.4517   23.2030 C   0  0  0  0  0  0  0  0  0  0  0  0
  -37.5812  -21.6982   25.4720 C   0  0  0  0  0  0  0  0  0  0  0  0
  -38.4938  -23.8060   24.4989 C   0  0  0  0  0  0  0  0  0  0  0  0
  -34.1716  -25.8232   29.4102 C   0  0  0  0  0  0  0  0  0  0  0  0
  -32.2894  -19.7185   19.6713 C   0  0  0  0  0  0  0  0  0  0  0  0
  -27.4234  -22.7843   23.9657 C   0  0  0  0  0  0  0  0  0  1  0  0
  -34.6726  -20.5241   19.3246 C   0  0  0  0  0  0  0  0  0  0  0  0
  -33.6974  -19.8331   20.2778 C   0  0  0  0  0  0  0  0  0  0  0  0
  -36.0995  -23.7498   25.3091 C   0  0  1  0  0  0  0  0  0  0  0  0
  -36.2784  -24.5421   29.0118 C   0  0  2  0  0  0  0  0  0  0  0  0
  -37.2258  -22.9324   24.6157 C   0  0  0  0  0  0  0  0  0  0  0  0
  -25.8605  -11.5429   20.2886 N   0  0  0  0  0  0  0  0  0  0  0  0
  -26.2382  -12.8262   20.1599 N   0  0  0  0  0  0  0  0  0  0  0  0
  -27.7395  -20.5760   22.9501 N   0  0  0  0  0  0  0  0  0  0  0  0
  -34.3489  -25.0107   24.0969 N   0  0  0  0  0  0  0  0  0  0  0  0
  -29.9695  -13.6116   20.3699 N   0  0  0  0  0  0  0  0  0  0  0  0
  -25.4727  -15.0542   20.4059 N   0  0  0  0  0  0  0  0  0  0  0  0
  -21.8851  -12.5826   21.5960 N   0  0  0  0  0  0  0  0  0  0  0  0
  -30.0804  -15.6914   21.4766 N   0  0  0  0  0  0  0  0  0  0  0  0
  -33.7026  -26.3255   20.7577 N   0  0  0  0  0  0  0  0  0  0  0  0
  -36.4490  -24.2409   26.6377 N   0  0  0  0  0  0  0  0  0  0  0  0
  -29.4140  -20.3603   24.5259 N   0  3  0  0  0  0  0  0  0  0  0  0
  -35.1823  -24.8844   29.9617 N   0  3  0  0  0  0  0  0  0  0  0  0
  -22.6623  -14.7218   21.3157 O   0  0  0  0  0  0  0  0  0  0  0  0
  -34.3005  -24.2608   21.6534 O   0  0  0  0  0  0  0  0  0  0  0  0
  -36.5251  -25.8324   24.2565 O   0  0  0  0  0  0  0  0  0  0  0  0
  -34.7093  -23.1970   27.7605 O   0  0  0  0  0  0  0  0  0  0  0  0
  -31.8578  -14.9334   20.1928 O   0  0  0  0  0  0  0  0  0  0  0  0
  -21.6087   -7.0196   21.7069 O   0  0  0  0  0  0  0  0  0  0  0  0
  -28.6512  -22.7224   24.6904 O   0  0  0  0  0  0  0  0  0  1  0  0
  -16.4444   -6.8369   19.7831 F   0  0  0  0  0  0  0  0  0  0  0  0
  -20.8310   -5.0630   19.9153 F   0  0  0  0  0  0  0  0  0  0  0  0
  1  2  1  0  0  0  0
  1  5  2  0  0  0  0
  2  6  2  0  0  0  0
  3  8  2  0  0  0  0
  3 18  1  0  0  0  0
  4  9  1  0  0  0  0
  4 18  2  0  0  0  0
  5 21  1  0  0  0  0
  6 23  1  0  0  0  0
  7 10  2  0  0  0  0
  7 22  1  0  0  0  0
  8 27  1  0  0  0  0
  9 27  2  0  0  0  0
 10 28  1  0  0  0  0
 11 12  2  0  0  0  0
 11 29  1  0  0  0  0
 12 30  1  0  0  0  0
 13 19  1  0  0  0  0
 13 25  2  0  0  0  0
 14 19  2  0  0  0  0
 14 26  1  0  0  0  0
 15 24  1  0  0  0  0
 15 28  2  0  0  0  0
 16 25  1  0  0  0  0
 16 26  2  0  0  0  0
 17 30  2  0  0  0  0
 17 31  1  0  0  0  0
 18 32  1  0  0  0  0
 19 34  1  0  0  0  0
 20 32  1  0  0  0  0
 20 33  2  0  0  0  0
 20 35  1  0  0  0  0
 21 23  2  0  0  0  0
 21 40  1  0  0  0  0
 22 24  2  0  0  0  0
 22 41  1  0  0  0  0
 23 52  1  0  0  0  0
 24 42  1  0  0  0  0
 25 62  1  0  0  0  0
 26 76  1  0  0  0  0
 27 86  1  0  0  0  0
 28 87  1  0  0  0  0
 29 31  2  0  0  0  0
 29 86  1  0  0  0  0
 30 88  1  0  0  0  0
 31 89  1  0  0  0  0
 32 69  2  0  0  0  0
 33 70  1  0  0  0  0
 33 74  1  0  0  0  0
 34 71  1  0  0  0  0
 34 79  2  0  0  0  0
 35 75  1  0  0  0  0
 35 81  2  0  0  0  0
 36 53  1  0  0  0  0
 36 77  1  0  0  0  0
 36 82  2  0  0  0  0
 37 66  1  0  0  0  0
 37 72  1  0  0  0  0
 37 83  2  0  0  0  0
 38 67  1  0  0  0  0
 38 78  1  0  0  0  0
 38 84  2  0  0  0  0
 39 73  1  0  0  0  0
 39 76  1  0  0  0  0
 39 85  2  0  0  0  0
 40 43  1  0  0  0  0
 41 53  1  0  0  0  0
 42 72  1  0  0  0  0
 43 46  1  0  0  0  0
 44 47  1  0  0  0  0
 44 50  1  0  0  0  0
 45 48  1  0  0  0  0
 45 49  1  0  0  0  0
 46 52  1  0  0  0  0
 47 54  1  0  0  0  0
 48 55  1  0  0  0  0
 49 71  1  0  0  0  0
 50 73  1  0  0  0  0
 51 54  1  0  0  0  0
 51 73  1  0  0  0  0
 52 77  1  0  0  0  0
 53 72  1  0  0  0  0
 54 70  1  0  0  0  0
 55 63  1  0  0  0  0
 55 71  1  0  0  0  0
 56 64  1  0  0  0  0
 57 67  1  0  0  0  0
 58 68  1  0  0  0  0
 59 68  1  0  0  0  0
 60 68  1  0  0  0  0
 61 80  1  0  0  0  0
 62 65  1  0  0  0  0
 63 87  1  0  0  0  0
 64 65  1  0  0  0  0
 66 68  1  0  0  0  0
 66 78  1  0  0  0  0
 67 80  1  0  0  0  0
 69 70  1  0  0  0  0
M  CHG  2  79   1  80   1
M  ISO  4  39 100  63 101  76 100  87 101
M  END
> <Batch ID>
0140

> <Smiles>
CCCCc1cc([100NH:0][100C:0](=O)N2CCCC(n3nc(-c4ccc(Oc5ccc(F)cc5F)cc4)c(C(N)=O)c3N)C2)cc(C(=N)N2CCCC2[101CH2:1][101O:1]c2ccc3c(c2)CN(C(=O)C(NC(=O)C(C)NC)C(C)(C)C)C(C(=O)NC2CCCc4ccccc42)C3)c1

> <Shape>
0.168

> <Color>
0.184

> <Negative vol penalty>
0.000

$$$$

  -OEChem-04052302513D

 85 93  0     1  0  0  0  0  0999 V2000
  -29.9770  -24.0220   18.7752 C   0  0  0  0  0  0  0  0  0  0  0  0
  -28.5960  -24.1880   18.7490 C   0  0  0  0  0  0  0  0  0  0  0  0
  -27.4471  -16.0375   20.9317 C   0  0  0  0  0  0  0  0  0  0  0  0
  -25.0625  -16.2142   20.5865 C   0  0  0  0  0  0  0  0  0  0  0  0
  -30.7248  -24.5752   19.8139 C   0  0  0  0  0  0  0  0  0  0  0  0
  -27.9618  -24.9063   19.7620 C   0  0  0  0  0  0  0  0  0  0  0  0
  -23.0320  -28.4957   19.1980 C   0  0  0  0  0  0  0  0  0  0  0  0
  -19.9526  -24.8121   25.1237 C   0  0  0  0  0  0  0  0  0  0  0  0
  -21.2456  -24.2903   25.0862 C   0  0  0  0  0  0  0  0  0  0  0  0
  -27.3633  -14.6513   20.8020 C   0  0  0  0  0  0  0  0  0  0  0  0
  -24.9786  -14.8279   20.4568 C   0  0  0  0  0  0  0  0  0  0  0  0
  -21.6785  -28.2771   19.4513 C   0  0  0  0  0  0  0  0  0  0  0  0
  -27.1048  -12.3949   18.2970 C   0  0  0  0  0  0  0  0  0  0  0  0
  -28.0565  -11.7597   17.4993 C   0  0  0  0  0  0  0  0  0  0  0  0
  -21.9316  -29.2763   21.6323 C   0  0  0  0  0  0  0  0  0  0  0  0
  -19.7175  -24.3997   22.7548 C   0  0  0  0  0  0  0  0  0  0  0  0
  -28.7838  -10.4601   19.4017 C   0  0  0  0  0  0  0  0  0  0  0  0
  -26.2967  -16.8190   20.8240 C   0  0  0  0  0  0  0  0  0  0  0  0
  -26.6005  -19.1896   19.9321 C   0  0  0  0  0  0  0  0  0  0  0  0
  -30.1005  -25.3089   20.8350 C   0  0  0  0  0  0  0  0  0  0  0  0
  -23.8491  -29.0975   20.1657 C   0  0  0  0  0  0  0  0  0  0  0  0
  -28.7018  -25.4686   20.8160 C   0  0  0  0  0  0  0  0  0  0  0  0
  -23.2945  -29.5039   21.3878 C   0  0  0  0  0  0  0  0  0  0  0  0
  -19.1885  -24.8668   23.9580 C   0  0  0  0  0  0  0  0  0  0  0  0
  -21.7746  -23.8232   23.8831 C   0  0  0  0  0  0  0  0  0  0  0  0
  -26.1290  -14.0464   20.5645 C   0  0  0  0  0  0  0  0  0  0  0  0
  -21.1288  -28.6648   20.6698 C   0  0  0  0  0  0  0  0  0  0  0  0
  -26.9927  -12.0628   19.6472 C   0  0  0  0  0  0  0  0  0  0  0  0
  -28.8960  -10.7923   18.0516 C   0  0  0  0  0  0  0  0  0  0  0  0
  -21.0106  -23.8780   22.7173 C   0  0  0  0  0  0  0  0  0  0  0  0
  -27.8321  -11.0954   20.1995 C   0  0  0  0  0  0  0  0  0  0  0  0
  -26.3826  -18.2510   20.9584 C   0  0  0  0  0  0  0  0  0  0  0  0
  -26.5971  -20.4050   20.5719 C   0  0  0  0  0  0  0  0  0  0  0  0
  -26.7890  -18.9815   18.5261 C   0  0  0  0  0  0  0  0  0  0  0  0
  -26.4147  -28.1948   21.8110 C   0  0  0  0  0  0  0  0  0  0  0  0
  -18.2067  -27.3349   22.3505 C   0  0  0  0  0  0  0  0  0  0  0  0
  -26.3625  -31.2735   22.8313 C   0  0  0  0  0  0  0  0  0  0  0  0
  -24.5519  -34.1143   23.3779 C   0  0  0  0  0  0  0  0  0  0  0  0
  -23.9778  -23.1691   24.9147 C   0  0  0  0  0  0  0  0  0  0  0  0
  -30.9453  -25.8478   21.9622 C   0  0  0  0  0  0  0  0  0  0  0  0
  -25.3013  -29.3506   19.8666 C   0  0  0  0  0  0  0  0  0  0  0  0
  -24.1245  -30.1723   22.4521 C   0  0  0  0  0  0  0  0  0  0  0  0
  -30.2393  -26.9133   22.7968 C   0  0  0  0  0  0  0  0  0  0  0  0
  -27.2829  -21.8861   25.2430 C   0  0  0  0  0  0  0  0  0  0  0  0
  -28.8240  -26.4655   23.1477 C   0  0  0  0  0  0  0  0  0  0  0  0
  -27.4107  -20.9094   24.0718 C   0  0  0  0  0  0  0  0  0  0  0  0
  -25.8793  -21.8682   25.8459 C   0  0  0  0  0  0  0  0  0  0  0  0
  -24.9160  -21.0972   23.7136 C   0  0  0  0  0  0  0  0  0  0  0  0
  -27.9802  -26.2623   21.8835 C   0  0  1  0  0  0  0  0  0  0  0  0
  -26.1522  -29.5048   21.1234 C   0  0  1  0  0  0  0  0  0  0  0  0
  -26.2938  -21.1270   23.0322 C   0  0  2  0  0  0  0  0  0  0  0  0
  -24.7759  -36.4548   24.2550 C   0  0  0  0  0  0  0  0  0  0  0  0
  -16.1914  -27.4234   23.8578 C   0  0  0  0  0  0  0  0  0  0  0  0
  -18.4550  -27.7077   24.8321 C   0  0  0  0  0  0  0  0  0  0  0  0
  -26.4075  -30.1969   25.6859 C   0  0  0  0  0  0  0  0  0  0  0  0
  -25.6802  -32.4585   26.4762 C   0  0  0  0  0  0  0  0  0  0  0  0
  -27.8643  -32.1928   25.3007 C   0  0  0  0  0  0  0  0  0  0  0  0
  -23.7598  -35.2879   20.7791 C   0  0  0  0  0  0  0  0  0  0  0  0
  -17.7872  -25.4334   23.9981 C   0  0  0  0  0  0  0  0  0  0  0  0
  -19.4315  -28.2337   22.2789 C   0  0  0  0  0  0  0  0  0  1  0  0
  -25.7159  -32.0080   23.9808 C   0  0  1  0  0  0  0  0  0  0  0  0
  -24.8223  -35.5651   23.0225 C   0  0  2  0  0  0  0  0  0  0  0  0
  -17.6575  -26.9597   23.7459 C   0  0  0  0  0  0  0  0  0  0  0  0
  -26.4015  -31.6997   25.3418 C   0  0  0  0  0  0  0  0  0  0  0  0
  -26.2506  -18.8211   22.1590 N   0  0  0  0  0  0  0  0  0  0  0  0
  -26.3859  -20.1311   21.8912 N   0  0  0  0  0  0  0  0  0  0  0  0
  -25.5406  -30.3922   22.1147 N   0  0  0  0  0  0  0  0  0  0  0  0
  -24.8740  -22.0850   24.8032 N   0  0  0  0  0  0  0  0  0  0  0  0
  -26.7542  -21.6705   20.1291 N   0  0  0  0  0  0  0  0  0  0  0  0
  -26.7636  -17.6689   18.0356 N   0  0  0  0  0  0  0  0  0  0  0  0
  -23.0886  -23.2941   23.8478 N   0  0  0  0  0  0  0  0  0  0  0  0
  -27.5425  -27.5375   21.3576 N   0  0  0  0  0  0  0  0  0  0  0  0
  -25.7196  -33.4207   23.6163 N   0  0  0  0  0  0  0  0  0  0  0  0
  -23.8074  -36.0577   22.0488 N   0  3  0  0  0  0  0  0  0  0  0  0
  -26.9910  -19.9303   17.7307 O   0  0  0  0  0  0  0  0  0  0  0  0
  -25.6514  -27.8096   22.6889 O   0  0  0  0  0  0  0  0  0  0  0  0
  -17.6911  -26.8992   21.3181 O   0  0  0  0  0  0  0  0  0  0  0  0
  -27.5512  -31.4797   22.5741 O   0  0  0  0  0  0  0  0  0  0  0  0
  -23.4181  -33.6442   23.4417 O   0  0  0  0  0  0  0  0  0  0  0  0
  -24.0157  -23.9466   25.8718 O   0  0  0  0  0  0  0  0  0  0  0  0
  -26.0468  -12.6938   20.4377 O   0  0  0  0  0  0  0  0  0  0  0  0
  -19.8082  -28.4519   20.9199 O   0  0  0  0  0  0  0  0  0  1  0  0
  -29.8088  -10.1813   17.2850 F   0  0  0  0  0  0  0  0  0  0  0  0
  -21.5094  -23.4333   21.5550 F   0  0  0  0  0  0  0  0  0  0  0  0
  -27.7283  -10.7713   21.4956 F   0  0  0  0  0  0  0  0  0  0  0  0
  1  2  1  0  0  0  0
  1  5  2  0  0  0  0
  2  6  2  0  0  0  0
  3 10  2  0  0  0  0
  3 18  1  0  0  0  0
  4 11  1  0  0  0  0
  4 18  2  0  0  0  0
  5 20  1  0  0  0  0
  6 22  1  0  0  0  0
  7 12  2  0  0  0  0
  7 21  1  0  0  0  0
  8  9  2  0  0  0  0
  8 24  1  0  0  0  0
  9 25  1  0  0  0  0
 10 26  1  0  0  0  0
 11 26  2  0  0  0  0
 12 27  1  0  0  0  0
 13 14  2  0  0  0  0
 13 28  1  0  0  0  0
 14 29  1  0  0  0  0
 15 23  1  0  0  0  0
 15 27  2  0  0  0  0
 16 24  2  0  0  0  0
 16 30  1  0  0  0  0
 17 29  2  0  0  0  0
 17 31  1  0  0  0  0
 18 32  1  0  0  0  0
 19 32  1  0  0  0  0
 19 33  2  0  0  0  0
 19 34  1  0  0  0  0
 20 22  2  0  0  0  0
 20 40  1  0  0  0  0
 21 23  2  0  0  0  0
 21 41  1  0  0  0  0
 22 49  1  0  0  0  0
 23 42  1  0  0  0  0
 24 59  1  0  0  0  0
 25 30  2  0  0  0  0
 25 71  1  0  0  0  0
 26 81  1  0  0  0  0
 27 82  1  0  0  0  0
 28 31  2  0  0  0  0
 28 81  1  0  0  0  0
 29 83  1  0  0  0  0
 30 84  1  0  0  0  0
 31 85  1  0  0  0  0
 32 65  2  0  0  0  0
 33 66  1  0  0  0  0
 33 69  1  0  0  0  0
 34 70  1  0  0  0  0
 34 75  2  0  0  0  0
 35 50  1  0  0  0  0
 35 72  1  0  0  0  0
 35 76  2  0  0  0  0
 36 60  1  0  0  0  0
 36 63  1  0  0  0  0
 36 77  2  0  0  0  0
 37 61  1  0  0  0  0
 37 67  1  0  0  0  0
 37 78  2  0  0  0  0
 38 62  1  0  0  0  0
 38 73  1  0  0  0  0
 38 79  2  0  0  0  0
 39 68  1  0  0  0  0
 39 71  1  0  0  0  0
 39 80  2  0  0  0  0
 40 43  1  0  0  0  0
 41 50  1  0  0  0  0
 42 67  1  0  0  0  0
 43 45  1  0  0  0  0
 44 46  1  0  0  0  0
 44 47  1  0  0  0  0
 45 49  1  0  0  0  0
 46 51  1  0  0  0  0
 47 68  1  0  0  0  0
 48 51  1  0  0  0  0
 48 68  1  0  0  0  0
 49 72  1  0  0  0  0
 50 67  1  0  0  0  0
 51 66  1  0  0  0  0
 52 62  1  0  0  0  0
 53 63  1  0  0  0  0
 54 63  1  0  0  0  0
 55 64  1  0  0  0  0
 56 64  1  0  0  0  0
 57 64  1  0  0  0  0
 58 74  1  0  0  0  0
 59 63  1  0  0  0  0
 60 82  1  0  0  0  0
 61 64  1  0  0  0  0
 61 73  1  0  0  0  0
 62 74  1  0  0  0  0
 65 66  1  0  0  0  0
M  CHG  1  74   1
M  ISO  4  39 100  60 101  71 100  82 101
M  END
> <Batch ID>
0140

> <Smiles>
CNC(C)C(=O)NC(C(=O)N1Cc2cc([101O:1][101CH2:1]C(=O)C(C)(C)Cc3ccc([100NH:0][100C:0](=O)N4CCCC(n5nc(-c6ccc(Oc7ccc(F)cc7F)cc6)c(C(N)=O)c5N)C4)c(F)c3)ccc2CC1C(=O)NC1CCCc2ccccc21)C(C)(C)C

> <Shape>
0.260

> <Color>
0.050

> <Negative vol penalty>
0.000

$$$$

  -OEChem-04052302513D

 88 96  0     1  0  0  0  0  0999 V2000
  -18.9004  -23.8883   23.7986 C   0  0  0  0  0  0  0  0  0  0  0  0
  -20.2801  -23.8806   23.6208 C   0  0  0  0  0  0  0  0  0  0  0  0
  -25.4775  -14.3904   21.4279 C   0  0  0  0  0  0  0  0  0  0  0  0
  -25.0366  -14.9144   19.1110 C   0  0  0  0  0  0  0  0  0  0  0  0
  -18.1623  -25.0237   23.4669 C   0  0  0  0  0  0  0  0  0  0  0  0
  -20.9225  -25.0080   23.1101 C   0  0  0  0  0  0  0  0  0  0  0  0
  -25.1396  -26.1650   25.6640 C   0  0  0  0  0  0  0  0  0  0  0  0
  -24.5137  -13.3831   21.3835 C   0  0  0  0  0  0  0  0  0  0  0  0
  -24.0728  -13.9070   19.0666 C   0  0  0  0  0  0  0  0  0  0  0  0
  -26.2763  -25.4041   25.3943 C   0  0  0  0  0  0  0  0  0  0  0  0
  -24.2791  -10.2086   20.2431 C   0  0  0  0  0  0  0  0  0  0  0  0
  -24.6022   -8.9768   20.8121 C   0  0  0  0  0  0  0  0  0  0  0  0
  -27.1044  -27.1597   23.9622 C   0  0  0  0  0  0  0  0  0  0  0  0
  -33.1514  -23.8066   18.0651 C   0  0  0  0  0  0  0  0  0  0  0  0
  -31.3920  -22.2379   17.5354 C   0  0  0  0  0  0  0  0  0  0  0  0
  -31.0280  -23.9413   19.2097 C   0  0  0  0  0  0  0  0  0  0  0  0
  -22.7490   -9.1993   22.3461 C   0  0  0  0  0  0  0  0  0  0  0  0
  -25.7389  -15.1561   20.2917 C   0  0  0  0  0  0  0  0  0  0  0  0
  -28.1063  -16.0747   20.0480 C   0  0  0  0  0  0  0  0  0  0  0  0
  -18.7971  -26.1690   22.9610 C   0  0  0  0  0  0  0  0  0  0  0  0
  -24.9714  -27.4265   25.0752 C   0  0  0  0  0  0  0  0  0  0  0  0
  -20.1920  -26.1593   22.7701 C   0  0  0  0  0  0  0  0  0  0  0  0
  -25.9659  -27.9358   24.2280 C   0  0  0  0  0  0  0  0  0  0  0  0
  -32.6863  -22.7159   17.3305 C   0  0  0  0  0  0  0  0  0  0  0  0
  -32.3222  -24.4193   19.0048 C   0  0  0  0  0  0  0  0  0  0  0  0
  -30.5628  -22.8506   18.4750 C   0  0  0  0  0  0  0  0  0  0  0  0
  -23.8114  -13.1413   20.2029 C   0  0  0  0  0  0  0  0  0  0  0  0
  -27.2575  -25.9002   24.5410 C   0  0  0  0  0  0  0  0  0  0  0  0
  -23.1910  -10.9359   20.7256 C   0  0  0  0  0  0  0  0  0  0  0  0
  -23.8372   -8.4721   21.8636 C   0  0  0  0  0  0  0  0  0  0  0  0
  -22.4260  -10.4312   21.7771 C   0  0  0  0  0  0  0  0  0  0  0  0
  -26.7340  -16.1972   20.3371 C   0  0  0  0  0  0  0  0  0  0  0  0
  -28.6111  -17.3381   20.2368 C   0  0  0  0  0  0  0  0  0  0  0  0
  -28.8576  -14.9220   19.6448 C   0  0  0  0  0  0  0  0  0  0  0  0
  -22.8457  -28.7104   23.0911 C   0  0  0  0  0  0  0  0  0  0  0  0
  -24.5069  -31.4306   23.6936 C   0  0  0  0  0  0  0  0  0  0  0  0
  -27.4390  -32.8787   24.6695 C   0  0  0  0  0  0  0  0  0  0  0  0
  -30.4969  -24.7865   23.2266 C   0  0  0  0  0  0  0  0  0  0  0  0
  -28.2970  -22.8578   19.5760 C   0  0  0  0  0  0  0  0  0  0  0  0
  -17.9514  -27.3558   22.5723 C   0  0  0  0  0  0  0  0  0  0  0  0
  -23.7520  -28.2462   25.3974 C   0  0  0  0  0  0  0  0  0  0  0  0
  -25.8426  -29.2929   23.5866 C   0  0  0  0  0  0  0  0  0  0  0  0
  -18.7538  -28.6414   22.3886 C   0  0  0  0  0  0  0  0  0  0  0  0
  -26.5102  -21.4481   22.3142 C   0  0  0  0  0  0  0  0  0  0  0  0
  -20.0003  -28.3775   21.5499 C   0  0  0  0  0  0  0  0  0  0  0  0
  -26.5220  -19.9463   22.0201 C   0  0  0  0  0  0  0  0  0  0  0  0
  -26.3732  -22.2751   21.0370 C   0  0  0  0  0  0  0  0  0  0  0  0
  -27.3654  -20.4633   19.6945 C   0  0  0  0  0  0  0  0  0  0  0  0
  -20.9280  -27.3715   22.2420 C   0  0  1  0  0  0  0  0  0  0  0  0
  -23.4430  -29.2993   24.3377 C   0  0  1  0  0  0  0  0  0  0  0  0
  -27.5670  -19.5909   20.9443 C   0  0  2  0  0  0  0  0  0  0  0  0
  -33.5730  -22.0609   16.3260 C   0  0  0  0  0  0  0  0  0  0  0  0
  -34.7893  -26.5072   23.1090 C   0  0  0  0  0  0  0  0  0  0  0  0
  -28.5045  -35.1223   25.0277 C   0  0  0  0  0  0  0  0  0  0  0  0
  -24.8063  -31.7675   20.6758 C   0  0  0  0  0  0  0  0  0  0  0  0
  -26.6285  -33.4280   21.1121 C   0  0  0  0  0  0  0  0  0  0  0  0
  -24.3114  -33.8812   21.9174 C   0  0  0  0  0  0  0  0  0  0  0  0
  -34.7852  -24.4101   20.9282 C   0  0  0  0  0  0  0  0  0  0  0  0
  -27.8938  -32.3334   27.5426 C   0  0  0  0  0  0  0  0  0  0  0  0
  -32.8266  -25.6018   19.8011 C   0  0  0  0  0  0  0  0  0  0  0  0
  -29.3329  -25.7290   23.3923 C   0  0  0  0  0  0  0  0  0  1  0  0
  -34.0532  -26.6319   21.7799 C   0  0  0  0  0  0  0  0  0  0  0  0
  -32.5775  -24.5640   22.1245 C   0  0  0  0  0  0  0  0  0  0  0  0
  -25.7015  -32.1134   23.0726 C   0  0  1  0  0  0  0  0  0  0  0  0
  -27.7339  -33.9803   25.6715 C   0  0  2  0  0  0  0  0  0  0  0  0
  -25.3636  -32.7711   21.7049 C   0  0  0  0  0  0  0  0  0  0  0  0
  -33.5375  -25.2957   21.1562 C   0  0  2  0  0  0  0  0  0  0  0  0
  -26.3889  -17.4402   20.6833 N   0  0  0  0  0  0  0  0  0  0  0  0
  -27.5517  -18.1103   20.6131 N   0  0  0  0  0  0  0  0  0  0  0  0
  -24.6291  -30.0536   23.9277 N   0  0  0  0  0  0  0  0  0  0  0  0
  -27.3983  -21.8866   20.0659 N   0  0  0  0  0  0  0  0  0  0  0  0
  -29.8533  -17.8526   20.1160 N   0  0  0  0  0  0  0  0  0  0  0  0
  -28.1827  -13.7024   19.4982 N   0  0  0  0  0  0  0  0  0  0  0  0
  -29.2480  -22.3651   18.6831 N   0  0  0  0  0  0  0  0  0  0  0  0
  -21.6700  -28.0162   23.3042 N   0  0  0  0  0  0  0  0  0  0  0  0
  -26.2059  -33.0453   24.0754 N   0  0  0  0  0  0  0  0  0  0  0  0
  -28.5425  -33.4473   26.8042 N   0  3  0  0  0  0  0  0  0  0  0  0
  -30.0938  -14.9685   19.4371 O   0  0  0  0  0  0  0  0  0  0  0  0
  -23.4089  -28.8750   22.0153 O   0  0  0  0  0  0  0  0  0  0  0  0
  -23.5049  -32.0959   23.9675 O   0  0  0  0  0  0  0  0  0  0  0  0
  -28.2256  -31.9641   24.4344 O   0  0  0  0  0  0  0  0  0  0  0  0
  -30.5951  -23.6950   23.7704 O   0  0  0  0  0  0  0  0  0  0  0  0
  -28.2451  -24.0342   19.9440 O   0  0  0  0  0  0  0  0  0  0  0  0
  -22.8710  -12.1583   20.1591 O   0  0  0  0  0  0  0  0  0  0  0  0
  -28.3677  -25.1592   24.2756 O   0  0  0  0  0  0  0  0  0  1  0  0
  -31.4084  -25.3490   22.3801 O   0  0  0  0  0  0  0  0  0  0  0  0
  -24.1466   -7.2885   22.4089 F   0  0  0  0  0  0  0  0  0  0  0  0
  -21.3787  -11.1247   22.2441 F   0  0  0  0  0  0  0  0  0  0  0  0
  1  2  1  0  0  0  0
  1  5  2  0  0  0  0
  2  6  2  0  0  0  0
  3  8  2  0  0  0  0
  3 18  1  0  0  0  0
  4  9  1  0  0  0  0
  4 18  2  0  0  0  0
  5 20  1  0  0  0  0
  6 22  1  0  0  0  0
  7 10  2  0  0  0  0
  7 21  1  0  0  0  0
  8 27  1  0  0  0  0
  9 27  2  0  0  0  0
 10 28  1  0  0  0  0
 11 12  2  0  0  0  0
 11 29  1  0  0  0  0
 12 30  1  0  0  0  0
 13 23  1  0  0  0  0
 13 28  2  0  0  0  0
 14 24  2  0  0  0  0
 14 25  1  0  0  0  0
 15 24  1  0  0  0  0
 15 26  2  0  0  0  0
 16 25  2  0  0  0  0
 16 26  1  0  0  0  0
 17 30  2  0  0  0  0
 17 31  1  0  0  0  0
 18 32  1  0  0  0  0
 19 32  1  0  0  0  0
 19 33  2  0  0  0  0
 19 34  1  0  0  0  0
 20 22  2  0  0  0  0
 20 40  1  0  0  0  0
 21 23  2  0  0  0  0
 21 41  1  0  0  0  0
 22 49  1  0  0  0  0
 23 42  1  0  0  0  0
 24 52  1  0  0  0  0
 25 60  1  0  0  0  0
 26 74  1  0  0  0  0
 27 84  1  0  0  0  0
 28 85  1  0  0  0  0
 29 31  2  0  0  0  0
 29 84  1  0  0  0  0
 30 87  1  0  0  0  0
 31 88  1  0  0  0  0
 32 68  2  0  0  0  0
 33 69  1  0  0  0  0
 33 72  1  0  0  0  0
 34 73  1  0  0  0  0
 34 78  2  0  0  0  0
 35 50  1  0  0  0  0
 35 75  1  0  0  0  0
 35 79  2  0  0  0  0
 36 64  1  0  0  0  0
 36 70  1  0  0  0  0
 36 80  2  0  0  0  0
 37 65  1  0  0  0  0
 37 76  1  0  0  0  0
 37 81  2  0  0  0  0
 38 61  1  0  0  0  0
 38 82  2  0  0  0  0
 38 86  1  0  0  0  0
 39 71  1  0  0  0  0
 39 74  1  0  0  0  0
 39 83  2  0  0  0  0
 40 43  1  0  0  0  0
 41 50  1  0  0  0  0
 42 70  1  0  0  0  0
 43 45  1  0  0  0  0
 44 46  1  0  0  0  0
 44 47  1  0  0  0  0
 45 49  1  0  0  0  0
 46 51  1  0  0  0  0
 47 71  1  0  0  0  0
 48 51  1  0  0  0  0
 48 71  1  0  0  0  0
 49 75  1  0  0  0  0
 50 70  1  0  0  0  0
 51 69  1  0  0  0  0
 53 62  1  0  0  0  0
 54 65  1  0  0  0  0
 55 66  1  0  0  0  0
 56 66  1  0  0  0  0
 57 66  1  0  0  0  0
 58 67  1  0  0  0  0
 59 77  1  0  0  0  0
 60 67  1  0  0  0  0
 61 85  1  0  0  0  0
 62 67  1  0  0  0  0
 63 67  1  0  0  0  0
 63 86  1  0  0  0  0
 64 66  1  0  0  0  0
 64 76  1  0  0  0  0
 65 77  1  0  0  0  0
 68 69  1  0  0  0  0
M  CHG  1  77   1
M  ISO  4  39 100  61 101  74 100  85 101
M  END
> <Batch ID>
0140

> <Smiles>
CCC(C)(COC(=O)[101CH2:1][101O:1]c1ccc2c(c1)CN(C(=O)C(NC(=O)C(C)NC)C(C)(C)C)C(C(=O)NC1CCCc3ccccc31)C2)Cc1cc(C)cc([100NH:0][100C:0](=O)N2CCCC(n3nc(-c4ccc(Oc5ccc(F)cc5F)cc4)c(C(N)=O)c3N)C2)c1

> <Shape>
0.254

> <Color>
0.077

> <Negative vol penalty>
0.000

$$$$

  -OEChem-04052302513D

 90 98  0     1  0  0  0  0  0999 V2000
  -37.8699  -20.4184   24.9254 C   0  0  0  0  0  0  0  0  0  0  0  0
  -36.6507  -20.4203   24.2553 C   0  0  0  0  0  0  0  0  0  0  0  0
  -23.0011   -9.8925   19.9828 C   0  0  0  0  0  0  0  0  0  0  0  0
  -23.7300   -9.9456   22.2856 C   0  0  0  0  0  0  0  0  0  0  0  0
  -38.0311  -21.1843   26.0792 C   0  0  0  0  0  0  0  0  0  0  0  0
  -35.5916  -21.1874   24.7394 C   0  0  0  0  0  0  0  0  0  0  0  0
  -31.3302  -24.0845   21.4299 C   0  0  0  0  0  0  0  0  0  0  0  0
  -29.5056  -18.9767   24.7273 C   0  0  0  0  0  0  0  0  0  0  0  0
  -22.2362   -8.7573   20.2510 C   0  0  0  0  0  0  0  0  0  0  0  0
  -22.9651   -8.8104   22.5539 C   0  0  0  0  0  0  0  0  0  0  0  0
  -30.0228  -23.7474   21.0825 C   0  0  0  0  0  0  0  0  0  0  0  0
  -28.3040  -19.4347   24.1871 C   0  0  0  0  0  0  0  0  0  0  0  0
  -23.2123   -5.4715   22.0835 C   0  0  0  0  0  0  0  0  0  0  0  0
  -23.8023   -4.4554   22.8352 C   0  0  0  0  0  0  0  0  0  0  0  0
  -29.2004  -25.0451   22.9423 C   0  0  0  0  0  0  0  0  0  0  0  0
  -28.7491  -18.2057   22.1552 C   0  0  0  0  0  0  0  0  0  0  0  0
  -22.0809   -4.6974   24.5132 C   0  0  0  0  0  0  0  0  0  0  0  0
  -23.7480  -10.4866   21.0000 C   0  0  0  0  0  0  0  0  0  0  0  0
  -24.1303  -13.0025   20.8219 C   0  0  0  0  0  0  0  0  0  0  0  0
  -36.9765  -21.9687   26.5722 C   0  0  0  0  0  0  0  0  0  0  0  0
  -31.5836  -24.8970   22.5444 C   0  0  0  0  0  0  0  0  0  0  0  0
  -35.7384  -21.9635   25.9017 C   0  0  0  0  0  0  0  0  0  0  0  0
  -30.5118  -25.3932   23.3002 C   0  0  0  0  0  0  0  0  0  0  0  0
  -30.3291  -18.1333   23.9814 C   0  0  0  0  0  0  0  0  0  0  0  0
  -29.9508  -17.7478   22.6954 C   0  0  0  0  0  0  0  0  0  0  0  0
  -22.2182   -8.2163   21.5366 C   0  0  0  0  0  0  0  0  0  0  0  0
  -28.9577  -24.2253   21.8404 C   0  0  0  0  0  0  0  0  0  0  0  0
  -27.9257  -19.0492   22.9011 C   0  0  0  0  0  0  0  0  0  0  0  0
  -22.0567   -6.1006   22.5466 C   0  0  0  0  0  0  0  0  0  0  0  0
  -23.2365   -4.0683   24.0500 C   0  0  0  0  0  0  0  0  0  0  0  0
  -21.4910   -5.7135   23.7614 C   0  0  0  0  0  0  0  0  0  0  0  0
  -24.5388  -11.6589   20.7234 C   0  0  0  0  0  0  0  0  0  0  0  0
  -25.2386  -13.7261   20.4553 C   0  0  0  0  0  0  0  0  0  0  0  0
  -22.8624  -13.5478   21.2102 C   0  0  0  0  0  0  0  0  0  0  0  0
  -33.1380  -24.5164   25.2908 C   0  0  0  0  0  0  0  0  0  0  0  0
  -26.1002  -22.0894   21.1937 C   0  0  0  0  0  0  0  0  0  0  0  0
  -32.4925  -27.6756   25.6446 C   0  0  0  0  0  0  0  0  0  0  0  0
  -30.5162  -30.3373   24.8344 C   0  0  0  0  0  0  0  0  0  0  0  0
  -30.7344  -14.6669   20.6941 C   0  0  0  0  0  0  0  0  0  0  0  0
  -37.1834  -22.7433   27.8497 C   0  0  0  0  0  0  0  0  0  0  0  0
  -32.9982  -25.2734   22.8901 C   0  0  0  0  0  0  0  0  0  0  0  0
  -30.7292  -26.2854   24.4940 C   0  0  0  0  0  0  0  0  0  0  0  0
  -36.1283  -23.8208   28.0864 C   0  0  0  0  0  0  0  0  0  0  0  0
  -29.5925  -12.2406   18.3520 C   0  0  0  0  0  0  0  0  0  0  0  0
  -34.7307  -23.2636   27.8356 C   0  0  0  0  0  0  0  0  0  0  0  0
  -28.1450  -11.9795   18.7721 C   0  0  0  0  0  0  0  0  0  0  0  0
  -30.4966  -12.4777   19.5596 C   0  0  0  0  0  0  0  0  0  0  0  0
  -28.5879  -13.2719   20.9010 C   0  0  0  0  0  0  0  0  0  0  0  0
  -34.5736  -22.8018   26.3817 C   0  0  1  0  0  0  0  0  0  0  0  0
  -33.1670  -25.6867   24.3489 C   0  0  1  0  0  0  0  0  0  0  0  0
  -27.6271  -13.0825   19.7147 C   0  0  2  0  0  0  0  0  0  0  0  0
  -30.2124  -32.7824   25.3105 C   0  0  0  0  0  0  0  0  0  0  0  0
  -31.8054  -18.2234   26.0206 C   0  0  0  0  0  0  0  0  0  0  0  0
  -32.8353  -18.1064   23.7268 C   0  0  0  0  0  0  0  0  0  0  0  0
  -31.7473  -16.1043   24.7214 C   0  0  0  0  0  0  0  0  0  0  0  0
  -24.2750  -20.3628   21.0651 C   0  0  0  0  0  0  0  0  0  0  0  0
  -25.6267  -20.8634   19.0321 C   0  0  0  0  0  0  0  0  0  0  0  0
  -31.2624  -26.9930   28.3522 C   0  0  0  0  0  0  0  0  0  0  0  0
  -30.1586  -29.2402   28.3390 C   0  0  0  0  0  0  0  0  0  0  0  0
  -32.6476  -29.0751   28.3308 C   0  0  0  0  0  0  0  0  0  0  0  0
  -30.9620  -31.0633   22.0001 C   0  0  0  0  0  0  0  0  0  0  0  0
  -30.8167  -16.8466   21.8779 C   0  0  0  0  0  0  0  0  0  0  0  0
  -27.4806  -22.6367   20.8656 C   0  0  0  0  0  0  0  0  0  1  0  0
  -26.6977  -19.6551   20.9567 C   0  0  0  0  0  0  0  0  0  0  0  0
  -31.3588  -28.4749   26.2402 C   0  0  1  0  0  0  0  0  0  0  0  0
  -30.8588  -31.7507   24.3992 C   0  0  2  0  0  0  0  0  0  0  0  0
  -31.6108  -17.6560   24.5811 C   0  0  0  0  0  0  0  0  0  0  0  0
  -25.6813  -20.7423   20.5623 C   0  0  0  0  0  0  0  0  0  0  0  0
  -31.3525  -28.4274   27.7942 C   0  0  0  0  0  0  0  0  0  0  0  0
  -25.8075  -11.5336   20.3252 N   0  0  0  0  0  0  0  0  0  0  0  0
  -26.2058  -12.8077   20.1702 N   0  0  0  0  0  0  0  0  0  0  0  0
  -32.1309  -26.6201   24.7955 N   0  0  0  0  0  0  0  0  0  0  0  0
  -29.9501  -13.5363   20.4119 N   0  0  0  0  0  0  0  0  0  0  0  0
  -25.4705  -15.0520   20.3520 N   0  0  0  0  0  0  0  0  0  0  0  0
  -21.8321  -12.6627   21.5560 N   0  0  0  0  0  0  0  0  0  0  0  0
  -34.3743  -23.9390   25.5090 N   0  0  0  0  0  0  0  0  0  0  0  0
  -31.4707  -29.8190   25.6839 N   0  0  0  0  0  0  0  0  0  0  0  0
  -30.1383  -15.6255   21.5044 N   0  0  0  0  0  0  0  0  0  0  0  0
  -30.3869  -31.9925   23.0064 N   0  3  0  0  0  0  0  0  0  0  0  0
  -22.6443  -14.7829   21.2336 O   0  0  0  0  0  0  0  0  0  0  0  0
  -32.0730  -24.1643   25.7843 O   0  0  0  0  0  0  0  0  0  0  0  0
  -25.3570  -22.6950   21.9697 O   0  0  0  0  0  0  0  0  0  0  0  0
  -33.6562  -27.9810   25.9169 O   0  0  0  0  0  0  0  0  0  0  0  0
  -29.5014  -29.7530   24.4613 O   0  0  0  0  0  0  0  0  0  0  0  0
  -31.8789  -14.8138   20.2521 O   0  0  0  0  0  0  0  0  0  0  0  0
  -21.4718   -7.1087   21.7988 O   0  0  0  0  0  0  0  0  0  0  0  0
  -27.6806  -23.8972   21.5040 O   0  0  0  0  0  0  0  0  0  1  0  0
  -26.7458  -19.4992   22.3702 O   0  0  0  0  0  0  0  0  0  0  0  0
  -23.8022   -3.0914   24.7711 F   0  0  0  0  0  0  0  0  0  0  0  0
  -20.3802   -6.3134   24.2109 F   0  0  0  0  0  0  0  0  0  0  0  0
  1  2  1  0  0  0  0
  1  5  2  0  0  0  0
  2  6  2  0  0  0  0
  3  9  2  0  0  0  0
  3 18  1  0  0  0  0
  4 10  1  0  0  0  0
  4 18  2  0  0  0  0
  5 20  1  0  0  0  0
  6 22  1  0  0  0  0
  7 11  2  0  0  0  0
  7 21  1  0  0  0  0
  8 12  2  0  0  0  0
  8 24  1  0  0  0  0
  9 26  1  0  0  0  0
 10 26  2  0  0  0  0
 11 27  1  0  0  0  0
 12 28  1  0  0  0  0
 13 14  2  0  0  0  0
 13 29  1  0  0  0  0
 14 30  1  0  0  0  0
 15 23  1  0  0  0  0
 15 27  2  0  0  0  0
 16 25  1  0  0  0  0
 16 28  2  0  0  0  0
 17 30  2  0  0  0  0
 17 31  1  0  0  0  0
 18 32  1  0  0  0  0
 19 32  1  0  0  0  0
 19 33  2  0  0  0  0
 19 34  1  0  0  0  0
 20 22  2  0  0  0  0
 20 40  1  0  0  0  0
 21 23  2  0  0  0  0
 21 41  1  0  0  0  0
 22 49  1  0  0  0  0
 23 42  1  0  0  0  0
 24 25  2  0  0  0  0
 24 67  1  0  0  0  0
 25 62  1  0  0  0  0
 26 86  1  0  0  0  0
 27 87  1  0  0  0  0
 28 88  1  0  0  0  0
 29 31  2  0  0  0  0
 29 86  1  0  0  0  0
 30 89  1  0  0  0  0
 31 90  1  0  0  0  0
 32 70  2  0  0  0  0
 33 71  1  0  0  0  0
 33 74  1  0  0  0  0
 34 75  1  0  0  0  0
 34 80  2  0  0  0  0
 35 50  1  0  0  0  0
 35 76  1  0  0  0  0
 35 81  2  0  0  0  0
 36 63  1  0  0  0  0
 36 68  1  0  0  0  0
 36 82  2  0  0  0  0
 37 65  1  0  0  0  0
 37 72  1  0  0  0  0
 37 83  2  0  0  0  0
 38 66  1  0  0  0  0
 38 77  1  0  0  0  0
 38 84  2  0  0  0  0
 39 73  1  0  0  0  0
 39 78  1  0  0  0  0
 39 85  2  0  0  0  0
 40 43  1  0  0  0  0
 41 50  1  0  0  0  0
 42 72  1  0  0  0  0
 43 45  1  0  0  0  0
 44 46  1  0  0  0  0
 44 47  1  0  0  0  0
 45 49  1  0  0  0  0
 46 51  1  0  0  0  0
 47 73  1  0  0  0  0
 48 51  1  0  0  0  0
 48 73  1  0  0  0  0
 49 76  1  0  0  0  0
 50 72  1  0  0  0  0
 51 71  1  0  0  0  0
 52 66  1  0  0  0  0
 53 67  1  0  0  0  0
 54 67  1  0  0  0  0
 55 67  1  0  0  0  0
 56 68  1  0  0  0  0
 57 68  1  0  0  0  0
 58 69  1  0  0  0  0
 59 69  1  0  0  0  0
 60 69  1  0  0  0  0
 61 79  1  0  0  0  0
 62 78  1  0  0  0  0
 63 87  1  0  0  0  0
 64 68  1  0  0  0  0
 64 88  1  0  0  0  0
 65 69  1  0  0  0  0
 65 77  1  0  0  0  0
 66 79  1  0  0  0  0
 70 71  1  0  0  0  0
M  CHG  1  79   1
M  ISO  4  39 100  63 101  78 100  87 101
M  END
> <Batch ID>
0140

> <Smiles>
CNC(C)C(=O)NC(C(=O)N1Cc2cc([101O:1][101CH2:1]C(=O)C(C)(C)COc3ccc(C(C)(C)C)c(C[100NH:0][100C:0](=O)N4CCCC(n5nc(-c6ccc(Oc7ccc(F)cc7F)cc6)c(C(N)=O)c5N)C4)c3)ccc2CC1C(=O)NC1CCCc2ccccc21)C(C)(C)C

> <Shape>
0.190

> <Color>
0.189

> <Negative vol penalty>
0.000

$$$$

  -OEChem-04052302513D

 88 96  0     1  0  0  0  0  0999 V2000
  -27.7572  -31.5238   26.1640 C   0  0  0  0  0  0  0  0  0  0  0  0
  -27.5007  -30.4463   25.3222 C   0  0  0  0  0  0  0  0  0  0  0  0
  -23.0567   -9.8051   19.9609 C   0  0  0  0  0  0  0  0  0  0  0  0
  -23.7861   -9.8602   22.2635 C   0  0  0  0  0  0  0  0  0  0  0  0
  -28.8850  -32.3166   25.9557 C   0  0  0  0  0  0  0  0  0  0  0  0
  -28.3714  -30.1616   24.2709 C   0  0  0  0  0  0  0  0  0  0  0  0
  -29.8342  -24.6257   22.0984 C   0  0  0  0  0  0  0  0  0  0  0  0
  -22.3302   -8.6427   20.2188 C   0  0  0  0  0  0  0  0  0  0  0  0
  -23.0596   -8.6978   22.5215 C   0  0  0  0  0  0  0  0  0  0  0  0
  -29.3736  -23.8961   21.0033 C   0  0  0  0  0  0  0  0  0  0  0  0
  -23.4167   -5.3735   22.0187 C   0  0  0  0  0  0  0  0  0  0  0  0
  -24.0408   -4.3703   22.7602 C   0  0  0  0  0  0  0  0  0  0  0  0
  -31.2322  -24.7010   19.6930 C   0  0  0  0  0  0  0  0  0  0  0  0
  -30.3762  -19.9603   21.4143 C   0  0  0  0  0  0  0  0  0  0  0  0
  -30.4365  -17.8220   20.2915 C   0  0  0  0  0  0  0  0  0  0  0  0
  -22.3142   -4.5391   24.4417 C   0  0  0  0  0  0  0  0  0  0  0  0
  -23.7847  -10.4138   20.9832 C   0  0  0  0  0  0  0  0  0  0  0  0
  -24.0833  -12.9426   20.8290 C   0  0  0  0  0  0  0  0  0  0  0  0
  -29.7752  -32.0357   24.9072 C   0  0  0  0  0  0  0  0  0  0  0  0
  -30.9932  -25.4084   21.9956 C   0  0  0  0  0  0  0  0  0  0  0  0
  -29.5115  -30.9522   24.0476 C   0  0  0  0  0  0  0  0  0  0  0  0
  -31.7069  -25.4376   20.7890 C   0  0  0  0  0  0  0  0  0  0  0  0
  -30.5838  -19.2086   20.2578 C   0  0  0  0  0  0  0  0  0  0  0  0
  -30.0215  -19.3253   22.6046 C   0  0  0  0  0  0  0  0  0  0  0  0
  -29.8742  -17.9386   22.6382 C   0  0  0  0  0  0  0  0  0  0  0  0
  -30.0817  -17.1869   21.4817 C   0  0  0  0  0  0  0  0  0  0  0  0
  -22.3316   -8.0890   21.4991 C   0  0  0  0  0  0  0  0  0  0  0  0
  -30.0710  -23.9360   19.7995 C   0  0  0  0  0  0  0  0  0  0  0  0
  -22.2414   -5.9596   22.4888 C   0  0  0  0  0  0  0  0  0  0  0  0
  -23.4896   -3.9531   23.9716 C   0  0  0  0  0  0  0  0  0  0  0  0
  -21.6902   -5.5423   23.7003 C   0  0  0  0  0  0  0  0  0  0  0  0
  -24.5359  -11.6143   20.7173 C   0  0  0  0  0  0  0  0  0  0  0  0
  -25.1666  -13.7060   20.4685 C   0  0  0  0  0  0  0  0  0  0  0  0
  -22.7984  -13.4418   21.2236 C   0  0  0  0  0  0  0  0  0  0  0  0
  -31.6374  -28.5090   22.2687 C   0  0  0  0  0  0  0  0  0  0  0  0
  -34.7054  -27.5003   21.9647 C   0  0  0  0  0  0  0  0  0  0  0  0
  -36.8730  -25.1134   20.8464 C   0  0  0  0  0  0  0  0  0  0  0  0
  -30.6106  -14.8520   20.6976 C   0  0  0  0  0  0  0  0  0  0  0  0
  -30.9557  -32.9494   24.6927 C   0  0  0  0  0  0  0  0  0  0  0  0
  -31.4917  -26.1684   23.1941 C   0  0  0  0  0  0  0  0  0  0  0  0
  -32.9679  -26.2462   20.6329 C   0  0  0  0  0  0  0  0  0  0  0  0
  -32.0291  -32.3549   23.7846 C   0  0  0  0  0  0  0  0  0  0  0  0
  -29.5705  -12.3832   18.3524 C   0  0  0  0  0  0  0  0  0  0  0  0
  -31.3955  -31.7417   22.5399 C   0  0  0  0  0  0  0  0  0  0  0  0
  -28.1307  -12.0724   18.7677 C   0  0  0  0  0  0  0  0  0  0  0  0
  -30.4655  -12.6465   19.5621 C   0  0  0  0  0  0  0  0  0  0  0  0
  -28.5280  -13.3573   20.9074 C   0  0  0  0  0  0  0  0  0  0  0  0
  -30.4457  -30.5965   22.9114 C   0  0  1  0  0  0  0  0  0  0  0  0
  -32.3981  -27.3386   22.8248 C   0  0  1  0  0  0  0  0  0  0  0  0
  -27.5740  -13.1489   19.7199 C   0  0  2  0  0  0  0  0  0  0  0  0
  -29.4943  -17.2621   23.9181 C   0  0  0  0  0  0  0  0  0  0  0  0
  -30.9123  -21.4739   25.6860 C   0  0  0  0  0  0  0  0  0  0  0  0
  -39.3226  -24.5858   20.7088 C   0  0  0  0  0  0  0  0  0  0  0  0
  -29.1602  -19.0781   17.4073 C   0  0  0  0  0  0  0  0  0  0  0  0
  -35.0063  -29.5041   19.6833 C   0  0  0  0  0  0  0  0  0  0  0  0
  -37.0837  -28.2929   18.9864 C   0  0  0  0  0  0  0  0  0  0  0  0
  -36.9688  -29.3801   21.2286 C   0  0  0  0  0  0  0  0  0  0  0  0
  -31.2117  -21.0605   16.0730 C   0  0  0  0  0  0  0  0  0  0  0  0
  -28.8540  -21.8696   16.2595 C   0  0  0  0  0  0  0  0  0  0  0  0
  -36.5545  -22.6603   22.4712 C   0  0  0  0  0  0  0  0  0  0  0  0
  -30.9699  -19.8970   18.9675 C   0  0  0  0  0  0  0  0  0  0  0  0
  -29.8070  -20.1534   23.8291 C   0  0  0  0  0  0  0  0  0  0  0  0
  -31.1329  -20.6032   24.4592 C   0  0  0  0  0  0  0  0  0  0  0  0
  -30.6040  -22.7567   17.8042 C   0  0  0  0  0  0  0  0  0  1  0  0
  -35.6446  -27.2683   20.8058 C   0  0  1  0  0  0  0  0  0  0  0  0
  -38.0459  -24.4232   21.5190 C   0  0  2  0  0  0  0  0  0  0  0  0
  -29.7611  -20.3229   18.0900 C   0  0  1  0  0  0  0  0  0  0  0  0
  -36.1511  -28.5976   20.1781 C   0  0  0  0  0  0  0  0  0  0  0  0
  -30.1135  -21.4793   17.0705 C   0  0  0  0  0  0  0  0  0  0  0  0
  -25.8076  -11.5349   20.3168 N   0  0  0  0  0  0  0  0  0  0  0  0
  -26.1634  -12.8229   20.1738 N   0  0  0  0  0  0  0  0  0  0  0  0
  -33.4114  -26.9771   21.8315 N   0  0  0  0  0  0  0  0  0  0  0  0
  -29.8768  -13.6802   20.4163 N   0  0  0  0  0  0  0  0  0  0  0  0
  -25.3543  -15.0398   20.3778 N   0  0  0  0  0  0  0  0  0  0  0  0
  -21.7984  -12.5198   21.5617 N   0  0  0  0  0  0  0  0  0  0  0  0
  -29.9362  -15.7775   21.4934 N   0  0  0  0  0  0  0  0  0  0  0  0
  -31.1960  -29.4002   23.2281 N   0  0  0  0  0  0  0  0  0  0  0  0
  -36.7058  -26.4020   21.3075 N   0  0  0  0  0  0  0  0  0  0  0  0
  -37.7702  -22.9669   21.6744 N   0  3  0  0  0  0  0  0  0  0  0  0
  -22.5396  -14.6687   21.2591 O   0  0  0  0  0  0  0  0  0  0  0  0
  -31.4651  -28.5978   21.0587 O   0  0  0  0  0  0  0  0  0  0  0  0
  -35.1073  -28.1167   22.9547 O   0  0  0  0  0  0  0  0  0  0  0  0
  -36.1772  -24.5655   19.9942 O   0  0  0  0  0  0  0  0  0  0  0  0
  -31.7426  -15.0339   20.2421 O   0  0  0  0  0  0  0  0  0  0  0  0
  -21.6226   -6.9549   21.7512 O   0  0  0  0  0  0  0  0  0  0  0  0
  -29.6233  -23.2253   18.7288 O   0  0  0  0  0  0  0  0  0  1  0  0
  -24.0882   -2.9886   24.6828 F   0  0  0  0  0  0  0  0  0  0  0  0
  -20.5606   -6.1007   24.1565 F   0  0  0  0  0  0  0  0  0  0  0  0
  1  2  1  0  0  0  0
  1  5  2  0  0  0  0
  2  6  2  0  0  0  0
  3  8  2  0  0  0  0
  3 17  1  0  0  0  0
  4  9  1  0  0  0  0
  4 17  2  0  0  0  0
  5 19  1  0  0  0  0
  6 21  1  0  0  0  0
  7 10  2  0  0  0  0
  7 20  1  0  0  0  0
  8 27  1  0  0  0  0
  9 27  2  0  0  0  0
 10 28  1  0  0  0  0
 11 12  2  0  0  0  0
 11 29  1  0  0  0  0
 12 30  1  0  0  0  0
 13 22  1  0  0  0  0
 13 28  2  0  0  0  0
 14 23  2  0  0  0  0
 14 24  1  0  0  0  0
 15 23  1  0  0  0  0
 15 26  2  0  0  0  0
 16 30  2  0  0  0  0
 16 31  1  0  0  0  0
 17 32  1  0  0  0  0
 18 32  1  0  0  0  0
 18 33  2  0  0  0  0
 18 34  1  0  0  0  0
 19 21  2  0  0  0  0
 19 39  1  0  0  0  0
 20 22  2  0  0  0  0
 20 40  1  0  0  0  0
 21 48  1  0  0  0  0
 22 41  1  0  0  0  0
 23 61  1  0  0  0  0
 24 25  2  0  0  0  0
 24 62  1  0  0  0  0
 25 26  1  0  0  0  0
 25 51  1  0  0  0  0
 26 76  1  0  0  0  0
 27 85  1  0  0  0  0
 28 86  1  0  0  0  0
 29 31  2  0  0  0  0
 29 85  1  0  0  0  0
 30 87  1  0  0  0  0
 31 88  1  0  0  0  0
 32 70  2  0  0  0  0
 33 71  1  0  0  0  0
 33 74  1  0  0  0  0
 34 75  1  0  0  0  0
 34 80  2  0  0  0  0
 35 49  1  0  0  0  0
 35 77  1  0  0  0  0
 35 81  2  0  0  0  0
 36 65  1  0  0  0  0
 36 72  1  0  0  0  0
 36 82  2  0  0  0  0
 37 66  1  0  0  0  0
 37 78  1  0  0  0  0
 37 83  2  0  0  0  0
 38 73  1  0  0  0  0
 38 76  1  0  0  0  0
 38 84  2  0  0  0  0
 39 42  1  0  0  0  0
 40 49  1  0  0  0  0
 41 72  1  0  0  0  0
 42 44  1  0  0  0  0
 43 45  1  0  0  0  0
 43 46  1  0  0  0  0
 44 48  1  0  0  0  0
 45 50  1  0  0  0  0
 46 73  1  0  0  0  0
 47 50  1  0  0  0  0
 47 73  1  0  0  0  0
 48 77  1  0  0  0  0
 49 72  1  0  0  0  0
 50 71  1  0  0  0  0
 52 63  1  0  0  0  0
 53 66  1  0  0  0  0
 54 67  1  0  0  0  0
 55 68  1  0  0  0  0
 56 68  1  0  0  0  0
 57 68  1  0  0  0  0
 58 69  1  0  0  0  0
 59 69  1  0  0  0  0
 60 79  1  0  0  0  0
 61 67  1  0  0  0  0
 62 63  1  0  0  0  0
 64 69  1  0  0  0  0
 64 86  1  0  0  0  0
 65 68  1  0  0  0  0
 65 78  1  0  0  0  0
 66 79  1  0  0  0  0
 67 69  1  0  0  0  0
 70 71  1  0  0  0  0
M  CHG  1  79   1
M  ISO  4  38 100  64 101  76 100  86 101
M  END
> <Batch ID>
0140

> <Smiles>
CCCc1cc(CC(C)C(C)(C)[101CH2:1][101O:1]c2ccc3c(c2)CN(C(=O)C(NC(=O)C(C)NC)C(C)(C)C)C(C(=O)NC2CCCc4ccccc42)C3)cc([100NH:0][100C:0](=O)N2CCCC(n3nc(-c4ccc(Oc5ccc(F)cc5F)cc4)c(C(N)=O)c3N)C2)c1C

> <Shape>
0.254

> <Color>
0.205

> <Negative vol penalty>
0.000

$$$$

  -OEChem-04052302513D

 89 97  0     1  0  0  0  0  0999 V2000
  -29.0687  -34.2144   27.1396 C   0  0  0  0  0  0  0  0  0  0  0  0
  -28.7994  -32.9197   26.7075 C   0  0  0  0  0  0  0  0  0  0  0  0
  -30.8958  -19.3881   19.3488 C   0  0  0  0  0  0  0  0  0  0  0  0
  -23.2756   -9.7331   20.7259 C   0  0  0  0  0  0  0  0  0  0  0  0
  -23.9305  -10.3448   22.9695 C   0  0  0  0  0  0  0  0  0  0  0  0
  -28.0972  -35.2064   27.0134 C   0  0  0  0  0  0  0  0  0  0  0  0
  -27.5579  -32.6161   26.1498 C   0  0  0  0  0  0  0  0  0  0  0  0
  -27.9468  -29.7967   21.9612 C   0  0  0  0  0  0  0  0  0  0  0  0
  -30.0854  -20.3262   19.9881 C   0  0  0  0  0  0  0  0  0  0  0  0
  -30.8015  -18.0384   19.6881 C   0  0  0  0  0  0  0  0  0  0  0  0
  -22.5968   -8.6223   21.2269 C   0  0  0  0  0  0  0  0  0  0  0  0
  -23.2517   -9.2341   23.4706 C   0  0  0  0  0  0  0  0  0  0  0  0
  -28.1954  -28.4354   22.1308 C   0  0  0  0  0  0  0  0  0  0  0  0
  -20.9928   -5.4253   21.8829 C   0  0  0  0  0  0  0  0  0  0  0  0
  -21.1638   -4.2076   21.2245 C   0  0  0  0  0  0  0  0  0  0  0  0
  -25.8544  -27.9704   21.7810 C   0  0  0  0  0  0  0  0  0  0  0  0
  -23.5367   -4.3003   21.6692 C   0  0  0  0  0  0  0  0  0  0  0  0
  -23.9426  -10.5943   21.5972 C   0  0  0  0  0  0  0  0  0  0  0  0
  -24.1268  -13.0351   20.8789 C   0  0  0  0  0  0  0  0  0  0  0  0
  -26.8466  -34.9171   26.4451 C   0  0  0  0  0  0  0  0  0  0  0  0
  -26.6461  -30.2569   21.7106 C   0  0  0  0  0  0  0  0  0  0  0  0
  -26.5683  -33.6049   26.0171 C   0  0  0  0  0  0  0  0  0  0  0  0
  -25.5923  -29.3378   21.6060 C   0  0  0  0  0  0  0  0  0  0  0  0
  -29.1807  -19.9147   20.9667 C   0  0  0  0  0  0  0  0  0  0  0  0
  -29.0864  -18.5650   21.3061 C   0  0  0  0  0  0  0  0  0  0  0  0
  -29.8968  -17.6268   20.6667 C   0  0  0  0  0  0  0  0  0  0  0  0
  -22.5848   -8.3728   22.5992 C   0  0  0  0  0  0  0  0  0  0  0  0
  -27.1487  -27.5223   22.0436 C   0  0  0  0  0  0  0  0  0  0  0  0
  -22.0938   -6.0806   22.4344 C   0  0  0  0  0  0  0  0  0  0  0  0
  -22.4357   -3.6451   21.1177 C   0  0  0  0  0  0  0  0  0  0  0  0
  -23.3657   -5.5181   22.3276 C   0  0  0  0  0  0  0  0  0  0  0  0
  -24.6444  -11.7416   21.0803 C   0  0  0  0  0  0  0  0  0  0  0  0
  -25.1838  -13.7534   20.3754 C   0  0  0  0  0  0  0  0  0  0  0  0
  -22.8085  -13.5422   21.1249 C   0  0  0  0  0  0  0  0  0  0  0  0
  -24.6140  -32.1741   23.2267 C   0  0  0  0  0  0  0  0  0  0  0  0
  -22.8365  -31.7680   20.5438 C   0  0  0  0  0  0  0  0  0  0  0  0
  -22.0986  -29.8483   17.8203 C   0  0  0  0  0  0  0  0  0  0  0  0
  -30.5584  -15.2064   20.4435 C   0  0  0  0  0  0  0  0  0  0  0  0
  -25.8114  -36.0115   26.3729 C   0  0  0  0  0  0  0  0  0  0  0  0
  -26.3989  -31.7260   21.5035 C   0  0  0  0  0  0  0  0  0  0  0  0
  -24.1811  -29.7787   21.3186 C   0  0  0  0  0  0  0  0  0  0  0  0
  -24.6552  -35.6948   25.4278 C   0  0  0  0  0  0  0  0  0  0  0  0
  -29.7077  -12.2207   18.7002 C   0  0  0  0  0  0  0  0  0  0  0  0
  -24.1455  -34.2767   25.6643 C   0  0  0  0  0  0  0  0  0  0  0  0
  -28.2720  -11.9363   19.1474 C   0  0  0  0  0  0  0  0  0  0  0  0
  -30.5518  -12.7969   19.8356 C   0  0  0  0  0  0  0  0  0  0  0  0
  -28.5427  -13.6901   20.9468 C   0  0  0  0  0  0  0  0  0  0  0  0
  -25.2423  -33.2423   25.3842 C   0  0  1  0  0  0  0  0  0  0  0  0
  -24.9510  -32.1307   21.7631 C   0  0  1  0  0  0  0  0  0  0  0  0
  -27.6364  -13.1692   19.8195 C   0  0  2  0  0  0  0  0  0  0  0  0
  -28.1140  -18.1282   22.3567 C   0  0  0  0  0  0  0  0  0  0  0  0
  -20.5739  -29.7571   15.8293 C   0  0  0  0  0  0  0  0  0  0  0  0
  -28.0679  -24.8207   18.9547 C   0  0  0  0  0  0  0  0  0  0  0  0
  -20.5316  -30.9127   22.3511 C   0  0  0  0  0  0  0  0  0  0  0  0
  -19.4014  -29.9482   20.3360 C   0  0  0  0  0  0  0  0  0  0  0  0
  -19.8708  -32.3956   20.4488 C   0  0  0  0  0  0  0  0  0  0  0  0
  -26.0325  -22.1061   21.7903 C   0  0  0  0  0  0  0  0  0  0  0  0
  -26.3842  -20.2949   20.1129 C   0  0  0  0  0  0  0  0  0  0  0  0
  -28.0887  -23.4254   22.6399 C   0  0  0  0  0  0  0  0  0  0  0  0
  -30.0622  -23.7560   21.1294 C   0  0  0  0  0  0  0  0  0  0  0  0
  -24.3742  -29.9130   15.9291 C   0  0  0  0  0  0  0  0  0  0  0  0
  -28.3141  -20.9526   21.6439 C   0  0  0  0  0  0  0  0  0  0  0  0
  -27.5378  -22.4837   19.7552 C   0  0  0  0  0  0  0  0  0  0  0  0
  -28.6735  -25.7107   21.8224 C   0  0  0  0  0  0  0  0  0  1  0  0
  -21.7847  -30.7814   20.0974 C   0  0  1  0  0  0  0  0  0  0  0  0
  -21.9299  -30.2029   16.3539 C   0  0  2  0  0  0  0  0  0  0  0  0
  -27.6576  -23.9798   20.1799 C   0  0  1  0  0  0  0  0  0  0  0  0
  -20.4233  -31.0010   20.8157 C   0  0  0  0  0  0  0  0  0  0  0  0
  -27.0707  -21.4663   20.8532 C   0  0  0  0  0  0  0  0  0  0  0  0
  -28.6171  -24.2132   21.4160 C   0  0  0  0  0  0  0  0  0  0  0  0
  -25.9302  -11.6409   20.7329 N   0  0  0  0  0  0  0  0  0  0  0  0
  -26.2294  -12.8803   20.3081 N   0  0  0  0  0  0  0  0  0  0  0  0
  -23.9891  -31.2262   21.1300 N   0  0  0  0  0  0  0  0  0  0  0  0
  -29.8894  -13.9643   20.4214 N   0  0  0  0  0  0  0  0  0  0  0  0
  -25.3114  -15.0402   19.9880 N   0  0  0  0  0  0  0  0  0  0  0  0
  -21.8429  -12.6690   21.6441 N   0  0  0  0  0  0  0  0  0  0  0  0
  -29.8173  -16.2508   20.9952 N   0  0  0  0  0  0  0  0  0  0  0  0
  -25.3985  -33.0445   23.9591 N   0  0  0  0  0  0  0  0  0  0  0  0
  -21.7172  -30.8864   18.6439 N   0  0  0  0  0  0  0  0  0  0  0  0
  -22.9891  -29.5458   15.5370 N   0  3  0  0  0  0  0  0  0  0  0  0
  -22.4915  -14.7301   20.8760 O   0  0  0  0  0  0  0  0  0  0  0  0
  -23.7082  -31.4711   23.6592 O   0  0  0  0  0  0  0  0  0  0  0  0
  -22.6457  -32.9745   20.3720 O   0  0  0  0  0  0  0  0  0  0  0  0
  -22.5226  -28.7582   18.1975 O   0  0  0  0  0  0  0  0  0  0  0  0
  -31.6941  -15.3400   19.9805 O   0  0  0  0  0  0  0  0  0  0  0  0
  -21.9223   -7.2891   23.0884 O   0  0  0  0  0  0  0  0  0  0  0  0
  -27.3902  -26.1836   22.2105 O   0  0  0  0  0  0  0  0  0  1  0  0
  -22.5995   -2.4749   20.4868 F   0  0  0  0  0  0  0  0  0  0  0  0
  -24.4271   -6.1423   22.8565 F   0  0  0  0  0  0  0  0  0  0  0  0
  1  2  1  0  0  0  0
  1  6  2  0  0  0  0
  2  7  2  0  0  0  0
  3  9  2  0  0  0  0
  3 10  1  0  0  0  0
  4 11  2  0  0  0  0
  4 18  1  0  0  0  0
  5 12  1  0  0  0  0
  5 18  2  0  0  0  0
  6 20  1  0  0  0  0
  7 22  1  0  0  0  0
  8 13  2  0  0  0  0
  8 21  1  0  0  0  0
  9 24  1  0  0  0  0
 10 26  2  0  0  0  0
 11 27  1  0  0  0  0
 12 27  2  0  0  0  0
 13 28  1  0  0  0  0
 14 15  2  0  0  0  0
 14 29  1  0  0  0  0
 15 30  1  0  0  0  0
 16 23  1  0  0  0  0
 16 28  2  0  0  0  0
 17 30  2  0  0  0  0
 17 31  1  0  0  0  0
 18 32  1  0  0  0  0
 19 32  1  0  0  0  0
 19 33  2  0  0  0  0
 19 34  1  0  0  0  0
 20 22  2  0  0  0  0
 20 39  1  0  0  0  0
 21 23  2  0  0  0  0
 21 40  1  0  0  0  0
 22 48  1  0  0  0  0
 23 41  1  0  0  0  0
 24 25  2  0  0  0  0
 24 62  1  0  0  0  0
 25 26  1  0  0  0  0
 25 51  1  0  0  0  0
 26 77  1  0  0  0  0
 27 86  1  0  0  0  0
 28 87  1  0  0  0  0
 29 31  2  0  0  0  0
 29 86  1  0  0  0  0
 30 88  1  0  0  0  0
 31 89  1  0  0  0  0
 32 71  2  0  0  0  0
 33 72  1  0  0  0  0
 33 75  1  0  0  0  0
 34 76  1  0  0  0  0
 34 81  2  0  0  0  0
 35 49  1  0  0  0  0
 35 78  1  0  0  0  0
 35 82  2  0  0  0  0
 36 65  1  0  0  0  0
 36 73  1  0  0  0  0
 36 83  2  0  0  0  0
 37 66  1  0  0  0  0
 37 79  1  0  0  0  0
 37 84  2  0  0  0  0
 38 74  1  0  0  0  0
 38 77  1  0  0  0  0
 38 85  2  0  0  0  0
 39 42  1  0  0  0  0
 40 49  1  0  0  0  0
 41 73  1  0  0  0  0
 42 44  1  0  0  0  0
 43 45  1  0  0  0  0
 43 46  1  0  0  0  0
 44 48  1  0  0  0  0
 45 50  1  0  0  0  0
 46 74  1  0  0  0  0
 47 50  1  0  0  0  0
 47 74  1  0  0  0  0
 48 78  1  0  0  0  0
 49 73  1  0  0  0  0
 50 72  1  0  0  0  0
 52 66  1  0  0  0  0
 53 67  1  0  0  0  0
 54 68  1  0  0  0  0
 55 68  1  0  0  0  0
 56 68  1  0  0  0  0
 57 69  1  0  0  0  0
 58 69  1  0  0  0  0
 59 70  1  0  0  0  0
 60 70  1  0  0  0  0
 61 80  1  0  0  0  0
 62 69  1  0  0  0  0
 63 67  1  0  0  0  0
 63 69  1  0  0  0  0
 64 70  1  0  0  0  0
 64 87  1  0  0  0  0
 65 68  1  0  0  0  0
 65 79  1  0  0  0  0
 66 80  1  0  0  0  0
 67 70  1  0  0  0  0
 71 72  1  0  0  0  0
M  CHG  1  80   1
M  ISO  4  38 100  64 101  77 100  87 101
M  END
> <Batch ID>
0140

> <Smiles>
CNC(C)C(=O)NC(C(=O)N1Cc2cc([101O:1][101CH2:1]C(C)(C)C(C)CC(C)(C)Cc3cccc([100NH:0][100C:0](=O)N4CCCC(n5nc(-c6ccc(Oc7ccc(F)cc7F)cc6)c(C(N)=O)c5N)C4)c3C)ccc2CC1C(=O)NC1CCCc2ccccc21)C(C)(C)C

> <Shape>
0.327

> <Color>
0.179

> <Negative vol penalty>
0.000

$$$$

  -OEChem-04052302513D

 83 91  0     1  0  0  0  0  0999 V2000
  -30.0208  -23.7158   16.4512 C   0  0  0  0  0  0  0  0  0  0  0  0
  -28.6915  -24.0122   16.7351 C   0  0  0  0  0  0  0  0  0  0  0  0
  -27.1885  -14.7805   21.9456 C   0  0  0  0  0  0  0  0  0  0  0  0
  -26.1570  -15.1553   19.7932 C   0  0  0  0  0  0  0  0  0  0  0  0
  -30.9948  -23.8738   17.4363 C   0  0  0  0  0  0  0  0  0  0  0  0
  -28.3353  -24.4657   18.0047 C   0  0  0  0  0  0  0  0  0  0  0  0
  -25.1476  -28.3971   17.8395 C   0  0  0  0  0  0  0  0  0  0  0  0
  -26.8831  -13.4225   21.8555 C   0  0  0  0  0  0  0  0  0  0  0  0
  -25.8516  -13.7972   19.7031 C   0  0  0  0  0  0  0  0  0  0  0  0
  -23.8080  -28.1198   17.5705 C   0  0  0  0  0  0  0  0  0  0  0  0
  -24.4809  -10.4914   19.0686 C   0  0  0  0  0  0  0  0  0  0  0  0
  -23.2005  -10.1419   18.6396 C   0  0  0  0  0  0  0  0  0  0  0  0
  -21.5393  -23.8851   19.5023 C   0  0  0  0  0  0  0  0  0  0  0  0
  -23.3070  -28.2871   19.9243 C   0  0  0  0  0  0  0  0  0  0  0  0
  -22.2479  -11.3277   20.5167 C   0  0  0  0  0  0  0  0  0  0  0  0
  -26.8255  -15.6469   20.9144 C   0  0  0  0  0  0  0  0  0  0  0  0
  -20.9923  -24.1097   18.2164 C   0  0  0  0  0  0  0  0  0  0  0  0
  -28.3106  -17.6901   20.5574 C   0  0  0  0  0  0  0  0  0  0  0  0
  -30.6517  -24.3387   18.7157 C   0  0  0  0  0  0  0  0  0  0  0  0
  -25.5796  -28.6111   19.1563 C   0  0  0  0  0  0  0  0  0  0  0  0
  -29.3053  -24.6288   19.0082 C   0  0  0  0  0  0  0  0  0  0  0  0
  -24.6521  -28.5695   20.2070 C   0  0  0  0  0  0  0  0  0  0  0  0
  -26.2146  -12.9309   20.7343 C   0  0  0  0  0  0  0  0  0  0  0  0
  -22.8880  -28.0619   18.6132 C   0  0  0  0  0  0  0  0  0  0  0  0
  -24.6448  -11.2589   20.2218 C   0  0  0  0  0  0  0  0  0  0  0  0
  -22.0840  -10.5601   19.3636 C   0  0  0  0  0  0  0  0  0  0  0  0
  -23.5283  -11.6771   20.9458 C   0  0  0  0  0  0  0  0  0  0  0  0
  -27.1403  -17.0499   21.0071 C   0  0  0  0  0  0  0  0  0  0  0  0
  -21.4428  -23.0794   17.4244 C   0  0  0  0  0  0  0  0  0  0  0  0
  -28.1229  -19.0127   20.8768 C   0  0  0  0  0  0  0  0  0  0  0  0
  -22.2849  -22.7333   19.4044 C   0  0  0  0  0  0  0  0  0  0  0  0
  -20.1149  -25.2098   17.7745 C   0  0  0  0  0  0  0  0  0  0  0  0
  -29.4643  -17.1385   19.9090 C   0  0  0  0  0  0  0  0  0  0  0  0
  -27.6215  -27.1576   21.1112 C   0  0  0  0  0  0  0  0  0  0  0  0
  -26.9684  -29.6829   23.0396 C   0  0  0  0  0  0  0  0  0  0  0  0
  -24.8071  -32.1728   23.9205 C   0  0  0  0  0  0  0  0  0  0  0  0
  -23.2422  -22.3593   21.7044 C   0  0  0  0  0  0  0  0  0  0  0  0
  -31.7323  -24.4485   19.7621 C   0  0  0  0  0  0  0  0  0  0  0  0
  -27.0232  -28.9356   19.4269 C   0  0  0  0  0  0  0  0  0  0  0  0
  -25.0614  -28.8118   21.6361 C   0  0  0  0  0  0  0  0  0  0  0  0
  -31.3279  -25.2910   20.9691 C   0  0  0  0  0  0  0  0  0  0  0  0
  -25.8747  -21.8187   24.0400 C   0  0  0  0  0  0  0  0  0  0  0  0
  -29.9359  -24.8973   21.4528 C   0  0  0  0  0  0  0  0  0  0  0  0
  -26.6082  -20.5964   23.4831 C   0  0  0  0  0  0  0  0  0  0  0  0
  -24.3652  -21.7200   23.8270 C   0  0  0  0  0  0  0  0  0  0  0  0
  -24.6827  -20.2362   21.8863 C   0  0  0  0  0  0  0  0  0  0  0  0
  -28.8832  -25.1467   20.3660 C   0  0  1  0  0  0  0  0  0  0  0  0
  -27.4461  -28.6286   20.8602 C   0  0  1  0  0  0  0  0  0  0  0  0
  -26.2121  -20.3200   22.0195 C   0  0  2  0  0  0  0  0  0  0  0  0
  -21.2426  -22.7293   16.0100 C   0  0  0  0  0  0  0  0  0  0  0  0
  -24.5312  -34.0538   25.5585 C   0  0  0  0  0  0  0  0  0  0  0  0
  -18.7541  -27.2810   17.9874 C   0  0  0  0  0  0  0  0  0  0  0  0
  -18.8593  -25.6609   19.8880 C   0  0  0  0  0  0  0  0  0  0  0  0
  -26.2750  -27.6726   25.2277 C   0  0  0  0  0  0  0  0  0  0  0  0
  -25.1284  -29.5216   26.4664 C   0  0  0  0  0  0  0  0  0  0  0  0
  -27.5771  -29.6590   26.0107 C   0  0  0  0  0  0  0  0  0  0  0  0
  -24.7054  -34.1932   21.7603 C   0  0  0  0  0  0  0  0  0  0  0  0
  -20.8425  -27.1142   19.3708 C   0  0  0  0  0  0  0  0  0  1  0  0
  -25.9426  -29.9751   24.1079 C   0  0  1  0  0  0  0  0  0  0  0  0
  -25.0264  -33.6528   24.1776 C   0  0  2  0  0  0  0  0  0  0  0  0
  -19.6749  -26.3130   18.7611 C   0  0  0  0  0  0  0  0  0  0  0  0
  -26.2231  -29.2005   25.4266 C   0  0  0  0  0  0  0  0  0  0  0  0
  -26.2732  -17.8961   21.5694 N   0  0  0  0  0  0  0  0  0  0  0  0
  -26.8993  -19.0816   21.4753 N   0  0  0  0  0  0  0  0  0  0  0  0
  -26.4852  -29.1191   21.8503 N   0  0  0  0  0  0  0  0  0  0  0  0
  -24.0652  -21.4617   22.4170 N   0  0  0  0  0  0  0  0  0  0  0  0
  -28.8868  -20.1118   20.7013 N   0  0  0  0  0  0  0  0  0  0  0  0
  -29.4935  -15.7603   19.6559 N   0  0  0  0  0  0  0  0  0  0  0  0
  -23.0539  -22.0280   20.3630 N   0  0  0  0  0  0  0  0  0  0  0  0
  -28.5569  -26.5547   20.2921 N   0  0  0  0  0  0  0  0  0  0  0  0
  -25.9147  -31.4256   24.2613 N   0  0  0  0  0  0  0  0  0  0  0  0
  -24.3005  -34.4679   23.1630 N   0  3  0  0  0  0  0  0  0  0  0  0
  -19.7492  -25.1844   16.5996 O   0  0  0  0  0  0  0  0  0  0  0  0
  -30.4475  -17.8442   19.5790 O   0  0  0  0  0  0  0  0  0  0  0  0
  -26.9585  -26.6104   21.9845 O   0  0  0  0  0  0  0  0  0  0  0  0
  -28.1538  -29.9518   23.2498 O   0  0  0  0  0  0  0  0  0  0  0  0
  -23.7569  -31.7240   23.4665 O   0  0  0  0  0  0  0  0  0  0  0  0
  -22.7636  -23.3636   22.2375 O   0  0  0  0  0  0  0  0  0  0  0  0
  -22.2313  -22.2359   18.1410 O   0  0  0  0  0  0  0  0  0  0  0  0
  -25.9166  -11.6057   20.6460 O   0  0  0  0  0  0  0  0  0  0  0  0
  -21.5800  -27.7908   18.3536 O   0  0  0  0  0  0  0  0  0  1  0  0
  -20.8545  -10.2257   18.9506 F   0  0  0  0  0  0  0  0  0  0  0  0
  -23.6794  -12.4156   22.0537 F   0  0  0  0  0  0  0  0  0  0  0  0
  1  2  1  0  0  0  0
  1  5  2  0  0  0  0
  2  6  2  0  0  0  0
  3  8  2  0  0  0  0
  3 16  1  0  0  0  0
  4  9  1  0  0  0  0
  4 16  2  0  0  0  0
  5 19  1  0  0  0  0
  6 21  1  0  0  0  0
  7 10  2  0  0  0  0
  7 20  1  0  0  0  0
  8 23  1  0  0  0  0
  9 23  2  0  0  0  0
 10 24  1  0  0  0  0
 11 12  2  0  0  0  0
 11 25  1  0  0  0  0
 12 26  1  0  0  0  0
 13 17  1  0  0  0  0
 13 31  2  0  0  0  0
 14 22  1  0  0  0  0
 14 24  2  0  0  0  0
 15 26  2  0  0  0  0
 15 27  1  0  0  0  0
 16 28  1  0  0  0  0
 17 29  2  0  0  0  0
 17 32  1  0  0  0  0
 18 28  1  0  0  0  0
 18 30  2  0  0  0  0
 18 33  1  0  0  0  0
 19 21  2  0  0  0  0
 19 38  1  0  0  0  0
 20 22  2  0  0  0  0
 20 39  1  0  0  0  0
 21 47  1  0  0  0  0
 22 40  1  0  0  0  0
 23 80  1  0  0  0  0
 24 81  1  0  0  0  0
 25 27  2  0  0  0  0
 25 80  1  0  0  0  0
 26 82  1  0  0  0  0
 27 83  1  0  0  0  0
 28 63  2  0  0  0  0
 29 50  1  0  0  0  0
 29 79  1  0  0  0  0
 30 64  1  0  0  0  0
 30 67  1  0  0  0  0
 31 69  1  0  0  0  0
 31 79  1  0  0  0  0
 32 61  1  0  0  0  0
 32 73  2  0  0  0  0
 33 68  1  0  0  0  0
 33 74  2  0  0  0  0
 34 48  1  0  0  0  0
 34 70  1  0  0  0  0
 34 75  2  0  0  0  0
 35 59  1  0  0  0  0
 35 65  1  0  0  0  0
 35 76  2  0  0  0  0
 36 60  1  0  0  0  0
 36 71  1  0  0  0  0
 36 77  2  0  0  0  0
 37 66  1  0  0  0  0
 37 69  1  0  0  0  0
 37 78  2  0  0  0  0
 38 41  1  0  0  0  0
 39 48  1  0  0  0  0
 40 65  1  0  0  0  0
 41 43  1  0  0  0  0
 42 44  1  0  0  0  0
 42 45  1  0  0  0  0
 43 47  1  0  0  0  0
 44 49  1  0  0  0  0
 45 66  1  0  0  0  0
 46 49  1  0  0  0  0
 46 66  1  0  0  0  0
 47 70  1  0  0  0  0
 48 65  1  0  0  0  0
 49 64  1  0  0  0  0
 51 60  1  0  0  0  0
 52 61  1  0  0  0  0
 53 61  1  0  0  0  0
 54 62  1  0  0  0  0
 55 62  1  0  0  0  0
 56 62  1  0  0  0  0
 57 72  1  0  0  0  0
 58 61  1  0  0  0  0
 58 81  1  0  0  0  0
 59 62  1  0  0  0  0
 59 71  1  0  0  0  0
 60 72  1  0  0  0  0
 63 64  1  0  0  0  0
M  CHG  1  72   1
M  ISO  4  37 100  58 101  69 100  81 101
M  END
> <Batch ID>
0140

> <Smiles>
CNC(C)C(=O)NC(C(=O)N1Cc2cc([101O:1][101CH2:1]C(C)(C)C(=O)c3cc([100NH:0][100C:0](=O)N4CCCC(n5nc(-c6ccc(Oc7ccc(F)cc7F)cc6)c(C(N)=O)c5N)C4)oc3C)ccc2CC1C(=O)NC1CCCc2ccccc21)C(C)(C)C

> <Shape>
0.225

> <Color>
0.070

> <Negative vol penalty>
0.000

$$$$

  -OEChem-04052302513D

 85 94  0     1  0  0  0  0  0999 V2000
  -18.6645  -31.2196   22.7824 C   0  0  0  0  0  0  0  0  0  0  0  0
  -20.0430  -31.1160   22.6258 C   0  0  0  0  0  0  0  0  0  0  0  0
  -26.3536  -18.8588   19.6504 C   0  0  0  0  0  0  0  0  0  0  0  0
  -27.6849  -17.9552   21.4527 C   0  0  0  0  0  0  0  0  0  0  0  0
  -17.8837  -30.0668   22.8546 C   0  0  0  0  0  0  0  0  0  0  0  0
  -20.6416  -29.8594   22.5425 C   0  0  0  0  0  0  0  0  0  0  0  0
  -25.5264  -28.3241   19.1828 C   0  0  0  0  0  0  0  0  0  0  0  0
  -36.2611  -26.1576   20.5468 C   0  0  0  0  0  0  0  0  0  0  0  0
  -25.6042  -17.6830   19.6144 C   0  0  0  0  0  0  0  0  0  0  0  0
  -26.9354  -16.7793   21.4167 C   0  0  0  0  0  0  0  0  0  0  0  0
  -26.8767  -28.1839   19.5003 C   0  0  0  0  0  0  0  0  0  0  0  0
  -26.7816  -13.9799   19.5272 C   0  0  0  0  0  0  0  0  0  0  0  0
  -36.4273  -27.3130   19.7833 C   0  0  0  0  0  0  0  0  0  0  0  0
  -27.4724  -12.7692   19.5791 C   0  0  0  0  0  0  0  0  0  0  0  0
  -26.5562  -25.8105   19.7888 C   0  0  0  0  0  0  0  0  0  0  0  0
  -34.2040  -28.0358   20.3930 C   0  0  0  0  0  0  0  0  0  0  0  0
  -26.2986  -12.1863   21.6087 C   0  0  0  0  0  0  0  0  0  0  0  0
  -27.3940  -18.9949   20.5695 C   0  0  0  0  0  0  0  0  0  0  0  0
  -27.9097  -21.3597   21.3755 C   0  0  0  0  0  0  0  0  0  0  0  0
  -18.4719  -28.7955   22.7623 C   0  0  0  0  0  0  0  0  0  0  0  0
  -24.6771  -27.2082   19.1765 C   0  0  0  0  0  0  0  0  0  0  0  0
  -19.8681  -28.6884   22.6148 C   0  0  0  0  0  0  0  0  0  0  0  0
  -25.1961  -25.9388   19.4684 C   0  0  0  0  0  0  0  0  0  0  0  0
  -34.0378  -26.8803   21.1565 C   0  0  0  0  0  0  0  0  0  0  0  0
  -35.0663  -25.9412   21.2334 C   0  0  0  0  0  0  0  0  0  0  0  0
  -25.8950  -16.6433   20.4976 C   0  0  0  0  0  0  0  0  0  0  0  0
  -27.3912  -26.9274   19.8062 C   0  0  0  0  0  0  0  0  0  0  0  0
  -25.8493  -14.2938   20.5162 C   0  0  0  0  0  0  0  0  0  0  0  0
  -35.3988  -28.2521   19.7064 C   0  0  0  0  0  0  0  0  0  0  0  0
  -27.2309  -11.8724   20.6198 C   0  0  0  0  0  0  0  0  0  0  0  0
  -25.6078  -13.3971   21.5569 C   0  0  0  0  0  0  0  0  0  0  0  0
  -28.1689  -20.2091   20.6069 C   0  0  0  0  0  0  0  0  0  0  0  0
  -28.9294  -22.2228   21.0562 C   0  0  0  0  0  0  0  0  0  0  0  0
  -26.8428  -21.6246   22.2958 C   0  0  0  0  0  0  0  0  0  0  0  0
  -22.0877  -26.3510   20.8087 C   0  0  0  0  0  0  0  0  0  0  0  0
  -22.0672  -23.8713   18.7175 C   0  0  0  0  0  0  0  0  0  0  0  0
  -23.8194  -21.8695   16.5798 C   0  0  0  0  0  0  0  0  0  0  0  0
  -34.3382  -23.2325   20.1230 C   0  0  0  0  0  0  0  0  0  0  0  0
  -17.5923  -27.5774   22.8930 C   0  0  0  0  0  0  0  0  0  0  0  0
  -23.2286  -27.3722   18.8058 C   0  0  0  0  0  0  0  0  0  0  0  0
  -24.3307  -24.7062   19.4558 C   0  0  0  0  0  0  0  0  0  0  0  0
  -18.2614  -26.2894   22.4203 C   0  0  0  0  0  0  0  0  0  0  0  0
  -32.4136  -21.9919   17.3965 C   0  0  0  0  0  0  0  0  0  0  0  0
  -32.4589  -27.8065   22.8824 C   0  0  0  0  0  0  0  0  0  0  0  0
  -19.6749  -26.1840   22.9841 C   0  0  0  0  0  0  0  0  0  0  0  0
  -31.2007  -28.4997   22.3695 C   0  0  0  0  0  0  0  0  0  0  0  0
  -31.1197  -21.5070   18.0528 C   0  0  0  0  0  0  0  0  0  0  0  0
  -31.5581  -26.6564   20.9059 C   0  0  0  0  0  0  0  0  0  0  0  0
  -33.6286  -21.7317   18.2843 C   0  0  0  0  0  0  0  0  0  0  0  0
  -32.2267  -21.7823   20.3106 C   0  0  0  0  0  0  0  0  0  0  0  0
  -32.7507  -26.6699   21.8803 C   0  0  1  0  0  0  0  0  0  0  0  0
  -20.5515  -27.3435   22.4956 C   0  0  1  0  0  0  0  0  0  0  0  0
  -22.3458  -26.2448   19.3323 C   0  0  1  0  0  0  0  0  0  0  0  0
  -30.4442  -27.3850   21.6553 C   0  0  2  0  0  0  0  0  0  0  0  0
  -30.9670  -22.0736   19.4772 C   0  0  2  0  0  0  0  0  0  0  0  0
  -23.5379  -19.9055   15.0433 C   0  0  0  0  0  0  0  0  0  0  0  0
  -21.9714  -22.0026   21.1277 C   0  0  0  0  0  0  0  0  0  0  0  0
  -22.6441  -20.1267   19.6121 C   0  0  0  0  0  0  0  0  0  0  0  0
  -20.4930  -21.3294   19.2262 C   0  0  0  0  0  0  0  0  0  0  0  0
  -24.6545  -23.4483   14.2199 C   0  0  0  0  0  0  0  0  0  0  0  0
  -34.9113  -24.6961   22.0435 C   0  0  0  0  0  0  0  0  0  0  0  0
  -29.3489  -27.8979   20.7451 C   0  0  0  0  0  0  0  0  0  1  0  0
  -22.6748  -22.4895   18.6916 C   0  0  1  0  0  0  0  0  0  0  0  0
  -23.5347  -21.4220   15.1574 C   0  0  2  0  0  0  0  0  0  0  0  0
  -21.9620  -21.5104   19.6666 C   0  0  0  0  0  0  0  0  0  0  0  0
  -29.2670  -20.3274   19.8557 N   0  0  0  0  0  0  0  0  0  0  0  0
  -29.7068  -21.5625   20.1507 N   0  0  0  0  0  0  0  0  0  0  0  0
  -22.9197  -24.9190   19.0933 N   0  0  0  0  0  0  0  0  0  0  0  0
  -33.4203  -22.2956   19.6201 N   0  0  0  0  0  0  0  0  0  0  0  0
  -29.2278  -23.4745   21.4643 N   0  0  0  0  0  0  0  0  0  0  0  0
  -25.8796  -20.6286   22.5068 N   0  0  0  0  0  0  0  0  0  0  0  0
  -20.9815  -27.1128   21.1331 N   0  0  0  0  0  0  0  0  0  0  0  0
  -22.6575  -22.0621   17.2969 N   0  0  0  0  0  0  0  0  0  0  0  0
  -34.0630  -23.7218   21.3940 N   0  0  0  0  0  0  0  0  0  0  0  0
  -24.5647  -21.9655   14.2275 N   0  3  0  0  0  0  0  0  0  0  0  0
  -26.7372  -22.7186   22.9004 O   0  0  0  0  0  0  0  0  0  0  0  0
  -22.8359  -25.7824   21.5952 O   0  0  0  0  0  0  0  0  0  0  0  0
  -20.8819  -24.0165   18.4085 O   0  0  0  0  0  0  0  0  0  0  0  0
  -24.9587  -22.0286   17.0127 O   0  0  0  0  0  0  0  0  0  0  0  0
  -35.3266  -23.6092   19.4842 O   0  0  0  0  0  0  0  0  0  0  0  0
  -25.1638  -15.4958   20.4629 O   0  0  0  0  0  0  0  0  0  0  0  0
  -28.7087  -26.7879   20.1171 O   0  0  0  0  0  0  0  0  0  1  0  0
  -35.5585  -29.3620   18.9738 F   0  0  0  0  0  0  0  0  0  0  0  0
  -27.8932  -10.7092   20.6686 F   0  0  0  0  0  0  0  0  0  0  0  0
  -24.7125  -13.6926   22.5092 F   0  0  0  0  0  0  0  0  0  0  0  0
  1  2  1  0  0  0  0
  1  5  2  0  0  0  0
  2  6  2  0  0  0  0
  3  9  2  0  0  0  0
  3 18  1  0  0  0  0
  4 10  1  0  0  0  0
  4 18  2  0  0  0  0
  5 20  1  0  0  0  0
  6 22  1  0  0  0  0
  7 11  2  0  0  0  0
  7 21  1  0  0  0  0
  8 13  2  0  0  0  0
  8 25  1  0  0  0  0
  9 26  1  0  0  0  0
 10 26  2  0  0  0  0
 11 27  1  0  0  0  0
 12 14  2  0  0  0  0
 12 28  1  0  0  0  0
 13 29  1  0  0  0  0
 14 30  1  0  0  0  0
 15 23  1  0  0  0  0
 15 27  2  0  0  0  0
 16 24  1  0  0  0  0
 16 29  2  0  0  0  0
 17 30  2  0  0  0  0
 17 31  1  0  0  0  0
 18 32  1  0  0  0  0
 19 32  1  0  0  0  0
 19 33  2  0  0  0  0
 19 34  1  0  0  0  0
 20 22  2  0  0  0  0
 20 39  1  0  0  0  0
 21 23  2  0  0  0  0
 21 40  1  0  0  0  0
 22 52  1  0  0  0  0
 23 41  1  0  0  0  0
 24 25  2  0  0  0  0
 24 51  1  0  0  0  0
 25 61  1  0  0  0  0
 26 81  1  0  0  0  0
 27 82  1  0  0  0  0
 28 31  2  0  0  0  0
 28 81  1  0  0  0  0
 29 83  1  0  0  0  0
 30 84  1  0  0  0  0
 31 85  1  0  0  0  0
 32 66  2  0  0  0  0
 33 67  1  0  0  0  0
 33 70  1  0  0  0  0
 34 71  1  0  0  0  0
 34 76  2  0  0  0  0
 35 53  1  0  0  0  0
 35 72  1  0  0  0  0
 35 77  2  0  0  0  0
 36 63  1  0  0  0  0
 36 68  1  0  0  0  0
 36 78  2  0  0  0  0
 37 64  1  0  0  0  0
 37 73  1  0  0  0  0
 37 79  2  0  0  0  0
 38 69  1  0  0  0  0
 38 74  1  0  0  0  0
 38 80  2  0  0  0  0
 39 42  1  0  0  0  0
 40 53  1  0  0  0  0
 41 68  1  0  0  0  0
 42 45  1  0  0  0  0
 43 47  1  0  0  0  0
 43 49  1  0  0  0  0
 44 46  1  0  0  0  0
 44 51  1  0  0  0  0
 45 52  1  0  0  0  0
 46 54  1  0  0  0  0
 47 55  1  0  0  0  0
 48 51  1  0  0  0  0
 48 54  1  0  0  0  0
 49 69  1  0  0  0  0
 50 55  1  0  0  0  0
 50 69  1  0  0  0  0
 52 72  1  0  0  0  0
 53 68  1  0  0  0  0
 54 62  1  0  0  0  0
 55 67  1  0  0  0  0
 56 64  1  0  0  0  0
 57 65  1  0  0  0  0
 58 65  1  0  0  0  0
 59 65  1  0  0  0  0
 60 75  1  0  0  0  0
 61 74  1  0  0  0  0
 62 82  1  0  0  0  0
 63 65  1  0  0  0  0
 63 73  1  0  0  0  0
 64 75  1  0  0  0  0
 66 67  1  0  0  0  0
M  CHG  1  75   1
M  ISO  4  38 100  62 101  74 100  82 101
M  END
> <Batch ID>
0140

> <Smiles>
CNC(C)C(=O)NC(C(=O)N1Cc2cc([101O:1][101CH2:1]C3CCC(c4cc(F)ccc4C[100NH:0][100C:0](=O)N4CCCC(n5nc(-c6ccc(Oc7ccc(F)cc7F)cc6)c(C(N)=O)c5N)C4)C3)ccc2CC1C(=O)NC1CCCc2ccccc21)C(C)(C)C

> <Shape>
0.191

> <Color>
0.078

> <Negative vol penalty>
0.000

$$$$

  -OEChem-04052302513D

 81 89  0     1  0  0  0  0  0999 V2000
  -37.9666  -27.8894   14.4400 C   0  0  0  0  0  0  0  0  0  0  0  0
  -37.9198  -26.7105   15.1770 C   0  0  0  0  0  0  0  0  0  0  0  0
  -23.1144   -9.8482   19.9260 C   0  0  0  0  0  0  0  0  0  0  0  0
  -23.4978   -9.9614   22.3087 C   0  0  0  0  0  0  0  0  0  0  0  0
  -37.0557  -28.9115   14.7034 C   0  0  0  0  0  0  0  0  0  0  0  0
  -36.9626  -26.5534   16.1788 C   0  0  0  0  0  0  0  0  0  0  0  0
  -34.7292  -22.0106   16.0367 C   0  0  0  0  0  0  0  0  0  0  0  0
  -22.3065   -8.7260   20.1093 C   0  0  0  0  0  0  0  0  0  0  0  0
  -22.6898   -8.8392   22.4921 C   0  0  0  0  0  0  0  0  0  0  0  0
  -35.4431  -20.9335   16.5600 C   0  0  0  0  0  0  0  0  0  0  0  0
  -22.9681   -5.4868   22.1531 C   0  0  0  0  0  0  0  0  0  0  0  0
  -23.4304   -4.4884   23.0105 C   0  0  0  0  0  0  0  0  0  0  0  0
  -34.1665  -21.0866   18.6010 C   0  0  0  0  0  0  0  0  0  0  0  0
  -33.7578  -17.3724   16.7580 C   0  0  0  0  0  0  0  0  0  0  0  0
  -21.4840   -4.7888   24.4099 C   0  0  0  0  0  0  0  0  0  0  0  0
  -35.3569  -15.8211   16.6452 C   0  0  0  0  0  0  0  0  0  0  0  0
  -23.7101  -10.4658   21.0257 C   0  0  0  0  0  0  0  0  0  0  0  0
  -24.1410  -12.9732   20.8382 C   0  0  0  0  0  0  0  0  0  0  0  0
  -36.0807  -28.7631   15.7024 C   0  0  0  0  0  0  0  0  0  0  0  0
  -33.7343  -22.6419   16.7971 C   0  0  0  0  0  0  0  0  0  0  0  0
  -36.0386  -27.5750   16.4568 C   0  0  0  0  0  0  0  0  0  0  0  0
  -33.4396  -22.1699   18.0842 C   0  0  0  0  0  0  0  0  0  0  0  0
  -35.1438  -17.1766   16.5486 C   0  0  0  0  0  0  0  0  0  0  0  0
  -22.0942   -8.2215   21.3923 C   0  0  0  0  0  0  0  0  0  0  0  0
  -35.1638  -20.4731   17.8434 C   0  0  0  0  0  0  0  0  0  0  0  0
  -21.7637   -6.1363   22.4242 C   0  0  0  0  0  0  0  0  0  0  0  0
  -22.6884   -4.1394   24.1389 C   0  0  0  0  0  0  0  0  0  0  0  0
  -21.0217   -5.7872   23.5525 C   0  0  0  0  0  0  0  0  0  0  0  0
  -24.5452  -11.6247   20.8370 C   0  0  0  0  0  0  0  0  0  0  0  0
  -33.2227  -16.1226   16.9674 C   0  0  0  0  0  0  0  0  0  0  0  0
  -25.2987  -13.6789   20.6192 C   0  0  0  0  0  0  0  0  0  0  0  0
  -31.8694  -15.8011   17.2215 C   0  0  0  0  0  0  0  0  0  0  0  0
  -31.3489  -14.5503   17.4504 C   0  0  0  0  0  0  0  0  0  0  0  0
  -22.8356  -13.5374   21.0210 C   0  0  0  0  0  0  0  0  0  0  0  0
  -29.9058  -14.3775   17.7119 C   0  0  0  0  0  0  0  0  0  0  0  0
  -33.3129  -25.5748   17.9477 C   0  0  0  0  0  0  0  0  0  0  0  0
  -30.4179  -24.3974   18.8163 C   0  0  0  0  0  0  0  0  0  0  0  0
  -28.5075  -21.6734   19.5761 C   0  0  0  0  0  0  0  0  0  0  0  0
  -35.1476  -29.9143   15.9829 C   0  0  0  0  0  0  0  0  0  0  0  0
  -32.9549  -23.7855   16.2081 C   0  0  0  0  0  0  0  0  0  0  0  0
  -32.3672  -22.7999   18.9336 C   0  0  0  0  0  0  0  0  0  0  0  0
  -33.9252  -29.5205   16.8082 C   0  0  0  0  0  0  0  0  0  0  0  0
  -30.1230  -12.2108   20.6598 C   0  0  0  0  0  0  0  0  0  0  0  0
  -34.3391  -28.6613   17.9987 C   0  0  0  0  0  0  0  0  0  0  0  0
  -28.6462  -11.9405   20.9350 C   0  0  0  0  0  0  0  0  0  0  0  0
  -30.4116  -12.3406   19.1650 C   0  0  0  0  0  0  0  0  0  0  0  0
  -28.0844  -13.0866   18.7554 C   0  0  0  0  0  0  0  0  0  0  0  0
  -34.9992  -27.3572   17.5349 C   0  0  1  0  0  0  0  0  0  0  0  0
  -32.3164  -24.6808   17.2656 C   0  0  1  0  0  0  0  0  0  0  0  0
  -27.7632  -12.9992   20.2556 C   0  0  1  0  0  0  0  0  0  0  0  0
  -26.1876  -21.0299   20.2842 C   0  0  0  0  0  0  0  0  0  0  0  0
  -31.0238  -25.3435   21.6531 C   0  0  0  0  0  0  0  0  0  0  0  0
  -29.1706  -23.8694   22.4660 C   0  0  0  0  0  0  0  0  0  0  0  0
  -28.6735  -25.7456   20.8990 C   0  0  0  0  0  0  0  0  0  0  0  0
  -37.9027  -19.9095   17.1869 C   0  0  0  0  0  0  0  0  0  0  0  0
  -37.5229  -17.7107   18.3276 C   0  0  0  0  0  0  0  0  0  0  0  0
  -28.0841  -20.0595   17.1317 C   0  0  0  0  0  0  0  0  0  0  0  0
  -36.1821  -18.2405   16.2741 C   0  0  0  0  0  0  0  0  0  0  0  0
  -29.8719  -23.6938   20.0353 C   0  0  1  0  0  0  0  0  0  0  0  0
  -27.1270  -21.2491   19.1085 C   0  0  2  0  0  0  0  0  0  0  0  0
  -29.7065  -24.6523   21.2483 C   0  0  0  0  0  0  0  0  0  0  0  0
  -36.8621  -18.8388   17.5255 C   0  0  0  0  0  0  0  0  0  1  0  0
  -25.8573  -11.4800   20.6332 N   0  0  0  0  0  0  0  0  0  0  0  0
  -26.2875  -12.7466   20.5043 N   0  0  0  0  0  0  0  0  0  0  0  0
  -29.5153  -13.3161   18.5265 N   0  0  0  0  0  0  0  0  0  0  0  0
  -31.6371  -23.9192   18.3157 N   0  0  0  0  0  0  0  0  0  0  0  0
  -25.5572  -14.9999   20.5156 N   0  0  0  0  0  0  0  0  0  0  0  0
  -21.7565  -12.6691   21.2351 N   0  0  0  0  0  0  0  0  0  0  0  0
  -33.9964  -26.4140   17.0886 N   0  0  0  0  0  0  0  0  0  0  0  0
  -28.6349  -23.0459   19.6128 N   0  0  0  0  0  0  0  0  0  0  0  0
  -27.2107  -19.9806   18.3309 N   0  3  0  0  0  0  0  0  0  0  0  0
  -22.6296  -14.7741   20.9788 O   0  0  0  0  0  0  0  0  0  0  0  0
  -29.1327  -15.1819   17.1884 O   0  0  0  0  0  0  0  0  0  0  0  0
  -33.4505  -25.5092   19.1636 O   0  0  0  0  0  0  0  0  0  0  0  0
  -29.7823  -25.3320   18.3221 O   0  0  0  0  0  0  0  0  0  0  0  0
  -29.3839  -20.8679   19.8821 O   0  0  0  0  0  0  0  0  0  0  0  0
  -34.1909  -15.1715   16.9002 O   0  0  0  0  0  0  0  0  0  0  0  0
  -21.3057   -7.1267   21.5716 O   0  0  0  0  0  0  0  0  0  0  0  0
  -35.8596  -19.4223   18.3568 O   0  0  0  0  0  0  0  0  0  1  0  0
  -23.1317   -3.1796   24.9613 F   0  0  0  0  0  0  0  0  0  0  0  0
  -19.8633   -6.4068   23.8175 F   0  0  0  0  0  0  0  0  0  0  0  0
  1  2  1  0  0  0  0
  1  5  2  0  0  0  0
  2  6  2  0  0  0  0
  3  8  2  0  0  0  0
  3 17  1  0  0  0  0
  4  9  1  0  0  0  0
  4 17  2  0  0  0  0
  5 19  1  0  0  0  0
  6 21  1  0  0  0  0
  7 10  2  0  0  0  0
  7 20  1  0  0  0  0
  8 24  1  0  0  0  0
  9 24  2  0  0  0  0
 10 25  1  0  0  0  0
 11 12  2  0  0  0  0
 11 26  1  0  0  0  0
 12 27  1  0  0  0  0
 13 22  1  0  0  0  0
 13 25  2  0  0  0  0
 14 23  1  0  0  0  0
 14 30  2  0  0  0  0
 15 27  2  0  0  0  0
 15 28  1  0  0  0  0
 16 23  2  0  0  0  0
 16 77  1  0  0  0  0
 17 29  1  0  0  0  0
 18 29  1  0  0  0  0
 18 31  2  0  0  0  0
 18 34  1  0  0  0  0
 19 21  2  0  0  0  0
 19 39  1  0  0  0  0
 20 22  2  0  0  0  0
 20 40  1  0  0  0  0
 21 48  1  0  0  0  0
 22 41  1  0  0  0  0
 23 58  1  0  0  0  0
 24 78  1  0  0  0  0
 25 79  1  0  0  0  0
 26 28  2  0  0  0  0
 26 78  1  0  0  0  0
 27 80  1  0  0  0  0
 28 81  1  0  0  0  0
 29 63  2  0  0  0  0
 30 32  1  0  0  0  0
 30 77  1  0  0  0  0
 31 64  1  0  0  0  0
 31 67  1  0  0  0  0
 32 33  2  0  0  0  0
 33 35  1  0  0  0  0
 34 68  1  0  0  0  0
 34 72  2  0  0  0  0
 35 65  1  0  0  0  0
 35 73  2  0  0  0  0
 36 49  1  0  0  0  0
 36 69  1  0  0  0  0
 36 74  2  0  0  0  0
 37 59  1  0  0  0  0
 37 66  1  0  0  0  0
 37 75  2  0  0  0  0
 38 60  1  0  0  0  0
 38 70  1  0  0  0  0
 38 76  2  0  0  0  0
 39 42  1  0  0  0  0
 40 49  1  0  0  0  0
 41 66  1  0  0  0  0
 42 44  1  0  0  0  0
 43 45  1  0  0  0  0
 43 46  1  0  0  0  0
 44 48  1  0  0  0  0
 45 50  1  0  0  0  0
 46 65  1  0  0  0  0
 47 50  1  0  0  0  0
 47 65  1  0  0  0  0
 48 69  1  0  0  0  0
 49 66  1  0  0  0  0
 50 64  1  0  0  0  0
 51 60  1  0  0  0  0
 52 61  1  0  0  0  0
 53 61  1  0  0  0  0
 54 61  1  0  0  0  0
 55 62  1  0  0  0  0
 56 62  1  0  0  0  0
 57 71  1  0  0  0  0
 58 62  1  0  0  0  0
 59 61  1  0  0  0  0
 59 70  1  0  0  0  0
 60 71  1  0  0  0  0
 62 79  1  0  0  0  0
 63 64  1  0  0  0  0
M  CHG  1  71   1
M  ISO  4  33 100  35 100  62 101  79 101
M  END
> <Batch ID>
0140

> <Smiles>
CNC(C)C(=O)NC(C(=O)N1Cc2cc([101O:1][101C:1](C)(C)Cc3coc(C=[100CH:0][100C:0](=O)N4CCCC(n5nc(-c6ccc(Oc7ccc(F)cc7F)cc6)c(C(N)=O)c5N)C4)c3)ccc2CC1C(=O)NC1CCCc2ccccc21)C(C)(C)C

> <Shape>
0.206

> <Color>
0.206

> <Negative vol penalty>
0.000

$$$$

  -OEChem-04052302513D

 82 90  0     1  0  0  0  0  0999 V2000
  -29.5634  -23.6019   18.0148 C   0  0  0  0  0  0  0  0  0  0  0  0
  -28.3626  -23.7181   18.7076 C   0  0  0  0  0  0  0  0  0  0  0  0
  -25.3406  -13.4653   20.3580 C   0  0  0  0  0  0  0  0  0  0  0  0
  -23.5100  -14.7433   21.2815 C   0  0  0  0  0  0  0  0  0  0  0  0
  -30.6548  -24.3905   18.3767 C   0  0  0  0  0  0  0  0  0  0  0  0
  -28.2528  -24.6222   19.7635 C   0  0  0  0  0  0  0  0  0  0  0  0
  -23.9540  -27.2935   19.5949 C   0  0  0  0  0  0  0  0  0  0  0  0
  -24.8864  -12.3298   21.0289 C   0  0  0  0  0  0  0  0  0  0  0  0
  -23.0558  -13.6078   21.9524 C   0  0  0  0  0  0  0  0  0  0  0  0
  -22.7916  -26.6573   20.0283 C   0  0  0  0  0  0  0  0  0  0  0  0
  -22.4677  -10.0011   20.6292 C   0  0  0  0  0  0  0  0  0  0  0  0
  -22.4224   -8.8024   19.9175 C   0  0  0  0  0  0  0  0  0  0  0  0
  -22.9744  -27.7841   22.1534 C   0  0  0  0  0  0  0  0  0  0  0  0
  -23.5552  -23.9174   23.1957 C   0  0  0  0  0  0  0  0  0  0  0  0
  -23.9556   -7.8067   21.4970 C   0  0  0  0  0  0  0  0  0  0  0  0
  -22.5726  -21.9526   23.5835 C   0  0  0  0  0  0  0  0  0  0  0  0
  -24.6525  -14.6720   20.4843 C   0  0  0  0  0  0  0  0  0  0  0  0
  -24.7639  -16.2686   18.4979 C   0  0  0  0  0  0  0  0  0  0  0  0
  -30.5554  -25.3116   19.4314 C   0  0  0  0  0  0  0  0  0  0  0  0
  -24.6425  -28.1729   20.4429 C   0  0  0  0  0  0  0  0  0  0  0  0
  -29.3443  -25.4228   20.1408 C   0  0  0  0  0  0  0  0  0  0  0  0
  -24.1438  -28.4321   21.7275 C   0  0  0  0  0  0  0  0  0  0  0  0
  -22.3084  -23.2953   23.4439 C   0  0  0  0  0  0  0  0  0  0  0  0
  -23.7440  -12.4011   21.8261 C   0  0  0  0  0  0  0  0  0  0  0  0
  -22.3032  -26.9003   21.3087 C   0  0  0  0  0  0  0  0  0  0  0  0
  -23.2570  -10.1027   21.7748 C   0  0  0  0  0  0  0  0  0  0  0  0
  -23.1663   -7.7052   20.3514 C   0  0  0  0  0  0  0  0  0  0  0  0
  -24.0009   -9.0055   22.2087 C   0  0  0  0  0  0  0  0  0  0  0  0
  -25.1215  -15.8454   19.7920 C   0  0  0  0  0  0  0  0  0  0  0  0
  -24.4924  -22.9107   23.2017 C   0  0  0  0  0  0  0  0  0  0  0  0
  -25.4756  -17.4277   18.3068 C   0  0  0  0  0  0  0  0  0  0  0  0
  -23.8684  -15.6678   17.5530 C   0  0  0  0  0  0  0  0  0  0  0  0
  -27.5481  -28.2335   21.7303 C   0  0  0  0  0  0  0  0  0  0  0  0
  -26.6138  -31.1705   22.7420 C   0  0  0  0  0  0  0  0  0  0  0  0
  -24.0527  -33.2873   23.5211 C   0  0  0  0  0  0  0  0  0  0  0  0
  -27.7630  -21.4766   22.0785 C   0  0  0  0  0  0  0  0  0  0  0  0
  -31.7766  -26.1085   19.8167 C   0  0  0  0  0  0  0  0  0  0  0  0
  -25.8802  -28.8718   19.9508 C   0  0  0  0  0  0  0  0  0  0  0  0
  -24.8346  -29.3831   22.6693 C   0  0  0  0  0  0  0  0  0  0  0  0
  -31.4644  -27.3101   20.7050 C   0  0  0  0  0  0  0  0  0  0  0  0
  -29.5322  -19.5921   19.6299 C   0  0  0  0  0  0  0  0  0  0  0  0
  -30.5176  -26.9093   21.8318 C   0  0  0  0  0  0  0  0  0  0  0  0
  -28.5701  -18.4563   19.2770 C   0  0  0  0  0  0  0  0  0  0  0  0
  -29.4602  -19.9527   21.1121 C   0  0  0  0  0  0  0  0  0  0  0  0
  -27.1440  -19.1232   21.2570 C   0  0  0  0  0  0  0  0  0  0  0  0
  -29.1786  -26.4098   21.2759 C   0  0  1  0  0  0  0  0  0  0  0  0
  -26.7841  -29.3530   21.0816 C   0  0  1  0  0  0  0  0  0  0  0  0
  -27.1401  -18.7619   19.7617 C   0  0  2  0  0  0  0  0  0  0  0  0
  -23.6019  -35.6107   24.3553 C   0  0  0  0  0  0  0  0  0  0  0  0
  -27.3708  -30.3005   25.5669 C   0  0  0  0  0  0  0  0  0  0  0  0
  -26.0449  -32.2351   26.4431 C   0  0  0  0  0  0  0  0  0  0  0  0
  -28.0278  -32.6424   24.9853 C   0  0  0  0  0  0  0  0  0  0  0  0
  -19.8478  -22.7253   21.5957 C   0  0  0  0  0  0  0  0  0  0  0  0
  -18.7926  -24.7625   22.5675 C   0  0  0  0  0  0  0  0  0  0  0  0
  -22.5969  -34.0169   21.0499 C   0  0  0  0  0  0  0  0  0  0  0  0
  -20.9588  -23.9680   23.5367 C   0  0  0  0  0  0  0  0  0  0  0  0
  -25.9493  -22.8918   23.0093 C   0  0  0  0  0  0  0  0  0  0  0  0
  -20.8914  -24.9900   21.1915 C   0  0  0  0  0  0  0  0  0  1  0  0
  -25.9118  -31.7061   23.9665 C   0  0  1  0  0  0  0  0  0  0  0  0
  -23.7829  -34.7289   23.1296 C   0  0  2  0  0  0  0  0  0  0  0  0
  -26.8266  -31.7016   25.2236 C   0  0  0  0  0  0  0  0  0  0  0  0
  -20.1460  -24.1043   22.2154 C   0  0  0  0  0  0  0  0  0  0  0  0
  -25.9928  -16.6685   20.3814 N   0  0  0  0  0  0  0  0  0  0  0  0
  -26.1887  -17.6205   19.4533 N   0  0  0  0  0  0  0  0  0  0  0  0
  -26.0446  -30.0372   22.1442 N   0  0  0  0  0  0  0  0  0  0  0  0
  -28.0776  -20.2325   21.5072 N   0  0  0  0  0  0  0  0  0  0  0  0
  -25.5548  -18.2905   17.2716 N   0  0  0  0  0  0  0  0  0  0  0  0
  -23.2193  -14.4782   17.9107 N   0  0  0  0  0  0  0  0  0  0  0  0
  -28.3559  -27.5258   20.8608 N   0  0  0  0  0  0  0  0  0  0  0  0
  -25.4039  -33.0243   23.6019 N   0  0  0  0  0  0  0  0  0  0  0  0
  -26.4286  -21.6623   22.4183 N   0  0  0  0  0  0  0  0  0  0  0  0
  -22.5481  -34.8180   22.3001 N   0  3  0  0  0  0  0  0  0  0  0  0
  -23.6629  -16.1622   16.4186 O   0  0  0  0  0  0  0  0  0  0  0  0
  -27.4156  -28.0280   22.9311 O   0  0  0  0  0  0  0  0  0  0  0  0
  -27.6257  -31.7409   22.3270 O   0  0  0  0  0  0  0  0  0  0  0  0
  -23.1547  -32.4766   23.7376 O   0  0  0  0  0  0  0  0  0  0  0  0
  -28.6078  -22.3586   22.2664 O   0  0  0  0  0  0  0  0  0  0  0  0
  -23.9016  -21.7099   23.4374 O   0  0  0  0  0  0  0  0  0  0  0  0
  -23.3003  -11.2933   22.4807 O   0  0  0  0  0  0  0  0  0  0  0  0
  -21.1692  -26.2801   21.7345 O   0  0  0  0  0  0  0  0  0  1  0  0
  -23.1215   -6.5536   19.6687 F   0  0  0  0  0  0  0  0  0  0  0  0
  -24.7601   -9.0967   23.3092 F   0  0  0  0  0  0  0  0  0  0  0  0
  1  2  1  0  0  0  0
  1  5  2  0  0  0  0
  2  6  2  0  0  0  0
  3  8  2  0  0  0  0
  3 17  1  0  0  0  0
  4  9  1  0  0  0  0
  4 17  2  0  0  0  0
  5 19  1  0  0  0  0
  6 21  1  0  0  0  0
  7 10  2  0  0  0  0
  7 20  1  0  0  0  0
  8 24  1  0  0  0  0
  9 24  2  0  0  0  0
 10 25  1  0  0  0  0
 11 12  2  0  0  0  0
 11 26  1  0  0  0  0
 12 27  1  0  0  0  0
 13 22  1  0  0  0  0
 13 25  2  0  0  0  0
 14 23  1  0  0  0  0
 14 30  2  0  0  0  0
 15 27  2  0  0  0  0
 15 28  1  0  0  0  0
 16 23  2  0  0  0  0
 16 78  1  0  0  0  0
 17 29  1  0  0  0  0
 18 29  1  0  0  0  0
 18 31  2  0  0  0  0
 18 32  1  0  0  0  0
 19 21  2  0  0  0  0
 19 37  1  0  0  0  0
 20 22  2  0  0  0  0
 20 38  1  0  0  0  0
 21 46  1  0  0  0  0
 22 39  1  0  0  0  0
 23 56  1  0  0  0  0
 24 79  1  0  0  0  0
 25 80  1  0  0  0  0
 26 28  2  0  0  0  0
 26 79  1  0  0  0  0
 27 81  1  0  0  0  0
 28 82  1  0  0  0  0
 29 63  2  0  0  0  0
 30 57  1  0  0  0  0
 30 78  1  0  0  0  0
 31 64  1  0  0  0  0
 31 67  1  0  0  0  0
 32 68  1  0  0  0  0
 32 73  2  0  0  0  0
 33 47  1  0  0  0  0
 33 69  1  0  0  0  0
 33 74  2  0  0  0  0
 34 59  1  0  0  0  0
 34 65  1  0  0  0  0
 34 75  2  0  0  0  0
 35 60  1  0  0  0  0
 35 70  1  0  0  0  0
 35 76  2  0  0  0  0
 36 66  1  0  0  0  0
 36 71  1  0  0  0  0
 36 77  2  0  0  0  0
 37 40  1  0  0  0  0
 38 47  1  0  0  0  0
 39 65  1  0  0  0  0
 40 42  1  0  0  0  0
 41 43  1  0  0  0  0
 41 44  1  0  0  0  0
 42 46  1  0  0  0  0
 43 48  1  0  0  0  0
 44 66  1  0  0  0  0
 45 48  1  0  0  0  0
 45 66  1  0  0  0  0
 46 69  1  0  0  0  0
 47 65  1  0  0  0  0
 48 64  1  0  0  0  0
 49 60  1  0  0  0  0
 50 61  1  0  0  0  0
 51 61  1  0  0  0  0
 52 61  1  0  0  0  0
 53 62  1  0  0  0  0
 54 62  1  0  0  0  0
 55 72  1  0  0  0  0
 56 62  1  0  0  0  0
 57 71  1  0  0  0  0
 58 62  1  0  0  0  0
 58 80  1  0  0  0  0
 59 61  1  0  0  0  0
 59 70  1  0  0  0  0
 60 72  1  0  0  0  0
 63 64  1  0  0  0  0
M  CHG  1  72   1
M  ISO  4  36 100  58 101  71 100  80 101
M  END
> <Batch ID>
0140

> <Smiles>
CNC(C)C(=O)NC(C(=O)N1Cc2cc([101O:1][101CH2:1]C(C)(C)Cc3coc(C[100NH:0][100C:0](=O)N4CCCC(n5nc(-c6ccc(Oc7ccc(F)cc7F)cc6)c(C(N)=O)c5N)C4)c3)ccc2CC1C(=O)NC1CCCc2ccccc21)C(C)(C)C

> <Shape>
0.283

> <Color>
0.060

> <Negative vol penalty>
0.000

$$$$

  -OEChem-04052302513D

 86 94  0     1  0  0  0  0  0999 V2000
  -16.9549  -29.4843   24.3250 C   0  0  0  0  0  0  0  0  0  0  0  0
  -18.1405  -29.9481   24.8861 C   0  0  0  0  0  0  0  0  0  0  0  0
  -31.8493  -30.3476   20.1994 C   0  0  0  0  0  0  0  0  0  0  0  0
  -28.9007  -18.5188   21.6665 C   0  0  0  0  0  0  0  0  0  0  0  0
  -30.1158  -17.8166   19.6998 C   0  0  0  0  0  0  0  0  0  0  0  0
  -16.9928  -28.5395   23.3004 C   0  0  0  0  0  0  0  0  0  0  0  0
  -19.3646  -29.4665   24.4236 C   0  0  0  0  0  0  0  0  0  0  0  0
  -24.6151  -32.5865   23.9725 C   0  0  0  0  0  0  0  0  0  0  0  0
  -30.9137  -30.7221   21.1639 C   0  0  0  0  0  0  0  0  0  0  0  0
  -32.1686  -29.0013   20.0233 C   0  0  0  0  0  0  0  0  0  0  0  0
  -28.8037  -17.1905   22.0808 C   0  0  0  0  0  0  0  0  0  0  0  0
  -30.0188  -16.4883   20.1142 C   0  0  0  0  0  0  0  0  0  0  0  0
  -25.7373  -32.6583   24.7967 C   0  0  0  0  0  0  0  0  0  0  0  0
  -27.6896  -14.0377   20.0994 C   0  0  0  0  0  0  0  0  0  0  0  0
  -27.3296  -13.0859   19.1454 C   0  0  0  0  0  0  0  0  0  0  0  0
  -26.8283  -30.9827   23.4472 C   0  0  0  0  0  0  0  0  0  0  0  0
  -29.4163  -11.9258   19.5156 C   0  0  0  0  0  0  0  0  0  0  0  0
  -29.5567  -18.8319   20.4759 C   0  0  0  0  0  0  0  0  0  0  0  0
  -28.5964  -21.0859   19.7656 C   0  0  0  0  0  0  0  0  0  0  0  0
  -18.2184  -28.0532   22.8185 C   0  0  0  0  0  0  0  0  0  0  0  0
  -24.5869  -31.7028   22.8840 C   0  0  0  0  0  0  0  0  0  0  0  0
  -19.4189  -28.5133   23.3925 C   0  0  0  0  0  0  0  0  0  0  0  0
  -25.7056  -30.9034   22.6092 C   0  0  0  0  0  0  0  0  0  0  0  0
  -30.2976  -29.7503   21.9522 C   0  0  0  0  0  0  0  0  0  0  0  0
  -30.6169  -28.4039   21.7761 C   0  0  0  0  0  0  0  0  0  0  0  0
  -31.5524  -28.0294   20.8116 C   0  0  0  0  0  0  0  0  0  0  0  0
  -29.3627  -16.1752   21.3047 C   0  0  0  0  0  0  0  0  0  0  0  0
  -26.8430  -31.8543   24.5358 C   0  0  0  0  0  0  0  0  0  0  0  0
  -28.9129  -13.9336   20.7614 C   0  0  0  0  0  0  0  0  0  0  0  0
  -28.1930  -12.0299   18.8535 C   0  0  0  0  0  0  0  0  0  0  0  0
  -29.7763  -12.8776   20.4696 C   0  0  0  0  0  0  0  0  0  0  0  0
  -29.6568  -20.2038   20.0471 C   0  0  0  0  0  0  0  0  0  0  0  0
  -29.2125  -22.2584   19.4019 C   0  0  0  0  0  0  0  0  0  0  0  0
  -27.1811  -20.8653   19.8273 C   0  0  0  0  0  0  0  0  0  0  0  0
  -22.7987  -29.2045   22.0688 C   0  0  0  0  0  0  0  0  0  0  0  0
  -24.5038  -29.3767   19.3147 C   0  0  0  0  0  0  0  0  0  0  0  0
  -27.3565  -30.3774   17.7311 C   0  0  0  0  0  0  0  0  0  0  0  0
  -33.1127  -26.1557   20.1783 C   0  0  0  0  0  0  0  0  0  0  0  0
  -18.2075  -26.9973   21.7417 C   0  0  0  0  0  0  0  0  0  0  0  0
  -23.3791  -31.6566   21.9887 C   0  0  0  0  0  0  0  0  0  0  0  0
  -25.7334  -29.9530   21.4411 C   0  0  0  0  0  0  0  0  0  0  0  0
  -19.5576  -26.8162   21.0525 C   0  0  0  0  0  0  0  0  0  0  0  0
  -34.0679  -23.2442   18.3650 C   0  0  0  0  0  0  0  0  0  0  0  0
  -20.6777  -26.7381   22.0849 C   0  0  0  0  0  0  0  0  0  0  0  0
  -32.9182  -22.2662   18.6178 C   0  0  0  0  0  0  0  0  0  0  0  0
  -34.3717  -24.0933   19.5981 C   0  0  0  0  0  0  0  0  0  0  0  0
  -32.0657  -23.8189   20.4204 C   0  0  0  0  0  0  0  0  0  0  0  0
  -20.7673  -28.0333   22.9009 C   0  0  1  0  0  0  0  0  0  0  0  0
  -23.2609  -30.3490   21.2119 C   0  0  1  0  0  0  0  0  0  0  0  0
  -31.6801  -22.9868   19.1865 C   0  0  2  0  0  0  0  0  0  0  0  0
  -29.9531  -27.3648   22.6243 C   0  0  0  0  0  0  0  0  0  0  0  0
  -28.3172  -30.8711   28.0564 C   0  0  0  0  0  0  0  0  0  0  0  0
  -28.9359  -30.8049   15.8284 C   0  0  0  0  0  0  0  0  0  0  0  0
  -25.2022  -26.4329   19.7098 C   0  0  0  0  0  0  0  0  0  0  0  0
  -27.0348  -26.7138   18.0273 C   0  0  0  0  0  0  0  0  0  0  0  0
  -24.6597  -27.0691   17.3528 C   0  0  0  0  0  0  0  0  0  0  0  0
  -31.0794  -29.9539   24.7944 C   0  0  0  0  0  0  0  0  0  0  0  0
  -30.3290  -32.2218   24.1171 C   0  0  0  0  0  0  0  0  0  0  0  0
  -27.7482  -29.5445   25.3185 C   0  0  0  0  0  0  0  0  0  0  0  0
  -26.2041  -33.0558   17.2237 C   0  0  0  0  0  0  0  0  0  0  0  0
  -29.2856  -30.1845   22.9918 C   0  0  0  0  0  0  0  0  0  0  0  0
  -29.3223  -30.7459   26.9124 C   0  0  0  0  0  0  0  0  0  0  0  0
  -25.8007  -28.7820   18.8212 C   0  0  1  0  0  0  0  0  0  0  0  0
  -27.5760  -31.1259   16.4287 C   0  0  2  0  0  0  0  0  0  0  0  0
  -25.6734  -27.2658   18.5010 C   0  0  0  0  0  0  0  0  0  0  0  0
  -29.8390  -30.7651   24.3373 C   0  0  0  0  0  0  0  0  0  0  0  0
  -28.7164  -30.7332   25.4791 C   0  0  1  0  0  0  0  0  0  1  0  0
  -30.8556  -20.7676   19.8768 N   0  0  0  0  0  0  0  0  0  0  0  0
  -30.5523  -22.0166   19.4843 N   0  0  0  0  0  0  0  0  0  0  0  0
  -24.5260  -29.9395   20.5987 N   0  0  0  0  0  0  0  0  0  0  0  0
  -33.1533  -24.7489   20.0783 N   0  0  0  0  0  0  0  0  0  0  0  0
  -28.7335  -23.4623   19.0230 N   0  0  0  0  0  0  0  0  0  0  0  0
  -26.5276  -20.3945   18.6802 N   0  0  0  0  0  0  0  0  0  0  0  0
  -31.8914  -26.6677   20.6153 N   0  0  0  0  0  0  0  0  0  0  0  0
  -21.4250  -29.0694   22.1339 N   0  0  0  0  0  0  0  0  0  0  0  0
  -26.2191  -29.5991   17.6874 N   0  0  0  0  0  0  0  0  0  0  0  0
  -27.4983  -32.5965   16.6570 N   0  3  0  0  0  0  0  0  0  0  0  0
  -26.5129  -21.0949   20.8638 O   0  0  0  0  0  0  0  0  0  0  0  0
  -23.6270  -28.4956   22.6282 O   0  0  0  0  0  0  0  0  0  0  0  0
  -23.5097  -29.3496   18.5849 O   0  0  0  0  0  0  0  0  0  0  0  0
  -28.1198  -30.4708   18.6898 O   0  0  0  0  0  0  0  0  0  0  0  0
  -34.0805  -26.8563   19.8709 O   0  0  0  0  0  0  0  0  0  0  0  0
  -29.2685  -14.8789   21.7089 O   0  0  0  0  0  0  0  0  0  0  0  0
  -27.9394  -31.9220   25.3391 O   0  0  0  0  0  0  0  0  0  1  0  0
  -27.8465  -11.1151   17.9385 F   0  0  0  0  0  0  0  0  0  0  0  0
  -30.9523  -12.7717   21.1032 F   0  0  0  0  0  0  0  0  0  0  0  0
  1  2  1  0  0  0  0
  1  6  2  0  0  0  0
  2  7  2  0  0  0  0
  3  9  2  0  0  0  0
  3 10  1  0  0  0  0
  4 11  2  0  0  0  0
  4 18  1  0  0  0  0
  5 12  1  0  0  0  0
  5 18  2  0  0  0  0
  6 20  1  0  0  0  0
  7 22  1  0  0  0  0
  8 13  2  0  0  0  0
  8 21  1  0  0  0  0
  9 24  1  0  0  0  0
 10 26  2  0  0  0  0
 11 27  1  0  0  0  0
 12 27  2  0  0  0  0
 13 28  1  0  0  0  0
 14 15  2  0  0  0  0
 14 29  1  0  0  0  0
 15 30  1  0  0  0  0
 16 23  1  0  0  0  0
 16 28  2  0  0  0  0
 17 30  2  0  0  0  0
 17 31  1  0  0  0  0
 18 32  1  0  0  0  0
 19 32  1  0  0  0  0
 19 33  2  0  0  0  0
 19 34  1  0  0  0  0
 20 22  2  0  0  0  0
 20 39  1  0  0  0  0
 21 23  2  0  0  0  0
 21 40  1  0  0  0  0
 22 48  1  0  0  0  0
 23 41  1  0  0  0  0
 24 25  2  0  0  0  0
 24 61  1  0  0  0  0
 25 26  1  0  0  0  0
 25 51  1  0  0  0  0
 26 74  1  0  0  0  0
 27 83  1  0  0  0  0
 28 84  1  0  0  0  0
 29 31  2  0  0  0  0
 29 83  1  0  0  0  0
 30 85  1  0  0  0  0
 31 86  1  0  0  0  0
 32 68  2  0  0  0  0
 33 69  1  0  0  0  0
 33 72  1  0  0  0  0
 34 73  1  0  0  0  0
 34 78  2  0  0  0  0
 35 49  1  0  0  0  0
 35 75  1  0  0  0  0
 35 79  2  0  0  0  0
 36 63  1  0  0  0  0
 36 70  1  0  0  0  0
 36 80  2  0  0  0  0
 37 64  1  0  0  0  0
 37 76  1  0  0  0  0
 37 81  2  0  0  0  0
 38 71  1  0  0  0  0
 38 74  1  0  0  0  0
 38 82  2  0  0  0  0
 39 42  1  0  0  0  0
 40 49  1  0  0  0  0
 41 70  1  0  0  0  0
 42 44  1  0  0  0  0
 43 45  1  0  0  0  0
 43 46  1  0  0  0  0
 44 48  1  0  0  0  0
 45 50  1  0  0  0  0
 46 71  1  0  0  0  0
 47 50  1  0  0  0  0
 47 71  1  0  0  0  0
 48 75  1  0  0  0  0
 49 70  1  0  0  0  0
 50 69  1  0  0  0  0
 52 62  1  0  0  0  0
 53 64  1  0  0  0  0
 54 65  1  0  0  0  0
 55 65  1  0  0  0  0
 56 65  1  0  0  0  0
 57 66  1  0  0  0  0
 58 66  1  0  0  0  0
 59 67  1  0  0  0  0
 60 77  1  0  0  0  0
 61 66  1  0  0  0  0
 62 67  1  0  0  0  0
 63 65  1  0  0  0  0
 63 76  1  0  0  0  0
 64 77  1  0  0  0  0
 66 67  1  0  0  0  0
 67 84  1  0  0  0  0
 68 69  1  0  0  0  0
M  CHG  1  77   1
M  ISO  4  38 100  67 101  74 100  84 101
M  END
> <Batch ID>
0140

> <Smiles>
CC[101C:1](C)(C(C)(C)Cc1cccc([100NH:0][100C:0](=O)N2CCCC(n3nc(-c4ccc(Oc5ccc(F)cc5F)cc4)c(C(N)=O)c3N)C2)c1C)[101O:1]c1ccc2c(c1)CN(C(=O)C(NC(=O)C(C)NC)C(C)(C)C)C(C(=O)NC1CCCc3ccccc31)C2

> <Shape>
0.322

> <Color>
0.096

> <Negative vol penalty>
0.000

$$$$

  -OEChem-04052302513D

 86 95  0     1  0  0  0  0  0999 V2000
  -27.9564  -35.6632   16.4771 C   0  0  0  0  0  0  0  0  0  0  0  0
  -27.4776  -34.4166   16.0869 C   0  0  0  0  0  0  0  0  0  0  0  0
  -23.0459  -10.0221   19.8278 C   0  0  0  0  0  0  0  0  0  0  0  0
  -23.9968   -9.6567   22.0185 C   0  0  0  0  0  0  0  0  0  0  0  0
  -28.5090  -35.8304   17.7462 C   0  0  0  0  0  0  0  0  0  0  0  0
  -27.5522  -33.3362   16.9653 C   0  0  0  0  0  0  0  0  0  0  0  0
  -24.0349  -27.3663   18.7834 C   0  0  0  0  0  0  0  0  0  0  0  0
  -22.3387   -8.8246   19.9350 C   0  0  0  0  0  0  0  0  0  0  0  0
  -23.2896   -8.4592   22.1257 C   0  0  0  0  0  0  0  0  0  0  0  0
  -24.2501  -25.9996   18.9558 C   0  0  0  0  0  0  0  0  0  0  0  0
  -20.1331   -7.4881   22.8424 C   0  0  0  0  0  0  0  0  0  0  0  0
  -19.4783   -7.2295   24.0466 C   0  0  0  0  0  0  0  0  0  0  0  0
  -25.1528  -26.4249   21.1520 C   0  0  0  0  0  0  0  0  0  0  0  0
  -31.3541  -18.7193   20.6976 C   0  0  0  0  0  0  0  0  0  0  0  0
  -20.7991   -5.2271   24.3347 C   0  0  0  0  0  0  0  0  0  0  0  0
  -23.8750  -10.4381   20.8695 C   0  0  0  0  0  0  0  0  0  0  0  0
  -24.1772  -12.9546   21.1590 C   0  0  0  0  0  0  0  0  0  0  0  0
  -28.5816  -34.7537   18.6441 C   0  0  0  0  0  0  0  0  0  0  0  0
  -24.3878  -28.2751   19.7914 C   0  0  0  0  0  0  0  0  0  0  0  0
  -28.1075  -33.4888   18.2470 C   0  0  0  0  0  0  0  0  0  0  0  0
  -24.9388  -27.8023   20.9910 C   0  0  0  0  0  0  0  0  0  0  0  0
  -30.7206  -19.8861   20.1804 C   0  0  0  0  0  0  0  0  0  0  0  0
  -22.4605   -8.0432   21.0839 C   0  0  0  0  0  0  0  0  0  0  0  0
  -24.8118  -25.5290   20.1390 C   0  0  0  0  0  0  0  0  0  0  0  0
  -21.1208   -6.6162   22.3843 C   0  0  0  0  0  0  0  0  0  0  0  0
  -19.8113   -6.0990   24.7927 C   0  0  0  0  0  0  0  0  0  0  0  0
  -21.4538   -5.4857   23.1305 C   0  0  0  0  0  0  0  0  0  0  0  0
  -24.6062  -11.6748   20.7591 C   0  0  0  0  0  0  0  0  0  0  0  0
  -30.5493  -18.0463   21.5904 C   0  0  0  0  0  0  0  0  0  0  0  0
  -25.2263  -13.7827   20.8426 C   0  0  0  0  0  0  0  0  0  0  0  0
  -29.4556  -20.0602   20.6974 C   0  0  0  0  0  0  0  0  0  0  0  0
  -22.9411  -13.3587   21.7625 C   0  0  0  0  0  0  0  0  0  0  0  0
  -26.4168  -30.7126   20.0040 C   0  0  0  0  0  0  0  0  0  0  0  0
  -25.0252  -31.1114   22.9069 C   0  0  0  0  0  0  0  0  0  0  0  0
  -23.3036  -29.7287   25.5090 C   0  0  0  0  0  0  0  0  0  0  0  0
  -30.6947  -14.8942   20.7569 C   0  0  0  0  0  0  0  0  0  0  0  0
  -29.2306  -34.9717   19.9879 C   0  0  0  0  0  0  0  0  0  0  0  0
  -24.1246  -29.7437   19.6006 C   0  0  0  0  0  0  0  0  0  0  0  0
  -25.3163  -28.7347   22.1119 C   0  0  0  0  0  0  0  0  0  0  0  0
  -28.9309  -33.8650   20.9957 C   0  0  0  0  0  0  0  0  0  0  0  0
  -29.3860  -12.9241   18.0955 C   0  0  0  0  0  0  0  0  0  0  0  0
  -29.1163  -32.4938   20.3537 C   0  0  0  0  0  0  0  0  0  0  0  0
  -27.9937  -12.5242   18.5869 C   0  0  0  0  0  0  0  0  0  0  0  0
  -27.1286  -22.5311   19.2053 C   0  0  0  0  0  0  0  0  0  0  0  0
  -30.3989  -12.9599   19.2378 C   0  0  0  0  0  0  0  0  0  0  0  0
  -28.0756  -21.3413   19.0554 C   0  0  0  0  0  0  0  0  0  0  0  0
  -28.6131  -13.3947   20.8798 C   0  0  0  0  0  0  0  0  0  0  0  0
  -28.1482  -32.2984   19.1806 C   0  0  1  0  0  0  0  0  0  0  0  0
  -24.9967  -30.6271   20.4874 C   0  0  1  0  0  0  0  0  0  0  0  0
  -27.5449  -13.3990   19.7729 C   0  0  2  0  0  0  0  0  0  0  0  0
  -27.9379  -21.9673   21.4035 C   0  0  2  0  0  0  0  0  0  0  0  0
  -26.6553  -22.4586   20.6661 C   0  0  2  0  0  0  0  0  0  0  0  0
  -31.3654  -20.7943   19.2001 C   0  0  0  0  0  0  0  0  0  0  0  0
  -28.9145  -23.0832   21.7890 C   0  0  0  0  0  0  0  0  0  0  0  0
  -25.5294  -21.4127   20.8140 C   0  0  0  0  0  0  0  0  0  0  0  0
  -22.3415  -30.2944   27.7566 C   0  0  0  0  0  0  0  0  0  0  0  0
  -27.8248  -31.0480   24.1185 C   0  0  0  0  0  0  0  0  0  0  0  0
  -26.7718  -30.6596   26.3565 C   0  0  0  0  0  0  0  0  0  0  0  0
  -26.2992  -32.7659   25.1063 C   0  0  0  0  0  0  0  0  0  0  0  0
  -20.5561  -29.0702   24.6278 C   0  0  0  0  0  0  0  0  0  0  0  0
  -30.8409  -16.8029   22.3363 C   0  0  0  0  0  0  0  0  0  0  0  0
  -26.1188  -23.8129   21.1404 C   0  0  0  0  0  0  0  0  0  1  0  0
  -25.2899  -30.5928   24.2997 C   0  0  1  0  0  0  0  0  0  0  0  0
  -22.0717  -30.1958   26.2633 C   0  0  2  0  0  0  0  0  0  0  0  0
  -26.5412  -31.2490   24.9485 C   0  0  0  0  0  0  0  0  0  0  0  0
  -25.8321  -11.6841   20.2290 N   0  0  0  0  0  0  0  0  0  0  0  0
  -26.1825  -12.9799   20.2936 N   0  0  0  0  0  0  0  0  0  0  0  0
  -28.5738  -21.0853   20.4082 N   0  0  3  0  0  0  0  0  0  0  0  0
  -25.0452  -30.1623   21.8751 N   0  0  0  0  0  0  0  0  0  0  0  0
  -29.9137  -13.8077   20.3296 N   0  0  0  0  0  0  0  0  0  0  0  0
  -25.4150  -15.1120   20.9832 N   0  0  0  0  0  0  0  0  0  0  0  0
  -21.9715  -12.3798   22.0192 N   0  0  0  0  0  0  0  0  0  0  0  0
  -26.8204  -31.9904   19.6669 N   0  0  0  0  0  0  0  0  0  0  0  0
  -24.0546  -30.7903   25.0504 N   0  0  0  0  0  0  0  0  0  0  0  0
  -30.1585  -15.6500   21.7923 N   0  0  0  0  0  0  0  0  0  0  0  0
  -20.9434  -29.2456   26.0513 N   0  3  0  0  0  0  0  0  0  0  0  0
  -22.6968  -14.5550   22.0500 O   0  0  0  0  0  0  0  0  0  0  0  0
  -27.0965  -29.6948   19.9429 O   0  0  0  0  0  0  0  0  0  0  0  0
  -24.8016  -32.3132   22.7414 O   0  0  0  0  0  0  0  0  0  0  0  0
  -23.5746  -28.5410   25.3464 O   0  0  0  0  0  0  0  0  0  0  0  0
  -31.7862  -15.1735   20.2494 O   0  0  0  0  0  0  0  0  0  0  0  0
  -21.7704   -6.8747   21.1890 O   0  0  0  0  0  0  0  0  0  0  0  0
  -25.0234  -24.1956   20.3096 O   0  0  0  0  0  0  0  0  0  1  0  0
  -19.1836   -5.8516   25.9498 F   0  0  0  0  0  0  0  0  0  0  0  0
  -22.4027   -4.6450   22.6961 F   0  0  0  0  0  0  0  0  0  0  0  0
  -29.0366  -18.8205   21.8018 S   0  0  0  0  0  0  0  0  0  0  0  0
  1  2  1  0  0  0  0
  1  5  2  0  0  0  0
  2  6  2  0  0  0  0
  3  8  2  0  0  0  0
  3 16  1  0  0  0  0
  4  9  1  0  0  0  0
  4 16  2  0  0  0  0
  5 18  1  0  0  0  0
  6 20  1  0  0  0  0
  7 10  2  0  0  0  0
  7 19  1  0  0  0  0
  8 23  1  0  0  0  0
  9 23  2  0  0  0  0
 10 24  1  0  0  0  0
 11 12  2  0  0  0  0
 11 25  1  0  0  0  0
 12 26  1  0  0  0  0
 13 21  1  0  0  0  0
 13 24  2  0  0  0  0
 14 22  1  0  0  0  0
 14 29  2  0  0  0  0
 15 26  2  0  0  0  0
 15 27  1  0  0  0  0
 16 28  1  0  0  0  0
 17 28  1  0  0  0  0
 17 30  2  0  0  0  0
 17 32  1  0  0  0  0
 18 20  2  0  0  0  0
 18 37  1  0  0  0  0
 19 21  2  0  0  0  0
 19 38  1  0  0  0  0
 20 48  1  0  0  0  0
 21 39  1  0  0  0  0
 22 31  2  0  0  0  0
 22 53  1  0  0  0  0
 23 82  1  0  0  0  0
 24 83  1  0  0  0  0
 25 27  2  0  0  0  0
 25 82  1  0  0  0  0
 26 84  1  0  0  0  0
 27 85  1  0  0  0  0
 28 66  2  0  0  0  0
 29 61  1  0  0  0  0
 29 86  1  0  0  0  0
 30 67  1  0  0  0  0
 30 71  1  0  0  0  0
 31 68  1  0  0  0  0
 31 86  1  0  0  0  0
 32 72  1  0  0  0  0
 32 77  2  0  0  0  0
 33 49  1  0  0  0  0
 33 73  1  0  0  0  0
 33 78  2  0  0  0  0
 34 63  1  0  0  0  0
 34 69  1  0  0  0  0
 34 79  2  0  0  0  0
 35 64  1  0  0  0  0
 35 74  1  0  0  0  0
 35 80  2  0  0  0  0
 36 70  1  0  0  0  0
 36 75  1  0  0  0  0
 36 81  2  0  0  0  0
 37 40  1  0  0  0  0
 38 49  1  0  0  0  0
 39 69  1  0  0  0  0
 40 42  1  0  0  0  0
 41 43  1  0  0  0  0
 41 45  1  0  0  0  0
 42 48  1  0  0  0  0
 43 50  1  0  0  0  0
 44 46  1  0  0  0  0
 44 52  1  0  0  0  0
 45 70  1  0  0  0  0
 46 68  1  0  0  0  0
 47 50  1  0  0  0  0
 47 70  1  0  0  0  0
 48 73  1  0  0  0  0
 49 69  1  0  0  0  0
 50 67  1  0  0  0  0
 51 52  1  0  0  0  0
 51 54  1  0  0  0  0
 51 68  1  0  0  0  0
 52 55  1  0  0  0  0
 52 62  1  0  0  0  0
 56 64  1  0  0  0  0
 57 65  1  0  0  0  0
 58 65  1  0  0  0  0
 59 65  1  0  0  0  0
 60 76  1  0  0  0  0
 61 75  1  0  0  0  0
 62 83  1  0  0  0  0
 63 65  1  0  0  0  0
 63 74  1  0  0  0  0
 64 76  1  0  0  0  0
 66 67  1  0  0  0  0
M  CHG  1  76   1
M  ISO  4  36 100  62 101  75 100  83 101
M  END
> <Batch ID>
0140

> <Smiles>
CNC(C)C(=O)NC(C(=O)N1Cc2cc([101O:1][101CH2:1]C3(C)CCN(c4sc(C[100NH:0][100C:0](=O)N5CCCC(n6nc(-c7ccc(Oc8ccc(F)cc8F)cc7)c(C(N)=O)c6N)C5)cc4C)C3C)ccc2CC1C(=O)NC1CCCc2ccccc21)C(C)(C)C

> <Shape>
0.330

> <Color>
0.203

> <Negative vol penalty>
0.000

$$$$

  -OEChem-04052302513D

 84 92  0     1  0  0  0  0  0999 V2000
  -27.2894  -33.5559   27.7362 C   0  0  0  0  0  0  0  0  0  0  0  0
  -27.8716  -33.0439   26.5810 C   0  0  0  0  0  0  0  0  0  0  0  0
  -26.4809  -12.1916   21.4788 C   0  0  0  0  0  0  0  0  0  0  0  0
  -25.7762  -13.8079   19.8271 C   0  0  0  0  0  0  0  0  0  0  0  0
  -26.1367  -32.9671   28.2544 C   0  0  0  0  0  0  0  0  0  0  0  0
  -27.3019  -31.9421   25.9440 C   0  0  0  0  0  0  0  0  0  0  0  0
  -27.1335  -30.8531   19.9197 C   0  0  0  0  0  0  0  0  0  0  0  0
  -31.0314  -23.1439   20.4852 C   0  0  0  0  0  0  0  0  0  0  0  0
  -30.6582  -22.1037   21.3361 C   0  0  0  0  0  0  0  0  0  0  0  0
  -25.2337  -11.5715   21.4041 C   0  0  0  0  0  0  0  0  0  0  0  0
  -24.5290  -13.1878   19.7523 C   0  0  0  0  0  0  0  0  0  0  0  0
  -27.9205  -30.0577   19.0879 C   0  0  0  0  0  0  0  0  0  0  0  0
  -22.1152  -12.0981   22.5966 C   0  0  0  0  0  0  0  0  0  0  0  0
  -21.4940  -11.7472   23.7951 C   0  0  0  0  0  0  0  0  0  0  0  0
  -26.3034  -28.2771   19.2709 C   0  0  0  0  0  0  0  0  0  0  0  0
  -29.2795  -22.5132   18.9457 C   0  0  0  0  0  0  0  0  0  0  0  0
  -21.4888   -9.4293   23.1137 C   0  0  0  0  0  0  0  0  0  0  0  0
  -26.7522  -13.3099   20.6903 C   0  0  0  0  0  0  0  0  0  0  0  0
  -29.1817  -13.6612   19.9964 C   0  0  0  0  0  0  0  0  0  0  0  0
  -25.5472  -31.8635   27.6180 C   0  0  0  0  0  0  0  0  0  0  0  0
  -25.9289  -30.3617   20.4430 C   0  0  0  0  0  0  0  0  0  0  0  0
  -26.1410  -31.3371   26.4549 C   0  0  0  0  0  0  0  0  0  0  0  0
  -25.5017  -29.0691   20.1070 C   0  0  0  0  0  0  0  0  0  0  0  0
  -30.3421  -23.3488   19.2900 C   0  0  0  0  0  0  0  0  0  0  0  0
  -28.9063  -21.4729   19.7966 C   0  0  0  0  0  0  0  0  0  0  0  0
  -29.5957  -21.2681   20.9918 C   0  0  0  0  0  0  0  0  0  0  0  0
  -24.2578  -12.0696   20.5408 C   0  0  0  0  0  0  0  0  0  0  0  0
  -27.5069  -28.7685   18.7657 C   0  0  0  0  0  0  0  0  0  0  0  0
  -22.4232  -11.1147   21.6566 C   0  0  0  0  0  0  0  0  0  0  0  0
  -21.1808  -10.4128   24.0537 C   0  0  0  0  0  0  0  0  0  0  0  0
  -22.1100   -9.7802   21.9151 C   0  0  0  0  0  0  0  0  0  0  0  0
  -28.0401  -13.9512   20.7675 C   0  0  0  0  0  0  0  0  0  0  0  0
  -30.1344  -14.5407   20.4494 C   0  0  0  0  0  0  0  0  0  0  0  0
  -29.3645  -12.6843   18.9630 C   0  0  0  0  0  0  0  0  0  0  0  0
  -24.8180  -29.7978   23.3673 C   0  0  0  0  0  0  0  0  0  0  0  0
  -22.0622  -29.1671   21.7768 C   0  0  0  0  0  0  0  0  0  0  0  0
  -20.5456  -28.2387   18.8639 C   0  0  0  0  0  0  0  0  0  0  0  0
  -29.8240  -19.8921   23.0897 C   0  0  0  0  0  0  0  0  0  0  0  0
  -24.3282  -31.2315   28.2420 C   0  0  0  0  0  0  0  0  0  0  0  0
  -25.0784  -31.2419   21.3172 C   0  0  0  0  0  0  0  0  0  0  0  0
  -24.2068  -28.5019   20.6263 C   0  0  0  0  0  0  0  0  0  0  0  0
  -23.5742  -30.2993   27.2971 C   0  0  0  0  0  0  0  0  0  0  0  0
  -31.4214  -16.9773   24.3662 C   0  0  0  0  0  0  0  0  0  0  0  0
  -24.5451  -29.3666   26.5800 C   0  0  0  0  0  0  0  0  0  0  0  0
  -30.8440  -15.8449   23.5139 C   0  0  0  0  0  0  0  0  0  0  0  0
  -30.3769  -18.0515   24.6648 C   0  0  0  0  0  0  0  0  0  0  0  0
  -29.1134  -17.4626   22.6336 C   0  0  0  0  0  0  0  0  0  0  0  0
  -25.5385  -30.1585   25.7214 C   0  0  1  0  0  0  0  0  0  0  0  0
  -24.1228  -30.4544   22.2083 C   0  0  1  0  0  0  0  0  0  0  0  0
  -30.1455  -16.3889   22.2523 C   0  0  2  0  0  0  0  0  0  0  0  0
  -27.0847  -18.3259   18.4992 C   0  0  0  0  0  0  0  0  0  0  0  0
  -18.2837  -27.7724   17.8822 C   0  0  0  0  0  0  0  0  0  0  0  0
  -21.9975  -26.4746   23.2108 C   0  0  0  0  0  0  0  0  0  0  0  0
  -20.3126  -25.6983   21.5295 C   0  0  0  0  0  0  0  0  0  0  0  0
  -19.7791  -27.6157   23.0334 C   0  0  0  0  0  0  0  0  0  0  0  0
  -20.8342  -30.4091   16.8726 C   0  0  0  0  0  0  0  0  0  0  0  0
  -30.7472  -24.4720   18.3690 C   0  0  0  0  0  0  0  0  0  0  0  0
  -27.7662  -20.5915   19.4009 C   0  0  0  0  0  0  0  0  0  0  0  0
  -28.2468  -19.2337   18.8698 C   0  0  0  0  0  0  0  0  0  0  0  0
  -30.0235  -25.7938   18.6490 C   0  0  0  0  0  0  0  0  0  0  0  0
  -30.3901  -26.8987   17.6572 C   0  0  0  0  0  0  0  0  0  0  0  0
  -29.6835  -28.2058   17.9902 C   0  0  0  0  0  0  0  0  0  1  0  0
  -21.4428  -27.9377   21.1571 C   0  0  1  0  0  0  0  0  0  0  0  0
  -19.3603  -28.8209   18.1153 C   0  0  2  0  0  0  0  0  0  0  0  0
  -20.9084  -26.9413   22.2243 C   0  0  0  0  0  0  0  0  0  0  0  0
  -28.2468  -14.9377   21.6439 N   0  0  0  0  0  0  0  0  0  0  0  0
  -29.5293  -15.2752   21.4264 N   0  0  0  0  0  0  0  0  0  0  0  0
  -23.4133  -29.3990   21.4825 N   0  0  0  0  0  0  0  0  0  0  0  0
  -29.7606  -18.5225   23.4226 N   0  0  0  0  0  0  0  0  0  0  0  0
  -31.4225  -14.7497   20.1034 N   0  0  0  0  0  0  0  0  0  0  0  0
  -28.2819  -11.8623   18.6216 N   0  0  0  0  0  0  0  0  0  0  0  0
  -29.2320  -20.2169   21.8696 N   0  0  0  0  0  0  0  0  0  0  0  0
  -24.9096  -30.5942   24.4929 N   0  0  0  0  0  0  0  0  0  0  0  0
  -20.4273  -28.4174   20.2260 N   0  0  0  0  0  0  0  0  0  0  0  0
  -19.7935  -29.3520   16.7919 N   0  3  0  0  0  0  0  0  0  0  0  0
  -30.4604  -12.5333   18.3716 O   0  0  0  0  0  0  0  0  0  0  0  0
  -25.2389  -28.6530   23.2496 O   0  0  0  0  0  0  0  0  0  0  0  0
  -21.3707  -29.8987   22.4897 O   0  0  0  0  0  0  0  0  0  0  0  0
  -21.4810  -27.6779   18.2973 O   0  0  0  0  0  0  0  0  0  0  0  0
  -30.3875  -20.7120   23.8193 O   0  0  0  0  0  0  0  0  0  0  0  0
  -23.0407  -11.4646   20.4675 O   0  0  0  0  0  0  0  0  0  0  0  0
  -28.2734  -27.9898   17.9546 O   0  0  0  0  0  0  0  0  0  1  0  0
  -20.5855  -10.0757   25.2053 F   0  0  0  0  0  0  0  0  0  0  0  0
  -22.4045   -8.8308   21.0164 F   0  0  0  0  0  0  0  0  0  0  0  0
  1  2  1  0  0  0  0
  1  5  2  0  0  0  0
  2  6  2  0  0  0  0
  3 10  2  0  0  0  0
  3 18  1  0  0  0  0
  4 11  1  0  0  0  0
  4 18  2  0  0  0  0
  5 20  1  0  0  0  0
  6 22  1  0  0  0  0
  7 12  2  0  0  0  0
  7 21  1  0  0  0  0
  8  9  2  0  0  0  0
  8 24  1  0  0  0  0
  9 26  1  0  0  0  0
 10 27  1  0  0  0  0
 11 27  2  0  0  0  0
 12 28  1  0  0  0  0
 13 14  2  0  0  0  0
 13 29  1  0  0  0  0
 14 30  1  0  0  0  0
 15 23  1  0  0  0  0
 15 28  2  0  0  0  0
 16 24  2  0  0  0  0
 16 25  1  0  0  0  0
 17 30  2  0  0  0  0
 17 31  1  0  0  0  0
 18 32  1  0  0  0  0
 19 32  1  0  0  0  0
 19 33  2  0  0  0  0
 19 34  1  0  0  0  0
 20 22  2  0  0  0  0
 20 39  1  0  0  0  0
 21 23  2  0  0  0  0
 21 40  1  0  0  0  0
 22 48  1  0  0  0  0
 23 41  1  0  0  0  0
 24 57  1  0  0  0  0
 25 26  2  0  0  0  0
 25 58  1  0  0  0  0
 26 72  1  0  0  0  0
 27 81  1  0  0  0  0
 28 82  1  0  0  0  0
 29 31  2  0  0  0  0
 29 81  1  0  0  0  0
 30 83  1  0  0  0  0
 31 84  1  0  0  0  0
 32 66  2  0  0  0  0
 33 67  1  0  0  0  0
 33 70  1  0  0  0  0
 34 71  1  0  0  0  0
 34 76  2  0  0  0  0
 35 49  1  0  0  0  0
 35 73  1  0  0  0  0
 35 77  2  0  0  0  0
 36 63  1  0  0  0  0
 36 68  1  0  0  0  0
 36 78  2  0  0  0  0
 37 64  1  0  0  0  0
 37 74  1  0  0  0  0
 37 79  2  0  0  0  0
 38 69  1  0  0  0  0
 38 72  1  0  0  0  0
 38 80  2  0  0  0  0
 39 42  1  0  0  0  0
 40 49  1  0  0  0  0
 41 68  1  0  0  0  0
 42 44  1  0  0  0  0
 43 45  1  0  0  0  0
 43 46  1  0  0  0  0
 44 48  1  0  0  0  0
 45 50  1  0  0  0  0
 46 69  1  0  0  0  0
 47 50  1  0  0  0  0
 47 69  1  0  0  0  0
 48 73  1  0  0  0  0
 49 68  1  0  0  0  0
 50 67  1  0  0  0  0
 51 59  1  0  0  0  0
 52 64  1  0  0  0  0
 53 65  1  0  0  0  0
 54 65  1  0  0  0  0
 55 65  1  0  0  0  0
 56 75  1  0  0  0  0
 57 60  1  0  0  0  0
 58 59  1  0  0  0  0
 60 61  1  0  0  0  0
 61 62  1  0  0  0  0
 62 82  1  0  0  0  0
 63 65  1  0  0  0  0
 63 74  1  0  0  0  0
 64 75  1  0  0  0  0
 66 67  1  0  0  0  0
M  CHG  1  75   1
M  ISO  4  38 100  62 101  72 100  82 101
M  END
> <Batch ID>
0140

> <Smiles>
CCCc1cc(CCC[101CH2:1][101O:1]c2ccc3c(c2)CN(C(=O)C(NC(=O)C(C)NC)C(C)(C)C)C(C(=O)NC2CCCc4ccccc42)C3)ccc1[100NH:0][100C:0](=O)N1CCCC(n2nc(-c3ccc(Oc4ccc(F)cc4F)cc3)c(C(N)=O)c2N)C1

> <Shape>
0.327

> <Color>
0.055

> <Negative vol penalty>
0.000

$$$$

  -OEChem-04052302513D

 84 93  0     1  0  0  0  0  0999 V2000
  -28.0680  -34.1332   26.5179 C   0  0  0  0  0  0  0  0  0  0  0  0
  -28.3939  -33.0581   25.6973 C   0  0  0  0  0  0  0  0  0  0  0  0
  -24.2081   -9.6389   21.6012 C   0  0  0  0  0  0  0  0  0  0  0  0
  -23.2262  -11.0031   19.8657 C   0  0  0  0  0  0  0  0  0  0  0  0
  -26.7632  -34.2807   26.9864 C   0  0  0  0  0  0  0  0  0  0  0  0
  -27.4151  -32.1292   25.3456 C   0  0  0  0  0  0  0  0  0  0  0  0
  -26.9188  -29.1413   20.0228 C   0  0  0  0  0  0  0  0  0  0  0  0
  -22.9351   -9.3408   22.0871 C   0  0  0  0  0  0  0  0  0  0  0  0
  -21.9532  -10.7049   20.3516 C   0  0  0  0  0  0  0  0  0  0  0  0
  -27.2986  -27.8593   19.6278 C   0  0  0  0  0  0  0  0  0  0  0  0
  -20.3829   -7.2738   21.2828 C   0  0  0  0  0  0  0  0  0  0  0  0
  -20.1079   -5.9456   21.6080 C   0  0  0  0  0  0  0  0  0  0  0  0
  -25.0642  -27.0666   20.0728 C   0  0  0  0  0  0  0  0  0  0  0  0
  -26.6675  -20.3276   17.4928 C   0  0  0  0  0  0  0  0  0  0  0  0
  -26.7236  -17.9147   17.3852 C   0  0  0  0  0  0  0  0  0  0  0  0
  -28.0959  -19.0844   18.9932 C   0  0  0  0  0  0  0  0  0  0  0  0
  -19.6522   -6.5985   23.8890 C   0  0  0  0  0  0  0  0  0  0  0  0
  -24.3537  -10.4702   20.4905 C   0  0  0  0  0  0  0  0  0  0  0  0
  -26.3963  -10.0667   19.0166 C   0  0  0  0  0  0  0  0  0  0  0  0
  -25.7657  -33.3585   26.6323 C   0  0  0  0  0  0  0  0  0  0  0  0
  -25.6095  -29.3936   20.4569 C   0  0  0  0  0  0  0  0  0  0  0  0
  -26.0960  -32.2638   25.8108 C   0  0  0  0  0  0  0  0  0  0  0  0
  -24.6695  -28.3532   20.4703 C   0  0  0  0  0  0  0  0  0  0  0  0
  -26.2288  -19.1335   16.9209 C   0  0  0  0  0  0  0  0  0  0  0  0
  -27.6011  -20.3032   18.5289 C   0  0  0  0  0  0  0  0  0  0  0  0
  -27.6571  -17.8902   18.4214 C   0  0  0  0  0  0  0  0  0  0  0  0
  -21.8076   -9.8737   21.4623 C   0  0  0  0  0  0  0  0  0  0  0  0
  -26.3721  -26.8211   19.6555 C   0  0  0  0  0  0  0  0  0  0  0  0
  -20.2927   -8.2644   22.2607 C   0  0  0  0  0  0  0  0  0  0  0  0
  -19.7425   -5.6080   22.9111 C   0  0  0  0  0  0  0  0  0  0  0  0
  -19.9273   -7.9268   23.5638 C   0  0  0  0  0  0  0  0  0  0  0  0
  -25.6685  -10.7790   19.9885 C   0  0  0  0  0  0  0  0  0  0  0  0
  -27.5753  -10.7605   18.8937 C   0  0  0  0  0  0  0  0  0  0  0  0
  -28.1917  -23.7269   19.6694 C   0  0  0  0  0  0  0  0  0  0  0  0
  -27.7488  -24.9549   19.9596 C   0  0  0  0  0  0  0  0  0  1  0  0
  -26.0386   -8.8837   18.2897 C   0  0  0  0  0  0  0  0  0  0  0  0
  -24.3015  -30.3982   23.1741 C   0  0  0  0  0  0  0  0  0  0  0  0
  -21.5807  -30.4047   21.4079 C   0  0  0  0  0  0  0  0  0  0  0  0
  -19.8741  -29.1948   18.7115 C   0  0  0  0  0  0  0  0  0  0  0  0
  -29.0889  -16.4505   19.9126 C   0  0  0  0  0  0  0  0  0  0  0  0
  -24.3801  -33.5335   27.2017 C   0  0  0  0  0  0  0  0  0  0  0  0
  -25.2083  -30.7878   20.8543 C   0  0  0  0  0  0  0  0  0  0  0  0
  -23.2459  -28.5763   20.9086 C   0  0  0  0  0  0  0  0  0  0  0  0
  -29.3080  -23.0255   20.3762 C   0  0  0  0  0  0  0  0  0  0  0  0
  -27.5678  -22.8022   18.6678 C   0  0  0  0  0  0  0  0  0  0  0  0
  -23.3160  -32.7127   26.4777 C   0  0  0  0  0  0  0  0  0  0  0  0
  -30.5506  -13.5605   21.3920 C   0  0  0  0  0  0  0  0  0  0  0  0
  -23.7991  -31.2817   26.2643 C   0  0  0  0  0  0  0  0  0  0  0  0
  -29.5336  -12.4532   21.1063 C   0  0  0  0  0  0  0  0  0  0  0  0
  -28.9129  -21.5560   20.2608 C   0  0  0  0  0  0  0  0  0  0  0  0
  -29.8680  -14.8950   21.6870 C   0  0  0  0  0  0  0  0  0  0  0  0
  -27.8843  -14.2280   20.3873 C   0  0  0  0  0  0  0  0  0  0  0  0
  -25.0565  -31.2490   25.3871 C   0  0  1  0  0  0  0  0  0  0  0  0
  -23.9864  -30.8206   21.7670 C   0  0  1  0  0  0  0  0  0  0  0  0
  -28.5260  -12.8799   20.0208 C   0  0  2  0  0  0  0  0  0  0  0  0
  -25.2307  -19.1598   15.8131 C   0  0  0  0  0  0  0  0  0  0  0  0
  -17.6564  -29.3582   17.5485 C   0  0  0  0  0  0  0  0  0  0  0  0
  -20.3196  -28.6635   23.5731 C   0  0  0  0  0  0  0  0  0  0  0  0
  -18.5013  -28.0860   21.9519 C   0  0  0  0  0  0  0  0  0  0  0  0
  -18.8236  -30.4529   22.6706 C   0  0  0  0  0  0  0  0  0  0  0  0
  -21.1213  -30.2077   16.2261 C   0  0  0  0  0  0  0  0  0  0  0  0
  -20.5013  -29.3940   21.1034 C   0  0  1  0  0  0  0  0  0  0  0  0
  -19.0768  -29.8960   17.6266 C   0  0  2  0  0  0  0  0  0  0  0  0
  -19.5637  -29.1442   22.3183 C   0  0  0  0  0  0  0  0  0  0  0  0
  -26.3299  -11.8436   20.4504 N   0  0  0  0  0  0  0  0  0  0  0  0
  -27.4857  -11.8053   19.7657 N   0  0  0  0  0  0  0  0  0  0  0  0
  -28.0353  -21.4858   19.0949 N   0  0  3  0  0  0  0  0  0  0  0  0
  -22.9039  -29.9555   21.2937 N   0  0  0  0  0  0  0  0  0  0  0  0
  -28.9313  -15.2365   20.6142 N   0  0  0  0  0  0  0  0  0  0  0  0
  -28.6696  -10.5726   18.1258 N   0  0  0  0  0  0  0  0  0  0  0  0
  -24.7892   -8.2991   18.5381 N   0  0  0  0  0  0  0  0  0  0  0  0
  -28.1591  -16.6519   18.8930 N   0  0  0  0  0  0  0  0  0  0  0  0
  -24.7064  -31.4335   23.9950 N   0  0  0  0  0  0  0  0  0  0  0  0
  -19.8162  -29.8759   19.9090 N   0  0  0  0  0  0  0  0  0  0  0  0
  -19.7262  -29.7023   16.2993 N   0  3  0  0  0  0  0  0  0  0  0  0
  -26.8109   -8.3512   17.4570 O   0  0  0  0  0  0  0  0  0  0  0  0
  -24.1843  -29.2206   23.4920 O   0  0  0  0  0  0  0  0  0  0  0  0
  -21.2615  -31.5524   21.7281 O   0  0  0  0  0  0  0  0  0  0  0  0
  -20.4840  -28.1456   18.5172 O   0  0  0  0  0  0  0  0  0  0  0  0
  -29.9993  -17.2397   20.1774 O   0  0  0  0  0  0  0  0  0  0  0  0
  -20.5653   -9.5827   21.9360 O   0  0  0  0  0  0  0  0  0  0  0  0
  -26.7404  -25.5687   19.2711 O   0  0  0  0  0  0  0  0  0  1  0  0
  -19.4769   -4.3327   23.2229 F   0  0  0  0  0  0  0  0  0  0  0  0
  -19.8377   -8.8742   24.5073 F   0  0  0  0  0  0  0  0  0  0  0  0
  1  2  1  0  0  0  0
  1  5  2  0  0  0  0
  2  6  2  0  0  0  0
  3  8  2  0  0  0  0
  3 18  1  0  0  0  0
  4  9  1  0  0  0  0
  4 18  2  0  0  0  0
  5 20  1  0  0  0  0
  6 22  1  0  0  0  0
  7 10  2  0  0  0  0
  7 21  1  0  0  0  0
  8 27  1  0  0  0  0
  9 27  2  0  0  0  0
 10 28  1  0  0  0  0
 11 12  2  0  0  0  0
 11 29  1  0  0  0  0
 12 30  1  0  0  0  0
 13 23  1  0  0  0  0
 13 28  2  0  0  0  0
 14 24  2  0  0  0  0
 14 25  1  0  0  0  0
 15 24  1  0  0  0  0
 15 26  2  0  0  0  0
 16 25  2  0  0  0  0
 16 26  1  0  0  0  0
 17 30  2  0  0  0  0
 17 31  1  0  0  0  0
 18 32  1  0  0  0  0
 19 32  1  0  0  0  0
 19 33  2  0  0  0  0
 19 36  1  0  0  0  0
 20 22  2  0  0  0  0
 20 41  1  0  0  0  0
 21 23  2  0  0  0  0
 21 42  1  0  0  0  0
 22 53  1  0  0  0  0
 23 43  1  0  0  0  0
 24 56  1  0  0  0  0
 25 67  1  0  0  0  0
 26 72  1  0  0  0  0
 27 81  1  0  0  0  0
 28 82  1  0  0  0  0
 29 31  2  0  0  0  0
 29 81  1  0  0  0  0
 30 83  1  0  0  0  0
 31 84  1  0  0  0  0
 32 65  2  0  0  0  0
 33 66  1  0  0  0  0
 33 70  1  0  0  0  0
 34 35  2  0  0  0  0
 34 44  1  0  0  0  0
 34 45  1  0  0  0  0
 35 82  1  0  0  0  0
 36 71  1  0  0  0  0
 36 76  2  0  0  0  0
 37 54  1  0  0  0  0
 37 73  1  0  0  0  0
 37 77  2  0  0  0  0
 38 62  1  0  0  0  0
 38 68  1  0  0  0  0
 38 78  2  0  0  0  0
 39 63  1  0  0  0  0
 39 74  1  0  0  0  0
 39 79  2  0  0  0  0
 40 69  1  0  0  0  0
 40 72  1  0  0  0  0
 40 80  2  0  0  0  0
 41 46  1  0  0  0  0
 42 54  1  0  0  0  0
 43 68  1  0  0  0  0
 44 50  1  0  0  0  0
 45 67  1  0  0  0  0
 46 48  1  0  0  0  0
 47 49  1  0  0  0  0
 47 51  1  0  0  0  0
 48 53  1  0  0  0  0
 49 55  1  0  0  0  0
 50 67  1  0  0  0  0
 51 69  1  0  0  0  0
 52 55  1  0  0  0  0
 52 69  1  0  0  0  0
 53 73  1  0  0  0  0
 54 68  1  0  0  0  0
 55 66  1  0  0  0  0
 57 63  1  0  0  0  0
 58 64  1  0  0  0  0
 59 64  1  0  0  0  0
 60 64  1  0  0  0  0
 61 75  1  0  0  0  0
 62 64  1  0  0  0  0
 62 74  1  0  0  0  0
 63 75  1  0  0  0  0
 65 66  1  0  0  0  0
M  CHG  1  75   1
M  ISO  4  35 101  40 100  72 100  82 101
M  END
> <Batch ID>
0140

> <Smiles>
CNC(C)C(=O)NC(C(=O)N1Cc2cc([101O:1][101CH:1]=C3CCN(c4cc(C)cc([100NH:0][100C:0](=O)N5CCCC(n6nc(-c7ccc(Oc8ccc(F)cc8F)cc7)c(C(N)=O)c6N)C5)c4)C3)ccc2CC1C(=O)NC1CCCc2ccccc21)C(C)(C)C

> <Shape>
0.288

> <Color>
0.079

> <Negative vol penalty>
0.000

$$$$

  -OEChem-04052302513D

 88 97  0     1  0  0  0  0  0999 V2000
  -21.9375  -11.4050   21.1631 C   0  0  0  0  0  0  0  0  0  0  0  0
  -21.7234  -12.7494   21.4496 C   0  0  0  0  0  0  0  0  0  0  0  0
  -26.5020  -25.7259   25.3967 C   0  0  0  0  0  0  0  0  0  0  0  0
  -25.3270  -24.7693   23.5149 C   0  0  0  0  0  0  0  0  0  0  0  0
  -23.2269  -10.9473   20.8950 C   0  0  0  0  0  0  0  0  0  0  0  0
  -22.7989  -13.6368   21.4693 C   0  0  0  0  0  0  0  0  0  0  0  0
  -21.7842  -17.9727   19.0578 C   0  0  0  0  0  0  0  0  0  0  0  0
  -18.1415  -28.3991   23.4552 C   0  0  0  0  0  0  0  0  0  0  0  0
  -18.0057  -27.0423   23.1616 C   0  0  0  0  0  0  0  0  0  0  0  0
  -25.9843  -24.7309   26.2258 C   0  0  0  0  0  0  0  0  0  0  0  0
  -24.8093  -23.7742   24.3439 C   0  0  0  0  0  0  0  0  0  0  0  0
  -21.0068  -18.9112   19.7352 C   0  0  0  0  0  0  0  0  0  0  0  0
  -25.8755  -20.8787   25.7223 C   0  0  0  0  0  0  0  0  0  0  0  0
  -25.9027  -19.5660   25.2515 C   0  0  0  0  0  0  0  0  0  0  0  0
  -23.0026  -20.1336   20.3197 C   0  0  0  0  0  0  0  0  0  0  0  0
  -20.1852  -27.0498   22.1189 C   0  0  0  0  0  0  0  0  0  0  0  0
  -23.4950  -19.4562   25.4190 C   0  0  0  0  0  0  0  0  0  0  0  0
  -26.1733  -25.7452   24.0412 C   0  0  0  0  0  0  0  0  0  0  0  0
  -28.0643  -27.0405   22.9213 C   0  0  0  0  0  0  0  0  0  0  0  0
  -24.3174  -11.8313   20.9019 C   0  0  0  0  0  0  0  0  0  0  0  0
  -23.1799  -18.1020   19.0155 C   0  0  0  0  0  0  0  0  0  0  0  0
  -24.1043  -13.1903   21.2024 C   0  0  0  0  0  0  0  0  0  0  0  0
  -23.7953  -19.1968   19.6390 C   0  0  0  0  0  0  0  0  0  0  0  0
  -19.2992  -29.0813   23.0806 C   0  0  0  0  0  0  0  0  0  0  0  0
  -19.0275  -26.3676   22.4935 C   0  0  0  0  0  0  0  0  0  0  0  0
  -20.3210  -28.4066   22.4125 C   0  0  0  0  0  0  0  0  0  0  0  0
  -25.1379  -23.7550   25.6994 C   0  0  0  0  0  0  0  0  0  0  0  0
  -21.6162  -19.9902   20.3687 C   0  0  0  0  0  0  0  0  0  0  0  0
  -24.6581  -21.4801   26.0416 C   0  0  0  0  0  0  0  0  0  0  0  0
  -24.7124  -18.8547   25.0998 C   0  0  0  0  0  0  0  0  0  0  0  0
  -23.4678  -20.7689   25.8899 C   0  0  0  0  0  0  0  0  0  0  0  0
  -26.7074  -26.7732   23.1844 C   0  0  0  0  0  0  0  0  0  0  0  0
  -28.0425  -28.1046   22.0532 C   0  0  0  0  0  0  0  0  0  0  0  0
  -20.2040  -23.2225   21.1070 C   0  0  0  0  0  0  0  0  0  0  0  0
  -19.9939  -24.1143   22.1125 C   0  0  0  0  0  0  0  0  0  0  0  0
  -17.4472  -24.7605   20.2509 C   0  0  0  0  0  0  0  0  0  0  0  0
  -29.2393  -26.3855   23.4173 C   0  0  0  0  0  0  0  0  0  0  0  0
  -25.6270  -16.3479   20.0348 C   0  0  0  0  0  0  0  0  0  0  0  0
  -27.3773  -18.5736   18.4520 C   0  0  0  0  0  0  0  0  0  0  0  0
  -29.6216  -20.8005   17.1672 C   0  0  0  0  0  0  0  0  0  0  0  0
  -22.6114  -28.5535   21.3535 C   0  0  0  0  0  0  0  0  0  0  0  0
  -25.6994  -11.2813   20.6525 C   0  0  0  0  0  0  0  0  0  0  0  0
  -24.0021  -17.0957   18.2581 C   0  0  0  0  0  0  0  0  0  0  0  0
  -25.2883  -19.3922   19.6059 C   0  0  0  0  0  0  0  0  0  0  0  0
  -19.3335  -23.1087   19.8599 C   0  0  0  0  0  0  0  0  0  0  0  0
  -18.6288  -24.3796   19.3863 C   0  0  0  0  0  0  0  0  0  0  0  0
  -17.5611  -24.5477   21.7406 C   0  0  0  0  0  0  0  0  0  0  0  0
  -26.7327  -12.3561   20.3249 C   0  0  0  0  0  0  0  0  0  0  0  0
  -24.8799  -31.6702   21.2724 C   0  0  0  0  0  0  0  0  0  0  0  0
  -26.6194  -13.5213   21.3027 C   0  0  0  0  0  0  0  0  0  0  0  0
  -26.0729  -30.8411   21.7309 C   0  0  0  0  0  0  0  0  0  0  0  0
  -23.5805  -30.9076   21.5161 C   0  0  0  0  0  0  0  0  0  0  0  0
  -24.8121  -29.0906   20.3270 C   0  0  0  0  0  0  0  0  0  0  0  0
  -25.2418  -14.1883   21.2089 C   0  0  1  0  0  0  0  0  0  0  0  0
  -25.4567  -17.0467   18.7155 C   0  0  1  0  0  0  0  0  0  0  0  0
  -26.1495  -29.4972   20.9791 C   0  0  2  0  0  0  0  0  0  0  0  0
  -19.4172  -30.5345   23.4080 C   0  0  0  0  0  0  0  0  0  0  0  0
  -20.9329  -24.1645   23.3045 C   0  0  0  0  0  0  0  0  0  0  0  0
  -31.9999  -21.5632   17.4112 C   0  0  0  0  0  0  0  0  0  0  0  0
  -26.6290  -20.0854   20.9945 C   0  0  0  0  0  0  0  0  0  0  0  0
  -28.6525  -21.5198   20.6539 C   0  0  0  0  0  0  0  0  0  0  0  0
  -28.9126  -19.0661   21.0207 C   0  0  0  0  0  0  0  0  0  0  0  0
  -30.2732  -20.0403   14.3821 C   0  0  0  0  0  0  0  0  0  0  0  0
  -21.3573  -22.2437   21.0832 C   0  0  0  0  0  0  0  0  0  1  0  0
  -28.0006  -19.8998   18.8150 C   0  0  1  0  0  0  0  0  0  0  0  0
  -31.0497  -20.6255   16.6829 C   0  0  2  0  0  0  0  0  0  0  0  0
  -28.0288  -20.1407   20.3508 C   0  0  0  0  0  0  0  0  0  0  0  0
  -25.8836  -27.6008   22.5360 N   0  0  0  0  0  0  0  0  0  0  0  0
  -26.7253  -28.3987   21.8569 N   0  0  0  0  0  0  0  0  0  0  0  0
  -18.8885  -24.9824   22.1939 N   0  0  0  0  0  0  0  0  0  0  0  0
  -26.0496  -18.3780   18.8579 N   0  0  0  0  0  0  0  0  0  0  0  0
  -23.6414  -29.4961   21.1090 N   0  0  0  0  0  0  0  0  0  0  0  0
  -29.0219  -28.8081   21.4462 N   0  0  0  0  0  0  0  0  0  0  0  0
  -29.7553  -25.3014   22.6944 N   0  0  0  0  0  0  0  0  0  0  0  0
  -21.5050  -29.0825   22.0236 N   0  0  0  0  0  0  0  0  0  0  0  0
  -25.1724  -15.0430   20.0431 N   0  0  0  0  0  0  0  0  0  0  0  0
  -29.3152  -19.9196   18.1828 N   0  0  0  0  0  0  0  0  0  0  0  0
  -31.1394  -20.9069   15.2221 N   0  3  0  0  0  0  0  0  0  0  0  0
  -16.4266  -25.2394   19.7548 O   0  0  0  0  0  0  0  0  0  0  0  0
  -29.8050  -26.7404   24.4792 O   0  0  0  0  0  0  0  0  0  0  0  0
  -26.1347  -16.9477   20.9751 O   0  0  0  0  0  0  0  0  0  0  0  0
  -28.0415  -17.7446   17.8249 O   0  0  0  0  0  0  0  0  0  0  0  0
  -28.8558  -21.6376   16.6946 O   0  0  0  0  0  0  0  0  0  0  0  0
  -22.7091  -27.3790   20.9920 O   0  0  0  0  0  0  0  0  0  0  0  0
  -24.6328  -22.7837   26.5081 O   0  0  0  0  0  0  0  0  0  0  0  0
  -20.8598  -20.9073   21.0310 O   0  0  0  0  0  0  0  0  0  1  0  0
  -24.7385  -17.5947   24.6462 F   0  0  0  0  0  0  0  0  0  0  0  0
  -22.2951  -21.3417   26.1938 F   0  0  0  0  0  0  0  0  0  0  0  0
  1  2  1  0  0  0  0
  1  5  2  0  0  0  0
  2  6  2  0  0  0  0
  3 10  2  0  0  0  0
  3 18  1  0  0  0  0
  4 11  1  0  0  0  0
  4 18  2  0  0  0  0
  5 20  1  0  0  0  0
  6 22  1  0  0  0  0
  7 12  2  0  0  0  0
  7 21  1  0  0  0  0
  8  9  2  0  0  0  0
  8 24  1  0  0  0  0
  9 25  1  0  0  0  0
 10 27  1  0  0  0  0
 11 27  2  0  0  0  0
 12 28  1  0  0  0  0
 13 14  2  0  0  0  0
 13 29  1  0  0  0  0
 14 30  1  0  0  0  0
 15 23  1  0  0  0  0
 15 28  2  0  0  0  0
 16 25  2  0  0  0  0
 16 26  1  0  0  0  0
 17 30  2  0  0  0  0
 17 31  1  0  0  0  0
 18 32  1  0  0  0  0
 19 32  1  0  0  0  0
 19 33  2  0  0  0  0
 19 37  1  0  0  0  0
 20 22  2  0  0  0  0
 20 42  1  0  0  0  0
 21 23  2  0  0  0  0
 21 43  1  0  0  0  0
 22 54  1  0  0  0  0
 23 44  1  0  0  0  0
 24 26  2  0  0  0  0
 24 57  1  0  0  0  0
 25 70  1  0  0  0  0
 26 75  1  0  0  0  0
 27 85  1  0  0  0  0
 28 86  1  0  0  0  0
 29 31  2  0  0  0  0
 29 85  1  0  0  0  0
 30 87  1  0  0  0  0
 31 88  1  0  0  0  0
 32 68  2  0  0  0  0
 33 69  1  0  0  0  0
 33 73  1  0  0  0  0
 34 35  2  0  0  0  0
 34 45  1  0  0  0  0
 34 64  1  0  0  0  0
 35 58  1  0  0  0  0
 35 70  1  0  0  0  0
 36 46  1  0  0  0  0
 36 47  1  0  0  0  0
 36 79  2  0  0  0  0
 37 74  1  0  0  0  0
 37 80  2  0  0  0  0
 38 55  1  0  0  0  0
 38 76  1  0  0  0  0
 38 81  2  0  0  0  0
 39 65  1  0  0  0  0
 39 71  1  0  0  0  0
 39 82  2  0  0  0  0
 40 66  1  0  0  0  0
 40 77  1  0  0  0  0
 40 83  2  0  0  0  0
 41 72  1  0  0  0  0
 41 75  1  0  0  0  0
 41 84  2  0  0  0  0
 42 48  1  0  0  0  0
 43 55  1  0  0  0  0
 44 71  1  0  0  0  0
 45 46  1  0  0  0  0
 47 70  1  0  0  0  0
 48 50  1  0  0  0  0
 49 51  1  0  0  0  0
 49 52  1  0  0  0  0
 50 54  1  0  0  0  0
 51 56  1  0  0  0  0
 52 72  1  0  0  0  0
 53 56  1  0  0  0  0
 53 72  1  0  0  0  0
 54 76  1  0  0  0  0
 55 71  1  0  0  0  0
 56 69  1  0  0  0  0
 59 66  1  0  0  0  0
 60 67  1  0  0  0  0
 61 67  1  0  0  0  0
 62 67  1  0  0  0  0
 63 78  1  0  0  0  0
 64 86  1  0  0  0  0
 65 67  1  0  0  0  0
 65 77  1  0  0  0  0
 66 78  1  0  0  0  0
 68 69  1  0  0  0  0
M  CHG  1  78   1
M  ISO  4  41 100  64 101  75 100  86 101
M  END
> <Batch ID>
0140

> <Smiles>
CNC(C)C(=O)NC(C(=O)N1Cc2cc([101O:1][101CH2:1]C3=C(C)N(c4ccc(C)c([100NH:0][100C:0](=O)N5CCCC(n6nc(-c7ccc(Oc8ccc(F)cc8F)cc7)c(C(N)=O)c6N)C5)c4)CC(=O)CC3)ccc2CC1C(=O)NC1CCCc2ccccc21)C(C)(C)C

> <Shape>
0.199

> <Color>
0.086

> <Negative vol penalty>
0.000

$$$$

  -OEChem-04052302513D

 89 98  0     1  0  0  0  0  0999 V2000
  -27.5575  -23.2725   14.2665 C   0  0  0  0  0  0  0  0  0  0  0  0
  -26.5007  -23.5625   15.1236 C   0  0  0  0  0  0  0  0  0  0  0  0
  -24.1776  -13.7647   20.2299 C   0  0  0  0  0  0  0  0  0  0  0  0
  -26.4781  -13.6958   20.9650 C   0  0  0  0  0  0  0  0  0  0  0  0
  -21.2016  -22.9920   22.0685 C   0  0  0  0  0  0  0  0  0  0  0  0
  -22.8332  -24.7266   22.4760 C   0  0  0  0  0  0  0  0  0  0  0  0
  -28.8695  -23.3307   14.7349 C   0  0  0  0  0  0  0  0  0  0  0  0
  -26.7553  -23.9098   16.4499 C   0  0  0  0  0  0  0  0  0  0  0  0
  -24.0169  -27.8867   17.9765 C   0  0  0  0  0  0  0  0  0  0  0  0
  -22.2296  -22.0877   21.8020 C   0  0  0  0  0  0  0  0  0  0  0  0
  -23.8612  -23.8223   22.2095 C   0  0  0  0  0  0  0  0  0  0  0  0
  -23.9225  -12.5780   20.9170 C   0  0  0  0  0  0  0  0  0  0  0  0
  -26.2229  -12.5090   21.6522 C   0  0  0  0  0  0  0  0  0  0  0  0
  -22.6814  -27.6531   18.3015 C   0  0  0  0  0  0  0  0  0  0  0  0
  -24.4409   -9.2704   20.4525 C   0  0  0  0  0  0  0  0  0  0  0  0
  -23.7054   -8.2857   19.7929 C   0  0  0  0  0  0  0  0  0  0  0  0
  -23.2626  -27.6238   20.6426 C   0  0  0  0  0  0  0  0  0  0  0  0
  -22.0188   -8.3888   21.5198 C   0  0  0  0  0  0  0  0  0  0  0  0
  -25.4555  -14.3236   20.2538 C   0  0  0  0  0  0  0  0  0  0  0  0
  -21.5034  -24.3115   22.4054 C   0  0  0  0  0  0  0  0  0  0  0  0
  -25.5796  -15.7781   18.1618 C   0  0  0  0  0  0  0  0  0  0  0  0
  -29.1407  -23.6883   16.0650 C   0  0  0  0  0  0  0  0  0  0  0  0
  -24.9887  -27.9799   18.9832 C   0  0  0  0  0  0  0  0  0  0  0  0
  -28.0720  -23.9715   16.9368 C   0  0  0  0  0  0  0  0  0  0  0  0
  -24.6093  -27.8611   20.3278 C   0  0  0  0  0  0  0  0  0  0  0  0
  -23.5594  -22.5028   21.8725 C   0  0  0  0  0  0  0  0  0  0  0  0
  -24.9451  -11.9501   21.6282 C   0  0  0  0  0  0  0  0  0  0  0  0
  -22.3045  -27.5187   19.6346 C   0  0  0  0  0  0  0  0  0  0  0  0
  -23.9654   -9.8142   21.6458 C   0  0  0  0  0  0  0  0  0  0  0  0
  -22.4943   -7.8450   20.3265 C   0  0  0  0  0  0  0  0  0  0  0  0
  -22.7544   -9.3734   22.1794 C   0  0  0  0  0  0  0  0  0  0  0  0
  -25.7198  -15.5491   19.5437 C   0  0  0  0  0  0  0  0  0  0  0  0
  -25.9517  -17.0892   17.9915 C   0  0  0  0  0  0  0  0  0  0  0  0
  -20.4114  -25.2722   22.6883 C   0  0  0  0  0  0  0  0  0  0  0  0
  -25.1513  -14.8854   17.1248 C   0  0  0  0  0  0  0  0  0  0  0  0
  -27.6006  -26.3335   19.7388 C   0  0  0  0  0  0  0  0  0  0  0  0
  -27.9798  -28.6921   21.9333 C   0  0  0  0  0  0  0  0  0  0  0  0
  -25.8714  -30.5394   24.2048 C   0  0  0  0  0  0  0  0  0  0  0  0
  -25.9750  -21.8311   21.6273 C   0  0  0  0  0  0  0  0  0  0  0  0
  -30.5728  -23.6916   16.5382 C   0  0  0  0  0  0  0  0  0  0  0  0
  -26.4208  -28.2588   18.6175 C   0  0  0  0  0  0  0  0  0  0  0  0
  -25.6108  -27.9732   21.4472 C   0  0  0  0  0  0  0  0  0  0  0  0
  -30.7767  -24.4326   17.8572 C   0  0  0  0  0  0  0  0  0  0  0  0
  -19.3685  -30.3976   23.4262 C   0  0  0  0  0  0  0  0  0  0  0  0
  -18.9689  -29.2168   24.3046 C   0  0  0  0  0  0  0  0  0  0  0  0
  -28.7690  -20.4601   19.8978 C   0  0  0  0  0  0  0  0  0  0  0  0
  -29.7152  -24.0188   18.8715 C   0  0  0  0  0  0  0  0  0  0  0  0
  -19.3613  -30.0250   21.9458 C   0  0  0  0  0  0  0  0  0  0  0  0
  -28.2893  -19.0683   19.4797 C   0  0  0  0  0  0  0  0  0  0  0  0
  -19.8452  -28.0002   24.0335 C   0  0  0  0  0  0  0  0  0  0  0  0
  -28.2328  -20.8556   21.2725 C   0  0  0  0  0  0  0  0  0  0  0  0
  -26.2965  -19.3557   21.0073 C   0  0  0  0  0  0  0  0  0  0  0  0
  -28.3090  -24.3764   18.3755 C   0  0  1  0  0  0  0  0  0  0  0  0
  -27.4084  -27.8231   19.6955 C   0  0  1  0  0  0  0  0  0  0  0  0
  -20.2451  -28.8029   21.6603 C   0  0  1  0  0  0  0  0  0  0  0  0
  -26.7581  -18.9400   19.6009 C   0  0  2  0  0  0  0  0  0  0  0  0
  -19.8445  -27.6159   22.5530 C   0  0  1  0  0  0  0  0  0  0  0  0
  -26.1318  -32.8435   25.1641 C   0  0  0  0  0  0  0  0  0  0  0  0
  -18.7510  -28.0553   19.7816 C   0  0  0  0  0  0  0  0  0  0  0  0
  -20.6900  -29.5792   19.3051 C   0  0  0  0  0  0  0  0  0  0  0  0
  -29.2924  -27.2518   24.2812 C   0  0  0  0  0  0  0  0  0  0  0  0
  -28.1634  -28.8745   25.8176 C   0  0  0  0  0  0  0  0  0  0  0  0
  -29.8112  -29.6938   24.1335 C   0  0  0  0  0  0  0  0  0  0  0  0
  -23.2129  -31.3792   23.2118 C   0  0  0  0  0  0  0  0  0  0  0  0
  -27.5366  -28.9058   23.3605 C   0  0  1  0  0  0  0  0  0  0  0  0
  -25.4686  -31.9983   24.0878 C   0  0  2  0  0  0  0  0  0  0  0  0
  -20.1770  -28.4333   20.1762 C   0  0  0  0  0  0  0  0  0  1  0  0
  -28.6857  -28.6657   24.3801 C   0  0  0  0  0  0  0  0  0  0  0  0
  -26.1477  -16.6282   20.2044 N   0  0  0  0  0  0  0  0  0  0  0  0
  -19.2732  -24.9226   23.1879 N   0  0  0  0  0  0  0  0  0  0  0  0
  -26.2797  -17.5479   19.2334 N   0  0  0  0  0  0  0  0  0  0  0  0
  -26.9997  -28.2402   21.0384 N   0  0  0  0  0  0  0  0  0  0  0  0
  -26.7757  -20.7131   21.3115 N   0  0  0  0  0  0  0  0  0  0  0  0
  -26.0272  -17.8829   16.9021 N   0  0  0  0  0  0  0  0  0  0  0  0
  -26.1184  -14.1153   16.4645 N   0  0  0  0  0  0  0  0  0  0  0  0
  -24.6029  -21.5833   21.6018 N   0  0  0  0  0  0  0  0  0  0  0  0
  -28.0550  -25.7901   18.5524 N   0  0  0  0  0  0  0  0  0  0  0  0
  -26.9614  -30.2454   23.4131 N   0  0  0  0  0  0  0  0  0  0  0  0
  -23.9912  -32.1402   24.2228 N   0  3  0  0  0  0  0  0  0  0  0  0
  -23.9487  -14.7861   16.7823 O   0  0  0  0  0  0  0  0  0  0  0  0
  -27.3562  -25.7226   20.7727 O   0  0  0  0  0  0  0  0  0  0  0  0
  -29.1507  -28.9246   21.6224 O   0  0  0  0  0  0  0  0  0  0  0  0
  -25.2807  -29.7412   24.9290 O   0  0  0  0  0  0  0  0  0  0  0  0
  -26.4690  -22.9344   21.8735 O   0  0  0  0  0  0  0  0  0  0  0  0
  -24.6964  -10.7923   22.2991 O   0  0  0  0  0  0  0  0  0  0  0  0
  -21.0018  -27.2900   19.9546 O   0  0  0  0  0  0  0  0  0  1  0  0
  -20.7637  -26.5446   22.3550 O   0  0  0  0  0  0  0  0  0  0  0  0
  -21.7874   -6.9005   19.6922 F   0  0  0  0  0  0  0  0  0  0  0  0
  -22.2919   -9.8930   23.3248 F   0  0  0  0  0  0  0  0  0  0  0  0
  1  2  1  0  0  0  0
  1  7  2  0  0  0  0
  2  8  2  0  0  0  0
  3 12  2  0  0  0  0
  3 19  1  0  0  0  0
  4 13  1  0  0  0  0
  4 19  2  0  0  0  0
  5 10  2  0  0  0  0
  5 20  1  0  0  0  0
  6 11  1  0  0  0  0
  6 20  2  0  0  0  0
  7 22  1  0  0  0  0
  8 24  1  0  0  0  0
  9 14  2  0  0  0  0
  9 23  1  0  0  0  0
 10 26  1  0  0  0  0
 11 26  2  0  0  0  0
 12 27  1  0  0  0  0
 13 27  2  0  0  0  0
 14 28  1  0  0  0  0
 15 16  2  0  0  0  0
 15 29  1  0  0  0  0
 16 30  1  0  0  0  0
 17 25  1  0  0  0  0
 17 28  2  0  0  0  0
 18 30  2  0  0  0  0
 18 31  1  0  0  0  0
 19 32  1  0  0  0  0
 20 34  1  0  0  0  0
 21 32  1  0  0  0  0
 21 33  2  0  0  0  0
 21 35  1  0  0  0  0
 22 24  2  0  0  0  0
 22 40  1  0  0  0  0
 23 25  2  0  0  0  0
 23 41  1  0  0  0  0
 24 53  1  0  0  0  0
 25 42  1  0  0  0  0
 26 76  1  0  0  0  0
 27 85  1  0  0  0  0
 28 86  1  0  0  0  0
 29 31  2  0  0  0  0
 29 85  1  0  0  0  0
 30 88  1  0  0  0  0
 31 89  1  0  0  0  0
 32 69  2  0  0  0  0
 33 71  1  0  0  0  0
 33 74  1  0  0  0  0
 34 70  2  0  0  0  0
 34 87  1  0  0  0  0
 35 75  1  0  0  0  0
 35 80  2  0  0  0  0
 36 54  1  0  0  0  0
 36 77  1  0  0  0  0
 36 81  2  0  0  0  0
 37 65  1  0  0  0  0
 37 72  1  0  0  0  0
 37 82  2  0  0  0  0
 38 66  1  0  0  0  0
 38 78  1  0  0  0  0
 38 83  2  0  0  0  0
 39 73  1  0  0  0  0
 39 76  1  0  0  0  0
 39 84  2  0  0  0  0
 40 43  1  0  0  0  0
 41 54  1  0  0  0  0
 42 72  1  0  0  0  0
 43 47  1  0  0  0  0
 44 45  1  0  0  0  0
 44 48  1  0  0  0  0
 45 50  1  0  0  0  0
 46 49  1  0  0  0  0
 46 51  1  0  0  0  0
 47 53  1  0  0  0  0
 48 55  1  0  0  0  0
 49 56  1  0  0  0  0
 50 57  1  0  0  0  0
 51 73  1  0  0  0  0
 52 56  1  0  0  0  0
 52 73  1  0  0  0  0
 53 77  1  0  0  0  0
 54 72  1  0  0  0  0
 55 57  1  0  0  0  0
 55 67  1  0  0  0  0
 56 71  1  0  0  0  0
 57 87  1  0  0  0  0
 58 66  1  0  0  0  0
 59 67  1  0  0  0  0
 60 67  1  0  0  0  0
 61 68  1  0  0  0  0
 62 68  1  0  0  0  0
 63 68  1  0  0  0  0
 64 79  1  0  0  0  0
 65 68  1  0  0  0  0
 65 78  1  0  0  0  0
 66 79  1  0  0  0  0
 67 86  1  0  0  0  0
 69 71  1  0  0  0  0
M  CHG  1  79   1
M  ISO  4  39 100  67 101  76 100  86 101
M  END
> <Batch ID>
0140

> <Smiles>
CNC(C)C(=O)NC(C(=O)N1Cc2cc([101O:1][101C:1](C)(C)C3CCCCC3OC(=N)c3ccc([100NH:0][100C:0](=O)N4CCCC(n5nc(-c6ccc(Oc7ccc(F)cc7F)cc6)c(C(N)=O)c5N)C4)cc3)ccc2CC1C(=O)NC1CCCc2ccccc21)C(C)(C)C

> <Shape>
0.251

> <Color>
0.051

> <Negative vol penalty>
0.000

$$$$

  -OEChem-04052302513D

 85 94  0     1  0  0  0  0  0999 V2000
  -17.9192  -27.0804   24.9151 C   0  0  0  0  0  0  0  0  0  0  0  0
  -18.5697  -26.7418   23.7328 C   0  0  0  0  0  0  0  0  0  0  0  0
  -27.4984  -14.1901   20.2895 C   0  0  0  0  0  0  0  0  0  0  0  0
  -27.2451  -16.1980   18.9700 C   0  0  0  0  0  0  0  0  0  0  0  0
  -17.8154  -28.4182   25.2938 C   0  0  0  0  0  0  0  0  0  0  0  0
  -19.1158  -27.7410   22.9280 C   0  0  0  0  0  0  0  0  0  0  0  0
  -26.1381  -27.7848   21.3228 C   0  0  0  0  0  0  0  0  0  0  0  0
  -26.3543  -13.6561   19.6966 C   0  0  0  0  0  0  0  0  0  0  0  0
  -26.1010  -15.6640   18.3770 C   0  0  0  0  0  0  0  0  0  0  0  0
  -27.4301  -27.7449   20.7982 C   0  0  0  0  0  0  0  0  0  0  0  0
  -23.0045  -13.9779   20.0117 C   0  0  0  0  0  0  0  0  0  0  0  0
  -22.0733  -13.3573   20.8444 C   0  0  0  0  0  0  0  0  0  0  0  0
  -31.8578  -25.4772   19.6141 C   0  0  0  0  0  0  0  0  0  0  0  0
  -31.5037  -24.6523   20.7206 C   0  0  0  0  0  0  0  0  0  0  0  0
  -27.0307  -29.8230   19.6278 C   0  0  0  0  0  0  0  0  0  0  0  0
  -22.3625  -11.2904   19.6273 C   0  0  0  0  0  0  0  0  0  0  0  0
  -27.9437  -15.4611   19.9263 C   0  0  0  0  0  0  0  0  0  0  0  0
  -30.4280  -15.4813   20.5057 C   0  0  0  0  0  0  0  0  0  0  0  0
  -18.3690  -29.4336   24.4981 C   0  0  0  0  0  0  0  0  0  0  0  0
  -25.2917  -28.8533   21.0137 C   0  0  0  0  0  0  0  0  0  0  0  0
  -19.0182  -29.0938   23.2958 C   0  0  0  0  0  0  0  0  0  0  0  0
  -25.7398  -29.8748   20.1602 C   0  0  0  0  0  0  0  0  0  0  0  0
  -25.6557  -14.3930   18.7403 C   0  0  0  0  0  0  0  0  0  0  0  0
  -27.8752  -28.7613   19.9526 C   0  0  0  0  0  0  0  0  0  0  0  0
  -23.6146  -13.2548   18.9867 C   0  0  0  0  0  0  0  0  0  0  0  0
  -21.7523  -12.0136   20.6522 C   0  0  0  0  0  0  0  0  0  0  0  0
  -23.2936  -11.9110   18.7945 C   0  0  0  0  0  0  0  0  0  0  0  0
  -29.1251  -16.0135   20.5388 C   0  0  0  0  0  0  0  0  0  0  0  0
  -31.7289  -24.8152   18.4130 C   0  0  0  0  0  0  0  0  0  0  0  0
  -31.1813  -16.3722   21.2305 C   0  0  0  0  0  0  0  0  0  0  0  0
  -31.1174  -23.3911   20.3229 C   0  0  0  0  0  0  0  0  0  0  0  0
  -30.9138  -14.2884   19.8760 C   0  0  0  0  0  0  0  0  0  0  0  0
  -31.9919  -25.3094   17.0555 C   0  0  0  0  0  0  0  0  0  0  0  0
  -21.9312  -30.4562   21.4762 C   0  0  0  0  0  0  0  0  0  0  0  0
  -24.0091  -32.7124   21.5258 C   0  0  0  0  0  0  0  0  0  0  0  0
  -25.7555  -35.5885   22.0874 C   0  0  0  0  0  0  0  0  0  0  0  0
  -30.5619  -22.1859   22.4643 C   0  0  0  0  0  0  0  0  0  0  0  0
  -18.1904  -30.8690   24.9249 C   0  0  0  0  0  0  0  0  0  0  0  0
  -23.8711  -28.9062   21.5067 C   0  0  0  0  0  0  0  0  0  0  0  0
  -24.7827  -30.9867   19.8276 C   0  0  0  0  0  0  0  0  0  0  0  0
  -19.1233  -31.8392   24.2046 C   0  0  0  0  0  0  0  0  0  0  0  0
  -31.8199  -28.4300   15.3127 C   0  0  0  0  0  0  0  0  0  0  0  0
  -30.8285  -19.5265   24.8166 C   0  0  0  0  0  0  0  0  0  0  0  0
  -19.1289  -31.5604   22.7050 C   0  0  0  0  0  0  0  0  0  0  0  0
  -30.7418  -29.2015   16.0733 C   0  0  0  0  0  0  0  0  0  0  0  0
  -30.5465  -18.2749   23.9823 C   0  0  0  0  0  0  0  0  0  0  0  0
  -31.5107  -26.9367   15.2598 C   0  0  0  0  0  0  0  0  0  0  0  0
  -29.9693  -20.7092   24.3730 C   0  0  0  0  0  0  0  0  0  0  0  0
  -30.1947  -27.0934   17.3461 C   0  0  0  0  0  0  0  0  0  0  0  0
  -29.7541  -19.7705   22.1055 C   0  0  0  0  0  0  0  0  0  0  0  0
  -19.6451  -30.1472   22.4085 C   0  0  1  0  0  0  0  0  0  0  0  0
  -23.3897  -30.3368   21.8078 C   0  0  1  0  0  0  0  0  0  0  0  0
  -30.4913  -28.5939   17.4616 C   0  0  2  0  0  0  0  0  0  0  0  0
  -30.6424  -18.5705   22.4727 C   0  0  2  0  0  0  0  0  0  0  0  0
  -25.5454  -38.0839   21.9257 C   0  0  0  0  0  0  0  0  0  0  0  0
  -24.3541  -32.5418   18.5000 C   0  0  0  0  0  0  0  0  0  0  0  0
  -25.0801  -34.9377   18.5189 C   0  0  0  0  0  0  0  0  0  0  0  0
  -22.7818  -34.3268   19.2720 C   0  0  0  0  0  0  0  0  0  0  0  0
  -26.1777  -35.9287   24.9968 C   0  0  0  0  0  0  0  0  0  0  0  0
  -29.3476  -29.3171   18.1691 C   0  0  0  0  0  0  0  0  0  1  0  0
  -24.7596  -33.7583   20.7409 C   0  0  1  0  0  0  0  0  0  0  0  0
  -25.3854  -36.8650   22.8209 C   0  0  2  0  0  0  0  0  0  0  0  0
  -24.2575  -33.8718   19.2737 C   0  0  0  0  0  0  0  0  0  0  0  0
  -29.0514  -17.1540   21.2301 N   0  0  0  0  0  0  0  0  0  0  0  0
  -30.3175  -17.3457   21.6382 N   0  0  0  0  0  0  0  0  0  0  0  0
  -31.2622  -26.4111   16.6017 N   0  0  0  0  0  0  0  0  0  0  0  0
  -24.0543  -31.4012   21.0368 N   0  0  0  0  0  0  0  0  0  0  0  0
  -30.1142  -20.9326   22.9329 N   0  0  0  0  0  0  0  0  0  0  0  0
  -32.4917  -16.4098   21.5527 N   0  0  0  0  0  0  0  0  0  0  0  0
  -30.0050  -13.4872   19.1713 N   0  0  0  0  0  0  0  0  0  0  0  0
  -30.6922  -22.2703   21.0784 N   0  0  0  0  0  0  0  0  0  0  0  0
  -21.0880  -30.1040   22.5127 N   0  0  0  0  0  0  0  0  0  0  0  0
  -24.6545  -34.9962   21.5058 N   0  0  0  0  0  0  0  0  0  0  0  0
  -26.2538  -37.0443   24.0188 N   0  3  0  0  0  0  0  0  0  0  0  0
  -32.1149  -13.9345   19.9503 O   0  0  0  0  0  0  0  0  0  0  0  0
  -32.8571  -24.7107   16.4181 O   0  0  0  0  0  0  0  0  0  0  0  0
  -21.5944  -30.8410   20.3626 O   0  0  0  0  0  0  0  0  0  0  0  0
  -23.3939  -33.0470   22.5421 O   0  0  0  0  0  0  0  0  0  0  0  0
  -26.9067  -35.1616   22.0324 O   0  0  0  0  0  0  0  0  0  0  0  0
  -30.8374  -23.1071   23.2372 O   0  0  0  0  0  0  0  0  0  0  0  0
  -24.5394  -13.8721   18.1613 O   0  0  0  0  0  0  0  0  0  0  0  0
  -29.1393  -28.7184   19.4476 O   0  0  0  0  0  0  0  0  0  1  0  0
  -20.8593  -11.4173   21.4529 F   0  0  0  0  0  0  0  0  0  0  0  0
  -23.8773  -11.2108   17.8123 F   0  0  0  0  0  0  0  0  0  0  0  0
  -31.1829  -23.2056   18.6219 S   0  0  0  0  0  0  0  0  0  0  0  0
  1  2  1  0  0  0  0
  1  5  2  0  0  0  0
  2  6  2  0  0  0  0
  3  8  2  0  0  0  0
  3 17  1  0  0  0  0
  4  9  1  0  0  0  0
  4 17  2  0  0  0  0
  5 19  1  0  0  0  0
  6 21  1  0  0  0  0
  7 10  2  0  0  0  0
  7 20  1  0  0  0  0
  8 23  1  0  0  0  0
  9 23  2  0  0  0  0
 10 24  1  0  0  0  0
 11 12  2  0  0  0  0
 11 25  1  0  0  0  0
 12 26  1  0  0  0  0
 13 14  1  0  0  0  0
 13 29  2  0  0  0  0
 14 31  2  0  0  0  0
 15 22  1  0  0  0  0
 15 24  2  0  0  0  0
 16 26  2  0  0  0  0
 16 27  1  0  0  0  0
 17 28  1  0  0  0  0
 18 28  1  0  0  0  0
 18 30  2  0  0  0  0
 18 32  1  0  0  0  0
 19 21  2  0  0  0  0
 19 38  1  0  0  0  0
 20 22  2  0  0  0  0
 20 39  1  0  0  0  0
 21 51  1  0  0  0  0
 22 40  1  0  0  0  0
 23 81  1  0  0  0  0
 24 82  1  0  0  0  0
 25 27  2  0  0  0  0
 25 81  1  0  0  0  0
 26 83  1  0  0  0  0
 27 84  1  0  0  0  0
 28 64  2  0  0  0  0
 29 33  1  0  0  0  0
 29 85  1  0  0  0  0
 30 65  1  0  0  0  0
 30 69  1  0  0  0  0
 31 71  1  0  0  0  0
 31 85  1  0  0  0  0
 32 70  1  0  0  0  0
 32 75  2  0  0  0  0
 33 66  1  0  0  0  0
 33 76  2  0  0  0  0
 34 52  1  0  0  0  0
 34 72  1  0  0  0  0
 34 77  2  0  0  0  0
 35 61  1  0  0  0  0
 35 67  1  0  0  0  0
 35 78  2  0  0  0  0
 36 62  1  0  0  0  0
 36 73  1  0  0  0  0
 36 79  2  0  0  0  0
 37 68  1  0  0  0  0
 37 71  1  0  0  0  0
 37 80  2  0  0  0  0
 38 41  1  0  0  0  0
 39 52  1  0  0  0  0
 40 67  1  0  0  0  0
 41 44  1  0  0  0  0
 42 45  1  0  0  0  0
 42 47  1  0  0  0  0
 43 46  1  0  0  0  0
 43 48  1  0  0  0  0
 44 51  1  0  0  0  0
 45 53  1  0  0  0  0
 46 54  1  0  0  0  0
 47 66  1  0  0  0  0
 48 68  1  0  0  0  0
 49 53  1  0  0  0  0
 49 66  1  0  0  0  0
 50 54  1  0  0  0  0
 50 68  1  0  0  0  0
 51 72  1  0  0  0  0
 52 67  1  0  0  0  0
 53 60  1  0  0  0  0
 54 65  1  0  0  0  0
 55 62  1  0  0  0  0
 56 63  1  0  0  0  0
 57 63  1  0  0  0  0
 58 63  1  0  0  0  0
 59 74  1  0  0  0  0
 60 82  1  0  0  0  0
 61 63  1  0  0  0  0
 61 73  1  0  0  0  0
 62 74  1  0  0  0  0
 64 65  1  0  0  0  0
M  CHG  1  74   1
M  ISO  4  37 100  60 101  71 100  82 101
M  END
> <Batch ID>
0140

> <Smiles>
CNC(C)C(=O)NC(C(=O)N1Cc2cc([101O:1][101CH2:1]C3CCCN(C(=O)c4ccc([100NH:0][100C:0](=O)N5CCCC(n6nc(-c7ccc(Oc8ccc(F)cc8F)cc7)c(C(N)=O)c6N)C5)s4)C3)ccc2CC1C(=O)NC1CCCc2ccccc21)C(C)(C)C

> <Shape>
0.242

> <Color>
0.102

> <Negative vol penalty>
0.000

$$$$

  -OEChem-04052302513D

 85 93  0     1  0  0  0  0  0999 V2000
  -25.4994  -32.8145   22.4524 C   0  0  0  0  0  0  0  0  0  0  0  0
  -25.6051  -31.4366   22.6120 C   0  0  0  0  0  0  0  0  0  0  0  0
  -23.1886   -9.7038   19.9581 C   0  0  0  0  0  0  0  0  0  0  0  0
  -23.8351   -9.8694   22.2801 C   0  0  0  0  0  0  0  0  0  0  0  0
  -24.2794  -33.4500   22.6803 C   0  0  0  0  0  0  0  0  0  0  0  0
  -24.4911  -30.6934   23.0007 C   0  0  0  0  0  0  0  0  0  0  0  0
  -23.9442  -26.4508   20.2902 C   0  0  0  0  0  0  0  0  0  0  0  0
  -22.4770   -8.5376   20.2394 C   0  0  0  0  0  0  0  0  0  0  0  0
  -23.1234   -8.7031   22.5614 C   0  0  0  0  0  0  0  0  0  0  0  0
  -24.7677  -25.3748   20.6186 C   0  0  0  0  0  0  0  0  0  0  0  0
  -19.9018   -7.8118   23.0583 C   0  0  0  0  0  0  0  0  0  0  0  0
  -19.0907   -7.8071   24.1931 C   0  0  0  0  0  0  0  0  0  0  0  0
  -22.9567  -24.3755   21.8599 C   0  0  0  0  0  0  0  0  0  0  0  0
  -31.4237  -18.7633   24.1266 C   0  0  0  0  0  0  0  0  0  0  0  0
  -31.7805  -16.9348   22.5883 C   0  0  0  0  0  0  0  0  0  0  0  0
  -29.5399  -17.7256   23.0259 C   0  0  0  0  0  0  0  0  0  0  0  0
  -20.3662   -5.9651   25.0971 C   0  0  0  0  0  0  0  0  0  0  0  0
  -23.8678  -10.3697   20.9785 C   0  0  0  0  0  0  0  0  0  0  0  0
  -24.1206  -12.8958   20.7289 C   0  0  0  0  0  0  0  0  0  0  0  0
  -23.1475  -32.7129   23.0625 C   0  0  0  0  0  0  0  0  0  0  0  0
  -22.6219  -26.5026   20.7540 C   0  0  0  0  0  0  0  0  0  0  0  0
  -23.2552  -31.3197   23.2352 C   0  0  0  0  0  0  0  0  0  0  0  0
  -22.1177  -25.4520   21.5338 C   0  0  0  0  0  0  0  0  0  0  0  0
  -32.2894  -17.8902   23.4680 C   0  0  0  0  0  0  0  0  0  0  0  0
  -30.0489  -18.6809   23.9056 C   0  0  0  0  0  0  0  0  0  0  0  0
  -30.4056  -16.8525   22.3673 C   0  0  0  0  0  0  0  0  0  0  0  0
  -22.4443   -8.0373   21.5410 C   0  0  0  0  0  0  0  0  0  0  0  0
  -24.2749  -24.3383   21.4060 C   0  0  0  0  0  0  0  0  0  0  0  0
  -20.9450   -6.8931   22.9428 C   0  0  0  0  0  0  0  0  0  0  0  0
  -19.3229   -6.8838   25.2125 C   0  0  0  0  0  0  0  0  0  0  0  0
  -21.1772   -5.9697   23.9622 C   0  0  0  0  0  0  0  0  0  0  0  0
  -24.6035  -11.5741   20.6885 C   0  0  0  0  0  0  0  0  0  0  0  0
  -25.2005  -13.6669   20.3741 C   0  0  0  0  0  0  0  0  0  0  0  0
  -22.8129  -13.3830   21.0578 C   0  0  0  0  0  0  0  0  0  0  0  0
  -20.9782  -28.4734   22.6296 C   0  0  0  0  0  0  0  0  0  0  0  0
  -18.4778  -26.6081   21.7404 C   0  0  0  0  0  0  0  0  0  0  0  0
  -27.7834  -19.6227   24.4747 C   0  0  0  0  0  0  0  0  0  0  0  0
  -17.3815  -23.5886   20.5882 C   0  0  0  0  0  0  0  0  0  0  0  0
  -30.6089  -14.9384   20.7421 C   0  0  0  0  0  0  0  0  0  0  0  0
  -21.8621  -33.4500   23.3434 C   0  0  0  0  0  0  0  0  0  0  0  0
  -21.7383  -27.6572   20.3686 C   0  0  0  0  0  0  0  0  0  0  0  0
  -20.6991  -25.4500   22.0399 C   0  0  0  0  0  0  0  0  0  0  0  0
  -20.6363  -32.5413   23.3890 C   0  0  0  0  0  0  0  0  0  0  0  0
  -29.7019  -12.3533   18.4679 C   0  0  0  0  0  0  0  0  0  0  0  0
  -20.9208  -31.3031   24.2332 C   0  0  0  0  0  0  0  0  0  0  0  0
  -28.2549  -12.0289   18.8462 C   0  0  0  0  0  0  0  0  0  0  0  0
  -30.5482  -12.6853   19.6956 C   0  0  0  0  0  0  0  0  0  0  0  0
  -28.5506  -13.4090   20.9426 C   0  0  0  0  0  0  0  0  0  0  0  0
  -22.0632  -30.4758   23.6316 C   0  0  1  0  0  0  0  0  0  0  0  0
  -20.5651  -27.8565   21.3233 C   0  0  1  0  0  0  0  0  0  0  0  0
  -27.6434  -13.1314   19.7328 C   0  0  2  0  0  0  0  0  0  0  0  0
  -33.7594  -17.9778   23.7057 C   0  0  0  0  0  0  0  0  0  0  0  0
  -15.2802  -22.3507   19.9968 C   0  0  0  0  0  0  0  0  0  0  0  0
  -17.8756  -26.2182   24.7061 C   0  0  0  0  0  0  0  0  0  0  0  0
  -16.4235  -24.2757   24.0844 C   0  0  0  0  0  0  0  0  0  0  0  0
  -15.8585  -26.5644   23.2688 C   0  0  0  0  0  0  0  0  0  0  0  0
  -18.2393  -23.2411   17.7771 C   0  0  0  0  0  0  0  0  0  0  0  0
  -27.2267  -20.7269   25.3651 C   0  0  0  0  0  0  0  0  0  0  0  0
  -25.9345  -21.3519   24.8409 C   0  0  0  0  0  0  0  0  0  0  0  0
  -26.1307  -22.0525   23.4959 C   0  0  0  0  0  0  0  0  0  0  0  0
  -24.8254  -22.6367   22.9736 C   0  0  0  0  0  0  0  0  0  1  0  0
  -17.8401  -25.3486   22.2753 C   0  0  1  0  0  0  0  0  0  0  0  0
  -16.4110  -23.2258   19.4787 C   0  0  2  0  0  0  0  0  0  0  0  0
  -17.0268  -25.6024   23.5759 C   0  0  0  0  0  0  0  0  0  0  0  0
  -25.8900  -11.5057   20.3357 N   0  0  0  0  0  0  0  0  0  0  0  0
  -26.2245  -12.7941   20.1511 N   0  0  0  0  0  0  0  0  0  0  0  0
  -19.8763  -26.6041   21.6415 N   0  0  0  0  0  0  0  0  0  0  0  0
  -29.9092  -13.7404   20.4851 N   0  0  0  0  0  0  0  0  0  0  0  0
  -25.3644  -14.9995   20.2342 N   0  0  0  0  0  0  0  0  0  0  0  0
  -21.8204  -12.4544   21.3996 N   0  0  0  0  0  0  0  0  0  0  0  0
  -29.1708  -19.5670   24.5742 N   0  0  0  0  0  0  0  0  0  0  0  0
  -29.8884  -15.8811   21.4748 N   0  0  0  0  0  0  0  0  0  0  0  0
  -21.5891  -29.7062   22.5014 N   0  0  0  0  0  0  0  0  0  0  0  0
  -17.0555  -24.7910   21.1791 N   0  0  0  0  0  0  0  0  0  0  0  0
  -17.1171  -22.4878   18.3936 N   0  3  0  0  0  0  0  0  0  0  0  0
  -22.5284  -14.6045   21.0329 O   0  0  0  0  0  0  0  0  0  0  0  0
  -20.7576  -27.8759   23.6765 O   0  0  0  0  0  0  0  0  0  0  0  0
  -17.7608  -27.5578   21.4153 O   0  0  0  0  0  0  0  0  0  0  0  0
  -27.0565  -18.8989   23.8023 O   0  0  0  0  0  0  0  0  0  0  0  0
  -18.3315  -22.8747   20.9020 O   0  0  0  0  0  0  0  0  0  0  0  0
  -31.7523  -15.1257   20.3185 O   0  0  0  0  0  0  0  0  0  0  0  0
  -21.7498   -6.8995   21.8159 O   0  0  0  0  0  0  0  0  0  0  0  0
  -25.0767  -23.2872   21.7286 O   0  0  0  0  0  0  0  0  0  1  0  0
  -18.5450   -6.8805   26.3028 F   0  0  0  0  0  0  0  0  0  0  0  0
  -22.1786   -5.0854   23.8575 F   0  0  0  0  0  0  0  0  0  0  0  0
  1  2  1  0  0  0  0
  1  5  2  0  0  0  0
  2  6  2  0  0  0  0
  3  8  2  0  0  0  0
  3 18  1  0  0  0  0
  4  9  1  0  0  0  0
  4 18  2  0  0  0  0
  5 20  1  0  0  0  0
  6 22  1  0  0  0  0
  7 10  2  0  0  0  0
  7 21  1  0  0  0  0
  8 27  1  0  0  0  0
  9 27  2  0  0  0  0
 10 28  1  0  0  0  0
 11 12  2  0  0  0  0
 11 29  1  0  0  0  0
 12 30  1  0  0  0  0
 13 23  1  0  0  0  0
 13 28  2  0  0  0  0
 14 24  2  0  0  0  0
 14 25  1  0  0  0  0
 15 24  1  0  0  0  0
 15 26  2  0  0  0  0
 16 25  2  0  0  0  0
 16 26  1  0  0  0  0
 17 30  2  0  0  0  0
 17 31  1  0  0  0  0
 18 32  1  0  0  0  0
 19 32  1  0  0  0  0
 19 33  2  0  0  0  0
 19 34  1  0  0  0  0
 20 22  2  0  0  0  0
 20 40  1  0  0  0  0
 21 23  2  0  0  0  0
 21 41  1  0  0  0  0
 22 49  1  0  0  0  0
 23 42  1  0  0  0  0
 24 52  1  0  0  0  0
 25 71  1  0  0  0  0
 26 72  1  0  0  0  0
 27 82  1  0  0  0  0
 28 83  1  0  0  0  0
 29 31  2  0  0  0  0
 29 82  1  0  0  0  0
 30 84  1  0  0  0  0
 31 85  1  0  0  0  0
 32 65  2  0  0  0  0
 33 66  1  0  0  0  0
 33 69  1  0  0  0  0
 34 70  1  0  0  0  0
 34 76  2  0  0  0  0
 35 50  1  0  0  0  0
 35 73  1  0  0  0  0
 35 77  2  0  0  0  0
 36 62  1  0  0  0  0
 36 67  1  0  0  0  0
 36 78  2  0  0  0  0
 37 58  1  0  0  0  0
 37 71  1  0  0  0  0
 37 79  2  0  0  0  0
 38 63  1  0  0  0  0
 38 74  1  0  0  0  0
 38 80  2  0  0  0  0
 39 68  1  0  0  0  0
 39 72  1  0  0  0  0
 39 81  2  0  0  0  0
 40 43  1  0  0  0  0
 41 50  1  0  0  0  0
 42 67  1  0  0  0  0
 43 45  1  0  0  0  0
 44 46  1  0  0  0  0
 44 47  1  0  0  0  0
 45 49  1  0  0  0  0
 46 51  1  0  0  0  0
 47 68  1  0  0  0  0
 48 51  1  0  0  0  0
 48 68  1  0  0  0  0
 49 73  1  0  0  0  0
 50 67  1  0  0  0  0
 51 66  1  0  0  0  0
 53 63  1  0  0  0  0
 54 64  1  0  0  0  0
 55 64  1  0  0  0  0
 56 64  1  0  0  0  0
 57 75  1  0  0  0  0
 58 59  1  0  0  0  0
 59 60  1  0  0  0  0
 60 61  1  0  0  0  0
 61 83  1  0  0  0  0
 62 64  1  0  0  0  0
 62 74  1  0  0  0  0
 63 75  1  0  0  0  0
 65 66  1  0  0  0  0
M  CHG  1  75   1
M  ISO  4  39 100  61 101  72 100  83 101
M  END
> <Batch ID>
0140

> <Smiles>
CNC(C)C(=O)NC(C(=O)N1Cc2cc([101O:1][101CH2:1]CCCC(=O)Nc3cc(C)cc([100NH:0][100C:0](=O)N4CCCC(n5nc(-c6ccc(Oc7ccc(F)cc7F)cc6)c(C(N)=O)c5N)C4)c3)ccc2CC1C(=O)NC1CCCc2ccccc21)C(C)(C)C

> <Shape>
0.275

> <Color>
0.206

> <Negative vol penalty>
0.000

$$$$

  -OEChem-04052302513D

 87 95  0     1  0  0  0  0  0999 V2000
  -27.9002  -37.3063   22.0732 C   0  0  0  0  0  0  0  0  0  0  0  0
  -28.1269  -36.0002   22.4952 C   0  0  0  0  0  0  0  0  0  0  0  0
  -26.5489  -11.3421   21.3742 C   0  0  0  0  0  0  0  0  0  0  0  0
  -25.4316  -12.5940   19.6360 C   0  0  0  0  0  0  0  0  0  0  0  0
  -26.5954  -37.7844   21.9597 C   0  0  0  0  0  0  0  0  0  0  0  0
  -27.0489  -35.1717   22.8050 C   0  0  0  0  0  0  0  0  0  0  0  0
  -27.5446  -30.5261   20.8512 C   0  0  0  0  0  0  0  0  0  0  0  0
  -27.5104  -21.0294   16.7500 C   0  0  0  0  0  0  0  0  0  0  0  0
  -28.1364  -19.8726   17.2141 C   0  0  0  0  0  0  0  0  0  0  0  0
  -25.3144  -10.8981   21.8480 C   0  0  0  0  0  0  0  0  0  0  0  0
  -24.1970  -12.1499   20.1097 C   0  0  0  0  0  0  0  0  0  0  0  0
  -28.4013  -29.6460   21.5109 C   0  0  0  0  0  0  0  0  0  0  0  0
  -23.0216   -8.5573   21.0133 C   0  0  0  0  0  0  0  0  0  0  0  0
  -22.8975   -7.2048   21.3307 C   0  0  0  0  0  0  0  0  0  0  0  0
  -26.5021  -28.5979   22.5663 C   0  0  0  0  0  0  0  0  0  0  0  0
  -29.3542  -21.1830   18.8380 C   0  0  0  0  0  0  0  0  0  0  0  0
  -22.3519   -7.7898   23.6104 C   0  0  0  0  0  0  0  0  0  0  0  0
  -26.6075  -12.1902   20.2683 C   0  0  0  0  0  0  0  0  0  0  0  0
  -28.6946  -12.0301   18.8102 C   0  0  0  0  0  0  0  0  0  0  0  0
  -25.5005  -36.9584   22.2591 C   0  0  0  0  0  0  0  0  0  0  0  0
  -26.1587  -30.4557   21.0529 C   0  0  0  0  0  0  0  0  0  0  0  0
  -25.7283  -35.6397   22.6968 C   0  0  0  0  0  0  0  0  0  0  0  0
  -25.6298  -29.4766   21.9060 C   0  0  0  0  0  0  0  0  0  0  0  0
  -27.8063  -22.2631   17.3298 C   0  0  0  0  0  0  0  0  0  0  0  0
  -29.0582  -19.9493   18.2581 C   0  0  0  0  0  0  0  0  0  0  0  0
  -24.1385  -11.3019   21.2157 C   0  0  0  0  0  0  0  0  0  0  0  0
  -27.8804  -28.6836   22.3708 C   0  0  0  0  0  0  0  0  0  0  0  0
  -22.8109   -9.5262   21.9945 C   0  0  0  0  0  0  0  0  0  0  0  0
  -28.7282  -22.3399   18.3738 C   0  0  0  0  0  0  0  0  0  0  0  0
  -22.5626   -6.8210   22.6292 C   0  0  0  0  0  0  0  0  0  0  0  0
  -22.4760   -9.1424   23.2930 C   0  0  0  0  0  0  0  0  0  0  0  0
  -27.8824  -12.6497   19.7788 C   0  0  0  0  0  0  0  0  0  0  0  0
  -29.7876  -12.8545   18.7002 C   0  0  0  0  0  0  0  0  0  0  0  0
  -28.4802  -10.8177   18.0754 C   0  0  0  0  0  0  0  0  0  0  0  0
  -23.9578  -32.4324   22.2158 C   0  0  0  0  0  0  0  0  0  0  0  0
  -29.0343  -24.8387   20.9884 C   0  0  0  0  0  0  0  0  0  0  0  0
  -21.9160  -30.1069   21.2433 C   0  0  0  0  0  0  0  0  0  0  0  0
  -21.4242  -26.8178   20.4770 C   0  0  0  0  0  0  0  0  0  0  0  0
  -30.6330  -18.6749   19.7555 C   0  0  0  0  0  0  0  0  0  0  0  0
  -24.1098  -37.5345   22.1668 C   0  0  0  0  0  0  0  0  0  0  0  0
  -25.2460  -31.3950   20.3131 C   0  0  0  0  0  0  0  0  0  0  0  0
  -24.1478  -29.3462   22.1410 C   0  0  0  0  0  0  0  0  0  0  0  0
  -23.0111  -36.4748   22.1547 C   0  0  0  0  0  0  0  0  0  0  0  0
  -32.4033  -15.9633   21.2355 C   0  0  0  0  0  0  0  0  0  0  0  0
  -23.2577  -35.4376   23.2456 C   0  0  0  0  0  0  0  0  0  0  0  0
  -31.5218  -14.7485   20.9364 C   0  0  0  0  0  0  0  0  0  0  0  0
  -31.5705  -17.2096   21.5301 C   0  0  0  0  0  0  0  0  0  0  0  0
  -29.6864  -16.3271   20.2108 C   0  0  0  0  0  0  0  0  0  0  0  0
  -24.5843  -34.7027   23.0183 C   0  0  1  0  0  0  0  0  0  0  0  0
  -23.8895  -31.5666   20.9897 C   0  0  1  0  0  0  0  0  0  0  0  0
  -30.4808  -15.0629   19.8442 C   0  0  2  0  0  0  0  0  0  0  0  0
  -27.1269  -23.4909   16.8201 C   0  0  0  0  0  0  0  0  0  0  0  0
  -19.6396  -25.2099   19.7510 C   0  0  0  0  0  0  0  0  0  0  0  0
  -20.7758  -30.0983   24.0734 C   0  0  0  0  0  0  0  0  0  0  0  0
  -19.7086  -27.8920   23.5620 C   0  0  0  0  0  0  0  0  0  0  0  0
  -19.0644  -29.9191   22.2587 C   0  0  0  0  0  0  0  0  0  0  0  0
  -30.6468  -26.0711   24.3146 C   0  0  0  0  0  0  0  0  0  0  0  0
  -31.7711  -25.7966   22.1038 C   0  0  0  0  0  0  0  0  0  0  0  0
  -22.8655  -26.1673   17.9754 C   0  0  0  0  0  0  0  0  0  0  0  0
  -29.3862  -24.9787   22.4612 C   0  0  0  0  0  0  0  0  0  0  0  0
  -29.4044  -23.5305   20.3183 C   0  0  0  0  0  0  0  0  0  0  0  0
  -29.9326  -27.4819   22.3566 C   0  0  0  0  0  0  0  0  0  1  0  0
  -21.3305  -28.8663   21.8733 C   0  0  1  0  0  0  0  0  0  0  0  0
  -20.7451  -26.1495   19.2952 C   0  0  2  0  0  0  0  0  0  0  0  0
  -20.2479  -29.1973   22.9391 C   0  0  0  0  0  0  0  0  0  0  0  0
  -30.4215  -26.0827   22.7867 C   0  0  0  0  0  0  0  0  0  0  0  0
  -28.4141  -13.7804   20.2507 N   0  0  0  0  0  0  0  0  0  0  0  0
  -29.5722  -13.8778   19.5758 N   0  0  0  0  0  0  0  0  0  0  0  0
  -23.2971  -30.2917   21.3996 N   0  0  0  0  0  0  0  0  0  0  0  0
  -30.6096  -17.4474   20.4508 N   0  0  0  0  0  0  0  0  0  0  0  0
  -30.9023  -12.7967   17.9410 N   0  0  0  0  0  0  0  0  0  0  0  0
  -27.3038  -10.0930   18.3107 N   0  0  0  0  0  0  0  0  0  0  0  0
  -29.6946  -18.7741   18.7288 N   0  0  0  0  0  0  0  0  0  0  0  0
  -24.4383  -33.7061   21.9790 N   0  0  0  0  0  0  0  0  0  0  0  0
  -20.8515  -28.0368   20.7729 N   0  0  0  0  0  0  0  0  0  0  0  0
  -21.7347  -25.3631   18.5059 N   0  3  0  0  0  0  0  0  0  0  0  0
  -29.3149  -10.3811   17.2471 O   0  0  0  0  0  0  0  0  0  0  0  0
  -23.5995  -31.9788   23.2964 O   0  0  0  0  0  0  0  0  0  0  0  0
  -28.4830  -25.7507   20.3724 O   0  0  0  0  0  0  0  0  0  0  0  0
  -21.1766  -30.8797   20.6288 O   0  0  0  0  0  0  0  0  0  0  0  0
  -22.3659  -26.3078   21.0799 O   0  0  0  0  0  0  0  0  0  0  0  0
  -31.4452  -19.5616   20.0314 O   0  0  0  0  0  0  0  0  0  0  0  0
  -22.9337  -10.8686   21.6776 O   0  0  0  0  0  0  0  0  0  0  0  0
  -29.0314  -23.5476   18.9559 O   0  0  0  0  0  0  0  0  0  0  0  0
  -28.7144  -27.8237   23.0165 O   0  0  0  0  0  0  0  0  0  1  0  0
  -22.4419   -5.5221   22.9335 F   0  0  0  0  0  0  0  0  0  0  0  0
  -22.2712  -10.0686   24.2396 F   0  0  0  0  0  0  0  0  0  0  0  0
  1  2  1  0  0  0  0
  1  5  2  0  0  0  0
  2  6  2  0  0  0  0
  3 10  2  0  0  0  0
  3 18  1  0  0  0  0
  4 11  1  0  0  0  0
  4 18  2  0  0  0  0
  5 20  1  0  0  0  0
  6 22  1  0  0  0  0
  7 12  2  0  0  0  0
  7 21  1  0  0  0  0
  8  9  2  0  0  0  0
  8 24  1  0  0  0  0
  9 25  1  0  0  0  0
 10 26  1  0  0  0  0
 11 26  2  0  0  0  0
 12 27  1  0  0  0  0
 13 14  2  0  0  0  0
 13 28  1  0  0  0  0
 14 30  1  0  0  0  0
 15 23  1  0  0  0  0
 15 27  2  0  0  0  0
 16 25  2  0  0  0  0
 16 29  1  0  0  0  0
 17 30  2  0  0  0  0
 17 31  1  0  0  0  0
 18 32  1  0  0  0  0
 19 32  1  0  0  0  0
 19 33  2  0  0  0  0
 19 34  1  0  0  0  0
 20 22  2  0  0  0  0
 20 40  1  0  0  0  0
 21 23  2  0  0  0  0
 21 41  1  0  0  0  0
 22 49  1  0  0  0  0
 23 42  1  0  0  0  0
 24 29  2  0  0  0  0
 24 52  1  0  0  0  0
 25 73  1  0  0  0  0
 26 83  1  0  0  0  0
 27 85  1  0  0  0  0
 28 31  2  0  0  0  0
 28 83  1  0  0  0  0
 29 84  1  0  0  0  0
 30 86  1  0  0  0  0
 31 87  1  0  0  0  0
 32 67  2  0  0  0  0
 33 68  1  0  0  0  0
 33 71  1  0  0  0  0
 34 72  1  0  0  0  0
 34 77  2  0  0  0  0
 35 50  1  0  0  0  0
 35 74  1  0  0  0  0
 35 78  2  0  0  0  0
 36 60  1  0  0  0  0
 36 61  1  0  0  0  0
 36 79  2  0  0  0  0
 37 63  1  0  0  0  0
 37 69  1  0  0  0  0
 37 80  2  0  0  0  0
 38 64  1  0  0  0  0
 38 75  1  0  0  0  0
 38 81  2  0  0  0  0
 39 70  1  0  0  0  0
 39 73  1  0  0  0  0
 39 82  2  0  0  0  0
 40 43  1  0  0  0  0
 41 50  1  0  0  0  0
 42 69  1  0  0  0  0
 43 45  1  0  0  0  0
 44 46  1  0  0  0  0
 44 47  1  0  0  0  0
 45 49  1  0  0  0  0
 46 51  1  0  0  0  0
 47 70  1  0  0  0  0
 48 51  1  0  0  0  0
 48 70  1  0  0  0  0
 49 74  1  0  0  0  0
 50 69  1  0  0  0  0
 51 68  1  0  0  0  0
 53 64  1  0  0  0  0
 54 65  1  0  0  0  0
 55 65  1  0  0  0  0
 56 65  1  0  0  0  0
 57 66  1  0  0  0  0
 58 66  1  0  0  0  0
 59 76  1  0  0  0  0
 60 66  1  0  0  0  0
 61 84  1  0  0  0  0
 62 66  1  0  0  0  0
 62 85  1  0  0  0  0
 63 65  1  0  0  0  0
 63 75  1  0  0  0  0
 64 76  1  0  0  0  0
 67 68  1  0  0  0  0
M  CHG  1  76   1
M  ISO  4  39 100  62 101  73 100  85 101
M  END
> <Batch ID>
0140

> <Smiles>
CNC(C)C(=O)NC(C(=O)N1Cc2cc([101O:1][101CH2:1]C(C)(C)CC(=O)COc3cc([100NH:0][100C:0](=O)N4CCCC(n5nc(-c6ccc(Oc7ccc(F)cc7F)cc6)c(C(N)=O)c5N)C4)ccc3C)ccc2CC1C(=O)NC1CCCc2ccccc21)C(C)(C)C

> <Shape>
0.318

> <Color>
0.077

> <Negative vol penalty>
0.000

$$$$

  -OEChem-04052302513D

 88 97  0     1  0  0  0  0  0999 V2000
  -26.4612  -34.4930   25.3308 C   0  0  0  0  0  0  0  0  0  0  0  0
  -26.9367  -33.3096   24.7750 C   0  0  0  0  0  0  0  0  0  0  0  0
  -23.9005  -12.4952   21.7611 C   0  0  0  0  0  0  0  0  0  0  0  0
  -25.8323  -12.2685   20.3279 C   0  0  0  0  0  0  0  0  0  0  0  0
  -25.1297  -34.5870   25.7335 C   0  0  0  0  0  0  0  0  0  0  0  0
  -26.0812  -32.2191   24.6225 C   0  0  0  0  0  0  0  0  0  0  0  0
  -29.3126  -24.1244   23.3510 C   0  0  0  0  0  0  0  0  0  0  0  0
  -26.5417  -30.0074   20.0903 C   0  0  0  0  0  0  0  0  0  0  0  0
  -28.4216  -24.3004   24.4096 C   0  0  0  0  0  0  0  0  0  0  0  0
  -24.1704  -11.2470   22.3223 C   0  0  0  0  0  0  0  0  0  0  0  0
  -26.1022  -11.0204   20.8891 C   0  0  0  0  0  0  0  0  0  0  0  0
  -27.6368  -29.1655   19.9010 C   0  0  0  0  0  0  0  0  0  0  0  0
  -23.7351   -7.9985   21.4964 C   0  0  0  0  0  0  0  0  0  0  0  0
  -22.6653   -7.1196   21.6650 C   0  0  0  0  0  0  0  0  0  0  0  0
  -26.2216  -27.2492   20.2807 C   0  0  0  0  0  0  0  0  0  0  0  0
  -27.0846  -22.4627   23.5896 C   0  0  0  0  0  0  0  0  0  0  0  0
  -23.0723   -7.0806   24.0461 C   0  0  0  0  0  0  0  0  0  0  0  0
  -24.7315  -13.0059   20.7639 C   0  0  0  0  0  0  0  0  0  0  0  0
  -23.2875  -14.6837   19.4959 C   0  0  0  0  0  0  0  0  0  0  0  0
  -24.2549  -33.5002   25.5770 C   0  0  0  0  0  0  0  0  0  0  0  0
  -25.2785  -29.4760   20.3875 C   0  0  0  0  0  0  0  0  0  0  0  0
  -24.7370  -32.2982   25.0247 C   0  0  0  0  0  0  0  0  0  0  0  0
  -29.0897  -23.1176   22.4117 C   0  0  0  0  0  0  0  0  0  0  0  0
  -25.1116  -28.0863   20.4708 C   0  0  0  0  0  0  0  0  0  0  0  0
  -27.3076  -23.4695   24.5290 C   0  0  0  0  0  0  0  0  0  0  0  0
  -27.9757  -22.2867   22.5310 C   0  0  0  0  0  0  0  0  0  0  0  0
  -25.2712  -10.5097   21.8863 C   0  0  0  0  0  0  0  0  0  0  0  0
  -27.4775  -27.7863   19.9990 C   0  0  0  0  0  0  0  0  0  0  0  0
  -24.4736   -8.4185   22.6028 C   0  0  0  0  0  0  0  0  0  0  0  0
  -22.3338   -6.6606   22.9398 C   0  0  0  0  0  0  0  0  0  0  0  0
  -24.1422   -7.9596   23.8776 C   0  0  0  0  0  0  0  0  0  0  0  0
  -24.4529  -14.2949   20.1834 C   0  0  0  0  0  0  0  0  0  0  0  0
  -23.5147  -15.9929   19.1482 C   0  0  0  0  0  0  0  0  0  0  0  0
  -22.1054  -13.9290   19.1984 C   0  0  0  0  0  0  0  0  0  0  0  0
  -23.2689  -29.7054   22.8395 C   0  0  0  0  0  0  0  0  0  0  0  0
  -21.3109  -28.0055   20.8906 C   0  0  0  0  0  0  0  0  0  0  0  0
  -20.9976  -25.8516   18.2620 C   0  0  0  0  0  0  0  0  0  0  0  0
  -27.0882  -20.0365   21.8007 C   0  0  0  0  0  0  0  0  0  0  0  0
  -22.8361  -33.6335   26.0707 C   0  0  0  0  0  0  0  0  0  0  0  0
  -24.1017  -30.3964   20.5625 C   0  0  0  0  0  0  0  0  0  0  0  0
  -23.7722  -27.4648   20.7676 C   0  0  0  0  0  0  0  0  0  0  0  0
  -21.8993  -32.5564   25.5299 C   0  0  0  0  0  0  0  0  0  0  0  0
  -27.6206  -18.4283   18.3577 C   0  0  0  0  0  0  0  0  0  0  0  0
  -22.5448  -31.1793   25.6477 C   0  0  0  0  0  0  0  0  0  0  0  0
  -26.2742  -17.7269   18.1945 C   0  0  0  0  0  0  0  0  0  0  0  0
  -31.2803  -23.9304   21.2359 C   0  0  0  0  0  0  0  0  0  0  0  0
  -30.7025  -25.2355   20.6949 C   0  0  0  0  0  0  0  0  0  0  0  0
  -29.4536  -23.2814   19.8797 C   0  0  0  0  0  0  0  0  0  0  0  0
  -27.5485  -19.5975   19.3317 C   0  0  0  0  0  0  0  0  0  0  0  0
  -26.3637  -17.9055   20.7422 C   0  0  0  0  0  0  0  0  0  0  0  0
  -23.8335  -31.1016   24.8202 C   0  0  1  0  0  0  0  0  0  0  0  0
  -22.9681  -29.7702   21.3688 C   0  0  1  0  0  0  0  0  0  0  0  0
  -25.4843  -17.6224   19.5142 C   0  0  2  0  0  0  0  0  0  0  0  0
  -30.0881  -22.9477   21.2565 C   0  0  2  0  0  0  0  0  0  0  0  0
  -29.6248  -24.8097   19.6752 C   0  0  2  0  0  0  0  0  0  0  0  0
  -30.0872  -25.1037   18.2406 C   0  0  0  0  0  0  0  0  0  0  0  0
  -31.8556  -19.7809   22.6314 C   0  0  0  0  0  0  0  0  0  0  0  0
  -19.2727  -24.6124   16.9254 C   0  0  0  0  0  0  0  0  0  0  0  0
  -20.9860  -26.0037   23.1704 C   0  0  0  0  0  0  0  0  0  0  0  0
  -20.0714  -24.3676   21.5106 C   0  0  0  0  0  0  0  0  0  0  0  0
  -18.8787  -26.5187   21.9261 C   0  0  0  0  0  0  0  0  0  0  0  0
  -21.7722  -27.2347   15.7628 C   0  0  0  0  0  0  0  0  0  0  0  0
  -30.6188  -21.5028   21.2870 C   0  0  0  0  0  0  0  0  0  0  0  0
  -28.3098  -25.5596   19.9302 C   0  0  0  0  0  0  0  0  0  1  0  0
  -31.3532  -21.2153   22.5904 C   0  0  0  0  0  0  0  0  0  0  0  0
  -21.0584  -26.5374   20.6453 C   0  0  1  0  0  0  0  0  0  0  0  0
  -20.1027  -25.8818   17.0361 C   0  0  2  0  0  0  0  0  0  0  0  0
  -20.2744  -25.8683   21.8094 C   0  0  0  0  0  0  0  0  0  0  0  0
  -25.3536  -15.2775   20.2682 N   0  0  0  0  0  0  0  0  0  0  0  0
  -24.7541  -16.2967   19.6295 N   0  0  0  0  0  0  0  0  0  0  0  0
  -22.6535  -28.4068   20.9369 N   0  0  0  0  0  0  0  0  0  0  0  0
  -27.0037  -19.2225   20.6446 N   0  0  0  0  0  0  0  0  0  0  0  0
  -26.4068  -23.6478   25.5994 N   0  0  0  0  0  0  0  0  0  0  0  0
  -22.7731  -16.9023   18.4807 N   0  0  0  0  0  0  0  0  0  0  0  0
  -22.0369  -12.5971   19.6293 N   0  0  0  0  0  0  0  0  0  0  0  0
  -27.7319  -21.2582   21.5868 N   0  0  0  0  0  0  0  0  0  0  0  0
  -23.5234  -30.9350   23.4164 N   0  0  0  0  0  0  0  0  0  0  0  0
  -20.3949  -26.4483   19.3491 N   0  0  0  0  0  0  0  0  0  0  0  0
  -20.9230  -26.0163   15.7992 N   0  3  0  0  0  0  0  0  0  0  0  0
  -21.1452  -14.4161   18.5547 O   0  0  0  0  0  0  0  0  0  0  0  0
  -23.2685  -28.6204   23.4091 O   0  0  0  0  0  0  0  0  0  0  0  0
  -20.3520  -28.7692   21.0286 O   0  0  0  0  0  0  0  0  0  0  0  0
  -22.1177  -25.3457   18.2567 O   0  0  0  0  0  0  0  0  0  0  0  0
  -26.6153  -19.6782   22.8813 O   0  0  0  0  0  0  0  0  0  0  0  0
  -25.5350   -9.2918   22.4339 O   0  0  0  0  0  0  0  0  0  0  0  0
  -28.5448  -26.9624   19.8153 O   0  0  0  0  0  0  0  0  0  1  0  0
  -21.3055   -5.8178   23.1017 F   0  0  0  0  0  0  0  0  0  0  0  0
  -24.8473   -8.3605   24.9443 F   0  0  0  0  0  0  0  0  0  0  0  0
  1  2  1  0  0  0  0
  1  5  2  0  0  0  0
  2  6  2  0  0  0  0
  3 10  2  0  0  0  0
  3 18  1  0  0  0  0
  4 11  1  0  0  0  0
  4 18  2  0  0  0  0
  5 20  1  0  0  0  0
  6 22  1  0  0  0  0
  7  9  2  0  0  0  0
  7 23  1  0  0  0  0
  8 12  2  0  0  0  0
  8 21  1  0  0  0  0
  9 25  1  0  0  0  0
 10 27  1  0  0  0  0
 11 27  2  0  0  0  0
 12 28  1  0  0  0  0
 13 14  2  0  0  0  0
 13 29  1  0  0  0  0
 14 30  1  0  0  0  0
 15 24  1  0  0  0  0
 15 28  2  0  0  0  0
 16 25  2  0  0  0  0
 16 26  1  0  0  0  0
 17 30  2  0  0  0  0
 17 31  1  0  0  0  0
 18 32  1  0  0  0  0
 19 32  1  0  0  0  0
 19 33  2  0  0  0  0
 19 34  1  0  0  0  0
 20 22  2  0  0  0  0
 20 39  1  0  0  0  0
 21 24  2  0  0  0  0
 21 40  1  0  0  0  0
 22 51  1  0  0  0  0
 23 26  2  0  0  0  0
 23 54  1  0  0  0  0
 24 41  1  0  0  0  0
 25 73  1  0  0  0  0
 26 76  1  0  0  0  0
 27 85  1  0  0  0  0
 28 86  1  0  0  0  0
 29 31  2  0  0  0  0
 29 85  1  0  0  0  0
 30 87  1  0  0  0  0
 31 88  1  0  0  0  0
 32 69  2  0  0  0  0
 33 70  1  0  0  0  0
 33 74  1  0  0  0  0
 34 75  1  0  0  0  0
 34 80  2  0  0  0  0
 35 52  1  0  0  0  0
 35 77  1  0  0  0  0
 35 81  2  0  0  0  0
 36 66  1  0  0  0  0
 36 71  1  0  0  0  0
 36 82  2  0  0  0  0
 37 67  1  0  0  0  0
 37 78  1  0  0  0  0
 37 83  2  0  0  0  0
 38 72  1  0  0  0  0
 38 76  1  0  0  0  0
 38 84  2  0  0  0  0
 39 42  1  0  0  0  0
 40 52  1  0  0  0  0
 41 71  1  0  0  0  0
 42 44  1  0  0  0  0
 43 45  1  0  0  0  0
 43 49  1  0  0  0  0
 44 51  1  0  0  0  0
 45 53  1  0  0  0  0
 46 47  1  0  0  0  0
 46 54  1  0  0  0  0
 47 55  1  0  0  0  0
 48 54  1  0  0  0  0
 48 55  1  0  0  0  0
 49 72  1  0  0  0  0
 50 53  1  0  0  0  0
 50 72  1  0  0  0  0
 51 77  1  0  0  0  0
 52 71  1  0  0  0  0
 53 70  1  0  0  0  0
 54 63  1  0  0  0  0
 55 56  1  0  0  0  0
 55 64  1  0  0  0  0
 57 65  1  0  0  0  0
 58 67  1  0  0  0  0
 59 68  1  0  0  0  0
 60 68  1  0  0  0  0
 61 68  1  0  0  0  0
 62 79  1  0  0  0  0
 63 65  1  0  0  0  0
 64 86  1  0  0  0  0
 66 68  1  0  0  0  0
 66 78  1  0  0  0  0
 67 79  1  0  0  0  0
 69 70  1  0  0  0  0
M  CHG  1  79   1
M  ISO  4  38 100  64 101  76 100  86 101
M  END
> <Batch ID>
0140

> <Smiles>
CCCC1(c2ccc(N)cc2[100NH:0][100C:0](=O)N2CCCC(n3nc(-c4ccc(Oc5ccc(F)cc5F)cc4)c(C(N)=O)c3N)C2)CCC(C)([101CH2:1][101O:1]c2ccc3c(c2)CN(C(=O)C(NC(=O)C(C)NC)C(C)(C)C)C(C(=O)NC2CCCc4ccccc42)C3)C1

> <Shape>
0.268

> <Color>
0.074

> <Negative vol penalty>
0.000

$$$$

  -OEChem-04052302513D

 87 95  0     1  0  0  0  0  0999 V2000
  -31.3658  -16.9587   19.6888 C   0  0  0  0  0  0  0  0  0  0  0  0
  -30.6340  -17.9254   20.3710 C   0  0  0  0  0  0  0  0  0  0  0  0
  -29.7690  -28.2426   21.3758 C   0  0  0  0  0  0  0  0  0  0  0  0
  -28.1236  -27.7437   19.6785 C   0  0  0  0  0  0  0  0  0  0  0  0
  -30.7133  -16.0513   18.8553 C   0  0  0  0  0  0  0  0  0  0  0  0
  -29.2492  -17.9858   20.2193 C   0  0  0  0  0  0  0  0  0  0  0  0
  -23.3000  -19.6190   23.8602 C   0  0  0  0  0  0  0  0  0  0  0  0
  -18.1330  -26.8291   21.7281 C   0  0  0  0  0  0  0  0  0  0  0  0
  -19.0187  -27.3777   20.8006 C   0  0  0  0  0  0  0  0  0  0  0  0
  -30.5928  -27.2355   20.8732 C   0  0  0  0  0  0  0  0  0  0  0  0
  -28.9475  -26.7367   19.1758 C   0  0  0  0  0  0  0  0  0  0  0  0
  -22.1586  -20.4131   23.7582 C   0  0  0  0  0  0  0  0  0  0  0  0
  -29.7534  -23.5501   19.9677 C   0  0  0  0  0  0  0  0  0  0  0  0
  -29.1637  -22.3245   19.6582 C   0  0  0  0  0  0  0  0  0  0  0  0
  -21.1299  -18.7436   22.3534 C   0  0  0  0  0  0  0  0  0  0  0  0
  -19.4716  -27.7183   23.5322 C   0  0  0  0  0  0  0  0  0  0  0  0
  -29.8678  -22.5662   17.3597 C   0  0  0  0  0  0  0  0  0  0  0  0
  -28.5343  -28.4967   20.7785 C   0  0  0  0  0  0  0  0  0  0  0  0
  -27.6656  -30.8913   20.9156 C   0  0  0  0  0  0  0  0  0  0  0  0
  -29.3187  -16.0946   18.7008 C   0  0  0  0  0  0  0  0  0  0  0  0
  -23.3692  -18.3840   23.1996 C   0  0  0  0  0  0  0  0  0  0  0  0
  -28.5775  -17.0790   19.3819 C   0  0  0  0  0  0  0  0  0  0  0  0
  -22.2722  -17.9345   22.4507 C   0  0  0  0  0  0  0  0  0  0  0  0
  -18.3595  -26.9995   23.0939 C   0  0  0  0  0  0  0  0  0  0  0  0
  -20.1308  -28.0965   21.2388 C   0  0  0  0  0  0  0  0  0  0  0  0
  -20.3573  -28.2669   22.6047 C   0  0  0  0  0  0  0  0  0  0  0  0
  -30.1821  -26.4826   19.7732 C   0  0  0  0  0  0  0  0  0  0  0  0
  -21.0745  -19.9768   23.0023 C   0  0  0  0  0  0  0  0  0  0  0  0
  -30.4003  -24.2838   18.9732 C   0  0  0  0  0  0  0  0  0  0  0  0
  -29.2209  -21.8326   18.3542 C   0  0  0  0  0  0  0  0  0  0  0  0
  -30.4575  -23.7918   17.6693 C   0  0  0  0  0  0  0  0  0  0  0  0
  -27.6826  -29.5364   21.2976 C   0  0  0  0  0  0  0  0  0  0  0  0
  -26.6872  -31.4561   21.6968 C   0  0  0  0  0  0  0  0  0  0  0  0
  -28.4628  -31.5779   19.9416 C   0  0  0  0  0  0  0  0  0  0  0  0
  -25.2221  -17.1563   20.9274 C   0  0  0  0  0  0  0  0  0  0  0  0
  -17.3212  -24.8565   23.9443 C   0  0  0  0  0  0  0  0  0  0  0  0
  -23.5755  -14.4422   21.5942 C   0  0  0  0  0  0  0  0  0  0  0  0
  -20.7402  -13.0047   22.8357 C   0  0  0  0  0  0  0  0  0  0  0  0
  -21.8349  -29.2464   24.3945 C   0  0  0  0  0  0  0  0  0  0  0  0
  -28.6630  -15.1227   17.7520 C   0  0  0  0  0  0  0  0  0  0  0  0
  -24.5972  -17.5271   23.3415 C   0  0  0  0  0  0  0  0  0  0  0  0
  -22.2884  -16.6073   21.7388 C   0  0  0  0  0  0  0  0  0  0  0  0
  -27.1515  -15.0163   17.9374 C   0  0  0  0  0  0  0  0  0  0  0  0
  -24.5401  -30.9619   25.9489 C   0  0  0  0  0  0  0  0  0  0  0  0
  -26.5278  -16.4042   18.0443 C   0  0  0  0  0  0  0  0  0  0  0  0
  -25.6494  -30.9196   24.8954 C   0  0  0  0  0  0  0  0  0  0  0  0
  -23.7178  -29.6744   25.9586 C   0  0  0  0  0  0  0  0  0  0  0  0
  -24.2815  -29.2341   23.6011 C   0  0  0  0  0  0  0  0  0  0  0  0
  -27.0711  -17.1609   19.2624 C   0  0  1  0  0  0  0  0  0  0  0  0
  -24.7574  -16.5200   22.2068 C   0  0  1  0  0  0  0  0  0  0  0  0
  -25.0958  -30.5350   23.5093 C   0  0  2  0  0  0  0  0  0  0  0  0
  -21.0631  -28.6722   20.2228 C   0  0  0  0  0  0  0  0  0  0  0  0
  -19.6687  -10.7671   23.2129 C   0  0  0  0  0  0  0  0  0  0  0  0
  -18.5035  -23.0060   21.8319 C   0  0  0  0  0  0  0  0  0  0  0  0
  -17.7377  -26.6767   25.5897 C   0  0  0  0  0  0  0  0  0  0  0  0
  -15.9849  -27.0032   23.8641 C   0  0  0  0  0  0  0  0  0  0  0  0
  -22.9247  -14.2551   18.6191 C   0  0  0  0  0  0  0  0  0  0  0  0
  -21.1248  -12.6102   19.1874 C   0  0  0  0  0  0  0  0  0  0  0  0
  -23.5071  -12.0757   19.6986 C   0  0  0  0  0  0  0  0  0  0  0  0
  -20.6306  -13.4211   25.7638 C   0  0  0  0  0  0  0  0  0  0  0  0
  -18.6195  -24.0698   24.1291 C   0  0  0  0  0  0  0  0  0  0  0  0
  -19.9686  -21.9974   23.5941 C   0  0  0  0  0  0  0  0  0  1  0  0
  -22.3015  -13.8123   21.0851 C   0  0  1  0  0  0  0  0  0  0  0  0
  -20.5354  -11.8624   23.8144 C   0  0  2  0  0  0  0  0  0  0  0  0
  -18.6580  -22.7515   23.3334 C   0  0  2  0  0  0  0  0  0  0  0  0
  -17.3845  -26.3958   24.1135 C   0  0  0  0  0  0  0  0  0  0  0  0
  -22.4646  -13.2143   19.6593 C   0  0  0  0  0  0  0  0  0  0  0  0
  -26.7863  -29.2573   22.2478 N   0  0  0  0  0  0  0  0  0  0  0  0
  -26.1970  -30.4447   22.4695 N   0  0  0  0  0  0  0  0  0  0  0  0
  -23.5142  -15.8085   21.9028 N   0  0  0  0  0  0  0  0  0  0  0  0
  -23.2228  -29.3757   24.6130 N   0  0  0  0  0  0  0  0  0  0  0  0
  -26.2071  -32.7142   21.7915 N   0  0  0  0  0  0  0  0  0  0  0  0
  -29.4220  -30.8466   19.2278 N   0  0  0  0  0  0  0  0  0  0  0  0
  -21.4808  -28.9944   23.0695 N   0  0  0  0  0  0  0  0  0  0  0  0
  -26.4402  -16.6859   20.4752 N   0  0  0  0  0  0  0  0  0  0  0  0
  -21.8928  -12.8434   22.0964 N   0  0  0  0  0  0  0  0  0  0  0  0
  -19.8748  -12.3560   25.0557 N   0  3  0  0  0  0  0  0  0  0  0  0
  -28.3399  -32.8069   19.7228 O   0  0  0  0  0  0  0  0  0  0  0  0
  -24.5264  -18.0097   20.3895 O   0  0  0  0  0  0  0  0  0  0  0  0
  -16.2593  -24.2778   23.7044 O   0  0  0  0  0  0  0  0  0  0  0  0
  -24.5859  -13.7459   21.7203 O   0  0  0  0  0  0  0  0  0  0  0  0
  -19.9542  -13.9441   22.7345 O   0  0  0  0  0  0  0  0  0  0  0  0
  -21.0187  -29.3785   25.3101 O   0  0  0  0  0  0  0  0  0  0  0  0
  -30.9859  -25.5000   19.2823 O   0  0  0  0  0  0  0  0  0  0  0  0
  -19.9595  -20.7503   22.9005 O   0  0  0  0  0  0  0  0  0  1  0  0
  -28.6559  -20.6549   18.0574 F   0  0  0  0  0  0  0  0  0  0  0  0
  -31.0786  -24.4916   16.7099 F   0  0  0  0  0  0  0  0  0  0  0  0
  1  2  1  0  0  0  0
  1  5  2  0  0  0  0
  2  6  2  0  0  0  0
  3 10  2  0  0  0  0
  3 18  1  0  0  0  0
  4 11  1  0  0  0  0
  4 18  2  0  0  0  0
  5 20  1  0  0  0  0
  6 22  1  0  0  0  0
  7 12  2  0  0  0  0
  7 21  1  0  0  0  0
  8  9  2  0  0  0  0
  8 24  1  0  0  0  0
  9 25  1  0  0  0  0
 10 27  1  0  0  0  0
 11 27  2  0  0  0  0
 12 28  1  0  0  0  0
 13 14  2  0  0  0  0
 13 29  1  0  0  0  0
 14 30  1  0  0  0  0
 15 23  1  0  0  0  0
 15 28  2  0  0  0  0
 16 24  2  0  0  0  0
 16 26  1  0  0  0  0
 17 30  2  0  0  0  0
 17 31  1  0  0  0  0
 18 32  1  0  0  0  0
 19 32  1  0  0  0  0
 19 33  2  0  0  0  0
 19 34  1  0  0  0  0
 20 22  2  0  0  0  0
 20 40  1  0  0  0  0
 21 23  2  0  0  0  0
 21 41  1  0  0  0  0
 22 49  1  0  0  0  0
 23 42  1  0  0  0  0
 24 66  1  0  0  0  0
 25 26  2  0  0  0  0
 25 52  1  0  0  0  0
 26 74  1  0  0  0  0
 27 84  1  0  0  0  0
 28 85  1  0  0  0  0
 29 31  2  0  0  0  0
 29 84  1  0  0  0  0
 30 86  1  0  0  0  0
 31 87  1  0  0  0  0
 32 68  2  0  0  0  0
 33 69  1  0  0  0  0
 33 72  1  0  0  0  0
 34 73  1  0  0  0  0
 34 78  2  0  0  0  0
 35 50  1  0  0  0  0
 35 75  1  0  0  0  0
 35 79  2  0  0  0  0
 36 61  1  0  0  0  0
 36 66  1  0  0  0  0
 36 80  2  0  0  0  0
 37 63  1  0  0  0  0
 37 70  1  0  0  0  0
 37 81  2  0  0  0  0
 38 64  1  0  0  0  0
 38 76  1  0  0  0  0
 38 82  2  0  0  0  0
 39 71  1  0  0  0  0
 39 74  1  0  0  0  0
 39 83  2  0  0  0  0
 40 43  1  0  0  0  0
 41 50  1  0  0  0  0
 42 70  1  0  0  0  0
 43 45  1  0  0  0  0
 44 46  1  0  0  0  0
 44 47  1  0  0  0  0
 45 49  1  0  0  0  0
 46 51  1  0  0  0  0
 47 71  1  0  0  0  0
 48 51  1  0  0  0  0
 48 71  1  0  0  0  0
 49 75  1  0  0  0  0
 50 70  1  0  0  0  0
 51 69  1  0  0  0  0
 53 64  1  0  0  0  0
 54 65  1  0  0  0  0
 55 66  1  0  0  0  0
 56 66  1  0  0  0  0
 57 67  1  0  0  0  0
 58 67  1  0  0  0  0
 59 67  1  0  0  0  0
 60 77  1  0  0  0  0
 61 65  1  0  0  0  0
 62 65  1  0  0  0  0
 62 85  1  0  0  0  0
 63 67  1  0  0  0  0
 63 76  1  0  0  0  0
 64 77  1  0  0  0  0
 68 69  1  0  0  0  0
M  CHG  1  77   1
M  ISO  4  39 100  62 101  74 100  85 101
M  END
> <Batch ID>
0140

> <Smiles>
CNC(C)C(=O)NC(C(=O)N1Cc2cc([101O:1][101CH2:1]C(C)CC(=O)C(C)(C)c3ccc(C)c([100NH:0][100C:0](=O)N4CCCC(n5nc(-c6ccc(Oc7ccc(F)cc7F)cc6)c(C(N)=O)c5N)C4)c3)ccc2CC1C(=O)NC1CCCc2ccccc21)C(C)(C)C

> <Shape>
0.233

> <Color>
0.061

> <Negative vol penalty>
0.000

$$$$

  -OEChem-04052302513D

 86 94  0     1  0  0  0  0  0999 V2000
  -28.0169  -24.3002   17.4236 C   0  0  0  0  0  0  0  0  0  0  0  0
  -26.8276  -24.5791   18.0893 C   0  0  0  0  0  0  0  0  0  0  0  0
  -28.1658  -13.9879   19.9730 C   0  0  0  0  0  0  0  0  0  0  0  0
  -25.9842  -14.5781   19.1192 C   0  0  0  0  0  0  0  0  0  0  0  0
  -29.2200  -24.8176   17.9018 C   0  0  0  0  0  0  0  0  0  0  0  0
  -26.8409  -25.3748   19.2344 C   0  0  0  0  0  0  0  0  0  0  0  0
  -23.1505  -28.8426   19.2335 C   0  0  0  0  0  0  0  0  0  0  0  0
  -22.4477  -23.8561   22.1108 C   0  0  0  0  0  0  0  0  0  0  0  0
  -23.7295  -23.3426   21.9132 C   0  0  0  0  0  0  0  0  0  0  0  0
  -27.6886  -12.7236   20.3185 C   0  0  0  0  0  0  0  0  0  0  0  0
  -25.5069  -13.3138   19.4647 C   0  0  0  0  0  0  0  0  0  0  0  0
  -21.8671  -28.4067   19.5600 C   0  0  0  0  0  0  0  0  0  0  0  0
  -24.4760  -11.7187   22.2618 C   0  0  0  0  0  0  0  0  0  0  0  0
  -23.2394  -11.6457   22.9031 C   0  0  0  0  0  0  0  0  0  0  0  0
  -22.1562  -29.2530   21.8004 C   0  0  0  0  0  0  0  0  0  0  0  0
  -21.6497  -22.5954   20.2106 C   0  0  0  0  0  0  0  0  0  0  0  0
  -22.3805  -10.2953   21.0932 C   0  0  0  0  0  0  0  0  0  0  0  0
  -27.3136  -14.9152   19.3734 C   0  0  0  0  0  0  0  0  0  0  0  0
  -28.3881  -16.6060   17.7941 C   0  0  0  0  0  0  0  0  0  0  0  0
  -29.2469  -25.6279   19.0478 C   0  0  0  0  0  0  0  0  0  0  0  0
  -23.9519  -29.4783   20.1927 C   0  0  0  0  0  0  0  0  0  0  0  0
  -28.0457  -25.9024   19.7292 C   0  0  0  0  0  0  0  0  0  0  0  0
  -23.4485  -29.6983   21.4828 C   0  0  0  0  0  0  0  0  0  0  0  0
  -22.9315  -22.0820   20.0129 C   0  0  0  0  0  0  0  0  0  0  0  0
  -21.4078  -23.4824   21.2595 C   0  0  0  0  0  0  0  0  0  0  0  0
  -23.9714  -22.4556   20.8643 C   0  0  0  0  0  0  0  0  0  0  0  0
  -26.3592  -12.3865   20.0643 C   0  0  0  0  0  0  0  0  0  0  0  0
  -21.3709  -28.6093   20.8445 C   0  0  0  0  0  0  0  0  0  0  0  0
  -24.6648  -11.0800   21.0362 C   0  0  0  0  0  0  0  0  0  0  0  0
  -22.1917  -10.9340   22.3188 C   0  0  0  0  0  0  0  0  0  0  0  0
  -23.6171  -10.3683   20.4519 C   0  0  0  0  0  0  0  0  0  0  0  0
  -27.8058  -16.2215   19.0168 C   0  0  0  0  0  0  0  0  0  0  0  0
  -28.6833  -17.9373   17.9579 C   0  0  0  0  0  0  0  0  0  0  0  0
  -28.6396  -15.8291   16.6156 C   0  0  0  0  0  0  0  0  0  0  0  0
  -26.7463  -28.8346   21.5640 C   0  0  0  0  0  0  0  0  0  0  0  0
  -18.6312  -26.2822   21.3462 C   0  0  0  0  0  0  0  0  0  0  0  0
  -26.3451  -31.7793   22.8641 C   0  0  0  0  0  0  0  0  0  0  0  0
  -24.2034  -34.2680   23.7951 C   0  0  0  0  0  0  0  0  0  0  0  0
  -26.4111  -22.2230   21.4473 C   0  0  0  0  0  0  0  0  0  0  0  0
  -30.5776  -26.1255   19.5540 C   0  0  0  0  0  0  0  0  0  0  0  0
  -25.3241  -29.9665   19.8170 C   0  0  0  0  0  0  0  0  0  0  0  0
  -24.2611  -30.3939   22.5432 C   0  0  0  0  0  0  0  0  0  0  0  0
  -30.4583  -27.2681   20.5593 C   0  0  0  0  0  0  0  0  0  0  0  0
  -29.8002  -21.1365   21.3420 C   0  0  0  0  0  0  0  0  0  0  0  0
  -29.3966  -26.9488   21.6069 C   0  0  0  0  0  0  0  0  0  0  0  0
  -29.7271  -19.7907   20.6171 C   0  0  0  0  0  0  0  0  0  0  0  0
  -28.5950  -21.3551   22.2550 C   0  0  0  0  0  0  0  0  0  0  0  0
  -27.2144  -19.8458   20.8821 C   0  0  0  0  0  0  0  0  0  0  0  0
  -28.0161  -26.7818   20.9604 C   0  0  1  0  0  0  0  0  0  0  0  0
  -26.2457  -30.1427   21.0199 C   0  0  1  0  0  0  0  0  0  0  0  0
  -28.3743  -19.6089   19.9012 C   0  0  2  0  0  0  0  0  0  0  0  0
  -23.1616  -21.1325   18.8822 C   0  0  0  0  0  0  0  0  0  0  0  0
  -24.1668  -36.5373   24.8656 C   0  0  0  0  0  0  0  0  0  0  0  0
  -17.1455  -25.3466   19.5227 C   0  0  0  0  0  0  0  0  0  0  0  0
  -17.0347  -24.4126   21.8343 C   0  0  0  0  0  0  0  0  0  0  0  0
  -26.7775  -30.4942   25.5974 C   0  0  0  0  0  0  0  0  0  0  0  0
  -25.8063  -32.5522   26.6412 C   0  0  0  0  0  0  0  0  0  0  0  0
  -27.9013  -32.7079   25.2960 C   0  0  0  0  0  0  0  0  0  0  0  0
  -23.0414  -35.5177   21.3770 C   0  0  0  0  0  0  0  0  0  0  0  0
  -19.6256  -27.0362   20.4768 C   0  0  0  0  0  0  0  0  0  1  0  0
  -19.1139  -24.0139   20.4341 C   0  0  0  0  0  0  0  0  0  0  0  0
  -25.6986  -32.3150   24.1187 C   0  0  1  0  0  0  0  0  0  0  0  0
  -24.2362  -35.7668   23.5563 C   0  0  2  0  0  0  0  0  0  0  0  0
  -17.9788  -25.0046   20.7684 C   0  0  0  0  0  0  0  0  0  0  0  0
  -26.5311  -32.0025   25.3941 C   0  0  0  0  0  0  0  0  0  0  0  0
  -27.7346  -17.2273   19.8928 N   0  0  0  0  0  0  0  0  0  0  0  0
  -28.2760  -18.2569   19.2198 N   0  0  0  0  0  0  0  0  0  0  0  0
  -25.5992  -30.8471   22.1289 N   0  0  0  0  0  0  0  0  0  0  0  0
  -27.3492  -21.1707   21.5075 N   0  0  0  0  0  0  0  0  0  0  0  0
  -29.2489  -18.8541   17.1443 N   0  0  0  0  0  0  0  0  0  0  0  0
  -28.2740  -14.4761   16.6166 N   0  0  0  0  0  0  0  0  0  0  0  0
  -25.2799  -21.9438   20.6811 N   0  0  0  0  0  0  0  0  0  0  0  0
  -20.1350  -23.9919   21.4563 N   0  0  0  0  0  0  0  0  0  0  0  0
  -27.4455  -28.0741   20.6463 N   0  0  0  0  0  0  0  0  0  0  0  0
  -25.4729  -33.7375   23.8862 N   0  0  0  0  0  0  0  0  0  0  0  0
  -23.0848  -36.1810   22.7056 N   0  3  0  0  0  0  0  0  0  0  0  0
  -29.1878  -16.3162   15.5978 O   0  0  0  0  0  0  0  0  0  0  0  0
  -26.5166  -28.5379   22.7306 O   0  0  0  0  0  0  0  0  0  0  0  0
  -18.3926  -26.6626   22.4952 O   0  0  0  0  0  0  0  0  0  0  0  0
  -27.4674  -32.1788   22.5441 O   0  0  0  0  0  0  0  0  0  0  0  0
  -23.1564  -33.6320   23.8947 O   0  0  0  0  0  0  0  0  0  0  0  0
  -26.6101  -23.3027   22.0100 O   0  0  0  0  0  0  0  0  0  0  0  0
  -25.8932  -11.1528   20.4011 O   0  0  0  0  0  0  0  0  0  0  0  0
  -20.1187  -28.1843   21.1661 O   0  0  0  0  0  0  0  0  0  1  0  0
  -21.0048  -10.8627   22.9355 F   0  0  0  0  0  0  0  0  0  0  0  0
  -23.7928   -9.7517   19.2752 F   0  0  0  0  0  0  0  0  0  0  0  0
  1  2  1  0  0  0  0
  1  5  2  0  0  0  0
  2  6  2  0  0  0  0
  3 10  2  0  0  0  0
  3 18  1  0  0  0  0
  4 11  1  0  0  0  0
  4 18  2  0  0  0  0
  5 20  1  0  0  0  0
  6 22  1  0  0  0  0
  7 12  2  0  0  0  0
  7 21  1  0  0  0  0
  8  9  2  0  0  0  0
  8 25  1  0  0  0  0
  9 26  1  0  0  0  0
 10 27  1  0  0  0  0
 11 27  2  0  0  0  0
 12 28  1  0  0  0  0
 13 14  2  0  0  0  0
 13 29  1  0  0  0  0
 14 30  1  0  0  0  0
 15 23  1  0  0  0  0
 15 28  2  0  0  0  0
 16 24  1  0  0  0  0
 16 25  2  0  0  0  0
 17 30  2  0  0  0  0
 17 31  1  0  0  0  0
 18 32  1  0  0  0  0
 19 32  1  0  0  0  0
 19 33  2  0  0  0  0
 19 34  1  0  0  0  0
 20 22  2  0  0  0  0
 20 40  1  0  0  0  0
 21 23  2  0  0  0  0
 21 41  1  0  0  0  0
 22 49  1  0  0  0  0
 23 42  1  0  0  0  0
 24 26  2  0  0  0  0
 24 52  1  0  0  0  0
 25 73  1  0  0  0  0
 26 72  1  0  0  0  0
 27 83  1  0  0  0  0
 28 84  1  0  0  0  0
 29 31  2  0  0  0  0
 29 83  1  0  0  0  0
 30 85  1  0  0  0  0
 31 86  1  0  0  0  0
 32 66  2  0  0  0  0
 33 67  1  0  0  0  0
 33 70  1  0  0  0  0
 34 71  1  0  0  0  0
 34 77  2  0  0  0  0
 35 50  1  0  0  0  0
 35 74  1  0  0  0  0
 35 78  2  0  0  0  0
 36 60  1  0  0  0  0
 36 64  1  0  0  0  0
 36 79  2  0  0  0  0
 37 62  1  0  0  0  0
 37 68  1  0  0  0  0
 37 80  2  0  0  0  0
 38 63  1  0  0  0  0
 38 75  1  0  0  0  0
 38 81  2  0  0  0  0
 39 69  1  0  0  0  0
 39 72  1  0  0  0  0
 39 82  2  0  0  0  0
 40 43  1  0  0  0  0
 41 50  1  0  0  0  0
 42 68  1  0  0  0  0
 43 45  1  0  0  0  0
 44 46  1  0  0  0  0
 44 47  1  0  0  0  0
 45 49  1  0  0  0  0
 46 51  1  0  0  0  0
 47 69  1  0  0  0  0
 48 51  1  0  0  0  0
 48 69  1  0  0  0  0
 49 74  1  0  0  0  0
 50 68  1  0  0  0  0
 51 67  1  0  0  0  0
 53 63  1  0  0  0  0
 54 64  1  0  0  0  0
 55 64  1  0  0  0  0
 56 65  1  0  0  0  0
 57 65  1  0  0  0  0
 58 65  1  0  0  0  0
 59 76  1  0  0  0  0
 60 84  1  0  0  0  0
 61 64  1  0  0  0  0
 61 73  1  0  0  0  0
 62 65  1  0  0  0  0
 62 75  1  0  0  0  0
 63 76  1  0  0  0  0
 66 67  1  0  0  0  0
M  CHG  1  76   1
M  ISO  4  39 100  60 101  72 100  84 101
M  END
> <Batch ID>
0140

> <Smiles>
CNC(C)C(=O)NC(C(=O)N1Cc2cc([101O:1][101CH2:1]C(=O)C(C)(C)CNc3ccc([100NH:0][100C:0](=O)N4CCCC(n5nc(-c6ccc(Oc7ccc(F)cc7F)cc6)c(C(N)=O)c5N)C4)c(C)c3)ccc2CC1C(=O)NC1CCCc2ccccc21)C(C)(C)C

> <Shape>
0.321

> <Color>
0.063

> <Negative vol penalty>
0.000

$$$$

  -OEChem-04052302513D

 86 95  0     1  0  0  0  0  0999 V2000
  -19.4591  -29.2160   26.1309 C   0  0  0  0  0  0  0  0  0  0  0  0
  -20.7912  -28.9590   25.8230 C   0  0  0  0  0  0  0  0  0  0  0  0
  -22.5703  -10.1992   20.5419 C   0  0  0  0  0  0  0  0  0  0  0  0
  -24.4303   -9.1222   21.6452 C   0  0  0  0  0  0  0  0  0  0  0  0
  -18.4573  -28.8808   25.2210 C   0  0  0  0  0  0  0  0  0  0  0  0
  -21.1222  -28.3655   24.6054 C   0  0  0  0  0  0  0  0  0  0  0  0
  -28.0800  -19.1814   20.6904 C   0  0  0  0  0  0  0  0  0  0  0  0
  -26.1164  -29.4346   21.2260 C   0  0  0  0  0  0  0  0  0  0  0  0
  -28.0696  -20.5674   20.8608 C   0  0  0  0  0  0  0  0  0  0  0  0
  -21.8300   -9.0211   20.6398 C   0  0  0  0  0  0  0  0  0  0  0  0
  -23.6901   -7.9441   21.7431 C   0  0  0  0  0  0  0  0  0  0  0  0
  -27.3269  -28.7544   21.0998 C   0  0  0  0  0  0  0  0  0  0  0  0
  -22.1613   -4.7605   22.6069 C   0  0  0  0  0  0  0  0  0  0  0  0
  -22.1803   -4.0811   23.8249 C   0  0  0  0  0  0  0  0  0  0  0  0
  -27.0978  -20.8796   18.6510 C   0  0  0  0  0  0  0  0  0  0  0  0
  -26.4757  -27.6130   19.1526 C   0  0  0  0  0  0  0  0  0  0  0  0
  -21.2502   -6.0222   24.9222 C   0  0  0  0  0  0  0  0  0  0  0  0
  -23.8705  -10.2498   21.0446 C   0  0  0  0  0  0  0  0  0  0  0  0
  -24.6898  -12.5172   21.8785 C   0  0  0  0  0  0  0  0  0  0  0  0
  -18.7769  -28.2917   23.9875 C   0  0  0  0  0  0  0  0  0  0  0  0
  -25.0709  -29.2006   20.3212 C   0  0  0  0  0  0  0  0  0  0  0  0
  -27.6005  -18.6664   19.4990 C   0  0  0  0  0  0  0  0  0  0  0  0
  -20.1236  -28.0208   23.6787 C   0  0  0  0  0  0  0  0  0  0  0  0
  -27.1148  -19.5054   18.4913 C   0  0  0  0  0  0  0  0  0  0  0  0
  -25.2539  -28.2934   19.2679 C   0  0  0  0  0  0  0  0  0  0  0  0
  -27.5815  -21.4102   19.8489 C   0  0  0  0  0  0  0  0  0  0  0  0
  -22.3899   -7.8935   21.2404 C   0  0  0  0  0  0  0  0  0  0  0  0
  -27.5057  -27.8414   20.0647 C   0  0  0  0  0  0  0  0  0  0  0  0
  -21.6868   -6.0709   22.5465 C   0  0  0  0  0  0  0  0  0  0  0  0
  -21.7248   -4.7119   24.9825 C   0  0  0  0  0  0  0  0  0  0  0  0
  -21.2312   -6.7017   23.7041 C   0  0  0  0  0  0  0  0  0  0  0  0
  -24.6358  -11.4664   20.9432 C   0  0  0  0  0  0  0  0  0  0  0  0
  -25.5507  -13.4301   21.3200 C   0  0  0  0  0  0  0  0  0  0  0  0
  -24.0214  -12.6556   23.1394 C   0  0  0  0  0  0  0  0  0  0  0  0
  -22.1056  -28.0810   20.5608 C   0  0  0  0  0  0  0  0  0  0  0  0
  -21.9576  -28.9047   17.4268 C   0  0  0  0  0  0  0  0  0  0  0  0
  -27.1356  -23.7897   19.1672 C   0  0  0  0  0  0  0  0  0  0  0  0
  -23.6206  -29.5121   14.5092 C   0  0  0  0  0  0  0  0  0  0  0  0
  -27.0531  -16.3148   16.7239 C   0  0  0  0  0  0  0  0  0  0  0  0
  -17.6559  -27.9037   23.0561 C   0  0  0  0  0  0  0  0  0  0  0  0
  -23.7807  -29.9622   20.4552 C   0  0  0  0  0  0  0  0  0  0  0  0
  -27.4840  -17.2355   19.0847 C   0  0  0  0  0  0  0  0  0  0  0  0
  -26.6674  -18.7004   17.3181 C   0  0  0  0  0  0  0  0  0  0  0  0
  -24.1698  -28.0214   18.2582 C   0  0  0  0  0  0  0  0  0  0  0  0
  -18.1197  -27.6205   21.6296 C   0  0  0  0  0  0  0  0  0  0  0  0
  -28.6312  -13.0571   17.3234 C   0  0  0  0  0  0  0  0  0  0  0  0
  -19.3529  -26.7226   21.6375 C   0  0  0  0  0  0  0  0  0  0  0  0
  -27.7059  -12.4253   18.3658 C   0  0  0  0  0  0  0  0  0  0  0  0
  -27.8826  -14.0121   16.3958 C   0  0  0  0  0  0  0  0  0  0  0  0
  -26.1671  -14.4056   18.1188 C   0  0  0  0  0  0  0  0  0  0  0  0
  -20.5245  -27.4009   22.3576 C   0  0  1  0  0  0  0  0  0  0  0  0
  -22.6028  -29.2654   19.7812 C   0  0  1  0  0  0  0  0  0  0  0  0
  -26.8974  -13.4994   19.1188 C   0  0  1  0  0  0  0  0  0  0  0  0
  -23.2264  -30.1271   12.1084 C   0  0  0  0  0  0  0  0  0  0  0  0
  -21.0371  -26.0534   16.8499 C   0  0  0  0  0  0  0  0  0  0  0  0
  -21.5743  -26.4427   14.4358 C   0  0  0  0  0  0  0  0  0  0  0  0
  -19.8262  -27.8215   15.5608 C   0  0  0  0  0  0  0  0  0  0  0  0
  -28.7950  -26.0197   17.8491 C   0  0  0  0  0  0  0  0  0  0  0  0
  -29.7999  -25.0554   19.9288 C   0  0  0  0  0  0  0  0  0  0  0  0
  -25.1825  -32.0121   14.7724 C   0  0  0  0  0  0  0  0  0  0  0  0
  -27.2995  -25.1912   19.7410 C   0  0  0  0  0  0  0  0  0  0  0  0
  -22.2609  -28.2074   16.1227 C   0  0  1  0  0  0  0  0  0  0  0  0
  -23.5157  -30.6480   13.5076 C   0  0  2  0  0  0  0  0  0  0  0  0
  -21.1946  -27.1347   15.7623 C   0  0  0  0  0  0  0  0  0  0  0  0
  -28.6299  -25.8670   19.3619 C   0  0  0  0  0  0  0  0  0  1  0  0
  -25.4014  -11.6899   19.8718 N   0  0  0  0  0  0  0  0  0  0  0  0
  -25.9445  -12.8917   20.1303 N   0  0  0  0  0  0  0  0  0  0  0  0
  -22.9244  -28.7862   18.4354 N   0  0  0  0  0  0  0  0  0  0  0  0
  -26.9738  -17.3116   17.6995 N   0  0  0  0  0  0  0  0  0  0  0  0
  -27.1156  -14.9897   17.1663 N   0  0  0  0  0  0  0  0  0  0  0  0
  -26.0016  -14.6328   21.7353 N   0  0  0  0  0  0  0  0  0  0  0  0
  -23.1723  -11.6240   23.5623 N   0  0  0  0  0  0  0  0  0  0  0  0
  -27.5807  -22.7924   20.0432 N   0  0  0  0  0  0  0  0  0  0  0  0
  -21.1403  -28.3906   21.4998 N   0  0  0  0  0  0  0  0  0  0  0  0
  -22.4120  -29.2591   15.1230 N   0  0  0  0  0  0  0  0  0  0  0  0
  -24.7885  -31.4221   13.4672 N   0  3  0  0  0  0  0  0  0  0  0  0
  -24.1601  -13.6717   23.8618 O   0  0  0  0  0  0  0  0  0  0  0  0
  -22.5629  -26.9685   20.3267 O   0  0  0  0  0  0  0  0  0  0  0  0
  -20.9052  -29.5374   17.5438 O   0  0  0  0  0  0  0  0  0  0  0  0
  -26.6512  -23.6303   18.0500 O   0  0  0  0  0  0  0  0  0  0  0  0
  -24.6688  -28.9070   14.7228 O   0  0  0  0  0  0  0  0  0  0  0  0
  -27.1212  -16.5955   15.5204 O   0  0  0  0  0  0  0  0  0  0  0  0
  -21.6678   -6.7438   21.3363 O   0  0  0  0  0  0  0  0  0  0  0  0
  -28.6916  -27.1724   19.9391 O   0  0  0  0  0  0  0  0  0  1  0  0
  -21.7417   -4.0588   26.1519 F   0  0  0  0  0  0  0  0  0  0  0  0
  -20.7731   -7.9599   23.6521 F   0  0  0  0  0  0  0  0  0  0  0  0
  1  2  1  0  0  0  0
  1  5  2  0  0  0  0
  2  6  2  0  0  0  0
  3 10  2  0  0  0  0
  3 18  1  0  0  0  0
  4 11  1  0  0  0  0
  4 18  2  0  0  0  0
  5 20  1  0  0  0  0
  6 23  1  0  0  0  0
  7  9  2  0  0  0  0
  7 22  1  0  0  0  0
  8 12  2  0  0  0  0
  8 21  1  0  0  0  0
  9 26  1  0  0  0  0
 10 27  1  0  0  0  0
 11 27  2  0  0  0  0
 12 28  1  0  0  0  0
 13 14  2  0  0  0  0
 13 29  1  0  0  0  0
 14 30  1  0  0  0  0
 15 24  1  0  0  0  0
 15 26  2  0  0  0  0
 16 25  1  0  0  0  0
 16 28  2  0  0  0  0
 17 30  2  0  0  0  0
 17 31  1  0  0  0  0
 18 32  1  0  0  0  0
 19 32  1  0  0  0  0
 19 33  2  0  0  0  0
 19 34  1  0  0  0  0
 20 23  2  0  0  0  0
 20 40  1  0  0  0  0
 21 25  2  0  0  0  0
 21 41  1  0  0  0  0
 22 24  2  0  0  0  0
 22 42  1  0  0  0  0
 23 51  1  0  0  0  0
 24 43  1  0  0  0  0
 25 44  1  0  0  0  0
 26 73  1  0  0  0  0
 27 83  1  0  0  0  0
 28 84  1  0  0  0  0
 29 31  2  0  0  0  0
 29 83  1  0  0  0  0
 30 85  1  0  0  0  0
 31 86  1  0  0  0  0
 32 66  2  0  0  0  0
 33 67  1  0  0  0  0
 33 71  1  0  0  0  0
 34 72  1  0  0  0  0
 34 77  2  0  0  0  0
 35 52  1  0  0  0  0
 35 74  1  0  0  0  0
 35 78  2  0  0  0  0
 36 62  1  0  0  0  0
 36 68  1  0  0  0  0
 36 79  2  0  0  0  0
 37 61  1  0  0  0  0
 37 73  1  0  0  0  0
 37 80  2  0  0  0  0
 38 63  1  0  0  0  0
 38 75  1  0  0  0  0
 38 81  2  0  0  0  0
 39 69  1  0  0  0  0
 39 70  1  0  0  0  0
 39 82  2  0  0  0  0
 40 45  1  0  0  0  0
 41 52  1  0  0  0  0
 42 69  1  0  0  0  0
 43 69  1  0  0  0  0
 44 68  1  0  0  0  0
 45 47  1  0  0  0  0
 46 48  1  0  0  0  0
 46 49  1  0  0  0  0
 47 51  1  0  0  0  0
 48 53  1  0  0  0  0
 49 70  1  0  0  0  0
 50 53  1  0  0  0  0
 50 70  1  0  0  0  0
 51 74  1  0  0  0  0
 52 68  1  0  0  0  0
 53 67  1  0  0  0  0
 54 63  1  0  0  0  0
 55 64  1  0  0  0  0
 56 64  1  0  0  0  0
 57 64  1  0  0  0  0
 58 65  1  0  0  0  0
 59 65  1  0  0  0  0
 60 76  1  0  0  0  0
 61 65  1  0  0  0  0
 62 64  1  0  0  0  0
 62 75  1  0  0  0  0
 63 76  1  0  0  0  0
 65 84  1  0  0  0  0
 66 67  1  0  0  0  0
M  CHG  1  76   1
M  ISO  4  39 100  65 101  69 100  84 101
M  END
> <Batch ID>
0140

> <Smiles>
CNC(C)C(=O)NC(C(=O)N1Cc2cc([101O:1][101C:1](C)(C)CC(=O)Nc3ccc4c(c3)C[100N:0]([100C:0](=O)N3CCCC(n5nc(-c6ccc(Oc7ccc(F)cc7F)cc6)c(C(N)=O)c5N)C3)C4)ccc2CC1C(=O)NC1CCCc2ccccc21)C(C)(C)C

> <Shape>
0.285

> <Color>
0.144

> <Negative vol penalty>
0.000

$$$$

  -OEChem-04052302513D

 85 93  0     1  0  0  0  0  0999 V2000
  -18.9027  -30.9050   24.4715 C   0  0  0  0  0  0  0  0  0  0  0  0
  -20.2764  -30.7534   24.3120 C   0  0  0  0  0  0  0  0  0  0  0  0
  -26.6165  -22.6912   20.6903 C   0  0  0  0  0  0  0  0  0  0  0  0
  -26.4351  -11.9221   21.0526 C   0  0  0  0  0  0  0  0  0  0  0  0
  -25.1634  -13.6805   19.9907 C   0  0  0  0  0  0  0  0  0  0  0  0
  -18.0343  -29.9232   23.9963 C   0  0  0  0  0  0  0  0  0  0  0  0
  -20.7825  -29.6191   23.6781 C   0  0  0  0  0  0  0  0  0  0  0  0
  -25.7316  -29.3100   20.0842 C   0  0  0  0  0  0  0  0  0  0  0  0
  -26.8702  -23.6076   21.7107 C   0  0  0  0  0  0  0  0  0  0  0  0
  -27.3300  -21.4938   20.6349 C   0  0  0  0  0  0  0  0  0  0  0  0
  -25.2529  -11.2387   21.3368 C   0  0  0  0  0  0  0  0  0  0  0  0
  -23.9811  -12.9970   20.2748 C   0  0  0  0  0  0  0  0  0  0  0  0
  -27.0459  -28.9147   20.3296 C   0  0  0  0  0  0  0  0  0  0  0  0
  -22.2563  -10.3774   19.0166 C   0  0  0  0  0  0  0  0  0  0  0  0
  -21.3073  -10.2765   17.9994 C   0  0  0  0  0  0  0  0  0  0  0  0
  -26.5306  -26.7085   19.5012 C   0  0  0  0  0  0  0  0  0  0  0  0
  -28.5512  -22.1297   22.6202 C   0  0  0  0  0  0  0  0  0  0  0  0
  -19.7027  -11.4397   19.3811 C   0  0  0  0  0  0  0  0  0  0  0  0
  -26.3904  -13.1431   20.3796 C   0  0  0  0  0  0  0  0  0  0  0  0
  -28.4073  -13.7285   18.9315 C   0  0  0  0  0  0  0  0  0  0  0  0
  -18.5295  -28.7810   23.3477 C   0  0  0  0  0  0  0  0  0  0  0  0
  -24.8026  -28.4029   19.5547 C   0  0  0  0  0  0  0  0  0  0  0  0
  -19.9200  -28.6205   23.1950 C   0  0  0  0  0  0  0  0  0  0  0  0
  -25.2059  -27.0955   19.2475 C   0  0  0  0  0  0  0  0  0  0  0  0
  -27.8376  -23.3269   22.6757 C   0  0  0  0  0  0  0  0  0  0  0  0
  -28.2974  -21.2131   21.5998 C   0  0  0  0  0  0  0  0  0  0  0  0
  -24.0259  -11.7761   20.9479 C   0  0  0  0  0  0  0  0  0  0  0  0
  -27.4448  -27.6130   20.0408 C   0  0  0  0  0  0  0  0  0  0  0  0
  -21.9285  -11.0093   20.2162 C   0  0  0  0  0  0  0  0  0  0  0  0
  -20.0305  -10.8077   18.1816 C   0  0  0  0  0  0  0  0  0  0  0  0
  -20.6517  -11.5405   20.3984 C   0  0  0  0  0  0  0  0  0  0  0  0
  -27.6113  -13.8498   20.0862 C   0  0  0  0  0  0  0  0  0  0  0  0
  -29.4454  -14.6042   19.1365 C   0  0  0  0  0  0  0  0  0  0  0  0
  -28.2247  -12.8985   17.7768 C   0  0  0  0  0  0  0  0  0  0  0  0
  -22.0621  -27.1508   20.5675 C   0  0  0  0  0  0  0  0  0  0  0  0
  -21.9811  -25.8953   17.5776 C   0  0  0  0  0  0  0  0  0  0  0  0
  -23.7033  -24.9173   14.7983 C   0  0  0  0  0  0  0  0  0  0  0  0
  -30.0145  -19.5631   22.4215 C   0  0  0  0  0  0  0  0  0  0  0  0
  -17.5543  -27.7242   22.8930 C   0  0  0  0  0  0  0  0  0  0  0  0
  -23.3956  -28.8526   19.2707 C   0  0  0  0  0  0  0  0  0  0  0  0
  -24.2523  -26.0891   18.6590 C   0  0  0  0  0  0  0  0  0  0  0  0
  -18.1517  -26.7310   21.8996 C   0  0  0  0  0  0  0  0  0  0  0  0
  -32.0064  -16.6204   22.6452 C   0  0  0  0  0  0  0  0  0  0  0  0
  -19.5166  -26.2496   22.3814 C   0  0  0  0  0  0  0  0  0  0  0  0
  -31.1806  -15.5664   21.9040 C   0  0  0  0  0  0  0  0  0  0  0  0
  -31.1207  -17.5822   23.4352 C   0  0  0  0  0  0  0  0  0  0  0  0
  -29.2253  -17.1676   21.9171 C   0  0  0  0  0  0  0  0  0  0  0  0
  -20.5060  -27.4160   22.4908 C   0  0  1  0  0  0  0  0  0  0  0  0
  -22.4002  -27.6981   19.2096 C   0  0  1  0  0  0  0  0  0  0  0  0
  -30.0700  -16.2154   21.0548 C   0  0  2  0  0  0  0  0  0  0  0  0
  -26.8691  -24.5044   24.6654 C   0  0  0  0  0  0  0  0  0  0  0  0
  -23.3679  -23.8939   12.5317 C   0  0  0  0  0  0  0  0  0  0  0  0
  -21.5994  -23.1588   18.8722 C   0  0  0  0  0  0  0  0  0  0  0  0
  -22.2190  -22.1140   16.6830 C   0  0  0  0  0  0  0  0  0  0  0  0
  -20.1919  -23.5588   16.8441 C   0  0  0  0  0  0  0  0  0  0  0  0
  -31.2065  -27.6856   23.0949 C   0  0  0  0  0  0  0  0  0  0  0  0
  -31.5379  -26.6191   20.8614 C   0  0  0  0  0  0  0  0  0  0  0  0
  -24.7960  -27.3039   13.4311 C   0  0  0  0  0  0  0  0  0  0  0  0
  -28.6042  -25.6961   23.2663 C   0  0  0  0  0  0  0  0  0  0  0  0
  -29.9035  -25.5904   22.4504 C   0  0  0  0  0  0  0  0  0  0  0  0
  -29.4098  -27.8656   21.3565 C   0  0  0  0  0  0  0  0  0  1  0  0
  -28.1135  -24.3254   23.7868 C   0  0  2  0  0  0  0  0  0  0  0  0
  -22.4832  -24.6232   16.9382 C   0  0  1  0  0  0  0  0  0  0  0  0
  -23.4721  -25.1886   13.3227 C   0  0  2  0  0  0  0  0  0  0  0  0
  -21.6411  -23.3819   17.3473 C   0  0  0  0  0  0  0  0  0  0  0  0
  -30.4932  -26.9410   21.9523 C   0  0  0  0  0  0  0  0  0  0  0  0
  -28.1016  -14.7329   20.9601 N   0  0  0  0  0  0  0  0  0  0  0  0
  -29.2171  -15.1744   20.3543 N   0  0  0  0  0  0  0  0  0  0  0  0
  -22.8859  -26.5750   18.4053 N   0  0  0  0  0  0  0  0  0  0  0  0
  -30.0949  -18.1618   22.5653 N   0  0  0  0  0  0  0  0  0  0  0  0
  -30.5221  -14.9344   18.3922 N   0  0  0  0  0  0  0  0  0  0  0  0
  -27.1042  -12.0579   17.7286 N   0  0  0  0  0  0  0  0  0  0  0  0
  -29.0216  -19.9965   21.5436 N   0  0  0  0  0  0  0  0  0  0  0  0
  -20.9989  -27.7852   21.1811 N   0  0  0  0  0  0  0  0  0  0  0  0
  -22.5181  -24.8746   15.5016 N   0  0  0  0  0  0  0  0  0  0  0  0
  -24.5944  -25.9930   12.7619 N   0  3  0  0  0  0  0  0  0  0  0  0
  -29.0400  -12.8900   16.8235 O   0  0  0  0  0  0  0  0  0  0  0  0
  -22.7165  -26.2207   21.0240 O   0  0  0  0  0  0  0  0  0  0  0  0
  -20.8309  -26.2757   17.3453 O   0  0  0  0  0  0  0  0  0  0  0  0
  -24.8231  -24.7554   15.2784 O   0  0  0  0  0  0  0  0  0  0  0  0
  -30.7884  -20.3214   23.0113 O   0  0  0  0  0  0  0  0  0  0  0  0
  -22.8721  -11.1093   21.2248 O   0  0  0  0  0  0  0  0  0  0  0  0
  -28.7268  -27.2243   20.2801 O   0  0  0  0  0  0  0  0  0  1  0  0
  -19.1197  -10.7122   17.2041 F   0  0  0  0  0  0  0  0  0  0  0  0
  -20.3313  -12.1498   21.5482 F   0  0  0  0  0  0  0  0  0  0  0  0
  1  2  1  0  0  0  0
  1  6  2  0  0  0  0
  2  7  2  0  0  0  0
  3  9  2  0  0  0  0
  3 10  1  0  0  0  0
  4 11  2  0  0  0  0
  4 19  1  0  0  0  0
  5 12  1  0  0  0  0
  5 19  2  0  0  0  0
  6 21  1  0  0  0  0
  7 23  1  0  0  0  0
  8 13  2  0  0  0  0
  8 22  1  0  0  0  0
  9 25  1  0  0  0  0
 10 26  2  0  0  0  0
 11 27  1  0  0  0  0
 12 27  2  0  0  0  0
 13 28  1  0  0  0  0
 14 15  2  0  0  0  0
 14 29  1  0  0  0  0
 15 30  1  0  0  0  0
 16 24  1  0  0  0  0
 16 28  2  0  0  0  0
 17 25  2  0  0  0  0
 17 26  1  0  0  0  0
 18 30  2  0  0  0  0
 18 31  1  0  0  0  0
 19 32  1  0  0  0  0
 20 32  1  0  0  0  0
 20 33  2  0  0  0  0
 20 34  1  0  0  0  0
 21 23  2  0  0  0  0
 21 39  1  0  0  0  0
 22 24  2  0  0  0  0
 22 40  1  0  0  0  0
 23 48  1  0  0  0  0
 24 41  1  0  0  0  0
 25 62  1  0  0  0  0
 26 73  1  0  0  0  0
 27 82  1  0  0  0  0
 28 83  1  0  0  0  0
 29 31  2  0  0  0  0
 29 82  1  0  0  0  0
 30 84  1  0  0  0  0
 31 85  1  0  0  0  0
 32 67  2  0  0  0  0
 33 68  1  0  0  0  0
 33 71  1  0  0  0  0
 34 72  1  0  0  0  0
 34 77  2  0  0  0  0
 35 49  1  0  0  0  0
 35 74  1  0  0  0  0
 35 78  2  0  0  0  0
 36 63  1  0  0  0  0
 36 69  1  0  0  0  0
 36 79  2  0  0  0  0
 37 64  1  0  0  0  0
 37 75  1  0  0  0  0
 37 80  2  0  0  0  0
 38 70  1  0  0  0  0
 38 73  1  0  0  0  0
 38 81  2  0  0  0  0
 39 42  1  0  0  0  0
 40 49  1  0  0  0  0
 41 69  1  0  0  0  0
 42 44  1  0  0  0  0
 43 45  1  0  0  0  0
 43 46  1  0  0  0  0
 44 48  1  0  0  0  0
 45 50  1  0  0  0  0
 46 70  1  0  0  0  0
 47 50  1  0  0  0  0
 47 70  1  0  0  0  0
 48 74  1  0  0  0  0
 49 69  1  0  0  0  0
 50 68  1  0  0  0  0
 51 62  1  0  0  0  0
 52 64  1  0  0  0  0
 53 65  1  0  0  0  0
 54 65  1  0  0  0  0
 55 65  1  0  0  0  0
 56 66  1  0  0  0  0
 57 66  1  0  0  0  0
 58 76  1  0  0  0  0
 59 60  1  0  0  0  0
 59 62  1  0  0  0  0
 60 66  1  0  0  0  0
 61 66  1  0  0  0  0
 61 83  1  0  0  0  0
 63 65  1  0  0  0  0
 63 75  1  0  0  0  0
 64 76  1  0  0  0  0
 67 68  1  0  0  0  0
M  CHG  1  76   1
M  ISO  4  38 100  61 101  73 100  83 101
M  END
> <Batch ID>
0140

> <Smiles>
CNC(C)C(=O)NC(C(=O)N1Cc2cc([101O:1][101CH2:1]C(C)(C)CCC(C)c3cccc([100NH:0][100C:0](=O)N4CCCC(n5nc(-c6ccc(Oc7ccc(F)cc7F)cc6)c(C(N)=O)c5N)C4)c3)ccc2CC1C(=O)NC1CCCc2ccccc21)C(C)(C)C

> <Shape>
0.258

> <Color>
0.065

> <Negative vol penalty>
0.000

$$$$

  -OEChem-04052302513D

 84 92  0     1  0  0  0  0  0999 V2000
  -16.9454  -29.0280   24.4629 C   0  0  0  0  0  0  0  0  0  0  0  0
  -17.4051  -27.9722   23.6823 C   0  0  0  0  0  0  0  0  0  0  0  0
  -24.8561  -18.4316   21.2817 C   0  0  0  0  0  0  0  0  0  0  0  0
  -26.0410  -12.1088   21.4751 C   0  0  0  0  0  0  0  0  0  0  0  0
  -25.5296  -13.2437   19.4044 C   0  0  0  0  0  0  0  0  0  0  0  0
  -17.5285  -30.2887   24.3415 C   0  0  0  0  0  0  0  0  0  0  0  0
  -18.4475  -28.1767   22.7790 C   0  0  0  0  0  0  0  0  0  0  0  0
  -22.8370  -24.1861   21.2580 C   0  0  0  0  0  0  0  0  0  0  0  0
  -24.3475  -18.7585   20.0247 C   0  0  0  0  0  0  0  0  0  0  0  0
  -26.1952  -18.0660   21.4188 C   0  0  0  0  0  0  0  0  0  0  0  0
  -24.6830  -12.0741   21.7915 C   0  0  0  0  0  0  0  0  0  0  0  0
  -24.1715  -13.2089   19.7209 C   0  0  0  0  0  0  0  0  0  0  0  0
  -22.9851  -23.3231   20.1731 C   0  0  0  0  0  0  0  0  0  0  0  0
  -22.0316  -14.9148   21.7062 C   0  0  0  0  0  0  0  0  0  0  0  0
  -21.2905  -16.0802   21.5103 C   0  0  0  0  0  0  0  0  0  0  0  0
  -24.3486  -24.9704   19.0567 C   0  0  0  0  0  0  0  0  0  0  0  0
  -26.5173  -18.3542   19.0418 C   0  0  0  0  0  0  0  0  0  0  0  0
  -19.8595  -14.9088   19.9555 C   0  0  0  0  0  0  0  0  0  0  0  0
  -26.4643  -12.6936   20.2816 C   0  0  0  0  0  0  0  0  0  0  0  0
  -28.5995  -11.7617   19.2423 C   0  0  0  0  0  0  0  0  0  0  0  0
  -18.5850  -30.5064   23.4432 C   0  0  0  0  0  0  0  0  0  0  0  0
  -23.4355  -25.4542   21.2458 C   0  0  0  0  0  0  0  0  0  0  0  0
  -19.0444  -29.4418   22.6445 C   0  0  0  0  0  0  0  0  0  0  0  0
  -24.2087  -25.8466   20.1438 C   0  0  0  0  0  0  0  0  0  0  0  0
  -25.1781  -18.7198   18.9047 C   0  0  0  0  0  0  0  0  0  0  0  0
  -27.0258  -18.0274   20.2989 C   0  0  0  0  0  0  0  0  0  0  0  0
  -23.7482  -12.6241   20.9144 C   0  0  0  0  0  0  0  0  0  0  0  0
  -23.7386  -23.7163   19.0710 C   0  0  0  0  0  0  0  0  0  0  0  0
  -21.6867  -13.7465   21.0266 C   0  0  0  0  0  0  0  0  0  0  0  0
  -20.2045  -16.0772   20.6350 C   0  0  0  0  0  0  0  0  0  0  0  0
  -20.6007  -13.7435   20.1514 C   0  0  0  0  0  0  0  0  0  0  0  0
  -27.8671  -12.7303   19.9544 C   0  0  0  0  0  0  0  0  0  0  0  0
  -29.8782  -12.2612   19.1993 C   0  0  0  0  0  0  0  0  0  0  0  0
  -28.1631  -10.5213   18.6708 C   0  0  0  0  0  0  0  0  0  0  0  0
  -22.3602  -28.4434   21.3555 C   0  0  0  0  0  0  0  0  0  0  0  0
  -25.5187  -29.1603   21.5337 C   0  0  0  0  0  0  0  0  0  0  0  0
  -28.7407  -28.2317   20.8985 C   0  0  0  0  0  0  0  0  0  0  0  0
  -29.0483  -17.3038   21.6147 C   0  0  0  0  0  0  0  0  0  0  0  0
  -19.1520  -31.8979   23.3130 C   0  0  0  0  0  0  0  0  0  0  0  0
  -23.2883  -26.3629   22.4353 C   0  0  0  0  0  0  0  0  0  0  0  0
  -24.8885  -27.1895   20.0900 C   0  0  0  0  0  0  0  0  0  0  0  0
  -20.5021  -31.9413   22.6019 C   0  0  0  0  0  0  0  0  0  0  0  0
  -31.1449  -14.4751   22.6372 C   0  0  0  0  0  0  0  0  0  0  0  0
  -20.4672  -31.0888   21.3375 C   0  0  0  0  0  0  0  0  0  0  0  0
  -31.8056  -14.0141   21.3441 C   0  0  0  0  0  0  0  0  0  0  0  0
  -30.8838  -15.9735   22.6094 C   0  0  0  0  0  0  0  0  0  0  0  0
  -30.6136  -15.9120   20.1310 C   0  0  0  0  0  0  0  0  0  0  0  0
  -20.1896  -29.6181   21.6712 C   0  0  1  0  0  0  0  0  0  0  0  0
  -23.5161  -27.8327   22.0962 C   0  0  1  0  0  0  0  0  0  0  0  0
  -30.9925  -14.4153   20.1039 C   0  0  2  0  0  0  0  0  0  0  0  0
  -31.1051  -29.0422   21.1229 C   0  0  0  0  0  0  0  0  0  0  0  0
  -25.3782  -18.2931   16.3997 C   0  0  0  0  0  0  0  0  0  0  0  0
  -23.1508  -18.5476   17.3813 C   0  0  0  0  0  0  0  0  0  0  0  0
  -25.0999  -31.0316   19.1604 C   0  0  0  0  0  0  0  0  0  0  0  0
  -27.5824  -31.0643   18.8373 C   0  0  0  0  0  0  0  0  0  0  0  0
  -26.5901  -31.9375   20.9529 C   0  0  0  0  0  0  0  0  0  0  0  0
  -26.1451  -21.1916   17.2934 C   0  0  0  0  0  0  0  0  0  0  0  0
  -24.1489  -21.0534   15.8269 C   0  0  0  0  0  0  0  0  0  0  0  0
  -29.4733  -25.9660   22.6561 C   0  0  0  0  0  0  0  0  0  0  0  0
  -23.8542  -21.4756   18.2824 C   0  0  0  0  0  0  0  0  0  1  0  0
  -26.6087  -29.4451   20.5288 C   0  0  1  0  0  0  0  0  0  0  0  0
  -29.9834  -28.2451   21.7703 C   0  0  2  0  0  0  0  0  0  0  0  0
  -24.6110  -19.0842   17.5044 C   0  0  0  0  0  0  0  0  0  0  0  0
  -26.4560  -30.8450   19.8697 C   0  0  0  0  0  0  0  0  0  0  0  0
  -24.6829  -20.6732   17.2336 C   0  0  0  0  0  0  0  0  0  0  0  0
  -28.6180  -13.7668   20.3363 N   0  0  0  0  0  0  0  0  0  0  0  0
  -29.8357  -13.4522   19.8626 N   0  0  0  0  0  0  0  0  0  0  0  0
  -24.7096  -28.0449   21.2748 N   0  0  0  0  0  0  0  0  0  0  0  0
  -30.1121  -16.3854   21.4344 N   0  0  0  0  0  0  0  0  0  0  0  0
  -31.0236  -11.7935   18.6592 N   0  0  0  0  0  0  0  0  0  0  0  0
  -26.8156  -10.1605   18.8068 N   0  0  0  0  0  0  0  0  0  0  0  0
  -28.3861  -17.6567   20.4386 N   0  0  0  0  0  0  0  0  0  0  0  0
  -21.3864  -28.9798   22.1761 N   0  0  0  0  0  0  0  0  0  0  0  0
  -27.8725  -29.2500   21.2311 N   0  0  0  0  0  0  0  0  0  0  0  0
  -30.4681  -26.8551   22.0027 N   0  3  0  0  0  0  0  0  0  0  0  0
  -28.9483   -9.7478   18.0720 O   0  0  0  0  0  0  0  0  0  0  0  0
  -22.3530  -28.4302   20.1301 O   0  0  0  0  0  0  0  0  0  0  0  0
  -25.3945  -29.8959   22.5160 O   0  0  0  0  0  0  0  0  0  0  0  0
  -28.5601  -27.4033   20.0088 O   0  0  0  0  0  0  0  0  0  0  0  0
  -28.7616  -17.7581   22.7253 O   0  0  0  0  0  0  0  0  0  0  0  0
  -22.4230  -12.5902   21.2228 O   0  0  0  0  0  0  0  0  0  0  0  0
  -23.8843  -22.8762   18.0104 O   0  0  0  0  0  0  0  0  0  1  0  0
  -19.4919  -17.1959   20.4482 F   0  0  0  0  0  0  0  0  0  0  0  0
  -20.2638  -12.6238   19.4966 F   0  0  0  0  0  0  0  0  0  0  0  0
  1  2  1  0  0  0  0
  1  6  2  0  0  0  0
  2  7  2  0  0  0  0
  3  9  2  0  0  0  0
  3 10  1  0  0  0  0
  4 11  2  0  0  0  0
  4 19  1  0  0  0  0
  5 12  1  0  0  0  0
  5 19  2  0  0  0  0
  6 21  1  0  0  0  0
  7 23  1  0  0  0  0
  8 13  2  0  0  0  0
  8 22  1  0  0  0  0
  9 25  1  0  0  0  0
 10 26  2  0  0  0  0
 11 27  1  0  0  0  0
 12 27  2  0  0  0  0
 13 28  1  0  0  0  0
 14 15  2  0  0  0  0
 14 29  1  0  0  0  0
 15 30  1  0  0  0  0
 16 24  1  0  0  0  0
 16 28  2  0  0  0  0
 17 25  2  0  0  0  0
 17 26  1  0  0  0  0
 18 30  2  0  0  0  0
 18 31  1  0  0  0  0
 19 32  1  0  0  0  0
 20 32  1  0  0  0  0
 20 33  2  0  0  0  0
 20 34  1  0  0  0  0
 21 23  2  0  0  0  0
 21 39  1  0  0  0  0
 22 24  2  0  0  0  0
 22 40  1  0  0  0  0
 23 48  1  0  0  0  0
 24 41  1  0  0  0  0
 25 63  1  0  0  0  0
 26 72  1  0  0  0  0
 27 81  1  0  0  0  0
 28 82  1  0  0  0  0
 29 31  2  0  0  0  0
 29 81  1  0  0  0  0
 30 83  1  0  0  0  0
 31 84  1  0  0  0  0
 32 66  2  0  0  0  0
 33 67  1  0  0  0  0
 33 70  1  0  0  0  0
 34 71  1  0  0  0  0
 34 76  2  0  0  0  0
 35 49  1  0  0  0  0
 35 73  1  0  0  0  0
 35 77  2  0  0  0  0
 36 61  1  0  0  0  0
 36 68  1  0  0  0  0
 36 78  2  0  0  0  0
 37 62  1  0  0  0  0
 37 74  1  0  0  0  0
 37 79  2  0  0  0  0
 38 69  1  0  0  0  0
 38 72  1  0  0  0  0
 38 80  2  0  0  0  0
 39 42  1  0  0  0  0
 40 49  1  0  0  0  0
 41 68  1  0  0  0  0
 42 44  1  0  0  0  0
 43 45  1  0  0  0  0
 43 46  1  0  0  0  0
 44 48  1  0  0  0  0
 45 50  1  0  0  0  0
 46 69  1  0  0  0  0
 47 50  1  0  0  0  0
 47 69  1  0  0  0  0
 48 73  1  0  0  0  0
 49 68  1  0  0  0  0
 50 67  1  0  0  0  0
 51 62  1  0  0  0  0
 52 63  1  0  0  0  0
 53 63  1  0  0  0  0
 54 64  1  0  0  0  0
 55 64  1  0  0  0  0
 56 64  1  0  0  0  0
 57 65  1  0  0  0  0
 58 65  1  0  0  0  0
 59 75  1  0  0  0  0
 60 65  1  0  0  0  0
 60 82  1  0  0  0  0
 61 64  1  0  0  0  0
 61 74  1  0  0  0  0
 62 75  1  0  0  0  0
 63 65  1  0  0  0  0
 66 67  1  0  0  0  0
M  CHG  1  75   1
M  ISO  4  38 100  60 101  72 100  82 101
M  END
> <Batch ID>
0140

> <Smiles>
CNC(C)C(=O)NC(C(=O)N1Cc2cc([101O:1][101CH2:1]C(C)(C)C(C)(C)c3cccc([100NH:0][100C:0](=O)N4CCCC(n5nc(-c6ccc(Oc7ccc(F)cc7F)cc6)c(C(N)=O)c5N)C4)c3)ccc2CC1C(=O)NC1CCCc2ccccc21)C(C)(C)C

> <Shape>
0.241

> <Color>
0.085

> <Negative vol penalty>
0.000

$$$$

  -OEChem-04052302513D

 86 95  0     1  0  0  0  0  0999 V2000
  -29.3204  -37.3620   22.2043 C   0  0  0  0  0  0  0  0  0  0  0  0
  -29.4742  -36.2720   21.3537 C   0  0  0  0  0  0  0  0  0  0  0  0
  -24.3533   -8.7085   20.1567 C   0  0  0  0  0  0  0  0  0  0  0  0
  -23.0591  -10.5162   21.1025 C   0  0  0  0  0  0  0  0  0  0  0  0
  -28.7412  -37.1882   23.4606 C   0  0  0  0  0  0  0  0  0  0  0  0
  -29.0500  -35.0071   21.7595 C   0  0  0  0  0  0  0  0  0  0  0  0
  -26.2858  -28.9394   19.1407 C   0  0  0  0  0  0  0  0  0  0  0  0
  -26.7334  -20.1605   17.5110 C   0  0  0  0  0  0  0  0  0  0  0  0
  -27.4915  -21.1136   18.1909 C   0  0  0  0  0  0  0  0  0  0  0  0
  -23.5720   -7.7855   20.8517 C   0  0  0  0  0  0  0  0  0  0  0  0
  -22.2777   -9.5931   21.7974 C   0  0  0  0  0  0  0  0  0  0  0  0
  -26.5129  -27.5638   19.1419 C   0  0  0  0  0  0  0  0  0  0  0  0
  -20.5198   -6.3655   20.5334 C   0  0  0  0  0  0  0  0  0  0  0  0
  -20.0710   -5.2426   19.8383 C   0  0  0  0  0  0  0  0  0  0  0  0
  -25.4540  -27.3971   21.3030 C   0  0  0  0  0  0  0  0  0  0  0  0
  -28.6944  -19.3499   19.3220 C   0  0  0  0  0  0  0  0  0  0  0  0
  -21.2364   -3.8116   21.3974 C   0  0  0  0  0  0  0  0  0  0  0  0
  -24.0970  -10.0739   20.2822 C   0  0  0  0  0  0  0  0  0  0  0  0
  -24.6718  -11.5376   18.2735 C   0  0  0  0  0  0  0  0  0  0  0  0
  -28.3009  -35.9223   23.8781 C   0  0  0  0  0  0  0  0  0  0  0  0
  -25.6498  -29.5568   20.2273 C   0  0  0  0  0  0  0  0  0  0  0  0
  -28.4657  -34.8159   23.0231 C   0  0  0  0  0  0  0  0  0  0  0  0
  -25.2178  -28.7803   21.3120 C   0  0  0  0  0  0  0  0  0  0  0  0
  -26.9557  -18.8020   17.7367 C   0  0  0  0  0  0  0  0  0  0  0  0
  -28.4721  -20.7084   19.0964 C   0  0  0  0  0  0  0  0  0  0  0  0
  -27.9362  -18.3968   18.6421 C   0  0  0  0  0  0  0  0  0  0  0  0
  -22.5341   -8.2277   21.6720 C   0  0  0  0  0  0  0  0  0  0  0  0
  -26.0996  -26.7929   20.2245 C   0  0  0  0  0  0  0  0  0  0  0  0
  -21.3271   -6.2115   21.6605 C   0  0  0  0  0  0  0  0  0  0  0  0
  -20.4292   -3.9657   20.2703 C   0  0  0  0  0  0  0  0  0  0  0  0
  -21.6853   -4.9345   22.0925 C   0  0  0  0  0  0  0  0  0  0  0  0
  -24.9042  -11.0280   19.5650 C   0  0  0  0  0  0  0  0  0  0  0  0
  -25.7160  -12.4020   18.0524 C   0  0  0  0  0  0  0  0  0  0  0  0
  -23.6072  -11.2549   17.3557 C   0  0  0  0  0  0  0  0  0  0  0  0
  -27.9925  -23.7032   20.1496 C   0  0  0  0  0  0  0  0  0  0  0  0
  -26.4803  -31.7736   22.3486 C   0  0  0  0  0  0  0  0  0  0  0  0
  -23.3766  -31.5122   23.2550 C   0  0  0  0  0  0  0  0  0  0  0  0
  -20.5430  -29.6140   23.3734 C   0  0  0  0  0  0  0  0  0  0  0  0
  -29.1163  -16.4692   19.7550 C   0  0  0  0  0  0  0  0  0  0  0  0
  -27.7241  -35.7750   25.2639 C   0  0  0  0  0  0  0  0  0  0  0  0
  -25.3883  -31.0378   20.1987 C   0  0  0  0  0  0  0  0  0  0  0  0
  -24.5124  -29.3918   22.4939 C   0  0  0  0  0  0  0  0  0  0  0  0
  -26.9593  -34.4700   25.4697 C   0  0  0  0  0  0  0  0  0  0  0  0
  -30.7161  -22.6541   21.2987 C   0  0  0  0  0  0  0  0  0  0  0  0
  -29.9908  -13.1389   20.6611 C   0  0  0  0  0  0  0  0  0  0  0  0
  -27.7597  -33.2908   24.9260 C   0  0  0  0  0  0  0  0  0  0  0  0
  -30.4762  -23.6175   20.1459 C   0  0  0  0  0  0  0  0  0  0  0  0
  -28.7263  -12.3347   20.3505 C   0  0  0  0  0  0  0  0  0  0  0  0
  -30.2686  -21.3091   20.7340 C   0  0  0  0  0  0  0  0  0  0  0  0
  -29.6604  -14.5271   21.2065 C   0  0  0  0  0  0  0  0  0  0  0  0
  -27.4761  -14.5128   20.0673 C   0  0  0  0  0  0  0  0  0  0  0  0
  -27.9954  -33.4327   23.4175 C   0  0  1  0  0  0  0  0  0  0  0  0
  -29.1934  -23.0903   19.4987 C   0  0  1  0  0  0  0  0  0  0  0  0
  -25.1918  -31.6368   21.5879 C   0  0  1  0  0  0  0  0  0  0  0  0
  -27.7579  -13.1313   19.4543 C   0  0  2  0  0  0  0  0  0  0  0  0
  -26.1285  -17.8033   16.9943 C   0  0  0  0  0  0  0  0  0  0  0  0
  -18.1780  -29.6551   24.2114 C   0  0  0  0  0  0  0  0  0  0  0  0
  -24.3776  -31.0273   26.0963 C   0  0  0  0  0  0  0  0  0  0  0  0
  -22.1043  -30.1509   26.6730 C   0  0  0  0  0  0  0  0  0  0  0  0
  -22.3762  -32.5184   25.9355 C   0  0  0  0  0  0  0  0  0  0  0  0
  -19.4468  -29.3163   20.6405 C   0  0  0  0  0  0  0  0  0  0  0  0
  -27.4689  -24.9787   19.5247 C   0  0  0  0  0  0  0  0  0  1  0  0
  -22.6196  -30.6569   24.2421 C   0  0  1  0  0  0  0  0  0  0  0  0
  -19.0990  -29.9374   23.0347 C   0  0  2  0  0  0  0  0  0  0  0  0
  -22.8844  -31.0768   25.7155 C   0  0  0  0  0  0  0  0  0  0  0  0
  -26.0094  -11.5269   20.1251 N   0  0  0  0  0  0  0  0  0  0  0  0
  -26.4808  -12.3590   19.1809 N   0  0  0  0  0  0  0  0  0  0  0  0
  -29.2228  -21.6528   19.7697 N   0  0  3  0  0  0  0  0  0  0  0  0
  -24.2856  -30.8447   22.4219 N   0  0  0  0  0  0  0  0  0  0  0  0
  -28.7422  -15.2243   20.3034 N   0  0  0  0  0  0  0  0  0  0  0  0
  -26.0456  -13.1870   17.0048 N   0  0  0  0  0  0  0  0  0  0  0  0
  -22.6164  -10.3422   17.7423 N   0  0  0  0  0  0  0  0  0  0  0  0
  -28.1770  -17.0217   18.8849 N   0  0  0  0  0  0  0  0  0  0  0  0
  -26.8005  -33.0754   22.6834 N   0  0  0  0  0  0  0  0  0  0  0  0
  -21.2170  -30.7203   23.8456 N   0  0  0  0  0  0  0  0  0  0  0  0
  -18.6435  -29.1202   21.8747 N   0  3  0  0  0  0  0  0  0  0  0  0
  -23.5455  -11.7833   16.2197 O   0  0  0  0  0  0  0  0  0  0  0  0
  -27.4691  -23.1896   21.1373 O   0  0  0  0  0  0  0  0  0  0  0  0
  -27.1347  -30.7720   22.6136 O   0  0  0  0  0  0  0  0  0  0  0  0
  -23.1640  -32.7267   23.2195 O   0  0  0  0  0  0  0  0  0  0  0  0
  -21.0239  -28.4912   23.2366 O   0  0  0  0  0  0  0  0  0  0  0  0
  -30.2026  -16.9929   20.0152 O   0  0  0  0  0  0  0  0  0  0  0  0
  -21.7713   -7.3273   22.3500 O   0  0  0  0  0  0  0  0  0  0  0  0
  -26.3206  -25.4501   20.2286 O   0  0  0  0  0  0  0  0  0  1  0  0
  -19.9968   -2.8874   19.6036 F   0  0  0  0  0  0  0  0  0  0  0  0
  -22.4596   -4.7802   23.1754 F   0  0  0  0  0  0  0  0  0  0  0  0
  1  2  1  0  0  0  0
  1  5  2  0  0  0  0
  2  6  2  0  0  0  0
  3 10  2  0  0  0  0
  3 18  1  0  0  0  0
  4 11  1  0  0  0  0
  4 18  2  0  0  0  0
  5 20  1  0  0  0  0
  6 22  1  0  0  0  0
  7 12  2  0  0  0  0
  7 21  1  0  0  0  0
  8  9  2  0  0  0  0
  8 24  1  0  0  0  0
  9 25  1  0  0  0  0
 10 27  1  0  0  0  0
 11 27  2  0  0  0  0
 12 28  1  0  0  0  0
 13 14  2  0  0  0  0
 13 29  1  0  0  0  0
 14 30  1  0  0  0  0
 15 23  1  0  0  0  0
 15 28  2  0  0  0  0
 16 25  2  0  0  0  0
 16 26  1  0  0  0  0
 17 30  2  0  0  0  0
 17 31  1  0  0  0  0
 18 32  1  0  0  0  0
 19 32  1  0  0  0  0
 19 33  2  0  0  0  0
 19 34  1  0  0  0  0
 20 22  2  0  0  0  0
 20 40  1  0  0  0  0
 21 23  2  0  0  0  0
 21 41  1  0  0  0  0
 22 52  1  0  0  0  0
 23 42  1  0  0  0  0
 24 26  2  0  0  0  0
 24 56  1  0  0  0  0
 25 68  1  0  0  0  0
 26 73  1  0  0  0  0
 27 83  1  0  0  0  0
 28 84  1  0  0  0  0
 29 31  2  0  0  0  0
 29 83  1  0  0  0  0
 30 85  1  0  0  0  0
 31 86  1  0  0  0  0
 32 66  2  0  0  0  0
 33 67  1  0  0  0  0
 33 71  1  0  0  0  0
 34 72  1  0  0  0  0
 34 77  2  0  0  0  0
 35 53  1  0  0  0  0
 35 62  1  0  0  0  0
 35 78  2  0  0  0  0
 36 54  1  0  0  0  0
 36 74  1  0  0  0  0
 36 79  2  0  0  0  0
 37 63  1  0  0  0  0
 37 69  1  0  0  0  0
 37 80  2  0  0  0  0
 38 64  1  0  0  0  0
 38 75  1  0  0  0  0
 38 81  2  0  0  0  0
 39 70  1  0  0  0  0
 39 73  1  0  0  0  0
 39 82  2  0  0  0  0
 40 43  1  0  0  0  0
 41 54  1  0  0  0  0
 42 69  1  0  0  0  0
 43 46  1  0  0  0  0
 44 47  1  0  0  0  0
 44 49  1  0  0  0  0
 45 48  1  0  0  0  0
 45 50  1  0  0  0  0
 46 52  1  0  0  0  0
 47 53  1  0  0  0  0
 48 55  1  0  0  0  0
 49 68  1  0  0  0  0
 50 70  1  0  0  0  0
 51 55  1  0  0  0  0
 51 70  1  0  0  0  0
 52 74  1  0  0  0  0
 53 68  1  0  0  0  0
 54 69  1  0  0  0  0
 55 67  1  0  0  0  0
 57 64  1  0  0  0  0
 58 65  1  0  0  0  0
 59 65  1  0  0  0  0
 60 65  1  0  0  0  0
 61 76  1  0  0  0  0
 62 84  1  0  0  0  0
 63 65  1  0  0  0  0
 63 75  1  0  0  0  0
 64 76  1  0  0  0  0
 66 67  1  0  0  0  0
M  CHG  1  76   1
M  ISO  4  39 100  62 101  73 100  84 101
M  END
> <Batch ID>
0140

> <Smiles>
CNC(C)C(=O)NC(C(=O)N1Cc2cc([101O:1][101CH2:1]C(=O)C3CCCN3c3ccc(C)c([100NH:0][100C:0](=O)N4CCCC(n5nc(-c6ccc(Oc7ccc(F)cc7F)cc6)c(C(N)=O)c5N)C4)c3)ccc2CC1C(=O)NC1CCCc2ccccc21)C(C)(C)C

> <Shape>
0.298

> <Color>
0.100

> <Negative vol penalty>
0.000

$$$$

  -OEChem-04052302513D

 88 96  0     1  0  0  0  0  0999 V2000
  -32.2842  -25.3760   15.5972 C   0  0  0  0  0  0  0  0  0  0  0  0
  -30.9342  -25.5285   15.2981 C   0  0  0  0  0  0  0  0  0  0  0  0
  -27.9454  -12.9140   22.6866 C   0  0  0  0  0  0  0  0  0  0  0  0
  -26.9280  -13.2340   20.5187 C   0  0  0  0  0  0  0  0  0  0  0  0
  -32.6876  -25.1899   16.9188 C   0  0  0  0  0  0  0  0  0  0  0  0
  -29.9865  -25.4938   16.3204 C   0  0  0  0  0  0  0  0  0  0  0  0
  -23.6606  -28.3030   18.1666 C   0  0  0  0  0  0  0  0  0  0  0  0
  -23.3496  -20.9914   17.2299 C   0  0  0  0  0  0  0  0  0  0  0  0
  -24.4041  -20.5564   18.0326 C   0  0  0  0  0  0  0  0  0  0  0  0
  -27.3066  -11.6796   22.8042 C   0  0  0  0  0  0  0  0  0  0  0  0
  -26.2892  -11.9996   20.6363 C   0  0  0  0  0  0  0  0  0  0  0  0
  -22.3886  -27.9119   18.5824 C   0  0  0  0  0  0  0  0  0  0  0  0
  -24.1059   -9.0961   20.5217 C   0  0  0  0  0  0  0  0  0  0  0  0
  -22.7581   -9.0275   20.1693 C   0  0  0  0  0  0  0  0  0  0  0  0
  -23.2086  -27.6637   20.8374 C   0  0  0  0  0  0  0  0  0  0  0  0
  -23.7448  -22.1244   19.7484 C   0  0  0  0  0  0  0  0  0  0  0  0
  -22.2315  -10.6671   21.8639 C   0  0  0  0  0  0  0  0  0  0  0  0
  -27.7561  -13.6912   21.5438 C   0  0  0  0  0  0  0  0  0  0  0  0
  -29.6829  -15.2186   20.8640 C   0  0  0  0  0  0  0  0  0  0  0  0
  -31.7452  -25.1625   17.9589 C   0  0  0  0  0  0  0  0  0  0  0  0
  -24.7205  -28.3669   19.0826 C   0  0  0  0  0  0  0  0  0  0  0  0
  -30.3775  -25.3057   17.6570 C   0  0  0  0  0  0  0  0  0  0  0  0
  -24.4925  -28.0583   20.4313 C   0  0  0  0  0  0  0  0  0  0  0  0
  -22.4927  -21.9930   17.6863 C   0  0  0  0  0  0  0  0  0  0  0  0
  -22.6903  -22.5595   18.9456 C   0  0  0  0  0  0  0  0  0  0  0  0
  -24.6017  -21.1229   19.2919 C   0  0  0  0  0  0  0  0  0  0  0  0
  -26.4785  -11.2224   21.7791 C   0  0  0  0  0  0  0  0  0  0  0  0
  -22.1631  -27.5894   19.9174 C   0  0  0  0  0  0  0  0  0  0  0  0
  -24.5166   -9.9502   21.5452 C   0  0  0  0  0  0  0  0  0  0  0  0
  -21.8209   -9.8130   20.8404 C   0  0  0  0  0  0  0  0  0  0  0  0
  -23.5794  -10.7357   22.2163 C   0  0  0  0  0  0  0  0  0  0  0  0
  -28.4152  -14.9667   21.4220 C   0  0  0  0  0  0  0  0  0  0  0  0
  -29.8480  -16.5766   20.9861 C   0  0  0  0  0  0  0  0  0  0  0  0
  -30.6267  -14.3065   20.2870 C   0  0  0  0  0  0  0  0  0  0  0  0
  -27.5191  -26.8898   19.3815 C   0  0  0  0  0  0  0  0  0  0  0  0
  -27.9336  -29.0017   21.8085 C   0  0  0  0  0  0  0  0  0  0  0  0
  -26.5152  -31.0567   24.1348 C   0  0  0  0  0  0  0  0  0  0  0  0
  -26.0069  -21.1366   21.3827 C   0  0  0  0  0  0  0  0  0  0  0  0
  -32.2248  -24.9114   19.3666 C   0  0  0  0  0  0  0  0  0  0  0  0
  -26.0805  -28.8163   18.6234 C   0  0  0  0  0  0  0  0  0  0  0  0
  -25.5919  -28.1306   21.4582 C   0  0  0  0  0  0  0  0  0  0  0  0
  -31.1911  -25.2615   20.4339 C   0  0  0  0  0  0  0  0  0  0  0  0
  -28.5406  -20.2762   23.7316 C   0  0  0  0  0  0  0  0  0  0  0  0
  -29.8245  -24.6970   20.0590 C   0  0  0  0  0  0  0  0  0  0  0  0
  -28.9156  -18.8421   23.3513 C   0  0  0  0  0  0  0  0  0  0  0  0
  -27.0451  -20.5361   23.5590 C   0  0  0  0  0  0  0  0  0  0  0  0
  -26.8799  -18.7639   21.8557 C   0  0  0  0  0  0  0  0  0  0  0  0
  -29.3216  -25.2986   18.7412 C   0  0  1  0  0  0  0  0  0  0  0  0
  -27.2056  -28.3504   19.5424 C   0  0  1  0  0  0  0  0  0  0  0  0
  -28.3866  -18.4736   21.9513 C   0  0  2  0  0  0  0  0  0  0  0  0
  -21.3711  -22.4428   16.8087 C   0  0  0  0  0  0  0  0  0  0  0  0
  -18.6180  -21.6206   20.7600 C   0  0  0  0  0  0  0  0  0  0  0  0
  -27.1093  -32.6246   26.0019 C   0  0  0  0  0  0  0  0  0  0  0  0
  -28.5497  -26.6180   23.6109 C   0  0  0  0  0  0  0  0  0  0  0  0
  -28.1948  -28.1110   25.5891 C   0  0  0  0  0  0  0  0  0  0  0  0
  -30.0256  -28.6051   23.9683 C   0  0  0  0  0  0  0  0  0  0  0  0
  -18.3026  -24.8458   18.9610 C   0  0  0  0  0  0  0  0  0  0  0  0
  -18.1809  -26.3303   20.9505 C   0  0  0  0  0  0  0  0  0  0  0  0
  -21.3423  -22.6339   21.7523 C   0  0  0  0  0  0  0  0  0  0  0  0
  -25.2398  -33.3517   22.7688 C   0  0  0  0  0  0  0  0  0  0  0  0
  -21.7719  -23.6463   19.4630 C   0  0  0  0  0  0  0  0  0  0  0  0
  -19.7418  -22.1457   19.8717 C   0  0  0  0  0  0  0  0  0  0  0  0
  -19.8863  -24.5071   20.9950 C   0  0  0  0  0  0  0  0  0  0  0  0
  -20.1026  -26.5341   19.3725 C   0  0  0  0  0  0  0  0  0  1  0  0
  -27.6244  -29.0064   23.2861 C   0  0  1  0  0  0  0  0  0  0  0  0
  -26.8054  -32.4969   24.5173 C   0  0  2  0  0  0  0  0  0  0  0  0
  -28.5781  -28.0818   24.0941 C   0  0  0  0  0  0  0  0  0  0  0  0
  -19.1499  -25.5172   20.0493 C   0  0  0  0  0  0  0  0  0  0  0  0
  -20.6685  -23.2388   20.4881 C   0  0  1  0  0  0  0  0  0  0  0  0
  -27.8175  -16.0757   21.8657 N   0  0  0  0  0  0  0  0  0  0  0  0
  -28.7136  -17.0376   21.5867 N   0  0  0  0  0  0  0  0  0  0  0  0
  -26.9056  -28.5692   20.9588 N   0  0  0  0  0  0  0  0  0  0  0  0
  -26.6164  -20.1680   22.2079 N   0  0  0  0  0  0  0  0  0  0  0  0
  -30.8516  -17.4095   20.6373 N   0  0  0  0  0  0  0  0  0  0  0  0
  -30.2979  -12.9449   20.2411 N   0  0  0  0  0  0  0  0  0  0  0  0
  -25.6716  -20.6799   20.1085 N   0  0  0  0  0  0  0  0  0  0  0  0
  -28.8096  -26.6347   18.9584 N   0  0  0  0  0  0  0  0  0  0  0  0
  -27.6508  -30.4039   23.7042 N   0  0  0  0  0  0  0  0  0  0  0  0
  -25.6345  -33.3628   24.2010 N   0  3  0  0  0  0  0  0  0  0  0  0
  -31.7360  -14.6856   19.8405 O   0  0  0  0  0  0  0  0  0  0  0  0
  -26.6548  -26.0559   19.6247 O   0  0  0  0  0  0  0  0  0  0  0  0
  -29.0440  -29.3750   21.4218 O   0  0  0  0  0  0  0  0  0  0  0  0
  -25.3940  -30.5595   24.2138 O   0  0  0  0  0  0  0  0  0  0  0  0
  -25.8226  -22.2941   21.7678 O   0  0  0  0  0  0  0  0  0  0  0  0
  -25.8552  -10.0178   21.8934 O   0  0  0  0  0  0  0  0  0  0  0  0
  -20.9138  -27.2041   20.3286 O   0  0  0  0  0  0  0  0  0  1  0  0
  -20.5268   -9.7481   20.5008 F   0  0  0  0  0  0  0  0  0  0  0  0
  -23.9681  -11.5590   23.1996 F   0  0  0  0  0  0  0  0  0  0  0  0
  1  2  1  0  0  0  0
  1  5  2  0  0  0  0
  2  6  2  0  0  0  0
  3 10  2  0  0  0  0
  3 18  1  0  0  0  0
  4 11  1  0  0  0  0
  4 18  2  0  0  0  0
  5 20  1  0  0  0  0
  6 22  1  0  0  0  0
  7 12  2  0  0  0  0
  7 21  1  0  0  0  0
  8  9  2  0  0  0  0
  8 24  1  0  0  0  0
  9 26  1  0  0  0  0
 10 27  1  0  0  0  0
 11 27  2  0  0  0  0
 12 28  1  0  0  0  0
 13 14  2  0  0  0  0
 13 29  1  0  0  0  0
 14 30  1  0  0  0  0
 15 23  1  0  0  0  0
 15 28  2  0  0  0  0
 16 25  1  0  0  0  0
 16 26  2  0  0  0  0
 17 30  2  0  0  0  0
 17 31  1  0  0  0  0
 18 32  1  0  0  0  0
 19 32  1  0  0  0  0
 19 33  2  0  0  0  0
 19 34  1  0  0  0  0
 20 22  2  0  0  0  0
 20 39  1  0  0  0  0
 21 23  2  0  0  0  0
 21 40  1  0  0  0  0
 22 48  1  0  0  0  0
 23 41  1  0  0  0  0
 24 25  2  0  0  0  0
 24 51  1  0  0  0  0
 25 61  1  0  0  0  0
 26 76  1  0  0  0  0
 27 85  1  0  0  0  0
 28 86  1  0  0  0  0
 29 31  2  0  0  0  0
 29 85  1  0  0  0  0
 30 87  1  0  0  0  0
 31 88  1  0  0  0  0
 32 70  2  0  0  0  0
 33 71  1  0  0  0  0
 33 74  1  0  0  0  0
 34 75  1  0  0  0  0
 34 80  2  0  0  0  0
 35 49  1  0  0  0  0
 35 77  1  0  0  0  0
 35 81  2  0  0  0  0
 36 65  1  0  0  0  0
 36 72  1  0  0  0  0
 36 82  2  0  0  0  0
 37 66  1  0  0  0  0
 37 78  1  0  0  0  0
 37 83  2  0  0  0  0
 38 73  1  0  0  0  0
 38 76  1  0  0  0  0
 38 84  2  0  0  0  0
 39 42  1  0  0  0  0
 40 49  1  0  0  0  0
 41 72  1  0  0  0  0
 42 44  1  0  0  0  0
 43 45  1  0  0  0  0
 43 46  1  0  0  0  0
 44 48  1  0  0  0  0
 45 50  1  0  0  0  0
 46 73  1  0  0  0  0
 47 50  1  0  0  0  0
 47 73  1  0  0  0  0
 48 77  1  0  0  0  0
 49 72  1  0  0  0  0
 50 71  1  0  0  0  0
 52 62  1  0  0  0  0
 53 66  1  0  0  0  0
 54 67  1  0  0  0  0
 55 67  1  0  0  0  0
 56 67  1  0  0  0  0
 57 68  1  0  0  0  0
 58 68  1  0  0  0  0
 59 69  1  0  0  0  0
 60 79  1  0  0  0  0
 61 69  1  0  0  0  0
 62 69  1  0  0  0  0
 63 68  1  0  0  0  0
 63 69  1  0  0  0  0
 64 68  1  0  0  0  0
 64 86  1  0  0  0  0
 65 67  1  0  0  0  0
 65 78  1  0  0  0  0
 66 79  1  0  0  0  0
 70 71  1  0  0  0  0
M  CHG  1  79   1
M  ISO  4  38 100  64 101  76 100  86 101
M  END
> <Batch ID>
0140

> <Smiles>
CCC(C)(Cc1cc([100NH:0][100C:0](=O)N2CCCC(n3nc(-c4ccc(Oc5ccc(F)cc5F)cc4)c(C(N)=O)c3N)C2)ccc1C)CC(C)(C)[101CH2:1][101O:1]c1ccc2c(c1)CN(C(=O)C(NC(=O)C(C)NC)C(C)(C)C)C(C(=O)NC1CCCc3ccccc31)C2

> <Shape>
0.237

> <Color>
0.065

> <Negative vol penalty>
0.000

$$$$

  -OEChem-04052302513D

 88 96  0     1  0  0  0  0  0999 V2000
  -24.0430  -19.8059   18.1305 C   0  0  0  0  0  0  0  0  0  0  0  0
  -23.6430  -21.1132   18.3883 C   0  0  0  0  0  0  0  0  0  0  0  0
  -24.5487  -14.4203   23.1639 C   0  0  0  0  0  0  0  0  0  0  0  0
  -25.2938  -15.8820   21.3904 C   0  0  0  0  0  0  0  0  0  0  0  0
  -25.2141  -19.3109   18.7025 C   0  0  0  0  0  0  0  0  0  0  0  0
  -24.4134  -21.9258   19.2192 C   0  0  0  0  0  0  0  0  0  0  0  0
  -25.2713  -27.9668   18.6938 C   0  0  0  0  0  0  0  0  0  0  0  0
  -25.0986  -13.3273   22.4942 C   0  0  0  0  0  0  0  0  0  0  0  0
  -25.8438  -14.7890   20.7206 C   0  0  0  0  0  0  0  0  0  0  0  0
  -24.6790  -29.0571   19.3295 C   0  0  0  0  0  0  0  0  0  0  0  0
  -27.7596  -12.4354   18.7185 C   0  0  0  0  0  0  0  0  0  0  0  0
  -29.0400  -12.5785   18.1842 C   0  0  0  0  0  0  0  0  0  0  0  0
  -26.5018  -29.1192   20.9083 C   0  0  0  0  0  0  0  0  0  0  0  0
  -22.0823  -26.3500   23.9585 C   0  0  0  0  0  0  0  0  0  0  0  0
  -20.6048  -26.2445   22.0499 C   0  0  0  0  0  0  0  0  0  0  0  0
  -29.9112  -13.0280   20.3924 C   0  0  0  0  0  0  0  0  0  0  0  0
  -24.6462  -15.6976   22.6120 C   0  0  0  0  0  0  0  0  0  0  0  0
  -24.7136  -17.6521   24.2500 C   0  0  0  0  0  0  0  0  0  0  0  0
  -26.0044  -20.1209   19.5331 C   0  0  0  0  0  0  0  0  0  0  0  0
  -26.4799  -27.4368   19.1679 C   0  0  0  0  0  0  0  0  0  0  0  0
  -25.5955  -21.4407   19.8040 C   0  0  0  0  0  0  0  0  0  0  0  0
  -27.1087  -28.0238   20.2752 C   0  0  0  0  0  0  0  0  0  0  0  0
  -21.8855  -24.9880   24.1862 C   0  0  0  0  0  0  0  0  0  0  0  0
  -21.4419  -26.9783   22.8904 C   0  0  0  0  0  0  0  0  0  0  0  0
  -21.0483  -24.2543   23.3458 C   0  0  0  0  0  0  0  0  0  0  0  0
  -25.7462  -13.5117   21.2726 C   0  0  0  0  0  0  0  0  0  0  0  0
  -25.2927  -29.6317   20.4387 C   0  0  0  0  0  0  0  0  0  0  0  0
  -27.5549  -12.5886   20.0898 C   0  0  0  0  0  0  0  0  0  0  0  0
  -30.1159  -12.8748   19.0211 C   0  0  0  0  0  0  0  0  0  0  0  0
  -20.4079  -24.8825   22.2776 C   0  0  0  0  0  0  0  0  0  0  0  0
  -28.6307  -12.8849   20.9267 C   0  0  0  0  0  0  0  0  0  0  0  0
  -24.0778  -16.8270   23.3030 C   0  0  0  0  0  0  0  0  0  0  0  0
  -23.7556  -18.5707   24.6033 C   0  0  0  0  0  0  0  0  0  0  0  0
  -26.0508  -17.5936   24.7641 C   0  0  0  0  0  0  0  0  0  0  0  0
  -27.3897  -24.6260   20.3407 C   0  0  0  0  0  0  0  0  0  0  0  0
  -22.4629  -30.5938   22.9585 C   0  0  0  0  0  0  0  0  0  0  0  0
  -30.3379  -25.9746   20.2334 C   0  0  0  0  0  0  0  0  0  0  0  0
  -32.2235  -28.8190   20.2074 C   0  0  0  0  0  0  0  0  0  0  0  0
  -19.6924  -22.1328   23.2600 C   0  0  0  0  0  0  0  0  0  0  0  0
  -27.2373  -19.5265   20.1667 C   0  0  0  0  0  0  0  0  0  0  0  0
  -27.1195  -26.2772   18.4548 C   0  0  0  0  0  0  0  0  0  0  0  0
  -28.4172  -27.5051   20.8113 C   0  0  0  0  0  0  0  0  0  0  0  0
  -28.1940  -20.5714   20.7351 C   0  0  0  0  0  0  0  0  0  0  0  0
  -18.7946  -18.7049   23.6070 C   0  0  0  0  0  0  0  0  0  0  0  0
  -27.4287  -21.6074   21.5525 C   0  0  0  0  0  0  0  0  0  0  0  0
  -20.1414  -17.9786   23.6368 C   0  0  0  0  0  0  0  0  0  0  0  0
  -18.8115  -19.8920   22.6456 C   0  0  0  0  0  0  0  0  0  0  0  0
  -21.2523  -20.1218   22.8885 C   0  0  0  0  0  0  0  0  0  0  0  0
  -26.4175  -22.3609   20.6802 C   0  0  1  0  0  0  0  0  0  0  0  0
  -28.0898  -25.4959   19.3353 C   0  0  1  0  0  0  0  0  0  0  0  0
  -21.3041  -18.9577   23.8915 C   0  0  2  0  0  0  0  0  0  0  0  0
  -21.6469  -24.1040   26.5203 C   0  0  0  0  0  0  0  0  0  0  0  0
  -34.6071  -29.6018   20.1534 C   0  0  0  0  0  0  0  0  0  0  0  0
  -24.0141  -31.6023   24.6661 C   0  0  0  0  0  0  0  0  0  0  0  0
  -23.4606  -32.8543   22.5750 C   0  0  0  0  0  0  0  0  0  0  0  0
  -30.6418  -25.2448   23.1804 C   0  0  0  0  0  0  0  0  0  0  0  0
  -32.5617  -26.8468   23.3073 C   0  0  0  0  0  0  0  0  0  0  0  0
  -32.6896  -24.8666   21.7955 C   0  0  0  0  0  0  0  0  0  0  0  0
  -31.8206  -30.2396   17.6425 C   0  0  0  0  0  0  0  0  0  0  0  0
  -22.5826  -24.3419   25.3393 C   0  0  0  0  0  0  0  0  0  0  0  0
  -22.4847  -29.1666   23.4816 C   0  0  0  0  0  0  0  0  0  0  0  0
  -24.9529  -30.8347   22.4618 C   0  0  0  0  0  0  0  0  0  1  0  0
  -31.1733  -26.7956   21.1858 C   0  0  1  0  0  0  0  0  0  0  0  0
  -33.3804  -29.2526   19.3252 C   0  0  2  0  0  0  0  0  0  0  0  0
  -23.7297  -31.4591   23.1580 C   0  0  0  0  0  0  0  0  0  0  0  0
  -31.7409  -25.9472   22.3586 C   0  0  0  0  0  0  0  0  0  0  0  0
  -22.8136  -17.1892   23.0697 N   0  0  0  0  0  0  0  0  0  0  0  0
  -22.6472  -18.2521   23.8752 N   0  0  0  0  0  0  0  0  0  0  0  0
  -28.9998  -26.3656   20.0835 N   0  0  0  0  0  0  0  0  0  0  0  0
  -19.9370  -20.7783   22.9498 N   0  0  0  0  0  0  0  0  0  0  0  0
  -23.7615  -19.6116   25.4628 N   0  0  0  0  0  0  0  0  0  0  0  0
  -26.9041  -16.5863   24.2935 N   0  0  0  0  0  0  0  0  0  0  0  0
  -20.8362  -22.8704   23.5638 N   0  0  0  0  0  0  0  0  0  0  0  0
  -21.6377  -28.3319   22.6644 N   0  0  0  0  0  0  0  0  0  0  0  0
  -27.0888  -23.3597   19.8763 N   0  0  0  0  0  0  0  0  0  0  0  0
  -32.1931  -27.4505   20.3738 N   0  0  0  0  0  0  0  0  0  0  0  0
  -32.9993  -30.4487   18.5221 N   0  3  0  0  0  0  0  0  0  0  0  0
  -26.4711  -18.4003   25.6279 O   0  0  0  0  0  0  0  0  0  0  0  0
  -27.1421  -25.0702   21.4556 O   0  0  0  0  0  0  0  0  0  0  0  0
  -21.4701  -31.0419   22.3789 O   0  0  0  0  0  0  0  0  0  0  0  0
  -30.8555  -25.0258   19.6388 O   0  0  0  0  0  0  0  0  0  0  0  0
  -31.4287  -29.6150   20.7026 O   0  0  0  0  0  0  0  0  0  0  0  0
  -18.5497  -22.5972   23.2829 O   0  0  0  0  0  0  0  0  0  0  0  0
  -26.2832  -12.4454   20.6189 O   0  0  0  0  0  0  0  0  0  0  0  0
  -24.7164  -30.6956   21.0614 O   0  0  0  0  0  0  0  0  0  1  0  0
  -31.3457  -13.0108   18.5080 F   0  0  0  0  0  0  0  0  0  0  0  0
  -19.6000  -24.1882   21.4634 F   0  0  0  0  0  0  0  0  0  0  0  0
  -28.4405  -13.0321   22.2450 F   0  0  0  0  0  0  0  0  0  0  0  0
  1  2  1  0  0  0  0
  1  5  2  0  0  0  0
  2  6  2  0  0  0  0
  3  8  2  0  0  0  0
  3 17  1  0  0  0  0
  4  9  1  0  0  0  0
  4 17  2  0  0  0  0
  5 19  1  0  0  0  0
  6 21  1  0  0  0  0
  7 10  2  0  0  0  0
  7 20  1  0  0  0  0
  8 26  1  0  0  0  0
  9 26  2  0  0  0  0
 10 27  1  0  0  0  0
 11 12  2  0  0  0  0
 11 28  1  0  0  0  0
 12 29  1  0  0  0  0
 13 22  1  0  0  0  0
 13 27  2  0  0  0  0
 14 23  1  0  0  0  0
 14 24  2  0  0  0  0
 15 24  1  0  0  0  0
 15 30  2  0  0  0  0
 16 29  2  0  0  0  0
 16 31  1  0  0  0  0
 17 32  1  0  0  0  0
 18 32  1  0  0  0  0
 18 33  2  0  0  0  0
 18 34  1  0  0  0  0
 19 21  2  0  0  0  0
 19 40  1  0  0  0  0
 20 22  2  0  0  0  0
 20 41  1  0  0  0  0
 21 49  1  0  0  0  0
 22 42  1  0  0  0  0
 23 25  2  0  0  0  0
 23 60  1  0  0  0  0
 24 74  1  0  0  0  0
 25 30  1  0  0  0  0
 25 73  1  0  0  0  0
 26 84  1  0  0  0  0
 27 85  1  0  0  0  0
 28 31  2  0  0  0  0
 28 84  1  0  0  0  0
 29 86  1  0  0  0  0
 30 87  1  0  0  0  0
 31 88  1  0  0  0  0
 32 67  2  0  0  0  0
 33 68  1  0  0  0  0
 33 71  1  0  0  0  0
 34 72  1  0  0  0  0
 34 78  2  0  0  0  0
 35 50  1  0  0  0  0
 35 75  1  0  0  0  0
 35 79  2  0  0  0  0
 36 61  1  0  0  0  0
 36 65  1  0  0  0  0
 36 80  2  0  0  0  0
 37 63  1  0  0  0  0
 37 69  1  0  0  0  0
 37 81  2  0  0  0  0
 38 64  1  0  0  0  0
 38 76  1  0  0  0  0
 38 82  2  0  0  0  0
 39 70  1  0  0  0  0
 39 73  1  0  0  0  0
 39 83  2  0  0  0  0
 40 43  1  0  0  0  0
 41 50  1  0  0  0  0
 42 69  1  0  0  0  0
 43 45  1  0  0  0  0
 44 46  1  0  0  0  0
 44 47  1  0  0  0  0
 45 49  1  0  0  0  0
 46 51  1  0  0  0  0
 47 70  1  0  0  0  0
 48 51  1  0  0  0  0
 48 70  1  0  0  0  0
 49 75  1  0  0  0  0
 50 69  1  0  0  0  0
 51 68  1  0  0  0  0
 52 60  1  0  0  0  0
 53 64  1  0  0  0  0
 54 65  1  0  0  0  0
 55 65  1  0  0  0  0
 56 66  1  0  0  0  0
 57 66  1  0  0  0  0
 58 66  1  0  0  0  0
 59 77  1  0  0  0  0
 61 74  1  0  0  0  0
 62 65  1  0  0  0  0
 62 85  1  0  0  0  0
 63 66  1  0  0  0  0
 63 76  1  0  0  0  0
 64 77  1  0  0  0  0
 67 68  1  0  0  0  0
M  CHG  1  77   1
M  ISO  4  39 100  62 101  73 100  85 101
M  END
> <Batch ID>
0140

> <Smiles>
CCc1cc(NCC(=O)C(C)(C)[101CH2:1][101O:1]c2ccc3c(c2)CN(C(=O)C(NC(=O)C(C)NC)C(C)(C)C)C(C(=O)NC2CCCc4ccccc42)C3)cc(F)c1[100NH:0][100C:0](=O)N1CCCC(n2nc(-c3ccc(Oc4ccc(F)cc4F)cc3)c(C(N)=O)c2N)C1

> <Shape>
0.212

> <Color>
0.063

> <Negative vol penalty>
0.000

$$$$

  -OEChem-04052302513D

 87 95  0     1  0  0  0  0  0999 V2000
  -30.8855  -33.6649   25.2869 C   0  0  0  0  0  0  0  0  0  0  0  0
  -30.8209  -33.2922   23.9481 C   0  0  0  0  0  0  0  0  0  0  0  0
  -26.6874  -12.5024   21.8384 C   0  0  0  0  0  0  0  0  0  0  0  0
  -25.9536  -14.0797   20.1618 C   0  0  0  0  0  0  0  0  0  0  0  0
  -30.1269  -32.9821   26.2368 C   0  0  0  0  0  0  0  0  0  0  0  0
  -29.9984  -32.2356   23.5586 C   0  0  0  0  0  0  0  0  0  0  0  0
  -25.9386  -30.0488   18.0766 C   0  0  0  0  0  0  0  0  0  0  0  0
  -25.4144  -11.9326   21.8595 C   0  0  0  0  0  0  0  0  0  0  0  0
  -24.6806  -13.5099   20.1830 C   0  0  0  0  0  0  0  0  0  0  0  0
  -25.7525  -28.9430   17.2481 C   0  0  0  0  0  0  0  0  0  0  0  0
  -23.6184   -9.7773   19.9723 C   0  0  0  0  0  0  0  0  0  0  0  0
  -23.5309   -8.3853   19.9573 C   0  0  0  0  0  0  0  0  0  0  0  0
  -24.4268  -27.8874   18.9650 C   0  0  0  0  0  0  0  0  0  0  0  0
  -28.0196  -24.0772   20.6355 C   0  0  0  0  0  0  0  0  0  0  0  0
  -29.2131  -22.7293   22.2466 C   0  0  0  0  0  0  0  0  0  0  0  0
  -28.5690  -21.7818   20.1195 C   0  0  0  0  0  0  0  0  0  0  0  0
  -22.3702   -8.4354   22.0757 C   0  0  0  0  0  0  0  0  0  0  0  0
  -26.9570  -13.5760   20.9896 C   0  0  0  0  0  0  0  0  0  0  0  0
  -29.3547  -13.7974   20.1471 C   0  0  0  0  0  0  0  0  0  0  0  0
  -29.2874  -31.9229   25.8573 C   0  0  0  0  0  0  0  0  0  0  0  0
  -25.3784  -30.0775   19.3618 C   0  0  0  0  0  0  0  0  0  0  0  0
  -29.2290  -31.5371   24.5045 C   0  0  0  0  0  0  0  0  0  0  0  0
  -24.6051  -28.9958   19.8068 C   0  0  0  0  0  0  0  0  0  0  0  0
  -28.6321  -23.9437   21.8815 C   0  0  0  0  0  0  0  0  0  0  0  0
  -27.9880  -22.9962   19.7545 C   0  0  0  0  0  0  0  0  0  0  0  0
  -29.1815  -21.6483   21.3656 C   0  0  0  0  0  0  0  0  0  0  0  0
  -24.4110  -12.4363   21.0318 C   0  0  0  0  0  0  0  0  0  0  0  0
  -24.9989  -27.8609   17.6933 C   0  0  0  0  0  0  0  0  0  0  0  0
  -23.0819  -10.4984   21.0390 C   0  0  0  0  0  0  0  0  0  0  0  0
  -22.9068   -7.7144   21.0090 C   0  0  0  0  0  0  0  0  0  0  0  0
  -22.4578   -9.8275   22.0907 C   0  0  0  0  0  0  0  0  0  0  0  0
  -28.2716  -14.1654   20.9677 C   0  0  0  0  0  0  0  0  0  0  0  0
  -30.3659  -14.6536   20.5088 C   0  0  0  0  0  0  0  0  0  0  0  0
  -29.4391  -12.7732   19.1473 C   0  0  0  0  0  0  0  0  0  0  0  0
  -26.5443  -30.2543   22.3136 C   0  0  0  0  0  0  0  0  0  0  0  0
  -25.1561  -24.3991   16.6218 C   0  0  0  0  0  0  0  0  0  0  0  0
  -23.4109  -30.4894   23.1191 C   0  0  0  0  0  0  0  0  0  0  0  0
  -20.1556  -29.8681   22.3045 C   0  0  0  0  0  0  0  0  0  0  0  0
  -30.4195  -20.1143   22.9342 C   0  0  0  0  0  0  0  0  0  0  0  0
  -28.5224  -31.1841   26.9267 C   0  0  0  0  0  0  0  0  0  0  0  0
  -25.5661  -31.2891   20.2332 C   0  0  0  0  0  0  0  0  0  0  0  0
  -23.9654  -28.9860   21.1703 C   0  0  0  0  0  0  0  0  0  0  0  0
  -27.3906  -30.3189   26.3783 C   0  0  0  0  0  0  0  0  0  0  0  0
  -31.9710  -17.1883   24.2414 C   0  0  0  0  0  0  0  0  0  0  0  0
  -27.8742  -29.5007   25.1851 C   0  0  0  0  0  0  0  0  0  0  0  0
  -31.3013  -16.0480   23.4712 C   0  0  0  0  0  0  0  0  0  0  0  0
  -30.9888  -18.3163   24.5523 C   0  0  0  0  0  0  0  0  0  0  0  0
  -29.5884  -17.7004   22.6213 C   0  0  0  0  0  0  0  0  0  0  0  0
  -28.3298  -30.4123   24.0393 C   0  0  1  0  0  0  0  0  0  0  0  0
  -25.3789  -30.9922   21.7178 C   0  0  1  0  0  0  0  0  0  0  0  0
  -30.5536  -16.5700   22.2287 C   0  0  2  0  0  0  0  0  0  0  0  0
  -27.4517  -25.1303   23.7484 C   0  0  0  0  0  0  0  0  0  0  0  0
  -17.8193  -30.1423   23.1787 C   0  0  0  0  0  0  0  0  0  0  0  0
  -25.6197  -21.9827   16.0680 C   0  0  0  0  0  0  0  0  0  0  0  0
  -23.5854  -22.5946   17.3635 C   0  0  0  0  0  0  0  0  0  0  0  0
  -23.8594  -28.1621   25.0408 C   0  0  0  0  0  0  0  0  0  0  0  0
  -21.3756  -27.8697   25.1561 C   0  0  0  0  0  0  0  0  0  0  0  0
  -22.4171  -29.9958   25.9418 C   0  0  0  0  0  0  0  0  0  0  0  0
  -19.3748  -31.5730   20.0149 C   0  0  0  0  0  0  0  0  0  0  0  0
  -28.6657  -25.0996   22.8235 C   0  0  0  0  0  0  0  0  0  0  0  0
  -27.3255  -23.1408   18.4065 C   0  0  0  0  0  0  0  0  0  0  0  0
  -24.6508  -25.5143   17.5248 C   0  0  0  0  0  0  0  0  0  1  0  0
  -25.8369  -22.7700   18.4709 C   0  0  0  0  0  0  0  0  0  0  0  0
  -22.3189  -29.5056   23.4635 C   0  0  1  0  0  0  0  0  0  0  0  0
  -18.9237  -30.7547   22.3312 C   0  0  2  0  0  0  0  0  0  0  0  0
  -25.0673  -22.9445   17.1381 C   0  0  0  0  0  0  0  0  0  0  0  0
  -22.5063  -28.8823   24.8755 C   0  0  0  0  0  0  0  0  0  0  0  0
  -28.5672  -15.1765   21.7888 N   0  0  0  0  0  0  0  0  0  0  0  0
  -29.8474  -15.4511   21.4861 N   0  0  0  0  0  0  0  0  0  0  0  0
  -24.1832  -30.1911   21.9876 N   0  0  0  0  0  0  0  0  0  0  0  0
  -30.3213  -18.7629   23.3276 N   0  0  0  0  0  0  0  0  0  0  0  0
  -31.6392  -14.7944   20.0829 N   0  0  0  0  0  0  0  0  0  0  0  0
  -28.3069  -11.9843   18.9017 N   0  0  0  0  0  0  0  0  0  0  0  0
  -29.7718  -20.4146   21.7363 N   0  0  0  0  0  0  0  0  0  0  0  0
  -27.1853  -30.9400   23.3277 N   0  0  0  0  0  0  0  0  0  0  0  0
  -21.0577  -30.2174   23.2871 N   0  0  0  0  0  0  0  0  0  0  0  0
  -18.4000  -30.9556   20.9505 N   0  3  0  0  0  0  0  0  0  0  0  0
  -30.4924  -12.5530   18.5026 O   0  0  0  0  0  0  0  0  0  0  0  0
  -26.8392  -29.1444   21.8860 O   0  0  0  0  0  0  0  0  0  0  0  0
  -25.6148  -24.6592   15.5067 O   0  0  0  0  0  0  0  0  0  0  0  0
  -23.5681  -31.4895   23.8239 O   0  0  0  0  0  0  0  0  0  0  0  0
  -20.3013  -28.9544   21.4954 O   0  0  0  0  0  0  0  0  0  0  0  0
  -31.0560  -20.9382   23.5960 O   0  0  0  0  0  0  0  0  0  0  0  0
  -23.1688  -11.8804   21.0520 O   0  0  0  0  0  0  0  0  0  0  0  0
  -24.8162  -26.7800   16.8869 O   0  0  0  0  0  0  0  0  0  1  0  0
  -22.8215   -6.3777   20.9937 F   0  0  0  0  0  0  0  0  0  0  0  0
  -21.9394  -10.5149   23.1176 F   0  0  0  0  0  0  0  0  0  0  0  0
  1  2  1  0  0  0  0
  1  5  2  0  0  0  0
  2  6  2  0  0  0  0
  3  8  2  0  0  0  0
  3 18  1  0  0  0  0
  4  9  1  0  0  0  0
  4 18  2  0  0  0  0
  5 20  1  0  0  0  0
  6 22  1  0  0  0  0
  7 10  2  0  0  0  0
  7 21  1  0  0  0  0
  8 27  1  0  0  0  0
  9 27  2  0  0  0  0
 10 28  1  0  0  0  0
 11 12  2  0  0  0  0
 11 29  1  0  0  0  0
 12 30  1  0  0  0  0
 13 23  1  0  0  0  0
 13 28  2  0  0  0  0
 14 24  1  0  0  0  0
 14 25  2  0  0  0  0
 15 24  2  0  0  0  0
 15 26  1  0  0  0  0
 16 25  1  0  0  0  0
 16 26  2  0  0  0  0
 17 30  2  0  0  0  0
 17 31  1  0  0  0  0
 18 32  1  0  0  0  0
 19 32  1  0  0  0  0
 19 33  2  0  0  0  0
 19 34  1  0  0  0  0
 20 22  2  0  0  0  0
 20 40  1  0  0  0  0
 21 23  2  0  0  0  0
 21 41  1  0  0  0  0
 22 49  1  0  0  0  0
 23 42  1  0  0  0  0
 24 60  1  0  0  0  0
 25 61  1  0  0  0  0
 26 74  1  0  0  0  0
 27 84  1  0  0  0  0
 28 85  1  0  0  0  0
 29 31  2  0  0  0  0
 29 84  1  0  0  0  0
 30 86  1  0  0  0  0
 31 87  1  0  0  0  0
 32 68  2  0  0  0  0
 33 69  1  0  0  0  0
 33 72  1  0  0  0  0
 34 73  1  0  0  0  0
 34 78  2  0  0  0  0
 35 50  1  0  0  0  0
 35 75  1  0  0  0  0
 35 79  2  0  0  0  0
 36 62  1  0  0  0  0
 36 66  1  0  0  0  0
 36 80  2  0  0  0  0
 37 64  1  0  0  0  0
 37 70  1  0  0  0  0
 37 81  2  0  0  0  0
 38 65  1  0  0  0  0
 38 76  1  0  0  0  0
 38 82  2  0  0  0  0
 39 71  1  0  0  0  0
 39 74  1  0  0  0  0
 39 83  2  0  0  0  0
 40 43  1  0  0  0  0
 41 50  1  0  0  0  0
 42 70  1  0  0  0  0
 43 45  1  0  0  0  0
 44 46  1  0  0  0  0
 44 47  1  0  0  0  0
 45 49  1  0  0  0  0
 46 51  1  0  0  0  0
 47 71  1  0  0  0  0
 48 51  1  0  0  0  0
 48 71  1  0  0  0  0
 49 75  1  0  0  0  0
 50 70  1  0  0  0  0
 51 69  1  0  0  0  0
 52 60  1  0  0  0  0
 53 65  1  0  0  0  0
 54 66  1  0  0  0  0
 55 66  1  0  0  0  0
 56 67  1  0  0  0  0
 57 67  1  0  0  0  0
 58 67  1  0  0  0  0
 59 77  1  0  0  0  0
 61 63  1  0  0  0  0
 62 85  1  0  0  0  0
 63 66  1  0  0  0  0
 64 67  1  0  0  0  0
 64 76  1  0  0  0  0
 65 77  1  0  0  0  0
 68 69  1  0  0  0  0
M  CHG  1  77   1
M  ISO  4  39 100  62 101  74 100  85 101
M  END
> <Batch ID>
0140

> <Smiles>
CCc1cc(CCC(C)(C)C(=O)[101CH2:1][101O:1]c2ccc3c(c2)CN(C(=O)C(NC(=O)C(C)NC)C(C)(C)C)C(C(=O)NC2CCCc4ccccc42)C3)cc([100NH:0][100C:0](=O)N2CCCC(n3nc(-c4ccc(Oc5ccc(F)cc5F)cc4)c(C(N)=O)c3N)C2)c1

> <Shape>
0.273

> <Color>
0.082

> <Negative vol penalty>
0.000

$$$$

  -OEChem-04052302513D

 88 96  0     1  0  0  0  0  0999 V2000
  -24.1357  -36.1471   21.7823 C   0  0  0  0  0  0  0  0  0  0  0  0
  -25.1270  -35.1928   21.9873 C   0  0  0  0  0  0  0  0  0  0  0  0
  -23.4373   -9.6115   21.3758 C   0  0  0  0  0  0  0  0  0  0  0  0
  -24.0341  -10.6402   23.4788 C   0  0  0  0  0  0  0  0  0  0  0  0
  -22.8093  -35.8506   22.0934 C   0  0  0  0  0  0  0  0  0  0  0  0
  -24.7926  -33.9417   22.5045 C   0  0  0  0  0  0  0  0  0  0  0  0
  -27.3925  -28.5719   21.1222 C   0  0  0  0  0  0  0  0  0  0  0  0
  -29.2066  -18.6016   21.3110 C   0  0  0  0  0  0  0  0  0  0  0  0
  -22.7980   -8.5791   22.0623 C   0  0  0  0  0  0  0  0  0  0  0  0
  -23.3948   -9.6079   24.1653 C   0  0  0  0  0  0  0  0  0  0  0  0
  -28.3688  -27.8099   21.7626 C   0  0  0  0  0  0  0  0  0  0  0  0
  -29.6388  -19.8404   21.7842 C   0  0  0  0  0  0  0  0  0  0  0  0
  -19.8528   -8.0934   23.6505 C   0  0  0  0  0  0  0  0  0  0  0  0
  -18.5934   -7.6977   23.1999 C   0  0  0  0  0  0  0  0  0  0  0  0
  -26.6426  -26.4960   22.8176 C   0  0  0  0  0  0  0  0  0  0  0  0
  -31.5002  -17.8557   21.1689 C   0  0  0  0  0  0  0  0  0  0  0  0
  -19.4350   -5.4676   22.8059 C   0  0  0  0  0  0  0  0  0  0  0  0
  -24.0554  -10.6420   22.0841 C   0  0  0  0  0  0  0  0  0  0  0  0
  -24.1485  -12.9219   20.9434 C   0  0  0  0  0  0  0  0  0  0  0  0
  -22.4571  -34.5920   22.6055 C   0  0  0  0  0  0  0  0  0  0  0  0
  -26.0316  -28.3081   21.3335 C   0  0  0  0  0  0  0  0  0  0  0  0
  -23.4604  -33.6286   22.8239 C   0  0  0  0  0  0  0  0  0  0  0  0
  -25.6511  -27.2544   22.1766 C   0  0  0  0  0  0  0  0  0  0  0  0
  -30.1374  -17.6091   21.0034 C   0  0  0  0  0  0  0  0  0  0  0  0
  -22.7767   -8.5773   23.4570 C   0  0  0  0  0  0  0  0  0  0  0  0
  -27.9939  -26.7737   22.6127 C   0  0  0  0  0  0  0  0  0  0  0  0
  -20.9033   -7.1761   23.6787 C   0  0  0  0  0  0  0  0  0  0  0  0
  -31.0017  -20.0870   21.9497 C   0  0  0  0  0  0  0  0  0  0  0  0
  -18.3845   -6.3848   22.7776 C   0  0  0  0  0  0  0  0  0  0  0  0
  -31.9324  -19.0947   21.6421 C   0  0  0  0  0  0  0  0  0  0  0  0
  -20.6944   -5.8632   23.2565 C   0  0  0  0  0  0  0  0  0  0  0  0
  -24.7164  -11.7084   21.3756 C   0  0  0  0  0  0  0  0  0  0  0  0
  -25.1819  -13.5842   20.3270 C   0  0  0  0  0  0  0  0  0  0  0  0
  -31.1881  -25.4580   23.7848 C   0  0  0  0  0  0  0  0  0  0  0  0
  -22.8069  -13.4069   21.0863 C   0  0  0  0  0  0  0  0  0  0  0  0
  -31.7287  -24.2763   23.4204 C   0  0  0  0  0  0  0  0  0  0  0  0
  -23.5904  -29.9467   22.5415 C   0  0  0  0  0  0  0  0  0  0  0  0
  -21.8797  -27.3745   21.5518 C   0  0  0  0  0  0  0  0  0  0  0  0
  -21.8388  -24.0594   20.7426 C   0  0  0  0  0  0  0  0  0  0  0  0
  -30.4901  -15.2578   20.1709 C   0  0  0  0  0  0  0  0  0  0  0  0
  -21.0168  -34.3342   22.9711 C   0  0  0  0  0  0  0  0  0  0  0  0
  -24.9910  -29.1220   20.6143 C   0  0  0  0  0  0  0  0  0  0  0  0
  -24.2036  -26.9176   22.4212 C   0  0  0  0  0  0  0  0  0  0  0  0
  -20.6926  -32.8549   23.1637 C   0  0  0  0  0  0  0  0  0  0  0  0
  -29.7890  -11.9757   18.9821 C   0  0  0  0  0  0  0  0  0  0  0  0
  -21.7552  -32.1837   24.0281 C   0  0  0  0  0  0  0  0  0  0  0  0
  -28.3601  -11.7134   19.4633 C   0  0  0  0  0  0  0  0  0  0  0  0
  -30.5921  -12.7807   20.0023 C   0  0  0  0  0  0  0  0  0  0  0  0
  -28.5320  -13.7693   20.9230 C   0  0  0  0  0  0  0  0  0  0  0  0
  -23.1337  -32.2516   23.3599 C   0  0  1  0  0  0  0  0  0  0  0  0
  -23.6304  -29.0959   21.3037 C   0  0  1  0  0  0  0  0  0  0  0  0
  -27.6644  -13.0174   19.9005 C   0  0  2  0  0  0  0  0  0  0  0  0
  -32.6075  -23.4503   24.3233 C   0  0  0  0  0  0  0  0  0  0  0  0
  -20.2862  -22.2300   20.0076 C   0  0  0  0  0  0  0  0  0  0  0  0
  -33.4459  -24.9272   20.9494 C   0  0  0  0  0  0  0  0  0  0  0  0
  -32.4146  -22.9968   19.7547 C   0  0  0  0  0  0  0  0  0  0  0  0
  -20.7789  -27.1717   24.3903 C   0  0  0  0  0  0  0  0  0  0  0  0
  -20.0213  -24.8460   23.8557 C   0  0  0  0  0  0  0  0  0  0  0  0
  -19.0911  -26.7816   22.5865 C   0  0  0  0  0  0  0  0  0  0  0  0
  -23.3319  -23.6467   18.2208 C   0  0  0  0  0  0  0  0  0  0  0  0
  -30.3068  -26.3618   22.9825 C   0  0  0  0  0  0  0  0  0  1  0  0
  -30.6129  -22.4282   22.1030 C   0  0  0  0  0  0  0  0  0  0  0  0
  -31.4485  -23.7220   22.0134 C   0  0  2  0  0  0  0  0  0  0  0  0
  -21.4769  -26.0568   22.1686 C   0  0  1  0  0  0  0  0  0  0  0  0
  -21.2470  -23.3192   19.5567 C   0  0  2  0  0  0  0  0  0  0  0  0
  -32.7323  -23.5810   21.1378 C   0  0  0  0  0  0  0  0  0  0  0  0
  -20.3694  -26.2214   23.2474 C   0  0  0  0  0  0  0  0  0  0  0  0
  -26.0101  -11.6034   21.0604 N   0  0  0  0  0  0  0  0  0  0  0  0
  -26.2637  -12.7593   20.4235 N   0  0  0  0  0  0  0  0  0  0  0  0
  -23.2234  -27.7462   21.7000 N   0  0  0  0  0  0  0  0  0  0  0  0
  -29.8735  -14.0038   20.3661 N   0  0  0  0  0  0  0  0  0  0  0  0
  -25.2616  -14.7860   19.7173 N   0  0  0  0  0  0  0  0  0  0  0  0
  -21.8710  -12.5990   21.7463 N   0  0  0  0  0  0  0  0  0  0  0  0
  -29.6985  -16.3505   20.5227 N   0  0  0  0  0  0  0  0  0  0  0  0
  -23.2353  -31.2618   22.3090 N   0  0  0  0  0  0  0  0  0  0  0  0
  -21.1064  -25.1836   21.0602 N   0  0  0  0  0  0  0  0  0  0  0  0
  -22.3280  -22.6873   18.7486 N   0  3  0  0  0  0  0  0  0  0  0  0
  -22.4445  -14.5168   20.6275 O   0  0  0  0  0  0  0  0  0  0  0  0
  -23.8602  -29.4468   23.6273 O   0  0  0  0  0  0  0  0  0  0  0  0
  -21.0348  -28.0458   20.9541 O   0  0  0  0  0  0  0  0  0  0  0  0
  -22.8477  -23.6764   21.3308 O   0  0  0  0  0  0  0  0  0  0  0  0
  -31.6258  -15.3561   19.6991 O   0  0  0  0  0  0  0  0  0  0  0  0
  -22.1528   -7.5703   24.1271 O   0  0  0  0  0  0  0  0  0  0  0  0
  -28.9517  -26.0234   23.2442 O   0  0  0  0  0  0  0  0  0  1  0  0
  -31.4245  -21.3051   22.4156 O   0  0  0  0  0  0  0  0  0  0  0  0
  -17.1747   -6.0046   22.3464 F   0  0  0  0  0  0  0  0  0  0  0  0
  -33.2430  -19.3253   21.8002 F   0  0  0  0  0  0  0  0  0  0  0  0
  -21.6995   -4.9773   23.2824 F   0  0  0  0  0  0  0  0  0  0  0  0
  1  2  1  0  0  0  0
  1  5  2  0  0  0  0
  2  6  2  0  0  0  0
  3  9  2  0  0  0  0
  3 18  1  0  0  0  0
  4 10  1  0  0  0  0
  4 18  2  0  0  0  0
  5 20  1  0  0  0  0
  6 22  1  0  0  0  0
  7 11  2  0  0  0  0
  7 21  1  0  0  0  0
  8 12  2  0  0  0  0
  8 24  1  0  0  0  0
  9 25  1  0  0  0  0
 10 25  2  0  0  0  0
 11 26  1  0  0  0  0
 12 28  1  0  0  0  0
 13 14  2  0  0  0  0
 13 27  1  0  0  0  0
 14 29  1  0  0  0  0
 15 23  1  0  0  0  0
 15 26  2  0  0  0  0
 16 24  2  0  0  0  0
 16 30  1  0  0  0  0
 17 29  2  0  0  0  0
 17 31  1  0  0  0  0
 18 32  1  0  0  0  0
 19 32  1  0  0  0  0
 19 33  2  0  0  0  0
 19 35  1  0  0  0  0
 20 22  2  0  0  0  0
 20 41  1  0  0  0  0
 21 23  2  0  0  0  0
 21 42  1  0  0  0  0
 22 50  1  0  0  0  0
 23 43  1  0  0  0  0
 24 74  1  0  0  0  0
 25 83  1  0  0  0  0
 26 84  1  0  0  0  0
 27 31  2  0  0  0  0
 27 83  1  0  0  0  0
 28 30  2  0  0  0  0
 28 85  1  0  0  0  0
 29 86  1  0  0  0  0
 30 87  1  0  0  0  0
 31 88  1  0  0  0  0
 32 68  2  0  0  0  0
 33 69  1  0  0  0  0
 33 72  1  0  0  0  0
 34 36  2  0  0  0  0
 34 61  1  0  0  0  0
 35 73  1  0  0  0  0
 35 78  2  0  0  0  0
 36 53  1  0  0  0  0
 36 63  1  0  0  0  0
 37 51  1  0  0  0  0
 37 75  1  0  0  0  0
 37 79  2  0  0  0  0
 38 64  1  0  0  0  0
 38 70  1  0  0  0  0
 38 80  2  0  0  0  0
 39 65  1  0  0  0  0
 39 76  1  0  0  0  0
 39 81  2  0  0  0  0
 40 71  1  0  0  0  0
 40 74  1  0  0  0  0
 40 82  2  0  0  0  0
 41 44  1  0  0  0  0
 42 51  1  0  0  0  0
 43 70  1  0  0  0  0
 44 46  1  0  0  0  0
 45 47  1  0  0  0  0
 45 48  1  0  0  0  0
 46 50  1  0  0  0  0
 47 52  1  0  0  0  0
 48 71  1  0  0  0  0
 49 52  1  0  0  0  0
 49 71  1  0  0  0  0
 50 75  1  0  0  0  0
 51 70  1  0  0  0  0
 52 69  1  0  0  0  0
 54 65  1  0  0  0  0
 55 66  1  0  0  0  0
 56 66  1  0  0  0  0
 57 67  1  0  0  0  0
 58 67  1  0  0  0  0
 59 67  1  0  0  0  0
 60 77  1  0  0  0  0
 61 84  1  0  0  0  0
 62 63  1  0  0  0  0
 62 85  1  0  0  0  0
 63 66  1  0  0  0  0
 64 67  1  0  0  0  0
 64 76  1  0  0  0  0
 65 77  1  0  0  0  0
 68 69  1  0  0  0  0
M  CHG  1  77   1
M  ISO  4  40 100  61 101  74 100  84 101
M  END
> <Batch ID>
0140

> <Smiles>
CNC(C)C(=O)NC(C(=O)N1Cc2cc([101O:1][101CH2:1]C=C(C)C(COc3ccc([100NH:0][100C:0](=O)N4CCCC(n5nc(-c6ccc(Oc7ccc(F)cc7F)cc6)c(C(N)=O)c5N)C4)cc3F)C(C)C)ccc2CC1C(=O)NC1CCCc2ccccc21)C(C)(C)C

> <Shape>
0.251

> <Color>
0.132

> <Negative vol penalty>
0.000

$$$$

  -OEChem-04052302513D

 87 95  0     1  0  0  0  0  0999 V2000
  -31.8973   -7.8526   15.7576 C   0  0  0  0  0  0  0  0  0  0  0  0
  -32.1900   -9.1748   16.0761 C   0  0  0  0  0  0  0  0  0  0  0  0
  -25.2129  -30.6293   21.0100 C   0  0  0  0  0  0  0  0  0  0  0  0
  -24.9036  -28.8670   22.6335 C   0  0  0  0  0  0  0  0  0  0  0  0
  -30.5699   -7.4401   15.6496 C   0  0  0  0  0  0  0  0  0  0  0  0
  -31.1552  -10.0857   16.2857 C   0  0  0  0  0  0  0  0  0  0  0  0
  -31.1054  -14.7520   20.2517 C   0  0  0  0  0  0  0  0  0  0  0  0
  -24.4458  -31.4886   21.7965 C   0  0  0  0  0  0  0  0  0  0  0  0
  -24.1365  -29.7264   23.4201 C   0  0  0  0  0  0  0  0  0  0  0  0
  -31.3493  -16.1160   20.0983 C   0  0  0  0  0  0  0  0  0  0  0  0
  -22.8698  -34.2545   23.5518 C   0  0  0  0  0  0  0  0  0  0  0  0
  -23.3449  -35.5511   23.7486 C   0  0  0  0  0  0  0  0  0  0  0  0
  -28.9789  -16.5098   19.8850 C   0  0  0  0  0  0  0  0  0  0  0  0
  -22.8972  -19.8070   20.3768 C   0  0  0  0  0  0  0  0  0  0  0  0
  -25.3440  -34.6631   24.7742 C   0  0  0  0  0  0  0  0  0  0  0  0
  -25.4418  -29.3184   21.4284 C   0  0  0  0  0  0  0  0  0  0  0  0
  -27.6272  -28.2396   20.6750 C   0  0  0  0  0  0  0  0  0  0  0  0
  -29.5182   -8.3441   15.8675 C   0  0  0  0  0  0  0  0  0  0  0  0
  -29.7949  -14.2543   20.2120 C   0  0  0  0  0  0  0  0  0  0  0  0
  -29.8124   -9.6853   16.1792 C   0  0  0  0  0  0  0  0  0  0  0  0
  -28.7209  -15.1393   20.0407 C   0  0  0  0  0  0  0  0  0  0  0  0
  -23.7840  -20.9196   20.3006 C   0  0  0  0  0  0  0  0  0  0  0  0
  -23.9076  -31.0372   23.0016 C   0  0  0  0  0  0  0  0  0  0  0  0
  -30.2862  -16.9948   19.9120 C   0  0  0  0  0  0  0  0  0  0  0  0
  -23.6319  -33.1622   23.9663 C   0  0  0  0  0  0  0  0  0  0  0  0
  -24.5820  -35.7554   24.3597 C   0  0  0  0  0  0  0  0  0  0  0  0
  -24.8690  -33.3665   24.5774 C   0  0  0  0  0  0  0  0  0  0  0  0
  -26.2336  -28.4301   20.6161 C   0  0  0  0  0  0  0  0  0  0  0  0
  -22.3118  -19.5277   19.1616 C   0  0  0  0  0  0  0  0  0  0  0  0
  -27.8867  -27.3008   19.7066 C   0  0  0  0  0  0  0  0  0  0  0  0
  -23.8427  -21.4483   19.0297 C   0  0  0  0  0  0  0  0  0  0  0  0
  -28.6002  -28.8561   21.5288 C   0  0  0  0  0  0  0  0  0  0  0  0
  -28.2204  -12.2295   18.3346 C   0  0  0  0  0  0  0  0  0  0  0  0
  -28.3802  -21.0568   22.4079 C   0  0  0  0  0  0  0  0  0  0  0  0
  -25.8615  -12.6451   20.5221 C   0  0  0  0  0  0  0  0  0  0  0  0
  -24.4632  -14.6095   22.9372 C   0  0  0  0  0  0  0  0  0  0  0  0
  -24.5773  -23.0075   17.1925 C   0  0  0  0  0  0  0  0  0  0  0  0
  -28.0995   -7.8631   15.6932 C   0  0  0  0  0  0  0  0  0  0  0  0
  -29.5467  -12.7836   20.4059 C   0  0  0  0  0  0  0  0  0  0  0  0
  -27.2940  -14.6581   20.0108 C   0  0  0  0  0  0  0  0  0  0  0  0
  -27.0592   -8.8019   16.2987 C   0  0  0  0  0  0  0  0  0  0  0  0
  -26.2230  -25.6837   15.5172 C   0  0  0  0  0  0  0  0  0  0  0  0
  -27.3515  -10.2467   15.9065 C   0  0  0  0  0  0  0  0  0  0  0  0
  -26.5447  -26.6716   16.6409 C   0  0  0  0  0  0  0  0  0  0  0  0
  -24.8756  -24.9972   15.7341 C   0  0  0  0  0  0  0  0  0  0  0  0
  -25.0313  -25.3436   18.1682 C   0  0  0  0  0  0  0  0  0  0  0  0
  -28.7174  -10.6972   16.4383 C   0  0  1  0  0  0  0  0  0  0  0  0
  -28.2094  -12.3229   19.8342 C   0  0  1  0  0  0  0  0  0  0  0  0
  -26.4086  -26.0120   18.0273 C   0  0  2  0  0  0  0  0  0  0  0  0
  -21.3428  -18.4608   18.8299 C   0  0  0  0  0  0  0  0  0  0  0  0
  -22.5183  -14.7009   24.5204 C   0  0  0  0  0  0  0  0  0  0  0  0
  -26.8313  -23.0695   22.6476 C   0  0  0  0  0  0  0  0  0  0  0  0
  -26.4080  -20.9435   23.9078 C   0  0  0  0  0  0  0  0  0  0  0  0
  -24.0134  -13.3732   18.2059 C   0  0  0  0  0  0  0  0  0  0  0  0
  -22.4229  -14.3512   19.8738 C   0  0  0  0  0  0  0  0  0  0  0  0
  -22.9721  -11.9192   19.9540 C   0  0  0  0  0  0  0  0  0  0  0  0
  -26.2418  -14.6725   25.3018 C   0  0  0  0  0  0  0  0  0  0  0  0
  -24.5636  -21.4465   21.4801 C   0  0  0  0  0  0  0  0  0  0  0  0
  -29.1517  -21.5432   21.1843 C   0  0  0  0  0  0  0  0  0  0  0  0
  -26.0303  -20.9919   21.4314 C   0  0  0  0  0  0  0  0  0  0  0  0
  -30.1621  -20.5286   20.6542 C   0  0  0  0  0  0  0  0  0  0  0  0
  -29.5099  -19.2219   20.2176 C   0  0  0  0  0  0  0  0  0  1  0  0
  -24.7086  -13.6066   20.6814 C   0  0  1  0  0  0  0  0  0  0  0  0
  -23.9704  -14.2881   24.3366 C   0  0  2  0  0  0  0  0  0  0  0  0
  -26.9208  -21.5374   22.5833 C   0  0  0  0  0  0  0  0  0  0  0  0
  -23.5562  -13.3217   19.6774 C   0  0  0  0  0  0  0  0  0  0  0  0
  -25.6487  -27.6732   19.6839 N   0  0  0  0  0  0  0  0  0  0  0  0
  -26.6798  -26.9981   19.1481 N   0  0  0  0  0  0  0  0  0  0  0  0
  -27.1031  -13.2104   20.1986 N   0  0  0  0  0  0  0  0  0  0  0  0
  -24.8208  -24.3915   17.0664 N   0  0  0  0  0  0  0  0  0  0  0  0
  -29.0272  -26.7130   19.2869 N   0  0  0  0  0  0  0  0  0  0  0  0
  -28.1625  -29.7995   22.4683 N   0  0  0  0  0  0  0  0  0  0  0  0
  -24.5802  -22.5388   18.5059 N   0  0  0  0  0  0  0  0  0  0  0  0
  -28.6341  -11.0032   17.8504 N   0  0  0  0  0  0  0  0  0  0  0  0
  -24.3104  -13.5377   22.0833 N   0  0  0  0  0  0  0  0  0  0  0  0
  -24.7942  -15.0024   25.3526 N   0  3  0  0  0  0  0  0  0  0  0  0
  -29.8236  -28.5907   21.4495 O   0  0  0  0  0  0  0  0  0  0  0  0
  -27.8775  -13.1978   17.6664 O   0  0  0  0  0  0  0  0  0  0  0  0
  -28.9156  -20.3249   23.2439 O   0  0  0  0  0  0  0  0  0  0  0  0
  -25.6691  -11.4377   20.6858 O   0  0  0  0  0  0  0  0  0  0  0  0
  -24.9330  -15.7032   22.6312 O   0  0  0  0  0  0  0  0  0  0  0  0
  -24.4078  -22.2859   16.2063 O   0  0  0  0  0  0  0  0  0  0  0  0
  -23.1592  -31.8755   23.7695 O   0  0  0  0  0  0  0  0  0  0  0  0
  -30.5233  -18.3362   19.7602 O   0  0  0  0  0  0  0  0  0  1  0  0
  -25.0387  -37.0006   24.5472 F   0  0  0  0  0  0  0  0  0  0  0  0
  -25.6061  -32.3209   24.9767 F   0  0  0  0  0  0  0  0  0  0  0  0
  -22.8313  -20.6044   17.9356 S   0  0  0  0  0  0  0  0  0  0  0  0
  1  2  1  0  0  0  0
  1  5  2  0  0  0  0
  2  6  2  0  0  0  0
  3  8  2  0  0  0  0
  3 16  1  0  0  0  0
  4  9  1  0  0  0  0
  4 16  2  0  0  0  0
  5 18  1  0  0  0  0
  6 20  1  0  0  0  0
  7 10  2  0  0  0  0
  7 19  1  0  0  0  0
  8 23  1  0  0  0  0
  9 23  2  0  0  0  0
 10 24  1  0  0  0  0
 11 12  2  0  0  0  0
 11 25  1  0  0  0  0
 12 26  1  0  0  0  0
 13 21  1  0  0  0  0
 13 24  2  0  0  0  0
 14 22  1  0  0  0  0
 14 29  2  0  0  0  0
 15 26  2  0  0  0  0
 15 27  1  0  0  0  0
 16 28  1  0  0  0  0
 17 28  1  0  0  0  0
 17 30  2  0  0  0  0
 17 32  1  0  0  0  0
 18 20  2  0  0  0  0
 18 38  1  0  0  0  0
 19 21  2  0  0  0  0
 19 39  1  0  0  0  0
 20 47  1  0  0  0  0
 21 40  1  0  0  0  0
 22 31  2  0  0  0  0
 22 58  1  0  0  0  0
 23 83  1  0  0  0  0
 24 84  1  0  0  0  0
 25 27  2  0  0  0  0
 25 83  1  0  0  0  0
 26 85  1  0  0  0  0
 27 86  1  0  0  0  0
 28 67  2  0  0  0  0
 29 50  1  0  0  0  0
 29 87  1  0  0  0  0
 30 68  1  0  0  0  0
 30 71  1  0  0  0  0
 31 73  1  0  0  0  0
 31 87  1  0  0  0  0
 32 72  1  0  0  0  0
 32 77  2  0  0  0  0
 33 48  1  0  0  0  0
 33 74  1  0  0  0  0
 33 78  2  0  0  0  0
 34 59  1  0  0  0  0
 34 65  1  0  0  0  0
 34 79  2  0  0  0  0
 35 63  1  0  0  0  0
 35 69  1  0  0  0  0
 35 80  2  0  0  0  0
 36 64  1  0  0  0  0
 36 75  1  0  0  0  0
 36 81  2  0  0  0  0
 37 70  1  0  0  0  0
 37 73  1  0  0  0  0
 37 82  2  0  0  0  0
 38 41  1  0  0  0  0
 39 48  1  0  0  0  0
 40 69  1  0  0  0  0
 41 43  1  0  0  0  0
 42 44  1  0  0  0  0
 42 45  1  0  0  0  0
 43 47  1  0  0  0  0
 44 49  1  0  0  0  0
 45 70  1  0  0  0  0
 46 49  1  0  0  0  0
 46 70  1  0  0  0  0
 47 74  1  0  0  0  0
 48 69  1  0  0  0  0
 49 68  1  0  0  0  0
 51 64  1  0  0  0  0
 52 65  1  0  0  0  0
 53 65  1  0  0  0  0
 54 66  1  0  0  0  0
 55 66  1  0  0  0  0
 56 66  1  0  0  0  0
 57 76  1  0  0  0  0
 58 60  1  0  0  0  0
 59 61  1  0  0  0  0
 60 65  1  0  0  0  0
 61 62  1  0  0  0  0
 62 84  1  0  0  0  0
 63 66  1  0  0  0  0
 63 75  1  0  0  0  0
 64 76  1  0  0  0  0
 67 68  1  0  0  0  0
M  CHG  1  76   1
M  ISO  4  37 100  62 101  73 100  84 101
M  END
> <Batch ID>
0140

> <Smiles>
CNC(C)C(=O)NC(C(=O)N1Cc2cc([101O:1][101CH2:1]CCC(=O)C(C)(C)CCc3cc(C)sc3[100NH:0][100C:0](=O)N3CCCC(n4nc(-c5ccc(Oc6ccc(F)cc6F)cc5)c(C(N)=O)c4N)C3)ccc2CC1C(=O)NC1CCCc2ccccc21)C(C)(C)C

> <Shape>
0.233

> <Color>
0.068

> <Negative vol penalty>
0.000

$$$$

  -OEChem-04052302513D

 84 92  0     1  0  0  0  0  0999 V2000
  -27.6820  -24.1299   14.9506 C   0  0  0  0  0  0  0  0  0  0  0  0
  -26.6793  -25.0257   15.3043 C   0  0  0  0  0  0  0  0  0  0  0  0
  -20.9004  -22.4516   18.2924 C   0  0  0  0  0  0  0  0  0  0  0  0
  -27.2106  -14.5505   22.0203 C   0  0  0  0  0  0  0  0  0  0  0  0
  -26.1481  -15.1319   19.9297 C   0  0  0  0  0  0  0  0  0  0  0  0
  -28.5102  -23.5930   15.9338 C   0  0  0  0  0  0  0  0  0  0  0  0
  -26.5121  -25.3939   16.6397 C   0  0  0  0  0  0  0  0  0  0  0  0
  -22.3005  -28.9182   19.2796 C   0  0  0  0  0  0  0  0  0  0  0  0
  -22.0245  -22.0851   19.0323 C   0  0  0  0  0  0  0  0  0  0  0  0
  -19.8381  -23.1064   18.9157 C   0  0  0  0  0  0  0  0  0  0  0  0
  -26.8697  -13.2127   21.8215 C   0  0  0  0  0  0  0  0  0  0  0  0
  -25.8072  -13.7940   19.7310 C   0  0  0  0  0  0  0  0  0  0  0  0
  -21.0570  -28.7551   19.8887 C   0  0  0  0  0  0  0  0  0  0  0  0
  -23.4579  -11.6303   20.8401 C   0  0  0  0  0  0  0  0  0  0  0  0
  -22.1601  -11.3487   20.4135 C   0  0  0  0  0  0  0  0  0  0  0  0
  -22.1267  -28.7250   22.0506 C   0  0  0  0  0  0  0  0  0  0  0  0
  -21.0242  -23.0280   21.0191 C   0  0  0  0  0  0  0  0  0  0  0  0
  -23.0417  -10.3049   18.4209 C   0  0  0  0  0  0  0  0  0  0  0  0
  -26.8497  -15.5102   21.0744 C   0  0  0  0  0  0  0  0  0  0  0  0
  -28.3783  -17.5413   20.8613 C   0  0  0  0  0  0  0  0  0  0  0  0
  -28.3444  -23.9457   17.2833 C   0  0  0  0  0  0  0  0  0  0  0  0
  -23.4694  -28.9750   20.0521 C   0  0  0  0  0  0  0  0  0  0  0  0
  -27.3534  -24.8812   17.6437 C   0  0  0  0  0  0  0  0  0  0  0  0
  -23.3835  -28.8914   21.4491 C   0  0  0  0  0  0  0  0  0  0  0  0
  -22.0864  -22.3732   20.3957 C   0  0  0  0  0  0  0  0  0  0  0  0
  -26.1680  -12.8344   20.6769 C   0  0  0  0  0  0  0  0  0  0  0  0
  -20.9702  -28.6556   21.2742 C   0  0  0  0  0  0  0  0  0  0  0  0
  -19.9000  -23.3945   20.2791 C   0  0  0  0  0  0  0  0  0  0  0  0
  -24.5476  -11.2493   20.0571 C   0  0  0  0  0  0  0  0  0  0  0  0
  -21.9520  -10.6860   19.2039 C   0  0  0  0  0  0  0  0  0  0  0  0
  -24.3395  -10.5866   18.8476 C   0  0  0  0  0  0  0  0  0  0  0  0
  -27.2010  -16.8924   21.2794 C   0  0  0  0  0  0  0  0  0  0  0  0
  -28.2297  -18.8358   21.2958 C   0  0  0  0  0  0  0  0  0  0  0  0
  -29.5054  -17.0206   20.1442 C   0  0  0  0  0  0  0  0  0  0  0  0
  -26.1044  -27.2101   20.2666 C   0  0  0  0  0  0  0  0  0  0  0  0
  -27.0552  -29.5730   22.2753 C   0  0  0  0  0  0  0  0  0  0  0  0
  -26.1801  -32.0996   24.3960 C   0  0  0  0  0  0  0  0  0  0  0  0
  -23.4506  -22.2118   22.5074 C   0  0  0  0  0  0  0  0  0  0  0  0
  -29.2739  -23.3404   18.3055 C   0  0  0  0  0  0  0  0  0  0  0  0
  -24.8005  -29.1780   19.3816 C   0  0  0  0  0  0  0  0  0  0  0  0
  -24.6066  -28.9670   22.3248 C   0  0  0  0  0  0  0  0  0  0  0  0
  -28.7395  -23.4442   19.7302 C   0  0  0  0  0  0  0  0  0  0  0  0
  -26.1125  -21.4124   24.7328 C   0  0  0  0  0  0  0  0  0  0  0  0
  -28.2918  -24.8701   20.0148 C   0  0  0  0  0  0  0  0  0  0  0  0
  -26.8045  -20.2255   24.0587 C   0  0  0  0  0  0  0  0  0  0  0  0
  -24.5972  -21.3674   24.5439 C   0  0  0  0  0  0  0  0  0  0  0  0
  -24.8408  -20.0480   22.4777 C   0  0  0  0  0  0  0  0  0  0  0  0
  -27.1331  -25.2728   19.0937 C   0  0  1  0  0  0  0  0  0  0  0  0
  -25.9760  -28.7067   20.2321 C   0  0  1  0  0  0  0  0  0  0  0  0
  -26.3740  -20.0846   22.5854 C   0  0  2  0  0  0  0  0  0  0  0  0
  -27.1767  -33.8265   25.9198 C   0  0  0  0  0  0  0  0  0  0  0  0
  -27.6318  -27.4085   24.3472 C   0  0  0  0  0  0  0  0  0  0  0  0
  -27.6989  -29.1985   26.0963 C   0  0  0  0  0  0  0  0  0  0  0  0
  -29.3501  -29.2215   24.2267 C   0  0  0  0  0  0  0  0  0  0  0  0
  -17.2301  -28.0185   23.2461 C   0  0  0  0  0  0  0  0  0  0  0  0
  -18.3992  -26.2950   24.6258 C   0  0  0  0  0  0  0  0  0  0  0  0
  -24.9998  -34.3226   22.8391 C   0  0  0  0  0  0  0  0  0  0  0  0
  -18.1610  -25.9957   22.1112 C   0  0  0  0  0  0  0  0  0  0  0  0
  -19.1797  -24.8631   22.0054 C   0  0  0  0  0  0  0  0  0  0  0  0
  -19.7298  -27.7725   23.1010 C   0  0  0  0  0  0  0  0  0  1  0  0
  -26.9400  -29.8255   23.7592 C   0  0  1  0  0  0  0  0  0  0  0  0
  -26.6731  -33.5303   24.5158 C   0  0  2  0  0  0  0  0  0  0  0  0
  -27.8822  -28.9101   24.5910 C   0  0  0  0  0  0  0  0  0  0  0  0
  -18.3978  -27.0089   23.2626 C   0  0  0  0  0  0  0  0  0  0  0  0
  -26.3662  -17.7073   21.9297 N   0  0  0  0  0  0  0  0  0  0  0  0
  -27.0197  -18.8816   21.9236 N   0  0  0  0  0  0  0  0  0  0  0  0
  -25.8856  -29.1596   21.6217 N   0  0  0  0  0  0  0  0  0  0  0  0
  -24.2643  -21.2377   23.1236 N   0  0  0  0  0  0  0  0  0  0  0  0
  -29.0173  -19.9278   21.1984 N   0  0  0  0  0  0  0  0  0  0  0  0
  -29.4954  -15.6688   19.7742 N   0  0  0  0  0  0  0  0  0  0  0  0
  -23.2287  -22.0010   21.1469 N   0  0  0  0  0  0  0  0  0  0  0  0
  -26.8779  -26.6881   19.2474 N   0  0  0  0  0  0  0  0  0  0  0  0
  -27.1728  -31.2530   23.9496 N   0  0  0  0  0  0  0  0  0  0  0  0
  -25.5734  -34.4852   24.1998 N   0  3  0  0  0  0  0  0  0  0  0  0
  -30.4994  -17.7290   19.8548 O   0  0  0  0  0  0  0  0  0  0  0  0
  -25.5443  -26.5759   21.1531 O   0  0  0  0  0  0  0  0  0  0  0  0
  -28.1410  -29.7433   21.7154 O   0  0  0  0  0  0  0  0  0  0  0  0
  -25.0306  -31.7656   24.6744 O   0  0  0  0  0  0  0  0  0  0  0  0
  -23.0073  -23.1778   23.1338 O   0  0  0  0  0  0  0  0  0  0  0  0
  -25.8354  -11.5289   20.4825 O   0  0  0  0  0  0  0  0  0  0  0  0
  -19.7578  -28.4958   21.8712 O   0  0  0  0  0  0  0  0  0  1  0  0
  -18.8572  -24.0372   20.8912 O   0  0  0  0  0  0  0  0  0  0  0  0
  -20.7057  -10.4142   18.7950 F   0  0  0  0  0  0  0  0  0  0  0  0
  -25.3824  -10.2170   18.0916 F   0  0  0  0  0  0  0  0  0  0  0  0
  1  2  1  0  0  0  0
  1  6  2  0  0  0  0
  2  7  2  0  0  0  0
  3  9  1  0  0  0  0
  3 10  2  0  0  0  0
  4 11  2  0  0  0  0
  4 19  1  0  0  0  0
  5 12  1  0  0  0  0
  5 19  2  0  0  0  0
  6 21  1  0  0  0  0
  7 23  1  0  0  0  0
  8 13  2  0  0  0  0
  8 22  1  0  0  0  0
  9 25  2  0  0  0  0
 10 28  1  0  0  0  0
 11 26  1  0  0  0  0
 12 26  2  0  0  0  0
 13 27  1  0  0  0  0
 14 15  2  0  0  0  0
 14 29  1  0  0  0  0
 15 30  1  0  0  0  0
 16 24  1  0  0  0  0
 16 27  2  0  0  0  0
 17 25  1  0  0  0  0
 17 28  2  0  0  0  0
 18 30  2  0  0  0  0
 18 31  1  0  0  0  0
 19 32  1  0  0  0  0
 20 32  1  0  0  0  0
 20 33  2  0  0  0  0
 20 34  1  0  0  0  0
 21 23  2  0  0  0  0
 21 39  1  0  0  0  0
 22 24  2  0  0  0  0
 22 40  1  0  0  0  0
 23 48  1  0  0  0  0
 24 41  1  0  0  0  0
 25 71  1  0  0  0  0
 26 80  1  0  0  0  0
 27 81  1  0  0  0  0
 28 82  1  0  0  0  0
 29 31  2  0  0  0  0
 29 80  1  0  0  0  0
 30 83  1  0  0  0  0
 31 84  1  0  0  0  0
 32 65  2  0  0  0  0
 33 66  1  0  0  0  0
 33 69  1  0  0  0  0
 34 70  1  0  0  0  0
 34 75  2  0  0  0  0
 35 49  1  0  0  0  0
 35 72  1  0  0  0  0
 35 76  2  0  0  0  0
 36 61  1  0  0  0  0
 36 67  1  0  0  0  0
 36 77  2  0  0  0  0
 37 62  1  0  0  0  0
 37 73  1  0  0  0  0
 37 78  2  0  0  0  0
 38 68  1  0  0  0  0
 38 71  1  0  0  0  0
 38 79  2  0  0  0  0
 39 42  1  0  0  0  0
 40 49  1  0  0  0  0
 41 67  1  0  0  0  0
 42 44  1  0  0  0  0
 43 45  1  0  0  0  0
 43 46  1  0  0  0  0
 44 48  1  0  0  0  0
 45 50  1  0  0  0  0
 46 68  1  0  0  0  0
 47 50  1  0  0  0  0
 47 68  1  0  0  0  0
 48 72  1  0  0  0  0
 49 67  1  0  0  0  0
 50 66  1  0  0  0  0
 51 62  1  0  0  0  0
 52 63  1  0  0  0  0
 53 63  1  0  0  0  0
 54 63  1  0  0  0  0
 55 64  1  0  0  0  0
 56 64  1  0  0  0  0
 57 74  1  0  0  0  0
 58 59  1  0  0  0  0
 58 64  1  0  0  0  0
 59 82  1  0  0  0  0
 60 64  1  0  0  0  0
 60 81  1  0  0  0  0
 61 63  1  0  0  0  0
 61 73  1  0  0  0  0
 62 74  1  0  0  0  0
 65 66  1  0  0  0  0
M  CHG  1  74   1
M  ISO  4  38 100  60 101  71 100  81 101
M  END
> <Batch ID>
0140

> <Smiles>
CNC(C)C(=O)NC(C(=O)N1Cc2cc([101O:1][101CH2:1]C(C)(C)CCOc3cccc([100NH:0][100C:0](=O)N4CCCC(n5nc(-c6ccc(Oc7ccc(F)cc7F)cc6)c(C(N)=O)c5N)C4)c3)ccc2CC1C(=O)NC1CCCc2ccccc21)C(C)(C)C

> <Shape>
0.247

> <Color>
0.060

> <Negative vol penalty>
0.000

$$$$

  -OEChem-04052302513D

 87 96  0     1  0  0  0  0  0999 V2000
  -29.3493  -10.9860   16.2970 C   0  0  0  0  0  0  0  0  0  0  0  0
  -27.9981  -11.3167   16.2767 C   0  0  0  0  0  0  0  0  0  0  0  0
  -27.9131  -29.1312   21.8757 C   0  0  0  0  0  0  0  0  0  0  0  0
  -27.1172  -27.9009   19.9548 C   0  0  0  0  0  0  0  0  0  0  0  0
  -30.1436  -11.3701   17.3766 C   0  0  0  0  0  0  0  0  0  0  0  0
  -27.4402  -12.0306   17.3366 C   0  0  0  0  0  0  0  0  0  0  0  0
  -22.3839  -16.9090   18.7337 C   0  0  0  0  0  0  0  0  0  0  0  0
  -17.3561  -24.5832   21.3230 C   0  0  0  0  0  0  0  0  0  0  0  0
  -17.3058  -23.2207   21.6174 C   0  0  0  0  0  0  0  0  0  0  0  0
  -29.0988  -28.3968   21.8548 C   0  0  0  0  0  0  0  0  0  0  0  0
  -28.3029  -27.1666   19.9338 C   0  0  0  0  0  0  0  0  0  0  0  0
  -21.2868  -17.1142   19.5691 C   0  0  0  0  0  0  0  0  0  0  0  0
  -31.4869  -27.6095   18.8915 C   0  0  0  0  0  0  0  0  0  0  0  0
  -32.1083  -27.4199   17.6572 C   0  0  0  0  0  0  0  0  0  0  0  0
  -22.7728  -17.7934   21.3438 C   0  0  0  0  0  0  0  0  0  0  0  0
  -19.5883  -24.3101   20.4400 C   0  0  0  0  0  0  0  0  0  0  0  0
  -31.8919  -25.0275   17.9157 C   0  0  0  0  0  0  0  0  0  0  0  0
  -26.9222  -28.8832   20.9257 C   0  0  0  0  0  0  0  0  0  0  0  0
  -25.4348  -30.8524   20.2797 C   0  0  0  0  0  0  0  0  0  0  0  0
  -29.5973  -12.0975   18.4457 C   0  0  0  0  0  0  0  0  0  0  0  0
  -23.6866  -17.1344   19.2013 C   0  0  0  0  0  0  0  0  0  0  0  0
  -28.2277  -12.4236   18.4321 C   0  0  0  0  0  0  0  0  0  0  0  0
  -23.8846  -17.5928   20.5115 C   0  0  0  0  0  0  0  0  0  0  0  0
  -18.4973  -25.1279   20.7343 C   0  0  0  0  0  0  0  0  0  0  0  0
  -19.5380  -22.9476   20.7343 C   0  0  0  0  0  0  0  0  0  0  0  0
  -18.3967  -22.4029   21.3231 C   0  0  0  0  0  0  0  0  0  0  0  0
  -29.2937  -27.4146   20.8838 C   0  0  0  0  0  0  0  0  0  0  0  0
  -21.4812  -17.5537   20.8753 C   0  0  0  0  0  0  0  0  0  0  0  0
  -31.0681  -26.5081   19.6380 C   0  0  0  0  0  0  0  0  0  0  0  0
  -32.3107  -26.1289   17.1693 C   0  0  0  0  0  0  0  0  0  0  0  0
  -31.2706  -25.2171   19.1501 C   0  0  0  0  0  0  0  0  0  0  0  0
  -25.6969  -29.6410   20.9472 C   0  0  0  0  0  0  0  0  0  0  0  0
  -24.1396  -31.1583   20.6194 C   0  0  0  0  0  0  0  0  0  0  0  0
  -26.2860  -31.6315   19.4287 C   0  0  0  0  0  0  0  0  0  0  0  0
  -26.2666  -15.3241   19.6132 C   0  0  0  0  0  0  0  0  0  0  0  0
  -27.6629  -18.1607   20.3384 C   0  0  0  0  0  0  0  0  0  0  0  0
  -27.2988  -21.3749   21.4263 C   0  0  0  0  0  0  0  0  0  0  0  0
  -19.4836  -27.8200   22.3595 C   0  0  0  0  0  0  0  0  0  0  0  0
  -30.4851  -12.4496   19.6130 C   0  0  0  0  0  0  0  0  0  0  0  0
  -24.8579  -16.9340   18.2792 C   0  0  0  0  0  0  0  0  0  0  0  0
  -25.2617  -17.8689   21.0555 C   0  0  0  0  0  0  0  0  0  0  0  0
  -29.8993  -13.5288   20.5199 C   0  0  0  0  0  0  0  0  0  0  0  0
  -20.9436  -30.5446   24.1264 C   0  0  0  0  0  0  0  0  0  0  0  0
  -28.4365  -13.2286   20.8309 C   0  0  0  0  0  0  0  0  0  0  0  0
  -22.3037  -30.7312   23.4518 C   0  0  0  0  0  0  0  0  0  0  0  0
  -20.5531  -29.0706   24.2111 C   0  0  0  0  0  0  0  0  0  0  0  0
  -21.9488  -28.5325   22.2525 C   0  0  0  0  0  0  0  0  0  0  0  0
  -19.1679  -20.2587   22.4953 C   0  0  0  0  0  0  0  0  0  0  0  0
  -27.5912  -13.2187   19.5515 C   0  0  1  0  0  0  0  0  0  0  0  0
  -26.1702  -16.7020   19.0219 C   0  0  1  0  0  0  0  0  0  0  0  0
  -22.3602  -30.0062   22.0937 C   0  0  2  0  0  0  0  0  0  0  0  0
  -18.3855  -18.9984   22.0707 C   0  0  2  0  0  0  0  0  0  0  0  0
  -17.3220  -20.0092   21.4701 C   0  0  0  0  0  0  0  0  0  0  0  0
  -20.7208  -22.0947   20.4085 C   0  0  0  0  0  0  0  0  0  0  0  0
  -17.9364  -18.1292   23.2471 C   0  0  0  0  0  0  0  0  0  0  0  0
  -16.9422  -19.7543   20.0117 C   0  0  0  0  0  0  0  0  0  0  0  0
  -16.0887  -20.3023   22.3293 C   0  0  0  0  0  0  0  0  0  0  0  0
  -28.6259  -23.4386   21.9529 C   0  0  0  0  0  0  0  0  0  0  0  0
  -28.5965  -16.8907   22.9510 C   0  0  0  0  0  0  0  0  0  0  0  0
  -29.0612  -19.1914   23.8222 C   0  0  0  0  0  0  0  0  0  0  0  0
  -30.2977  -18.3409   21.8297 C   0  0  0  0  0  0  0  0  0  0  0  0
  -25.8805  -22.9539   19.3638 C   0  0  0  0  0  0  0  0  0  0  0  0
  -18.5506  -26.5847   20.4197 C   0  0  0  0  0  0  0  0  0  0  0  0
  -19.1864  -18.1449   21.0756 C   0  0  0  0  0  0  0  0  0  1  0  0
  -27.8582  -18.9643   21.6014 C   0  0  1  0  0  0  0  0  0  0  0  0
  -27.8402  -22.6875   20.8893 C   0  0  2  0  0  0  0  0  0  0  0  0
  -28.9274  -18.3399   22.5417 C   0  0  0  0  0  0  0  0  0  0  0  0
  -24.6522  -29.2070   21.6573 N   0  0  0  0  0  0  0  0  0  0  0  0
  -23.7211  -30.1510   21.4381 N   0  0  0  0  0  0  0  0  0  0  0  0
  -18.3282  -21.0288   21.6275 N   0  0  3  0  0  0  0  0  0  0  0  0
  -26.3753  -17.6520   20.1172 N   0  0  0  0  0  0  0  0  0  0  0  0
  -20.6258  -28.4421   22.8899 N   0  0  0  0  0  0  0  0  0  0  0  0
  -23.3293  -32.1881   20.2947 N   0  0  0  0  0  0  0  0  0  0  0  0
  -27.5875  -31.1723   19.1844 N   0  0  0  0  0  0  0  0  0  0  0  0
  -27.3145  -14.5715   19.1181 N   0  0  0  0  0  0  0  0  0  0  0  0
  -28.1592  -20.3269   21.1758 N   0  0  0  0  0  0  0  0  0  0  0  0
  -19.6369  -27.2546   21.0995 N   0  0  0  0  0  0  0  0  0  0  0  0
  -26.7227  -23.5587   20.4277 N   0  3  0  0  0  0  0  0  0  0  0  0
  -25.9092  -32.7114   18.9137 O   0  0  0  0  0  0  0  0  0  0  0  0
  -25.4517  -14.9703   20.4572 O   0  0  0  0  0  0  0  0  0  0  0  0
  -28.6160  -17.9967   19.5726 O   0  0  0  0  0  0  0  0  0  0  0  0
  -26.2222  -21.2885   22.0128 O   0  0  0  0  0  0  0  0  0  0  0  0
  -18.4055  -27.7767   22.9618 O   0  0  0  0  0  0  0  0  0  0  0  0
  -30.4507  -26.6980   20.8629 O   0  0  0  0  0  0  0  0  0  0  0  0
  -20.4121  -17.7541   21.6930 O   0  0  0  0  0  0  0  0  0  1  0  0
  -32.9060  -25.9470   15.9832 F   0  0  0  0  0  0  0  0  0  0  0  0
  -30.8693  -24.1552   19.8622 F   0  0  0  0  0  0  0  0  0  0  0  0
  1  2  1  0  0  0  0
  1  5  2  0  0  0  0
  2  6  2  0  0  0  0
  3 10  2  0  0  0  0
  3 18  1  0  0  0  0
  4 11  1  0  0  0  0
  4 18  2  0  0  0  0
  5 20  1  0  0  0  0
  6 22  1  0  0  0  0
  7 12  2  0  0  0  0
  7 21  1  0  0  0  0
  8  9  2  0  0  0  0
  8 24  1  0  0  0  0
  9 26  1  0  0  0  0
 10 27  1  0  0  0  0
 11 27  2  0  0  0  0
 12 28  1  0  0  0  0
 13 14  2  0  0  0  0
 13 29  1  0  0  0  0
 14 30  1  0  0  0  0
 15 23  1  0  0  0  0
 15 28  2  0  0  0  0
 16 24  2  0  0  0  0
 16 25  1  0  0  0  0
 17 30  2  0  0  0  0
 17 31  1  0  0  0  0
 18 32  1  0  0  0  0
 19 32  1  0  0  0  0
 19 33  2  0  0  0  0
 19 34  1  0  0  0  0
 20 22  2  0  0  0  0
 20 39  1  0  0  0  0
 21 23  2  0  0  0  0
 21 40  1  0  0  0  0
 22 49  1  0  0  0  0
 23 41  1  0  0  0  0
 24 63  1  0  0  0  0
 25 26  2  0  0  0  0
 25 54  1  0  0  0  0
 26 70  1  0  0  0  0
 27 84  1  0  0  0  0
 28 85  1  0  0  0  0
 29 31  2  0  0  0  0
 29 84  1  0  0  0  0
 30 86  1  0  0  0  0
 31 87  1  0  0  0  0
 32 68  2  0  0  0  0
 33 69  1  0  0  0  0
 33 73  1  0  0  0  0
 34 74  1  0  0  0  0
 34 79  2  0  0  0  0
 35 50  1  0  0  0  0
 35 75  1  0  0  0  0
 35 80  2  0  0  0  0
 36 65  1  0  0  0  0
 36 71  1  0  0  0  0
 36 81  2  0  0  0  0
 37 66  1  0  0  0  0
 37 76  1  0  0  0  0
 37 82  2  0  0  0  0
 38 72  1  0  0  0  0
 38 77  1  0  0  0  0
 38 83  2  0  0  0  0
 39 42  1  0  0  0  0
 40 50  1  0  0  0  0
 41 71  1  0  0  0  0
 42 44  1  0  0  0  0
 43 45  1  0  0  0  0
 43 46  1  0  0  0  0
 44 49  1  0  0  0  0
 45 51  1  0  0  0  0
 46 72  1  0  0  0  0
 47 51  1  0  0  0  0
 47 72  1  0  0  0  0
 48 52  1  0  0  0  0
 48 70  1  0  0  0  0
 49 75  1  0  0  0  0
 50 71  1  0  0  0  0
 51 69  1  0  0  0  0
 52 53  1  0  0  0  0
 52 55  1  0  0  0  0
 52 64  1  0  0  0  0
 53 56  1  0  0  0  0
 53 57  1  0  0  0  0
 53 70  1  0  0  0  0
 58 66  1  0  0  0  0
 59 67  1  0  0  0  0
 60 67  1  0  0  0  0
 61 67  1  0  0  0  0
 62 78  1  0  0  0  0
 63 77  1  0  0  0  0
 64 85  1  0  0  0  0
 65 67  1  0  0  0  0
 65 76  1  0  0  0  0
 66 78  1  0  0  0  0
 68 69  1  0  0  0  0
M  CHG  1  78   1
M  ISO  4  38 100  64 101  77 100  85 101
M  END
> <Batch ID>
0140

> <Smiles>
CNC(C)C(=O)NC(C(=O)N1Cc2cc([101O:1][101CH2:1]C3(C)CN(c4ccc(C[100NH:0][100C:0](=O)N5CCCC(n6nc(-c7ccc(Oc8ccc(F)cc8F)cc7)c(C(N)=O)c6N)C5)cc4C)C3(C)C)ccc2CC1C(=O)NC1CCCc2ccccc21)C(C)(C)C

> <Shape>
0.254

> <Color>
0.057

> <Negative vol penalty>
0.000

$$$$

  -OEChem-04052302513D

 90 99  0     1  0  0  0  0  0999 V2000
  -17.3310  -33.0935   19.8802 C   0  0  0  0  0  0  0  0  0  0  0  0
  -18.6122  -33.2749   19.3693 C   0  0  0  0  0  0  0  0  0  0  0  0
  -26.1484  -12.4585   18.8821 C   0  0  0  0  0  0  0  0  0  0  0  0
  -26.4409  -11.7454   21.1718 C   0  0  0  0  0  0  0  0  0  0  0  0
  -17.1499  -32.8845   21.2467 C   0  0  0  0  0  0  0  0  0  0  0  0
  -19.7130  -33.2484   20.2249 C   0  0  0  0  0  0  0  0  0  0  0  0
  -25.0396  -28.4940   19.2686 C   0  0  0  0  0  0  0  0  0  0  0  0
  -24.8098  -12.0698   18.9319 C   0  0  0  0  0  0  0  0  0  0  0  0
  -25.1022  -11.3567   21.2217 C   0  0  0  0  0  0  0  0  0  0  0  0
  -26.1982  -27.7556   19.0267 C   0  0  0  0  0  0  0  0  0  0  0  0
  -23.2254   -8.7459   20.1765 C   0  0  0  0  0  0  0  0  0  0  0  0
  -22.9308   -7.5086   20.7490 C   0  0  0  0  0  0  0  0  0  0  0  0
  -30.5216  -20.9959   21.4559 C   0  0  0  0  0  0  0  0  0  0  0  0
  -27.2012  -28.6506   21.0369 C   0  0  0  0  0  0  0  0  0  0  0  0
  -29.4796  -22.5526   19.9303 C   0  0  0  0  0  0  0  0  0  0  0  0
  -29.6848  -20.2225   19.3256 C   0  0  0  0  0  0  0  0  0  0  0  0
  -21.5602   -8.6036   22.4102 C   0  0  0  0  0  0  0  0  0  0  0  0
  -26.9640  -12.2963   20.0020 C   0  0  0  0  0  0  0  0  0  0  0  0
  -29.3415  -12.2109   19.0811 C   0  0  0  0  0  0  0  0  0  0  0  0
  -18.2498  -32.8459   22.1181 C   0  0  0  0  0  0  0  0  0  0  0  0
  -24.9515  -29.3026   20.4052 C   0  0  0  0  0  0  0  0  0  0  0  0
  -19.5463  -33.0401   21.6045 C   0  0  0  0  0  0  0  0  0  0  0  0
  -30.1060  -22.2915   21.1489 C   0  0  0  0  0  0  0  0  0  0  0  0
  -26.0385  -29.3829   21.2911 C   0  0  0  0  0  0  0  0  0  0  0  0
  -30.3111  -19.9614   20.5442 C   0  0  0  0  0  0  0  0  0  0  0  0
  -24.2866  -11.5189   20.1018 C   0  0  0  0  0  0  0  0  0  0  0  0
  -27.2764  -27.8340   19.9085 C   0  0  0  0  0  0  0  0  0  0  0  0
  -22.6875   -9.9121   20.7209 C   0  0  0  0  0  0  0  0  0  0  0  0
  -22.0982   -7.4374   21.8658 C   0  0  0  0  0  0  0  0  0  0  0  0
  -29.2690  -21.5181   19.0185 C   0  0  0  0  0  0  0  0  0  0  0  0
  -21.8549   -9.8410   21.8377 C   0  0  0  0  0  0  0  0  0  0  0  0
  -28.3471  -12.6971   19.9509 C   0  0  0  0  0  0  0  0  0  0  0  0
  -30.4738  -12.9045   19.4322 C   0  0  0  0  0  0  0  0  0  0  0  0
  -29.2498  -11.2209   18.0481 C   0  0  0  0  0  0  0  0  0  0  0  0
  -29.8871  -25.3928   20.5124 C   0  0  0  0  0  0  0  0  0  0  0  0
  -22.8731  -31.6689   22.4442 C   0  0  0  0  0  0  0  0  0  0  0  0
  -24.3344  -29.8351   24.4222 C   0  0  0  0  0  0  0  0  0  0  0  0
  -25.2775  -27.9377   27.0956 C   0  0  0  0  0  0  0  0  0  0  0  0
  -31.3698  -18.2155   22.0198 C   0  0  0  0  0  0  0  0  0  0  0  0
  -18.0003  -32.6641   23.5944 C   0  0  0  0  0  0  0  0  0  0  0  0
  -23.7465  -30.1629   20.6733 C   0  0  0  0  0  0  0  0  0  0  0  0
  -25.9120  -30.2926   22.4825 C   0  0  0  0  0  0  0  0  0  0  0  0
  -19.2504  -32.2766   24.3802 C   0  0  0  0  0  0  0  0  0  0  0  0
  -32.7673  -23.5829   22.0883 C   0  0  0  0  0  0  0  0  0  0  0  0
  -32.5350  -15.0576   23.1805 C   0  0  0  0  0  0  0  0  0  0  0  0
  -20.4268  -33.1625   23.9827 C   0  0  0  0  0  0  0  0  0  0  0  0
  -32.2239  -24.7628   21.2822 C   0  0  0  0  0  0  0  0  0  0  0  0
  -31.6880  -14.0496   22.4004 C   0  0  0  0  0  0  0  0  0  0  0  0
  -31.6132  -23.1233   22.9792 C   0  0  0  0  0  0  0  0  0  0  0  0
  -31.7312  -16.2998   23.5607 C   0  0  0  0  0  0  0  0  0  0  0  0
  -30.1985  -15.9535   21.6634 C   0  0  0  0  0  0  0  0  0  0  0  0
  -20.7675  -32.9934   22.4971 C   0  0  1  0  0  0  0  0  0  0  0  0
  -30.7321  -24.8429   21.6204 C   0  0  2  0  0  0  0  0  0  0  0  0
  -23.4244  -30.3001   22.1722 C   0  0  1  0  0  0  0  0  0  0  0  0
  -30.9826  -14.7142   21.2020 C   0  0  2  0  0  0  0  0  0  0  0  0
  -30.3380  -23.4358   22.1571 C   0  0  1  0  0  0  0  0  0  0  0  0
  -25.6315  -28.0679   29.5766 C   0  0  0  0  0  0  0  0  0  0  0  0
  -28.8912  -22.2746   23.8559 C   0  0  0  0  0  0  0  0  0  0  0  0
  -27.8677  -23.9010   22.2454 C   0  0  0  0  0  0  0  0  0  0  0  0
  -29.3612  -24.7271   24.0821 C   0  0  0  0  0  0  0  0  0  0  0  0
  -26.9532  -31.3311   23.9663 C   0  0  0  0  0  0  0  0  0  0  0  0
  -27.6840  -30.6029   26.2476 C   0  0  0  0  0  0  0  0  0  0  0  0
  -25.6745  -32.0581   25.9888 C   0  0  0  0  0  0  0  0  0  0  0  0
  -23.2157  -25.8789   27.6148 C   0  0  0  0  0  0  0  0  0  0  0  0
  -29.1574  -26.6866   20.8045 C   0  0  0  0  0  0  0  0  0  1  0  0
  -25.5426  -29.6290   25.3003 C   0  0  1  0  0  0  0  0  0  0  0  0
  -24.6487  -27.7406   28.4632 C   0  0  2  0  0  0  0  0  0  0  0  0
  -29.1130  -23.5848   23.0862 C   0  0  0  0  0  0  0  0  0  0  0  0
  -26.4559  -30.8861   25.3562 C   0  0  0  0  0  0  0  0  0  0  0  0
  -28.8073  -13.6275   20.7914 N   0  0  0  0  0  0  0  0  0  0  0  0
  -30.1033  -13.7315   20.4515 N   0  0  0  0  0  0  0  0  0  0  0  0
  -24.5748  -30.1545   23.0803 N   0  0  0  0  0  0  0  0  0  0  0  0
  -31.0951  -16.8779   22.3750 N   0  0  0  0  0  0  0  0  0  0  0  0
  -31.7403  -12.8815   18.9654 N   0  0  0  0  0  0  0  0  0  0  0  0
  -28.0110  -10.6066   17.8193 N   0  0  0  0  0  0  0  0  0  0  0  0
  -30.7335  -18.6452   20.8557 N   0  0  0  0  0  0  0  0  0  0  0  0
  -21.5040  -31.7660   22.2840 N   0  0  0  0  0  0  0  0  0  0  0  0
  -25.0350  -29.2010   26.5993 N   0  0  0  0  0  0  0  0  0  0  0  0
  -24.2032  -26.3282   28.6297 N   0  3  0  0  0  0  0  0  0  0  0  0
  -30.2411  -10.8789   17.3596 O   0  0  0  0  0  0  0  0  0  0  0  0
  -29.7987  -24.8159   19.4295 O   0  0  0  0  0  0  0  0  0  0  0  0
  -23.6328  -32.5711   22.7765 O   0  0  0  0  0  0  0  0  0  0  0  0
  -23.2069  -29.7222   24.9114 O   0  0  0  0  0  0  0  0  0  0  0  0
  -25.9228  -27.0601   26.5264 O   0  0  0  0  0  0  0  0  0  0  0  0
  -32.1361  -18.9188   22.6831 O   0  0  0  0  0  0  0  0  0  0  0  0
  -22.9804  -11.1397   20.1509 O   0  0  0  0  0  0  0  0  0  0  0  0
  -28.4028  -27.1070   19.6687 O   0  0  0  0  0  0  0  0  0  1  0  0
  -21.8140   -6.2490   22.4146 F   0  0  0  0  0  0  0  0  0  0  0  0
  -28.6675  -21.7689   17.8483 F   0  0  0  0  0  0  0  0  0  0  0  0
  -21.3342  -10.9578   22.3644 F   0  0  0  0  0  0  0  0  0  0  0  0
  1  2  1  0  0  0  0
  1  5  2  0  0  0  0
  2  6  2  0  0  0  0
  3  8  2  0  0  0  0
  3 18  1  0  0  0  0
  4  9  1  0  0  0  0
  4 18  2  0  0  0  0
  5 20  1  0  0  0  0
  6 22  1  0  0  0  0
  7 10  2  0  0  0  0
  7 21  1  0  0  0  0
  8 26  1  0  0  0  0
  9 26  2  0  0  0  0
 10 27  1  0  0  0  0
 11 12  2  0  0  0  0
 11 28  1  0  0  0  0
 12 29  1  0  0  0  0
 13 23  2  0  0  0  0
 13 25  1  0  0  0  0
 14 24  1  0  0  0  0
 14 27  2  0  0  0  0
 15 23  1  0  0  0  0
 15 30  2  0  0  0  0
 16 25  2  0  0  0  0
 16 30  1  0  0  0  0
 17 29  2  0  0  0  0
 17 31  1  0  0  0  0
 18 32  1  0  0  0  0
 19 32  1  0  0  0  0
 19 33  2  0  0  0  0
 19 34  1  0  0  0  0
 20 22  2  0  0  0  0
 20 40  1  0  0  0  0
 21 24  2  0  0  0  0
 21 41  1  0  0  0  0
 22 52  1  0  0  0  0
 23 56  1  0  0  0  0
 24 42  1  0  0  0  0
 25 76  1  0  0  0  0
 26 86  1  0  0  0  0
 27 87  1  0  0  0  0
 28 31  2  0  0  0  0
 28 86  1  0  0  0  0
 29 88  1  0  0  0  0
 30 89  1  0  0  0  0
 31 90  1  0  0  0  0
 32 70  2  0  0  0  0
 33 71  1  0  0  0  0
 33 74  1  0  0  0  0
 34 75  1  0  0  0  0
 34 80  2  0  0  0  0
 35 53  1  0  0  0  0
 35 65  1  0  0  0  0
 35 81  2  0  0  0  0
 36 54  1  0  0  0  0
 36 77  1  0  0  0  0
 36 82  2  0  0  0  0
 37 66  1  0  0  0  0
 37 72  1  0  0  0  0
 37 83  2  0  0  0  0
 38 67  1  0  0  0  0
 38 78  1  0  0  0  0
 38 84  2  0  0  0  0
 39 73  1  0  0  0  0
 39 76  1  0  0  0  0
 39 85  2  0  0  0  0
 40 43  1  0  0  0  0
 41 54  1  0  0  0  0
 42 72  1  0  0  0  0
 43 46  1  0  0  0  0
 44 47  1  0  0  0  0
 44 49  1  0  0  0  0
 45 48  1  0  0  0  0
 45 50  1  0  0  0  0
 46 52  1  0  0  0  0
 47 53  1  0  0  0  0
 48 55  1  0  0  0  0
 49 56  1  0  0  0  0
 50 73  1  0  0  0  0
 51 55  1  0  0  0  0
 51 73  1  0  0  0  0
 52 77  1  0  0  0  0
 53 56  1  0  0  0  0
 54 72  1  0  0  0  0
 55 71  1  0  0  0  0
 56 68  1  0  0  0  0
 57 67  1  0  0  0  0
 58 68  1  0  0  0  0
 59 68  1  0  0  0  0
 60 68  1  0  0  0  0
 61 69  1  0  0  0  0
 62 69  1  0  0  0  0
 63 69  1  0  0  0  0
 64 79  1  0  0  0  0
 65 87  1  0  0  0  0
 66 69  1  0  0  0  0
 66 78  1  0  0  0  0
 67 79  1  0  0  0  0
 70 71  1  0  0  0  0
M  CHG  1  79   1
M  ISO  4  39 100  65 101  76 100  87 101
M  END
> <Batch ID>
0140

> <Smiles>
CNC(C)C(=O)NC(C(=O)N1Cc2cc([101O:1][101CH2:1]C(=O)C3CCCC3(c3cc(F)cc([100NH:0][100C:0](=O)N4CCCC(n5nc(-c6ccc(Oc7ccc(F)cc7F)cc6)c(C(N)=O)c5N)C4)c3)C(C)(C)C)ccc2CC1C(=O)NC1CCCc2ccccc21)C(C)(C)C

> <Shape>
0.300

> <Color>
0.104

> <Negative vol penalty>
0.000

$$$$

  -OEChem-04052302513D

 86 94  0     1  0  0  0  0  0999 V2000
  -36.4517  -17.2404   34.1196 C   0  0  0  0  0  0  0  0  0  0  0  0
  -35.4433  -18.0979   33.6914 C   0  0  0  0  0  0  0  0  0  0  0  0
  -23.0719   -9.8701   19.9444 C   0  0  0  0  0  0  0  0  0  0  0  0
  -23.8342   -9.8793   22.2370 C   0  0  0  0  0  0  0  0  0  0  0  0
  -36.7814  -16.1193   33.3592 C   0  0  0  0  0  0  0  0  0  0  0  0
  -34.7647  -17.8351   32.5018 C   0  0  0  0  0  0  0  0  0  0  0  0
  -28.8623  -18.9490   31.3072 C   0  0  0  0  0  0  0  0  0  0  0  0
  -22.3283   -8.7172   20.1963 C   0  0  0  0  0  0  0  0  0  0  0  0
  -23.0906   -8.7264   22.4889 C   0  0  0  0  0  0  0  0  0  0  0  0
  -28.2211  -19.9903   30.6377 C   0  0  0  0  0  0  0  0  0  0  0  0
  -20.5140   -5.5662   20.1428 C   0  0  0  0  0  0  0  0  0  0  0  0
  -20.5763   -4.5348   19.2058 C   0  0  0  0  0  0  0  0  0  0  0  0
  -29.1213  -19.0577   24.4710 C   0  0  0  0  0  0  0  0  0  0  0  0
  -30.1814  -18.2288   24.0028 C   0  0  0  0  0  0  0  0  0  0  0  0
  -28.1917  -18.6674   28.6207 C   0  0  0  0  0  0  0  0  0  0  0  0
  -22.9614   -4.3650   19.5512 C   0  0  0  0  0  0  0  0  0  0  0  0
  -23.8249  -10.4511   20.9648 C   0  0  0  0  0  0  0  0  0  0  0  0
  -24.1667  -12.9762   20.8420 C   0  0  0  0  0  0  0  0  0  0  0  0
  -36.0999  -15.8374   32.1647 C   0  0  0  0  0  0  0  0  0  0  0  0
  -29.1834  -17.7612   30.6345 C   0  0  0  0  0  0  0  0  0  0  0  0
  -35.0865  -16.7099   31.7241 C   0  0  0  0  0  0  0  0  0  0  0  0
  -28.8347  -17.6115   29.2847 C   0  0  0  0  0  0  0  0  0  0  0  0
  -22.3376   -8.1454   21.4685 C   0  0  0  0  0  0  0  0  0  0  0  0
  -27.8883  -19.8507   29.2935 C   0  0  0  0  0  0  0  0  0  0  0  0
  -21.6755   -5.9970   20.7840 C   0  0  0  0  0  0  0  0  0  0  0  0
  -21.8000   -3.9343   18.9100 C   0  0  0  0  0  0  0  0  0  0  0  0
  -22.8992   -5.3964   20.4882 C   0  0  0  0  0  0  0  0  0  0  0  0
  -24.5938  -11.6418   20.7051 C   0  0  0  0  0  0  0  0  0  0  0  0
  -28.1252  -19.2041   23.5309 C   0  0  0  0  0  0  0  0  0  0  0  0
  -29.9550  -17.7730   22.7226 C   0  0  0  0  0  0  0  0  0  0  0  0
  -25.2584  -13.7253   20.4768 C   0  0  0  0  0  0  0  0  0  0  0  0
  -22.8966  -13.4924   21.2618 C   0  0  0  0  0  0  0  0  0  0  0  0
  -31.8844  -16.2349   29.9426 C   0  0  0  0  0  0  0  0  0  0  0  0
  -29.8568  -13.9519   28.8476 C   0  0  0  0  0  0  0  0  0  0  0  0
  -26.7644  -13.1610   27.6401 C   0  0  0  0  0  0  0  0  0  0  0  0
  -27.0730  -21.2106   26.2790 C   0  0  0  0  0  0  0  0  0  0  0  0
  -30.7424  -14.7444   20.6584 C   0  0  0  0  0  0  0  0  0  0  0  0
  -36.5238  -14.6393   31.3525 C   0  0  0  0  0  0  0  0  0  0  0  0
  -29.8512  -16.6371   31.3780 C   0  0  0  0  0  0  0  0  0  0  0  0
  -29.1392  -16.3487   28.5224 C   0  0  0  0  0  0  0  0  0  0  0  0
  -35.5021  -14.2276   30.2957 C   0  0  0  0  0  0  0  0  0  0  0  0
  -29.6022  -12.3577   18.2751 C   0  0  0  0  0  0  0  0  0  0  0  0
  -35.0126  -15.4479   29.5223 C   0  0  0  0  0  0  0  0  0  0  0  0
  -28.1652  -12.0644   18.7098 C   0  0  0  0  0  0  0  0  0  0  0  0
  -30.5206  -12.5796   19.4748 C   0  0  0  0  0  0  0  0  0  0  0  0
  -28.6204  -13.3120   20.8627 C   0  0  0  0  0  0  0  0  0  0  0  0
  -34.3107  -16.4451   30.4520 C   0  0  1  0  0  0  0  0  0  0  0  0
  -30.5916  -15.6699   30.4594 C   0  0  1  0  0  0  0  0  0  0  0  0
  -27.6450  -13.1364   19.6863 C   0  0  2  0  0  0  0  0  0  0  0  0
  -25.4161  -11.2197   26.7970 C   0  0  0  0  0  0  0  0  0  0  0  0
  -28.1697  -22.8967   27.7746 C   0  0  0  0  0  0  0  0  0  0  0  0
  -31.3755  -14.0488   26.2029 C   0  0  0  0  0  0  0  0  0  0  0  0
  -29.4566  -12.8446   25.1370 C   0  0  0  0  0  0  0  0  0  0  0  0
  -30.7535  -11.7495   26.9651 C   0  0  0  0  0  0  0  0  0  0  0  0
  -25.7213  -22.2743   24.0311 C   0  0  0  0  0  0  0  0  0  0  0  0
  -27.9106  -22.1240   22.8339 C   0  0  0  0  0  0  0  0  0  0  0  0
  -24.7615  -13.4657   29.7975 C   0  0  0  0  0  0  0  0  0  0  0  0
  -26.8398  -19.9968   23.6357 C   0  0  0  0  0  0  0  0  0  0  0  0
  -30.8096  -16.8962   21.8932 C   0  0  0  0  0  0  0  0  0  0  0  0
  -29.1922  -13.6578   27.5244 C   0  0  1  0  0  0  0  0  0  0  0  0
  -25.7906  -12.0568   28.0102 C   0  0  2  0  0  0  0  0  0  0  0  0
  -27.9352  -21.4202   27.5073 C   0  0  1  0  0  0  0  0  0  1  0  0
  -30.1903  -13.0998   26.4709 C   0  0  0  0  0  0  0  0  0  0  0  0
  -27.0378  -21.5008   23.9310 C   0  0  0  0  0  0  0  0  0  0  0  0
  -25.8582  -11.5455   20.2855 N   0  0  0  0  0  0  0  0  0  0  0  0
  -26.2349  -12.8290   20.1556 N   0  0  0  0  0  0  0  0  0  0  0  0
  -29.7986  -15.2805   29.2916 N   0  0  0  0  0  0  0  0  0  0  0  0
  -29.9710  -13.6090   20.3604 N   0  0  0  0  0  0  0  0  0  0  0  0
  -25.4688  -15.0567   20.4023 N   0  0  0  0  0  0  0  0  0  0  0  0
  -21.8851  -12.5836   21.6010 N   0  0  0  0  0  0  0  0  0  0  0  0
  -32.9714  -15.9920   30.7605 N   0  0  0  0  0  0  0  0  0  0  0  0
  -28.0740  -12.7680   27.8182 N   0  0  0  0  0  0  0  0  0  0  0  0
  -30.1442  -15.6741   21.5002 N   0  0  0  0  0  0  0  0  0  0  0  0
  -24.5436  -12.6368   28.5841 N   0  3  0  0  0  0  0  0  0  0  0  0
  -22.6605  -14.7231   21.3182 O   0  0  0  0  0  0  0  0  0  0  0  0
  -31.8952  -16.8448   28.8798 O   0  0  0  0  0  0  0  0  0  0  0  0
  -30.4012  -13.0351   29.4679 O   0  0  0  0  0  0  0  0  0  0  0  0
  -26.3998  -14.2608   27.2302 O   0  0  0  0  0  0  0  0  0  0  0  0
  -25.9657  -20.6886   26.2895 O   0  0  0  0  0  0  0  0  0  0  0  0
  -31.8779  -14.9195   20.2034 O   0  0  0  0  0  0  0  0  0  0  0  0
  -21.6119   -7.0205   21.7147 O   0  0  0  0  0  0  0  0  0  0  0  0
  -27.2630  -20.8658   28.6374 O   0  0  0  0  0  0  0  0  0  1  0  0
  -27.7313  -21.6647   25.1722 O   0  0  0  0  0  0  0  0  0  0  0  0
  -21.8594   -2.9428   18.0112 F   0  0  0  0  0  0  0  0  0  0  0  0
  -24.0182   -5.8052   21.1018 F   0  0  0  0  0  0  0  0  0  0  0  0
  -28.4696  -18.3443   22.0906 S   0  0  0  0  0  0  0  0  0  0  0  0
  1  2  1  0  0  0  0
  1  5  2  0  0  0  0
  2  6  2  0  0  0  0
  3  8  2  0  0  0  0
  3 17  1  0  0  0  0
  4  9  1  0  0  0  0
  4 17  2  0  0  0  0
  5 19  1  0  0  0  0
  6 21  1  0  0  0  0
  7 10  2  0  0  0  0
  7 20  1  0  0  0  0
  8 23  1  0  0  0  0
  9 23  2  0  0  0  0
 10 24  1  0  0  0  0
 11 12  2  0  0  0  0
 11 25  1  0  0  0  0
 12 26  1  0  0  0  0
 13 14  1  0  0  0  0
 13 29  2  0  0  0  0
 14 30  2  0  0  0  0
 15 22  1  0  0  0  0
 15 24  2  0  0  0  0
 16 26  2  0  0  0  0
 16 27  1  0  0  0  0
 17 28  1  0  0  0  0
 18 28  1  0  0  0  0
 18 31  2  0  0  0  0
 18 32  1  0  0  0  0
 19 21  2  0  0  0  0
 19 38  1  0  0  0  0
 20 22  2  0  0  0  0
 20 39  1  0  0  0  0
 21 47  1  0  0  0  0
 22 40  1  0  0  0  0
 23 81  1  0  0  0  0
 24 82  1  0  0  0  0
 25 27  2  0  0  0  0
 25 81  1  0  0  0  0
 26 84  1  0  0  0  0
 27 85  1  0  0  0  0
 28 65  2  0  0  0  0
 29 58  1  0  0  0  0
 29 86  1  0  0  0  0
 30 59  1  0  0  0  0
 30 86  1  0  0  0  0
 31 66  1  0  0  0  0
 31 69  1  0  0  0  0
 32 70  1  0  0  0  0
 32 75  2  0  0  0  0
 33 48  1  0  0  0  0
 33 71  1  0  0  0  0
 33 76  2  0  0  0  0
 34 60  1  0  0  0  0
 34 67  1  0  0  0  0
 34 77  2  0  0  0  0
 35 61  1  0  0  0  0
 35 72  1  0  0  0  0
 35 78  2  0  0  0  0
 36 62  1  0  0  0  0
 36 79  2  0  0  0  0
 36 83  1  0  0  0  0
 37 68  1  0  0  0  0
 37 73  1  0  0  0  0
 37 80  2  0  0  0  0
 38 41  1  0  0  0  0
 39 48  1  0  0  0  0
 40 67  1  0  0  0  0
 41 43  1  0  0  0  0
 42 44  1  0  0  0  0
 42 45  1  0  0  0  0
 43 47  1  0  0  0  0
 44 49  1  0  0  0  0
 45 68  1  0  0  0  0
 46 49  1  0  0  0  0
 46 68  1  0  0  0  0
 47 71  1  0  0  0  0
 48 67  1  0  0  0  0
 49 66  1  0  0  0  0
 50 61  1  0  0  0  0
 51 62  1  0  0  0  0
 52 63  1  0  0  0  0
 53 63  1  0  0  0  0
 54 63  1  0  0  0  0
 55 64  1  0  0  0  0
 56 64  1  0  0  0  0
 57 74  1  0  0  0  0
 58 64  1  0  0  0  0
 59 73  1  0  0  0  0
 60 63  1  0  0  0  0
 60 72  1  0  0  0  0
 61 74  1  0  0  0  0
 62 82  1  0  0  0  0
 64 83  1  0  0  0  0
 65 66  1  0  0  0  0
M  CHG  1  74   1
M  ISO  4  37 100  62 101  73 100  82 101
M  END
> <Batch ID>
0140

> <Smiles>
CNC(C)C(=O)NC(C(=O)N1Cc2cc([101O:1][101CH:1](C)C(=O)OC(C)(C)Cc3ccc(C[100NH:0][100C:0](=O)N4CCCC(n5nc(-c6ccc(Oc7ccc(F)cc7F)cc6)c(C(N)=O)c5N)C4)s3)ccc2CC1C(=O)NC1CCCc2ccccc21)C(C)(C)C

> <Shape>
0.151

> <Color>
0.191

> <Negative vol penalty>
0.000

$$$$

  -OEChem-04052302513D

 87 95  0     1  0  0  0  0  0999 V2000
  -24.0466  -19.9419   17.2935 C   0  0  0  0  0  0  0  0  0  0  0  0
  -25.0405  -20.2129   18.2285 C   0  0  0  0  0  0  0  0  0  0  0  0
  -23.0717   -9.8732   19.9412 C   0  0  0  0  0  0  0  0  0  0  0  0
  -23.8342   -9.8719   22.2338 C   0  0  0  0  0  0  0  0  0  0  0  0
  -24.0993  -20.5314   16.0311 C   0  0  0  0  0  0  0  0  0  0  0  0
  -26.0882  -21.0729   17.9013 C   0  0  0  0  0  0  0  0  0  0  0  0
  -27.1019  -24.3914   21.5897 C   0  0  0  0  0  0  0  0  0  0  0  0
  -32.6863  -17.4464   23.4469 C   0  0  0  0  0  0  0  0  0  0  0  0
  -32.0774  -16.5734   22.5454 C   0  0  0  0  0  0  0  0  0  0  0  0
  -22.3257   -8.7209   20.1886 C   0  0  0  0  0  0  0  0  0  0  0  0
  -23.0881   -8.7195   22.4812 C   0  0  0  0  0  0  0  0  0  0  0  0
  -27.8341  -23.9263   22.6812 C   0  0  0  0  0  0  0  0  0  0  0  0
  -19.8590   -7.9267   23.0850 C   0  0  0  0  0  0  0  0  0  0  0  0
  -19.1033   -7.8849   24.2566 C   0  0  0  0  0  0  0  0  0  0  0  0
  -29.8314  -24.9103   21.7528 C   0  0  0  0  0  0  0  0  0  0  0  0
  -30.5199  -18.3200   24.0640 C   0  0  0  0  0  0  0  0  0  0  0  0
  -20.3415   -5.9427   24.9860 C   0  0  0  0  0  0  0  0  0  0  0  0
  -23.8260  -10.4487   20.9638 C   0  0  0  0  0  0  0  0  0  0  0  0
  -24.1730  -12.9735   20.8508 C   0  0  0  0  0  0  0  0  0  0  0  0
  -25.1430  -21.4067   15.6916 C   0  0  0  0  0  0  0  0  0  0  0  0
  -27.7321  -25.1113   20.5645 C   0  0  0  0  0  0  0  0  0  0  0  0
  -26.1556  -21.6737   16.6327 C   0  0  0  0  0  0  0  0  0  0  0  0
  -29.1044  -25.3856   20.6507 C   0  0  0  0  0  0  0  0  0  0  0  0
  -31.9075  -18.3197   24.2063 C   0  0  0  0  0  0  0  0  0  0  0  0
  -29.9111  -17.4470   23.1625 C   0  0  0  0  0  0  0  0  0  0  0  0
  -30.6898  -16.5737   22.4031 C   0  0  0  0  0  0  0  0  0  0  0  0
  -22.3339   -8.1441   21.4586 C   0  0  0  0  0  0  0  0  0  0  0  0
  -29.1996  -24.1832   22.7614 C   0  0  0  0  0  0  0  0  0  0  0  0
  -20.8559   -6.9764   22.8638 C   0  0  0  0  0  0  0  0  0  0  0  0
  -19.3445   -6.8929   25.2071 C   0  0  0  0  0  0  0  0  0  0  0  0
  -21.0972   -5.9845   23.8143 C   0  0  0  0  0  0  0  0  0  0  0  0
  -24.5973  -11.6387   20.7087 C   0  0  0  0  0  0  0  0  0  0  0  0
  -25.2663  -13.7217   20.4885 C   0  0  0  0  0  0  0  0  0  0  0  0
  -22.9040  -13.4907   21.2727 C   0  0  0  0  0  0  0  0  0  0  0  0
  -28.1798  -24.6546   17.4509 C   0  0  0  0  0  0  0  0  0  0  0  0
  -31.7331  -21.4232   24.0931 C   0  0  0  0  0  0  0  0  0  0  0  0
  -29.4136  -27.6516   17.5851 C   0  0  0  0  0  0  0  0  0  0  0  0
  -30.8649  -30.1060   19.4604 C   0  0  0  0  0  0  0  0  0  0  0  0
  -30.7348  -14.7554   20.6601 C   0  0  0  0  0  0  0  0  0  0  0  0
  -25.1828  -21.9830   14.2984 C   0  0  0  0  0  0  0  0  0  0  0  0
  -26.9230  -25.6291   19.4071 C   0  0  0  0  0  0  0  0  0  0  0  0
  -29.8244  -26.1714   19.5865 C   0  0  0  0  0  0  0  0  0  0  0  0
  -26.1250  -23.1760   14.1595 C   0  0  0  0  0  0  0  0  0  0  0  0
  -29.6127  -12.3509   18.2860 C   0  0  0  0  0  0  0  0  0  0  0  0
  -27.4662  -22.8770   14.8216 C   0  0  0  0  0  0  0  0  0  0  0  0
  -28.1730  -12.0610   18.7164 C   0  0  0  0  0  0  0  0  0  0  0  0
  -30.5297  -12.5742   19.4873 C   0  0  0  0  0  0  0  0  0  0  0  0
  -28.6258  -13.2986   20.8728 C   0  0  0  0  0  0  0  0  0  0  0  0
  -27.2949  -22.6206   16.3238 C   0  0  1  0  0  0  0  0  0  0  0  0
  -27.7659  -25.9092   18.1667 C   0  0  1  0  0  0  0  0  0  0  0  0
  -27.6513  -13.1309   19.6956 C   0  0  2  0  0  0  0  0  0  0  0  0
  -27.9680  -18.1999   21.7680 C   0  0  0  0  0  0  0  0  0  0  0  0
  -31.7950  -32.4300   19.2838 C   0  0  0  0  0  0  0  0  0  0  0  0
  -33.6725  -21.5125   25.6982 C   0  0  0  0  0  0  0  0  0  0  0  0
  -33.9840  -20.4524   23.4789 C   0  0  0  0  0  0  0  0  0  0  0  0
  -31.9239  -26.5430   16.2511 C   0  0  0  0  0  0  0  0  0  0  0  0
  -33.1318  -28.6190   16.9577 C   0  0  0  0  0  0  0  0  0  0  0  0
  -31.1901  -28.7771   15.3997 C   0  0  0  0  0  0  0  0  0  0  0  0
  -28.8849  -31.1695   21.3859 C   0  0  0  0  0  0  0  0  0  0  0  0
  -32.5677  -19.2675   25.1815 C   0  0  0  0  0  0  0  0  0  0  0  0
  -28.4228  -17.4712   23.0285 C   0  0  0  0  0  0  0  0  0  0  0  0
  -30.6478  -21.8151   25.0949 C   0  0  0  0  0  0  0  0  0  0  0  0
  -29.4674  -22.5260   24.4461 C   0  0  0  0  0  0  0  0  0  1  0  0
  -30.7840  -28.2334   17.8352 C   0  0  1  0  0  0  0  0  0  0  0  0
  -30.5645  -31.5888   19.5853 C   0  0  2  0  0  0  0  0  0  0  0  0
  -32.9710  -20.6585   24.6224 C   0  0  0  0  0  0  0  0  0  0  0  0
  -31.7446  -28.0266   16.6302 C   0  0  0  0  0  0  0  0  0  0  0  0
  -25.8615  -11.5415   20.2887 N   0  0  0  0  0  0  0  0  0  0  0  0
  -26.2409  -12.8246   20.1637 N   0  0  0  0  0  0  0  0  0  0  0  0
  -28.9911  -26.6509   18.4716 N   0  0  0  0  0  0  0  0  0  0  0  0
  -29.9738  -13.6037   20.3683 N   0  0  0  0  0  0  0  0  0  0  0  0
  -25.4794  -15.0530   20.4192 N   0  0  0  0  0  0  0  0  0  0  0  0
  -21.8906  -12.5826   21.6084 N   0  0  0  0  0  0  0  0  0  0  0  0
  -30.0903  -15.6794   21.4820 N   0  0  0  0  0  0  0  0  0  0  0  0
  -27.1218  -23.8700   17.0333 N   0  0  0  0  0  0  0  0  0  0  0  0
  -30.5742  -29.6305   18.1992 N   0  0  0  0  0  0  0  0  0  0  0  0
  -30.1028  -31.9092   20.9656 N   0  3  0  0  0  0  0  0  0  0  0  0
  -22.6704  -14.7216   21.3339 O   0  0  0  0  0  0  0  0  0  0  0  0
  -29.3709  -24.4169   17.2881 O   0  0  0  0  0  0  0  0  0  0  0  0
  -31.6346  -21.7263   22.9015 O   0  0  0  0  0  0  0  0  0  0  0  0
  -28.7399  -28.0747   16.6424 O   0  0  0  0  0  0  0  0  0  0  0  0
  -31.3161  -29.4373   20.3877 O   0  0  0  0  0  0  0  0  0  0  0  0
  -31.8638  -14.9231   20.1917 O   0  0  0  0  0  0  0  0  0  0  0  0
  -21.6059   -7.0197   21.7005 O   0  0  0  0  0  0  0  0  0  0  0  0
  -29.9168  -23.7298   23.8253 O   0  0  0  0  0  0  0  0  0  1  0  0
  -18.6198   -6.8538   26.3329 F   0  0  0  0  0  0  0  0  0  0  0  0
  -22.0544   -5.0696   23.6079 F   0  0  0  0  0  0  0  0  0  0  0  0
  1  2  1  0  0  0  0
  1  5  2  0  0  0  0
  2  6  2  0  0  0  0
  3 10  2  0  0  0  0
  3 18  1  0  0  0  0
  4 11  1  0  0  0  0
  4 18  2  0  0  0  0
  5 20  1  0  0  0  0
  6 22  1  0  0  0  0
  7 12  2  0  0  0  0
  7 21  1  0  0  0  0
  8  9  2  0  0  0  0
  8 24  1  0  0  0  0
  9 26  1  0  0  0  0
 10 27  1  0  0  0  0
 11 27  2  0  0  0  0
 12 28  1  0  0  0  0
 13 14  2  0  0  0  0
 13 29  1  0  0  0  0
 14 30  1  0  0  0  0
 15 23  1  0  0  0  0
 15 28  2  0  0  0  0
 16 24  2  0  0  0  0
 16 25  1  0  0  0  0
 17 30  2  0  0  0  0
 17 31  1  0  0  0  0
 18 32  1  0  0  0  0
 19 32  1  0  0  0  0
 19 33  2  0  0  0  0
 19 34  1  0  0  0  0
 20 22  2  0  0  0  0
 20 40  1  0  0  0  0
 21 23  2  0  0  0  0
 21 41  1  0  0  0  0
 22 49  1  0  0  0  0
 23 42  1  0  0  0  0
 24 60  1  0  0  0  0
 25 26  2  0  0  0  0
 25 61  1  0  0  0  0
 26 74  1  0  0  0  0
 27 84  1  0  0  0  0
 28 85  1  0  0  0  0
 29 31  2  0  0  0  0
 29 84  1  0  0  0  0
 30 86  1  0  0  0  0
 31 87  1  0  0  0  0
 32 68  2  0  0  0  0
 33 69  1  0  0  0  0
 33 72  1  0  0  0  0
 34 73  1  0  0  0  0
 34 78  2  0  0  0  0
 35 50  1  0  0  0  0
 35 75  1  0  0  0  0
 35 79  2  0  0  0  0
 36 62  1  0  0  0  0
 36 66  1  0  0  0  0
 36 80  2  0  0  0  0
 37 64  1  0  0  0  0
 37 70  1  0  0  0  0
 37 81  2  0  0  0  0
 38 65  1  0  0  0  0
 38 76  1  0  0  0  0
 38 82  2  0  0  0  0
 39 71  1  0  0  0  0
 39 74  1  0  0  0  0
 39 83  2  0  0  0  0
 40 43  1  0  0  0  0
 41 50  1  0  0  0  0
 42 70  1  0  0  0  0
 43 45  1  0  0  0  0
 44 46  1  0  0  0  0
 44 47  1  0  0  0  0
 45 49  1  0  0  0  0
 46 51  1  0  0  0  0
 47 71  1  0  0  0  0
 48 51  1  0  0  0  0
 48 71  1  0  0  0  0
 49 75  1  0  0  0  0
 50 70  1  0  0  0  0
 51 69  1  0  0  0  0
 52 61  1  0  0  0  0
 53 65  1  0  0  0  0
 54 66  1  0  0  0  0
 55 66  1  0  0  0  0
 56 67  1  0  0  0  0
 57 67  1  0  0  0  0
 58 67  1  0  0  0  0
 59 77  1  0  0  0  0
 60 66  1  0  0  0  0
 62 63  1  0  0  0  0
 63 85  1  0  0  0  0
 64 67  1  0  0  0  0
 64 76  1  0  0  0  0
 65 77  1  0  0  0  0
 68 69  1  0  0  0  0
M  CHG  1  77   1
M  ISO  4  39 100  63 101  74 100  85 101
M  END
> <Batch ID>
0140

> <Smiles>
CCc1cc(CC(C)(C)C(=O)C[101CH2:1][101O:1]c2ccc3c(c2)CN(C(=O)C(NC(=O)C(C)NC)C(C)(C)C)C(C(=O)NC2CCCc4ccccc42)C3)ccc1[100NH:0][100C:0](=O)N1CCCC(n2nc(-c3ccc(Oc4ccc(F)cc4F)cc3)c(C(N)=O)c2N)C1

> <Shape>
0.210

> <Color>
0.188

> <Negative vol penalty>
0.000

$$$$

  -OEChem-04052302513D

 88 97  0     1  0  0  0  0  0999 V2000
  -24.8447  -37.4678   17.0858 C   0  0  0  0  0  0  0  0  0  0  0  0
  -24.8162  -36.1550   16.6264 C   0  0  0  0  0  0  0  0  0  0  0  0
  -23.0977   -9.8991   19.8176 C   0  0  0  0  0  0  0  0  0  0  0  0
  -24.0250   -9.6008   22.0286 C   0  0  0  0  0  0  0  0  0  0  0  0
  -31.1082  -19.2251   21.2490 C   0  0  0  0  0  0  0  0  0  0  0  0
  -25.4959  -37.7732   18.2802 C   0  0  0  0  0  0  0  0  0  0  0  0
  -25.4399  -35.1468   17.3606 C   0  0  0  0  0  0  0  0  0  0  0  0
  -24.8036  -28.1920   18.9547 C   0  0  0  0  0  0  0  0  0  0  0  0
  -30.9689  -17.8496   21.0638 C   0  0  0  0  0  0  0  0  0  0  0  0
  -22.4089   -8.6928   19.9438 C   0  0  0  0  0  0  0  0  0  0  0  0
  -23.3361   -8.3945   22.1548 C   0  0  0  0  0  0  0  0  0  0  0  0
  -25.5460  -27.0120   18.9430 C   0  0  0  0  0  0  0  0  0  0  0  0
  -20.1865   -7.3880   22.8530 C   0  0  0  0  0  0  0  0  0  0  0  0
  -19.5200   -7.1467   24.0542 C   0  0  0  0  0  0  0  0  0  0  0  0
  -29.6111  -19.1218   23.1425 C   0  0  0  0  0  0  0  0  0  0  0  0
  -26.5727  -27.6444   21.0323 C   0  0  0  0  0  0  0  0  0  0  0  0
  -20.8693   -5.1738   24.4066 C   0  0  0  0  0  0  0  0  0  0  0  0
  -23.9059  -10.3531   20.8600 C   0  0  0  0  0  0  0  0  0  0  0  0
  -30.4294  -19.8612   22.2884 C   0  0  0  0  0  0  0  0  0  0  0  0
  -24.1631  -12.8803   21.0940 C   0  0  0  0  0  0  0  0  0  0  0  0
  -26.1197  -36.7668   19.0343 C   0  0  0  0  0  0  0  0  0  0  0  0
  -24.9484  -29.1137   20.0015 C   0  0  0  0  0  0  0  0  0  0  0  0
  -26.1013  -35.4393   18.5655 C   0  0  0  0  0  0  0  0  0  0  0  0
  -25.8290  -28.8341   21.0562 C   0  0  0  0  0  0  0  0  0  0  0  0
  -29.4717  -17.7464   22.9572 C   0  0  0  0  0  0  0  0  0  0  0  0
  -30.1506  -17.1103   21.9179 C   0  0  0  0  0  0  0  0  0  0  0  0
  -22.5280   -7.9405   21.1124 C   0  0  0  0  0  0  0  0  0  0  0  0
  -26.4329  -26.7394   19.9804 C   0  0  0  0  0  0  0  0  0  0  0  0
  -21.1944   -6.5222   22.4284 C   0  0  0  0  0  0  0  0  0  0  0  0
  -19.8614   -6.0397   24.8311 C   0  0  0  0  0  0  0  0  0  0  0  0
  -21.5358   -5.4151   23.2053 C   0  0  0  0  0  0  0  0  0  0  0  0
  -24.6182  -11.5988   20.7300 C   0  0  0  0  0  0  0  0  0  0  0  0
  -25.2027  -13.7181   20.7719 C   0  0  0  0  0  0  0  0  0  0  0  0
  -30.5781  -21.3142   22.4853 C   0  0  0  0  0  0  0  0  0  0  0  0
  -22.9125  -13.2777   21.6717 C   0  0  0  0  0  0  0  0  0  0  0  0
  -25.9072  -32.1370   20.2117 C   0  0  0  0  0  0  0  0  0  0  0  0
  -24.9731  -31.8102   23.3009 C   0  0  0  0  0  0  0  0  0  0  0  0
  -24.3637  -29.7329   25.9391 C   0  0  0  0  0  0  0  0  0  0  0  0
  -30.6335  -14.9457   20.7230 C   0  0  0  0  0  0  0  0  0  0  0  0
  -26.8518  -37.1528   20.2951 C   0  0  0  0  0  0  0  0  0  0  0  0
  -24.1205  -30.3694   20.0130 C   0  0  0  0  0  0  0  0  0  0  0  0
  -26.0062  -29.7814   22.2137 C   0  0  0  0  0  0  0  0  0  0  0  0
  -27.1664  -35.9673   21.2040 C   0  0  0  0  0  0  0  0  0  0  0  0
  -29.4184  -12.8617   18.1043 C   0  0  0  0  0  0  0  0  0  0  0  0
  -27.7478  -34.8130   20.3938 C   0  0  0  0  0  0  0  0  0  0  0  0
  -28.0238  -12.4528   18.5839 C   0  0  0  0  0  0  0  0  0  0  0  0
  -27.7687  -22.8622   20.8339 C   0  0  0  0  0  0  0  0  0  0  0  0
  -30.4129  -12.9488   19.2606 C   0  0  0  0  0  0  0  0  0  0  0  0
  -28.6703  -21.6468   20.9929 C   0  0  0  0  0  0  0  0  0  0  0  0
  -28.5931  -13.3860   20.8625 C   0  0  0  0  0  0  0  0  0  0  0  0
  -26.7450  -34.3141   19.3464 C   0  0  1  0  0  0  0  0  0  0  0  0
  -24.7274  -31.4775   20.8681 C   0  0  1  0  0  0  0  0  0  0  0  0
  -28.7505  -24.0361   20.8788 C   0  0  2  0  0  0  0  0  0  0  0  0
  -27.5411  -13.3481   19.7420 C   0  0  2  0  0  0  0  0  0  0  0  0
  -29.7580  -23.6294   21.9914 C   0  0  0  0  0  0  0  0  0  0  0  0
  -28.5881  -16.9796   23.8867 C   0  0  0  0  0  0  0  0  0  0  0  0
  -29.3189  -24.0019   23.4103 C   0  0  0  0  0  0  0  0  0  0  0  0
  -31.1516  -24.1801   21.6870 C   0  0  0  0  0  0  0  0  0  0  0  0
  -23.6482  -29.7611   28.3443 C   0  0  0  0  0  0  0  0  0  0  0  0
  -27.7476  -32.7870   24.1122 C   0  0  0  0  0  0  0  0  0  0  0  0
  -27.3093  -31.9036   26.4135 C   0  0  0  0  0  0  0  0  0  0  0  0
  -25.8726  -33.7171   25.4810 C   0  0  0  0  0  0  0  0  0  0  0  0
  -21.9653  -28.0965   25.3655 C   0  0  0  0  0  0  0  0  0  0  0  0
  -28.0490  -25.3734   21.0658 C   0  0  0  0  0  0  0  0  0  1  0  0
  -25.6428  -31.3665   24.5791 C   0  0  1  0  0  0  0  0  0  0  0  0
  -23.1911  -29.6409   26.8988 C   0  0  2  0  0  0  0  0  0  0  0  0
  -26.6414  -32.4264   25.1238 C   0  0  0  0  0  0  0  0  0  0  0  0
  -25.8509  -11.6161   20.2159 N   0  0  0  0  0  0  0  0  0  0  0  0
  -26.1791  -12.9187   20.2545 N   0  0  0  0  0  0  0  0  0  0  0  0
  -29.7466  -22.1421   21.8721 N   0  0  0  0  0  0  0  0  0  0  0  0
  -25.1790  -30.9987   22.1762 N   0  0  0  0  0  0  0  0  0  0  0  0
  -29.8903  -13.8168   20.3181 N   0  0  0  0  0  0  0  0  0  0  0  0
  -25.3677  -15.0533   20.8836 N   0  0  0  0  0  0  0  0  0  0  0  0
  -21.9557  -12.2891   21.9388 N   0  0  0  0  0  0  0  0  0  0  0  0
  -30.0216  -15.7142   21.7127 N   0  0  0  0  0  0  0  0  0  0  0  0
  -25.7341  -33.4862   19.9685 N   0  0  0  0  0  0  0  0  0  0  0  0
  -24.5687  -31.0257   25.5056 N   0  0  0  0  0  0  0  0  0  0  0  0
  -31.5438  -21.7708   23.2772 N   0  3  0  0  0  0  0  0  0  0  0  0
  -22.4887  -28.3368   26.7350 N   0  3  0  0  0  0  0  0  0  0  0  0
  -22.6449  -14.4762   21.9277 O   0  0  0  0  0  0  0  0  0  0  0  0
  -26.9014  -31.4714   19.9469 O   0  0  0  0  0  0  0  0  0  0  0  0
  -24.2866  -32.8351   23.3022 O   0  0  0  0  0  0  0  0  0  0  0  0
  -25.0333  -28.7563   25.6101 O   0  0  0  0  0  0  0  0  0  0  0  0
  -31.7193  -15.2263   20.2090 O   0  0  0  0  0  0  0  0  0  0  0  0
  -21.8557   -6.7635   21.2360 O   0  0  0  0  0  0  0  0  0  0  0  0
  -27.1593  -25.5887   19.9711 O   0  0  0  0  0  0  0  0  0  1  0  0
  -19.2223   -5.8090   25.9854 F   0  0  0  0  0  0  0  0  0  0  0  0
  -22.5040   -4.5804   22.8033 F   0  0  0  0  0  0  0  0  0  0  0  0
  1  2  1  0  0  0  0
  1  6  2  0  0  0  0
  2  7  2  0  0  0  0
  3 10  2  0  0  0  0
  3 18  1  0  0  0  0
  4 11  1  0  0  0  0
  4 18  2  0  0  0  0
  5  9  2  0  0  0  0
  5 19  1  0  0  0  0
  6 21  1  0  0  0  0
  7 23  1  0  0  0  0
  8 12  2  0  0  0  0
  8 22  1  0  0  0  0
  9 26  1  0  0  0  0
 10 27  1  0  0  0  0
 11 27  2  0  0  0  0
 12 28  1  0  0  0  0
 13 14  2  0  0  0  0
 13 29  1  0  0  0  0
 14 30  1  0  0  0  0
 15 19  2  0  0  0  0
 15 25  1  0  0  0  0
 16 24  1  0  0  0  0
 16 28  2  0  0  0  0
 17 30  2  0  0  0  0
 17 31  1  0  0  0  0
 18 32  1  0  0  0  0
 19 34  1  0  0  0  0
 20 32  1  0  0  0  0
 20 33  2  0  0  0  0
 20 35  1  0  0  0  0
 21 23  2  0  0  0  0
 21 40  1  0  0  0  0
 22 24  2  0  0  0  0
 22 41  1  0  0  0  0
 23 51  1  0  0  0  0
 24 42  1  0  0  0  0
 25 26  2  0  0  0  0
 25 56  1  0  0  0  0
 26 75  1  0  0  0  0
 27 85  1  0  0  0  0
 28 86  1  0  0  0  0
 29 31  2  0  0  0  0
 29 85  1  0  0  0  0
 30 87  1  0  0  0  0
 31 88  1  0  0  0  0
 32 68  2  0  0  0  0
 33 69  1  0  0  0  0
 33 73  1  0  0  0  0
 34 70  1  0  0  0  0
 34 78  2  0  0  0  0
 35 74  1  0  0  0  0
 35 80  2  0  0  0  0
 36 52  1  0  0  0  0
 36 76  1  0  0  0  0
 36 81  2  0  0  0  0
 37 65  1  0  0  0  0
 37 71  1  0  0  0  0
 37 82  2  0  0  0  0
 38 66  1  0  0  0  0
 38 77  1  0  0  0  0
 38 83  2  0  0  0  0
 39 72  1  0  0  0  0
 39 75  1  0  0  0  0
 39 84  2  0  0  0  0
 40 43  1  0  0  0  0
 41 52  1  0  0  0  0
 42 71  1  0  0  0  0
 43 45  1  0  0  0  0
 44 46  1  0  0  0  0
 44 48  1  0  0  0  0
 45 51  1  0  0  0  0
 46 54  1  0  0  0  0
 47 49  1  0  0  0  0
 47 53  1  0  0  0  0
 48 72  1  0  0  0  0
 49 70  1  0  0  0  0
 50 54  1  0  0  0  0
 50 72  1  0  0  0  0
 51 76  1  0  0  0  0
 52 71  1  0  0  0  0
 53 55  1  0  0  0  0
 53 64  1  0  0  0  0
 54 69  1  0  0  0  0
 55 57  1  0  0  0  0
 55 58  1  0  0  0  0
 55 70  1  0  0  0  0
 59 66  1  0  0  0  0
 60 67  1  0  0  0  0
 61 67  1  0  0  0  0
 62 67  1  0  0  0  0
 63 79  1  0  0  0  0
 64 86  1  0  0  0  0
 65 67  1  0  0  0  0
 65 77  1  0  0  0  0
 66 79  1  0  0  0  0
 68 69  1  0  0  0  0
M  CHG  2  78   1  79   1
M  ISO  4  39 100  64 101  75 100  86 101
M  END
> <Batch ID>
0140

> <Smiles>
CNC(C)C(=O)NC(C(=O)N1Cc2cc([101O:1][101CH2:1]C3CCN(C(=N)c4ccc([100NH:0][100C:0](=O)N5CCCC(n6nc(-c7ccc(Oc8ccc(F)cc8F)cc7)c(C(N)=O)c6N)C5)c(C)c4)C3(C)C)ccc2CC1C(=O)NC1CCCc2ccccc21)C(C)(C)C

> <Shape>
0.342

> <Color>
0.209

> <Negative vol penalty>
0.000

$$$$

  -OEChem-04052302513D

 89 98  0     1  0  0  0  0  0999 V2000
  -30.4712  -25.3454   23.8105 C   0  0  0  0  0  0  0  0  0  0  0  0
  -31.1774  -24.1708   24.0490 C   0  0  0  0  0  0  0  0  0  0  0  0
  -23.1899   -9.8196   19.9314 C   0  0  0  0  0  0  0  0  0  0  0  0
  -23.5689   -9.9996   22.3107 C   0  0  0  0  0  0  0  0  0  0  0  0
  -29.2958  -25.6058   24.5137 C   0  0  0  0  0  0  0  0  0  0  0  0
  -30.7091  -23.2562   24.9916 C   0  0  0  0  0  0  0  0  0  0  0  0
  -31.1491  -17.1532   24.7348 C   0  0  0  0  0  0  0  0  0  0  0  0
  -22.4238   -8.6728   20.1402 C   0  0  0  0  0  0  0  0  0  0  0  0
  -22.8027   -8.8528   22.5195 C   0  0  0  0  0  0  0  0  0  0  0  0
  -32.0383  -16.2515   25.3179 C   0  0  0  0  0  0  0  0  0  0  0  0
  -21.2460   -5.7686   23.6483 C   0  0  0  0  0  0  0  0  0  0  0  0
  -21.7428   -4.8086   24.5299 C   0  0  0  0  0  0  0  0  0  0  0  0
  -30.4738  -15.8813   27.1164 C   0  0  0  0  0  0  0  0  0  0  0  0
  -32.6584  -12.1057   23.9636 C   0  0  0  0  0  0  0  0  0  0  0  0
  -32.7676  -11.8441   26.3628 C   0  0  0  0  0  0  0  0  0  0  0  0
  -30.6972  -12.5151   25.3138 C   0  0  0  0  0  0  0  0  0  0  0  0
  -23.7011   -4.5451   23.1396 C   0  0  0  0  0  0  0  0  0  0  0  0
  -23.7625  -10.4830   21.0167 C   0  0  0  0  0  0  0  0  0  0  0  0
  -24.1008  -12.9997   20.7733 C   0  0  0  0  0  0  0  0  0  0  0  0
  -28.8076  -24.6894   25.4585 C   0  0  0  0  0  0  0  0  0  0  0  0
  -29.9181  -17.4344   25.3447 C   0  0  0  0  0  0  0  0  0  0  0  0
  -29.5267  -23.5051   25.7091 C   0  0  0  0  0  0  0  0  0  0  0  0
  -29.5697  -16.7850   26.5376 C   0  0  0  0  0  0  0  0  0  0  0  0
  -33.3849  -11.7949   25.1130 C   0  0  0  0  0  0  0  0  0  0  0  0
  -31.3145  -12.4659   24.0640 C   0  0  0  0  0  0  0  0  0  0  0  0
  -22.2302   -8.1894   21.4342 C   0  0  0  0  0  0  0  0  0  0  0  0
  -31.7019  -15.6176   26.5104 C   0  0  0  0  0  0  0  0  0  0  0  0
  -21.9767   -6.1167   22.5122 C   0  0  0  0  0  0  0  0  0  0  0  0
  -22.9703   -4.1969   24.2756 C   0  0  0  0  0  0  0  0  0  0  0  0
  -31.4237  -12.2043   26.4633 C   0  0  0  0  0  0  0  0  0  0  0  0
  -23.2042   -5.5051   22.2579 C   0  0  0  0  0  0  0  0  0  0  0  0
  -24.5544  -11.6673   20.8017 C   0  0  0  0  0  0  0  0  0  0  0  0
  -25.2318  -13.7425   20.5378 C   0  0  0  0  0  0  0  0  0  0  0  0
  -22.7755  -13.5194   20.9447 C   0  0  0  0  0  0  0  0  0  0  0  0
  -28.5558  -20.0407   26.5508 C   0  0  0  0  0  0  0  0  0  0  0  0
  -34.6490  -13.5025   27.1680 C   0  0  0  0  0  0  0  0  0  0  0  0
  -25.9863  -18.0842   26.8535 C   0  0  0  0  0  0  0  0  0  0  0  0
  -24.7851  -14.9027   27.1401 C   0  0  0  0  0  0  0  0  0  0  0  0
  -31.0367  -12.7825   21.5803 C   0  0  0  0  0  0  0  0  0  0  0  0
  -27.5578  -25.0365   26.2279 C   0  0  0  0  0  0  0  0  0  0  0  0
  -28.9587  -18.3893   24.6890 C   0  0  0  0  0  0  0  0  0  0  0  0
  -28.2518  -17.0368   27.2219 C   0  0  0  0  0  0  0  0  0  0  0  0
  -26.9293  -23.8414   26.9399 C   0  0  0  0  0  0  0  0  0  0  0  0
  -29.5232  -13.4645   18.4305 C   0  0  0  0  0  0  0  0  0  0  0  0
  -27.9953  -23.0396   27.6799 C   0  0  0  0  0  0  0  0  0  0  0  0
  -37.1997  -12.2887   22.8859 C   0  0  0  0  0  0  0  0  0  0  0  0
  -37.9081  -13.3440   23.6886 C   0  0  0  0  0  0  0  0  0  0  0  0
  -28.0352  -13.2081   18.6801 C   0  0  0  0  0  0  0  0  0  0  0  0
  -30.4047  -12.4794   19.1962 C   0  0  0  0  0  0  0  0  0  0  0  0
  -28.6454  -12.1374   20.8865 C   0  0  0  0  0  0  0  0  0  0  0  0
  -29.0375  -22.4769   26.7059 C   0  0  1  0  0  0  0  0  0  0  0  0
  -27.9510  -18.9884   25.6652 C   0  0  1  0  0  0  0  0  0  0  0  0
  -37.1229  -12.2690   24.3875 C   0  0  0  0  0  0  0  0  0  0  0  0
  -27.7192  -13.1459   20.1874 C   0  0  2  0  0  0  0  0  0  0  0  0
  -22.6437  -13.6223   27.4093 C   0  0  0  0  0  0  0  0  0  0  0  0
  -36.7015  -12.0061   27.4389 C   0  0  0  0  0  0  0  0  0  0  0  0
  -36.8862  -14.3717   26.6396 C   0  0  0  0  0  0  0  0  0  0  0  0
  -25.8795  -18.8860   29.7955 C   0  0  0  0  0  0  0  0  0  0  0  0
  -24.3892  -16.9167   30.2062 C   0  0  0  0  0  0  0  0  0  0  0  0
  -23.6497  -18.7398   28.6725 C   0  0  0  0  0  0  0  0  0  0  0  0
  -25.1854  -13.4689   24.5822 C   0  0  0  0  0  0  0  0  0  0  0  0
  -34.8415  -11.4039   25.0047 C   0  0  0  0  0  0  0  0  0  0  0  0
  -33.8043  -14.5108   26.4061 C   0  0  0  0  0  0  0  0  0  1  0  0
  -25.4713  -17.1538   27.9250 C   0  0  1  0  0  0  0  0  0  0  0  0
  -23.6565  -14.1837   26.4235 C   0  0  2  0  0  0  0  0  0  0  0  0
  -35.8200  -12.6090   25.0921 C   0  0  1  0  0  0  0  0  0  0  0  0
  -36.0270  -13.0922   26.5806 C   0  0  0  0  0  0  0  0  0  0  0  0
  -24.8732  -17.9206   29.1382 C   0  0  0  0  0  0  0  0  0  0  0  0
  -25.8709  -11.5665   20.6001 N   0  0  0  0  0  0  0  0  0  0  0  0
  -26.2542  -12.8449   20.4428 N   0  0  0  0  0  0  0  0  0  0  0  0
  -27.3503  -17.9836   26.5450 N   0  0  0  0  0  0  0  0  0  0  0  0
  -30.0513  -12.4777   20.6175 N   0  0  0  0  0  0  0  0  0  0  0  0
  -25.4415  -15.0695   20.4048 N   0  0  0  0  0  0  0  0  0  0  0  0
  -21.7291  -12.6170   21.1788 N   0  0  0  0  0  0  0  0  0  0  0  0
  -30.5763  -12.7819   22.8966 N   0  0  0  0  0  0  0  0  0  0  0  0
  -28.5129  -21.3157   26.0197 N   0  0  0  0  0  0  0  0  0  0  0  0
  -24.5324  -16.2523   27.2661 N   0  0  0  0  0  0  0  0  0  0  0  0
  -24.1943  -13.0572   25.6094 N   0  3  0  0  0  0  0  0  0  0  0  0
  -22.5242  -14.7464   20.8753 O   0  0  0  0  0  0  0  0  0  0  0  0
  -29.0253  -19.7200   27.6364 O   0  0  0  0  0  0  0  0  0  0  0  0
  -34.2126  -12.9804   28.1978 O   0  0  0  0  0  0  0  0  0  0  0  0
  -25.2056  -18.8661   26.3052 O   0  0  0  0  0  0  0  0  0  0  0  0
  -25.7888  -14.3242   27.5507 O   0  0  0  0  0  0  0  0  0  0  0  0
  -32.1966  -13.0528   21.2586 O   0  0  0  0  0  0  0  0  0  0  0  0
  -21.4825   -7.0705   21.6383 O   0  0  0  0  0  0  0  0  0  0  0  0
  -32.5683  -14.7375   27.0821 O   0  0  0  0  0  0  0  0  0  1  0  0
  -23.4480   -3.2762   25.1232 F   0  0  0  0  0  0  0  0  0  0  0  0
  -30.8310  -12.2515   27.6635 F   0  0  0  0  0  0  0  0  0  0  0  0
  -23.9113   -5.8363   21.1688 F   0  0  0  0  0  0  0  0  0  0  0  0
  1  2  1  0  0  0  0
  1  5  2  0  0  0  0
  2  6  2  0  0  0  0
  3  8  2  0  0  0  0
  3 18  1  0  0  0  0
  4  9  1  0  0  0  0
  4 18  2  0  0  0  0
  5 20  1  0  0  0  0
  6 22  1  0  0  0  0
  7 10  2  0  0  0  0
  7 21  1  0  0  0  0
  8 26  1  0  0  0  0
  9 26  2  0  0  0  0
 10 27  1  0  0  0  0
 11 12  2  0  0  0  0
 11 28  1  0  0  0  0
 12 29  1  0  0  0  0
 13 23  1  0  0  0  0
 13 27  2  0  0  0  0
 14 24  2  0  0  0  0
 14 25  1  0  0  0  0
 15 24  1  0  0  0  0
 15 30  2  0  0  0  0
 16 25  2  0  0  0  0
 16 30  1  0  0  0  0
 17 29  2  0  0  0  0
 17 31  1  0  0  0  0
 18 32  1  0  0  0  0
 19 32  1  0  0  0  0
 19 33  2  0  0  0  0
 19 34  1  0  0  0  0
 20 22  2  0  0  0  0
 20 40  1  0  0  0  0
 21 23  2  0  0  0  0
 21 41  1  0  0  0  0
 22 51  1  0  0  0  0
 23 42  1  0  0  0  0
 24 62  1  0  0  0  0
 25 75  1  0  0  0  0
 26 85  1  0  0  0  0
 27 86  1  0  0  0  0
 28 31  2  0  0  0  0
 28 85  1  0  0  0  0
 29 87  1  0  0  0  0
 30 88  1  0  0  0  0
 31 89  1  0  0  0  0
 32 69  2  0  0  0  0
 33 70  1  0  0  0  0
 33 73  1  0  0  0  0
 34 74  1  0  0  0  0
 34 79  2  0  0  0  0
 35 52  1  0  0  0  0
 35 76  1  0  0  0  0
 35 80  2  0  0  0  0
 36 63  1  0  0  0  0
 36 67  1  0  0  0  0
 36 81  2  0  0  0  0
 37 64  1  0  0  0  0
 37 71  1  0  0  0  0
 37 82  2  0  0  0  0
 38 65  1  0  0  0  0
 38 77  1  0  0  0  0
 38 83  2  0  0  0  0
 39 72  1  0  0  0  0
 39 75  1  0  0  0  0
 39 84  2  0  0  0  0
 40 43  1  0  0  0  0
 41 52  1  0  0  0  0
 42 71  1  0  0  0  0
 43 45  1  0  0  0  0
 44 48  1  0  0  0  0
 44 49  1  0  0  0  0
 45 51  1  0  0  0  0
 46 47  1  0  0  0  0
 46 53  1  0  0  0  0
 47 53  1  0  0  0  0
 48 54  1  0  0  0  0
 49 72  1  0  0  0  0
 50 54  1  0  0  0  0
 50 72  1  0  0  0  0
 51 76  1  0  0  0  0
 52 71  1  0  0  0  0
 53 66  1  0  0  0  0
 54 70  1  0  0  0  0
 55 65  1  0  0  0  0
 56 67  1  0  0  0  0
 57 67  1  0  0  0  0
 58 68  1  0  0  0  0
 59 68  1  0  0  0  0
 60 68  1  0  0  0  0
 61 78  1  0  0  0  0
 62 66  1  0  0  0  0
 63 86  1  0  0  0  0
 64 68  1  0  0  0  0
 64 77  1  0  0  0  0
 65 78  1  0  0  0  0
 66 67  1  0  0  0  0
 69 70  1  0  0  0  0
M  CHG  1  78   1
M  ISO  4  39 100  63 101  75 100  86 101
M  END
> <Batch ID>
0140

> <Smiles>
CNC(C)C(=O)NC(C(=O)N1Cc2cc([101O:1][101CH2:1]C(=O)C(C)(C)C(Cc3cc(F)cc([100NH:0][100C:0](=O)N4CCCC(n5nc(-c6ccc(Oc7ccc(F)cc7F)cc6)c(C(N)=O)c5N)C4)c3)C3CC3)ccc2CC1C(=O)NC1CCCc2ccccc21)C(C)(C)C

> <Shape>
0.136

> <Color>
0.182

> <Negative vol penalty>
0.000

$$$$

  -OEChem-04052302513D

 82 91  0     1  0  0  0  0  0999 V2000
  -29.3543  -34.1707   26.4339 C   0  0  0  0  0  0  0  0  0  0  0  0
  -29.0037  -32.8647   26.1070 C   0  0  0  0  0  0  0  0  0  0  0  0
  -23.9622   -9.6331   19.9873 C   0  0  0  0  0  0  0  0  0  0  0  0
  -24.4883   -9.9543   22.3234 C   0  0  0  0  0  0  0  0  0  0  0  0
  -28.4158  -35.1945   26.3120 C   0  0  0  0  0  0  0  0  0  0  0  0
  -27.7138  -32.5816   25.6591 C   0  0  0  0  0  0  0  0  0  0  0  0
  -27.6850  -29.4930   21.6461 C   0  0  0  0  0  0  0  0  0  0  0  0
  -23.5484   -8.3292   20.2598 C   0  0  0  0  0  0  0  0  0  0  0  0
  -24.0744   -8.6504   22.5959 C   0  0  0  0  0  0  0  0  0  0  0  0
  -27.8918  -28.1352   21.8861 C   0  0  0  0  0  0  0  0  0  0  0  0
  -21.1544   -7.0027   23.0191 C   0  0  0  0  0  0  0  0  0  0  0  0
  -20.3395   -6.8025   24.1333 C   0  0  0  0  0  0  0  0  0  0  0  0
  -29.7009  -20.7937   22.4368 C   0  0  0  0  0  0  0  0  0  0  0  0
  -30.0228  -19.5333   21.8554 C   0  0  0  0  0  0  0  0  0  0  0  0
  -25.5150  -27.7523   21.7330 C   0  0  0  0  0  0  0  0  0  0  0  0
  -22.0006   -5.3275   25.0831 C   0  0  0  0  0  0  0  0  0  0  0  0
  -24.4322  -10.4456   21.0191 C   0  0  0  0  0  0  0  0  0  0  0  0
  -24.0696  -12.9570   20.7563 C   0  0  0  0  0  0  0  0  0  0  0  0
  -27.1167  -34.9254   25.8532 C   0  0  0  0  0  0  0  0  0  0  0  0
  -26.3884  -29.9931   21.4582 C   0  0  0  0  0  0  0  0  0  0  0  0
  -26.7567  -33.6026   25.5323 C   0  0  0  0  0  0  0  0  0  0  0  0
  -25.2946  -29.1163   21.4882 C   0  0  0  0  0  0  0  0  0  0  0  0
  -23.6045   -7.8379   21.5640 C   0  0  0  0  0  0  0  0  0  0  0  0
  -26.8065  -27.2651   21.9325 C   0  0  0  0  0  0  0  0  0  0  0  0
  -22.3924   -6.3653   22.9368 C   0  0  0  0  0  0  0  0  0  0  0  0
  -20.7626   -5.9649   25.1653 C   0  0  0  0  0  0  0  0  0  0  0  0
  -22.8155   -5.5277   23.9688 C   0  0  0  0  0  0  0  0  0  0  0  0
  -24.8603  -11.7925   20.7382 C   0  0  0  0  0  0  0  0  0  0  0  0
  -28.4599  -20.7860   23.0345 C   0  0  0  0  0  0  0  0  0  0  0  0
  -24.9383  -13.9672   20.4226 C   0  0  0  0  0  0  0  0  0  0  0  0
  -29.0155  -18.6101   22.0312 C   0  0  0  0  0  0  0  0  0  0  0  0
  -22.6745  -13.1119   21.0487 C   0  0  0  0  0  0  0  0  0  0  0  0
  -24.5492  -32.0880   22.9855 C   0  0  0  0  0  0  0  0  0  0  0  0
  -22.5659  -31.5940   20.4666 C   0  0  0  0  0  0  0  0  0  0  0  0
  -21.5564  -29.5429   17.9327 C   0  0  0  0  0  0  0  0  0  0  0  0
  -29.8638  -16.5168   20.9156 C   0  0  0  0  0  0  0  0  0  0  0  0
  -26.1226  -36.0574   25.7829 C   0  0  0  0  0  0  0  0  0  0  0  0
  -26.1845  -31.4560   21.1738 C   0  0  0  0  0  0  0  0  0  0  0  0
  -23.8846  -29.5998   21.2727 C   0  0  0  0  0  0  0  0  0  0  0  0
  -24.8890  -35.7335   24.9442 C   0  0  0  0  0  0  0  0  0  0  0  0
  -29.6722  -13.7855   18.6394 C   0  0  0  0  0  0  0  0  0  0  0  0
  -24.3427  -34.3565   25.3079 C   0  0  0  0  0  0  0  0  0  0  0  0
  -28.5833  -22.3998   24.9472 C   0  0  0  0  0  0  0  0  0  0  0  0
  -28.9574  -23.8413   24.6171 C   0  0  0  0  0  0  0  0  0  0  0  0
  -28.3381  -13.1193   18.9840 C   0  0  0  0  0  0  0  0  0  0  0  0
  -27.5765  -23.1106   22.8208 C   0  0  0  0  0  0  0  0  0  0  0  0
  -30.3801  -14.3152   19.8852 C   0  0  0  0  0  0  0  0  0  0  0  0
  -28.2347  -14.5329   21.0764 C   0  0  0  0  0  0  0  0  0  0  0  0
  -25.3749  -33.2597   25.0193 C   0  0  1  0  0  0  0  0  0  0  0  0
  -27.7696  -21.8896   23.7394 C   0  0  1  0  0  0  0  0  0  0  0  0
  -24.7765  -31.9390   21.5077 C   0  0  1  0  0  0  0  0  0  0  0  0
  -27.8101  -24.3145   23.7313 C   0  0  2  0  0  0  0  0  0  0  0  0
  -27.4540  -14.0413   19.8465 C   0  0  2  0  0  0  0  0  0  0  0  0
  -19.8879  -29.3949   16.0641 C   0  0  0  0  0  0  0  0  0  0  0  0
  -20.3675  -30.9544   22.4835 C   0  0  0  0  0  0  0  0  0  0  0  0
  -19.0561  -29.9169   20.6201 C   0  0  0  0  0  0  0  0  0  0  0  0
  -19.6281  -32.3437   20.5399 C   0  0  0  0  0  0  0  0  0  0  0  0
  -23.6885  -29.3902   15.8858 C   0  0  0  0  0  0  0  0  0  0  0  0
  -28.1295  -25.5839   22.9713 C   0  0  0  0  0  0  0  0  0  1  0  0
  -21.4464  -30.6285   20.1606 C   0  0  1  0  0  0  0  0  0  0  0  0
  -21.2951  -29.8126   16.4618 C   0  0  2  0  0  0  0  0  0  0  0  0
  -20.1508  -30.9518   20.9571 C   0  0  0  0  0  0  0  0  0  0  0  0
  -26.1335  -12.0386   20.4181 N   0  0  0  0  0  0  0  0  0  0  0  0
  -26.1494  -13.3694   20.2320 N   0  0  0  0  0  0  0  0  0  0  0  0
  -23.7362  -31.0398   21.0043 N   0  0  0  0  0  0  0  0  0  0  0  0
  -29.4833  -15.1842   20.6504 N   0  0  0  0  0  0  0  0  0  0  0  0
  -24.7769  -15.2994   20.2765 N   0  0  0  0  0  0  0  0  0  0  0  0
  -21.9290  -11.9702   21.3728 N   0  0  0  0  0  0  0  0  0  0  0  0
  -28.9168  -17.2569   21.6228 N   0  0  0  0  0  0  0  0  0  0  0  0
  -25.4186  -32.9670   23.6026 N   0  0  0  0  0  0  0  0  0  0  0  0
  -21.2771  -30.6458   18.7117 N   0  0  0  0  0  0  0  0  0  0  0  0
  -22.2652  -29.0603   15.6169 N   0  3  0  0  0  0  0  0  0  0  0  0
  -22.1023  -14.2274   21.0073 O   0  0  0  0  0  0  0  0  0  0  0  0
  -23.6506  -31.4536   23.5256 O   0  0  0  0  0  0  0  0  0  0  0  0
  -22.4105  -32.7947   20.2304 O   0  0  0  0  0  0  0  0  0  0  0  0
  -21.9638  -28.4608   18.3493 O   0  0  0  0  0  0  0  0  0  0  0  0
  -30.9380  -16.9761   20.5192 O   0  0  0  0  0  0  0  0  0  0  0  0
  -23.2006   -6.5656   21.8303 O   0  0  0  0  0  0  0  0  0  0  0  0
  -27.0055  -25.9396   22.1672 O   0  0  0  0  0  0  0  0  0  1  0  0
  -19.9807   -5.7740   26.2360 F   0  0  0  0  0  0  0  0  0  0  0  0
  -24.0043   -4.9134   23.8960 F   0  0  0  0  0  0  0  0  0  0  0  0
  -27.6884  -19.2637   22.8937 S   0  0  0  0  0  0  0  0  0  0  0  0
  1  2  1  0  0  0  0
  1  5  2  0  0  0  0
  2  6  2  0  0  0  0
  3  8  2  0  0  0  0
  3 17  1  0  0  0  0
  4  9  1  0  0  0  0
  4 17  2  0  0  0  0
  5 19  1  0  0  0  0
  6 21  1  0  0  0  0
  7 10  2  0  0  0  0
  7 20  1  0  0  0  0
  8 23  1  0  0  0  0
  9 23  2  0  0  0  0
 10 24  1  0  0  0  0
 11 12  2  0  0  0  0
 11 25  1  0  0  0  0
 12 26  1  0  0  0  0
 13 14  1  0  0  0  0
 13 29  2  0  0  0  0
 14 31  2  0  0  0  0
 15 22  1  0  0  0  0
 15 24  2  0  0  0  0
 16 26  2  0  0  0  0
 16 27  1  0  0  0  0
 17 28  1  0  0  0  0
 18 28  1  0  0  0  0
 18 30  2  0  0  0  0
 18 32  1  0  0  0  0
 19 21  2  0  0  0  0
 19 37  1  0  0  0  0
 20 22  2  0  0  0  0
 20 38  1  0  0  0  0
 21 49  1  0  0  0  0
 22 39  1  0  0  0  0
 23 78  1  0  0  0  0
 24 79  1  0  0  0  0
 25 27  2  0  0  0  0
 25 78  1  0  0  0  0
 26 80  1  0  0  0  0
 27 81  1  0  0  0  0
 28 63  2  0  0  0  0
 29 50  1  0  0  0  0
 29 82  1  0  0  0  0
 30 64  1  0  0  0  0
 30 67  1  0  0  0  0
 31 69  1  0  0  0  0
 31 82  1  0  0  0  0
 32 68  1  0  0  0  0
 32 73  2  0  0  0  0
 33 51  1  0  0  0  0
 33 70  1  0  0  0  0
 33 74  2  0  0  0  0
 34 60  1  0  0  0  0
 34 65  1  0  0  0  0
 34 75  2  0  0  0  0
 35 61  1  0  0  0  0
 35 71  1  0  0  0  0
 35 76  2  0  0  0  0
 36 66  1  0  0  0  0
 36 69  1  0  0  0  0
 36 77  2  0  0  0  0
 37 40  1  0  0  0  0
 38 51  1  0  0  0  0
 39 65  1  0  0  0  0
 40 42  1  0  0  0  0
 41 45  1  0  0  0  0
 41 47  1  0  0  0  0
 42 49  1  0  0  0  0
 43 44  1  0  0  0  0
 43 50  1  0  0  0  0
 44 52  1  0  0  0  0
 45 53  1  0  0  0  0
 46 50  1  0  0  0  0
 46 52  1  0  0  0  0
 47 66  1  0  0  0  0
 48 53  1  0  0  0  0
 48 66  1  0  0  0  0
 49 70  1  0  0  0  0
 51 65  1  0  0  0  0
 52 59  1  0  0  0  0
 53 64  1  0  0  0  0
 54 61  1  0  0  0  0
 55 62  1  0  0  0  0
 56 62  1  0  0  0  0
 57 62  1  0  0  0  0
 58 72  1  0  0  0  0
 59 79  1  0  0  0  0
 60 62  1  0  0  0  0
 60 71  1  0  0  0  0
 61 72  1  0  0  0  0
 63 64  1  0  0  0  0
M  CHG  1  72   1
M  ISO  4  36 100  59 101  69 100  79 101
M  END
> <Batch ID>
0140

> <Smiles>
CNC(C)C(=O)NC(C(=O)N1Cc2cc([101O:1][101CH2:1]C3CCC(c4ccc([100NH:0][100C:0](=O)N5CCCC(n6nc(-c7ccc(Oc8ccc(F)cc8F)cc7)c(C(N)=O)c6N)C5)s4)C3)ccc2CC1C(=O)NC1CCCc2ccccc21)C(C)(C)C

> <Shape>
0.285

> <Color>
0.147

> <Negative vol penalty>
0.000

$$$$

  -OEChem-04052302513D

 84 93  0     1  0  0  0  0  0999 V2000
  -27.4820  -24.3917   16.8699 C   0  0  0  0  0  0  0  0  0  0  0  0
  -26.3029  -24.7301   17.5263 C   0  0  0  0  0  0  0  0  0  0  0  0
  -25.3511  -14.5107   20.4507 C   0  0  0  0  0  0  0  0  0  0  0  0
  -24.6600  -13.3157   22.4334 C   0  0  0  0  0  0  0  0  0  0  0  0
  -28.7116  -24.7630   17.4121 C   0  0  0  0  0  0  0  0  0  0  0  0
  -26.3530  -25.4391   18.7260 C   0  0  0  0  0  0  0  0  0  0  0  0
  -22.9870  -29.2190   18.8906 C   0  0  0  0  0  0  0  0  0  0  0  0
  -21.2421  -23.2535   24.6631 C   0  0  0  0  0  0  0  0  0  0  0  0
  -25.7840  -13.3138   19.8801 C   0  0  0  0  0  0  0  0  0  0  0  0
  -25.0928  -12.1187   21.8628 C   0  0  0  0  0  0  0  0  0  0  0  0
  -21.6608  -28.8796   19.1549 C   0  0  0  0  0  0  0  0  0  0  0  0
  -20.5279  -24.4363   24.4598 C   0  0  0  0  0  0  0  0  0  0  0  0
  -28.4608  -11.2644   20.1220 C   0  0  0  0  0  0  0  0  0  0  0  0
  -29.7041  -11.2610   19.4896 C   0  0  0  0  0  0  0  0  0  0  0  0
  -22.4806  -25.5013   23.4710 C   0  0  0  0  0  0  0  0  0  0  0  0
  -21.9575  -29.5371   21.4568 C   0  0  0  0  0  0  0  0  0  0  0  0
  -28.6467  -10.6193   17.4142 C   0  0  0  0  0  0  0  0  0  0  0  0
  -24.7892  -14.5117   21.7274 C   0  0  0  0  0  0  0  0  0  0  0  0
  -23.0615  -16.3232   22.2182 C   0  0  0  0  0  0  0  0  0  0  0  0
  -28.7764  -25.4853   18.6141 C   0  0  0  0  0  0  0  0  0  0  0  0
  -23.8129  -29.7106   19.9117 C   0  0  0  0  0  0  0  0  0  0  0  0
  -22.5678  -23.2152   24.2686 C   0  0  0  0  0  0  0  0  0  0  0  0
  -27.5847  -25.8192   19.2855 C   0  0  0  0  0  0  0  0  0  0  0  0
  -23.1798  -24.3257   23.6791 C   0  0  0  0  0  0  0  0  0  0  0  0
  -23.2930  -29.8845   21.2023 C   0  0  0  0  0  0  0  0  0  0  0  0
  -25.6548  -12.1178   20.5861 C   0  0  0  0  0  0  0  0  0  0  0  0
  -21.1424  -25.5517   23.8676 C   0  0  0  0  0  0  0  0  0  0  0  0
  -21.1467  -29.0359   20.4387 C   0  0  0  0  0  0  0  0  0  0  0  0
  -27.3105  -10.9451   19.4005 C   0  0  0  0  0  0  0  0  0  0  0  0
  -29.7970  -10.9385   18.1358 C   0  0  0  0  0  0  0  0  0  0  0  0
  -27.4035  -10.6226   18.0466 C   0  0  0  0  0  0  0  0  0  0  0  0
  -24.3424  -15.7479   22.3176 C   0  0  0  0  0  0  0  0  0  0  0  0
  -23.1484  -17.4831   22.9486 C   0  0  0  0  0  0  0  0  0  0  0  0
  -21.8971  -15.8514   21.5274 C   0  0  0  0  0  0  0  0  0  0  0  0
  -26.4972  -28.7215   21.2972 C   0  0  0  0  0  0  0  0  0  0  0  0
  -26.3209  -31.5922   22.7974 C   0  0  0  0  0  0  0  0  0  0  0  0
  -24.3822  -34.1936   23.8562 C   0  0  0  0  0  0  0  0  0  0  0  0
  -26.0844  -22.1541   24.0727 C   0  0  0  0  0  0  0  0  0  0  0  0
  -30.1305  -25.8234   19.1858 C   0  0  0  0  0  0  0  0  0  0  0  0
  -25.2335  -30.0973   19.6042 C   0  0  0  0  0  0  0  0  0  0  0  0
  -23.5307  -22.0759   24.3542 C   0  0  0  0  0  0  0  0  0  0  0  0
  -24.1325  -30.4274   22.3288 C   0  0  0  0  0  0  0  0  0  0  0  0
  -24.6038  -24.0216   23.3563 C   0  0  0  0  0  0  0  0  0  0  0  0
  -30.0834  -26.8989   20.2681 C   0  0  0  0  0  0  0  0  0  0  0  0
  -26.7516  -19.1572   26.0816 C   0  0  0  0  0  0  0  0  0  0  0  0
  -28.9670  -26.6046   21.2650 C   0  0  0  0  0  0  0  0  0  0  0  0
  -26.1138  -18.0461   25.2447 C   0  0  0  0  0  0  0  0  0  0  0  0
  -27.2604  -20.3076   25.2152 C   0  0  0  0  0  0  0  0  0  0  0  0
  -25.6376  -19.7485   23.4487 C   0  0  0  0  0  0  0  0  0  0  0  0
  -27.5969  -26.6093   20.5762 C   0  0  1  0  0  0  0  0  0  0  0  0
  -26.1312  -30.1045   20.8378 C   0  0  1  0  0  0  0  0  0  0  0  0
  -25.0443  -18.6105   24.2897 C   0  0  1  0  0  0  0  0  0  0  0  0
  -24.5157  -36.3763   25.0872 C   0  0  0  0  0  0  0  0  0  0  0  0
  -26.5562  -30.0849   25.4399 C   0  0  0  0  0  0  0  0  0  0  0  0
  -25.7413  -32.1444   26.6071 C   0  0  0  0  0  0  0  0  0  0  0  0
  -27.8807  -32.2031   25.3256 C   0  0  0  0  0  0  0  0  0  0  0  0
  -19.1949  -29.4700   22.8775 C   0  0  0  0  0  0  0  0  0  0  0  0
  -18.3705  -27.2959   21.9293 C   0  0  0  0  0  0  0  0  0  0  0  0
  -23.4080  -35.7099   21.5088 C   0  0  0  0  0  0  0  0  0  0  0  0
  -20.7879  -27.5118   22.5683 C   0  0  0  0  0  0  0  0  0  0  0  0
  -25.6877  -32.0951   24.0722 C   0  0  1  0  0  0  0  0  0  0  0  0
  -24.5550  -35.6962   23.7275 C   0  0  2  0  0  0  0  0  0  0  0  0
  -26.4510  -31.6198   25.3406 C   0  0  0  0  0  0  0  0  0  0  0  0
  -19.5592  -28.2519   22.0266 C   0  0  0  0  0  0  0  0  0  1  0  0
  -25.1817  -16.4818   23.0531 N   0  0  0  0  0  0  0  0  0  0  0  0
  -24.4265  -17.5304   23.4224 N   0  0  0  0  0  0  0  0  0  0  0  0
  -25.5172  -30.7852   21.9796 N   0  0  0  0  0  0  0  0  0  0  0  0
  -24.7966  -22.6475   23.8488 N   0  0  0  0  0  0  0  0  0  0  0  0
  -26.2113  -20.7826   24.3145 N   0  0  0  0  0  0  0  0  0  0  0  0
  -22.2556  -18.4571   23.2253 N   0  0  0  0  0  0  0  0  0  0  0  0
  -21.9810  -14.6408   20.8260 N   0  0  0  0  0  0  0  0  0  0  0  0
  -27.1530  -27.9669   20.3433 N   0  0  0  0  0  0  0  0  0  0  0  0
  -25.5962  -33.5450   23.9381 N   0  0  0  0  0  0  0  0  0  0  0  0
  -23.4708  -36.2718   22.8825 N   0  3  0  0  0  0  0  0  0  0  0  0
  -20.8190  -16.4927   21.5182 O   0  0  0  0  0  0  0  0  0  0  0  0
  -26.2076  -28.3660   22.4336 O   0  0  0  0  0  0  0  0  0  0  0  0
  -27.4833  -31.9096   22.5334 O   0  0  0  0  0  0  0  0  0  0  0  0
  -23.2803  -33.6499   23.8853 O   0  0  0  0  0  0  0  0  0  0  0  0
  -27.0653  -22.9078   24.1105 O   0  0  0  0  0  0  0  0  0  0  0  0
  -26.0768  -10.9496   20.0295 O   0  0  0  0  0  0  0  0  0  0  0  0
  -20.4244  -26.6943   23.6788 O   0  0  0  0  0  0  0  0  0  0  0  0
  -19.8471  -28.7033   20.7007 O   0  0  0  0  0  0  0  0  0  1  0  0
  -30.9908  -10.9369   17.5283 F   0  0  0  0  0  0  0  0  0  0  0  0
  -26.3017  -10.3162   17.3480 F   0  0  0  0  0  0  0  0  0  0  0  0
  1  2  1  0  0  0  0
  1  5  2  0  0  0  0
  2  6  2  0  0  0  0
  3  9  2  0  0  0  0
  3 18  1  0  0  0  0
  4 10  1  0  0  0  0
  4 18  2  0  0  0  0
  5 20  1  0  0  0  0
  6 23  1  0  0  0  0
  7 11  2  0  0  0  0
  7 21  1  0  0  0  0
  8 12  2  0  0  0  0
  8 22  1  0  0  0  0
  9 26  1  0  0  0  0
 10 26  2  0  0  0  0
 11 28  1  0  0  0  0
 12 27  1  0  0  0  0
 13 14  2  0  0  0  0
 13 29  1  0  0  0  0
 14 30  1  0  0  0  0
 15 24  1  0  0  0  0
 15 27  2  0  0  0  0
 16 25  1  0  0  0  0
 16 28  2  0  0  0  0
 17 30  2  0  0  0  0
 17 31  1  0  0  0  0
 18 32  1  0  0  0  0
 19 32  1  0  0  0  0
 19 33  2  0  0  0  0
 19 34  1  0  0  0  0
 20 23  2  0  0  0  0
 20 39  1  0  0  0  0
 21 25  2  0  0  0  0
 21 40  1  0  0  0  0
 22 24  2  0  0  0  0
 22 41  1  0  0  0  0
 23 50  1  0  0  0  0
 24 43  1  0  0  0  0
 25 42  1  0  0  0  0
 26 80  1  0  0  0  0
 27 81  1  0  0  0  0
 28 82  1  0  0  0  0
 29 31  2  0  0  0  0
 29 80  1  0  0  0  0
 30 83  1  0  0  0  0
 31 84  1  0  0  0  0
 32 65  2  0  0  0  0
 33 66  1  0  0  0  0
 33 70  1  0  0  0  0
 34 71  1  0  0  0  0
 34 75  2  0  0  0  0
 35 51  1  0  0  0  0
 35 72  1  0  0  0  0
 35 76  2  0  0  0  0
 36 61  1  0  0  0  0
 36 67  1  0  0  0  0
 36 77  2  0  0  0  0
 37 62  1  0  0  0  0
 37 73  1  0  0  0  0
 37 78  2  0  0  0  0
 38 68  1  0  0  0  0
 38 69  1  0  0  0  0
 38 79  2  0  0  0  0
 39 44  1  0  0  0  0
 40 51  1  0  0  0  0
 41 68  1  0  0  0  0
 42 67  1  0  0  0  0
 43 68  1  0  0  0  0
 44 46  1  0  0  0  0
 45 47  1  0  0  0  0
 45 48  1  0  0  0  0
 46 50  1  0  0  0  0
 47 52  1  0  0  0  0
 48 69  1  0  0  0  0
 49 52  1  0  0  0  0
 49 69  1  0  0  0  0
 50 72  1  0  0  0  0
 51 67  1  0  0  0  0
 52 66  1  0  0  0  0
 53 62  1  0  0  0  0
 54 63  1  0  0  0  0
 55 63  1  0  0  0  0
 56 63  1  0  0  0  0
 57 64  1  0  0  0  0
 58 64  1  0  0  0  0
 59 74  1  0  0  0  0
 60 64  1  0  0  0  0
 60 81  1  0  0  0  0
 61 63  1  0  0  0  0
 61 73  1  0  0  0  0
 62 74  1  0  0  0  0
 64 82  1  0  0  0  0
 65 66  1  0  0  0  0
M  CHG  1  74   1
M  ISO  4  38 100  64 101  68 100  82 101
M  END
> <Batch ID>
0140

> <Smiles>
CNC(C)C(=O)NC(C(=O)N1Cc2cc([101O:1][101C:1](C)(C)COc3ccc4c(c3)C[100N:0]([100C:0](=O)N3CCCC(n5nc(-c6ccc(Oc7ccc(F)cc7F)cc6)c(C(N)=O)c5N)C3)C4)ccc2CC1C(=O)NC1CCCc2ccccc21)C(C)(C)C

> <Shape>
0.267

> <Color>
0.072

> <Negative vol penalty>
0.000

$$$$

  -OEChem-04052302513D

 89 97  0     1  0  0  0  0  0999 V2000
  -34.3793  -14.7448   22.5822 C   0  0  0  0  0  0  0  0  0  0  0  0
  -33.3279  -15.6531   22.5109 C   0  0  0  0  0  0  0  0  0  0  0  0
  -22.4230  -28.9066   20.7531 C   0  0  0  0  0  0  0  0  0  0  0  0
  -23.4783  -27.2793   22.1937 C   0  0  0  0  0  0  0  0  0  0  0  0
  -34.3291  -13.5629   21.8443 C   0  0  0  0  0  0  0  0  0  0  0  0
  -32.2262  -15.3805   21.7007 C   0  0  0  0  0  0  0  0  0  0  0  0
  -27.8271  -16.3659   24.0075 C   0  0  0  0  0  0  0  0  0  0  0  0
  -21.1691  -28.4846   21.1950 C   0  0  0  0  0  0  0  0  0  0  0  0
  -22.2244  -26.8573   22.6356 C   0  0  0  0  0  0  0  0  0  0  0  0
  -27.4325  -17.7010   24.0825 C   0  0  0  0  0  0  0  0  0  0  0  0
  -19.1995  -28.9414   23.9052 C   0  0  0  0  0  0  0  0  0  0  0  0
  -18.2649  -29.9224   24.2360 C   0  0  0  0  0  0  0  0  0  0  0  0
  -25.9503  -17.3618   22.2097 C   0  0  0  0  0  0  0  0  0  0  0  0
  -29.9340  -23.2674   20.7960 C   0  0  0  0  0  0  0  0  0  0  0  0
  -16.7665  -29.0649   22.5458 C   0  0  0  0  0  0  0  0  0  0  0  0
  -29.4009  -20.9810   21.1761 C   0  0  0  0  0  0  0  0  0  0  0  0
  -30.0236  -21.6391   19.0648 C   0  0  0  0  0  0  0  0  0  0  0  0
  -23.5776  -28.3039   21.2524 C   0  0  0  0  0  0  0  0  0  0  0  0
  -25.6749  -29.7526   21.3541 C   0  0  0  0  0  0  0  0  0  0  0  0
  -33.2219  -13.2712   21.0322 C   0  0  0  0  0  0  0  0  0  0  0  0
  -27.2935  -15.5201   23.0245 C   0  0  0  0  0  0  0  0  0  0  0  0
  -32.1618  -14.1942   20.9502 C   0  0  0  0  0  0  0  0  0  0  0  0
  -26.3379  -16.0158   22.1260 C   0  0  0  0  0  0  0  0  0  0  0  0
  -29.5339  -22.2669   21.6746 C   0  0  0  0  0  0  0  0  0  0  0  0
  -30.1855  -22.9559   19.4644 C   0  0  0  0  0  0  0  0  0  0  0  0
  -21.0698  -27.4600   22.1362 C   0  0  0  0  0  0  0  0  0  0  0  0
  -26.4962  -18.1999   23.1817 C   0  0  0  0  0  0  0  0  0  0  0  0
  -18.9177  -28.0221   22.8946 C   0  0  0  0  0  0  0  0  0  0  0  0
  -17.0484  -29.9842   23.5564 C   0  0  0  0  0  0  0  0  0  0  0  0
  -17.7012  -28.0839   22.2150 C   0  0  0  0  0  0  0  0  0  0  0  0
  -24.8732  -28.7389   20.7960 C   0  0  0  0  0  0  0  0  0  0  0  0
  -26.7969  -29.7781   20.5623 C   0  0  0  0  0  0  0  0  0  0  0  0
  -25.4275  -30.5958   22.4870 C   0  0  0  0  0  0  0  0  0  0  0  0
  -28.4988  -13.8724   20.5881 C   0  0  0  0  0  0  0  0  0  0  0  0
  -26.8326  -21.8089   23.1220 C   0  0  0  0  0  0  0  0  0  0  0  0
  -25.4701  -12.7319   20.3676 C   0  0  0  0  0  0  0  0  0  0  0  0
  -22.1487  -13.1884   21.0058 C   0  0  0  0  0  0  0  0  0  0  0  0
  -29.4337  -25.6709   17.0939 C   0  0  0  0  0  0  0  0  0  0  0  0
  -33.2341  -12.0028   20.2163 C   0  0  0  0  0  0  0  0  0  0  0  0
  -27.7096  -14.0756   22.9739 C   0  0  0  0  0  0  0  0  0  0  0  0
  -25.7198  -15.1438   21.0649 C   0  0  0  0  0  0  0  0  0  0  0  0
  -31.8615  -11.6151   19.6724 C   0  0  0  0  0  0  0  0  0  0  0  0
  -28.2472  -28.8752   16.0933 C   0  0  0  0  0  0  0  0  0  0  0  0
  -31.1704  -12.8267   19.0548 C   0  0  0  0  0  0  0  0  0  0  0  0
  -27.3203  -29.2951   17.2354 C   0  0  0  0  0  0  0  0  0  0  0  0
  -28.1637  -27.3749   15.8212 C   0  0  0  0  0  0  0  0  0  0  0  0
  -27.4611  -26.9380   18.1427 C   0  0  0  0  0  0  0  0  0  0  0  0
  -30.9384  -13.9227   20.1019 C   0  0  1  0  0  0  0  0  0  0  0  0
  -27.4842  -13.4364   21.6071 C   0  0  1  0  0  0  0  0  0  0  0  0
  -27.5521  -28.4335   18.4913 C   0  0  2  0  0  0  0  0  0  0  0  0
  -33.1256  -23.7080   18.9708 C   0  0  0  0  0  0  0  0  0  0  0  0
  -26.3748  -23.5717   25.6135 C   0  0  0  0  0  0  0  0  0  0  0  0
  -28.1494  -25.5166   22.9822 C   0  0  0  0  0  0  0  0  0  0  0  0
  -19.9113  -12.1019   20.6728 C   0  0  0  0  0  0  0  0  0  0  0  0
  -25.4985  -13.5774   17.4360 C   0  0  0  0  0  0  0  0  0  0  0  0
  -23.0046  -13.3581   17.4208 C   0  0  0  0  0  0  0  0  0  0  0  0
  -24.4279  -11.3597   17.8718 C   0  0  0  0  0  0  0  0  0  0  0  0
  -21.6754  -13.0024   23.9213 C   0  0  0  0  0  0  0  0  0  0  0  0
  -29.2534  -22.5730   23.1309 C   0  0  0  0  0  0  0  0  0  0  0  0
  -27.0683  -20.4388   23.7436 C   0  0  0  0  0  0  0  0  0  1  0  0
  -31.9504  -24.6761   18.9094 C   0  0  0  0  0  0  0  0  0  0  0  0
  -27.7438  -23.2076   25.0454 C   0  0  0  0  0  0  0  0  0  0  0  0
  -27.3289  -24.2548   22.7367 C   0  0  0  0  0  0  0  0  0  0  0  0
  -30.6169  -24.0031   18.5002 C   0  0  2  0  0  0  0  0  0  0  0  0
  -24.2183  -13.1563   19.6382 C   0  0  1  0  0  0  0  0  0  0  0  0
  -21.1020  -12.2662   21.6045 C   0  0  2  0  0  0  0  0  0  0  0  0
  -27.7881  -22.9754   23.5041 C   0  0  0  0  0  0  0  0  0  0  0  0
  -24.3002  -12.8801   18.1104 C   0  0  0  0  0  0  0  0  0  0  0  0
  -29.6363  -20.6401   19.8892 N   0  0  0  0  0  0  0  0  0  0  0  0
  -25.4378  -28.1623   19.7317 N   0  0  0  0  0  0  0  0  0  0  0  0
  -26.6063  -28.8158   19.6147 N   0  0  0  0  0  0  0  0  0  0  0  0
  -26.1637  -13.7401   21.0519 N   0  0  0  0  0  0  0  0  0  0  0  0
  -28.3943  -26.6148   17.0520 N   0  0  0  0  0  0  0  0  0  0  0  0
  -27.9180  -30.5295   20.5911 N   0  0  0  0  0  0  0  0  0  0  0  0
  -24.2243  -30.4371   23.1880 N   0  0  0  0  0  0  0  0  0  0  0  0
  -29.8053  -13.5906   20.9387 N   0  0  0  0  0  0  0  0  0  0  0  0
  -23.1087  -12.4865   20.3079 N   0  0  0  0  0  0  0  0  0  0  0  0
  -29.5878  -24.9991   18.3004 N   0  0  0  0  0  0  0  0  0  0  0  0
  -20.6119  -12.8120   22.9017 N   0  3  0  0  0  0  0  0  0  0  0  0
  -26.2419  -31.4754   22.8566 O   0  0  0  0  0  0  0  0  0  0  0  0
  -28.1238  -14.4224   19.5592 O   0  0  0  0  0  0  0  0  0  0  0  0
  -25.9159  -21.9699   22.3114 O   0  0  0  0  0  0  0  0  0  0  0  0
  -25.8156  -11.5482   20.3375 O   0  0  0  0  0  0  0  0  0  0  0  0
  -22.1159  -14.4096   21.1404 O   0  0  0  0  0  0  0  0  0  0  0  0
  -30.1731  -25.4475   16.1294 O   0  0  0  0  0  0  0  0  0  0  0  0
  -19.8464  -27.0482   22.5678 O   0  0  0  0  0  0  0  0  0  0  0  0
  -26.1097  -19.5028   23.2522 O   0  0  0  0  0  0  0  0  0  1  0  0
  -16.1503  -30.9255   23.8753 F   0  0  0  0  0  0  0  0  0  0  0  0
  -17.4244  -27.2027   21.2440 F   0  0  0  0  0  0  0  0  0  0  0  0
  1  2  1  0  0  0  0
  1  5  2  0  0  0  0
  2  6  2  0  0  0  0
  3  8  2  0  0  0  0
  3 18  1  0  0  0  0
  4  9  1  0  0  0  0
  4 18  2  0  0  0  0
  5 20  1  0  0  0  0
  6 22  1  0  0  0  0
  7 10  2  0  0  0  0
  7 21  1  0  0  0  0
  8 26  1  0  0  0  0
  9 26  2  0  0  0  0
 10 27  1  0  0  0  0
 11 12  2  0  0  0  0
 11 28  1  0  0  0  0
 12 29  1  0  0  0  0
 13 23  1  0  0  0  0
 13 27  2  0  0  0  0
 14 24  1  0  0  0  0
 14 25  2  0  0  0  0
 15 29  2  0  0  0  0
 15 30  1  0  0  0  0
 16 24  2  0  0  0  0
 16 69  1  0  0  0  0
 17 25  1  0  0  0  0
 17 69  2  0  0  0  0
 18 31  1  0  0  0  0
 19 31  1  0  0  0  0
 19 32  2  0  0  0  0
 19 33  1  0  0  0  0
 20 22  2  0  0  0  0
 20 39  1  0  0  0  0
 21 23  2  0  0  0  0
 21 40  1  0  0  0  0
 22 48  1  0  0  0  0
 23 41  1  0  0  0  0
 24 59  1  0  0  0  0
 25 64  1  0  0  0  0
 26 86  1  0  0  0  0
 27 87  1  0  0  0  0
 28 30  2  0  0  0  0
 28 86  1  0  0  0  0
 29 88  1  0  0  0  0
 30 89  1  0  0  0  0
 31 70  2  0  0  0  0
 32 71  1  0  0  0  0
 32 74  1  0  0  0  0
 33 75  1  0  0  0  0
 33 80  2  0  0  0  0
 34 49  1  0  0  0  0
 34 76  1  0  0  0  0
 34 81  2  0  0  0  0
 35 60  1  0  0  0  0
 35 67  1  0  0  0  0
 35 82  2  0  0  0  0
 36 65  1  0  0  0  0
 36 72  1  0  0  0  0
 36 83  2  0  0  0  0
 37 66  1  0  0  0  0
 37 77  1  0  0  0  0
 37 84  2  0  0  0  0
 38 73  1  0  0  0  0
 38 78  1  0  0  0  0
 38 85  2  0  0  0  0
 39 42  1  0  0  0  0
 40 49  1  0  0  0  0
 41 72  1  0  0  0  0
 42 44  1  0  0  0  0
 43 45  1  0  0  0  0
 43 46  1  0  0  0  0
 44 48  1  0  0  0  0
 45 50  1  0  0  0  0
 46 73  1  0  0  0  0
 47 50  1  0  0  0  0
 47 73  1  0  0  0  0
 48 76  1  0  0  0  0
 49 72  1  0  0  0  0
 50 71  1  0  0  0  0
 51 61  1  0  0  0  0
 52 62  1  0  0  0  0
 53 63  1  0  0  0  0
 54 66  1  0  0  0  0
 55 68  1  0  0  0  0
 56 68  1  0  0  0  0
 57 68  1  0  0  0  0
 58 79  1  0  0  0  0
 59 67  1  0  0  0  0
 60 87  1  0  0  0  0
 61 64  1  0  0  0  0
 62 67  1  0  0  0  0
 63 67  1  0  0  0  0
 64 78  1  0  0  0  0
 65 68  1  0  0  0  0
 65 77  1  0  0  0  0
 66 79  1  0  0  0  0
 70 71  1  0  0  0  0
M  CHG  1  79   1
M  ISO  4  38 100  60 101  78 100  87 101
M  END
> <Batch ID>
0140

> <Smiles>
CCC([100NH:0][100C:0](=O)N1CCCC(n2nc(-c3ccc(Oc4ccc(F)cc4F)cc3)c(C(N)=O)c2N)C1)c1cncc(CC(CC)(CC)C(=O)[101CH2:1][101O:1]c2ccc3c(c2)CN(C(=O)C(NC(=O)C(C)NC)C(C)(C)C)C(C(=O)NC2CCCc4ccccc42)C3)c1

> <Shape>
0.268

> <Color>
0.070

> <Negative vol penalty>
0.000

$$$$

  -OEChem-04052302513D

 87 95  0     1  0  0  0  0  0999 V2000
  -16.6446  -28.8740   23.5140 C   0  0  0  0  0  0  0  0  0  0  0  0
  -17.4651  -28.2826   22.5587 C   0  0  0  0  0  0  0  0  0  0  0  0
  -24.6028  -13.8602   21.3810 C   0  0  0  0  0  0  0  0  0  0  0  0
  -26.3692  -13.6092   19.7519 C   0  0  0  0  0  0  0  0  0  0  0  0
  -17.1919  -29.7345   24.4648 C   0  0  0  0  0  0  0  0  0  0  0  0
  -18.8332  -28.5521   22.5531 C   0  0  0  0  0  0  0  0  0  0  0  0
  -25.1241  -25.4714   21.0529 C   0  0  0  0  0  0  0  0  0  0  0  0
  -33.6487  -22.9604   19.6584 C   0  0  0  0  0  0  0  0  0  0  0  0
  -33.4908  -21.8640   20.5061 C   0  0  0  0  0  0  0  0  0  0  0  0
  -24.0146  -12.6805   20.9250 C   0  0  0  0  0  0  0  0  0  0  0  0
  -25.7810  -12.4295   19.2959 C   0  0  0  0  0  0  0  0  0  0  0  0
  -26.2795  -25.6909   20.3041 C   0  0  0  0  0  0  0  0  0  0  0  0
  -24.4943   -9.3538   21.2931 C   0  0  0  0  0  0  0  0  0  0  0  0
  -24.0527   -8.4382   22.2483 C   0  0  0  0  0  0  0  0  0  0  0  0
  -27.1262  -27.1313   22.0441 C   0  0  0  0  0  0  0  0  0  0  0  0
  -31.2591  -23.0356   19.3104 C   0  0  0  0  0  0  0  0  0  0  0  0
  -21.8027   -8.6262   21.3884 C   0  0  0  0  0  0  0  0  0  0  0  0
  -25.7801  -14.3246   20.7945 C   0  0  0  0  0  0  0  0  0  0  0  0
  -27.3483  -15.6756   22.2854 C   0  0  0  0  0  0  0  0  0  0  0  0
  -18.5689  -30.0071   24.4768 C   0  0  0  0  0  0  0  0  0  0  0  0
  -24.9560  -26.0899   22.3002 C   0  0  0  0  0  0  0  0  0  0  0  0
  -19.3992  -29.4180   23.5042 C   0  0  0  0  0  0  0  0  0  0  0  0
  -25.9689  -26.9160   22.8079 C   0  0  0  0  0  0  0  0  0  0  0  0
  -32.5329  -23.5462   19.0606 C   0  0  0  0  0  0  0  0  0  0  0  0
  -32.2170  -21.3533   20.7559 C   0  0  0  0  0  0  0  0  0  0  0  0
  -31.1012  -21.9391   20.1580 C   0  0  0  0  0  0  0  0  0  0  0  0
  -24.6037  -11.9652   19.8825 C   0  0  0  0  0  0  0  0  0  0  0  0
  -27.2795  -26.5233   20.7984 C   0  0  0  0  0  0  0  0  0  0  0  0
  -23.5901   -9.9056   20.3856 C   0  0  0  0  0  0  0  0  0  0  0  0
  -22.7070   -8.0744   22.2959 C   0  0  0  0  0  0  0  0  0  0  0  0
  -22.2443   -9.5419   20.4332 C   0  0  0  0  0  0  0  0  0  0  0  0
  -26.3879  -15.5434   21.2647 C   0  0  0  0  0  0  0  0  0  0  0  0
  -27.5991  -17.0246   22.3483 C   0  0  0  0  0  0  0  0  0  0  0  0
  -27.9592  -14.6691   23.1036 C   0  0  0  0  0  0  0  0  0  0  0  0
  -22.8746  -28.1635   23.5134 C   0  0  0  0  0  0  0  0  0  0  0  0
  -24.4768  -27.5640   26.2695 C   0  0  0  0  0  0  0  0  0  0  0  0
  -27.3560  -26.5270   27.7801 C   0  0  0  0  0  0  0  0  0  0  0  0
  -28.5977  -21.9136   19.8778 C   0  0  0  0  0  0  0  0  0  0  0  0
  -19.1072  -30.9809   25.4950 C   0  0  0  0  0  0  0  0  0  0  0  0
  -23.7155  -25.8217   23.1075 C   0  0  0  0  0  0  0  0  0  0  0  0
  -25.8460  -27.5876   24.1504 C   0  0  0  0  0  0  0  0  0  0  0  0
  -20.6244  -30.9207   25.6526 C   0  0  0  0  0  0  0  0  0  0  0  0
  -25.1923  -20.9260   20.2016 C   0  0  0  0  0  0  0  0  0  0  0  0
  -21.3028  -30.9046   24.2864 C   0  0  0  0  0  0  0  0  0  0  0  0
  -25.2788  -19.4485   20.5911 C   0  0  0  0  0  0  0  0  0  0  0  0
  -26.2821  -21.3143   19.2041 C   0  0  0  0  0  0  0  0  0  0  0  0
  -27.7363  -19.4933   20.0032 C   0  0  0  0  0  0  0  0  0  0  0  0
  -20.8918  -29.6662   23.4809 C   0  0  1  0  0  0  0  0  0  0  0  0
  -23.4243  -26.9109   24.1352 C   0  0  1  0  0  0  0  0  0  0  0  0
  -26.6988  -19.0704   21.0560 C   0  0  2  0  0  0  0  0  0  0  0  0
  -32.0779  -20.1774   21.6675 C   0  0  0  0  0  0  0  0  0  0  0  0
  -28.3773  -26.1806   30.0460 C   0  0  0  0  0  0  0  0  0  0  0  0
  -24.8649  -30.5772   26.5526 C   0  0  0  0  0  0  0  0  0  0  0  0
  -26.6485  -30.1178   28.2485 C   0  0  0  0  0  0  0  0  0  0  0  0
  -24.3013  -29.3933   28.6822 C   0  0  0  0  0  0  0  0  0  0  0  0
  -33.7837  -26.2828   19.8375 C   0  0  0  0  0  0  0  0  0  0  0  0
  -32.9496  -27.1620   17.6554 C   0  0  0  0  0  0  0  0  0  0  0  0
  -30.0706  -28.4089   18.3680 C   0  0  0  0  0  0  0  0  0  0  0  0
  -31.5541  -28.7940   20.3535 C   0  0  0  0  0  0  0  0  0  0  0  0
  -27.7291  -23.6311   27.2972 C   0  0  0  0  0  0  0  0  0  0  0  0
  -32.7051  -24.7353   18.1416 C   0  0  0  0  0  0  0  0  0  0  0  0
  -31.2455  -26.3879   19.4330 C   0  0  0  0  0  0  0  0  0  0  0  0
  -29.3919  -27.6037   20.6358 C   0  0  0  0  0  0  0  0  0  1  0  0
  -25.6802  -28.1612   26.9581 C   0  0  1  0  0  0  0  0  0  0  0  0
  -27.6036  -25.5383   28.9051 C   0  0  2  0  0  0  0  0  0  0  0  0
  -25.3755  -29.5514   27.5841 C   0  0  0  0  0  0  0  0  0  0  0  0
  -32.6560  -26.1669   18.7920 C   0  0  0  0  0  0  0  0  0  0  0  0
  -30.6056  -27.7956   19.6783 C   0  0  0  0  0  0  0  0  0  0  0  0
  -26.0513  -16.7149   20.7185 N   0  0  0  0  0  0  0  0  0  0  0  0
  -26.8043  -17.5961   21.3987 N   0  0  0  0  0  0  0  0  0  0  0  0
  -24.6117  -27.2991   24.8993 N   0  0  0  0  0  0  0  0  0  0  0  0
  -27.6001  -20.9294   19.7136 N   0  0  0  0  0  0  0  0  0  0  0  0
  -28.4197  -17.7657   23.1228 N   0  0  0  0  0  0  0  0  0  0  0  0
  -27.5873  -13.3321   22.9073 N   0  0  0  0  0  0  0  0  0  0  0  0
  -29.7991  -21.4353   20.4000 N   0  0  0  0  0  0  0  0  0  0  0  0
  -21.6069  -28.4984   23.9493 N   0  0  0  0  0  0  0  0  0  0  0  0
  -26.1397  -27.1620   27.9167 N   0  0  0  0  0  0  0  0  0  0  0  0
  -28.3843  -24.3710   28.4063 N   0  3  0  0  0  0  0  0  0  0  0  0
  -28.7976  -14.9487   23.9937 O   0  0  0  0  0  0  0  0  0  0  0  0
  -23.5513  -28.7812   22.6996 O   0  0  0  0  0  0  0  0  0  0  0  0
  -23.4573  -27.3342   26.9247 O   0  0  0  0  0  0  0  0  0  0  0  0
  -28.1627  -26.7197   26.8731 O   0  0  0  0  0  0  0  0  0  0  0  0
  -28.3918  -23.0985   19.6029 O   0  0  0  0  0  0  0  0  0  0  0  0
  -24.0301  -10.8139   19.4374 O   0  0  0  0  0  0  0  0  0  0  0  0
  -28.4157  -26.7412   20.0643 O   0  0  0  0  0  0  0  0  0  1  0  0
  -22.2834   -7.1940   23.2122 F   0  0  0  0  0  0  0  0  0  0  0  0
  -21.3712  -10.0678   19.5632 F   0  0  0  0  0  0  0  0  0  0  0  0
  1  2  1  0  0  0  0
  1  5  2  0  0  0  0
  2  6  2  0  0  0  0
  3 10  2  0  0  0  0
  3 18  1  0  0  0  0
  4 11  1  0  0  0  0
  4 18  2  0  0  0  0
  5 20  1  0  0  0  0
  6 22  1  0  0  0  0
  7 12  2  0  0  0  0
  7 21  1  0  0  0  0
  8  9  2  0  0  0  0
  8 24  1  0  0  0  0
  9 25  1  0  0  0  0
 10 27  1  0  0  0  0
 11 27  2  0  0  0  0
 12 28  1  0  0  0  0
 13 14  2  0  0  0  0
 13 29  1  0  0  0  0
 14 30  1  0  0  0  0
 15 23  1  0  0  0  0
 15 28  2  0  0  0  0
 16 24  2  0  0  0  0
 16 26  1  0  0  0  0
 17 30  2  0  0  0  0
 17 31  1  0  0  0  0
 18 32  1  0  0  0  0
 19 32  1  0  0  0  0
 19 33  2  0  0  0  0
 19 34  1  0  0  0  0
 20 22  2  0  0  0  0
 20 39  1  0  0  0  0
 21 23  2  0  0  0  0
 21 40  1  0  0  0  0
 22 48  1  0  0  0  0
 23 41  1  0  0  0  0
 24 61  1  0  0  0  0
 25 26  2  0  0  0  0
 25 51  1  0  0  0  0
 26 75  1  0  0  0  0
 27 84  1  0  0  0  0
 28 85  1  0  0  0  0
 29 31  2  0  0  0  0
 29 84  1  0  0  0  0
 30 86  1  0  0  0  0
 31 87  1  0  0  0  0
 32 69  2  0  0  0  0
 33 70  1  0  0  0  0
 33 73  1  0  0  0  0
 34 74  1  0  0  0  0
 34 79  2  0  0  0  0
 35 49  1  0  0  0  0
 35 76  1  0  0  0  0
 35 80  2  0  0  0  0
 36 64  1  0  0  0  0
 36 71  1  0  0  0  0
 36 81  2  0  0  0  0
 37 65  1  0  0  0  0
 37 77  1  0  0  0  0
 37 82  2  0  0  0  0
 38 72  1  0  0  0  0
 38 75  1  0  0  0  0
 38 83  2  0  0  0  0
 39 42  1  0  0  0  0
 40 49  1  0  0  0  0
 41 71  1  0  0  0  0
 42 44  1  0  0  0  0
 43 45  1  0  0  0  0
 43 46  1  0  0  0  0
 44 48  1  0  0  0  0
 45 50  1  0  0  0  0
 46 72  1  0  0  0  0
 47 50  1  0  0  0  0
 47 72  1  0  0  0  0
 48 76  1  0  0  0  0
 49 71  1  0  0  0  0
 50 70  1  0  0  0  0
 52 65  1  0  0  0  0
 53 66  1  0  0  0  0
 54 66  1  0  0  0  0
 55 66  1  0  0  0  0
 56 67  1  0  0  0  0
 57 67  1  0  0  0  0
 58 68  1  0  0  0  0
 59 68  1  0  0  0  0
 60 78  1  0  0  0  0
 61 67  1  0  0  0  0
 62 67  1  0  0  0  0
 62 68  1  0  0  0  0
 63 68  1  0  0  0  0
 63 85  1  0  0  0  0
 64 66  1  0  0  0  0
 64 77  1  0  0  0  0
 65 78  1  0  0  0  0
 69 70  1  0  0  0  0
M  CHG  1  78   1
M  ISO  4  38 100  63 101  75 100  85 101
M  END
> <Batch ID>
0140

> <Smiles>
CNC(C)C(=O)NC(C(=O)N1Cc2cc([101O:1][101CH2:1]C(C)(C)CC(C)(C)Cc3ccc(C)c([100NH:0][100C:0](=O)N4CCCC(n5nc(-c6ccc(Oc7ccc(F)cc7F)cc6)c(C(N)=O)c5N)C4)c3)ccc2CC1C(=O)NC1CCCc2ccccc21)C(C)(C)C

> <Shape>
0.217

> <Color>
0.090

> <Negative vol penalty>
0.000

$$$$

  -OEChem-04052302513D

 95104  0     1  0  0  0  0  0999 V2000
  -12.6756  -27.4046   24.3402 C   0  0  0  0  0  0  0  0  0  0  0  0
  -12.9944  -26.6493   25.4641 C   0  0  0  0  0  0  0  0  0  0  0  0
  -23.0008   -9.8933   19.9813 C   0  0  0  0  0  0  0  0  0  0  0  0
  -23.7251   -9.9452   22.2856 C   0  0  0  0  0  0  0  0  0  0  0  0
  -12.9768  -26.9204   23.0679 C   0  0  0  0  0  0  0  0  0  0  0  0
  -13.6136  -25.4087   25.3163 C   0  0  0  0  0  0  0  0  0  0  0  0
  -20.3220  -22.7763   28.3322 C   0  0  0  0  0  0  0  0  0  0  0  0
  -29.0240  -21.9251   26.2321 C   0  0  0  0  0  0  0  0  0  0  0  0
  -28.0133  -21.6716   27.1593 C   0  0  0  0  0  0  0  0  0  0  0  0
  -22.2341   -8.7590   20.2479 C   0  0  0  0  0  0  0  0  0  0  0  0
  -22.9583   -8.8109   22.5522 C   0  0  0  0  0  0  0  0  0  0  0  0
  -21.5680  -22.2532   28.6785 C   0  0  0  0  0  0  0  0  0  0  0  0
  -23.2026   -5.4717   22.0818 C   0  0  0  0  0  0  0  0  0  0  0  0
  -23.7898   -4.4548   22.8345 C   0  0  0  0  0  0  0  0  0  0  0  0
  -31.9188  -18.7508   22.3279 C   0  0  0  0  0  0  0  0  0  0  0  0
  -31.8198  -17.4776   21.6961 C   0  0  0  0  0  0  0  0  0  0  0  0
  -21.5327  -20.8414   26.7154 C   0  0  0  0  0  0  0  0  0  0  0  0
  -27.4295  -23.0377   24.7980 C   0  0  0  0  0  0  0  0  0  0  0  0
  -22.0653   -4.6986   24.5090 C   0  0  0  0  0  0  0  0  0  0  0  0
  -23.7464  -10.4864   21.0002 C   0  0  0  0  0  0  0  0  0  0  0  0
  -24.1319  -13.0019   20.8232 C   0  0  0  0  0  0  0  0  0  0  0  0
  -13.6088  -25.6775   22.9049 C   0  0  0  0  0  0  0  0  0  0  0  0
  -19.6828  -22.3447   27.1666 C   0  0  0  0  0  0  0  0  0  0  0  0
  -13.9224  -24.9068   24.0406 C   0  0  0  0  0  0  0  0  0  0  0  0
  -20.2902  -21.3710   26.3569 C   0  0  0  0  0  0  0  0  0  0  0  0
  -28.7322  -22.6082   25.0515 C   0  0  0  0  0  0  0  0  0  0  0  0
  -26.7106  -22.1010   26.9058 C   0  0  0  0  0  0  0  0  0  0  0  0
  -22.2128   -8.2178   21.5333 C   0  0  0  0  0  0  0  0  0  0  0  0
  -22.1717  -21.2879   27.8722 C   0  0  0  0  0  0  0  0  0  0  0  0
  -22.0468   -6.1022   22.5427 C   0  0  0  0  0  0  0  0  0  0  0  0
  -23.2212   -4.0682   24.0481 C   0  0  0  0  0  0  0  0  0  0  0  0
  -26.4187  -22.7842   25.7252 C   0  0  0  0  0  0  0  0  0  0  0  0
  -21.4781   -5.7156   23.7562 C   0  0  0  0  0  0  0  0  0  0  0  0
  -24.5390  -11.6578   20.7254 C   0  0  0  0  0  0  0  0  0  0  0  0
  -30.7659  -19.0838   23.0043 C   0  0  0  0  0  0  0  0  0  0  0  0
  -25.2419  -13.7243   20.4590 C   0  0  0  0  0  0  0  0  0  0  0  0
  -30.5949  -16.8858   21.9139 C   0  0  0  0  0  0  0  0  0  0  0  0
  -22.8638  -13.5486   21.2091 C   0  0  0  0  0  0  0  0  0  0  0  0
  -16.6978  -22.6283   24.9116 C   0  0  0  0  0  0  0  0  0  0  0  0
  -19.1630  -22.3918   23.1012 C   0  0  0  0  0  0  0  0  0  0  0  0
  -22.1555  -22.5315   21.4694 C   0  0  0  0  0  0  0  0  0  0  0  0
  -30.7214  -14.6849   20.6946 C   0  0  0  0  0  0  0  0  0  0  0  0
  -13.8718  -25.1746   21.5075 C   0  0  0  0  0  0  0  0  0  0  0  0
  -18.3122  -22.8357   26.7871 C   0  0  0  0  0  0  0  0  0  0  0  0
  -19.5499  -20.9113   25.1307 C   0  0  0  0  0  0  0  0  0  0  0  0
  -14.8674  -24.0187   21.4535 C   0  0  0  0  0  0  0  0  0  0  0  0
  -29.6037  -12.2313   18.3692 C   0  0  0  0  0  0  0  0  0  0  0  0
  -14.5293  -22.9731   22.5115 C   0  0  0  0  0  0  0  0  0  0  0  0
  -28.1529  -11.9739   18.7829 C   0  0  0  0  0  0  0  0  0  0  0  0
  -30.5038  -12.4751   19.5792 C   0  0  0  0  0  0  0  0  0  0  0  0
  -28.5880  -13.2646   20.9118 C   0  0  0  0  0  0  0  0  0  0  0  0
  -14.6169  -23.5674   23.9223 C   0  0  1  0  0  0  0  0  0  0  0  0
  -18.1168  -22.9637   25.2657 C   0  0  1  0  0  0  0  0  0  0  0  0
  -27.6308  -13.0779   19.7233 C   0  0  2  0  0  0  0  0  0  0  0  0
  -23.1376  -22.6667   19.1641 C   0  0  0  0  0  0  0  0  0  0  0  0
  -24.8878  -19.5856   26.7883 C   0  0  0  0  0  0  0  0  0  0  0  0
  -29.5275  -24.2135   23.2574 C   0  0  0  0  0  0  0  0  0  0  0  0
  -31.1908  -23.2336   24.7571 C   0  0  0  0  0  0  0  0  0  0  0  0
  -25.0089  -23.1784   28.3991 C   0  0  0  0  0  0  0  0  0  0  0  0
  -26.1022  -21.1175   29.2194 C   0  0  0  0  0  0  0  0  0  0  0  0
  -18.5314  -19.4400   22.6630 C   0  0  0  0  0  0  0  0  0  0  0  0
  -20.2941  -19.3998   20.8855 C   0  0  0  0  0  0  0  0  0  0  0  0
  -18.2965  -20.8711   20.6256 C   0  0  0  0  0  0  0  0  0  0  0  0
  -28.7776  -21.3436   22.1892 C   0  0  0  0  0  0  0  0  0  0  0  0
  -31.1723  -21.9599   21.9632 C   0  0  0  0  0  0  0  0  0  0  0  0
  -23.4747  -25.1147   22.0571 C   0  0  0  0  0  0  0  0  0  0  0  0
  -30.4671  -20.3397   23.7976 C   0  0  0  0  0  0  0  0  0  0  0  0
  -20.0738  -21.4814   22.3170 C   0  0  1  0  0  0  0  0  0  0  0  0
  -22.6651  -23.4537   20.3766 C   0  0  2  0  0  0  0  0  0  0  0  0
  -24.4525  -20.9670   27.2784 C   0  0  2  0  0  0  0  0  0  1  0  0
  -29.8127  -22.8791   24.0601 C   0  0  0  0  0  0  0  0  0  0  0  0
  -25.5946  -21.8181   27.9325 C   0  0  0  0  0  0  0  0  0  0  0  0
  -19.3053  -20.3063   21.6493 C   0  0  0  0  0  0  0  0  0  0  0  0
  -30.0653  -21.6389   23.0022 C   0  0  0  0  0  0  0  0  0  0  0  0
  -25.8084  -11.5311   20.3297 N   0  0  0  0  0  0  0  0  0  0  0  0
  -26.2085  -12.8048   20.1757 N   0  0  0  0  0  0  0  0  0  0  0  0
  -18.9472  -22.0654   24.4456 N   0  0  0  0  0  0  0  0  0  0  0  0
  -29.9485  -13.5364   20.4219 N   0  0  0  0  0  0  0  0  0  0  0  0
  -25.4755  -15.0499   20.3564 N   0  0  0  0  0  0  0  0  0  0  0  0
  -21.8319  -12.6646   21.5526 N   0  0  0  0  0  0  0  0  0  0  0  0
  -30.0769  -15.6405   21.4796 N   0  0  0  0  0  0  0  0  0  0  0  0
  -15.9982  -23.6743   24.3408 N   0  0  0  0  0  0  0  0  0  0  0  0
  -20.7938  -22.3347   21.3779 N   0  0  0  0  0  0  0  0  0  0  0  0
  -23.8048  -24.2720   20.8791 N   0  3  0  0  0  0  0  0  0  0  0  0
  -22.6472  -14.7839   21.2322 O   0  0  0  0  0  0  0  0  0  0  0  0
  -16.2685  -21.5030   25.1376 O   0  0  0  0  0  0  0  0  0  0  0  0
  -18.6509  -23.3634   22.5382 O   0  0  0  0  0  0  0  0  0  0  0  0
  -22.8923  -22.0324   22.3171 O   0  0  0  0  0  0  0  0  0  0  0  0
  -31.8602  -14.8236   20.2410 O   0  0  0  0  0  0  0  0  0  0  0  0
  -21.4646   -7.1111   21.7938 O   0  0  0  0  0  0  0  0  0  0  0  0
  -23.3903  -20.7847   28.2137 O   0  0  0  0  0  0  0  0  0  1  0  0
  -23.7843   -3.0906   24.7702 F   0  0  0  0  0  0  0  0  0  0  0  0
  -25.1697  -23.1998   25.4726 F   0  0  0  0  0  0  0  0  0  0  0  0
  -20.3671   -6.3167   24.2036 F   0  0  0  0  0  0  0  0  0  0  0  0
  -29.5708  -17.8641   22.8764 S   0  0  0  0  0  0  0  0  0  0  0  0
  1  2  1  0  0  0  0
  1  5  2  0  0  0  0
  2  6  2  0  0  0  0
  3 10  2  0  0  0  0
  3 20  1  0  0  0  0
  4 11  1  0  0  0  0
  4 20  2  0  0  0  0
  5 22  1  0  0  0  0
  6 24  1  0  0  0  0
  7 12  2  0  0  0  0
  7 23  1  0  0  0  0
  8  9  2  0  0  0  0
  8 26  1  0  0  0  0
  9 27  1  0  0  0  0
 10 28  1  0  0  0  0
 11 28  2  0  0  0  0
 12 29  1  0  0  0  0
 13 14  2  0  0  0  0
 13 30  1  0  0  0  0
 14 31  1  0  0  0  0
 15 16  1  0  0  0  0
 15 35  2  0  0  0  0
 16 37  2  0  0  0  0
 17 25  1  0  0  0  0
 17 29  2  0  0  0  0
 18 26  2  0  0  0  0
 18 32  1  0  0  0  0
 19 31  2  0  0  0  0
 19 33  1  0  0  0  0
 20 34  1  0  0  0  0
 21 34  1  0  0  0  0
 21 36  2  0  0  0  0
 21 38  1  0  0  0  0
 22 24  2  0  0  0  0
 22 43  1  0  0  0  0
 23 25  2  0  0  0  0
 23 44  1  0  0  0  0
 24 52  1  0  0  0  0
 25 45  1  0  0  0  0
 26 71  1  0  0  0  0
 27 32  2  0  0  0  0
 27 72  1  0  0  0  0
 28 90  1  0  0  0  0
 29 91  1  0  0  0  0
 30 33  2  0  0  0  0
 30 90  1  0  0  0  0
 31 92  1  0  0  0  0
 32 93  1  0  0  0  0
 33 94  1  0  0  0  0
 34 75  2  0  0  0  0
 35 67  1  0  0  0  0
 35 95  1  0  0  0  0
 36 76  1  0  0  0  0
 36 79  1  0  0  0  0
 37 81  1  0  0  0  0
 37 95  1  0  0  0  0
 38 80  1  0  0  0  0
 38 85  2  0  0  0  0
 39 53  1  0  0  0  0
 39 82  1  0  0  0  0
 39 86  2  0  0  0  0
 40 68  1  0  0  0  0
 40 77  1  0  0  0  0
 40 87  2  0  0  0  0
 41 69  1  0  0  0  0
 41 83  1  0  0  0  0
 41 88  2  0  0  0  0
 42 78  1  0  0  0  0
 42 81  1  0  0  0  0
 42 89  2  0  0  0  0
 43 46  1  0  0  0  0
 44 53  1  0  0  0  0
 45 77  1  0  0  0  0
 46 48  1  0  0  0  0
 47 49  1  0  0  0  0
 47 50  1  0  0  0  0
 48 52  1  0  0  0  0
 49 54  1  0  0  0  0
 50 78  1  0  0  0  0
 51 54  1  0  0  0  0
 51 78  1  0  0  0  0
 52 82  1  0  0  0  0
 53 77  1  0  0  0  0
 54 76  1  0  0  0  0
 55 69  1  0  0  0  0
 56 70  1  0  0  0  0
 57 71  1  0  0  0  0
 58 71  1  0  0  0  0
 59 72  1  0  0  0  0
 60 72  1  0  0  0  0
 61 73  1  0  0  0  0
 62 73  1  0  0  0  0
 63 73  1  0  0  0  0
 64 74  1  0  0  0  0
 65 74  1  0  0  0  0
 66 84  1  0  0  0  0
 67 74  1  0  0  0  0
 68 73  1  0  0  0  0
 68 83  1  0  0  0  0
 69 84  1  0  0  0  0
 70 72  1  0  0  0  0
 70 91  1  0  0  0  0
 71 74  1  0  0  0  0
 75 76  1  0  0  0  0
M  CHG  1  84   1
M  ISO  4  42 100  70 101  81 100  91 101
M  END
> <Batch ID>
0140

> <Smiles>
CNC(C)C(=O)NC(C(=O)N1Cc2cc([101O:1][101CH:1](C)C(C)(C)c3ccc(C(C)(C)C(C)(C)Cc4ccc([100NH:0][100C:0](=O)N5CCCC(n6nc(-c7ccc(Oc8ccc(F)cc8F)cc7)c(C(N)=O)c6N)C5)s4)cc3F)ccc2CC1C(=O)NC1CCCc2ccccc21)C(C)(C)C

> <Shape>
0.172

> <Color>
0.189

> <Negative vol penalty>
0.000

$$$$

  -OEChem-04052302513D

 89 97  0     1  0  0  0  0  0999 V2000
  -19.1228  -30.5493   24.9088 C   0  0  0  0  0  0  0  0  0  0  0  0
  -20.4788  -30.3260   24.6925 C   0  0  0  0  0  0  0  0  0  0  0  0
  -24.2731   -9.4949   22.3078 C   0  0  0  0  0  0  0  0  0  0  0  0
  -23.5149  -10.2838   20.1537 C   0  0  0  0  0  0  0  0  0  0  0  0
  -18.1783  -29.6854   24.3560 C   0  0  0  0  0  0  0  0  0  0  0  0
  -20.8911  -29.2379   23.9240 C   0  0  0  0  0  0  0  0  0  0  0  0
  -25.7244  -29.0027   20.1703 C   0  0  0  0  0  0  0  0  0  0  0  0
  -29.9347  -19.4733   16.3089 C   0  0  0  0  0  0  0  0  0  0  0  0
  -30.1533  -18.0971   16.3708 C   0  0  0  0  0  0  0  0  0  0  0  0
  -23.2036   -8.6008   22.3568 C   0  0  0  0  0  0  0  0  0  0  0  0
  -22.4455   -9.3896   20.2027 C   0  0  0  0  0  0  0  0  0  0  0  0
  -27.0135  -28.4969   20.3316 C   0  0  0  0  0  0  0  0  0  0  0  0
  -22.4088   -5.5929   21.0324 C   0  0  0  0  0  0  0  0  0  0  0  0
  -22.6753   -4.2851   21.4375 C   0  0  0  0  0  0  0  0  0  0  0  0
  -26.3290  -26.4347   19.2838 C   0  0  0  0  0  0  0  0  0  0  0  0
  -28.7319  -19.3765   18.4019 C   0  0  0  0  0  0  0  0  0  0  0  0
  -21.1448   -4.5465   23.2885 C   0  0  0  0  0  0  0  0  0  0  0  0
  -24.4287  -10.3364   21.2062 C   0  0  0  0  0  0  0  0  0  0  0  0
  -26.8133  -11.0267   20.6188 C   0  0  0  0  0  0  0  0  0  0  0  0
  -18.5789  -28.5918   23.5723 C   0  0  0  0  0  0  0  0  0  0  0  0
  -24.7233  -28.2229   19.5734 C   0  0  0  0  0  0  0  0  0  0  0  0
  -19.9511  -28.3579   23.3612 C   0  0  0  0  0  0  0  0  0  0  0  0
  -25.0286  -26.9338   19.1138 C   0  0  0  0  0  0  0  0  0  0  0  0
  -29.2241  -20.1130   17.3245 C   0  0  0  0  0  0  0  0  0  0  0  0
  -29.6611  -17.3605   17.4483 C   0  0  0  0  0  0  0  0  0  0  0  0
  -28.9504  -18.0002   18.4638 C   0  0  0  0  0  0  0  0  0  0  0  0
  -22.2898   -8.5481   21.3042 C   0  0  0  0  0  0  0  0  0  0  0  0
  -27.3153  -27.2117   19.8910 C   0  0  0  0  0  0  0  0  0  0  0  0
  -21.5104   -6.3776   21.7555 C   0  0  0  0  0  0  0  0  0  0  0  0
  -22.0433   -3.7619   22.5655 C   0  0  0  0  0  0  0  0  0  0  0  0
  -20.8783   -5.8544   22.8835 C   0  0  0  0  0  0  0  0  0  0  0  0
  -25.5330  -11.2607   21.1553 C   0  0  0  0  0  0  0  0  0  0  0  0
  -27.4878  -12.2073   20.8128 C   0  0  0  0  0  0  0  0  0  0  0  0
  -27.3452   -9.8477   20.0003 C   0  0  0  0  0  0  0  0  0  0  0  0
  -21.9269  -27.0498   20.5260 C   0  0  0  0  0  0  0  0  0  0  0  0
  -21.6918  -26.1409   17.4211 C   0  0  0  0  0  0  0  0  0  0  0  0
  -23.2791  -25.3650   14.5013 C   0  0  0  0  0  0  0  0  0  0  0  0
  -27.7200  -17.7681   20.6499 C   0  0  0  0  0  0  0  0  0  0  0  0
  -17.5231  -27.6584   23.0349 C   0  0  0  0  0  0  0  0  0  0  0  0
  -23.3446  -28.7930   19.3826 C   0  0  0  0  0  0  0  0  0  0  0  0
  -23.9949  -26.0638   18.4482 C   0  0  0  0  0  0  0  0  0  0  0  0
  -18.0281  -26.7440   21.9217 C   0  0  0  0  0  0  0  0  0  0  0  0
  -26.2641  -16.2900   23.5434 C   0  0  0  0  0  0  0  0  0  0  0  0
  -19.3672  -26.1233   22.3069 C   0  0  0  0  0  0  0  0  0  0  0  0
  -26.0494  -14.8305   23.1359 C   0  0  0  0  0  0  0  0  0  0  0  0
  -26.0133  -17.2466   22.3791 C   0  0  0  0  0  0  0  0  0  0  0  0
  -26.5459  -15.4816   20.7450 C   0  0  0  0  0  0  0  0  0  0  0  0
  -20.4368  -27.2027   22.5127 C   0  0  1  0  0  0  0  0  0  0  0  0
  -22.2709  -27.7206   19.2262 C   0  0  1  0  0  0  0  0  0  0  0  0
  -26.8499  -14.4760   21.8674 C   0  0  2  0  0  0  0  0  0  0  0  0
  -29.9095  -15.8875   17.4879 C   0  0  0  0  0  0  0  0  0  0  0  0
  -22.8227  -24.6230   12.1479 C   0  0  0  0  0  0  0  0  0  0  0  0
  -27.6698  -24.4563   16.5377 C   0  0  0  0  0  0  0  0  0  0  0  0
  -21.1521  -23.3092   18.4211 C   0  0  0  0  0  0  0  0  0  0  0  0
  -21.6486  -22.4744   16.1135 C   0  0  0  0  0  0  0  0  0  0  0  0
  -19.7298  -24.0230   16.4918 C   0  0  0  0  0  0  0  0  0  0  0  0
  -31.4796  -22.0089   17.6317 C   0  0  0  0  0  0  0  0  0  0  0  0
  -29.8442  -22.4654   19.4379 C   0  0  0  0  0  0  0  0  0  0  0  0
  -29.6241  -28.4694   18.8242 C   0  0  0  0  0  0  0  0  0  0  0  0
  -30.8475  -26.3632   19.3920 C   0  0  0  0  0  0  0  0  0  0  0  0
  -24.5022  -27.8109   13.3696 C   0  0  0  0  0  0  0  0  0  0  0  0
  -28.9880  -21.6038   17.2567 C   0  0  0  0  0  0  0  0  0  0  0  0
  -29.9934  -24.0122   17.3970 C   0  0  0  0  0  0  0  0  0  0  0  0
  -28.9565  -26.3383   17.6636 C   0  0  0  0  0  0  0  0  0  0  0  0
  -22.0906  -24.9170   16.6322 C   0  0  1  0  0  0  0  0  0  0  0  0
  -23.0337  -25.8125   13.0716 C   0  0  2  0  0  0  0  0  0  0  0  0
  -28.6806  -24.8099   17.6386 C   0  0  1  0  0  0  0  0  0  0  0  0
  -21.1745  -23.6963   16.9289 C   0  0  0  0  0  0  0  0  0  0  0  0
  -30.0536  -22.5381   17.9117 C   0  0  0  0  0  0  0  0  0  0  0  0
  -29.4964  -26.9480   18.9804 C   0  0  0  0  0  0  0  0  0  1  0  0
  -25.3997  -12.4930   21.6530 N   0  0  0  0  0  0  0  0  0  0  0  0
  -26.6051  -13.0439   21.4300 N   0  0  0  0  0  0  0  0  0  0  0  0
  -22.6598  -26.6637   18.2902 N   0  0  0  0  0  0  0  0  0  0  0  0
  -26.8081  -16.8512   21.2142 N   0  0  0  0  0  0  0  0  0  0  0  0
  -28.7441  -12.6010   20.5140 N   0  0  0  0  0  0  0  0  0  0  0  0
  -26.5164   -8.7237   19.8812 N   0  0  0  0  0  0  0  0  0  0  0  0
  -28.4432  -17.2695   19.5668 N   0  0  0  0  0  0  0  0  0  0  0  0
  -20.9240  -27.6812   21.2368 N   0  0  0  0  0  0  0  0  0  0  0  0
  -22.1100  -25.3230   15.2311 N   0  0  0  0  0  0  0  0  0  0  0  0
  -24.1957  -26.5982   12.5681 N   0  3  0  0  0  0  0  0  0  0  0  0
  -28.5259   -9.7870   19.5808 O   0  0  0  0  0  0  0  0  0  0  0  0
  -22.5259  -26.0338   20.8587 O   0  0  0  0  0  0  0  0  0  0  0  0
  -20.5655  -26.6196   17.2663 O   0  0  0  0  0  0  0  0  0  0  0  0
  -24.3957  -25.0775   14.9269 O   0  0  0  0  0  0  0  0  0  0  0  0
  -27.8695  -18.9023   21.1116 O   0  0  0  0  0  0  0  0  0  0  0  0
  -21.2462   -7.6756   21.3516 O   0  0  0  0  0  0  0  0  0  0  0  0
  -28.5791  -26.7127   20.0485 O   0  0  0  0  0  0  0  0  0  1  0  0
  -22.2981   -2.5054   22.9535 F   0  0  0  0  0  0  0  0  0  0  0  0
  -20.0133   -6.6031   23.5814 F   0  0  0  0  0  0  0  0  0  0  0  0
  1  2  1  0  0  0  0
  1  5  2  0  0  0  0
  2  6  2  0  0  0  0
  3 10  2  0  0  0  0
  3 18  1  0  0  0  0
  4 11  1  0  0  0  0
  4 18  2  0  0  0  0
  5 20  1  0  0  0  0
  6 22  1  0  0  0  0
  7 12  2  0  0  0  0
  7 21  1  0  0  0  0
  8  9  2  0  0  0  0
  8 24  1  0  0  0  0
  9 25  1  0  0  0  0
 10 27  1  0  0  0  0
 11 27  2  0  0  0  0
 12 28  1  0  0  0  0
 13 14  2  0  0  0  0
 13 29  1  0  0  0  0
 14 30  1  0  0  0  0
 15 23  1  0  0  0  0
 15 28  2  0  0  0  0
 16 24  2  0  0  0  0
 16 26  1  0  0  0  0
 17 30  2  0  0  0  0
 17 31  1  0  0  0  0
 18 32  1  0  0  0  0
 19 32  1  0  0  0  0
 19 33  2  0  0  0  0
 19 34  1  0  0  0  0
 20 22  2  0  0  0  0
 20 39  1  0  0  0  0
 21 23  2  0  0  0  0
 21 40  1  0  0  0  0
 22 48  1  0  0  0  0
 23 41  1  0  0  0  0
 24 62  1  0  0  0  0
 25 26  2  0  0  0  0
 25 51  1  0  0  0  0
 26 77  1  0  0  0  0
 27 86  1  0  0  0  0
 28 87  1  0  0  0  0
 29 31  2  0  0  0  0
 29 86  1  0  0  0  0
 30 88  1  0  0  0  0
 31 89  1  0  0  0  0
 32 71  2  0  0  0  0
 33 72  1  0  0  0  0
 33 75  1  0  0  0  0
 34 76  1  0  0  0  0
 34 81  2  0  0  0  0
 35 49  1  0  0  0  0
 35 78  1  0  0  0  0
 35 82  2  0  0  0  0
 36 65  1  0  0  0  0
 36 73  1  0  0  0  0
 36 83  2  0  0  0  0
 37 66  1  0  0  0  0
 37 79  1  0  0  0  0
 37 84  2  0  0  0  0
 38 74  1  0  0  0  0
 38 77  1  0  0  0  0
 38 85  2  0  0  0  0
 39 42  1  0  0  0  0
 40 49  1  0  0  0  0
 41 73  1  0  0  0  0
 42 44  1  0  0  0  0
 43 45  1  0  0  0  0
 43 46  1  0  0  0  0
 44 48  1  0  0  0  0
 45 50  1  0  0  0  0
 46 74  1  0  0  0  0
 47 50  1  0  0  0  0
 47 74  1  0  0  0  0
 48 78  1  0  0  0  0
 49 73  1  0  0  0  0
 50 72  1  0  0  0  0
 52 66  1  0  0  0  0
 53 67  1  0  0  0  0
 54 68  1  0  0  0  0
 55 68  1  0  0  0  0
 56 68  1  0  0  0  0
 57 69  1  0  0  0  0
 58 69  1  0  0  0  0
 59 70  1  0  0  0  0
 60 70  1  0  0  0  0
 61 80  1  0  0  0  0
 62 69  1  0  0  0  0
 63 67  1  0  0  0  0
 63 69  1  0  0  0  0
 64 67  1  0  0  0  0
 64 70  1  0  0  0  0
 65 68  1  0  0  0  0
 65 79  1  0  0  0  0
 66 80  1  0  0  0  0
 70 87  1  0  0  0  0
 71 72  1  0  0  0  0
M  CHG  1  80   1
M  ISO  4  38 100  70 101  77 100  87 101
M  END
> <Batch ID>
0140

> <Smiles>
CNC(C)C(=O)NC(C(=O)N1Cc2cc([101O:1][101C:1](C)(C)CC(C)CC(C)(C)Cc3ccc(C)c([100NH:0][100C:0](=O)N4CCCC(n5nc(-c6ccc(Oc7ccc(F)cc7F)cc6)c(C(N)=O)c5N)C4)c3)ccc2CC1C(=O)NC1CCCc2ccccc21)C(C)(C)C

> <Shape>
0.287

> <Color>
0.079

> <Negative vol penalty>
0.000

$$$$

  -OEChem-04052302513D

 86 95  0     1  0  0  0  0  0999 V2000
  -28.5735  -32.7570   25.9392 C   0  0  0  0  0  0  0  0  0  0  0  0
  -28.7895  -31.4071   25.6815 C   0  0  0  0  0  0  0  0  0  0  0  0
  -23.9561   -9.9240   22.5974 C   0  0  0  0  0  0  0  0  0  0  0  0
  -23.6484  -12.1410   23.5069 C   0  0  0  0  0  0  0  0  0  0  0  0
  -27.3865  -33.3626   25.5291 C   0  0  0  0  0  0  0  0  0  0  0  0
  -27.8180  -30.6616   25.0145 C   0  0  0  0  0  0  0  0  0  0  0  0
  -31.8703  -18.4105   22.7785 C   0  0  0  0  0  0  0  0  0  0  0  0
  -28.7629  -26.0695   21.0743 C   0  0  0  0  0  0  0  0  0  0  0  0
  -31.4315  -17.3334   22.0085 C   0  0  0  0  0  0  0  0  0  0  0  0
  -23.3830   -9.3740   23.7440 C   0  0  0  0  0  0  0  0  0  0  0  0
  -23.0753  -11.5910   24.6536 C   0  0  0  0  0  0  0  0  0  0  0  0
  -28.7366  -24.6837   21.2251 C   0  0  0  0  0  0  0  0  0  0  0  0
  -20.2784   -8.9151   25.0026 C   0  0  0  0  0  0  0  0  0  0  0  0
  -19.3334   -7.9033   24.8335 C   0  0  0  0  0  0  0  0  0  0  0  0
  -26.4563  -24.6475   20.4390 C   0  0  0  0  0  0  0  0  0  0  0  0
  -29.1415  -18.0270   22.3431 C   0  0  0  0  0  0  0  0  0  0  0  0
  -20.7238   -6.3920   26.1063 C   0  0  0  0  0  0  0  0  0  0  0  0
  -24.0888  -11.3075   22.4789 C   0  0  0  0  0  0  0  0  0  0  0  0
  -24.0179  -12.2677   20.1166 C   0  0  0  0  0  0  0  0  0  0  0  0
  -26.4041  -32.6265   24.8482 C   0  0  0  0  0  0  0  0  0  0  0  0
  -27.6306  -26.7570   20.6143 C   0  0  0  0  0  0  0  0  0  0  0  0
  -26.6162  -31.2576   24.5961 C   0  0  0  0  0  0  0  0  0  0  0  0
  -30.9446  -19.2959   23.3308 C   0  0  0  0  0  0  0  0  0  0  0  0
  -26.4716  -26.0417   20.2808 C   0  0  0  0  0  0  0  0  0  0  0  0
  -29.5803  -19.1042   23.1131 C   0  0  0  0  0  0  0  0  0  0  0  0
  -30.0671  -17.1417   21.7908 C   0  0  0  0  0  0  0  0  0  0  0  0
  -22.9426  -10.2075   24.7721 C   0  0  0  0  0  0  0  0  0  0  0  0
  -27.5823  -23.9728   20.9102 C   0  0  0  0  0  0  0  0  0  0  0  0
  -21.4462   -8.6654   25.7234 C   0  0  0  0  0  0  0  0  0  0  0  0
  -19.5560   -6.6417   25.3854 C   0  0  0  0  0  0  0  0  0  0  0  0
  -21.6689   -7.4039   26.2753 C   0  0  0  0  0  0  0  0  0  0  0  0
  -24.6812  -11.8761   21.2949 C   0  0  0  0  0  0  0  0  0  0  0  0
  -25.0168  -12.7416   19.3016 C   0  0  0  0  0  0  0  0  0  0  0  0
  -22.6235  -12.2085   19.7881 C   0  0  0  0  0  0  0  0  0  0  0  0
  -25.7156  -28.9874   21.8234 C   0  0  0  0  0  0  0  0  0  0  0  0
  -27.7653  -20.7780   22.6161 C   0  0  0  0  0  0  0  0  0  0  0  0
  -24.4226  -28.9364   18.8488 C   0  0  0  0  0  0  0  0  0  0  0  0
  -23.8812  -27.2116   15.9543 C   0  0  0  0  0  0  0  0  0  0  0  0
  -30.4084  -15.0772   20.3880 C   0  0  0  0  0  0  0  0  0  0  0  0
  -25.1168  -33.3133   24.4663 C   0  0  0  0  0  0  0  0  0  0  0  0
  -27.6838  -28.2490   20.4316 C   0  0  0  0  0  0  0  0  0  0  0  0
  -25.2359  -26.7303   19.7637 C   0  0  0  0  0  0  0  0  0  0  0  0
  -24.2982  -32.5425   23.4339 C   0  0  0  0  0  0  0  0  0  0  0  0
  -32.5376  -21.2359   25.9098 C   0  0  0  0  0  0  0  0  0  0  0  0
  -29.6911  -12.2061   18.4082 C   0  0  0  0  0  0  0  0  0  0  0  0
  -31.1865  -20.5166   25.7352 C   0  0  0  0  0  0  0  0  0  0  0  0
  -32.9738  -20.5699   24.5906 C   0  0  0  0  0  0  0  0  0  0  0  0
  -24.2072  -31.0688   23.8170 C   0  0  0  0  0  0  0  0  0  0  0  0
  -28.2624  -11.8350   18.8121 C   0  0  0  0  0  0  0  0  0  0  0  0
  -30.5001  -12.7235   19.5963 C   0  0  0  0  0  0  0  0  0  0  0  0
  -28.4463  -13.4529   20.7448 C   0  0  0  0  0  0  0  0  0  0  0  0
  -31.4656  -20.5120   24.2017 C   0  0  0  0  0  0  0  0  0  0  0  0
  -25.5968  -30.4214   23.8532 C   0  0  1  0  0  0  0  0  0  0  0  0
  -26.3052  -28.9021   20.4439 C   0  0  1  0  0  0  0  0  0  0  0  0
  -27.5730  -12.9876   19.5681 C   0  0  2  0  0  0  0  0  0  0  0  0
  -27.5864  -19.3930   24.6865 C   0  0  0  0  0  0  0  0  0  0  0  0
  -22.7591  -27.4172   13.7191 C   0  0  0  0  0  0  0  0  0  0  0  0
  -21.7105  -28.4840   20.1715 C   0  0  0  0  0  0  0  0  0  0  0  0
  -20.8234  -27.7604   17.9448 C   0  0  0  0  0  0  0  0  0  0  0  0
  -21.6798  -30.0835   18.2492 C   0  0  0  0  0  0  0  0  0  0  0  0
  -26.4438  -26.8923   14.5086 C   0  0  0  0  0  0  0  0  0  0  0  0
  -28.3755  -22.0606   22.0808 C   0  0  0  0  0  0  0  0  0  1  0  0
  -28.5560  -20.0558   23.7066 C   0  0  1  0  0  0  0  0  0  0  0  0
  -23.3171  -28.1584   18.1768 C   0  0  1  0  0  0  0  0  0  0  0  0
  -24.0508  -27.6079   14.4987 C   0  0  2  0  0  0  0  0  0  0  0  0
  -21.9052  -28.6085   18.6471 C   0  0  0  0  0  0  0  0  0  0  0  0
  -25.9995  -12.0831   21.2376 N   0  0  0  0  0  0  0  0  0  0  0  0
  -26.1727  -12.6098   20.0134 N   0  0  0  0  0  0  0  0  0  0  0  0
  -25.3354  -28.1910   19.6084 N   0  0  0  0  0  0  0  0  0  0  0  0
  -29.7873  -13.8167   20.2610 N   0  0  0  0  0  0  0  0  0  0  0  0
  -25.0103  -13.2539   18.0526 N   0  0  0  0  0  0  0  0  0  0  0  0
  -21.7340  -11.6934   20.7408 N   0  0  0  0  0  0  0  0  0  0  0  0
  -29.6220  -16.0475   21.0082 N   0  0  0  0  0  0  0  0  0  0  0  0
  -26.0568  -30.1364   22.5110 N   0  0  0  0  0  0  0  0  0  0  0  0
  -23.5392  -28.2910   16.7410 N   0  0  0  0  0  0  0  0  0  0  0  0
  -25.1130  -26.7824   13.8575 N   0  3  0  0  0  0  0  0  0  0  0  0
  -22.1817  -12.5855   18.6763 O   0  0  0  0  0  0  0  0  0  0  0  0
  -25.0027  -28.0787   22.2330 O   0  0  0  0  0  0  0  0  0  0  0  0
  -26.6839  -20.3594   22.2019 O   0  0  0  0  0  0  0  0  0  0  0  0
  -24.4785  -30.1596   18.6993 O   0  0  0  0  0  0  0  0  0  0  0  0
  -24.0330  -26.0589   16.3528 O   0  0  0  0  0  0  0  0  0  0  0  0
  -31.5432  -15.2883   19.9526 O   0  0  0  0  0  0  0  0  0  0  0  0
  -22.3832   -9.6713   25.8910 O   0  0  0  0  0  0  0  0  0  0  0  0
  -27.5537  -22.6202   21.0572 O   0  0  0  0  0  0  0  0  0  1  0  0
  -18.6476   -5.6706   25.2243 F   0  0  0  0  0  0  0  0  0  0  0  0
  -22.7883   -7.1583   26.9698 F   0  0  0  0  0  0  0  0  0  0  0  0
  1  2  1  0  0  0  0
  1  5  2  0  0  0  0
  2  6  2  0  0  0  0
  3 10  2  0  0  0  0
  3 18  1  0  0  0  0
  4 11  1  0  0  0  0
  4 18  2  0  0  0  0
  5 20  1  0  0  0  0
  6 22  1  0  0  0  0
  7  9  2  0  0  0  0
  7 23  1  0  0  0  0
  8 12  2  0  0  0  0
  8 21  1  0  0  0  0
  9 26  1  0  0  0  0
 10 27  1  0  0  0  0
 11 27  2  0  0  0  0
 12 28  1  0  0  0  0
 13 14  2  0  0  0  0
 13 29  1  0  0  0  0
 14 30  1  0  0  0  0
 15 24  1  0  0  0  0
 15 28  2  0  0  0  0
 16 25  1  0  0  0  0
 16 26  2  0  0  0  0
 17 30  2  0  0  0  0
 17 31  1  0  0  0  0
 18 32  1  0  0  0  0
 19 32  1  0  0  0  0
 19 33  2  0  0  0  0
 19 34  1  0  0  0  0
 20 22  2  0  0  0  0
 20 40  1  0  0  0  0
 21 24  2  0  0  0  0
 21 41  1  0  0  0  0
 22 53  1  0  0  0  0
 23 25  2  0  0  0  0
 23 52  1  0  0  0  0
 24 42  1  0  0  0  0
 25 63  1  0  0  0  0
 26 73  1  0  0  0  0
 27 83  1  0  0  0  0
 28 84  1  0  0  0  0
 29 31  2  0  0  0  0
 29 83  1  0  0  0  0
 30 85  1  0  0  0  0
 31 86  1  0  0  0  0
 32 67  2  0  0  0  0
 33 68  1  0  0  0  0
 33 71  1  0  0  0  0
 34 72  1  0  0  0  0
 34 77  2  0  0  0  0
 35 54  1  0  0  0  0
 35 74  1  0  0  0  0
 35 78  2  0  0  0  0
 36 62  1  0  0  0  0
 36 63  1  0  0  0  0
 36 79  2  0  0  0  0
 37 64  1  0  0  0  0
 37 69  1  0  0  0  0
 37 80  2  0  0  0  0
 38 65  1  0  0  0  0
 38 75  1  0  0  0  0
 38 81  2  0  0  0  0
 39 70  1  0  0  0  0
 39 73  1  0  0  0  0
 39 82  2  0  0  0  0
 40 43  1  0  0  0  0
 41 54  1  0  0  0  0
 42 69  1  0  0  0  0
 43 48  1  0  0  0  0
 44 46  1  0  0  0  0
 44 47  1  0  0  0  0
 45 49  1  0  0  0  0
 45 50  1  0  0  0  0
 46 52  1  0  0  0  0
 47 52  1  0  0  0  0
 48 53  1  0  0  0  0
 49 55  1  0  0  0  0
 50 70  1  0  0  0  0
 51 55  1  0  0  0  0
 51 70  1  0  0  0  0
 53 74  1  0  0  0  0
 54 69  1  0  0  0  0
 55 68  1  0  0  0  0
 56 63  1  0  0  0  0
 57 65  1  0  0  0  0
 58 66  1  0  0  0  0
 59 66  1  0  0  0  0
 60 66  1  0  0  0  0
 61 76  1  0  0  0  0
 62 84  1  0  0  0  0
 64 66  1  0  0  0  0
 64 75  1  0  0  0  0
 65 76  1  0  0  0  0
 67 68  1  0  0  0  0
M  CHG  1  76   1
M  ISO  4  39 100  62 101  73 100  84 101
M  END
> <Batch ID>
0140

> <Smiles>
CNC(C)C(=O)NC(C(=O)N1Cc2cc([101O:1][101CH2:1]C(=O)C(C)c3cc([100NH:0][100C:0](=O)N4CCCC(n5nc(-c6ccc(Oc7ccc(F)cc7F)cc6)c(C(N)=O)c5N)C4)ccc3C3CCC3)ccc2CC1C(=O)NC1CCCc2ccccc21)C(C)(C)C

> <Shape>
0.244

> <Color>
0.067

> <Negative vol penalty>
0.000

$$$$

  -OEChem-04052302513D

 83 91  0     1  0  0  0  0  0999 V2000
  -22.6497  -23.3691   20.2249 C   0  0  0  0  0  0  0  0  0  0  0  0
  -23.7766  -22.7932   19.6471 C   0  0  0  0  0  0  0  0  0  0  0  0
  -25.8337  -27.3568   18.9118 C   0  0  0  0  0  0  0  0  0  0  0  0
  -26.2136  -27.4909   21.2939 C   0  0  0  0  0  0  0  0  0  0  0  0
  -22.1019  -22.8173   21.3822 C   0  0  0  0  0  0  0  0  0  0  0  0
  -24.3571  -21.6657   20.2269 C   0  0  0  0  0  0  0  0  0  0  0  0
  -27.8660  -15.6696   18.4804 C   0  0  0  0  0  0  0  0  0  0  0  0
  -24.6941  -28.1494   19.0488 C   0  0  0  0  0  0  0  0  0  0  0  0
  -25.0740  -28.2836   21.4310 C   0  0  0  0  0  0  0  0  0  0  0  0
  -29.0324  -14.9738   18.7951 C   0  0  0  0  0  0  0  0  0  0  0  0
  -21.7247  -27.8343   21.5369 C   0  0  0  0  0  0  0  0  0  0  0  0
  -20.8472  -27.5330   22.5784 C   0  0  0  0  0  0  0  0  0  0  0  0
  -33.0141  -16.5802   22.6816 C   0  0  0  0  0  0  0  0  0  0  0  0
  -32.2303  -17.7341   22.9210 C   0  0  0  0  0  0  0  0  0  0  0  0
  -27.9528  -14.0598   20.7491 C   0  0  0  0  0  0  0  0  0  0  0  0
  -21.1842  -29.7403   23.5010 C   0  0  0  0  0  0  0  0  0  0  0  0
  -26.5934  -27.0275   20.0343 C   0  0  0  0  0  0  0  0  0  0  0  0
  -29.0876  -26.6459   19.6589 C   0  0  0  0  0  0  0  0  0  0  0  0
  -22.6702  -21.6767   21.9711 C   0  0  0  0  0  0  0  0  0  0  0  0
  -26.7358  -15.5742   19.3051 C   0  0  0  0  0  0  0  0  0  0  0  0
  -23.8171  -21.0989   21.3939 C   0  0  0  0  0  0  0  0  0  0  0  0
  -26.7725  -14.7534   20.4413 C   0  0  0  0  0  0  0  0  0  0  0  0
  -24.3143  -28.6128   20.3084 C   0  0  0  0  0  0  0  0  0  0  0  0
  -29.0769  -14.1710   19.9312 C   0  0  0  0  0  0  0  0  0  0  0  0
  -22.3321  -29.0886   21.4776 C   0  0  0  0  0  0  0  0  0  0  0  0
  -20.5768  -28.4859   23.5604 C   0  0  0  0  0  0  0  0  0  0  0  0
  -22.0618  -30.0416   22.4596 C   0  0  0  0  0  0  0  0  0  0  0  0
  -27.7703  -26.2083   19.8934 C   0  0  0  0  0  0  0  0  0  0  0  0
  -32.1265  -15.5412   22.5254 C   0  0  0  0  0  0  0  0  0  0  0  0
  -30.9195  -17.3180   22.8938 C   0  0  0  0  0  0  0  0  0  0  0  0
  -29.8289  -25.4909   19.6066 C   0  0  0  0  0  0  0  0  0  0  0  0
  -29.5957  -27.9775   19.5025 C   0  0  0  0  0  0  0  0  0  0  0  0
  -25.0450  -17.6319   21.0402 C   0  0  0  0  0  0  0  0  0  0  0  0
  -23.1039  -15.0696   21.4759 C   0  0  0  0  0  0  0  0  0  0  0  0
  -22.7534  -11.6753   21.5230 C   0  0  0  0  0  0  0  0  0  0  0  0
  -28.9861  -20.1639   22.0084 C   0  0  0  0  0  0  0  0  0  0  0  0
  -22.0707  -21.1440   23.2484 C   0  0  0  0  0  0  0  0  0  0  0  0
  -25.4766  -16.3101   18.9372 C   0  0  0  0  0  0  0  0  0  0  0  0
  -25.5797  -14.6011   21.3483 C   0  0  0  0  0  0  0  0  0  0  0  0
  -22.5236  -19.7266   23.5890 C   0  0  0  0  0  0  0  0  0  0  0  0
  -29.4604  -20.8520   18.4872 C   0  0  0  0  0  0  0  0  0  0  0  0
  -24.0349  -19.5959   23.4285 C   0  0  0  0  0  0  0  0  0  0  0  0
  -29.2024  -22.3590   18.4343 C   0  0  0  0  0  0  0  0  0  0  0  0
  -28.5285  -20.1662   19.4819 C   0  0  0  0  0  0  0  0  0  0  0  0
  -28.3244  -22.2310   20.8118 C   0  0  0  0  0  0  0  0  0  0  0  0
  -24.4607  -19.8606   21.9794 C   0  0  1  0  0  0  0  0  0  0  0  0
  -24.5521  -16.5445   20.1278 C   0  0  1  0  0  0  0  0  0  0  0  0
  -29.2505  -22.9853   19.8406 C   0  0  2  0  0  0  0  0  0  0  0  0
  -33.1508  -11.5272   19.3428 C   0  0  0  0  0  0  0  0  0  0  0  0
  -21.0569   -9.8758   21.9489 C   0  0  0  0  0  0  0  0  0  0  0  0
  -23.3507  -15.5511   24.4788 C   0  0  0  0  0  0  0  0  0  0  0  0
  -22.4631  -13.2400   24.8518 C   0  0  0  0  0  0  0  0  0  0  0  0
  -21.0508  -14.9466   23.7047 C   0  0  0  0  0  0  0  0  0  0  0  0
  -33.9171  -14.2978   20.2864 C   0  0  0  0  0  0  0  0  0  0  0  0
  -23.0048  -10.6249   18.7675 C   0  0  0  0  0  0  0  0  0  0  0  0
  -32.2998  -14.0643   22.2502 C   0  0  0  0  0  0  0  0  0  0  0  0
  -29.6390  -18.0176   23.0687 C   0  0  0  0  0  0  0  0  0  0  0  0
  -32.8276  -12.1012   20.7174 C   0  0  0  0  0  0  0  0  0  0  0  0
  -31.4515  -14.0775   19.8382 C   0  0  0  0  0  0  0  0  0  1  0  0
  -23.0251  -13.9470   22.4821 C   0  0  1  0  0  0  0  0  0  0  0  0
  -21.7130  -10.7614   20.9010 C   0  0  2  0  0  0  0  0  0  0  0  0
  -22.4957  -14.4254   23.8635 C   0  0  0  0  0  0  0  0  0  0  0  0
  -32.6030  -13.6460   20.7776 C   0  0  2  0  0  0  0  0  0  0  0  0
  -27.6769  -24.8789   19.9837 N   0  0  0  0  0  0  0  0  0  0  0  0
  -28.9450  -24.4713   19.8049 N   0  0  0  0  0  0  0  0  0  0  0  0
  -24.3739  -15.3457   20.9497 N   0  0  0  0  0  0  0  0  0  0  0  0
  -28.6361  -20.7978   20.8046 N   0  0  0  0  0  0  0  0  0  0  0  0
  -31.1442  -25.2580   19.4107 N   0  0  0  0  0  0  0  0  0  0  0  0
  -28.6967  -29.0496   19.5847 N   0  0  0  0  0  0  0  0  0  0  0  0
  -24.1830  -18.7061   21.1521 N   0  0  0  0  0  0  0  0  0  0  0  0
  -22.2192  -12.9001   21.8633 N   0  0  0  0  0  0  0  0  0  0  0  0
  -29.2594  -18.8046   21.9165 N   0  0  0  0  0  0  0  0  0  0  0  0
  -22.3418   -9.8853   19.8723 N   0  3  0  0  0  0  0  0  0  0  0  0
  -30.8082  -28.2087   19.2795 O   0  0  0  0  0  0  0  0  0  0  0  0
  -26.1265  -17.5049   21.6022 O   0  0  0  0  0  0  0  0  0  0  0  0
  -22.0754  -15.6745   21.1628 O   0  0  0  0  0  0  0  0  0  0  0  0
  -23.9221  -11.3353   21.6935 O   0  0  0  0  0  0  0  0  0  0  0  0
  -29.0554  -20.7661   23.0853 O   0  0  0  0  0  0  0  0  0  0  0  0
  -30.8477  -15.9825   22.6531 O   0  0  0  0  0  0  0  0  0  0  0  0
  -23.2025  -29.3865   20.4425 O   0  0  0  0  0  0  0  0  0  0  0  0
  -30.2144  -13.4913   20.2410 O   0  0  0  0  0  0  0  0  0  1  0  0
  -19.7329  -28.1970   24.5596 F   0  0  0  0  0  0  0  0  0  0  0  0
  -22.6414  -31.2487   22.4072 F   0  0  0  0  0  0  0  0  0  0  0  0
  1  2  1  0  0  0  0
  1  5  2  0  0  0  0
  2  6  2  0  0  0  0
  3  8  2  0  0  0  0
  3 17  1  0  0  0  0
  4  9  1  0  0  0  0
  4 17  2  0  0  0  0
  5 19  1  0  0  0  0
  6 21  1  0  0  0  0
  7 10  2  0  0  0  0
  7 20  1  0  0  0  0
  8 23  1  0  0  0  0
  9 23  2  0  0  0  0
 10 24  1  0  0  0  0
 11 12  2  0  0  0  0
 11 25  1  0  0  0  0
 12 26  1  0  0  0  0
 13 14  1  0  0  0  0
 13 29  2  0  0  0  0
 14 30  2  0  0  0  0
 15 22  1  0  0  0  0
 15 24  2  0  0  0  0
 16 26  2  0  0  0  0
 16 27  1  0  0  0  0
 17 28  1  0  0  0  0
 18 28  1  0  0  0  0
 18 31  2  0  0  0  0
 18 32  1  0  0  0  0
 19 21  2  0  0  0  0
 19 37  1  0  0  0  0
 20 22  2  0  0  0  0
 20 38  1  0  0  0  0
 21 46  1  0  0  0  0
 22 39  1  0  0  0  0
 23 80  1  0  0  0  0
 24 81  1  0  0  0  0
 25 27  2  0  0  0  0
 25 80  1  0  0  0  0
 26 82  1  0  0  0  0
 27 83  1  0  0  0  0
 28 64  2  0  0  0  0
 29 56  1  0  0  0  0
 29 79  1  0  0  0  0
 30 57  1  0  0  0  0
 30 79  1  0  0  0  0
 31 65  1  0  0  0  0
 31 68  1  0  0  0  0
 32 69  1  0  0  0  0
 32 74  2  0  0  0  0
 33 47  1  0  0  0  0
 33 70  1  0  0  0  0
 33 75  2  0  0  0  0
 34 60  1  0  0  0  0
 34 66  1  0  0  0  0
 34 76  2  0  0  0  0
 35 61  1  0  0  0  0
 35 71  1  0  0  0  0
 35 77  2  0  0  0  0
 36 67  1  0  0  0  0
 36 72  1  0  0  0  0
 36 78  2  0  0  0  0
 37 40  1  0  0  0  0
 38 47  1  0  0  0  0
 39 66  1  0  0  0  0
 40 42  1  0  0  0  0
 41 43  1  0  0  0  0
 41 44  1  0  0  0  0
 42 46  1  0  0  0  0
 43 48  1  0  0  0  0
 44 67  1  0  0  0  0
 45 48  1  0  0  0  0
 45 67  1  0  0  0  0
 46 70  1  0  0  0  0
 47 66  1  0  0  0  0
 48 65  1  0  0  0  0
 49 58  1  0  0  0  0
 50 61  1  0  0  0  0
 51 62  1  0  0  0  0
 52 62  1  0  0  0  0
 53 62  1  0  0  0  0
 54 63  1  0  0  0  0
 55 73  1  0  0  0  0
 56 63  1  0  0  0  0
 57 72  1  0  0  0  0
 58 63  1  0  0  0  0
 59 63  1  0  0  0  0
 59 81  1  0  0  0  0
 60 62  1  0  0  0  0
 60 71  1  0  0  0  0
 61 73  1  0  0  0  0
 64 65  1  0  0  0  0
M  CHG  1  73   1
M  ISO  4  36 100  59 101  72 100  81 101
M  END
> <Batch ID>
0140

> <Smiles>
CCC(C)(Cc1ccc(C[100NH:0][100C:0](=O)N2CCCC(n3nc(-c4ccc(Oc5ccc(F)cc5F)cc4)c(C(N)=O)c3N)C2)o1)[101CH2:1][101O:1]c1ccc2c(c1)CN(C(=O)C(NC(=O)C(C)NC)C(C)(C)C)C(C(=O)NC1CCCc3ccccc31)C2

> <Shape>
0.258

> <Color>
0.049

> <Negative vol penalty>
0.000

$$$$

  -OEChem-04052302513D

 86 94  0     1  0  0  0  0  0999 V2000
  -27.4773  -24.9685   16.2329 C   0  0  0  0  0  0  0  0  0  0  0  0
  -26.3135  -25.2124   16.9551 C   0  0  0  0  0  0  0  0  0  0  0  0
  -27.9509  -14.3360   19.1827 C   0  0  0  0  0  0  0  0  0  0  0  0
  -25.7053  -15.1414   19.5647 C   0  0  0  0  0  0  0  0  0  0  0  0
  -28.7136  -25.3417   16.7586 C   0  0  0  0  0  0  0  0  0  0  0  0
  -26.3854  -25.8287   18.2039 C   0  0  0  0  0  0  0  0  0  0  0  0
  -22.9030  -29.4597   18.7818 C   0  0  0  0  0  0  0  0  0  0  0  0
  -27.5960  -13.0954   19.7122 C   0  0  0  0  0  0  0  0  0  0  0  0
  -25.3504  -13.9007   20.0942 C   0  0  0  0  0  0  0  0  0  0  0  0
  -21.6000  -29.0529   19.0656 C   0  0  0  0  0  0  0  0  0  0  0  0
  -23.7554  -10.8316   21.2145 C   0  0  0  0  0  0  0  0  0  0  0  0
  -22.5451  -10.2727   20.8041 C   0  0  0  0  0  0  0  0  0  0  0  0
  -21.9621  -29.5424   21.3998 C   0  0  0  0  0  0  0  0  0  0  0  0
  -20.8125  -22.6643   19.3740 C   0  0  0  0  0  0  0  0  0  0  0  0
  -22.9201  -23.7652   20.8330 C   0  0  0  0  0  0  0  0  0  0  0  0
  -23.3194  -10.2763   18.5155 C   0  0  0  0  0  0  0  0  0  0  0  0
  -27.0055  -15.3591   19.1090 C   0  0  0  0  0  0  0  0  0  0  0  0
  -27.8499  -16.9072   17.2657 C   0  0  0  0  0  0  0  0  0  0  0  0
  -28.7998  -25.9716   18.0101 C   0  0  0  0  0  0  0  0  0  0  0  0
  -23.7503  -29.9013   19.8082 C   0  0  0  0  0  0  0  0  0  0  0  0
  -27.6241  -26.2094   18.7473 C   0  0  0  0  0  0  0  0  0  0  0  0
  -23.2745  -29.9567   21.1260 C   0  0  0  0  0  0  0  0  0  0  0  0
  -22.1171  -22.2210   19.1574 C   0  0  0  0  0  0  0  0  0  0  0  0
  -23.1710  -22.7714   19.8868 C   0  0  0  0  0  0  0  0  0  0  0  0
  -21.6155  -24.2086   21.0496 C   0  0  0  0  0  0  0  0  0  0  0  0
  -26.2958  -12.8776   20.1679 C   0  0  0  0  0  0  0  0  0  0  0  0
  -21.1303  -29.0915   20.3751 C   0  0  0  0  0  0  0  0  0  0  0  0
  -24.7477  -11.1129   20.2754 C   0  0  0  0  0  0  0  0  0  0  0  0
  -20.5616  -23.6582   20.3201 C   0  0  0  0  0  0  0  0  0  0  0  0
  -22.3271   -9.9951   19.4547 C   0  0  0  0  0  0  0  0  0  0  0  0
  -24.5297  -10.8353   18.9259 C   0  0  0  0  0  0  0  0  0  0  0  0
  -27.3717  -16.6411   18.5627 C   0  0  0  0  0  0  0  0  0  0  0  0
  -28.0481  -18.2662   17.2449 C   0  0  0  0  0  0  0  0  0  0  0  0
  -28.0931  -16.0065   16.1769 C   0  0  0  0  0  0  0  0  0  0  0  0
  -26.5172  -28.9074   21.0164 C   0  0  0  0  0  0  0  0  0  0  0  0
  -26.3019  -31.6463   22.7411 C   0  0  0  0  0  0  0  0  0  0  0  0
  -24.3187  -34.0864   24.0675 C   0  0  0  0  0  0  0  0  0  0  0  0
  -25.6511  -22.7887   20.3282 C   0  0  0  0  0  0  0  0  0  0  0  0
  -30.1626  -26.3140   18.5581 C   0  0  0  0  0  0  0  0  0  0  0  0
  -25.1444  -30.3620   19.4816 C   0  0  0  0  0  0  0  0  0  0  0  0
  -24.1376  -30.4419   22.2610 C   0  0  0  0  0  0  0  0  0  0  0  0
  -30.1208  -27.3010   19.7219 C   0  0  0  0  0  0  0  0  0  0  0  0
  -29.1035  -21.9411   20.1285 C   0  0  0  0  0  0  0  0  0  0  0  0
  -29.0537  -26.8906   20.7317 C   0  0  0  0  0  0  0  0  0  0  0  0
  -29.0949  -20.5122   19.5805 C   0  0  0  0  0  0  0  0  0  0  0  0
  -27.9399  -22.1880   21.0870 C   0  0  0  0  0  0  0  0  0  0  0  0
  -26.6053  -20.4220   20.0056 C   0  0  0  0  0  0  0  0  0  0  0  0
  -27.6590  -26.8981   20.0944 C   0  0  1  0  0  0  0  0  0  0  0  0
  -26.0877  -30.3073   20.6794 C   0  0  1  0  0  0  0  0  0  0  0  0
  -27.7214  -20.1452   18.9851 C   0  0  2  0  0  0  0  0  0  0  0  0
  -22.3567  -21.1547   18.1384 C   0  0  0  0  0  0  0  0  0  0  0  0
  -24.4257  -36.1718   25.4593 C   0  0  0  0  0  0  0  0  0  0  0  0
  -26.6884  -29.9504   25.2480 C   0  0  0  0  0  0  0  0  0  0  0  0
  -25.8498  -31.8833   26.6004 C   0  0  0  0  0  0  0  0  0  0  0  0
  -27.9356  -32.1180   25.2524 C   0  0  0  0  0  0  0  0  0  0  0  0
  -16.5475  -25.0772   20.7819 C   0  0  0  0  0  0  0  0  0  0  0  0
  -16.8537  -26.2445   18.5946 C   0  0  0  0  0  0  0  0  0  0  0  0
  -23.2053  -35.7417   21.8814 C   0  0  0  0  0  0  0  0  0  0  0  0
  -18.2717  -26.8782   20.6088 C   0  0  0  0  0  0  0  0  0  0  0  0
  -19.2927  -27.6897   19.8147 C   0  0  0  0  0  0  0  0  0  1  0  0
  -18.6012  -24.6377   19.3966 C   0  0  0  0  0  0  0  0  0  0  0  0
  -25.7013  -32.0266   24.0729 C   0  0  1  0  0  0  0  0  0  0  0  0
  -24.4360  -35.5998   24.0503 C   0  0  2  0  0  0  0  0  0  0  0  0
  -26.5279  -31.4835   25.2726 C   0  0  0  0  0  0  0  0  0  0  0  0
  -17.5892  -25.7164   19.8389 C   0  0  0  0  0  0  0  0  0  0  0  0
  -27.2722  -17.7425   19.3117 N   0  0  0  0  0  0  0  0  0  0  0  0
  -27.6908  -18.7139   18.4826 N   0  0  0  0  0  0  0  0  0  0  0  0
  -25.4952  -30.8756   21.8919 N   0  0  0  0  0  0  0  0  0  0  0  0
  -26.6712  -21.8220   20.4535 N   0  0  0  0  0  0  0  0  0  0  0  0
  -21.3757  -25.2160   22.0093 N   0  0  0  0  0  0  0  0  0  0  0  0
  -28.4915  -19.1098   16.2888 N   0  0  0  0  0  0  0  0  0  0  0  0
  -27.0502  -15.7496   15.2766 N   0  0  0  0  0  0  0  0  0  0  0  0
  -24.5030  -22.3347   19.6800 N   0  0  0  0  0  0  0  0  0  0  0  0
  -27.1611  -28.2525   19.9839 N   0  0  0  0  0  0  0  0  0  0  0  0
  -25.5561  -33.4782   24.0556 N   0  0  0  0  0  0  0  0  0  0  0  0
  -23.3015  -36.1986   23.2917 N   0  3  0  0  0  0  0  0  0  0  0  0
  -29.1975  -15.4335   16.0169 O   0  0  0  0  0  0  0  0  0  0  0  0
  -26.2832  -28.4554   22.1312 O   0  0  0  0  0  0  0  0  0  0  0  0
  -27.4421  -32.0252   22.4616 O   0  0  0  0  0  0  0  0  0  0  0  0
  -23.2377  -33.5023   24.0931 O   0  0  0  0  0  0  0  0  0  0  0  0
  -25.7966  -23.9426   20.7396 O   0  0  0  0  0  0  0  0  0  0  0  0
  -25.9491  -11.6670   20.6845 O   0  0  0  0  0  0  0  0  0  0  0  0
  -19.8591  -28.6944   20.6550 O   0  0  0  0  0  0  0  0  0  1  0  0
  -19.2728  -24.0797   20.5184 O   0  0  0  0  0  0  0  0  0  0  0  0
  -21.1654   -9.4570   19.0609 F   0  0  0  0  0  0  0  0  0  0  0  0
  -25.4797  -11.1022   18.0192 F   0  0  0  0  0  0  0  0  0  0  0  0
  1  2  1  0  0  0  0
  1  5  2  0  0  0  0
  2  6  2  0  0  0  0
  3  8  2  0  0  0  0
  3 17  1  0  0  0  0
  4  9  1  0  0  0  0
  4 17  2  0  0  0  0
  5 19  1  0  0  0  0
  6 21  1  0  0  0  0
  7 10  2  0  0  0  0
  7 20  1  0  0  0  0
  8 26  1  0  0  0  0
  9 26  2  0  0  0  0
 10 27  1  0  0  0  0
 11 12  2  0  0  0  0
 11 28  1  0  0  0  0
 12 30  1  0  0  0  0
 13 22  1  0  0  0  0
 13 27  2  0  0  0  0
 14 23  2  0  0  0  0
 14 29  1  0  0  0  0
 15 24  2  0  0  0  0
 15 25  1  0  0  0  0
 16 30  2  0  0  0  0
 16 31  1  0  0  0  0
 17 32  1  0  0  0  0
 18 32  1  0  0  0  0
 18 33  2  0  0  0  0
 18 34  1  0  0  0  0
 19 21  2  0  0  0  0
 19 39  1  0  0  0  0
 20 22  2  0  0  0  0
 20 40  1  0  0  0  0
 21 48  1  0  0  0  0
 22 41  1  0  0  0  0
 23 24  1  0  0  0  0
 23 51  1  0  0  0  0
 24 73  1  0  0  0  0
 25 29  2  0  0  0  0
 25 70  1  0  0  0  0
 26 82  1  0  0  0  0
 27 83  1  0  0  0  0
 28 31  2  0  0  0  0
 28 82  1  0  0  0  0
 29 84  1  0  0  0  0
 30 85  1  0  0  0  0
 31 86  1  0  0  0  0
 32 66  2  0  0  0  0
 33 67  1  0  0  0  0
 33 71  1  0  0  0  0
 34 72  1  0  0  0  0
 34 77  2  0  0  0  0
 35 49  1  0  0  0  0
 35 74  1  0  0  0  0
 35 78  2  0  0  0  0
 36 62  1  0  0  0  0
 36 68  1  0  0  0  0
 36 79  2  0  0  0  0
 37 63  1  0  0  0  0
 37 75  1  0  0  0  0
 37 80  2  0  0  0  0
 38 69  1  0  0  0  0
 38 73  1  0  0  0  0
 38 81  2  0  0  0  0
 39 42  1  0  0  0  0
 40 49  1  0  0  0  0
 41 68  1  0  0  0  0
 42 44  1  0  0  0  0
 43 45  1  0  0  0  0
 43 46  1  0  0  0  0
 44 48  1  0  0  0  0
 45 50  1  0  0  0  0
 46 69  1  0  0  0  0
 47 50  1  0  0  0  0
 47 69  1  0  0  0  0
 48 74  1  0  0  0  0
 49 68  1  0  0  0  0
 50 67  1  0  0  0  0
 52 63  1  0  0  0  0
 53 64  1  0  0  0  0
 54 64  1  0  0  0  0
 55 64  1  0  0  0  0
 56 65  1  0  0  0  0
 57 65  1  0  0  0  0
 58 76  1  0  0  0  0
 59 60  1  0  0  0  0
 59 65  1  0  0  0  0
 60 83  1  0  0  0  0
 61 65  1  0  0  0  0
 61 84  1  0  0  0  0
 62 64  1  0  0  0  0
 62 75  1  0  0  0  0
 63 76  1  0  0  0  0
 66 67  1  0  0  0  0
M  CHG  1  76   1
M  ISO  4  38 100  60 101  73 100  83 101
M  END
> <Batch ID>
0140

> <Smiles>
CNC(C)C(=O)NC(C(=O)N1Cc2cc([101O:1][101CH2:1]CC(C)(C)COc3cc(C)c([100NH:0][100C:0](=O)N4CCCC(n5nc(-c6ccc(Oc7ccc(F)cc7F)cc6)c(C(N)=O)c5N)C4)cc3N)ccc2CC1C(=O)NC1CCCc2ccccc21)C(C)(C)C

> <Shape>
0.287

> <Color>
0.071

> <Negative vol penalty>
0.000

$$$$

  -OEChem-04052302513D

 84 93  0     1  0  0  0  0  0999 V2000
  -27.9847  -24.5146   17.0093 C   0  0  0  0  0  0  0  0  0  0  0  0
  -26.7991  -24.7607   17.6942 C   0  0  0  0  0  0  0  0  0  0  0  0
  -27.0727  -17.3484   22.4947 C   0  0  0  0  0  0  0  0  0  0  0  0
  -25.0929  -18.3284   21.5164 C   0  0  0  0  0  0  0  0  0  0  0  0
  -29.1905  -25.0085   17.5055 C   0  0  0  0  0  0  0  0  0  0  0  0
  -26.8186  -25.4998   18.8764 C   0  0  0  0  0  0  0  0  0  0  0  0
  -17.7415  -23.0979   26.2466 C   0  0  0  0  0  0  0  0  0  0  0  0
  -23.1284  -28.9628   19.0637 C   0  0  0  0  0  0  0  0  0  0  0  0
  -17.5528  -23.7293   25.0145 C   0  0  0  0  0  0  0  0  0  0  0  0
  -26.8219  -16.1589   21.8106 C   0  0  0  0  0  0  0  0  0  0  0  0
  -24.8422  -17.1389   20.8323 C   0  0  0  0  0  0  0  0  0  0  0  0
  -21.8468  -28.5113   19.3757 C   0  0  0  0  0  0  0  0  0  0  0  0
  -27.2273  -14.9544   18.6773 C   0  0  0  0  0  0  0  0  0  0  0  0
  -28.3013  -14.3359   18.0373 C   0  0  0  0  0  0  0  0  0  0  0  0
  -19.8660  -24.4994   24.9977 C   0  0  0  0  0  0  0  0  0  0  0  0
  -22.1481  -29.2479   21.6529 C   0  0  0  0  0  0  0  0  0  0  0  0
  -27.9775  -12.3658   19.3979 C   0  0  0  0  0  0  0  0  0  0  0  0
  -26.2081  -18.4331   22.3476 C   0  0  0  0  0  0  0  0  0  0  0  0
  -27.2295  -20.7564   22.6058 C   0  0  0  0  0  0  0  0  0  0  0  0
  -29.2235  -25.7622   18.6893 C   0  0  0  0  0  0  0  0  0  0  0  0
  -18.9902  -23.1882   26.8150 C   0  0  0  0  0  0  0  0  0  0  0  0
  -23.9350  -29.5514   20.0483 C   0  0  0  0  0  0  0  0  0  0  0  0
  -28.0261  -26.0030   19.3897 C   0  0  0  0  0  0  0  0  0  0  0  0
  -20.0210  -23.8663   26.2090 C   0  0  0  0  0  0  0  0  0  0  0  0
  -23.4386  -29.7084   21.3503 C   0  0  0  0  0  0  0  0  0  0  0  0
  -18.6082  -24.4255   24.3941 C   0  0  0  0  0  0  0  0  0  0  0  0
  -25.7067  -16.0542   20.9794 C   0  0  0  0  0  0  0  0  0  0  0  0
  -21.3575  -28.6512   20.6711 C   0  0  0  0  0  0  0  0  0  0  0  0
  -26.5284  -14.2787   19.6776 C   0  0  0  0  0  0  0  0  0  0  0  0
  -28.6764  -13.0416   18.3976 C   0  0  0  0  0  0  0  0  0  0  0  0
  -26.9035  -12.9844   20.0379 C   0  0  0  0  0  0  0  0  0  0  0  0
  -26.4662  -19.6619   23.0544 C   0  0  0  0  0  0  0  0  0  0  0  0
  -27.1682  -21.6629   23.6358 C   0  0  0  0  0  0  0  0  0  0  0  0
  -27.9310  -20.9375   21.3686 C   0  0  0  0  0  0  0  0  0  0  0  0
  -26.7368  -28.8425   21.3717 C   0  0  0  0  0  0  0  0  0  0  0  0
  -23.1501  -22.4789   28.0291 C   0  0  0  0  0  0  0  0  0  0  0  0
  -26.3427  -31.7205   22.8152 C   0  0  0  0  0  0  0  0  0  0  0  0
  -19.3076  -25.7837   22.3916 C   0  0  0  0  0  0  0  0  0  0  0  0
  -24.2063  -34.1606   23.8774 C   0  0  0  0  0  0  0  0  0  0  0  0
  -30.5570  -26.2350   19.2119 C   0  0  0  0  0  0  0  0  0  0  0  0
  -19.8182  -22.7876   28.0012 C   0  0  0  0  0  0  0  0  0  0  0  0
  -25.3052  -30.0575   19.6893 C   0  0  0  0  0  0  0  0  0  0  0  0
  -24.2570  -30.3518   22.4388 C   0  0  0  0  0  0  0  0  0  0  0  0
  -30.4432  -27.3274   20.2720 C   0  0  0  0  0  0  0  0  0  0  0  0
  -26.6728  -21.9244   28.3797 C   0  0  0  0  0  0  0  0  0  0  0  0
  -29.3872  -26.9573   21.3087 C   0  0  0  0  0  0  0  0  0  0  0  0
  -27.0832  -21.3541   27.0227 C   0  0  0  0  0  0  0  0  0  0  0  0
  -25.2752  -21.4621   28.7801 C   0  0  0  0  0  0  0  0  0  0  0  0
  -24.6297  -21.1946   26.4066 C   0  0  0  0  0  0  0  0  0  0  0  0
  -20.9979  -23.5709   27.3169 C   0  0  1  0  0  0  0  0  0  0  0  0
  -28.0032  -26.8216   20.6623 C   0  0  1  0  0  0  0  0  0  0  0  0
  -26.2333  -30.1753   20.8943 C   0  0  1  0  0  0  0  0  0  0  0  0
  -26.0232  -21.6619   25.9503 C   0  0  2  0  0  0  0  0  0  0  0  0
  -24.1755  -36.3754   25.0570 C   0  0  0  0  0  0  0  0  0  0  0  0
  -26.7898  -30.3044   25.4806 C   0  0  0  0  0  0  0  0  0  0  0  0
  -25.8244  -32.3092   26.6283 C   0  0  0  0  0  0  0  0  0  0  0  0
  -27.9121  -32.5304   25.2809 C   0  0  0  0  0  0  0  0  0  0  0  0
  -23.0312  -35.5260   21.5292 C   0  0  0  0  0  0  0  0  0  0  0  0
  -22.1964  -22.7413   26.8908 C   0  0  0  0  0  0  0  0  0  0  0  0
  -18.6587  -26.2931   21.1097 C   0  0  0  0  0  0  0  0  0  0  0  0
  -19.6102  -27.0974   20.2369 C   0  0  0  0  0  0  0  0  0  1  0  0
  -25.7031  -32.1946   24.0978 C   0  0  1  0  0  0  0  0  0  0  0  0
  -24.2378  -35.6693   23.7115 C   0  0  2  0  0  0  0  0  0  0  0  0
  -26.5424  -31.8207   25.3521 C   0  0  0  0  0  0  0  0  0  0  0  0
  -25.9575  -19.8535   24.2745 N   0  0  0  0  0  0  0  0  0  0  0  0
  -26.4021  -21.0789   24.6013 N   0  0  0  0  0  0  0  0  0  0  0  0
  -25.5928  -30.8249   22.0397 N   0  0  0  0  0  0  0  0  0  0  0  0
  -24.3015  -21.7521   27.7260 N   0  0  0  0  0  0  0  0  0  0  0  0
  -27.6955  -22.8947   23.8009 N   0  0  0  0  0  0  0  0  0  0  0  0
  -27.8902  -19.9064   20.4202 N   0  0  0  0  0  0  0  0  0  0  0  0
  -18.3907  -25.0572   23.1465 N   0  0  0  0  0  0  0  0  0  0  0  0
  -27.4310  -28.1276   20.4143 N   0  0  0  0  0  0  0  0  0  0  0  0
  -25.4762  -33.6266   23.9358 N   0  0  0  0  0  0  0  0  0  0  0  0
  -23.0819  -36.1241   22.8881 N   0  3  0  0  0  0  0  0  0  0  0  0
  -28.5886  -21.9761   21.1185 O   0  0  0  0  0  0  0  0  0  0  0  0
  -26.5133  -28.4895   22.5237 O   0  0  0  0  0  0  0  0  0  0  0  0
  -22.8794  -22.9105   29.1528 O   0  0  0  0  0  0  0  0  0  0  0  0
  -27.4633  -32.1353   22.5090 O   0  0  0  0  0  0  0  0  0  0  0  0
  -20.4805  -26.0150   22.6660 O   0  0  0  0  0  0  0  0  0  0  0  0
  -23.1598  -33.5204   23.9517 O   0  0  0  0  0  0  0  0  0  0  0  0
  -25.4619  -14.8938   20.3115 O   0  0  0  0  0  0  0  0  0  0  0  0
  -20.1071  -28.2108   20.9784 O   0  0  0  0  0  0  0  0  0  1  0  0
  -29.7068  -12.4472   17.7818 F   0  0  0  0  0  0  0  0  0  0  0  0
  -26.2352  -12.3297   20.9973 F   0  0  0  0  0  0  0  0  0  0  0  0
  1  2  1  0  0  0  0
  1  5  2  0  0  0  0
  2  6  2  0  0  0  0
  3 10  2  0  0  0  0
  3 18  1  0  0  0  0
  4 11  1  0  0  0  0
  4 18  2  0  0  0  0
  5 20  1  0  0  0  0
  6 23  1  0  0  0  0
  7  9  2  0  0  0  0
  7 21  1  0  0  0  0
  8 12  2  0  0  0  0
  8 22  1  0  0  0  0
  9 26  1  0  0  0  0
 10 27  1  0  0  0  0
 11 27  2  0  0  0  0
 12 28  1  0  0  0  0
 13 14  2  0  0  0  0
 13 29  1  0  0  0  0
 14 30  1  0  0  0  0
 15 24  1  0  0  0  0
 15 26  2  0  0  0  0
 16 25  1  0  0  0  0
 16 28  2  0  0  0  0
 17 30  2  0  0  0  0
 17 31  1  0  0  0  0
 18 32  1  0  0  0  0
 19 32  1  0  0  0  0
 19 33  2  0  0  0  0
 19 34  1  0  0  0  0
 20 23  2  0  0  0  0
 20 40  1  0  0  0  0
 21 24  2  0  0  0  0
 21 41  1  0  0  0  0
 22 25  2  0  0  0  0
 22 42  1  0  0  0  0
 23 51  1  0  0  0  0
 24 50  1  0  0  0  0
 25 43  1  0  0  0  0
 26 71  1  0  0  0  0
 27 81  1  0  0  0  0
 28 82  1  0  0  0  0
 29 31  2  0  0  0  0
 29 81  1  0  0  0  0
 30 83  1  0  0  0  0
 31 84  1  0  0  0  0
 32 65  2  0  0  0  0
 33 66  1  0  0  0  0
 33 69  1  0  0  0  0
 34 70  1  0  0  0  0
 34 75  2  0  0  0  0
 35 52  1  0  0  0  0
 35 72  1  0  0  0  0
 35 76  2  0  0  0  0
 36 59  1  0  0  0  0
 36 68  1  0  0  0  0
 36 77  2  0  0  0  0
 37 62  1  0  0  0  0
 37 67  1  0  0  0  0
 37 78  2  0  0  0  0
 38 60  1  0  0  0  0
 38 71  1  0  0  0  0
 38 79  2  0  0  0  0
 39 63  1  0  0  0  0
 39 73  1  0  0  0  0
 39 80  2  0  0  0  0
 40 44  1  0  0  0  0
 41 50  1  0  0  0  0
 42 52  1  0  0  0  0
 43 67  1  0  0  0  0
 44 46  1  0  0  0  0
 45 47  1  0  0  0  0
 45 48  1  0  0  0  0
 46 51  1  0  0  0  0
 47 53  1  0  0  0  0
 48 68  1  0  0  0  0
 49 53  1  0  0  0  0
 49 68  1  0  0  0  0
 50 59  1  0  0  0  0
 51 72  1  0  0  0  0
 52 67  1  0  0  0  0
 53 66  1  0  0  0  0
 54 63  1  0  0  0  0
 55 64  1  0  0  0  0
 56 64  1  0  0  0  0
 57 64  1  0  0  0  0
 58 74  1  0  0  0  0
 60 61  1  0  0  0  0
 61 82  1  0  0  0  0
 62 64  1  0  0  0  0
 62 73  1  0  0  0  0
 63 74  1  0  0  0  0
 65 66  1  0  0  0  0
M  CHG  1  74   1
M  ISO  4  36 100  59 100  61 101  82 101
M  END
> <Batch ID>
0140

> <Smiles>
CNC(C)C(=O)NC(C(=O)N1Cc2cc([101O:1][101CH2:1]CC(=O)Nc3ccc4c(c3)C([100CH2:0][100C:0](=O)N3CCCC(n5nc(-c6ccc(Oc7ccc(F)cc7F)cc6)c(C(N)=O)c5N)C3)C4)ccc2CC1C(=O)NC1CCCc2ccccc21)C(C)(C)C

> <Shape>
0.280

> <Color>
0.072

> <Negative vol penalty>
0.000

$$$$

  -OEChem-04052302513D

 86 94  0     1  0  0  0  0  0999 V2000
  -25.5567   -6.2754   22.4183 C   0  0  0  0  0  0  0  0  0  0  0  0
  -26.4432   -7.1739   21.8332 C   0  0  0  0  0  0  0  0  0  0  0  0
  -22.9385  -30.8925   20.9634 C   0  0  0  0  0  0  0  0  0  0  0  0
  -22.7778  -28.9468   22.3867 C   0  0  0  0  0  0  0  0  0  0  0  0
  -24.1888   -6.5449   22.4145 C   0  0  0  0  0  0  0  0  0  0  0  0
  -25.9620   -8.3421   21.2430 C   0  0  0  0  0  0  0  0  0  0  0  0
  -28.7117  -13.8131   21.1314 C   0  0  0  0  0  0  0  0  0  0  0  0
  -28.4716  -21.7806   22.5449 C   0  0  0  0  0  0  0  0  0  0  0  0
  -28.4980  -23.1634   22.3639 C   0  0  0  0  0  0  0  0  0  0  0  0
  -21.5580  -30.8624   20.7664 C   0  0  0  0  0  0  0  0  0  0  0  0
  -21.3972  -28.9168   22.1898 C   0  0  0  0  0  0  0  0  0  0  0  0
  -29.4774  -14.4584   20.1614 C   0  0  0  0  0  0  0  0  0  0  0  0
  -18.6799  -30.5504   23.3594 C   0  0  0  0  0  0  0  0  0  0  0  0
  -17.8714  -30.3514   24.4785 C   0  0  0  0  0  0  0  0  0  0  0  0
  -27.5126  -15.6332   19.4007 C   0  0  0  0  0  0  0  0  0  0  0  0
  -29.7472  -22.8716   20.3165 C   0  0  0  0  0  0  0  0  0  0  0  0
  -16.9755  -28.3448   23.4743 C   0  0  0  0  0  0  0  0  0  0  0  0
  -23.5485  -29.9346   21.7735 C   0  0  0  0  0  0  0  0  0  0  0  0
  -25.6746  -30.6476   22.9896 C   0  0  0  0  0  0  0  0  0  0  0  0
  -23.6915   -7.7216   21.8325 C   0  0  0  0  0  0  0  0  0  0  0  0
  -27.3363  -14.0652   21.2365 C   0  0  0  0  0  0  0  0  0  0  0  0
  -24.5860   -8.6269   21.2302 C   0  0  0  0  0  0  0  0  0  0  0  0
  -26.7322  -14.9917   20.3746 C   0  0  0  0  0  0  0  0  0  0  0  0
  -29.0831  -20.9433   21.6117 C   0  0  0  0  0  0  0  0  0  0  0  0
  -29.7209  -21.4888   20.4976 C   0  0  0  0  0  0  0  0  0  0  0  0
  -29.1357  -23.7089   21.2497 C   0  0  0  0  0  0  0  0  0  0  0  0
  -20.7873  -29.8746   21.3796 C   0  0  0  0  0  0  0  0  0  0  0  0
  -28.8773  -15.3665   19.2939 C   0  0  0  0  0  0  0  0  0  0  0  0
  -18.6362  -29.6466   22.2978 C   0  0  0  0  0  0  0  0  0  0  0  0
  -17.0192  -29.2486   24.5359 C   0  0  0  0  0  0  0  0  0  0  0  0
  -17.7840  -28.5439   22.3553 C   0  0  0  0  0  0  0  0  0  0  0  0
  -24.9746  -29.9648   21.9769 C   0  0  0  0  0  0  0  0  0  0  0  0
  -26.9957  -30.3603   22.7474 C   0  0  0  0  0  0  0  0  0  0  0  0
  -25.1753  -31.4681   24.0541 C   0  0  0  0  0  0  0  0  0  0  0  0
  -24.7044  -12.3083   20.9365 C   0  0  0  0  0  0  0  0  0  0  0  0
  -30.4055  -18.1450   17.5529 C   0  0  0  0  0  0  0  0  0  0  0  0
  -23.2454  -15.0239   21.9462 C   0  0  0  0  0  0  0  0  0  0  0  0
  -23.3400  -18.4215   22.2526 C   0  0  0  0  0  0  0  0  0  0  0  0
  -29.7505  -25.8165   20.0142 C   0  0  0  0  0  0  0  0  0  0  0  0
  -22.2004   -7.9468   21.8110 C   0  0  0  0  0  0  0  0  0  0  0  0
  -26.5295  -13.3809   22.3057 C   0  0  0  0  0  0  0  0  0  0  0  0
  -25.2631  -15.3127   20.4592 C   0  0  0  0  0  0  0  0  0  0  0  0
  -21.8064   -9.3875   21.4957 C   0  0  0  0  0  0  0  0  0  0  0  0
  -29.9975  -29.2689   19.1792 C   0  0  0  0  0  0  0  0  0  0  0  0
  -22.6008   -9.9093   20.3026 C   0  0  0  0  0  0  0  0  0  0  0  0
  -28.8047  -29.9022   19.8990 C   0  0  0  0  0  0  0  0  0  0  0  0
  -29.6604  -27.8817   18.6352 C   0  0  0  0  0  0  0  0  0  0  0  0
  -27.9078  -27.5810   20.3402 C   0  0  0  0  0  0  0  0  0  0  0  0
  -24.1048   -9.9168   20.6019 C   0  0  1  0  0  0  0  0  0  0  0  0
  -25.0383  -13.3288   21.9876 C   0  0  1  0  0  0  0  0  0  0  0  0
  -28.2187  -28.9523   20.9620 C   0  0  2  0  0  0  0  0  0  0  0  0
  -29.0425  -19.4660   21.8274 C   0  0  0  0  0  0  0  0  0  0  0  0
  -21.9853  -20.3627   23.0857 C   0  0  0  0  0  0  0  0  0  0  0  0
  -29.2540  -19.5955   15.8410 C   0  0  0  0  0  0  0  0  0  0  0  0
  -31.5074  -20.2221   16.6898 C   0  0  0  0  0  0  0  0  0  0  0  0
  -21.4576  -14.8310   19.4812 C   0  0  0  0  0  0  0  0  0  0  0  0
  -20.8106  -17.2214   19.8493 C   0  0  0  0  0  0  0  0  0  0  0  0
  -20.2737  -15.5053   21.5783 C   0  0  0  0  0  0  0  0  0  0  0  0
  -25.4138  -19.1711   24.2264 C   0  0  0  0  0  0  0  0  0  0  0  0
  -30.3872  -20.6027   19.4740 C   0  0  0  0  0  0  0  0  0  0  0  0
  -29.2029  -17.3036   17.9532 C   0  0  0  0  0  0  0  0  0  1  0  0
  -29.5209  -20.4504   18.2156 C   0  0  0  0  0  0  0  0  0  0  0  0
  -22.6715  -16.2446   21.2684 C   0  0  1  0  0  0  0  0  0  0  0  0
  -23.0521  -19.3351   23.4303 C   0  0  2  0  0  0  0  0  0  0  0  0
  -30.1578  -19.5989   17.0893 C   0  0  0  0  0  0  0  0  0  0  0  0
  -21.3307  -15.9433   20.5412 C   0  0  0  0  0  0  0  0  0  0  0  0
  -25.7840  -29.2943   21.1526 N   0  0  0  0  0  0  0  0  0  0  0  0
  -27.0063  -29.5545   21.6470 N   0  0  0  0  0  0  0  0  0  0  0  0
  -24.5155  -14.6131   21.5172 N   0  0  0  0  0  0  0  0  0  0  0  0
  -29.1146  -27.0359   19.6989 N   0  0  0  0  0  0  0  0  0  0  0  0
  -28.1377  -30.7208   23.3705 N   0  0  0  0  0  0  0  0  0  0  0  0
  -23.7907  -31.6590   24.1574 N   0  0  0  0  0  0  0  0  0  0  0  0
  -29.1610  -25.1135   21.0644 N   0  0  0  0  0  0  0  0  0  0  0  0
  -24.4480  -11.0467   21.4385 N   0  0  0  0  0  0  0  0  0  0  0  0
  -22.5752  -17.2750   22.2967 N   0  0  0  0  0  0  0  0  0  0  0  0
  -24.2887  -20.0600   23.8379 N   0  3  0  0  0  0  0  0  0  0  0  0
  -25.9356  -32.0291   24.8791 O   0  0  0  0  0  0  0  0  0  0  0  0
  -24.6797  -12.6413   19.7574 O   0  0  0  0  0  0  0  0  0  0  0  0
  -31.5435  -17.6723   17.6084 O   0  0  0  0  0  0  0  0  0  0  0  0
  -22.5940  -14.4599   22.8290 O   0  0  0  0  0  0  0  0  0  0  0  0
  -24.1585  -18.6990   21.3788 O   0  0  0  0  0  0  0  0  0  0  0  0
  -30.7609  -25.4379   19.4161 O   0  0  0  0  0  0  0  0  0  0  0  0
  -19.4401  -29.8452   21.1879 O   0  0  0  0  0  0  0  0  0  0  0  0
  -29.6223  -15.9973   18.3458 O   0  0  0  0  0  0  0  0  0  1  0  0
  -16.2439  -29.0568   25.6113 F   0  0  0  0  0  0  0  0  0  0  0  0
  -17.7386  -27.6716   21.3390 F   0  0  0  0  0  0  0  0  0  0  0  0
  1  2  1  0  0  0  0
  1  5  2  0  0  0  0
  2  6  2  0  0  0  0
  3 10  2  0  0  0  0
  3 18  1  0  0  0  0
  4 11  1  0  0  0  0
  4 18  2  0  0  0  0
  5 20  1  0  0  0  0
  6 22  1  0  0  0  0
  7 12  2  0  0  0  0
  7 21  1  0  0  0  0
  8  9  2  0  0  0  0
  8 24  1  0  0  0  0
  9 26  1  0  0  0  0
 10 27  1  0  0  0  0
 11 27  2  0  0  0  0
 12 28  1  0  0  0  0
 13 14  2  0  0  0  0
 13 29  1  0  0  0  0
 14 30  1  0  0  0  0
 15 23  1  0  0  0  0
 15 28  2  0  0  0  0
 16 25  1  0  0  0  0
 16 26  2  0  0  0  0
 17 30  2  0  0  0  0
 17 31  1  0  0  0  0
 18 32  1  0  0  0  0
 19 32  1  0  0  0  0
 19 33  2  0  0  0  0
 19 34  1  0  0  0  0
 20 22  2  0  0  0  0
 20 40  1  0  0  0  0
 21 23  2  0  0  0  0
 21 41  1  0  0  0  0
 22 49  1  0  0  0  0
 23 42  1  0  0  0  0
 24 25  2  0  0  0  0
 24 52  1  0  0  0  0
 25 60  1  0  0  0  0
 26 73  1  0  0  0  0
 27 83  1  0  0  0  0
 28 84  1  0  0  0  0
 29 31  2  0  0  0  0
 29 83  1  0  0  0  0
 30 85  1  0  0  0  0
 31 86  1  0  0  0  0
 32 67  2  0  0  0  0
 33 68  1  0  0  0  0
 33 71  1  0  0  0  0
 34 72  1  0  0  0  0
 34 77  2  0  0  0  0
 35 50  1  0  0  0  0
 35 74  1  0  0  0  0
 35 78  2  0  0  0  0
 36 61  1  0  0  0  0
 36 65  1  0  0  0  0
 36 79  2  0  0  0  0
 37 63  1  0  0  0  0
 37 69  1  0  0  0  0
 37 80  2  0  0  0  0
 38 64  1  0  0  0  0
 38 75  1  0  0  0  0
 38 81  2  0  0  0  0
 39 70  1  0  0  0  0
 39 73  1  0  0  0  0
 39 82  2  0  0  0  0
 40 43  1  0  0  0  0
 41 50  1  0  0  0  0
 42 69  1  0  0  0  0
 43 45  1  0  0  0  0
 44 46  1  0  0  0  0
 44 47  1  0  0  0  0
 45 49  1  0  0  0  0
 46 51  1  0  0  0  0
 47 70  1  0  0  0  0
 48 51  1  0  0  0  0
 48 70  1  0  0  0  0
 49 74  1  0  0  0  0
 50 69  1  0  0  0  0
 51 68  1  0  0  0  0
 53 64  1  0  0  0  0
 54 65  1  0  0  0  0
 55 65  1  0  0  0  0
 56 66  1  0  0  0  0
 57 66  1  0  0  0  0
 58 66  1  0  0  0  0
 59 76  1  0  0  0  0
 60 62  1  0  0  0  0
 61 84  1  0  0  0  0
 62 65  1  0  0  0  0
 63 66  1  0  0  0  0
 63 75  1  0  0  0  0
 64 76  1  0  0  0  0
 67 68  1  0  0  0  0
M  CHG  1  76   1
M  ISO  4  39 100  61 101  73 100  84 101
M  END
> <Batch ID>
0140

> <Smiles>
CNC(C)C(=O)NC(C(=O)N1Cc2cc([101O:1][101CH2:1]C(=O)C(C)(C)CCc3cc([100NH:0][100C:0](=O)N4CCCC(n5nc(-c6ccc(Oc7ccc(F)cc7F)cc6)c(C(N)=O)c5N)C4)ccc3C)ccc2CC1C(=O)NC1CCCc2ccccc21)C(C)(C)C

> <Shape>
0.293

> <Color>
0.057

> <Negative vol penalty>
0.000

$$$$

  -OEChem-04052302513D

 84 92  0     1  0  0  0  0  0999 V2000
  -28.4602  -37.6265   21.6385 C   0  0  0  0  0  0  0  0  0  0  0  0
  -28.8770  -36.3536   21.2621 C   0  0  0  0  0  0  0  0  0  0  0  0
  -25.5472  -10.8757   22.6221 C   0  0  0  0  0  0  0  0  0  0  0  0
  -25.3800  -13.0308   23.7014 C   0  0  0  0  0  0  0  0  0  0  0  0
  -27.4628  -37.7759   22.6012 C   0  0  0  0  0  0  0  0  0  0  0  0
  -28.2974  -35.2294   21.8492 C   0  0  0  0  0  0  0  0  0  0  0  0
  -27.1974  -29.8323   19.1722 C   0  0  0  0  0  0  0  0  0  0  0  0
  -30.4622  -20.7479   19.0044 C   0  0  0  0  0  0  0  0  0  0  0  0
  -29.8862  -19.5690   18.5310 C   0  0  0  0  0  0  0  0  0  0  0  0
  -25.8197  -10.2801   23.8536 C   0  0  0  0  0  0  0  0  0  0  0  0
  -25.6525  -12.4352   24.9329 C   0  0  0  0  0  0  0  0  0  0  0  0
  -27.8929  -28.6239   19.1768 C   0  0  0  0  0  0  0  0  0  0  0  0
  -28.4679   -9.9476   25.9274 C   0  0  0  0  0  0  0  0  0  0  0  0
  -29.5102   -9.0223   25.9825 C   0  0  0  0  0  0  0  0  0  0  0  0
  -26.4778  -27.8230   20.9587 C   0  0  0  0  0  0  0  0  0  0  0  0
  -28.0793  -19.8154   20.1158 C   0  0  0  0  0  0  0  0  0  0  0  0
  -27.9603   -7.3202   26.7159 C   0  0  0  0  0  0  0  0  0  0  0  0
  -25.3274  -12.2511   22.5460 C   0  0  0  0  0  0  0  0  0  0  0  0
  -23.7828  -13.0640   20.6856 C   0  0  0  0  0  0  0  0  0  0  0  0
  -26.8640  -36.6528   23.1934 C   0  0  0  0  0  0  0  0  0  0  0  0
  -26.1422  -30.0495   20.0698 C   0  0  0  0  0  0  0  0  0  0  0  0
  -27.2921  -35.3640   22.8218 C   0  0  0  0  0  0  0  0  0  0  0  0
  -25.7688  -29.0340   20.9618 C   0  0  0  0  0  0  0  0  0  0  0  0
  -29.8468  -21.4606   20.0335 C   0  0  0  0  0  0  0  0  0  0  0  0
  -28.6553  -20.9943   20.5892 C   0  0  0  0  0  0  0  0  0  0  0  0
  -28.6948  -19.1028   19.0867 C   0  0  0  0  0  0  0  0  0  0  0  0
  -25.8724  -11.0598   25.0090 C   0  0  0  0  0  0  0  0  0  0  0  0
  -27.5350  -27.6202   20.0720 C   0  0  0  0  0  0  0  0  0  0  0  0
  -27.1718   -9.5593   26.2668 C   0  0  0  0  0  0  0  0  0  0  0  0
  -29.2564   -7.7086   26.3767 C   0  0  0  0  0  0  0  0  0  0  0  0
  -26.9181   -8.2456   26.6610 C   0  0  0  0  0  0  0  0  0  0  0  0
  -25.0464  -12.8671   21.2741 C   0  0  0  0  0  0  0  0  0  0  0  0
  -24.0535  -13.6844   19.4905 C   0  0  0  0  0  0  0  0  0  0  0  0
  -22.4807  -12.7171   21.1755 C   0  0  0  0  0  0  0  0  0  0  0  0
  -25.5919  -32.1069   22.4295 C   0  0  0  0  0  0  0  0  0  0  0  0
  -22.6656  -30.7074   22.4444 C   0  0  0  0  0  0  0  0  0  0  0  0
  -20.7562  -27.9769   21.7057 C   0  0  0  0  0  0  0  0  0  0  0  0
  -28.5878  -17.0800   17.5890 C   0  0  0  0  0  0  0  0  0  0  0  0
  -25.8230  -36.8650   24.2639 C   0  0  0  0  0  0  0  0  0  0  0  0
  -25.3846  -31.3484   20.0341 C   0  0  0  0  0  0  0  0  0  0  0  0
  -24.6302  -29.2097   21.9319 C   0  0  0  0  0  0  0  0  0  0  0  0
  -24.9965  -35.6175   24.5656 C   0  0  0  0  0  0  0  0  0  0  0  0
  -27.4556  -14.0321   16.1380 C   0  0  0  0  0  0  0  0  0  0  0  0
  -25.9031  -34.4000   24.7158 C   0  0  0  0  0  0  0  0  0  0  0  0
  -26.5893  -13.4083   17.2346 C   0  0  0  0  0  0  0  0  0  0  0  0
  -28.6706  -14.7544   16.7172 C   0  0  0  0  0  0  0  0  0  0  0  0
  -27.5000  -15.1221   18.8534 C   0  0  0  0  0  0  0  0  0  0  0  0
  -26.6701  -34.1198   23.4178 C   0  0  1  0  0  0  0  0  0  0  0  0
  -24.6600  -31.6536   21.3415 C   0  0  1  0  0  0  0  0  0  0  0  0
  -26.2291  -14.4387   18.3227 C   0  0  2  0  0  0  0  0  0  0  0  0
  -27.9775  -21.7417   21.6904 C   0  0  0  0  0  0  0  0  0  0  0  0
  -18.4051  -27.1148   21.8690 C   0  0  0  0  0  0  0  0  0  0  0  0
  -23.0604  -30.2027   25.4276 C   0  0  0  0  0  0  0  0  0  0  0  0
  -21.1823  -28.5502   25.3256 C   0  0  0  0  0  0  0  0  0  0  0  0
  -20.7601  -30.9500   24.7914 C   0  0  0  0  0  0  0  0  0  0  0  0
  -31.8611  -25.4235   19.9317 C   0  0  0  0  0  0  0  0  0  0  0  0
  -30.3147  -25.5618   21.9007 C   0  0  0  0  0  0  0  0  0  0  0  0
  -20.5285  -27.7050   18.7675 C   0  0  0  0  0  0  0  0  0  0  0  0
  -30.4896  -22.7334   20.5296 C   0  0  0  0  0  0  0  0  0  0  0  0
  -29.7711  -23.9735   19.9798 C   0  0  0  0  0  0  0  0  0  0  0  0
  -29.5865  -26.4777   19.6951 C   0  0  0  0  0  0  0  0  0  1  0  0
  -22.0504  -29.5234   23.1507 C   0  0  1  0  0  0  0  0  0  0  0  0
  -19.4184  -27.8443   21.0007 C   0  0  2  0  0  0  0  0  0  0  0  0
  -21.7861  -29.8037   24.6570 C   0  0  0  0  0  0  0  0  0  0  0  0
  -30.3896  -25.3439   20.3790 C   0  0  0  0  0  0  0  0  0  0  0  0
  -26.0456  -13.3251   20.5153 N   0  0  0  0  0  0  0  0  0  0  0  0
  -25.4100  -13.8160   19.4377 N   0  0  0  0  0  0  0  0  0  0  0  0
  -23.9243  -30.4998   21.8627 N   0  0  0  0  0  0  0  0  0  0  0  0
  -28.2522  -15.7176   17.7380 N   0  0  0  0  0  0  0  0  0  0  0  0
  -23.2612  -14.1248   18.4901 N   0  0  0  0  0  0  0  0  0  0  0  0
  -22.3826  -12.0844   22.4222 N   0  0  0  0  0  0  0  0  0  0  0  0
  -28.1083  -17.9063   18.6048 N   0  0  0  0  0  0  0  0  0  0  0  0
  -25.8092  -33.4714   22.4520 N   0  0  0  0  0  0  0  0  0  0  0  0
  -20.8566  -29.1697   22.3903 N   0  0  0  0  0  0  0  0  0  0  0  0
  -19.5770  -27.0873   19.7268 N   0  3  0  0  0  0  0  0  0  0  0  0
  -21.4364  -12.9464   20.5195 O   0  0  0  0  0  0  0  0  0  0  0  0
  -26.0768  -31.2801   23.1930 O   0  0  0  0  0  0  0  0  0  0  0  0
  -22.0489  -31.7749   22.4040 O   0  0  0  0  0  0  0  0  0  0  0  0
  -21.6237  -27.1077   21.6574 O   0  0  0  0  0  0  0  0  0  0  0  0
  -29.2284  -17.4880   16.6168 O   0  0  0  0  0  0  0  0  0  0  0  0
  -26.1380  -10.4789   26.2109 O   0  0  0  0  0  0  0  0  0  0  0  0
  -28.2126  -26.4401   20.0790 O   0  0  0  0  0  0  0  0  0  1  0  0
  -30.2571   -6.8197   26.4280 F   0  0  0  0  0  0  0  0  0  0  0  0
  -25.6748   -7.8663   26.9870 F   0  0  0  0  0  0  0  0  0  0  0  0
  1  2  1  0  0  0  0
  1  5  2  0  0  0  0
  2  6  2  0  0  0  0
  3 10  2  0  0  0  0
  3 18  1  0  0  0  0
  4 11  1  0  0  0  0
  4 18  2  0  0  0  0
  5 20  1  0  0  0  0
  6 22  1  0  0  0  0
  7 12  2  0  0  0  0
  7 21  1  0  0  0  0
  8  9  2  0  0  0  0
  8 24  1  0  0  0  0
  9 26  1  0  0  0  0
 10 27  1  0  0  0  0
 11 27  2  0  0  0  0
 12 28  1  0  0  0  0
 13 14  2  0  0  0  0
 13 29  1  0  0  0  0
 14 30  1  0  0  0  0
 15 23  1  0  0  0  0
 15 28  2  0  0  0  0
 16 25  1  0  0  0  0
 16 26  2  0  0  0  0
 17 30  2  0  0  0  0
 17 31  1  0  0  0  0
 18 32  1  0  0  0  0
 19 32  1  0  0  0  0
 19 33  2  0  0  0  0
 19 34  1  0  0  0  0
 20 22  2  0  0  0  0
 20 39  1  0  0  0  0
 21 23  2  0  0  0  0
 21 40  1  0  0  0  0
 22 48  1  0  0  0  0
 23 41  1  0  0  0  0
 24 25  2  0  0  0  0
 24 59  1  0  0  0  0
 25 51  1  0  0  0  0
 26 72  1  0  0  0  0
 27 81  1  0  0  0  0
 28 82  1  0  0  0  0
 29 31  2  0  0  0  0
 29 81  1  0  0  0  0
 30 83  1  0  0  0  0
 31 84  1  0  0  0  0
 32 66  2  0  0  0  0
 33 67  1  0  0  0  0
 33 70  1  0  0  0  0
 34 71  1  0  0  0  0
 34 76  2  0  0  0  0
 35 49  1  0  0  0  0
 35 73  1  0  0  0  0
 35 77  2  0  0  0  0
 36 62  1  0  0  0  0
 36 68  1  0  0  0  0
 36 78  2  0  0  0  0
 37 63  1  0  0  0  0
 37 74  1  0  0  0  0
 37 79  2  0  0  0  0
 38 69  1  0  0  0  0
 38 72  1  0  0  0  0
 38 80  2  0  0  0  0
 39 42  1  0  0  0  0
 40 49  1  0  0  0  0
 41 68  1  0  0  0  0
 42 44  1  0  0  0  0
 43 45  1  0  0  0  0
 43 46  1  0  0  0  0
 44 48  1  0  0  0  0
 45 50  1  0  0  0  0
 46 69  1  0  0  0  0
 47 50  1  0  0  0  0
 47 69  1  0  0  0  0
 48 73  1  0  0  0  0
 49 68  1  0  0  0  0
 50 67  1  0  0  0  0
 52 63  1  0  0  0  0
 53 64  1  0  0  0  0
 54 64  1  0  0  0  0
 55 64  1  0  0  0  0
 56 65  1  0  0  0  0
 57 65  1  0  0  0  0
 58 75  1  0  0  0  0
 59 60  1  0  0  0  0
 60 65  1  0  0  0  0
 61 65  1  0  0  0  0
 61 82  1  0  0  0  0
 62 64  1  0  0  0  0
 62 74  1  0  0  0  0
 63 75  1  0  0  0  0
 66 67  1  0  0  0  0
M  CHG  1  75   1
M  ISO  4  38 100  61 101  72 100  82 101
M  END
> <Batch ID>
0140

> <Smiles>
CNC(C)C(=O)NC(C(=O)N1Cc2cc([101O:1][101CH2:1]C(C)(C)CCc3ccc([100NH:0][100C:0](=O)N4CCCC(n5nc(-c6ccc(Oc7ccc(F)cc7F)cc6)c(C(N)=O)c5N)C4)cc3C)ccc2CC1C(=O)NC1CCCc2ccccc21)C(C)(C)C

> <Shape>
0.273

> <Color>
0.076

> <Negative vol penalty>
0.000

$$$$

  -OEChem-04052302513D

 83 91  0     1  0  0  0  0  0999 V2000
  -31.6228  -24.3867   22.7306 C   0  0  0  0  0  0  0  0  0  0  0  0
  -31.5021  -25.7695   22.8084 C   0  0  0  0  0  0  0  0  0  0  0  0
  -26.1088  -13.7815   21.7859 C   0  0  0  0  0  0  0  0  0  0  0  0
  -25.0761  -15.0319   19.9951 C   0  0  0  0  0  0  0  0  0  0  0  0
  -31.4515  -23.7438   21.5064 C   0  0  0  0  0  0  0  0  0  0  0  0
  -31.1981  -26.5087   21.6647 C   0  0  0  0  0  0  0  0  0  0  0  0
  -25.2102  -28.2653   17.1575 C   0  0  0  0  0  0  0  0  0  0  0  0
  -25.0227  -12.9065   21.8013 C   0  0  0  0  0  0  0  0  0  0  0  0
  -23.9900  -14.1568   20.0105 C   0  0  0  0  0  0  0  0  0  0  0  0
  -24.1002  -27.4857   16.8353 C   0  0  0  0  0  0  0  0  0  0  0  0
  -22.6896  -10.1315   22.0676 C   0  0  0  0  0  0  0  0  0  0  0  0
  -22.9589   -8.7647   22.1375 C   0  0  0  0  0  0  0  0  0  0  0  0
  -24.8242  -23.0508   19.0278 C   0  0  0  0  0  0  0  0  0  0  0  0
  -23.9365  -26.7787   19.1359 C   0  0  0  0  0  0  0  0  0  0  0  0
  -24.1912   -8.9014   20.0639 C   0  0  0  0  0  0  0  0  0  0  0  0
  -26.1355  -14.8442   20.8828 C   0  0  0  0  0  0  0  0  0  0  0  0
  -24.8370  -23.1206   17.6142 C   0  0  0  0  0  0  0  0  0  0  0  0
  -28.4344  -15.6297   20.1044 C   0  0  0  0  0  0  0  0  0  0  0  0
  -31.1576  -24.4774   20.3452 C   0  0  0  0  0  0  0  0  0  0  0  0
  -25.6992  -28.2990   18.4714 C   0  0  0  0  0  0  0  0  0  0  0  0
  -30.9979  -25.8758   20.4246 C   0  0  0  0  0  0  0  0  0  0  0  0
  -25.0514  -27.5615   19.4726 C   0  0  0  0  0  0  0  0  0  0  0  0
  -23.9633  -13.0941   20.9136 C   0  0  0  0  0  0  0  0  0  0  0  0
  -23.4649  -26.7400   17.8239 C   0  0  0  0  0  0  0  0  0  0  0  0
  -23.1710  -10.8833   20.9958 C   0  0  0  0  0  0  0  0  0  0  0  0
  -23.7097   -8.1496   21.1357 C   0  0  0  0  0  0  0  0  0  0  0  0
  -23.9218  -10.2682   19.9940 C   0  0  0  0  0  0  0  0  0  0  0  0
  -27.2570  -15.7488   20.8668 C   0  0  0  0  0  0  0  0  0  0  0  0
  -26.0895  -23.3999   19.4389 C   0  0  0  0  0  0  0  0  0  0  0  0
  -26.1092  -23.5076   17.2624 C   0  0  0  0  0  0  0  0  0  0  0  0
  -29.1774  -16.7334   20.4455 C   0  0  0  0  0  0  0  0  0  0  0  0
  -23.7218  -22.8409   16.6622 C   0  0  0  0  0  0  0  0  0  0  0  0
  -28.8218  -14.6124   19.1713 C   0  0  0  0  0  0  0  0  0  0  0  0
  -28.4377  -27.4889   19.8670 C   0  0  0  0  0  0  0  0  0  0  0  0
  -27.0517  -28.8248   22.4778 C   0  0  0  0  0  0  0  0  0  0  0  0
  -24.1838  -29.7137   24.1001 C   0  0  0  0  0  0  0  0  0  0  0  0
  -27.7131  -22.1376   22.5671 C   0  0  0  0  0  0  0  0  0  0  0  0
  -30.9745  -23.7298   19.0480 C   0  0  0  0  0  0  0  0  0  0  0  0
  -26.8814  -29.1659   18.8080 C   0  0  0  0  0  0  0  0  0  0  0  0
  -25.5246  -27.5792   20.9024 C   0  0  0  0  0  0  0  0  0  0  0  0
  -31.0954  -24.6287   17.8217 C   0  0  0  0  0  0  0  0  0  0  0  0
  -29.9189  -19.7764   24.0623 C   0  0  0  0  0  0  0  0  0  0  0  0
  -30.2242  -25.8639   17.9947 C   0  0  0  0  0  0  0  0  0  0  0  0
  -29.5931  -18.4657   23.3441 C   0  0  0  0  0  0  0  0  0  0  0  0
  -28.6689  -20.6259   24.2811 C   0  0  0  0  0  0  0  0  0  0  0  0
  -27.5558  -19.5837   22.3449 C   0  0  0  0  0  0  0  0  0  0  0  0
  -30.6980  -26.7035   19.1879 C   0  0  1  0  0  0  0  0  0  0  0  0
  -27.6057  -28.7226   20.0753 C   0  0  1  0  0  0  0  0  0  0  0  0
  -28.7933  -18.7182   22.0519 C   0  0  2  0  0  0  0  0  0  0  0  0
  -26.7696  -23.7600   15.9722 C   0  0  0  0  0  0  0  0  0  0  0  0
  -23.3687  -30.7524   26.2341 C   0  0  0  0  0  0  0  0  0  0  0  0
  -27.6373  -26.2251   23.9640 C   0  0  0  0  0  0  0  0  0  0  0  0
  -26.0026  -26.9420   25.7196 C   0  0  0  0  0  0  0  0  0  0  0  0
  -28.0495  -28.3026   25.2939 C   0  0  0  0  0  0  0  0  0  0  0  0
  -22.8917  -31.9496   22.6543 C   0  0  0  0  0  0  0  0  0  0  0  0
  -26.7199  -23.5198   20.7610 C   0  0  0  0  0  0  0  0  0  0  0  0
  -22.2927  -23.0998   17.1149 C   0  0  0  0  0  0  0  0  0  0  0  0
  -21.5805  -24.1173   16.2260 C   0  0  0  0  0  0  0  0  0  0  0  0
  -22.3203  -25.4467   16.1889 C   0  0  0  0  0  0  0  0  0  1  0  0
  -26.1743  -28.3208   23.5982 C   0  0  1  0  0  0  0  0  0  0  0  0
  -23.7749  -31.0026   24.7901 C   0  0  2  0  0  0  0  0  0  0  0  0
  -26.9579  -27.4456   24.6167 C   0  0  0  0  0  0  0  0  0  0  0  0
  -27.2481  -16.8418   21.6345 N   0  0  0  0  0  0  0  0  0  0  0  0
  -28.4291  -17.4196   21.3562 N   0  0  0  0  0  0  0  0  0  0  0  0
  -26.6882  -28.4373   21.1803 N   0  0  0  0  0  0  0  0  0  0  0  0
  -27.9572  -20.8295   23.0170 N   0  0  0  0  0  0  0  0  0  0  0  0
  -30.3913  -17.1741   20.0522 N   0  0  0  0  0  0  0  0  0  0  0  0
  -27.9397  -13.5486   18.9383 N   0  0  0  0  0  0  0  0  0  0  0  0
  -29.7288  -27.7454   19.4464 N   0  0  0  0  0  0  0  0  0  0  0  0
  -25.5431  -29.4986   24.1838 N   0  0  0  0  0  0  0  0  0  0  0  0
  -27.0384  -22.2415   21.3569 N   0  0  0  0  0  0  0  0  0  0  0  0
  -22.6237  -31.6279   24.0796 N   0  3  0  0  0  0  0  0  0  0  0  0
  -23.9836  -22.4109   15.5412 O   0  0  0  0  0  0  0  0  0  0  0  0
  -29.9249  -14.6372   18.5746 O   0  0  0  0  0  0  0  0  0  0  0  0
  -27.9453  -26.3860   20.0740 O   0  0  0  0  0  0  0  0  0  0  0  0
  -28.0195  -29.5419   22.7435 O   0  0  0  0  0  0  0  0  0  0  0  0
  -23.3773  -28.9702   23.5457 O   0  0  0  0  0  0  0  0  0  0  0  0
  -28.0747  -23.1388   23.1947 O   0  0  0  0  0  0  0  0  0  0  0  0
  -26.8789  -23.6800   18.3689 O   0  0  0  0  0  0  0  0  0  0  0  0
  -22.9034  -12.2403   20.9282 O   0  0  0  0  0  0  0  0  0  0  0  0
  -22.3816  -25.9777   17.5120 O   0  0  0  0  0  0  0  0  0  1  0  0
  -23.9695   -6.8374   21.2038 F   0  0  0  0  0  0  0  0  0  0  0  0
  -24.3880  -10.9855   18.9624 F   0  0  0  0  0  0  0  0  0  0  0  0
  1  2  1  0  0  0  0
  1  5  2  0  0  0  0
  2  6  2  0  0  0  0
  3  8  2  0  0  0  0
  3 16  1  0  0  0  0
  4  9  1  0  0  0  0
  4 16  2  0  0  0  0
  5 19  1  0  0  0  0
  6 21  1  0  0  0  0
  7 10  2  0  0  0  0
  7 20  1  0  0  0  0
  8 23  1  0  0  0  0
  9 23  2  0  0  0  0
 10 24  1  0  0  0  0
 11 12  2  0  0  0  0
 11 25  1  0  0  0  0
 12 26  1  0  0  0  0
 13 17  1  0  0  0  0
 13 29  2  0  0  0  0
 14 22  1  0  0  0  0
 14 24  2  0  0  0  0
 15 26  2  0  0  0  0
 15 27  1  0  0  0  0
 16 28  1  0  0  0  0
 17 30  2  0  0  0  0
 17 32  1  0  0  0  0
 18 28  1  0  0  0  0
 18 31  2  0  0  0  0
 18 33  1  0  0  0  0
 19 21  2  0  0  0  0
 19 38  1  0  0  0  0
 20 22  2  0  0  0  0
 20 39  1  0  0  0  0
 21 47  1  0  0  0  0
 22 40  1  0  0  0  0
 23 80  1  0  0  0  0
 24 81  1  0  0  0  0
 25 27  2  0  0  0  0
 25 80  1  0  0  0  0
 26 82  1  0  0  0  0
 27 83  1  0  0  0  0
 28 63  2  0  0  0  0
 29 56  1  0  0  0  0
 29 79  1  0  0  0  0
 30 50  1  0  0  0  0
 30 79  1  0  0  0  0
 31 64  1  0  0  0  0
 31 67  1  0  0  0  0
 32 57  1  0  0  0  0
 32 73  2  0  0  0  0
 33 68  1  0  0  0  0
 33 74  2  0  0  0  0
 34 48  1  0  0  0  0
 34 69  1  0  0  0  0
 34 75  2  0  0  0  0
 35 60  1  0  0  0  0
 35 65  1  0  0  0  0
 35 76  2  0  0  0  0
 36 61  1  0  0  0  0
 36 70  1  0  0  0  0
 36 77  2  0  0  0  0
 37 66  1  0  0  0  0
 37 71  1  0  0  0  0
 37 78  2  0  0  0  0
 38 41  1  0  0  0  0
 39 48  1  0  0  0  0
 40 65  1  0  0  0  0
 41 43  1  0  0  0  0
 42 44  1  0  0  0  0
 42 45  1  0  0  0  0
 43 47  1  0  0  0  0
 44 49  1  0  0  0  0
 45 66  1  0  0  0  0
 46 49  1  0  0  0  0
 46 66  1  0  0  0  0
 47 69  1  0  0  0  0
 48 65  1  0  0  0  0
 49 64  1  0  0  0  0
 51 61  1  0  0  0  0
 52 62  1  0  0  0  0
 53 62  1  0  0  0  0
 54 62  1  0  0  0  0
 55 72  1  0  0  0  0
 56 71  1  0  0  0  0
 57 58  1  0  0  0  0
 58 59  1  0  0  0  0
 59 81  1  0  0  0  0
 60 62  1  0  0  0  0
 60 70  1  0  0  0  0
 61 72  1  0  0  0  0
 63 64  1  0  0  0  0
M  CHG  1  72   1
M  ISO  4  37 100  59 101  71 100  81 101
M  END
> <Batch ID>
0140

> <Smiles>
CNC(C)C(=O)NC(C(=O)N1Cc2cc([101O:1][101CH2:1]CCC(=O)c3cc(C[100NH:0][100C:0](=O)N4CCCC(n5nc(-c6ccc(Oc7ccc(F)cc7F)cc6)c(C(N)=O)c5N)C4)oc3C)ccc2CC1C(=O)NC1CCCc2ccccc21)C(C)(C)C

> <Shape>
0.207

> <Color>
0.083

> <Negative vol penalty>
0.000

$$$$

  -OEChem-04052302513D

 87 95  0     1  0  0  0  0  0999 V2000
  -22.7201  -33.2651   14.7918 C   0  0  0  0  0  0  0  0  0  0  0  0
  -23.7985  -32.5205   15.2588 C   0  0  0  0  0  0  0  0  0  0  0  0
  -24.5021  -21.6833   19.9443 C   0  0  0  0  0  0  0  0  0  0  0  0
  -29.5836  -10.0799   18.6729 C   0  0  0  0  0  0  0  0  0  0  0  0
  -29.4377  -11.5488   16.7603 C   0  0  0  0  0  0  0  0  0  0  0  0
  -22.0882  -34.1788   15.6343 C   0  0  0  0  0  0  0  0  0  0  0  0
  -24.2463  -32.6899   16.5685 C   0  0  0  0  0  0  0  0  0  0  0  0
  -25.1647  -28.2855   18.8928 C   0  0  0  0  0  0  0  0  0  0  0  0
  -25.6996  -22.3811   19.7883 C   0  0  0  0  0  0  0  0  0  0  0  0
  -24.5223  -20.3149   20.2144 C   0  0  0  0  0  0  0  0  0  0  0  0
  -29.8948   -9.0131   17.8300 C   0  0  0  0  0  0  0  0  0  0  0  0
  -29.7489  -10.4819   15.9173 C   0  0  0  0  0  0  0  0  0  0  0  0
  -26.3569  -27.6354   18.5770 C   0  0  0  0  0  0  0  0  0  0  0  0
  -28.2429   -6.9023   15.7709 C   0  0  0  0  0  0  0  0  0  0  0  0
  -27.5893   -5.6901   15.9925 C   0  0  0  0  0  0  0  0  0  0  0  0
  -27.3516  -28.4881   20.6025 C   0  0  0  0  0  0  0  0  0  0  0  0
  -29.7180   -4.6115   16.3702 C   0  0  0  0  0  0  0  0  0  0  0  0
  -29.3550  -11.3478   18.1381 C   0  0  0  0  0  0  0  0  0  0  0  0
  -29.9346  -13.3398   19.6226 C   0  0  0  0  0  0  0  0  0  0  0  0
  -22.5224  -34.3525   16.9579 C   0  0  0  0  0  0  0  0  0  0  0  0
  -25.0603  -29.0521   20.0624 C   0  0  0  0  0  0  0  0  0  0  0  0
  -23.6205  -33.6078   17.4291 C   0  0  0  0  0  0  0  0  0  0  0  0
  -26.1562  -29.1449   20.9322 C   0  0  0  0  0  0  0  0  0  0  0  0
  -26.9175  -21.7107   19.9023 C   0  0  0  0  0  0  0  0  0  0  0  0
  -26.9377  -20.3423   20.1723 C   0  0  0  0  0  0  0  0  0  0  0  0
  -25.7401  -19.6445   20.3283 C   0  0  0  0  0  0  0  0  0  0  0  0
  -29.9775   -9.2141   16.4521 C   0  0  0  0  0  0  0  0  0  0  0  0
  -27.4515  -27.7390   19.4304 C   0  0  0  0  0  0  0  0  0  0  0  0
  -29.6340   -6.9690   15.8488 C   0  0  0  0  0  0  0  0  0  0  0  0
  -28.3268   -4.5447   16.2922 C   0  0  0  0  0  0  0  0  0  0  0  0
  -30.3715   -5.8237   16.1485 C   0  0  0  0  0  0  0  0  0  0  0  0
  -29.0330  -12.4501   19.0083 C   0  0  0  0  0  0  0  0  0  0  0  0
  -29.1363  -14.1965   20.3404 C   0  0  0  0  0  0  0  0  0  0  0  0
  -31.3658  -13.3876   19.5506 C   0  0  0  0  0  0  0  0  0  0  0  0
  -24.5015  -32.1170   20.6932 C   0  0  0  0  0  0  0  0  0  0  0  0
  -29.6876  -24.9784   18.6982 C   0  0  0  0  0  0  0  0  0  0  0  0
  -24.4580  -31.0743   23.7645 C   0  0  0  0  0  0  0  0  0  0  0  0
  -25.4300  -28.7243   26.0404 C   0  0  0  0  0  0  0  0  0  0  0  0
  -24.6261  -17.4313   20.7837 C   0  0  0  0  0  0  0  0  0  0  0  0
  -21.8378  -35.3863   17.8166 C   0  0  0  0  0  0  0  0  0  0  0  0
  -23.7589  -29.7254   20.4022 C   0  0  0  0  0  0  0  0  0  0  0  0
  -26.0891  -29.9389   22.2103 C   0  0  0  0  0  0  0  0  0  0  0  0
  -22.1360  -35.2351   19.3061 C   0  0  0  0  0  0  0  0  0  0  0  0
  -24.2011  -13.9577   21.4398 C   0  0  0  0  0  0  0  0  0  0  0  0
  -23.6302  -35.0286   19.5331 C   0  0  0  0  0  0  0  0  0  0  0  0
  -25.4945  -13.3290   20.9162 C   0  0  0  0  0  0  0  0  0  0  0  0
  -23.7401  -15.1203   20.5625 C   0  0  0  0  0  0  0  0  0  0  0  0
  -26.0463  -15.5271   19.7977 C   0  0  0  0  0  0  0  0  0  0  0  0
  -24.1197  -33.7454   18.8510 C   0  0  1  0  0  0  0  0  0  0  0  0
  -23.9264  -30.9001   21.3611 C   0  0  1  0  0  0  0  0  0  0  0  0
  -26.5852  -14.3933   20.6853 C   0  0  2  0  0  0  0  0  0  0  0  0
  -28.6165  -19.3465   21.7460 C   0  0  0  0  0  0  0  0  0  0  0  0
  -25.2731  -28.1624   28.4811 C   0  0  0  0  0  0  0  0  0  0  0  0
  -31.0189  -22.8507   18.4515 C   0  0  0  0  0  0  0  0  0  0  0  0
  -29.8980  -23.8544   16.4698 C   0  0  0  0  0  0  0  0  0  0  0  0
  -26.5428  -33.2131   24.3885 C   0  0  0  0  0  0  0  0  0  0  0  0
  -27.0334  -32.0112   26.5293 C   0  0  0  0  0  0  0  0  0  0  0  0
  -24.7605  -32.9558   26.1239 C   0  0  0  0  0  0  0  0  0  0  0  0
  -24.0261  -26.1793   25.4830 C   0  0  0  0  0  0  0  0  0  0  0  0
  -28.1980  -22.4898   19.7290 C   0  0  0  0  0  0  0  0  0  0  0  0
  -28.2469  -19.6273   20.2939 C   0  0  0  0  0  0  0  0  0  0  0  0
  -28.5207  -25.8979   18.3706 C   0  0  0  0  0  0  0  0  0  1  0  0
  -28.4908  -22.7647   18.2471 C   0  0  0  0  0  0  0  0  0  0  0  0
  -25.4936  -30.8994   24.8489 C   0  0  1  0  0  0  0  0  0  0  0  0
  -24.6531  -27.9717   27.1055 C   0  0  2  0  0  0  0  0  0  0  0  0
  -29.7619  -23.6096   17.9834 C   0  0  0  0  0  0  0  0  0  0  0  0
  -25.9598  -32.2564   25.4477 C   0  0  0  0  0  0  0  0  0  0  0  0
  -27.7594  -12.7168   19.3097 N   0  0  0  0  0  0  0  0  0  0  0  0
  -27.8550  -13.7838   20.1213 N   0  0  0  0  0  0  0  0  0  0  0  0
  -24.7969  -30.5841   22.4954 N   0  0  0  0  0  0  0  0  0  0  0  0
  -24.8236  -16.0905   20.3913 N   0  0  0  0  0  0  0  0  0  0  0  0
  -29.4124  -15.2551   21.1313 N   0  0  0  0  0  0  0  0  0  0  0  0
  -32.0277  -12.4322   18.7674 N   0  0  0  0  0  0  0  0  0  0  0  0
  -25.7372  -18.2545   20.6036 N   0  0  0  0  0  0  0  0  0  0  0  0
  -23.7496  -32.5848   19.6324 N   0  0  0  0  0  0  0  0  0  0  0  0
  -24.9121  -29.9839   25.8248 N   0  0  0  0  0  0  0  0  0  0  0  0
  -24.6314  -26.5137   26.7978 N   0  3  0  0  0  0  0  0  0  0  0  0
  -32.0387  -14.2418   20.1759 O   0  0  0  0  0  0  0  0  0  0  0  0
  -25.5491  -32.5969   21.1103 O   0  0  0  0  0  0  0  0  0  0  0  0
  -30.5496  -25.3292   19.5078 O   0  0  0  0  0  0  0  0  0  0  0  0
  -23.3850  -31.6192   24.0353 O   0  0  0  0  0  0  0  0  0  0  0  0
  -26.4015  -28.2443   25.4605 O   0  0  0  0  0  0  0  0  0  0  0  0
  -23.5593  -17.8145   21.2709 O   0  0  0  0  0  0  0  0  0  0  0  0
  -30.2813   -8.1734   15.6293 O   0  0  0  0  0  0  0  0  0  0  0  0
  -28.6165  -27.1059   19.1241 O   0  0  0  0  0  0  0  0  0  1  0  0
  -27.6990   -3.3811   16.5066 F   0  0  0  0  0  0  0  0  0  0  0  0
  -31.7081   -5.8819   16.2260 F   0  0  0  0  0  0  0  0  0  0  0  0
  1  2  1  0  0  0  0
  1  6  2  0  0  0  0
  2  7  2  0  0  0  0
  3  9  1  0  0  0  0
  3 10  2  0  0  0  0
  4 11  2  0  0  0  0
  4 18  1  0  0  0  0
  5 12  1  0  0  0  0
  5 18  2  0  0  0  0
  6 20  1  0  0  0  0
  7 22  1  0  0  0  0
  8 13  2  0  0  0  0
  8 21  1  0  0  0  0
  9 24  2  0  0  0  0
 10 26  1  0  0  0  0
 11 27  1  0  0  0  0
 12 27  2  0  0  0  0
 13 28  1  0  0  0  0
 14 15  2  0  0  0  0
 14 29  1  0  0  0  0
 15 30  1  0  0  0  0
 16 23  1  0  0  0  0
 16 28  2  0  0  0  0
 17 30  2  0  0  0  0
 17 31  1  0  0  0  0
 18 32  1  0  0  0  0
 19 32  1  0  0  0  0
 19 33  2  0  0  0  0
 19 34  1  0  0  0  0
 20 22  2  0  0  0  0
 20 40  1  0  0  0  0
 21 23  2  0  0  0  0
 21 41  1  0  0  0  0
 22 49  1  0  0  0  0
 23 42  1  0  0  0  0
 24 25  1  0  0  0  0
 24 60  1  0  0  0  0
 25 26  2  0  0  0  0
 25 61  1  0  0  0  0
 26 74  1  0  0  0  0
 27 84  1  0  0  0  0
 28 85  1  0  0  0  0
 29 31  2  0  0  0  0
 29 84  1  0  0  0  0
 30 86  1  0  0  0  0
 31 87  1  0  0  0  0
 32 68  2  0  0  0  0
 33 69  1  0  0  0  0
 33 72  1  0  0  0  0
 34 73  1  0  0  0  0
 34 78  2  0  0  0  0
 35 50  1  0  0  0  0
 35 75  1  0  0  0  0
 35 79  2  0  0  0  0
 36 62  1  0  0  0  0
 36 66  1  0  0  0  0
 36 80  2  0  0  0  0
 37 64  1  0  0  0  0
 37 70  1  0  0  0  0
 37 81  2  0  0  0  0
 38 65  1  0  0  0  0
 38 76  1  0  0  0  0
 38 82  2  0  0  0  0
 39 71  1  0  0  0  0
 39 74  1  0  0  0  0
 39 83  2  0  0  0  0
 40 43  1  0  0  0  0
 41 50  1  0  0  0  0
 42 70  1  0  0  0  0
 43 45  1  0  0  0  0
 44 46  1  0  0  0  0
 44 47  1  0  0  0  0
 45 49  1  0  0  0  0
 46 51  1  0  0  0  0
 47 71  1  0  0  0  0
 48 51  1  0  0  0  0
 48 71  1  0  0  0  0
 49 75  1  0  0  0  0
 50 70  1  0  0  0  0
 51 69  1  0  0  0  0
 52 61  1  0  0  0  0
 53 65  1  0  0  0  0
 54 66  1  0  0  0  0
 55 66  1  0  0  0  0
 56 67  1  0  0  0  0
 57 67  1  0  0  0  0
 58 67  1  0  0  0  0
 59 77  1  0  0  0  0
 60 63  1  0  0  0  0
 62 85  1  0  0  0  0
 63 66  1  0  0  0  0
 64 67  1  0  0  0  0
 64 76  1  0  0  0  0
 65 77  1  0  0  0  0
 68 69  1  0  0  0  0
M  CHG  1  77   1
M  ISO  4  39 100  62 101  74 100  85 101
M  END
> <Batch ID>
0140

> <Smiles>
CCc1c(CCC(C)(C)C(=O)[101CH2:1][101O:1]c2ccc3c(c2)CN(C(=O)C(NC(=O)C(C)NC)C(C)(C)C)C(C(=O)NC2CCCc4ccccc42)C3)cccc1[100NH:0][100C:0](=O)N1CCCC(n2nc(-c3ccc(Oc4ccc(F)cc4F)cc3)c(C(N)=O)c2N)C1

> <Shape>
0.248

> <Color>
0.103

> <Negative vol penalty>
0.000

$$$$

  -OEChem-04052302513D

 86 95  0     1  0  0  0  0  0999 V2000
  -16.7960  -28.9644   24.1531 C   0  0  0  0  0  0  0  0  0  0  0  0
  -17.2321  -28.3034   23.0093 C   0  0  0  0  0  0  0  0  0  0  0  0
  -26.3765  -23.2959   20.2030 C   0  0  0  0  0  0  0  0  0  0  0  0
  -26.6019  -11.7738   21.5723 C   0  0  0  0  0  0  0  0  0  0  0  0
  -25.8817  -12.9609   19.5951 C   0  0  0  0  0  0  0  0  0  0  0  0
  -17.4958  -30.0740   24.6252 C   0  0  0  0  0  0  0  0  0  0  0  0
  -18.3677  -28.7524   22.3362 C   0  0  0  0  0  0  0  0  0  0  0  0
  -25.9669  -23.1547   18.8771 C   0  0  0  0  0  0  0  0  0  0  0  0
  -22.5137  -25.3200   19.4146 C   0  0  0  0  0  0  0  0  0  0  0  0
  -27.1015  -22.2772   20.8213 C   0  0  0  0  0  0  0  0  0  0  0  0
  -25.4699  -10.9623   21.4974 C   0  0  0  0  0  0  0  0  0  0  0  0
  -24.7497  -12.1493   19.5201 C   0  0  0  0  0  0  0  0  0  0  0  0
  -22.6859  -25.0001   18.0686 C   0  0  0  0  0  0  0  0  0  0  0  0
  -22.9532   -8.3418   21.6182 C   0  0  0  0  0  0  0  0  0  0  0  0
  -23.1259   -6.9697   21.7999 C   0  0  0  0  0  0  0  0  0  0  0  0
  -27.0073  -20.9760   18.7878 C   0  0  0  0  0  0  0  0  0  0  0  0
  -24.2859  -26.7926   17.8536 C   0  0  0  0  0  0  0  0  0  0  0  0
  -24.6144   -6.9051   19.8980 C   0  0  0  0  0  0  0  0  0  0  0  0
  -26.8077  -12.7732   20.6211 C   0  0  0  0  0  0  0  0  0  0  0  0
  -29.2305  -13.3802   20.1020 C   0  0  0  0  0  0  0  0  0  0  0  0
  -26.2823  -21.9947   18.1695 C   0  0  0  0  0  0  0  0  0  0  0  0
  -18.6461  -30.5310   23.9630 C   0  0  0  0  0  0  0  0  0  0  0  0
  -23.2194  -26.3873   19.9885 C   0  0  0  0  0  0  0  0  0  0  0  0
  -19.0828  -29.8701   22.7991 C   0  0  0  0  0  0  0  0  0  0  0  0
  -24.1228  -27.1223   19.2078 C   0  0  0  0  0  0  0  0  0  0  0  0
  -27.4169  -21.1172   20.1137 C   0  0  0  0  0  0  0  0  0  0  0  0
  -24.5439  -11.1500   20.4713 C   0  0  0  0  0  0  0  0  0  0  0  0
  -23.5700  -25.7383   17.2871 C   0  0  0  0  0  0  0  0  0  0  0  0
  -23.6111   -8.9956   20.5763 C   0  0  0  0  0  0  0  0  0  0  0  0
  -23.9564   -6.2513   20.9399 C   0  0  0  0  0  0  0  0  0  0  0  0
  -24.4417   -8.2773   19.7163 C   0  0  0  0  0  0  0  0  0  0  0  0
  -27.9766  -13.6123   20.6983 C   0  0  0  0  0  0  0  0  0  0  0  0
  -29.9923  -14.4613   20.4726 C   0  0  0  0  0  0  0  0  0  0  0  0
  -29.6676  -12.2853   19.2860 C   0  0  0  0  0  0  0  0  0  0  0  0
  -25.2934  -23.2865   14.7039 C   0  0  0  0  0  0  0  0  0  0  0  0
  -22.4039  -29.1397   21.3534 C   0  0  0  0  0  0  0  0  0  0  0  0
  -25.5828  -29.3267   21.9714 C   0  0  0  0  0  0  0  0  0  0  0  0
  -28.7563  -28.3872   21.1387 C   0  0  0  0  0  0  0  0  0  0  0  0
  -28.6356  -20.0627   22.0500 C   0  0  0  0  0  0  0  0  0  0  0  0
  -19.3423  -31.7634   24.4840 C   0  0  0  0  0  0  0  0  0  0  0  0
  -23.0423  -26.7026   21.4485 C   0  0  0  0  0  0  0  0  0  0  0  0
  -24.9195  -28.2647   19.7810 C   0  0  0  0  0  0  0  0  0  0  0  0
  -20.7512  -31.9487   23.9264 C   0  0  0  0  0  0  0  0  0  0  0  0
  -30.4573  -17.6890   23.9797 C   0  0  0  0  0  0  0  0  0  0  0  0
  -20.7594  -31.7377   22.4157 C   0  0  0  0  0  0  0  0  0  0  0  0
  -30.1468  -16.3538   23.2993 C   0  0  0  0  0  0  0  0  0  0  0  0
  -26.8721  -21.5305   15.6974 C   0  0  0  0  0  0  0  0  0  0  0  0
  -29.2466  -18.6207   23.9793 C   0  0  0  0  0  0  0  0  0  0  0  0
  -28.3262  -17.5102   21.9821 C   0  0  0  0  0  0  0  0  0  0  0  0
  -25.8472  -21.8441   16.7600 C   0  0  2  0  0  0  0  0  0  0  0  0
  -20.3245  -30.3120   22.0554 C   0  0  1  0  0  0  0  0  0  0  0  0
  -26.2698  -22.8887   15.7651 C   0  0  2  0  0  0  0  0  0  0  0  0
  -23.4282  -28.1358   21.8014 C   0  0  1  0  0  0  0  0  0  0  0  0
  -29.5345  -16.5631   21.9004 C   0  0  2  0  0  0  0  0  0  0  0  0
  -31.1514  -28.7326   21.8033 C   0  0  0  0  0  0  0  0  0  0  0  0
  -24.2173  -24.9250   13.1413 C   0  0  0  0  0  0  0  0  0  0  0  0
  -26.6647  -25.0754   13.5990 C   0  0  0  0  0  0  0  0  0  0  0  0
  -25.5514  -32.0754   20.6471 C   0  0  0  0  0  0  0  0  0  0  0  0
  -28.0465  -31.9482   20.4839 C   0  0  0  0  0  0  0  0  0  0  0  0
  -26.9422  -31.9322   22.7207 C   0  0  0  0  0  0  0  0  0  0  0  0
  -29.1216  -25.5149   21.7514 C   0  0  0  0  0  0  0  0  0  0  0  0
  -25.0182  -25.7009   15.4011 C   0  0  0  0  0  0  0  0  0  1  0  0
  -26.7821  -29.8858   21.2447 C   0  0  1  0  0  0  0  0  0  0  0  0
  -29.9091  -27.8740   21.9826 C   0  0  2  0  0  0  0  0  0  0  0  0
  -25.3000  -24.7479   14.2245 C   0  0  0  0  0  0  0  0  0  0  0  0
  -26.8143  -31.4402   21.2625 C   0  0  0  0  0  0  0  0  0  0  0  0
  -27.9398  -14.7513   21.3949 N   0  0  0  0  0  0  0  0  0  0  0  0
  -29.1801  -15.2445   21.2388 N   0  0  0  0  0  0  0  0  0  0  0  0
  -24.7068  -28.5383   21.2119 N   0  0  0  0  0  0  0  0  0  0  0  0
  -28.7228  -18.7752   22.6204 N   0  0  0  0  0  0  0  0  0  0  0  0
  -31.2710  -14.8088   20.2146 N   0  0  0  0  0  0  0  0  0  0  0  0
  -28.7569  -11.2584   19.0021 N   0  0  0  0  0  0  0  0  0  0  0  0
  -28.1532  -20.0823   20.7417 N   0  0  0  0  0  0  0  0  0  0  0  0
  -21.4088  -29.3805   22.2815 N   0  0  0  0  0  0  0  0  0  0  0  0
  -27.9533  -29.2570   21.8458 N   0  0  0  0  0  0  0  0  0  0  0  0
  -30.2467  -26.4734   21.6014 N   0  3  0  0  0  0  0  0  0  0  0  0
  -30.8361  -12.2113   18.8359 O   0  0  0  0  0  0  0  0  0  0  0  0
  -24.5288  -22.4339   14.2639 O   0  0  0  0  0  0  0  0  0  0  0  0
  -22.5095  -29.6586   20.2483 O   0  0  0  0  0  0  0  0  0  0  0  0
  -25.4328  -29.5742   23.1705 O   0  0  0  0  0  0  0  0  0  0  0  0
  -28.5874  -28.0530   19.9681 O   0  0  0  0  0  0  0  0  0  0  0  0
  -28.9901  -21.0709   22.6663 O   0  0  0  0  0  0  0  0  0  0  0  0
  -23.4393  -10.3581   20.3977 O   0  0  0  0  0  0  0  0  0  0  0  0
  -23.7394  -25.4286   15.9729 O   0  0  0  0  0  0  0  0  0  1  0  0
  -24.1233   -4.9339   21.1154 F   0  0  0  0  0  0  0  0  0  0  0  0
  -25.0773   -8.9001   18.7143 F   0  0  0  0  0  0  0  0  0  0  0  0
  1  2  1  0  0  0  0
  1  6  2  0  0  0  0
  2  7  2  0  0  0  0
  3  8  2  0  0  0  0
  3 10  1  0  0  0  0
  4 11  2  0  0  0  0
  4 19  1  0  0  0  0
  5 12  1  0  0  0  0
  5 19  2  0  0  0  0
  6 22  1  0  0  0  0
  7 24  1  0  0  0  0
  8 21  1  0  0  0  0
  9 13  2  0  0  0  0
  9 23  1  0  0  0  0
 10 26  2  0  0  0  0
 11 27  1  0  0  0  0
 12 27  2  0  0  0  0
 13 28  1  0  0  0  0
 14 15  2  0  0  0  0
 14 29  1  0  0  0  0
 15 30  1  0  0  0  0
 16 21  2  0  0  0  0
 16 26  1  0  0  0  0
 17 25  1  0  0  0  0
 17 28  2  0  0  0  0
 18 30  2  0  0  0  0
 18 31  1  0  0  0  0
 19 32  1  0  0  0  0
 20 32  1  0  0  0  0
 20 33  2  0  0  0  0
 20 34  1  0  0  0  0
 21 50  1  0  0  0  0
 22 24  2  0  0  0  0
 22 40  1  0  0  0  0
 23 25  2  0  0  0  0
 23 41  1  0  0  0  0
 24 51  1  0  0  0  0
 25 42  1  0  0  0  0
 26 73  1  0  0  0  0
 27 83  1  0  0  0  0
 28 84  1  0  0  0  0
 29 31  2  0  0  0  0
 29 83  1  0  0  0  0
 30 85  1  0  0  0  0
 31 86  1  0  0  0  0
 32 67  2  0  0  0  0
 33 68  1  0  0  0  0
 33 71  1  0  0  0  0
 34 72  1  0  0  0  0
 34 77  2  0  0  0  0
 35 52  1  0  0  0  0
 35 65  1  0  0  0  0
 35 78  2  0  0  0  0
 36 53  1  0  0  0  0
 36 74  1  0  0  0  0
 36 79  2  0  0  0  0
 37 63  1  0  0  0  0
 37 69  1  0  0  0  0
 37 80  2  0  0  0  0
 38 64  1  0  0  0  0
 38 75  1  0  0  0  0
 38 81  2  0  0  0  0
 39 70  1  0  0  0  0
 39 73  1  0  0  0  0
 39 82  2  0  0  0  0
 40 43  1  0  0  0  0
 41 53  1  0  0  0  0
 42 69  1  0  0  0  0
 43 45  1  0  0  0  0
 44 46  1  0  0  0  0
 44 48  1  0  0  0  0
 45 51  1  0  0  0  0
 46 54  1  0  0  0  0
 47 50  1  0  0  0  0
 47 52  1  0  0  0  0
 48 70  1  0  0  0  0
 49 54  1  0  0  0  0
 49 70  1  0  0  0  0
 50 52  1  0  0  0  0
 51 74  1  0  0  0  0
 53 69  1  0  0  0  0
 54 68  1  0  0  0  0
 55 64  1  0  0  0  0
 56 65  1  0  0  0  0
 57 65  1  0  0  0  0
 58 66  1  0  0  0  0
 59 66  1  0  0  0  0
 60 66  1  0  0  0  0
 61 76  1  0  0  0  0
 62 65  1  0  0  0  0
 62 84  1  0  0  0  0
 63 66  1  0  0  0  0
 63 75  1  0  0  0  0
 64 76  1  0  0  0  0
 67 68  1  0  0  0  0
M  CHG  1  76   1
M  ISO  4  39 100  62 101  73 100  84 101
M  END
> <Batch ID>
0140

> <Smiles>
CNC(C)C(=O)NC(C(=O)N1Cc2cc([101O:1][101CH2:1]C(C)(C)C(=O)C3CC3c3cccc([100NH:0][100C:0](=O)N4CCCC(n5nc(-c6ccc(Oc7ccc(F)cc7F)cc6)c(C(N)=O)c5N)C4)c3)ccc2CC1C(=O)NC1CCCc2ccccc21)C(C)(C)C

> <Shape>
0.265

> <Color>
0.066

> <Negative vol penalty>
0.000

$$$$

  -OEChem-04052302513D

 87 95  0     1  0  0  0  0  0999 V2000
  -17.2577  -28.3088   22.9779 C   0  0  0  0  0  0  0  0  0  0  0  0
  -18.1267  -27.9279   23.9954 C   0  0  0  0  0  0  0  0  0  0  0  0
  -24.5984   -9.7717   21.7229 C   0  0  0  0  0  0  0  0  0  0  0  0
  -24.7374  -11.0151   23.7897 C   0  0  0  0  0  0  0  0  0  0  0  0
  -17.7409  -28.4957   21.6835 C   0  0  0  0  0  0  0  0  0  0  0  0
  -19.4794  -27.7327   23.7187 C   0  0  0  0  0  0  0  0  0  0  0  0
  -25.9472  -28.4146   26.7218 C   0  0  0  0  0  0  0  0  0  0  0  0
  -24.2785   -8.6179   22.4384 C   0  0  0  0  0  0  0  0  0  0  0  0
  -24.4174   -9.8613   24.5053 C   0  0  0  0  0  0  0  0  0  0  0  0
  -27.1056  -27.6774   26.9635 C   0  0  0  0  0  0  0  0  0  0  0  0
  -21.5545   -7.2941   23.9416 C   0  0  0  0  0  0  0  0  0  0  0  0
  -20.5056   -6.5067   23.4667 C   0  0  0  0  0  0  0  0  0  0  0  0
  -27.2757  -20.1083   21.3998 C   0  0  0  0  0  0  0  0  0  0  0  0
  -27.8421  -28.1064   24.7068 C   0  0  0  0  0  0  0  0  0  0  0  0
  -29.6916  -20.1142   21.3794 C   0  0  0  0  0  0  0  0  0  0  0  0
  -22.0190   -4.6396   23.2203 C   0  0  0  0  0  0  0  0  0  0  0  0
  -24.8279  -10.9703   22.3985 C   0  0  0  0  0  0  0  0  0  0  0  0
  -27.2759  -21.4375   21.8225 C   0  0  0  0  0  0  0  0  0  0  0  0
  -24.2640  -13.1192   21.1447 C   0  0  0  0  0  0  0  0  0  0  0  0
  -19.1019  -28.3120   21.3929 C   0  0  0  0  0  0  0  0  0  0  0  0
  -25.7220  -28.9950   25.4653 C   0  0  0  0  0  0  0  0  0  0  0  0
  -19.9810  -27.9160   22.4189 C   0  0  0  0  0  0  0  0  0  0  0  0
  -26.6813  -28.8526   24.4525 C   0  0  0  0  0  0  0  0  0  0  0  0
  -29.6919  -21.4435   21.8021 C   0  0  0  0  0  0  0  0  0  0  0  0
  -28.4840  -22.1052   22.0236 C   0  0  0  0  0  0  0  0  0  0  0  0
  -28.4835  -19.4466   21.1783 C   0  0  0  0  0  0  0  0  0  0  0  0
  -24.1880   -8.6627   23.8296 C   0  0  0  0  0  0  0  0  0  0  0  0
  -28.0520  -27.5208   25.9550 C   0  0  0  0  0  0  0  0  0  0  0  0
  -22.8356   -6.7543   24.0558 C   0  0  0  0  0  0  0  0  0  0  0  0
  -20.7379   -5.1794   23.1061 C   0  0  0  0  0  0  0  0  0  0  0  0
  -23.0678   -5.4270   23.6951 C   0  0  0  0  0  0  0  0  0  0  0  0
  -25.1589  -12.1624   21.6599 C   0  0  0  0  0  0  0  0  0  0  0  0
  -25.0695  -14.0482   20.5327 C   0  0  0  0  0  0  0  0  0  0  0  0
  -25.0663  -22.2297   21.1117 C   0  0  0  0  0  0  0  0  0  0  0  0
  -25.9965  -22.0987   22.0454 C   0  0  0  0  0  0  0  0  0  0  0  0
  -22.8326  -13.1642   21.2133 C   0  0  0  0  0  0  0  0  0  0  0  0
  -23.5141  -28.6609   23.2032 C   0  0  0  0  0  0  0  0  0  0  0  0
  -25.0860  -31.1531   21.8465 C   0  0  0  0  0  0  0  0  0  0  0  0
  -27.9811  -32.9350   21.5470 C   0  0  0  0  0  0  0  0  0  0  0  0
  -29.5930  -17.2945   20.4828 C   0  0  0  0  0  0  0  0  0  0  0  0
  -19.5691  -28.4799   19.9687 C   0  0  0  0  0  0  0  0  0  0  0  0
  -24.4799  -29.8096   25.2289 C   0  0  0  0  0  0  0  0  0  0  0  0
  -26.4966  -29.4729   23.0925 C   0  0  0  0  0  0  0  0  0  0  0  0
  -21.0838  -28.6169   19.8367 C   0  0  0  0  0  0  0  0  0  0  0  0
  -30.0106  -13.9153   19.4419 C   0  0  0  0  0  0  0  0  0  0  0  0
  -21.7907  -27.5565   20.6749 C   0  0  0  0  0  0  0  0  0  0  0  0
  -28.7120  -13.2367   19.8837 C   0  0  0  0  0  0  0  0  0  0  0  0
  -30.4701  -14.9697   20.4472 C   0  0  0  0  0  0  0  0  0  0  0  0
  -28.1605  -15.2969   21.2397 C   0  0  0  0  0  0  0  0  0  0  0  0
  -21.4595  -27.7186   22.1634 C   0  0  1  0  0  0  0  0  0  0  0  0
  -24.1128  -29.9248   23.7527 C   0  0  1  0  0  0  0  0  0  0  0  0
  -27.6234  -14.2724   20.2269 C   0  0  2  0  0  0  0  0  0  0  0  0
  -31.8565  -22.1421   20.7473 C   0  0  0  0  0  0  0  0  0  0  0  0
  -28.9706  -34.8962   20.3336 C   0  0  0  0  0  0  0  0  0  0  0  0
  -25.3163  -29.4669   19.3139 C   0  0  0  0  0  0  0  0  0  0  0  0
  -27.0846  -31.0452   18.5075 C   0  0  0  0  0  0  0  0  0  0  0  0
  -24.7680  -31.8746   18.9179 C   0  0  0  0  0  0  0  0  0  0  0  0
  -30.5040  -24.8069   26.2432 C   0  0  0  0  0  0  0  0  0  0  0  0
  -28.0688  -24.7912   26.8216 C   0  0  0  0  0  0  0  0  0  0  0  0
  -28.5092  -34.3806   24.0749 C   0  0  0  0  0  0  0  0  0  0  0  0
  -30.9998  -22.1347   22.0096 C   0  0  0  0  0  0  0  0  0  0  0  0
  -28.4972  -23.5422   22.4804 C   0  0  0  0  0  0  0  0  0  0  0  0
  -28.7896  -23.7145   23.9767 C   0  0  0  0  0  0  0  0  0  0  0  0
  -28.8183  -25.1877   24.4129 C   0  0  0  0  0  0  0  0  0  0  0  0
  -26.2431  -31.2924   20.8870 C   0  0  1  0  0  0  0  0  0  0  0  0
  -28.2543  -34.4277   21.5907 C   0  0  2  0  0  0  0  0  0  0  0  0
  -25.8559  -30.9063   19.4315 C   0  0  0  0  0  0  0  0  0  0  0  0
  -29.1325  -25.4027   25.9087 C   0  0  0  0  0  0  0  0  0  1  0  0
  -26.4352  -12.4563   21.3979 N   0  0  0  0  0  0  0  0  0  0  0  0
  -26.3481  -13.6083   20.7113 N   0  0  0  0  0  0  0  0  0  0  0  0
  -25.2628  -30.2548   22.9084 N   0  0  0  0  0  0  0  0  0  0  0  0
  -29.3887  -15.9188   20.7205 N   0  0  0  0  0  0  0  0  0  0  0  0
  -24.8018  -15.1902   19.8645 N   0  0  0  0  0  0  0  0  0  0  0  0
  -22.1628  -12.1293   21.8801 N   0  0  0  0  0  0  0  0  0  0  0  0
  -28.4836  -18.0965   20.7481 N   0  0  0  0  0  0  0  0  0  0  0  0
  -22.2222  -28.8074   22.7352 N   0  0  0  0  0  0  0  0  0  0  0  0
  -26.7318  -32.6593   21.0326 N   0  0  0  0  0  0  0  0  0  0  0  0
  -29.1029  -34.7647   22.7684 N   0  3  0  0  0  0  0  0  0  0  0  0
  -22.1664  -14.0861   20.6844 O   0  0  0  0  0  0  0  0  0  0  0  0
  -24.1759  -27.6295   23.2024 O   0  0  0  0  0  0  0  0  0  0  0  0
  -24.0657  -31.8221   21.6647 O   0  0  0  0  0  0  0  0  0  0  0  0
  -28.7960  -32.0973   21.9273 O   0  0  0  0  0  0  0  0  0  0  0  0
  -30.6640  -17.7259   20.0481 O   0  0  0  0  0  0  0  0  0  0  0  0
  -23.8757   -7.5371   24.5282 O   0  0  0  0  0  0  0  0  0  0  0  0
  -29.1832  -26.8012   26.1880 O   0  0  0  0  0  0  0  0  0  1  0  0
  -19.7303   -4.4229   22.6515 F   0  0  0  0  0  0  0  0  0  0  0  0
  -24.2962   -4.9025   23.8037 F   0  0  0  0  0  0  0  0  0  0  0  0
  1  2  1  0  0  0  0
  1  5  2  0  0  0  0
  2  6  2  0  0  0  0
  3  8  2  0  0  0  0
  3 17  1  0  0  0  0
  4  9  1  0  0  0  0
  4 17  2  0  0  0  0
  5 20  1  0  0  0  0
  6 22  1  0  0  0  0
  7 10  2  0  0  0  0
  7 21  1  0  0  0  0
  8 27  1  0  0  0  0
  9 27  2  0  0  0  0
 10 28  1  0  0  0  0
 11 12  2  0  0  0  0
 11 29  1  0  0  0  0
 12 30  1  0  0  0  0
 13 18  1  0  0  0  0
 13 26  2  0  0  0  0
 14 23  1  0  0  0  0
 14 28  2  0  0  0  0
 15 24  2  0  0  0  0
 15 26  1  0  0  0  0
 16 30  2  0  0  0  0
 16 31  1  0  0  0  0
 17 32  1  0  0  0  0
 18 25  2  0  0  0  0
 18 35  1  0  0  0  0
 19 32  1  0  0  0  0
 19 33  2  0  0  0  0
 19 36  1  0  0  0  0
 20 22  2  0  0  0  0
 20 41  1  0  0  0  0
 21 23  2  0  0  0  0
 21 42  1  0  0  0  0
 22 50  1  0  0  0  0
 23 43  1  0  0  0  0
 24 25  1  0  0  0  0
 24 61  1  0  0  0  0
 25 62  1  0  0  0  0
 26 75  1  0  0  0  0
 27 84  1  0  0  0  0
 28 85  1  0  0  0  0
 29 31  2  0  0  0  0
 29 84  1  0  0  0  0
 30 86  1  0  0  0  0
 31 87  1  0  0  0  0
 32 69  2  0  0  0  0
 33 70  1  0  0  0  0
 33 73  1  0  0  0  0
 34 35  2  0  0  0  0
 36 74  1  0  0  0  0
 36 79  2  0  0  0  0
 37 51  1  0  0  0  0
 37 76  1  0  0  0  0
 37 80  2  0  0  0  0
 38 65  1  0  0  0  0
 38 71  1  0  0  0  0
 38 81  2  0  0  0  0
 39 66  1  0  0  0  0
 39 77  1  0  0  0  0
 39 82  2  0  0  0  0
 40 72  1  0  0  0  0
 40 75  1  0  0  0  0
 40 83  2  0  0  0  0
 41 44  1  0  0  0  0
 42 51  1  0  0  0  0
 43 71  1  0  0  0  0
 44 46  1  0  0  0  0
 45 47  1  0  0  0  0
 45 48  1  0  0  0  0
 46 50  1  0  0  0  0
 47 52  1  0  0  0  0
 48 72  1  0  0  0  0
 49 52  1  0  0  0  0
 49 72  1  0  0  0  0
 50 76  1  0  0  0  0
 51 71  1  0  0  0  0
 52 70  1  0  0  0  0
 53 61  1  0  0  0  0
 54 66  1  0  0  0  0
 55 67  1  0  0  0  0
 56 67  1  0  0  0  0
 57 67  1  0  0  0  0
 58 68  1  0  0  0  0
 59 68  1  0  0  0  0
 60 78  1  0  0  0  0
 62 63  1  0  0  0  0
 63 64  1  0  0  0  0
 64 68  1  0  0  0  0
 65 67  1  0  0  0  0
 65 77  1  0  0  0  0
 66 78  1  0  0  0  0
 68 85  1  0  0  0  0
 69 70  1  0  0  0  0
M  CHG  1  78   1
M  ISO  4  40 100  68 101  75 100  85 101
M  END
> <Batch ID>
0140

> <Smiles>
C=Cc1cc([100NH:0][100C:0](=O)N2CCCC(n3nc(-c4ccc(Oc5ccc(F)cc5F)cc4)c(C(N)=O)c3N)C2)cc(CC)c1CCC[101C:1](C)(C)[101O:1]c1ccc2c(c1)CN(C(=O)C(NC(=O)C(C)NC)C(C)(C)C)C(C(=O)NC1CCCc3ccccc31)C2

> <Shape>
0.263

> <Color>
0.112

> <Negative vol penalty>
0.000

$$$$

  -OEChem-04052302513D

 88 97  0     1  0  0  0  0  0999 V2000
  -18.2611  -24.2536   24.0077 C   0  0  0  0  0  0  0  0  0  0  0  0
  -19.4977  -23.9883   23.4280 C   0  0  0  0  0  0  0  0  0  0  0  0
  -28.8996  -18.8057   15.7005 C   0  0  0  0  0  0  0  0  0  0  0  0
  -23.7776  -10.4024   22.5116 C   0  0  0  0  0  0  0  0  0  0  0  0
  -23.1353  -10.7186   20.2041 C   0  0  0  0  0  0  0  0  0  0  0  0
  -17.7196  -25.5364   23.9357 C   0  0  0  0  0  0  0  0  0  0  0  0
  -20.1930  -25.0055   22.7751 C   0  0  0  0  0  0  0  0  0  0  0  0
  -26.2654  -25.7753   22.5785 C   0  0  0  0  0  0  0  0  0  0  0  0
  -28.4977  -20.1013   15.3757 C   0  0  0  0  0  0  0  0  0  0  0  0
  -28.4044  -18.1894   16.8498 C   0  0  0  0  0  0  0  0  0  0  0  0
  -22.8536   -9.3639   22.6265 C   0  0  0  0  0  0  0  0  0  0  0  0
  -22.2113   -9.6800   20.3190 C   0  0  0  0  0  0  0  0  0  0  0  0
  -27.2219  -25.4472   21.6187 C   0  0  0  0  0  0  0  0  0  0  0  0
  -22.6546   -6.1001   21.7656 C   0  0  0  0  0  0  0  0  0  0  0  0
  -23.0696   -4.9307   22.4026 C   0  0  0  0  0  0  0  0  0  0  0  0
  -27.0919  -27.6869   20.7322 C   0  0  0  0  0  0  0  0  0  0  0  0
  -27.1057  -20.1644   17.3494 C   0  0  0  0  0  0  0  0  0  0  0  0
  -21.3358   -5.2184   24.0604 C   0  0  0  0  0  0  0  0  0  0  0  0
  -23.9184  -11.0798   21.3004 C   0  0  0  0  0  0  0  0  0  0  0  0
  -26.2214  -12.0521   20.7917 C   0  0  0  0  0  0  0  0  0  0  0  0
  -18.4130  -26.5721   23.2899 C   0  0  0  0  0  0  0  0  0  0  0  0
  -25.7060  -27.0607   22.6155 C   0  0  0  0  0  0  0  0  0  0  0  0
  -19.6596  -26.3030   22.6932 C   0  0  0  0  0  0  0  0  0  0  0  0
  -26.1304  -28.0296   21.6951 C   0  0  0  0  0  0  0  0  0  0  0  0
  -27.6008  -20.7807   16.2001 C   0  0  0  0  0  0  0  0  0  0  0  0
  -27.5075  -18.8688   17.6742 C   0  0  0  0  0  0  0  0  0  0  0  0
  -22.0704   -9.0026   21.5302 C   0  0  0  0  0  0  0  0  0  0  0  0
  -27.6332  -26.4022   20.6936 C   0  0  0  0  0  0  0  0  0  0  0  0
  -21.5802   -6.8287   22.2760 C   0  0  0  0  0  0  0  0  0  0  0  0
  -22.4102   -4.4898   23.5500 C   0  0  0  0  0  0  0  0  0  0  0  0
  -20.9208   -6.3879   23.4233 C   0  0  0  0  0  0  0  0  0  0  0  0
  -24.8723  -12.1531   21.1812 C   0  0  0  0  0  0  0  0  0  0  0  0
  -26.6895  -13.3425   20.8373 C   0  0  0  0  0  0  0  0  0  0  0  0
  -26.9832  -10.8952   20.4215 C   0  0  0  0  0  0  0  0  0  0  0  0
  -22.7758  -28.2427   22.2689 C   0  0  0  0  0  0  0  0  0  0  0  0
  -24.2182  -31.0224   23.1146 C   0  0  0  0  0  0  0  0  0  0  0  0
  -27.0899  -32.8571   23.2989 C   0  0  0  0  0  0  0  0  0  0  0  0
  -26.1080  -18.7756   19.7668 C   0  0  0  0  0  0  0  0  0  0  0  0
  -17.7658  -27.9312   23.1967 C   0  0  0  0  0  0  0  0  0  0  0  0
  -24.6949  -27.4067   23.6740 C   0  0  0  0  0  0  0  0  0  0  0  0
  -25.5756  -29.4298   21.7052 C   0  0  0  0  0  0  0  0  0  0  0  0
  -18.7378  -29.0436   22.8119 C   0  0  0  0  0  0  0  0  0  0  0  0
  -24.5993  -17.5392   22.7454 C   0  0  0  0  0  0  0  0  0  0  0  0
  -19.6063  -28.6103   21.6352 C   0  0  0  0  0  0  0  0  0  0  0  0
  -24.6468  -16.0194   22.5719 C   0  0  0  0  0  0  0  0  0  0  0  0
  -28.1875  -25.5468   16.9701 C   0  0  0  0  0  0  0  0  0  0  0  0
  -24.3297  -18.2529   21.4219 C   0  0  0  0  0  0  0  0  0  0  0  0
  -25.2833  -16.3699   20.1514 C   0  0  0  0  0  0  0  0  0  0  0  0
  -27.0613  -24.5921   16.5987 C   0  0  0  0  0  0  0  0  0  0  0  0
  -20.4556  -27.3860   21.9978 C   0  0  1  0  0  0  0  0  0  0  0  0
  -23.8157  -28.5944   23.2949 C   0  0  1  0  0  0  0  0  0  0  0  0
  -25.6168  -15.6107   21.4460 C   0  0  2  0  0  0  0  0  0  0  0  0
  -29.1500  -24.7364   17.8550 C   0  0  1  0  0  0  0  0  0  0  0  0
  -29.1026  -23.3251   17.1804 C   0  0  0  0  0  0  0  0  0  0  0  0
  -30.5449  -25.3788   17.8671 C   0  0  0  0  0  0  0  0  0  0  0  0
  -29.9157  -23.2348   15.8734 C   0  0  0  0  0  0  0  0  0  0  0  0
  -29.5098  -22.1709   18.1063 C   0  0  0  0  0  0  0  0  0  0  0  0
  -25.6543  -22.3048   15.6702 C   0  0  0  0  0  0  0  0  0  0  0  0
  -27.9474  -35.1085   24.0012 C   0  0  0  0  0  0  0  0  0  0  0  0
  -23.0417  -32.2571   20.5845 C   0  0  0  0  0  0  0  0  0  0  0  0
  -24.6641  -34.1473   20.8362 C   0  0  0  0  0  0  0  0  0  0  0  0
  -22.9531  -33.7309   22.6030 C   0  0  0  0  0  0  0  0  0  0  0  0
  -28.8845  -31.6688   25.3301 C   0  0  0  0  0  0  0  0  0  0  0  0
  -28.6243  -24.7411   19.3099 C   0  0  0  0  0  0  0  0  0  1  0  0
  -27.1658  -22.1844   15.8477 C   0  0  1  0  0  0  0  0  0  0  0  0
  -24.9046  -32.1408   22.3683 C   0  0  1  0  0  0  0  0  0  0  0  0
  -27.6943  -33.6712   24.4287 C   0  0  2  0  0  0  0  0  0  0  0  0
  -23.9001  -33.0422   21.5963 C   0  0  0  0  0  0  0  0  0  0  0  0
  -24.5071  -13.4085   21.4544 N   0  0  0  0  0  0  0  0  0  0  0  0
  -25.6336  -14.1081   21.2362 N   0  0  0  0  0  0  0  0  0  0  0  0
  -24.5849  -29.7176   22.7554 N   0  0  0  0  0  0  0  0  0  0  0  0
  -25.2895  -17.8193   20.4042 N   0  0  0  0  0  0  0  0  0  0  0  0
  -27.8972  -13.8856   20.5748 N   0  0  0  0  0  0  0  0  0  0  0  0
  -26.3472   -9.6462   20.4282 N   0  0  0  0  0  0  0  0  0  0  0  0
  -27.0043  -18.2422   18.8412 N   0  0  0  0  0  0  0  0  0  0  0  0
  -21.5899  -27.7791   22.8059 N   0  0  0  0  0  0  0  0  0  0  0  0
  -25.7121  -32.8531   23.3527 N   0  0  0  0  0  0  0  0  0  0  0  0
  -27.5971  -23.1964   16.8655 N   0  3  2  0  0  0  0  0  0  0  0  0
  -28.9896  -33.0746   24.8615 N   0  3  0  0  0  0  0  0  0  0  0  0
  -28.1964  -10.9647   20.1105 O   0  0  0  0  0  0  0  0  0  0  0  0
  -23.0299  -28.3830   21.0784 O   0  0  0  0  0  0  0  0  0  0  0  0
  -23.3924  -31.2964   23.9890 O   0  0  0  0  0  0  0  0  0  0  0  0
  -27.7716  -32.2854   22.4511 O   0  0  0  0  0  0  0  0  0  0  0  0
  -26.0391  -19.9761   20.0428 O   0  0  0  0  0  0  0  0  0  0  0  0
  -21.1688   -7.9891   21.6419 O   0  0  0  0  0  0  0  0  0  0  0  0
  -28.5767  -26.0808   19.7447 O   0  0  0  0  0  0  0  0  0  1  0  0
  -22.8079   -3.3660   24.1607 F   0  0  0  0  0  0  0  0  0  0  0  0
  -19.8872   -7.0830   23.9177 F   0  0  0  0  0  0  0  0  0  0  0  0
  1  2  1  0  0  0  0
  1  6  2  0  0  0  0
  2  7  2  0  0  0  0
  3  9  2  0  0  0  0
  3 10  1  0  0  0  0
  4 11  2  0  0  0  0
  4 19  1  0  0  0  0
  5 12  1  0  0  0  0
  5 19  2  0  0  0  0
  6 21  1  0  0  0  0
  7 23  1  0  0  0  0
  8 13  2  0  0  0  0
  8 22  1  0  0  0  0
  9 25  1  0  0  0  0
 10 26  2  0  0  0  0
 11 27  1  0  0  0  0
 12 27  2  0  0  0  0
 13 28  1  0  0  0  0
 14 15  2  0  0  0  0
 14 29  1  0  0  0  0
 15 30  1  0  0  0  0
 16 24  1  0  0  0  0
 16 28  2  0  0  0  0
 17 25  2  0  0  0  0
 17 26  1  0  0  0  0
 18 30  2  0  0  0  0
 18 31  1  0  0  0  0
 19 32  1  0  0  0  0
 20 32  1  0  0  0  0
 20 33  2  0  0  0  0
 20 34  1  0  0  0  0
 21 23  2  0  0  0  0
 21 39  1  0  0  0  0
 22 24  2  0  0  0  0
 22 40  1  0  0  0  0
 23 50  1  0  0  0  0
 24 41  1  0  0  0  0
 25 65  1  0  0  0  0
 26 75  1  0  0  0  0
 27 85  1  0  0  0  0
 28 86  1  0  0  0  0
 29 31  2  0  0  0  0
 29 85  1  0  0  0  0
 30 87  1  0  0  0  0
 31 88  1  0  0  0  0
 32 69  2  0  0  0  0
 33 70  1  0  0  0  0
 33 73  1  0  0  0  0
 34 74  1  0  0  0  0
 34 80  2  0  0  0  0
 35 51  1  0  0  0  0
 35 76  1  0  0  0  0
 35 81  2  0  0  0  0
 36 66  1  0  0  0  0
 36 71  1  0  0  0  0
 36 82  2  0  0  0  0
 37 67  1  0  0  0  0
 37 77  1  0  0  0  0
 37 83  2  0  0  0  0
 38 72  1  0  0  0  0
 38 75  1  0  0  0  0
 38 84  2  0  0  0  0
 39 42  1  0  0  0  0
 40 51  1  0  0  0  0
 41 71  1  0  0  0  0
 42 44  1  0  0  0  0
 43 45  1  0  0  0  0
 43 47  1  0  0  0  0
 44 50  1  0  0  0  0
 45 52  1  0  0  0  0
 46 49  1  0  0  0  0
 46 53  1  0  0  0  0
 47 72  1  0  0  0  0
 48 52  1  0  0  0  0
 48 72  1  0  0  0  0
 49 78  1  0  0  0  0
 50 76  1  0  0  0  0
 51 71  1  0  0  0  0
 52 70  1  0  0  0  0
 53 54  1  0  0  0  0
 53 55  1  0  0  0  0
 53 64  1  0  0  0  0
 54 56  1  0  0  0  0
 54 57  1  0  0  0  0
 54 78  1  0  0  0  0
 58 65  1  0  0  0  0
 59 67  1  0  0  0  0
 60 68  1  0  0  0  0
 61 68  1  0  0  0  0
 62 68  1  0  0  0  0
 63 79  1  0  0  0  0
 64 86  1  0  0  0  0
 65 78  1  0  0  0  0
 66 68  1  0  0  0  0
 66 77  1  0  0  0  0
 67 79  1  0  0  0  0
 69 70  1  0  0  0  0
M  CHG  2  78   1  79   1
M  ISO  4  38 100  64 101  75 100  86 101
M  END
> <Batch ID>
0140

> <Smiles>
CNC(C)C(=O)NC(C(=O)N1Cc2cc([101O:1][101CH2:1]C3(C)CCN(C(C)c4cccc([100NH:0][100C:0](=O)N5CCCC(n6nc(-c7ccc(Oc8ccc(F)cc8F)cc7)c(C(N)=O)c6N)C5)c4)C3(C)C)ccc2CC1C(=O)NC1CCCc2ccccc21)C(C)(C)C

> <Shape>
0.277

> <Color>
0.075

> <Negative vol penalty>
0.000

$$$$

  -OEChem-04052302513D

 92100  0     1  0  0  0  0  0999 V2000
  -16.4540  -29.7913   23.1702 C   0  0  0  0  0  0  0  0  0  0  0  0
  -17.3636  -29.3977   22.1940 C   0  0  0  0  0  0  0  0  0  0  0  0
  -23.9613   -8.7650   20.2007 C   0  0  0  0  0  0  0  0  0  0  0  0
  -22.9383  -10.7009   21.2220 C   0  0  0  0  0  0  0  0  0  0  0  0
  -16.9072  -30.1561   24.4372 C   0  0  0  0  0  0  0  0  0  0  0  0
  -18.7273  -29.3697   22.4840 C   0  0  0  0  0  0  0  0  0  0  0  0
  -22.8654  -25.3947   20.3436 C   0  0  0  0  0  0  0  0  0  0  0  0
  -23.0353   -7.9393   20.8383 C   0  0  0  0  0  0  0  0  0  0  0  0
  -22.0123   -9.8752   21.8595 C   0  0  0  0  0  0  0  0  0  0  0  0
  -23.7907  -25.4728   19.3037 C   0  0  0  0  0  0  0  0  0  0  0  0
  -22.5746   -6.6279   23.9192 C   0  0  0  0  0  0  0  0  0  0  0  0
  -23.0535   -5.4691   24.5303 C   0  0  0  0  0  0  0  0  0  0  0  0
  -25.4978  -26.1225   20.8794 C   0  0  0  0  0  0  0  0  0  0  0  0
  -29.8835  -18.6468   19.9621 C   0  0  0  0  0  0  0  0  0  0  0  0
  -28.1051  -19.8344   18.1707 C   0  0  0  0  0  0  0  0  0  0  0  0
  -21.6451   -4.1300   23.0950 C   0  0  0  0  0  0  0  0  0  0  0  0
  -23.9128  -10.1458   20.3926 C   0  0  0  0  0  0  0  0  0  0  0  0
  -24.7424  -11.6005   18.4682 C   0  0  0  0  0  0  0  0  0  0  0  0
  -18.2762  -30.1233   24.7459 C   0  0  0  0  0  0  0  0  0  0  0  0
  -23.2474  -25.6910   21.6600 C   0  0  0  0  0  0  0  0  0  0  0  0
  -19.1994  -29.7357   23.7560 C   0  0  0  0  0  0  0  0  0  0  0  0
  -24.5761  -26.0449   21.9346 C   0  0  0  0  0  0  0  0  0  0  0  0
  -29.8752  -20.0325   19.8031 C   0  0  0  0  0  0  0  0  0  0  0  0
  -28.1135  -18.4487   18.3297 C   0  0  0  0  0  0  0  0  0  0  0  0
  -29.0027  -17.8548   19.2254 C   0  0  0  0  0  0  0  0  0  0  0  0
  -22.0608   -8.4944   21.6676 C   0  0  0  0  0  0  0  0  0  0  0  0
  -25.1064  -25.8396   19.5710 C   0  0  0  0  0  0  0  0  0  0  0  0
  -21.6308   -6.5377   22.8960 C   0  0  0  0  0  0  0  0  0  0  0  0
  -28.9859  -20.6263   18.9074 C   0  0  0  0  0  0  0  0  0  0  0  0
  -22.5888   -4.2202   24.1182 C   0  0  0  0  0  0  0  0  0  0  0  0
  -21.1661   -5.2888   22.4839 C   0  0  0  0  0  0  0  0  0  0  0  0
  -24.8694  -10.9992   19.7348 C   0  0  0  0  0  0  0  0  0  0  0  0
  -25.9099  -12.3050   18.3041 C   0  0  0  0  0  0  0  0  0  0  0  0
  -23.6654  -11.5286   17.5246 C   0  0  0  0  0  0  0  0  0  0  0  0
  -22.3889  -27.8710   23.8080 C   0  0  0  0  0  0  0  0  0  0  0  0
  -28.1199  -24.0241   17.7571 C   0  0  0  0  0  0  0  0  0  0  0  0
  -24.3447  -26.1610   25.7505 C   0  0  0  0  0  0  0  0  0  0  0  0
  -26.9827  -24.0159   26.0443 C   0  0  0  0  0  0  0  0  0  0  0  0
  -29.8544  -15.7180   20.2524 C   0  0  0  0  0  0  0  0  0  0  0  0
  -18.7227  -30.5719   26.1149 C   0  0  0  0  0  0  0  0  0  0  0  0
  -22.2438  -25.5761   22.7744 C   0  0  0  0  0  0  0  0  0  0  0  0
  -25.0417  -26.3532   23.3334 C   0  0  0  0  0  0  0  0  0  0  0  0
  -20.1511  -30.1558   26.4564 C   0  0  0  0  0  0  0  0  0  0  0  0
  -30.1952  -12.2531   20.9977 C   0  0  0  0  0  0  0  0  0  0  0  0
  -21.0882  -30.4576   25.2912 C   0  0  0  0  0  0  0  0  0  0  0  0
  -28.8295  -11.6674   20.6314 C   0  0  0  0  0  0  0  0  0  0  0  0
  -30.0688  -13.6473   21.6093 C   0  0  0  0  0  0  0  0  0  0  0  0
  -27.9304  -14.0219   20.4449 C   0  0  0  0  0  0  0  0  0  0  0  0
  -20.6843  -29.6686   24.0399 C   0  0  1  0  0  0  0  0  0  0  0  0
  -22.6185  -26.3990   24.0031 C   0  0  1  0  0  0  0  0  0  0  0  0
  -28.0110  -12.6451   19.7655 C   0  0  2  0  0  0  0  0  0  0  0  0
  -27.1592  -17.6246   17.5277 C   0  0  0  0  0  0  0  0  0  0  0  0
  -32.0772  -21.8595   18.4971 C   0  0  0  0  0  0  0  0  0  0  0  0
  -28.3733  -22.8273   27.7621 C   0  0  0  0  0  0  0  0  0  0  0  0
  -32.1697  -20.0904   20.9300 C   0  0  0  0  0  0  0  0  0  0  0  0
  -25.7978  -28.7701   26.3760 C   0  0  0  0  0  0  0  0  0  0  0  0
  -27.6911  -27.4141   27.2952 C   0  0  0  0  0  0  0  0  0  0  0  0
  -25.4349  -27.2788   28.3506 C   0  0  0  0  0  0  0  0  0  0  0  0
  -29.7848  -20.1472   22.9110 C   0  0  0  0  0  0  0  0  0  0  0  0
  -28.8941  -22.1979   21.8291 C   0  0  0  0  0  0  0  0  0  0  0  0
  -31.1395  -22.2283   22.8841 C   0  0  0  0  0  0  0  0  0  0  0  0
  -26.2057  -21.3571   25.0023 C   0  0  0  0  0  0  0  0  0  0  0  0
  -27.1516  -24.7024   16.7992 C   0  0  0  0  0  0  0  0  0  0  0  0
  -28.0354  -22.5111   17.8120 C   0  0  0  0  0  0  0  0  0  0  0  0
  -31.3366  -22.1571   19.8028 C   0  0  0  0  0  0  0  0  0  0  0  0
  -25.8169  -25.0452   17.4449 C   0  0  0  0  0  0  0  0  0  1  0  0
  -25.8141  -26.2037   26.0939 C   0  0  1  0  0  0  0  0  0  0  0  0
  -27.1597  -22.7414   26.8496 C   0  0  2  0  0  0  0  0  0  0  0  0
  -30.8263  -20.8640   20.5990 C   0  0  1  0  0  0  0  0  0  0  0  0
  -26.1756  -27.4128   27.0022 C   0  0  0  0  0  0  0  0  0  0  0  0
  -30.1809  -21.3595   22.0279 C   0  0  0  0  0  0  0  0  0  0  0  0
  -26.0264  -11.2957   20.3327 N   0  0  0  0  0  0  0  0  0  0  0  0
  -26.6371  -12.0910   19.4379 N   0  0  0  0  0  0  0  0  0  0  0  0
  -24.0216  -26.2330   24.3881 N   0  0  0  0  0  0  0  0  0  0  0  0
  -29.2849  -14.5195   20.7321 N   0  0  0  0  0  0  0  0  0  0  0  0
  -26.3753  -13.0806   17.3018 N   0  0  0  0  0  0  0  0  0  0  0  0
  -22.5401  -10.7601   17.8523 N   0  0  0  0  0  0  0  0  0  0  0  0
  -29.0271  -16.4490   19.4005 N   0  0  0  0  0  0  0  0  0  0  0  0
  -21.1176  -28.2921   24.1485 N   0  0  0  0  0  0  0  0  0  0  0  0
  -26.1359  -24.9040   26.6732 N   0  0  0  0  0  0  0  0  0  0  0  0
  -27.3374  -21.5744   25.9399 N   0  3  0  0  0  0  0  0  0  0  0  0
  -23.7069  -12.1148   16.4163 O   0  0  0  0  0  0  0  0  0  0  0  0
  -23.2983  -28.5731   23.3816 O   0  0  0  0  0  0  0  0  0  0  0  0
  -28.9236  -24.6527   18.4439 O   0  0  0  0  0  0  0  0  0  0  0  0
  -23.5144  -26.0601   26.6573 O   0  0  0  0  0  0  0  0  0  0  0  0
  -27.5428  -24.2064   24.9670 O   0  0  0  0  0  0  0  0  0  0  0  0
  -31.0024  -16.0564   20.5519 O   0  0  0  0  0  0  0  0  0  0  0  0
  -21.1569   -7.6890   22.2897 O   0  0  0  0  0  0  0  0  0  0  0  0
  -28.9652  -21.9906   18.7384 O   0  0  0  0  0  0  0  0  0  0  0  0
  -26.0114  -25.9172   18.5577 O   0  0  0  0  0  0  0  0  0  1  0  0
  -23.0499   -3.1074   24.7041 F   0  0  0  0  0  0  0  0  0  0  0  0
  -20.2604   -5.1958   21.5006 F   0  0  0  0  0  0  0  0  0  0  0  0
  1  2  1  0  0  0  0
  1  5  2  0  0  0  0
  2  6  2  0  0  0  0
  3  8  2  0  0  0  0
  3 17  1  0  0  0  0
  4  9  1  0  0  0  0
  4 17  2  0  0  0  0
  5 19  1  0  0  0  0
  6 21  1  0  0  0  0
  7 10  2  0  0  0  0
  7 20  1  0  0  0  0
  8 26  1  0  0  0  0
  9 26  2  0  0  0  0
 10 27  1  0  0  0  0
 11 12  2  0  0  0  0
 11 28  1  0  0  0  0
 12 30  1  0  0  0  0
 13 22  1  0  0  0  0
 13 27  2  0  0  0  0
 14 23  1  0  0  0  0
 14 25  2  0  0  0  0
 15 24  2  0  0  0  0
 15 29  1  0  0  0  0
 16 30  2  0  0  0  0
 16 31  1  0  0  0  0
 17 32  1  0  0  0  0
 18 32  1  0  0  0  0
 18 33  2  0  0  0  0
 18 34  1  0  0  0  0
 19 21  2  0  0  0  0
 19 40  1  0  0  0  0
 20 22  2  0  0  0  0
 20 41  1  0  0  0  0
 21 49  1  0  0  0  0
 22 42  1  0  0  0  0
 23 29  2  0  0  0  0
 23 69  1  0  0  0  0
 24 25  1  0  0  0  0
 24 52  1  0  0  0  0
 25 78  1  0  0  0  0
 26 88  1  0  0  0  0
 27 90  1  0  0  0  0
 28 31  2  0  0  0  0
 28 88  1  0  0  0  0
 29 89  1  0  0  0  0
 30 91  1  0  0  0  0
 31 92  1  0  0  0  0
 32 72  2  0  0  0  0
 33 73  1  0  0  0  0
 33 76  1  0  0  0  0
 34 77  1  0  0  0  0
 34 82  2  0  0  0  0
 35 50  1  0  0  0  0
 35 79  1  0  0  0  0
 35 83  2  0  0  0  0
 36 63  1  0  0  0  0
 36 64  1  0  0  0  0
 36 84  2  0  0  0  0
 37 67  1  0  0  0  0
 37 74  1  0  0  0  0
 37 85  2  0  0  0  0
 38 68  1  0  0  0  0
 38 80  1  0  0  0  0
 38 86  2  0  0  0  0
 39 75  1  0  0  0  0
 39 78  1  0  0  0  0
 39 87  2  0  0  0  0
 40 43  1  0  0  0  0
 41 50  1  0  0  0  0
 42 74  1  0  0  0  0
 43 45  1  0  0  0  0
 44 46  1  0  0  0  0
 44 47  1  0  0  0  0
 45 49  1  0  0  0  0
 46 51  1  0  0  0  0
 47 75  1  0  0  0  0
 48 51  1  0  0  0  0
 48 75  1  0  0  0  0
 49 79  1  0  0  0  0
 50 74  1  0  0  0  0
 51 73  1  0  0  0  0
 53 65  1  0  0  0  0
 54 68  1  0  0  0  0
 55 69  1  0  0  0  0
 56 70  1  0  0  0  0
 57 70  1  0  0  0  0
 58 70  1  0  0  0  0
 59 71  1  0  0  0  0
 60 71  1  0  0  0  0
 61 71  1  0  0  0  0
 62 81  1  0  0  0  0
 63 66  1  0  0  0  0
 64 89  1  0  0  0  0
 65 69  1  0  0  0  0
 66 90  1  0  0  0  0
 67 70  1  0  0  0  0
 67 80  1  0  0  0  0
 68 81  1  0  0  0  0
 69 71  1  0  0  0  0
 72 73  1  0  0  0  0
M  CHG  1  81   1
M  ISO  4  39 100  66 101  78 100  90 101
M  END
> <Batch ID>
0140

> <Smiles>
CCC(C)(c1cc([100NH:0][100C:0](=O)N2CCCC(n3nc(-c4ccc(Oc5ccc(F)cc5F)cc4)c(C(N)=O)c3N)C2)c(C)cc1OCC(=O)C[101CH2:1][101O:1]c1ccc2c(c1)CN(C(=O)C(NC(=O)C(C)NC)C(C)(C)C)C(C(=O)NC1CCCc3ccccc31)C2)C(C)(C)C

> <Shape>
0.228

> <Color>
0.100

> <Negative vol penalty>
0.000

$$$$

  -OEChem-04052302513D

 85 93  0     1  0  0  0  0  0999 V2000
  -17.9372  -30.5664   23.2146 C   0  0  0  0  0  0  0  0  0  0  0  0
  -19.3145  -30.5471   23.0194 C   0  0  0  0  0  0  0  0  0  0  0  0
  -26.0905  -13.2707   21.8277 C   0  0  0  0  0  0  0  0  0  0  0  0
  -25.3611  -14.4303   19.8376 C   0  0  0  0  0  0  0  0  0  0  0  0
  -17.2287  -29.3683   23.2941 C   0  0  0  0  0  0  0  0  0  0  0  0
  -19.9843  -29.3295   22.9046 C   0  0  0  0  0  0  0  0  0  0  0  0
  -24.8562  -28.1242   19.3950 C   0  0  0  0  0  0  0  0  0  0  0  0
  -32.5852  -22.1268   17.0102 C   0  0  0  0  0  0  0  0  0  0  0  0
  -24.9473  -12.4729   21.7819 C   0  0  0  0  0  0  0  0  0  0  0  0
  -24.2179  -13.6324   19.7918 C   0  0  0  0  0  0  0  0  0  0  0  0
  -26.2208  -28.0617   19.6740 C   0  0  0  0  0  0  0  0  0  0  0  0
  -32.4881  -23.5105   17.1564 C   0  0  0  0  0  0  0  0  0  0  0  0
  -23.8621   -9.7717   20.0619 C   0  0  0  0  0  0  0  0  0  0  0  0
  -24.0200   -8.4006   20.2635 C   0  0  0  0  0  0  0  0  0  0  0  0
  -26.0503  -25.6705   19.9424 C   0  0  0  0  0  0  0  0  0  0  0  0
  -31.3258  -23.2076   19.2527 C   0  0  0  0  0  0  0  0  0  0  0  0
  -22.5570   -8.5144   22.1829 C   0  0  0  0  0  0  0  0  0  0  0  0
  -26.2974  -14.2495   20.8556 C   0  0  0  0  0  0  0  0  0  0  0  0
  -28.7212  -14.8146   20.2955 C   0  0  0  0  0  0  0  0  0  0  0  0
  -17.8887  -28.1355   23.1706 C   0  0  0  0  0  0  0  0  0  0  0  0
  -24.0750  -26.9597   19.3984 C   0  0  0  0  0  0  0  0  0  0  0  0
  -19.2841  -28.1137   22.9838 C   0  0  0  0  0  0  0  0  0  0  0  0
  -24.6766  -25.7205   19.6607 C   0  0  0  0  0  0  0  0  0  0  0  0
  -32.0525  -21.2834   17.9853 C   0  0  0  0  0  0  0  0  0  0  0  0
  -31.4229  -21.8238   19.1065 C   0  0  0  0  0  0  0  0  0  0  0  0
  -24.0110  -12.6537   20.7640 C   0  0  0  0  0  0  0  0  0  0  0  0
  -26.8175  -26.8351   19.9506 C   0  0  0  0  0  0  0  0  0  0  0  0
  -31.8584  -24.0509   18.2776 C   0  0  0  0  0  0  0  0  0  0  0  0
  -23.0518  -10.5142   20.9208 C   0  0  0  0  0  0  0  0  0  0  0  0
  -23.3674   -7.7719   21.3240 C   0  0  0  0  0  0  0  0  0  0  0  0
  -22.3992   -9.8855   21.9813 C   0  0  0  0  0  0  0  0  0  0  0  0
  -27.4779  -15.0743   20.9027 C   0  0  0  0  0  0  0  0  0  0  0  0
  -29.5015  -15.8923   20.6364 C   0  0  0  0  0  0  0  0  0  0  0  0
  -29.1337  -13.6991   19.4949 C   0  0  0  0  0  0  0  0  0  0  0  0
  -21.5877  -25.9321   21.0899 C   0  0  0  0  0  0  0  0  0  0  0  0
  -21.6565  -23.4775   18.9703 C   0  0  0  0  0  0  0  0  0  0  0  0
  -23.4645  -21.6066   16.7618 C   0  0  0  0  0  0  0  0  0  0  0  0
  -30.2220  -21.3764   21.2754 C   0  0  0  0  0  0  0  0  0  0  0  0
  -17.0871  -26.8657   23.3104 C   0  0  0  0  0  0  0  0  0  0  0  0
  -22.6096  -27.0405   19.0692 C   0  0  0  0  0  0  0  0  0  0  0  0
  -23.8860  -24.4386   19.6568 C   0  0  0  0  0  0  0  0  0  0  0  0
  -17.8183  -25.6249   22.8041 C   0  0  0  0  0  0  0  0  0  0  0  0
  -28.7006  -19.6158   23.9704 C   0  0  0  0  0  0  0  0  0  0  0  0
  -19.2506  -25.5985   23.3280 C   0  0  0  0  0  0  0  0  0  0  0  0
  -28.3491  -18.2560   23.3626 C   0  0  0  0  0  0  0  0  0  0  0  0
  -28.5116  -20.7517   22.9664 C   0  0  0  0  0  0  0  0  0  0  0  0
  -28.8521  -19.2086   21.0764 C   0  0  0  0  0  0  0  0  0  0  0  0
  -20.0428  -26.8133   22.8298 C   0  0  1  0  0  0  0  0  0  0  0  0
  -21.8104  -25.8570   19.6059 C   0  0  1  0  0  0  0  0  0  0  0  0
  -29.0889  -18.0261   22.0301 C   0  0  2  0  0  0  0  0  0  0  0  0
  -32.1712  -19.8051   17.8024 C   0  0  0  0  0  0  0  0  0  0  0  0
  -23.2576  -19.6453   15.2099 C   0  0  0  0  0  0  0  0  0  0  0  0
  -29.9293  -26.1595   17.0811 C   0  0  0  0  0  0  0  0  0  0  0  0
  -21.7393  -21.5814   21.3595 C   0  0  0  0  0  0  0  0  0  0  0  0
  -22.4799  -19.7651   19.8037 C   0  0  0  0  0  0  0  0  0  0  0  0
  -20.2511  -20.8408   19.4910 C   0  0  0  0  0  0  0  0  0  0  0  0
  -30.9995  -26.8291   20.8008 C   0  0  0  0  0  0  0  0  0  0  0  0
  -31.2907  -28.3534   18.8485 C   0  0  0  0  0  0  0  0  0  0  0  0
  -24.1380  -23.2570   14.3992 C   0  0  0  0  0  0  0  0  0  0  0  0
  -28.9855  -27.7520   19.6112 C   0  0  0  0  0  0  0  0  0  1  0  0
  -22.3443  -22.1349   18.9113 C   0  0  1  0  0  0  0  0  0  0  0  0
  -23.1674  -21.1576   15.3424 C   0  0  2  0  0  0  0  0  0  0  0  0
  -30.4426  -25.9483   18.5038 C   0  0  2  0  0  0  0  0  0  0  0  0
  -21.7184  -21.1048   19.8934 C   0  0  0  0  0  0  0  0  0  0  0  0
  -30.4226  -27.2137   19.4185 C   0  0  0  0  0  0  0  0  0  0  0  0
  -27.4646  -16.2264   21.5782 N   0  0  0  0  0  0  0  0  0  0  0  0
  -28.7092  -16.7003   21.3976 N   0  0  0  0  0  0  0  0  0  0  0  0
  -22.4553  -24.5704   19.3354 N   0  0  0  0  0  0  0  0  0  0  0  0
  -29.2442  -20.4668   21.7307 N   0  0  0  0  0  0  0  0  0  0  0  0
  -30.7813  -16.2181   20.3562 N   0  0  0  0  0  0  0  0  0  0  0  0
  -28.2064  -12.6792   19.2415 N   0  0  0  0  0  0  0  0  0  0  0  0
  -30.8757  -20.9838   20.1079 N   0  0  0  0  0  0  0  0  0  0  0  0
  -20.4476  -26.6230   21.4535 N   0  0  0  0  0  0  0  0  0  0  0  0
  -22.3136  -21.7218   17.5124 N   0  0  0  0  0  0  0  0  0  0  0  0
  -24.1368  -21.7714   14.3914 N   0  3  0  0  0  0  0  0  0  0  0  0
  -30.2955  -13.6014   19.0319 O   0  0  0  0  0  0  0  0  0  0  0  0
  -22.3901  -25.4011   21.8489 O   0  0  0  0  0  0  0  0  0  0  0  0
  -20.4565  -23.5548   18.6955 O   0  0  0  0  0  0  0  0  0  0  0  0
  -24.6038  -21.8289   17.1653 O   0  0  0  0  0  0  0  0  0  0  0  0
  -30.4808  -22.4133   21.8918 O   0  0  0  0  0  0  0  0  0  0  0  0
  -22.8954  -11.8752   20.7188 O   0  0  0  0  0  0  0  0  0  0  0  0
  -28.1491  -26.7715   20.2238 O   0  0  0  0  0  0  0  0  0  1  0  0
  -31.7636  -25.4067   18.4205 O   0  0  0  0  0  0  0  0  0  0  0  0
  -23.5179   -6.4549   21.5166 F   0  0  0  0  0  0  0  0  0  0  0  0
  -21.6184  -10.5934   22.8090 F   0  0  0  0  0  0  0  0  0  0  0  0
  1  2  1  0  0  0  0
  1  5  2  0  0  0  0
  2  6  2  0  0  0  0
  3  9  2  0  0  0  0
  3 18  1  0  0  0  0
  4 10  1  0  0  0  0
  4 18  2  0  0  0  0
  5 20  1  0  0  0  0
  6 22  1  0  0  0  0
  7 11  2  0  0  0  0
  7 21  1  0  0  0  0
  8 12  2  0  0  0  0
  8 24  1  0  0  0  0
  9 26  1  0  0  0  0
 10 26  2  0  0  0  0
 11 27  1  0  0  0  0
 12 28  1  0  0  0  0
 13 14  2  0  0  0  0
 13 29  1  0  0  0  0
 14 30  1  0  0  0  0
 15 23  1  0  0  0  0
 15 27  2  0  0  0  0
 16 25  1  0  0  0  0
 16 28  2  0  0  0  0
 17 30  2  0  0  0  0
 17 31  1  0  0  0  0
 18 32  1  0  0  0  0
 19 32  1  0  0  0  0
 19 33  2  0  0  0  0
 19 34  1  0  0  0  0
 20 22  2  0  0  0  0
 20 39  1  0  0  0  0
 21 23  2  0  0  0  0
 21 40  1  0  0  0  0
 22 48  1  0  0  0  0
 23 41  1  0  0  0  0
 24 25  2  0  0  0  0
 24 51  1  0  0  0  0
 25 72  1  0  0  0  0
 26 81  1  0  0  0  0
 27 82  1  0  0  0  0
 28 83  1  0  0  0  0
 29 31  2  0  0  0  0
 29 81  1  0  0  0  0
 30 84  1  0  0  0  0
 31 85  1  0  0  0  0
 32 66  2  0  0  0  0
 33 67  1  0  0  0  0
 33 70  1  0  0  0  0
 34 71  1  0  0  0  0
 34 76  2  0  0  0  0
 35 49  1  0  0  0  0
 35 73  1  0  0  0  0
 35 77  2  0  0  0  0
 36 61  1  0  0  0  0
 36 68  1  0  0  0  0
 36 78  2  0  0  0  0
 37 62  1  0  0  0  0
 37 74  1  0  0  0  0
 37 79  2  0  0  0  0
 38 69  1  0  0  0  0
 38 72  1  0  0  0  0
 38 80  2  0  0  0  0
 39 42  1  0  0  0  0
 40 49  1  0  0  0  0
 41 68  1  0  0  0  0
 42 44  1  0  0  0  0
 43 45  1  0  0  0  0
 43 46  1  0  0  0  0
 44 48  1  0  0  0  0
 45 50  1  0  0  0  0
 46 69  1  0  0  0  0
 47 50  1  0  0  0  0
 47 69  1  0  0  0  0
 48 73  1  0  0  0  0
 49 68  1  0  0  0  0
 50 67  1  0  0  0  0
 52 62  1  0  0  0  0
 53 63  1  0  0  0  0
 54 64  1  0  0  0  0
 55 64  1  0  0  0  0
 56 64  1  0  0  0  0
 57 65  1  0  0  0  0
 58 65  1  0  0  0  0
 59 75  1  0  0  0  0
 60 65  1  0  0  0  0
 60 82  1  0  0  0  0
 61 64  1  0  0  0  0
 61 74  1  0  0  0  0
 62 75  1  0  0  0  0
 63 65  1  0  0  0  0
 63 83  1  0  0  0  0
 66 67  1  0  0  0  0
M  CHG  1  75   1
M  ISO  4  38 100  60 101  72 100  82 101
M  END
> <Batch ID>
0140

> <Smiles>
CNC(C)C(=O)NC(C(=O)N1Cc2cc([101O:1][101CH2:1]C(C)(C)C(C)Oc3ccc(C)c([100NH:0][100C:0](=O)N4CCCC(n5nc(-c6ccc(Oc7ccc(F)cc7F)cc6)c(C(N)=O)c5N)C4)c3)ccc2CC1C(=O)NC1CCCc2ccccc21)C(C)(C)C

> <Shape>
0.258

> <Color>
0.066

> <Negative vol penalty>
0.000

$$$$

  -OEChem-04052302513D

 88 96  0     1  0  0  0  0  0999 V2000
  -27.5274  -34.9076   24.1634 C   0  0  0  0  0  0  0  0  0  0  0  0
  -27.7923  -33.5764   23.8583 C   0  0  0  0  0  0  0  0  0  0  0  0
  -24.5932   -8.8539   21.3323 C   0  0  0  0  0  0  0  0  0  0  0  0
  -22.9451  -10.5804   21.7064 C   0  0  0  0  0  0  0  0  0  0  0  0
  -26.2276  -35.3050   24.4743 C   0  0  0  0  0  0  0  0  0  0  0  0
  -26.7577  -32.6415   23.8650 C   0  0  0  0  0  0  0  0  0  0  0  0
  -26.8916  -29.5666   19.8435 C   0  0  0  0  0  0  0  0  0  0  0  0
  -23.9980   -8.0713   22.3217 C   0  0  0  0  0  0  0  0  0  0  0  0
  -22.3499   -9.7978   22.6958 C   0  0  0  0  0  0  0  0  0  0  0  0
  -27.8210  -28.5276   19.8671 C   0  0  0  0  0  0  0  0  0  0  0  0
  -21.2981   -6.0572   22.6162 C   0  0  0  0  0  0  0  0  0  0  0  0
  -21.0968   -4.7050   22.3395 C   0  0  0  0  0  0  0  0  0  0  0  0
  -26.0786  -26.9920   20.5193 C   0  0  0  0  0  0  0  0  0  0  0  0
  -25.3428  -20.4769   22.5714 C   0  0  0  0  0  0  0  0  0  0  0  0
  -24.8726  -18.4727   21.3069 C   0  0  0  0  0  0  0  0  0  0  0  0
  -27.1567  -19.0676   21.8225 C   0  0  0  0  0  0  0  0  0  0  0  0
  -22.4928   -4.1122   24.2201 C   0  0  0  0  0  0  0  0  0  0  0  0
  -24.0668  -10.1085   21.0246 C   0  0  0  0  0  0  0  0  0  0  0  0
  -24.3782  -10.9262   18.6284 C   0  0  0  0  0  0  0  0  0  0  0  0
  -25.1749  -34.3763   24.4754 C   0  0  0  0  0  0  0  0  0  0  0  0
  -25.5486  -29.3279   20.1688 C   0  0  0  0  0  0  0  0  0  0  0  0
  -25.4429  -33.0266   24.1776 C   0  0  0  0  0  0  0  0  0  0  0  0
  -25.1337  -28.0292   20.4966 C   0  0  0  0  0  0  0  0  0  0  0  0
  -24.4247  -19.6106   21.9780 C   0  0  0  0  0  0  0  0  0  0  0  0
  -26.7088  -20.2055   22.4936 C   0  0  0  0  0  0  0  0  0  0  0  0
  -26.2386  -18.2012   21.2292 C   0  0  0  0  0  0  0  0  0  0  0  0
  -22.8764   -8.5433   23.0034 C   0  0  0  0  0  0  0  0  0  0  0  0
  -27.4151  -27.2407   20.2078 C   0  0  0  0  0  0  0  0  0  0  0  0
  -22.0969   -6.4370   23.6949 C   0  0  0  0  0  0  0  0  0  0  0  0
  -21.6941   -3.7325   23.1414 C   0  0  0  0  0  0  0  0  0  0  0  0
  -22.6942   -5.4645   24.4968 C   0  0  0  0  0  0  0  0  0  0  0  0
  -24.6815  -10.9176   20.0030 C   0  0  0  0  0  0  0  0  0  0  0  0
  -25.2329  -11.8591   18.0940 C   0  0  0  0  0  0  0  0  0  0  0  0
  -23.4103  -10.1595   17.8996 C   0  0  0  0  0  0  0  0  0  0  0  0
  -23.5710  -30.3611   22.4327 C   0  0  0  0  0  0  0  0  0  0  0  0
  -21.3735  -28.6881   20.7315 C   0  0  0  0  0  0  0  0  0  0  0  0
  -20.7240  -26.1632   18.5292 C   0  0  0  0  0  0  0  0  0  0  0  0
  -28.0137  -16.6294   20.3779 C   0  0  0  0  0  0  0  0  0  0  0  0
  -23.7947  -34.8440   24.8640 C   0  0  0  0  0  0  0  0  0  0  0  0
  -24.5533  -30.4542   20.1127 C   0  0  0  0  0  0  0  0  0  0  0  0
  -23.6996  -27.7164   20.8341 C   0  0  0  0  0  0  0  0  0  0  0  0
  -22.6893  -33.8627   24.4830 C   0  0  0  0  0  0  0  0  0  0  0  0
  -29.5413  -13.8281   18.7980 C   0  0  0  0  0  0  0  0  0  0  0  0
  -23.0751  -32.4422   24.8833 C   0  0  0  0  0  0  0  0  0  0  0  0
  -28.4388  -12.7666   18.7971 C   0  0  0  0  0  0  0  0  0  0  0  0
  -29.5144  -14.6727   20.0706 C   0  0  0  0  0  0  0  0  0  0  0  0
  -27.1130  -14.2202   20.3834 C   0  0  0  0  0  0  0  0  0  0  0  0
  -24.3430  -31.9876   24.1501 C   0  0  1  0  0  0  0  0  0  0  0  0
  -23.3121  -30.1975   20.9617 C   0  0  1  0  0  0  0  0  0  0  0  0
  -27.0591  -13.3869   19.0925 C   0  0  2  0  0  0  0  0  0  0  0  0
  -22.4742  -20.7529   20.8931 C   0  0  0  0  0  0  0  0  0  0  0  0
  -18.8279  -25.0110   17.3568 C   0  0  0  0  0  0  0  0  0  0  0  0
  -20.6557  -27.2407   23.3199 C   0  0  0  0  0  0  0  0  0  0  0  0
  -19.4910  -25.5035   21.9437 C   0  0  0  0  0  0  0  0  0  0  0  0
  -18.6966  -27.8677   21.8975 C   0  0  0  0  0  0  0  0  0  0  0  0
  -30.4464  -22.6633   23.1597 C   0  0  0  0  0  0  0  0  0  0  0  0
  -28.4843  -23.9461   23.9908 C   0  0  0  0  0  0  0  0  0  0  0  0
  -30.0760  -23.8915   20.3336 C   0  0  0  0  0  0  0  0  0  0  0  0
  -30.3592  -25.5714   22.1366 C   0  0  0  0  0  0  0  0  0  0  0  0
  -21.7769  -26.8934   15.8615 C   0  0  0  0  0  0  0  0  0  0  0  0
  -22.9642  -19.9010   22.0611 C   0  0  0  0  0  0  0  0  0  0  0  0
  -27.7030  -21.1438   23.1364 C   0  0  0  0  0  0  0  0  0  0  0  0
  -28.1498  -22.2406   22.1544 C   0  0  0  0  0  0  0  0  0  0  0  0
  -28.0768  -25.1630   21.1573 C   0  0  0  0  0  0  0  0  0  1  0  0
  -20.8660  -27.2664   20.7467 C   0  0  1  0  0  0  0  0  0  0  0  0
  -19.8702  -26.1154   17.2749 C   0  0  2  0  0  0  0  0  0  0  0  0
  -19.9548  -26.9755   21.9725 C   0  0  0  0  0  0  0  0  0  0  0  0
  -29.1235  -23.3362   22.7164 C   0  0  0  0  0  0  0  0  0  0  0  0
  -29.4011  -24.4738   21.6046 C   0  0  0  0  0  0  0  0  0  0  0  0
  -25.6531  -11.7767   20.3221 N   0  0  0  0  0  0  0  0  0  0  0  0
  -25.9679  -12.3338   19.1403 N   0  0  0  0  0  0  0  0  0  0  0  0
  -22.7653  -28.8525   20.7714 N   0  0  0  0  0  0  0  0  0  0  0  0
  -28.1773  -15.2312   20.2835 N   0  0  0  0  0  0  0  0  0  0  0  0
  -25.4201  -12.3114   16.8359 N   0  0  0  0  0  0  0  0  0  0  0  0
  -22.6141   -9.2459   18.6037 N   0  0  0  0  0  0  0  0  0  0  0  0
  -26.6936  -17.0453   20.5475 N   0  0  0  0  0  0  0  0  0  0  0  0
  -24.0322  -31.6147   22.7868 N   0  0  0  0  0  0  0  0  0  0  0  0
  -20.2195  -27.0499   19.4569 N   0  0  0  0  0  0  0  0  0  0  0  0
  -20.7224  -25.8694   16.0774 N   0  3  0  0  0  0  0  0  0  0  0  0
  -23.2673  -10.2692   16.6582 O   0  0  0  0  0  0  0  0  0  0  0  0
  -23.3662  -29.4202   23.1905 O   0  0  0  0  0  0  0  0  0  0  0  0
  -20.5650  -29.6183   20.6787 O   0  0  0  0  0  0  0  0  0  0  0  0
  -21.7350  -25.4794   18.6733 O   0  0  0  0  0  0  0  0  0  0  0  0
  -28.9708  -17.4025   20.2858 O   0  0  0  0  0  0  0  0  0  0  0  0
  -22.2952   -7.7798   23.9688 O   0  0  0  0  0  0  0  0  0  0  0  0
  -28.3255  -26.2189   20.2324 O   0  0  0  0  0  0  0  0  0  1  0  0
  -21.4994   -2.4340   22.8765 F   0  0  0  0  0  0  0  0  0  0  0  0
  -23.4616   -5.8232   25.5352 F   0  0  0  0  0  0  0  0  0  0  0  0
  1  2  1  0  0  0  0
  1  5  2  0  0  0  0
  2  6  2  0  0  0  0
  3  8  2  0  0  0  0
  3 18  1  0  0  0  0
  4  9  1  0  0  0  0
  4 18  2  0  0  0  0
  5 20  1  0  0  0  0
  6 22  1  0  0  0  0
  7 10  2  0  0  0  0
  7 21  1  0  0  0  0
  8 27  1  0  0  0  0
  9 27  2  0  0  0  0
 10 28  1  0  0  0  0
 11 12  2  0  0  0  0
 11 29  1  0  0  0  0
 12 30  1  0  0  0  0
 13 23  1  0  0  0  0
 13 28  2  0  0  0  0
 14 24  1  0  0  0  0
 14 25  2  0  0  0  0
 15 24  2  0  0  0  0
 15 26  1  0  0  0  0
 16 25  1  0  0  0  0
 16 26  2  0  0  0  0
 17 30  2  0  0  0  0
 17 31  1  0  0  0  0
 18 32  1  0  0  0  0
 19 32  1  0  0  0  0
 19 33  2  0  0  0  0
 19 34  1  0  0  0  0
 20 22  2  0  0  0  0
 20 39  1  0  0  0  0
 21 23  2  0  0  0  0
 21 40  1  0  0  0  0
 22 48  1  0  0  0  0
 23 41  1  0  0  0  0
 24 61  1  0  0  0  0
 25 62  1  0  0  0  0
 26 76  1  0  0  0  0
 27 85  1  0  0  0  0
 28 86  1  0  0  0  0
 29 31  2  0  0  0  0
 29 85  1  0  0  0  0
 30 87  1  0  0  0  0
 31 88  1  0  0  0  0
 32 70  2  0  0  0  0
 33 71  1  0  0  0  0
 33 74  1  0  0  0  0
 34 75  1  0  0  0  0
 34 80  2  0  0  0  0
 35 49  1  0  0  0  0
 35 77  1  0  0  0  0
 35 81  2  0  0  0  0
 36 65  1  0  0  0  0
 36 72  1  0  0  0  0
 36 82  2  0  0  0  0
 37 66  1  0  0  0  0
 37 78  1  0  0  0  0
 37 83  2  0  0  0  0
 38 73  1  0  0  0  0
 38 76  1  0  0  0  0
 38 84  2  0  0  0  0
 39 42  1  0  0  0  0
 40 49  1  0  0  0  0
 41 72  1  0  0  0  0
 42 44  1  0  0  0  0
 43 45  1  0  0  0  0
 43 46  1  0  0  0  0
 44 48  1  0  0  0  0
 45 50  1  0  0  0  0
 46 73  1  0  0  0  0
 47 50  1  0  0  0  0
 47 73  1  0  0  0  0
 48 77  1  0  0  0  0
 49 72  1  0  0  0  0
 50 71  1  0  0  0  0
 51 61  1  0  0  0  0
 52 66  1  0  0  0  0
 53 67  1  0  0  0  0
 54 67  1  0  0  0  0
 55 67  1  0  0  0  0
 56 68  1  0  0  0  0
 57 68  1  0  0  0  0
 58 69  1  0  0  0  0
 59 69  1  0  0  0  0
 60 79  1  0  0  0  0
 62 63  1  0  0  0  0
 63 68  1  0  0  0  0
 64 69  1  0  0  0  0
 64 86  1  0  0  0  0
 65 67  1  0  0  0  0
 65 78  1  0  0  0  0
 66 79  1  0  0  0  0
 68 69  1  0  0  0  0
 70 71  1  0  0  0  0
M  CHG  1  79   1
M  ISO  4  38 100  64 101  76 100  86 101
M  END
> <Batch ID>
0140

> <Smiles>
CCc1cc(CCC(C)(C)C(C)(C)[101CH2:1][101O:1]c2ccc3c(c2)CN(C(=O)C(NC(=O)C(C)NC)C(C)(C)C)C(C(=O)NC2CCCc4ccccc42)C3)cc([100NH:0][100C:0](=O)N2CCCC(n3nc(-c4ccc(Oc5ccc(F)cc5F)cc4)c(C(N)=O)c3N)C2)c1

> <Shape>
0.286

> <Color>
0.093

> <Negative vol penalty>
0.000

$$$$

  -OEChem-04052302513D

 83 92  0     1  0  0  0  0  0999 V2000
  -36.2311  -29.6808   24.3083 C   0  0  0  0  0  0  0  0  0  0  0  0
  -35.7430  -28.5441   23.6720 C   0  0  0  0  0  0  0  0  0  0  0  0
  -23.0225   -9.8896   19.9731 C   0  0  0  0  0  0  0  0  0  0  0  0
  -23.7925   -9.9198   22.2629 C   0  0  0  0  0  0  0  0  0  0  0  0
  -35.3441  -30.6136   24.8441 C   0  0  0  0  0  0  0  0  0  0  0  0
  -34.3673  -28.3389   23.5721 C   0  0  0  0  0  0  0  0  0  0  0  0
  -31.3664  -25.6988   18.9320 C   0  0  0  0  0  0  0  0  0  0  0  0
  -22.2778   -8.7404   20.2387 C   0  0  0  0  0  0  0  0  0  0  0  0
  -23.0478   -8.7707   22.5285 C   0  0  0  0  0  0  0  0  0  0  0  0
  -30.8762  -24.4070   18.7461 C   0  0  0  0  0  0  0  0  0  0  0  0
  -23.3307   -5.4424   22.0055 C   0  0  0  0  0  0  0  0  0  0  0  0
  -23.9476   -4.4238   22.7317 C   0  0  0  0  0  0  0  0  0  0  0  0
  -30.8836  -17.9933   24.2311 C   0  0  0  0  0  0  0  0  0  0  0  0
  -28.7023  -25.1295   19.5019 C   0  0  0  0  0  0  0  0  0  0  0  0
  -22.2540   -4.6186   24.4437 C   0  0  0  0  0  0  0  0  0  0  0  0
  -30.2390  -19.0456   24.8432 C   0  0  0  0  0  0  0  0  0  0  0  0
  -23.7799  -10.4792   20.9852 C   0  0  0  0  0  0  0  0  0  0  0  0
  -24.1254  -13.0024   20.8366 C   0  0  0  0  0  0  0  0  0  0  0  0
  -33.9568  -30.4245   24.7422 C   0  0  0  0  0  0  0  0  0  0  0  0
  -30.5295  -26.7149   19.4155 C   0  0  0  0  0  0  0  0  0  0  0  0
  -33.4609  -29.2693   24.1082 C   0  0  0  0  0  0  0  0  0  0  0  0
  -29.1836  -26.4340   19.6907 C   0  0  0  0  0  0  0  0  0  0  0  0
  -30.5384  -17.8826   22.8532 C   0  0  0  0  0  0  0  0  0  0  0  0
  -22.2904   -8.1810   21.5164 C   0  0  0  0  0  0  0  0  0  0  0  0
  -29.5448  -24.1214   19.0337 C   0  0  0  0  0  0  0  0  0  0  0  0
  -22.1754   -6.0492   22.4985 C   0  0  0  0  0  0  0  0  0  0  0  0
  -23.4093   -4.0118   23.9508 C   0  0  0  0  0  0  0  0  0  0  0  0
  -21.6371   -5.6373   23.7175 C   0  0  0  0  0  0  0  0  0  0  0  0
  -24.5498  -11.6660   20.7114 C   0  0  0  0  0  0  0  0  0  0  0  0
  -29.6426  -18.8545   22.4646 C   0  0  0  0  0  0  0  0  0  0  0  0
  -25.2172  -13.7460   20.4606 C   0  0  0  0  0  0  0  0  0  0  0  0
  -22.8576  -13.5248   21.2556 C   0  0  0  0  0  0  0  0  0  0  0  0
  -30.5086  -28.5629   22.0016 C   0  0  0  0  0  0  0  0  0  0  0  0
  -30.7246  -14.6922   20.7115 C   0  0  0  0  0  0  0  0  0  0  0  0
  -28.0227  -29.9909   20.4838 C   0  0  0  0  0  0  0  0  0  0  0  0
  -25.5040  -29.7531   18.1934 C   0  0  0  0  0  0  0  0  0  0  0  0
  -33.0375  -31.4369   25.3783 C   0  0  0  0  0  0  0  0  0  0  0  0
  -31.0668  -28.1095   19.5852 C   0  0  0  0  0  0  0  0  0  0  0  0
  -28.2389  -27.4942   20.1926 C   0  0  0  0  0  0  0  0  0  0  0  0
  -31.5915  -31.3313   24.9007 C   0  0  0  0  0  0  0  0  0  0  0  0
  -29.5449  -12.3710   18.2496 C   0  0  0  0  0  0  0  0  0  0  0  0
  -31.1305  -29.8773   24.9115 C   0  0  0  0  0  0  0  0  0  0  0  0
  -27.5005  -18.9978   21.1728 C   0  0  0  0  0  0  0  0  0  0  0  0
  -26.9967  -20.3925   20.8151 C   0  0  0  0  0  0  0  0  0  0  0  0
  -28.1159  -12.0675   18.6981 C   0  0  0  0  0  0  0  0  0  0  0  0
  -29.3657  -20.4932   20.6024 C   0  0  0  0  0  0  0  0  0  0  0  0
  -30.4710  -12.5850   19.4428 C   0  0  0  0  0  0  0  0  0  0  0  0
  -28.5751  -13.3379   20.8429 C   0  0  0  0  0  0  0  0  0  0  0  0
  -31.9752  -29.0237   23.9580 C   0  0  1  0  0  0  0  0  0  0  0  0
  -29.0407  -19.0839   21.1319 C   0  0  1  0  0  0  0  0  0  0  0  0
  -30.2566  -28.9461   20.5707 C   0  0  1  0  0  0  0  0  0  0  0  0
  -28.0857  -20.9422   19.9003 C   0  0  2  0  0  0  0  0  0  0  0  0
  -27.6001  -13.1454   19.6678 C   0  0  2  0  0  0  0  0  0  0  0  0
  -23.6147  -31.0718   17.1990 C   0  0  0  0  0  0  0  0  0  0  0  0
  -26.3847  -29.5524   23.0204 C   0  0  0  0  0  0  0  0  0  0  0  0
  -24.3178  -29.9955   21.6788 C   0  0  0  0  0  0  0  0  0  0  0  0
  -26.0449  -31.7777   21.9309 C   0  0  0  0  0  0  0  0  0  0  0  0
  -26.6625  -29.5832   15.4754 C   0  0  0  0  0  0  0  0  0  0  0  0
  -31.0856  -16.8392   21.9533 C   0  0  0  0  0  0  0  0  0  0  0  0
  -30.1023  -15.6974   21.6476 C   0  0  0  0  0  0  0  0  0  0  0  0
  -28.0036  -22.4419   19.7118 C   0  0  0  0  0  0  0  0  0  1  0  0
  -26.5277  -29.7841   20.4529 C   0  0  1  0  0  0  0  0  0  0  0  0
  -25.0770  -30.6759   17.0662 C   0  0  2  0  0  0  0  0  0  0  0  0
  -25.8368  -30.2568   21.7632 C   0  0  0  0  0  0  0  0  0  0  0  0
  -25.8126  -11.5635   20.2886 N   0  0  0  0  0  0  0  0  0  0  0  0
  -26.1911  -12.8450   20.1448 N   0  0  0  0  0  0  0  0  0  0  0  0
  -28.8131  -28.8408   20.3484 N   0  0  0  0  0  0  0  0  0  0  0  0
  -29.9350  -13.6000   20.3514 N   0  0  0  0  0  0  0  0  0  0  0  0
  -25.4295  -15.0763   20.3724 N   0  0  0  0  0  0  0  0  0  0  0  0
  -21.8457  -12.6210   21.6070 N   0  0  0  0  0  0  0  0  0  0  0  0
  -31.5624  -29.2380   22.5876 N   0  0  0  0  0  0  0  0  0  0  0  0
  -26.0477  -30.4539   19.2491 N   0  0  0  0  0  0  0  0  0  0  0  0
  -25.2646  -30.0054   15.7486 N   0  3  0  0  0  0  0  0  0  0  0  0
  -22.6237  -14.7564   21.3008 O   0  0  0  0  0  0  0  0  0  0  0  0
  -29.7986  -27.7185   22.5350 O   0  0  0  0  0  0  0  0  0  0  0  0
  -31.8770  -14.8755   20.3109 O   0  0  0  0  0  0  0  0  0  0  0  0
  -28.4728  -31.1319   20.6158 O   0  0  0  0  0  0  0  0  0  0  0  0
  -25.3653  -28.5329   18.1440 O   0  0  0  0  0  0  0  0  0  0  0  0
  -21.5637   -7.0598   21.7759 O   0  0  0  0  0  0  0  0  0  0  0  0
  -29.0639  -22.8612   18.8537 O   0  0  0  0  0  0  0  0  0  1  0  0
  -24.0010   -3.0326   24.6473 F   0  0  0  0  0  0  0  0  0  0  0  0
  -20.5268   -6.2156   24.1956 F   0  0  0  0  0  0  0  0  0  0  0  0
  -29.2220  -19.8947   23.7582 S   0  0  0  0  0  0  0  0  0  0  0  0
  1  2  1  0  0  0  0
  1  5  2  0  0  0  0
  2  6  2  0  0  0  0
  3  8  2  0  0  0  0
  3 17  1  0  0  0  0
  4  9  1  0  0  0  0
  4 17  2  0  0  0  0
  5 19  1  0  0  0  0
  6 21  1  0  0  0  0
  7 10  2  0  0  0  0
  7 20  1  0  0  0  0
  8 24  1  0  0  0  0
  9 24  2  0  0  0  0
 10 25  1  0  0  0  0
 11 12  2  0  0  0  0
 11 26  1  0  0  0  0
 12 27  1  0  0  0  0
 13 16  2  0  0  0  0
 13 23  1  0  0  0  0
 14 22  1  0  0  0  0
 14 25  2  0  0  0  0
 15 27  2  0  0  0  0
 15 28  1  0  0  0  0
 16 83  1  0  0  0  0
 17 29  1  0  0  0  0
 18 29  1  0  0  0  0
 18 31  2  0  0  0  0
 18 32  1  0  0  0  0
 19 21  2  0  0  0  0
 19 37  1  0  0  0  0
 20 22  2  0  0  0  0
 20 38  1  0  0  0  0
 21 49  1  0  0  0  0
 22 39  1  0  0  0  0
 23 30  2  0  0  0  0
 23 59  1  0  0  0  0
 24 79  1  0  0  0  0
 25 80  1  0  0  0  0
 26 28  2  0  0  0  0
 26 79  1  0  0  0  0
 27 81  1  0  0  0  0
 28 82  1  0  0  0  0
 29 65  2  0  0  0  0
 30 50  1  0  0  0  0
 30 83  1  0  0  0  0
 31 66  1  0  0  0  0
 31 69  1  0  0  0  0
 32 70  1  0  0  0  0
 32 74  2  0  0  0  0
 33 51  1  0  0  0  0
 33 71  1  0  0  0  0
 33 75  2  0  0  0  0
 34 60  1  0  0  0  0
 34 68  1  0  0  0  0
 34 76  2  0  0  0  0
 35 62  1  0  0  0  0
 35 67  1  0  0  0  0
 35 77  2  0  0  0  0
 36 63  1  0  0  0  0
 36 72  1  0  0  0  0
 36 78  2  0  0  0  0
 37 40  1  0  0  0  0
 38 51  1  0  0  0  0
 39 67  1  0  0  0  0
 40 42  1  0  0  0  0
 41 45  1  0  0  0  0
 41 47  1  0  0  0  0
 42 49  1  0  0  0  0
 43 44  1  0  0  0  0
 43 50  1  0  0  0  0
 44 52  1  0  0  0  0
 45 53  1  0  0  0  0
 46 50  1  0  0  0  0
 46 52  1  0  0  0  0
 47 68  1  0  0  0  0
 48 53  1  0  0  0  0
 48 68  1  0  0  0  0
 49 71  1  0  0  0  0
 51 67  1  0  0  0  0
 52 61  1  0  0  0  0
 53 66  1  0  0  0  0
 54 63  1  0  0  0  0
 55 64  1  0  0  0  0
 56 64  1  0  0  0  0
 57 64  1  0  0  0  0
 58 73  1  0  0  0  0
 59 60  1  0  0  0  0
 61 80  1  0  0  0  0
 62 64  1  0  0  0  0
 62 72  1  0  0  0  0
 63 73  1  0  0  0  0
 65 66  1  0  0  0  0
M  CHG  1  73   1
M  ISO  4  34 100  60 100  61 101  80 101
M  END
> <Batch ID>
0140

> <Smiles>
CNC(C)C(=O)NC(C(=O)N1Cc2cc([101O:1][101CH2:1]C3CCC(c4sccc4C[100CH2:0][100C:0](=O)N4CCCC(n5nc(-c6ccc(Oc7ccc(F)cc7F)cc6)c(C(N)=O)c5N)C4)C3)ccc2CC1C(=O)NC1CCCc2ccccc21)C(C)(C)C

> <Shape>
0.322

> <Color>
0.231

> <Negative vol penalty>
0.000

$$$$

  -OEChem-04052302513D

 89 97  0     1  0  0  0  0  0999 V2000
  -31.7392  -31.1162   14.8535 C   0  0  0  0  0  0  0  0  0  0  0  0
  -31.6941  -30.5433   16.1204 C   0  0  0  0  0  0  0  0  0  0  0  0
  -23.0758   -9.8685   19.9381 C   0  0  0  0  0  0  0  0  0  0  0  0
  -23.8365   -9.8711   22.2312 C   0  0  0  0  0  0  0  0  0  0  0  0
  -31.0831  -30.5015   13.7879 C   0  0  0  0  0  0  0  0  0  0  0  0
  -30.9918  -29.3557   16.3227 C   0  0  0  0  0  0  0  0  0  0  0  0
  -32.4470  -24.8298   20.1832 C   0  0  0  0  0  0  0  0  0  0  0  0
  -22.3324   -8.7146   20.1860 C   0  0  0  0  0  0  0  0  0  0  0  0
  -23.0930   -8.7172   22.4792 C   0  0  0  0  0  0  0  0  0  0  0  0
  -31.9970  -24.5072   21.4627 C   0  0  0  0  0  0  0  0  0  0  0  0
  -21.1092   -5.9770   23.8110 C   0  0  0  0  0  0  0  0  0  0  0  0
  -20.3533   -5.9308   24.9823 C   0  0  0  0  0  0  0  0  0  0  0  0
  -32.0621  -16.6072   22.5573 C   0  0  0  0  0  0  0  0  0  0  0  0
  -31.8511  -18.3534   24.2135 C   0  0  0  0  0  0  0  0  0  0  0  0
  -30.4262  -22.9441   20.5096 C   0  0  0  0  0  0  0  0  0  0  0  0
  -29.8778  -17.4532   23.1491 C   0  0  0  0  0  0  0  0  0  0  0  0
  -19.1080   -7.8692   24.2551 C   0  0  0  0  0  0  0  0  0  0  0  0
  -23.8280  -10.4467   20.9607 C   0  0  0  0  0  0  0  0  0  0  0  0
  -32.6495  -17.4893   23.4641 C   0  0  0  0  0  0  0  0  0  0  0  0
  -24.1691  -12.9721   20.8456 C   0  0  0  0  0  0  0  0  0  0  0  0
  -30.3804  -29.3008   13.9752 C   0  0  0  0  0  0  0  0  0  0  0  0
  -31.8816  -24.2189   19.0548 C   0  0  0  0  0  0  0  0  0  0  0  0
  -30.3244  -28.7251   15.2589 C   0  0  0  0  0  0  0  0  0  0  0  0
  -30.8727  -23.2587   19.2170 C   0  0  0  0  0  0  0  0  0  0  0  0
  -30.6763  -16.5891   22.3997 C   0  0  0  0  0  0  0  0  0  0  0  0
  -22.3409   -8.1390   21.4565 C   0  0  0  0  0  0  0  0  0  0  0  0
  -30.9844  -23.5664   21.6259 C   0  0  0  0  0  0  0  0  0  0  0  0
  -20.8645   -6.9693   22.8617 C   0  0  0  0  0  0  0  0  0  0  0  0
  -30.4652  -18.3353   24.0560 C   0  0  0  0  0  0  0  0  0  0  0  0
  -19.3527   -6.8769   25.2044 C   0  0  0  0  0  0  0  0  0  0  0  0
  -19.8639   -7.9154   23.0837 C   0  0  0  0  0  0  0  0  0  0  0  0
  -24.5967  -11.6383   20.7051 C   0  0  0  0  0  0  0  0  0  0  0  0
  -25.2610  -13.7226   20.4835 C   0  0  0  0  0  0  0  0  0  0  0  0
  -34.0943  -17.5079   23.6296 C   0  0  0  0  0  0  0  0  0  0  0  0
  -22.8986  -13.4868   21.2660 C   0  0  0  0  0  0  0  0  0  0  0  0
  -30.2725  -25.2506   16.5151 C   0  0  0  0  0  0  0  0  0  0  0  0
  -29.1290  -22.0423   24.4232 C   0  0  0  0  0  0  0  0  0  0  0  0
  -30.5552  -22.1614   15.5669 C   0  0  0  0  0  0  0  0  0  0  0  0
  -31.0045  -18.8926   16.4389 C   0  0  0  0  0  0  0  0  0  0  0  0
  -30.7269  -14.7693   20.6585 C   0  0  0  0  0  0  0  0  0  0  0  0
  -29.6472  -28.6983   12.8030 C   0  0  0  0  0  0  0  0  0  0  0  0
  -32.3968  -24.5581   17.6829 C   0  0  0  0  0  0  0  0  0  0  0  0
  -30.2467  -22.5593   18.0391 C   0  0  0  0  0  0  0  0  0  0  0  0
  -29.2383  -27.2440   13.0225 C   0  0  0  0  0  0  0  0  0  0  0  0
  -29.6124  -12.3599   18.2857 C   0  0  0  0  0  0  0  0  0  0  0  0
  -28.6023  -27.0701   14.3980 C   0  0  0  0  0  0  0  0  0  0  0  0
  -28.1729  -12.0671   18.7152 C   0  0  0  0  0  0  0  0  0  0  0  0
  -30.5278  -12.5865   19.4875 C   0  0  0  0  0  0  0  0  0  0  0  0
  -28.6211  -13.3078   20.8709 C   0  0  0  0  0  0  0  0  0  0  0  0
  -29.5937  -27.4245   15.5129 C   0  0  1  0  0  0  0  0  0  0  0  0
  -31.3934  -24.2518   16.5753 C   0  0  1  0  0  0  0  0  0  0  0  0
  -27.6480  -13.1366   19.6930 C   0  0  2  0  0  0  0  0  0  0  0  0
  -26.1462  -22.7693   24.5697 C   0  0  0  0  0  0  0  0  0  0  0  0
  -31.1526  -16.5919   15.4479 C   0  0  0  0  0  0  0  0  0  0  0  0
  -27.8438  -20.8939   26.2632 C   0  0  0  0  0  0  0  0  0  0  0  0
  -27.5269  -22.1292   15.1952 C   0  0  0  0  0  0  0  0  0  0  0  0
  -27.6301  -19.6283   15.1404 C   0  0  0  0  0  0  0  0  0  0  0  0
  -28.8114  -20.9621   13.3945 C   0  0  0  0  0  0  0  0  0  0  0  0
  -33.7647  -18.5142   17.4372 C   0  0  0  0  0  0  0  0  0  0  0  0
  -29.5026  -22.2778   22.9675 C   0  0  0  0  0  0  0  0  0  1  0  0
  -26.6906  -21.4265   24.0943 C   0  0  0  0  0  0  0  0  0  0  0  0
  -28.4612  -19.6084   24.1925 C   0  0  0  0  0  0  0  0  0  0  0  0
  -29.7335  -20.9080   15.7480 C   0  0  1  0  0  0  0  0  0  0  0  0
  -31.9300  -17.8218   15.8902 C   0  0  2  0  0  0  0  0  0  0  0  0
  -28.0337  -20.9932   24.7367 C   0  0  1  0  0  0  0  0  0  0  0  0
  -28.4357  -20.9213   14.8918 C   0  0  0  0  0  0  0  0  0  0  0  0
  -25.8614  -11.5436   20.2862 N   0  0  0  0  0  0  0  0  0  0  0  0
  -26.2379  -12.8275   20.1603 N   0  0  0  0  0  0  0  0  0  0  0  0
  -30.7802  -22.9298   16.7179 N   0  0  0  0  0  0  0  0  0  0  0  0
  -29.9689  -13.6155   20.3672 N   0  0  0  0  0  0  0  0  0  0  0  0
  -25.4710  -15.0543   20.4131 N   0  0  0  0  0  0  0  0  0  0  0  0
  -34.8458  -16.6253   22.8592 N   0  0  0  0  0  0  0  0  0  0  0  0
  -21.8871  -12.5767   21.6018 N   0  0  0  0  0  0  0  0  0  0  0  0
  -30.0796  -15.6925   21.4789 N   0  0  0  0  0  0  0  0  0  0  0  0
  -30.5362  -26.3446   15.7133 N   0  0  0  0  0  0  0  0  0  0  0  0
  -30.6261  -19.7899   15.4627 N   0  0  0  0  0  0  0  0  0  0  0  0
  -32.9150  -17.4068   16.9287 N   0  3  0  0  0  0  0  0  0  0  0  0
  -34.6439  -18.2720   24.4423 O   0  0  0  0  0  0  0  0  0  0  0  0
  -22.6621  -14.7172   21.3259 O   0  0  0  0  0  0  0  0  0  0  0  0
  -29.2438  -25.0432   17.1480 O   0  0  0  0  0  0  0  0  0  0  0  0
  -29.7087  -22.6572   25.3217 O   0  0  0  0  0  0  0  0  0  0  0  0
  -30.9877  -22.4443   14.4469 O   0  0  0  0  0  0  0  0  0  0  0  0
  -30.6494  -18.9274   17.6151 O   0  0  0  0  0  0  0  0  0  0  0  0
  -31.8558  -14.9392   20.1908 O   0  0  0  0  0  0  0  0  0  0  0  0
  -21.6153   -7.0132   21.6989 O   0  0  0  0  0  0  0  0  0  0  0  0
  -30.5428  -23.2502   22.8737 O   0  0  0  0  0  0  0  0  0  1  0  0
  -29.6812  -19.1831   24.7918 O   0  0  0  0  0  0  0  0  0  0  0  0
  -18.6259   -6.8316   26.3286 F   0  0  0  0  0  0  0  0  0  0  0  0
  -19.6235   -8.8703   22.1748 F   0  0  0  0  0  0  0  0  0  0  0  0
  1  2  1  0  0  0  0
  1  5  2  0  0  0  0
  2  6  2  0  0  0  0
  3  8  2  0  0  0  0
  3 18  1  0  0  0  0
  4  9  1  0  0  0  0
  4 18  2  0  0  0  0
  5 21  1  0  0  0  0
  6 23  1  0  0  0  0
  7 10  2  0  0  0  0
  7 22  1  0  0  0  0
  8 26  1  0  0  0  0
  9 26  2  0  0  0  0
 10 27  1  0  0  0  0
 11 12  2  0  0  0  0
 11 28  1  0  0  0  0
 12 30  1  0  0  0  0
 13 19  2  0  0  0  0
 13 25  1  0  0  0  0
 14 19  1  0  0  0  0
 14 29  2  0  0  0  0
 15 24  1  0  0  0  0
 15 27  2  0  0  0  0
 16 25  2  0  0  0  0
 16 29  1  0  0  0  0
 17 30  2  0  0  0  0
 17 31  1  0  0  0  0
 18 32  1  0  0  0  0
 19 34  1  0  0  0  0
 20 32  1  0  0  0  0
 20 33  2  0  0  0  0
 20 35  1  0  0  0  0
 21 23  2  0  0  0  0
 21 41  1  0  0  0  0
 22 24  2  0  0  0  0
 22 42  1  0  0  0  0
 23 50  1  0  0  0  0
 24 43  1  0  0  0  0
 25 74  1  0  0  0  0
 26 85  1  0  0  0  0
 27 86  1  0  0  0  0
 28 31  2  0  0  0  0
 28 85  1  0  0  0  0
 29 87  1  0  0  0  0
 30 88  1  0  0  0  0
 31 89  1  0  0  0  0
 32 67  2  0  0  0  0
 33 68  1  0  0  0  0
 33 71  1  0  0  0  0
 34 72  1  0  0  0  0
 34 78  2  0  0  0  0
 35 73  1  0  0  0  0
 35 79  2  0  0  0  0
 36 51  1  0  0  0  0
 36 75  1  0  0  0  0
 36 80  2  0  0  0  0
 37 60  1  0  0  0  0
 37 65  1  0  0  0  0
 37 81  2  0  0  0  0
 38 63  1  0  0  0  0
 38 69  1  0  0  0  0
 38 82  2  0  0  0  0
 39 64  1  0  0  0  0
 39 76  1  0  0  0  0
 39 83  2  0  0  0  0
 40 70  1  0  0  0  0
 40 74  1  0  0  0  0
 40 84  2  0  0  0  0
 41 44  1  0  0  0  0
 42 51  1  0  0  0  0
 43 69  1  0  0  0  0
 44 46  1  0  0  0  0
 45 47  1  0  0  0  0
 45 48  1  0  0  0  0
 46 50  1  0  0  0  0
 47 52  1  0  0  0  0
 48 70  1  0  0  0  0
 49 52  1  0  0  0  0
 49 70  1  0  0  0  0
 50 75  1  0  0  0  0
 51 69  1  0  0  0  0
 52 68  1  0  0  0  0
 53 61  1  0  0  0  0
 54 64  1  0  0  0  0
 55 65  1  0  0  0  0
 56 66  1  0  0  0  0
 57 66  1  0  0  0  0
 58 66  1  0  0  0  0
 59 77  1  0  0  0  0
 60 86  1  0  0  0  0
 61 65  1  0  0  0  0
 62 65  1  0  0  0  0
 62 87  1  0  0  0  0
 63 66  1  0  0  0  0
 63 76  1  0  0  0  0
 64 77  1  0  0  0  0
 67 68  1  0  0  0  0
M  CHG  1  77   1
M  ISO  4  40 100  60 101  74 100  86 101
M  END
> <Batch ID>
0140

> <Smiles>
CCC(C)(COc1cc([100NH:0][100C:0](=O)N2CCCC(n3nc(-c4ccc(Oc5ccc(F)cc5F)cc4)c(C(N)=O)c3N)C2)cc(C(N)=O)c1)C(=O)[101CH2:1][101O:1]c1ccc2c(c1)CN(C(=O)C(NC(=O)C(C)NC)C(C)(C)C)C(C(=O)NC1CCCc3ccccc31)C2

> <Shape>
0.200

> <Color>
0.177

> <Negative vol penalty>
0.000

$$$$

  -OEChem-04052302513D

 83 91  0     1  0  0  0  0  0999 V2000
  -18.8153  -25.1416   24.9981 C   0  0  0  0  0  0  0  0  0  0  0  0
  -20.1083  -24.8651   24.5656 C   0  0  0  0  0  0  0  0  0  0  0  0
  -24.0234   -9.7573   21.9268 C   0  0  0  0  0  0  0  0  0  0  0  0
  -24.4675  -11.1592   23.8438 C   0  0  0  0  0  0  0  0  0  0  0  0
  -18.1381  -26.2543   24.5010 C   0  0  0  0  0  0  0  0  0  0  0  0
  -20.7245  -25.7007   23.6347 C   0  0  0  0  0  0  0  0  0  0  0  0
  -25.5130  -26.7894   24.8716 C   0  0  0  0  0  0  0  0  0  0  0  0
  -28.5242  -20.7790   20.6945 C   0  0  0  0  0  0  0  0  0  0  0  0
  -28.2899  -19.4332   20.4127 C   0  0  0  0  0  0  0  0  0  0  0  0
  -23.5624   -8.7478   22.7718 C   0  0  0  0  0  0  0  0  0  0  0  0
  -24.0064  -10.1497   24.6888 C   0  0  0  0  0  0  0  0  0  0  0  0
  -26.4740  -25.8113   24.6190 C   0  0  0  0  0  0  0  0  0  0  0  0
  -20.7458   -8.0428   24.5046 C   0  0  0  0  0  0  0  0  0  0  0  0
  -19.5614   -7.3946   24.1542 C   0  0  0  0  0  0  0  0  0  0  0  0
  -27.1193  -26.9737   22.6062 C   0  0  0  0  0  0  0  0  0  0  0  0
  -30.6715  -19.0408   20.3071 C   0  0  0  0  0  0  0  0  0  0  0  0
  -20.7433   -5.2899   24.0524 C   0  0  0  0  0  0  0  0  0  0  0  0
  -24.4760  -10.9630   22.4628 C   0  0  0  0  0  0  0  0  0  0  0  0
  -24.1956  -13.0407   21.0095 C   0  0  0  0  0  0  0  0  0  0  0  0
  -18.7499  -27.1094   23.5708 C   0  0  0  0  0  0  0  0  0  0  0  0
  -25.3403  -27.8629   23.9861 C   0  0  0  0  0  0  0  0  0  0  0  0
  -20.0544  -26.8251   23.1236 C   0  0  0  0  0  0  0  0  0  0  0  0
  -26.1572  -27.9654   22.8511 C   0  0  0  0  0  0  0  0  0  0  0  0
  -29.8321  -21.2558   20.7825 C   0  0  0  0  0  0  0  0  0  0  0  0
  -30.9058  -20.3867   20.5888 C   0  0  0  0  0  0  0  0  0  0  0  0
  -29.3636  -18.5641   20.2191 C   0  0  0  0  0  0  0  0  0  0  0  0
  -23.5539   -8.9440   24.1528 C   0  0  0  0  0  0  0  0  0  0  0  0
  -27.2753  -25.9018   23.4847 C   0  0  0  0  0  0  0  0  0  0  0  0
  -21.9290   -7.3145   24.6289 C   0  0  0  0  0  0  0  0  0  0  0  0
  -19.5602   -6.0182   23.9281 C   0  0  0  0  0  0  0  0  0  0  0  0
  -21.9277   -5.9381   24.4028 C   0  0  0  0  0  0  0  0  0  0  0  0
  -24.9529  -12.0059   21.5905 C   0  0  0  0  0  0  0  0  0  0  0  0
  -25.1051  -13.7602   20.2736 C   0  0  0  0  0  0  0  0  0  0  0  0
  -22.7952  -13.3260   21.1247 C   0  0  0  0  0  0  0  0  0  0  0  0
  -22.9523  -28.9085   22.1673 C   0  0  0  0  0  0  0  0  0  0  0  0
  -24.9722  -31.3867   21.6185 C   0  0  0  0  0  0  0  0  0  0  0  0
  -28.1808  -32.5469   21.5422 C   0  0  0  0  0  0  0  0  0  0  0  0
  -30.0783  -16.2014   19.7160 C   0  0  0  0  0  0  0  0  0  0  0  0
  -17.9606  -28.2735   23.0262 C   0  0  0  0  0  0  0  0  0  0  0  0
  -24.3174  -28.9240   24.2868 C   0  0  0  0  0  0  0  0  0  0  0  0
  -26.0253  -29.1089   21.8798 C   0  0  0  0  0  0  0  0  0  0  0  0
  -18.8234  -29.3193   22.3246 C   0  0  0  0  0  0  0  0  0  0  0  0
  -29.8974  -12.7133   19.0248 C   0  0  0  0  0  0  0  0  0  0  0  0
  -19.8085  -28.6476   21.3732 C   0  0  0  0  0  0  0  0  0  0  0  0
  -28.5326  -12.3034   19.5829 C   0  0  0  0  0  0  0  0  0  0  0  0
  -30.5713  -13.7724   19.8954 C   0  0  0  0  0  0  0  0  0  0  0  0
  -28.3884  -14.5498   20.7318 C   0  0  0  0  0  0  0  0  0  0  0  0
  -20.7657  -27.7218   22.1335 C   0  0  1  0  0  0  0  0  0  0  0  0
  -23.8783  -29.6987   23.0481 C   0  0  1  0  0  0  0  0  0  0  0  0
  -27.6423  -13.5322   19.8534 C   0  0  2  0  0  0  0  0  0  0  0  0
  -32.3145  -20.8743   20.6802 C   0  0  0  0  0  0  0  0  0  0  0  0
  -29.5199  -34.6036   21.0188 C   0  0  0  0  0  0  0  0  0  0  0  0
  -30.8645  -24.6136   24.4184 C   0  0  0  0  0  0  0  0  0  0  0  0
  -24.5960  -30.8694   18.6351 C   0  0  0  0  0  0  0  0  0  0  0  0
  -26.6269  -32.2697   18.2072 C   0  0  0  0  0  0  0  0  0  0  0  0
  -24.6171  -33.2855   19.2804 C   0  0  0  0  0  0  0  0  0  0  0  0
  -29.2322  -32.7062   24.3041 C   0  0  0  0  0  0  0  0  0  0  0  0
  -30.0601  -22.7152   21.0874 C   0  0  0  0  0  0  0  0  0  0  0  0
  -30.4119  -22.9986   22.5545 C   0  0  0  0  0  0  0  0  0  0  0  0
  -29.3824  -25.3568   22.5261 C   0  0  0  0  0  0  0  0  0  1  0  0
  -26.0527  -31.6812   20.6061 C   0  0  1  0  0  0  0  0  0  0  0  0
  -28.8089  -33.8097   22.1036 C   0  0  2  0  0  0  0  0  0  0  0  0
  -30.5881  -24.4904   22.9145 C   0  0  1  0  0  0  0  0  0  0  0  0
  -25.4746  -32.0037   19.1993 C   0  0  0  0  0  0  0  0  0  0  0  0
  -26.2440  -12.0597   21.2527 N   0  0  0  0  0  0  0  0  0  0  0  0
  -26.3051  -13.1368   20.4514 N   0  0  0  0  0  0  0  0  0  0  0  0
  -25.0066  -30.1179   22.2142 N   0  0  0  0  0  0  0  0  0  0  0  0
  -29.6706  -14.9080   20.1054 N   0  0  0  0  0  0  0  0  0  0  0  0
  -24.9875  -14.8590   19.4982 N   0  0  0  0  0  0  0  0  0  0  0  0
  -22.0055  -12.4856   21.9212 N   0  0  0  0  0  0  0  0  0  0  0  0
  -29.1262  -17.1964   19.9348 N   0  0  0  0  0  0  0  0  0  0  0  0
  -21.7946  -28.4934   22.7972 N   0  0  0  0  0  0  0  0  0  0  0  0
  -26.8666  -32.7490   21.1768 N   0  0  0  0  0  0  0  0  0  0  0  0
  -29.8005  -33.4684   23.1625 N   0  3  0  0  0  0  0  0  0  0  0  0
  -22.2571  -14.2877   20.5255 O   0  0  0  0  0  0  0  0  0  0  0  0
  -23.2643  -28.6928   21.0021 O   0  0  0  0  0  0  0  0  0  0  0  0
  -24.1330  -32.2531   21.8767 O   0  0  0  0  0  0  0  0  0  0  0  0
  -28.7956  -31.4881   21.4347 O   0  0  0  0  0  0  0  0  0  0  0  0
  -31.1798  -16.4066   19.1995 O   0  0  0  0  0  0  0  0  0  0  0  0
  -23.1038   -7.9593   24.9776 O   0  0  0  0  0  0  0  0  0  0  0  0
  -28.2136  -24.9482   23.2355 O   0  0  0  0  0  0  0  0  0  1  0  0
  -18.4225   -5.3957   23.5931 F   0  0  0  0  0  0  0  0  0  0  0  0
  -23.0610   -5.2329   24.5218 F   0  0  0  0  0  0  0  0  0  0  0  0
  1  2  1  0  0  0  0
  1  5  2  0  0  0  0
  2  6  2  0  0  0  0
  3 10  2  0  0  0  0
  3 18  1  0  0  0  0
  4 11  1  0  0  0  0
  4 18  2  0  0  0  0
  5 20  1  0  0  0  0
  6 22  1  0  0  0  0
  7 12  2  0  0  0  0
  7 21  1  0  0  0  0
  8  9  2  0  0  0  0
  8 24  1  0  0  0  0
  9 26  1  0  0  0  0
 10 27  1  0  0  0  0
 11 27  2  0  0  0  0
 12 28  1  0  0  0  0
 13 14  2  0  0  0  0
 13 29  1  0  0  0  0
 14 30  1  0  0  0  0
 15 23  1  0  0  0  0
 15 28  2  0  0  0  0
 16 25  1  0  0  0  0
 16 26  2  0  0  0  0
 17 30  2  0  0  0  0
 17 31  1  0  0  0  0
 18 32  1  0  0  0  0
 19 32  1  0  0  0  0
 19 33  2  0  0  0  0
 19 34  1  0  0  0  0
 20 22  2  0  0  0  0
 20 39  1  0  0  0  0
 21 23  2  0  0  0  0
 21 40  1  0  0  0  0
 22 48  1  0  0  0  0
 23 41  1  0  0  0  0
 24 25  2  0  0  0  0
 24 58  1  0  0  0  0
 25 51  1  0  0  0  0
 26 71  1  0  0  0  0
 27 80  1  0  0  0  0
 28 81  1  0  0  0  0
 29 31  2  0  0  0  0
 29 80  1  0  0  0  0
 30 82  1  0  0  0  0
 31 83  1  0  0  0  0
 32 65  2  0  0  0  0
 33 66  1  0  0  0  0
 33 69  1  0  0  0  0
 34 70  1  0  0  0  0
 34 75  2  0  0  0  0
 35 49  1  0  0  0  0
 35 72  1  0  0  0  0
 35 76  2  0  0  0  0
 36 61  1  0  0  0  0
 36 67  1  0  0  0  0
 36 77  2  0  0  0  0
 37 62  1  0  0  0  0
 37 73  1  0  0  0  0
 37 78  2  0  0  0  0
 38 68  1  0  0  0  0
 38 71  1  0  0  0  0
 38 79  2  0  0  0  0
 39 42  1  0  0  0  0
 40 49  1  0  0  0  0
 41 67  1  0  0  0  0
 42 44  1  0  0  0  0
 43 45  1  0  0  0  0
 43 46  1  0  0  0  0
 44 48  1  0  0  0  0
 45 50  1  0  0  0  0
 46 68  1  0  0  0  0
 47 50  1  0  0  0  0
 47 68  1  0  0  0  0
 48 72  1  0  0  0  0
 49 67  1  0  0  0  0
 50 66  1  0  0  0  0
 52 62  1  0  0  0  0
 53 63  1  0  0  0  0
 54 64  1  0  0  0  0
 55 64  1  0  0  0  0
 56 64  1  0  0  0  0
 57 74  1  0  0  0  0
 58 59  1  0  0  0  0
 59 63  1  0  0  0  0
 60 63  1  0  0  0  0
 60 81  1  0  0  0  0
 61 64  1  0  0  0  0
 61 73  1  0  0  0  0
 62 74  1  0  0  0  0
 65 66  1  0  0  0  0
M  CHG  1  74   1
M  ISO  4  38 100  60 101  71 100  81 101
M  END
> <Batch ID>
0140

> <Smiles>
CNC(C)C(=O)NC(C(=O)N1Cc2cc([101O:1][101CH2:1]C(C)CCc3ccc([100NH:0][100C:0](=O)N4CCCC(n5nc(-c6ccc(Oc7ccc(F)cc7F)cc6)c(C(N)=O)c5N)C4)cc3C)ccc2CC1C(=O)NC1CCCc2ccccc21)C(C)(C)C

> <Shape>
0.264

> <Color>
0.115

> <Negative vol penalty>
0.000

$$$$

  -OEChem-04052302513D

 86 94  0     1  0  0  0  0  0999 V2000
  -29.2238  -32.3040   20.4504 C   0  0  0  0  0  0  0  0  0  0  0  0
  -28.8949  -30.9884   20.1401 C   0  0  0  0  0  0  0  0  0  0  0  0
  -26.4590  -12.4744   21.3637 C   0  0  0  0  0  0  0  0  0  0  0  0
  -26.0439  -14.2222   19.7482 C   0  0  0  0  0  0  0  0  0  0  0  0
  -28.6169  -32.9358   21.5350 C   0  0  0  0  0  0  0  0  0  0  0  0
  -27.9597  -30.3033   20.9151 C   0  0  0  0  0  0  0  0  0  0  0  0
  -24.6226  -27.7289   18.1077 C   0  0  0  0  0  0  0  0  0  0  0  0
  -29.5382  -23.6167   22.3858 C   0  0  0  0  0  0  0  0  0  0  0  0
  -29.9585  -22.3269   22.7103 C   0  0  0  0  0  0  0  0  0  0  0  0
  -25.1383  -12.0439   21.2373 C   0  0  0  0  0  0  0  0  0  0  0  0
  -24.7232  -13.7917   19.6218 C   0  0  0  0  0  0  0  0  0  0  0  0
  -25.0483  -26.5178   17.5638 C   0  0  0  0  0  0  0  0  0  0  0  0
  -22.0941  -12.9824   22.3670 C   0  0  0  0  0  0  0  0  0  0  0  0
  -21.3934  -12.6911   23.5374 C   0  0  0  0  0  0  0  0  0  0  0  0
  -23.9156  -25.3320   19.3330 C   0  0  0  0  0  0  0  0  0  0  0  0
  -29.4169  -21.5879   20.4748 C   0  0  0  0  0  0  0  0  0  0  0  0
  -21.0747  -10.4188   22.7810 C   0  0  0  0  0  0  0  0  0  0  0  0
  -26.9118  -13.5636   20.6192 C   0  0  0  0  0  0  0  0  0  0  0  0
  -29.3862  -13.5790   19.9988 C   0  0  0  0  0  0  0  0  0  0  0  0
  -27.6666  -32.2614   22.3178 C   0  0  0  0  0  0  0  0  0  0  0  0
  -23.8481  -27.7511   19.2765 C   0  0  0  0  0  0  0  0  0  0  0  0
  -27.3405  -30.9263   22.0120 C   0  0  0  0  0  0  0  0  0  0  0  0
  -23.4792  -26.5446   19.8883 C   0  0  0  0  0  0  0  0  0  0  0  0
  -29.0572  -23.8921   21.1058 C   0  0  0  0  0  0  0  0  0  0  0  0
  -29.8979  -21.3125   21.7548 C   0  0  0  0  0  0  0  0  0  0  0  0
  -24.2704  -12.7025   20.3663 C   0  0  0  0  0  0  0  0  0  0  0  0
  -24.6972  -25.3193   18.1781 C   0  0  0  0  0  0  0  0  0  0  0  0
  -22.2851  -11.9919   21.4036 C   0  0  0  0  0  0  0  0  0  0  0  0
  -28.9965  -22.8778   20.1503 C   0  0  0  0  0  0  0  0  0  0  0  0
  -20.8837  -11.4093   23.7444 C   0  0  0  0  0  0  0  0  0  0  0  0
  -21.7754  -10.7101   21.6106 C   0  0  0  0  0  0  0  0  0  0  0  0
  -28.2758  -14.0092   20.7498 C   0  0  0  0  0  0  0  0  0  0  0  0
  -30.4418  -14.2980   20.5042 C   0  0  0  0  0  0  0  0  0  0  0  0
  -29.4571  -12.6158   18.9392 C   0  0  0  0  0  0  0  0  0  0  0  0
  -24.2349  -28.9332   22.2017 C   0  0  0  0  0  0  0  0  0  0  0  0
  -21.1606  -27.9686   22.5762 C   0  0  0  0  0  0  0  0  0  0  0  0
  -18.6331  -25.8984   21.5899 C   0  0  0  0  0  0  0  0  0  0  0  0
  -30.8267  -19.5604   23.3085 C   0  0  0  0  0  0  0  0  0  0  0  0
  -27.0723  -32.9703   23.5090 C   0  0  0  0  0  0  0  0  0  0  0  0
  -23.3744  -29.0647   19.8356 C   0  0  0  0  0  0  0  0  0  0  0  0
  -22.6322  -26.5133   21.1333 C   0  0  0  0  0  0  0  0  0  0  0  0
  -25.8145  -32.2977   24.0529 C   0  0  0  0  0  0  0  0  0  0  0  0
  -31.9490  -16.4097   24.5295 C   0  0  0  0  0  0  0  0  0  0  0  0
  -26.0266  -30.7925   24.1803 C   0  0  0  0  0  0  0  0  0  0  0  0
  -31.2402  -15.3976   23.6265 C   0  0  0  0  0  0  0  0  0  0  0  0
  -31.0617  -17.6148   24.8364 C   0  0  0  0  0  0  0  0  0  0  0  0
  -29.7875  -17.2734   22.7558 C   0  0  0  0  0  0  0  0  0  0  0  0
  -26.3124  -30.1580   22.8138 C   0  0  1  0  0  0  0  0  0  0  0  0
  -23.0211  -28.9906   21.3179 C   0  0  1  0  0  0  0  0  0  0  0  0
  -30.6652  -16.0728   22.3660 C   0  0  2  0  0  0  0  0  0  0  0  0
  -25.7978  -21.8539   14.9573 C   0  0  0  0  0  0  0  0  0  0  0  0
  -27.4796  -25.7826   21.6803 C   0  0  0  0  0  0  0  0  0  0  0  0
  -16.2476  -25.3166   22.1079 C   0  0  0  0  0  0  0  0  0  0  0  0
  -22.0743  -26.4366   25.0517 C   0  0  0  0  0  0  0  0  0  0  0  0
  -19.9273  -25.1518   24.9635 C   0  0  0  0  0  0  0  0  0  0  0  0
  -19.8872  -27.6222   25.3069 C   0  0  0  0  0  0  0  0  0  0  0  0
  -17.7342  -26.6708   18.8780 C   0  0  0  0  0  0  0  0  0  0  0  0
  -26.1616  -21.6321   16.4186 C   0  0  0  0  0  0  0  0  0  0  0  0
  -26.3516  -24.1389   16.9428 C   0  0  0  0  0  0  0  0  0  1  0  0
  -27.3851  -22.3944   18.4694 C   0  0  0  0  0  0  0  0  0  0  0  0
  -28.6114  -25.2784   20.7763 C   0  0  1  0  0  0  0  0  0  0  0  0
  -20.4871  -26.6967   23.0319 C   0  0  1  0  0  0  0  0  0  0  0  0
  -17.1766  -26.1726   21.2612 C   0  0  2  0  0  0  0  0  0  0  0  0
  -27.0252  -22.7587   17.0196 C   0  0  1  0  0  0  0  0  0  0  0  0
  -20.6116  -26.4771   24.5661 C   0  0  0  0  0  0  0  0  0  0  0  0
  -28.5962  -14.9299   21.6628 N   0  0  0  0  0  0  0  0  0  0  0  0
  -29.9199  -15.0841   21.4890 N   0  0  0  0  0  0  0  0  0  0  0  0
  -22.1990  -27.8239   21.6453 N   0  0  0  0  0  0  0  0  0  0  0  0
  -30.5569  -18.2054   23.5950 N   0  0  0  0  0  0  0  0  0  0  0  0
  -31.7562  -14.3280   20.1979 N   0  0  0  0  0  0  0  0  0  0  0  0
  -28.2780  -11.9694   18.5439 N   0  0  0  0  0  0  0  0  0  0  0  0
  -30.3242  -20.0021   22.0850 N   0  0  0  0  0  0  0  0  0  0  0  0
  -25.0868  -30.0117   22.0583 N   0  0  0  0  0  0  0  0  0  0  0  0
  -19.1127  -26.7664   22.5478 N   0  0  0  0  0  0  0  0  0  0  0  0
  -29.7199  -26.2909   20.8388 N   0  3  0  0  0  0  0  0  0  0  0  0
  -16.9059  -25.8808   19.8251 N   0  3  0  0  0  0  0  0  0  0  0  0
  -30.5369  -12.3246   18.3712 O   0  0  0  0  0  0  0  0  0  0  0  0
  -24.3866  -27.9817   22.9588 O   0  0  0  0  0  0  0  0  0  0  0  0
  -20.7745  -29.0512   23.0240 O   0  0  0  0  0  0  0  0  0  0  0  0
  -19.2795  -25.0013   21.0534 O   0  0  0  0  0  0  0  0  0  0  0  0
  -31.4804  -20.2688   24.0784 O   0  0  0  0  0  0  0  0  0  0  0  0
  -22.9817  -12.2825   20.2426 O   0  0  0  0  0  0  0  0  0  0  0  0
  -25.1119  -24.1358   17.6496 O   0  0  0  0  0  0  0  0  0  1  0  0
  -28.5263  -23.1315   18.8883 O   0  0  0  0  0  0  0  0  0  0  0  0
  -20.2122  -11.1293   24.8690 F   0  0  0  0  0  0  0  0  0  0  0  0
  -21.9568   -9.7541   20.6892 F   0  0  0  0  0  0  0  0  0  0  0  0
  1  2  1  0  0  0  0
  1  5  2  0  0  0  0
  2  6  2  0  0  0  0
  3 10  2  0  0  0  0
  3 18  1  0  0  0  0
  4 11  1  0  0  0  0
  4 18  2  0  0  0  0
  5 20  1  0  0  0  0
  6 22  1  0  0  0  0
  7 12  2  0  0  0  0
  7 21  1  0  0  0  0
  8  9  2  0  0  0  0
  8 24  1  0  0  0  0
  9 25  1  0  0  0  0
 10 26  1  0  0  0  0
 11 26  2  0  0  0  0
 12 27  1  0  0  0  0
 13 14  2  0  0  0  0
 13 28  1  0  0  0  0
 14 30  1  0  0  0  0
 15 23  1  0  0  0  0
 15 27  2  0  0  0  0
 16 25  2  0  0  0  0
 16 29  1  0  0  0  0
 17 30  2  0  0  0  0
 17 31  1  0  0  0  0
 18 32  1  0  0  0  0
 19 32  1  0  0  0  0
 19 33  2  0  0  0  0
 19 34  1  0  0  0  0
 20 22  2  0  0  0  0
 20 39  1  0  0  0  0
 21 23  2  0  0  0  0
 21 40  1  0  0  0  0
 22 48  1  0  0  0  0
 23 41  1  0  0  0  0
 24 29  2  0  0  0  0
 24 61  1  0  0  0  0
 25 72  1  0  0  0  0
 26 82  1  0  0  0  0
 27 83  1  0  0  0  0
 28 31  2  0  0  0  0
 28 82  1  0  0  0  0
 29 84  1  0  0  0  0
 30 85  1  0  0  0  0
 31 86  1  0  0  0  0
 32 66  2  0  0  0  0
 33 67  1  0  0  0  0
 33 70  1  0  0  0  0
 34 71  1  0  0  0  0
 34 77  2  0  0  0  0
 35 49  1  0  0  0  0
 35 73  1  0  0  0  0
 35 78  2  0  0  0  0
 36 62  1  0  0  0  0
 36 68  1  0  0  0  0
 36 79  2  0  0  0  0
 37 63  1  0  0  0  0
 37 74  1  0  0  0  0
 37 80  2  0  0  0  0
 38 69  1  0  0  0  0
 38 72  1  0  0  0  0
 38 81  2  0  0  0  0
 39 42  1  0  0  0  0
 40 49  1  0  0  0  0
 41 68  1  0  0  0  0
 42 44  1  0  0  0  0
 43 45  1  0  0  0  0
 43 46  1  0  0  0  0
 44 48  1  0  0  0  0
 45 50  1  0  0  0  0
 46 69  1  0  0  0  0
 47 50  1  0  0  0  0
 47 69  1  0  0  0  0
 48 73  1  0  0  0  0
 49 68  1  0  0  0  0
 50 67  1  0  0  0  0
 51 58  1  0  0  0  0
 52 61  1  0  0  0  0
 53 63  1  0  0  0  0
 54 65  1  0  0  0  0
 55 65  1  0  0  0  0
 56 65  1  0  0  0  0
 57 76  1  0  0  0  0
 58 64  1  0  0  0  0
 59 64  1  0  0  0  0
 59 83  1  0  0  0  0
 60 64  1  0  0  0  0
 60 84  1  0  0  0  0
 61 75  1  0  0  0  0
 62 65  1  0  0  0  0
 62 74  1  0  0  0  0
 63 76  1  0  0  0  0
 66 67  1  0  0  0  0
M  CHG  2  75   1  76   1
M  ISO  4  38 100  59 101  72 100  83 101
M  END
> <Batch ID>
0140

> <Smiles>
CCC(COc1cc([100NH:0][100C:0](=O)N2CCCC(n3nc(-c4ccc(Oc5ccc(F)cc5F)cc4)c(C(N)=O)c3N)C2)ccc1C(C)N)[101CH2:1][101O:1]c1ccc2c(c1)CN(C(=O)C(NC(=O)C(C)NC)C(C)(C)C)C(C(=O)NC1CCCc3ccccc31)C2

> <Shape>
0.286

> <Color>
0.046

> <Negative vol penalty>
0.000

$$$$

  -OEChem-04052302513D

 81 90  0     1  0  0  0  0  0999 V2000
  -24.3961  -11.0979   23.2670 C   0  0  0  0  0  0  0  0  0  0  0  0
  -25.6494  -11.3386   22.7132 C   0  0  0  0  0  0  0  0  0  0  0  0
  -19.7001  -28.6150   23.4804 C   0  0  0  0  0  0  0  0  0  0  0  0
  -20.9273  -26.8370   22.3987 C   0  0  0  0  0  0  0  0  0  0  0  0
  -23.2663  -11.7079   22.7234 C   0  0  0  0  0  0  0  0  0  0  0  0
  -25.7735  -12.1886   21.6148 C   0  0  0  0  0  0  0  0  0  0  0  0
  -30.1446  -18.6012   20.7215 C   0  0  0  0  0  0  0  0  0  0  0  0
  -18.5324  -28.1974   22.8420 C   0  0  0  0  0  0  0  0  0  0  0  0
  -19.7595  -26.4193   21.7604 C   0  0  0  0  0  0  0  0  0  0  0  0
  -30.7521  -19.8374   20.4999 C   0  0  0  0  0  0  0  0  0  0  0  0
  -16.9946  -24.6407   22.5429 C   0  0  0  0  0  0  0  0  0  0  0  0
  -16.7196  -23.2733   22.5279 C   0  0  0  0  0  0  0  0  0  0  0  0
  -30.9339  -28.7481   19.4697 C   0  0  0  0  0  0  0  0  0  0  0  0
  -30.0901  -29.7195   20.0817 C   0  0  0  0  0  0  0  0  0  0  0  0
  -29.0214  -20.4154   18.9130 C   0  0  0  0  0  0  0  0  0  0  0  0
  -16.7530  -23.2931   20.1122 C   0  0  0  0  0  0  0  0  0  0  0  0
  -20.8976  -27.9348   23.2587 C   0  0  0  0  0  0  0  0  0  0  0  0
  -22.5891  -27.9393   25.1683 C   0  0  0  0  0  0  0  0  0  0  0  0
  -23.3778  -12.5733   21.6238 C   0  0  0  0  0  0  0  0  0  0  0  0
  -28.9634  -18.2733   20.0504 C   0  0  0  0  0  0  0  0  0  0  0  0
  -24.6440  -12.8096   21.0552 C   0  0  0  0  0  0  0  0  0  0  0  0
  -28.4016  -19.1837   19.1402 C   0  0  0  0  0  0  0  0  0  0  0  0
  -18.5620  -27.0996   21.9820 C   0  0  0  0  0  0  0  0  0  0  0  0
  -30.1919  -20.7421   19.5977 C   0  0  0  0  0  0  0  0  0  0  0  0
  -17.1488  -25.3343   21.3426 C   0  0  0  0  0  0  0  0  0  0  0  0
  -16.5988  -22.5995   21.3126 C   0  0  0  0  0  0  0  0  0  0  0  0
  -17.0280  -24.6605   20.1272 C   0  0  0  0  0  0  0  0  0  0  0  0
  -22.1044  -28.3660   23.9174 C   0  0  0  0  0  0  0  0  0  0  0  0
  -30.3536  -27.4990   19.4472 C   0  0  0  0  0  0  0  0  0  0  0  0
  -23.7578  -28.6399   25.3408 C   0  0  0  0  0  0  0  0  0  0  0  0
  -28.8966  -29.1757   20.5035 C   0  0  0  0  0  0  0  0  0  0  0  0
  -22.0327  -26.9941   26.0917 C   0  0  0  0  0  0  0  0  0  0  0  0
  -26.2478  -15.7464   19.4880 C   0  0  0  0  0  0  0  0  0  0  0  0
  -24.8996  -18.5008   19.5666 C   0  0  0  0  0  0  0  0  0  0  0  0
  -23.7576  -21.6644   20.1366 C   0  0  0  0  0  0  0  0  0  0  0  0
  -27.6404  -31.1052   21.5260 C   0  0  0  0  0  0  0  0  0  0  0  0
  -22.1223  -13.1724   21.0412 C   0  0  0  0  0  0  0  0  0  0  0  0
  -28.3081  -16.9286   20.2120 C   0  0  0  0  0  0  0  0  0  0  0  0
  -27.1489  -18.7742   18.4149 C   0  0  0  0  0  0  0  0  0  0  0  0
  -22.3859  -14.3537   20.1110 C   0  0  0  0  0  0  0  0  0  0  0  0
  -25.8648  -32.7657   24.1273 C   0  0  0  0  0  0  0  0  0  0  0  0
  -23.5109  -14.0240   19.1350 C   0  0  0  0  0  0  0  0  0  0  0  0
  -24.7467  -31.7844   24.4867 C   0  0  0  0  0  0  0  0  0  0  0  0
  -30.2453  -25.3501   17.8046 C   0  0  0  0  0  0  0  0  0  0  0  0
  -31.1132  -24.9128   19.6966 C   0  0  0  0  0  0  0  0  0  0  0  0
  -26.1578  -32.7672   22.6280 C   0  0  0  0  0  0  0  0  0  0  0  0
  -25.3101  -30.4647   22.4063 C   0  0  0  0  0  0  0  0  0  0  0  0
  -24.8224  -13.7448   19.8789 C   0  0  1  0  0  0  0  0  0  0  0  0
  -31.0389  -26.2090   18.8346 C   0  0  0  0  0  0  0  0  0  0  0  0
  -26.7720  -16.9930   20.1382 C   0  0  1  0  0  0  0  0  0  0  0  0
  -30.9683  -24.1084   18.3816 C   0  0  0  0  0  0  0  0  0  0  0  0
  -25.0237  -30.3804   23.9145 C   0  0  2  0  0  0  0  0  0  0  0  0
  -21.6400  -23.0079   20.2259 C   0  0  0  0  0  0  0  0  0  0  0  0
  -24.7777  -18.5043   16.5188 C   0  0  0  0  0  0  0  0  0  0  0  0
  -23.3236  -20.5382   16.6500 C   0  0  0  0  0  0  0  0  0  0  0  0
  -22.5513  -18.3883   17.6521 C   0  0  0  0  0  0  0  0  0  0  0  0
  -24.1851  -22.3651   22.9801 C   0  0  0  0  0  0  0  0  0  0  0  0
  -30.1636  -22.8274   18.4540 C   0  0  0  0  0  0  0  0  0  1  0  0
  -24.4020  -19.6884   18.7821 C   0  0  1  0  0  0  0  0  0  0  0  0
  -22.6426  -22.1885   21.0235 C   0  0  2  0  0  0  0  0  0  0  0  0
  -23.7894  -19.2797   17.4128 C   0  0  0  0  0  0  0  0  0  0  0  0
  -22.9001  -29.2679   23.3364 N   0  0  0  0  0  0  0  0  0  0  0  0
  -23.8965  -29.4137   24.2263 N   0  0  0  0  0  0  0  0  0  0  0  0
  -26.2249  -18.1071   19.3455 N   0  0  0  0  0  0  0  0  0  0  0  0
  -26.4147  -31.4043   22.1575 N   0  0  0  0  0  0  0  0  0  0  0  0
  -24.6701  -28.6633   26.3356 N   0  0  0  0  0  0  0  0  0  0  0  0
  -20.8256  -26.3651   25.7579 N   0  0  0  0  0  0  0  0  0  0  0  0
  -27.7850  -29.7699   21.1509 N   0  0  0  0  0  0  0  0  0  0  0  0
  -25.4351  -14.9845   20.3057 N   0  0  0  0  0  0  0  0  0  0  0  0
  -23.4800  -20.4005   19.6604 N   0  0  0  0  0  0  0  0  0  0  0  0
  -23.2013  -23.0507   22.1030 N   0  3  0  0  0  0  0  0  0  0  0  0
  -22.5811  -26.7279   27.1880 O   0  0  0  0  0  0  0  0  0  0  0  0
  -26.5558  -15.4941   18.3291 O   0  0  0  0  0  0  0  0  0  0  0  0
  -24.1344  -17.9323   20.3505 O   0  0  0  0  0  0  0  0  0  0  0  0
  -24.7716  -22.3129   19.8880 O   0  0  0  0  0  0  0  0  0  0  0  0
  -28.5097  -31.9641   21.3566 O   0  0  0  0  0  0  0  0  0  0  0  0
  -17.4227  -26.6917   21.3591 O   0  0  0  0  0  0  0  0  0  0  0  0
  -30.7877  -21.9489   19.3895 O   0  0  0  0  0  0  0  0  0  1  0  0
  -16.3361  -21.2861   21.2983 F   0  0  0  0  0  0  0  0  0  0  0  0
  -17.1763  -25.3213   18.9708 F   0  0  0  0  0  0  0  0  0  0  0  0
  -28.7974  -27.5007   20.1618 S   0  0  0  0  0  0  0  0  0  0  0  0
  1  2  1  0  0  0  0
  1  5  2  0  0  0  0
  2  6  2  0  0  0  0
  3  8  2  0  0  0  0
  3 17  1  0  0  0  0
  4  9  1  0  0  0  0
  4 17  2  0  0  0  0
  5 19  1  0  0  0  0
  6 21  1  0  0  0  0
  7 10  2  0  0  0  0
  7 20  1  0  0  0  0
  8 23  1  0  0  0  0
  9 23  2  0  0  0  0
 10 24  1  0  0  0  0
 11 12  2  0  0  0  0
 11 25  1  0  0  0  0
 12 26  1  0  0  0  0
 13 14  1  0  0  0  0
 13 29  2  0  0  0  0
 14 31  2  0  0  0  0
 15 22  1  0  0  0  0
 15 24  2  0  0  0  0
 16 26  2  0  0  0  0
 16 27  1  0  0  0  0
 17 28  1  0  0  0  0
 18 28  1  0  0  0  0
 18 30  2  0  0  0  0
 18 32  1  0  0  0  0
 19 21  2  0  0  0  0
 19 37  1  0  0  0  0
 20 22  2  0  0  0  0
 20 38  1  0  0  0  0
 21 48  1  0  0  0  0
 22 39  1  0  0  0  0
 23 77  1  0  0  0  0
 24 78  1  0  0  0  0
 25 27  2  0  0  0  0
 25 77  1  0  0  0  0
 26 79  1  0  0  0  0
 27 80  1  0  0  0  0
 28 62  2  0  0  0  0
 29 49  1  0  0  0  0
 29 81  1  0  0  0  0
 30 63  1  0  0  0  0
 30 66  1  0  0  0  0
 31 68  1  0  0  0  0
 31 81  1  0  0  0  0
 32 67  1  0  0  0  0
 32 72  2  0  0  0  0
 33 50  1  0  0  0  0
 33 69  1  0  0  0  0
 33 73  2  0  0  0  0
 34 59  1  0  0  0  0
 34 64  1  0  0  0  0
 34 74  2  0  0  0  0
 35 60  1  0  0  0  0
 35 70  1  0  0  0  0
 35 75  2  0  0  0  0
 36 65  1  0  0  0  0
 36 68  1  0  0  0  0
 36 76  2  0  0  0  0
 37 40  1  0  0  0  0
 38 50  1  0  0  0  0
 39 64  1  0  0  0  0
 40 42  1  0  0  0  0
 41 43  1  0  0  0  0
 41 46  1  0  0  0  0
 42 48  1  0  0  0  0
 43 52  1  0  0  0  0
 44 49  1  0  0  0  0
 44 51  1  0  0  0  0
 45 49  1  0  0  0  0
 45 51  1  0  0  0  0
 46 65  1  0  0  0  0
 47 52  1  0  0  0  0
 47 65  1  0  0  0  0
 48 69  1  0  0  0  0
 50 64  1  0  0  0  0
 51 58  1  0  0  0  0
 52 63  1  0  0  0  0
 53 60  1  0  0  0  0
 54 61  1  0  0  0  0
 55 61  1  0  0  0  0
 56 61  1  0  0  0  0
 57 71  1  0  0  0  0
 58 78  1  0  0  0  0
 59 61  1  0  0  0  0
 59 70  1  0  0  0  0
 60 71  1  0  0  0  0
 62 63  1  0  0  0  0
M  CHG  1  71   1
M  ISO  4  36 100  58 101  68 100  78 101
M  END
> <Batch ID>
0140

> <Smiles>
CNC(C)C(=O)NC(C(=O)N1Cc2cc([101O:1][101CH2:1]C3CC(c4ccc([100NH:0][100C:0](=O)N5CCCC(n6nc(-c7ccc(Oc8ccc(F)cc8F)cc7)c(C(N)=O)c6N)C5)s4)C3)ccc2CC1C(=O)NC1CCCc2ccccc21)C(C)(C)C

> <Shape>
0.237

> <Color>
0.048

> <Negative vol penalty>
0.000

$$$$

  -OEChem-04052302513D

 84 92  0     1  0  0  0  0  0999 V2000
  -19.9954  -35.5886   17.6553 C   0  0  0  0  0  0  0  0  0  0  0  0
  -20.4062  -34.3209   17.2556 C   0  0  0  0  0  0  0  0  0  0  0  0
  -24.8390   -8.7462   20.8518 C   0  0  0  0  0  0  0  0  0  0  0  0
  -23.2783  -10.4538   20.1551 C   0  0  0  0  0  0  0  0  0  0  0  0
  -20.7904  -36.3364   18.5229 C   0  0  0  0  0  0  0  0  0  0  0  0
  -21.6129  -33.8008   17.7224 C   0  0  0  0  0  0  0  0  0  0  0  0
  -24.6877  -27.5880   19.5287 C   0  0  0  0  0  0  0  0  0  0  0  0
  -23.7744   -7.9188   21.2091 C   0  0  0  0  0  0  0  0  0  0  0  0
  -22.2136   -9.6263   20.5123 C   0  0  0  0  0  0  0  0  0  0  0  0
  -25.8285  -26.8327   19.2604 C   0  0  0  0  0  0  0  0  0  0  0  0
  -21.6074   -7.6213   23.7858 C   0  0  0  0  0  0  0  0  0  0  0  0
  -21.6859   -6.9575   25.0100 C   0  0  0  0  0  0  0  0  0  0  0  0
  -27.0019  -19.4046   23.9802 C   0  0  0  0  0  0  0  0  0  0  0  0
  -26.8391  -20.7799   23.6451 C   0  0  0  0  0  0  0  0  0  0  0  0
  -27.0814  -28.1828   20.8182 C   0  0  0  0  0  0  0  0  0  0  0  0
  -21.5493   -4.8333   23.8670 C   0  0  0  0  0  0  0  0  0  0  0  0
  -24.5910  -10.0137   20.3249 C   0  0  0  0  0  0  0  0  0  0  0  0
  -26.3282  -10.9413   18.7034 C   0  0  0  0  0  0  0  0  0  0  0  0
  -22.0027  -35.8213   19.0082 C   0  0  0  0  0  0  0  0  0  0  0  0
  -24.7380  -28.6551   20.4372 C   0  0  0  0  0  0  0  0  0  0  0  0
  -22.4255  -34.5430   18.5962 C   0  0  0  0  0  0  0  0  0  0  0  0
  -25.9393  -28.9485   21.0982 C   0  0  0  0  0  0  0  0  0  0  0  0
  -22.4617   -8.3589   21.0393 C   0  0  0  0  0  0  0  0  0  0  0  0
  -27.0263  -27.1318   19.9030 C   0  0  0  0  0  0  0  0  0  0  0  0
  -21.4997   -6.8912   22.6022 C   0  0  0  0  0  0  0  0  0  0  0  0
  -21.6569   -5.5635   25.0507 C   0  0  0  0  0  0  0  0  0  0  0  0
  -21.4707   -5.4972   22.6428 C   0  0  0  0  0  0  0  0  0  0  0  0
  -25.6903  -10.8691   19.9563 C   0  0  0  0  0  0  0  0  0  0  0  0
  -28.0580  -18.8297   23.3081 C   0  0  0  0  0  0  0  0  0  0  0  0
  -27.7774  -21.2039   22.7297 C   0  0  0  0  0  0  0  0  0  0  0  0
  -27.3001  -11.8978   18.8676 C   0  0  0  0  0  0  0  0  0  0  0  0
  -26.0657  -10.2092   17.4989 C   0  0  0  0  0  0  0  0  0  0  0  0
  -24.2636  -31.7920   20.2413 C   0  0  0  0  0  0  0  0  0  0  0  0
  -27.6555  -16.4812   22.6281 C   0  0  0  0  0  0  0  0  0  0  0  0
  -24.6286  -31.6549   23.4616 C   0  0  0  0  0  0  0  0  0  0  0  0
  -25.8966  -30.0040   26.1659 C   0  0  0  0  0  0  0  0  0  0  0  0
  -22.8510  -36.6859   19.9069 C   0  0  0  0  0  0  0  0  0  0  0  0
  -23.4922  -29.4433   20.7357 C   0  0  0  0  0  0  0  0  0  0  0  0
  -26.0411  -30.0709   22.0973 C   0  0  0  0  0  0  0  0  0  0  0  0
  -23.9347  -35.9109   20.6519 C   0  0  0  0  0  0  0  0  0  0  0  0
  -30.1239  -13.8461   22.1924 C   0  0  0  0  0  0  0  0  0  0  0  0
  -24.6710  -34.9737   19.6999 C   0  0  0  0  0  0  0  0  0  0  0  0
  -29.3040  -12.7749   21.4745 C   0  0  0  0  0  0  0  0  0  0  0  0
  -29.2797  -14.6133   23.2066 C   0  0  0  0  0  0  0  0  0  0  0  0
  -27.2246  -14.1542   21.9064 C   0  0  0  0  0  0  0  0  0  0  0  0
  -23.7160  -33.9344   19.1005 C   0  0  1  0  0  0  0  0  0  0  0  0
  -23.7837  -30.8329   21.2937 C   0  0  1  0  0  0  0  0  0  0  0  0
  -28.0321  -13.3778   20.8528 C   0  0  2  0  0  0  0  0  0  0  0  0
  -26.0651  -30.1552   28.6652 C   0  0  0  0  0  0  0  0  0  0  0  0
  -26.7748  -33.8059   23.1844 C   0  0  0  0  0  0  0  0  0  0  0  0
  -27.5462  -33.2359   25.4970 C   0  0  0  0  0  0  0  0  0  0  0  0
  -25.2384  -34.1104   25.1340 C   0  0  0  0  0  0  0  0  0  0  0  0
  -29.6721  -24.6022   19.9683 C   0  0  0  0  0  0  0  0  0  0  0  0
  -28.5604  -25.7349   21.8948 C   0  0  0  0  0  0  0  0  0  0  0  0
  -26.0917  -21.9994   20.4636 C   0  0  0  0  0  0  0  0  0  0  0  0
  -24.4347  -27.4573   26.5346 C   0  0  0  0  0  0  0  0  0  0  0  0
  -28.5469  -17.4358   23.3818 C   0  0  0  0  0  0  0  0  0  0  0  0
  -27.9466  -22.5801   22.1229 C   0  0  0  0  0  0  0  0  0  0  0  0
  -27.2051  -24.2360   20.2906 C   0  0  0  0  0  0  0  0  0  0  0  0
  -25.7989  -31.7538   24.4100 C   0  0  1  0  0  0  0  0  0  0  0  0
  -25.2687  -29.6090   27.4904 C   0  0  2  0  0  0  0  0  0  0  0  0
  -26.3385  -33.2065   24.5361 C   0  0  0  0  0  0  0  0  0  0  0  0
  -28.3678  -25.2485   20.4591 C   0  0  0  0  0  0  0  0  0  1  0  0
  -27.4225  -22.7429   20.6769 C   0  0  2  0  0  0  0  0  0  0  0  0
  -26.2130  -11.7125   20.8504 N   0  0  0  0  0  0  0  0  0  0  0  0
  -27.1898  -12.3236   20.1586 N   0  0  0  0  0  0  0  0  0  0  0  0
  -24.7971  -30.8165   22.3505 N   0  0  0  0  0  0  0  0  0  0  0  0
  -28.0641  -15.1481   22.5816 N   0  0  0  0  0  0  0  0  0  0  0  0
  -28.2298  -12.4078   18.0322 N   0  0  0  0  0  0  0  0  0  0  0  0
  -25.0307   -9.2641   17.5036 N   0  0  0  0  0  0  0  0  0  0  0  0
  -23.4408  -32.8875   20.0612 N   0  0  0  0  0  0  0  0  0  0  0  0
  -25.3531  -31.1704   25.6707 N   0  0  0  0  0  0  0  0  0  0  0  0
  -25.2084  -28.1249   27.6129 N   0  3  0  0  0  0  0  0  0  0  0  0
  -26.7399  -10.3762   16.4544 O   0  0  0  0  0  0  0  0  0  0  0  0
  -25.3042  -31.5564   19.6385 O   0  0  0  0  0  0  0  0  0  0  0  0
  -26.6288  -16.9100   22.0951 O   0  0  0  0  0  0  0  0  0  0  0  0
  -23.6002  -32.2923   23.7016 O   0  0  0  0  0  0  0  0  0  0  0  0
  -26.7834  -29.3458   25.6266 O   0  0  0  0  0  0  0  0  0  0  0  0
  -28.3747  -22.1672   19.7791 O   0  0  0  0  0  0  0  0  0  0  0  0
  -21.4226   -7.5517   21.3875 O   0  0  0  0  0  0  0  0  0  0  0  0
  -28.1413  -26.3966   19.6425 O   0  0  0  0  0  0  0  0  0  1  0  0
  -21.7339   -4.9261   26.2262 F   0  0  0  0  0  0  0  0  0  0  0  0
  -21.3686   -4.7903   21.5089 F   0  0  0  0  0  0  0  0  0  0  0  0
  -28.8483  -19.9464   22.2780 S   0  0  0  0  0  0  0  0  0  0  0  0
  1  2  1  0  0  0  0
  1  5  2  0  0  0  0
  2  6  2  0  0  0  0
  3  8  2  0  0  0  0
  3 17  1  0  0  0  0
  4  9  1  0  0  0  0
  4 17  2  0  0  0  0
  5 19  1  0  0  0  0
  6 21  1  0  0  0  0
  7 10  2  0  0  0  0
  7 20  1  0  0  0  0
  8 23  1  0  0  0  0
  9 23  2  0  0  0  0
 10 24  1  0  0  0  0
 11 12  2  0  0  0  0
 11 25  1  0  0  0  0
 12 26  1  0  0  0  0
 13 14  1  0  0  0  0
 13 29  2  0  0  0  0
 14 30  2  0  0  0  0
 15 22  1  0  0  0  0
 15 24  2  0  0  0  0
 16 26  2  0  0  0  0
 16 27  1  0  0  0  0
 17 28  1  0  0  0  0
 18 28  1  0  0  0  0
 18 31  2  0  0  0  0
 18 32  1  0  0  0  0
 19 21  2  0  0  0  0
 19 37  1  0  0  0  0
 20 22  2  0  0  0  0
 20 38  1  0  0  0  0
 21 46  1  0  0  0  0
 22 39  1  0  0  0  0
 23 80  1  0  0  0  0
 24 81  1  0  0  0  0
 25 27  2  0  0  0  0
 25 80  1  0  0  0  0
 26 82  1  0  0  0  0
 27 83  1  0  0  0  0
 28 65  2  0  0  0  0
 29 57  1  0  0  0  0
 29 84  1  0  0  0  0
 30 58  1  0  0  0  0
 30 84  1  0  0  0  0
 31 66  1  0  0  0  0
 31 69  1  0  0  0  0
 32 70  1  0  0  0  0
 32 74  2  0  0  0  0
 33 47  1  0  0  0  0
 33 71  1  0  0  0  0
 33 75  2  0  0  0  0
 34 57  1  0  0  0  0
 34 68  1  0  0  0  0
 34 76  2  0  0  0  0
 35 60  1  0  0  0  0
 35 67  1  0  0  0  0
 35 77  2  0  0  0  0
 36 61  1  0  0  0  0
 36 72  1  0  0  0  0
 36 78  2  0  0  0  0
 37 40  1  0  0  0  0
 38 47  1  0  0  0  0
 39 67  1  0  0  0  0
 40 42  1  0  0  0  0
 41 43  1  0  0  0  0
 41 44  1  0  0  0  0
 42 46  1  0  0  0  0
 43 48  1  0  0  0  0
 44 68  1  0  0  0  0
 45 48  1  0  0  0  0
 45 68  1  0  0  0  0
 46 71  1  0  0  0  0
 47 67  1  0  0  0  0
 48 66  1  0  0  0  0
 49 61  1  0  0  0  0
 50 62  1  0  0  0  0
 51 62  1  0  0  0  0
 52 62  1  0  0  0  0
 53 63  1  0  0  0  0
 54 63  1  0  0  0  0
 55 64  1  0  0  0  0
 56 73  1  0  0  0  0
 58 64  1  0  0  0  0
 59 63  1  0  0  0  0
 59 64  1  0  0  0  0
 60 62  1  0  0  0  0
 60 72  1  0  0  0  0
 61 73  1  0  0  0  0
 63 81  1  0  0  0  0
 64 79  1  0  0  0  0
 65 66  1  0  0  0  0
M  CHG  1  73   1
M  ISO  4  34 100  57 100  63 101  81 101
M  END
> <Batch ID>
0140

> <Smiles>
CNC(C)C(=O)NC(C(=O)N1Cc2cc([101O:1][101C:1](C)(C)CC(C)(O)Cc3ccc([100CH2:0][100C:0](=O)N4CCCC(n5nc(-c6ccc(Oc7ccc(F)cc7F)cc6)c(C(N)=O)c5N)C4)s3)ccc2CC1C(=O)NC1CCCc2ccccc21)C(C)(C)C

> <Shape>
0.281

> <Color>
0.121

> <Negative vol penalty>
0.000

$$$$

  -OEChem-04052302513D

 91100  0     1  0  0  0  0  0999 V2000
  -20.4528  -13.7665   28.1338 C   0  0  0  0  0  0  0  0  0  0  0  0
  -21.2908  -13.6184   27.0333 C   0  0  0  0  0  0  0  0  0  0  0  0
  -26.7053  -29.6734   19.8612 C   0  0  0  0  0  0  0  0  0  0  0  0
  -25.6801  -27.6535   20.7017 C   0  0  0  0  0  0  0  0  0  0  0  0
  -19.4079  -14.6887   28.0937 C   0  0  0  0  0  0  0  0  0  0  0  0
  -21.0837  -14.3916   25.8915 C   0  0  0  0  0  0  0  0  0  0  0  0
  -25.3869  -16.3176   24.0428 C   0  0  0  0  0  0  0  0  0  0  0  0
  -25.4425  -30.2113   19.6136 C   0  0  0  0  0  0  0  0  0  0  0  0
  -24.4172  -28.1915   20.4541 C   0  0  0  0  0  0  0  0  0  0  0  0
  -26.2031  -15.4607   23.3056 C   0  0  0  0  0  0  0  0  0  0  0  0
  -20.9179  -29.1750   20.3789 C   0  0  0  0  0  0  0  0  0  0  0  0
  -19.9469  -29.0353   21.3705 C   0  0  0  0  0  0  0  0  0  0  0  0
  -25.3364  -16.4036   21.2613 C   0  0  0  0  0  0  0  0  0  0  0  0
  -30.2158  -19.2571   21.6675 C   0  0  0  0  0  0  0  0  0  0  0  0
  -29.2625  -18.2106   23.6253 C   0  0  0  0  0  0  0  0  0  0  0  0
  -28.7304  -20.5089   23.1039 C   0  0  0  0  0  0  0  0  0  0  0  0
  -21.3464  -30.2591   22.9134 C   0  0  0  0  0  0  0  0  0  0  0  0
  -26.8242  -28.3944   20.4052 C   0  0  0  0  0  0  0  0  0  0  0  0
  -29.1229  -28.3577   21.5108 C   0  0  0  0  0  0  0  0  0  0  0  0
  -19.1938  -15.4805   26.9544 C   0  0  0  0  0  0  0  0  0  0  0  0
  -24.5299  -17.2179   23.3936 C   0  0  0  0  0  0  0  0  0  0  0  0
  -20.0341  -15.3243   25.8356 C   0  0  0  0  0  0  0  0  0  0  0  0
  -24.5123  -17.2726   21.9926 C   0  0  0  0  0  0  0  0  0  0  0  0
  -30.0755  -18.1422   22.4939 C   0  0  0  0  0  0  0  0  0  0  0  0
  -29.5433  -20.4405   21.9725 C   0  0  0  0  0  0  0  0  0  0  0  0
  -24.2984  -29.4705   19.9101 C   0  0  0  0  0  0  0  0  0  0  0  0
  -26.1758  -15.5016   21.9147 C   0  0  0  0  0  0  0  0  0  0  0  0
  -22.1032  -29.8567   20.6546 C   0  0  0  0  0  0  0  0  0  0  0  0
  -20.1611  -29.5774   22.6377 C   0  0  0  0  0  0  0  0  0  0  0  0
  -28.5900  -19.3940   23.9303 C   0  0  0  0  0  0  0  0  0  0  0  0
  -22.3175  -30.3988   21.9218 C   0  0  0  0  0  0  0  0  0  0  0  0
  -28.1284  -27.8379   20.6607 C   0  0  0  0  0  0  0  0  0  0  0  0
  -30.1639  -27.4680   21.4057 C   0  0  0  0  0  0  0  0  0  0  0  0
  -29.1070  -29.5392   22.3230 C   0  0  0  0  0  0  0  0  0  0  0  0
  -21.3813  -17.6415   23.2923 C   0  0  0  0  0  0  0  0  0  0  0  0
  -22.1830  -20.2783   21.5815 C   0  0  0  0  0  0  0  0  0  0  0  0
  -24.4639  -21.8614   19.5969 C   0  0  0  0  0  0  0  0  0  0  0  0
  -30.4532  -21.6740   19.9733 C   0  0  0  0  0  0  0  0  0  0  0  0
  -18.0223  -16.4303   26.9402 C   0  0  0  0  0  0  0  0  0  0  0  0
  -23.6755  -18.1542   24.2033 C   0  0  0  0  0  0  0  0  0  0  0  0
  -23.6249  -18.2350   21.2477 C   0  0  0  0  0  0  0  0  0  0  0  0
  -18.1005  -17.4774   25.8322 C   0  0  0  0  0  0  0  0  0  0  0  0
  -29.3844  -12.1184   18.1715 C   0  0  0  0  0  0  0  0  0  0  0  0
  -32.1362  -24.3565   18.3457 C   0  0  0  0  0  0  0  0  0  0  0  0
  -18.4759  -16.8241   24.5058 C   0  0  0  0  0  0  0  0  0  0  0  0
  -28.4641  -11.2448   19.0106 C   0  0  0  0  0  0  0  0  0  0  0  0
  -30.3262  -12.9266   19.0513 C   0  0  0  0  0  0  0  0  0  0  0  0
  -31.3938  -25.6014   18.8368 C   0  0  0  0  0  0  0  0  0  0  0  0
  -31.1884  -23.1769   18.1360 C   0  0  0  0  0  0  0  0  0  0  0  0
  -29.5996  -24.0927   19.7810 C   0  0  0  0  0  0  0  0  0  0  0  0
  -19.8569  -16.1625   24.5882 C   0  0  1  0  0  0  0  0  0  0  0  0
  -22.4642  -18.6733   23.4347 C   0  0  1  0  0  0  0  0  0  0  0  0
  -27.6634  -12.0702   20.0303 C   0  0  2  0  0  0  0  0  0  0  0  0
  -29.5621  -13.7847   20.0720 C   0  0  1  0  0  0  0  0  0  0  0  0
  -28.6077  -12.9116   20.9360 C   0  0  1  0  0  0  0  0  0  0  0  0
  -30.5221  -25.2884   20.0688 C   0  0  2  0  0  0  0  0  0  0  0  0
  -26.7575  -11.1252   20.8276 C   0  0  0  0  0  0  0  0  0  0  0  0
  -25.5002  -23.7192   18.2658 C   0  0  0  0  0  0  0  0  0  0  0  0
  -30.8916  -13.7686   22.1870 C   0  0  0  0  0  0  0  0  0  0  0  0
  -31.8688  -14.7437   20.0938 C   0  0  0  0  0  0  0  0  0  0  0  0
  -20.2834  -19.2918   19.4071 C   0  0  0  0  0  0  0  0  0  0  0  0
  -21.3776  -20.8918   17.8225 C   0  0  0  0  0  0  0  0  0  0  0  0
  -20.1871  -21.7533   19.8382 C   0  0  0  0  0  0  0  0  0  0  0  0
  -25.8711  -22.9327   21.9699 C   0  0  0  0  0  0  0  0  0  0  0  0
  -30.8027  -16.8610   22.1638 C   0  0  0  0  0  0  0  0  0  0  0  0
  -27.8086  -13.7724   21.9253 C   0  0  0  0  0  0  0  0  0  1  0  0
  -29.9537  -15.9525   21.2646 C   0  0  0  0  0  0  0  0  0  0  0  0
  -22.4070  -20.5762   20.1186 C   0  0  1  0  0  0  0  0  0  0  0  0
  -25.0331  -23.2680   19.6409 C   0  0  2  0  0  0  0  0  0  0  0  0
  -30.5750  -14.5716   20.9114 C   0  0  0  0  0  0  0  0  0  0  0  0
  -21.0792  -20.6087   19.3103 C   0  0  0  0  0  0  0  0  0  0  0  0
  -28.5041  -26.7058   20.0597 N   0  0  0  0  0  0  0  0  0  0  0  0
  -29.7462  -26.5069   20.5327 N   0  0  0  0  0  0  0  0  0  0  0  0
  -22.8033  -19.1256   22.0839 N   0  0  0  0  0  0  0  0  0  0  0  0
  -30.3984  -22.9364   19.3455 N   0  0  0  0  0  0  0  0  0  0  0  0
  -31.3868  -27.4218   21.9756 N   0  0  0  0  0  0  0  0  0  0  0  0
  -28.6378  -29.4384   23.6398 N   0  0  0  0  0  0  0  0  0  0  0  0
  -29.6859  -21.5733   21.1334 N   0  0  0  0  0  0  0  0  0  0  0  0
  -20.9015  -17.1597   24.4952 N   0  0  0  0  0  0  0  0  0  0  0  0
  -23.1684  -21.8197   20.0672 N   0  0  0  0  0  0  0  0  0  0  0  0
  -26.1930  -23.3284   20.5746 N   0  3  0  0  0  0  0  0  0  0  0  0
  -29.4818  -30.6546   21.8884 O   0  0  0  0  0  0  0  0  0  0  0  0
  -21.0076  -17.3082   22.1738 O   0  0  0  0  0  0  0  0  0  0  0  0
  -21.4893  -21.0440   22.2553 O   0  0  0  0  0  0  0  0  0  0  0  0
  -25.1032  -20.8967   19.1831 O   0  0  0  0  0  0  0  0  0  0  0  0
  -31.1521  -20.7589   19.5307 O   0  0  0  0  0  0  0  0  0  0  0  0
  -23.0659  -29.9952   19.6689 O   0  0  0  0  0  0  0  0  0  0  0  0
  -26.9709  -14.6658   21.1928 O   0  0  0  0  0  0  0  0  0  1  0  0
  -19.2279  -29.4445   23.5894 F   0  0  0  0  0  0  0  0  0  0  0  0
  -27.8093  -19.4596   25.0168 F   0  0  0  0  0  0  0  0  0  0  0  0
  -23.4537  -31.0558   22.1923 F   0  0  0  0  0  0  0  0  0  0  0  0
  1  2  1  0  0  0  0
  1  5  2  0  0  0  0
  2  6  2  0  0  0  0
  3  8  2  0  0  0  0
  3 18  1  0  0  0  0
  4  9  1  0  0  0  0
  4 18  2  0  0  0  0
  5 20  1  0  0  0  0
  6 22  1  0  0  0  0
  7 10  2  0  0  0  0
  7 21  1  0  0  0  0
  8 26  1  0  0  0  0
  9 26  2  0  0  0  0
 10 27  1  0  0  0  0
 11 12  2  0  0  0  0
 11 28  1  0  0  0  0
 12 29  1  0  0  0  0
 13 23  1  0  0  0  0
 13 27  2  0  0  0  0
 14 24  2  0  0  0  0
 14 25  1  0  0  0  0
 15 24  1  0  0  0  0
 15 30  2  0  0  0  0
 16 25  2  0  0  0  0
 16 30  1  0  0  0  0
 17 29  2  0  0  0  0
 17 31  1  0  0  0  0
 18 32  1  0  0  0  0
 19 32  1  0  0  0  0
 19 33  2  0  0  0  0
 19 34  1  0  0  0  0
 20 22  2  0  0  0  0
 20 39  1  0  0  0  0
 21 23  2  0  0  0  0
 21 40  1  0  0  0  0
 22 51  1  0  0  0  0
 23 41  1  0  0  0  0
 24 65  1  0  0  0  0
 25 78  1  0  0  0  0
 26 87  1  0  0  0  0
 27 88  1  0  0  0  0
 28 31  2  0  0  0  0
 28 87  1  0  0  0  0
 29 89  1  0  0  0  0
 30 90  1  0  0  0  0
 31 91  1  0  0  0  0
 32 72  2  0  0  0  0
 33 73  1  0  0  0  0
 33 76  1  0  0  0  0
 34 77  1  0  0  0  0
 34 82  2  0  0  0  0
 35 52  1  0  0  0  0
 35 79  1  0  0  0  0
 35 83  2  0  0  0  0
 36 68  1  0  0  0  0
 36 74  1  0  0  0  0
 36 84  2  0  0  0  0
 37 69  1  0  0  0  0
 37 80  1  0  0  0  0
 37 85  2  0  0  0  0
 38 75  1  0  0  0  0
 38 78  1  0  0  0  0
 38 86  2  0  0  0  0
 39 42  1  0  0  0  0
 40 52  1  0  0  0  0
 41 74  1  0  0  0  0
 42 45  1  0  0  0  0
 43 46  1  0  0  0  0
 43 47  1  0  0  0  0
 44 48  1  0  0  0  0
 44 49  1  0  0  0  0
 45 51  1  0  0  0  0
 46 53  1  0  0  0  0
 47 54  1  0  0  0  0
 48 56  1  0  0  0  0
 49 75  1  0  0  0  0
 50 56  1  0  0  0  0
 50 75  1  0  0  0  0
 51 79  1  0  0  0  0
 52 74  1  0  0  0  0
 53 55  1  0  0  0  0
 53 57  1  0  0  0  0
 54 55  1  0  0  0  0
 54 70  1  0  0  0  0
 55 66  1  0  0  0  0
 56 73  1  0  0  0  0
 58 69  1  0  0  0  0
 59 70  1  0  0  0  0
 60 70  1  0  0  0  0
 61 71  1  0  0  0  0
 62 71  1  0  0  0  0
 63 71  1  0  0  0  0
 64 81  1  0  0  0  0
 65 67  1  0  0  0  0
 66 88  1  0  0  0  0
 67 70  1  0  0  0  0
 68 71  1  0  0  0  0
 68 80  1  0  0  0  0
 69 81  1  0  0  0  0
 72 73  1  0  0  0  0
M  CHG  1  81   1
M  ISO  4  38 100  66 101  78 100  88 101
M  END
> <Batch ID>
0140

> <Smiles>
CNC(C)C(=O)NC(C(=O)N1Cc2cc([101O:1][101CH2:1]C3C(C)CCCC3C(C)(C)CCc3cc(F)cc([100NH:0][100C:0](=O)N4CCCC(n5nc(-c6ccc(Oc7ccc(F)cc7F)cc6)c(C(N)=O)c5N)C4)c3)ccc2CC1C(=O)NC1CCCc2ccccc21)C(C)(C)C

> <Shape>
0.225

> <Color>
0.047

> <Negative vol penalty>
0.000

$$$$

  -OEChem-04052302513D

 85 93  0     1  0  0  0  0  0999 V2000
  -22.1171  -11.4235   20.0002 C   0  0  0  0  0  0  0  0  0  0  0  0
  -21.7375  -12.7617   20.0244 C   0  0  0  0  0  0  0  0  0  0  0  0
  -28.8531  -25.2560   23.1450 C   0  0  0  0  0  0  0  0  0  0  0  0
  -26.8032  -23.9950   23.3571 C   0  0  0  0  0  0  0  0  0  0  0  0
  -23.4126  -11.0608   20.3662 C   0  0  0  0  0  0  0  0  0  0  0  0
  -22.6530  -13.7380   20.4157 C   0  0  0  0  0  0  0  0  0  0  0  0
  -23.0992  -19.4475   18.2461 C   0  0  0  0  0  0  0  0  0  0  0  0
  -29.4357  -24.4771   24.1447 C   0  0  0  0  0  0  0  0  0  0  0  0
  -27.3858  -23.2161   24.3568 C   0  0  0  0  0  0  0  0  0  0  0  0
  -22.6352  -20.6719   18.7251 C   0  0  0  0  0  0  0  0  0  0  0  0
  -28.0771  -23.5036   27.6539 C   0  0  0  0  0  0  0  0  0  0  0  0
  -27.3235  -23.2505   28.8000 C   0  0  0  0  0  0  0  0  0  0  0  0
  -24.7852  -21.0833   19.7387 C   0  0  0  0  0  0  0  0  0  0  0  0
  -18.0970  -27.9184   23.4637 C   0  0  0  0  0  0  0  0  0  0  0  0
  -27.4589  -20.8778   28.3649 C   0  0  0  0  0  0  0  0  0  0  0  0
  -27.5368  -25.0150   22.7512 C   0  0  0  0  0  0  0  0  0  0  0  0
  -26.9435  -25.5711   20.3333 C   0  0  0  0  0  0  0  0  0  0  0  0
  -24.3474  -12.0341   20.7529 C   0  0  0  0  0  0  0  0  0  0  0  0
  -24.4085  -19.0263   18.5196 C   0  0  0  0  0  0  0  0  0  0  0  0
  -23.9619  -13.3878   20.7886 C   0  0  0  0  0  0  0  0  0  0  0  0
  -25.2642  -19.8543   19.2599 C   0  0  0  0  0  0  0  0  0  0  0  0
  -19.3235  -27.6798   22.7791 C   0  0  0  0  0  0  0  0  0  0  0  0
  -28.7021  -23.4571   24.7507 C   0  0  0  0  0  0  0  0  0  0  0  0
  -23.4773  -21.4887   19.4739 C   0  0  0  0  0  0  0  0  0  0  0  0
  -28.5216  -22.4438   26.8632 C   0  0  0  0  0  0  0  0  0  0  0  0
  -27.0144  -21.9376   29.1555 C   0  0  0  0  0  0  0  0  0  0  0  0
  -28.2125  -21.1310   27.2188 C   0  0  0  0  0  0  0  0  0  0  0  0
  -26.9343  -25.8196   21.7189 C   0  0  0  0  0  0  0  0  0  0  0  0
  -17.9562  -29.2393   23.8280 C   0  0  0  0  0  0  0  0  0  0  0  0
  -26.2413  -26.6200   19.7917 C   0  0  0  0  0  0  0  0  0  0  0  0
  -20.0735  -28.8278   22.6459 C   0  0  0  0  0  0  0  0  0  0  0  0
  -27.5340  -24.4890   19.6012 C   0  0  0  0  0  0  0  0  0  0  0  0
  -25.6963  -16.5715   20.0750 C   0  0  0  0  0  0  0  0  0  0  0  0
  -28.4684  -17.7943   18.9163 C   0  0  0  0  0  0  0  0  0  0  0  0
  -30.1678  -20.5077   17.7348 C   0  0  0  0  0  0  0  0  0  0  0  0
  -22.0266  -30.2613   21.9555 C   0  0  0  0  0  0  0  0  0  0  0  0
  -25.7220  -11.5891   21.1854 C   0  0  0  0  0  0  0  0  0  0  0  0
  -24.9022  -17.7148   17.9730 C   0  0  0  0  0  0  0  0  0  0  0  0
  -26.6849  -19.4573   19.5638 C   0  0  0  0  0  0  0  0  0  0  0  0
  -26.7437  -12.7225   21.2281 C   0  0  0  0  0  0  0  0  0  0  0  0
  -25.1716  -31.2194   20.5888 C   0  0  0  0  0  0  0  0  0  0  0  0
  -26.1591  -13.9420   21.9335 C   0  0  0  0  0  0  0  0  0  0  0  0
  -25.9793  -29.9195   20.5918 C   0  0  0  0  0  0  0  0  0  0  0  0
  -24.2667  -31.3276   21.8149 C   0  0  0  0  0  0  0  0  0  0  0  0
  -24.1918  -28.8756   22.0416 C   0  0  0  0  0  0  0  0  0  0  0  0
  -24.9338  -14.4785   21.1835 C   0  0  1  0  0  0  0  0  0  0  0  0
  -26.0911  -17.1543   18.7476 C   0  0  1  0  0  0  0  0  0  0  0  0
  -25.0700  -28.6914   20.7932 C   0  0  2  0  0  0  0  0  0  0  0  0
  -16.8348  -29.8817   24.5473 C   0  0  0  0  0  0  0  0  0  0  0  0
  -32.4301  -21.2063   16.9032 C   0  0  0  0  0  0  0  0  0  0  0  0
  -22.2924  -25.4719   19.5689 C   0  0  0  0  0  0  0  0  0  0  0  0
  -29.5162  -17.8036   21.7819 C   0  0  0  0  0  0  0  0  0  0  0  0
  -31.3389  -19.3496   21.0365 C   0  0  0  0  0  0  0  0  0  0  0  0
  -31.1760  -17.0571   20.0667 C   0  0  0  0  0  0  0  0  0  0  0  0
  -18.9734  -23.7566   20.8502 C   0  0  0  0  0  0  0  0  0  0  0  0
  -19.3498  -24.8666   18.6508 C   0  0  0  0  0  0  0  0  0  0  0  0
  -29.0885  -21.2636   15.0848 C   0  0  0  0  0  0  0  0  0  0  0  0
  -19.7404  -26.3239   22.2628 C   0  0  0  0  0  0  0  0  0  0  0  0
  -19.5297  -26.2153   20.7461 C   0  0  0  0  0  0  0  0  0  0  0  0
  -21.6803  -23.0385   19.6308 C   0  0  0  0  0  0  0  0  0  1  0  0
  -29.4762  -18.8072   19.4034 C   0  0  1  0  0  0  0  0  0  0  0  0
  -31.0536  -20.6889   16.5154 C   0  0  2  0  0  0  0  0  0  0  0  0
  -21.3568  -24.4309   20.2118 C   0  0  2  0  0  0  0  0  0  0  0  0
  -30.3495  -18.2613   20.5682 C   0  0  0  0  0  0  0  0  0  0  0  0
  -19.8318  -24.8162   20.1191 C   0  0  0  0  0  0  0  0  0  0  0  0
  -26.2784  -26.9386   22.0377 N   0  0  0  0  0  0  0  0  0  0  0  0
  -25.8690  -27.4026   20.8448 N   0  0  0  0  0  0  0  0  0  0  0  0
  -27.1190  -18.1629   19.0128 N   0  0  0  0  0  0  0  0  0  0  0  0
  -23.4314  -30.1310   21.9390 N   0  0  0  0  0  0  0  0  0  0  0  0
  -25.9123  -26.9399   18.5221 N   0  0  0  0  0  0  0  0  0  0  0  0
  -28.2196  -23.4957   20.3138 N   0  0  0  0  0  0  0  0  0  0  0  0
  -21.3365  -29.0528   22.0445 N   0  0  0  0  0  0  0  0  0  0  0  0
  -25.3446  -15.2362   20.0210 N   0  0  0  0  0  0  0  0  0  0  0  0
  -30.2371  -19.2227   18.2301 N   0  0  0  0  0  0  0  0  0  0  0  0
  -30.4370  -21.6588   15.5667 N   0  3  0  0  0  0  0  0  0  0  0  0
  -27.4700  -24.4139   18.3507 O   0  0  0  0  0  0  0  0  0  0  0  0
  -25.7111  -17.2803   21.0745 O   0  0  0  0  0  0  0  0  0  0  0  0
  -28.8640  -16.7187   18.4601 O   0  0  0  0  0  0  0  0  0  0  0  0
  -29.4857  -21.4163   18.2035 O   0  0  0  0  0  0  0  0  0  0  0  0
  -21.4758  -31.3617   21.8678 O   0  0  0  0  0  0  0  0  0  0  0  0
  -29.2703  -22.6967   25.7261 O   0  0  0  0  0  0  0  0  0  0  0  0
  -23.0268  -22.6840   19.9432 O   0  0  0  0  0  0  0  0  0  1  0  0
  -26.2920  -21.6946   30.2570 F   0  0  0  0  0  0  0  0  0  0  0  0
  -28.6377  -20.1087   26.4638 F   0  0  0  0  0  0  0  0  0  0  0  0
  -19.2991  -30.1857   23.3449 S   0  0  0  0  0  0  0  0  0  0  0  0
  1  2  1  0  0  0  0
  1  5  2  0  0  0  0
  2  6  2  0  0  0  0
  3  8  2  0  0  0  0
  3 16  1  0  0  0  0
  4  9  1  0  0  0  0
  4 16  2  0  0  0  0
  5 18  1  0  0  0  0
  6 20  1  0  0  0  0
  7 10  2  0  0  0  0
  7 19  1  0  0  0  0
  8 23  1  0  0  0  0
  9 23  2  0  0  0  0
 10 24  1  0  0  0  0
 11 12  2  0  0  0  0
 11 25  1  0  0  0  0
 12 26  1  0  0  0  0
 13 21  1  0  0  0  0
 13 24  2  0  0  0  0
 14 22  1  0  0  0  0
 14 29  2  0  0  0  0
 15 26  2  0  0  0  0
 15 27  1  0  0  0  0
 16 28  1  0  0  0  0
 17 28  1  0  0  0  0
 17 30  2  0  0  0  0
 17 32  1  0  0  0  0
 18 20  2  0  0  0  0
 18 37  1  0  0  0  0
 19 21  2  0  0  0  0
 19 38  1  0  0  0  0
 20 46  1  0  0  0  0
 21 39  1  0  0  0  0
 22 31  2  0  0  0  0
 22 58  1  0  0  0  0
 23 81  1  0  0  0  0
 24 82  1  0  0  0  0
 25 27  2  0  0  0  0
 25 81  1  0  0  0  0
 26 83  1  0  0  0  0
 27 84  1  0  0  0  0
 28 66  2  0  0  0  0
 29 49  1  0  0  0  0
 29 85  1  0  0  0  0
 30 67  1  0  0  0  0
 30 70  1  0  0  0  0
 31 72  1  0  0  0  0
 31 85  1  0  0  0  0
 32 71  1  0  0  0  0
 32 76  2  0  0  0  0
 33 47  1  0  0  0  0
 33 73  1  0  0  0  0
 33 77  2  0  0  0  0
 34 61  1  0  0  0  0
 34 68  1  0  0  0  0
 34 78  2  0  0  0  0
 35 62  1  0  0  0  0
 35 74  1  0  0  0  0
 35 79  2  0  0  0  0
 36 69  1  0  0  0  0
 36 72  1  0  0  0  0
 36 80  2  0  0  0  0
 37 40  1  0  0  0  0
 38 47  1  0  0  0  0
 39 68  1  0  0  0  0
 40 42  1  0  0  0  0
 41 43  1  0  0  0  0
 41 44  1  0  0  0  0
 42 46  1  0  0  0  0
 43 48  1  0  0  0  0
 44 69  1  0  0  0  0
 45 48  1  0  0  0  0
 45 69  1  0  0  0  0
 46 73  1  0  0  0  0
 47 68  1  0  0  0  0
 48 67  1  0  0  0  0
 50 62  1  0  0  0  0
 51 63  1  0  0  0  0
 52 64  1  0  0  0  0
 53 64  1  0  0  0  0
 54 64  1  0  0  0  0
 55 65  1  0  0  0  0
 56 65  1  0  0  0  0
 57 75  1  0  0  0  0
 58 59  1  0  0  0  0
 59 65  1  0  0  0  0
 60 63  1  0  0  0  0
 60 82  1  0  0  0  0
 61 64  1  0  0  0  0
 61 74  1  0  0  0  0
 62 75  1  0  0  0  0
 63 65  1  0  0  0  0
 66 67  1  0  0  0  0
M  CHG  1  75   1
M  ISO  4  36 100  60 101  72 100  82 101
M  END
> <Batch ID>
0140

> <Smiles>
CNC(C)C(=O)NC(C(=O)N1Cc2cc([101O:1][101CH2:1]C(C)C(C)(C)CCc3cc(C)sc3[100NH:0][100C:0](=O)N3CCCC(n4nc(-c5ccc(Oc6ccc(F)cc6F)cc5)c(C(N)=O)c4N)C3)ccc2CC1C(=O)NC1CCCc2ccccc21)C(C)(C)C

> <Shape>
0.211

> <Color>
0.069

> <Negative vol penalty>
0.000

$$$$

  -OEChem-04052302513D

 83 92  0     1  0  0  0  0  0999 V2000
  -28.4516  -25.8736   15.7001 C   0  0  0  0  0  0  0  0  0  0  0  0
  -27.2938  -25.8464   16.4709 C   0  0  0  0  0  0  0  0  0  0  0  0
  -26.2804  -12.4036   20.7668 C   0  0  0  0  0  0  0  0  0  0  0  0
  -24.1510  -12.8787   19.7290 C   0  0  0  0  0  0  0  0  0  0  0  0
  -29.6156  -26.4450   16.2124 C   0  0  0  0  0  0  0  0  0  0  0  0
  -27.2997  -26.3898   17.7551 C   0  0  0  0  0  0  0  0  0  0  0  0
  -23.2195  -29.2448   18.6751 C   0  0  0  0  0  0  0  0  0  0  0  0
  -25.8677  -11.0944   21.0143 C   0  0  0  0  0  0  0  0  0  0  0  0
  -23.7383  -11.5695   19.9764 C   0  0  0  0  0  0  0  0  0  0  0  0
  -22.0302  -28.5796   18.9698 C   0  0  0  0  0  0  0  0  0  0  0  0
  -24.2202   -8.5100   18.6244 C   0  0  0  0  0  0  0  0  0  0  0  0
  -23.5814   -7.8270   17.5896 C   0  0  0  0  0  0  0  0  0  0  0  0
  -22.3900  -28.9900   21.3196 C   0  0  0  0  0  0  0  0  0  0  0  0
  -21.2184  -22.1202   21.6300 C   0  0  0  0  0  0  0  0  0  0  0  0
  -21.6185   -7.5657   18.9738 C   0  0  0  0  0  0  0  0  0  0  0  0
  -25.4221  -13.2958   20.1242 C   0  0  0  0  0  0  0  0  0  0  0  0
  -26.5123  -15.1288   18.7246 C   0  0  0  0  0  0  0  0  0  0  0  0
  -29.6330  -27.0043   17.4999 C   0  0  0  0  0  0  0  0  0  0  0  0
  -24.0098  -29.7790   19.7030 C   0  0  0  0  0  0  0  0  0  0  0  0
  -28.4653  -26.9681   18.2857 C   0  0  0  0  0  0  0  0  0  0  0  0
  -23.5876  -29.6637   21.0351 C   0  0  0  0  0  0  0  0  0  0  0  0
  -20.0005  -22.3963   20.9638 C   0  0  0  0  0  0  0  0  0  0  0  0
  -24.5966  -10.6773   20.6191 C   0  0  0  0  0  0  0  0  0  0  0  0
  -21.6167  -28.4496   20.2924 C   0  0  0  0  0  0  0  0  0  0  0  0
  -23.5583   -8.7209   19.8340 C   0  0  0  0  0  0  0  0  0  0  0  0
  -22.2805   -7.3549   17.7643 C   0  0  0  0  0  0  0  0  0  0  0  0
  -22.2575   -8.2487   20.0087 C   0  0  0  0  0  0  0  0  0  0  0  0
  -25.8476  -14.6485   19.8688 C   0  0  0  0  0  0  0  0  0  0  0  0
  -19.7479  -21.3072   20.1626 C   0  0  0  0  0  0  0  0  0  0  0  0
  -26.6914  -16.4686   18.9686 C   0  0  0  0  0  0  0  0  0  0  0  0
  -21.6231  -20.8819   21.1885 C   0  0  0  0  0  0  0  0  0  0  0  0
  -26.9304  -14.4268   17.5464 C   0  0  0  0  0  0  0  0  0  0  0  0
  -26.9629  -29.2641   20.7603 C   0  0  0  0  0  0  0  0  0  0  0  0
  -26.3046  -31.8035   22.6683 C   0  0  0  0  0  0  0  0  0  0  0  0
  -23.9520  -33.7350   24.2116 C   0  0  0  0  0  0  0  0  0  0  0  0
  -23.7901  -20.4188   22.3868 C   0  0  0  0  0  0  0  0  0  0  0  0
  -30.9279  -27.5686   18.0287 C   0  0  0  0  0  0  0  0  0  0  0  0
  -25.2765  -30.5170   19.3666 C   0  0  0  0  0  0  0  0  0  0  0  0
  -24.3896  -30.2372   22.1737 C   0  0  0  0  0  0  0  0  0  0  0  0
  -30.7484  -28.4583   19.2561 C   0  0  0  0  0  0  0  0  0  0  0  0
  -27.2451  -19.5780   22.5684 C   0  0  0  0  0  0  0  0  0  0  0  0
  -18.6841  -23.8340   22.5515 C   0  0  0  0  0  0  0  0  0  0  0  0
  -29.8215  -27.7917   20.2677 C   0  0  0  0  0  0  0  0  0  0  0  0
  -19.3142  -25.1469   23.0055 C   0  0  0  0  0  0  0  0  0  0  0  0
  -27.3404  -18.2654   21.7875 C   0  0  0  0  0  0  0  0  0  0  0  0
  -19.9450  -24.8888   20.7244 C   0  0  0  0  0  0  0  0  0  0  0  0
  -25.9466  -19.6693   23.3680 C   0  0  0  0  0  0  0  0  0  0  0  0
  -24.8167  -18.1323   21.8091 C   0  0  0  0  0  0  0  0  0  0  0  0
  -19.1704  -23.6128   21.1038 C   0  0  1  0  0  0  0  0  0  0  0  0
  -28.4252  -27.5695   19.6738 C   0  0  1  0  0  0  0  0  0  0  0  0
  -26.2622  -30.5731   20.5296 C   0  0  1  0  0  0  0  0  0  0  0  0
  -19.4510  -25.9435   21.7126 C   0  0  2  0  0  0  0  0  0  0  0  0
  -26.0781  -18.0227   20.9370 C   0  0  2  0  0  0  0  0  0  0  0  0
  -18.6597  -20.9683   19.2333 C   0  0  0  0  0  0  0  0  0  0  0  0
  -23.7198  -35.7158   25.7347 C   0  0  0  0  0  0  0  0  0  0  0  0
  -27.1096  -30.0674   25.0448 C   0  0  0  0  0  0  0  0  0  0  0  0
  -25.9772  -31.7199   26.5465 C   0  0  0  0  0  0  0  0  0  0  0  0
  -27.9226  -32.4298   25.1559 C   0  0  0  0  0  0  0  0  0  0  0  0
  -22.4549  -35.2729   22.1738 C   0  0  0  0  0  0  0  0  0  0  0  0
  -20.3860  -27.1272   21.8392 C   0  0  0  0  0  0  0  0  0  1  0  0
  -25.6989  -31.9819   24.0395 C   0  0  1  0  0  0  0  0  0  0  0  0
  -23.7796  -35.2411   24.2912 C   0  0  2  0  0  0  0  0  0  0  0  0
  -26.6627  -31.5371   25.1756 C   0  0  0  0  0  0  0  0  0  0  0  0
  -25.6200  -15.6052   20.7727 N   0  0  0  0  0  0  0  0  0  0  0  0
  -26.1447  -16.7001   20.1965 N   0  0  0  0  0  0  0  0  0  0  0  0
  -25.6238  -30.9444   21.7941 N   0  0  0  0  0  0  0  0  0  0  0  0
  -24.7937  -19.4331   22.4964 N   0  0  0  0  0  0  0  0  0  0  0  0
  -27.2616  -17.4593   18.2506 N   0  0  0  0  0  0  0  0  0  0  0  0
  -26.6674  -13.0530   17.4587 N   0  0  0  0  0  0  0  0  0  0  0  0
  -22.7597  -20.0969   21.5040 N   0  0  0  0  0  0  0  0  0  0  0  0
  -27.6756  -28.8074   19.6681 N   0  0  0  0  0  0  0  0  0  0  0  0
  -25.2807  -33.3771   24.1227 N   0  0  0  0  0  0  0  0  0  0  0  0
  -22.5216  -35.6552   23.6078 N   0  3  0  0  0  0  0  0  0  0  0  0
  -27.5343  -14.9976   16.6067 O   0  0  0  0  0  0  0  0  0  0  0  0
  -26.8655  -28.7103   21.8491 O   0  0  0  0  0  0  0  0  0  0  0  0
  -27.3396  -32.4100   22.3809 O   0  0  0  0  0  0  0  0  0  0  0  0
  -23.0033  -32.9540   24.2304 O   0  0  0  0  0  0  0  0  0  0  0  0
  -23.8548  -21.4826   23.0081 O   0  0  0  0  0  0  0  0  0  0  0  0
  -20.7322  -20.3795   20.2939 O   0  0  0  0  0  0  0  0  0  0  0  0
  -24.1936   -9.3998   20.8602 O   0  0  0  0  0  0  0  0  0  0  0  0
  -20.4567  -27.8002   20.5828 O   0  0  0  0  0  0  0  0  0  1  0  0
  -21.6666   -6.7003   16.7699 F   0  0  0  0  0  0  0  0  0  0  0  0
  -21.6160   -8.4492   21.1681 F   0  0  0  0  0  0  0  0  0  0  0  0
  1  2  1  0  0  0  0
  1  5  2  0  0  0  0
  2  6  2  0  0  0  0
  3  8  2  0  0  0  0
  3 16  1  0  0  0  0
  4  9  1  0  0  0  0
  4 16  2  0  0  0  0
  5 18  1  0  0  0  0
  6 20  1  0  0  0  0
  7 10  2  0  0  0  0
  7 19  1  0  0  0  0
  8 23  1  0  0  0  0
  9 23  2  0  0  0  0
 10 24  1  0  0  0  0
 11 12  2  0  0  0  0
 11 25  1  0  0  0  0
 12 26  1  0  0  0  0
 13 21  1  0  0  0  0
 13 24  2  0  0  0  0
 14 22  1  0  0  0  0
 14 31  2  0  0  0  0
 15 26  2  0  0  0  0
 15 27  1  0  0  0  0
 16 28  1  0  0  0  0
 17 28  1  0  0  0  0
 17 30  2  0  0  0  0
 17 32  1  0  0  0  0
 18 20  2  0  0  0  0
 18 37  1  0  0  0  0
 19 21  2  0  0  0  0
 19 38  1  0  0  0  0
 20 50  1  0  0  0  0
 21 39  1  0  0  0  0
 22 29  2  0  0  0  0
 22 49  1  0  0  0  0
 23 80  1  0  0  0  0
 24 81  1  0  0  0  0
 25 27  2  0  0  0  0
 25 80  1  0  0  0  0
 26 82  1  0  0  0  0
 27 83  1  0  0  0  0
 28 64  2  0  0  0  0
 29 54  1  0  0  0  0
 29 79  1  0  0  0  0
 30 65  1  0  0  0  0
 30 68  1  0  0  0  0
 31 70  1  0  0  0  0
 31 79  1  0  0  0  0
 32 69  1  0  0  0  0
 32 74  2  0  0  0  0
 33 51  1  0  0  0  0
 33 71  1  0  0  0  0
 33 75  2  0  0  0  0
 34 61  1  0  0  0  0
 34 66  1  0  0  0  0
 34 76  2  0  0  0  0
 35 62  1  0  0  0  0
 35 72  1  0  0  0  0
 35 77  2  0  0  0  0
 36 67  1  0  0  0  0
 36 70  1  0  0  0  0
 36 78  2  0  0  0  0
 37 40  1  0  0  0  0
 38 51  1  0  0  0  0
 39 66  1  0  0  0  0
 40 43  1  0  0  0  0
 41 45  1  0  0  0  0
 41 47  1  0  0  0  0
 42 44  1  0  0  0  0
 42 49  1  0  0  0  0
 43 50  1  0  0  0  0
 44 52  1  0  0  0  0
 45 53  1  0  0  0  0
 46 49  1  0  0  0  0
 46 52  1  0  0  0  0
 47 67  1  0  0  0  0
 48 53  1  0  0  0  0
 48 67  1  0  0  0  0
 50 71  1  0  0  0  0
 51 66  1  0  0  0  0
 52 60  1  0  0  0  0
 53 65  1  0  0  0  0
 55 62  1  0  0  0  0
 56 63  1  0  0  0  0
 57 63  1  0  0  0  0
 58 63  1  0  0  0  0
 59 73  1  0  0  0  0
 60 81  1  0  0  0  0
 61 63  1  0  0  0  0
 61 72  1  0  0  0  0
 62 73  1  0  0  0  0
 64 65  1  0  0  0  0
M  CHG  1  73   1
M  ISO  4  36 100  60 101  70 100  81 101
M  END
> <Batch ID>
0140

> <Smiles>
CNC(C)C(=O)NC(C(=O)N1Cc2cc([101O:1][101CH2:1]C3CCC(c4cc([100NH:0][100C:0](=O)N5CCCC(n6nc(-c7ccc(Oc8ccc(F)cc8F)cc7)c(C(N)=O)c6N)C5)oc4C)C3)ccc2CC1C(=O)NC1CCCc2ccccc21)C(C)(C)C

> <Shape>
0.236

> <Color>
0.079

> <Negative vol penalty>
0.000

$$$$

  -OEChem-04052302513D

 88 97  0     1  0  0  0  0  0999 V2000
  -27.6976  -34.3521   23.8956 C   0  0  0  0  0  0  0  0  0  0  0  0
  -27.9155  -33.0322   23.5136 C   0  0  0  0  0  0  0  0  0  0  0  0
  -24.2878   -9.9817   20.8945 C   0  0  0  0  0  0  0  0  0  0  0  0
  -22.5960  -10.4018   22.5674 C   0  0  0  0  0  0  0  0  0  0  0  0
  -26.4684  -34.7261   24.4369 C   0  0  0  0  0  0  0  0  0  0  0  0
  -26.9044  -32.0853   23.6736 C   0  0  0  0  0  0  0  0  0  0  0  0
  -26.3632  -29.1151   19.6079 C   0  0  0  0  0  0  0  0  0  0  0  0
  -27.1713  -21.1591   17.9790 C   0  0  0  0  0  0  0  0  0  0  0  0
  -26.2740  -20.4275   18.7570 C   0  0  0  0  0  0  0  0  0  0  0  0
  -23.7492   -8.7151   20.6679 C   0  0  0  0  0  0  0  0  0  0  0  0
  -22.0574   -9.1353   22.3408 C   0  0  0  0  0  0  0  0  0  0  0  0
  -27.2902  -28.0869   19.4427 C   0  0  0  0  0  0  0  0  0  0  0  0
  -22.7544   -5.9410   23.2021 C   0  0  0  0  0  0  0  0  0  0  0  0
  -22.4186   -5.1709   24.3156 C   0  0  0  0  0  0  0  0  0  0  0  0
  -25.6979  -26.5148   20.3442 C   0  0  0  0  0  0  0  0  0  0  0  0
  -28.0552  -18.9275   19.4007 C   0  0  0  0  0  0  0  0  0  0  0  0
  -20.1198   -5.1029   23.5753 C   0  0  0  0  0  0  0  0  0  0  0  0
  -23.7112  -10.8250   21.8443 C   0  0  0  0  0  0  0  0  0  0  0  0
  -25.5720  -12.4370   22.5127 C   0  0  0  0  0  0  0  0  0  0  0  0
  -25.4384  -33.7854   24.5947 C   0  0  0  0  0  0  0  0  0  0  0  0
  -25.0985  -28.8523   20.1536 C   0  0  0  0  0  0  0  0  0  0  0  0
  -25.6607  -32.4468   24.2187 C   0  0  0  0  0  0  0  0  0  0  0  0
  -24.7559  -27.5410   20.5130 C   0  0  0  0  0  0  0  0  0  0  0  0
  -28.5105  -20.7748   17.9118 C   0  0  0  0  0  0  0  0  0  0  0  0
  -28.9525  -19.6591   18.6227 C   0  0  0  0  0  0  0  0  0  0  0  0
  -26.7159  -19.3117   19.4679 C   0  0  0  0  0  0  0  0  0  0  0  0
  -22.6340   -8.2919   21.3910 C   0  0  0  0  0  0  0  0  0  0  0  0
  -26.9586  -26.7870   19.8135 C   0  0  0  0  0  0  0  0  0  0  0  0
  -21.7729   -6.2922   22.2753 C   0  0  0  0  0  0  0  0  0  0  0  0
  -21.1014   -4.7518   24.5021 C   0  0  0  0  0  0  0  0  0  0  0  0
  -20.4556   -5.8731   22.4619 C   0  0  0  0  0  0  0  0  0  0  0  0
  -24.2675  -12.1332   22.0793 C   0  0  0  0  0  0  0  0  0  0  0  0
  -25.6007  -13.8085   22.5801 C   0  0  0  0  0  0  0  0  0  0  0  0
  -26.6604  -11.5580   22.8262 C   0  0  0  0  0  0  0  0  0  0  0  0
  -23.5347  -29.8046   22.7520 C   0  0  0  0  0  0  0  0  0  0  0  0
  -21.0882  -28.1493   21.4112 C   0  0  0  0  0  0  0  0  0  0  0  0
  -20.0861  -25.6735   19.2869 C   0  0  0  0  0  0  0  0  0  0  0  0
  -24.4442  -18.8160   20.4374 C   0  0  0  0  0  0  0  0  0  0  0  0
  -24.1429  -34.2268   25.2282 C   0  0  0  0  0  0  0  0  0  0  0  0
  -24.1003  -29.9679   20.3006 C   0  0  0  0  0  0  0  0  0  0  0  0
  -23.4040  -27.2029   21.0845 C   0  0  0  0  0  0  0  0  0  0  0  0
  -22.9953  -33.2424   25.0174 C   0  0  0  0  0  0  0  0  0  0  0  0
  -21.8563  -17.2008   22.2734 C   0  0  0  0  0  0  0  0  0  0  0  0
  -32.2294  -24.0258   18.0637 C   0  0  0  0  0  0  0  0  0  0  0  0
  -23.4549  -31.8169   25.3066 C   0  0  0  0  0  0  0  0  0  0  0  0
  -22.3602  -15.7634   22.4223 C   0  0  0  0  0  0  0  0  0  0  0  0
  -31.3728  -25.2421   18.4079 C   0  0  0  0  0  0  0  0  0  0  0  0
  -22.2299  -17.7951   20.9166 C   0  0  0  0  0  0  0  0  0  0  0  0
  -24.1595  -16.2757   20.7230 C   0  0  0  0  0  0  0  0  0  0  0  0
  -31.4820  -23.0370   17.1831 C   0  0  0  0  0  0  0  0  0  0  0  0
  -29.2946  -23.8355   18.1174 C   0  0  0  0  0  0  0  0  0  0  0  0
  -24.5801  -31.3960   24.3536 C   0  0  1  0  0  0  0  0  0  0  0  0
  -23.0264  -29.6752   21.3439 C   0  0  1  0  0  0  0  0  0  0  0  0
  -23.8635  -15.6569   22.0989 C   0  0  2  0  0  0  0  0  0  0  0  0
  -30.0055  -24.8649   19.0173 C   0  0  1  0  0  0  0  0  0  0  0  0
  -30.3820  -19.2303   18.5675 C   0  0  0  0  0  0  0  0  0  0  0  0
  -30.1819  -24.3188   20.4483 C   0  0  0  0  0  0  0  0  0  0  0  0
  -28.7709  -22.2563   15.8795 C   0  0  0  0  0  0  0  0  0  0  0  0
  -18.0242  -24.5291   18.4287 C   0  0  0  0  0  0  0  0  0  0  0  0
  -20.8393  -26.6285   24.0447 C   0  0  0  0  0  0  0  0  0  0  0  0
  -19.4668  -24.9131   22.8438 C   0  0  0  0  0  0  0  0  0  0  0  0
  -18.6593  -27.2682   22.9993 C   0  0  0  0  0  0  0  0  0  0  0  0
  -20.6566  -26.4834   16.4981 C   0  0  0  0  0  0  0  0  0  0  0  0
  -29.1301  -26.1297   19.1004 C   0  0  0  0  0  0  0  0  0  1  0  0
  -29.4635  -21.5828   17.0615 C   0  0  1  0  0  0  0  0  0  0  0  0
  -20.6013  -26.7218   21.4755 C   0  0  1  0  0  0  0  0  0  0  0  0
  -19.0287  -25.6474   18.1980 C   0  0  2  0  0  0  0  0  0  0  0  0
  -19.9179  -26.3893   22.8319 C   0  0  0  0  0  0  0  0  0  0  0  0
  -23.5215  -13.2241   21.8852 N   0  0  0  0  0  0  0  0  0  0  0  0
  -24.3600  -14.2266   22.1982 N   0  0  0  0  0  0  0  0  0  0  0  0
  -22.4648  -28.3291   21.2146 N   0  0  0  0  0  0  0  0  0  0  0  0
  -23.6692  -17.6623   20.6809 N   0  0  0  0  0  0  0  0  0  0  0  0
  -26.5661  -14.6857   22.9283 N   0  0  0  0  0  0  0  0  0  0  0  0
  -26.7900  -11.0986   24.1440 N   0  0  0  0  0  0  0  0  0  0  0  0
  -25.8052  -18.5694   20.2599 N   0  0  0  0  0  0  0  0  0  0  0  0
  -24.0410  -31.0541   23.0548 N   0  0  0  0  0  0  0  0  0  0  0  0
  -19.7432  -26.5305   20.3113 N   0  0  0  0  0  0  0  0  0  0  0  0
  -30.1857  -22.6445   17.8473 N   0  3  1  0  0  0  0  0  0  0  0  0
  -19.6627  -25.4419   16.8651 N   0  3  0  0  0  0  0  0  0  0  0  0
  -27.5030  -11.2039   21.9670 O   0  0  0  0  0  0  0  0  0  0  0  0
  -23.4707  -28.8424   23.5082 O   0  0  0  0  0  0  0  0  0  0  0  0
  -20.2761  -29.0710   21.5239 O   0  0  0  0  0  0  0  0  0  0  0  0
  -21.1117  -24.9983   19.2358 O   0  0  0  0  0  0  0  0  0  0  0  0
  -23.9421  -19.9426   20.4168 O   0  0  0  0  0  0  0  0  0  0  0  0
  -22.1080   -7.0562   21.1700 O   0  0  0  0  0  0  0  0  0  0  0  0
  -27.8617  -25.7816   19.6539 O   0  0  0  0  0  0  0  0  0  1  0  0
  -20.7794   -4.0110   25.5706 F   0  0  0  0  0  0  0  0  0  0  0  0
  -19.5085   -6.2064   21.5743 F   0  0  0  0  0  0  0  0  0  0  0  0
  1  2  1  0  0  0  0
  1  5  2  0  0  0  0
  2  6  2  0  0  0  0
  3 10  2  0  0  0  0
  3 18  1  0  0  0  0
  4 11  1  0  0  0  0
  4 18  2  0  0  0  0
  5 20  1  0  0  0  0
  6 22  1  0  0  0  0
  7 12  2  0  0  0  0
  7 21  1  0  0  0  0
  8  9  2  0  0  0  0
  8 24  1  0  0  0  0
  9 26  1  0  0  0  0
 10 27  1  0  0  0  0
 11 27  2  0  0  0  0
 12 28  1  0  0  0  0
 13 14  2  0  0  0  0
 13 29  1  0  0  0  0
 14 30  1  0  0  0  0
 15 23  1  0  0  0  0
 15 28  2  0  0  0  0
 16 25  1  0  0  0  0
 16 26  2  0  0  0  0
 17 30  2  0  0  0  0
 17 31  1  0  0  0  0
 18 32  1  0  0  0  0
 19 32  1  0  0  0  0
 19 33  2  0  0  0  0
 19 34  1  0  0  0  0
 20 22  2  0  0  0  0
 20 39  1  0  0  0  0
 21 23  2  0  0  0  0
 21 40  1  0  0  0  0
 22 52  1  0  0  0  0
 23 41  1  0  0  0  0
 24 25  2  0  0  0  0
 24 65  1  0  0  0  0
 25 56  1  0  0  0  0
 26 75  1  0  0  0  0
 27 85  1  0  0  0  0
 28 86  1  0  0  0  0
 29 31  2  0  0  0  0
 29 85  1  0  0  0  0
 30 87  1  0  0  0  0
 31 88  1  0  0  0  0
 32 69  2  0  0  0  0
 33 70  1  0  0  0  0
 33 73  1  0  0  0  0
 34 74  1  0  0  0  0
 34 80  2  0  0  0  0
 35 53  1  0  0  0  0
 35 76  1  0  0  0  0
 35 81  2  0  0  0  0
 36 66  1  0  0  0  0
 36 71  1  0  0  0  0
 36 82  2  0  0  0  0
 37 67  1  0  0  0  0
 37 77  1  0  0  0  0
 37 83  2  0  0  0  0
 38 72  1  0  0  0  0
 38 75  1  0  0  0  0
 38 84  2  0  0  0  0
 39 42  1  0  0  0  0
 40 53  1  0  0  0  0
 41 71  1  0  0  0  0
 42 45  1  0  0  0  0
 43 46  1  0  0  0  0
 43 48  1  0  0  0  0
 44 47  1  0  0  0  0
 44 50  1  0  0  0  0
 45 52  1  0  0  0  0
 46 54  1  0  0  0  0
 47 55  1  0  0  0  0
 48 72  1  0  0  0  0
 49 54  1  0  0  0  0
 49 72  1  0  0  0  0
 50 78  1  0  0  0  0
 51 55  1  0  0  0  0
 51 78  1  0  0  0  0
 52 76  1  0  0  0  0
 53 71  1  0  0  0  0
 54 70  1  0  0  0  0
 55 57  1  0  0  0  0
 55 64  1  0  0  0  0
 58 65  1  0  0  0  0
 59 67  1  0  0  0  0
 60 68  1  0  0  0  0
 61 68  1  0  0  0  0
 62 68  1  0  0  0  0
 63 79  1  0  0  0  0
 64 86  1  0  0  0  0
 65 78  1  0  0  0  0
 66 68  1  0  0  0  0
 66 77  1  0  0  0  0
 67 79  1  0  0  0  0
 69 70  1  0  0  0  0
M  CHG  2  78   1  79   1
M  ISO  4  38 100  64 101  75 100  86 101
M  END
> <Batch ID>
0140

> <Smiles>
CNC(C)C(=O)NC(C(=O)N1Cc2cc([101O:1][101CH2:1]C3(C)CCCN(C(C)c4ccc([100NH:0][100C:0](=O)N5CCCC(n6nc(-c7ccc(Oc8ccc(F)cc8F)cc7)c(C(N)=O)c6N)C5)cc4C)C3)ccc2CC1C(=O)NC1CCCc2ccccc21)C(C)(C)C

> <Shape>
0.287

> <Color>
0.085

> <Negative vol penalty>
0.000

$$$$

  -OEChem-04052302513D

 84 92  0     1  0  0  0  0  0999 V2000
  -24.2235  -35.4058   22.2134 C   0  0  0  0  0  0  0  0  0  0  0  0
  -25.0514  -34.2880   22.2399 C   0  0  0  0  0  0  0  0  0  0  0  0
  -23.3493  -16.6666   25.5573 C   0  0  0  0  0  0  0  0  0  0  0  0
  -22.1707  -18.2397   24.1526 C   0  0  0  0  0  0  0  0  0  0  0  0
  -22.8711  -35.2778   22.5274 C   0  0  0  0  0  0  0  0  0  0  0  0
  -24.5275  -33.0417   22.5816 C   0  0  0  0  0  0  0  0  0  0  0  0
  -26.1168  -29.3542   19.4958 C   0  0  0  0  0  0  0  0  0  0  0  0
  -22.5415  -17.0250   26.6365 C   0  0  0  0  0  0  0  0  0  0  0  0
  -21.3628  -18.5981   25.2317 C   0  0  0  0  0  0  0  0  0  0  0  0
  -27.4045  -28.8616   19.7028 C   0  0  0  0  0  0  0  0  0  0  0  0
  -19.4158  -16.3556   27.7386 C   0  0  0  0  0  0  0  0  0  0  0  0
  -18.8942  -15.3297   28.5268 C   0  0  0  0  0  0  0  0  0  0  0  0
  -26.4846  -26.9704   20.8844 C   0  0  0  0  0  0  0  0  0  0  0  0
  -28.3568  -23.0417   18.8177 C   0  0  0  0  0  0  0  0  0  0  0  0
  -26.0172  -22.5696   18.4434 C   0  0  0  0  0  0  0  0  0  0  0  0
  -26.9231  -24.7301   17.8529 C   0  0  0  0  0  0  0  0  0  0  0  0
  -20.0275  -16.2372   30.4579 C   0  0  0  0  0  0  0  0  0  0  0  0
  -23.1639  -17.2740   24.3153 C   0  0  0  0  0  0  0  0  0  0  0  0
  -23.7583  -15.8851   22.2598 C   0  0  0  0  0  0  0  0  0  0  0  0
  -22.3284  -34.0276   22.8637 C   0  0  0  0  0  0  0  0  0  0  0  0
  -25.0021  -28.6631   19.9919 C   0  0  0  0  0  0  0  0  0  0  0  0
  -23.1669  -32.8971   22.9017 C   0  0  0  0  0  0  0  0  0  0  0  0
  -25.1837  -27.4550   20.6802 C   0  0  0  0  0  0  0  0  0  0  0  0
  -27.2750  -22.1642   18.8898 C   0  0  0  0  0  0  0  0  0  0  0  0
  -21.5482  -17.9907   26.4737 C   0  0  0  0  0  0  0  0  0  0  0  0
  -27.5888  -27.6711   20.3997 C   0  0  0  0  0  0  0  0  0  0  0  0
  -20.2432  -17.3222   28.3101 C   0  0  0  0  0  0  0  0  0  0  0  0
  -28.1809  -24.3247   18.2993 C   0  0  0  0  0  0  0  0  0  0  0  0
  -19.2000  -15.2706   29.8864 C   0  0  0  0  0  0  0  0  0  0  0  0
  -25.8413  -23.8526   17.9249 C   0  0  0  0  0  0  0  0  0  0  0  0
  -20.5491  -17.2631   29.6697 C   0  0  0  0  0  0  0  0  0  0  0  0
  -23.9985  -16.9046   23.2004 C   0  0  0  0  0  0  0  0  0  0  0  0
  -24.8378  -15.9384   21.4124 C   0  0  0  0  0  0  0  0  0  0  0  0
  -22.6576  -14.9715   22.1609 C   0  0  0  0  0  0  0  0  0  0  0  0
  -22.6999  -29.3247   22.0814 C   0  0  0  0  0  0  0  0  0  0  0  0
  -21.5064  -26.4809   21.0763 C   0  0  0  0  0  0  0  0  0  0  0  0
  -22.0926  -23.4275   19.6692 C   0  0  0  0  0  0  0  0  0  0  0  0
  -28.6328  -20.3010   19.9053 C   0  0  0  0  0  0  0  0  0  0  0  0
  -20.8705  -33.9470   23.2416 C   0  0  0  0  0  0  0  0  0  0  0  0
  -23.6180  -29.1939   19.7371 C   0  0  0  0  0  0  0  0  0  0  0  0
  -24.0188  -26.6644   21.2155 C   0  0  0  0  0  0  0  0  0  0  0  0
  -20.3157  -32.5249   23.2286 C   0  0  0  0  0  0  0  0  0  0  0  0
  -29.4717  -17.1441   21.3221 C   0  0  0  0  0  0  0  0  0  0  0  0
  -21.2684  -31.5736   23.9457 C   0  0  0  0  0  0  0  0  0  0  0  0
  -28.1403  -16.6289   21.8736 C   0  0  0  0  0  0  0  0  0  0  0  0
  -29.6088  -18.6561   21.4917 C   0  0  0  0  0  0  0  0  0  0  0  0
  -27.1605  -18.9296   21.5075 C   0  0  0  0  0  0  0  0  0  0  0  0
  -22.6306  -31.5238   23.2433 C   0  0  1  0  0  0  0  0  0  0  0  0
  -22.5857  -28.6732   20.7323 C   0  0  1  0  0  0  0  0  0  0  0  0
  -26.9487  -17.4209   21.3005 C   0  0  2  0  0  0  0  0  0  0  0  0
  -21.5721  -21.1773   18.6877 C   0  0  0  0  0  0  0  0  0  0  0  0
  -21.4073  -25.6296   24.0047 C   0  0  0  0  0  0  0  0  0  0  0  0
  -21.1604  -23.2600   23.2352 C   0  0  0  0  0  0  0  0  0  0  0  0
  -19.4177  -24.9469   22.6519 C   0  0  0  0  0  0  0  0  0  0  0  0
  -31.9505  -26.7568   18.4719 C   0  0  0  0  0  0  0  0  0  0  0  0
  -31.6270  -26.2781   20.9067 C   0  0  0  0  0  0  0  0  0  0  0  0
  -21.7818  -24.5561   16.9510 C   0  0  0  0  0  0  0  0  0  0  0  0
  -29.8269  -27.4950   19.6150 C   0  0  0  0  0  0  0  0  0  1  0  0
  -30.2561  -25.0378   19.2162 C   0  0  0  0  0  0  0  0  0  0  0  0
  -21.6684  -25.0422   21.5041 C   0  0  1  0  0  0  0  0  0  0  0  0
  -21.3859  -22.6806   18.5524 C   0  0  2  0  0  0  0  0  0  0  0  0
  -20.9357  -24.7353   22.8407 C   0  0  0  0  0  0  0  0  0  0  0  0
  -30.9102  -26.3956   19.5494 C   0  0  0  0  0  0  0  0  0  0  0  0
  -25.1410  -17.5578   22.9724 N   0  0  0  0  0  0  0  0  0  0  0  0
  -25.6284  -16.9471   21.8789 N   0  0  0  0  0  0  0  0  0  0  0  0
  -22.6856  -27.2280   20.9462 N   0  0  0  0  0  0  0  0  0  0  0  0
  -28.4461  -19.3405   20.9218 N   0  0  0  0  0  0  0  0  0  0  0  0
  -25.1785  -15.2204   20.3212 N   0  0  0  0  0  0  0  0  0  0  0  0
  -21.6333  -15.0539   23.1139 N   0  0  0  0  0  0  0  0  0  0  0  0
  -27.4525  -20.8613   19.4178 N   0  0  0  0  0  0  0  0  0  0  0  0
  -22.5574  -30.6990   22.0564 N   0  0  0  0  0  0  0  0  0  0  0  0
  -21.2227  -24.2288   20.3780 N   0  0  0  0  0  0  0  0  0  0  0  0
  -21.9209  -23.1031   17.2272 N   0  3  0  0  0  0  0  0  0  0  0  0
  -22.5928  -14.0970   21.2640 O   0  0  0  0  0  0  0  0  0  0  0  0
  -22.9008  -28.6318   23.0719 O   0  0  0  0  0  0  0  0  0  0  0  0
  -20.3757  -26.9233   20.8584 O   0  0  0  0  0  0  0  0  0  0  0  0
  -23.2953  -23.3088   19.8929 O   0  0  0  0  0  0  0  0  0  0  0  0
  -29.7550  -20.5844   19.4784 O   0  0  0  0  0  0  0  0  0  0  0  0
  -20.7596  -18.3405   27.5264 O   0  0  0  0  0  0  0  0  0  0  0  0
  -28.8447  -27.1883   20.6037 O   0  0  0  0  0  0  0  0  0  1  0  0
  -29.2436  -25.1868   18.2290 O   0  0  0  0  0  0  0  0  0  0  0  0
  -18.6979  -14.2863   30.6435 F   0  0  0  0  0  0  0  0  0  0  0  0
  -24.6330  -24.2429   17.4981 F   0  0  0  0  0  0  0  0  0  0  0  0
  -21.3425  -18.1896   30.2246 F   0  0  0  0  0  0  0  0  0  0  0  0
  1  2  1  0  0  0  0
  1  5  2  0  0  0  0
  2  6  2  0  0  0  0
  3  8  2  0  0  0  0
  3 18  1  0  0  0  0
  4  9  1  0  0  0  0
  4 18  2  0  0  0  0
  5 20  1  0  0  0  0
  6 22  1  0  0  0  0
  7 10  2  0  0  0  0
  7 21  1  0  0  0  0
  8 25  1  0  0  0  0
  9 25  2  0  0  0  0
 10 26  1  0  0  0  0
 11 12  2  0  0  0  0
 11 27  1  0  0  0  0
 12 29  1  0  0  0  0
 13 23  1  0  0  0  0
 13 26  2  0  0  0  0
 14 24  1  0  0  0  0
 14 28  2  0  0  0  0
 15 24  2  0  0  0  0
 15 30  1  0  0  0  0
 16 28  1  0  0  0  0
 16 30  2  0  0  0  0
 17 29  2  0  0  0  0
 17 31  1  0  0  0  0
 18 32  1  0  0  0  0
 19 32  1  0  0  0  0
 19 33  2  0  0  0  0
 19 34  1  0  0  0  0
 20 22  2  0  0  0  0
 20 39  1  0  0  0  0
 21 23  2  0  0  0  0
 21 40  1  0  0  0  0
 22 48  1  0  0  0  0
 23 41  1  0  0  0  0
 24 70  1  0  0  0  0
 25 79  1  0  0  0  0
 26 80  1  0  0  0  0
 27 31  2  0  0  0  0
 27 79  1  0  0  0  0
 28 81  1  0  0  0  0
 29 82  1  0  0  0  0
 30 83  1  0  0  0  0
 31 84  1  0  0  0  0
 32 64  2  0  0  0  0
 33 65  1  0  0  0  0
 33 68  1  0  0  0  0
 34 69  1  0  0  0  0
 34 74  2  0  0  0  0
 35 49  1  0  0  0  0
 35 71  1  0  0  0  0
 35 75  2  0  0  0  0
 36 60  1  0  0  0  0
 36 66  1  0  0  0  0
 36 76  2  0  0  0  0
 37 61  1  0  0  0  0
 37 72  1  0  0  0  0
 37 77  2  0  0  0  0
 38 67  1  0  0  0  0
 38 70  1  0  0  0  0
 38 78  2  0  0  0  0
 39 42  1  0  0  0  0
 40 49  1  0  0  0  0
 41 66  1  0  0  0  0
 42 44  1  0  0  0  0
 43 45  1  0  0  0  0
 43 46  1  0  0  0  0
 44 48  1  0  0  0  0
 45 50  1  0  0  0  0
 46 67  1  0  0  0  0
 47 50  1  0  0  0  0
 47 67  1  0  0  0  0
 48 71  1  0  0  0  0
 49 66  1  0  0  0  0
 50 65  1  0  0  0  0
 51 61  1  0  0  0  0
 52 62  1  0  0  0  0
 53 62  1  0  0  0  0
 54 62  1  0  0  0  0
 55 63  1  0  0  0  0
 56 63  1  0  0  0  0
 57 73  1  0  0  0  0
 58 63  1  0  0  0  0
 58 80  1  0  0  0  0
 59 63  1  0  0  0  0
 59 81  1  0  0  0  0
 60 62  1  0  0  0  0
 60 72  1  0  0  0  0
 61 73  1  0  0  0  0
 64 65  1  0  0  0  0
M  CHG  1  73   1
M  ISO  4  38 100  58 101  70 100  80 101
M  END
> <Batch ID>
0140

> <Smiles>
CNC(C)C(=O)NC(C(=O)N1Cc2cc([101O:1][101CH2:1]C(C)(C)COc3cc(F)cc([100NH:0][100C:0](=O)N4CCCC(n5nc(-c6ccc(Oc7ccc(F)cc7F)cc6)c(C(N)=O)c5N)C4)c3)ccc2CC1C(=O)NC1CCCc2ccccc21)C(C)(C)C

> <Shape>
0.180

> <Color>
0.104

> <Negative vol penalty>
0.000

$$$$

  -OEChem-04052302513D

 86 94  0     1  0  0  0  0  0999 V2000
  -30.7085  -23.8482   17.6255 C   0  0  0  0  0  0  0  0  0  0  0  0
  -29.4142  -24.3260   17.7965 C   0  0  0  0  0  0  0  0  0  0  0  0
  -27.9244  -14.9101   19.6557 C   0  0  0  0  0  0  0  0  0  0  0  0
  -25.7253  -15.6572   20.3212 C   0  0  0  0  0  0  0  0  0  0  0  0
  -31.7058  -24.2093   18.5289 C   0  0  0  0  0  0  0  0  0  0  0  0
  -29.1193  -25.1747   18.8640 C   0  0  0  0  0  0  0  0  0  0  0  0
  -24.6163  -27.1535   18.9682 C   0  0  0  0  0  0  0  0  0  0  0  0
  -27.5512  -13.5894   19.9049 C   0  0  0  0  0  0  0  0  0  0  0  0
  -25.3521  -14.3365   20.5704 C   0  0  0  0  0  0  0  0  0  0  0  0
  -23.4741  -26.4125   19.2684 C   0  0  0  0  0  0  0  0  0  0  0  0
  -25.8009  -12.0387   23.0096 C   0  0  0  0  0  0  0  0  0  0  0  0
  -25.1101  -11.7726   24.1918 C   0  0  0  0  0  0  0  0  0  0  0  0
  -24.6425  -22.5856   24.4432 C   0  0  0  0  0  0  0  0  0  0  0  0
  -24.1955  -23.5725   26.6026 C   0  0  0  0  0  0  0  0  0  0  0  0
  -23.4389  -27.3742   21.4804 C   0  0  0  0  0  0  0  0  0  0  0  0
  -26.4731  -23.3270   25.8349 C   0  0  0  0  0  0  0  0  0  0  0  0
  -23.2435  -10.9286   22.9109 C   0  0  0  0  0  0  0  0  0  0  0  0
  -27.0115  -15.9440   19.8638 C   0  0  0  0  0  0  0  0  0  0  0  0
  -23.7344  -22.9964   25.4190 C   0  0  0  0  0  0  0  0  0  0  0  0
  -27.2695  -18.0141   18.3956 C   0  0  0  0  0  0  0  0  0  0  0  0
  -31.4193  -25.0529   19.6149 C   0  0  0  0  0  0  0  0  0  0  0  0
  -25.1856  -28.0036   19.9271 C   0  0  0  0  0  0  0  0  0  0  0  0
  -30.1174  -25.5700   19.7729 C   0  0  0  0  0  0  0  0  0  0  0  0
  -24.5868  -28.1269   21.1890 C   0  0  0  0  0  0  0  0  0  0  0  0
  -26.0119  -22.7509   24.6512 C   0  0  0  0  0  0  0  0  0  0  0  0
  -26.2651  -13.3026   20.3623 C   0  0  0  0  0  0  0  0  0  0  0  0
  -22.8869  -26.5205   20.5256 C   0  0  0  0  0  0  0  0  0  0  0  0
  -25.2130  -11.7499   21.7781 C   0  0  0  0  0  0  0  0  0  0  0  0
  -23.8314  -11.2175   24.1424 C   0  0  0  0  0  0  0  0  0  0  0  0
  -25.5649  -23.7378   26.8106 C   0  0  0  0  0  0  0  0  0  0  0  0
  -23.9343  -11.1948   21.7288 C   0  0  0  0  0  0  0  0  0  0  0  0
  -27.3966  -17.3085   19.6071 C   0  0  0  0  0  0  0  0  0  0  0  0
  -27.7753  -19.2612   18.6699 C   0  0  0  0  0  0  0  0  0  0  0  0
  -22.2670  -22.8172   25.1978 C   0  0  0  0  0  0  0  0  0  0  0  0
  -26.7413  -17.5809   17.1350 C   0  0  0  0  0  0  0  0  0  0  0  0
  -27.9891  -28.1438   21.4186 C   0  0  0  0  0  0  0  0  0  0  0  0
  -26.7913  -30.9252   22.5811 C   0  0  0  0  0  0  0  0  0  0  0  0
  -24.0456  -32.8068   23.3345 C   0  0  0  0  0  0  0  0  0  0  0  0
  -28.3254  -22.4256   23.7087 C   0  0  0  0  0  0  0  0  0  0  0  0
  -32.5384  -25.4181   20.5580 C   0  0  0  0  0  0  0  0  0  0  0  0
  -26.4023  -28.8165   19.5786 C   0  0  0  0  0  0  0  0  0  0  0  0
  -25.1473  -29.0409   22.2468 C   0  0  0  0  0  0  0  0  0  0  0  0
  -32.0378  -25.9543   21.8953 C   0  0  0  0  0  0  0  0  0  0  0  0
  -30.9459  -21.4788   21.4919 C   0  0  0  0  0  0  0  0  0  0  0  0
  -30.9961  -27.0386   21.6633 C   0  0  0  0  0  0  0  0  0  0  0  0
  -30.3196  -20.3703   20.6427 C   0  0  0  0  0  0  0  0  0  0  0  0
  -30.4656  -21.4229   22.9411 C   0  0  0  0  0  0  0  0  0  0  0  0
  -28.3809  -20.2994   22.2624 C   0  0  0  0  0  0  0  0  0  0  0  0
  -29.7665  -26.4698   20.9441 C   0  0  1  0  0  0  0  0  0  0  0  0
  -27.1947  -29.2614   20.8040 C   0  0  1  0  0  0  0  0  0  0  0  0
  -28.7845  -20.3545   20.7799 C   0  0  2  0  0  0  0  0  0  0  0  0
  -23.3828  -35.0226   24.3082 C   0  0  0  0  0  0  0  0  0  0  0  0
  -20.2259  -22.4433   20.1631 C   0  0  0  0  0  0  0  0  0  0  0  0
  -27.4183  -29.8807   25.3786 C   0  0  0  0  0  0  0  0  0  0  0  0
  -25.9082  -31.6511   26.3024 C   0  0  0  0  0  0  0  0  0  0  0  0
  -27.9503  -32.2985   25.0243 C   0  0  0  0  0  0  0  0  0  0  0  0
  -22.7092  -33.6393   20.8285 C   0  0  0  0  0  0  0  0  0  0  0  0
  -21.7429  -21.6672   24.3470 C   0  0  0  0  0  0  0  0  0  0  0  0
  -20.8878  -22.1451   23.1710 C   0  0  0  0  0  0  0  0  0  0  0  0
  -21.6745  -23.0125   22.1802 C   0  0  0  0  0  0  0  0  0  0  0  0
  -21.6201  -24.5406   20.1639 C   0  0  0  0  0  0  0  0  0  1  0  0
  -25.9751  -31.3155   23.7897 C   0  0  1  0  0  0  0  0  0  0  0  0
  -23.7041  -34.2554   23.0352 C   0  0  2  0  0  0  0  0  0  0  0  0
  -20.8076  -23.5650   21.0289 C   0  0  1  0  0  0  0  0  0  0  0  0
  -26.8033  -31.2677   25.1047 C   0  0  0  0  0  0  0  0  0  0  0  0
  -27.9407  -18.0461   20.5787 N   0  0  0  0  0  0  0  0  0  0  0  0
  -21.4233  -23.6419   25.7348 N   0  0  0  0  0  0  0  0  0  0  0  0
  -28.1599  -19.2281   19.9779 N   0  0  0  0  0  0  0  0  0  0  0  0
  -26.3416  -29.8100   21.8602 N   0  0  0  0  0  0  0  0  0  0  0  0
  -29.0020  -21.4152   22.9930 N   0  0  0  0  0  0  0  0  0  0  0  0
  -27.9241  -20.3721   17.9173 N   0  0  0  0  0  0  0  0  0  0  0  0
  -26.2633  -16.2679   17.0265 N   0  0  0  0  0  0  0  0  0  0  0  0
  -26.9348  -22.3338   23.6602 N   0  0  0  0  0  0  0  0  0  0  0  0
  -28.8990  -27.5606   20.5576 N   0  0  0  0  0  0  0  0  0  0  0  0
  -25.4033  -32.6240   23.4909 N   0  0  0  0  0  0  0  0  0  0  0  0
  -22.5234  -34.3327   22.1291 N   0  3  0  0  0  0  0  0  0  0  0  0
  -26.7098  -18.3307   16.1298 O   0  0  0  0  0  0  0  0  0  0  0  0
  -27.7921  -27.8346   22.5879 O   0  0  0  0  0  0  0  0  0  0  0  0
  -27.7869  -31.5899   22.2835 O   0  0  0  0  0  0  0  0  0  0  0  0
  -23.1928  -31.9264   23.4245 O   0  0  0  0  0  0  0  0  0  0  0  0
  -28.9342  -23.3229   24.2969 O   0  0  0  0  0  0  0  0  0  0  0  0
  -25.9005  -12.0140   20.6053 O   0  0  0  0  0  0  0  0  0  0  0  0
  -21.7725  -25.7979   20.8215 O   0  0  0  0  0  0  0  0  0  1  0  0
  -23.1687  -10.9606   25.2778 F   0  0  0  0  0  0  0  0  0  0  0  0
  -26.0079  -24.2882   27.9485 F   0  0  0  0  0  0  0  0  0  0  0  0
  -23.3648  -10.9141   20.5486 F   0  0  0  0  0  0  0  0  0  0  0  0
  1  2  1  0  0  0  0
  1  5  2  0  0  0  0
  2  6  2  0  0  0  0
  3  8  2  0  0  0  0
  3 18  1  0  0  0  0
  4  9  1  0  0  0  0
  4 18  2  0  0  0  0
  5 21  1  0  0  0  0
  6 23  1  0  0  0  0
  7 10  2  0  0  0  0
  7 22  1  0  0  0  0
  8 26  1  0  0  0  0
  9 26  2  0  0  0  0
 10 27  1  0  0  0  0
 11 12  2  0  0  0  0
 11 28  1  0  0  0  0
 12 29  1  0  0  0  0
 13 19  2  0  0  0  0
 13 25  1  0  0  0  0
 14 19  1  0  0  0  0
 14 30  2  0  0  0  0
 15 24  1  0  0  0  0
 15 27  2  0  0  0  0
 16 25  2  0  0  0  0
 16 30  1  0  0  0  0
 17 29  2  0  0  0  0
 17 31  1  0  0  0  0
 18 32  1  0  0  0  0
 19 34  1  0  0  0  0
 20 32  1  0  0  0  0
 20 33  2  0  0  0  0
 20 35  1  0  0  0  0
 21 23  2  0  0  0  0
 21 40  1  0  0  0  0
 22 24  2  0  0  0  0
 22 41  1  0  0  0  0
 23 49  1  0  0  0  0
 24 42  1  0  0  0  0
 25 73  1  0  0  0  0
 26 82  1  0  0  0  0
 27 83  1  0  0  0  0
 28 31  2  0  0  0  0
 28 82  1  0  0  0  0
 29 84  1  0  0  0  0
 30 85  1  0  0  0  0
 31 86  1  0  0  0  0
 32 66  2  0  0  0  0
 33 68  1  0  0  0  0
 33 71  1  0  0  0  0
 34 58  1  0  0  0  0
 34 67  2  0  0  0  0
 35 72  1  0  0  0  0
 35 77  2  0  0  0  0
 36 50  1  0  0  0  0
 36 74  1  0  0  0  0
 36 78  2  0  0  0  0
 37 62  1  0  0  0  0
 37 69  1  0  0  0  0
 37 79  2  0  0  0  0
 38 63  1  0  0  0  0
 38 75  1  0  0  0  0
 38 80  2  0  0  0  0
 39 70  1  0  0  0  0
 39 73  1  0  0  0  0
 39 81  2  0  0  0  0
 40 43  1  0  0  0  0
 41 50  1  0  0  0  0
 42 69  1  0  0  0  0
 43 45  1  0  0  0  0
 44 46  1  0  0  0  0
 44 47  1  0  0  0  0
 45 49  1  0  0  0  0
 46 51  1  0  0  0  0
 47 70  1  0  0  0  0
 48 51  1  0  0  0  0
 48 70  1  0  0  0  0
 49 74  1  0  0  0  0
 50 69  1  0  0  0  0
 51 68  1  0  0  0  0
 52 63  1  0  0  0  0
 53 64  1  0  0  0  0
 54 65  1  0  0  0  0
 55 65  1  0  0  0  0
 56 65  1  0  0  0  0
 57 76  1  0  0  0  0
 58 59  1  0  0  0  0
 59 60  1  0  0  0  0
 60 64  1  0  0  0  0
 61 64  1  0  0  0  0
 61 83  1  0  0  0  0
 62 65  1  0  0  0  0
 62 75  1  0  0  0  0
 63 76  1  0  0  0  0
 66 68  1  0  0  0  0
M  CHG  1  76   1
M  ISO  4  39 100  61 101  73 100  83 101
M  END
> <Batch ID>
0140

> <Smiles>
CNC(C)C(=O)NC(C(=O)N1Cc2cc([101O:1][101CH2:1]C(C)CCCC(=N)c3cc(F)cc([100NH:0][100C:0](=O)N4CCCC(n5nc(-c6ccc(Oc7ccc(F)cc7F)cc6)c(C(N)=O)c5N)C4)c3)ccc2CC1C(=O)NC1CCCc2ccccc21)C(C)(C)C

> <Shape>
0.240

> <Color>
0.055

> <Negative vol penalty>
0.000

$$$$

  -OEChem-04052302513D

 86 94  0     1  0  0  0  0  0999 V2000
  -27.8272  -33.2585   25.9827 C   0  0  0  0  0  0  0  0  0  0  0  0
  -27.9668  -31.9754   25.4634 C   0  0  0  0  0  0  0  0  0  0  0  0
  -24.7605   -8.7774   21.5453 C   0  0  0  0  0  0  0  0  0  0  0  0
  -23.1517  -10.2761   20.5440 C   0  0  0  0  0  0  0  0  0  0  0  0
  -26.5569  -33.8113   26.1395 C   0  0  0  0  0  0  0  0  0  0  0  0
  -26.8361  -31.2441   25.1015 C   0  0  0  0  0  0  0  0  0  0  0  0
  -27.3638  -28.9404   20.6227 C   0  0  0  0  0  0  0  0  0  0  0  0
  -23.7884   -8.3324   22.4412 C   0  0  0  0  0  0  0  0  0  0  0  0
  -22.1795   -9.8311   21.4398 C   0  0  0  0  0  0  0  0  0  0  0  0
  -28.1210  -27.7702   20.5939 C   0  0  0  0  0  0  0  0  0  0  0  0
  -21.1572   -6.2090   22.4096 C   0  0  0  0  0  0  0  0  0  0  0  0
  -21.0531   -4.8346   22.6231 C   0  0  0  0  0  0  0  0  0  0  0  0
  -26.0927  -26.4645   20.6099 C   0  0  0  0  0  0  0  0  0  0  0  0
  -25.2350  -20.0428   18.3740 C   0  0  0  0  0  0  0  0  0  0  0  0
  -25.2786  -17.6722   17.9101 C   0  0  0  0  0  0  0  0  0  0  0  0
  -27.1584  -18.7236   19.0046 C   0  0  0  0  0  0  0  0  0  0  0  0
  -21.5280   -5.1631   24.9691 C   0  0  0  0  0  0  0  0  0  0  0  0
  -24.4421   -9.7493   20.5967 C   0  0  0  0  0  0  0  0  0  0  0  0
  -25.7401   -9.6776   18.4018 C   0  0  0  0  0  0  0  0  0  0  0  0
  -25.4105  -33.0901   25.7703 C   0  0  0  0  0  0  0  0  0  0  0  0
  -25.9631  -28.8812   20.6563 C   0  0  0  0  0  0  0  0  0  0  0  0
  -25.5492  -31.7873   25.2547 C   0  0  0  0  0  0  0  0  0  0  0  0
  -25.3199  -27.6355   20.6365 C   0  0  0  0  0  0  0  0  0  0  0  0
  -24.6230  -18.9021   17.8545 C   0  0  0  0  0  0  0  0  0  0  0  0
  -26.5028  -19.9536   18.9490 C   0  0  0  0  0  0  0  0  0  0  0  0
  -26.5463  -17.5829   18.4852 C   0  0  0  0  0  0  0  0  0  0  0  0
  -22.4979   -8.8592   22.3884 C   0  0  0  0  0  0  0  0  0  0  0  0
  -27.4856  -26.5319   20.5904 C   0  0  0  0  0  0  0  0  0  0  0  0
  -21.4468   -7.0606   23.4758 C   0  0  0  0  0  0  0  0  0  0  0  0
  -21.2384   -4.3116   23.9029 C   0  0  0  0  0  0  0  0  0  0  0  0
  -21.6321   -6.5376   24.7555 C   0  0  0  0  0  0  0  0  0  0  0  0
  -25.4460  -10.2099   19.6714 C   0  0  0  0  0  0  0  0  0  0  0  0
  -26.7637  -10.4621   17.9293 C   0  0  0  0  0  0  0  0  0  0  0  0
  -25.1414   -8.5728   17.7113 C   0  0  0  0  0  0  0  0  0  0  0  0
  -23.7268  -29.8259   22.7082 C   0  0  0  0  0  0  0  0  0  0  0  0
  -21.7130  -28.8749   20.3497 C   0  0  0  0  0  0  0  0  0  0  0  0
  -21.1877  -26.9210   17.6014 C   0  0  0  0  0  0  0  0  0  0  0  0
  -28.4725  -16.0715   19.0780 C   0  0  0  0  0  0  0  0  0  0  0  0
  -24.0559  -33.7114   26.0025 C   0  0  0  0  0  0  0  0  0  0  0  0
  -25.1602  -30.1531   20.6602 C   0  0  0  0  0  0  0  0  0  0  0  0
  -23.8185  -27.5179   20.6513 C   0  0  0  0  0  0  0  0  0  0  0  0
  -22.9284  -33.0147   25.2452 C   0  0  0  0  0  0  0  0  0  0  0  0
  -30.4431  -13.1284   19.4416 C   0  0  0  0  0  0  0  0  0  0  0  0
  -23.0311  -31.5015   25.4083 C   0  0  0  0  0  0  0  0  0  0  0  0
  -29.4126  -11.9971   19.4201 C   0  0  0  0  0  0  0  0  0  0  0  0
  -29.9134  -14.3644   20.1665 C   0  0  0  0  0  0  0  0  0  0  0  0
  -27.5874  -13.7283   19.6625 C   0  0  0  0  0  0  0  0  0  0  0  0
  -24.3479  -30.9721   24.8274 C   0  0  1  0  0  0  0  0  0  0  0  0
  -23.7502  -29.9679   21.2125 C   0  0  1  0  0  0  0  0  0  0  0  0
  -28.0514  -12.4849   18.8864 C   0  0  2  0  0  0  0  0  0  0  0  0
  -23.2676  -18.9977   17.2396 C   0  0  0  0  0  0  0  0  0  0  0  0
  -19.4297  -26.3315   15.9104 C   0  0  0  0  0  0  0  0  0  0  0  0
  -20.3001  -27.1424   22.4262 C   0  0  0  0  0  0  0  0  0  0  0  0
  -19.2142  -25.8963   20.5457 C   0  0  0  0  0  0  0  0  0  0  0  0
  -18.7705  -28.3327   20.8456 C   0  0  0  0  0  0  0  0  0  0  0  0
  -27.2022  -22.5483   17.3683 C   0  0  0  0  0  0  0  0  0  0  0  0
  -29.1792  -21.1524   17.9454 C   0  0  0  0  0  0  0  0  0  0  0  0
  -29.6010  -22.8234   20.5362 C   0  0  0  0  0  0  0  0  0  0  0  0
  -29.6510  -24.1380   18.4255 C   0  0  0  0  0  0  0  0  0  0  0  0
  -22.8454  -27.9146   15.3600 C   0  0  0  0  0  0  0  0  0  0  0  0
  -27.1675  -21.1927   19.5133 C   0  0  0  0  0  0  0  0  0  0  0  0
  -27.6374  -24.2539   19.9244 C   0  0  0  0  0  0  0  0  0  1  0  0
  -21.0265  -27.5801   19.9876 C   0  0  1  0  0  0  0  0  0  0  0  0
  -20.6059  -27.2389   16.2357 C   0  0  2  0  0  0  0  0  0  0  0  0
  -19.8561  -27.2397   20.9529 C   0  0  0  0  0  0  0  0  0  0  0  0
  -28.0714  -22.0510   18.5521 C   0  0  0  0  0  0  0  0  0  0  0  0
  -28.7264  -23.2985   19.3465 C   0  0  0  0  0  0  0  0  0  0  0  0
  -26.2204  -11.2518   19.9857 N   0  0  0  0  0  0  0  0  0  0  0  0
  -27.0112  -11.3805   18.9067 N   0  0  0  0  0  0  0  0  0  0  0  0
  -23.0774  -28.7900   20.6612 N   0  0  0  0  0  0  0  0  0  0  0  0
  -28.6236  -14.7712   19.6045 N   0  0  0  0  0  0  0  0  0  0  0  0
  -27.4673  -10.4488   16.7773 N   0  0  0  0  0  0  0  0  0  0  0  0
  -24.1013   -7.8758   18.3409 N   0  0  0  0  0  0  0  0  0  0  0  0
  -27.2122  -16.3335   18.5417 N   0  0  0  0  0  0  0  0  0  0  0  0
  -24.2712  -30.9013   23.3840 N   0  0  0  0  0  0  0  0  0  0  0  0
  -20.6303  -27.7053   18.5891 N   0  0  0  0  0  0  0  0  0  0  0  0
  -21.6412  -27.0639   15.1782 N   0  3  0  0  0  0  0  0  0  0  0  0
  -25.5288   -8.2042   16.5765 O   0  0  0  0  0  0  0  0  0  0  0  0
  -23.2487  -28.8162   23.2118 O   0  0  0  0  0  0  0  0  0  0  0  0
  -21.0643  -29.9241   20.3490 O   0  0  0  0  0  0  0  0  0  0  0  0
  -22.0476  -26.0603   17.7751 O   0  0  0  0  0  0  0  0  0  0  0  0
  -29.4017  -16.8830   19.0766 O   0  0  0  0  0  0  0  0  0  0  0  0
  -21.5490   -8.4250   23.2623 O   0  0  0  0  0  0  0  0  0  0  0  0
  -28.2223  -25.3881   20.5630 O   0  0  0  0  0  0  0  0  0  1  0  0
  -21.1369   -2.9919   24.1081 F   0  0  0  0  0  0  0  0  0  0  0  0
  -21.9093   -7.3508   25.7840 F   0  0  0  0  0  0  0  0  0  0  0  0
  1  2  1  0  0  0  0
  1  5  2  0  0  0  0
  2  6  2  0  0  0  0
  3  8  2  0  0  0  0
  3 18  1  0  0  0  0
  4  9  1  0  0  0  0
  4 18  2  0  0  0  0
  5 20  1  0  0  0  0
  6 22  1  0  0  0  0
  7 10  2  0  0  0  0
  7 21  1  0  0  0  0
  8 27  1  0  0  0  0
  9 27  2  0  0  0  0
 10 28  1  0  0  0  0
 11 12  2  0  0  0  0
 11 29  1  0  0  0  0
 12 30  1  0  0  0  0
 13 23  1  0  0  0  0
 13 28  2  0  0  0  0
 14 24  2  0  0  0  0
 14 25  1  0  0  0  0
 15 24  1  0  0  0  0
 15 26  2  0  0  0  0
 16 25  2  0  0  0  0
 16 26  1  0  0  0  0
 17 30  2  0  0  0  0
 17 31  1  0  0  0  0
 18 32  1  0  0  0  0
 19 32  1  0  0  0  0
 19 33  2  0  0  0  0
 19 34  1  0  0  0  0
 20 22  2  0  0  0  0
 20 39  1  0  0  0  0
 21 23  2  0  0  0  0
 21 40  1  0  0  0  0
 22 48  1  0  0  0  0
 23 41  1  0  0  0  0
 24 51  1  0  0  0  0
 25 61  1  0  0  0  0
 26 74  1  0  0  0  0
 27 83  1  0  0  0  0
 28 84  1  0  0  0  0
 29 31  2  0  0  0  0
 29 83  1  0  0  0  0
 30 85  1  0  0  0  0
 31 86  1  0  0  0  0
 32 68  2  0  0  0  0
 33 69  1  0  0  0  0
 33 72  1  0  0  0  0
 34 73  1  0  0  0  0
 34 78  2  0  0  0  0
 35 49  1  0  0  0  0
 35 75  1  0  0  0  0
 35 79  2  0  0  0  0
 36 63  1  0  0  0  0
 36 70  1  0  0  0  0
 36 80  2  0  0  0  0
 37 64  1  0  0  0  0
 37 76  1  0  0  0  0
 37 81  2  0  0  0  0
 38 71  1  0  0  0  0
 38 74  1  0  0  0  0
 38 82  2  0  0  0  0
 39 42  1  0  0  0  0
 40 49  1  0  0  0  0
 41 70  1  0  0  0  0
 42 44  1  0  0  0  0
 43 45  1  0  0  0  0
 43 46  1  0  0  0  0
 44 48  1  0  0  0  0
 45 50  1  0  0  0  0
 46 71  1  0  0  0  0
 47 50  1  0  0  0  0
 47 71  1  0  0  0  0
 48 75  1  0  0  0  0
 49 70  1  0  0  0  0
 50 69  1  0  0  0  0
 52 64  1  0  0  0  0
 53 65  1  0  0  0  0
 54 65  1  0  0  0  0
 55 65  1  0  0  0  0
 56 66  1  0  0  0  0
 57 66  1  0  0  0  0
 58 67  1  0  0  0  0
 59 67  1  0  0  0  0
 60 77  1  0  0  0  0
 61 66  1  0  0  0  0
 62 67  1  0  0  0  0
 62 84  1  0  0  0  0
 63 65  1  0  0  0  0
 63 76  1  0  0  0  0
 64 77  1  0  0  0  0
 66 67  1  0  0  0  0
 68 69  1  0  0  0  0
M  CHG  1  77   1
M  ISO  4  38 100  62 101  74 100  84 101
M  END
> <Batch ID>
0140

> <Smiles>
CNC(C)C(=O)NC(C(=O)N1Cc2cc([101O:1][101CH2:1]C(C)(C)C(C)(C)Cc3cc(C)cc([100NH:0][100C:0](=O)N4CCCC(n5nc(-c6ccc(Oc7ccc(F)cc7F)cc6)c(C(N)=O)c5N)C4)c3)ccc2CC1C(=O)NC1CCCc2ccccc21)C(C)(C)C

> <Shape>
0.304

> <Color>
0.087

> <Negative vol penalty>
0.000

$$$$

  -OEChem-04052302513D

 88 96  0     1  0  0  0  0  0999 V2000
  -28.0041  -17.0576   12.9169 C   0  0  0  0  0  0  0  0  0  0  0  0
  -27.7301  -17.5931   14.1714 C   0  0  0  0  0  0  0  0  0  0  0  0
  -23.0817   -9.8503   19.9498 C   0  0  0  0  0  0  0  0  0  0  0  0
  -23.8332   -9.8780   22.2458 C   0  0  0  0  0  0  0  0  0  0  0  0
  -29.3126  -17.0468   12.4356 C   0  0  0  0  0  0  0  0  0  0  0  0
  -28.7647  -18.1170   14.9457 C   0  0  0  0  0  0  0  0  0  0  0  0
  -27.5550  -22.5594   17.0545 C   0  0  0  0  0  0  0  0  0  0  0  0
  -22.3415   -8.6961   20.2060 C   0  0  0  0  0  0  0  0  0  0  0  0
  -23.0930   -8.7239   22.5020 C   0  0  0  0  0  0  0  0  0  0  0  0
  -26.7367  -22.5268   18.1828 C   0  0  0  0  0  0  0  0  0  0  0  0
  -19.3913   -7.8989   21.6529 C   0  0  0  0  0  0  0  0  0  0  0  0
  -18.0863   -7.8436   21.1633 C   0  0  0  0  0  0  0  0  0  0  0  0
  -28.6759  -22.8069   19.5899 C   0  0  0  0  0  0  0  0  0  0  0  0
  -29.4847  -17.9138   22.3394 C   0  0  0  0  0  0  0  0  0  0  0  0
  -31.1217  -17.7172   20.5735 C   0  0  0  0  0  0  0  0  0  0  0  0
  -30.5458  -19.8937   21.4501 C   0  0  0  0  0  0  0  0  0  0  0  0
  -18.6586   -5.8927   19.8581 C   0  0  0  0  0  0  0  0  0  0  0  0
  -23.8276  -10.4412   20.9697 C   0  0  0  0  0  0  0  0  0  0  0  0
  -24.1597  -12.9667   20.8313 C   0  0  0  0  0  0  0  0  0  0  0  0
  -30.3623  -17.5796   13.2004 C   0  0  0  0  0  0  0  0  0  0  0  0
  -28.9434  -22.7053   17.1862 C   0  0  0  0  0  0  0  0  0  0  0  0
  -30.0886  -18.1121   14.4747 C   0  0  0  0  0  0  0  0  0  0  0  0
  -29.5094  -22.8436   18.4616 C   0  0  0  0  0  0  0  0  0  0  0  0
  -30.2223  -17.1228   21.4586 C   0  0  0  0  0  0  0  0  0  0  0  0
  -22.3472   -8.1329   21.4821 C   0  0  0  0  0  0  0  0  0  0  0  0
  -27.2974  -22.6476   19.4509 C   0  0  0  0  0  0  0  0  0  0  0  0
  -20.3299   -6.9511   21.2450 C   0  0  0  0  0  0  0  0  0  0  0  0
  -29.6464  -19.2993   22.3351 C   0  0  0  0  0  0  0  0  0  0  0  0
  -17.7200   -6.8405   20.2660 C   0  0  0  0  0  0  0  0  0  0  0  0
  -31.2834  -19.1027   20.5692 C   0  0  0  0  0  0  0  0  0  0  0  0
  -19.9636   -5.9480   20.3477 C   0  0  0  0  0  0  0  0  0  0  0  0
  -24.5928  -11.6332   20.7055 C   0  0  0  0  0  0  0  0  0  0  0  0
  -25.2502  -13.7178   20.4662 C   0  0  0  0  0  0  0  0  0  0  0  0
  -22.8857  -13.4806   21.2417 C   0  0  0  0  0  0  0  0  0  0  0  0
  -31.4674  -20.9263   16.4322 C   0  0  0  0  0  0  0  0  0  0  0  0
  -33.1150  -23.5483   17.3980 C   0  0  0  0  0  0  0  0  0  0  0  0
  -33.1841  -26.3980   19.2745 C   0  0  0  0  0  0  0  0  0  0  0  0
  -30.7115  -14.7867   20.6524 C   0  0  0  0  0  0  0  0  0  0  0  0
  -31.7674  -17.5026   12.6578 C   0  0  0  0  0  0  0  0  0  0  0  0
  -29.8095  -22.7654   15.9579 C   0  0  0  0  0  0  0  0  0  0  0  0
  -30.9921  -23.0228   18.6560 C   0  0  0  0  0  0  0  0  0  0  0  0
  -32.7513  -18.4172   13.3831 C   0  0  0  0  0  0  0  0  0  0  0  0
  -29.6153  -12.3502   18.2989 C   0  0  0  0  0  0  0  0  0  0  0  0
  -32.5864  -18.2875   14.8940 C   0  0  0  0  0  0  0  0  0  0  0  0
  -28.1753  -12.0562   18.7255 C   0  0  0  0  0  0  0  0  0  0  0  0
  -30.5251  -12.5920   19.5020 C   0  0  0  0  0  0  0  0  0  0  0  0
  -28.6103  -13.3194   20.8708 C   0  0  0  0  0  0  0  0  0  0  0  0
  -31.1802  -18.7122   15.3340 C   0  0  1  0  0  0  0  0  0  0  0  0
  -31.2650  -22.4020   16.2348 C   0  0  1  0  0  0  0  0  0  0  0  0
  -27.6425  -13.1331   19.6908 C   0  0  2  0  0  0  0  0  0  0  0  0
  -28.1352  -21.2891   26.1036 C   0  0  0  0  0  0  0  0  0  0  0  0
  -34.6817  -28.3150   19.8908 C   0  0  0  0  0  0  0  0  0  0  0  0
  -34.6787  -21.7202   19.2749 C   0  0  0  0  0  0  0  0  0  0  0  0
  -35.4506  -23.7595   20.5053 C   0  0  0  0  0  0  0  0  0  0  0  0
  -36.0620  -23.4457   18.1073 C   0  0  0  0  0  0  0  0  0  0  0  0
  -24.9925  -22.5643   23.0682 C   0  0  0  0  0  0  0  0  0  0  0  0
  -25.2054  -20.4282   21.8240 C   0  0  0  0  0  0  0  0  0  0  0  0
  -25.5736  -20.0976   24.8656 C   0  0  0  0  0  0  0  0  0  0  0  0
  -31.3166  -28.3806   18.1166 C   0  0  0  0  0  0  0  0  0  0  0  0
  -27.4338  -21.8076   24.8489 C   0  0  0  0  0  0  0  0  0  0  0  0
  -27.0777  -22.0929   21.7531 C   0  0  0  0  0  0  0  0  0  1  0  0
  -27.6393  -19.5928   23.5765 C   0  0  0  0  0  0  0  0  0  0  0  0
  -33.6784  -24.0329   18.7121 C   0  0  1  0  0  0  0  0  0  0  0  0
  -33.6072  -27.8163   18.9371 C   0  0  2  0  0  0  0  0  0  0  0  0
  -34.9396  -23.2343   19.1467 C   0  0  0  0  0  0  0  0  0  0  0  0
  -25.9999  -21.4512   22.6805 C   0  0  0  0  0  0  0  0  0  0  0  0
  -26.6712  -20.7465   23.9780 C   0  0  1  0  0  0  0  0  0  0  0  0
  -25.8596  -11.5392   20.2925 N   0  0  0  0  0  0  0  0  0  0  0  0
  -26.2318  -12.8233   20.1556 N   0  0  0  0  0  0  0  0  0  0  0  0
  -31.7977  -23.0690   17.4246 N   0  0  0  0  0  0  0  0  0  0  0  0
  -29.9589  -13.6273   20.3694 N   0  0  0  0  0  0  0  0  0  0  0  0
  -25.4555  -15.0495   20.3836 N   0  0  0  0  0  0  0  0  0  0  0  0
  -21.8762  -12.5700   21.5824 N   0  0  0  0  0  0  0  0  0  0  0  0
  -30.0574  -15.7155   21.4613 N   0  0  0  0  0  0  0  0  0  0  0  0
  -31.0718  -20.1552   15.3559 N   0  0  0  0  0  0  0  0  0  0  0  0
  -33.9029  -25.4660   18.5563 N   0  0  0  0  0  0  0  0  0  0  0  0
  -32.4398  -28.7388   19.0204 N   0  3  0  0  0  0  0  0  0  0  0  0
  -22.6443  -14.7107   21.2887 O   0  0  0  0  0  0  0  0  0  0  0  0
  -31.9482  -20.5176   17.4827 O   0  0  0  0  0  0  0  0  0  0  0  0
  -33.8154  -23.6000   16.3839 O   0  0  0  0  0  0  0  0  0  0  0  0
  -32.3064  -26.1424   20.0961 O   0  0  0  0  0  0  0  0  0  0  0  0
  -31.8416  -14.9564   20.1875 O   0  0  0  0  0  0  0  0  0  0  0  0
  -21.6249   -7.0068   21.7325 O   0  0  0  0  0  0  0  0  0  0  0  0
  -26.4965  -22.6153   20.5602 O   0  0  0  0  0  0  0  0  0  1  0  0
  -28.9211  -20.0766   23.2005 O   0  0  0  0  0  0  0  0  0  0  0  0
  -16.4664   -6.7867   19.7971 F   0  0  0  0  0  0  0  0  0  0  0  0
  -32.1456  -19.6740   19.7179 F   0  0  0  0  0  0  0  0  0  0  0  0
  -20.8606   -5.0339   19.9531 F   0  0  0  0  0  0  0  0  0  0  0  0
  1  2  1  0  0  0  0
  1  5  2  0  0  0  0
  2  6  2  0  0  0  0
  3  8  2  0  0  0  0
  3 18  1  0  0  0  0
  4  9  1  0  0  0  0
  4 18  2  0  0  0  0
  5 20  1  0  0  0  0
  6 22  1  0  0  0  0
  7 10  2  0  0  0  0
  7 21  1  0  0  0  0
  8 25  1  0  0  0  0
  9 25  2  0  0  0  0
 10 26  1  0  0  0  0
 11 12  2  0  0  0  0
 11 27  1  0  0  0  0
 12 29  1  0  0  0  0
 13 23  1  0  0  0  0
 13 26  2  0  0  0  0
 14 24  1  0  0  0  0
 14 28  2  0  0  0  0
 15 24  2  0  0  0  0
 15 30  1  0  0  0  0
 16 28  1  0  0  0  0
 16 30  2  0  0  0  0
 17 29  2  0  0  0  0
 17 31  1  0  0  0  0
 18 32  1  0  0  0  0
 19 32  1  0  0  0  0
 19 33  2  0  0  0  0
 19 34  1  0  0  0  0
 20 22  2  0  0  0  0
 20 39  1  0  0  0  0
 21 23  2  0  0  0  0
 21 40  1  0  0  0  0
 22 48  1  0  0  0  0
 23 41  1  0  0  0  0
 24 74  1  0  0  0  0
 25 83  1  0  0  0  0
 26 84  1  0  0  0  0
 27 31  2  0  0  0  0
 27 83  1  0  0  0  0
 28 85  1  0  0  0  0
 29 86  1  0  0  0  0
 30 87  1  0  0  0  0
 31 88  1  0  0  0  0
 32 68  2  0  0  0  0
 33 69  1  0  0  0  0
 33 72  1  0  0  0  0
 34 73  1  0  0  0  0
 34 78  2  0  0  0  0
 35 49  1  0  0  0  0
 35 75  1  0  0  0  0
 35 79  2  0  0  0  0
 36 63  1  0  0  0  0
 36 70  1  0  0  0  0
 36 80  2  0  0  0  0
 37 64  1  0  0  0  0
 37 76  1  0  0  0  0
 37 81  2  0  0  0  0
 38 71  1  0  0  0  0
 38 74  1  0  0  0  0
 38 82  2  0  0  0  0
 39 42  1  0  0  0  0
 40 49  1  0  0  0  0
 41 70  1  0  0  0  0
 42 44  1  0  0  0  0
 43 45  1  0  0  0  0
 43 46  1  0  0  0  0
 44 48  1  0  0  0  0
 45 50  1  0  0  0  0
 46 71  1  0  0  0  0
 47 50  1  0  0  0  0
 47 71  1  0  0  0  0
 48 75  1  0  0  0  0
 49 70  1  0  0  0  0
 50 69  1  0  0  0  0
 51 60  1  0  0  0  0
 52 64  1  0  0  0  0
 53 65  1  0  0  0  0
 54 65  1  0  0  0  0
 55 65  1  0  0  0  0
 56 66  1  0  0  0  0
 57 66  1  0  0  0  0
 58 67  1  0  0  0  0
 59 77  1  0  0  0  0
 60 67  1  0  0  0  0
 61 66  1  0  0  0  0
 61 84  1  0  0  0  0
 62 67  1  0  0  0  0
 62 85  1  0  0  0  0
 63 65  1  0  0  0  0
 63 76  1  0  0  0  0
 64 77  1  0  0  0  0
 66 67  1  0  0  0  0
 68 69  1  0  0  0  0
M  CHG  1  77   1
M  ISO  4  38 100  61 101  74 100  84 101
M  END
> <Batch ID>
0140

> <Smiles>
CCC(C)(COc1cc(F)cc([100NH:0][100C:0](=O)N2CCCC(n3nc(-c4ccc(Oc5ccc(F)cc5F)cc4)c(C(N)=O)c3N)C2)c1)C(C)(C)[101CH2:1][101O:1]c1ccc2c(c1)CN(C(=O)C(NC(=O)C(C)NC)C(C)(C)C)C(C(=O)NC1CCCc3ccccc31)C2

> <Shape>
0.194

> <Color>
0.184

> <Negative vol penalty>
0.000

$$$$

  -OEChem-04052302513D

 92100  0     1  0  0  0  0  0999 V2000
  -31.2624  -25.5622   14.4492 C   0  0  0  0  0  0  0  0  0  0  0  0
  -29.8868  -25.6396   14.6424 C   0  0  0  0  0  0  0  0  0  0  0  0
  -27.7174  -14.4386   22.2422 C   0  0  0  0  0  0  0  0  0  0  0  0
  -26.3332  -15.4071   20.5150 C   0  0  0  0  0  0  0  0  0  0  0  0
  -32.1178  -25.5114   15.5490 C   0  0  0  0  0  0  0  0  0  0  0  0
  -29.3658  -25.6651   15.9355 C   0  0  0  0  0  0  0  0  0  0  0  0
  -24.4131  -28.7167   17.8496 C   0  0  0  0  0  0  0  0  0  0  0  0
  -27.1770  -13.1817   21.9705 C   0  0  0  0  0  0  0  0  0  0  0  0
  -25.7928  -14.1501   20.2433 C   0  0  0  0  0  0  0  0  0  0  0  0
  -23.0937  -28.3218   18.0667 C   0  0  0  0  0  0  0  0  0  0  0  0
  -24.3377  -11.4872   22.6713 C   0  0  0  0  0  0  0  0  0  0  0  0
  -23.9555  -10.6985   23.7564 C   0  0  0  0  0  0  0  0  0  0  0  0
  -23.5799  -28.0056   20.4082 C   0  0  0  0  0  0  0  0  0  0  0  0
  -21.8076  -23.3835   20.9380 C   0  0  0  0  0  0  0  0  0  0  0  0
  -22.5910  -23.5385   23.6110 C   0  0  0  0  0  0  0  0  0  0  0  0
  -25.5153   -8.9887   23.0631 C   0  0  0  0  0  0  0  0  0  0  0  0
  -27.2954  -15.5513   21.5145 C   0  0  0  0  0  0  0  0  0  0  0  0
  -28.9924  -17.4311   21.2073 C   0  0  0  0  0  0  0  0  0  0  0  0
  -31.6076  -25.5460   16.8564 C   0  0  0  0  0  0  0  0  0  0  0  0
  -25.3301  -28.7487   18.9100 C   0  0  0  0  0  0  0  0  0  0  0  0
  -30.2151  -25.6133   17.0539 C   0  0  0  0  0  0  0  0  0  0  0  0
  -24.9097  -28.4038   20.2025 C   0  0  0  0  0  0  0  0  0  0  0  0
  -20.9996  -24.0425   21.8645 C   0  0  0  0  0  0  0  0  0  0  0  0
  -23.0073  -22.8019   21.3480 C   0  0  0  0  0  0  0  0  0  0  0  0
  -21.3913  -24.1200   23.2010 C   0  0  0  0  0  0  0  0  0  0  0  0
  -23.3990  -22.8794   22.6845 C   0  0  0  0  0  0  0  0  0  0  0  0
  -26.2148  -13.0374   20.9711 C   0  0  0  0  0  0  0  0  0  0  0  0
  -22.6777  -27.9634   19.3456 C   0  0  0  0  0  0  0  0  0  0  0  0
  -25.3086  -11.0266   21.7819 C   0  0  0  0  0  0  0  0  0  0  0  0
  -24.5443   -9.4493   23.9524 C   0  0  0  0  0  0  0  0  0  0  0  0
  -25.8974   -9.7774   21.9779 C   0  0  0  0  0  0  0  0  0  0  0  0
  -27.8528  -16.8501   21.7951 C   0  0  0  0  0  0  0  0  0  0  0  0
  -29.1000  -18.6609   21.8094 C   0  0  0  0  0  0  0  0  0  0  0  0
  -29.8747  -16.9061   20.2064 C   0  0  0  0  0  0  0  0  0  0  0  0
  -28.0538  -27.2473   19.5662 C   0  0  0  0  0  0  0  0  0  0  0  0
  -21.4905  -23.4552   26.2713 C   0  0  0  0  0  0  0  0  0  0  0  0
  -28.1184  -29.2879   22.0869 C   0  0  0  0  0  0  0  0  0  0  0  0
  -26.3834  -31.2854   24.2426 C   0  0  0  0  0  0  0  0  0  0  0  0
  -25.1334  -22.2919   24.4145 C   0  0  0  0  0  0  0  0  0  0  0  0
  -32.5688  -25.4410   18.0138 C   0  0  0  0  0  0  0  0  0  0  0  0
  -26.7429  -29.2027   18.6644 C   0  0  0  0  0  0  0  0  0  0  0  0
  -25.8499  -28.4408   21.3785 C   0  0  0  0  0  0  0  0  0  0  0  0
  -31.9583  -25.8507   19.3516 C   0  0  0  0  0  0  0  0  0  0  0  0
  -28.0704  -20.9316   25.8981 C   0  0  0  0  0  0  0  0  0  0  0  0
  -30.5873  -25.2070   19.5322 C   0  0  0  0  0  0  0  0  0  0  0  0
  -28.4550  -19.7873   24.9575 C   0  0  0  0  0  0  0  0  0  0  0  0
  -26.5551  -21.0634   26.0408 C   0  0  0  0  0  0  0  0  0  0  0  0
  -26.2040  -20.0264   23.8339 C   0  0  0  0  0  0  0  0  0  0  0  0
  -29.6133  -25.6682   18.4413 C   0  0  1  0  0  0  0  0  0  0  0  0
  -27.7230  -28.7046   19.7220 C   0  0  1  0  0  0  0  0  0  0  0  0
  -27.7190  -19.8958   23.6077 C   0  0  2  0  0  0  0  0  0  0  0  0
  -23.8532  -22.1024   20.3340 C   0  0  0  0  0  0  0  0  0  0  0  0
  -22.1577  -23.3170   27.6200 C   0  0  0  0  0  0  0  0  0  0  0  0
  -18.7459  -23.5589   20.9135 C   0  0  0  0  0  0  0  0  0  0  0  0
  -26.7054  -32.7968   26.2198 C   0  0  0  0  0  0  0  0  0  0  0  0
  -18.6906  -26.6920   20.1843 C   0  0  0  0  0  0  0  0  0  0  0  0
  -19.1085  -24.1668   24.3277 C   0  0  0  0  0  0  0  0  0  0  0  0
  -20.1821  -26.2890   23.7484 C   0  0  0  0  0  0  0  0  0  0  0  0
  -20.2933  -25.5732   26.7211 C   0  0  0  0  0  0  0  0  0  0  0  0
  -22.5286  -25.6981   25.6927 C   0  0  0  0  0  0  0  0  0  0  0  0
  -28.4640  -26.8511   23.8904 C   0  0  0  0  0  0  0  0  0  0  0  0
  -27.8307  -28.2901   25.8388 C   0  0  0  0  0  0  0  0  0  0  0  0
  -29.8767  -28.8186   24.5131 C   0  0  0  0  0  0  0  0  0  0  0  0
  -25.3223  -33.6251   22.7735 C   0  0  0  0  0  0  0  0  0  0  0  0
  -21.1601  -26.6425   20.6137 C   0  0  0  0  0  0  0  0  0  1  0  0
  -19.6937  -24.6695   21.3932 C   0  0  2  0  0  0  0  0  0  0  0  0
  -27.5995  -29.2531   23.5042 C   0  0  1  0  0  0  0  0  0  0  0  0
  -26.6182  -32.7125   24.7039 C   0  0  2  0  0  0  0  0  0  0  0  0
  -19.9186  -25.7784   20.3174 C   0  0  1  0  0  0  0  0  0  0  0  0
  -20.5424  -24.8202   24.2107 C   0  0  0  0  0  0  0  0  0  0  0  0
  -21.2186  -24.8721   25.6903 C   0  0  0  0  0  0  0  0  0  0  0  0
  -28.4253  -28.3006   24.4143 C   0  0  0  0  0  0  0  0  0  0  0  0
  -27.2777  -17.6453   22.7011 N   0  0  0  0  0  0  0  0  0  0  0  0
  -28.0591  -18.7385   22.6872 N   0  0  0  0  0  0  0  0  0  0  0  0
  -27.2226  -28.8855   21.0862 N   0  0  0  0  0  0  0  0  0  0  0  0
  -25.9260  -21.1659   24.7222 N   0  0  0  0  0  0  0  0  0  0  0  0
  -29.9827  -19.6726   21.6683 N   0  0  0  0  0  0  0  0  0  0  0  0
  -29.6189  -15.6266   19.6950 N   0  0  0  0  0  0  0  0  0  0  0  0
  -24.6141  -22.2952   23.1203 N   0  0  0  0  0  0  0  0  0  0  0  0
  -29.1253  -26.9998   18.7295 N   0  0  0  0  0  0  0  0  0  0  0  0
  -27.5680  -30.6381   23.9615 N   0  0  0  0  0  0  0  0  0  0  0  0
  -25.5066  -33.5939   24.2473 N   0  3  0  0  0  0  0  0  0  0  0  0
  -30.8701  -17.5460   19.7903 O   0  0  0  0  0  0  0  0  0  0  0  0
  -27.3873  -26.4093   20.1623 O   0  0  0  0  0  0  0  0  0  0  0  0
  -21.1702  -22.4351   25.6535 O   0  0  0  0  0  0  0  0  0  0  0  0
  -29.2735  -29.6653   21.8749 O   0  0  0  0  0  0  0  0  0  0  0  0
  -25.2616  -30.7928   24.1453 O   0  0  0  0  0  0  0  0  0  0  0  0
  -24.9527  -23.2005   25.2293 O   0  0  0  0  0  0  0  0  0  0  0  0
  -25.6875  -11.8111   20.7055 O   0  0  0  0  0  0  0  0  0  0  0  0
  -21.3907  -27.5768   19.5600 O   0  0  0  0  0  0  0  0  0  1  0  0
  -24.1784   -8.6927   24.9953 F   0  0  0  0  0  0  0  0  0  0  0  0
  -26.8316   -9.3300   21.1275 F   0  0  0  0  0  0  0  0  0  0  0  0
  1  2  1  0  0  0  0
  1  5  2  0  0  0  0
  2  6  2  0  0  0  0
  3  8  2  0  0  0  0
  3 17  1  0  0  0  0
  4  9  1  0  0  0  0
  4 17  2  0  0  0  0
  5 19  1  0  0  0  0
  6 21  1  0  0  0  0
  7 10  2  0  0  0  0
  7 20  1  0  0  0  0
  8 27  1  0  0  0  0
  9 27  2  0  0  0  0
 10 28  1  0  0  0  0
 11 12  2  0  0  0  0
 11 29  1  0  0  0  0
 12 30  1  0  0  0  0
 13 22  1  0  0  0  0
 13 28  2  0  0  0  0
 14 23  1  0  0  0  0
 14 24  2  0  0  0  0
 15 25  1  0  0  0  0
 15 26  2  0  0  0  0
 16 30  2  0  0  0  0
 16 31  1  0  0  0  0
 17 32  1  0  0  0  0
 18 32  1  0  0  0  0
 18 33  2  0  0  0  0
 18 34  1  0  0  0  0
 19 21  2  0  0  0  0
 19 40  1  0  0  0  0
 20 22  2  0  0  0  0
 20 41  1  0  0  0  0
 21 49  1  0  0  0  0
 22 42  1  0  0  0  0
 23 25  2  0  0  0  0
 23 66  1  0  0  0  0
 24 26  1  0  0  0  0
 24 52  1  0  0  0  0
 25 70  1  0  0  0  0
 26 79  1  0  0  0  0
 27 89  1  0  0  0  0
 28 90  1  0  0  0  0
 29 31  2  0  0  0  0
 29 89  1  0  0  0  0
 30 91  1  0  0  0  0
 31 92  1  0  0  0  0
 32 73  2  0  0  0  0
 33 74  1  0  0  0  0
 33 77  1  0  0  0  0
 34 78  1  0  0  0  0
 34 83  2  0  0  0  0
 35 50  1  0  0  0  0
 35 80  1  0  0  0  0
 35 84  2  0  0  0  0
 36 53  1  0  0  0  0
 36 71  1  0  0  0  0
 36 85  2  0  0  0  0
 37 67  1  0  0  0  0
 37 75  1  0  0  0  0
 37 86  2  0  0  0  0
 38 68  1  0  0  0  0
 38 81  1  0  0  0  0
 38 87  2  0  0  0  0
 39 76  1  0  0  0  0
 39 79  1  0  0  0  0
 39 88  2  0  0  0  0
 40 43  1  0  0  0  0
 41 50  1  0  0  0  0
 42 75  1  0  0  0  0
 43 45  1  0  0  0  0
 44 46  1  0  0  0  0
 44 47  1  0  0  0  0
 45 49  1  0  0  0  0
 46 51  1  0  0  0  0
 47 76  1  0  0  0  0
 48 51  1  0  0  0  0
 48 76  1  0  0  0  0
 49 80  1  0  0  0  0
 50 75  1  0  0  0  0
 51 74  1  0  0  0  0
 54 66  1  0  0  0  0
 55 68  1  0  0  0  0
 56 69  1  0  0  0  0
 57 70  1  0  0  0  0
 58 70  1  0  0  0  0
 59 71  1  0  0  0  0
 60 71  1  0  0  0  0
 61 72  1  0  0  0  0
 62 72  1  0  0  0  0
 63 72  1  0  0  0  0
 64 82  1  0  0  0  0
 65 69  1  0  0  0  0
 65 90  1  0  0  0  0
 66 69  1  0  0  0  0
 67 72  1  0  0  0  0
 67 81  1  0  0  0  0
 68 82  1  0  0  0  0
 70 71  1  0  0  0  0
 73 74  1  0  0  0  0
M  CHG  1  82   1
M  ISO  4  39 100  65 101  79 100  90 101
M  END
> <Batch ID>
0140

> <Smiles>
CNC(C)C(=O)NC(C(=O)N1Cc2cc([101O:1][101CH2:1]C(C)C(C)c3cc(C)c([100NH:0][100C:0](=O)N4CCCC(n5nc(-c6ccc(Oc7ccc(F)cc7F)cc6)c(C(N)=O)c5N)C4)cc3C(C)(C)C(C)(C)C(C)=O)ccc2CC1C(=O)NC1CCCc2ccccc21)C(C)(C)C

> <Shape>
0.201

> <Color>
0.066

> <Negative vol penalty>
0.000

$$$$

  -OEChem-04052302513D

 86 94  0     1  0  0  0  0  0999 V2000
  -28.9801  -32.5250   28.5218 C   0  0  0  0  0  0  0  0  0  0  0  0
  -29.3652  -31.2799   29.0084 C   0  0  0  0  0  0  0  0  0  0  0  0
  -23.0055   -9.8616   20.0042 C   0  0  0  0  0  0  0  0  0  0  0  0
  -23.7090   -9.9725   22.3129 C   0  0  0  0  0  0  0  0  0  0  0  0
  -28.0794  -32.6095   27.4610 C   0  0  0  0  0  0  0  0  0  0  0  0
  -28.8489  -30.1184   28.4349 C   0  0  0  0  0  0  0  0  0  0  0  0
  -33.2012  -25.1563   25.5493 C   0  0  0  0  0  0  0  0  0  0  0  0
  -30.6273  -19.8371   21.2265 C   0  0  0  0  0  0  0  0  0  0  0  0
  -29.6945  -19.3118   22.1206 C   0  0  0  0  0  0  0  0  0  0  0  0
  -22.2414   -8.7306   20.2914 C   0  0  0  0  0  0  0  0  0  0  0  0
  -22.9449   -8.8415   22.6001 C   0  0  0  0  0  0  0  0  0  0  0  0
  -33.9786  -24.0632   25.1662 C   0  0  0  0  0  0  0  0  0  0  0  0
  -23.2080   -5.4931   22.2128 C   0  0  0  0  0  0  0  0  0  0  0  0
  -23.7930   -4.4974   22.9951 C   0  0  0  0  0  0  0  0  0  0  0  0
  -31.9842  -22.8570   24.5216 C   0  0  0  0  0  0  0  0  0  0  0  0
  -31.1632  -17.6047   20.4740 C   0  0  0  0  0  0  0  0  0  0  0  0
  -22.0526   -4.7736   24.6480 C   0  0  0  0  0  0  0  0  0  0  0  0
  -23.7393  -10.4826   21.0150 C   0  0  0  0  0  0  0  0  0  0  0  0
  -24.1154  -12.9948   20.7806 C   0  0  0  0  0  0  0  0  0  0  0  0
  -27.5592  -31.4483   26.8679 C   0  0  0  0  0  0  0  0  0  0  0  0
  -31.8117  -25.1097   25.4055 C   0  0  0  0  0  0  0  0  0  0  0  0
  -27.9394  -30.1874   27.3660 C   0  0  0  0  0  0  0  0  0  0  0  0
  -31.2013  -23.9536   24.8920 C   0  0  0  0  0  0  0  0  0  0  0  0
  -31.3616  -18.9835   20.4032 C   0  0  0  0  0  0  0  0  0  0  0  0
  -29.4960  -17.9329   22.1915 C   0  0  0  0  0  0  0  0  0  0  0  0
  -30.2304  -17.0793   21.3682 C   0  0  0  0  0  0  0  0  0  0  0  0
  -22.2111   -8.2205   21.5893 C   0  0  0  0  0  0  0  0  0  0  0  0
  -33.3716  -22.9163   24.6539 C   0  0  0  0  0  0  0  0  0  0  0  0
  -22.0454   -6.1291   22.6481 C   0  0  0  0  0  0  0  0  0  0  0  0
  -23.2153   -4.1376   24.2127 C   0  0  0  0  0  0  0  0  0  0  0  0
  -21.4677   -5.7694   23.8657 C   0  0  0  0  0  0  0  0  0  0  0  0
  -24.5292  -11.6507   20.7188 C   0  0  0  0  0  0  0  0  0  0  0  0
  -25.2253  -13.7133   20.4087 C   0  0  0  0  0  0  0  0  0  0  0  0
  -22.8415  -13.5448   21.1419 C   0  0  0  0  0  0  0  0  0  0  0  0
  -28.5328  -26.8863   25.8157 C   0  0  0  0  0  0  0  0  0  0  0  0
  -33.4753  -20.3517   20.1906 C   0  0  0  0  0  0  0  0  0  0  0  0
  -28.4015  -25.3783   23.1475 C   0  0  0  0  0  0  0  0  0  0  0  0
  -28.8178  -23.9176   20.0930 C   0  0  0  0  0  0  0  0  0  0  0  0
  -30.6982  -14.7047   20.6690 C   0  0  0  0  0  0  0  0  0  0  0  0
  -26.5520  -31.5906   25.7544 C   0  0  0  0  0  0  0  0  0  0  0  0
  -30.9301  -26.2400   25.8624 C   0  0  0  0  0  0  0  0  0  0  0  0
  -29.7007  -23.9351   24.7875 C   0  0  0  0  0  0  0  0  0  0  0  0
  -26.3397  -30.3062   24.9573 C   0  0  0  0  0  0  0  0  0  0  0  0
  -29.6121  -12.1903   18.3941 C   0  0  0  0  0  0  0  0  0  0  0  0
  -26.1666  -29.1172   25.8971 C   0  0  0  0  0  0  0  0  0  0  0  0
  -28.1589  -11.9364   18.8012 C   0  0  0  0  0  0  0  0  0  0  0  0
  -30.5003  -12.4675   19.6057 C   0  0  0  0  0  0  0  0  0  0  0  0
  -28.5693  -13.2802   20.9018 C   0  0  0  0  0  0  0  0  0  0  0  0
  -27.4203  -28.9043   26.7541 C   0  0  1  0  0  0  0  0  0  0  0  0
  -29.6892  -26.4351   24.9727 C   0  0  1  0  0  0  0  0  0  0  0  0
  -27.6235  -13.0603   19.7098 C   0  0  2  0  0  0  0  0  0  0  0  0
  -28.4908  -17.3981   23.1593 C   0  0  0  0  0  0  0  0  0  0  0  0
  -27.6156  -23.4958   17.9310 C   0  0  0  0  0  0  0  0  0  0  0  0
  -31.6475  -20.5110   18.4490 C   0  0  0  0  0  0  0  0  0  0  0  0
  -33.1149  -18.5130   18.5522 C   0  0  0  0  0  0  0  0  0  0  0  0
  -26.7608  -23.1863   24.4918 C   0  0  0  0  0  0  0  0  0  0  0  0
  -26.3353  -22.2128   22.2248 C   0  0  0  0  0  0  0  0  0  0  0  0
  -25.5223  -24.5078   22.7673 C   0  0  0  0  0  0  0  0  0  0  0  0
  -30.8295  -25.4379   18.5436 C   0  0  0  0  0  0  0  0  0  0  0  0
  -34.3053  -19.5898   21.2216 C   0  0  0  0  0  0  0  0  0  0  0  0
  -34.7791  -20.4645   22.3840 C   0  0  0  0  0  0  0  0  0  0  0  0
  -33.6372  -21.0374   23.2197 C   0  0  0  0  0  0  0  0  0  1  0  0
  -27.9968  -24.1181   22.4254 C   0  0  1  0  0  0  0  0  0  0  0  0
  -28.5503  -24.4264   18.6880 C   0  0  2  0  0  0  0  0  0  0  0  0
  -32.3875  -19.5623   19.4198 C   0  0  0  0  0  0  0  0  0  0  0  0
  -26.6804  -23.5102   22.9866 C   0  0  0  0  0  0  0  0  0  0  0  0
  -25.8027  -11.5203   20.3375 N   0  0  0  0  0  0  0  0  0  0  0  0
  -26.1985  -12.7917   20.1562 N   0  0  0  0  0  0  0  0  0  0  0  0
  -29.2169  -25.2268   24.2756 N   0  0  0  0  0  0  0  0  0  0  0  0
  -29.9329  -13.5463   20.4175 N   0  0  0  0  0  0  0  0  0  0  0  0
  -25.4540  -15.0371   20.2761 N   0  0  0  0  0  0  0  0  0  0  0  0
  -21.8104  -12.6647   21.4976 N   0  0  0  0  0  0  0  0  0  0  0  0
  -30.0426  -15.6760   21.4249 N   0  0  0  0  0  0  0  0  0  0  0  0
  -28.4575  -28.2563   25.9804 N   0  0  0  0  0  0  0  0  0  0  0  0
  -27.9405  -24.4599   21.0082 N   0  0  0  0  0  0  0  0  0  0  0  0
  -29.8257  -24.5345   17.9246 N   0  3  0  0  0  0  0  0  0  0  0  0
  -22.6193  -14.7793   21.1332 O   0  0  0  0  0  0  0  0  0  0  0  0
  -27.7638  -26.0539   26.2817 O   0  0  0  0  0  0  0  0  0  0  0  0
  -33.6888  -21.5447   19.9642 O   0  0  0  0  0  0  0  0  0  0  0  0
  -28.0022  -26.4684   22.7283 O   0  0  0  0  0  0  0  0  0  0  0  0
  -29.7129  -23.1162   20.3520 O   0  0  0  0  0  0  0  0  0  0  0  0
  -31.8404  -14.8376   20.2222 O   0  0  0  0  0  0  0  0  0  0  0  0
  -21.4655   -7.1169   21.8700 O   0  0  0  0  0  0  0  0  0  0  0  0
  -34.1369  -21.8544   24.2776 O   0  0  0  0  0  0  0  0  0  1  0  0
  -23.7762   -3.1803   24.9631 F   0  0  0  0  0  0  0  0  0  0  0  0
  -20.3501   -6.3760   24.2886 F   0  0  0  0  0  0  0  0  0  0  0  0
  1  2  1  0  0  0  0
  1  5  2  0  0  0  0
  2  6  2  0  0  0  0
  3 10  2  0  0  0  0
  3 18  1  0  0  0  0
  4 11  1  0  0  0  0
  4 18  2  0  0  0  0
  5 20  1  0  0  0  0
  6 22  1  0  0  0  0
  7 12  2  0  0  0  0
  7 21  1  0  0  0  0
  8  9  2  0  0  0  0
  8 24  1  0  0  0  0
  9 25  1  0  0  0  0
 10 27  1  0  0  0  0
 11 27  2  0  0  0  0
 12 28  1  0  0  0  0
 13 14  2  0  0  0  0
 13 29  1  0  0  0  0
 14 30  1  0  0  0  0
 15 23  1  0  0  0  0
 15 28  2  0  0  0  0
 16 24  2  0  0  0  0
 16 26  1  0  0  0  0
 17 30  2  0  0  0  0
 17 31  1  0  0  0  0
 18 32  1  0  0  0  0
 19 32  1  0  0  0  0
 19 33  2  0  0  0  0
 19 34  1  0  0  0  0
 20 22  2  0  0  0  0
 20 40  1  0  0  0  0
 21 23  2  0  0  0  0
 21 41  1  0  0  0  0
 22 49  1  0  0  0  0
 23 42  1  0  0  0  0
 24 65  1  0  0  0  0
 25 26  2  0  0  0  0
 25 52  1  0  0  0  0
 26 73  1  0  0  0  0
 27 83  1  0  0  0  0
 28 84  1  0  0  0  0
 29 31  2  0  0  0  0
 29 83  1  0  0  0  0
 30 85  1  0  0  0  0
 31 86  1  0  0  0  0
 32 67  2  0  0  0  0
 33 68  1  0  0  0  0
 33 71  1  0  0  0  0
 34 72  1  0  0  0  0
 34 77  2  0  0  0  0
 35 50  1  0  0  0  0
 35 74  1  0  0  0  0
 35 78  2  0  0  0  0
 36 60  1  0  0  0  0
 36 65  1  0  0  0  0
 36 79  2  0  0  0  0
 37 63  1  0  0  0  0
 37 69  1  0  0  0  0
 37 80  2  0  0  0  0
 38 64  1  0  0  0  0
 38 75  1  0  0  0  0
 38 81  2  0  0  0  0
 39 70  1  0  0  0  0
 39 73  1  0  0  0  0
 39 82  2  0  0  0  0
 40 43  1  0  0  0  0
 41 50  1  0  0  0  0
 42 69  1  0  0  0  0
 43 45  1  0  0  0  0
 44 46  1  0  0  0  0
 44 47  1  0  0  0  0
 45 49  1  0  0  0  0
 46 51  1  0  0  0  0
 47 70  1  0  0  0  0
 48 51  1  0  0  0  0
 48 70  1  0  0  0  0
 49 74  1  0  0  0  0
 50 69  1  0  0  0  0
 51 68  1  0  0  0  0
 53 64  1  0  0  0  0
 54 65  1  0  0  0  0
 55 65  1  0  0  0  0
 56 66  1  0  0  0  0
 57 66  1  0  0  0  0
 58 66  1  0  0  0  0
 59 76  1  0  0  0  0
 60 61  1  0  0  0  0
 61 62  1  0  0  0  0
 62 84  1  0  0  0  0
 63 66  1  0  0  0  0
 63 75  1  0  0  0  0
 64 76  1  0  0  0  0
 67 68  1  0  0  0  0
M  CHG  1  76   1
M  ISO  4  39 100  62 101  73 100  84 101
M  END
> <Batch ID>
0140

> <Smiles>
CNC(C)C(=O)NC(C(=O)N1Cc2cc([101O:1][101CH2:1]CCC(=O)C(C)(C)c3ccc(C)c([100NH:0][100C:0](=O)N4CCCC(n5nc(-c6ccc(Oc7ccc(F)cc7F)cc6)c(C(N)=O)c5N)C4)c3)ccc2CC1C(=O)NC1CCCc2ccccc21)C(C)(C)C

> <Shape>
0.251

> <Color>
0.198

> <Negative vol penalty>
0.000

$$$$

  -OEChem-04052302513D

 86 95  0     1  0  0  0  0  0999 V2000
  -16.8493  -28.7409   23.5514 C   0  0  0  0  0  0  0  0  0  0  0  0
  -18.0198  -28.3997   22.8813 C   0  0  0  0  0  0  0  0  0  0  0  0
  -24.1556   -9.1725   21.5007 C   0  0  0  0  0  0  0  0  0  0  0  0
  -24.1683  -10.8030   23.2835 C   0  0  0  0  0  0  0  0  0  0  0  0
  -16.7969  -29.9097   24.3096 C   0  0  0  0  0  0  0  0  0  0  0  0
  -19.1383  -29.2279   22.9683 C   0  0  0  0  0  0  0  0  0  0  0  0
  -27.5982  -20.4770   19.6006 C   0  0  0  0  0  0  0  0  0  0  0  0
  -23.4160  -26.6379   23.7668 C   0  0  0  0  0  0  0  0  0  0  0  0
  -27.5504  -19.0913   19.4487 C   0  0  0  0  0  0  0  0  0  0  0  0
  -23.6868   -8.2047   22.3890 C   0  0  0  0  0  0  0  0  0  0  0  0
  -23.6993   -9.8352   24.1719 C   0  0  0  0  0  0  0  0  0  0  0  0
  -23.9860  -25.9956   22.6684 C   0  0  0  0  0  0  0  0  0  0  0  0
  -20.7401   -7.3425   23.8055 C   0  0  0  0  0  0  0  0  0  0  0  0
  -19.6938   -6.5243   23.3798 C   0  0  0  0  0  0  0  0  0  0  0  0
  -25.5623  -27.8067   22.4349 C   0  0  0  0  0  0  0  0  0  0  0  0
  -29.9504  -18.9806   19.7041 C   0  0  0  0  0  0  0  0  0  0  0  0
  -21.0935   -4.5780   23.6798 C   0  0  0  0  0  0  0  0  0  0  0  0
  -24.3964  -10.4717   21.9479 C   0  0  0  0  0  0  0  0  0  0  0  0
  -24.1108  -12.3439   20.2389 C   0  0  0  0  0  0  0  0  0  0  0  0
  -17.9183  -30.7477   24.4138 C   0  0  0  0  0  0  0  0  0  0  0  0
  -23.9088  -27.8767   24.2015 C   0  0  0  0  0  0  0  0  0  0  0  0
  -19.1004  -30.4098   23.7275 C   0  0  0  0  0  0  0  0  0  0  0  0
  -28.8221  -21.1146   19.8042 C   0  0  0  0  0  0  0  0  0  0  0  0
  -24.9985  -28.4614   23.5406 C   0  0  0  0  0  0  0  0  0  0  0  0
  -29.9981  -20.3664   19.8559 C   0  0  0  0  0  0  0  0  0  0  0  0
  -28.7265  -18.3431   19.5004 C   0  0  0  0  0  0  0  0  0  0  0  0
  -23.4586   -8.5361   23.7246 C   0  0  0  0  0  0  0  0  0  0  0  0
  -25.0574  -26.5813   22.0005 C   0  0  0  0  0  0  0  0  0  0  0  0
  -21.9633   -6.7784   24.1684 C   0  0  0  0  0  0  0  0  0  0  0  0
  -19.8704   -5.1421   23.3169 C   0  0  0  0  0  0  0  0  0  0  0  0
  -22.1399   -5.3963   24.1056 C   0  0  0  0  0  0  0  0  0  0  0  0
  -24.8813  -11.4717   21.0309 C   0  0  0  0  0  0  0  0  0  0  0  0
  -25.0358  -13.0905   19.5508 C   0  0  0  0  0  0  0  0  0  0  0  0
  -27.6357  -23.1660   20.6880 C   0  0  0  0  0  0  0  0  0  0  0  0
  -26.7320  -23.9911   20.1308 C   0  0  0  0  0  0  0  0  0  0  0  0
  -22.6862  -12.4683   20.1347 C   0  0  0  0  0  0  0  0  0  0  0  0
  -22.6996  -30.8046   24.4641 C   0  0  0  0  0  0  0  0  0  0  0  0
  -25.5461  -31.4309   25.8881 C   0  0  0  0  0  0  0  0  0  0  0  0
  -28.8309  -30.5963   26.2889 C   0  0  0  0  0  0  0  0  0  0  0  0
  -29.7517  -16.0454   19.3737 C   0  0  0  0  0  0  0  0  0  0  0  0
  -17.7990  -32.0250   25.2068 C   0  0  0  0  0  0  0  0  0  0  0  0
  -23.3002  -28.5438   25.4044 C   0  0  0  0  0  0  0  0  0  0  0  0
  -25.5777  -29.7804   23.9801 C   0  0  0  0  0  0  0  0  0  0  0  0
  -26.8293  -24.4364   18.6937 C   0  0  0  0  0  0  0  0  0  0  0  0
  -19.1455  -32.6559   25.5517 C   0  0  0  0  0  0  0  0  0  0  0  0
  -27.8164  -23.6219   17.8554 C   0  0  0  0  0  0  0  0  0  0  0  0
  -30.0415  -12.5094   19.0746 C   0  0  0  0  0  0  0  0  0  0  0  0
  -29.1052  -23.3398   18.6225 C   0  0  0  0  0  0  0  0  0  0  0  0
  -20.0505  -32.6873   24.3242 C   0  0  0  0  0  0  0  0  0  0  0  0
  -28.6614  -11.9959   19.4917 C   0  0  0  0  0  0  0  0  0  0  0  0
  -30.4672  -13.7241   19.8974 C   0  0  0  0  0  0  0  0  0  0  0  0
  -28.1168  -14.3124   20.3428 C   0  0  0  0  0  0  0  0  0  0  0  0
  -28.8487  -22.6284   19.9665 C   0  0  2  0  0  0  0  0  0  0  0  0
  -20.3424  -31.2697   23.8176 C   0  0  1  0  0  0  0  0  0  0  0  0
  -23.5510  -30.0481   25.4441 C   0  0  1  0  0  0  0  0  0  0  0  0
  -27.6168  -13.1292   19.4980 C   0  0  2  0  0  0  0  0  0  0  0  0
  -31.8218  -20.8561   21.5054 C   0  0  0  0  0  0  0  0  0  0  0  0
  -30.9142  -31.3166   27.4882 C   0  0  0  0  0  0  0  0  0  0  0  0
  -25.8901  -33.7260   23.9071 C   0  0  0  0  0  0  0  0  0  0  0  0
  -28.3205  -33.7856   24.5050 C   0  0  0  0  0  0  0  0  0  0  0  0
  -26.5975  -34.2529   26.2472 C   0  0  0  0  0  0  0  0  0  0  0  0
  -29.0195  -28.0273   27.7460 C   0  0  0  0  0  0  0  0  0  0  0  0
  -31.3195  -21.0271   20.0750 C   0  0  0  0  0  0  0  0  0  0  0  0
  -25.5687  -24.5307   20.9098 C   0  0  0  0  0  0  0  0  0  1  0  0
  -26.9033  -31.8871   25.4097 C   0  0  1  0  0  0  0  0  0  0  0  0
  -29.6822  -30.4262   27.5341 C   0  0  2  0  0  0  0  0  0  0  0  0
  -26.9159  -33.3890   25.0076 C   0  0  0  0  0  0  0  0  0  0  0  0
  -26.1947  -11.6466   20.8623 N   0  0  0  0  0  0  0  0  0  0  0  0
  -26.2566  -12.6374   19.9564 N   0  0  0  0  0  0  0  0  0  0  0  0
  -24.9441  -30.3966   25.1576 N   0  0  0  0  0  0  0  0  0  0  0  0
  -29.4309  -14.7580   19.8536 N   0  0  0  0  0  0  0  0  0  0  0  0
  -24.9158  -14.0836   18.6444 N   0  0  0  0  0  0  0  0  0  0  0  0
  -21.8831  -11.6230   20.9124 N   0  0  0  0  0  0  0  0  0  0  0  0
  -28.6782  -16.9352   19.3481 N   0  0  0  0  0  0  0  0  0  0  0  0
  -21.3411  -30.6317   24.6483 N   0  0  0  0  0  0  0  0  0  0  0  0
  -27.8460  -31.5443   26.4692 N   0  0  0  0  0  0  0  0  0  0  0  0
  -30.1300  -29.0109   27.6661 N   0  3  0  0  0  0  0  0  0  0  0  0
  -22.1416  -13.2930   19.3622 O   0  0  0  0  0  0  0  0  0  0  0  0
  -23.2356  -31.4952   23.6053 O   0  0  0  0  0  0  0  0  0  0  0  0
  -25.0419  -31.9674   26.8778 O   0  0  0  0  0  0  0  0  0  0  0  0
  -29.0229  -29.9553   25.2580 O   0  0  0  0  0  0  0  0  0  0  0  0
  -30.8882  -16.3292   18.9866 O   0  0  0  0  0  0  0  0  0  0  0  0
  -23.0009   -7.5920   24.5917 O   0  0  0  0  0  0  0  0  0  0  0  0
  -25.6151  -25.9569   20.9277 O   0  0  0  0  0  0  0  0  0  1  0  0
  -18.8650   -4.3564   22.9095 F   0  0  0  0  0  0  0  0  0  0  0  0
  -23.3123   -4.8485   24.4540 F   0  0  0  0  0  0  0  0  0  0  0  0
  1  2  1  0  0  0  0
  1  5  2  0  0  0  0
  2  6  2  0  0  0  0
  3 10  2  0  0  0  0
  3 18  1  0  0  0  0
  4 11  1  0  0  0  0
  4 18  2  0  0  0  0
  5 20  1  0  0  0  0
  6 22  1  0  0  0  0
  7  9  2  0  0  0  0
  7 23  1  0  0  0  0
  8 12  2  0  0  0  0
  8 21  1  0  0  0  0
  9 26  1  0  0  0  0
 10 27  1  0  0  0  0
 11 27  2  0  0  0  0
 12 28  1  0  0  0  0
 13 14  2  0  0  0  0
 13 29  1  0  0  0  0
 14 30  1  0  0  0  0
 15 24  1  0  0  0  0
 15 28  2  0  0  0  0
 16 25  1  0  0  0  0
 16 26  2  0  0  0  0
 17 30  2  0  0  0  0
 17 31  1  0  0  0  0
 18 32  1  0  0  0  0
 19 32  1  0  0  0  0
 19 33  2  0  0  0  0
 19 36  1  0  0  0  0
 20 22  2  0  0  0  0
 20 41  1  0  0  0  0
 21 24  2  0  0  0  0
 21 42  1  0  0  0  0
 22 54  1  0  0  0  0
 23 25  2  0  0  0  0
 23 53  1  0  0  0  0
 24 43  1  0  0  0  0
 25 63  1  0  0  0  0
 26 74  1  0  0  0  0
 27 83  1  0  0  0  0
 28 84  1  0  0  0  0
 29 31  2  0  0  0  0
 29 83  1  0  0  0  0
 30 85  1  0  0  0  0
 31 86  1  0  0  0  0
 32 68  2  0  0  0  0
 33 69  1  0  0  0  0
 33 72  1  0  0  0  0
 34 35  2  0  0  0  0
 34 53  1  0  0  0  0
 35 44  1  0  0  0  0
 35 64  1  0  0  0  0
 36 73  1  0  0  0  0
 36 78  2  0  0  0  0
 37 55  1  0  0  0  0
 37 75  1  0  0  0  0
 37 79  2  0  0  0  0
 38 65  1  0  0  0  0
 38 70  1  0  0  0  0
 38 80  2  0  0  0  0
 39 66  1  0  0  0  0
 39 76  1  0  0  0  0
 39 81  2  0  0  0  0
 40 71  1  0  0  0  0
 40 74  1  0  0  0  0
 40 82  2  0  0  0  0
 41 45  1  0  0  0  0
 42 55  1  0  0  0  0
 43 70  1  0  0  0  0
 44 46  1  0  0  0  0
 45 49  1  0  0  0  0
 46 48  1  0  0  0  0
 47 50  1  0  0  0  0
 47 51  1  0  0  0  0
 48 53  1  0  0  0  0
 49 54  1  0  0  0  0
 50 56  1  0  0  0  0
 51 71  1  0  0  0  0
 52 56  1  0  0  0  0
 52 71  1  0  0  0  0
 54 75  1  0  0  0  0
 55 70  1  0  0  0  0
 56 69  1  0  0  0  0
 57 63  1  0  0  0  0
 58 66  1  0  0  0  0
 59 67  1  0  0  0  0
 60 67  1  0  0  0  0
 61 67  1  0  0  0  0
 62 77  1  0  0  0  0
 64 84  1  0  0  0  0
 65 67  1  0  0  0  0
 65 76  1  0  0  0  0
 66 77  1  0  0  0  0
 68 69  1  0  0  0  0
M  CHG  1  77   1
M  ISO  4  40 100  64 101  74 100  84 101
M  END
> <Batch ID>
0140

> <Smiles>
CCc1cc([100NH:0][100C:0](=O)N2CCCC(n3nc(-c4ccc(Oc5ccc(F)cc5F)cc4)c(C(N)=O)c3N)C2)ccc1C1C=C([101CH2:1][101O:1]c2ccc3c(c2)CN(C(=O)C(NC(=O)C(C)NC)C(C)(C)C)C(C(=O)NC2CCCc4ccccc42)C3)CCC1

> <Shape>
0.295

> <Color>
0.084

> <Negative vol penalty>
0.000

$$$$

  -OEChem-04052302513D

 89 97  0     1  0  0  0  0  0999 V2000
  -32.7596  -26.3530   22.0314 C   0  0  0  0  0  0  0  0  0  0  0  0
  -31.7365  -25.8367   21.2427 C   0  0  0  0  0  0  0  0  0  0  0  0
  -28.8774  -22.2551   20.7017 C   0  0  0  0  0  0  0  0  0  0  0  0
  -26.5493  -10.8886   20.9280 C   0  0  0  0  0  0  0  0  0  0  0  0
  -25.5782  -12.5062   19.4189 C   0  0  0  0  0  0  0  0  0  0  0  0
  -32.4735  -26.8590   23.2987 C   0  0  0  0  0  0  0  0  0  0  0  0
  -30.4268  -25.8250   21.7213 C   0  0  0  0  0  0  0  0  0  0  0  0
  -27.0781  -27.3814   18.2560 C   0  0  0  0  0  0  0  0  0  0  0  0
  -28.0518  -22.4435   19.5934 C   0  0  0  0  0  0  0  0  0  0  0  0
  -29.4632  -21.0102   20.9315 C   0  0  0  0  0  0  0  0  0  0  0  0
  -25.2826  -10.3600   21.1764 C   0  0  0  0  0  0  0  0  0  0  0  0
  -24.3115  -11.9776   19.6673 C   0  0  0  0  0  0  0  0  0  0  0  0
  -26.7165  -26.4695   17.2654 C   0  0  0  0  0  0  0  0  0  0  0  0
  -22.4936   -9.3037   18.6844 C   0  0  0  0  0  0  0  0  0  0  0  0
  -21.6582   -9.0847   17.5891 C   0  0  0  0  0  0  0  0  0  0  0  0
  -24.6848  -25.9767   18.4690 C   0  0  0  0  0  0  0  0  0  0  0  0
  -20.0292  -10.6018   18.5282 C   0  0  0  0  0  0  0  0  0  0  0  0
  -26.6971  -11.9618   20.0492 C   0  0  0  0  0  0  0  0  0  0  0  0
  -28.9093  -12.1145   18.7881 C   0  0  0  0  0  0  0  0  0  0  0  0
  -31.1583  -26.8624   23.7893 C   0  0  0  0  0  0  0  0  0  0  0  0
  -26.2496  -27.5902   19.3679 C   0  0  0  0  0  0  0  0  0  0  0  0
  -30.1231  -26.3303   22.9969 C   0  0  0  0  0  0  0  0  0  0  0  0
  -25.0369  -26.8938   19.4711 C   0  0  0  0  0  0  0  0  0  0  0  0
  -27.8118  -21.3870   18.7148 C   0  0  0  0  0  0  0  0  0  0  0  0
  -28.3974  -20.1421   18.9446 C   0  0  0  0  0  0  0  0  0  0  0  0
  -29.2231  -19.9537   20.0530 C   0  0  0  0  0  0  0  0  0  0  0  0
  -24.1638  -10.9045   20.5461 C   0  0  0  0  0  0  0  0  0  0  0  0
  -25.5211  -25.7648   17.3732 C   0  0  0  0  0  0  0  0  0  0  0  0
  -22.0968  -10.1717   19.7017 C   0  0  0  0  0  0  0  0  0  0  0  0
  -20.4260   -9.7337   17.5110 C   0  0  0  0  0  0  0  0  0  0  0  0
  -20.8646  -10.8208   19.6235 C   0  0  0  0  0  0  0  0  0  0  0  0
  -28.0052  -12.5086   19.7926 C   0  0  0  0  0  0  0  0  0  0  0  0
  -29.9974  -12.9337   18.9647 C   0  0  0  0  0  0  0  0  0  0  0  0
  -28.7772  -11.0986   17.7849 C   0  0  0  0  0  0  0  0  0  0  0  0
  -26.5636  -27.1911   22.5057 C   0  0  0  0  0  0  0  0  0  0  0  0
  -24.6611  -22.5570   15.9148 C   0  0  0  0  0  0  0  0  0  0  0  0
  -23.6587  -28.6325   22.5864 C   0  0  0  0  0  0  0  0  0  0  0  0
  -20.7544  -29.3903   20.9625 C   0  0  0  0  0  0  0  0  0  0  0  0
  -30.6718  -18.3642   21.3649 C   0  0  0  0  0  0  0  0  0  0  0  0
  -30.9051  -27.3767   25.1843 C   0  0  0  0  0  0  0  0  0  0  0  0
  -26.6411  -28.5971   20.4145 C   0  0  0  0  0  0  0  0  0  0  0  0
  -24.1025  -27.0965   20.6347 C   0  0  0  0  0  0  0  0  0  0  0  0
  -29.4341  -27.6706   25.4675 C   0  0  0  0  0  0  0  0  0  0  0  0
  -32.3345  -15.3761   22.3570 C   0  0  0  0  0  0  0  0  0  0  0  0
  -28.5574  -26.5186   24.9866 C   0  0  0  0  0  0  0  0  0  0  0  0
  -31.4988  -14.2661   21.7155 C   0  0  0  0  0  0  0  0  0  0  0  0
  -31.4631  -16.5319   22.8454 C   0  0  0  0  0  0  0  0  0  0  0  0
  -29.7171  -15.9817   21.1967 C   0  0  0  0  0  0  0  0  0  0  0  0
  -28.6861  -26.3228   23.4711 C   0  0  1  0  0  0  0  0  0  0  0  0
  -25.9673  -28.3520   21.7611 C   0  0  1  0  0  0  0  0  0  0  0  0
  -30.5570  -14.8250   20.6309 C   0  0  2  0  0  0  0  0  0  0  0  0
  -28.1371  -19.0115   17.9991 C   0  0  0  0  0  0  0  0  0  0  0  0
  -20.5604  -20.9534   16.2789 C   0  0  0  0  0  0  0  0  0  0  0  0
  -18.5529  -30.5469   21.2996 C   0  0  0  0  0  0  0  0  0  0  0  0
  -22.8157  -19.5789   17.7003 C   0  0  0  0  0  0  0  0  0  0  0  0
  -24.9271  -20.0975   15.4616 C   0  0  0  0  0  0  0  0  0  0  0  0
  -22.6659  -26.2593   24.2272 C   0  0  0  0  0  0  0  0  0  0  0  0
  -20.3220  -26.9801   23.7225 C   0  0  0  0  0  0  0  0  0  0  0  0
  -21.8388  -28.4865   25.0082 C   0  0  0  0  0  0  0  0  0  0  0  0
  -21.3157  -31.3381   18.8061 C   0  0  0  0  0  0  0  0  0  0  0  0
  -26.9145  -21.6183   17.5236 C   0  0  0  0  0  0  0  0  0  0  0  0
  -24.3750  -23.7609   16.8016 C   0  0  0  0  0  0  0  0  0  1  0  0
  -22.0130  -21.1022   15.8390 C   0  0  0  0  0  0  0  0  0  0  0  0
  -25.5159  -21.0169   17.7492 C   0  0  0  0  0  0  0  0  0  0  0  0
  -22.2271  -28.1564   22.5318 C   0  0  1  0  0  0  0  0  0  0  0  0
  -19.9893  -30.6940   20.8222 C   0  0  2  0  0  0  0  0  0  0  0  0
  -23.0365  -20.9273   16.9906 C   0  0  2  0  0  0  0  0  0  0  0  0
  -24.5382  -21.1352   16.5367 C   0  0  1  0  0  0  0  0  0  0  0  0
  -21.7818  -27.4651   23.8514 C   0  0  0  0  0  0  0  0  0  0  0  0
  -28.4780  -13.5010   20.5513 N   0  0  0  0  0  0  0  0  0  0  0  0
  -29.6911  -13.7373   20.0233 N   0  0  0  0  0  0  0  0  0  0  0  0
  -24.5326  -28.0871   21.6353 N   0  0  0  0  0  0  0  0  0  0  0  0
  -30.6008  -17.0126   21.7636 N   0  0  0  0  0  0  0  0  0  0  0  0
  -31.1769  -13.0379   18.3163 N   0  0  0  0  0  0  0  0  0  0  0  0
  -27.5935  -10.3493   17.7445 N   0  0  0  0  0  0  0  0  0  0  0  0
  -29.8288  -18.6978   20.3053 N   0  0  0  0  0  0  0  0  0  0  0  0
  -27.9144  -27.3230   22.7650 N   0  0  0  0  0  0  0  0  0  0  0  0
  -21.4243  -29.3182   22.1655 N   0  0  0  0  0  0  0  0  0  0  0  0
  -19.9687  -31.1318   19.3978 N   0  3  0  0  0  0  0  0  0  0  0  0
  -29.6888  -10.8514   16.9594 O   0  0  0  0  0  0  0  0  0  0  0  0
  -25.8505  -26.2463   22.8230 O   0  0  0  0  0  0  0  0  0  0  0  0
  -25.0190  -22.7213   14.7453 O   0  0  0  0  0  0  0  0  0  0  0  0
  -23.9877  -29.4632   23.4369 O   0  0  0  0  0  0  0  0  0  0  0  0
  -20.7543  -28.5212   20.0935 O   0  0  0  0  0  0  0  0  0  0  0  0
  -31.4446  -19.1601   21.9044 O   0  0  0  0  0  0  0  0  0  0  0  0
  -22.9276  -10.3887   20.7881 O   0  0  0  0  0  0  0  0  0  0  0  0
  -25.1628  -24.8654   16.3990 O   0  0  0  0  0  0  0  0  0  1  0  0
  -19.6246   -9.5245   16.4583 F   0  0  0  0  0  0  0  0  0  0  0  0
  -20.4785  -11.6567   20.5972 F   0  0  0  0  0  0  0  0  0  0  0  0
  1  2  1  0  0  0  0
  1  6  2  0  0  0  0
  2  7  2  0  0  0  0
  3  9  2  0  0  0  0
  3 10  1  0  0  0  0
  4 11  2  0  0  0  0
  4 18  1  0  0  0  0
  5 12  1  0  0  0  0
  5 18  2  0  0  0  0
  6 20  1  0  0  0  0
  7 22  1  0  0  0  0
  8 13  2  0  0  0  0
  8 21  1  0  0  0  0
  9 24  1  0  0  0  0
 10 26  2  0  0  0  0
 11 27  1  0  0  0  0
 12 27  2  0  0  0  0
 13 28  1  0  0  0  0
 14 15  2  0  0  0  0
 14 29  1  0  0  0  0
 15 30  1  0  0  0  0
 16 23  1  0  0  0  0
 16 28  2  0  0  0  0
 17 30  2  0  0  0  0
 17 31  1  0  0  0  0
 18 32  1  0  0  0  0
 19 32  1  0  0  0  0
 19 33  2  0  0  0  0
 19 34  1  0  0  0  0
 20 22  2  0  0  0  0
 20 40  1  0  0  0  0
 21 23  2  0  0  0  0
 21 41  1  0  0  0  0
 22 49  1  0  0  0  0
 23 42  1  0  0  0  0
 24 25  2  0  0  0  0
 24 61  1  0  0  0  0
 25 26  1  0  0  0  0
 25 52  1  0  0  0  0
 26 76  1  0  0  0  0
 27 86  1  0  0  0  0
 28 87  1  0  0  0  0
 29 31  2  0  0  0  0
 29 86  1  0  0  0  0
 30 88  1  0  0  0  0
 31 89  1  0  0  0  0
 32 70  2  0  0  0  0
 33 71  1  0  0  0  0
 33 74  1  0  0  0  0
 34 75  1  0  0  0  0
 34 80  2  0  0  0  0
 35 50  1  0  0  0  0
 35 77  1  0  0  0  0
 35 81  2  0  0  0  0
 36 62  1  0  0  0  0
 36 68  1  0  0  0  0
 36 82  2  0  0  0  0
 37 65  1  0  0  0  0
 37 72  1  0  0  0  0
 37 83  2  0  0  0  0
 38 66  1  0  0  0  0
 38 78  1  0  0  0  0
 38 84  2  0  0  0  0
 39 73  1  0  0  0  0
 39 76  1  0  0  0  0
 39 85  2  0  0  0  0
 40 43  1  0  0  0  0
 41 50  1  0  0  0  0
 42 72  1  0  0  0  0
 43 45  1  0  0  0  0
 44 46  1  0  0  0  0
 44 47  1  0  0  0  0
 45 49  1  0  0  0  0
 46 51  1  0  0  0  0
 47 73  1  0  0  0  0
 48 51  1  0  0  0  0
 48 73  1  0  0  0  0
 49 77  1  0  0  0  0
 50 72  1  0  0  0  0
 51 71  1  0  0  0  0
 53 63  1  0  0  0  0
 54 66  1  0  0  0  0
 55 67  1  0  0  0  0
 56 68  1  0  0  0  0
 57 69  1  0  0  0  0
 58 69  1  0  0  0  0
 59 69  1  0  0  0  0
 60 79  1  0  0  0  0
 61 64  1  0  0  0  0
 62 87  1  0  0  0  0
 63 67  1  0  0  0  0
 64 68  1  0  0  0  0
 65 69  1  0  0  0  0
 65 78  1  0  0  0  0
 66 79  1  0  0  0  0
 67 68  1  0  0  0  0
 70 71  1  0  0  0  0
M  CHG  1  79   1
M  ISO  4  39 100  62 101  76 100  87 101
M  END
> <Batch ID>
0140

> <Smiles>
CCC(C)C(C)(CCc1cccc([100NH:0][100C:0](=O)N2CCCC(n3nc(-c4ccc(Oc5ccc(F)cc5F)cc4)c(C(N)=O)c3N)C2)c1C)C(=O)[101CH2:1][101O:1]c1ccc2c(c1)CN(C(=O)C(NC(=O)C(C)NC)C(C)(C)C)C(C(=O)NC1CCCc3ccccc31)C2

> <Shape>
0.228

> <Color>
0.054

> <Negative vol penalty>
0.000

$$$$

  -OEChem-04052302513D

 81 89  0     1  0  0  0  0  0999 V2000
  -30.9557  -34.7444   24.4392 C   0  0  0  0  0  0  0  0  0  0  0  0
  -30.9352  -33.8618   23.3640 C   0  0  0  0  0  0  0  0  0  0  0  0
  -24.7844   -8.8059   21.4283 C   0  0  0  0  0  0  0  0  0  0  0  0
  -23.1802  -10.5737   21.0557 C   0  0  0  0  0  0  0  0  0  0  0  0
  -30.1375  -34.5141   25.5443 C   0  0  0  0  0  0  0  0  0  0  0  0
  -30.0972  -32.7477   23.3939 C   0  0  0  0  0  0  0  0  0  0  0  0
  -26.2025  -28.5738   19.0665 C   0  0  0  0  0  0  0  0  0  0  0  0
  -24.9753  -19.5007   20.1090 C   0  0  0  0  0  0  0  0  0  0  0  0
  -27.0804  -20.1765   21.0830 C   0  0  0  0  0  0  0  0  0  0  0  0
  -25.5230  -18.2592   19.7864 C   0  0  0  0  0  0  0  0  0  0  0  0
  -27.6282  -18.9349   20.7604 C   0  0  0  0  0  0  0  0  0  0  0  0
  -23.9212   -8.2174   22.3525 C   0  0  0  0  0  0  0  0  0  0  0  0
  -22.3170   -9.9851   21.9798 C   0  0  0  0  0  0  0  0  0  0  0  0
  -26.0166  -27.2294   18.7475 C   0  0  0  0  0  0  0  0  0  0  0  0
  -21.1412   -6.2938   22.2904 C   0  0  0  0  0  0  0  0  0  0  0  0
  -20.9518   -4.9140   22.2131 C   0  0  0  0  0  0  0  0  0  0  0  0
  -24.5886  -26.9757   20.6751 C   0  0  0  0  0  0  0  0  0  0  0  0
  -21.7959   -4.6721   24.4639 C   0  0  0  0  0  0  0  0  0  0  0  0
  -24.4140   -9.9841   20.7799 C   0  0  0  0  0  0  0  0  0  0  0  0
  -25.3609  -10.3513   18.4398 C   0  0  0  0  0  0  0  0  0  0  0  0
  -29.2819  -33.4018   25.5836 C   0  0  0  0  0  0  0  0  0  0  0  0
  -25.5905  -29.1276   20.2002 C   0  0  0  0  0  0  0  0  0  0  0  0
  -29.2677  -32.5015   24.5012 C   0  0  0  0  0  0  0  0  0  0  0  0
  -24.7662  -28.3281   21.0048 C   0  0  0  0  0  0  0  0  0  0  0  0
  -25.7540  -20.4594   20.7572 C   0  0  0  0  0  0  0  0  0  0  0  0
  -26.8495  -17.9762   20.1121 C   0  0  0  0  0  0  0  0  0  0  0  0
  -22.6875   -8.8069   22.6282 C   0  0  0  0  0  0  0  0  0  0  0  0
  -25.2119  -26.4294   19.5535 C   0  0  0  0  0  0  0  0  0  0  0  0
  -21.6581   -6.8627   23.4543 C   0  0  0  0  0  0  0  0  0  0  0  0
  -21.2791   -4.1032   23.2998 C   0  0  0  0  0  0  0  0  0  0  0  0
  -21.9854   -6.0518   24.5411 C   0  0  0  0  0  0  0  0  0  0  0  0
  -25.3054  -10.5929   19.8256 C   0  0  0  0  0  0  0  0  0  0  0  0
  -26.3669  -11.1703   17.9885 C   0  0  0  0  0  0  0  0  0  0  0  0
  -24.5733   -9.4659   17.6327 C   0  0  0  0  0  0  0  0  0  0  0  0
  -26.6378  -30.4721   22.8833 C   0  0  0  0  0  0  0  0  0  0  0  0
  -25.3351  -22.8383   20.0118 C   0  0  0  0  0  0  0  0  0  0  0  0
  -23.4824  -31.0499   23.3654 C   0  0  0  0  0  0  0  0  0  0  0  0
  -20.2460  -30.1896   22.7080 C   0  0  0  0  0  0  0  0  0  0  0  0
  -28.7047  -16.2736   20.0370 C   0  0  0  0  0  0  0  0  0  0  0  0
  -28.4505  -33.1688   26.8202 C   0  0  0  0  0  0  0  0  0  0  0  0
  -25.7795  -30.5861   20.5155 C   0  0  0  0  0  0  0  0  0  0  0  0
  -24.0704  -28.8793   22.2216 C   0  0  0  0  0  0  0  0  0  0  0  0
  -27.3161  -32.1688   26.6119 C   0  0  0  0  0  0  0  0  0  0  0  0
  -30.4461  -13.2296   19.4217 C   0  0  0  0  0  0  0  0  0  0  0  0
  -27.8231  -30.9317   25.8776 C   0  0  0  0  0  0  0  0  0  0  0  0
  -29.3301  -12.1870   19.3233 C   0  0  0  0  0  0  0  0  0  0  0  0
  -30.1384  -14.2919   20.4755 C   0  0  0  0  0  0  0  0  0  0  0  0
  -27.7172  -13.9068   20.2333 C   0  0  0  0  0  0  0  0  0  0  0  0
  -28.3540  -31.2953   24.4857 C   0  0  1  0  0  0  0  0  0  0  0  0
  -25.5216  -30.9186   21.9819 C   0  0  1  0  0  0  0  0  0  0  0  0
  -27.9520  -12.8523   19.1394 C   0  0  2  0  0  0  0  0  0  0  0  0
  -17.8851  -30.8217   23.2772 C   0  0  0  0  0  0  0  0  0  0  0  0
  -23.7781  -29.6962   26.0839 C   0  0  0  0  0  0  0  0  0  0  0  0
  -21.2837  -29.5046   26.1818 C   0  0  0  0  0  0  0  0  0  0  0  0
  -22.3574  -31.7544   26.0923 C   0  0  0  0  0  0  0  0  0  0  0  0
  -19.6144  -30.8291   19.8882 C   0  0  0  0  0  0  0  0  0  0  0  0
  -25.1625  -21.7999   21.1054 C   0  0  0  0  0  0  0  0  0  0  0  0
  -24.7982  -24.2202   20.3307 C   0  0  0  0  0  0  0  0  0  1  0  0
  -22.3470  -30.3028   24.0224 C   0  0  1  0  0  0  0  0  0  0  0  0
  -19.0422  -31.0252   22.3116 C   0  0  2  0  0  0  0  0  0  0  0  0
  -22.4561  -30.3034   25.5733 C   0  0  0  0  0  0  0  0  0  0  0  0
  -26.2048  -11.4946   20.2282 N   0  0  0  0  0  0  0  0  0  0  0  0
  -26.8349  -11.8268   19.0886 N   0  0  0  0  0  0  0  0  0  0  0  0
  -24.2914  -30.3096   22.4917 N   0  0  0  0  0  0  0  0  0  0  0  0
  -28.8195  -14.8814   20.2351 N   0  0  0  0  0  0  0  0  0  0  0  0
  -26.8881  -11.3857   16.7620 N   0  0  0  0  0  0  0  0  0  0  0  0
  -23.5819   -8.6967   18.2570 N   0  0  0  0  0  0  0  0  0  0  0  0
  -27.4061  -16.7150   19.7849 N   0  0  0  0  0  0  0  0  0  0  0  0
  -27.2572  -31.5024   23.5646 N   0  0  0  0  0  0  0  0  0  0  0  0
  -21.1170  -30.8967   23.5097 N   0  0  0  0  0  0  0  0  0  0  0  0
  -18.5829  -30.6553   20.9430 N   0  3  0  0  0  0  0  0  0  0  0  0
  -24.7548   -9.3478   16.3971 O   0  0  0  0  0  0  0  0  0  0  0  0
  -26.9154  -29.2808   22.9564 O   0  0  0  0  0  0  0  0  0  0  0  0
  -25.8725  -22.5876   18.9338 O   0  0  0  0  0  0  0  0  0  0  0  0
  -23.6413  -32.2479   23.6126 O   0  0  0  0  0  0  0  0  0  0  0  0
  -20.3967  -29.0248   22.3459 O   0  0  0  0  0  0  0  0  0  0  0  0
  -29.6899  -17.0158   20.0603 O   0  0  0  0  0  0  0  0  0  0  0  0
  -21.8449   -8.2327   23.5298 O   0  0  0  0  0  0  0  0  0  0  0  0
  -25.0293  -25.1167   19.2448 O   0  0  0  0  0  0  0  0  0  1  0  0
  -21.0957   -2.7784   23.2260 F   0  0  0  0  0  0  0  0  0  0  0  0
  -22.4812   -6.5928   25.6624 F   0  0  0  0  0  0  0  0  0  0  0  0
  1  2  1  0  0  0  0
  1  5  2  0  0  0  0
  2  6  2  0  0  0  0
  3 12  2  0  0  0  0
  3 19  1  0  0  0  0
  4 13  1  0  0  0  0
  4 19  2  0  0  0  0
  5 21  1  0  0  0  0
  6 23  1  0  0  0  0
  7 14  2  0  0  0  0
  7 22  1  0  0  0  0
  8 10  2  0  0  0  0
  8 25  1  0  0  0  0
  9 11  1  0  0  0  0
  9 25  2  0  0  0  0
 10 26  1  0  0  0  0
 11 26  2  0  0  0  0
 12 27  1  0  0  0  0
 13 27  2  0  0  0  0
 14 28  1  0  0  0  0
 15 16  2  0  0  0  0
 15 29  1  0  0  0  0
 16 30  1  0  0  0  0
 17 24  1  0  0  0  0
 17 28  2  0  0  0  0
 18 30  2  0  0  0  0
 18 31  1  0  0  0  0
 19 32  1  0  0  0  0
 20 32  1  0  0  0  0
 20 33  2  0  0  0  0
 20 34  1  0  0  0  0
 21 23  2  0  0  0  0
 21 40  1  0  0  0  0
 22 24  2  0  0  0  0
 22 41  1  0  0  0  0
 23 49  1  0  0  0  0
 24 42  1  0  0  0  0
 25 57  1  0  0  0  0
 26 68  1  0  0  0  0
 27 78  1  0  0  0  0
 28 79  1  0  0  0  0
 29 31  2  0  0  0  0
 29 78  1  0  0  0  0
 30 80  1  0  0  0  0
 31 81  1  0  0  0  0
 32 62  2  0  0  0  0
 33 63  1  0  0  0  0
 33 66  1  0  0  0  0
 34 67  1  0  0  0  0
 34 72  2  0  0  0  0
 35 50  1  0  0  0  0
 35 69  1  0  0  0  0
 35 73  2  0  0  0  0
 36 57  1  0  0  0  0
 36 58  1  0  0  0  0
 36 74  2  0  0  0  0
 37 59  1  0  0  0  0
 37 64  1  0  0  0  0
 37 75  2  0  0  0  0
 38 60  1  0  0  0  0
 38 70  1  0  0  0  0
 38 76  2  0  0  0  0
 39 65  1  0  0  0  0
 39 68  1  0  0  0  0
 39 77  2  0  0  0  0
 40 43  1  0  0  0  0
 41 50  1  0  0  0  0
 42 64  1  0  0  0  0
 43 45  1  0  0  0  0
 44 46  1  0  0  0  0
 44 47  1  0  0  0  0
 45 49  1  0  0  0  0
 46 51  1  0  0  0  0
 47 65  1  0  0  0  0
 48 51  1  0  0  0  0
 48 65  1  0  0  0  0
 49 69  1  0  0  0  0
 50 64  1  0  0  0  0
 51 63  1  0  0  0  0
 52 60  1  0  0  0  0
 53 61  1  0  0  0  0
 54 61  1  0  0  0  0
 55 61  1  0  0  0  0
 56 71  1  0  0  0  0
 58 79  1  0  0  0  0
 59 61  1  0  0  0  0
 59 70  1  0  0  0  0
 60 71  1  0  0  0  0
 62 63  1  0  0  0  0
M  CHG  1  71   1
M  ISO  4  39 100  58 101  68 100  79 101
M  END
> <Batch ID>
0140

> <Smiles>
CNC(C)C(=O)NC(C(=O)N1Cc2cc([101O:1][101CH2:1]C(=O)Cc3ccc([100NH:0][100C:0](=O)N4CCCC(n5nc(-c6ccc(Oc7ccc(F)cc7F)cc6)c(C(N)=O)c5N)C4)cc3)ccc2CC1C(=O)NC1CCCc2ccccc21)C(C)(C)C

> <Shape>
0.261

> <Color>
0.107

> <Negative vol penalty>
0.000

$$$$

  -OEChem-04052302513D

 88 97  0     1  0  0  0  0  0999 V2000
  -16.6600  -29.0380   23.8480 C   0  0  0  0  0  0  0  0  0  0  0  0
  -17.3105  -28.0135   23.1678 C   0  0  0  0  0  0  0  0  0  0  0  0
  -26.3533  -11.8941   21.3822 C   0  0  0  0  0  0  0  0  0  0  0  0
  -25.4913  -13.4073   19.7076 C   0  0  0  0  0  0  0  0  0  0  0  0
  -17.2186  -30.3150   23.8820 C   0  0  0  0  0  0  0  0  0  0  0  0
  -18.5194  -28.2656   22.5203 C   0  0  0  0  0  0  0  0  0  0  0  0
  -23.2501  -24.4218   21.9275 C   0  0  0  0  0  0  0  0  0  0  0  0
  -25.0628  -11.7067   21.8772 C   0  0  0  0  0  0  0  0  0  0  0  0
  -24.2007  -13.2198   20.2025 C   0  0  0  0  0  0  0  0  0  0  0  0
  -23.6579  -23.5900   20.8856 C   0  0  0  0  0  0  0  0  0  0  0  0
  -22.3088   -9.9308   21.0439 C   0  0  0  0  0  0  0  0  0  0  0  0
  -21.9071   -8.6259   21.3293 C   0  0  0  0  0  0  0  0  0  0  0  0
  -25.1848  -25.2972   20.1284 C   0  0  0  0  0  0  0  0  0  0  0  0
  -29.8144  -22.4224   17.5911 C   0  0  0  0  0  0  0  0  0  0  0  0
  -31.1290  -20.9928   19.0281 C   0  0  0  0  0  0  0  0  0  0  0  0
  -29.6281  -20.0210   17.4033 C   0  0  0  0  0  0  0  0  0  0  0  0
  -21.5453   -9.2421   23.6372 C   0  0  0  0  0  0  0  0  0  0  0  0
  -26.5676  -12.7444   20.2974 C   0  0  0  0  0  0  0  0  0  0  0  0
  -28.5425  -12.1919   18.7802 C   0  0  0  0  0  0  0  0  0  0  0  0
  -18.4398  -30.5807   23.2427 C   0  0  0  0  0  0  0  0  0  0  0  0
  -23.7995  -25.7039   22.0715 C   0  0  0  0  0  0  0  0  0  0  0  0
  -19.0942  -29.5477   22.5447 C   0  0  0  0  0  0  0  0  0  0  0  0
  -24.7840  -26.1423   21.1745 C   0  0  0  0  0  0  0  0  0  0  0  0
  -30.7529  -22.2698   18.6117 C   0  0  0  0  0  0  0  0  0  0  0  0
  -29.2520  -21.2980   16.9869 C   0  0  0  0  0  0  0  0  0  0  0  0
  -30.5665  -19.8683   18.4239 C   0  0  0  0  0  0  0  0  0  0  0  0
  -23.9865  -12.3695   21.2874 C   0  0  0  0  0  0  0  0  0  0  0  0
  -24.6233  -24.0288   19.9841 C   0  0  0  0  0  0  0  0  0  0  0  0
  -22.3288  -10.8914   22.0551 C   0  0  0  0  0  0  0  0  0  0  0  0
  -21.5254   -8.2816   22.6260 C   0  0  0  0  0  0  0  0  0  0  0  0
  -21.9470  -10.5470   23.3518 C   0  0  0  0  0  0  0  0  0  0  0  0
  -27.9005  -12.9389   19.7860 C   0  0  0  0  0  0  0  0  0  0  0  0
  -29.7830  -12.7696   18.6624 C   0  0  0  0  0  0  0  0  0  0  0  0
  -28.0606  -11.0756   18.0203 C   0  0  0  0  0  0  0  0  0  0  0  0
  -22.6398  -28.6625   21.9987 C   0  0  0  0  0  0  0  0  0  0  0  0
  -25.6598  -29.4509   22.8817 C   0  0  0  0  0  0  0  0  0  0  0  0
  -28.9683  -28.6168   22.9540 C   0  0  0  0  0  0  0  0  0  0  0  0
  -31.8657  -18.2439   19.8451 C   0  0  0  0  0  0  0  0  0  0  0  0
  -18.9808  -31.9883   23.2671 C   0  0  0  0  0  0  0  0  0  0  0  0
  -23.3682  -26.5787   23.2165 C   0  0  0  0  0  0  0  0  0  0  0  0
  -25.4197  -27.5022   21.2973 C   0  0  0  0  0  0  0  0  0  0  0  0
  -20.4523  -32.0822   22.8718 C   0  0  0  0  0  0  0  0  0  0  0  0
  -33.0507  -15.1747   21.2064 C   0  0  0  0  0  0  0  0  0  0  0  0
  -20.7208  -31.2610   21.6147 C   0  0  0  0  0  0  0  0  0  0  0  0
  -31.9256  -14.1837   20.8997 C   0  0  0  0  0  0  0  0  0  0  0  0
  -24.7022  -21.9403   16.3640 C   0  0  0  0  0  0  0  0  0  0  0  0
  -32.5076  -16.5593   21.5554 C   0  0  0  0  0  0  0  0  0  0  0  0
  -30.4522  -16.1364   20.2646 C   0  0  0  0  0  0  0  0  0  0  0  0
  -25.7543  -21.4395   15.3845 C   0  0  0  0  0  0  0  0  0  0  0  0
  -26.5078  -21.1741   17.6943 C   0  0  0  0  0  0  0  0  0  0  0  0
  -20.4196  -29.7760   21.8510 C   0  0  1  0  0  0  0  0  0  0  0  0
  -23.6220  -28.0617   22.9640 C   0  0  1  0  0  0  0  0  0  0  0  0
  -30.9526  -14.7448   19.8442 C   0  0  2  0  0  0  0  0  0  0  0  0
  -24.9797  -21.1897   17.6704 C   0  0  2  0  0  0  0  0  0  0  0  0
  -24.3999  -19.7660   17.6321 C   0  0  0  0  0  0  0  0  0  0  0  0
  -30.5493  -23.9461   20.4652 C   0  0  0  0  0  0  0  0  0  0  0  0
  -28.6701  -20.7980   14.5777 C   0  0  0  0  0  0  0  0  0  0  0  0
  -31.2010  -29.4785   23.7090 C   0  0  0  0  0  0  0  0  0  0  0  0
  -25.7182  -31.3703   20.5105 C   0  0  0  0  0  0  0  0  0  0  0  0
  -28.2090  -31.4712   20.7428 C   0  0  0  0  0  0  0  0  0  0  0  0
  -26.7513  -32.2669   22.6041 C   0  0  0  0  0  0  0  0  0  0  0  0
  -29.3626  -26.3264   24.7863 C   0  0  0  0  0  0  0  0  0  0  0  0
  -31.3540  -23.4721   19.2577 C   0  0  0  0  0  0  0  0  0  0  0  0
  -24.4110  -21.9328   18.8807 C   0  0  0  0  0  0  0  0  0  1  0  0
  -28.2353  -21.4635   15.8811 C   0  0  1  0  0  0  0  0  0  0  0  0
  -26.9351  -29.7871   22.1471 C   0  0  1  0  0  0  0  0  0  0  0  0
  -29.9882  -28.6385   24.0782 C   0  0  2  0  0  0  0  0  0  0  0  0
  -26.8902  -31.1990   21.4974 C   0  0  0  0  0  0  0  0  0  0  0  0
  -28.6697  -13.9165   20.2726 N   0  0  0  0  0  0  0  0  0  0  0  0
  -29.8078  -13.7876   19.5697 N   0  0  0  0  0  0  0  0  0  0  0  0
  -24.9601  -28.3231   22.4297 N   0  0  0  0  0  0  0  0  0  0  0  0
  -31.5968  -17.0282   20.5087 N   0  0  0  0  0  0  0  0  0  0  0  0
  -30.8442  -12.5009   17.8724 N   0  0  0  0  0  0  0  0  0  0  0  0
  -26.7624  -10.6092   18.2682 N   0  0  0  0  0  0  0  0  0  0  0  0
  -30.9486  -18.5711   18.8469 N   0  0  0  0  0  0  0  0  0  0  0  0
  -21.4943  -29.1545   22.5947 N   0  0  0  0  0  0  0  0  0  0  0  0
  -28.0190  -29.6052   23.1066 N   0  0  0  0  0  0  0  0  0  0  0  0
  -26.8893  -20.9275   16.2498 N   0  3  2  0  0  0  0  0  0  0  0  0
  -30.4503  -27.2553   24.3851 N   0  3  0  0  0  0  0  0  0  0  0  0
  -28.7664  -10.4983   17.1589 O   0  0  0  0  0  0  0  0  0  0  0  0
  -22.9023  -28.6797   20.8018 O   0  0  0  0  0  0  0  0  0  0  0  0
  -25.3016  -30.1586   23.8264 O   0  0  0  0  0  0  0  0  0  0  0  0
  -29.0117  -27.8068   22.0308 O   0  0  0  0  0  0  0  0  0  0  0  0
  -32.8531  -18.9298   20.1220 O   0  0  0  0  0  0  0  0  0  0  0  0
  -22.7270  -12.1867   21.7700 O   0  0  0  0  0  0  0  0  0  0  0  0
  -25.0228  -23.2191   18.9659 O   0  0  0  0  0  0  0  0  0  1  0  0
  -21.1382   -7.0288   22.8996 F   0  0  0  0  0  0  0  0  0  0  0  0
  -21.9631  -11.4658   24.3272 F   0  0  0  0  0  0  0  0  0  0  0  0
  1  2  1  0  0  0  0
  1  5  2  0  0  0  0
  2  6  2  0  0  0  0
  3  8  2  0  0  0  0
  3 18  1  0  0  0  0
  4  9  1  0  0  0  0
  4 18  2  0  0  0  0
  5 20  1  0  0  0  0
  6 22  1  0  0  0  0
  7 10  2  0  0  0  0
  7 21  1  0  0  0  0
  8 27  1  0  0  0  0
  9 27  2  0  0  0  0
 10 28  1  0  0  0  0
 11 12  2  0  0  0  0
 11 29  1  0  0  0  0
 12 30  1  0  0  0  0
 13 23  1  0  0  0  0
 13 28  2  0  0  0  0
 14 24  2  0  0  0  0
 14 25  1  0  0  0  0
 15 24  1  0  0  0  0
 15 26  2  0  0  0  0
 16 25  2  0  0  0  0
 16 26  1  0  0  0  0
 17 30  2  0  0  0  0
 17 31  1  0  0  0  0
 18 32  1  0  0  0  0
 19 32  1  0  0  0  0
 19 33  2  0  0  0  0
 19 34  1  0  0  0  0
 20 22  2  0  0  0  0
 20 39  1  0  0  0  0
 21 23  2  0  0  0  0
 21 40  1  0  0  0  0
 22 51  1  0  0  0  0
 23 41  1  0  0  0  0
 24 63  1  0  0  0  0
 25 65  1  0  0  0  0
 26 75  1  0  0  0  0
 27 85  1  0  0  0  0
 28 86  1  0  0  0  0
 29 31  2  0  0  0  0
 29 85  1  0  0  0  0
 30 87  1  0  0  0  0
 31 88  1  0  0  0  0
 32 69  2  0  0  0  0
 33 70  1  0  0  0  0
 33 73  1  0  0  0  0
 34 74  1  0  0  0  0
 34 80  2  0  0  0  0
 35 52  1  0  0  0  0
 35 76  1  0  0  0  0
 35 81  2  0  0  0  0
 36 66  1  0  0  0  0
 36 71  1  0  0  0  0
 36 82  2  0  0  0  0
 37 67  1  0  0  0  0
 37 77  1  0  0  0  0
 37 83  2  0  0  0  0
 38 72  1  0  0  0  0
 38 75  1  0  0  0  0
 38 84  2  0  0  0  0
 39 42  1  0  0  0  0
 40 52  1  0  0  0  0
 41 71  1  0  0  0  0
 42 44  1  0  0  0  0
 43 45  1  0  0  0  0
 43 47  1  0  0  0  0
 44 51  1  0  0  0  0
 45 53  1  0  0  0  0
 46 49  1  0  0  0  0
 46 54  1  0  0  0  0
 47 72  1  0  0  0  0
 48 53  1  0  0  0  0
 48 72  1  0  0  0  0
 49 78  1  0  0  0  0
 50 54  1  0  0  0  0
 50 78  1  0  0  0  0
 51 76  1  0  0  0  0
 52 71  1  0  0  0  0
 53 70  1  0  0  0  0
 54 55  1  0  0  0  0
 54 64  1  0  0  0  0
 56 63  1  0  0  0  0
 57 65  1  0  0  0  0
 58 67  1  0  0  0  0
 59 68  1  0  0  0  0
 60 68  1  0  0  0  0
 61 68  1  0  0  0  0
 62 79  1  0  0  0  0
 64 86  1  0  0  0  0
 65 78  1  0  0  0  0
 66 68  1  0  0  0  0
 66 77  1  0  0  0  0
 67 79  1  0  0  0  0
 69 70  1  0  0  0  0
M  CHG  2  78   1  79   1
M  ISO  4  38 100  64 101  75 100  86 101
M  END
> <Batch ID>
0140

> <Smiles>
CCc1cc([100NH:0][100C:0](=O)N2CCCC(n3nc(-c4ccc(Oc5ccc(F)cc5F)cc4)c(C(N)=O)c3N)C2)cc(C(C)N2CCC(C)([101CH2:1][101O:1]c3ccc4c(c3)CN(C(=O)C(NC(=O)C(C)NC)C(C)(C)C)C(C(=O)NC3CCCc5ccccc53)C4)C2)c1

> <Shape>
0.248

> <Color>
0.069

> <Negative vol penalty>
0.000

$$$$

  -OEChem-04052302513D

 83 91  0     1  0  0  0  0  0999 V2000
  -36.7877  -11.1660   18.1663 C   0  0  0  0  0  0  0  0  0  0  0  0
  -36.2101  -11.0261   19.4242 C   0  0  0  0  0  0  0  0  0  0  0  0
  -23.1924   -9.8188   19.9313 C   0  0  0  0  0  0  0  0  0  0  0  0
  -23.5663  -10.0015   22.3112 C   0  0  0  0  0  0  0  0  0  0  0  0
  -33.3769  -11.8018   25.1300 C   0  0  0  0  0  0  0  0  0  0  0  0
  -36.1502  -10.6368   17.0450 C   0  0  0  0  0  0  0  0  0  0  0  0
  -34.9939  -10.3579   19.5612 C   0  0  0  0  0  0  0  0  0  0  0  0
  -34.9846   -7.1195   23.4545 C   0  0  0  0  0  0  0  0  0  0  0  0
  -32.6518  -12.1117   23.9795 C   0  0  0  0  0  0  0  0  0  0  0  0
  -22.4261   -8.6721   20.1397 C   0  0  0  0  0  0  0  0  0  0  0  0
  -22.8000   -8.8548   22.5196 C   0  0  0  0  0  0  0  0  0  0  0  0
  -34.8241   -7.6582   24.7304 C   0  0  0  0  0  0  0  0  0  0  0  0
  -21.2416   -5.7714   23.6485 C   0  0  0  0  0  0  0  0  0  0  0  0
  -21.7368   -4.8126   24.5322 C   0  0  0  0  0  0  0  0  0  0  0  0
  -32.4923   -7.0413   24.6910 C   0  0  0  0  0  0  0  0  0  0  0  0
  -30.6888  -12.5214   25.3270 C   0  0  0  0  0  0  0  0  0  0  0  0
  -23.6980   -4.5480   23.1463 C   0  0  0  0  0  0  0  0  0  0  0  0
  -23.7626  -10.4835   21.0170 C   0  0  0  0  0  0  0  0  0  0  0  0
  -32.7580  -11.8517   26.3791 C   0  0  0  0  0  0  0  0  0  0  0  0
  -24.1008  -13.0001   20.7716 C   0  0  0  0  0  0  0  0  0  0  0  0
  -34.9304   -9.9533   17.1696 C   0  0  0  0  0  0  0  0  0  0  0  0
  -33.8958   -6.5465   22.7817 C   0  0  0  0  0  0  0  0  0  0  0  0
  -34.3388   -9.8202   18.4403 C   0  0  0  0  0  0  0  0  0  0  0  0
  -32.6422   -6.4938   23.4077 C   0  0  0  0  0  0  0  0  0  0  0  0
  -31.4140  -12.2115   26.4776 C   0  0  0  0  0  0  0  0  0  0  0  0
  -31.3077  -12.4715   24.0780 C   0  0  0  0  0  0  0  0  0  0  0  0
  -22.2299   -8.1901   21.4338 C   0  0  0  0  0  0  0  0  0  0  0  0
  -33.5772   -7.6218   25.3476 C   0  0  0  0  0  0  0  0  0  0  0  0
  -21.9746   -6.1185   22.5136 C   0  0  0  0  0  0  0  0  0  0  0  0
  -22.9650   -4.2009   24.2812 C   0  0  0  0  0  0  0  0  0  0  0  0
  -23.2028   -5.5069   22.2626 C   0  0  0  0  0  0  0  0  0  0  0  0
  -24.5547  -11.6678   20.8023 C   0  0  0  0  0  0  0  0  0  0  0  0
  -25.2322  -13.7429   20.5376 C   0  0  0  0  0  0  0  0  0  0  0  0
  -33.5581  -11.5144   27.5933 C   0  0  0  0  0  0  0  0  0  0  0  0
  -22.7751  -13.5197   20.9395 C   0  0  0  0  0  0  0  0  0  0  0  0
  -32.3443   -7.1772   20.0802 C   0  0  0  0  0  0  0  0  0  0  0  0
  -30.7950   -4.4150   20.7819 C   0  0  0  0  0  0  0  0  0  0  0  0
  -29.8187   -2.1625   23.1524 C   0  0  0  0  0  0  0  0  0  0  0  0
  -31.0351  -12.7853   21.5933 C   0  0  0  0  0  0  0  0  0  0  0  0
  -34.2554   -9.4397   15.9225 C   0  0  0  0  0  0  0  0  0  0  0  0
  -34.0916   -5.9458   21.4167 C   0  0  0  0  0  0  0  0  0  0  0  0
  -31.4462   -5.8715   22.7363 C   0  0  0  0  0  0  0  0  0  0  0  0
  -33.1549   -8.4194   16.2018 C   0  0  0  0  0  0  0  0  0  0  0  0
  -29.5280  -13.4635   18.4396 C   0  0  0  0  0  0  0  0  0  0  0  0
  -32.2477   -8.9071   17.3270 C   0  0  0  0  0  0  0  0  0  0  0  0
  -28.0396  -13.2071   18.6864 C   0  0  0  0  0  0  0  0  0  0  0  0
  -30.4081  -12.4795   19.2083 C   0  0  0  0  0  0  0  0  0  0  0  0
  -28.6454  -12.1390   20.8953 C   0  0  0  0  0  0  0  0  0  0  0  0
  -33.0328   -9.0803   18.6328 C   0  0  1  0  0  0  0  0  0  0  0  0
  -32.7969   -5.8483   20.6156 C   0  0  1  0  0  0  0  0  0  0  0  0
  -27.7204  -13.1465   20.1931 C   0  0  2  0  0  0  0  0  0  0  0  0
  -30.7267  -12.2715   27.8027 C   0  0  0  0  0  0  0  0  0  0  0  0
  -28.5315   -0.0260   23.4281 C   0  0  0  0  0  0  0  0  0  0  0  0
  -28.1778   -5.9588   20.5045 C   0  0  0  0  0  0  0  0  0  0  0  0
  -27.0251   -4.0809   21.6932 C   0  0  0  0  0  0  0  0  0  0  0  0
  -28.1480   -3.6667   19.5046 C   0  0  0  0  0  0  0  0  0  0  0  0
  -32.1946   -0.7279   24.1801 C   0  0  0  0  0  0  0  0  0  0  0  0
  -33.1093  -10.3502   28.4636 C   0  0  0  0  0  0  0  0  0  0  0  0
  -34.1790   -9.2657   28.5742 C   0  0  0  0  0  0  0  0  0  0  0  0
  -34.5704   -8.7207   27.2083 C   0  0  0  0  0  0  0  0  0  1  0  0
  -29.5578   -4.0530   21.5674 C   0  0  1  0  0  0  0  0  0  0  0  0
  -29.9001   -0.6473   23.1964 C   0  0  2  0  0  0  0  0  0  0  0  0
  -28.2491   -4.4534   20.8296 C   0  0  0  0  0  0  0  0  0  0  0  0
  -25.8716  -11.5670   20.6036 N   0  0  0  0  0  0  0  0  0  0  0  0
  -26.2550  -12.8454   20.4457 N   0  0  0  0  0  0  0  0  0  0  0  0
  -31.6868   -5.3033   21.3996 N   0  0  0  0  0  0  0  0  0  0  0  0
  -30.0518  -12.4792   20.6288 N   0  0  0  0  0  0  0  0  0  0  0  0
  -25.4419  -15.0697   20.4035 N   0  0  0  0  0  0  0  0  0  0  0  0
  -21.7283  -12.6173   21.1725 N   0  0  0  0  0  0  0  0  0  0  0  0
  -30.5719  -12.7861   22.9086 N   0  0  0  0  0  0  0  0  0  0  0  0
  -33.2657   -7.7954   19.2567 N   0  0  0  0  0  0  0  0  0  0  0  0
  -29.6647   -2.6285   21.8639 N   0  0  0  0  0  0  0  0  0  0  0  0
  -30.8073   -0.2089   24.2945 N   0  3  0  0  0  0  0  0  0  0  0  0
  -34.5553  -12.1816   27.8590 O   0  0  0  0  0  0  0  0  0  0  0  0
  -22.5236  -14.7465   20.8683 O   0  0  0  0  0  0  0  0  0  0  0  0
  -31.2401   -7.6090   20.3900 O   0  0  0  0  0  0  0  0  0  0  0  0
  -30.9676   -3.9220   19.6643 O   0  0  0  0  0  0  0  0  0  0  0  0
  -29.8813   -2.8624   24.1608 O   0  0  0  0  0  0  0  0  0  0  0  0
  -32.1956  -13.0555   21.2738 O   0  0  0  0  0  0  0  0  0  0  0  0
  -21.4821   -7.0712   21.6376 O   0  0  0  0  0  0  0  0  0  0  0  0
  -33.4176   -8.1474   26.5927 O   0  0  0  0  0  0  0  0  0  1  0  0
  -23.4410   -3.2812   25.1308 F   0  0  0  0  0  0  0  0  0  0  0  0
  -23.9121   -5.8370   21.1746 F   0  0  0  0  0  0  0  0  0  0  0  0
  1  2  1  0  0  0  0
  1  6  2  0  0  0  0
  2  7  2  0  0  0  0
  3 10  2  0  0  0  0
  3 18  1  0  0  0  0
  4 11  1  0  0  0  0
  4 18  2  0  0  0  0
  5  9  2  0  0  0  0
  5 19  1  0  0  0  0
  6 21  1  0  0  0  0
  7 23  1  0  0  0  0
  8 12  2  0  0  0  0
  8 22  1  0  0  0  0
  9 26  1  0  0  0  0
 10 27  1  0  0  0  0
 11 27  2  0  0  0  0
 12 28  1  0  0  0  0
 13 14  2  0  0  0  0
 13 29  1  0  0  0  0
 14 30  1  0  0  0  0
 15 24  1  0  0  0  0
 15 28  2  0  0  0  0
 16 25  1  0  0  0  0
 16 26  2  0  0  0  0
 17 30  2  0  0  0  0
 17 31  1  0  0  0  0
 18 32  1  0  0  0  0
 19 25  2  0  0  0  0
 19 34  1  0  0  0  0
 20 32  1  0  0  0  0
 20 33  2  0  0  0  0
 20 35  1  0  0  0  0
 21 23  2  0  0  0  0
 21 40  1  0  0  0  0
 22 24  2  0  0  0  0
 22 41  1  0  0  0  0
 23 49  1  0  0  0  0
 24 42  1  0  0  0  0
 25 52  1  0  0  0  0
 26 70  1  0  0  0  0
 27 80  1  0  0  0  0
 28 81  1  0  0  0  0
 29 31  2  0  0  0  0
 29 80  1  0  0  0  0
 30 82  1  0  0  0  0
 31 83  1  0  0  0  0
 32 64  2  0  0  0  0
 33 65  1  0  0  0  0
 33 68  1  0  0  0  0
 34 58  1  0  0  0  0
 34 74  2  0  0  0  0
 35 69  1  0  0  0  0
 35 75  2  0  0  0  0
 36 50  1  0  0  0  0
 36 71  1  0  0  0  0
 36 76  2  0  0  0  0
 37 61  1  0  0  0  0
 37 66  1  0  0  0  0
 37 77  2  0  0  0  0
 38 62  1  0  0  0  0
 38 72  1  0  0  0  0
 38 78  2  0  0  0  0
 39 67  1  0  0  0  0
 39 70  1  0  0  0  0
 39 79  2  0  0  0  0
 40 43  1  0  0  0  0
 41 50  1  0  0  0  0
 42 66  1  0  0  0  0
 43 45  1  0  0  0  0
 44 46  1  0  0  0  0
 44 47  1  0  0  0  0
 45 49  1  0  0  0  0
 46 51  1  0  0  0  0
 47 67  1  0  0  0  0
 48 51  1  0  0  0  0
 48 67  1  0  0  0  0
 49 71  1  0  0  0  0
 50 66  1  0  0  0  0
 51 65  1  0  0  0  0
 53 62  1  0  0  0  0
 54 63  1  0  0  0  0
 55 63  1  0  0  0  0
 56 63  1  0  0  0  0
 57 73  1  0  0  0  0
 58 59  1  0  0  0  0
 59 60  1  0  0  0  0
 60 81  1  0  0  0  0
 61 63  1  0  0  0  0
 61 72  1  0  0  0  0
 62 73  1  0  0  0  0
 64 65  1  0  0  0  0
M  CHG  1  73   1
M  ISO  4  39 100  60 101  70 100  81 101
M  END
> <Batch ID>
0140

> <Smiles>
CNC(C)C(=O)NC(C(=O)N1Cc2cc([101O:1][101CH2:1]CCC(=O)c3ccc([100NH:0][100C:0](=O)N4CCCC(n5nc(-c6ccc(Oc7ccc(F)cc7F)cc6)c(C(N)=O)c5N)C4)cc3C)ccc2CC1C(=O)NC1CCCc2ccccc21)C(C)(C)C

> <Shape>
0.138

> <Color>
0.186

> <Negative vol penalty>
0.000

$$$$

  -OEChem-04052302513D

 83 92  0     1  0  0  0  0  0999 V2000
  -25.7599  -36.9399   22.9738 C   0  0  0  0  0  0  0  0  0  0  0  0
  -26.4439  -35.8983   22.3553 C   0  0  0  0  0  0  0  0  0  0  0  0
  -26.5350  -12.0482   21.0840 C   0  0  0  0  0  0  0  0  0  0  0  0
  -25.7409  -14.1956   20.3126 C   0  0  0  0  0  0  0  0  0  0  0  0
  -24.9096  -36.6742   24.0463 C   0  0  0  0  0  0  0  0  0  0  0  0
  -26.2788  -34.5904   22.8097 C   0  0  0  0  0  0  0  0  0  0  0  0
  -26.2919  -29.4873   19.4238 C   0  0  0  0  0  0  0  0  0  0  0  0
  -30.9845  -21.6864   24.5604 C   0  0  0  0  0  0  0  0  0  0  0  0
  -30.8321  -22.9171   23.9190 C   0  0  0  0  0  0  0  0  0  0  0  0
  -25.2517  -11.5214   20.9386 C   0  0  0  0  0  0  0  0  0  0  0  0
  -24.4575  -13.6688   20.1671 C   0  0  0  0  0  0  0  0  0  0  0  0
  -27.2792  -28.5388   19.1605 C   0  0  0  0  0  0  0  0  0  0  0  0
  -23.2907  -10.3970   18.4239 C   0  0  0  0  0  0  0  0  0  0  0  0
  -23.1674   -9.1503   17.8107 C   0  0  0  0  0  0  0  0  0  0  0  0
  -29.2457  -21.9673   22.3011 C   0  0  0  0  0  0  0  0  0  0  0  0
  -26.4049  -27.1474   20.9266 C   0  0  0  0  0  0  0  0  0  0  0  0
  -22.1389   -8.2681   19.8109 C   0  0  0  0  0  0  0  0  0  0  0  0
  -26.7796  -13.3853   20.7710 C   0  0  0  0  0  0  0  0  0  0  0  0
  -29.1266  -13.9606   19.9536 C   0  0  0  0  0  0  0  0  0  0  0  0
  -24.7266  -35.3611   24.5079 C   0  0  0  0  0  0  0  0  0  0  0  0
  -25.3588  -29.2776   20.4493 C   0  0  0  0  0  0  0  0  0  0  0  0
  -25.4263  -34.3070   23.8903 C   0  0  0  0  0  0  0  0  0  0  0  0
  -29.4089  -20.7715   22.9457 C   0  0  0  0  0  0  0  0  0  0  0  0
  -25.4052  -28.0936   21.1991 C   0  0  0  0  0  0  0  0  0  0  0  0
  -30.2440  -20.6683   24.0303 C   0  0  0  0  0  0  0  0  0  0  0  0
  -29.9719  -23.0571   22.8020 C   0  0  0  0  0  0  0  0  0  0  0  0
  -24.2129  -12.3316   20.4801 C   0  0  0  0  0  0  0  0  0  0  0  0
  -27.3376  -27.3700   19.9139 C   0  0  0  0  0  0  0  0  0  0  0  0
  -22.8382  -10.5793   19.7307 C   0  0  0  0  0  0  0  0  0  0  0  0
  -22.5915   -8.0859   18.5041 C   0  0  0  0  0  0  0  0  0  0  0  0
  -22.2623   -9.5149   20.4242 C   0  0  0  0  0  0  0  0  0  0  0  0
  -28.1049  -13.9303   20.9216 C   0  0  0  0  0  0  0  0  0  0  0  0
  -30.1792  -14.5774   20.5845 C   0  0  0  0  0  0  0  0  0  0  0  0
  -29.1244  -13.4747   18.6047 C   0  0  0  0  0  0  0  0  0  0  0  0
  -24.6247  -30.7758   23.1549 C   0  0  0  0  0  0  0  0  0  0  0  0
  -22.2157  -28.6053   23.2470 C   0  0  0  0  0  0  0  0  0  0  0  0
  -21.0231  -25.5579   22.2786 C   0  0  0  0  0  0  0  0  0  0  0  0
  -29.0533  -24.6543   21.0861 C   0  0  0  0  0  0  0  0  0  0  0  0
  -30.6177  -18.4429   25.0445 C   0  0  0  0  0  0  0  0  0  0  0  0
  -23.8335  -35.1289   25.7009 C   0  0  0  0  0  0  0  0  0  0  0  0
  -24.2835  -30.2983   20.7031 C   0  0  0  0  0  0  0  0  0  0  0  0
  -29.0629  -19.3148   23.0480 C   0  0  0  0  0  0  0  0  0  0  0  0
  -24.4143  -27.8114   22.2978 C   0  0  0  0  0  0  0  0  0  0  0  0
  -23.4251  -33.6691   25.8810 C   0  0  0  0  0  0  0  0  0  0  0  0
  -32.0536  -15.2453   24.9516 C   0  0  0  0  0  0  0  0  0  0  0  0
  -24.6370  -32.7541   25.7372 C   0  0  0  0  0  0  0  0  0  0  0  0
  -31.3261  -14.5493   23.7975 C   0  0  0  0  0  0  0  0  0  0  0  0
  -31.1118  -16.1336   25.7657 C   0  0  0  0  0  0  0  0  0  0  0  0
  -29.6064  -16.3937   23.8570 C   0  0  0  0  0  0  0  0  0  0  0  0
  -25.2544  -32.8718   24.3385 C   0  0  1  0  0  0  0  0  0  0  0  0
  -23.7011  -30.2153   22.1107 C   0  0  1  0  0  0  0  0  0  0  0  0
  -30.5188  -15.5534   22.9500 C   0  0  2  0  0  0  0  0  0  0  0  0
  -19.0392  -24.0441   22.5434 C   0  0  0  0  0  0  0  0  0  0  0  0
  -30.6221  -26.4616   20.2912 C   0  0  0  0  0  0  0  0  0  0  0  0
  -23.1597  -27.8629   26.0520 C   0  0  0  0  0  0  0  0  0  0  0  0
  -21.7999  -25.7678   25.8795 C   0  0  0  0  0  0  0  0  0  0  0  0
  -20.6762  -27.9930   25.7874 C   0  0  0  0  0  0  0  0  0  0  0  0
  -20.4532  -25.6051   19.3749 C   0  0  0  0  0  0  0  0  0  0  0  0
  -22.0500  -27.2154   23.8124 C   0  0  1  0  0  0  0  0  0  0  0  0
  -19.6824  -25.1371   21.7041 C   0  0  2  0  0  0  0  0  0  0  0  0
  -29.2001  -26.1284   20.7174 C   0  0  1  0  0  0  0  0  0  1  0  0
  -21.9415  -27.2157   25.3635 C   0  0  0  0  0  0  0  0  0  0  0  0
  -28.4751  -14.4836   22.0795 N   0  0  0  0  0  0  0  0  0  0  0  0
  -29.7411  -14.8674   21.8432 N   0  0  0  0  0  0  0  0  0  0  0  0
  -29.9986  -19.3190   24.1895 N   0  0  0  0  0  0  0  0  0  0  0  0
  -23.3858  -28.8428   22.5119 N   0  0  0  0  0  0  0  0  0  0  0  0
  -30.4115  -17.0696   24.8787 N   0  0  0  0  0  0  0  0  0  0  0  0
  -31.4275  -14.8945   20.1800 N   0  0  0  0  0  0  0  0  0  0  0  0
  -27.9599  -12.8674   18.1152 N   0  0  0  0  0  0  0  0  0  0  0  0
  -29.8486  -24.3048   22.1875 N   0  0  0  0  0  0  0  0  0  0  0  0
  -24.4685  -32.1310   23.3752 N   0  0  0  0  0  0  0  0  0  0  0  0
  -20.8979  -26.6330   23.1329 N   0  0  0  0  0  0  0  0  0  0  0  0
  -19.8520  -24.6246   20.3151 N   0  3  0  0  0  0  0  0  0  0  0  0
  -30.1308  -13.5613   17.8609 O   0  0  0  0  0  0  0  0  0  0  0  0
  -25.4191  -30.0334   23.7201 O   0  0  0  0  0  0  0  0  0  0  0  0
  -21.3359  -29.4472   23.4441 O   0  0  0  0  0  0  0  0  0  0  0  0
  -22.0756  -24.9875   22.0005 O   0  0  0  0  0  0  0  0  0  0  0  0
  -28.2974  -23.9146   20.4627 O   0  0  0  0  0  0  0  0  0  0  0  0
  -31.3794  -18.8682   25.9258 O   0  0  0  0  0  0  0  0  0  0  0  0
  -22.9606  -11.8178   20.3379 O   0  0  0  0  0  0  0  0  0  0  0  0
  -28.3085  -26.4354   19.6574 O   0  0  0  0  0  0  0  0  0  1  0  0
  -22.4718   -6.8891   17.9146 F   0  0  0  0  0  0  0  0  0  0  0  0
  -21.8246   -9.6842   21.6794 F   0  0  0  0  0  0  0  0  0  0  0  0
  1  2  1  0  0  0  0
  1  5  2  0  0  0  0
  2  6  2  0  0  0  0
  3 10  2  0  0  0  0
  3 18  1  0  0  0  0
  4 11  1  0  0  0  0
  4 18  2  0  0  0  0
  5 20  1  0  0  0  0
  6 22  1  0  0  0  0
  7 12  2  0  0  0  0
  7 21  1  0  0  0  0
  8  9  2  0  0  0  0
  8 25  1  0  0  0  0
  9 26  1  0  0  0  0
 10 27  1  0  0  0  0
 11 27  2  0  0  0  0
 12 28  1  0  0  0  0
 13 14  2  0  0  0  0
 13 29  1  0  0  0  0
 14 30  1  0  0  0  0
 15 23  1  0  0  0  0
 15 26  2  0  0  0  0
 16 24  1  0  0  0  0
 16 28  2  0  0  0  0
 17 30  2  0  0  0  0
 17 31  1  0  0  0  0
 18 32  1  0  0  0  0
 19 32  1  0  0  0  0
 19 33  2  0  0  0  0
 19 34  1  0  0  0  0
 20 22  2  0  0  0  0
 20 40  1  0  0  0  0
 21 24  2  0  0  0  0
 21 41  1  0  0  0  0
 22 50  1  0  0  0  0
 23 25  2  0  0  0  0
 23 42  1  0  0  0  0
 24 43  1  0  0  0  0
 25 65  1  0  0  0  0
 26 70  1  0  0  0  0
 27 80  1  0  0  0  0
 28 81  1  0  0  0  0
 29 31  2  0  0  0  0
 29 80  1  0  0  0  0
 30 82  1  0  0  0  0
 31 83  1  0  0  0  0
 32 63  2  0  0  0  0
 33 64  1  0  0  0  0
 33 68  1  0  0  0  0
 34 69  1  0  0  0  0
 34 74  2  0  0  0  0
 35 51  1  0  0  0  0
 35 71  1  0  0  0  0
 35 75  2  0  0  0  0
 36 59  1  0  0  0  0
 36 66  1  0  0  0  0
 36 76  2  0  0  0  0
 37 60  1  0  0  0  0
 37 72  1  0  0  0  0
 37 77  2  0  0  0  0
 38 61  1  0  0  0  0
 38 70  1  0  0  0  0
 38 78  2  0  0  0  0
 39 65  1  0  0  0  0
 39 67  1  0  0  0  0
 39 79  2  0  0  0  0
 40 44  1  0  0  0  0
 41 51  1  0  0  0  0
 42 65  1  0  0  0  0
 43 66  1  0  0  0  0
 44 46  1  0  0  0  0
 45 47  1  0  0  0  0
 45 48  1  0  0  0  0
 46 50  1  0  0  0  0
 47 52  1  0  0  0  0
 48 67  1  0  0  0  0
 49 52  1  0  0  0  0
 49 67  1  0  0  0  0
 50 71  1  0  0  0  0
 51 66  1  0  0  0  0
 52 64  1  0  0  0  0
 53 60  1  0  0  0  0
 54 61  1  0  0  0  0
 55 62  1  0  0  0  0
 56 62  1  0  0  0  0
 57 62  1  0  0  0  0
 58 73  1  0  0  0  0
 59 62  1  0  0  0  0
 59 72  1  0  0  0  0
 60 73  1  0  0  0  0
 61 81  1  0  0  0  0
 63 64  1  0  0  0  0
M  CHG  1  73   1
M  ISO  4  39 100  61 101  65 100  81 101
M  END
> <Batch ID>
0140

> <Smiles>
CNC(C)C(=O)NC(C(=O)N1Cc2cc([101O:1][101CH:1](C)C(=O)Nc3ccc4c(c3)C[100N:0]4[100C:0](=O)N3CCCC(n4nc(-c5ccc(Oc6ccc(F)cc6F)cc5)c(C(N)=O)c4N)C3)ccc2CC1C(=O)NC1CCCc2ccccc21)C(C)(C)C

> <Shape>
0.284

> <Color>
0.071

> <Negative vol penalty>
0.000

$$$$

  -OEChem-04052302513D

 85 93  0     1  0  0  0  0  0999 V2000
  -29.5308  -23.1023   18.3514 C   0  0  0  0  0  0  0  0  0  0  0  0
  -28.2898  -23.6858   18.5803 C   0  0  0  0  0  0  0  0  0  0  0  0
  -25.1430  -15.5957   18.8973 C   0  0  0  0  0  0  0  0  0  0  0  0
  -23.9098  -15.0979   20.9144 C   0  0  0  0  0  0  0  0  0  0  0  0
  -30.6330  -23.4987   19.1058 C   0  0  0  0  0  0  0  0  0  0  0  0
  -28.1531  -24.6745   19.5554 C   0  0  0  0  0  0  0  0  0  0  0  0
  -23.8046  -26.9593   19.8273 C   0  0  0  0  0  0  0  0  0  0  0  0
  -25.8123  -14.3768   19.0057 C   0  0  0  0  0  0  0  0  0  0  0  0
  -24.5792  -13.8790   21.0228 C   0  0  0  0  0  0  0  0  0  0  0  0
  -22.6578  -26.3405   20.3230 C   0  0  0  0  0  0  0  0  0  0  0  0
  -28.1050  -11.5547   18.9502 C   0  0  0  0  0  0  0  0  0  0  0  0
  -29.4849  -11.5505   18.7466 C   0  0  0  0  0  0  0  0  0  0  0  0
  -22.9007  -27.5599   22.3902 C   0  0  0  0  0  0  0  0  0  0  0  0
  -21.5385  -23.4921   25.2668 C   0  0  0  0  0  0  0  0  0  0  0  0
  -19.8278  -22.8372   26.8421 C   0  0  0  0  0  0  0  0  0  0  0  0
  -21.2661  -21.1649   25.8563 C   0  0  0  0  0  0  0  0  0  0  0  0
  -29.7614  -13.0892   20.5886 C   0  0  0  0  0  0  0  0  0  0  0  0
  -24.1917  -15.9563   19.8517 C   0  0  0  0  0  0  0  0  0  0  0  0
  -22.2917  -17.4649   19.0634 C   0  0  0  0  0  0  0  0  0  0  0  0
  -30.5062  -24.4839   20.0990 C   0  0  0  0  0  0  0  0  0  0  0  0
  -24.5155  -27.8764   20.6148 C   0  0  0  0  0  0  0  0  0  0  0  0
  -29.2587  -25.1053   20.3108 C   0  0  0  0  0  0  0  0  0  0  0  0
  -24.0548  -28.1908   21.9012 C   0  0  0  0  0  0  0  0  0  0  0  0
  -20.4888  -23.8312   26.1205 C   0  0  0  0  0  0  0  0  0  0  0  0
  -21.9271  -22.1589   25.1347 C   0  0  0  0  0  0  0  0  0  0  0  0
  -25.5304  -13.5184   20.0684 C   0  0  0  0  0  0  0  0  0  0  0  0
  -22.2073  -26.6386   21.6056 C   0  0  0  0  0  0  0  0  0  0  0  0
  -27.5533  -12.3262   19.9730 C   0  0  0  0  0  0  0  0  0  0  0  0
  -30.3131  -12.3177   19.5658 C   0  0  0  0  0  0  0  0  0  0  0  0
  -20.2165  -21.5041   26.7100 C   0  0  0  0  0  0  0  0  0  0  0  0
  -28.3815  -13.0935   20.7922 C   0  0  0  0  0  0  0  0  0  0  0  0
  -23.5004  -17.2156   19.7406 C   0  0  0  0  0  0  0  0  0  0  0  0
  -22.0613  -18.8054   19.2544 C   0  0  0  0  0  0  0  0  0  0  0  0
  -21.4521  -16.5652   18.3276 C   0  0  0  0  0  0  0  0  0  0  0  0
  -27.4582  -27.9989   21.8102 C   0  0  0  0  0  0  0  0  0  0  0  0
  -26.5453  -30.9757   22.7199 C   0  0  0  0  0  0  0  0  0  0  0  0
  -24.0020  -33.1199   23.4822 C   0  0  0  0  0  0  0  0  0  0  0  0
  -23.7540  -22.6771   23.4793 C   0  0  0  0  0  0  0  0  0  0  0  0
  -31.7336  -24.8807   20.8808 C   0  0  0  0  0  0  0  0  0  0  0  0
  -25.7356  -28.5553   20.0555 C   0  0  0  0  0  0  0  0  0  0  0  0
  -24.7704  -29.1836   22.7792 C   0  0  0  0  0  0  0  0  0  0  0  0
  -31.4017  -25.6063   22.1806 C   0  0  0  0  0  0  0  0  0  0  0  0
  -24.3729  -22.9359   19.9826 C   0  0  0  0  0  0  0  0  0  0  0  0
  -30.4061  -26.7248   21.9119 C   0  0  0  0  0  0  0  0  0  0  0  0
  -24.1035  -21.5225   19.4611 C   0  0  0  0  0  0  0  0  0  0  0  0
  -25.0311  -22.9160   21.3610 C   0  0  0  0  0  0  0  0  0  0  0  0
  -24.0563  -20.7076   21.8529 C   0  0  0  0  0  0  0  0  0  0  0  0
  -29.0796  -26.1608   21.3871 C   0  0  1  0  0  0  0  0  0  0  0  0
  -26.6715  -29.0874   21.1363 C   0  0  1  0  0  0  0  0  0  0  0  0
  -23.3348  -20.6771   20.4956 C   0  0  2  0  0  0  0  0  0  0  0  0
  -23.5690  -35.4768   24.2270 C   0  0  0  0  0  0  0  0  0  0  0  0
  -18.2808  -26.0818   22.7798 C   0  0  0  0  0  0  0  0  0  0  0  0
  -27.3895  -30.2320   25.5562 C   0  0  0  0  0  0  0  0  0  0  0  0
  -26.0843  -32.2008   26.3862 C   0  0  0  0  0  0  0  0  0  0  0  0
  -28.0212  -32.5474   24.8529 C   0  0  0  0  0  0  0  0  0  0  0  0
  -18.7242  -27.2923   25.6457 C   0  0  0  0  0  0  0  0  0  0  0  0
  -17.6378  -25.0569   25.5646 C   0  0  0  0  0  0  0  0  0  0  0  0
  -22.4704  -33.7376   21.0263 C   0  0  0  0  0  0  0  0  0  0  0  0
  -20.0673  -25.2767   26.2646 C   0  0  0  0  0  0  0  0  0  0  0  0
  -20.6836  -26.3878   23.4144 C   0  0  0  0  0  0  0  0  0  1  0  0
  -25.8786  -31.5633   23.9403 C   0  0  1  0  0  0  0  0  0  0  0  0
  -23.7160  -34.5424   23.0361 C   0  0  2  0  0  0  0  0  0  0  0  0
  -19.3786  -25.6494   23.7727 C   0  0  1  0  0  0  0  0  0  0  0  0
  -26.8308  -31.6157   25.1683 C   0  0  0  0  0  0  0  0  0  0  0  0
  -18.9623  -25.8056   25.2855 C   0  0  0  0  0  0  0  0  0  0  0  0
  -24.0029  -18.3099   20.3185 N   0  0  0  0  0  0  0  0  0  0  0  0
  -23.1055  -19.2599   20.0048 N   0  0  0  0  0  0  0  0  0  0  0  0
  -25.9620  -29.8162   22.1897 N   0  0  0  0  0  0  0  0  0  0  0  0
  -24.2454  -22.0999   22.2892 N   0  0  0  0  0  0  0  0  0  0  0  0
  -21.0694  -19.6280   18.8518 N   0  0  0  0  0  0  0  0  0  0  0  0
  -21.8369  -15.2211   18.2302 N   0  0  0  0  0  0  0  0  0  0  0  0
  -22.9932  -21.8141   24.2673 N   0  0  0  0  0  0  0  0  0  0  0  0
  -28.2418  -27.2552   20.9487 N   0  0  0  0  0  0  0  0  0  0  0  0
  -25.3558  -32.8632   23.5337 N   0  0  0  0  0  0  0  0  0  0  0  0
  -22.4565  -34.5926   22.2411 N   0  3  0  0  0  0  0  0  0  0  0  0
  -20.4006  -16.9455   17.7591 O   0  0  0  0  0  0  0  0  0  0  0  0
  -27.3624  -27.8461   23.0223 O   0  0  0  0  0  0  0  0  0  0  0  0
  -27.5424  -31.5293   22.2500 O   0  0  0  0  0  0  0  0  0  0  0  0
  -23.1134  -32.3178   23.7610 O   0  0  0  0  0  0  0  0  0  0  0  0
  -23.9679  -23.8582   23.7642 O   0  0  0  0  0  0  0  0  0  0  0  0
  -26.1832  -12.3288   20.1743 O   0  0  0  0  0  0  0  0  0  0  0  0
  -21.0885  -26.0356   22.0921 O   0  0  0  0  0  0  0  0  0  1  0  0
  -31.6383  -12.3123   19.3711 F   0  0  0  0  0  0  0  0  0  0  0  0
  -19.5817  -20.5497   27.4031 F   0  0  0  0  0  0  0  0  0  0  0  0
  -27.8573  -13.8357   21.7771 F   0  0  0  0  0  0  0  0  0  0  0  0
  1  2  1  0  0  0  0
  1  5  2  0  0  0  0
  2  6  2  0  0  0  0
  3  8  2  0  0  0  0
  3 18  1  0  0  0  0
  4  9  1  0  0  0  0
  4 18  2  0  0  0  0
  5 20  1  0  0  0  0
  6 22  1  0  0  0  0
  7 10  2  0  0  0  0
  7 21  1  0  0  0  0
  8 26  1  0  0  0  0
  9 26  2  0  0  0  0
 10 27  1  0  0  0  0
 11 12  2  0  0  0  0
 11 28  1  0  0  0  0
 12 29  1  0  0  0  0
 13 23  1  0  0  0  0
 13 27  2  0  0  0  0
 14 24  2  0  0  0  0
 14 25  1  0  0  0  0
 15 24  1  0  0  0  0
 15 30  2  0  0  0  0
 16 25  2  0  0  0  0
 16 30  1  0  0  0  0
 17 29  2  0  0  0  0
 17 31  1  0  0  0  0
 18 32  1  0  0  0  0
 19 32  1  0  0  0  0
 19 33  2  0  0  0  0
 19 34  1  0  0  0  0
 20 22  2  0  0  0  0
 20 39  1  0  0  0  0
 21 23  2  0  0  0  0
 21 40  1  0  0  0  0
 22 48  1  0  0  0  0
 23 41  1  0  0  0  0
 24 59  1  0  0  0  0
 25 72  1  0  0  0  0
 26 81  1  0  0  0  0
 27 82  1  0  0  0  0
 28 31  2  0  0  0  0
 28 81  1  0  0  0  0
 29 83  1  0  0  0  0
 30 84  1  0  0  0  0
 31 85  1  0  0  0  0
 32 66  2  0  0  0  0
 33 67  1  0  0  0  0
 33 70  1  0  0  0  0
 34 71  1  0  0  0  0
 34 76  2  0  0  0  0
 35 49  1  0  0  0  0
 35 73  1  0  0  0  0
 35 77  2  0  0  0  0
 36 61  1  0  0  0  0
 36 68  1  0  0  0  0
 36 78  2  0  0  0  0
 37 62  1  0  0  0  0
 37 74  1  0  0  0  0
 37 79  2  0  0  0  0
 38 69  1  0  0  0  0
 38 72  1  0  0  0  0
 38 80  2  0  0  0  0
 39 42  1  0  0  0  0
 40 49  1  0  0  0  0
 41 68  1  0  0  0  0
 42 44  1  0  0  0  0
 43 45  1  0  0  0  0
 43 46  1  0  0  0  0
 44 48  1  0  0  0  0
 45 50  1  0  0  0  0
 46 69  1  0  0  0  0
 47 50  1  0  0  0  0
 47 69  1  0  0  0  0
 48 73  1  0  0  0  0
 49 68  1  0  0  0  0
 50 67  1  0  0  0  0
 51 62  1  0  0  0  0
 52 63  1  0  0  0  0
 53 64  1  0  0  0  0
 54 64  1  0  0  0  0
 55 64  1  0  0  0  0
 56 65  1  0  0  0  0
 57 65  1  0  0  0  0
 58 75  1  0  0  0  0
 59 65  1  0  0  0  0
 60 63  1  0  0  0  0
 60 82  1  0  0  0  0
 61 64  1  0  0  0  0
 61 74  1  0  0  0  0
 62 75  1  0  0  0  0
 63 65  1  0  0  0  0
 66 67  1  0  0  0  0
M  CHG  1  75   1
M  ISO  4  38 100  60 101  72 100  82 101
M  END
> <Batch ID>
0140

> <Smiles>
CNC(C)C(=O)NC(C(=O)N1Cc2cc([101O:1][101CH2:1]C(C)C(C)(C)Cc3cc(F)cc([100NH:0][100C:0](=O)N4CCCC(n5nc(-c6ccc(Oc7ccc(F)cc7F)cc6)c(C(N)=O)c5N)C4)c3)ccc2CC1C(=O)NC1CCCc2ccccc21)C(C)(C)C

> <Shape>
0.232

> <Color>
0.062

> <Negative vol penalty>
0.000

$$$$

  -OEChem-04052302513D

 90 99  0     1  0  0  0  0  0999 V2000
  -30.3920  -27.9010   19.9368 C   0  0  0  0  0  0  0  0  0  0  0  0
  -29.6665  -27.0036   20.7139 C   0  0  0  0  0  0  0  0  0  0  0  0
  -23.2899   -9.7986   19.9147 C   0  0  0  0  0  0  0  0  0  0  0  0
  -23.7436   -9.9405   22.2834 C   0  0  0  0  0  0  0  0  0  0  0  0
  -31.6624  -27.5554   19.4779 C   0  0  0  0  0  0  0  0  0  0  0  0
  -30.2106  -25.7597   21.0316 C   0  0  0  0  0  0  0  0  0  0  0  0
  -29.4373  -22.6235   26.2347 C   0  0  0  0  0  0  0  0  0  0  0  0
  -32.6900  -15.3769   24.6229 C   0  0  0  0  0  0  0  0  0  0  0  0
  -32.2010  -14.6170   23.5604 C   0  0  0  0  0  0  0  0  0  0  0  0
  -22.5656   -8.6251   20.1237 C   0  0  0  0  0  0  0  0  0  0  0  0
  -23.0192   -8.7670   22.4925 C   0  0  0  0  0  0  0  0  0  0  0  0
  -28.5903  -21.5707   26.5783 C   0  0  0  0  0  0  0  0  0  0  0  0
  -19.7738   -7.8512   22.7144 C   0  0  0  0  0  0  0  0  0  0  0  0
  -18.8729   -7.8284   23.7790 C   0  0  0  0  0  0  0  0  0  0  0  0
  -30.3608  -20.0010   26.1085 C   0  0  0  0  0  0  0  0  0  0  0  0
  -30.6478  -13.5261   25.0553 C   0  0  0  0  0  0  0  0  0  0  0  0
  -20.0827   -5.9833   24.7633 C   0  0  0  0  0  0  0  0  0  0  0  0
  -23.8790  -10.4563   20.9946 C   0  0  0  0  0  0  0  0  0  0  0  0
  -24.1344  -12.9867   20.7950 C   0  0  0  0  0  0  0  0  0  0  0  0
  -32.2263  -26.3103   19.7981 C   0  0  0  0  0  0  0  0  0  0  0  0
  -30.7512  -22.3718   25.8143 C   0  0  0  0  0  0  0  0  0  0  0  0
  -31.4892  -25.3965   20.5754 C   0  0  0  0  0  0  0  0  0  0  0  0
  -31.2232  -21.0524   25.7626 C   0  0  0  0  0  0  0  0  0  0  0  0
  -32.1579  -15.2114   25.9017 C   0  0  0  0  0  0  0  0  0  0  0  0
  -31.1368  -14.2861   26.1179 C   0  0  0  0  0  0  0  0  0  0  0  0
  -31.1800  -13.6916   23.7765 C   0  0  0  0  0  0  0  0  0  0  0  0
  -22.4302   -8.1093   21.4126 C   0  0  0  0  0  0  0  0  0  0  0  0
  -29.0511  -20.2590   26.5124 C   0  0  0  0  0  0  0  0  0  0  0  0
  -20.8292   -6.9399   22.6742 C   0  0  0  0  0  0  0  0  0  0  0  0
  -19.0273   -6.8945   24.8035 C   0  0  0  0  0  0  0  0  0  0  0  0
  -20.9836   -6.0060   23.6987 C   0  0  0  0  0  0  0  0  0  0  0  0
  -24.6279  -11.6683   20.7792 C   0  0  0  0  0  0  0  0  0  0  0  0
  -25.2344  -13.7681   20.5383 C   0  0  0  0  0  0  0  0  0  0  0  0
  -22.8009  -13.4624   21.0214 C   0  0  0  0  0  0  0  0  0  0  0  0
  -32.3904  -22.8956   23.1417 C   0  0  0  0  0  0  0  0  0  0  0  0
  -34.8768  -21.8004   24.9139 C   0  0  0  0  0  0  0  0  0  0  0  0
  -35.9458  -19.9365   27.5653 C   0  0  0  0  0  0  0  0  0  0  0  0
  -31.0970  -12.9627   21.3665 C   0  0  0  0  0  0  0  0  0  0  0  0
  -33.5834  -25.9628   19.2396 C   0  0  0  0  0  0  0  0  0  0  0  0
  -31.6606  -23.5201   25.4727 C   0  0  0  0  0  0  0  0  0  0  0  0
  -32.6316  -20.7302   25.3370 C   0  0  0  0  0  0  0  0  0  0  0  0
  -34.2413  -24.7729   19.9337 C   0  0  0  0  0  0  0  0  0  0  0  0
  -29.4584  -13.6639   18.2842 C   0  0  0  0  0  0  0  0  0  0  0  0
  -33.2451  -23.6283   20.0897 C   0  0  0  0  0  0  0  0  0  0  0  0
  -27.9879  -13.3575   18.5775 C   0  0  0  0  0  0  0  0  0  0  0  0
  -26.3987  -17.1037   27.6520 C   0  0  0  0  0  0  0  0  0  0  0  0
  -30.3940  -12.6902   18.9987 C   0  0  0  0  0  0  0  0  0  0  0  0
  -28.7037  -12.2601   20.7386 C   0  0  0  0  0  0  0  0  0  0  0  0
  -26.6797  -15.7959   28.3785 C   0  0  0  0  0  0  0  0  0  0  0  0
  -28.1927  -17.5614   29.1315 C   0  0  0  0  0  0  0  0  0  0  0  0
  -32.0554  -24.0474   20.9618 C   0  0  1  0  0  0  0  0  0  0  0  0
  -32.8183  -23.1159   24.5651 C   0  0  1  0  0  0  0  0  0  0  0  0
  -27.7251  -13.2544   20.0927 C   0  0  2  0  0  0  0  0  0  0  0  0
  -26.9165  -18.2018   28.5865 C   0  0  2  0  0  0  0  0  0  0  0  0
  -32.6982  -16.0358   27.0238 C   0  0  0  0  0  0  0  0  0  0  0  0
  -25.9098  -18.5019   29.7095 C   0  0  0  0  0  0  0  0  0  0  0  0
  -38.0376  -19.1997   28.7394 C   0  0  0  0  0  0  0  0  0  0  0  0
  -35.4155  -19.7869   22.6855 C   0  0  0  0  0  0  0  0  0  0  0  0
  -36.8476  -18.5022   24.2876 C   0  0  0  0  0  0  0  0  0  0  0  0
  -37.4652  -20.8364   23.6611 C   0  0  0  0  0  0  0  0  0  0  0  0
  -29.9954  -15.6369   30.2974 C   0  0  0  0  0  0  0  0  0  0  0  0
  -28.4443  -13.7745   29.6374 C   0  0  0  0  0  0  0  0  0  0  0  0
  -35.1365  -21.2609   30.0852 C   0  0  0  0  0  0  0  0  0  0  0  0
  -30.5442  -14.0913   27.4925 C   0  0  0  0  0  0  0  0  0  0  0  0
  -27.2221  -19.4933   27.8256 C   0  0  0  0  0  0  0  0  0  1  0  0
  -29.5720  -15.2247   27.8481 C   0  0  0  0  0  0  0  0  0  0  0  0
  -35.4835  -20.4442   25.1814 C   0  0  1  0  0  0  0  0  0  0  0  0
  -36.9314  -20.2415   28.6788 C   0  0  2  0  0  0  0  0  0  0  0  0
  -36.2757  -19.8980   23.9601 C   0  0  0  0  0  0  0  0  0  0  0  0
  -28.9637  -15.1649   29.2661 C   0  0  0  0  0  0  0  0  0  0  0  0
  -25.9392  -11.6115   20.5319 N   0  0  0  0  0  0  0  0  0  0  0  0
  -26.2791  -12.9040   20.3899 N   0  0  0  0  0  0  0  0  0  0  0  0
  -33.4805  -21.8869   25.0070 N   0  0  0  0  0  0  0  0  0  0  0  0
  -30.0891  -12.6482   20.4305 N   0  0  0  0  0  0  0  0  0  0  0  0
  -25.4002  -15.1032   20.4273 N   0  0  0  0  0  0  0  0  0  0  0  0
  -21.7901  -12.5240   21.2705 N   0  0  0  0  0  0  0  0  0  0  0  0
  -30.6816  -12.9208   22.6970 N   0  0  0  0  0  0  0  0  0  0  0  0
  -32.4253  -24.0352   22.3609 N   0  0  0  0  0  0  0  0  0  0  0  0
  -36.2799  -20.5856   26.3955 N   0  0  0  0  0  0  0  0  0  0  0  0
  -27.8090  -16.1115   29.3399 N   0  3  2  0  0  0  0  0  0  0  0  0
  -36.2343  -20.2640   29.9958 N   0  3  0  0  0  0  0  0  0  0  0  0
  -22.5112  -14.6824   20.9872 O   0  0  0  0  0  0  0  0  0  0  0  0
  -32.0548  -21.7744   22.7784 O   0  0  0  0  0  0  0  0  0  0  0  0
  -35.6151  -22.7498   24.6396 O   0  0  0  0  0  0  0  0  0  0  0  0
  -34.9785  -19.1936   27.7168 O   0  0  0  0  0  0  0  0  0  0  0  0
  -32.2369  -13.2745   21.0125 O   0  0  0  0  0  0  0  0  0  0  0  0
  -21.7232   -6.9643   21.6169 O   0  0  0  0  0  0  0  0  0  0  0  0
  -28.2262  -19.2295   26.8466 O   0  0  0  0  0  0  0  0  0  1  0  0
  -18.1630   -6.8738   25.8265 F   0  0  0  0  0  0  0  0  0  0  0  0
  -21.9962   -5.1288   23.6661 F   0  0  0  0  0  0  0  0  0  0  0  0
  1  2  1  0  0  0  0
  1  5  2  0  0  0  0
  2  6  2  0  0  0  0
  3 10  2  0  0  0  0
  3 18  1  0  0  0  0
  4 11  1  0  0  0  0
  4 18  2  0  0  0  0
  5 20  1  0  0  0  0
  6 22  1  0  0  0  0
  7 12  2  0  0  0  0
  7 21  1  0  0  0  0
  8  9  2  0  0  0  0
  8 24  1  0  0  0  0
  9 26  1  0  0  0  0
 10 27  1  0  0  0  0
 11 27  2  0  0  0  0
 12 28  1  0  0  0  0
 13 14  2  0  0  0  0
 13 29  1  0  0  0  0
 14 30  1  0  0  0  0
 15 23  1  0  0  0  0
 15 28  2  0  0  0  0
 16 25  1  0  0  0  0
 16 26  2  0  0  0  0
 17 30  2  0  0  0  0
 17 31  1  0  0  0  0
 18 32  1  0  0  0  0
 19 32  1  0  0  0  0
 19 33  2  0  0  0  0
 19 34  1  0  0  0  0
 20 22  2  0  0  0  0
 20 39  1  0  0  0  0
 21 23  2  0  0  0  0
 21 40  1  0  0  0  0
 22 51  1  0  0  0  0
 23 41  1  0  0  0  0
 24 25  2  0  0  0  0
 24 55  1  0  0  0  0
 25 64  1  0  0  0  0
 26 77  1  0  0  0  0
 27 87  1  0  0  0  0
 28 88  1  0  0  0  0
 29 31  2  0  0  0  0
 29 87  1  0  0  0  0
 30 89  1  0  0  0  0
 31 90  1  0  0  0  0
 32 71  2  0  0  0  0
 33 72  1  0  0  0  0
 33 75  1  0  0  0  0
 34 76  1  0  0  0  0
 34 82  2  0  0  0  0
 35 52  1  0  0  0  0
 35 78  1  0  0  0  0
 35 83  2  0  0  0  0
 36 67  1  0  0  0  0
 36 73  1  0  0  0  0
 36 84  2  0  0  0  0
 37 68  1  0  0  0  0
 37 79  1  0  0  0  0
 37 85  2  0  0  0  0
 38 74  1  0  0  0  0
 38 77  1  0  0  0  0
 38 86  2  0  0  0  0
 39 42  1  0  0  0  0
 40 52  1  0  0  0  0
 41 73  1  0  0  0  0
 42 44  1  0  0  0  0
 43 45  1  0  0  0  0
 43 47  1  0  0  0  0
 44 51  1  0  0  0  0
 45 53  1  0  0  0  0
 46 49  1  0  0  0  0
 46 54  1  0  0  0  0
 47 74  1  0  0  0  0
 48 53  1  0  0  0  0
 48 74  1  0  0  0  0
 49 80  1  0  0  0  0
 50 54  1  0  0  0  0
 50 80  1  0  0  0  0
 51 78  1  0  0  0  0
 52 73  1  0  0  0  0
 53 72  1  0  0  0  0
 54 56  1  0  0  0  0
 54 65  1  0  0  0  0
 57 68  1  0  0  0  0
 58 69  1  0  0  0  0
 59 69  1  0  0  0  0
 60 69  1  0  0  0  0
 61 70  1  0  0  0  0
 62 70  1  0  0  0  0
 63 81  1  0  0  0  0
 64 66  1  0  0  0  0
 65 88  1  0  0  0  0
 66 70  1  0  0  0  0
 67 69  1  0  0  0  0
 67 79  1  0  0  0  0
 68 81  1  0  0  0  0
 70 80  1  0  0  0  0
 71 72  1  0  0  0  0
M  CHG  2  80   1  81   1
M  ISO  4  38 100  65 101  77 100  88 101
M  END
> <Batch ID>
0140

> <Smiles>
CNC(C)C(=O)NC(C(=O)N1Cc2cc([101O:1][101CH2:1]C3(C)CCN(C(C)(C)CCc4cc([100NH:0][100C:0](=O)N5CCCC(n6nc(-c7ccc(Oc8ccc(F)cc8F)cc7)c(C(N)=O)c6N)C5)ccc4C)C3)ccc2CC1C(=O)NC1CCCc2ccccc21)C(C)(C)C

> <Shape>
0.160

> <Color>
0.167

> <Negative vol penalty>
0.000

$$$$
