
  -OEChem-04052302543D

 89 97  0     1  0  0  0  0  0999 V2000
  -29.3334  -34.4410   13.2935 C   0  0  0  0  0  0  0  0  0  0  0  0
  -29.5968  -33.6107   14.3782 C   0  0  0  0  0  0  0  0  0  0  0  0
  -22.9107  -10.0493   19.9604 C   0  0  0  0  0  0  0  0  0  0  0  0
  -23.8149   -9.8112   22.1881 C   0  0  0  0  0  0  0  0  0  0  0  0
  -31.6724  -18.7511   20.8574 C   0  0  0  0  0  0  0  0  0  0  0  0
  -28.4037  -35.4728   13.4165 C   0  0  0  0  0  0  0  0  0  0  0  0
  -28.9314  -33.8123   15.5869 C   0  0  0  0  0  0  0  0  0  0  0  0
  -27.2516  -29.4910   17.6241 C   0  0  0  0  0  0  0  0  0  0  0  0
  -31.4281  -17.3827   20.7415 C   0  0  0  0  0  0  0  0  0  0  0  0
  -22.1222   -8.9160   20.1592 C   0  0  0  0  0  0  0  0  0  0  0  0
  -23.0264   -8.6779   22.3870 C   0  0  0  0  0  0  0  0  0  0  0  0
  -28.1860  -28.6910   18.2803 C   0  0  0  0  0  0  0  0  0  0  0  0
  -23.0986   -5.4099   21.5235 C   0  0  0  0  0  0  0  0  0  0  0  0
  -23.7016   -4.2949   22.1054 C   0  0  0  0  0  0  0  0  0  0  0  0
  -27.4268  -29.5541   20.4011 C   0  0  0  0  0  0  0  0  0  0  0  0
  -29.9267  -17.4907   22.6313 C   0  0  0  0  0  0  0  0  0  0  0  0
  -22.1249   -4.3961   23.9332 C   0  0  0  0  0  0  0  0  0  0  0  0
  -23.7571  -10.4969   20.9748 C   0  0  0  0  0  0  0  0  0  0  0  0
  -31.0439  -19.4893   21.8603 C   0  0  0  0  0  0  0  0  0  0  0  0
  -24.2284  -13.0028   21.0522 C   0  0  0  0  0  0  0  0  0  0  0  0
  -27.7195  -35.6811   14.6244 C   0  0  0  0  0  0  0  0  0  0  0  0
  -26.4038  -30.3382   18.3521 C   0  0  0  0  0  0  0  0  0  0  0  0
  -27.9926  -34.8486   15.7266 C   0  0  0  0  0  0  0  0  0  0  0  0
  -26.4808  -30.3621   19.7520 C   0  0  0  0  0  0  0  0  0  0  0  0
  -30.1711  -18.8591   22.7472 C   0  0  0  0  0  0  0  0  0  0  0  0
  -30.5553  -16.7525   21.6284 C   0  0  0  0  0  0  0  0  0  0  0  0
  -22.1801   -8.2303   21.3726 C   0  0  0  0  0  0  0  0  0  0  0  0
  -28.2757  -28.7246   19.6688 C   0  0  0  0  0  0  0  0  0  0  0  0
  -22.0087   -6.0181   22.1465 C   0  0  0  0  0  0  0  0  0  0  0  0
  -23.2148   -3.7879   23.3103 C   0  0  0  0  0  0  0  0  0  0  0  0
  -21.5219   -5.5112   23.3513 C   0  0  0  0  0  0  0  0  0  0  0  0
  -24.5722  -11.6672   20.7697 C   0  0  0  0  0  0  0  0  0  0  0  0
  -25.3345  -13.7278   20.6816 C   0  0  0  0  0  0  0  0  0  0  0  0
  -31.3228  -20.9436   21.9606 C   0  0  0  0  0  0  0  0  0  0  0  0
  -23.0175  -13.5400   21.6006 C   0  0  0  0  0  0  0  0  0  0  0  0
  -25.9451  -33.4809   18.4815 C   0  0  0  0  0  0  0  0  0  0  0  0
  -30.6431  -23.3264   21.2410 C   0  0  0  0  0  0  0  0  0  0  0  0
  -23.4930  -32.6498   20.4358 C   0  0  0  0  0  0  0  0  0  0  0  0
  -22.1375  -30.3563   22.5686 C   0  0  0  0  0  0  0  0  0  0  0  0
  -30.8498  -14.4848   20.5715 C   0  0  0  0  0  0  0  0  0  0  0  0
  -26.7581  -36.8389   14.7238 C   0  0  0  0  0  0  0  0  0  0  0  0
  -25.3830  -31.1751   17.6310 C   0  0  0  0  0  0  0  0  0  0  0  0
  -25.5797  -31.2392   20.5809 C   0  0  0  0  0  0  0  0  0  0  0  0
  -25.8211  -36.7511   15.9257 C   0  0  0  0  0  0  0  0  0  0  0  0
  -29.4556  -12.3529   18.0838 C   0  0  0  0  0  0  0  0  0  0  0  0
  -26.6017  -36.3917   17.1860 C   0  0  0  0  0  0  0  0  0  0  0  0
  -28.0325  -12.0943   18.5841 C   0  0  0  0  0  0  0  0  0  0  0  0
  -30.4568  -12.4268   19.2352 C   0  0  0  0  0  0  0  0  0  0  0  0
  -28.6847  -13.1155   20.8019 C   0  0  0  0  0  0  0  0  0  0  0  0
  -27.2730  -35.0200   17.0468 C   0  0  1  0  0  0  0  0  0  0  0  0
  -24.9205  -32.3826   18.4407 C   0  0  1  0  0  0  0  0  0  0  0  0
  -27.6305  -13.0975   19.6830 C   0  0  2  0  0  0  0  0  0  0  0  0
  -29.4860  -19.6260   23.8309 C   0  0  0  0  0  0  0  0  0  0  0  0
  -33.5433  -22.3978   20.4962 C   0  0  0  0  0  0  0  0  0  0  0  0
  -20.1418  -29.9741   24.0413 C   0  0  0  0  0  0  0  0  0  0  0  0
  -29.7888  -21.3159   20.0105 C   0  0  0  0  0  0  0  0  0  0  0  0
  -24.6514  -34.5743   22.5008 C   0  0  0  0  0  0  0  0  0  0  0  0
  -23.2239  -33.4649   24.2328 C   0  0  0  0  0  0  0  0  0  0  0  0
  -22.1591  -34.6329   22.3029 C   0  0  0  0  0  0  0  0  0  0  0  0
  -21.3238  -27.9562   21.0401 C   0  0  0  0  0  0  0  0  0  0  0  0
  -30.2978  -24.3534   20.1668 C   0  0  0  0  0  0  0  0  0  0  0  0
  -32.2504  -21.9085   19.8485 C   0  0  0  0  0  0  0  0  0  0  0  0
  -29.9288  -25.7061   20.7674 C   0  0  0  0  0  0  0  0  0  0  0  0
  -29.5404  -26.7106   19.6928 C   0  0  0  0  0  0  0  0  0  1  0  0
  -23.3373  -32.4289   21.9210 C   0  0  1  0  0  0  0  0  0  0  0  0
  -20.7415  -29.7668   22.6592 C   0  0  2  0  0  0  0  0  0  0  0  0
  -31.0007  -21.8911   20.7769 C   0  0  2  0  0  0  0  0  0  0  0  0
  -23.3614  -33.7601   22.7239 C   0  0  0  0  0  0  0  0  0  0  0  0
  -25.8006  -11.5480   20.2589 N   0  0  0  0  0  0  0  0  0  0  0  0
  -31.8303  -21.4331   23.0496 N   0  0  0  0  0  0  0  0  0  0  0  0
  -26.2383  -12.8179   20.2174 N   0  0  0  0  0  0  0  0  0  0  0  0
  -24.6023  -32.0437   19.8293 N   0  0  0  0  0  0  0  0  0  0  0  0
  -30.0124  -13.4000   20.2354 N   0  0  0  0  0  0  0  0  0  0  0  0
  -25.6125  -15.0485   20.7107 N   0  0  0  0  0  0  0  0  0  0  0  0
  -21.9809  -12.6546   21.9260 N   0  0  0  0  0  0  0  0  0  0  0  0
  -30.3077  -15.3624   21.5099 N   0  0  0  0  0  0  0  0  0  0  0  0
  -26.3044  -33.9617   17.2369 N   0  0  0  0  0  0  0  0  0  0  0  0
  -22.1156  -31.6500   22.0919 N   0  0  0  0  0  0  0  0  0  0  0  0
  -20.7777  -28.3039   22.3773 N   0  3  0  0  0  0  0  0  0  0  0  0
  -22.8532  -14.7704   21.7811 O   0  0  0  0  0  0  0  0  0  0  0  0
  -26.3765  -33.8649   19.5624 O   0  0  0  0  0  0  0  0  0  0  0  0
  -30.6289  -23.6367   22.4342 O   0  0  0  0  0  0  0  0  0  0  0  0
  -22.6571  -33.3292   19.8345 O   0  0  0  0  0  0  0  0  0  0  0  0
  -23.1461  -29.7330   22.8921 O   0  0  0  0  0  0  0  0  0  0  0  0
  -31.9542  -14.6398   20.0441 O   0  0  0  0  0  0  0  0  0  0  0  0
  -21.4107   -7.1246   21.5671 O   0  0  0  0  0  0  0  0  0  0  0  0
  -29.1940  -27.9394   20.3164 O   0  0  0  0  0  0  0  0  0  1  0  0
  -23.7930   -2.7162   23.8682 F   0  0  0  0  0  0  0  0  0  0  0  0
  -20.4744   -6.0905   23.9539 F   0  0  0  0  0  0  0  0  0  0  0  0
  1  2  1  0  0  0  0
  1  6  2  0  0  0  0
  2  7  2  0  0  0  0
  3 10  2  0  0  0  0
  3 18  1  0  0  0  0
  4 11  1  0  0  0  0
  4 18  2  0  0  0  0
  5  9  2  0  0  0  0
  5 19  1  0  0  0  0
  6 21  1  0  0  0  0
  7 23  1  0  0  0  0
  8 12  2  0  0  0  0
  8 22  1  0  0  0  0
  9 26  1  0  0  0  0
 10 27  1  0  0  0  0
 11 27  2  0  0  0  0
 12 28  1  0  0  0  0
 13 14  2  0  0  0  0
 13 29  1  0  0  0  0
 14 30  1  0  0  0  0
 15 24  1  0  0  0  0
 15 28  2  0  0  0  0
 16 25  1  0  0  0  0
 16 26  2  0  0  0  0
 17 30  2  0  0  0  0
 17 31  1  0  0  0  0
 18 32  1  0  0  0  0
 19 25  2  0  0  0  0
 19 34  1  0  0  0  0
 20 32  1  0  0  0  0
 20 33  2  0  0  0  0
 20 35  1  0  0  0  0
 21 23  2  0  0  0  0
 21 41  1  0  0  0  0
 22 24  2  0  0  0  0
 22 42  1  0  0  0  0
 23 50  1  0  0  0  0
 24 43  1  0  0  0  0
 25 53  1  0  0  0  0
 26 76  1  0  0  0  0
 27 86  1  0  0  0  0
 28 87  1  0  0  0  0
 29 31  2  0  0  0  0
 29 86  1  0  0  0  0
 30 88  1  0  0  0  0
 31 89  1  0  0  0  0
 32 69  2  0  0  0  0
 33 71  1  0  0  0  0
 33 74  1  0  0  0  0
 34 67  1  0  0  0  0
 34 70  2  0  0  0  0
 35 75  1  0  0  0  0
 35 80  2  0  0  0  0
 36 51  1  0  0  0  0
 36 77  1  0  0  0  0
 36 81  2  0  0  0  0
 37 61  1  0  0  0  0
 37 67  1  0  0  0  0
 37 82  2  0  0  0  0
 38 65  1  0  0  0  0
 38 72  1  0  0  0  0
 38 83  2  0  0  0  0
 39 66  1  0  0  0  0
 39 78  1  0  0  0  0
 39 84  2  0  0  0  0
 40 73  1  0  0  0  0
 40 76  1  0  0  0  0
 40 85  2  0  0  0  0
 41 44  1  0  0  0  0
 42 51  1  0  0  0  0
 43 72  1  0  0  0  0
 44 46  1  0  0  0  0
 45 47  1  0  0  0  0
 45 48  1  0  0  0  0
 46 50  1  0  0  0  0
 47 52  1  0  0  0  0
 48 73  1  0  0  0  0
 49 52  1  0  0  0  0
 49 73  1  0  0  0  0
 50 77  1  0  0  0  0
 51 72  1  0  0  0  0
 52 71  1  0  0  0  0
 54 62  1  0  0  0  0
 55 66  1  0  0  0  0
 56 67  1  0  0  0  0
 57 68  1  0  0  0  0
 58 68  1  0  0  0  0
 59 68  1  0  0  0  0
 60 79  1  0  0  0  0
 61 63  1  0  0  0  0
 62 67  1  0  0  0  0
 63 64  1  0  0  0  0
 64 87  1  0  0  0  0
 65 68  1  0  0  0  0
 65 78  1  0  0  0  0
 66 79  1  0  0  0  0
 69 71  1  0  0  0  0
M  CHG  1  79   1
M  ISO  4  40 100  64 101  76 100  87 101
M  END
> <Batch ID>
0141

> <Smiles>
CCC(C)(C(=N)c1ccc([100NH:0][100C:0](=O)N2CCCC(n3nc(-c4ccc(Oc5ccc(F)cc5F)cc4)c(C(N)=O)c3N)C2)cc1C)C(=O)CC[101CH2:1][101O:1]c1ccc2c(c1)CN(C(=O)C(NC(=O)C(C)NC)C(C)(C)C)C(C(=O)NC1CCCc3ccccc31)C2

> <Shape>
0.294

> <Color>
0.189

> <Negative vol penalty>
0.000

$$$$

  -OEChem-04052302543D

 85 93  0     1  0  0  0  0  0999 V2000
  -18.7699  -33.3298   21.2406 C   0  0  0  0  0  0  0  0  0  0  0  0
  -20.0969  -33.1280   20.8747 C   0  0  0  0  0  0  0  0  0  0  0  0
  -25.4940  -15.8071   21.6956 C   0  0  0  0  0  0  0  0  0  0  0  0
  -24.9380  -16.8238   19.5756 C   0  0  0  0  0  0  0  0  0  0  0  0
  -18.2121  -32.5815   22.2764 C   0  0  0  0  0  0  0  0  0  0  0  0
  -20.8672  -32.1785   21.5452 C   0  0  0  0  0  0  0  0  0  0  0  0
  -25.2610  -28.6466   19.1523 C   0  0  0  0  0  0  0  0  0  0  0  0
  -24.2492  -15.1782   21.7204 C   0  0  0  0  0  0  0  0  0  0  0  0
  -23.6932  -16.1948   19.6005 C   0  0  0  0  0  0  0  0  0  0  0  0
  -26.6508  -28.7570   19.1407 C   0  0  0  0  0  0  0  0  0  0  0  0
  -21.3598  -13.0180   22.1674 C   0  0  0  0  0  0  0  0  0  0  0  0
  -21.3208  -11.6712   22.5281 C   0  0  0  0  0  0  0  0  0  0  0  0
  -29.6125  -25.7713   16.4433 C   0  0  0  0  0  0  0  0  0  0  0  0
  -29.7825  -25.2469   18.7955 C   0  0  0  0  0  0  0  0  0  0  0  0
  -26.7765  -27.2996   21.0589 C   0  0  0  0  0  0  0  0  0  0  0  0
  -28.1361  -24.1300   17.4248 C   0  0  0  0  0  0  0  0  0  0  0  0
  -22.7543  -11.1295   20.6603 C   0  0  0  0  0  0  0  0  0  0  0  0
  -25.8383  -16.6300   20.6232 C   0  0  0  0  0  0  0  0  0  0  0  0
  -30.2180  -25.9688   17.6843 C   0  0  0  0  0  0  0  0  0  0  0  0
  -28.3182  -16.7811   20.0443 C   0  0  0  0  0  0  0  0  0  0  0  0
  -18.9732  -31.6156   22.9535 C   0  0  0  0  0  0  0  0  0  0  0  0
  -24.6168  -27.8694   20.1256 C   0  0  0  0  0  0  0  0  0  0  0  0
  -20.3194  -31.4175   22.5919 C   0  0  0  0  0  0  0  0  0  0  0  0
  -25.3786  -27.1790   21.0791 C   0  0  0  0  0  0  0  0  0  0  0  0
  -28.5715  -24.8519   16.3136 C   0  0  0  0  0  0  0  0  0  0  0  0
  -28.7416  -24.3274   18.6658 C   0  0  0  0  0  0  0  0  0  0  0  0
  -23.3489  -15.3720   20.6729 C   0  0  0  0  0  0  0  0  0  0  0  0
  -27.4086  -28.0858   20.0958 C   0  0  0  0  0  0  0  0  0  0  0  0
  -22.0959  -13.4206   21.0530 C   0  0  0  0  0  0  0  0  0  0  0  0
  -22.0181  -10.7269   21.7746 C   0  0  0  0  0  0  0  0  0  0  0  0
  -22.7932  -12.4763   20.2995 C   0  0  0  0  0  0  0  0  0  0  0  0
  -27.1238  -17.2805   20.5973 C   0  0  0  0  0  0  0  0  0  0  0  0
  -29.2431  -17.7699   20.2750 C   0  0  0  0  0  0  0  0  0  0  0  0
  -31.3281  -26.9475   17.8219 C   0  0  0  0  0  0  0  0  0  0  0  0
  -28.5692  -15.5349   19.3813 C   0  0  0  0  0  0  0  0  0  0  0  0
  -22.5327  -28.4621   22.4513 C   0  0  0  0  0  0  0  0  0  0  0  0
  -22.5441  -25.2325   22.7540 C   0  0  0  0  0  0  0  0  0  0  0  0
  -24.1902  -22.2828   22.2676 C   0  0  0  0  0  0  0  0  0  0  0  0
  -28.7909  -23.6711   21.0975 C   0  0  0  0  0  0  0  0  0  0  0  0
  -18.3404  -30.8643   24.0980 C   0  0  0  0  0  0  0  0  0  0  0  0
  -23.1184  -27.7391   20.1082 C   0  0  0  0  0  0  0  0  0  0  0  0
  -24.7365  -26.3154   22.1330 C   0  0  0  0  0  0  0  0  0  0  0  0
  -19.1151  -29.6148   24.5088 C   0  0  0  0  0  0  0  0  0  0  0  0
  -30.2510  -21.3153   23.3325 C   0  0  0  0  0  0  0  0  0  0  0  0
  -20.6042  -29.9241   24.6252 C   0  0  0  0  0  0  0  0  0  0  0  0
  -29.7283  -19.9673   22.8307 C   0  0  0  0  0  0  0  0  0  0  0  0
  -29.1990  -22.4154   23.2027 C   0  0  0  0  0  0  0  0  0  0  0  0
  -28.0898  -21.2106   21.3622 C   0  0  0  0  0  0  0  0  0  0  0  0
  -21.1800  -30.3795   23.2789 C   0  0  1  0  0  0  0  0  0  0  0  0
  -22.5382  -27.3334   21.4595 C   0  0  1  0  0  0  0  0  0  0  0  0
  -29.1359  -20.0851   21.4127 C   0  0  2  0  0  0  0  0  0  0  0  0
  -23.9630  -19.8134   22.6525 C   0  0  0  0  0  0  0  0  0  0  0  0
  -23.1827  -25.6369   25.7101 C   0  0  0  0  0  0  0  0  0  0  0  0
  -23.8710  -23.2322   25.8187 C   0  0  0  0  0  0  0  0  0  0  0  0
  -21.5193  -23.8296   25.2399 C   0  0  0  0  0  0  0  0  0  0  0  0
  -31.2147  -29.6693   20.6179 C   0  0  0  0  0  0  0  0  0  0  0  0
  -31.4390  -30.0420   18.1609 C   0  0  0  0  0  0  0  0  0  0  0  0
  -24.3251  -21.7011   19.3689 C   0  0  0  0  0  0  0  0  0  0  0  0
  -31.5521  -27.6854   19.1397 C   0  0  0  0  0  0  0  0  0  0  0  0
  -29.3461  -29.0085   19.0710 C   0  0  0  0  0  0  0  0  0  1  0  0
  -23.3536  -24.2359   23.5481 C   0  0  1  0  0  0  0  0  0  0  0  0
  -23.7339  -20.9597   21.6797 C   0  0  2  0  0  0  0  0  0  0  0  0
  -22.9939  -24.2514   25.0607 C   0  0  0  0  0  0  0  0  0  0  0  0
  -30.8803  -29.0835   19.2276 C   0  0  0  0  0  0  0  0  0  0  0  0
  -27.2733  -18.4923   21.1386 N   0  0  0  0  0  0  0  0  0  0  0  0
  -32.0998  -27.1817   16.8073 N   0  0  0  0  0  0  0  0  0  0  0  0
  -28.5726  -18.7627   20.9270 N   0  0  0  0  0  0  0  0  0  0  0  0
  -23.2681  -26.2249   22.0782 N   0  0  0  0  0  0  0  0  0  0  0  0
  -28.6862  -22.4710   21.8320 N   0  0  0  0  0  0  0  0  0  0  0  0
  -27.9588  -24.6523   15.0590 N   0  0  0  0  0  0  0  0  0  0  0  0
  -30.5563  -17.8784   19.9817 N   0  0  0  0  0  0  0  0  0  0  0  0
  -27.5068  -14.6335   19.2285 N   0  0  0  0  0  0  0  0  0  0  0  0
  -28.2989  -23.5947   19.7949 N   0  0  0  0  0  0  0  0  0  0  0  0
  -21.3928  -29.2422   22.4096 N   0  0  0  0  0  0  0  0  0  0  0  0
  -23.1585  -22.9432   22.9007 N   0  0  0  0  0  0  0  0  0  0  0  0
  -24.4801  -20.6662   20.4235 N   0  3  0  0  0  0  0  0  0  0  0  0
  -29.7057  -15.2226   18.9520 O   0  0  0  0  0  0  0  0  0  0  0  0
  -23.4909  -28.6132   23.2001 O   0  0  0  0  0  0  0  0  0  0  0  0
  -21.3151  -25.1297   22.7282 O   0  0  0  0  0  0  0  0  0  0  0  0
  -25.3470  -22.6880   22.1777 O   0  0  0  0  0  0  0  0  0  0  0  0
  -29.3057  -24.6837   21.5788 O   0  0  0  0  0  0  0  0  0  0  0  0
  -22.1343  -14.7582   20.6967 O   0  0  0  0  0  0  0  0  0  0  0  0
  -28.7652  -28.1923   20.0872 O   0  0  0  0  0  0  0  0  0  1  0  0
  -21.9819   -9.4338   22.1220 F   0  0  0  0  0  0  0  0  0  0  0  0
  -23.5032  -12.8572   19.2287 F   0  0  0  0  0  0  0  0  0  0  0  0
  1  2  1  0  0  0  0
  1  5  2  0  0  0  0
  2  6  2  0  0  0  0
  3  8  2  0  0  0  0
  3 18  1  0  0  0  0
  4  9  1  0  0  0  0
  4 18  2  0  0  0  0
  5 21  1  0  0  0  0
  6 23  1  0  0  0  0
  7 10  2  0  0  0  0
  7 22  1  0  0  0  0
  8 27  1  0  0  0  0
  9 27  2  0  0  0  0
 10 28  1  0  0  0  0
 11 12  2  0  0  0  0
 11 29  1  0  0  0  0
 12 30  1  0  0  0  0
 13 19  1  0  0  0  0
 13 25  2  0  0  0  0
 14 19  2  0  0  0  0
 14 26  1  0  0  0  0
 15 24  1  0  0  0  0
 15 28  2  0  0  0  0
 16 25  1  0  0  0  0
 16 26  2  0  0  0  0
 17 30  2  0  0  0  0
 17 31  1  0  0  0  0
 18 32  1  0  0  0  0
 19 34  1  0  0  0  0
 20 32  1  0  0  0  0
 20 33  2  0  0  0  0
 20 35  1  0  0  0  0
 21 23  2  0  0  0  0
 21 40  1  0  0  0  0
 22 24  2  0  0  0  0
 22 41  1  0  0  0  0
 23 49  1  0  0  0  0
 24 42  1  0  0  0  0
 25 70  1  0  0  0  0
 26 73  1  0  0  0  0
 27 82  1  0  0  0  0
 28 83  1  0  0  0  0
 29 31  2  0  0  0  0
 29 82  1  0  0  0  0
 30 84  1  0  0  0  0
 31 85  1  0  0  0  0
 32 65  2  0  0  0  0
 33 67  1  0  0  0  0
 33 71  1  0  0  0  0
 34 59  1  0  0  0  0
 34 66  2  0  0  0  0
 35 72  1  0  0  0  0
 35 77  2  0  0  0  0
 36 50  1  0  0  0  0
 36 74  1  0  0  0  0
 36 78  2  0  0  0  0
 37 61  1  0  0  0  0
 37 68  1  0  0  0  0
 37 79  2  0  0  0  0
 38 62  1  0  0  0  0
 38 75  1  0  0  0  0
 38 80  2  0  0  0  0
 39 69  1  0  0  0  0
 39 73  1  0  0  0  0
 39 81  2  0  0  0  0
 40 43  1  0  0  0  0
 41 50  1  0  0  0  0
 42 68  1  0  0  0  0
 43 45  1  0  0  0  0
 44 46  1  0  0  0  0
 44 47  1  0  0  0  0
 45 49  1  0  0  0  0
 46 51  1  0  0  0  0
 47 69  1  0  0  0  0
 48 51  1  0  0  0  0
 48 69  1  0  0  0  0
 49 74  1  0  0  0  0
 50 68  1  0  0  0  0
 51 67  1  0  0  0  0
 52 62  1  0  0  0  0
 53 63  1  0  0  0  0
 54 63  1  0  0  0  0
 55 63  1  0  0  0  0
 56 64  1  0  0  0  0
 57 64  1  0  0  0  0
 58 76  1  0  0  0  0
 59 64  1  0  0  0  0
 60 64  1  0  0  0  0
 60 83  1  0  0  0  0
 61 63  1  0  0  0  0
 61 75  1  0  0  0  0
 62 76  1  0  0  0  0
 65 67  1  0  0  0  0
M  CHG  1  76   1
M  ISO  4  39 100  60 101  73 100  83 101
M  END
> <Batch ID>
0141

> <Smiles>
CNC(C)C(=O)NC(C(=O)N1Cc2cc([101O:1][101CH2:1]C(C)(C)CC(=N)c3cc(N)cc([100NH:0][100C:0](=O)N4CCCC(n5nc(-c6ccc(Oc7ccc(F)cc7F)cc6)c(C(N)=O)c5N)C4)c3)ccc2CC1C(=O)NC1CCCc2ccccc21)C(C)(C)C

> <Shape>
0.204

> <Color>
0.089

> <Negative vol penalty>
0.000

$$$$

  -OEChem-04052302543D

 86 95  0     1  0  0  0  0  0999 V2000
  -27.4207  -34.8901   19.5377 C   0  0  0  0  0  0  0  0  0  0  0  0
  -28.5180  -34.3686   20.2154 C   0  0  0  0  0  0  0  0  0  0  0  0
  -23.0775   -9.8579   19.9402 C   0  0  0  0  0  0  0  0  0  0  0  0
  -23.8363   -9.8661   22.2339 C   0  0  0  0  0  0  0  0  0  0  0  0
  -32.6359  -17.5015   23.4591 C   0  0  0  0  0  0  0  0  0  0  0  0
  -30.4497  -18.3453   24.0470 C   0  0  0  0  0  0  0  0  0  0  0  0
  -26.4345  -34.0350   19.0477 C   0  0  0  0  0  0  0  0  0  0  0  0
  -28.6292  -32.9915   20.4045 C   0  0  0  0  0  0  0  0  0  0  0  0
  -33.5423  -27.7993   20.8727 C   0  0  0  0  0  0  0  0  0  0  0  0
  -32.0508  -16.6162   22.5539 C   0  0  0  0  0  0  0  0  0  0  0  0
  -29.8646  -17.4600   23.1417 C   0  0  0  0  0  0  0  0  0  0  0  0
  -22.3357   -8.7034   20.1896 C   0  0  0  0  0  0  0  0  0  0  0  0
  -23.0945   -8.7115   22.4834 C   0  0  0  0  0  0  0  0  0  0  0  0
  -33.9253  -26.7511   21.7083 C   0  0  0  0  0  0  0  0  0  0  0  0
  -19.8675   -7.9076   23.0843 C   0  0  0  0  0  0  0  0  0  0  0  0
  -19.1101   -7.8661   24.2549 C   0  0  0  0  0  0  0  0  0  0  0  0
  -32.2006  -25.3640   20.7489 C   0  0  0  0  0  0  0  0  0  0  0  0
  -20.3548   -5.9309   24.9916 C   0  0  0  0  0  0  0  0  0  0  0  0
  -23.8279  -10.4393   20.9623 C   0  0  0  0  0  0  0  0  0  0  0  0
  -31.8353  -18.3660   24.2057 C   0  0  0  0  0  0  0  0  0  0  0  0
  -24.1651  -12.9651   20.8427 C   0  0  0  0  0  0  0  0  0  0  0  0
  -26.5385  -32.6460   19.2224 C   0  0  0  0  0  0  0  0  0  0  0  0
  -32.4767  -27.6410   19.9750 C   0  0  0  0  0  0  0  0  0  0  0  0
  -27.6428  -32.1171   19.9176 C   0  0  0  0  0  0  0  0  0  0  0  0
  -31.8076  -26.4109   19.9011 C   0  0  0  0  0  0  0  0  0  0  0  0
  -30.6651  -16.5955   22.3952 C   0  0  0  0  0  0  0  0  0  0  0  0
  -22.3441   -8.1301   21.4612 C   0  0  0  0  0  0  0  0  0  0  0  0
  -33.2526  -25.5341   21.6486 C   0  0  0  0  0  0  0  0  0  0  0  0
  -20.8686   -6.9606   22.8674 C   0  0  0  0  0  0  0  0  0  0  0  0
  -19.3538   -6.8777   25.2085 C   0  0  0  0  0  0  0  0  0  0  0  0
  -21.1122   -5.9723   23.8211 C   0  0  0  0  0  0  0  0  0  0  0  0
  -24.5949  -11.6316   20.7050 C   0  0  0  0  0  0  0  0  0  0  0  0
  -25.2560  -13.7166   20.4800 C   0  0  0  0  0  0  0  0  0  0  0  0
  -32.4534  -19.3015   25.1624 C   0  0  0  0  0  0  0  0  0  0  0  0
  -22.8934  -13.4785   21.2611 C   0  0  0  0  0  0  0  0  0  0  0  0
  -29.6416  -29.0264   19.5922 C   0  0  0  0  0  0  0  0  0  0  0  0
  -29.5392  -27.1882   16.9214 C   0  0  0  0  0  0  0  0  0  0  0  0
  -30.6235  -24.3991   15.2807 C   0  0  0  0  0  0  0  0  0  0  0  0
  -30.7201  -14.7724   20.6574 C   0  0  0  0  0  0  0  0  0  0  0  0
  -25.4238  -31.7652   18.7163 C   0  0  0  0  0  0  0  0  0  0  0  0
  -32.0931  -28.7728   19.0616 C   0  0  0  0  0  0  0  0  0  0  0  0
  -30.6702  -26.1833   18.9405 C   0  0  0  0  0  0  0  0  0  0  0  0
  -25.8044  -30.2893   18.6313 C   0  0  0  0  0  0  0  0  0  0  0  0
  -29.6113  -12.3568   18.2883 C   0  0  0  0  0  0  0  0  0  0  0  0
  -26.5093  -29.8453   19.9091 C   0  0  0  0  0  0  0  0  0  0  0  0
  -28.1720  -12.0625   18.7172 C   0  0  0  0  0  0  0  0  0  0  0  0
  -33.3837  -22.7726   24.7833 C   0  0  0  0  0  0  0  0  0  0  0  0
  -30.5254  -12.5872   19.4904 C   0  0  0  0  0  0  0  0  0  0  0  0
  -33.4311  -21.5071   25.6331 C   0  0  0  0  0  0  0  0  0  0  0  0
  -28.6165  -13.3079   20.8709 C   0  0  0  0  0  0  0  0  0  0  0  0
  -32.6228  -20.9825   23.3713 C   0  0  0  0  0  0  0  0  0  0  0  0
  -27.8114  -30.6270   20.1210 C   0  0  1  0  0  0  0  0  0  0  0  0
  -30.6605  -28.6669   18.5480 C   0  0  1  0  0  0  0  0  0  0  0  0
  -27.6445  -13.1330   19.6926 C   0  0  2  0  0  0  0  0  0  0  0  0
  -33.4682  -22.2687   23.3301 C   0  0  2  0  0  0  0  0  0  0  0  0
  -34.9208  -21.9506   22.9410 C   0  0  0  0  0  0  0  0  0  0  0  0
  -30.3337  -23.1424   13.1280 C   0  0  0  0  0  0  0  0  0  0  0  0
  -26.8503  -26.1317   17.9031 C   0  0  0  0  0  0  0  0  0  0  0  0
  -27.0712  -24.2496   16.2668 C   0  0  0  0  0  0  0  0  0  0  0  0
  -26.9529  -26.6034   15.4492 C   0  0  0  0  0  0  0  0  0  0  0  0
  -33.4780  -24.7262   14.5707 C   0  0  0  0  0  0  0  0  0  0  0  0
  -32.8911  -23.2905   22.3494 C   0  0  0  0  0  0  0  0  0  1  0  0
  -29.0539  -25.7952   16.6003 C   0  0  1  0  0  0  0  0  0  0  0  0
  -31.1400  -24.1988   13.8674 C   0  0  2  0  0  0  0  0  0  0  0  0
  -27.5022  -25.6996   16.5744 C   0  0  0  0  0  0  0  0  0  0  0  0
  -25.8601  -11.5382   20.2873 N   0  0  0  0  0  0  0  0  0  0  0  0
  -26.2347  -12.8225   20.1593 N   0  0  0  0  0  0  0  0  0  0  0  0
  -32.8086  -20.5062   24.7544 N   0  0  0  0  0  0  0  0  0  0  0  0
  -30.3284  -27.3223   18.0725 N   0  0  0  0  0  0  0  0  0  0  0  0
  -29.9641  -13.6169   20.3676 N   0  0  0  0  0  0  0  0  0  0  0  0
  -25.4639  -15.0485   20.4073 N   0  0  0  0  0  0  0  0  0  0  0  0
  -21.8830  -12.5673   21.5978 N   0  0  0  0  0  0  0  0  0  0  0  0
  -30.0706  -15.6962   21.4756 N   0  0  0  0  0  0  0  0  0  0  0  0
  -28.8552  -30.1131   19.2602 N   0  0  0  0  0  0  0  0  0  0  0  0
  -29.6968  -25.4180   15.3462 N   0  0  0  0  0  0  0  0  0  0  0  0
  -32.6421  -18.9183   26.4217 N   0  3  0  0  0  0  0  0  0  0  0  0
  -32.5666  -23.7683   13.8933 N   0  3  0  0  0  0  0  0  0  0  0  0
  -22.6548  -14.7086   21.3185 O   0  0  0  0  0  0  0  0  0  0  0  0
  -29.5729  -28.3659   20.6220 O   0  0  0  0  0  0  0  0  0  0  0  0
  -29.2355  -28.1216   16.1744 O   0  0  0  0  0  0  0  0  0  0  0  0
  -31.0014  -23.7172   16.2309 O   0  0  0  0  0  0  0  0  0  0  0  0
  -31.8491  -14.9433   20.1903 O   0  0  0  0  0  0  0  0  0  0  0  0
  -21.6202   -7.0037   21.7051 O   0  0  0  0  0  0  0  0  0  0  0  0
  -33.6240  -24.5096   22.4635 O   0  0  0  0  0  0  0  0  0  1  0  0
  -18.6274   -6.8390   26.3333 F   0  0  0  0  0  0  0  0  0  0  0  0
  -22.0733   -5.0607   23.6188 F   0  0  0  0  0  0  0  0  0  0  0  0
  1  2  1  0  0  0  0
  1  7  2  0  0  0  0
  2  8  2  0  0  0  0
  3 12  2  0  0  0  0
  3 19  1  0  0  0  0
  4 13  1  0  0  0  0
  4 19  2  0  0  0  0
  5 10  2  0  0  0  0
  5 20  1  0  0  0  0
  6 11  1  0  0  0  0
  6 20  2  0  0  0  0
  7 22  1  0  0  0  0
  8 24  1  0  0  0  0
  9 14  2  0  0  0  0
  9 23  1  0  0  0  0
 10 26  1  0  0  0  0
 11 26  2  0  0  0  0
 12 27  1  0  0  0  0
 13 27  2  0  0  0  0
 14 28  1  0  0  0  0
 15 16  2  0  0  0  0
 15 29  1  0  0  0  0
 16 30  1  0  0  0  0
 17 25  1  0  0  0  0
 17 28  2  0  0  0  0
 18 30  2  0  0  0  0
 18 31  1  0  0  0  0
 19 32  1  0  0  0  0
 20 34  1  0  0  0  0
 21 32  1  0  0  0  0
 21 33  2  0  0  0  0
 21 35  1  0  0  0  0
 22 24  2  0  0  0  0
 22 40  1  0  0  0  0
 23 25  2  0  0  0  0
 23 41  1  0  0  0  0
 24 52  1  0  0  0  0
 25 42  1  0  0  0  0
 26 73  1  0  0  0  0
 27 83  1  0  0  0  0
 28 84  1  0  0  0  0
 29 31  2  0  0  0  0
 29 83  1  0  0  0  0
 30 85  1  0  0  0  0
 31 86  1  0  0  0  0
 32 66  2  0  0  0  0
 33 67  1  0  0  0  0
 33 71  1  0  0  0  0
 34 68  1  0  0  0  0
 34 76  2  0  0  0  0
 35 72  1  0  0  0  0
 35 78  2  0  0  0  0
 36 53  1  0  0  0  0
 36 74  1  0  0  0  0
 36 79  2  0  0  0  0
 37 63  1  0  0  0  0
 37 69  1  0  0  0  0
 37 80  2  0  0  0  0
 38 64  1  0  0  0  0
 38 75  1  0  0  0  0
 38 81  2  0  0  0  0
 39 70  1  0  0  0  0
 39 73  1  0  0  0  0
 39 82  2  0  0  0  0
 40 43  1  0  0  0  0
 41 53  1  0  0  0  0
 42 69  1  0  0  0  0
 43 45  1  0  0  0  0
 44 46  1  0  0  0  0
 44 48  1  0  0  0  0
 45 52  1  0  0  0  0
 46 54  1  0  0  0  0
 47 49  1  0  0  0  0
 47 55  1  0  0  0  0
 48 70  1  0  0  0  0
 49 68  1  0  0  0  0
 50 54  1  0  0  0  0
 50 70  1  0  0  0  0
 51 55  1  0  0  0  0
 51 68  1  0  0  0  0
 52 74  1  0  0  0  0
 53 69  1  0  0  0  0
 54 67  1  0  0  0  0
 55 56  1  0  0  0  0
 55 62  1  0  0  0  0
 57 64  1  0  0  0  0
 58 65  1  0  0  0  0
 59 65  1  0  0  0  0
 60 65  1  0  0  0  0
 61 77  1  0  0  0  0
 62 84  1  0  0  0  0
 63 65  1  0  0  0  0
 63 75  1  0  0  0  0
 64 77  1  0  0  0  0
 66 67  1  0  0  0  0
M  CHG  2  76   1  77   1
M  ISO  4  39 100  62 101  73 100  84 101
M  END
> <Batch ID>
0141

> <Smiles>
CNC(C)C(=O)NC(C(=O)N1Cc2cc([101O:1][101CH2:1]C3(C)CCN(C(=N)c4ccc([100NH:0][100C:0](=O)N5CCCC(n6nc(-c7ccc(Oc8ccc(F)cc8F)cc7)c(C(N)=O)c6N)C5)cc4)C3)ccc2CC1C(=O)NC1CCCc2ccccc21)C(C)(C)C

> <Shape>
0.216

> <Color>
0.188

> <Negative vol penalty>
0.000

$$$$

  -OEChem-04052302543D

 85 94  0     1  0  0  0  0  0999 V2000
  -16.6586  -29.5353   24.1120 C   0  0  0  0  0  0  0  0  0  0  0  0
  -16.8551  -28.5979   23.1042 C   0  0  0  0  0  0  0  0  0  0  0  0
  -24.2925  -14.4758   20.4163 C   0  0  0  0  0  0  0  0  0  0  0  0
  -26.1965  -14.5571   21.9013 C   0  0  0  0  0  0  0  0  0  0  0  0
  -17.7020  -30.3794   24.4865 C   0  0  0  0  0  0  0  0  0  0  0  0
  -18.0983  -28.4960   22.4790 C   0  0  0  0  0  0  0  0  0  0  0  0
  -25.0691  -26.0479   18.6297 C   0  0  0  0  0  0  0  0  0  0  0  0
  -24.4642  -13.0992   20.2715 C   0  0  0  0  0  0  0  0  0  0  0  0
  -26.3682  -13.1804   21.7566 C   0  0  0  0  0  0  0  0  0  0  0  0
  -26.4174  -26.3870   18.7334 C   0  0  0  0  0  0  0  0  0  0  0  0
  -23.7716  -10.3027   22.0415 C   0  0  0  0  0  0  0  0  0  0  0  0
  -22.6367   -9.4959   22.1223 C   0  0  0  0  0  0  0  0  0  0  0  0
  -26.2011  -26.4889   21.1338 C   0  0  0  0  0  0  0  0  0  0  0  0
  -31.7088  -23.4820   23.1899 C   0  0  0  0  0  0  0  0  0  0  0  0
  -30.2882  -23.3800   21.2385 C   0  0  0  0  0  0  0  0  0  0  0  0
  -30.8614  -21.3536   22.4226 C   0  0  0  0  0  0  0  0  0  0  0  0
  -23.0443   -8.6976   19.8787 C   0  0  0  0  0  0  0  0  0  0  0  0
  -25.1587  -15.2048   21.2312 C   0  0  0  0  0  0  0  0  0  0  0  0
  -24.2010  -17.2898   22.3462 C   0  0  0  0  0  0  0  0  0  0  0  0
  -18.9545  -30.2956   23.8564 C   0  0  0  0  0  0  0  0  0  0  0  0
  -24.2726  -25.9373   19.7786 C   0  0  0  0  0  0  0  0  0  0  0  0
  -19.1709  -29.3227   22.8593 C   0  0  0  0  0  0  0  0  0  0  0  0
  -24.8435  -26.1458   21.0422 C   0  0  0  0  0  0  0  0  0  0  0  0
  -31.0442  -24.1235   22.1447 C   0  0  0  0  0  0  0  0  0  0  0  0
  -31.6174  -22.0971   23.3288 C   0  0  0  0  0  0  0  0  0  0  0  0
  -30.1967  -21.9950   21.3774 C   0  0  0  0  0  0  0  0  0  0  0  0
  -25.5020  -12.4515   20.9416 C   0  0  0  0  0  0  0  0  0  0  0  0
  -26.9829  -26.6104   19.9853 C   0  0  0  0  0  0  0  0  0  0  0  0
  -24.5428  -10.3071   20.8792 C   0  0  0  0  0  0  0  0  0  0  0  0
  -22.2731   -8.6933   21.0410 C   0  0  0  0  0  0  0  0  0  0  0  0
  -24.1792   -9.5045   19.7979 C   0  0  0  0  0  0  0  0  0  0  0  0
  -24.9822  -16.6270   21.3807 C   0  0  0  0  0  0  0  0  0  0  0  0
  -24.3653  -18.6239   22.0639 C   0  0  0  0  0  0  0  0  0  0  0  0
  -31.8594  -26.4217   22.8393 C   0  0  0  0  0  0  0  0  0  0  0  0
  -23.3987  -16.7480   23.4038 C   0  0  0  0  0  0  0  0  0  0  0  0
  -21.6919  -27.4366   20.8719 C   0  0  0  0  0  0  0  0  0  0  0  0
  -21.8301  -25.1656   23.1840 C   0  0  0  0  0  0  0  0  0  0  0  0
  -24.3934  -23.5768   25.1646 C   0  0  0  0  0  0  0  0  0  0  0  0
  -28.7048  -21.7214   19.3660 C   0  0  0  0  0  0  0  0  0  0  0  0
  -20.0511  -31.2285   24.3065 C   0  0  0  0  0  0  0  0  0  0  0  0
  -22.8262  -25.5445   19.6516 C   0  0  0  0  0  0  0  0  0  0  0  0
  -24.0365  -26.0196   22.3076 C   0  0  0  0  0  0  0  0  0  0  0  0
  -31.6843  -27.8197   22.2949 C   0  0  0  0  0  0  0  0  0  0  0  0
  -21.1836  -31.3479   23.2919 C   0  0  0  0  0  0  0  0  0  0  0  0
  -31.2300  -27.5881   20.8663 C   0  0  0  0  0  0  0  0  0  0  0  0
  -25.2743  -21.5964   18.4209 C   0  0  0  0  0  0  0  0  0  0  0  0
  -21.6391  -29.9634   22.8560 C   0  0  0  0  0  0  0  0  0  0  0  0
  -24.7376  -20.3718   19.1653 C   0  0  0  0  0  0  0  0  0  0  0  0
  -26.7050  -21.3802   17.9309 C   0  0  0  0  0  0  0  0  0  0  0  0
  -27.1197  -19.7249   19.7077 C   0  0  0  0  0  0  0  0  0  0  0  0
  -20.5054  -29.2145   22.1440 C   0  0  1  0  0  0  0  0  0  0  0  0
  -21.9856  -25.9632   20.8539 C   0  0  1  0  0  0  0  0  0  0  0  0
  -25.7047  -19.9193   20.2768 C   0  0  2  0  0  0  0  0  0  0  0  0
  -30.4515  -26.2794   20.9417 C   0  0  2  0  0  0  0  0  0  0  0  0
  -24.4554  -21.3089   26.2370 C   0  0  0  0  0  0  0  0  0  0  0  0
  -20.7890  -26.6242   25.6535 C   0  0  0  0  0  0  0  0  0  0  0  0
  -22.2578  -25.1574   27.0533 C   0  0  0  0  0  0  0  0  0  0  0  0
  -20.4372  -24.1483   25.6786 C   0  0  0  0  0  0  0  0  0  0  0  0
  -26.9235  -22.8729   23.8001 C   0  0  0  0  0  0  0  0  0  0  0  0
  -28.9797  -26.5338   21.2749 C   0  0  0  0  0  0  0  0  0  1  0  0
  -22.5013  -25.0511   24.5313 C   0  0  1  0  0  0  0  0  0  0  0  0
  -24.8812  -22.1447   25.0399 C   0  0  2  0  0  0  0  0  0  0  0  0
  -21.5074  -25.2612   25.7083 C   0  0  0  0  0  0  0  0  0  0  0  0
  -25.5969  -17.4705   20.5472 N   0  0  0  0  0  0  0  0  0  0  0  0
  -25.2020  -18.6770   20.9882 N   0  0  0  0  0  0  0  0  0  0  0  0
  -31.1366  -25.5454   22.0022 N   0  0  0  0  0  0  0  0  0  0  0  0
  -22.6251  -25.6397   22.1309 N   0  0  0  0  0  0  0  0  0  0  0  0
  -27.5647  -20.9573   19.0386 N   0  0  0  0  0  0  0  0  0  0  0  0
  -32.2892  -21.4479   24.3855 N   0  0  0  0  0  0  0  0  0  0  0  0
  -23.8741  -19.7450   22.6334 N   0  0  0  0  0  0  0  0  0  0  0  0
  -23.3411  -15.3555   23.5526 N   0  0  0  0  0  0  0  0  0  0  0  0
  -29.4272  -21.2404   20.4575 N   0  0  0  0  0  0  0  0  0  0  0  0
  -20.9059  -27.8407   21.9342 N   0  0  0  0  0  0  0  0  0  0  0  0
  -23.1761  -23.7577   24.5426 N   0  0  0  0  0  0  0  0  0  0  0  0
  -26.3682  -22.1101   24.9476 N   0  3  0  0  0  0  0  0  0  0  0  0
  -32.5070  -26.1940   23.8509 O   0  0  0  0  0  0  0  0  0  0  0  0
  -22.7389  -17.4765   24.1832 O   0  0  0  0  0  0  0  0  0  0  0  0
  -22.1459  -28.1541   19.9883 O   0  0  0  0  0  0  0  0  0  0  0  0
  -20.6461  -24.8394   23.0685 O   0  0  0  0  0  0  0  0  0  0  0  0
  -25.0269  -24.4470   25.7578 O   0  0  0  0  0  0  0  0  0  0  0  0
  -29.0021  -22.7435   18.7423 O   0  0  0  0  0  0  0  0  0  0  0  0
  -25.6697  -11.1081   20.8008 O   0  0  0  0  0  0  0  0  0  0  0  0
  -28.2986  -26.9421   20.0893 O   0  0  0  0  0  0  0  0  0  1  0  0
  -21.1841   -7.9173   21.1194 F   0  0  0  0  0  0  0  0  0  0  0  0
  -24.9169   -9.5036   18.6791 F   0  0  0  0  0  0  0  0  0  0  0  0
  1  2  1  0  0  0  0
  1  5  2  0  0  0  0
  2  6  2  0  0  0  0
  3  8  2  0  0  0  0
  3 18  1  0  0  0  0
  4  9  1  0  0  0  0
  4 18  2  0  0  0  0
  5 20  1  0  0  0  0
  6 22  1  0  0  0  0
  7 10  2  0  0  0  0
  7 21  1  0  0  0  0
  8 27  1  0  0  0  0
  9 27  2  0  0  0  0
 10 28  1  0  0  0  0
 11 12  2  0  0  0  0
 11 29  1  0  0  0  0
 12 30  1  0  0  0  0
 13 23  1  0  0  0  0
 13 28  2  0  0  0  0
 14 24  1  0  0  0  0
 14 25  2  0  0  0  0
 15 24  2  0  0  0  0
 15 26  1  0  0  0  0
 16 25  1  0  0  0  0
 16 26  2  0  0  0  0
 17 30  2  0  0  0  0
 17 31  1  0  0  0  0
 18 32  1  0  0  0  0
 19 32  1  0  0  0  0
 19 33  2  0  0  0  0
 19 35  1  0  0  0  0
 20 22  2  0  0  0  0
 20 40  1  0  0  0  0
 21 23  2  0  0  0  0
 21 41  1  0  0  0  0
 22 51  1  0  0  0  0
 23 42  1  0  0  0  0
 24 66  1  0  0  0  0
 25 69  1  0  0  0  0
 26 72  1  0  0  0  0
 27 82  1  0  0  0  0
 28 83  1  0  0  0  0
 29 31  2  0  0  0  0
 29 82  1  0  0  0  0
 30 84  1  0  0  0  0
 31 85  1  0  0  0  0
 32 64  2  0  0  0  0
 33 65  1  0  0  0  0
 33 70  1  0  0  0  0
 34 43  1  0  0  0  0
 34 66  1  0  0  0  0
 34 76  2  0  0  0  0
 35 71  1  0  0  0  0
 35 77  2  0  0  0  0
 36 52  1  0  0  0  0
 36 73  1  0  0  0  0
 36 78  2  0  0  0  0
 37 61  1  0  0  0  0
 37 67  1  0  0  0  0
 37 79  2  0  0  0  0
 38 62  1  0  0  0  0
 38 74  1  0  0  0  0
 38 80  2  0  0  0  0
 39 68  1  0  0  0  0
 39 72  1  0  0  0  0
 39 81  2  0  0  0  0
 40 44  1  0  0  0  0
 41 52  1  0  0  0  0
 42 67  1  0  0  0  0
 43 45  1  0  0  0  0
 44 47  1  0  0  0  0
 45 54  1  0  0  0  0
 46 48  1  0  0  0  0
 46 49  1  0  0  0  0
 47 51  1  0  0  0  0
 48 53  1  0  0  0  0
 49 68  1  0  0  0  0
 50 53  1  0  0  0  0
 50 68  1  0  0  0  0
 51 73  1  0  0  0  0
 52 67  1  0  0  0  0
 53 65  1  0  0  0  0
 54 60  1  0  0  0  0
 54 66  1  0  0  0  0
 55 62  1  0  0  0  0
 56 63  1  0  0  0  0
 57 63  1  0  0  0  0
 58 63  1  0  0  0  0
 59 75  1  0  0  0  0
 60 83  1  0  0  0  0
 61 63  1  0  0  0  0
 61 74  1  0  0  0  0
 62 75  1  0  0  0  0
 64 65  1  0  0  0  0
M  CHG  1  75   1
M  ISO  4  39 100  60 101  72 100  83 101
M  END
> <Batch ID>
0141

> <Smiles>
CNC(C)C(=O)NC(C(=O)N1Cc2cc([101O:1][101CH2:1]C3CCC(=O)N3c3cc(N)cc([100NH:0][100C:0](=O)N4CCCC(n5nc(-c6ccc(Oc7ccc(F)cc7F)cc6)c(C(N)=O)c5N)C4)c3)ccc2CC1C(=O)NC1CCCc2ccccc21)C(C)(C)C

> <Shape>
0.193

> <Color>
0.087

> <Negative vol penalty>
0.000

$$$$

  -OEChem-04052302543D

 92100  0     1  0  0  0  0  0999 V2000
  -17.6622  -23.7621   21.5622 C   0  0  0  0  0  0  0  0  0  0  0  0
  -18.6986  -23.8604   20.6394 C   0  0  0  0  0  0  0  0  0  0  0  0
  -26.6169  -13.0459   20.8017 C   0  0  0  0  0  0  0  0  0  0  0  0
  -25.4886  -14.2194   19.0166 C   0  0  0  0  0  0  0  0  0  0  0  0
  -17.4987  -24.7496   22.5329 C   0  0  0  0  0  0  0  0  0  0  0  0
  -19.5715  -24.9468   20.6860 C   0  0  0  0  0  0  0  0  0  0  0  0
  -26.4095  -26.6724   19.4289 C   0  0  0  0  0  0  0  0  0  0  0  0
  -25.8591  -11.9064   20.5318 C   0  0  0  0  0  0  0  0  0  0  0  0
  -24.7307  -13.0799   18.7466 C   0  0  0  0  0  0  0  0  0  0  0  0
  -27.1739  -27.6017   18.7248 C   0  0  0  0  0  0  0  0  0  0  0  0
  -22.7339  -10.7861   21.1663 C   0  0  0  0  0  0  0  0  0  0  0  0
  -22.1800  -10.1052   22.2503 C   0  0  0  0  0  0  0  0  0  0  0  0
  -26.8427  -29.2065   20.4952 C   0  0  0  0  0  0  0  0  0  0  0  0
  -29.5019  -23.1930   19.2034 C   0  0  0  0  0  0  0  0  0  0  0  0
  -23.4117   -8.1205   21.6333 C   0  0  0  0  0  0  0  0  0  0  0  0
  -29.4748  -25.4885   20.6783 C   0  0  0  0  0  0  0  0  0  0  0  0
  -26.4316  -14.2024   20.0442 C   0  0  0  0  0  0  0  0  0  0  0  0
  -28.4584  -15.7259   19.7634 C   0  0  0  0  0  0  0  0  0  0  0  0
  -18.3758  -25.8437   22.5974 C   0  0  0  0  0  0  0  0  0  0  0  0
  -25.8460  -27.0073   20.6686 C   0  0  0  0  0  0  0  0  0  0  0  0
  -19.4187  -25.9506   21.6575 C   0  0  0  0  0  0  0  0  0  0  0  0
  -26.0737  -28.2787   21.2142 C   0  0  0  0  0  0  0  0  0  0  0  0
  -30.1928  -24.3081   18.7424 C   0  0  0  0  0  0  0  0  0  0  0  0
  -24.9160  -11.9234   19.5042 C   0  0  0  0  0  0  0  0  0  0  0  0
  -27.3882  -28.8699   19.2565 C   0  0  0  0  0  0  0  0  0  0  0  0
  -23.6267  -10.1341   20.3157 C   0  0  0  0  0  0  0  0  0  0  0  0
  -30.1840  -25.4817   19.4880 C   0  0  0  0  0  0  0  0  0  0  0  0
  -22.5189   -8.7725   22.4839 C   0  0  0  0  0  0  0  0  0  0  0  0
  -23.9656   -8.8013   20.5492 C   0  0  0  0  0  0  0  0  0  0  0  0
  -27.2138  -15.3799   20.3229 C   0  0  0  0  0  0  0  0  0  0  0  0
  -28.8234  -23.3022   20.4065 C   0  0  0  0  0  0  0  0  0  0  0  0
  -28.7768  -16.9263   20.3500 C   0  0  0  0  0  0  0  0  0  0  0  0
  -29.2553  -15.0249   18.7994 C   0  0  0  0  0  0  0  0  0  0  0  0
  -22.8837  -27.2259   21.8003 C   0  0  0  0  0  0  0  0  0  0  0  0
  -24.4132  -27.7310   24.6159 C   0  0  0  0  0  0  0  0  0  0  0  0
  -27.2377  -28.7529   26.2360 C   0  0  0  0  0  0  0  0  0  0  0  0
  -31.0485  -30.0303   18.2529 C   0  0  0  0  0  0  0  0  0  0  0  0
  -27.3789  -22.0435   22.0422 C   0  0  0  0  0  0  0  0  0  0  0  0
  -18.1305  -26.9105   23.6349 C   0  0  0  0  0  0  0  0  0  0  0  0
  -25.0462  -25.9846   21.4280 C   0  0  0  0  0  0  0  0  0  0  0  0
  -25.5077  -28.6811   22.5507 C   0  0  0  0  0  0  0  0  0  0  0  0
  -19.3248  -27.8366   23.8504 C   0  0  0  0  0  0  0  0  0  0  0  0
  -26.6553  -19.3496   24.2550 C   0  0  0  0  0  0  0  0  0  0  0  0
  -19.8943  -28.2938   22.5112 C   0  0  0  0  0  0  0  0  0  0  0  0
  -26.8385  -18.1051   23.3833 C   0  0  0  0  0  0  0  0  0  0  0  0
  -26.0440  -20.5079   23.4687 C   0  0  0  0  0  0  0  0  0  0  0  0
  -26.9272  -19.6071   21.3526 C   0  0  0  0  0  0  0  0  0  0  0  0
  -20.4011  -27.1012   21.6912 C   0  0  1  0  0  0  0  0  0  0  0  0
  -24.0919  -26.6059   22.4432 C   0  0  1  0  0  0  0  0  0  0  0  0
  -27.6000  -18.4342   22.0843 C   0  0  2  0  0  0  0  0  0  0  0  0
  -30.9353  -24.2289   17.4504 C   0  0  0  0  0  0  0  0  0  0  0  0
  -28.1747  -29.0899   28.5395 C   0  0  0  0  0  0  0  0  0  0  0  0
  -30.8269  -32.3096   19.3220 C   0  0  0  0  0  0  0  0  0  0  0  0
  -22.7620  -30.2797   24.9121 C   0  0  0  0  0  0  0  0  0  0  0  0
  -24.3714  -31.0344   26.6752 C   0  0  0  0  0  0  0  0  0  0  0  0
  -23.0300  -28.9595   27.0192 C   0  0  0  0  0  0  0  0  0  0  0  0
  -34.5237  -29.9447   19.2058 C   0  0  0  0  0  0  0  0  0  0  0  0
  -34.9134  -27.5162   19.6763 C   0  0  0  0  0  0  0  0  0  0  0  0
  -33.8364  -28.9500   21.3966 C   0  0  0  0  0  0  0  0  0  0  0  0
  -29.4015  -26.7884   25.7692 C   0  0  0  0  0  0  0  0  0  0  0  0
  -31.8671  -27.0996   19.9409 C   0  0  0  0  0  0  0  0  0  0  0  0
  -28.8605  -30.7358   19.3408 C   0  0  0  0  0  0  0  0  0  1  0  0
  -24.9286  -28.9454   25.3497 C   0  0  1  0  0  0  0  0  0  0  0  0
  -28.0302  -28.1283   27.3701 C   0  0  2  0  0  0  0  0  0  0  0  0
  -32.5224  -28.3296   19.2952 C   0  0  2  0  0  0  0  0  0  0  0  0
  -30.0993  -31.1960   18.5664 C   0  0  2  0  0  0  0  0  0  0  0  0
  -23.7822  -29.7981   25.9629 C   0  0  0  0  0  0  0  0  0  0  0  0
  -33.9307  -28.6919   19.8776 C   0  0  0  0  0  0  0  0  0  0  0  0
  -28.7918  -24.4253   21.1585 N   0  0  0  0  0  0  0  0  0  0  0  0
  -26.7718  -16.2871   21.1980 N   0  0  0  0  0  0  0  0  0  0  0  0
  -27.7440  -17.2149   21.1928 N   0  0  0  0  0  0  0  0  0  0  0  0
  -24.7274  -27.6482   23.2520 N   0  0  0  0  0  0  0  0  0  0  0  0
  -26.8203  -20.7652   22.2538 N   0  0  0  0  0  0  0  0  0  0  0  0
  -29.8368  -17.7525   20.2222 N   0  0  0  0  0  0  0  0  0  0  0  0
  -28.7796  -13.8052   18.2993 N   0  0  0  0  0  0  0  0  0  0  0  0
  -28.1234  -22.1603   20.8689 N   0  0  0  0  0  0  0  0  0  0  0  0
  -21.6857  -26.6562   22.1872 N   0  0  0  0  0  0  0  0  0  0  0  0
  -25.8948  -28.4531   26.3256 N   0  0  0  0  0  0  0  0  0  0  0  0
  -31.6028  -29.4401   19.3779 N   0  0  0  0  0  0  0  0  0  0  0  0
  -29.3934  -27.7493   26.9022 N   0  3  0  0  0  0  0  0  0  0  0  0
  -30.3644  -15.4591   18.4059 O   0  0  0  0  0  0  0  0  0  0  0  0
  -23.0275  -28.1536   21.0126 O   0  0  0  0  0  0  0  0  0  0  0  0
  -23.7621  -26.8834   25.2318 O   0  0  0  0  0  0  0  0  0  0  0  0
  -27.7573  -29.4412   25.3604 O   0  0  0  0  0  0  0  0  0  0  0  0
  -31.2813  -29.6727   17.0983 O   0  0  0  0  0  0  0  0  0  0  0  0
  -27.2320  -22.9588   22.8562 O   0  0  0  0  0  0  0  0  0  0  0  0
  -29.6522  -31.7307   17.3209 O   0  0  0  0  0  0  0  0  0  0  0  0
  -24.1765  -10.8116   19.2403 O   0  0  0  0  0  0  0  0  0  0  0  0
  -28.1333  -29.7791   18.5710 O   0  0  0  0  0  0  0  0  0  1  0  0
  -30.8498  -26.6028   19.0733 O   0  0  0  0  0  0  0  0  0  0  0  0
  -21.9880   -8.1193   23.5258 F   0  0  0  0  0  0  0  0  0  0  0  0
  -24.8237   -8.1700   19.7361 F   0  0  0  0  0  0  0  0  0  0  0  0
  1  2  1  0  0  0  0
  1  5  2  0  0  0  0
  2  6  2  0  0  0  0
  3  8  2  0  0  0  0
  3 17  1  0  0  0  0
  4  9  1  0  0  0  0
  4 17  2  0  0  0  0
  5 19  1  0  0  0  0
  6 21  1  0  0  0  0
  7 10  2  0  0  0  0
  7 20  1  0  0  0  0
  8 24  1  0  0  0  0
  9 24  2  0  0  0  0
 10 25  1  0  0  0  0
 11 12  2  0  0  0  0
 11 26  1  0  0  0  0
 12 28  1  0  0  0  0
 13 22  1  0  0  0  0
 13 25  2  0  0  0  0
 14 23  1  0  0  0  0
 14 31  2  0  0  0  0
 15 28  2  0  0  0  0
 15 29  1  0  0  0  0
 16 27  1  0  0  0  0
 16 69  2  0  0  0  0
 17 30  1  0  0  0  0
 18 30  1  0  0  0  0
 18 32  2  0  0  0  0
 18 33  1  0  0  0  0
 19 21  2  0  0  0  0
 19 39  1  0  0  0  0
 20 22  2  0  0  0  0
 20 40  1  0  0  0  0
 21 48  1  0  0  0  0
 22 41  1  0  0  0  0
 23 27  2  0  0  0  0
 23 51  1  0  0  0  0
 24 88  1  0  0  0  0
 25 89  1  0  0  0  0
 26 29  2  0  0  0  0
 26 88  1  0  0  0  0
 27 90  1  0  0  0  0
 28 91  1  0  0  0  0
 29 92  1  0  0  0  0
 30 70  2  0  0  0  0
 31 69  1  0  0  0  0
 31 76  1  0  0  0  0
 32 71  1  0  0  0  0
 32 74  1  0  0  0  0
 33 75  1  0  0  0  0
 33 81  2  0  0  0  0
 34 49  1  0  0  0  0
 34 77  1  0  0  0  0
 34 82  2  0  0  0  0
 35 63  1  0  0  0  0
 35 72  1  0  0  0  0
 35 83  2  0  0  0  0
 36 64  1  0  0  0  0
 36 78  1  0  0  0  0
 36 84  2  0  0  0  0
 37 66  1  0  0  0  0
 37 79  1  0  0  0  0
 37 85  2  0  0  0  0
 38 73  1  0  0  0  0
 38 76  1  0  0  0  0
 38 86  2  0  0  0  0
 39 42  1  0  0  0  0
 40 49  1  0  0  0  0
 41 72  1  0  0  0  0
 42 44  1  0  0  0  0
 43 45  1  0  0  0  0
 43 46  1  0  0  0  0
 44 48  1  0  0  0  0
 45 50  1  0  0  0  0
 46 73  1  0  0  0  0
 47 50  1  0  0  0  0
 47 73  1  0  0  0  0
 48 77  1  0  0  0  0
 49 72  1  0  0  0  0
 50 71  1  0  0  0  0
 52 64  1  0  0  0  0
 53 66  1  0  0  0  0
 54 67  1  0  0  0  0
 55 67  1  0  0  0  0
 56 67  1  0  0  0  0
 57 68  1  0  0  0  0
 58 68  1  0  0  0  0
 59 68  1  0  0  0  0
 60 80  1  0  0  0  0
 61 65  1  0  0  0  0
 61 90  1  0  0  0  0
 62 66  1  0  0  0  0
 62 89  1  0  0  0  0
 63 67  1  0  0  0  0
 63 78  1  0  0  0  0
 64 80  1  0  0  0  0
 65 68  1  0  0  0  0
 65 79  1  0  0  0  0
 66 87  1  0  0  0  0
 70 71  1  0  0  0  0
M  CHG  1  80   1
M  ISO  4  38 100  62 101  76 100  89 101
M  END
> <Batch ID>
0141

> <Smiles>
CNC(C)C(=O)NC(C(=O)N1Cc2cc([101O:1][101CH2:1]C(C)(O)C(=O)NC(COc3cnc([100NH:0][100C:0](=O)N4CCCC(n5nc(-c6ccc(Oc7ccc(F)cc7F)cc6)c(C(N)=O)c5N)C4)cc3C)C(C)(C)C)ccc2CC1C(=O)NC1CCCc2ccccc21)C(C)(C)C

> <Shape>
0.230

> <Color>
0.060

> <Negative vol penalty>
0.000

$$$$

  -OEChem-04052302543D

 88 96  0     1  0  0  0  0  0999 V2000
  -41.7538  -25.2231   28.9401 C   0  0  0  0  0  0  0  0  0  0  0  0
  -40.6310  -25.4336   28.1461 C   0  0  0  0  0  0  0  0  0  0  0  0
  -23.0016   -9.8890   19.9836 C   0  0  0  0  0  0  0  0  0  0  0  0
  -23.7255   -9.9442   22.2879 C   0  0  0  0  0  0  0  0  0  0  0  0
  -42.7029  -24.2729   28.5656 C   0  0  0  0  0  0  0  0  0  0  0  0
  -40.4573  -24.6947   26.9763 C   0  0  0  0  0  0  0  0  0  0  0  0
  -35.1578  -22.7410   24.6089 C   0  0  0  0  0  0  0  0  0  0  0  0
  -22.2353   -8.7547   20.2515 C   0  0  0  0  0  0  0  0  0  0  0  0
  -22.9592   -8.8099   22.5559 C   0  0  0  0  0  0  0  0  0  0  0  0
  -34.3423  -23.2416   23.5949 C   0  0  0  0  0  0  0  0  0  0  0  0
  -23.2049   -5.4703   22.0899 C   0  0  0  0  0  0  0  0  0  0  0  0
  -23.7924   -4.4546   22.8441 C   0  0  0  0  0  0  0  0  0  0  0  0
  -30.2788  -19.1942   22.5519 C   0  0  0  0  0  0  0  0  0  0  0  0
  -35.3887  -21.7422   22.0214 C   0  0  0  0  0  0  0  0  0  0  0  0
  -30.8430  -19.0362   20.2080 C   0  0  0  0  0  0  0  0  0  0  0  0
  -22.0675   -4.6998   24.5179 C   0  0  0  0  0  0  0  0  0  0  0  0
  -23.7468  -10.4837   21.0018 C   0  0  0  0  0  0  0  0  0  0  0  0
  -30.0837  -17.8138   22.5980 C   0  0  0  0  0  0  0  0  0  0  0  0
  -24.1314  -12.9991   20.8217 C   0  0  0  0  0  0  0  0  0  0  0  0
  -42.5358  -23.5152   27.3957 C   0  0  0  0  0  0  0  0  0  0  0  0
  -36.1040  -21.7433   24.3340 C   0  0  0  0  0  0  0  0  0  0  0  0
  -41.4057  -23.7344   26.5850 C   0  0  0  0  0  0  0  0  0  0  0  0
  -36.2132  -21.2288   23.0342 C   0  0  0  0  0  0  0  0  0  0  0  0
  -30.6584  -19.8054   21.3569 C   0  0  0  0  0  0  0  0  0  0  0  0
  -30.2683  -17.0446   21.4492 C   0  0  0  0  0  0  0  0  0  0  0  0
  -22.2141   -8.2152   21.5376 C   0  0  0  0  0  0  0  0  0  0  0  0
  -34.4596  -22.7442   22.3003 C   0  0  0  0  0  0  0  0  0  0  0  0
  -22.0487   -6.1008   22.5497 C   0  0  0  0  0  0  0  0  0  0  0  0
  -23.2237   -4.0693   24.0581 C   0  0  0  0  0  0  0  0  0  0  0  0
  -30.6479  -17.6558   20.2542 C   0  0  0  0  0  0  0  0  0  0  0  0
  -21.4800   -5.7156   23.7637 C   0  0  0  0  0  0  0  0  0  0  0  0
  -24.5390  -11.6551   20.7256 C   0  0  0  0  0  0  0  0  0  0  0  0
  -25.2411  -13.7215   20.4566 C   0  0  0  0  0  0  0  0  0  0  0  0
  -29.6874  -17.2064   23.8625 C   0  0  0  0  0  0  0  0  0  0  0  0
  -22.8630  -13.5458   21.2065 C   0  0  0  0  0  0  0  0  0  0  0  0
  -39.2718  -21.5470   24.5079 C   0  0  0  0  0  0  0  0  0  0  0  0
  -38.7314  -18.4400   23.7482 C   0  0  0  0  0  0  0  0  0  0  0  0
  -36.6744  -16.1227   22.3179 C   0  0  0  0  0  0  0  0  0  0  0  0
  -31.2325  -21.9777   20.2131 C   0  0  0  0  0  0  0  0  0  0  0  0
  -30.7201  -14.6848   20.6919 C   0  0  0  0  0  0  0  0  0  0  0  0
  -43.6123  -22.5329   27.0071 C   0  0  0  0  0  0  0  0  0  0  0  0
  -36.9577  -21.1950   25.4444 C   0  0  0  0  0  0  0  0  0  0  0  0
  -37.1993  -20.1432   22.6912 C   0  0  0  0  0  0  0  0  0  0  0  0
  -43.1662  -21.5276   25.9485 C   0  0  0  0  0  0  0  0  0  0  0  0
  -29.6039  -12.2275   18.3696 C   0  0  0  0  0  0  0  0  0  0  0  0
  -42.4362  -22.2371   24.8125 C   0  0  0  0  0  0  0  0  0  0  0  0
  -28.1532  -11.9701   18.7834 C   0  0  0  0  0  0  0  0  0  0  0  0
  -30.5037  -12.4733   19.5795 C   0  0  0  0  0  0  0  0  0  0  0  0
  -28.5873  -13.2638   20.9106 C   0  0  0  0  0  0  0  0  0  0  0  0
  -41.1694  -22.9353   25.3219 C   0  0  1  0  0  0  0  0  0  0  0  0
  -38.2427  -20.5427   24.9438 C   0  0  1  0  0  0  0  0  0  0  0  0
  -27.6304  -13.0751   19.7222 C   0  0  2  0  0  0  0  0  0  0  0  0
  -30.1529  -17.8713   25.1234 C   0  0  0  0  0  0  0  0  0  0  0  0
  -36.5199  -13.6690   21.8154 C   0  0  0  0  0  0  0  0  0  0  0  0
  -29.9871  -24.0151   21.0228 C   0  0  0  0  0  0  0  0  0  0  0  0
  -31.8058  -24.2710   19.2954 C   0  0  0  0  0  0  0  0  0  0  0  0
  -40.7052  -18.7894   21.4477 C   0  0  0  0  0  0  0  0  0  0  0  0
  -39.8062  -16.6775   20.4477 C   0  0  0  0  0  0  0  0  0  0  0  0
  -40.9142  -16.6244   22.6820 C   0  0  0  0  0  0  0  0  0  0  0  0
  -34.2390  -15.8191   23.9719 C   0  0  0  0  0  0  0  0  0  0  0  0
  -32.3719  -23.7027   21.6848 C   0  0  0  0  0  0  0  0  0  1  0  0
  -38.6176  -17.6582   22.4618 C   0  0  1  0  0  0  0  0  0  0  0  0
  -36.1847  -14.7718   22.8075 C   0  0  2  0  0  0  0  0  0  0  0  0
  -31.3514  -23.4903   20.5413 C   0  0  0  0  0  0  0  0  0  0  0  0
  -39.9935  -17.4592   21.7655 C   0  0  0  0  0  0  0  0  0  0  0  0
  -25.8086  -11.5284   20.3303 N   0  0  0  0  0  0  0  0  0  0  0  0
  -26.2082  -12.8020   20.1747 N   0  0  0  0  0  0  0  0  0  0  0  0
  -38.0159  -19.6442   23.8100 N   0  0  0  0  0  0  0  0  0  0  0  0
  -29.9478  -13.5355   20.4206 N   0  0  0  0  0  0  0  0  0  0  0  0
  -25.4742  -15.0471   20.3524 N   0  0  0  0  0  0  0  0  0  0  0  0
  -21.8313  -12.6619   21.5510 N   0  0  0  0  0  0  0  0  0  0  0  0
  -30.8563  -21.2070   21.3095 N   0  0  0  0  0  0  0  0  0  0  0  0
  -30.0751  -15.6411   21.4755 N   0  0  0  0  0  0  0  0  0  0  0  0
  -40.1077  -21.9726   25.5226 N   0  0  0  0  0  0  0  0  0  0  0  0
  -37.9331  -16.4147   22.7990 N   0  0  0  0  0  0  0  0  0  0  0  0
  -34.7074  -14.7957   23.0022 N   0  3  0  0  0  0  0  0  0  0  0  0
  -29.0045  -16.1879   23.9697 O   0  0  0  0  0  0  0  0  0  0  0  0
  -22.6459  -14.7811   21.2280 O   0  0  0  0  0  0  0  0  0  0  0  0
  -39.3060  -21.9078   23.3373 O   0  0  0  0  0  0  0  0  0  0  0  0
  -39.4238  -17.9951   24.6670 O   0  0  0  0  0  0  0  0  0  0  0  0
  -36.0085  -16.8450   21.5794 O   0  0  0  0  0  0  0  0  0  0  0  0
  -31.4679  -21.5537   19.0830 O   0  0  0  0  0  0  0  0  0  0  0  0
  -31.8590  -14.8233   20.2383 O   0  0  0  0  0  0  0  0  0  0  0  0
  -21.4662   -7.1085   21.7994 O   0  0  0  0  0  0  0  0  0  0  0  0
  -33.6653  -23.2315   21.3086 O   0  0  0  0  0  0  0  0  0  1  0  0
  -23.7870   -3.0929   24.7815 F   0  0  0  0  0  0  0  0  0  0  0  0
  -30.8284  -16.9272   19.1432 F   0  0  0  0  0  0  0  0  0  0  0  0
  -20.3687   -6.3168   24.2101 F   0  0  0  0  0  0  0  0  0  0  0  0
  1  2  1  0  0  0  0
  1  5  2  0  0  0  0
  2  6  2  0  0  0  0
  3  8  2  0  0  0  0
  3 17  1  0  0  0  0
  4  9  1  0  0  0  0
  4 17  2  0  0  0  0
  5 20  1  0  0  0  0
  6 22  1  0  0  0  0
  7 10  2  0  0  0  0
  7 21  1  0  0  0  0
  8 26  1  0  0  0  0
  9 26  2  0  0  0  0
 10 27  1  0  0  0  0
 11 12  2  0  0  0  0
 11 28  1  0  0  0  0
 12 29  1  0  0  0  0
 13 18  1  0  0  0  0
 13 24  2  0  0  0  0
 14 23  1  0  0  0  0
 14 27  2  0  0  0  0
 15 24  1  0  0  0  0
 15 30  2  0  0  0  0
 16 29  2  0  0  0  0
 16 31  1  0  0  0  0
 17 32  1  0  0  0  0
 18 25  2  0  0  0  0
 18 34  1  0  0  0  0
 19 32  1  0  0  0  0
 19 33  2  0  0  0  0
 19 35  1  0  0  0  0
 20 22  2  0  0  0  0
 20 41  1  0  0  0  0
 21 23  2  0  0  0  0
 21 42  1  0  0  0  0
 22 50  1  0  0  0  0
 23 43  1  0  0  0  0
 24 72  1  0  0  0  0
 25 30  1  0  0  0  0
 25 73  1  0  0  0  0
 26 84  1  0  0  0  0
 27 85  1  0  0  0  0
 28 31  2  0  0  0  0
 28 84  1  0  0  0  0
 29 86  1  0  0  0  0
 30 87  1  0  0  0  0
 31 88  1  0  0  0  0
 32 66  2  0  0  0  0
 33 67  1  0  0  0  0
 33 70  1  0  0  0  0
 34 53  1  0  0  0  0
 34 77  2  0  0  0  0
 35 71  1  0  0  0  0
 35 78  2  0  0  0  0
 36 51  1  0  0  0  0
 36 74  1  0  0  0  0
 36 79  2  0  0  0  0
 37 62  1  0  0  0  0
 37 68  1  0  0  0  0
 37 80  2  0  0  0  0
 38 63  1  0  0  0  0
 38 75  1  0  0  0  0
 38 81  2  0  0  0  0
 39 64  1  0  0  0  0
 39 72  1  0  0  0  0
 39 82  2  0  0  0  0
 40 69  1  0  0  0  0
 40 73  1  0  0  0  0
 40 83  2  0  0  0  0
 41 44  1  0  0  0  0
 42 51  1  0  0  0  0
 43 68  1  0  0  0  0
 44 46  1  0  0  0  0
 45 47  1  0  0  0  0
 45 48  1  0  0  0  0
 46 50  1  0  0  0  0
 47 52  1  0  0  0  0
 48 69  1  0  0  0  0
 49 52  1  0  0  0  0
 49 69  1  0  0  0  0
 50 74  1  0  0  0  0
 51 68  1  0  0  0  0
 52 67  1  0  0  0  0
 54 63  1  0  0  0  0
 55 64  1  0  0  0  0
 56 64  1  0  0  0  0
 57 65  1  0  0  0  0
 58 65  1  0  0  0  0
 59 65  1  0  0  0  0
 60 76  1  0  0  0  0
 61 64  1  0  0  0  0
 61 85  1  0  0  0  0
 62 65  1  0  0  0  0
 62 75  1  0  0  0  0
 63 76  1  0  0  0  0
 66 67  1  0  0  0  0
M  CHG  1  76   1
M  ISO  4  40 100  61 101  73 100  85 101
M  END
> <Batch ID>
0141

> <Smiles>
CNC(C)C(=O)NC(C(=O)N1Cc2cc([101O:1][101CH2:1]C(C)(C)C(=O)Nc3cc(F)c([100NH:0][100C:0](=O)N4CCCC(n5nc(-c6ccc(Oc7ccc(F)cc7F)cc6)c(C(N)=O)c5N)C4)c(C(C)=O)c3)ccc2CC1C(=O)NC1CCCc2ccccc21)C(C)(C)C

> <Shape>
0.199

> <Color>
0.190

> <Negative vol penalty>
0.000

$$$$

  -OEChem-04052302543D

 88 96  0     1  0  0  0  0  0999 V2000
  -30.2331  -23.7996   17.0635 C   0  0  0  0  0  0  0  0  0  0  0  0
  -29.1013  -23.7336   17.8697 C   0  0  0  0  0  0  0  0  0  0  0  0
  -24.1006  -12.5093   20.5846 C   0  0  0  0  0  0  0  0  0  0  0  0
  -23.0314  -14.1674   21.9791 C   0  0  0  0  0  0  0  0  0  0  0  0
  -31.2278  -24.7379   17.3357 C   0  0  0  0  0  0  0  0  0  0  0  0
  -28.9639  -24.6054   18.9493 C   0  0  0  0  0  0  0  0  0  0  0  0
  -24.3256  -26.6163   19.2449 C   0  0  0  0  0  0  0  0  0  0  0  0
  -23.7100  -11.5089   21.4746 C   0  0  0  0  0  0  0  0  0  0  0  0
  -22.6407  -13.1670   22.8691 C   0  0  0  0  0  0  0  0  0  0  0  0
  -23.3161  -25.8134   19.7740 C   0  0  0  0  0  0  0  0  0  0  0  0
  -22.6839   -8.4745   23.1936 C   0  0  0  0  0  0  0  0  0  0  0  0
  -22.1463   -7.3041   22.6583 C   0  0  0  0  0  0  0  0  0  0  0  0
  -23.5382  -26.9420   21.8944 C   0  0  0  0  0  0  0  0  0  0  0  0
  -26.2446  -21.5656   23.0329 C   0  0  0  0  0  0  0  0  0  0  0  0
  -27.4786  -23.0092   24.5263 C   0  0  0  0  0  0  0  0  0  0  0  0
  -28.6439  -21.7550   22.8216 C   0  0  0  0  0  0  0  0  0  0  0  0
  -20.3671   -8.5854   21.6435 C   0  0  0  0  0  0  0  0  0  0  0  0
  -23.7614  -13.8386   20.8369 C   0  0  0  0  0  0  0  0  0  0  0  0
  -23.4476  -15.3473   18.8038 C   0  0  0  0  0  0  0  0  0  0  0  0
  -31.0981  -25.6280   18.4134 C   0  0  0  0  0  0  0  0  0  0  0  0
  -24.9577  -27.5823   20.0410 C   0  0  0  0  0  0  0  0  0  0  0  0
  -29.9584  -25.5556   19.2370 C   0  0  0  0  0  0  0  0  0  0  0  0
  -24.5537  -27.7576   21.3723 C   0  0  0  0  0  0  0  0  0  0  0  0
  -26.2675  -22.4648   24.0989 C   0  0  0  0  0  0  0  0  0  0  0  0
  -27.4329  -21.2106   22.3942 C   0  0  0  0  0  0  0  0  0  0  0  0
  -22.9800  -11.8377   22.6168 C   0  0  0  0  0  0  0  0  0  0  0  0
  -22.9242  -25.9742   21.0998 C   0  0  0  0  0  0  0  0  0  0  0  0
  -22.0631   -9.7005   22.9539 C   0  0  0  0  0  0  0  0  0  0  0  0
  -20.9879   -7.3595   21.8832 C   0  0  0  0  0  0  0  0  0  0  0  0
  -28.6668  -22.6543   23.8877 C   0  0  0  0  0  0  0  0  0  0  0  0
  -20.9047   -9.7559   22.1788 C   0  0  0  0  0  0  0  0  0  0  0  0
  -24.1651  -14.8726   19.9181 C   0  0  0  0  0  0  0  0  0  0  0  0
  -24.2535  -16.3207   18.2658 C   0  0  0  0  0  0  0  0  0  0  0  0
  -22.1671  -14.9445   18.3002 C   0  0  0  0  0  0  0  0  0  0  0  0
  -27.9346  -28.0618   21.0469 C   0  0  0  0  0  0  0  0  0  0  0  0
  -21.3728  -23.5528   23.3067 C   0  0  0  0  0  0  0  0  0  0  0  0
  -26.6848  -30.8233   22.2022 C   0  0  0  0  0  0  0  0  0  0  0  0
  -23.7790  -22.3835   24.4559 C   0  0  0  0  0  0  0  0  0  0  0  0
  -23.9304  -32.5356   23.2643 C   0  0  0  0  0  0  0  0  0  0  0  0
  -28.4984  -19.8394   20.5692 C   0  0  0  0  0  0  0  0  0  0  0  0
  -32.2216  -26.5935   18.6968 C   0  0  0  0  0  0  0  0  0  0  0  0
  -26.0265  -28.4585   19.4476 C   0  0  0  0  0  0  0  0  0  0  0  0
  -25.1866  -28.7942   22.2630 C   0  0  0  0  0  0  0  0  0  0  0  0
  -31.8253  -27.7307   19.6349 C   0  0  0  0  0  0  0  0  0  0  0  0
  -28.8602  -17.5636   17.8550 C   0  0  0  0  0  0  0  0  0  0  0  0
  -31.0611  -27.1882   20.8384 C   0  0  0  0  0  0  0  0  0  0  0  0
  -27.6288  -16.6623   17.9710 C   0  0  0  0  0  0  0  0  0  0  0  0
  -29.4069  -17.9562   19.2264 C   0  0  0  0  0  0  0  0  0  0  0  0
  -27.1908  -17.6466   20.2571 C   0  0  0  0  0  0  0  0  0  0  0  0
  -29.7616  -26.5006   20.4025 C   0  0  1  0  0  0  0  0  0  0  0  0
  -26.9562  -29.0606   20.4966 C   0  0  1  0  0  0  0  0  0  0  0  0
  -26.5656  -17.2777   18.9019 C   0  0  2  0  0  0  0  0  0  0  0  0
  -23.2288  -34.7624   24.1845 C   0  0  0  0  0  0  0  0  0  0  0  0
  -20.4726  -24.0592   25.6066 C   0  0  0  0  0  0  0  0  0  0  0  0
  -20.6216  -21.7014   24.8407 C   0  0  0  0  0  0  0  0  0  0  0  0
  -27.8314  -30.0571   24.9240 C   0  0  0  0  0  0  0  0  0  0  0  0
  -26.3290  -31.7703   25.9614 C   0  0  0  0  0  0  0  0  0  0  0  0
  -28.0802  -32.4736   24.3300 C   0  0  0  0  0  0  0  0  0  0  0  0
  -22.1506  -33.0581   20.9581 C   0  0  0  0  0  0  0  0  0  0  0  0
  -22.0067  -24.9038   23.0151 C   0  0  0  0  0  0  0  0  0  1  0  0
  -22.7364  -23.0008   25.3807 C   0  0  0  0  0  0  0  0  0  0  0  0
  -26.0345  -31.2425   23.4985 C   0  0  1  0  0  0  0  0  0  0  0  0
  -23.4165  -33.9242   22.9294 C   0  0  2  0  0  0  0  0  0  0  0  0
  -21.3164  -23.0755   24.7749 C   0  0  0  0  0  0  0  0  0  0  0  0
  -27.0580  -31.3649   24.6625 C   0  0  0  0  0  0  0  0  0  0  0  0
  -25.3368  -15.4932   20.0795 N   0  0  0  0  0  0  0  0  0  0  0  0
  -25.3618  -16.3678   19.0594 N   0  0  0  0  0  0  0  0  0  0  0  0
  -26.2315  -29.6222   21.6385 N   0  0  0  0  0  0  0  0  0  0  0  0
  -28.3448  -18.5358   20.0516 N   0  0  0  0  0  0  0  0  0  0  0  0
  -24.1153  -17.1323   17.1960 N   0  0  0  0  0  0  0  0  0  0  0  0
  -21.4734  -13.9297   18.9736 N   0  0  0  0  0  0  0  0  0  0  0  0
  -25.0629  -22.8249   24.7471 N   0  0  0  0  0  0  0  0  0  0  0  0
  -27.4101  -20.2969   21.3115 N   0  0  0  0  0  0  0  0  0  0  0  0
  -28.7486  -27.4859   20.0903 N   0  0  0  0  0  0  0  0  0  0  0  0
  -25.3068  -32.4737   23.2107 N   0  0  0  0  0  0  0  0  0  0  0  0
  -22.1071  -33.8357   22.2233 N   0  3  0  0  0  0  0  0  0  0  0  0
  -21.6606  -15.4574   17.2736 O   0  0  0  0  0  0  0  0  0  0  0  0
  -27.9508  -27.8319   22.2505 O   0  0  0  0  0  0  0  0  0  0  0  0
  -20.9465  -22.8514   22.3859 O   0  0  0  0  0  0  0  0  0  0  0  0
  -27.5575  -31.5389   21.7043 O   0  0  0  0  0  0  0  0  0  0  0  0
  -23.4395  -21.6012   23.5722 O   0  0  0  0  0  0  0  0  0  0  0  0
  -23.1855  -31.6004   23.5488 O   0  0  0  0  0  0  0  0  0  0  0  0
  -29.5085  -20.5115   20.3459 O   0  0  0  0  0  0  0  0  0  0  0  0
  -22.5985  -10.8617   23.4854 O   0  0  0  0  0  0  0  0  0  0  0  0
  -21.9396  -25.1914   21.6190 O   0  0  0  0  0  0  0  0  0  1  0  0
  -20.4726   -6.2356   21.3680 F   0  0  0  0  0  0  0  0  0  0  0  0
  -29.8300  -23.1763   24.2984 F   0  0  0  0  0  0  0  0  0  0  0  0
  -20.3045  -10.9308   21.9441 F   0  0  0  0  0  0  0  0  0  0  0  0
  1  2  1  0  0  0  0
  1  5  2  0  0  0  0
  2  6  2  0  0  0  0
  3  8  2  0  0  0  0
  3 18  1  0  0  0  0
  4  9  1  0  0  0  0
  4 18  2  0  0  0  0
  5 20  1  0  0  0  0
  6 22  1  0  0  0  0
  7 10  2  0  0  0  0
  7 21  1  0  0  0  0
  8 26  1  0  0  0  0
  9 26  2  0  0  0  0
 10 27  1  0  0  0  0
 11 12  2  0  0  0  0
 11 28  1  0  0  0  0
 12 29  1  0  0  0  0
 13 23  1  0  0  0  0
 13 27  2  0  0  0  0
 14 24  2  0  0  0  0
 14 25  1  0  0  0  0
 15 24  1  0  0  0  0
 15 30  2  0  0  0  0
 16 25  2  0  0  0  0
 16 30  1  0  0  0  0
 17 29  2  0  0  0  0
 17 31  1  0  0  0  0
 18 32  1  0  0  0  0
 19 32  1  0  0  0  0
 19 33  2  0  0  0  0
 19 34  1  0  0  0  0
 20 22  2  0  0  0  0
 20 41  1  0  0  0  0
 21 23  2  0  0  0  0
 21 42  1  0  0  0  0
 22 50  1  0  0  0  0
 23 43  1  0  0  0  0
 24 72  1  0  0  0  0
 25 73  1  0  0  0  0
 26 84  1  0  0  0  0
 27 85  1  0  0  0  0
 28 31  2  0  0  0  0
 28 84  1  0  0  0  0
 29 86  1  0  0  0  0
 30 87  1  0  0  0  0
 31 88  1  0  0  0  0
 32 66  2  0  0  0  0
 33 67  1  0  0  0  0
 33 70  1  0  0  0  0
 34 71  1  0  0  0  0
 34 77  2  0  0  0  0
 35 51  1  0  0  0  0
 35 74  1  0  0  0  0
 35 78  2  0  0  0  0
 36 60  1  0  0  0  0
 36 64  1  0  0  0  0
 36 79  2  0  0  0  0
 37 62  1  0  0  0  0
 37 68  1  0  0  0  0
 37 80  2  0  0  0  0
 38 61  1  0  0  0  0
 38 72  1  0  0  0  0
 38 81  2  0  0  0  0
 39 63  1  0  0  0  0
 39 75  1  0  0  0  0
 39 82  2  0  0  0  0
 40 69  1  0  0  0  0
 40 73  1  0  0  0  0
 40 83  2  0  0  0  0
 41 44  1  0  0  0  0
 42 51  1  0  0  0  0
 43 68  1  0  0  0  0
 44 46  1  0  0  0  0
 45 47  1  0  0  0  0
 45 48  1  0  0  0  0
 46 50  1  0  0  0  0
 47 52  1  0  0  0  0
 48 69  1  0  0  0  0
 49 52  1  0  0  0  0
 49 69  1  0  0  0  0
 50 74  1  0  0  0  0
 51 68  1  0  0  0  0
 52 67  1  0  0  0  0
 53 63  1  0  0  0  0
 54 64  1  0  0  0  0
 55 64  1  0  0  0  0
 56 65  1  0  0  0  0
 57 65  1  0  0  0  0
 58 65  1  0  0  0  0
 59 76  1  0  0  0  0
 60 85  1  0  0  0  0
 61 64  1  0  0  0  0
 62 65  1  0  0  0  0
 62 75  1  0  0  0  0
 63 76  1  0  0  0  0
 66 67  1  0  0  0  0
M  CHG  1  76   1
M  ISO  4  40 100  60 101  73 100  85 101
M  END
> <Batch ID>
0141

> <Smiles>
CNC(C)C(=O)NC(C(=O)N1Cc2cc([101O:1][101CH2:1]C(=O)C(C)(C)CC(=O)Nc3cc(F)cc([100NH:0][100C:0](=O)N4CCCC(n5nc(-c6ccc(Oc7ccc(F)cc7F)cc6)c(C(N)=O)c5N)C4)c3)ccc2CC1C(=O)NC1CCCc2ccccc21)C(C)(C)C

> <Shape>
0.251

> <Color>
0.061

> <Negative vol penalty>
0.000

$$$$

  -OEChem-04052302543D

 86 94  0     1  0  0  0  0  0999 V2000
  -17.0341  -30.4469   23.4490 C   0  0  0  0  0  0  0  0  0  0  0  0
  -18.3239  -30.9432   23.2890 C   0  0  0  0  0  0  0  0  0  0  0  0
  -25.4891  -18.3442   19.3166 C   0  0  0  0  0  0  0  0  0  0  0  0
  -27.7025  -17.4216   19.6107 C   0  0  0  0  0  0  0  0  0  0  0  0
  -16.8106  -29.0709   23.4305 C   0  0  0  0  0  0  0  0  0  0  0  0
  -19.3912  -30.0636   23.1115 C   0  0  0  0  0  0  0  0  0  0  0  0
  -25.7003  -29.5452   19.7586 C   0  0  0  0  0  0  0  0  0  0  0  0
  -24.9301  -17.1347   19.7293 C   0  0  0  0  0  0  0  0  0  0  0  0
  -27.1435  -16.2121   20.0235 C   0  0  0  0  0  0  0  0  0  0  0  0
  -27.0368  -29.2453   20.0187 C   0  0  0  0  0  0  0  0  0  0  0  0
  -26.2985  -12.7658   20.8100 C   0  0  0  0  0  0  0  0  0  0  0  0
  -26.8336  -11.5907   20.2823 C   0  0  0  0  0  0  0  0  0  0  0  0
  -26.5206  -26.8908   19.9246 C   0  0  0  0  0  0  0  0  0  0  0  0
  -32.6593  -26.7253   14.5493 C   0  0  0  0  0  0  0  0  0  0  0  0
  -31.8142  -28.4803   15.9785 C   0  0  0  0  0  0  0  0  0  0  0  0
  -32.3936  -26.3312   16.9180 C   0  0  0  0  0  0  0  0  0  0  0  0
  -26.2562  -12.3280   18.0552 C   0  0  0  0  0  0  0  0  0  0  0  0
  -26.8753  -18.4876   19.2573 C   0  0  0  0  0  0  0  0  0  0  0  0
  -27.8027  -20.8328   19.6417 C   0  0  0  0  0  0  0  0  0  0  0  0
  -17.8744  -28.1742   23.2431 C   0  0  0  0  0  0  0  0  0  0  0  0
  -24.7603  -28.5184   19.5901 C   0  0  0  0  0  0  0  0  0  0  0  0
  -19.1819  -28.6741   23.0919 C   0  0  0  0  0  0  0  0  0  0  0  0
  -25.1733  -27.1803   19.6599 C   0  0  0  0  0  0  0  0  0  0  0  0
  -32.1844  -28.0266   14.7125 C   0  0  0  0  0  0  0  0  0  0  0  0
  -32.7639  -25.8776   15.6520 C   0  0  0  0  0  0  0  0  0  0  0  0
  -31.9188  -27.6325   17.0813 C   0  0  0  0  0  0  0  0  0  0  0  0
  -25.7573  -16.0687   20.0828 C   0  0  0  0  0  0  0  0  0  0  0  0
  -27.4466  -27.9180   20.1046 C   0  0  0  0  0  0  0  0  0  0  0  0
  -25.7423  -13.7220   19.9603 C   0  0  0  0  0  0  0  0  0  0  0  0
  -26.8125  -11.3718   18.9049 C   0  0  0  0  0  0  0  0  0  0  0  0
  -25.7211  -13.5031   18.5829 C   0  0  0  0  0  0  0  0  0  0  0  0
  -27.4534  -19.7365   18.8305 C   0  0  0  0  0  0  0  0  0  0  0  0
  -28.3074  -21.7617   18.7648 C   0  0  0  0  0  0  0  0  0  0  0  0
  -27.6820  -20.9967   21.0609 C   0  0  0  0  0  0  0  0  0  0  0  0
  -22.1225  -27.6191   21.1189 C   0  0  0  0  0  0  0  0  0  0  0  0
  -21.8752  -25.5257   18.6534 C   0  0  0  0  0  0  0  0  0  0  0  0
  -23.4339  -23.7654   16.1798 C   0  0  0  0  0  0  0  0  0  0  0  0
  -31.5809  -27.3911   19.5682 C   0  0  0  0  0  0  0  0  0  0  0  0
  -31.5227  -23.0923   14.4017 C   0  0  0  0  0  0  0  0  0  0  0  0
  -17.5903  -26.6934   23.2777 C   0  0  0  0  0  0  0  0  0  0  0  0
  -23.3275  -28.8584   19.2836 C   0  0  0  0  0  0  0  0  0  0  0  0
  -24.2072  -26.0410   19.4666 C   0  0  0  0  0  0  0  0  0  0  0  0
  -18.7233  -25.8425   22.7098 C   0  0  0  0  0  0  0  0  0  0  0  0
  -28.2433  -21.8916   13.7086 C   0  0  0  0  0  0  0  0  0  0  0  0
  -20.0668  -26.3010   23.2681 C   0  0  0  0  0  0  0  0  0  0  0  0
  -27.7772  -21.3090   15.0440 C   0  0  0  0  0  0  0  0  0  0  0  0
  -29.7333  -21.6503   13.4769 C   0  0  0  0  0  0  0  0  0  0  0  0
  -30.1461  -21.5283   15.9036 C   0  0  0  0  0  0  0  0  0  0  0  0
  -20.3621  -27.7528   22.8722 C   0  0  1  0  0  0  0  0  0  0  0  0
  -22.3577  -27.7357   19.6394 C   0  0  1  0  0  0  0  0  0  0  0  0
  -28.6620  -21.7957   16.2074 C   0  0  2  0  0  0  0  0  0  0  0  0
  -32.0725  -28.9329   13.5333 C   0  0  0  0  0  0  0  0  0  0  0  0
  -22.9748  -22.1093   14.3512 C   0  0  0  0  0  0  0  0  0  0  0  0
  -31.9895  -29.4637   20.9447 C   0  0  0  0  0  0  0  0  0  0  0  0
  -31.1231  -27.3762   22.0622 C   0  0  0  0  0  0  0  0  0  0  0  0
  -21.6439  -23.3013   20.7291 C   0  0  0  0  0  0  0  0  0  0  0  0
  -22.1431  -21.6508   18.9140 C   0  0  0  0  0  0  0  0  0  0  0  0
  -20.0974  -23.0716   18.7773 C   0  0  0  0  0  0  0  0  0  0  0  0
  -24.3779  -25.6362   14.0899 C   0  0  0  0  0  0  0  0  0  0  0  0
  -33.2717  -24.4862   15.4773 C   0  0  0  0  0  0  0  0  0  0  0  0
  -29.6446  -28.7218   20.5272 C   0  0  0  0  0  0  0  0  0  1  0  0
  -22.3642  -24.1220   18.3895 C   0  0  1  0  0  0  0  0  0  0  0  0
  -23.1001  -23.5817   14.7104 C   0  0  2  0  0  0  0  0  0  0  0  0
  -31.0886  -28.2268   20.7802 C   0  0  0  0  0  0  0  0  0  0  0  0
  -21.5802  -23.0577   19.2081 C   0  0  0  0  0  0  0  0  0  0  0  0
  -27.7138  -19.9480   17.5377 N   0  0  0  0  0  0  0  0  0  0  0  0
  -28.2322  -21.1879   17.5298 N   0  0  0  0  0  0  0  0  0  0  0  0
  -22.8160  -26.4247   19.1753 N   0  0  0  0  0  0  0  0  0  0  0  0
  -30.5166  -22.1358   14.6157 N   0  0  0  0  0  0  0  0  0  0  0  0
  -28.8035  -23.0053   18.9374 N   0  0  0  0  0  0  0  0  0  0  0  0
  -27.1423  -19.9433   21.8116 N   0  0  0  0  0  0  0  0  0  0  0  0
  -31.5430  -28.0932   18.3669 N   0  0  0  0  0  0  0  0  0  0  0  0
  -20.8089  -27.8208   21.4973 N   0  0  0  0  0  0  0  0  0  0  0  0
  -22.2987  -23.9318   16.9446 N   0  0  0  0  0  0  0  0  0  0  0  0
  -32.2130  -23.5031   15.5355 N   0  0  0  0  0  0  0  0  0  0  0  0
  -24.1638  -24.1845   13.8583 N   0  3  0  0  0  0  0  0  0  0  0  0
  -28.0267  -22.0524   21.6440 O   0  0  0  0  0  0  0  0  0  0  0  0
  -23.0629  -27.3634   21.8619 O   0  0  0  0  0  0  0  0  0  0  0  0
  -20.7035  -25.8157   18.3988 O   0  0  0  0  0  0  0  0  0  0  0  0
  -24.5863  -23.7580   16.6071 O   0  0  0  0  0  0  0  0  0  0  0  0
  -31.9477  -26.2258   19.7086 O   0  0  0  0  0  0  0  0  0  0  0  0
  -31.7827  -23.5504   13.2839 O   0  0  0  0  0  0  0  0  0  0  0  0
  -25.2122  -14.8884   20.4858 O   0  0  0  0  0  0  0  0  0  0  0  0
  -28.7504  -27.6225   20.3590 O   0  0  0  0  0  0  0  0  0  1  0  0
  -27.3277  -10.2440   18.3981 F   0  0  0  0  0  0  0  0  0  0  0  0
  -25.1892  -14.4186   17.7615 F   0  0  0  0  0  0  0  0  0  0  0  0
  1  2  1  0  0  0  0
  1  5  2  0  0  0  0
  2  6  2  0  0  0  0
  3  8  2  0  0  0  0
  3 18  1  0  0  0  0
  4  9  1  0  0  0  0
  4 18  2  0  0  0  0
  5 20  1  0  0  0  0
  6 22  1  0  0  0  0
  7 10  2  0  0  0  0
  7 21  1  0  0  0  0
  8 27  1  0  0  0  0
  9 27  2  0  0  0  0
 10 28  1  0  0  0  0
 11 12  2  0  0  0  0
 11 29  1  0  0  0  0
 12 30  1  0  0  0  0
 13 23  1  0  0  0  0
 13 28  2  0  0  0  0
 14 24  1  0  0  0  0
 14 25  2  0  0  0  0
 15 24  2  0  0  0  0
 15 26  1  0  0  0  0
 16 25  1  0  0  0  0
 16 26  2  0  0  0  0
 17 30  2  0  0  0  0
 17 31  1  0  0  0  0
 18 32  1  0  0  0  0
 19 32  1  0  0  0  0
 19 33  2  0  0  0  0
 19 34  1  0  0  0  0
 20 22  2  0  0  0  0
 20 40  1  0  0  0  0
 21 23  2  0  0  0  0
 21 41  1  0  0  0  0
 22 49  1  0  0  0  0
 23 42  1  0  0  0  0
 24 52  1  0  0  0  0
 25 60  1  0  0  0  0
 26 72  1  0  0  0  0
 27 83  1  0  0  0  0
 28 84  1  0  0  0  0
 29 31  2  0  0  0  0
 29 83  1  0  0  0  0
 30 85  1  0  0  0  0
 31 86  1  0  0  0  0
 32 66  2  0  0  0  0
 33 67  1  0  0  0  0
 33 70  1  0  0  0  0
 34 71  1  0  0  0  0
 34 77  2  0  0  0  0
 35 50  1  0  0  0  0
 35 73  1  0  0  0  0
 35 78  2  0  0  0  0
 36 62  1  0  0  0  0
 36 68  1  0  0  0  0
 36 79  2  0  0  0  0
 37 63  1  0  0  0  0
 37 74  1  0  0  0  0
 37 80  2  0  0  0  0
 38 64  1  0  0  0  0
 38 72  1  0  0  0  0
 38 81  2  0  0  0  0
 39 69  1  0  0  0  0
 39 75  1  0  0  0  0
 39 82  2  0  0  0  0
 40 43  1  0  0  0  0
 41 50  1  0  0  0  0
 42 68  1  0  0  0  0
 43 45  1  0  0  0  0
 44 46  1  0  0  0  0
 44 47  1  0  0  0  0
 45 49  1  0  0  0  0
 46 51  1  0  0  0  0
 47 69  1  0  0  0  0
 48 51  1  0  0  0  0
 48 69  1  0  0  0  0
 49 73  1  0  0  0  0
 50 68  1  0  0  0  0
 51 67  1  0  0  0  0
 53 63  1  0  0  0  0
 54 64  1  0  0  0  0
 55 64  1  0  0  0  0
 56 65  1  0  0  0  0
 57 65  1  0  0  0  0
 58 65  1  0  0  0  0
 59 76  1  0  0  0  0
 60 75  1  0  0  0  0
 61 64  1  0  0  0  0
 61 84  1  0  0  0  0
 62 65  1  0  0  0  0
 62 74  1  0  0  0  0
 63 76  1  0  0  0  0
 66 67  1  0  0  0  0
M  CHG  1  76   1
M  ISO  4  39 100  61 101  75 100  84 101
M  END
> <Batch ID>
0141

> <Smiles>
CNC(C)C(=O)NC(C(=O)N1Cc2cc([101O:1][101CH2:1]C(C)(C)C(=O)Nc3cc(C)cc(C[100NH:0][100C:0](=O)N4CCCC(n5nc(-c6ccc(Oc7ccc(F)cc7F)cc6)c(C(N)=O)c5N)C4)c3)ccc2CC1C(=O)NC1CCCc2ccccc21)C(C)(C)C

> <Shape>
0.200

> <Color>
0.092

> <Negative vol penalty>
0.000

$$$$

  -OEChem-04052302543D

 88 96  0     1  0  0  0  0  0999 V2000
  -24.8199  -35.4230   22.0071 C   0  0  0  0  0  0  0  0  0  0  0  0
  -25.5770  -34.2593   21.9191 C   0  0  0  0  0  0  0  0  0  0  0  0
  -24.3813  -13.2110   19.8562 C   0  0  0  0  0  0  0  0  0  0  0  0
  -25.6832  -13.4777   21.8739 C   0  0  0  0  0  0  0  0  0  0  0  0
  -23.5559  -35.3882   22.5946 C   0  0  0  0  0  0  0  0  0  0  0  0
  -25.0711  -33.0601   22.4197 C   0  0  0  0  0  0  0  0  0  0  0  0
  -25.8020  -29.1727   19.2576 C   0  0  0  0  0  0  0  0  0  0  0  0
  -24.5926  -11.8330   19.9020 C   0  0  0  0  0  0  0  0  0  0  0  0
  -25.8945  -12.0997   21.9197 C   0  0  0  0  0  0  0  0  0  0  0  0
  -27.0777  -28.6115   19.2227 C   0  0  0  0  0  0  0  0  0  0  0  0
  -23.3533   -9.1777   21.5892 C   0  0  0  0  0  0  0  0  0  0  0  0
  -22.2568   -8.3459   21.3628 C   0  0  0  0  0  0  0  0  0  0  0  0
  -27.2418  -24.8832   24.6413 C   0  0  0  0  0  0  0  0  0  0  0  0
  -27.8966  -23.8594   22.5533 C   0  0  0  0  0  0  0  0  0  0  0  0
  -26.3239  -26.8238   20.6563 C   0  0  0  0  0  0  0  0  0  0  0  0
  -25.9711  -23.0299   23.7538 C   0  0  0  0  0  0  0  0  0  0  0  0
  -23.3877   -7.3721   19.4629 C   0  0  0  0  0  0  0  0  0  0  0  0
  -24.9267  -14.0334   20.8421 C   0  0  0  0  0  0  0  0  0  0  0  0
  -28.1019  -24.8184   23.5452 C   0  0  0  0  0  0  0  0  0  0  0  0
  -23.6510  -16.1752   21.3832 C   0  0  0  0  0  0  0  0  0  0  0  0
  -23.0302  -34.1861   23.0939 C   0  0  0  0  0  0  0  0  0  0  0  0
  -24.7787  -28.5685   20.0022 C   0  0  0  0  0  0  0  0  0  0  0  0
  -23.7995  -33.0095   23.0156 C   0  0  0  0  0  0  0  0  0  0  0  0
  -25.0354  -27.3779   20.6969 C   0  0  0  0  0  0  0  0  0  0  0  0
  -26.1764  -23.9889   24.7457 C   0  0  0  0  0  0  0  0  0  0  0  0
  -26.8312  -22.9652   22.6576 C   0  0  0  0  0  0  0  0  0  0  0  0
  -25.3491  -11.2774   20.9338 C   0  0  0  0  0  0  0  0  0  0  0  0
  -27.3397  -27.4384   19.9244 C   0  0  0  0  0  0  0  0  0  0  0  0
  -24.4671   -9.1068   20.7524 C   0  0  0  0  0  0  0  0  0  0  0  0
  -22.2740   -7.4431   20.2997 C   0  0  0  0  0  0  0  0  0  0  0  0
  -24.4843   -8.2040   19.6893 C   0  0  0  0  0  0  0  0  0  0  0  0
  -24.7093  -15.4570   20.7950 C   0  0  0  0  0  0  0  0  0  0  0  0
  -23.8986  -17.4848   21.0513 C   0  0  0  0  0  0  0  0  0  0  0  0
  -29.2299  -25.7661   23.4348 C   0  0  0  0  0  0  0  0  0  0  0  0
  -22.5432  -15.7010   22.1602 C   0  0  0  0  0  0  0  0  0  0  0  0
  -22.9913  -29.4439   22.4806 C   0  0  0  0  0  0  0  0  0  0  0  0
  -21.4725  -26.6419   21.8769 C   0  0  0  0  0  0  0  0  0  0  0  0
  -21.6000  -23.5091   20.5293 C   0  0  0  0  0  0  0  0  0  0  0  0
  -30.7326  -27.0104   21.8893 C   0  0  0  0  0  0  0  0  0  0  0  0
  -27.3804  -21.7943   20.4957 C   0  0  0  0  0  0  0  0  0  0  0  0
  -21.6787  -34.2073   23.7629 C   0  0  0  0  0  0  0  0  0  0  0  0
  -23.4009  -29.1720   20.0079 C   0  0  0  0  0  0  0  0  0  0  0  0
  -23.9661  -26.6790   21.4948 C   0  0  0  0  0  0  0  0  0  0  0  0
  -21.0607  -32.8217   23.9315 C   0  0  0  0  0  0  0  0  0  0  0  0
  -27.2117  -19.4865   17.7897 C   0  0  0  0  0  0  0  0  0  0  0  0
  -22.0902  -31.8419   24.4855 C   0  0  0  0  0  0  0  0  0  0  0  0
  -26.4586  -18.2915   18.3787 C   0  0  0  0  0  0  0  0  0  0  0  0
  -28.1434  -20.1309   18.8146 C   0  0  0  0  0  0  0  0  0  0  0  0
  -26.7542  -19.3060   20.6745 C   0  0  0  0  0  0  0  0  0  0  0  0
  -23.2749  -31.6844   23.5248 C   0  0  1  0  0  0  0  0  0  0  0  0
  -22.5694  -28.7512   21.2157 C   0  0  1  0  0  0  0  0  0  0  0  0
  -25.7548  -18.6638   19.6984 C   0  0  2  0  0  0  0  0  0  0  0  0
  -25.7241  -23.1823   27.0762 C   0  0  0  0  0  0  0  0  0  0  0  0
  -20.2161  -21.4381   20.2243 C   0  0  0  0  0  0  0  0  0  0  0  0
  -31.2993  -25.8777   19.7368 C   0  0  0  0  0  0  0  0  0  0  0  0
  -32.1600  -28.1785   20.2052 C   0  0  0  0  0  0  0  0  0  0  0  0
  -21.9327  -25.9065   24.8022 C   0  0  0  0  0  0  0  0  0  0  0  0
  -21.4118  -23.5293   24.2141 C   0  0  0  0  0  0  0  0  0  0  0  0
  -19.6755  -25.2953   23.9155 C   0  0  0  0  0  0  0  0  0  0  0  0
  -21.7328  -23.7146   17.5799 C   0  0  0  0  0  0  0  0  0  0  0  0
  -25.2561  -24.0588   25.9174 C   0  0  0  0  0  0  0  0  0  0  0  0
  -29.6849  -27.7827   19.7316 C   0  0  0  0  0  0  0  0  0  1  0  0
  -21.6447  -25.2128   22.3320 C   0  0  1  0  0  0  0  0  0  0  0  0
  -20.6418  -22.7655   19.6164 C   0  0  2  0  0  0  0  0  0  0  0  0
  -30.9654  -27.2317   20.3899 C   0  0  0  0  0  0  0  0  0  0  0  0
  -21.1870  -25.0000   23.8026 C   0  0  0  0  0  0  0  0  0  0  0  0
  -25.5654  -16.2449   20.1390 N   0  0  0  0  0  0  0  0  0  0  0  0
  -25.0453  -17.4718   20.3130 N   0  0  0  0  0  0  0  0  0  0  0  0
  -22.6367  -27.3115   21.4745 N   0  0  0  0  0  0  0  0  0  0  0  0
  -27.4067  -20.4603   20.0368 N   0  0  0  0  0  0  0  0  0  0  0  0
  -23.2451  -18.6347   21.3218 N   0  0  0  0  0  0  0  0  0  0  0  0
  -22.4407  -14.3253   22.4073 N   0  0  0  0  0  0  0  0  0  0  0  0
  -26.6216  -21.9924   21.6488 N   0  0  0  0  0  0  0  0  0  0  0  0
  -29.6419  -26.1140   22.2082 N   0  0  0  0  0  0  0  0  0  0  0  0
  -22.9175  -30.8224   22.4186 N   0  0  0  0  0  0  0  0  0  0  0  0
  -20.9363  -24.3868   21.3602 N   0  0  0  0  0  0  0  0  0  0  0  0
  -29.7701  -26.2223   24.5644 N   0  3  0  0  0  0  0  0  0  0  0  0
  -21.2856  -22.4946   18.2999 N   0  3  0  0  0  0  0  0  0  0  0  0
  -21.6612  -16.4726   22.6078 O   0  0  0  0  0  0  0  0  0  0  0  0
  -23.3553  -28.7770   23.4421 O   0  0  0  0  0  0  0  0  0  0  0  0
  -20.3454  -27.1432   21.8717 O   0  0  0  0  0  0  0  0  0  0  0  0
  -22.8152  -23.3267   20.5100 O   0  0  0  0  0  0  0  0  0  0  0  0
  -31.3858  -27.5382   22.7800 O   0  0  0  0  0  0  0  0  0  0  0  0
  -27.9641  -22.6992   19.8938 O   0  0  0  0  0  0  0  0  0  0  0  0
  -25.5553   -9.9327   20.9789 O   0  0  0  0  0  0  0  0  0  0  0  0
  -28.5842  -26.8889   19.8926 O   0  0  0  0  0  0  0  0  0  1  0  0
  -21.2215   -6.6433   20.0834 F   0  0  0  0  0  0  0  0  0  0  0  0
  -25.5519   -8.1304   18.8827 F   0  0  0  0  0  0  0  0  0  0  0  0
  1  2  1  0  0  0  0
  1  5  2  0  0  0  0
  2  6  2  0  0  0  0
  3  8  2  0  0  0  0
  3 18  1  0  0  0  0
  4  9  1  0  0  0  0
  4 18  2  0  0  0  0
  5 21  1  0  0  0  0
  6 23  1  0  0  0  0
  7 10  2  0  0  0  0
  7 22  1  0  0  0  0
  8 27  1  0  0  0  0
  9 27  2  0  0  0  0
 10 28  1  0  0  0  0
 11 12  2  0  0  0  0
 11 29  1  0  0  0  0
 12 30  1  0  0  0  0
 13 19  1  0  0  0  0
 13 25  2  0  0  0  0
 14 19  2  0  0  0  0
 14 26  1  0  0  0  0
 15 24  1  0  0  0  0
 15 28  2  0  0  0  0
 16 25  1  0  0  0  0
 16 26  2  0  0  0  0
 17 30  2  0  0  0  0
 17 31  1  0  0  0  0
 18 32  1  0  0  0  0
 19 34  1  0  0  0  0
 20 32  1  0  0  0  0
 20 33  2  0  0  0  0
 20 35  1  0  0  0  0
 21 23  2  0  0  0  0
 21 41  1  0  0  0  0
 22 24  2  0  0  0  0
 22 42  1  0  0  0  0
 23 50  1  0  0  0  0
 24 43  1  0  0  0  0
 25 61  1  0  0  0  0
 26 73  1  0  0  0  0
 27 85  1  0  0  0  0
 28 86  1  0  0  0  0
 29 31  2  0  0  0  0
 29 85  1  0  0  0  0
 30 87  1  0  0  0  0
 31 88  1  0  0  0  0
 32 67  2  0  0  0  0
 33 68  1  0  0  0  0
 33 71  1  0  0  0  0
 34 74  1  0  0  0  0
 34 77  2  0  0  0  0
 35 72  1  0  0  0  0
 35 79  2  0  0  0  0
 36 51  1  0  0  0  0
 36 75  1  0  0  0  0
 36 80  2  0  0  0  0
 37 63  1  0  0  0  0
 37 69  1  0  0  0  0
 37 81  2  0  0  0  0
 38 64  1  0  0  0  0
 38 76  1  0  0  0  0
 38 82  2  0  0  0  0
 39 65  1  0  0  0  0
 39 74  1  0  0  0  0
 39 83  2  0  0  0  0
 40 70  1  0  0  0  0
 40 73  1  0  0  0  0
 40 84  2  0  0  0  0
 41 44  1  0  0  0  0
 42 51  1  0  0  0  0
 43 69  1  0  0  0  0
 44 46  1  0  0  0  0
 45 47  1  0  0  0  0
 45 48  1  0  0  0  0
 46 50  1  0  0  0  0
 47 52  1  0  0  0  0
 48 70  1  0  0  0  0
 49 52  1  0  0  0  0
 49 70  1  0  0  0  0
 50 75  1  0  0  0  0
 51 69  1  0  0  0  0
 52 68  1  0  0  0  0
 53 61  1  0  0  0  0
 54 64  1  0  0  0  0
 55 65  1  0  0  0  0
 56 65  1  0  0  0  0
 57 66  1  0  0  0  0
 58 66  1  0  0  0  0
 59 66  1  0  0  0  0
 60 78  1  0  0  0  0
 62 65  1  0  0  0  0
 62 86  1  0  0  0  0
 63 66  1  0  0  0  0
 63 76  1  0  0  0  0
 64 78  1  0  0  0  0
 67 68  1  0  0  0  0
M  CHG  2  77   1  78   1
M  ISO  4  40 100  62 101  73 100  86 101
M  END
> <Batch ID>
0141

> <Smiles>
CCc1cc([100NH:0][100C:0](=O)N2CCCC(n3nc(-c4ccc(Oc5ccc(F)cc5F)cc4)c(C(N)=O)c3N)C2)cc(C(=N)NC(=O)C(C)(C)[101CH2:1][101O:1]c2ccc3c(c2)CN(C(=O)C(NC(=O)C(C)NC)C(C)(C)C)C(C(=O)NC2CCCc4ccccc42)C3)c1

> <Shape>
0.205

> <Color>
0.083

> <Negative vol penalty>
0.000

$$$$

  -OEChem-04052302543D

 92100  0     1  0  0  0  0  0999 V2000
  -24.5579  -30.3146   22.3385 C   0  0  0  0  0  0  0  0  0  0  0  0
  -24.8538  -29.2329   23.1619 C   0  0  0  0  0  0  0  0  0  0  0  0
  -23.2601  -10.2293   22.1742 C   0  0  0  0  0  0  0  0  0  0  0  0
  -23.4720   -9.6870   19.8294 C   0  0  0  0  0  0  0  0  0  0  0  0
  -24.6756  -30.1887   20.9550 C   0  0  0  0  0  0  0  0  0  0  0  0
  -25.2667  -28.0244   22.6020 C   0  0  0  0  0  0  0  0  0  0  0  0
  -29.2239  -26.0077   25.0348 C   0  0  0  0  0  0  0  0  0  0  0  0
  -22.4772   -9.0910   22.3668 C   0  0  0  0  0  0  0  0  0  0  0  0
  -22.6891   -8.5487   20.0220 C   0  0  0  0  0  0  0  0  0  0  0  0
  -28.9653  -25.3535   26.2385 C   0  0  0  0  0  0  0  0  0  0  0  0
  -20.7231   -6.1341   23.5477 C   0  0  0  0  0  0  0  0  0  0  0  0
  -21.0002   -5.3366   24.6580 C   0  0  0  0  0  0  0  0  0  0  0  0
  -29.0565  -23.2303   25.0970 C   0  0  0  0  0  0  0  0  0  0  0  0
  -32.1985  -17.8886   24.4287 C   0  0  0  0  0  0  0  0  0  0  0  0
  -32.2591  -16.2452   22.6587 C   0  0  0  0  0  0  0  0  0  0  0  0
  -23.2402   -4.9654   23.8324 C   0  0  0  0  0  0  0  0  0  0  0  0
  -23.7574  -10.5273   20.9055 C   0  0  0  0  0  0  0  0  0  0  0  0
  -24.1934  -13.0405   20.9405 C   0  0  0  0  0  0  0  0  0  0  0  0
  -25.0995  -28.9810   20.3784 C   0  0  0  0  0  0  0  0  0  0  0  0
  -29.3902  -25.2776   23.8492 C   0  0  0  0  0  0  0  0  0  0  0  0
  -25.3890  -27.8819   21.2093 C   0  0  0  0  0  0  0  0  0  0  0  0
  -29.3197  -23.8775   23.8801 C   0  0  0  0  0  0  0  0  0  0  0  0
  -30.8089  -17.9499   24.3242 C   0  0  0  0  0  0  0  0  0  0  0  0
  -30.8695  -16.3065   22.5542 C   0  0  0  0  0  0  0  0  0  0  0  0
  -30.1444  -17.1588   23.3870 C   0  0  0  0  0  0  0  0  0  0  0  0
  -22.1918   -8.2507   21.2907 C   0  0  0  0  0  0  0  0  0  0  0  0
  -28.8787  -23.9647   26.2692 C   0  0  0  0  0  0  0  0  0  0  0  0
  -21.7045   -6.3471   22.5796 C   0  0  0  0  0  0  0  0  0  0  0  0
  -22.2587   -4.7523   24.8004 C   0  0  0  0  0  0  0  0  0  0  0  0
  -22.9630   -5.7628   22.7220 C   0  0  0  0  0  0  0  0  0  0  0  0
  -32.9236  -17.0363   23.5959 C   0  0  0  0  0  0  0  0  0  0  0  0
  -24.5657  -11.7033   20.7059 C   0  0  0  0  0  0  0  0  0  0  0  0
  -25.3050  -13.7714   20.5988 C   0  0  0  0  0  0  0  0  0  0  0  0
  -22.9538  -13.5743   21.4242 C   0  0  0  0  0  0  0  0  0  0  0  0
  -27.8572  -25.1358   21.0683 C   0  0  0  0  0  0  0  0  0  0  0  0
  -30.3205  -23.1889   20.2534 C   0  0  0  0  0  0  0  0  0  0  0  0
  -32.7944  -21.0677   21.2668 C   0  0  0  0  0  0  0  0  0  0  0  0
  -30.8100  -14.6005   20.7015 C   0  0  0  0  0  0  0  0  0  0  0  0
  -25.1663  -28.8784   18.8752 C   0  0  0  0  0  0  0  0  0  0  0  0
  -29.6952  -25.9968   22.5639 C   0  0  0  0  0  0  0  0  0  0  0  0
  -29.5108  -23.0463   22.6387 C   0  0  0  0  0  0  0  0  0  0  0  0
  -25.9704  -27.6783   18.3818 C   0  0  0  0  0  0  0  0  0  0  0  0
  -29.5492  -12.3902   18.2112 C   0  0  0  0  0  0  0  0  0  0  0  0
  -25.5703  -26.4183   19.1428 C   0  0  0  0  0  0  0  0  0  0  0  0
  -28.1097  -12.1244   18.6575 C   0  0  0  0  0  0  0  0  0  0  0  0
  -30.4999  -12.5056   19.4014 C   0  0  0  0  0  0  0  0  0  0  0  0
  -28.6545  -13.2079   20.8748 C   0  0  0  0  0  0  0  0  0  0  0  0
  -25.8638  -26.5622   20.6410 C   0  0  1  0  0  0  0  0  0  0  0  0
  -29.3370  -25.1828   21.3243 C   0  0  1  0  0  0  0  0  0  0  0  0
  -27.6489  -13.1484   19.7134 C   0  0  2  0  0  0  0  0  0  0  0  0
  -31.6073  -20.0755   27.7493 C   0  0  0  0  0  0  0  0  0  0  0  0
  -29.0766  -19.0435   29.9260 C   0  0  0  0  0  0  0  0  0  0  0  0
  -34.6209  -19.5997   20.3689 C   0  0  0  0  0  0  0  0  0  0  0  0
  -28.2423  -21.1141   19.4250 C   0  0  0  0  0  0  0  0  0  0  0  0
  -30.0565  -19.3889   19.4504 C   0  0  0  0  0  0  0  0  0  0  0  0
  -30.1920  -21.3156   17.8717 C   0  0  0  0  0  0  0  0  0  0  0  0
  -29.3716  -16.9488   26.7547 C   0  0  0  0  0  0  0  0  0  0  0  0
  -27.2414  -19.1735   26.4630 C   0  0  0  0  0  0  0  0  0  0  0  0
  -27.1097  -21.9427   28.6628 C   0  0  0  0  0  0  0  0  0  0  0  0
  -26.9426  -22.1598   26.1870 C   0  0  0  0  0  0  0  0  0  0  0  0
  -34.8873  -22.6073   22.6839 C   0  0  0  0  0  0  0  0  0  0  0  0
  -30.0505  -18.8830   25.2409 C   0  0  0  0  0  0  0  0  0  0  0  0
  -31.0403  -18.6625   27.6206 C   0  0  0  0  0  0  0  0  0  0  0  0
  -28.0719  -18.9644   28.7858 C   0  0  0  0  0  0  0  0  0  0  0  0
  -28.9401  -20.9126   27.2955 C   0  0  0  0  0  0  0  0  0  0  0  0
  -30.5836  -21.7048   20.3389 C   0  0  1  0  0  0  0  0  0  0  0  0
  -34.2632  -20.9817   20.8932 C   0  0  2  0  0  0  0  0  0  0  0  0
  -29.7630  -20.8963   19.2947 C   0  0  0  0  0  0  0  0  0  0  0  0
  -29.7520  -18.4527   26.7304 C   0  0  2  0  0  0  0  0  0  0  0  0
  -28.5152  -19.3876   27.3350 C   0  0  2  0  0  0  0  0  0  0  0  0
  -27.9177  -22.0821   27.3592 C   0  0  0  0  0  0  0  0  0  1  0  0
  -25.8159  -11.5884   20.2502 N   0  0  0  0  0  0  0  0  0  0  0  0
  -26.2390  -12.8629   20.1957 N   0  0  0  0  0  0  0  0  0  0  0  0
  -29.8006  -23.7962   21.4053 N   0  0  0  0  0  0  0  0  0  0  0  0
  -30.0014  -13.4966   20.3576 N   0  0  0  0  0  0  0  0  0  0  0  0
  -28.7345  -17.2241   23.2844 N   0  0  0  0  0  0  0  0  0  0  0  0
  -25.5648  -15.0961   20.6068 N   0  0  0  0  0  0  0  0  0  0  0  0
  -21.9624  -13.9110   20.4923 N   0  0  0  0  0  0  0  0  0  0  0  0
  -30.2178  -15.4932   21.5943 N   0  0  0  0  0  0  0  0  0  0  0  0
  -27.2757  -26.3780   20.8995 N   0  0  0  0  0  0  0  0  0  0  0  0
  -32.0283  -21.5390   20.2217 N   0  0  0  0  0  0  0  0  0  0  0  0
  -35.1173  -21.2696   22.0801 N   0  3  0  0  0  0  0  0  0  0  0  0
  -22.7379  -13.7630   22.6454 O   0  0  0  0  0  0  0  0  0  0  0  0
  -27.2855  -24.0528   21.0257 O   0  0  0  0  0  0  0  0  0  0  0  0
  -30.5738  -23.7886   19.2057 O   0  0  0  0  0  0  0  0  0  0  0  0
  -32.3686  -20.7452   22.3737 O   0  0  0  0  0  0  0  0  0  0  0  0
  -31.9337  -14.7577   20.2172 O   0  0  0  0  0  0  0  0  0  0  0  0
  -21.4281   -7.1397   21.4782 O   0  0  0  0  0  0  0  0  0  0  0  0
  -28.6245  -23.3205   27.4482 O   0  0  0  0  0  0  0  0  0  1  0  0
  -22.5252   -3.9878   25.8675 F   0  0  0  0  0  0  0  0  0  0  0  0
  -23.9103   -5.9649   21.7959 F   0  0  0  0  0  0  0  0  0  0  0  0
  -34.6384  -16.9620   23.7241 Cl  0  0  0  0  0  0  0  0  0  0  0  0
  1  2  1  0  0  0  0
  1  5  2  0  0  0  0
  2  6  2  0  0  0  0
  3  8  2  0  0  0  0
  3 17  1  0  0  0  0
  4  9  1  0  0  0  0
  4 17  2  0  0  0  0
  5 19  1  0  0  0  0
  6 21  1  0  0  0  0
  7 10  2  0  0  0  0
  7 20  1  0  0  0  0
  8 26  1  0  0  0  0
  9 26  2  0  0  0  0
 10 27  1  0  0  0  0
 11 12  2  0  0  0  0
 11 28  1  0  0  0  0
 12 29  1  0  0  0  0
 13 22  1  0  0  0  0
 13 27  2  0  0  0  0
 14 23  1  0  0  0  0
 14 31  2  0  0  0  0
 15 24  2  0  0  0  0
 15 31  1  0  0  0  0
 16 29  2  0  0  0  0
 16 30  1  0  0  0  0
 17 32  1  0  0  0  0
 18 32  1  0  0  0  0
 18 33  2  0  0  0  0
 18 34  1  0  0  0  0
 19 21  2  0  0  0  0
 19 39  1  0  0  0  0
 20 22  2  0  0  0  0
 20 40  1  0  0  0  0
 21 48  1  0  0  0  0
 22 41  1  0  0  0  0
 23 25  2  0  0  0  0
 23 62  1  0  0  0  0
 24 25  1  0  0  0  0
 24 79  1  0  0  0  0
 25 76  1  0  0  0  0
 26 88  1  0  0  0  0
 27 89  1  0  0  0  0
 28 30  2  0  0  0  0
 28 88  1  0  0  0  0
 29 90  1  0  0  0  0
 30 91  1  0  0  0  0
 31 92  1  0  0  0  0
 32 72  2  0  0  0  0
 33 73  1  0  0  0  0
 33 77  1  0  0  0  0
 34 78  1  0  0  0  0
 34 83  2  0  0  0  0
 35 49  1  0  0  0  0
 35 80  1  0  0  0  0
 35 84  2  0  0  0  0
 36 66  1  0  0  0  0
 36 74  1  0  0  0  0
 36 85  2  0  0  0  0
 37 67  1  0  0  0  0
 37 81  1  0  0  0  0
 37 86  2  0  0  0  0
 38 75  1  0  0  0  0
 38 79  1  0  0  0  0
 38 87  2  0  0  0  0
 39 42  1  0  0  0  0
 40 49  1  0  0  0  0
 41 74  1  0  0  0  0
 42 44  1  0  0  0  0
 43 45  1  0  0  0  0
 43 46  1  0  0  0  0
 44 48  1  0  0  0  0
 45 50  1  0  0  0  0
 46 75  1  0  0  0  0
 47 50  1  0  0  0  0
 47 75  1  0  0  0  0
 48 80  1  0  0  0  0
 49 74  1  0  0  0  0
 50 73  1  0  0  0  0
 51 63  1  0  0  0  0
 52 64  1  0  0  0  0
 53 67  1  0  0  0  0
 54 68  1  0  0  0  0
 55 68  1  0  0  0  0
 56 68  1  0  0  0  0
 57 69  1  0  0  0  0
 58 70  1  0  0  0  0
 59 71  1  0  0  0  0
 60 71  1  0  0  0  0
 61 82  1  0  0  0  0
 62 69  1  0  0  0  0
 63 69  1  0  0  0  0
 64 70  1  0  0  0  0
 65 70  1  0  0  0  0
 65 71  1  0  0  0  0
 66 68  1  0  0  0  0
 66 81  1  0  0  0  0
 67 82  1  0  0  0  0
 69 70  1  0  0  0  0
 71 89  1  0  0  0  0
 72 73  1  0  0  0  0
M  CHG  1  82   1
M  ISO  4  38 100  71 101  79 100  89 101
M  END
> <Batch ID>
0141

> <Smiles>
CCC(C)(Cc1cc(Cl)cc([100NH:0][100C:0](=O)N2CCCC(n3nc(-c4ccc(Oc5ccc(F)cc5F)cc4)c(C(N)=O)c3N)C2)c1N)C(C)(CC)C[101C:1](C)(C)[101O:1]c1ccc2c(c1)CN(C(=O)C(NC(=O)C(C)NC)C(C)(C)C)C(C(=O)NC1CCCc3ccccc31)C2

> <Shape>
0.259

> <Color>
0.134

> <Negative vol penalty>
0.000

$$$$

  -OEChem-04052302543D

 88 96  0     1  0  0  0  0  0999 V2000
  -16.6180  -28.8254   23.2731 C   0  0  0  0  0  0  0  0  0  0  0  0
  -17.5230  -28.7891   22.2170 C   0  0  0  0  0  0  0  0  0  0  0  0
  -26.5789  -12.4333   21.7655 C   0  0  0  0  0  0  0  0  0  0  0  0
  -25.9191  -13.9055   19.9671 C   0  0  0  0  0  0  0  0  0  0  0  0
  -17.0553  -29.1641   24.5529 C   0  0  0  0  0  0  0  0  0  0  0  0
  -18.8656  -29.0925   22.4401 C   0  0  0  0  0  0  0  0  0  0  0  0
  -23.7158  -26.5950   19.6572 C   0  0  0  0  0  0  0  0  0  0  0  0
  -25.3117  -11.8506   21.7536 C   0  0  0  0  0  0  0  0  0  0  0  0
  -24.6518  -13.3228   19.9551 C   0  0  0  0  0  0  0  0  0  0  0  0
  -24.5095  -27.0218   18.5935 C   0  0  0  0  0  0  0  0  0  0  0  0
  -23.6350   -9.5721   19.9016 C   0  0  0  0  0  0  0  0  0  0  0  0
  -23.5608   -8.1805   19.9608 C   0  0  0  0  0  0  0  0  0  0  0  0
  -26.1046  -27.9330   20.1571 C   0  0  0  0  0  0  0  0  0  0  0  0
  -30.1271  -22.7234   21.2124 C   0  0  0  0  0  0  0  0  0  0  0  0
  -28.8731  -22.8689   18.7246 C   0  0  0  0  0  0  0  0  0  0  0  0
  -22.2914   -8.3355   22.0107 C   0  0  0  0  0  0  0  0  0  0  0  0
  -26.8826  -13.4608   20.8723 C   0  0  0  0  0  0  0  0  0  0  0  0
  -29.3187  -13.6628   20.1427 C   0  0  0  0  0  0  0  0  0  0  0  0
  -18.4058  -29.4624   24.7936 C   0  0  0  0  0  0  0  0  0  0  0  0
  -24.1057  -26.8441   20.9810 C   0  0  0  0  0  0  0  0  0  0  0  0
  -19.3211  -29.4368   23.7241 C   0  0  0  0  0  0  0  0  0  0  0  0
  -25.3152  -27.5061   21.2359 C   0  0  0  0  0  0  0  0  0  0  0  0
  -30.0854  -23.9348   20.5222 C   0  0  0  0  0  0  0  0  0  0  0  0
  -28.9148  -21.6575   19.4149 C   0  0  0  0  0  0  0  0  0  0  0  0
  -29.4584  -24.0075   19.2783 C   0  0  0  0  0  0  0  0  0  0  0  0
  -29.5418  -21.5847   20.6587 C   0  0  0  0  0  0  0  0  0  0  0  0
  -24.3481  -12.2954   20.8484 C   0  0  0  0  0  0  0  0  0  0  0  0
  -25.7027  -27.6934   18.8432 C   0  0  0  0  0  0  0  0  0  0  0  0
  -23.0375  -10.3454   20.8969 C   0  0  0  0  0  0  0  0  0  0  0  0
  -22.8890   -7.5622   21.0153 C   0  0  0  0  0  0  0  0  0  0  0  0
  -22.3657   -9.7271   21.9514 C   0  0  0  0  0  0  0  0  0  0  0  0
  -28.1914  -14.0634   20.8845 C   0  0  0  0  0  0  0  0  0  0  0  0
  -30.3022  -14.5497   20.5067 C   0  0  0  0  0  0  0  0  0  0  0  0
  -29.4639  -12.5853   19.2079 C   0  0  0  0  0  0  0  0  0  0  0  0
  -22.8778  -28.4858   23.4101 C   0  0  0  0  0  0  0  0  0  0  0  0
  -28.9149  -26.7862   16.8080 C   0  0  0  0  0  0  0  0  0  0  0  0
  -25.3470  -27.1621   25.0450 C   0  0  0  0  0  0  0  0  0  0  0  0
  -28.4625  -25.7716   24.9620 C   0  0  0  0  0  0  0  0  0  0  0  0
  -30.1817  -20.1379   22.6192 C   0  0  0  0  0  0  0  0  0  0  0  0
  -18.8226  -29.8691   26.1849 C   0  0  0  0  0  0  0  0  0  0  0  0
  -23.2515  -26.3537   22.1177 C   0  0  0  0  0  0  0  0  0  0  0  0
  -25.7888  -27.7802   22.6391 C   0  0  0  0  0  0  0  0  0  0  0  0
  -20.3313  -29.8120   26.4098 C   0  0  0  0  0  0  0  0  0  0  0  0
  -31.6892  -17.3082   24.1675 C   0  0  0  0  0  0  0  0  0  0  0  0
  -21.0695  -30.4693   25.2480 C   0  0  0  0  0  0  0  0  0  0  0  0
  -31.0704  -16.1187   23.4297 C   0  0  0  0  0  0  0  0  0  0  0  0
  -30.6822  -18.4402   24.3634 C   0  0  0  0  0  0  0  0  0  0  0  0
  -29.3893  -17.7007   22.4011 C   0  0  0  0  0  0  0  0  0  0  0  0
  -20.7901  -29.7354   23.9309 C   0  0  1  0  0  0  0  0  0  0  0  0
  -23.4924  -27.1148   23.4177 C   0  0  1  0  0  0  0  0  0  0  0  0
  -30.3836  -16.5615   22.1229 C   0  0  2  0  0  0  0  0  0  0  0  0
  -30.7211  -25.1389   21.1375 C   0  0  0  0  0  0  0  0  0  0  0  0
  -29.3100  -19.5035   18.1938 C   0  0  0  0  0  0  0  0  0  0  0  0
  -30.5226  -24.6215   25.8169 C   0  0  0  0  0  0  0  0  0  0  0  0
  -27.7206  -26.5203   14.6075 C   0  0  0  0  0  0  0  0  0  0  0  0
  -28.1696  -28.8004   15.5274 C   0  0  0  0  0  0  0  0  0  0  0  0
  -26.1221  -29.9832   25.9112 C   0  0  0  0  0  0  0  0  0  0  0  0
  -28.3638  -29.0880   26.5760 C   0  0  0  0  0  0  0  0  0  0  0  0
  -26.3036  -28.2533   27.7081 C   0  0  0  0  0  0  0  0  0  0  0  0
  -27.3155  -23.0903   24.4582 C   0  0  0  0  0  0  0  0  0  0  0  0
  -28.2805  -20.4536   18.7973 C   0  0  0  0  0  0  0  0  0  0  0  0
  -28.7777  -25.3506   17.2887 C   0  0  0  0  0  0  0  0  0  0  0  0
  -26.4331  -27.3390   16.6079 C   0  0  0  0  0  0  0  0  0  1  0  0
  -26.7773  -27.5557   25.3246 C   0  0  1  0  0  0  0  0  0  0  0  0
  -29.0211  -24.5129   25.6009 C   0  0  2  0  0  0  0  0  0  0  0  0
  -27.8002  -27.3568   15.8997 C   0  0  0  0  0  0  0  0  0  0  0  0
  -26.8821  -28.7168   26.3534 C   0  0  0  0  0  0  0  0  0  0  0  0
  -28.4350  -15.1223   21.6613 N   0  0  0  0  0  0  0  0  0  0  0  0
  -29.7267  -15.3945   21.4096 N   0  0  0  0  0  0  0  0  0  0  0  0
  -24.9156  -27.2865   23.7167 N   0  0  0  0  0  0  0  0  0  0  0  0
  -30.0751  -18.8096   23.0828 N   0  0  0  0  0  0  0  0  0  0  0  0
  -31.5946  -14.6815   20.1394 N   0  0  0  0  0  0  0  0  0  0  0  0
  -28.3530  -11.7707   18.9496 N   0  0  0  0  0  0  0  0  0  0  0  0
  -29.5943  -20.3631   21.3747 N   0  0  0  0  0  0  0  0  0  0  0  0
  -29.4081  -25.2029   18.5782 N   0  0  0  0  0  0  0  0  0  0  0  0
  -21.5700  -28.5186   23.8551 N   0  0  0  0  0  0  0  0  0  0  0  0
  -27.4650  -26.3345   25.7297 N   0  0  0  0  0  0  0  0  0  0  0  0
  -28.7554  -23.3302   24.7339 N   0  3  0  0  0  0  0  0  0  0  0  0
  -30.5511  -12.3418   18.6316 O   0  0  0  0  0  0  0  0  0  0  0  0
  -23.5414  -29.4433   23.0299 O   0  0  0  0  0  0  0  0  0  0  0  0
  -29.8786  -27.4789   17.1455 O   0  0  0  0  0  0  0  0  0  0  0  0
  -24.6407  -26.7523   25.9696 O   0  0  0  0  0  0  0  0  0  0  0  0
  -28.8727  -26.2135   23.8911 O   0  0  0  0  0  0  0  0  0  0  0  0
  -30.7757  -21.0050   23.2652 O   0  0  0  0  0  0  0  0  0  0  0  0
  -23.1115  -11.7269   20.8363 O   0  0  0  0  0  0  0  0  0  0  0  0
  -26.4790  -28.1116   17.8068 O   0  0  0  0  0  0  0  0  0  1  0  0
  -22.8164   -6.2258   21.0713 F   0  0  0  0  0  0  0  0  0  0  0  0
  -21.7888  -10.4648   22.9100 F   0  0  0  0  0  0  0  0  0  0  0  0
  1  2  1  0  0  0  0
  1  5  2  0  0  0  0
  2  6  2  0  0  0  0
  3  8  2  0  0  0  0
  3 17  1  0  0  0  0
  4  9  1  0  0  0  0
  4 17  2  0  0  0  0
  5 19  1  0  0  0  0
  6 21  1  0  0  0  0
  7 10  2  0  0  0  0
  7 20  1  0  0  0  0
  8 27  1  0  0  0  0
  9 27  2  0  0  0  0
 10 28  1  0  0  0  0
 11 12  2  0  0  0  0
 11 29  1  0  0  0  0
 12 30  1  0  0  0  0
 13 22  1  0  0  0  0
 13 28  2  0  0  0  0
 14 23  2  0  0  0  0
 14 26  1  0  0  0  0
 15 24  1  0  0  0  0
 15 25  2  0  0  0  0
 16 30  2  0  0  0  0
 16 31  1  0  0  0  0
 17 32  1  0  0  0  0
 18 32  1  0  0  0  0
 18 33  2  0  0  0  0
 18 34  1  0  0  0  0
 19 21  2  0  0  0  0
 19 40  1  0  0  0  0
 20 22  2  0  0  0  0
 20 41  1  0  0  0  0
 21 49  1  0  0  0  0
 22 42  1  0  0  0  0
 23 25  1  0  0  0  0
 23 52  1  0  0  0  0
 24 26  2  0  0  0  0
 24 61  1  0  0  0  0
 25 75  1  0  0  0  0
 26 74  1  0  0  0  0
 27 85  1  0  0  0  0
 28 86  1  0  0  0  0
 29 31  2  0  0  0  0
 29 85  1  0  0  0  0
 30 87  1  0  0  0  0
 31 88  1  0  0  0  0
 32 68  2  0  0  0  0
 33 69  1  0  0  0  0
 33 72  1  0  0  0  0
 34 73  1  0  0  0  0
 34 79  2  0  0  0  0
 35 50  1  0  0  0  0
 35 76  1  0  0  0  0
 35 80  2  0  0  0  0
 36 62  1  0  0  0  0
 36 66  1  0  0  0  0
 36 81  2  0  0  0  0
 37 64  1  0  0  0  0
 37 70  1  0  0  0  0
 37 82  2  0  0  0  0
 38 65  1  0  0  0  0
 38 77  1  0  0  0  0
 38 83  2  0  0  0  0
 39 71  1  0  0  0  0
 39 74  1  0  0  0  0
 39 84  2  0  0  0  0
 40 43  1  0  0  0  0
 41 50  1  0  0  0  0
 42 70  1  0  0  0  0
 43 45  1  0  0  0  0
 44 46  1  0  0  0  0
 44 47  1  0  0  0  0
 45 49  1  0  0  0  0
 46 51  1  0  0  0  0
 47 71  1  0  0  0  0
 48 51  1  0  0  0  0
 48 71  1  0  0  0  0
 49 76  1  0  0  0  0
 50 70  1  0  0  0  0
 51 69  1  0  0  0  0
 53 61  1  0  0  0  0
 54 65  1  0  0  0  0
 55 66  1  0  0  0  0
 56 66  1  0  0  0  0
 57 67  1  0  0  0  0
 58 67  1  0  0  0  0
 59 67  1  0  0  0  0
 60 78  1  0  0  0  0
 62 75  1  0  0  0  0
 63 66  1  0  0  0  0
 63 86  1  0  0  0  0
 64 67  1  0  0  0  0
 64 77  1  0  0  0  0
 65 78  1  0  0  0  0
 68 69  1  0  0  0  0
M  CHG  1  78   1
M  ISO  4  39 100  63 101  74 100  86 101
M  END
> <Batch ID>
0141

> <Smiles>
CCc1cc(NCC(=O)C(C)(C)[101CH2:1][101O:1]c2ccc3c(c2)CN(C(=O)C(NC(=O)C(C)NC)C(C)(C)C)C(C(=O)NC2CCCc4ccccc42)C3)c(C)cc1[100NH:0][100C:0](=O)N1CCCC(n2nc(-c3ccc(Oc4ccc(F)cc4F)cc3)c(C(N)=O)c2N)C1

> <Shape>
0.269

> <Color>
0.080

> <Negative vol penalty>
0.000

$$$$

  -OEChem-04052302543D

 86 94  0     1  0  0  0  0  0999 V2000
  -41.7329  -25.2113   28.9909 C   0  0  0  0  0  0  0  0  0  0  0  0
  -40.6105  -25.4236   28.1968 C   0  0  0  0  0  0  0  0  0  0  0  0
  -23.0021   -9.8910   19.9807 C   0  0  0  0  0  0  0  0  0  0  0  0
  -23.7265   -9.9433   22.2849 C   0  0  0  0  0  0  0  0  0  0  0  0
  -42.6839  -24.2644   28.6127 C   0  0  0  0  0  0  0  0  0  0  0  0
  -40.4389  -24.6898   27.0236 C   0  0  0  0  0  0  0  0  0  0  0  0
  -35.1446  -22.7383   24.6428 C   0  0  0  0  0  0  0  0  0  0  0  0
  -22.2366   -8.7559   20.2471 C   0  0  0  0  0  0  0  0  0  0  0  0
  -22.9608   -8.8082   22.5514 C   0  0  0  0  0  0  0  0  0  0  0  0
  -34.3291  -23.2422   23.6304 C   0  0  0  0  0  0  0  0  0  0  0  0
  -23.2084   -5.4694   22.0806 C   0  0  0  0  0  0  0  0  0  0  0  0
  -23.7967   -4.4529   22.8332 C   0  0  0  0  0  0  0  0  0  0  0  0
  -35.3793  -21.7517   22.0509 C   0  0  0  0  0  0  0  0  0  0  0  0
  -30.2732  -19.1941   22.5661 C   0  0  0  0  0  0  0  0  0  0  0  0
  -30.8384  -19.0456   20.2218 C   0  0  0  0  0  0  0  0  0  0  0  0
  -22.0720   -4.6948   24.5077 C   0  0  0  0  0  0  0  0  0  0  0  0
  -23.7471  -10.4847   20.9996 C   0  0  0  0  0  0  0  0  0  0  0  0
  -24.1302  -13.0006   20.8229 C   0  0  0  0  0  0  0  0  0  0  0  0
  -42.5191  -23.5118   27.4392 C   0  0  0  0  0  0  0  0  0  0  0  0
  -36.0927  -21.7434   24.3641 C   0  0  0  0  0  0  0  0  0  0  0  0
  -41.3892  -23.7330   26.6287 C   0  0  0  0  0  0  0  0  0  0  0  0
  -36.2039  -21.2351   23.0620 C   0  0  0  0  0  0  0  0  0  0  0  0
  -30.0792  -17.8134   22.6068 C   0  0  0  0  0  0  0  0  0  0  0  0
  -30.6528  -19.8102   21.3736 C   0  0  0  0  0  0  0  0  0  0  0  0
  -30.2648  -17.0488   21.4551 C   0  0  0  0  0  0  0  0  0  0  0  0
  -22.2159   -8.2145   21.5324 C   0  0  0  0  0  0  0  0  0  0  0  0
  -34.4484  -22.7510   22.3337 C   0  0  0  0  0  0  0  0  0  0  0  0
  -22.0520   -6.0986   22.5416 C   0  0  0  0  0  0  0  0  0  0  0  0
  -23.2284   -4.0656   24.0468 C   0  0  0  0  0  0  0  0  0  0  0  0
  -30.6445  -17.6649   20.2626 C   0  0  0  0  0  0  0  0  0  0  0  0
  -21.4838   -5.7113   23.7551 C   0  0  0  0  0  0  0  0  0  0  0  0
  -24.5386  -11.6570   20.7249 C   0  0  0  0  0  0  0  0  0  0  0  0
  -25.2394  -13.7241   20.4587 C   0  0  0  0  0  0  0  0  0  0  0  0
  -22.8616  -13.5460   21.2089 C   0  0  0  0  0  0  0  0  0  0  0  0
  -39.2607  -21.5515   24.5397 C   0  0  0  0  0  0  0  0  0  0  0  0
  -38.7261  -18.4472   23.7652 C   0  0  0  0  0  0  0  0  0  0  0  0
  -36.6741  -16.1332   22.3226 C   0  0  0  0  0  0  0  0  0  0  0  0
  -31.2242  -21.9887   20.2402 C   0  0  0  0  0  0  0  0  0  0  0  0
  -30.7179  -14.6903   20.6943 C   0  0  0  0  0  0  0  0  0  0  0  0
  -43.5975  -22.5331   27.0470 C   0  0  0  0  0  0  0  0  0  0  0  0
  -36.9464  -21.1915   25.4727 C   0  0  0  0  0  0  0  0  0  0  0  0
  -37.1920  -20.1527   22.7149 C   0  0  0  0  0  0  0  0  0  0  0  0
  -43.1539  -21.5320   25.9834 C   0  0  0  0  0  0  0  0  0  0  0  0
  -29.6027  -12.2357   18.3687 C   0  0  0  0  0  0  0  0  0  0  0  0
  -42.4237  -22.2455   24.8501 C   0  0  0  0  0  0  0  0  0  0  0  0
  -28.1522  -11.9769   18.7825 C   0  0  0  0  0  0  0  0  0  0  0  0
  -30.5026  -12.4803   19.5788 C   0  0  0  0  0  0  0  0  0  0  0  0
  -28.5860  -13.2678   20.9114 C   0  0  0  0  0  0  0  0  0  0  0  0
  -41.1553  -22.9392   25.3616 C   0  0  1  0  0  0  0  0  0  0  0  0
  -38.2329  -20.5435   24.9701 C   0  0  1  0  0  0  0  0  0  0  0  0
  -27.6289  -13.0802   19.7229 C   0  0  2  0  0  0  0  0  0  0  0  0
  -29.6715  -17.1805   23.8979 C   0  0  0  0  0  0  0  0  0  0  0  0
  -36.5240  -13.6815   21.8086 C   0  0  0  0  0  0  0  0  0  0  0  0
  -29.9748  -24.0203   21.0583 C   0  0  0  0  0  0  0  0  0  0  0  0
  -31.7944  -24.2872   19.3336 C   0  0  0  0  0  0  0  0  0  0  0  0
  -40.7012  -18.8105   21.4680 C   0  0  0  0  0  0  0  0  0  0  0  0
  -39.8065  -16.7018   20.4575 C   0  0  0  0  0  0  0  0  0  0  0  0
  -40.9128  -16.6401   22.6925 C   0  0  0  0  0  0  0  0  0  0  0  0
  -34.2378  -15.8179   23.9732 C   0  0  0  0  0  0  0  0  0  0  0  0
  -32.3596  -23.7088   21.7209 C   0  0  0  0  0  0  0  0  0  1  0  0
  -38.6146  -17.6712   22.4752 C   0  0  1  0  0  0  0  0  0  0  0  0
  -36.1863  -14.7791   22.8055 C   0  0  2  0  0  0  0  0  0  0  0  0
  -31.3403  -23.5000   20.5756 C   0  0  0  0  0  0  0  0  0  0  0  0
  -39.9914  -17.4776   21.7791 C   0  0  0  0  0  0  0  0  0  0  0  0
  -25.8082  -11.5315   20.3292 N   0  0  0  0  0  0  0  0  0  0  0  0
  -26.2070  -12.8056   20.1753 N   0  0  0  0  0  0  0  0  0  0  0  0
  -38.0085  -19.6499   23.8320 N   0  0  0  0  0  0  0  0  0  0  0  0
  -29.9463  -13.5410   20.4216 N   0  0  0  0  0  0  0  0  0  0  0  0
  -25.4717  -15.0500   20.3563 N   0  0  0  0  0  0  0  0  0  0  0  0
  -21.8305  -12.6610   21.5523 N   0  0  0  0  0  0  0  0  0  0  0  0
  -30.8484  -21.2124   21.3328 N   0  0  0  0  0  0  0  0  0  0  0  0
  -30.0725  -15.6452   21.4794 N   0  0  0  0  0  0  0  0  0  0  0  0
  -40.0951  -21.9738   25.5571 N   0  0  0  0  0  0  0  0  0  0  0  0
  -37.9320  -16.4250   22.8061 N   0  0  0  0  0  0  0  0  0  0  0  0
  -34.7088  -14.7998   22.9992 N   0  3  0  0  0  0  0  0  0  0  0  0
  -22.6437  -14.7811   21.2322 O   0  0  0  0  0  0  0  0  0  0  0  0
  -39.2952  -21.9179   23.3708 O   0  0  0  0  0  0  0  0  0  0  0  0
  -39.4184  -17.9992   24.6826 O   0  0  0  0  0  0  0  0  0  0  0  0
  -36.0076  -16.8577   21.5868 O   0  0  0  0  0  0  0  0  0  0  0  0
  -31.4612  -21.5703   19.1085 O   0  0  0  0  0  0  0  0  0  0  0  0
  -31.8566  -14.8302   20.2406 O   0  0  0  0  0  0  0  0  0  0  0  0
  -21.4688   -7.1070   21.7928 O   0  0  0  0  0  0  0  0  0  0  0  0
  -33.6541  -23.2415   21.3436 O   0  0  0  0  0  0  0  0  0  1  0  0
  -23.7925   -3.0885   24.7687 F   0  0  0  0  0  0  0  0  0  0  0  0
  -30.8257  -16.9405   19.1490 F   0  0  0  0  0  0  0  0  0  0  0  0
  -20.3722   -6.3112   24.2026 F   0  0  0  0  0  0  0  0  0  0  0  0
  1  2  1  0  0  0  0
  1  5  2  0  0  0  0
  2  6  2  0  0  0  0
  3  8  2  0  0  0  0
  3 17  1  0  0  0  0
  4  9  1  0  0  0  0
  4 17  2  0  0  0  0
  5 19  1  0  0  0  0
  6 21  1  0  0  0  0
  7 10  2  0  0  0  0
  7 20  1  0  0  0  0
  8 26  1  0  0  0  0
  9 26  2  0  0  0  0
 10 27  1  0  0  0  0
 11 12  2  0  0  0  0
 11 28  1  0  0  0  0
 12 29  1  0  0  0  0
 13 22  1  0  0  0  0
 13 27  2  0  0  0  0
 14 23  2  0  0  0  0
 14 24  1  0  0  0  0
 15 24  2  0  0  0  0
 15 30  1  0  0  0  0
 16 29  2  0  0  0  0
 16 31  1  0  0  0  0
 17 32  1  0  0  0  0
 18 32  1  0  0  0  0
 18 33  2  0  0  0  0
 18 34  1  0  0  0  0
 19 21  2  0  0  0  0
 19 40  1  0  0  0  0
 20 22  2  0  0  0  0
 20 41  1  0  0  0  0
 21 49  1  0  0  0  0
 22 42  1  0  0  0  0
 23 25  1  0  0  0  0
 23 52  1  0  0  0  0
 24 71  1  0  0  0  0
 25 30  2  0  0  0  0
 25 72  1  0  0  0  0
 26 82  1  0  0  0  0
 27 83  1  0  0  0  0
 28 31  2  0  0  0  0
 28 82  1  0  0  0  0
 29 84  1  0  0  0  0
 30 85  1  0  0  0  0
 31 86  1  0  0  0  0
 32 65  2  0  0  0  0
 33 66  1  0  0  0  0
 33 69  1  0  0  0  0
 34 70  1  0  0  0  0
 34 76  2  0  0  0  0
 35 50  1  0  0  0  0
 35 73  1  0  0  0  0
 35 77  2  0  0  0  0
 36 61  1  0  0  0  0
 36 67  1  0  0  0  0
 36 78  2  0  0  0  0
 37 62  1  0  0  0  0
 37 74  1  0  0  0  0
 37 79  2  0  0  0  0
 38 63  1  0  0  0  0
 38 71  1  0  0  0  0
 38 80  2  0  0  0  0
 39 68  1  0  0  0  0
 39 72  1  0  0  0  0
 39 81  2  0  0  0  0
 40 43  1  0  0  0  0
 41 50  1  0  0  0  0
 42 67  1  0  0  0  0
 43 45  1  0  0  0  0
 44 46  1  0  0  0  0
 44 47  1  0  0  0  0
 45 49  1  0  0  0  0
 46 51  1  0  0  0  0
 47 68  1  0  0  0  0
 48 51  1  0  0  0  0
 48 68  1  0  0  0  0
 49 73  1  0  0  0  0
 50 67  1  0  0  0  0
 51 66  1  0  0  0  0
 53 62  1  0  0  0  0
 54 63  1  0  0  0  0
 55 63  1  0  0  0  0
 56 64  1  0  0  0  0
 57 64  1  0  0  0  0
 58 64  1  0  0  0  0
 59 75  1  0  0  0  0
 60 63  1  0  0  0  0
 60 83  1  0  0  0  0
 61 64  1  0  0  0  0
 61 74  1  0  0  0  0
 62 75  1  0  0  0  0
 65 66  1  0  0  0  0
M  CHG  1  75   1
M  ISO  4  39 100  60 101  72 100  83 101
M  END
> <Batch ID>
0141

> <Smiles>
CNC(C)C(=O)NC(C(=O)N1Cc2cc([101O:1][101CH2:1]C(C)(C)C(=O)Nc3cc(C)c([100NH:0][100C:0](=O)N4CCCC(n5nc(-c6ccc(Oc7ccc(F)cc7F)cc6)c(C(N)=O)c5N)C4)c(F)c3)ccc2CC1C(=O)NC1CCCc2ccccc21)C(C)(C)C

> <Shape>
0.199

> <Color>
0.194

> <Negative vol penalty>
0.000

$$$$

  -OEChem-04052302543D

 85 94  0     1  0  0  0  0  0999 V2000
  -25.7379  -19.8152   14.5017 C   0  0  0  0  0  0  0  0  0  0  0  0
  -26.2580  -18.5589   14.7916 C   0  0  0  0  0  0  0  0  0  0  0  0
  -27.9516  -26.4991   17.9071 C   0  0  0  0  0  0  0  0  0  0  0  0
  -27.3480  -26.0185   20.1966 C   0  0  0  0  0  0  0  0  0  0  0  0
  -25.0787  -20.5383   15.4936 C   0  0  0  0  0  0  0  0  0  0  0  0
  -26.1088  -18.0202   16.0700 C   0  0  0  0  0  0  0  0  0  0  0  0
  -28.2516  -12.8416   18.4613 C   0  0  0  0  0  0  0  0  0  0  0  0
  -26.9110  -27.4244   17.8270 C   0  0  0  0  0  0  0  0  0  0  0  0
  -26.3074  -26.9438   20.1165 C   0  0  0  0  0  0  0  0  0  0  0  0
  -29.3780  -12.4234   19.1684 C   0  0  0  0  0  0  0  0  0  0  0  0
  -25.9454  -30.3009   20.2555 C   0  0  0  0  0  0  0  0  0  0  0  0
  -25.7847  -31.1870   21.3206 C   0  0  0  0  0  0  0  0  0  0  0  0
  -28.1609  -12.6634   21.2373 C   0  0  0  0  0  0  0  0  0  0  0  0
  -30.1029  -16.6542   25.2363 C   0  0  0  0  0  0  0  0  0  0  0  0
  -30.6591  -18.6624   24.0137 C   0  0  0  0  0  0  0  0  0  0  0  0
  -29.8766  -16.7061   22.8315 C   0  0  0  0  0  0  0  0  0  0  0  0
  -23.5574  -30.3302   21.6974 C   0  0  0  0  0  0  0  0  0  0  0  0
  -28.1701  -25.7960   19.0919 C   0  0  0  0  0  0  0  0  0  0  0  0
  -30.5715  -25.0845   19.5766 C   0  0  0  0  0  0  0  0  0  0  0  0
  -24.9327  -20.0127   16.7880 C   0  0  0  0  0  0  0  0  0  0  0  0
  -27.0728  -13.1849   19.1388 C   0  0  0  0  0  0  0  0  0  0  0  0
  -25.4257  -18.7243   17.0782 C   0  0  0  0  0  0  0  0  0  0  0  0
  -27.0201  -13.0832   20.5362 C   0  0  0  0  0  0  0  0  0  0  0  0
  -30.5491  -17.9757   25.2228 C   0  0  0  0  0  0  0  0  0  0  0  0
  -29.7666  -16.0194   24.0406 C   0  0  0  0  0  0  0  0  0  0  0  0
  -30.3228  -18.0276   22.8180 C   0  0  0  0  0  0  0  0  0  0  0  0
  -26.0889  -27.6468   18.9316 C   0  0  0  0  0  0  0  0  0  0  0  0
  -29.3337  -12.3370   20.5568 C   0  0  0  0  0  0  0  0  0  0  0  0
  -24.9121  -29.4295   19.9111 C   0  0  0  0  0  0  0  0  0  0  0  0
  -24.5907  -31.2016   22.0416 C   0  0  0  0  0  0  0  0  0  0  0  0
  -23.7181  -29.4441   20.6321 C   0  0  0  0  0  0  0  0  0  0  0  0
  -29.2446  -24.8396   19.1751 C   0  0  0  0  0  0  0  0  0  0  0  0
  -31.1896  -23.8615   19.4837 C   0  0  0  0  0  0  0  0  0  0  0  0
  -31.1900  -26.3082   19.9960 C   0  0  0  0  0  0  0  0  0  0  0  0
  -25.3400  -15.8344   19.4242 C   0  0  0  0  0  0  0  0  0  0  0  0
  -23.3072  -13.8680   21.0127 C   0  0  0  0  0  0  0  0  0  0  0  0
  -22.8616  -11.0013   22.8101 C   0  0  0  0  0  0  0  0  0  0  0  0
  -30.1416  -18.2427   20.3146 C   0  0  0  0  0  0  0  0  0  0  0  0
  -24.2036  -20.8349   17.8213 C   0  0  0  0  0  0  0  0  0  0  0  0
  -25.8580  -13.6086   18.3595 C   0  0  0  0  0  0  0  0  0  0  0  0
  -25.7725  -13.4209   21.3095 C   0  0  0  0  0  0  0  0  0  0  0  0
  -24.4828  -20.3784   19.2495 C   0  0  0  0  0  0  0  0  0  0  0  0
  -30.2495  -19.6577   17.0491 C   0  0  0  0  0  0  0  0  0  0  0  0
  -24.2963  -18.8725   19.3596 C   0  0  0  0  0  0  0  0  0  0  0  0
  -30.1313  -21.1624   17.3019 C   0  0  0  0  0  0  0  0  0  0  0  0
  -29.3943  -18.8499   18.0237 C   0  0  0  0  0  0  0  0  0  0  0  0
  -29.5007  -20.6556   19.6962 C   0  0  0  0  0  0  0  0  0  0  0  0
  -31.3485  -13.1614   23.8977 C   0  0  0  0  0  0  0  0  0  0  0  0
  -25.3022  -18.1311   18.4700 C   0  0  1  0  0  0  0  0  0  0  0  0
  -24.8719  -14.4263   19.1880 C   0  0  1  0  0  0  0  0  0  0  0  0
  -30.3948  -21.5078   18.7807 C   0  0  2  0  0  0  0  0  0  0  0  0
  -30.1517  -12.2776   23.6068 C   0  0  2  0  0  0  0  0  0  0  0  0
  -30.9088  -18.6542   26.5013 C   0  0  0  0  0  0  0  0  0  0  0  0
  -21.0944   -9.6808   24.0061 C   0  0  0  0  0  0  0  0  0  0  0  0
  -31.3817  -10.2899   22.6915 C   0  0  0  0  0  0  0  0  0  0  0  0
  -28.9105  -10.4808   22.3838 C   0  0  0  0  0  0  0  0  0  0  0  0
  -23.3904  -15.8562   23.3257 C   0  0  0  0  0  0  0  0  0  0  0  0
  -22.4193  -14.0785   24.7972 C   0  0  0  0  0  0  0  0  0  0  0  0
  -21.1242  -14.9181   22.8375 C   0  0  0  0  0  0  0  0  0  0  0  0
  -23.2454   -8.6626   21.0375 C   0  0  0  0  0  0  0  0  0  0  0  0
  -29.2865  -14.5980   24.0553 C   0  0  0  0  0  0  0  0  0  0  0  0
  -23.1387  -13.4403   22.4507 C   0  0  1  0  0  0  0  0  0  0  0  0
  -21.8349   -9.8891   22.6942 C   0  0  2  0  0  0  0  0  0  0  0  0
  -30.2061  -11.2442   22.4805 C   0  0  0  0  0  0  0  0  0  1  0  0
  -22.5424  -14.5687   23.3386 C   0  0  0  0  0  0  0  0  0  0  0  0
  -29.0314  -23.5615   18.8512 N   0  0  0  0  0  0  0  0  0  0  0  0
  -30.2327  -22.9923   19.0489 N   0  0  0  0  0  0  0  0  0  0  0  0
  -24.6129  -13.8362   20.5029 N   0  0  0  0  0  0  0  0  0  0  0  0
  -29.7014  -19.2275   19.4050 N   0  0  0  0  0  0  0  0  0  0  0  0
  -32.4528  -23.4556   19.7323 N   0  0  0  0  0  0  0  0  0  0  0  0
  -30.4102  -27.4722   20.0340 N   0  0  0  0  0  0  0  0  0  0  0  0
  -30.4344  -18.7252   21.5897 N   0  0  0  0  0  0  0  0  0  0  0  0
  -24.9598  -16.7262   18.4396 N   0  0  0  0  0  0  0  0  0  0  0  0
  -22.3422  -12.2183   22.4224 N   0  0  0  0  0  0  0  0  0  0  0  0
  -30.1404  -13.6956   23.2788 N   0  3  1  0  0  0  0  0  0  0  0  0
  -22.4987   -8.6082   22.3207 N   0  3  0  0  0  0  0  0  0  0  0  0
  -32.4024  -26.3708   20.3116 O   0  0  0  0  0  0  0  0  0  0  0  0
  -25.9962  -16.0929   20.4263 O   0  0  0  0  0  0  0  0  0  0  0  0
  -22.3159  -14.2107   20.3636 O   0  0  0  0  0  0  0  0  0  0  0  0
  -24.0085  -10.8103   23.2084 O   0  0  0  0  0  0  0  0  0  0  0  0
  -30.2767  -17.0632   19.9789 O   0  0  0  0  0  0  0  0  0  0  0  0
  -25.0735  -28.5498   18.8539 O   0  0  0  0  0  0  0  0  0  0  0  0
  -30.4320  -11.9297   21.2495 O   0  0  0  0  0  0  0  0  0  1  0  0
  -24.4371  -32.0515   23.0654 F   0  0  0  0  0  0  0  0  0  0  0  0
  -22.7222  -28.6084   20.3068 F   0  0  0  0  0  0  0  0  0  0  0  0
  1  2  1  0  0  0  0
  1  5  2  0  0  0  0
  2  6  2  0  0  0  0
  3  8  2  0  0  0  0
  3 18  1  0  0  0  0
  4  9  1  0  0  0  0
  4 18  2  0  0  0  0
  5 20  1  0  0  0  0
  6 22  1  0  0  0  0
  7 10  2  0  0  0  0
  7 21  1  0  0  0  0
  8 27  1  0  0  0  0
  9 27  2  0  0  0  0
 10 28  1  0  0  0  0
 11 12  2  0  0  0  0
 11 29  1  0  0  0  0
 12 30  1  0  0  0  0
 13 23  1  0  0  0  0
 13 28  2  0  0  0  0
 14 24  2  0  0  0  0
 14 25  1  0  0  0  0
 15 24  1  0  0  0  0
 15 26  2  0  0  0  0
 16 25  2  0  0  0  0
 16 26  1  0  0  0  0
 17 30  2  0  0  0  0
 17 31  1  0  0  0  0
 18 32  1  0  0  0  0
 19 32  1  0  0  0  0
 19 33  2  0  0  0  0
 19 34  1  0  0  0  0
 20 22  2  0  0  0  0
 20 39  1  0  0  0  0
 21 23  2  0  0  0  0
 21 40  1  0  0  0  0
 22 49  1  0  0  0  0
 23 41  1  0  0  0  0
 24 53  1  0  0  0  0
 25 61  1  0  0  0  0
 26 72  1  0  0  0  0
 27 82  1  0  0  0  0
 28 83  1  0  0  0  0
 29 31  2  0  0  0  0
 29 82  1  0  0  0  0
 30 84  1  0  0  0  0
 31 85  1  0  0  0  0
 32 66  2  0  0  0  0
 33 67  1  0  0  0  0
 33 70  1  0  0  0  0
 34 71  1  0  0  0  0
 34 77  2  0  0  0  0
 35 50  1  0  0  0  0
 35 73  1  0  0  0  0
 35 78  2  0  0  0  0
 36 62  1  0  0  0  0
 36 68  1  0  0  0  0
 36 79  2  0  0  0  0
 37 63  1  0  0  0  0
 37 74  1  0  0  0  0
 37 80  2  0  0  0  0
 38 69  1  0  0  0  0
 38 72  1  0  0  0  0
 38 81  2  0  0  0  0
 39 42  1  0  0  0  0
 40 50  1  0  0  0  0
 41 68  1  0  0  0  0
 42 44  1  0  0  0  0
 43 45  1  0  0  0  0
 43 46  1  0  0  0  0
 44 49  1  0  0  0  0
 45 51  1  0  0  0  0
 46 69  1  0  0  0  0
 47 51  1  0  0  0  0
 47 69  1  0  0  0  0
 48 52  1  0  0  0  0
 48 75  1  0  0  0  0
 49 73  1  0  0  0  0
 50 68  1  0  0  0  0
 51 67  1  0  0  0  0
 52 64  1  0  0  0  0
 52 75  1  0  0  0  0
 54 63  1  0  0  0  0
 55 64  1  0  0  0  0
 56 64  1  0  0  0  0
 57 65  1  0  0  0  0
 58 65  1  0  0  0  0
 59 65  1  0  0  0  0
 60 76  1  0  0  0  0
 61 75  1  0  0  0  0
 62 65  1  0  0  0  0
 62 74  1  0  0  0  0
 63 76  1  0  0  0  0
 64 83  1  0  0  0  0
 66 67  1  0  0  0  0
M  CHG  2  75   1  76   1
M  ISO  4  38 100  64 101  72 100  83 101
M  END
> <Batch ID>
0141

> <Smiles>
CNC(C)C(=O)NC(C(=O)N1Cc2cc([101O:1][101C:1](C)(C)C3CN3Cc3cc(C)cc([100NH:0][100C:0](=O)N4CCCC(n5nc(-c6ccc(Oc7ccc(F)cc7F)cc6)c(C(N)=O)c5N)C4)c3)ccc2CC1C(=O)NC1CCCc2ccccc21)C(C)(C)C

> <Shape>
0.263

> <Color>
0.089

> <Negative vol penalty>
0.000

$$$$

  -OEChem-04052302543D

 87 95  0     1  0  0  0  0  0999 V2000
  -23.4440  -30.4332   19.7880 C   0  0  0  0  0  0  0  0  0  0  0  0
  -23.5425  -29.1206   20.2383 C   0  0  0  0  0  0  0  0  0  0  0  0
  -31.3457  -19.0615   20.6336 C   0  0  0  0  0  0  0  0  0  0  0  0
  -23.0654   -9.8833   19.9367 C   0  0  0  0  0  0  0  0  0  0  0  0
  -23.8387   -9.8670   22.2256 C   0  0  0  0  0  0  0  0  0  0  0  0
  -22.2545  -31.1402   19.9591 C   0  0  0  0  0  0  0  0  0  0  0  0
  -22.4519  -28.5145   20.8609 C   0  0  0  0  0  0  0  0  0  0  0  0
  -21.6362  -23.8021   19.1958 C   0  0  0  0  0  0  0  0  0  0  0  0
  -30.6219  -19.8430   21.5340 C   0  0  0  0  0  0  0  0  0  0  0  0
  -31.1729  -17.6774   20.6155 C   0  0  0  0  0  0  0  0  0  0  0  0
  -22.3187   -8.7307   20.1808 C   0  0  0  0  0  0  0  0  0  0  0  0
  -23.0920   -8.7144   22.4696 C   0  0  0  0  0  0  0  0  0  0  0  0
  -22.4676  -22.7987   19.6916 C   0  0  0  0  0  0  0  0  0  0  0  0
  -19.8645   -7.9230   23.0840 C   0  0  0  0  0  0  0  0  0  0  0  0
  -19.1142   -7.8754   24.2589 C   0  0  0  0  0  0  0  0  0  0  0  0
  -20.7450  -22.1501   21.2507 C   0  0  0  0  0  0  0  0  0  0  0  0
  -29.5524  -17.8565   22.3984 C   0  0  0  0  0  0  0  0  0  0  0  0
  -20.3528   -5.9270   24.9708 C   0  0  0  0  0  0  0  0  0  0  0  0
  -23.8254  -10.4514   20.9591 C   0  0  0  0  0  0  0  0  0  0  0  0
  -24.1759  -12.9763   20.8595 C   0  0  0  0  0  0  0  0  0  0  0  0
  -21.1456  -30.5393   20.5755 C   0  0  0  0  0  0  0  0  0  0  0  0
  -20.3548  -23.9943   19.7321 C   0  0  0  0  0  0  0  0  0  0  0  0
  -21.2469  -29.2146   21.0416 C   0  0  0  0  0  0  0  0  0  0  0  0
  -19.8983  -23.1549   20.7582 C   0  0  0  0  0  0  0  0  0  0  0  0
  -29.7252  -19.2405   22.4165 C   0  0  0  0  0  0  0  0  0  0  0  0
  -30.2763  -17.0750   21.4979 C   0  0  0  0  0  0  0  0  0  0  0  0
  -22.3320   -8.1462   21.4472 C   0  0  0  0  0  0  0  0  0  0  0  0
  -22.0232  -21.9744   20.7212 C   0  0  0  0  0  0  0  0  0  0  0  0
  -20.8588   -6.9726   22.8524 C   0  0  0  0  0  0  0  0  0  0  0  0
  -19.3584   -6.8774   25.2023 C   0  0  0  0  0  0  0  0  0  0  0  0
  -21.1030   -5.9746   23.7958 C   0  0  0  0  0  0  0  0  0  0  0  0
  -24.5974  -11.6418   20.7075 C   0  0  0  0  0  0  0  0  0  0  0  0
  -25.2687  -13.7250   20.4965 C   0  0  0  0  0  0  0  0  0  0  0  0
  -22.9098  -13.4930   21.2905 C   0  0  0  0  0  0  0  0  0  0  0  0
  -18.8900  -26.3761   21.2438 C   0  0  0  0  0  0  0  0  0  0  0  0
  -16.3021  -24.4395   20.9708 C   0  0  0  0  0  0  0  0  0  0  0  0
  -15.0772  -21.2766   20.5931 C   0  0  0  0  0  0  0  0  0  0  0  0
  -30.7396  -14.7490   20.6484 C   0  0  0  0  0  0  0  0  0  0  0  0
  -19.8964  -31.3591   20.7806 C   0  0  0  0  0  0  0  0  0  0  0  0
  -19.4602  -25.0638   19.1680 C   0  0  0  0  0  0  0  0  0  0  0  0
  -18.5236  -23.3069   21.3545 C   0  0  0  0  0  0  0  0  0  0  0  0
  -18.6653  -30.5203   21.1140 C   0  0  0  0  0  0  0  0  0  0  0  0
  -29.6025  -12.3605   18.2653 C   0  0  0  0  0  0  0  0  0  0  0  0
  -18.9974  -29.4876   22.1865 C   0  0  0  0  0  0  0  0  0  0  0  0
  -28.1643  -12.0704   18.7007 C   0  0  0  0  0  0  0  0  0  0  0  0
  -30.5254  -12.5752   19.4636 C   0  0  0  0  0  0  0  0  0  0  0  0
  -28.6293  -13.2943   20.8624 C   0  0  0  0  0  0  0  0  0  0  0  0
  -20.0777  -28.5144   21.6995 C   0  0  1  0  0  0  0  0  0  0  0  0
  -18.3679  -25.5022   20.1386 C   0  0  1  0  0  0  0  0  0  0  0  0
  -27.6489  -13.1351   19.6888 C   0  0  2  0  0  0  0  0  0  0  0  0
  -29.3845  -19.7355   24.8256 C   0  0  0  0  0  0  0  0  0  0  0  0
  -12.9192  -20.0048   20.4429 C   0  0  0  0  0  0  0  0  0  0  0  0
  -15.9274  -24.7240   23.9855 C   0  0  0  0  0  0  0  0  0  0  0  0
  -14.4042  -22.7383   23.9133 C   0  0  0  0  0  0  0  0  0  0  0  0
  -13.8095  -24.8105   22.6583 C   0  0  0  0  0  0  0  0  0  0  0  0
  -27.1461  -20.2657   20.7707 C   0  0  0  0  0  0  0  0  0  0  0  0
  -26.9338  -22.2563   22.2430 C   0  0  0  0  0  0  0  0  0  0  0  0
  -24.4810  -20.9520   23.6460 C   0  0  0  0  0  0  0  0  0  0  0  0
  -24.6732  -18.9728   22.1651 C   0  0  0  0  0  0  0  0  0  0  0  0
  -15.7085  -20.2987   17.8721 C   0  0  0  0  0  0  0  0  0  0  0  0
  -27.3908  -19.9718   23.2914 C   0  0  0  0  0  0  0  0  0  0  0  0
  -24.2411  -21.2322   21.1523 C   0  0  0  0  0  0  0  0  0  1  0  0
  -28.9380  -20.0912   23.3958 C   0  0  2  0  0  0  0  0  0  0  0  0
  -15.6905  -23.3471   21.8143 C   0  0  1  0  0  0  0  0  0  0  0  0
  -14.0182  -20.7108   19.6642 C   0  0  2  0  0  0  0  0  0  0  0  0
  -14.9846  -23.9031   23.0832 C   0  0  0  0  0  0  0  0  0  0  0  0
  -26.6233  -20.7428   22.1484 C   0  0  0  0  0  0  0  0  0  0  0  0
  -25.0264  -20.4813   22.2729 C   0  0  0  0  0  0  0  0  0  0  0  0
  -25.8594  -11.5450   20.2809 N   0  0  0  0  0  0  0  0  0  0  0  0
  -26.2403  -12.8283   20.1618 N   0  0  0  0  0  0  0  0  0  0  0  0
  -17.6885  -24.3710   20.7734 N   0  0  0  0  0  0  0  0  0  0  0  0
  -29.9754  -13.6002   20.3534 N   0  0  0  0  0  0  0  0  0  0  0  0
  -25.4836  -15.0563   20.4341 N   0  0  0  0  0  0  0  0  0  0  0  0
  -21.8965  -12.5845   21.6256 N   0  0  0  0  0  0  0  0  0  0  0  0
  -30.1005  -15.6691   21.4788 N   0  0  0  0  0  0  0  0  0  0  0  0
  -19.5063  -27.5319   20.8037 N   0  0  0  0  0  0  0  0  0  0  0  0
  -14.8151  -22.5884   20.9276 N   0  0  0  0  0  0  0  0  0  0  0  0
  -14.6273  -19.7326   18.7191 N   0  3  0  0  0  0  0  0  0  0  0  0
  -22.6784  -14.7239   21.3602 O   0  0  0  0  0  0  0  0  0  0  0  0
  -18.7433  -26.0281   22.4096 O   0  0  0  0  0  0  0  0  0  0  0  0
  -15.5753  -25.3172   20.4982 O   0  0  0  0  0  0  0  0  0  0  0  0
  -16.0387  -20.6195   20.9858 O   0  0  0  0  0  0  0  0  0  0  0  0
  -31.8666  -14.9178   20.1757 O   0  0  0  0  0  0  0  0  0  0  0  0
  -21.6033   -7.0217   21.6858 O   0  0  0  0  0  0  0  0  0  0  0  0
  -22.8376  -20.9890   21.2103 O   0  0  0  0  0  0  0  0  0  1  0  0
  -18.6389   -6.8327   26.3313 F   0  0  0  0  0  0  0  0  0  0  0  0
  -22.0577   -5.0594   23.5794 F   0  0  0  0  0  0  0  0  0  0  0  0
  1  2  1  0  0  0  0
  1  6  2  0  0  0  0
  2  7  2  0  0  0  0
  3  9  2  0  0  0  0
  3 10  1  0  0  0  0
  4 11  2  0  0  0  0
  4 19  1  0  0  0  0
  5 12  1  0  0  0  0
  5 19  2  0  0  0  0
  6 21  1  0  0  0  0
  7 23  1  0  0  0  0
  8 13  2  0  0  0  0
  8 22  1  0  0  0  0
  9 25  1  0  0  0  0
 10 26  2  0  0  0  0
 11 27  1  0  0  0  0
 12 27  2  0  0  0  0
 13 28  1  0  0  0  0
 14 15  2  0  0  0  0
 14 29  1  0  0  0  0
 15 30  1  0  0  0  0
 16 24  1  0  0  0  0
 16 28  2  0  0  0  0
 17 25  2  0  0  0  0
 17 26  1  0  0  0  0
 18 30  2  0  0  0  0
 18 31  1  0  0  0  0
 19 32  1  0  0  0  0
 20 32  1  0  0  0  0
 20 33  2  0  0  0  0
 20 34  1  0  0  0  0
 21 23  2  0  0  0  0
 21 39  1  0  0  0  0
 22 24  2  0  0  0  0
 22 40  1  0  0  0  0
 23 48  1  0  0  0  0
 24 41  1  0  0  0  0
 25 63  1  0  0  0  0
 26 75  1  0  0  0  0
 27 84  1  0  0  0  0
 28 85  1  0  0  0  0
 29 31  2  0  0  0  0
 29 84  1  0  0  0  0
 30 86  1  0  0  0  0
 31 87  1  0  0  0  0
 32 69  2  0  0  0  0
 33 70  1  0  0  0  0
 33 73  1  0  0  0  0
 34 74  1  0  0  0  0
 34 79  2  0  0  0  0
 35 49  1  0  0  0  0
 35 76  1  0  0  0  0
 35 80  2  0  0  0  0
 36 64  1  0  0  0  0
 36 71  1  0  0  0  0
 36 81  2  0  0  0  0
 37 65  1  0  0  0  0
 37 77  1  0  0  0  0
 37 82  2  0  0  0  0
 38 72  1  0  0  0  0
 38 75  1  0  0  0  0
 38 83  2  0  0  0  0
 39 42  1  0  0  0  0
 40 49  1  0  0  0  0
 41 71  1  0  0  0  0
 42 44  1  0  0  0  0
 43 45  1  0  0  0  0
 43 46  1  0  0  0  0
 44 48  1  0  0  0  0
 45 50  1  0  0  0  0
 46 72  1  0  0  0  0
 47 50  1  0  0  0  0
 47 72  1  0  0  0  0
 48 76  1  0  0  0  0
 49 71  1  0  0  0  0
 50 70  1  0  0  0  0
 51 63  1  0  0  0  0
 52 65  1  0  0  0  0
 53 66  1  0  0  0  0
 54 66  1  0  0  0  0
 55 66  1  0  0  0  0
 56 67  1  0  0  0  0
 57 67  1  0  0  0  0
 58 68  1  0  0  0  0
 59 68  1  0  0  0  0
 60 78  1  0  0  0  0
 61 63  1  0  0  0  0
 61 67  1  0  0  0  0
 62 68  1  0  0  0  0
 62 85  1  0  0  0  0
 64 66  1  0  0  0  0
 64 77  1  0  0  0  0
 65 78  1  0  0  0  0
 67 68  1  0  0  0  0
 69 70  1  0  0  0  0
M  CHG  1  78   1
M  ISO  4  38 100  62 101  75 100  85 101
M  END
> <Batch ID>
0141

> <Smiles>
CNC(C)C(=O)NC(C(=O)N1Cc2cc([101O:1][101CH2:1]C(C)(C)C(C)(C)CC(C)c3cccc([100NH:0][100C:0](=O)N4CCCC(n5nc(-c6ccc(Oc7ccc(F)cc7F)cc6)c(C(N)=O)c5N)C4)c3)ccc2CC1C(=O)NC1CCCc2ccccc21)C(C)(C)C

> <Shape>
0.243

> <Color>
0.182

> <Negative vol penalty>
0.000

$$$$

  -OEChem-04052302543D

 88 96  0     1  0  0  0  0  0999 V2000
  -40.7400  -21.4696   12.1055 C   0  0  0  0  0  0  0  0  0  0  0  0
  -40.6608  -20.9662   13.4000 C   0  0  0  0  0  0  0  0  0  0  0  0
  -23.0029   -9.8894   19.9807 C   0  0  0  0  0  0  0  0  0  0  0  0
  -23.7284   -9.9412   22.2846 C   0  0  0  0  0  0  0  0  0  0  0  0
  -39.9934  -22.5915   11.7482 C   0  0  0  0  0  0  0  0  0  0  0  0
  -39.8356  -21.5852   14.3383 C   0  0  0  0  0  0  0  0  0  0  0  0
  -36.6663  -18.8645   18.8171 C   0  0  0  0  0  0  0  0  0  0  0  0
  -22.2384   -8.7535   20.2470 C   0  0  0  0  0  0  0  0  0  0  0  0
  -22.9638   -8.8053   22.5509 C   0  0  0  0  0  0  0  0  0  0  0  0
  -36.9226  -18.6928   20.1767 C   0  0  0  0  0  0  0  0  0  0  0  0
  -23.2137   -5.4669   22.0784 C   0  0  0  0  0  0  0  0  0  0  0  0
  -23.8030   -4.4506   22.8302 C   0  0  0  0  0  0  0  0  0  0  0  0
  -31.8804  -18.3380   24.1584 C   0  0  0  0  0  0  0  0  0  0  0  0
  -35.5917  -20.6439   20.6678 C   0  0  0  0  0  0  0  0  0  0  0  0
  -32.0509  -16.5447   22.5484 C   0  0  0  0  0  0  0  0  0  0  0  0
  -22.0790   -4.6903   24.5058 C   0  0  0  0  0  0  0  0  0  0  0  0
  -23.7480  -10.4832   20.9995 C   0  0  0  0  0  0  0  0  0  0  0  0
  -30.4953  -18.3532   23.9949 C   0  0  0  0  0  0  0  0  0  0  0  0
  -24.1291  -12.9994   20.8239 C   0  0  0  0  0  0  0  0  0  0  0  0
  -39.1513  -23.2188   12.6799 C   0  0  0  0  0  0  0  0  0  0  0  0
  -35.8784  -19.9353   18.3710 C   0  0  0  0  0  0  0  0  0  0  0  0
  -39.0780  -22.7174   13.9935 C   0  0  0  0  0  0  0  0  0  0  0  0
  -35.3248  -20.8255   19.3022 C   0  0  0  0  0  0  0  0  0  0  0  0
  -29.8879  -17.4641   23.1081 C   0  0  0  0  0  0  0  0  0  0  0  0
  -32.6582  -17.4338   23.4352 C   0  0  0  0  0  0  0  0  0  0  0  0
  -30.6657  -16.5599   22.3849 C   0  0  0  0  0  0  0  0  0  0  0  0
  -22.2188   -8.2115   21.5321 C   0  0  0  0  0  0  0  0  0  0  0  0
  -36.3877  -19.5842   21.1021 C   0  0  0  0  0  0  0  0  0  0  0  0
  -22.0570   -6.0950   22.5403 C   0  0  0  0  0  0  0  0  0  0  0  0
  -23.2357   -4.0622   24.0439 C   0  0  0  0  0  0  0  0  0  0  0  0
  -21.4896   -5.7067   23.7539 C   0  0  0  0  0  0  0  0  0  0  0  0
  -24.5385  -11.6562   20.7250 C   0  0  0  0  0  0  0  0  0  0  0  0
  -25.2375  -13.7240   20.4595 C   0  0  0  0  0  0  0  0  0  0  0  0
  -29.7095  -19.3087   24.7644 C   0  0  0  0  0  0  0  0  0  0  0  0
  -22.8602  -13.5436   21.2107 C   0  0  0  0  0  0  0  0  0  0  0  0
  -36.3706  -22.4530   16.4940 C   0  0  0  0  0  0  0  0  0  0  0  0
  -33.1812  -22.8866   16.8969 C   0  0  0  0  0  0  0  0  0  0  0  0
  -30.4009  -22.3423   18.7996 C   0  0  0  0  0  0  0  0  0  0  0  0
  -34.8332  -18.2270   24.4338 C   0  0  0  0  0  0  0  0  0  0  0  0
  -30.7154  -14.6942   20.6928 C   0  0  0  0  0  0  0  0  0  0  0  0
  -38.3996  -24.4572   12.2604 C   0  0  0  0  0  0  0  0  0  0  0  0
  -35.5893  -20.0912   16.9031 C   0  0  0  0  0  0  0  0  0  0  0  0
  -34.4557  -21.9796   18.8764 C   0  0  0  0  0  0  0  0  0  0  0  0
  -37.2630  -24.8303   13.2087 C   0  0  0  0  0  0  0  0  0  0  0  0
  -29.6009  -12.2399   18.3666 C   0  0  0  0  0  0  0  0  0  0  0  0
  -37.7343  -24.7663   14.6580 C   0  0  0  0  0  0  0  0  0  0  0  0
  -28.1508  -11.9797   18.7809 C   0  0  0  0  0  0  0  0  0  0  0  0
  -30.5012  -12.4846   19.5763 C   0  0  0  0  0  0  0  0  0  0  0  0
  -28.5847  -13.2700   20.9102 C   0  0  0  0  0  0  0  0  0  0  0  0
  -38.1753  -23.3462   15.0326 C   0  0  1  0  0  0  0  0  0  0  0  0
  -35.1973  -21.5146   16.5192 C   0  0  1  0  0  0  0  0  0  0  0  0
  -27.6272  -13.0822   19.7221 C   0  0  2  0  0  0  0  0  0  0  0  0
  -28.4009  -17.4807   22.9343 C   0  0  0  0  0  0  0  0  0  0  0  0
  -29.7852  -19.2200   26.2598 C   0  0  0  0  0  0  0  0  0  0  0  0
  -27.9456  -22.8526   18.8909 C   0  0  0  0  0  0  0  0  0  0  0  0
  -36.6024  -16.4624   24.7706 C   0  0  0  0  0  0  0  0  0  0  0  0
  -37.1390  -18.8756   25.2659 C   0  0  0  0  0  0  0  0  0  0  0  0
  -33.8089  -25.7332   17.7984 C   0  0  0  0  0  0  0  0  0  0  0  0
  -31.5001  -25.8641   18.7577 C   0  0  0  0  0  0  0  0  0  0  0  0
  -31.8128  -25.5279   16.3058 C   0  0  0  0  0  0  0  0  0  0  0  0
  -29.6823  -19.4734   18.6882 C   0  0  0  0  0  0  0  0  0  0  0  0
  -36.8431  -18.0848   22.8910 C   0  0  0  0  0  0  0  0  0  1  0  0
  -32.3202  -23.6259   17.8924 C   0  0  1  0  0  0  0  0  0  0  0  0
  -29.0073  -21.8647   18.4332 C   0  0  2  0  0  0  0  0  0  0  0  0
  -36.3528  -17.9214   24.3495 C   0  0  0  0  0  0  0  0  0  0  0  0
  -32.3784  -25.1673   17.6967 C   0  0  0  0  0  0  0  0  0  0  0  0
  -25.8079  -11.5319   20.3286 N   0  0  0  0  0  0  0  0  0  0  0  0
  -26.2057  -12.8063   20.1751 N   0  0  0  0  0  0  0  0  0  0  0  0
  -34.2072  -22.0933   17.4297 N   0  0  0  0  0  0  0  0  0  0  0  0
  -29.9445  -13.5444   20.4198 N   0  0  0  0  0  0  0  0  0  0  0  0
  -25.4688  -15.0501   20.3576 N   0  0  0  0  0  0  0  0  0  0  0  0
  -21.8300  -12.6577   21.5543 N   0  0  0  0  0  0  0  0  0  0  0  0
  -34.0648  -17.4188   23.6008 N   0  0  0  0  0  0  0  0  0  0  0  0
  -30.0697  -15.6482   21.4786 N   0  0  0  0  0  0  0  0  0  0  0  0
  -37.0221  -22.5067   15.2766 N   0  0  0  0  0  0  0  0  0  0  0  0
  -30.9812  -23.0588   17.7744 N   0  0  0  0  0  0  0  0  0  0  0  0
  -28.7277  -20.5461   19.0691 N   0  3  0  0  0  0  0  0  0  0  0  0
  -28.9860  -20.1784   24.2783 O   0  0  0  0  0  0  0  0  0  0  0  0
  -22.6415  -14.7786   21.2347 O   0  0  0  0  0  0  0  0  0  0  0  0
  -36.6623  -23.0828   17.5040 O   0  0  0  0  0  0  0  0  0  0  0  0
  -32.9475  -23.0028   15.6913 O   0  0  0  0  0  0  0  0  0  0  0  0
  -30.9211  -22.1067   19.8879 O   0  0  0  0  0  0  0  0  0  0  0  0
  -34.4044  -19.1122   25.1718 O   0  0  0  0  0  0  0  0  0  0  0  0
  -31.8538  -14.8351   20.2386 O   0  0  0  0  0  0  0  0  0  0  0  0
  -21.4726   -7.1033   21.7923 O   0  0  0  0  0  0  0  0  0  0  0  0
  -36.6368  -19.4193   22.4297 O   0  0  0  0  0  0  0  0  0  1  0  0
  -23.8009   -3.0852   24.7650 F   0  0  0  0  0  0  0  0  0  0  0  0
  -20.3778   -6.3056   24.2022 F   0  0  0  0  0  0  0  0  0  0  0  0
  1  2  1  0  0  0  0
  1  5  2  0  0  0  0
  2  6  2  0  0  0  0
  3  8  2  0  0  0  0
  3 17  1  0  0  0  0
  4  9  1  0  0  0  0
  4 17  2  0  0  0  0
  5 20  1  0  0  0  0
  6 22  1  0  0  0  0
  7 10  2  0  0  0  0
  7 21  1  0  0  0  0
  8 27  1  0  0  0  0
  9 27  2  0  0  0  0
 10 28  1  0  0  0  0
 11 12  2  0  0  0  0
 11 29  1  0  0  0  0
 12 30  1  0  0  0  0
 13 18  1  0  0  0  0
 13 25  2  0  0  0  0
 14 23  1  0  0  0  0
 14 28  2  0  0  0  0
 15 25  1  0  0  0  0
 15 26  2  0  0  0  0
 16 30  2  0  0  0  0
 16 31  1  0  0  0  0
 17 32  1  0  0  0  0
 18 24  2  0  0  0  0
 18 34  1  0  0  0  0
 19 32  1  0  0  0  0
 19 33  2  0  0  0  0
 19 35  1  0  0  0  0
 20 22  2  0  0  0  0
 20 41  1  0  0  0  0
 21 23  2  0  0  0  0
 21 42  1  0  0  0  0
 22 50  1  0  0  0  0
 23 43  1  0  0  0  0
 24 26  1  0  0  0  0
 24 53  1  0  0  0  0
 25 73  1  0  0  0  0
 26 74  1  0  0  0  0
 27 85  1  0  0  0  0
 28 86  1  0  0  0  0
 29 31  2  0  0  0  0
 29 85  1  0  0  0  0
 30 87  1  0  0  0  0
 31 88  1  0  0  0  0
 32 67  2  0  0  0  0
 33 68  1  0  0  0  0
 33 71  1  0  0  0  0
 34 54  1  0  0  0  0
 34 78  2  0  0  0  0
 35 72  1  0  0  0  0
 35 79  2  0  0  0  0
 36 51  1  0  0  0  0
 36 75  1  0  0  0  0
 36 80  2  0  0  0  0
 37 63  1  0  0  0  0
 37 69  1  0  0  0  0
 37 81  2  0  0  0  0
 38 64  1  0  0  0  0
 38 76  1  0  0  0  0
 38 82  2  0  0  0  0
 39 65  1  0  0  0  0
 39 73  1  0  0  0  0
 39 83  2  0  0  0  0
 40 70  1  0  0  0  0
 40 74  1  0  0  0  0
 40 84  2  0  0  0  0
 41 44  1  0  0  0  0
 42 51  1  0  0  0  0
 43 69  1  0  0  0  0
 44 46  1  0  0  0  0
 45 47  1  0  0  0  0
 45 48  1  0  0  0  0
 46 50  1  0  0  0  0
 47 52  1  0  0  0  0
 48 70  1  0  0  0  0
 49 52  1  0  0  0  0
 49 70  1  0  0  0  0
 50 75  1  0  0  0  0
 51 69  1  0  0  0  0
 52 68  1  0  0  0  0
 55 64  1  0  0  0  0
 56 65  1  0  0  0  0
 57 65  1  0  0  0  0
 58 66  1  0  0  0  0
 59 66  1  0  0  0  0
 60 66  1  0  0  0  0
 61 77  1  0  0  0  0
 62 65  1  0  0  0  0
 62 86  1  0  0  0  0
 63 66  1  0  0  0  0
 63 76  1  0  0  0  0
 64 77  1  0  0  0  0
 67 68  1  0  0  0  0
M  CHG  1  77   1
M  ISO  4  40 100  62 101  74 100  86 101
M  END
> <Batch ID>
0141

> <Smiles>
CNC(C)C(=O)NC(C(=O)N1Cc2cc([101O:1][101CH2:1]C(C)(C)C(=O)Nc3cc([100NH:0][100C:0](=O)N4CCCC(n5nc(-c6ccc(Oc7ccc(F)cc7F)cc6)c(C(N)=O)c5N)C4)c(C)c(C(C)=O)c3)ccc2CC1C(=O)NC1CCCc2ccccc21)C(C)(C)C

> <Shape>
0.212

> <Color>
0.190

> <Negative vol penalty>
0.000

$$$$

  -OEChem-04052302543D

 88 96  0     1  0  0  0  0  0999 V2000
  -21.3110  -19.1612   26.4290 C   0  0  0  0  0  0  0  0  0  0  0  0
  -22.5945  -19.6974   26.4513 C   0  0  0  0  0  0  0  0  0  0  0  0
  -25.8018  -13.8757   21.7488 C   0  0  0  0  0  0  0  0  0  0  0  0
  -24.7599  -14.9495   19.8518 C   0  0  0  0  0  0  0  0  0  0  0  0
  -30.3069  -24.9909   16.8678 C   0  0  0  0  0  0  0  0  0  0  0  0
  -20.4286  -19.5103   25.4075 C   0  0  0  0  0  0  0  0  0  0  0  0
  -22.9967  -20.5823   25.4515 C   0  0  0  0  0  0  0  0  0  0  0  0
  -27.1829  -26.3017   24.4114 C   0  0  0  0  0  0  0  0  0  0  0  0
  -30.5860  -23.6379   16.6755 C   0  0  0  0  0  0  0  0  0  0  0  0
  -24.7815  -12.9249   21.7710 C   0  0  0  0  0  0  0  0  0  0  0  0
  -23.7396  -13.9986   19.8740 C   0  0  0  0  0  0  0  0  0  0  0  0
  -28.2043  -26.7511   23.5757 C   0  0  0  0  0  0  0  0  0  0  0  0
  -22.6437  -10.0032   22.1015 C   0  0  0  0  0  0  0  0  0  0  0  0
  -23.0070   -8.6657   22.2585 C   0  0  0  0  0  0  0  0  0  0  0  0
  -29.3702  -24.4894   19.0376 C   0  0  0  0  0  0  0  0  0  0  0  0
  -26.5683  -27.3437   21.9049 C   0  0  0  0  0  0  0  0  0  0  0  0
  -24.3141   -8.7827   20.2300 C   0  0  0  0  0  0  0  0  0  0  0  0
  -25.7910  -14.8880   20.7892 C   0  0  0  0  0  0  0  0  0  0  0  0
  -29.6990  -25.4167   18.0489 C   0  0  0  0  0  0  0  0  0  0  0  0
  -28.0590  -15.7987   20.0580 C   0  0  0  0  0  0  0  0  0  0  0  0
  -20.8170  -20.4075   24.4001 C   0  0  0  0  0  0  0  0  0  0  0  0
  -25.8451  -26.3599   23.9950 C   0  0  0  0  0  0  0  0  0  0  0  0
  -22.1191  -20.9428   24.4149 C   0  0  0  0  0  0  0  0  0  0  0  0
  -25.5316  -26.8968   22.7382 C   0  0  0  0  0  0  0  0  0  0  0  0
  -30.2572  -22.7106   17.6642 C   0  0  0  0  0  0  0  0  0  0  0  0
  -29.6493  -23.1363   18.8453 C   0  0  0  0  0  0  0  0  0  0  0  0
  -23.7504  -12.9863   20.8336 C   0  0  0  0  0  0  0  0  0  0  0  0
  -27.8974  -27.2695   22.3211 C   0  0  0  0  0  0  0  0  0  0  0  0
  -23.1156  -10.7305   21.0088 C   0  0  0  0  0  0  0  0  0  0  0  0
  -23.8422   -8.0554   21.3227 C   0  0  0  0  0  0  0  0  0  0  0  0
  -23.9508  -10.1203   20.0730 C   0  0  0  0  0  0  0  0  0  0  0  0
  -26.8444  -15.8708   20.7661 C   0  0  0  0  0  0  0  0  0  0  0  0
  -28.7057  -16.9708   20.3652 C   0  0  0  0  0  0  0  0  0  0  0  0
  -30.3398  -27.6343   18.8364 C   0  0  0  0  0  0  0  0  0  0  0  0
  -29.4024  -26.8581   18.2528 C   0  0  0  0  0  0  0  0  0  0  0  0
  -28.5579  -14.7646   19.1992 C   0  0  0  0  0  0  0  0  0  0  0  0
  -23.5635  -24.2099   23.4701 C   0  0  0  0  0  0  0  0  0  0  0  0
  -21.7195  -26.8445   23.0448 C   0  0  0  0  0  0  0  0  0  0  0  0
  -22.0515  -30.0606   21.4436 C   0  0  0  0  0  0  0  0  0  0  0  0
  -28.7008  -22.4917   21.0884 C   0  0  0  0  0  0  0  0  0  0  0  0
  -19.8441  -20.7183   23.2903 C   0  0  0  0  0  0  0  0  0  0  0  0
  -24.7527  -25.8958   24.9190 C   0  0  0  0  0  0  0  0  0  0  0  0
  -24.1097  -27.0000   22.2522 C   0  0  0  0  0  0  0  0  0  0  0  0
  -20.2227  -21.9531   22.4765 C   0  0  0  0  0  0  0  0  0  0  0  0
  -27.6620  -20.4940   23.8465 C   0  0  0  0  0  0  0  0  0  0  0  0
  -21.7023  -21.9162   22.1074 C   0  0  0  0  0  0  0  0  0  0  0  0
  -27.4566  -19.1072   23.2328 C   0  0  0  0  0  0  0  0  0  0  0  0
  -27.2361  -21.6063   22.8900 C   0  0  0  0  0  0  0  0  0  0  0  0
  -27.6362  -20.1550   20.9399 C   0  0  0  0  0  0  0  0  0  0  0  0
  -22.5842  -21.9252   23.3619 C   0  0  1  0  0  0  0  0  0  0  0  0
  -23.4665  -25.5273   24.1861 C   0  0  1  0  0  0  0  0  0  0  0  0
  -28.1119  -19.0040   21.8415 C   0  0  2  0  0  0  0  0  0  0  0  0
  -28.0088  -27.8523   16.3696 C   0  0  0  0  0  0  0  0  0  0  0  0
  -31.3099  -29.8564   18.3591 C   0  0  0  0  0  0  0  0  0  0  0  0
  -20.9240  -32.2492   21.9296 C   0  0  0  0  0  0  0  0  0  0  0  0
  -19.7247  -25.9593   20.9124 C   0  0  0  0  0  0  0  0  0  0  0  0
  -19.6259  -28.3319   20.1192 C   0  0  0  0  0  0  0  0  0  0  0  0
  -18.8936  -27.7611   22.4346 C   0  0  0  0  0  0  0  0  0  0  0  0
  -28.0437  -29.9490   21.3101 C   0  0  0  0  0  0  0  0  0  0  0  0
  -29.7045  -29.3150   23.0727 C   0  0  0  0  0  0  0  0  0  0  0  0
  -24.6415  -31.4626   21.7358 C   0  0  0  0  0  0  0  0  0  0  0  0
  -28.0413  -27.3432   17.8056 C   0  0  0  0  0  0  0  0  0  0  0  0
  -30.4541  -29.3859   20.6764 C   0  0  0  0  0  0  0  0  0  0  0  0
  -30.2417  -29.1074   19.1671 C   0  0  2  0  0  0  0  0  0  0  0  0
  -21.3570  -27.7170   21.8674 C   0  0  1  0  0  0  0  0  0  0  0  0
  -22.1756  -31.4089   22.1299 C   0  0  2  0  0  0  0  0  0  0  0  0
  -19.9252  -27.4285   21.3345 C   0  0  0  0  0  0  0  0  0  0  0  0
  -29.2669  -29.0834   21.6207 C   0  0  0  0  0  0  0  0  0  1  0  0
  -26.7244  -16.9994   21.4703 N   0  0  0  0  0  0  0  0  0  0  0  0
  -27.8718  -17.6472   21.2062 N   0  0  0  0  0  0  0  0  0  0  0  0
  -23.0776  -26.5272   23.1896 N   0  0  0  0  0  0  0  0  0  0  0  0
  -27.8997  -21.4462   21.5943 N   0  0  0  0  0  0  0  0  0  0  0  0
  -30.5510  -21.3453   17.4492 N   0  0  0  0  0  0  0  0  0  0  0  0
  -29.9007  -17.4785   19.9954 N   0  0  0  0  0  0  0  0  0  0  0  0
  -27.7650  -13.6277   18.9921 N   0  0  0  0  0  0  0  0  0  0  0  0
  -29.3072  -22.2127   19.8640 N   0  0  0  0  0  0  0  0  0  0  0  0
  -22.6633  -23.2604   23.9145 N   0  0  0  0  0  0  0  0  0  0  0  0
  -21.5674  -29.0943   22.2999 N   0  0  0  0  0  0  0  0  0  0  0  0
  -23.3399  -32.1626   21.5845 N   0  3  0  0  0  0  0  0  0  0  0  0
  -29.6810  -14.8391   18.6454 O   0  0  0  0  0  0  0  0  0  0  0  0
  -24.3927  -24.0660   22.5793 O   0  0  0  0  0  0  0  0  0  0  0  0
  -20.8315  -26.4645   23.8120 O   0  0  0  0  0  0  0  0  0  0  0  0
  -22.3504  -29.8832   20.2648 O   0  0  0  0  0  0  0  0  0  0  0  0
  -28.8607  -23.5455   21.7095 O   0  0  0  0  0  0  0  0  0  0  0  0
  -22.7547  -12.0586   20.8548 O   0  0  0  0  0  0  0  0  0  0  0  0
  -28.8980  -27.7107   21.4986 O   0  0  0  0  0  0  0  0  0  1  0  0
  -24.1922   -6.7714   21.4744 F   0  0  0  0  0  0  0  0  0  0  0  0
  -24.4083  -10.8142   19.0218 F   0  0  0  0  0  0  0  0  0  0  0  0
  1  2  1  0  0  0  0
  1  6  2  0  0  0  0
  2  7  2  0  0  0  0
  3 10  2  0  0  0  0
  3 18  1  0  0  0  0
  4 11  1  0  0  0  0
  4 18  2  0  0  0  0
  5  9  2  0  0  0  0
  5 19  1  0  0  0  0
  6 21  1  0  0  0  0
  7 23  1  0  0  0  0
  8 12  2  0  0  0  0
  8 22  1  0  0  0  0
  9 25  1  0  0  0  0
 10 27  1  0  0  0  0
 11 27  2  0  0  0  0
 12 28  1  0  0  0  0
 13 14  2  0  0  0  0
 13 29  1  0  0  0  0
 14 30  1  0  0  0  0
 15 19  2  0  0  0  0
 15 26  1  0  0  0  0
 16 24  1  0  0  0  0
 16 28  2  0  0  0  0
 17 30  2  0  0  0  0
 17 31  1  0  0  0  0
 18 32  1  0  0  0  0
 19 35  1  0  0  0  0
 20 32  1  0  0  0  0
 20 33  2  0  0  0  0
 20 36  1  0  0  0  0
 21 23  2  0  0  0  0
 21 41  1  0  0  0  0
 22 24  2  0  0  0  0
 22 42  1  0  0  0  0
 23 50  1  0  0  0  0
 24 43  1  0  0  0  0
 25 26  2  0  0  0  0
 25 73  1  0  0  0  0
 26 76  1  0  0  0  0
 27 85  1  0  0  0  0
 28 86  1  0  0  0  0
 29 31  2  0  0  0  0
 29 85  1  0  0  0  0
 30 87  1  0  0  0  0
 31 88  1  0  0  0  0
 32 69  2  0  0  0  0
 33 70  1  0  0  0  0
 33 74  1  0  0  0  0
 34 35  2  0  0  0  0
 34 64  1  0  0  0  0
 35 62  1  0  0  0  0
 36 75  1  0  0  0  0
 36 80  2  0  0  0  0
 37 51  1  0  0  0  0
 37 77  1  0  0  0  0
 37 81  2  0  0  0  0
 38 65  1  0  0  0  0
 38 71  1  0  0  0  0
 38 82  2  0  0  0  0
 39 66  1  0  0  0  0
 39 78  1  0  0  0  0
 39 83  2  0  0  0  0
 40 72  1  0  0  0  0
 40 76  1  0  0  0  0
 40 84  2  0  0  0  0
 41 44  1  0  0  0  0
 42 51  1  0  0  0  0
 43 71  1  0  0  0  0
 44 46  1  0  0  0  0
 45 47  1  0  0  0  0
 45 48  1  0  0  0  0
 46 50  1  0  0  0  0
 47 52  1  0  0  0  0
 48 72  1  0  0  0  0
 49 52  1  0  0  0  0
 49 72  1  0  0  0  0
 50 77  1  0  0  0  0
 51 71  1  0  0  0  0
 52 70  1  0  0  0  0
 53 62  1  0  0  0  0
 54 64  1  0  0  0  0
 55 66  1  0  0  0  0
 56 67  1  0  0  0  0
 57 67  1  0  0  0  0
 58 67  1  0  0  0  0
 59 68  1  0  0  0  0
 60 68  1  0  0  0  0
 61 79  1  0  0  0  0
 63 64  1  0  0  0  0
 63 68  1  0  0  0  0
 65 67  1  0  0  0  0
 65 78  1  0  0  0  0
 66 79  1  0  0  0  0
 68 86  1  0  0  0  0
 69 70  1  0  0  0  0
M  CHG  1  79   1
M  ISO  4  40 100  68 101  76 100  86 101
M  END
> <Batch ID>
0141

> <Smiles>
CCC(=CC(C)C[101C:1](C)(C)[101O:1]c1ccc2c(c1)CN(C(=O)C(NC(=O)C(C)NC)C(C)(C)C)C(C(=O)NC1CCCc3ccccc31)C2)c1ccc(N)c([100NH:0][100C:0](=O)N2CCCC(n3nc(-c4ccc(Oc5ccc(F)cc5F)cc4)c(C(N)=O)c3N)C2)c1

> <Shape>
0.241

> <Color>
0.049

> <Negative vol penalty>
0.000

$$$$

  -OEChem-04052302543D

 85 93  0     1  0  0  0  0  0999 V2000
  -23.8389  -24.0306   18.5808 C   0  0  0  0  0  0  0  0  0  0  0  0
  -24.9024  -23.2627   19.0441 C   0  0  0  0  0  0  0  0  0  0  0  0
  -31.3796  -24.6564   24.3653 C   0  0  0  0  0  0  0  0  0  0  0  0
  -21.9082  -28.8912   21.4507 C   0  0  0  0  0  0  0  0  0  0  0  0
  -23.2025  -28.6739   23.4792 C   0  0  0  0  0  0  0  0  0  0  0  0
  -22.5285  -23.6464   18.8621 C   0  0  0  0  0  0  0  0  0  0  0  0
  -24.6560  -22.1106   19.7901 C   0  0  0  0  0  0  0  0  0  0  0  0
  -27.5069  -18.1941   18.3141 C   0  0  0  0  0  0  0  0  0  0  0  0
  -31.9827  -23.4676   23.9549 C   0  0  0  0  0  0  0  0  0  0  0  0
  -30.6587  -25.4246   23.4510 C   0  0  0  0  0  0  0  0  0  0  0  0
  -20.7454  -28.5921   22.1606 C   0  0  0  0  0  0  0  0  0  0  0  0
  -22.0396  -28.3749   24.1891 C   0  0  0  0  0  0  0  0  0  0  0  0
  -28.8345  -18.1769   18.7394 C   0  0  0  0  0  0  0  0  0  0  0  0
  -18.6077  -30.1984   24.2301 C   0  0  0  0  0  0  0  0  0  0  0  0
  -17.4828  -30.9886   23.9941 C   0  0  0  0  0  0  0  0  0  0  0  0
  -28.2492  -16.6170   20.4839 C   0  0  0  0  0  0  0  0  0  0  0  0
  -31.1440  -23.8151   21.7159 C   0  0  0  0  0  0  0  0  0  0  0  0
  -16.2607  -29.0334   23.2726 C   0  0  0  0  0  0  0  0  0  0  0  0
  -23.1368  -28.9320   22.1100 C   0  0  0  0  0  0  0  0  0  0  0  0
  -24.8970  -30.5138   21.1573 C   0  0  0  0  0  0  0  0  0  0  0  0
  -22.2657  -22.4838   19.6037 C   0  0  0  0  0  0  0  0  0  0  0  0
  -26.5368  -17.4300   18.9784 C   0  0  0  0  0  0  0  0  0  0  0  0
  -23.3409  -21.7112   20.0827 C   0  0  0  0  0  0  0  0  0  0  0  0
  -26.9104  -16.6243   20.0634 C   0  0  0  0  0  0  0  0  0  0  0  0
  -31.8649  -23.0469   22.6302 C   0  0  0  0  0  0  0  0  0  0  0  0
  -30.5409  -25.0040   22.1264 C   0  0  0  0  0  0  0  0  0  0  0  0
  -20.8111  -28.3339   23.5298 C   0  0  0  0  0  0  0  0  0  0  0  0
  -29.2053  -17.3906   19.8262 C   0  0  0  0  0  0  0  0  0  0  0  0
  -18.5591  -28.8256   23.9873 C   0  0  0  0  0  0  0  0  0  0  0  0
  -16.3093  -30.4061   23.5154 C   0  0  0  0  0  0  0  0  0  0  0  0
  -17.3856  -28.2431   23.5086 C   0  0  0  0  0  0  0  0  0  0  0  0
  -24.3384  -29.2404   21.3771 C   0  0  0  0  0  0  0  0  0  0  0  0
  -26.0249  -30.2700   20.4125 C   0  0  0  0  0  0  0  0  0  0  0  0
  -24.4373  -31.8018   21.5880 C   0  0  0  0  0  0  0  0  0  0  0  0
  -23.8768  -18.0904   20.5884 C   0  0  0  0  0  0  0  0  0  0  0  0
  -23.5632  -14.8621   20.6280 C   0  0  0  0  0  0  0  0  0  0  0  0
  -32.4607  -21.2768   20.9455 C   0  0  0  0  0  0  0  0  0  0  0  0
  -25.0647  -11.8029   20.4444 C   0  0  0  0  0  0  0  0  0  0  0  0
  -29.5943  -25.5113   19.8476 C   0  0  0  0  0  0  0  0  0  0  0  0
  -20.8337  -22.1345   19.9229 C   0  0  0  0  0  0  0  0  0  0  0  0
  -25.1139  -17.4388   18.4906 C   0  0  0  0  0  0  0  0  0  0  0  0
  -25.9110  -15.7700   20.7981 C   0  0  0  0  0  0  0  0  0  0  0  0
  -20.6495  -20.6964   20.4007 C   0  0  0  0  0  0  0  0  0  0  0  0
  -27.8189  -27.1629   17.2404 C   0  0  0  0  0  0  0  0  0  0  0  0
  -21.6969  -20.3450   21.4525 C   0  0  0  0  0  0  0  0  0  0  0  0
  -26.7797  -28.0037   17.9856 C   0  0  0  0  0  0  0  0  0  0  0  0
  -28.0533  -25.8160   17.9222 C   0  0  0  0  0  0  0  0  0  0  0  0
  -27.3448  -26.7333   20.0961 C   0  0  0  0  0  0  0  0  0  0  0  0
  -23.1137  -20.4414   20.8740 C   0  0  1  0  0  0  0  0  0  0  0  0
  -24.1124  -17.0187   19.5619 C   0  0  1  0  0  0  0  0  0  0  0  0
  -27.1225  -28.1257   19.4834 C   0  0  2  0  0  0  0  0  0  0  0  0
  -24.5535   -9.3482   20.5476 C   0  0  0  0  0  0  0  0  0  0  0  0
  -23.2709  -15.0529   23.6592 C   0  0  0  0  0  0  0  0  0  0  0  0
  -23.7178  -12.5928   23.7874 C   0  0  0  0  0  0  0  0  0  0  0  0
  -21.7144  -13.4325   22.5611 C   0  0  0  0  0  0  0  0  0  0  0  0
  -33.3144  -17.4761   21.0172 C   0  0  0  0  0  0  0  0  0  0  0  0
  -31.7191  -18.6975   22.4988 C   0  0  0  0  0  0  0  0  0  0  0  0
  -26.0590  -11.3618   17.6920 C   0  0  0  0  0  0  0  0  0  0  0  0
  -33.2360  -19.9665   20.8898 C   0  0  0  0  0  0  0  0  0  0  0  0
  -31.2659  -18.5590   20.0378 C   0  0  0  0  0  0  0  0  0  1  0  0
  -24.0102  -13.7558   21.5529 C   0  0  1  0  0  0  0  0  0  0  0  0
  -24.7227  -10.5594   19.6436 C   0  0  2  0  0  0  0  0  0  0  0  0
  -23.1970  -13.7260   22.8777 C   0  0  0  0  0  0  0  0  0  0  0  0
  -32.3730  -18.6969   21.1057 C   0  0  0  0  0  0  0  0  0  0  0  0
  -25.0526  -28.2604   20.8171 N   0  0  0  0  0  0  0  0  0  0  0  0
  -26.0715  -28.9182   20.2379 N   0  0  0  0  0  0  0  0  0  0  0  0
  -24.5310  -15.8175   20.2872 N   0  0  0  0  0  0  0  0  0  0  0  0
  -28.3774  -26.0105   19.3371 N   0  0  0  0  0  0  0  0  0  0  0  0
  -26.9716  -31.0824   19.8963 N   0  0  0  0  0  0  0  0  0  0  0  0
  -23.2603  -31.8722   22.3456 N   0  0  0  0  0  0  0  0  0  0  0  0
  -32.4766  -21.8404   22.2147 N   0  0  0  0  0  0  0  0  0  0  0  0
  -29.8084  -25.7847   21.1981 N   0  0  0  0  0  0  0  0  0  0  0  0
  -23.4085  -19.2796   20.0630 N   0  0  0  0  0  0  0  0  0  0  0  0
  -23.9364  -12.5216   20.7785 N   0  0  0  0  0  0  0  0  0  0  0  0
  -25.8019  -10.2640   18.6593 N   0  3  0  0  0  0  0  0  0  0  0  0
  -25.0432  -32.8604   21.2953 O   0  0  0  0  0  0  0  0  0  0  0  0
  -24.1017  -17.8554   21.7699 O   0  0  0  0  0  0  0  0  0  0  0  0
  -22.4001  -14.8739   20.2174 O   0  0  0  0  0  0  0  0  0  0  0  0
  -31.9075  -21.7141   19.9401 O   0  0  0  0  0  0  0  0  0  0  0  0
  -26.2172  -12.1044   20.7467 O   0  0  0  0  0  0  0  0  0  0  0  0
  -30.4005  -24.9110   19.1323 O   0  0  0  0  0  0  0  0  0  0  0  0
  -19.6765  -28.0423   24.2228 O   0  0  0  0  0  0  0  0  0  0  0  0
  -30.5004  -17.3725   20.2438 O   0  0  0  0  0  0  0  0  0  1  0  0
  -15.2286  -31.1649   23.2903 F   0  0  0  0  0  0  0  0  0  0  0  0
  -17.3325  -26.9247   23.2746 F   0  0  0  0  0  0  0  0  0  0  0  0
  1  2  1  0  0  0  0
  1  6  2  0  0  0  0
  2  7  2  0  0  0  0
  3  9  2  0  0  0  0
  3 10  1  0  0  0  0
  4 11  2  0  0  0  0
  4 19  1  0  0  0  0
  5 12  1  0  0  0  0
  5 19  2  0  0  0  0
  6 21  1  0  0  0  0
  7 23  1  0  0  0  0
  8 13  2  0  0  0  0
  8 22  1  0  0  0  0
  9 25  1  0  0  0  0
 10 26  2  0  0  0  0
 11 27  1  0  0  0  0
 12 27  2  0  0  0  0
 13 28  1  0  0  0  0
 14 15  2  0  0  0  0
 14 29  1  0  0  0  0
 15 30  1  0  0  0  0
 16 24  1  0  0  0  0
 16 28  2  0  0  0  0
 17 25  2  0  0  0  0
 17 26  1  0  0  0  0
 18 30  2  0  0  0  0
 18 31  1  0  0  0  0
 19 32  1  0  0  0  0
 20 32  1  0  0  0  0
 20 33  2  0  0  0  0
 20 34  1  0  0  0  0
 21 23  2  0  0  0  0
 21 40  1  0  0  0  0
 22 24  2  0  0  0  0
 22 41  1  0  0  0  0
 23 49  1  0  0  0  0
 24 42  1  0  0  0  0
 25 71  1  0  0  0  0
 26 72  1  0  0  0  0
 27 82  1  0  0  0  0
 28 83  1  0  0  0  0
 29 31  2  0  0  0  0
 29 82  1  0  0  0  0
 30 84  1  0  0  0  0
 31 85  1  0  0  0  0
 32 65  2  0  0  0  0
 33 66  1  0  0  0  0
 33 69  1  0  0  0  0
 34 70  1  0  0  0  0
 34 76  2  0  0  0  0
 35 50  1  0  0  0  0
 35 73  1  0  0  0  0
 35 77  2  0  0  0  0
 36 61  1  0  0  0  0
 36 67  1  0  0  0  0
 36 78  2  0  0  0  0
 37 59  1  0  0  0  0
 37 71  1  0  0  0  0
 37 79  2  0  0  0  0
 38 62  1  0  0  0  0
 38 74  1  0  0  0  0
 38 80  2  0  0  0  0
 39 68  1  0  0  0  0
 39 72  1  0  0  0  0
 39 81  2  0  0  0  0
 40 43  1  0  0  0  0
 41 50  1  0  0  0  0
 42 67  1  0  0  0  0
 43 45  1  0  0  0  0
 44 46  1  0  0  0  0
 44 47  1  0  0  0  0
 45 49  1  0  0  0  0
 46 51  1  0  0  0  0
 47 68  1  0  0  0  0
 48 51  1  0  0  0  0
 48 68  1  0  0  0  0
 49 73  1  0  0  0  0
 50 67  1  0  0  0  0
 51 66  1  0  0  0  0
 52 62  1  0  0  0  0
 53 63  1  0  0  0  0
 54 63  1  0  0  0  0
 55 63  1  0  0  0  0
 56 64  1  0  0  0  0
 57 64  1  0  0  0  0
 58 75  1  0  0  0  0
 59 64  1  0  0  0  0
 60 64  1  0  0  0  0
 60 83  1  0  0  0  0
 61 63  1  0  0  0  0
 61 74  1  0  0  0  0
 62 75  1  0  0  0  0
 65 66  1  0  0  0  0
M  CHG  1  75   1
M  ISO  4  39 100  60 101  72 100  83 101
M  END
> <Batch ID>
0141

> <Smiles>
CNC(C)C(=O)NC(C(=O)N1Cc2cc([101O:1][101CH2:1]C(C)(C)CC(=O)Nc3cccc([100NH:0][100C:0](=O)N4CCCC(n5nc(-c6ccc(Oc7ccc(F)cc7F)cc6)c(C(N)=O)c5N)C4)c3)ccc2CC1C(=O)NC1CCCc2ccccc21)C(C)(C)C

> <Shape>
0.229

> <Color>
0.081

> <Negative vol penalty>
0.000

$$$$

  -OEChem-04052302543D

 87 96  0     1  0  0  0  0  0999 V2000
  -19.5741  -27.5333   26.5842 C   0  0  0  0  0  0  0  0  0  0  0  0
  -20.8927  -27.2790   26.2208 C   0  0  0  0  0  0  0  0  0  0  0  0
  -24.3487   -8.6150   20.4186 C   0  0  0  0  0  0  0  0  0  0  0  0
  -23.0288  -10.6128   20.7402 C   0  0  0  0  0  0  0  0  0  0  0  0
  -18.6130  -27.7625   25.6006 C   0  0  0  0  0  0  0  0  0  0  0  0
  -21.2508  -27.2528   24.8734 C   0  0  0  0  0  0  0  0  0  0  0  0
  -26.5605  -29.0926   22.4386 C   0  0  0  0  0  0  0  0  0  0  0  0
  -28.6091  -19.4563   17.5678 C   0  0  0  0  0  0  0  0  0  0  0  0
  -29.2244  -20.4290   18.3557 C   0  0  0  0  0  0  0  0  0  0  0  0
  -23.3018   -7.8423   20.9211 C   0  0  0  0  0  0  0  0  0  0  0  0
  -21.9818   -9.8402   21.2427 C   0  0  0  0  0  0  0  0  0  0  0  0
  -27.7027  -28.3970   22.0446 C   0  0  0  0  0  0  0  0  0  0  0  0
  -22.0215   -7.0493   23.9470 C   0  0  0  0  0  0  0  0  0  0  0  0
  -22.3375   -6.0537   24.8713 C   0  0  0  0  0  0  0  0  0  0  0  0
  -26.8861  -28.3533   19.7752 C   0  0  0  0  0  0  0  0  0  0  0  0
  -29.8387  -18.7361   19.9662 C   0  0  0  0  0  0  0  0  0  0  0  0
  -21.4283   -4.3826   23.3821 C   0  0  0  0  0  0  0  0  0  0  0  0
  -24.2123  -10.0002   20.3282 C   0  0  0  0  0  0  0  0  0  0  0  0
  -25.5150  -11.1615   18.4676 C   0  0  0  0  0  0  0  0  0  0  0  0
  -18.9613  -27.7487   24.2407 C   0  0  0  0  0  0  0  0  0  0  0  0
  -25.5657  -29.4148   21.5042 C   0  0  0  0  0  0  0  0  0  0  0  0
  -20.2931  -27.4808   23.8706 C   0  0  0  0  0  0  0  0  0  0  0  0
  -25.7334  -29.0553   20.1593 C   0  0  0  0  0  0  0  0  0  0  0  0
  -28.6086  -18.1234   17.9791 C   0  0  0  0  0  0  0  0  0  0  0  0
  -29.8392  -20.0689   19.5549 C   0  0  0  0  0  0  0  0  0  0  0  0
  -29.2235  -17.7633   19.1782 C   0  0  0  0  0  0  0  0  0  0  0  0
  -22.1183   -8.4549   21.3331 C   0  0  0  0  0  0  0  0  0  0  0  0
  -27.8643  -28.0247   20.7133 C   0  0  0  0  0  0  0  0  0  0  0  0
  -21.4088   -6.7117   22.7403 C   0  0  0  0  0  0  0  0  0  0  0  0
  -22.0409   -4.7203   24.5889 C   0  0  0  0  0  0  0  0  0  0  0  0
  -21.1122   -5.3783   22.4578 C   0  0  0  0  0  0  0  0  0  0  0  0
  -25.2936  -10.7990   19.8097 C   0  0  0  0  0  0  0  0  0  0  0  0
  -26.6626  -11.9155   18.5004 C   0  0  0  0  0  0  0  0  0  0  0  0
  -31.1013  -23.0869   21.1891 C   0  0  0  0  0  0  0  0  0  0  0  0
  -30.9742  -24.3758   21.5221 C   0  0  0  0  0  0  0  0  0  0  0  0
  -24.7515  -10.8452   17.2959 C   0  0  0  0  0  0  0  0  0  0  0  0
  -30.2896  -25.3366   20.6138 C   0  0  0  0  0  0  0  0  0  0  0  0
  -22.4937  -28.6772   21.1541 C   0  0  0  0  0  0  0  0  0  0  0  0
  -22.6583  -30.8188   18.7233 C   0  0  0  0  0  0  0  0  0  0  0  0
  -24.5824  -32.4509   16.4253 C   0  0  0  0  0  0  0  0  0  0  0  0
  -29.8044  -15.9075   20.7798 C   0  0  0  0  0  0  0  0  0  0  0  0
  -17.8782  -27.9552   23.2118 C   0  0  0  0  0  0  0  0  0  0  0  0
  -24.3520  -30.1889   21.9402 C   0  0  0  0  0  0  0  0  0  0  0  0
  -24.7043  -29.3950   19.1134 C   0  0  0  0  0  0  0  0  0  0  0  0
  -31.7692  -22.0434   22.0275 C   0  0  0  0  0  0  0  0  0  0  0  0
  -30.4932  -22.4480   19.9768 C   0  0  0  0  0  0  0  0  0  0  0  0
  -18.4143  -28.2810   21.8201 C   0  0  0  0  0  0  0  0  0  0  0  0
  -30.0095  -12.6596   22.2241 C   0  0  0  0  0  0  0  0  0  0  0  0
  -19.5475  -27.3299   21.4484 C   0  0  0  0  0  0  0  0  0  0  0  0
  -28.8191  -11.9158   21.6143 C   0  0  0  0  0  0  0  0  0  0  0  0
  -31.0076  -20.7732   21.6593 C   0  0  0  0  0  0  0  0  0  0  0  0
  -29.6792  -14.1243   22.5059 C   0  0  0  0  0  0  0  0  0  0  0  0
  -27.9490  -14.1264   20.7521 C   0  0  0  0  0  0  0  0  0  0  0  0
  -20.7254  -27.4687   22.4204 C   0  0  1  0  0  0  0  0  0  0  0  0
  -23.1626  -30.0139   21.0009 C   0  0  1  0  0  0  0  0  0  0  0  0
  -28.2543  -12.6635   20.3906 C   0  0  2  0  0  0  0  0  0  0  0  0
  -27.9419  -17.1028   17.1150 C   0  0  0  0  0  0  0  0  0  0  0  0
  -24.4284  -34.1117   14.5503 C   0  0  0  0  0  0  0  0  0  0  0  0
  -21.5015  -28.6572   16.9069 C   0  0  0  0  0  0  0  0  0  0  0  0
  -22.2500  -30.0096   14.9374 C   0  0  0  0  0  0  0  0  0  0  0  0
  -20.5712  -30.9473   16.5265 C   0  0  0  0  0  0  0  0  0  0  0  0
  -26.3634  -34.3616   17.8167 C   0  0  0  0  0  0  0  0  0  0  0  0
  -29.5880  -26.4926   21.2946 C   0  0  0  0  0  0  0  0  0  1  0  0
  -22.9847  -30.7423   17.2514 C   0  0  1  0  0  0  0  0  0  0  0  0
  -24.6653  -33.9168   16.0399 C   0  0  2  0  0  0  0  0  0  0  0  0
  -21.8455  -30.0809   16.4254 C   0  0  0  0  0  0  0  0  0  0  0  0
  -26.2258  -11.2826   20.6350 N   0  0  0  0  0  0  0  0  0  0  0  0
  -27.0442  -11.9567   19.8092 N   0  0  0  0  0  0  0  0  0  0  0  0
  -30.4482  -21.0324   20.3348 N   0  0  3  0  0  0  0  0  0  0  0  0
  -23.5320  -30.1473   19.5902 N   0  0  0  0  0  0  0  0  0  0  0  0
  -29.1535  -14.7692   21.3006 N   0  0  0  0  0  0  0  0  0  0  0  0
  -27.3725  -12.5404   17.5371 N   0  0  0  0  0  0  0  0  0  0  0  0
  -23.5997  -10.0600   17.4409 N   0  0  0  0  0  0  0  0  0  0  0  0
  -29.2335  -16.4147   19.6130 N   0  0  0  0  0  0  0  0  0  0  0  0
  -21.4982  -28.6528   22.1122 N   0  0  0  0  0  0  0  0  0  0  0  0
  -23.3130  -32.1014   16.8349 N   0  0  0  0  0  0  0  0  0  0  0  0
  -26.0087  -34.4662   16.3779 N   0  3  0  0  0  0  0  0  0  0  0  0
  -25.0900  -11.2333   16.1521 O   0  0  0  0  0  0  0  0  0  0  0  0
  -30.2963  -25.1957   19.3938 O   0  0  0  0  0  0  0  0  0  0  0  0
  -22.8531  -27.7380   20.4539 O   0  0  0  0  0  0  0  0  0  0  0  0
  -21.6688  -31.4570   19.0910 O   0  0  0  0  0  0  0  0  0  0  0  0
  -25.5464  -31.6908   16.3652 O   0  0  0  0  0  0  0  0  0  0  0  0
  -30.8113  -16.3802   21.3133 O   0  0  0  0  0  0  0  0  0  0  0  0
  -21.0964   -7.7013   21.8233 O   0  0  0  0  0  0  0  0  0  0  0  0
  -28.9780  -27.3451   20.3263 O   0  0  0  0  0  0  0  0  0  1  0  0
  -22.3459   -3.7641   25.4759 F   0  0  0  0  0  0  0  0  0  0  0  0
  -20.5247   -5.0477   21.2996 F   0  0  0  0  0  0  0  0  0  0  0  0
  1  2  1  0  0  0  0
  1  5  2  0  0  0  0
  2  6  2  0  0  0  0
  3 10  2  0  0  0  0
  3 18  1  0  0  0  0
  4 11  1  0  0  0  0
  4 18  2  0  0  0  0
  5 20  1  0  0  0  0
  6 22  1  0  0  0  0
  7 12  2  0  0  0  0
  7 21  1  0  0  0  0
  8  9  2  0  0  0  0
  8 24  1  0  0  0  0
  9 25  1  0  0  0  0
 10 27  1  0  0  0  0
 11 27  2  0  0  0  0
 12 28  1  0  0  0  0
 13 14  2  0  0  0  0
 13 29  1  0  0  0  0
 14 30  1  0  0  0  0
 15 23  1  0  0  0  0
 15 28  2  0  0  0  0
 16 25  2  0  0  0  0
 16 26  1  0  0  0  0
 17 30  2  0  0  0  0
 17 31  1  0  0  0  0
 18 32  1  0  0  0  0
 19 32  1  0  0  0  0
 19 33  2  0  0  0  0
 19 36  1  0  0  0  0
 20 22  2  0  0  0  0
 20 42  1  0  0  0  0
 21 23  2  0  0  0  0
 21 43  1  0  0  0  0
 22 54  1  0  0  0  0
 23 44  1  0  0  0  0
 24 26  2  0  0  0  0
 24 57  1  0  0  0  0
 25 69  1  0  0  0  0
 26 74  1  0  0  0  0
 27 84  1  0  0  0  0
 28 85  1  0  0  0  0
 29 31  2  0  0  0  0
 29 84  1  0  0  0  0
 30 86  1  0  0  0  0
 31 87  1  0  0  0  0
 32 67  2  0  0  0  0
 33 68  1  0  0  0  0
 33 72  1  0  0  0  0
 34 35  2  0  0  0  0
 34 45  1  0  0  0  0
 34 46  1  0  0  0  0
 35 37  1  0  0  0  0
 36 73  1  0  0  0  0
 36 78  2  0  0  0  0
 37 63  1  0  0  0  0
 37 79  2  0  0  0  0
 38 55  1  0  0  0  0
 38 75  1  0  0  0  0
 38 80  2  0  0  0  0
 39 64  1  0  0  0  0
 39 70  1  0  0  0  0
 39 81  2  0  0  0  0
 40 65  1  0  0  0  0
 40 76  1  0  0  0  0
 40 82  2  0  0  0  0
 41 71  1  0  0  0  0
 41 74  1  0  0  0  0
 41 83  2  0  0  0  0
 42 47  1  0  0  0  0
 43 55  1  0  0  0  0
 44 70  1  0  0  0  0
 45 51  1  0  0  0  0
 46 69  1  0  0  0  0
 47 49  1  0  0  0  0
 48 50  1  0  0  0  0
 48 52  1  0  0  0  0
 49 54  1  0  0  0  0
 50 56  1  0  0  0  0
 51 69  1  0  0  0  0
 52 71  1  0  0  0  0
 53 56  1  0  0  0  0
 53 71  1  0  0  0  0
 54 75  1  0  0  0  0
 55 70  1  0  0  0  0
 56 68  1  0  0  0  0
 58 65  1  0  0  0  0
 59 66  1  0  0  0  0
 60 66  1  0  0  0  0
 61 66  1  0  0  0  0
 62 77  1  0  0  0  0
 63 85  1  0  0  0  0
 64 66  1  0  0  0  0
 64 76  1  0  0  0  0
 65 77  1  0  0  0  0
 67 68  1  0  0  0  0
M  CHG  1  77   1
M  ISO  4  41 100  63 101  74 100  85 101
M  END
> <Batch ID>
0141

> <Smiles>
CNC(C)C(=O)NC(C(=O)N1Cc2cc([101O:1][101CH2:1]C(=O)C=C3CCN(c4ccc(C)c([100NH:0][100C:0](=O)N5CCCC(n6nc(-c7ccc(Oc8ccc(F)cc8F)cc7)c(C(N)=O)c6N)C5)c4)C3)ccc2CC1C(=O)NC1CCCc2ccccc21)C(C)(C)C

> <Shape>
0.297

> <Color>
0.129

> <Negative vol penalty>
0.000

$$$$

  -OEChem-04052302543D

 85 93  0     1  0  0  0  0  0999 V2000
  -21.2633  -18.7275   20.1517 C   0  0  0  0  0  0  0  0  0  0  0  0
  -22.4848  -19.3903   20.0885 C   0  0  0  0  0  0  0  0  0  0  0  0
  -33.8130  -20.9173   17.8252 C   0  0  0  0  0  0  0  0  0  0  0  0
  -25.3755  -13.4541   21.1682 C   0  0  0  0  0  0  0  0  0  0  0  0
  -25.6526  -13.4967   18.7685 C   0  0  0  0  0  0  0  0  0  0  0  0
  -34.0896  -22.1408   18.4352 C   0  0  0  0  0  0  0  0  0  0  0  0
  -20.0811  -19.4214   19.8972 C   0  0  0  0  0  0  0  0  0  0  0  0
  -22.5249  -20.7471   19.7695 C   0  0  0  0  0  0  0  0  0  0  0  0
  -26.4440  -24.9243   21.9371 C   0  0  0  0  0  0  0  0  0  0  0  0
  -32.4960  -20.4675   17.7298 C   0  0  0  0  0  0  0  0  0  0  0  0
  -24.4247  -12.4415   21.0404 C   0  0  0  0  0  0  0  0  0  0  0  0
  -24.7018  -12.4841   18.6407 C   0  0  0  0  0  0  0  0  0  0  0  0
  -27.6142  -25.4728   21.4142 C   0  0  0  0  0  0  0  0  0  0  0  0
  -24.3985   -9.0996   20.5269 C   0  0  0  0  0  0  0  0  0  0  0  0
  -24.4889   -8.0122   21.3958 C   0  0  0  0  0  0  0  0  0  0  0  0
  -31.7324  -22.4646   18.8546 C   0  0  0  0  0  0  0  0  0  0  0  0
  -26.3536  -27.3533   20.5814 C   0  0  0  0  0  0  0  0  0  0  0  0
  -22.2799   -8.5043   22.2415 C   0  0  0  0  0  0  0  0  0  0  0  0
  -25.9894  -13.9818   20.0322 C   0  0  0  0  0  0  0  0  0  0  0  0
  -33.0493  -22.9145   18.9499 C   0  0  0  0  0  0  0  0  0  0  0  0
  -28.3616  -14.8743   20.3211 C   0  0  0  0  0  0  0  0  0  0  0  0
  -20.1059  -20.7897   19.5844 C   0  0  0  0  0  0  0  0  0  0  0  0
  -25.2159  -25.5819   21.7763 C   0  0  0  0  0  0  0  0  0  0  0  0
  -21.3420  -21.4597   19.5092 C   0  0  0  0  0  0  0  0  0  0  0  0
  -25.1696  -26.8123   21.1054 C   0  0  0  0  0  0  0  0  0  0  0  0
  -31.4558  -21.2411   18.2446 C   0  0  0  0  0  0  0  0  0  0  0  0
  -24.0879  -11.9565   19.7767 C   0  0  0  0  0  0  0  0  0  0  0  0
  -27.5687  -26.6861   20.7338 C   0  0  0  0  0  0  0  0  0  0  0  0
  -23.2488   -9.8895   20.5154 C   0  0  0  0  0  0  0  0  0  0  0  0
  -23.4296   -7.7145   22.2530 C   0  0  0  0  0  0  0  0  0  0  0  0
  -22.1896   -9.5918   21.3727 C   0  0  0  0  0  0  0  0  0  0  0  0
  -26.9712  -15.0281   20.1635 C   0  0  0  0  0  0  0  0  0  0  0  0
  -28.8425  -16.1586   20.3986 C   0  0  0  0  0  0  0  0  0  0  0  0
  -33.3446  -24.2139   19.5976 C   0  0  0  0  0  0  0  0  0  0  0  0
  -29.1482  -13.6776   20.3911 C   0  0  0  0  0  0  0  0  0  0  0  0
  -22.4650  -24.8786   20.3474 C   0  0  0  0  0  0  0  0  0  0  0  0
  -21.4893  -27.6477   21.7267 C   0  0  0  0  0  0  0  0  0  0  0  0
  -22.3285  -30.6877   23.0309 C   0  0  0  0  0  0  0  0  0  0  0  0
  -28.9697  -21.4286   18.6060 C   0  0  0  0  0  0  0  0  0  0  0  0
  -18.8056  -21.4864   19.2707 C   0  0  0  0  0  0  0  0  0  0  0  0
  -23.9668  -24.9902   22.3694 C   0  0  0  0  0  0  0  0  0  0  0  0
  -23.8796  -27.5682   20.9233 C   0  0  0  0  0  0  0  0  0  0  0  0
  -18.9062  -23.0092   19.3072 C   0  0  0  0  0  0  0  0  0  0  0  0
  -26.4035  -20.5635   20.9176 C   0  0  0  0  0  0  0  0  0  0  0  0
  -20.1428  -23.4808   18.5487 C   0  0  0  0  0  0  0  0  0  0  0  0
  -26.4368  -19.0336   20.9404 C   0  0  0  0  0  0  0  0  0  0  0  0
  -26.6804  -21.1160   19.5205 C   0  0  0  0  0  0  0  0  0  0  0  0
  -27.9432  -19.0902   18.9120 C   0  0  0  0  0  0  0  0  0  0  0  0
  -21.4247  -22.9368   19.1908 C   0  0  1  0  0  0  0  0  0  0  0  0
  -22.6914  -25.4927   21.6999 C   0  0  1  0  0  0  0  0  0  0  0  0
  -27.7341  -18.4888   20.3114 C   0  0  2  0  0  0  0  0  0  0  0  0
  -21.3105  -32.7453   24.0446 C   0  0  0  0  0  0  0  0  0  0  0  0
  -20.5904  -28.5638   18.9586 C   0  0  0  0  0  0  0  0  0  0  0  0
  -20.4798  -30.9026   19.8450 C   0  0  0  0  0  0  0  0  0  0  0  0
  -19.0094  -29.1339   20.8105 C   0  0  0  0  0  0  0  0  0  0  0  0
  -30.8646  -27.3369   18.2397 C   0  0  0  0  0  0  0  0  0  0  0  0
  -31.2856  -28.6151   20.3493 C   0  0  0  0  0  0  0  0  0  0  0  0
  -23.7846  -30.2946   25.5773 C   0  0  0  0  0  0  0  0  0  0  0  0
  -29.9179  -26.4905   20.4188 C   0  0  0  0  0  0  0  0  0  1  0  0
  -32.4086  -26.4022   20.0066 C   0  0  0  0  0  0  0  0  0  0  0  0
  -21.4856  -29.1014   21.3198 C   0  0  1  0  0  0  0  0  0  0  0  0
  -21.9192  -31.3789   24.3190 C   0  0  2  0  0  0  0  0  0  0  0  0
  -20.4154  -29.4105   20.2351 C   0  0  0  0  0  0  0  0  0  0  0  0
  -31.1151  -27.2056   19.7541 C   0  0  0  0  0  0  0  0  0  0  0  0
  -26.5932  -16.3091   20.1421 N   0  0  0  0  0  0  0  0  0  0  0  0
  -34.4487  -24.4593   20.2206 N   0  0  0  0  0  0  0  0  0  0  0  0
  -27.7533  -16.9718   20.2874 N   0  0  0  0  0  0  0  0  0  0  0  0
  -22.6843  -26.9454   21.5158 N   0  0  0  0  0  0  0  0  0  0  0  0
  -27.9268  -20.5593   18.9901 N   0  0  0  0  0  0  0  0  0  0  0  0
  -30.0866  -16.6602   20.5505 N   0  0  0  0  0  0  0  0  0  0  0  0
  -28.4943  -12.4417   20.2944 N   0  0  0  0  0  0  0  0  0  0  0  0
  -30.1181  -20.7841   18.1473 N   0  0  0  0  0  0  0  0  0  0  0  0
  -21.7551  -23.6935   20.3793 N   0  0  0  0  0  0  0  0  0  0  0  0
  -21.3282  -29.8693   22.5503 N   0  0  0  0  0  0  0  0  0  0  0  0
  -23.1017  -31.5610   25.2074 N   0  3  0  0  0  0  0  0  0  0  0  0
  -30.3920  -13.7032   20.5516 O   0  0  0  0  0  0  0  0  0  0  0  0
  -22.9009  -25.4392   19.3487 O   0  0  0  0  0  0  0  0  0  0  0  0
  -20.4717  -27.1553   22.2203 O   0  0  0  0  0  0  0  0  0  0  0  0
  -23.4244  -30.8597   22.5018 O   0  0  0  0  0  0  0  0  0  0  0  0
  -28.8627  -22.6537   18.7043 O   0  0  0  0  0  0  0  0  0  0  0  0
  -23.1603  -10.9683   19.6517 O   0  0  0  0  0  0  0  0  0  0  0  0
  -28.7094  -27.2234   20.2219 O   0  0  0  0  0  0  0  0  0  1  0  0
  -32.3152  -25.0960   19.4524 O   0  0  0  0  0  0  0  0  0  0  0  0
  -23.5159   -6.6693   23.0863 F   0  0  0  0  0  0  0  0  0  0  0  0
  -21.0821  -10.3463   21.3653 F   0  0  0  0  0  0  0  0  0  0  0  0
  1  2  1  0  0  0  0
  1  7  2  0  0  0  0
  2  8  2  0  0  0  0
  3  6  2  0  0  0  0
  3 10  1  0  0  0  0
  4 11  2  0  0  0  0
  4 19  1  0  0  0  0
  5 12  1  0  0  0  0
  5 19  2  0  0  0  0
  6 20  1  0  0  0  0
  7 22  1  0  0  0  0
  8 24  1  0  0  0  0
  9 13  2  0  0  0  0
  9 23  1  0  0  0  0
 10 26  2  0  0  0  0
 11 27  1  0  0  0  0
 12 27  2  0  0  0  0
 13 28  1  0  0  0  0
 14 15  2  0  0  0  0
 14 29  1  0  0  0  0
 15 30  1  0  0  0  0
 16 20  2  0  0  0  0
 16 26  1  0  0  0  0
 17 25  1  0  0  0  0
 17 28  2  0  0  0  0
 18 30  2  0  0  0  0
 18 31  1  0  0  0  0
 19 32  1  0  0  0  0
 20 34  1  0  0  0  0
 21 32  1  0  0  0  0
 21 33  2  0  0  0  0
 21 35  1  0  0  0  0
 22 24  2  0  0  0  0
 22 40  1  0  0  0  0
 23 25  2  0  0  0  0
 23 41  1  0  0  0  0
 24 49  1  0  0  0  0
 25 42  1  0  0  0  0
 26 72  1  0  0  0  0
 27 81  1  0  0  0  0
 28 82  1  0  0  0  0
 29 31  2  0  0  0  0
 29 81  1  0  0  0  0
 30 84  1  0  0  0  0
 31 85  1  0  0  0  0
 32 65  2  0  0  0  0
 33 67  1  0  0  0  0
 33 70  1  0  0  0  0
 34 66  2  0  0  0  0
 34 83  1  0  0  0  0
 35 71  1  0  0  0  0
 35 76  2  0  0  0  0
 36 50  1  0  0  0  0
 36 73  1  0  0  0  0
 36 77  2  0  0  0  0
 37 61  1  0  0  0  0
 37 68  1  0  0  0  0
 37 78  2  0  0  0  0
 38 62  1  0  0  0  0
 38 74  1  0  0  0  0
 38 79  2  0  0  0  0
 39 69  1  0  0  0  0
 39 72  1  0  0  0  0
 39 80  2  0  0  0  0
 40 43  1  0  0  0  0
 41 50  1  0  0  0  0
 42 68  1  0  0  0  0
 43 45  1  0  0  0  0
 44 46  1  0  0  0  0
 44 47  1  0  0  0  0
 45 49  1  0  0  0  0
 46 51  1  0  0  0  0
 47 69  1  0  0  0  0
 48 51  1  0  0  0  0
 48 69  1  0  0  0  0
 49 73  1  0  0  0  0
 50 68  1  0  0  0  0
 51 67  1  0  0  0  0
 52 62  1  0  0  0  0
 53 63  1  0  0  0  0
 54 63  1  0  0  0  0
 55 63  1  0  0  0  0
 56 64  1  0  0  0  0
 57 64  1  0  0  0  0
 58 75  1  0  0  0  0
 59 64  1  0  0  0  0
 59 82  1  0  0  0  0
 60 64  1  0  0  0  0
 60 83  1  0  0  0  0
 61 63  1  0  0  0  0
 61 74  1  0  0  0  0
 62 75  1  0  0  0  0
 65 67  1  0  0  0  0
M  CHG  1  75   1
M  ISO  4  39 100  59 101  72 100  82 101
M  END
> <Batch ID>
0141

> <Smiles>
CNC(C)C(=O)NC(C(=O)N1Cc2cc([101O:1][101CH2:1]C(C)(C)COC(=N)c3cccc([100NH:0][100C:0](=O)N4CCCC(n5nc(-c6ccc(Oc7ccc(F)cc7F)cc6)c(C(N)=O)c5N)C4)c3)ccc2CC1C(=O)NC1CCCc2ccccc21)C(C)(C)C

> <Shape>
0.216

> <Color>
0.075

> <Negative vol penalty>
0.000

$$$$

  -OEChem-04052302543D

 89 97  0     1  0  0  0  0  0999 V2000
  -28.2154  -12.3120   18.0071 C   0  0  0  0  0  0  0  0  0  0  0  0
  -27.9781  -13.6652   17.7882 C   0  0  0  0  0  0  0  0  0  0  0  0
  -28.9919  -25.9543   18.8974 C   0  0  0  0  0  0  0  0  0  0  0  0
  -27.0247  -24.5552   18.7994 C   0  0  0  0  0  0  0  0  0  0  0  0
  -27.3688  -11.5829   18.8411 C   0  0  0  0  0  0  0  0  0  0  0  0
  -26.8932  -14.2899   18.4025 C   0  0  0  0  0  0  0  0  0  0  0  0
  -24.9032  -20.6033   21.1405 C   0  0  0  0  0  0  0  0  0  0  0  0
  -29.7794  -24.8299   19.1447 C   0  0  0  0  0  0  0  0  0  0  0  0
  -27.8122  -23.4307   19.0467 C   0  0  0  0  0  0  0  0  0  0  0  0
  -23.8759  -21.5414   21.0487 C   0  0  0  0  0  0  0  0  0  0  0  0
  -29.8837  -21.4098   17.3016 C   0  0  0  0  0  0  0  0  0  0  0  0
  -29.6560  -20.2767   16.5208 C   0  0  0  0  0  0  0  0  0  0  0  0
  -22.5268  -20.2003   22.5320 C   0  0  0  0  0  0  0  0  0  0  0  0
  -18.2901  -26.9145   23.5995 C   0  0  0  0  0  0  0  0  0  0  0  0
  -19.9408  -28.6778   23.5452 C   0  0  0  0  0  0  0  0  0  0  0  0
  -29.1247  -19.0127   18.5101 C   0  0  0  0  0  0  0  0  0  0  0  0
  -27.6146  -25.8170   18.7248 C   0  0  0  0  0  0  0  0  0  0  0  0
  -26.4721  -27.5275   17.2160 C   0  0  0  0  0  0  0  0  0  0  0  0
  -26.2787  -12.2012   19.4736 C   0  0  0  0  0  0  0  0  0  0  0  0
  -24.7456  -19.4493   21.9214 C   0  0  0  0  0  0  0  0  0  0  0  0
  -26.0305  -13.5681   19.2447 C   0  0  0  0  0  0  0  0  0  0  0  0
  -23.5546  -19.2503   22.6341 C   0  0  0  0  0  0  0  0  0  0  0  0
  -18.8706  -28.0439   24.1766 C   0  0  0  0  0  0  0  0  0  0  0  0
  -18.7799  -26.4188   22.3911 C   0  0  0  0  0  0  0  0  0  0  0  0
  -19.8501  -27.0527   21.7598 C   0  0  0  0  0  0  0  0  0  0  0  0
  -20.4305  -28.1822   22.3368 C   0  0  0  0  0  0  0  0  0  0  0  0
  -29.1895  -23.5681   19.2193 C   0  0  0  0  0  0  0  0  0  0  0  0
  -22.6864  -21.3386   21.7422 C   0  0  0  0  0  0  0  0  0  0  0  0
  -29.7320  -21.3445   18.6867 C   0  0  0  0  0  0  0  0  0  0  0  0
  -29.2765  -19.0781   17.1250 C   0  0  0  0  0  0  0  0  0  0  0  0
  -29.3524  -20.1459   19.2909 C   0  0  0  0  0  0  0  0  0  0  0  0
  -26.8005  -26.9782   18.4699 C   0  0  0  0  0  0  0  0  0  0  0  0
  -25.6843  -28.6129   17.5123 C   0  0  0  0  0  0  0  0  0  0  0  0
  -26.8455  -27.0952   15.9010 C   0  0  0  0  0  0  0  0  0  0  0  0
  -24.7285  -16.3261   21.3306 C   0  0  0  0  0  0  0  0  0  0  0  0
  -24.5776  -16.1105   24.5637 C   0  0  0  0  0  0  0  0  0  0  0  0
  -23.7340  -17.5746   27.5288 C   0  0  0  0  0  0  0  0  0  0  0  0
  -22.1932  -29.9740   22.1669 C   0  0  0  0  0  0  0  0  0  0  0  0
  -25.3637  -11.3611   20.3290 C   0  0  0  0  0  0  0  0  0  0  0  0
  -25.8734  -18.4602   22.0313 C   0  0  0  0  0  0  0  0  0  0  0  0
  -23.3431  -18.0380   23.5024 C   0  0  0  0  0  0  0  0  0  0  0  0
  -24.4550  -12.1838   21.2388 C   0  0  0  0  0  0  0  0  0  0  0  0
  -24.9402  -31.8764   20.9373 C   0  0  0  0  0  0  0  0  0  0  0  0
  -23.8142  -13.3281   20.4598 C   0  0  0  0  0  0  0  0  0  0  0  0
  -25.6957  -30.8879   20.0460 C   0  0  0  0  0  0  0  0  0  0  0  0
  -24.3579  -31.1943   22.1740 C   0  0  0  0  0  0  0  0  0  0  0  0
  -24.2844  -29.0253   21.0082 C   0  0  0  0  0  0  0  0  0  0  0  0
  -24.8785  -14.2870   19.9127 C   0  0  1  0  0  0  0  0  0  0  0  0
  -25.4085  -17.0677   22.4465 C   0  0  1  0  0  0  0  0  0  0  0  0
  -24.8337  -29.6533   19.7169 C   0  0  2  0  0  0  0  0  0  0  0  0
  -18.3479  -28.5730   25.4693 C   0  0  0  0  0  0  0  0  0  0  0  0
  -20.3724  -26.5163   20.4638 C   0  0  0  0  0  0  0  0  0  0  0  0
  -23.6913  -17.1379   29.9996 C   0  0  0  0  0  0  0  0  0  0  0  0
  -17.5375  -25.4915   20.3574 C   0  0  0  0  0  0  0  0  0  0  0  0
  -16.8347  -24.8047   22.5931 C   0  0  0  0  0  0  0  0  0  0  0  0
  -22.1186  -14.3398   24.2058 C   0  0  0  0  0  0  0  0  0  0  0  0
  -21.5789  -14.7207   26.6207 C   0  0  0  0  0  0  0  0  0  0  0  0
  -23.7029  -13.5778   25.9845 C   0  0  0  0  0  0  0  0  0  0  0  0
  -18.6369  -22.6990   22.5095 C   0  0  0  0  0  0  0  0  0  0  0  0
  -19.2979  -23.4186   20.2254 C   0  0  0  0  0  0  0  0  0  0  0  0
  -21.5860  -22.6998   24.0143 C   0  0  0  0  0  0  0  0  0  0  0  0
  -23.0473  -24.0174   22.4858 C   0  0  0  0  0  0  0  0  0  0  0  0
  -25.5829  -19.8201   28.0750 C   0  0  0  0  0  0  0  0  0  0  0  0
  -20.5704  -24.3341   22.2674 C   0  0  0  0  0  0  0  0  0  0  0  0
  -23.4633  -16.0621   25.5811 C   0  0  1  0  0  0  0  0  0  0  0  0
  -24.4909  -17.7073   28.8380 C   0  0  2  0  0  0  0  0  0  0  0  0
  -18.1153  -25.1570   21.7712 C   0  0  0  0  0  0  0  0  0  0  0  0
  -22.7189  -14.6971   25.5802 C   0  0  0  0  0  0  0  0  0  0  0  0
  -19.1629  -23.9051   21.6875 C   0  0  0  0  0  0  0  0  0  0  0  0
  -21.6859  -23.3103   22.6180 C   0  0  0  0  0  0  0  0  0  1  0  0
  -26.2653  -27.6586   19.4870 N   0  0  0  0  0  0  0  0  0  0  0  0
  -25.5927  -28.6466   18.8727 N   0  0  0  0  0  0  0  0  0  0  0  0
  -24.4729  -17.0966   23.5725 N   0  0  0  0  0  0  0  0  0  0  0  0
  -23.5499  -30.0365   21.7846 N   0  0  0  0  0  0  0  0  0  0  0  0
  -25.0681  -29.5322   16.7394 N   0  0  0  0  0  0  0  0  0  0  0  0
  -27.6594  -25.9609   15.7765 N   0  0  0  0  0  0  0  0  0  0  0  0
  -21.5176  -28.8421   21.7119 N   0  0  0  0  0  0  0  0  0  0  0  0
  -25.3644  -15.1555   20.9635 N   0  0  0  0  0  0  0  0  0  0  0  0
  -24.0652  -16.4136   26.8627 N   0  0  0  0  0  0  0  0  0  0  0  0
  -24.7817  -19.1404   29.1253 N   0  3  0  0  0  0  0  0  0  0  0  0
  -26.4823  -27.7065   14.8676 O   0  0  0  0  0  0  0  0  0  0  0  0
  -23.7019  -16.7814   20.8401 O   0  0  0  0  0  0  0  0  0  0  0  0
  -25.5102  -15.3077   24.6497 O   0  0  0  0  0  0  0  0  0  0  0  0
  -22.9268  -18.4149   27.1380 O   0  0  0  0  0  0  0  0  0  0  0  0
  -21.6623  -30.8725   22.8248 O   0  0  0  0  0  0  0  0  0  0  0  0
  -29.9576  -22.4706   19.4604 O   0  0  0  0  0  0  0  0  0  0  0  0
  -21.6770  -22.2567   21.6534 O   0  0  0  0  0  0  0  0  0  1  0  0
  -29.0564  -17.9904   16.3750 F   0  0  0  0  0  0  0  0  0  0  0  0
  -29.2039  -20.0773   20.6210 F   0  0  0  0  0  0  0  0  0  0  0  0
  1  2  1  0  0  0  0
  1  5  2  0  0  0  0
  2  6  2  0  0  0  0
  3  8  2  0  0  0  0
  3 17  1  0  0  0  0
  4  9  1  0  0  0  0
  4 17  2  0  0  0  0
  5 19  1  0  0  0  0
  6 21  1  0  0  0  0
  7 10  2  0  0  0  0
  7 20  1  0  0  0  0
  8 27  1  0  0  0  0
  9 27  2  0  0  0  0
 10 28  1  0  0  0  0
 11 12  2  0  0  0  0
 11 29  1  0  0  0  0
 12 30  1  0  0  0  0
 13 22  1  0  0  0  0
 13 28  2  0  0  0  0
 14 23  2  0  0  0  0
 14 24  1  0  0  0  0
 15 23  1  0  0  0  0
 15 26  2  0  0  0  0
 16 30  2  0  0  0  0
 16 31  1  0  0  0  0
 17 32  1  0  0  0  0
 18 32  1  0  0  0  0
 18 33  2  0  0  0  0
 18 34  1  0  0  0  0
 19 21  2  0  0  0  0
 19 39  1  0  0  0  0
 20 22  2  0  0  0  0
 20 40  1  0  0  0  0
 21 48  1  0  0  0  0
 22 41  1  0  0  0  0
 23 51  1  0  0  0  0
 24 25  2  0  0  0  0
 24 67  1  0  0  0  0
 25 26  1  0  0  0  0
 25 52  1  0  0  0  0
 26 77  1  0  0  0  0
 27 86  1  0  0  0  0
 28 87  1  0  0  0  0
 29 31  2  0  0  0  0
 29 86  1  0  0  0  0
 30 88  1  0  0  0  0
 31 89  1  0  0  0  0
 32 71  2  0  0  0  0
 33 72  1  0  0  0  0
 33 75  1  0  0  0  0
 34 76  1  0  0  0  0
 34 81  2  0  0  0  0
 35 49  1  0  0  0  0
 35 78  1  0  0  0  0
 35 82  2  0  0  0  0
 36 65  1  0  0  0  0
 36 73  1  0  0  0  0
 36 83  2  0  0  0  0
 37 66  1  0  0  0  0
 37 79  1  0  0  0  0
 37 84  2  0  0  0  0
 38 74  1  0  0  0  0
 38 77  1  0  0  0  0
 38 85  2  0  0  0  0
 39 42  1  0  0  0  0
 40 49  1  0  0  0  0
 41 73  1  0  0  0  0
 42 44  1  0  0  0  0
 43 45  1  0  0  0  0
 43 46  1  0  0  0  0
 44 48  1  0  0  0  0
 45 50  1  0  0  0  0
 46 74  1  0  0  0  0
 47 50  1  0  0  0  0
 47 74  1  0  0  0  0
 48 78  1  0  0  0  0
 49 73  1  0  0  0  0
 50 72  1  0  0  0  0
 53 66  1  0  0  0  0
 54 67  1  0  0  0  0
 55 67  1  0  0  0  0
 56 68  1  0  0  0  0
 57 68  1  0  0  0  0
 58 68  1  0  0  0  0
 59 69  1  0  0  0  0
 60 69  1  0  0  0  0
 61 70  1  0  0  0  0
 62 70  1  0  0  0  0
 63 80  1  0  0  0  0
 64 69  1  0  0  0  0
 64 70  1  0  0  0  0
 65 68  1  0  0  0  0
 65 79  1  0  0  0  0
 66 80  1  0  0  0  0
 67 69  1  0  0  0  0
 70 87  1  0  0  0  0
 71 72  1  0  0  0  0
M  CHG  1  80   1
M  ISO  4  38 100  70 101  77 100  87 101
M  END
> <Batch ID>
0141

> <Smiles>
CNC(C)C(=O)NC(C(=O)N1Cc2cc([101O:1][101C:1](C)(C)CC(C)(C)C(C)(C)c3cc(C)cc([100NH:0][100C:0](=O)N4CCCC(n5nc(-c6ccc(Oc7ccc(F)cc7F)cc6)c(C(N)=O)c5N)C4)c3C)ccc2CC1C(=O)NC1CCCc2ccccc21)C(C)(C)C

> <Shape>
0.206

> <Color>
0.074

> <Negative vol penalty>
0.000

$$$$

  -OEChem-04052302543D

 88 97  0     1  0  0  0  0  0999 V2000
  -19.0009  -25.2394   24.7194 C   0  0  0  0  0  0  0  0  0  0  0  0
  -20.2648  -25.0545   24.1684 C   0  0  0  0  0  0  0  0  0  0  0  0
  -20.0743  -12.6679   20.4211 C   0  0  0  0  0  0  0  0  0  0  0  0
  -20.7152  -14.1043   18.5872 C   0  0  0  0  0  0  0  0  0  0  0  0
  -18.2627  -26.3785   24.4010 C   0  0  0  0  0  0  0  0  0  0  0  0
  -20.7909  -26.0081   23.2976 C   0  0  0  0  0  0  0  0  0  0  0  0
  -26.6644  -27.6550   22.7544 C   0  0  0  0  0  0  0  0  0  0  0  0
  -27.8260  -18.2941   15.1230 C   0  0  0  0  0  0  0  0  0  0  0  0
  -27.4817  -17.4867   16.2070 C   0  0  0  0  0  0  0  0  0  0  0  0
  -18.7317  -12.8318   20.0803 C   0  0  0  0  0  0  0  0  0  0  0  0
  -19.3726  -14.2681   18.2463 C   0  0  0  0  0  0  0  0  0  0  0  0
  -27.6625  -27.2864   21.8535 C   0  0  0  0  0  0  0  0  0  0  0  0
  -16.3273  -15.1726   20.4851 C   0  0  0  0  0  0  0  0  0  0  0  0
  -15.4236  -15.4252   21.5171 C   0  0  0  0  0  0  0  0  0  0  0  0
  -27.1801  -29.2431   20.5277 C   0  0  0  0  0  0  0  0  0  0  0  0
  -28.2825  -19.1856   17.7267 C   0  0  0  0  0  0  0  0  0  0  0  0
  -14.2100  -13.4155   20.9463 C   0  0  0  0  0  0  0  0  0  0  0  0
  -21.0661  -13.3043   19.6746 C   0  0  0  0  0  0  0  0  0  0  0  0
  -23.1777  -11.9299   20.0740 C   0  0  0  0  0  0  0  0  0  0  0  0
  -18.7840  -27.3513   23.5335 C   0  0  0  0  0  0  0  0  0  0  0  0
  -25.9081  -28.8167   22.5426 C   0  0  0  0  0  0  0  0  0  0  0  0
  -20.0585  -27.1607   22.9662 C   0  0  0  0  0  0  0  0  0  0  0  0
  -26.1747  -29.6256   21.4288 C   0  0  0  0  0  0  0  0  0  0  0  0
  -28.3987  -19.5472   15.3408 C   0  0  0  0  0  0  0  0  0  0  0  0
  -28.6269  -19.9930   16.6427 C   0  0  0  0  0  0  0  0  0  0  0  0
  -27.7100  -17.9324   17.5089 C   0  0  0  0  0  0  0  0  0  0  0  0
  -18.3808  -13.6318   18.9929 C   0  0  0  0  0  0  0  0  0  0  0  0
  -27.9185  -28.0788   20.7384 C   0  0  0  0  0  0  0  0  0  0  0  0
  -16.1723  -14.0415   19.6836 C   0  0  0  0  0  0  0  0  0  0  0  0
  -14.3650  -14.5466   21.7477 C   0  0  0  0  0  0  0  0  0  0  0  0
  -15.1137  -13.1630   19.9142 C   0  0  0  0  0  0  0  0  0  0  0  0
  -22.4531  -13.1359   20.0265 C   0  0  0  0  0  0  0  0  0  0  0  0
  -24.4420  -12.3039   20.4590 C   0  0  0  0  0  0  0  0  0  0  0  0
  -30.2950  -23.8187   17.4328 C   0  0  0  0  0  0  0  0  0  0  0  0
  -30.5942  -24.8740   18.2026 C   0  0  0  0  0  0  0  0  0  0  0  0
  -22.7466  -10.5912   19.7950 C   0  0  0  0  0  0  0  0  0  0  0  0
  -29.6609  -26.0288   18.3137 C   0  0  0  0  0  0  0  0  0  0  0  0
  -22.8279  -29.4294   22.0519 C   0  0  0  0  0  0  0  0  0  0  0  0
  -23.8093  -32.5143   22.2586 C   0  0  0  0  0  0  0  0  0  0  0  0
  -25.4912  -35.4838   22.2766 C   0  0  0  0  0  0  0  0  0  0  0  0
  -27.5194  -17.4019   19.9642 C   0  0  0  0  0  0  0  0  0  0  0  0
  -17.9294  -28.5432   23.1818 C   0  0  0  0  0  0  0  0  0  0  0  0
  -24.8531  -29.2148   23.5380 C   0  0  0  0  0  0  0  0  0  0  0  0
  -25.4047  -30.8933   21.1667 C   0  0  0  0  0  0  0  0  0  0  0  0
  -31.2077  -22.6349   17.2742 C   0  0  0  0  0  0  0  0  0  0  0  0
  -29.0073  -23.7021   16.6657 C   0  0  0  0  0  0  0  0  0  0  0  0
  -18.7131  -29.6880   22.5449 C   0  0  0  0  0  0  0  0  0  0  0  0
  -26.7510  -15.6620   22.9741 C   0  0  0  0  0  0  0  0  0  0  0  0
  -19.6413  -29.1587   21.4563 C   0  0  0  0  0  0  0  0  0  0  0  0
  -25.6318  -14.7027   22.5627 C   0  0  0  0  0  0  0  0  0  0  0  0
  -30.4740  -21.3342   17.6114 C   0  0  0  0  0  0  0  0  0  0  0  0
  -28.2901  -22.3966   17.0159 C   0  0  0  0  0  0  0  0  0  0  0  0
  -26.6401  -17.0049   22.2542 C   0  0  0  0  0  0  0  0  0  0  0  0
  -25.4304  -15.9600   20.3797 C   0  0  0  0  0  0  0  0  0  0  0  0
  -20.6736  -28.1846   22.0371 C   0  0  1  0  0  0  0  0  0  0  0  0
  -23.7971  -30.1453   22.9496 C   0  0  1  0  0  0  0  0  0  0  0  0
  -25.5375  -14.5710   21.0299 C   0  0  2  0  0  0  0  0  0  0  0  0
  -28.7574  -20.3914   14.1614 C   0  0  0  0  0  0  0  0  0  0  0  0
  -25.1250  -37.9564   22.0548 C   0  0  0  0  0  0  0  0  0  0  0  0
  -23.4725  -32.1914   19.2433 C   0  0  0  0  0  0  0  0  0  0  0  0
  -24.0628  -34.6111   18.9885 C   0  0  0  0  0  0  0  0  0  0  0  0
  -22.0269  -33.9542   20.2716 C   0  0  0  0  0  0  0  0  0  0  0  0
  -26.5404  -36.0004   24.9953 C   0  0  0  0  0  0  0  0  0  0  0  0
  -29.1522  -26.3258   19.7084 C   0  0  0  0  0  0  0  0  0  1  0  0
  -24.3107  -33.5448   21.2760 C   0  0  1  0  0  0  0  0  0  0  0  0
  -25.2323  -36.7836   23.0169 C   0  0  2  0  0  0  0  0  0  0  0  0
  -23.4860  -33.5575   19.9580 C   0  0  0  0  0  0  0  0  0  0  0  0
  -23.1953  -14.1966   20.3552 N   0  0  0  0  0  0  0  0  0  0  0  0
  -24.3994  -13.6583   20.6130 N   0  0  0  0  0  0  0  0  0  0  0  0
  -29.2015  -21.2474   16.8792 N   0  0  0  0  0  0  0  0  0  0  0  0
  -24.3791  -31.2366   22.1656 N   0  0  0  0  0  0  0  0  0  0  0  0
  -26.5593  -16.8017   20.8061 N   0  0  0  0  0  0  0  0  0  0  0  0
  -25.5749  -11.6029   20.6775 N   0  0  0  0  0  0  0  0  0  0  0  0
  -22.8630  -10.1115   18.4832 N   0  0  0  0  0  0  0  0  0  0  0  0
  -27.3604  -17.1114   18.6096 N   0  0  0  0  0  0  0  0  0  0  0  0
  -21.7298  -28.9097   22.7103 N   0  0  0  0  0  0  0  0  0  0  0  0
  -24.3186  -34.8180   21.9881 N   0  0  0  0  0  0  0  0  0  0  0  0
  -26.3380  -37.0623   23.9763 N   0  3  0  0  0  0  0  0  0  0  0  0
  -22.2570   -9.8483   20.6792 O   0  0  0  0  0  0  0  0  0  0  0  0
  -29.3287  -26.6927   17.3354 O   0  0  0  0  0  0  0  0  0  0  0  0
  -23.0585  -29.3554   20.8506 O   0  0  0  0  0  0  0  0  0  0  0  0
  -22.9491  -32.8333   23.0832 O   0  0  0  0  0  0  0  0  0  0  0  0
  -26.6204  -35.0994   21.9804 O   0  0  0  0  0  0  0  0  0  0  0  0
  -28.4326  -18.0985   20.4145 O   0  0  0  0  0  0  0  0  0  0  0  0
  -17.0708  -13.7917   18.6598 O   0  0  0  0  0  0  0  0  0  0  0  0
  -28.8917  -27.7209   19.8570 O   0  0  0  0  0  0  0  0  0  1  0  0
  -13.4981  -14.7885   22.7398 F   0  0  0  0  0  0  0  0  0  0  0  0
  -14.9604  -12.0741   19.1482 F   0  0  0  0  0  0  0  0  0  0  0  0
  1  2  1  0  0  0  0
  1  5  2  0  0  0  0
  2  6  2  0  0  0  0
  3 10  2  0  0  0  0
  3 18  1  0  0  0  0
  4 11  1  0  0  0  0
  4 18  2  0  0  0  0
  5 20  1  0  0  0  0
  6 22  1  0  0  0  0
  7 12  2  0  0  0  0
  7 21  1  0  0  0  0
  8  9  2  0  0  0  0
  8 24  1  0  0  0  0
  9 26  1  0  0  0  0
 10 27  1  0  0  0  0
 11 27  2  0  0  0  0
 12 28  1  0  0  0  0
 13 14  2  0  0  0  0
 13 29  1  0  0  0  0
 14 30  1  0  0  0  0
 15 23  1  0  0  0  0
 15 28  2  0  0  0  0
 16 25  1  0  0  0  0
 16 26  2  0  0  0  0
 17 30  2  0  0  0  0
 17 31  1  0  0  0  0
 18 32  1  0  0  0  0
 19 32  1  0  0  0  0
 19 33  2  0  0  0  0
 19 36  1  0  0  0  0
 20 22  2  0  0  0  0
 20 42  1  0  0  0  0
 21 23  2  0  0  0  0
 21 43  1  0  0  0  0
 22 55  1  0  0  0  0
 23 44  1  0  0  0  0
 24 25  2  0  0  0  0
 24 58  1  0  0  0  0
 25 70  1  0  0  0  0
 26 75  1  0  0  0  0
 27 85  1  0  0  0  0
 28 86  1  0  0  0  0
 29 31  2  0  0  0  0
 29 85  1  0  0  0  0
 30 87  1  0  0  0  0
 31 88  1  0  0  0  0
 32 68  2  0  0  0  0
 33 69  1  0  0  0  0
 33 73  1  0  0  0  0
 34 35  2  0  0  0  0
 34 45  1  0  0  0  0
 34 46  1  0  0  0  0
 35 37  1  0  0  0  0
 36 74  1  0  0  0  0
 36 79  2  0  0  0  0
 37 64  1  0  0  0  0
 37 80  2  0  0  0  0
 38 56  1  0  0  0  0
 38 76  1  0  0  0  0
 38 81  2  0  0  0  0
 39 65  1  0  0  0  0
 39 71  1  0  0  0  0
 39 82  2  0  0  0  0
 40 66  1  0  0  0  0
 40 77  1  0  0  0  0
 40 83  2  0  0  0  0
 41 72  1  0  0  0  0
 41 75  1  0  0  0  0
 41 84  2  0  0  0  0
 42 47  1  0  0  0  0
 43 56  1  0  0  0  0
 44 71  1  0  0  0  0
 45 51  1  0  0  0  0
 46 52  1  0  0  0  0
 47 49  1  0  0  0  0
 48 50  1  0  0  0  0
 48 53  1  0  0  0  0
 49 55  1  0  0  0  0
 50 57  1  0  0  0  0
 51 70  1  0  0  0  0
 52 70  1  0  0  0  0
 53 72  1  0  0  0  0
 54 57  1  0  0  0  0
 54 72  1  0  0  0  0
 55 76  1  0  0  0  0
 56 71  1  0  0  0  0
 57 69  1  0  0  0  0
 59 66  1  0  0  0  0
 60 67  1  0  0  0  0
 61 67  1  0  0  0  0
 62 67  1  0  0  0  0
 63 78  1  0  0  0  0
 64 86  1  0  0  0  0
 65 67  1  0  0  0  0
 65 77  1  0  0  0  0
 66 78  1  0  0  0  0
 68 69  1  0  0  0  0
M  CHG  1  78   1
M  ISO  4  41 100  64 101  75 100  86 101
M  END
> <Batch ID>
0141

> <Smiles>
CNC(C)C(=O)NC(C(=O)N1Cc2cc([101O:1][101CH2:1]C(=O)C=C3CCN(c4cc([100NH:0][100C:0](=O)N5CCCC(n6nc(-c7ccc(Oc8ccc(F)cc8F)cc7)c(C(N)=O)c6N)C5)ccc4C)CC3)ccc2CC1C(=O)NC1CCCc2ccccc21)C(C)(C)C

> <Shape>
0.243

> <Color>
0.120

> <Negative vol penalty>
0.000

$$$$

  -OEChem-04052302543D

 86 94  0     1  0  0  0  0  0999 V2000
  -29.2180  -36.9008   20.0198 C   0  0  0  0  0  0  0  0  0  0  0  0
  -29.2701  -35.5965   19.5388 C   0  0  0  0  0  0  0  0  0  0  0  0
  -24.6405   -8.6263   20.5172 C   0  0  0  0  0  0  0  0  0  0  0  0
  -23.0352  -10.4228   20.3367 C   0  0  0  0  0  0  0  0  0  0  0  0
  -28.8027  -37.1440   21.3284 C   0  0  0  0  0  0  0  0  0  0  0  0
  -28.9080  -34.5343   20.3666 C   0  0  0  0  0  0  0  0  0  0  0  0
  -26.1063  -29.3521   18.6930 C   0  0  0  0  0  0  0  0  0  0  0  0
  -23.6489   -7.7921   21.0334 C   0  0  0  0  0  0  0  0  0  0  0  0
  -22.0435   -9.5886   20.8529 C   0  0  0  0  0  0  0  0  0  0  0  0
  -26.5869  -28.0725   18.4185 C   0  0  0  0  0  0  0  0  0  0  0  0
  -22.0984   -7.3049   23.9970 C   0  0  0  0  0  0  0  0  0  0  0  0
  -22.4198   -6.5302   25.1114 C   0  0  0  0  0  0  0  0  0  0  0  0
  -26.0784  -27.4031   20.6796 C   0  0  0  0  0  0  0  0  0  0  0  0
  -29.7632  -18.9397   18.1452 C   0  0  0  0  0  0  0  0  0  0  0  0
  -21.9457   -4.5231   23.8528 C   0  0  0  0  0  0  0  0  0  0  0  0
  -28.9857  -19.3279   15.9895 C   0  0  0  0  0  0  0  0  0  0  0  0
  -24.3336   -9.9417   20.1689 C   0  0  0  0  0  0  0  0  0  0  0  0
  -25.7035  -10.9775   18.2826 C   0  0  0  0  0  0  0  0  0  0  0  0
  -28.4261  -36.0851   22.1695 C   0  0  0  0  0  0  0  0  0  0  0  0
  -25.6174  -29.6705   19.9681 C   0  0  0  0  0  0  0  0  0  0  0  0
  -28.4885  -34.7634   21.6881 C   0  0  0  0  0  0  0  0  0  0  0  0
  -25.5898  -28.6868   20.9670 C   0  0  0  0  0  0  0  0  0  0  0  0
  -29.8273  -19.7677   16.9874 C   0  0  0  0  0  0  0  0  0  0  0  0
  -22.3504   -8.2732   21.2012 C   0  0  0  0  0  0  0  0  0  0  0  0
  -26.5756  -27.0985   19.4127 C   0  0  0  0  0  0  0  0  0  0  0  0
  -21.7006   -6.6888   22.8104 C   0  0  0  0  0  0  0  0  0  0  0  0
  -22.3435   -5.1392   25.0393 C   0  0  0  0  0  0  0  0  0  0  0  0
  -21.6243   -5.2979   22.7383 C   0  0  0  0  0  0  0  0  0  0  0  0
  -25.3576  -10.8041   19.6361 C   0  0  0  0  0  0  0  0  0  0  0  0
  -26.7259  -11.8944   18.3043 C   0  0  0  0  0  0  0  0  0  0  0  0
  -28.8747  -17.8986   17.9881 C   0  0  0  0  0  0  0  0  0  0  0  0
  -25.1501  -10.3647   17.1105 C   0  0  0  0  0  0  0  0  0  0  0  0
  -26.4523  -31.7301   22.2407 C   0  0  0  0  0  0  0  0  0  0  0  0
  -29.0111  -23.6485   19.2863 C   0  0  0  0  0  0  0  0  0  0  0  0
  -23.7309  -30.6736   23.6549 C   0  0  0  0  0  0  0  0  0  0  0  0
  -21.4083  -28.1942   23.9787 C   0  0  0  0  0  0  0  0  0  0  0  0
  -28.9793  -16.6342   20.1645 C   0  0  0  0  0  0  0  0  0  0  0  0
  -28.0292  -36.3934   23.5915 C   0  0  0  0  0  0  0  0  0  0  0  0
  -25.0778  -31.0479   20.2404 C   0  0  0  0  0  0  0  0  0  0  0  0
  -25.0566  -28.9720   22.3464 C   0  0  0  0  0  0  0  0  0  0  0  0
  -27.3043  -35.2426   24.2847 C   0  0  0  0  0  0  0  0  0  0  0  0
  -29.4238  -13.7290   22.1744 C   0  0  0  0  0  0  0  0  0  0  0  0
  -28.0369  -33.9269   24.0422 C   0  0  0  0  0  0  0  0  0  0  0  0
  -28.4340  -12.7233   21.5819 C   0  0  0  0  0  0  0  0  0  0  0  0
  -28.8668  -15.1514   22.1554 C   0  0  0  0  0  0  0  0  0  0  0  0
  -27.3981  -14.6075   20.2538 C   0  0  0  0  0  0  0  0  0  0  0  0
  -28.0800  -33.5868   22.5475 C   0  0  1  0  0  0  0  0  0  0  0  0
  -25.0791  -31.4078   21.7229 C   0  0  1  0  0  0  0  0  0  0  0  0
  -27.9406  -13.1703   20.1918 C   0  0  2  0  0  0  0  0  0  0  0  0
  -30.7442  -21.9708   19.8348 C   0  0  0  0  0  0  0  0  0  0  0  0
  -19.3207  -27.6029   25.2396 C   0  0  0  0  0  0  0  0  0  0  0  0
  -25.4029  -30.0682   26.1344 C   0  0  0  0  0  0  0  0  0  0  0  0
  -23.5215  -28.6432   26.9697 C   0  0  0  0  0  0  0  0  0  0  0  0
  -23.1676  -31.0856   26.6064 C   0  0  0  0  0  0  0  0  0  0  0  0
  -31.2319  -23.4165   17.0954 C   0  0  0  0  0  0  0  0  0  0  0  0
  -28.9373  -22.7453   16.4037 C   0  0  0  0  0  0  0  0  0  0  0  0
  -19.8184  -28.0083   21.4894 C   0  0  0  0  0  0  0  0  0  0  0  0
  -30.7153  -20.9865   16.8694 C   0  0  0  0  0  0  0  0  0  0  0  0
  -27.5550  -23.5667   19.7297 C   0  0  0  0  0  0  0  0  0  0  0  0
  -27.0040  -24.8998   20.2115 C   0  0  0  0  0  0  0  0  0  1  0  0
  -29.6525  -22.3325   18.8217 C   0  0  2  0  0  0  0  0  0  0  0  0
  -23.3859  -29.5539   24.6069 C   0  0  1  0  0  0  0  0  0  0  0  0
  -19.8907  -28.2291   23.9763 C   0  0  2  0  0  0  0  0  0  0  0  0
  -23.8814  -29.8326   26.0540 C   0  0  0  0  0  0  0  0  0  0  0  0
  -30.1197  -22.3642   17.3244 C   0  0  0  0  0  0  0  0  0  0  0  0
  -26.1001  -11.5508   20.4579 N   0  0  0  0  0  0  0  0  0  0  0  0
  -26.9228  -12.2022   19.6183 N   0  0  0  0  0  0  0  0  0  0  0  0
  -24.5459  -30.3354   22.5654 N   0  0  0  0  0  0  0  0  0  0  0  0
  -28.4232  -15.5071   20.8058 N   0  0  0  0  0  0  0  0  0  0  0  0
  -27.4668  -12.4593   17.3273 N   0  0  0  0  0  0  0  0  0  0  0  0
  -24.1043   -9.4450   17.2679 N   0  0  0  0  0  0  0  0  0  0  0  0
  -28.5046  -16.8548   18.8720 N   0  0  0  0  0  0  0  0  0  0  0  0
  -26.8043  -33.0601   22.1121 N   0  0  0  0  0  0  0  0  0  0  0  0
  -21.9450  -29.3539   24.4967 N   0  0  0  0  0  0  0  0  0  0  0  0
  -19.3573  -27.4843   22.8008 N   0  3  0  0  0  0  0  0  0  0  0  0
  -25.5816  -10.6125   15.9590 O   0  0  0  0  0  0  0  0  0  0  0  0
  -27.1409  -30.8384   22.7228 O   0  0  0  0  0  0  0  0  0  0  0  0
  -29.6469  -24.7017   19.3222 O   0  0  0  0  0  0  0  0  0  0  0  0
  -23.2874  -31.8052   23.8662 O   0  0  0  0  0  0  0  0  0  0  0  0
  -22.0531  -27.2328   23.5659 O   0  0  0  0  0  0  0  0  0  0  0  0
  -29.8351  -17.3351   20.7107 O   0  0  0  0  0  0  0  0  0  0  0  0
  -21.3826   -7.4594   21.7047 O   0  0  0  0  0  0  0  0  0  0  0  0
  -27.0480  -25.8401   19.1459 O   0  0  0  0  0  0  0  0  0  1  0  0
  -22.6536   -4.3953   26.1092 F   0  0  0  0  0  0  0  0  0  0  0  0
  -21.2439   -4.7003   21.6008 F   0  0  0  0  0  0  0  0  0  0  0  0
  -28.1230  -17.9221   16.4498 S   0  0  0  0  0  0  0  0  0  0  0  0
  1  2  1  0  0  0  0
  1  5  2  0  0  0  0
  2  6  2  0  0  0  0
  3  8  2  0  0  0  0
  3 17  1  0  0  0  0
  4  9  1  0  0  0  0
  4 17  2  0  0  0  0
  5 19  1  0  0  0  0
  6 21  1  0  0  0  0
  7 10  2  0  0  0  0
  7 20  1  0  0  0  0
  8 24  1  0  0  0  0
  9 24  2  0  0  0  0
 10 25  1  0  0  0  0
 11 12  2  0  0  0  0
 11 26  1  0  0  0  0
 12 27  1  0  0  0  0
 13 22  1  0  0  0  0
 13 25  2  0  0  0  0
 14 23  1  0  0  0  0
 14 31  2  0  0  0  0
 15 27  2  0  0  0  0
 15 28  1  0  0  0  0
 16 23  2  0  0  0  0
 16 86  1  0  0  0  0
 17 29  1  0  0  0  0
 18 29  1  0  0  0  0
 18 30  2  0  0  0  0
 18 32  1  0  0  0  0
 19 21  2  0  0  0  0
 19 38  1  0  0  0  0
 20 22  2  0  0  0  0
 20 39  1  0  0  0  0
 21 47  1  0  0  0  0
 22 40  1  0  0  0  0
 23 58  1  0  0  0  0
 24 82  1  0  0  0  0
 25 83  1  0  0  0  0
 26 28  2  0  0  0  0
 26 82  1  0  0  0  0
 27 84  1  0  0  0  0
 28 85  1  0  0  0  0
 29 66  2  0  0  0  0
 30 67  1  0  0  0  0
 30 70  1  0  0  0  0
 31 72  1  0  0  0  0
 31 86  1  0  0  0  0
 32 71  1  0  0  0  0
 32 76  2  0  0  0  0
 33 48  1  0  0  0  0
 33 73  1  0  0  0  0
 33 77  2  0  0  0  0
 34 59  1  0  0  0  0
 34 61  1  0  0  0  0
 34 78  2  0  0  0  0
 35 62  1  0  0  0  0
 35 68  1  0  0  0  0
 35 79  2  0  0  0  0
 36 63  1  0  0  0  0
 36 74  1  0  0  0  0
 36 80  2  0  0  0  0
 37 69  1  0  0  0  0
 37 72  1  0  0  0  0
 37 81  2  0  0  0  0
 38 41  1  0  0  0  0
 39 48  1  0  0  0  0
 40 68  1  0  0  0  0
 41 43  1  0  0  0  0
 42 44  1  0  0  0  0
 42 45  1  0  0  0  0
 43 47  1  0  0  0  0
 44 49  1  0  0  0  0
 45 69  1  0  0  0  0
 46 49  1  0  0  0  0
 46 69  1  0  0  0  0
 47 73  1  0  0  0  0
 48 68  1  0  0  0  0
 49 67  1  0  0  0  0
 50 61  1  0  0  0  0
 51 63  1  0  0  0  0
 52 64  1  0  0  0  0
 53 64  1  0  0  0  0
 54 64  1  0  0  0  0
 55 65  1  0  0  0  0
 56 65  1  0  0  0  0
 57 75  1  0  0  0  0
 58 65  1  0  0  0  0
 59 60  1  0  0  0  0
 60 83  1  0  0  0  0
 61 65  1  0  0  0  0
 62 64  1  0  0  0  0
 62 74  1  0  0  0  0
 63 75  1  0  0  0  0
 66 67  1  0  0  0  0
M  CHG  1  75   1
M  ISO  4  37 100  60 101  72 100  83 101
M  END
> <Batch ID>
0141

> <Smiles>
CNC(C)C(=O)NC(C(=O)N1Cc2cc([101O:1][101CH2:1]CC(=O)C(C)C(C)(C)Cc3csc([100NH:0][100C:0](=O)N4CCCC(n5nc(-c6ccc(Oc7ccc(F)cc7F)cc6)c(C(N)=O)c5N)C4)c3)ccc2CC1C(=O)NC1CCCc2ccccc21)C(C)(C)C

> <Shape>
0.298

> <Color>
0.115

> <Negative vol penalty>
0.000

$$$$

  -OEChem-04052302543D

 87 95  0     1  0  0  0  0  0999 V2000
  -16.6591  -28.3594   23.5916 C   0  0  0  0  0  0  0  0  0  0  0  0
  -17.2316  -28.4405   22.3262 C   0  0  0  0  0  0  0  0  0  0  0  0
  -25.5291  -12.2098   20.9762 C   0  0  0  0  0  0  0  0  0  0  0  0
  -25.2715  -13.3437   23.0940 C   0  0  0  0  0  0  0  0  0  0  0  0
  -17.1885  -29.1051   24.6440 C   0  0  0  0  0  0  0  0  0  0  0  0
  -18.3333  -29.2682   22.1124 C   0  0  0  0  0  0  0  0  0  0  0  0
  -25.4002  -27.5517   19.2596 C   0  0  0  0  0  0  0  0  0  0  0  0
  -26.1694  -11.1515   21.6207 C   0  0  0  0  0  0  0  0  0  0  0  0
  -25.9118  -12.2853   23.7386 C   0  0  0  0  0  0  0  0  0  0  0  0
  -26.7358  -27.3402   18.9165 C   0  0  0  0  0  0  0  0  0  0  0  0
  -27.1573   -9.7176   25.9910 C   0  0  0  0  0  0  0  0  0  0  0  0
  -26.5931   -9.2411   27.1743 C   0  0  0  0  0  0  0  0  0  0  0  0
  -27.3910  -29.2514   20.2454 C   0  0  0  0  0  0  0  0  0  0  0  0
  -25.9520  -21.4255   23.7133 C   0  0  0  0  0  0  0  0  0  0  0  0
  -27.3585  -22.5327   22.0907 C   0  0  0  0  0  0  0  0  0  0  0  0
  -24.5610   -8.6969   25.9861 C   0  0  0  0  0  0  0  0  0  0  0  0
  -25.0801  -13.3060   21.7128 C   0  0  0  0  0  0  0  0  0  0  0  0
  -23.0393  -14.5386   20.8056 C   0  0  0  0  0  0  0  0  0  0  0  0
  -18.3031  -29.9350   24.4452 C   0  0  0  0  0  0  0  0  0  0  0  0
  -25.0563  -28.6060   20.1103 C   0  0  0  0  0  0  0  0  0  0  0  0
  -18.8772  -30.0267   23.1629 C   0  0  0  0  0  0  0  0  0  0  0  0
  -26.0563  -29.4607   20.6025 C   0  0  0  0  0  0  0  0  0  0  0  0
  -26.4254  -22.2814   24.7077 C   0  0  0  0  0  0  0  0  0  0  0  0
  -27.3653  -23.2630   24.3936 C   0  0  0  0  0  0  0  0  0  0  0  0
  -26.4186  -21.5511   22.4048 C   0  0  0  0  0  0  0  0  0  0  0  0
  -27.8318  -23.3887   23.0851 C   0  0  0  0  0  0  0  0  0  0  0  0
  -26.3608  -11.1892   23.0019 C   0  0  0  0  0  0  0  0  0  0  0  0
  -27.7286  -28.1881   19.4080 C   0  0  0  0  0  0  0  0  0  0  0  0
  -26.4234   -9.6838   24.8053 C   0  0  0  0  0  0  0  0  0  0  0  0
  -25.2949   -8.7307   27.1718 C   0  0  0  0  0  0  0  0  0  0  0  0
  -25.1253   -9.1734   24.8028 C   0  0  0  0  0  0  0  0  0  0  0  0
  -24.4191  -14.3998   21.0476 C   0  0  0  0  0  0  0  0  0  0  0  0
  -22.9248  -15.7398   20.1495 C   0  0  0  0  0  0  0  0  0  0  0  0
  -21.9577  -13.6603   21.1438 C   0  0  0  0  0  0  0  0  0  0  0  0
  -22.3316  -30.4440   21.9197 C   0  0  0  0  0  0  0  0  0  0  0  0
  -30.2904  -25.6845   21.4190 C   0  0  0  0  0  0  0  0  0  0  0  0
  -24.7213  -30.2808   23.8363 C   0  0  0  0  0  0  0  0  0  0  0  0
  -26.9897  -29.1033   25.6721 C   0  0  0  0  0  0  0  0  0  0  0  0
  -26.2956  -20.6726   20.0469 C   0  0  0  0  0  0  0  0  0  0  0  0
  -18.8108  -30.7582   25.6024 C   0  0  0  0  0  0  0  0  0  0  0  0
  -23.6238  -28.9085   20.4570 C   0  0  0  0  0  0  0  0  0  0  0  0
  -25.6359  -30.6028   21.4867 C   0  0  0  0  0  0  0  0  0  0  0  0
  -20.2108  -31.3243   25.3793 C   0  0  0  0  0  0  0  0  0  0  0  0
  -25.3635  -18.6720   17.2530 C   0  0  0  0  0  0  0  0  0  0  0  0
  -20.3206  -31.9445   23.9900 C   0  0  0  0  0  0  0  0  0  0  0  0
  -24.8842  -17.3643   17.8873 C   0  0  0  0  0  0  0  0  0  0  0  0
  -26.5473  -19.2697   18.0114 C   0  0  0  0  0  0  0  0  0  0  0  0
  -25.8560  -18.1387   20.0880 C   0  0  0  0  0  0  0  0  0  0  0  0
  -20.0883  -30.8943   22.8970 C   0  0  1  0  0  0  0  0  0  0  0  0
  -23.4498  -29.4439   21.8896 C   0  0  1  0  0  0  0  0  0  0  0  0
  -24.6236  -17.5326   19.3971 C   0  0  2  0  0  0  0  0  0  0  0  0
  -25.9106  -22.1249   26.1011 C   0  0  0  0  0  0  0  0  0  0  0  0
  -29.2670  -23.7938   25.9390 C   0  0  0  0  0  0  0  0  0  0  0  0
  -28.6634  -28.4450   27.4222 C   0  0  0  0  0  0  0  0  0  0  0  0
  -25.4510  -33.1588   23.1372 C   0  0  0  0  0  0  0  0  0  0  0  0
  -27.1220  -33.1129   25.0011 C   0  0  0  0  0  0  0  0  0  0  0  0
  -24.6950  -32.8175   25.4965 C   0  0  0  0  0  0  0  0  0  0  0  0
  -25.0411  -27.3454   27.0403 C   0  0  0  0  0  0  0  0  0  0  0  0
  -27.8708  -24.1795   25.4633 C   0  0  0  0  0  0  0  0  0  0  0  0
  -30.9210  -25.9933   20.0685 C   0  0  0  0  0  0  0  0  0  0  0  0
  -29.2913  -24.5454   21.4245 C   0  0  0  0  0  0  0  0  0  0  0  0
  -31.2408  -27.4702   19.8601 C   0  0  0  0  0  0  0  0  0  0  0  0
  -30.0190  -28.3667   20.0242 C   0  0  0  0  0  0  0  0  0  1  0  0
  -25.9659  -30.9471   24.3658 C   0  0  1  0  0  0  0  0  0  0  0  0
  -27.1881  -28.6205   27.0976 C   0  0  2  0  0  0  0  0  0  0  0  0
  -25.8096  -32.4899   24.4792 C   0  0  0  0  0  0  0  0  0  0  0  0
  -25.1303  -15.4305   20.5828 N   0  0  0  0  0  0  0  0  0  0  0  0
  -24.1937  -16.2283   20.0422 N   0  0  0  0  0  0  0  0  0  0  0  0
  -24.6181  -30.1468   22.4464 N   0  0  0  0  0  0  0  0  0  0  0  0
  -26.2261  -19.4037   19.4340 N   0  0  0  0  0  0  0  0  0  0  0  0
  -21.8636  -16.4152   19.6596 N   0  0  0  0  0  0  0  0  0  0  0  0
  -22.2517  -12.4670   21.8176 N   0  0  0  0  0  0  0  0  0  0  0  0
  -25.9365  -20.6825   21.3944 N   0  0  0  0  0  0  0  0  0  0  0  0
  -28.7665  -24.3589   22.7531 N   0  0  0  0  0  0  0  0  0  0  0  0
  -21.2692  -30.0761   22.7230 N   0  0  0  0  0  0  0  0  0  0  0  0
  -26.2788  -30.2839   25.6270 N   0  0  0  0  0  0  0  0  0  0  0  0
  -26.5032  -27.3128   27.3017 N   0  3  0  0  0  0  0  0  0  0  0  0
  -20.7676  -13.9179   20.8425 O   0  0  0  0  0  0  0  0  0  0  0  0
  -22.4253  -31.4748   21.2638 O   0  0  0  0  0  0  0  0  0  0  0  0
  -30.5542  -26.3347   22.4296 O   0  0  0  0  0  0  0  0  0  0  0  0
  -23.8597  -29.8938   24.6308 O   0  0  0  0  0  0  0  0  0  0  0  0
  -27.4253  -28.4959   24.6965 O   0  0  0  0  0  0  0  0  0  0  0  0
  -26.6214  -21.6813   19.4157 O   0  0  0  0  0  0  0  0  0  0  0  0
  -26.9854  -10.1565   23.6312 O   0  0  0  0  0  0  0  0  0  0  0  0
  -29.0310  -27.9731   19.0728 O   0  0  0  0  0  0  0  0  0  1  0  0
  -24.7537   -8.2718   28.3079 F   0  0  0  0  0  0  0  0  0  0  0  0
  -24.4158   -9.1373   23.6665 F   0  0  0  0  0  0  0  0  0  0  0  0
  1  2  1  0  0  0  0
  1  5  2  0  0  0  0
  2  6  2  0  0  0  0
  3  8  2  0  0  0  0
  3 17  1  0  0  0  0
  4  9  1  0  0  0  0
  4 17  2  0  0  0  0
  5 19  1  0  0  0  0
  6 21  1  0  0  0  0
  7 10  2  0  0  0  0
  7 20  1  0  0  0  0
  8 27  1  0  0  0  0
  9 27  2  0  0  0  0
 10 28  1  0  0  0  0
 11 12  2  0  0  0  0
 11 29  1  0  0  0  0
 12 30  1  0  0  0  0
 13 22  1  0  0  0  0
 13 28  2  0  0  0  0
 14 23  2  0  0  0  0
 14 25  1  0  0  0  0
 15 25  2  0  0  0  0
 15 26  1  0  0  0  0
 16 30  2  0  0  0  0
 16 31  1  0  0  0  0
 17 32  1  0  0  0  0
 18 32  1  0  0  0  0
 18 33  2  0  0  0  0
 18 34  1  0  0  0  0
 19 21  2  0  0  0  0
 19 40  1  0  0  0  0
 20 22  2  0  0  0  0
 20 41  1  0  0  0  0
 21 49  1  0  0  0  0
 22 42  1  0  0  0  0
 23 24  1  0  0  0  0
 23 52  1  0  0  0  0
 24 26  2  0  0  0  0
 24 59  1  0  0  0  0
 25 73  1  0  0  0  0
 26 74  1  0  0  0  0
 27 84  1  0  0  0  0
 28 85  1  0  0  0  0
 29 31  2  0  0  0  0
 29 84  1  0  0  0  0
 30 86  1  0  0  0  0
 31 87  1  0  0  0  0
 32 67  2  0  0  0  0
 33 68  1  0  0  0  0
 33 71  1  0  0  0  0
 34 72  1  0  0  0  0
 34 78  2  0  0  0  0
 35 50  1  0  0  0  0
 35 75  1  0  0  0  0
 35 79  2  0  0  0  0
 36 60  1  0  0  0  0
 36 61  1  0  0  0  0
 36 80  2  0  0  0  0
 37 64  1  0  0  0  0
 37 69  1  0  0  0  0
 37 81  2  0  0  0  0
 38 65  1  0  0  0  0
 38 76  1  0  0  0  0
 38 82  2  0  0  0  0
 39 70  1  0  0  0  0
 39 73  1  0  0  0  0
 39 83  2  0  0  0  0
 40 43  1  0  0  0  0
 41 50  1  0  0  0  0
 42 69  1  0  0  0  0
 43 45  1  0  0  0  0
 44 46  1  0  0  0  0
 44 47  1  0  0  0  0
 45 49  1  0  0  0  0
 46 51  1  0  0  0  0
 47 70  1  0  0  0  0
 48 51  1  0  0  0  0
 48 70  1  0  0  0  0
 49 75  1  0  0  0  0
 50 69  1  0  0  0  0
 51 68  1  0  0  0  0
 53 59  1  0  0  0  0
 54 65  1  0  0  0  0
 55 66  1  0  0  0  0
 56 66  1  0  0  0  0
 57 66  1  0  0  0  0
 58 77  1  0  0  0  0
 60 62  1  0  0  0  0
 61 74  1  0  0  0  0
 62 63  1  0  0  0  0
 63 85  1  0  0  0  0
 64 66  1  0  0  0  0
 64 76  1  0  0  0  0
 65 77  1  0  0  0  0
 67 68  1  0  0  0  0
M  CHG  1  77   1
M  ISO  4  39 100  63 101  73 100  85 101
M  END
> <Batch ID>
0141

> <Smiles>
CCc1c(C)cc([100NH:0][100C:0](=O)N2CCCC(n3nc(-c4ccc(Oc5ccc(F)cc5F)cc4)c(C(N)=O)c3N)C2)cc1NCC(=O)CC[101CH2:1][101O:1]c1ccc2c(c1)CN(C(=O)C(NC(=O)C(C)NC)C(C)(C)C)C(C(=O)NC1CCCc3ccccc31)C2

> <Shape>
0.230

> <Color>
0.093

> <Negative vol penalty>
0.000

$$$$

  -OEChem-04052302543D

 89 97  0     1  0  0  0  0  0999 V2000
  -19.0672  -32.6886   20.4033 C   0  0  0  0  0  0  0  0  0  0  0  0
  -20.3655  -32.3310   20.0541 C   0  0  0  0  0  0  0  0  0  0  0  0
  -23.3947   -9.9904   20.8644 C   0  0  0  0  0  0  0  0  0  0  0  0
  -25.7465   -9.8807   21.4068 C   0  0  0  0  0  0  0  0  0  0  0  0
  -18.4952  -32.1810   21.5691 C   0  0  0  0  0  0  0  0  0  0  0  0
  -21.0930  -31.4662   20.8711 C   0  0  0  0  0  0  0  0  0  0  0  0
  -25.1652  -27.2592   19.0757 C   0  0  0  0  0  0  0  0  0  0  0  0
  -23.2636   -8.6332   21.1581 C   0  0  0  0  0  0  0  0  0  0  0  0
  -25.6154   -8.5234   21.7006 C   0  0  0  0  0  0  0  0  0  0  0  0
  -26.5581  -27.2673   19.0165 C   0  0  0  0  0  0  0  0  0  0  0  0
  -22.9973   -6.6959   23.9165 C   0  0  0  0  0  0  0  0  0  0  0  0
  -21.9050   -6.3025   24.6897 C   0  0  0  0  0  0  0  0  0  0  0  0
  -29.6051  -20.3398   20.0484 C   0  0  0  0  0  0  0  0  0  0  0  0
  -26.6497  -26.1752   21.1655 C   0  0  0  0  0  0  0  0  0  0  0  0
  -29.0644  -19.5588   17.4253 C   0  0  0  0  0  0  0  0  0  0  0  0
  -21.1401   -4.8859   22.8882 C   0  0  0  0  0  0  0  0  0  0  0  0
  -24.6362  -10.6142   20.9887 C   0  0  0  0  0  0  0  0  0  0  0  0
  -29.0073  -19.1048   19.7976 C   0  0  0  0  0  0  0  0  0  0  0  0
  -24.6181  -13.0973   21.5731 C   0  0  0  0  0  0  0  0  0  0  0  0
  -19.2126  -31.3020   22.3958 C   0  0  0  0  0  0  0  0  0  0  0  0
  -24.5031  -26.7179   20.1870 C   0  0  0  0  0  0  0  0  0  0  0  0
  -20.5305  -30.9474   22.0497 C   0  0  0  0  0  0  0  0  0  0  0  0
  -25.2483  -26.1591   21.2352 C   0  0  0  0  0  0  0  0  0  0  0  0
  -29.9326  -21.1844   18.9876 C   0  0  0  0  0  0  0  0  0  0  0  0
  -28.7369  -18.7142   18.4861 C   0  0  0  0  0  0  0  0  0  0  0  0
  -24.3739   -7.8997   21.5762 C   0  0  0  0  0  0  0  0  0  0  0  0
  -27.3006  -26.7278   20.0628 C   0  0  0  0  0  0  0  0  0  0  0  0
  -23.1609   -6.1844   22.6292 C   0  0  0  0  0  0  0  0  0  0  0  0
  -20.9764   -5.3975   24.1755 C   0  0  0  0  0  0  0  0  0  0  0  0
  -29.6622  -20.7938   17.6761 C   0  0  0  0  0  0  0  0  0  0  0  0
  -22.2324   -5.2794   22.1150 C   0  0  0  0  0  0  0  0  0  0  0  0
  -24.7724  -12.0160   20.6849 C   0  0  0  0  0  0  0  0  0  0  0  0
  -24.8487  -14.2104   20.8023 C   0  0  0  0  0  0  0  0  0  0  0  0
  -28.6775  -18.2458   20.9281 C   0  0  0  0  0  0  0  0  0  0  0  0
  -24.2954  -13.0955   22.9701 C   0  0  0  0  0  0  0  0  0  0  0  0
  -22.5389  -27.8665   22.4066 C   0  0  0  0  0  0  0  0  0  0  0  0
  -22.3476  -24.7520   23.2929 C   0  0  0  0  0  0  0  0  0  0  0  0
  -23.7795  -21.6543   23.3201 C   0  0  0  0  0  0  0  0  0  0  0  0
  -27.8032  -16.9446   16.9554 C   0  0  0  0  0  0  0  0  0  0  0  0
  -18.5692  -30.8163   23.6705 C   0  0  0  0  0  0  0  0  0  0  0  0
  -22.9996  -26.6927   20.2234 C   0  0  0  0  0  0  0  0  0  0  0  0
  -24.5853  -25.5476   22.4414 C   0  0  0  0  0  0  0  0  0  0  0  0
  -19.2729  -29.6100   24.2868 C   0  0  0  0  0  0  0  0  0  0  0  0
  -25.2922  -14.7083   15.7846 C   0  0  0  0  0  0  0  0  0  0  0  0
  -20.7821  -29.8294   24.3152 C   0  0  0  0  0  0  0  0  0  0  0  0
  -24.9204  -13.8975   17.0281 C   0  0  0  0  0  0  0  0  0  0  0  0
  -26.7851  -15.0297   15.7425 C   0  0  0  0  0  0  0  0  0  0  0  0
  -26.9445  -14.8610   18.1951 C   0  0  0  0  0  0  0  0  0  0  0  0
  -21.3427  -29.9924   22.8972 C   0  0  1  0  0  0  0  0  0  0  0  0
  -22.4380  -26.5797   21.6374 C   0  0  1  0  0  0  0  0  0  0  0  0
  -25.4399  -14.5688   18.3147 C   0  0  2  0  0  0  0  0  0  0  0  0
  -27.3434  -18.0938   23.0971 C   0  0  0  0  0  0  0  0  0  0  0  0
  -23.4030  -19.3173   24.1534 C   0  0  0  0  0  0  0  0  0  0  0  0
  -23.1067  -25.6376   26.1124 C   0  0  0  0  0  0  0  0  0  0  0  0
  -23.6386  -23.2496   26.6441 C   0  0  0  0  0  0  0  0  0  0  0  0
  -21.3137  -23.8970   26.0129 C   0  0  0  0  0  0  0  0  0  0  0  0
  -32.8368  -24.1348   19.7113 C   0  0  0  0  0  0  0  0  0  0  0  0
  -31.9298  -24.6961   21.9638 C   0  0  0  0  0  0  0  0  0  0  0  0
  -23.7820  -20.5506   20.5741 C   0  0  0  0  0  0  0  0  0  0  0  0
  -28.3292  -18.9034   22.2692 C   0  0  0  0  0  0  0  0  0  0  0  0
  -30.6401  -25.3858   19.9266 C   0  0  0  0  0  0  0  0  0  0  0  0
  -30.8401  -22.8918   20.5645 C   0  0  0  0  0  0  0  0  0  0  0  0
  -29.3430  -25.6753   20.6767 C   0  0  0  0  0  0  0  0  0  1  0  0
  -23.1151  -23.8607   24.2393 C   0  0  1  0  0  0  0  0  0  0  0  0
  -23.2184  -20.2823   22.9926 C   0  0  2  0  0  0  0  0  0  0  0  0
  -22.8064  -24.1744   25.7305 C   0  0  0  0  0  0  0  0  0  0  0  0
  -31.5378  -24.2728   20.5313 C   0  0  0  0  0  0  0  0  0  0  0  0
  -25.0772  -12.4070   19.4446 N   0  0  0  0  0  0  0  0  0  0  0  0
  -25.1163  -13.7464   19.5480 N   0  0  0  0  0  0  0  0  0  0  0  0
  -23.1131  -25.5525   22.4332 N   0  0  0  0  0  0  0  0  0  0  0  0
  -27.2046  -15.6675   16.9923 N   0  0  0  0  0  0  0  0  0  0  0  0
  -24.8466  -15.5311   21.0818 N   0  0  0  0  0  0  0  0  0  0  0  0
  -24.0903  -11.8640   23.6069 N   0  0  0  0  0  0  0  0  0  0  0  0
  -28.1304  -17.4644   18.2074 N   0  0  0  0  0  0  0  0  0  0  0  0
  -30.5261  -22.4104   19.2388 N   0  0  0  0  0  0  0  0  0  0  0  0
  -21.4520  -28.7046   22.2459 N   0  0  0  0  0  0  0  0  0  0  0  0
  -22.8145  -22.4893   23.8425 N   0  0  0  0  0  0  0  0  0  0  0  0
  -23.9026  -19.7149   21.7964 N   0  3  0  0  0  0  0  0  0  0  0  0
  -28.6676  -17.0072   20.8512 O   0  0  0  0  0  0  0  0  0  0  0  0
  -24.1758  -14.1555   23.6302 O   0  0  0  0  0  0  0  0  0  0  0  0
  -23.5287  -28.0823   23.0960 O   0  0  0  0  0  0  0  0  0  0  0  0
  -21.1143  -24.7332   23.3107 O   0  0  0  0  0  0  0  0  0  0  0  0
  -24.9569  -21.9540   23.1349 O   0  0  0  0  0  0  0  0  0  0  0  0
  -27.9855  -17.5455   15.8935 O   0  0  0  0  0  0  0  0  0  0  0  0
  -24.2463   -6.5753   21.8631 O   0  0  0  0  0  0  0  0  0  0  0  0
  -28.6603  -26.7350   20.0079 O   0  0  0  0  0  0  0  0  0  1  0  0
  -19.9284   -5.0187   24.9187 F   0  0  0  0  0  0  0  0  0  0  0  0
  -29.9728  -21.5977   16.6491 F   0  0  0  0  0  0  0  0  0  0  0  0
  -22.3849   -4.7836   20.8794 F   0  0  0  0  0  0  0  0  0  0  0  0
  1  2  1  0  0  0  0
  1  5  2  0  0  0  0
  2  6  2  0  0  0  0
  3  8  2  0  0  0  0
  3 17  1  0  0  0  0
  4  9  1  0  0  0  0
  4 17  2  0  0  0  0
  5 20  1  0  0  0  0
  6 22  1  0  0  0  0
  7 10  2  0  0  0  0
  7 21  1  0  0  0  0
  8 26  1  0  0  0  0
  9 26  2  0  0  0  0
 10 27  1  0  0  0  0
 11 12  2  0  0  0  0
 11 28  1  0  0  0  0
 12 29  1  0  0  0  0
 13 18  1  0  0  0  0
 13 24  2  0  0  0  0
 14 23  1  0  0  0  0
 14 27  2  0  0  0  0
 15 25  1  0  0  0  0
 15 30  2  0  0  0  0
 16 29  2  0  0  0  0
 16 31  1  0  0  0  0
 17 32  1  0  0  0  0
 18 25  2  0  0  0  0
 18 34  1  0  0  0  0
 19 32  1  0  0  0  0
 19 33  2  0  0  0  0
 19 35  1  0  0  0  0
 20 22  2  0  0  0  0
 20 40  1  0  0  0  0
 21 23  2  0  0  0  0
 21 41  1  0  0  0  0
 22 49  1  0  0  0  0
 23 42  1  0  0  0  0
 24 30  1  0  0  0  0
 24 75  1  0  0  0  0
 25 74  1  0  0  0  0
 26 85  1  0  0  0  0
 27 86  1  0  0  0  0
 28 31  2  0  0  0  0
 28 85  1  0  0  0  0
 29 87  1  0  0  0  0
 30 88  1  0  0  0  0
 31 89  1  0  0  0  0
 32 68  2  0  0  0  0
 33 69  1  0  0  0  0
 33 72  1  0  0  0  0
 34 60  1  0  0  0  0
 34 79  2  0  0  0  0
 35 73  1  0  0  0  0
 35 80  2  0  0  0  0
 36 50  1  0  0  0  0
 36 76  1  0  0  0  0
 36 81  2  0  0  0  0
 37 64  1  0  0  0  0
 37 70  1  0  0  0  0
 37 82  2  0  0  0  0
 38 65  1  0  0  0  0
 38 77  1  0  0  0  0
 38 83  2  0  0  0  0
 39 71  1  0  0  0  0
 39 74  1  0  0  0  0
 39 84  2  0  0  0  0
 40 43  1  0  0  0  0
 41 50  1  0  0  0  0
 42 70  1  0  0  0  0
 43 45  1  0  0  0  0
 44 46  1  0  0  0  0
 44 47  1  0  0  0  0
 45 49  1  0  0  0  0
 46 51  1  0  0  0  0
 47 71  1  0  0  0  0
 48 51  1  0  0  0  0
 48 71  1  0  0  0  0
 49 76  1  0  0  0  0
 50 70  1  0  0  0  0
 51 69  1  0  0  0  0
 52 60  1  0  0  0  0
 53 65  1  0  0  0  0
 54 66  1  0  0  0  0
 55 66  1  0  0  0  0
 56 66  1  0  0  0  0
 57 67  1  0  0  0  0
 58 67  1  0  0  0  0
 59 78  1  0  0  0  0
 61 63  1  0  0  0  0
 61 67  1  0  0  0  0
 62 67  1  0  0  0  0
 62 75  1  0  0  0  0
 63 86  1  0  0  0  0
 64 66  1  0  0  0  0
 64 77  1  0  0  0  0
 65 78  1  0  0  0  0
 68 69  1  0  0  0  0
M  CHG  1  78   1
M  ISO  4  39 100  63 101  74 100  86 101
M  END
> <Batch ID>
0141

> <Smiles>
CCC(=O)c1cc(NCC(C)(C)C[101CH2:1][101O:1]c2ccc3c(c2)CN(C(=O)C(NC(=O)C(C)NC)C(C)(C)C)C(C(=O)NC2CCCc4ccccc42)C3)c(F)cc1[100NH:0][100C:0](=O)N1CCCC(n2nc(-c3ccc(Oc4ccc(F)cc4F)cc3)c(C(N)=O)c2N)C1

> <Shape>
0.214

> <Color>
0.085

> <Negative vol penalty>
0.000

$$$$

  -OEChem-04052302543D

 83 91  0     1  0  0  0  0  0999 V2000
  -16.8060  -30.4586   22.9552 C   0  0  0  0  0  0  0  0  0  0  0  0
  -17.9619  -31.1514   23.3004 C   0  0  0  0  0  0  0  0  0  0  0  0
  -28.8463  -16.1195   21.7286 C   0  0  0  0  0  0  0  0  0  0  0  0
  -26.6428  -16.9341   22.2924 C   0  0  0  0  0  0  0  0  0  0  0  0
  -16.8633  -29.0870   22.7115 C   0  0  0  0  0  0  0  0  0  0  0  0
  -19.1758  -30.4728   23.4032 C   0  0  0  0  0  0  0  0  0  0  0  0
  -24.7292  -32.6252   21.9774 C   0  0  0  0  0  0  0  0  0  0  0  0
  -28.2886  -14.9236   21.2765 C   0  0  0  0  0  0  0  0  0  0  0  0
  -26.0850  -15.7382   21.8402 C   0  0  0  0  0  0  0  0  0  0  0  0
  -25.7540  -33.1642   22.7539 C   0  0  0  0  0  0  0  0  0  0  0  0
  -27.4765  -11.5143   20.3066 C   0  0  0  0  0  0  0  0  0  0  0  0
  -28.0923  -10.3234   20.6914 C   0  0  0  0  0  0  0  0  0  0  0  0
  -28.9675  -27.3439   27.8517 C   0  0  0  0  0  0  0  0  0  0  0  0
  -29.2559  -25.9757   28.1257 C   0  0  0  0  0  0  0  0  0  0  0  0
  -26.8157  -31.0000   22.8442 C   0  0  0  0  0  0  0  0  0  0  0  0
  -27.7054  -10.8731   23.0120 C   0  0  0  0  0  0  0  0  0  0  0  0
  -28.0234  -17.1247   22.2367 C   0  0  0  0  0  0  0  0  0  0  0  0
  -28.8371  -19.5256   21.9518 C   0  0  0  0  0  0  0  0  0  0  0  0
  -18.0802  -28.3930   22.8019 C   0  0  0  0  0  0  0  0  0  0  0  0
  -24.7343  -31.2648   21.6371 C   0  0  0  0  0  0  0  0  0  0  0  0
  -19.2491  -29.0904   23.1618 C   0  0  0  0  0  0  0  0  0  0  0  0
  -25.7911  -30.4467   22.0612 C   0  0  0  0  0  0  0  0  0  0  0  0
  -26.9080  -14.7330   21.3322 C   0  0  0  0  0  0  0  0  0  0  0  0
  -26.7960  -32.3510   23.1899 C   0  0  0  0  0  0  0  0  0  0  0  0
  -26.9752  -12.3847   21.2745 C   0  0  0  0  0  0  0  0  0  0  0  0
  -28.2068  -10.0028   22.0441 C   0  0  0  0  0  0  0  0  0  0  0  0
  -27.0896  -12.0641   22.6272 C   0  0  0  0  0  0  0  0  0  0  0  0
  -28.5990  -18.3600   22.7044 C   0  0  0  0  0  0  0  0  0  0  0  0
  -29.3911  -20.4062   22.8485 C   0  0  0  0  0  0  0  0  0  0  0  0
  -28.3770  -27.5114   26.6185 C   0  0  0  0  0  0  0  0  0  0  0  0
  -28.8745  -25.1495   27.0913 C   0  0  0  0  0  0  0  0  0  0  0  0
  -28.5804  -19.7888   20.5660 C   0  0  0  0  0  0  0  0  0  0  0  0
  -22.8075  -28.8022   22.2088 C   0  0  0  0  0  0  0  0  0  0  0  0
  -24.8177  -27.2602   20.1831 C   0  0  0  0  0  0  0  0  0  0  0  0
  -27.9951  -29.9889   26.4148 C   0  0  0  0  0  0  0  0  0  0  0  0
  -27.9147  -27.0695   18.7623 C   0  0  0  0  0  0  0  0  0  0  0  0
  -29.4998  -22.8329   27.8587 C   0  0  0  0  0  0  0  0  0  0  0  0
  -18.0840  -26.9018   22.5757 C   0  0  0  0  0  0  0  0  0  0  0  0
  -23.6353  -30.7045   20.7764 C   0  0  0  0  0  0  0  0  0  0  0  0
  -25.8538  -28.9844   21.7059 C   0  0  0  0  0  0  0  0  0  0  0  0
  -19.4775  -26.3251   22.3396 C   0  0  0  0  0  0  0  0  0  0  0  0
  -31.1099  -19.6721   27.5526 C   0  0  0  0  0  0  0  0  0  0  0  0
  -20.4622  -26.8697   23.3695 C   0  0  0  0  0  0  0  0  0  0  0  0
  -30.6198  -19.1448   26.2021 C   0  0  0  0  0  0  0  0  0  0  0  0
  -30.0164  -20.4412   28.2919 C   0  0  0  0  0  0  0  0  0  0  0  0
  -28.8942  -20.9909   26.1688 C   0  0  0  0  0  0  0  0  0  0  0  0
  -20.5891  -28.3940   23.2591 C   0  0  1  0  0  0  0  0  0  0  0  0
  -23.4744  -29.1944   20.9207 C   0  0  1  0  0  0  0  0  0  0  0  0
  -29.9803  -20.2649   25.3583 C   0  0  2  0  0  0  0  0  0  0  0  0
  -29.2713  -25.6780   17.1745 C   0  0  0  0  0  0  0  0  0  0  0  0
  -25.1699  -25.1385   22.3473 C   0  0  0  0  0  0  0  0  0  0  0  0
  -27.1975  -24.3266   21.1235 C   0  0  0  0  0  0  0  0  0  0  0  0
  -24.9599  -24.2348   20.0249 C   0  0  0  0  0  0  0  0  0  0  0  0
  -29.6079  -31.3332   24.1664 C   0  0  0  0  0  0  0  0  0  0  0  0
  -28.9503  -32.8573   26.0398 C   0  0  0  0  0  0  0  0  0  0  0  0
  -28.2822  -29.3418   16.9021 C   0  0  0  0  0  0  0  0  0  0  0  0
  -27.4115  -30.9751   25.4112 C   0  0  0  0  0  0  0  0  0  0  0  0
  -26.0955  -26.4717   20.3394 C   0  0  1  0  0  0  0  0  0  0  0  0
  -28.3517  -26.8804   17.3208 C   0  0  2  0  0  0  0  0  0  0  0  0
  -25.8538  -25.0700   20.9673 C   0  0  0  0  0  0  0  0  0  0  0  0
  -28.4310  -31.9995   24.8808 C   0  0  0  0  0  0  0  0  0  1  0  0
  -28.9714  -18.4855   23.9810 N   0  0  0  0  0  0  0  0  0  0  0  0
  -29.4492  -19.7403   24.0374 N   0  0  0  0  0  0  0  0  0  0  0  0
  -24.7527  -28.4821   20.8677 N   0  0  0  0  0  0  0  0  0  0  0  0
  -29.4600  -21.4885   27.4326 N   0  0  0  0  0  0  0  0  0  0  0  0
  -29.8295  -21.6773   22.7282 N   0  0  0  0  0  0  0  0  0  0  0  0
  -28.0069  -18.7737   19.7881 N   0  0  0  0  0  0  0  0  0  0  0  0
  -27.9321  -28.6799   25.9565 N   0  0  0  0  0  0  0  0  0  0  0  0
  -28.9710  -23.7435   26.9445 N   0  0  0  0  0  0  0  0  0  0  0  0
  -21.4285  -28.7512   22.1356 N   0  0  0  0  0  0  0  0  0  0  0  0
  -26.7173  -26.4363   19.0201 N   0  0  0  0  0  0  0  0  0  0  0  0
  -29.0775  -28.0888   16.8369 N   0  3  0  0  0  0  0  0  0  0  0  0
  -28.8666  -20.8860   20.0294 O   0  0  0  0  0  0  0  0  0  0  0  0
  -23.4933  -28.5623   23.1956 O   0  0  0  0  0  0  0  0  0  0  0  0
  -23.9134  -26.8120   19.4738 O   0  0  0  0  0  0  0  0  0  0  0  0
  -28.4536  -30.3888   27.4816 O   0  0  0  0  0  0  0  0  0  0  0  0
  -28.5718  -27.7113   19.5788 O   0  0  0  0  0  0  0  0  0  0  0  0
  -29.9932  -23.1559   28.9424 O   0  0  0  0  0  0  0  0  0  0  0  0
  -26.3634  -13.5663   20.8909 O   0  0  0  0  0  0  0  0  0  0  0  0
  -27.7972  -32.8744   23.9485 O   0  0  0  0  0  0  0  0  0  1  0  0
  -28.7968   -8.8584   22.4134 F   0  0  0  0  0  0  0  0  0  0  0  0
  -26.6089  -12.8957   23.5616 F   0  0  0  0  0  0  0  0  0  0  0  0
  -28.1723  -26.0230   25.7967 S   0  0  0  0  0  0  0  0  0  0  0  0
  1  2  1  0  0  0  0
  1  5  2  0  0  0  0
  2  6  2  0  0  0  0
  3  8  2  0  0  0  0
  3 17  1  0  0  0  0
  4  9  1  0  0  0  0
  4 17  2  0  0  0  0
  5 19  1  0  0  0  0
  6 21  1  0  0  0  0
  7 10  2  0  0  0  0
  7 20  1  0  0  0  0
  8 23  1  0  0  0  0
  9 23  2  0  0  0  0
 10 24  1  0  0  0  0
 11 12  2  0  0  0  0
 11 25  1  0  0  0  0
 12 26  1  0  0  0  0
 13 14  1  0  0  0  0
 13 30  2  0  0  0  0
 14 31  2  0  0  0  0
 15 22  1  0  0  0  0
 15 24  2  0  0  0  0
 16 26  2  0  0  0  0
 16 27  1  0  0  0  0
 17 28  1  0  0  0  0
 18 28  1  0  0  0  0
 18 29  2  0  0  0  0
 18 32  1  0  0  0  0
 19 21  2  0  0  0  0
 19 38  1  0  0  0  0
 20 22  2  0  0  0  0
 20 39  1  0  0  0  0
 21 47  1  0  0  0  0
 22 40  1  0  0  0  0
 23 79  1  0  0  0  0
 24 80  1  0  0  0  0
 25 27  2  0  0  0  0
 25 79  1  0  0  0  0
 26 81  1  0  0  0  0
 27 82  1  0  0  0  0
 28 62  2  0  0  0  0
 29 63  1  0  0  0  0
 29 66  1  0  0  0  0
 30 68  1  0  0  0  0
 30 83  1  0  0  0  0
 31 69  1  0  0  0  0
 31 83  1  0  0  0  0
 32 67  1  0  0  0  0
 32 73  2  0  0  0  0
 33 48  1  0  0  0  0
 33 70  1  0  0  0  0
 33 74  2  0  0  0  0
 34 58  1  0  0  0  0
 34 64  1  0  0  0  0
 34 75  2  0  0  0  0
 35 57  1  0  0  0  0
 35 68  1  0  0  0  0
 35 76  2  0  0  0  0
 36 59  1  0  0  0  0
 36 71  1  0  0  0  0
 36 77  2  0  0  0  0
 37 65  1  0  0  0  0
 37 69  1  0  0  0  0
 37 78  2  0  0  0  0
 38 41  1  0  0  0  0
 39 48  1  0  0  0  0
 40 64  1  0  0  0  0
 41 43  1  0  0  0  0
 42 44  1  0  0  0  0
 42 45  1  0  0  0  0
 43 47  1  0  0  0  0
 44 49  1  0  0  0  0
 45 65  1  0  0  0  0
 46 49  1  0  0  0  0
 46 65  1  0  0  0  0
 47 70  1  0  0  0  0
 48 64  1  0  0  0  0
 49 63  1  0  0  0  0
 50 59  1  0  0  0  0
 51 60  1  0  0  0  0
 52 60  1  0  0  0  0
 53 60  1  0  0  0  0
 54 61  1  0  0  0  0
 55 61  1  0  0  0  0
 56 72  1  0  0  0  0
 57 61  1  0  0  0  0
 58 60  1  0  0  0  0
 58 71  1  0  0  0  0
 59 72  1  0  0  0  0
 61 80  1  0  0  0  0
 62 63  1  0  0  0  0
M  CHG  1  72   1
M  ISO  4  37 100  61 101  69 100  80 101
M  END
> <Batch ID>
0141

> <Smiles>
CNC(C)C(=O)NC(C(=O)N1Cc2cc([101O:1][101C:1](C)(C)CC(=O)Nc3ccc([100NH:0][100C:0](=O)N4CCCC(n5nc(-c6ccc(Oc7ccc(F)cc7F)cc6)c(C(N)=O)c5N)C4)s3)ccc2CC1C(=O)NC1CCCc2ccccc21)C(C)(C)C

> <Shape>
0.238

> <Color>
0.097

> <Negative vol penalty>
0.000

$$$$

  -OEChem-04052302543D

 88 96  0     1  0  0  0  0  0999 V2000
  -19.3256  -31.0965   22.1320 C   0  0  0  0  0  0  0  0  0  0  0  0
  -20.7069  -30.9318   22.1498 C   0  0  0  0  0  0  0  0  0  0  0  0
  -25.9658  -14.8336   21.6704 C   0  0  0  0  0  0  0  0  0  0  0  0
  -25.9157  -15.7832   19.4494 C   0  0  0  0  0  0  0  0  0  0  0  0
  -18.4912  -29.9995   22.3419 C   0  0  0  0  0  0  0  0  0  0  0  0
  -21.2546  -29.6700   22.3786 C   0  0  0  0  0  0  0  0  0  0  0  0
  -25.0442  -28.5911   19.1975 C   0  0  0  0  0  0  0  0  0  0  0  0
  -24.5857  -14.6382   21.6180 C   0  0  0  0  0  0  0  0  0  0  0  0
  -24.5356  -15.5877   19.3970 C   0  0  0  0  0  0  0  0  0  0  0  0
  -26.2841  -29.1698   19.4647 C   0  0  0  0  0  0  0  0  0  0  0  0
  -22.4337  -12.4277   20.2341 C   0  0  0  0  0  0  0  0  0  0  0  0
  -21.9360  -11.1992   20.6685 C   0  0  0  0  0  0  0  0  0  0  0  0
  -27.0265  -27.1033   20.4635 C   0  0  0  0  0  0  0  0  0  0  0  0
  -31.3774  -23.5200   19.1420 C   0  0  0  0  0  0  0  0  0  0  0  0
  -30.7041  -22.0213   17.3708 C   0  0  0  0  0  0  0  0  0  0  0  0
  -20.6298  -12.3263   22.3598 C   0  0  0  0  0  0  0  0  0  0  0  0
  -26.6308  -15.4062   20.5861 C   0  0  0  0  0  0  0  0  0  0  0  0
  -29.0589  -14.7086   20.2321 C   0  0  0  0  0  0  0  0  0  0  0  0
  -19.0288  -28.7218   22.5638 C   0  0  0  0  0  0  0  0  0  0  0  0
  -24.7820  -27.2653   19.5717 C   0  0  0  0  0  0  0  0  0  0  0  0
  -20.4265  -28.5551   22.5930 C   0  0  0  0  0  0  0  0  0  0  0  0
  -25.7833  -26.5093   20.1976 C   0  0  0  0  0  0  0  0  0  0  0  0
  -30.8155  -24.4000   16.9632 C   0  0  0  0  0  0  0  0  0  0  0  0
  -31.1158  -22.2276   18.6874 C   0  0  0  0  0  0  0  0  0  0  0  0
  -31.2272  -24.6063   18.2799 C   0  0  0  0  0  0  0  0  0  0  0  0
  -23.8706  -15.0152   20.4813 C   0  0  0  0  0  0  0  0  0  0  0  0
  -27.2746  -28.4268   20.1004 C   0  0  0  0  0  0  0  0  0  0  0  0
  -22.0295  -13.6055   20.8627 C   0  0  0  0  0  0  0  0  0  0  0  0
  -21.0341  -11.1485   21.7313 C   0  0  0  0  0  0  0  0  0  0  0  0
  -30.5539  -23.1075   16.5087 C   0  0  0  0  0  0  0  0  0  0  0  0
  -21.1276  -13.5548   21.9255 C   0  0  0  0  0  0  0  0  0  0  0  0
  -28.0564  -15.6088   20.6398 C   0  0  0  0  0  0  0  0  0  0  0  0
  -30.2366  -15.3680   20.4865 C   0  0  0  0  0  0  0  0  0  0  0  0
  -28.9366  -13.3939   19.6732 C   0  0  0  0  0  0  0  0  0  0  0  0
  -22.7134  -25.8545   21.5298 C   0  0  0  0  0  0  0  0  0  0  0  0
  -23.9726  -23.1412   20.2750 C   0  0  0  0  0  0  0  0  0  0  0  0
  -31.9116  -26.2739   20.0339 C   0  0  0  0  0  0  0  0  0  0  0  0
  -26.6054  -21.6127   18.7326 C   0  0  0  0  0  0  0  0  0  0  0  0
  -31.6684  -21.1546   20.8987 C   0  0  0  0  0  0  0  0  0  0  0  0
  -18.0872  -27.5747   22.8326 C   0  0  0  0  0  0  0  0  0  0  0  0
  -23.4484  -26.6473   19.2523 C   0  0  0  0  0  0  0  0  0  0  0  0
  -25.5590  -25.0757   20.6014 C   0  0  0  0  0  0  0  0  0  0  0  0
  -18.7434  -26.2032   22.6957 C   0  0  0  0  0  0  0  0  0  0  0  0
  -32.1292  -18.6635   23.4006 C   0  0  0  0  0  0  0  0  0  0  0  0
  -20.0857  -26.1789   23.4199 C   0  0  0  0  0  0  0  0  0  0  0  0
  -31.2330  -17.5132   22.9362 C   0  0  0  0  0  0  0  0  0  0  0  0
  -31.5025  -20.0252   23.1060 C   0  0  0  0  0  0  0  0  0  0  0  0
  -30.1906  -19.0786   21.2480 C   0  0  0  0  0  0  0  0  0  0  0  0
  -21.0582  -27.1977   22.8133 C   0  0  1  0  0  0  0  0  0  0  0  0
  -23.1161  -25.4515   20.1395 C   0  0  1  0  0  0  0  0  0  0  0  0
  -30.8090  -17.6878   21.4647 C   0  0  2  0  0  0  0  0  0  0  0  0
  -30.6486  -25.5471   16.0199 C   0  0  0  0  0  0  0  0  0  0  0  0
  -27.3560  -19.3797   17.8681 C   0  0  0  0  0  0  0  0  0  0  0  0
  -29.7958  -28.9408   18.3664 C   0  0  0  0  0  0  0  0  0  0  0  0
  -24.5114  -22.2185   23.1331 C   0  0  0  0  0  0  0  0  0  0  0  0
  -26.0724  -20.4936   22.2078 C   0  0  0  0  0  0  0  0  0  0  0  0
  -23.6524  -20.4345   21.6053 C   0  0  0  0  0  0  0  0  0  0  0  0
  -30.5666  -27.9668   22.1206 C   0  0  0  0  0  0  0  0  0  0  0  0
  -31.1962  -30.0442   20.8886 C   0  0  0  0  0  0  0  0  0  0  0  0
  -26.8506  -22.6361   15.9665 C   0  0  0  0  0  0  0  0  0  0  0  0
  -32.0991  -27.7803   20.1698 C   0  0  0  0  0  0  0  0  0  0  0  0
  -25.1298  -22.2376   20.6264 C   0  0  1  0  0  0  0  0  0  0  0  0
  -26.6708  -20.6936   17.5263 C   0  0  2  0  0  0  0  0  0  0  0  0
  -29.6297  -28.3721   19.7748 C   0  0  1  0  0  0  0  0  0  1  0  0
  -24.8454  -21.3737   21.8874 C   0  0  0  0  0  0  0  0  0  0  0  0
  -30.8604  -28.5493   20.7184 C   0  0  0  0  0  0  0  0  0  0  0  0
  -28.5537  -16.7528   21.1172 N   0  0  0  0  0  0  0  0  0  0  0  0
  -29.8817  -16.5759   21.0111 N   0  0  0  0  0  0  0  0  0  0  0  0
  -24.2365  -24.5182   20.2731 N   0  0  0  0  0  0  0  0  0  0  0  0
  -31.1301  -20.1199   21.6927 N   0  0  0  0  0  0  0  0  0  0  0  0
  -31.5308  -15.0266   20.3105 N   0  0  0  0  0  0  0  0  0  0  0  0
  -27.6523  -12.8677   19.4781 N   0  0  0  0  0  0  0  0  0  0  0  0
  -31.4972  -25.9100   18.7596 N   0  0  0  0  0  0  0  0  0  0  0  0
  -31.2682  -21.1242   19.5632 N   0  0  0  0  0  0  0  0  0  0  0  0
  -21.6146  -26.6912   21.5771 N   0  0  0  0  0  0  0  0  0  0  0  0
  -25.4225  -21.4633   19.4251 N   0  0  0  0  0  0  0  0  0  0  0  0
  -27.4276  -21.3443   16.4196 N   0  3  0  0  0  0  0  0  0  0  0  0
  -29.9369  -12.6996   19.3716 O   0  0  0  0  0  0  0  0  0  0  0  0
  -23.3513  -25.4361   22.4888 O   0  0  0  0  0  0  0  0  0  0  0  0
  -22.8769  -22.6432   20.0050 O   0  0  0  0  0  0  0  0  0  0  0  0
  -32.1208  -25.5336   20.9912 O   0  0  0  0  0  0  0  0  0  0  0  0
  -27.5146  -22.3834   19.0329 O   0  0  0  0  0  0  0  0  0  0  0  0
  -32.4497  -21.9891   21.3626 O   0  0  0  0  0  0  0  0  0  0  0  0
  -22.5239  -14.8245   20.4298 O   0  0  0  0  0  0  0  0  0  0  0  0
  -28.4855  -28.9894   20.3630 O   0  0  0  0  0  0  0  0  0  1  0  0
  -20.5550   -9.9688   22.1473 F   0  0  0  0  0  0  0  0  0  0  0  0
  -30.1593  -22.8983   15.2448 F   0  0  0  0  0  0  0  0  0  0  0  0
  -20.7347  -14.6831   22.5325 F   0  0  0  0  0  0  0  0  0  0  0  0
  1  2  1  0  0  0  0
  1  5  2  0  0  0  0
  2  6  2  0  0  0  0
  3  8  2  0  0  0  0
  3 17  1  0  0  0  0
  4  9  1  0  0  0  0
  4 17  2  0  0  0  0
  5 19  1  0  0  0  0
  6 21  1  0  0  0  0
  7 10  2  0  0  0  0
  7 20  1  0  0  0  0
  8 26  1  0  0  0  0
  9 26  2  0  0  0  0
 10 27  1  0  0  0  0
 11 12  2  0  0  0  0
 11 28  1  0  0  0  0
 12 29  1  0  0  0  0
 13 22  1  0  0  0  0
 13 27  2  0  0  0  0
 14 24  2  0  0  0  0
 14 25  1  0  0  0  0
 15 24  1  0  0  0  0
 15 30  2  0  0  0  0
 16 29  2  0  0  0  0
 16 31  1  0  0  0  0
 17 32  1  0  0  0  0
 18 32  1  0  0  0  0
 18 33  2  0  0  0  0
 18 34  1  0  0  0  0
 19 21  2  0  0  0  0
 19 40  1  0  0  0  0
 20 22  2  0  0  0  0
 20 41  1  0  0  0  0
 21 49  1  0  0  0  0
 22 42  1  0  0  0  0
 23 25  2  0  0  0  0
 23 30  1  0  0  0  0
 23 52  1  0  0  0  0
 24 74  1  0  0  0  0
 25 73  1  0  0  0  0
 26 84  1  0  0  0  0
 27 85  1  0  0  0  0
 28 31  2  0  0  0  0
 28 84  1  0  0  0  0
 29 86  1  0  0  0  0
 30 87  1  0  0  0  0
 31 88  1  0  0  0  0
 32 67  2  0  0  0  0
 33 68  1  0  0  0  0
 33 71  1  0  0  0  0
 34 72  1  0  0  0  0
 34 78  2  0  0  0  0
 35 50  1  0  0  0  0
 35 75  1  0  0  0  0
 35 79  2  0  0  0  0
 36 62  1  0  0  0  0
 36 69  1  0  0  0  0
 36 80  2  0  0  0  0
 37 61  1  0  0  0  0
 37 73  1  0  0  0  0
 37 81  2  0  0  0  0
 38 63  1  0  0  0  0
 38 76  1  0  0  0  0
 38 82  2  0  0  0  0
 39 70  1  0  0  0  0
 39 74  1  0  0  0  0
 39 83  2  0  0  0  0
 40 43  1  0  0  0  0
 41 50  1  0  0  0  0
 42 69  1  0  0  0  0
 43 45  1  0  0  0  0
 44 46  1  0  0  0  0
 44 47  1  0  0  0  0
 45 49  1  0  0  0  0
 46 51  1  0  0  0  0
 47 70  1  0  0  0  0
 48 51  1  0  0  0  0
 48 70  1  0  0  0  0
 49 75  1  0  0  0  0
 50 69  1  0  0  0  0
 51 68  1  0  0  0  0
 53 63  1  0  0  0  0
 54 64  1  0  0  0  0
 55 65  1  0  0  0  0
 56 65  1  0  0  0  0
 57 65  1  0  0  0  0
 58 66  1  0  0  0  0
 59 66  1  0  0  0  0
 60 77  1  0  0  0  0
 61 66  1  0  0  0  0
 62 65  1  0  0  0  0
 62 76  1  0  0  0  0
 63 77  1  0  0  0  0
 64 66  1  0  0  0  0
 64 85  1  0  0  0  0
 67 68  1  0  0  0  0
M  CHG  1  77   1
M  ISO  4  39 100  64 101  74 100  85 101
M  END
> <Batch ID>
0141

> <Smiles>
CNC(C)C(=O)NC(C(=O)N1Cc2cc([101O:1][101CH:1](C)C(C)(C)CC(=O)Nc3cc([100NH:0][100C:0](=O)N4CCCC(n5nc(-c6ccc(Oc7ccc(F)cc7F)cc6)c(C(N)=O)c5N)C4)cc(F)c3C)ccc2CC1C(=O)NC1CCCc2ccccc21)C(C)(C)C

> <Shape>
0.249

> <Color>
0.063

> <Negative vol penalty>
0.000

$$$$

  -OEChem-04052302543D

 91 99  0     1  0  0  0  0  0999 V2000
  -30.3291  -31.9121   25.6873 C   0  0  0  0  0  0  0  0  0  0  0  0
  -29.8544  -30.8305   24.9524 C   0  0  0  0  0  0  0  0  0  0  0  0
  -23.4773   -9.9035   21.8433 C   0  0  0  0  0  0  0  0  0  0  0  0
  -23.0075  -12.2734   21.8421 C   0  0  0  0  0  0  0  0  0  0  0  0
  -29.4311  -32.7842   26.3014 C   0  0  0  0  0  0  0  0  0  0  0  0
  -28.4812  -30.6197   24.8320 C   0  0  0  0  0  0  0  0  0  0  0  0
  -27.0964  -29.4967   20.0922 C   0  0  0  0  0  0  0  0  0  0  0  0
  -22.5550   -9.7212   22.8737 C   0  0  0  0  0  0  0  0  0  0  0  0
  -22.0852  -12.0910   22.8725 C   0  0  0  0  0  0  0  0  0  0  0  0
  -27.3277  -28.1938   19.6530 C   0  0  0  0  0  0  0  0  0  0  0  0
  -19.1962   -9.5122   23.2023 C   0  0  0  0  0  0  0  0  0  0  0  0
  -18.3033   -8.4464   23.0919 C   0  0  0  0  0  0  0  0  0  0  0  0
  -25.0135  -27.6509   20.0641 C   0  0  0  0  0  0  0  0  0  0  0  0
  -30.3240  -19.4021   21.5851 C   0  0  0  0  0  0  0  0  0  0  0  0
  -31.1048  -17.1509   21.1859 C   0  0  0  0  0  0  0  0  0  0  0  0
  -28.8565  -17.7781   20.5624 C   0  0  0  0  0  0  0  0  0  0  0  0
  -19.1642   -7.5123   25.1470 C   0  0  0  0  0  0  0  0  0  0  0  0
  -23.7036  -11.1796   21.3275 C   0  0  0  0  0  0  0  0  0  0  0  0
  -24.4062  -11.3186   18.8791 C   0  0  0  0  0  0  0  0  0  0  0  0
  -28.0462  -32.5894   26.1804 C   0  0  0  0  0  0  0  0  0  0  0  0
  -25.8224  -29.8841   20.5316 C   0  0  0  0  0  0  0  0  0  0  0  0
  -27.5639  -31.4892   25.4461 C   0  0  0  0  0  0  0  0  0  0  0  0
  -24.7681  -28.9600   20.5059 C   0  0  0  0  0  0  0  0  0  0  0  0
  -31.3336  -18.4426   21.6599 C   0  0  0  0  0  0  0  0  0  0  0  0
  -29.0854  -19.0698   21.0364 C   0  0  0  0  0  0  0  0  0  0  0  0
  -29.8662  -16.8186   20.6371 C   0  0  0  0  0  0  0  0  0  0  0  0
  -21.8589  -10.8149   23.3882 C   0  0  0  0  0  0  0  0  0  0  0  0
  -26.2868  -27.2699   19.6417 C   0  0  0  0  0  0  0  0  0  0  0  0
  -20.0733   -9.5781   24.2850 C   0  0  0  0  0  0  0  0  0  0  0  0
  -18.2873   -7.4465   24.0643 C   0  0  0  0  0  0  0  0  0  0  0  0
  -20.0573   -8.5781   25.2573 C   0  0  0  0  0  0  0  0  0  0  0  0
  -24.6566  -11.3687   20.2635 C   0  0  0  0  0  0  0  0  0  0  0  0
  -25.6279  -11.5613   18.3002 C   0  0  0  0  0  0  0  0  0  0  0  0
  -23.1790  -11.0745   18.1790 C   0  0  0  0  0  0  0  0  0  0  0  0
  -24.6219  -30.9385   23.2795 C   0  0  0  0  0  0  0  0  0  0  0  0
  -21.9318  -31.3223   21.5079 C   0  0  0  0  0  0  0  0  0  0  0  0
  -28.1182  -21.3687   21.3829 C   0  0  0  0  0  0  0  0  0  0  0  0
  -20.1142  -30.4134   18.7662 C   0  0  0  0  0  0  0  0  0  0  0  0
  -30.5265  -14.4353   20.1574 C   0  0  0  0  0  0  0  0  0  0  0  0
  -27.1149  -33.5316   26.9014 C   0  0  0  0  0  0  0  0  0  0  0  0
  -25.5830  -31.3007   20.9771 C   0  0  0  0  0  0  0  0  0  0  0  0
  -23.3771  -29.3314   20.9483 C   0  0  0  0  0  0  0  0  0  0  0  0
  -25.6707  -33.4525   26.4134 C   0  0  0  0  0  0  0  0  0  0  0  0
  -30.3207  -11.0414   19.1007 C   0  0  0  0  0  0  0  0  0  0  0  0
  -25.2260  -31.9982   26.2951 C   0  0  0  0  0  0  0  0  0  0  0  0
  -28.8215  -10.7375   19.1472 C   0  0  0  0  0  0  0  0  0  0  0  0
  -30.7485  -11.9617   20.2426 C   0  0  0  0  0  0  0  0  0  0  0  0
  -28.4770  -12.9012   20.4067 C   0  0  0  0  0  0  0  0  0  0  0  0
  -26.0812  -31.2413   25.2718 C   0  0  1  0  0  0  0  0  0  0  0  0
  -24.3671  -31.4434   21.8874 C   0  0  1  0  0  0  0  0  0  0  0  0
  -27.9870  -12.0301   19.2385 C   0  0  2  0  0  0  0  0  0  0  0  0
  -17.9381  -30.8737   17.6042 C   0  0  0  0  0  0  0  0  0  0  0  0
  -27.1578  -23.3143   18.3191 C   0  0  0  0  0  0  0  0  0  0  0  0
  -35.1588  -18.0896   23.9238 C   0  0  0  0  0  0  0  0  0  0  0  0
  -33.9124  -18.6818   26.0064 C   0  0  0  0  0  0  0  0  0  0  0  0
  -34.3465  -20.4280   24.2599 C   0  0  0  0  0  0  0  0  0  0  0  0
  -20.4632  -29.6650   23.6070 C   0  0  0  0  0  0  0  0  0  0  0  0
  -18.6009  -29.3593   21.9619 C   0  0  0  0  0  0  0  0  0  0  0  0
  -19.1907  -31.6463   22.7647 C   0  0  0  0  0  0  0  0  0  0  0  0
  -21.4867  -31.3606   16.3212 C   0  0  0  0  0  0  0  0  0  0  0  0
  -32.6576  -18.7981   22.2481 C   0  0  0  0  0  0  0  0  0  0  0  0
  -26.7952  -22.0759   21.1185 C   0  0  0  0  0  0  0  0  0  0  0  0
  -32.7004  -18.5444   23.7676 C   0  0  0  0  0  0  0  0  0  0  0  0
  -26.9378  -23.5760   20.8506 C   0  0  0  0  0  0  0  0  0  0  0  0
  -27.8189  -25.4653   19.4136 C   0  0  0  0  0  0  0  0  0  1  0  0
  -20.7446  -30.4550   21.1652 C   0  0  1  0  0  0  0  0  0  0  0  0
  -19.4107  -31.2398   17.7048 C   0  0  2  0  0  0  0  0  0  0  0  0
  -27.7467  -23.9407   19.5842 C   0  0  2  0  0  0  0  0  0  0  0  0
  -34.0114  -18.9460   24.4950 C   0  0  0  0  0  0  0  0  0  0  0  0
  -19.7764  -30.2735   22.3681 C   0  0  0  0  0  0  0  0  0  0  0  0
  -25.9368  -11.6231   20.5471 N   0  0  0  0  0  0  0  0  0  0  0  0
  -26.5018  -11.7350   19.3328 N   0  0  0  0  0  0  0  0  0  0  0  0
  -23.1948  -30.7268   21.3812 N   0  0  0  0  0  0  0  0  0  0  0  0
  -29.9171  -13.1672   20.2643 N   0  0  0  0  0  0  0  0  0  0  0  0
  -26.0291  -11.6409   17.0137 N   0  0  0  0  0  0  0  0  0  0  0  0
  -22.0170  -10.8438   18.9280 N   0  0  0  0  0  0  0  0  0  0  0  0
  -28.0612  -20.0437   20.9609 N   0  0  0  0  0  0  0  0  0  0  0  0
  -29.6331  -15.5060   20.1568 N   0  0  0  0  0  0  0  0  0  0  0  0
  -25.6674  -31.5709   23.9248 N   0  0  0  0  0  0  0  0  0  0  0  0
  -20.1278  -31.0546   19.9868 N   0  0  0  0  0  0  0  0  0  0  0  0
  -20.0420  -31.0184   16.3731 N   0  3  0  0  0  0  0  0  0  0  0  0
  -23.1180  -11.0452   16.9264 O   0  0  0  0  0  0  0  0  0  0  0  0
  -23.9208  -30.0426   23.7350 O   0  0  0  0  0  0  0  0  0  0  0  0
  -21.7458  -32.4874   21.8676 O   0  0  0  0  0  0  0  0  0  0  0  0
  -29.0598  -21.9350   21.9284 O   0  0  0  0  0  0  0  0  0  0  0  0
  -20.5995  -29.3079   18.5364 O   0  0  0  0  0  0  0  0  0  0  0  0
  -31.7486  -14.5606   20.0452 O   0  0  0  0  0  0  0  0  0  0  0  0
  -20.9587  -10.6373   24.3935 O   0  0  0  0  0  0  0  0  0  0  0  0
  -26.5099  -25.9974   19.2141 O   0  0  0  0  0  0  0  0  0  1  0  0
  -17.4286   -6.4238   23.9590 F   0  0  0  0  0  0  0  0  0  0  0  0
  -20.8966   -8.6366   26.3003 F   0  0  0  0  0  0  0  0  0  0  0  0
  1  2  1  0  0  0  0
  1  5  2  0  0  0  0
  2  6  2  0  0  0  0
  3  8  2  0  0  0  0
  3 18  1  0  0  0  0
  4  9  1  0  0  0  0
  4 18  2  0  0  0  0
  5 20  1  0  0  0  0
  6 22  1  0  0  0  0
  7 10  2  0  0  0  0
  7 21  1  0  0  0  0
  8 27  1  0  0  0  0
  9 27  2  0  0  0  0
 10 28  1  0  0  0  0
 11 12  2  0  0  0  0
 11 29  1  0  0  0  0
 12 30  1  0  0  0  0
 13 23  1  0  0  0  0
 13 28  2  0  0  0  0
 14 24  2  0  0  0  0
 14 25  1  0  0  0  0
 15 24  1  0  0  0  0
 15 26  2  0  0  0  0
 16 25  2  0  0  0  0
 16 26  1  0  0  0  0
 17 30  2  0  0  0  0
 17 31  1  0  0  0  0
 18 32  1  0  0  0  0
 19 32  1  0  0  0  0
 19 33  2  0  0  0  0
 19 34  1  0  0  0  0
 20 22  2  0  0  0  0
 20 40  1  0  0  0  0
 21 23  2  0  0  0  0
 21 41  1  0  0  0  0
 22 49  1  0  0  0  0
 23 42  1  0  0  0  0
 24 61  1  0  0  0  0
 25 77  1  0  0  0  0
 26 78  1  0  0  0  0
 27 88  1  0  0  0  0
 28 89  1  0  0  0  0
 29 31  2  0  0  0  0
 29 88  1  0  0  0  0
 30 90  1  0  0  0  0
 31 91  1  0  0  0  0
 32 71  2  0  0  0  0
 33 72  1  0  0  0  0
 33 75  1  0  0  0  0
 34 76  1  0  0  0  0
 34 82  2  0  0  0  0
 35 50  1  0  0  0  0
 35 79  1  0  0  0  0
 35 83  2  0  0  0  0
 36 66  1  0  0  0  0
 36 73  1  0  0  0  0
 36 84  2  0  0  0  0
 37 62  1  0  0  0  0
 37 77  1  0  0  0  0
 37 85  2  0  0  0  0
 38 67  1  0  0  0  0
 38 80  1  0  0  0  0
 38 86  2  0  0  0  0
 39 74  1  0  0  0  0
 39 78  1  0  0  0  0
 39 87  2  0  0  0  0
 40 43  1  0  0  0  0
 41 50  1  0  0  0  0
 42 73  1  0  0  0  0
 43 45  1  0  0  0  0
 44 46  1  0  0  0  0
 44 47  1  0  0  0  0
 45 49  1  0  0  0  0
 46 51  1  0  0  0  0
 47 74  1  0  0  0  0
 48 51  1  0  0  0  0
 48 74  1  0  0  0  0
 49 79  1  0  0  0  0
 50 73  1  0  0  0  0
 51 72  1  0  0  0  0
 52 67  1  0  0  0  0
 53 68  1  0  0  0  0
 54 69  1  0  0  0  0
 55 69  1  0  0  0  0
 56 69  1  0  0  0  0
 57 70  1  0  0  0  0
 58 70  1  0  0  0  0
 59 70  1  0  0  0  0
 60 81  1  0  0  0  0
 61 63  1  0  0  0  0
 62 64  1  0  0  0  0
 63 69  1  0  0  0  0
 64 68  1  0  0  0  0
 65 68  1  0  0  0  0
 65 89  1  0  0  0  0
 66 70  1  0  0  0  0
 66 80  1  0  0  0  0
 67 81  1  0  0  0  0
 71 72  1  0  0  0  0
M  CHG  1  81   1
M  ISO  4  39 100  65 101  78 100  89 101
M  END
> <Batch ID>
0141

> <Smiles>
CNC(C)C(=O)NC(C(=O)N1Cc2cc([101O:1][101CH2:1]C(C)CCC(=O)Nc3cc(CCC(C)(C)C)cc([100NH:0][100C:0](=O)N4CCCC(n5nc(-c6ccc(Oc7ccc(F)cc7F)cc6)c(C(N)=O)c5N)C4)c3)ccc2CC1C(=O)NC1CCCc2ccccc21)C(C)(C)C

> <Shape>
0.282

> <Color>
0.085

> <Negative vol penalty>
0.000

$$$$

  -OEChem-04052302543D

 91 99  0     1  0  0  0  0  0999 V2000
  -29.8112  -30.6322   26.4354 C   0  0  0  0  0  0  0  0  0  0  0  0
  -29.4243  -29.6444   25.5355 C   0  0  0  0  0  0  0  0  0  0  0  0
  -23.8705   -9.6683   20.8128 C   0  0  0  0  0  0  0  0  0  0  0  0
  -24.3210  -10.4380   23.0582 C   0  0  0  0  0  0  0  0  0  0  0  0
  -28.8487  -31.4450   27.0329 C   0  0  0  0  0  0  0  0  0  0  0  0
  -28.0745  -29.4679   25.2334 C   0  0  0  0  0  0  0  0  0  0  0  0
  -27.2541  -28.8895   20.2698 C   0  0  0  0  0  0  0  0  0  0  0  0
  -23.3618   -8.4745   21.3241 C   0  0  0  0  0  0  0  0  0  0  0  0
  -23.8122   -9.2442   23.5695 C   0  0  0  0  0  0  0  0  0  0  0  0
  -27.5332  -27.6391   19.7198 C   0  0  0  0  0  0  0  0  0  0  0  0
  -20.4913   -7.3985   22.7510 C   0  0  0  0  0  0  0  0  0  0  0  0
  -19.2943   -6.9223   22.2163 C   0  0  0  0  0  0  0  0  0  0  0  0
  -30.8365  -18.7813   22.0182 C   0  0  0  0  0  0  0  0  0  0  0  0
  -30.0572  -20.7921   23.1072 C   0  0  0  0  0  0  0  0  0  0  0  0
  -25.1858  -27.0883   19.7961 C   0  0  0  0  0  0  0  0  0  0  0  0
  -28.4666  -19.2089   22.2126 C   0  0  0  0  0  0  0  0  0  0  0  0
  -20.4114   -4.8966   21.5195 C   0  0  0  0  0  0  0  0  0  0  0  0
  -24.3502  -10.6501   21.6799 C   0  0  0  0  0  0  0  0  0  0  0  0
  -31.1069  -19.9793   22.6794 C   0  0  0  0  0  0  0  0  0  0  0  0
  -24.1633  -13.0683   20.8893 C   0  0  0  0  0  0  0  0  0  0  0  0
  -27.4872  -31.2848   26.7306 C   0  0  0  0  0  0  0  0  0  0  0  0
  -25.9378  -29.2450   20.5978 C   0  0  0  0  0  0  0  0  0  0  0  0
  -27.0928  -30.2784   25.8285 C   0  0  0  0  0  0  0  0  0  0  0  0
  -24.8924  -28.3447   20.3478 C   0  0  0  0  0  0  0  0  0  0  0  0
  -29.5163  -18.3961   21.7847 C   0  0  0  0  0  0  0  0  0  0  0  0
  -23.3326   -8.2624   22.7025 C   0  0  0  0  0  0  0  0  0  0  0  0
  -26.4994  -26.7372   19.4855 C   0  0  0  0  0  0  0  0  0  0  0  0
  -21.6485   -6.6238   22.6698 C   0  0  0  0  0  0  0  0  0  0  0  0
  -28.7370  -20.4069   22.8738 C   0  0  0  0  0  0  0  0  0  0  0  0
  -19.2543   -5.6713   21.6006 C   0  0  0  0  0  0  0  0  0  0  0  0
  -21.6085   -5.3728   22.0541 C   0  0  0  0  0  0  0  0  0  0  0  0
  -24.8764  -11.8834   21.1523 C   0  0  0  0  0  0  0  0  0  0  0  0
  -25.1091  -13.9373   20.4026 C   0  0  0  0  0  0  0  0  0  0  0  0
  -32.4831  -20.3810   22.9241 C   0  0  0  0  0  0  0  0  0  0  0  0
  -22.7706  -13.3577   21.0691 C   0  0  0  0  0  0  0  0  0  0  0  0
  -24.4247  -30.0104   23.2863 C   0  0  0  0  0  0  0  0  0  0  0  0
  -25.9992  -23.0810   21.7905 C   0  0  0  0  0  0  0  0  0  0  0  0
  -21.9619  -30.6244   21.2664 C   0  0  0  0  0  0  0  0  0  0  0  0
  -20.4773  -30.0468   18.2483 C   0  0  0  0  0  0  0  0  0  0  0  0
  -30.1663  -16.2565   20.6245 C   0  0  0  0  0  0  0  0  0  0  0  0
  -26.4793  -32.1560   27.4375 C   0  0  0  0  0  0  0  0  0  0  0  0
  -25.6501  -30.6078   21.1656 C   0  0  0  0  0  0  0  0  0  0  0  0
  -23.4597  -28.6857   20.6633 C   0  0  0  0  0  0  0  0  0  0  0  0
  -25.1022  -32.1517   26.7788 C   0  0  0  0  0  0  0  0  0  0  0  0
  -29.8895  -13.1269   18.9492 C   0  0  0  0  0  0  0  0  0  0  0  0
  -24.6722  -30.7256   26.4501 C   0  0  0  0  0  0  0  0  0  0  0  0
  -28.5020  -12.6219   19.3514 C   0  0  0  0  0  0  0  0  0  0  0  0
  -30.5793  -13.8638   20.0960 C   0  0  0  0  0  0  0  0  0  0  0  0
  -28.4059  -14.4428   21.1013 C   0  0  0  0  0  0  0  0  0  0  0  0
  -25.6404  -30.0726   25.4563 C   0  0  1  0  0  0  0  0  0  0  0  0
  -24.3360  -30.6679   21.9382 C   0  0  1  0  0  0  0  0  0  0  0  0
  -27.6456  -13.7505   19.9584 C   0  0  2  0  0  0  0  0  0  0  0  0
  -18.4534  -30.6628   16.8985 C   0  0  0  0  0  0  0  0  0  0  0  0
  -25.6639  -23.0304   24.2858 C   0  0  0  0  0  0  0  0  0  0  0  0
  -26.9334  -24.9032   23.2317 C   0  0  0  0  0  0  0  0  0  0  0  0
  -20.2543  -28.7692   22.9847 C   0  0  0  0  0  0  0  0  0  0  0  0
  -18.5975  -28.6721   21.1101 C   0  0  0  0  0  0  0  0  0  0  0  0
  -19.0927  -30.8489   22.2232 C   0  0  0  0  0  0  0  0  0  0  0  0
  -27.3215  -23.1891   19.0483 C   0  0  0  0  0  0  0  0  0  0  0  0
  -28.3081  -24.8333   20.6547 C   0  0  0  0  0  0  0  0  0  0  0  0
  -22.1290  -31.2353   16.0992 C   0  0  0  0  0  0  0  0  0  0  0  0
  -25.8376  -24.2260   20.7889 C   0  0  0  0  0  0  0  0  0  0  0  0
  -27.9574  -22.6045   23.3416 C   0  0  0  0  0  0  0  0  0  0  0  0
  -20.8218  -29.8171   20.6943 C   0  0  1  0  0  0  0  0  0  0  0  0
  -19.9046  -30.9943   17.2097 C   0  0  2  0  0  0  0  0  0  0  0  0
  -26.6492  -23.3956   23.1577 C   0  0  0  0  0  0  0  0  0  0  0  0
  -19.7187  -29.5194   21.7488 C   0  0  0  0  0  0  0  0  0  0  0  0
  -27.0508  -24.4558   19.8687 C   0  0  0  0  0  0  0  0  0  1  0  0
  -26.1749  -11.9866   20.8569 N   0  0  0  0  0  0  0  0  0  0  0  0
  -26.2852  -13.2468   20.4032 N   0  0  0  0  0  0  0  0  0  0  0  0
  -23.2301  -30.0279   21.2229 N   0  0  0  0  0  0  0  0  0  0  0  0
  -29.7107  -14.9211   20.6180 N   0  0  0  0  0  0  0  0  0  0  0  0
  -25.0410  -15.2171   19.9783 N   0  0  0  0  0  0  0  0  0  0  0  0
  -32.6979  -21.5854   23.5878 N   0  0  0  0  0  0  0  0  0  0  0  0
  -21.9396  -12.3514   21.5800 N   0  0  0  0  0  0  0  0  0  0  0  0
  -29.2417  -17.1788   21.1136 N   0  0  0  0  0  0  0  0  0  0  0  0
  -25.3882  -30.5533   24.1148 N   0  0  0  0  0  0  0  0  0  0  0  0
  -20.3485  -30.5506   19.5253 N   0  0  0  0  0  0  0  0  0  0  0  0
  -20.6876  -30.9105   15.9444 N   0  3  0  0  0  0  0  0  0  0  0  0
  -33.4395  -19.6847   22.5408 O   0  0  0  0  0  0  0  0  0  0  0  0
  -22.2746  -14.4703   20.7697 O   0  0  0  0  0  0  0  0  0  0  0  0
  -23.6735  -29.0803   23.5555 O   0  0  0  0  0  0  0  0  0  0  0  0
  -25.6433  -21.9360   21.5021 O   0  0  0  0  0  0  0  0  0  0  0  0
  -21.7368  -31.7458   21.7282 O   0  0  0  0  0  0  0  0  0  0  0  0
  -20.9845  -28.9661   17.9562 O   0  0  0  0  0  0  0  0  0  0  0  0
  -31.2834  -16.5631   20.2003 O   0  0  0  0  0  0  0  0  0  0  0  0
  -22.8360   -7.0976   23.2018 O   0  0  0  0  0  0  0  0  0  0  0  0
  -27.7059  -21.2047   23.2942 O   0  0  0  0  0  0  0  0  0  0  0  0
  -26.7704  -25.5098   18.9467 O   0  0  0  0  0  0  0  0  0  1  0  0
  -18.1043   -5.2135   21.0886 F   0  0  0  0  0  0  0  0  0  0  0  0
  -22.7166   -4.6235   21.9741 F   0  0  0  0  0  0  0  0  0  0  0  0
  1  2  1  0  0  0  0
  1  5  2  0  0  0  0
  2  6  2  0  0  0  0
  3  8  2  0  0  0  0
  3 18  1  0  0  0  0
  4  9  1  0  0  0  0
  4 18  2  0  0  0  0
  5 21  1  0  0  0  0
  6 23  1  0  0  0  0
  7 10  2  0  0  0  0
  7 22  1  0  0  0  0
  8 26  1  0  0  0  0
  9 26  2  0  0  0  0
 10 27  1  0  0  0  0
 11 12  2  0  0  0  0
 11 28  1  0  0  0  0
 12 30  1  0  0  0  0
 13 19  2  0  0  0  0
 13 25  1  0  0  0  0
 14 19  1  0  0  0  0
 14 29  2  0  0  0  0
 15 24  1  0  0  0  0
 15 27  2  0  0  0  0
 16 25  2  0  0  0  0
 16 29  1  0  0  0  0
 17 30  2  0  0  0  0
 17 31  1  0  0  0  0
 18 32  1  0  0  0  0
 19 34  1  0  0  0  0
 20 32  1  0  0  0  0
 20 33  2  0  0  0  0
 20 35  1  0  0  0  0
 21 23  2  0  0  0  0
 21 41  1  0  0  0  0
 22 24  2  0  0  0  0
 22 42  1  0  0  0  0
 23 50  1  0  0  0  0
 24 43  1  0  0  0  0
 25 76  1  0  0  0  0
 26 87  1  0  0  0  0
 27 89  1  0  0  0  0
 28 31  2  0  0  0  0
 28 87  1  0  0  0  0
 29 88  1  0  0  0  0
 30 90  1  0  0  0  0
 31 91  1  0  0  0  0
 32 69  2  0  0  0  0
 33 70  1  0  0  0  0
 33 73  1  0  0  0  0
 34 74  1  0  0  0  0
 34 80  2  0  0  0  0
 35 75  1  0  0  0  0
 35 81  2  0  0  0  0
 36 51  1  0  0  0  0
 36 77  1  0  0  0  0
 36 82  2  0  0  0  0
 37 62  1  0  0  0  0
 37 66  1  0  0  0  0
 37 83  2  0  0  0  0
 38 64  1  0  0  0  0
 38 71  1  0  0  0  0
 38 84  2  0  0  0  0
 39 65  1  0  0  0  0
 39 78  1  0  0  0  0
 39 85  2  0  0  0  0
 40 72  1  0  0  0  0
 40 76  1  0  0  0  0
 40 86  2  0  0  0  0
 41 44  1  0  0  0  0
 42 51  1  0  0  0  0
 43 71  1  0  0  0  0
 44 46  1  0  0  0  0
 45 47  1  0  0  0  0
 45 48  1  0  0  0  0
 46 50  1  0  0  0  0
 47 52  1  0  0  0  0
 48 72  1  0  0  0  0
 49 52  1  0  0  0  0
 49 72  1  0  0  0  0
 50 77  1  0  0  0  0
 51 71  1  0  0  0  0
 52 70  1  0  0  0  0
 53 65  1  0  0  0  0
 54 66  1  0  0  0  0
 55 66  1  0  0  0  0
 56 67  1  0  0  0  0
 57 67  1  0  0  0  0
 58 67  1  0  0  0  0
 59 68  1  0  0  0  0
 60 68  1  0  0  0  0
 61 79  1  0  0  0  0
 62 68  1  0  0  0  0
 63 66  1  0  0  0  0
 63 88  1  0  0  0  0
 64 67  1  0  0  0  0
 64 78  1  0  0  0  0
 65 79  1  0  0  0  0
 68 89  1  0  0  0  0
 69 70  1  0  0  0  0
M  CHG  1  79   1
M  ISO  4  40 100  68 101  76 100  89 101
M  END
> <Batch ID>
0141

> <Smiles>
CNC(C)C(=O)NC(C(=O)N1Cc2cc([101O:1][101C:1](C)(C)CC(=O)C(C)(C)COc3cc([100NH:0][100C:0](=O)N4CCCC(n5nc(-c6ccc(Oc7ccc(F)cc7F)cc6)c(C(N)=O)c5N)C4)cc(C(N)=O)c3)ccc2CC1C(=O)NC1CCCc2ccccc21)C(C)(C)C

> <Shape>
0.307

> <Color>
0.154

> <Negative vol penalty>
0.000

$$$$

  -OEChem-04052302543D

 89 97  0     1  0  0  0  0  0999 V2000
  -17.5211  -30.3607   24.0818 C   0  0  0  0  0  0  0  0  0  0  0  0
  -18.8750  -30.4452   24.3901 C   0  0  0  0  0  0  0  0  0  0  0  0
  -23.4545  -14.7018   22.6728 C   0  0  0  0  0  0  0  0  0  0  0  0
  -25.8054  -15.0654   22.2508 C   0  0  0  0  0  0  0  0  0  0  0  0
  -17.0549  -29.3257   23.2722 C   0  0  0  0  0  0  0  0  0  0  0  0
  -19.7635  -29.4940   23.8898 C   0  0  0  0  0  0  0  0  0  0  0  0
  -24.0057  -31.5697   22.0622 C   0  0  0  0  0  0  0  0  0  0  0  0
  -23.4841  -13.5680   21.8609 C   0  0  0  0  0  0  0  0  0  0  0  0
  -25.8350  -13.9315   21.4389 C   0  0  0  0  0  0  0  0  0  0  0  0
  -24.9680  -31.9713   22.9876 C   0  0  0  0  0  0  0  0  0  0  0  0
  -24.4877  -10.3490   22.1134 C   0  0  0  0  0  0  0  0  0  0  0  0
  -23.8540   -9.1986   22.5831 C   0  0  0  0  0  0  0  0  0  0  0  0
  -26.2132  -29.9497   22.5610 C   0  0  0  0  0  0  0  0  0  0  0  0
  -28.1131  -25.0915   24.1807 C   0  0  0  0  0  0  0  0  0  0  0  0
  -22.3909   -9.2196   20.6606 C   0  0  0  0  0  0  0  0  0  0  0  0
  -24.6151  -15.4505   22.8678 C   0  0  0  0  0  0  0  0  0  0  0  0
  -24.8248  -16.6824   25.0918 C   0  0  0  0  0  0  0  0  0  0  0  0
  -17.9395  -28.3669   22.7539 C   0  0  0  0  0  0  0  0  0  0  0  0
  -24.1345  -30.3479   21.3861 C   0  0  0  0  0  0  0  0  0  0  0  0
  -19.3085  -28.4444   23.0737 C   0  0  0  0  0  0  0  0  0  0  0  0
  -25.2524  -29.5361   21.6256 C   0  0  0  0  0  0  0  0  0  0  0  0
  -29.3703  -25.5238   24.6934 C   0  0  0  0  0  0  0  0  0  0  0  0
  -24.6743  -13.1828   21.2440 C   0  0  0  0  0  0  0  0  0  0  0  0
  -26.0704  -31.1599   23.2393 C   0  0  0  0  0  0  0  0  0  0  0  0
  -24.0729  -10.9348   20.9173 C   0  0  0  0  0  0  0  0  0  0  0  0
  -22.8056   -8.6339   21.8567 C   0  0  0  0  0  0  0  0  0  0  0  0
  -23.0246  -10.3700   20.1909 C   0  0  0  0  0  0  0  0  0  0  0  0
  -24.5851  -16.6222   23.7059 C   0  0  0  0  0  0  0  0  0  0  0  0
  -24.6770  -18.0107   25.4084 C   0  0  0  0  0  0  0  0  0  0  0  0
  -27.9918  -23.7194   24.1971 C   0  0  0  0  0  0  0  0  0  0  0  0
  -30.1619  -24.4655   25.0823 C   0  0  0  0  0  0  0  0  0  0  0  0
  -25.1518  -15.6315   26.0108 C   0  0  0  0  0  0  0  0  0  0  0  0
  -22.4219  -27.6742   21.2388 C   0  0  0  0  0  0  0  0  0  0  0  0
  -29.0768  -29.8744   25.5232 C   0  0  0  0  0  0  0  0  0  0  0  0
  -24.5887  -26.8733   18.9616 C   0  0  0  0  0  0  0  0  0  0  0  0
  -28.1546  -27.1698   18.4992 C   0  0  0  0  0  0  0  0  0  0  0  0
  -25.7028  -23.2677   23.2469 C   0  0  0  0  0  0  0  0  0  0  0  0
  -17.3819  -27.2393   21.9219 C   0  0  0  0  0  0  0  0  0  0  0  0
  -23.1015  -29.9416   20.3711 C   0  0  0  0  0  0  0  0  0  0  0  0
  -25.4478  -28.2247   20.9112 C   0  0  0  0  0  0  0  0  0  0  0  0
  -18.4446  -26.4867   21.1254 C   0  0  0  0  0  0  0  0  0  0  0  0
  -22.4279  -21.8709   23.2817 C   0  0  0  0  0  0  0  0  0  0  0  0
  -19.6454  -26.1643   22.0091 C   0  0  0  0  0  0  0  0  0  0  0  0
  -22.6720  -20.3807   23.5301 C   0  0  0  0  0  0  0  0  0  0  0  0
  -23.5071  -22.4813   22.3892 C   0  0  0  0  0  0  0  0  0  0  0  0
  -25.1304  -20.7651   23.0883 C   0  0  0  0  0  0  0  0  0  0  0  0
  -20.3072  -27.4459   22.5298 C   0  0  1  0  0  0  0  0  0  0  0  0
  -23.0709  -28.4373   20.1190 C   0  0  1  0  0  0  0  0  0  0  0  0
  -24.1048  -20.1208   24.0352 C   0  0  2  0  0  0  0  0  0  0  0  0
  -29.5219  -27.3028   16.3992 C   0  0  0  0  0  0  0  0  0  0  0  0
  -29.7796  -29.3824   27.8910 C   0  0  0  0  0  0  0  0  0  0  0  0
  -31.4638  -29.2664   26.0684 C   0  0  0  0  0  0  0  0  0  0  0  0
  -24.8558  -23.8515   19.2891 C   0  0  0  0  0  0  0  0  0  0  0  0
  -27.2243  -24.0455   18.5013 C   0  0  0  0  0  0  0  0  0  0  0  0
  -25.3513  -24.6993   16.9891 C   0  0  0  0  0  0  0  0  0  0  0  0
  -25.3069  -31.0250   25.7666 C   0  0  0  0  0  0  0  0  0  0  0  0
  -27.3957  -32.2521   26.3797 C   0  0  0  0  0  0  0  0  0  0  0  0
  -32.2062  -23.3741   26.0073 C   0  0  0  0  0  0  0  0  0  0  0  0
  -29.4290  -29.7014   19.3511 C   0  0  0  0  0  0  0  0  0  0  0  0
  -29.7691  -26.9760   24.7908 C   0  0  0  0  0  0  0  0  0  0  0  0
  -27.5668  -29.8285   25.7702 C   0  0  0  0  0  0  0  0  0  0  0  0
  -29.6493  -27.4945   26.2308 C   0  0  0  0  0  0  0  0  0  0  0  0
  -25.9280  -26.1767   18.9580 C   0  0  1  0  0  0  0  0  0  0  0  0
  -28.8715  -28.0890   17.5268 C   0  0  2  0  0  0  0  0  0  0  0  0
  -29.9864  -28.9956   26.4148 C   0  0  0  0  0  0  0  0  0  0  0  0
  -25.8308  -24.7081   18.4569 C   0  0  0  0  0  0  0  0  0  0  0  0
  -26.8093  -31.1422   25.4998 C   0  0  0  0  0  0  0  0  0  1  0  0
  -24.3061  -17.8172   23.1785 N   0  0  0  0  0  0  0  0  0  0  0  0
  -24.3694  -18.6407   24.2386 N   0  0  0  0  0  0  0  0  0  0  0  0
  -24.4072  -27.8682   19.9327 N   0  0  0  0  0  0  0  0  0  0  0  0
  -24.8376  -22.1985   22.9322 N   0  0  0  0  0  0  0  0  0  0  0  0
  -24.7814  -18.6895   26.5706 N   0  0  0  0  0  0  0  0  0  0  0  0
  -25.2648  -14.3243   25.5182 N   0  0  0  0  0  0  0  0  0  0  0  0
  -26.9281  -22.8780   23.7868 N   0  0  0  0  0  0  0  0  0  0  0  0
  -31.4109  -24.5317   25.6100 N   0  0  0  0  0  0  0  0  0  0  0  0
  -21.1178  -28.0522   21.4955 N   0  0  0  0  0  0  0  0  0  0  0  0
  -26.8237  -27.0183   18.1720 N   0  0  0  0  0  0  0  0  0  0  0  0
  -29.9315  -28.8636   18.2320 N   0  3  0  0  0  0  0  0  0  0  0  0
  -25.3221  -15.8430   27.2354 O   0  0  0  0  0  0  0  0  0  0  0  0
  -23.0568  -26.8056   21.8256 O   0  0  0  0  0  0  0  0  0  0  0  0
  -29.5555  -30.6109   24.6579 O   0  0  0  0  0  0  0  0  0  0  0  0
  -23.7375  -26.5516   18.1287 O   0  0  0  0  0  0  0  0  0  0  0  0
  -28.7196  -26.6364   19.4514 O   0  0  0  0  0  0  0  0  0  0  0  0
  -25.3700  -24.4434   23.0772 O   0  0  0  0  0  0  0  0  0  0  0  0
  -24.7036  -12.0764   20.4519 O   0  0  0  0  0  0  0  0  0  0  0  0
  -27.0155  -31.5512   24.1471 O   0  0  0  0  0  0  0  0  0  1  0  0
  -22.1981   -7.5283   22.3071 F   0  0  0  0  0  0  0  0  0  0  0  0
  -22.6225  -10.9276   19.0405 F   0  0  0  0  0  0  0  0  0  0  0  0
  -29.3897  -22.9583   24.8288 S   0  0  0  0  0  0  0  0  0  0  0  0
  1  2  1  0  0  0  0
  1  5  2  0  0  0  0
  2  6  2  0  0  0  0
  3  8  2  0  0  0  0
  3 16  1  0  0  0  0
  4  9  1  0  0  0  0
  4 16  2  0  0  0  0
  5 18  1  0  0  0  0
  6 20  1  0  0  0  0
  7 10  2  0  0  0  0
  7 19  1  0  0  0  0
  8 23  1  0  0  0  0
  9 23  2  0  0  0  0
 10 24  1  0  0  0  0
 11 12  2  0  0  0  0
 11 25  1  0  0  0  0
 12 26  1  0  0  0  0
 13 21  1  0  0  0  0
 13 24  2  0  0  0  0
 14 22  1  0  0  0  0
 14 30  2  0  0  0  0
 15 26  2  0  0  0  0
 15 27  1  0  0  0  0
 16 28  1  0  0  0  0
 17 28  1  0  0  0  0
 17 29  2  0  0  0  0
 17 32  1  0  0  0  0
 18 20  2  0  0  0  0
 18 38  1  0  0  0  0
 19 21  2  0  0  0  0
 19 39  1  0  0  0  0
 20 47  1  0  0  0  0
 21 40  1  0  0  0  0
 22 31  2  0  0  0  0
 22 60  1  0  0  0  0
 23 85  1  0  0  0  0
 24 86  1  0  0  0  0
 25 27  2  0  0  0  0
 25 85  1  0  0  0  0
 26 87  1  0  0  0  0
 27 88  1  0  0  0  0
 28 68  2  0  0  0  0
 29 69  1  0  0  0  0
 29 72  1  0  0  0  0
 30 74  1  0  0  0  0
 30 89  1  0  0  0  0
 31 75  1  0  0  0  0
 31 89  1  0  0  0  0
 32 73  1  0  0  0  0
 32 79  2  0  0  0  0
 33 48  1  0  0  0  0
 33 76  1  0  0  0  0
 33 80  2  0  0  0  0
 34 61  1  0  0  0  0
 34 65  1  0  0  0  0
 34 81  2  0  0  0  0
 35 63  1  0  0  0  0
 35 70  1  0  0  0  0
 35 82  2  0  0  0  0
 36 64  1  0  0  0  0
 36 77  1  0  0  0  0
 36 83  2  0  0  0  0
 37 71  1  0  0  0  0
 37 74  1  0  0  0  0
 37 84  2  0  0  0  0
 38 41  1  0  0  0  0
 39 48  1  0  0  0  0
 40 70  1  0  0  0  0
 41 43  1  0  0  0  0
 42 44  1  0  0  0  0
 42 45  1  0  0  0  0
 43 47  1  0  0  0  0
 44 49  1  0  0  0  0
 45 71  1  0  0  0  0
 46 49  1  0  0  0  0
 46 71  1  0  0  0  0
 47 76  1  0  0  0  0
 48 70  1  0  0  0  0
 49 69  1  0  0  0  0
 50 64  1  0  0  0  0
 51 65  1  0  0  0  0
 52 65  1  0  0  0  0
 53 66  1  0  0  0  0
 54 66  1  0  0  0  0
 55 66  1  0  0  0  0
 56 67  1  0  0  0  0
 57 67  1  0  0  0  0
 58 75  1  0  0  0  0
 59 78  1  0  0  0  0
 60 62  1  0  0  0  0
 61 67  1  0  0  0  0
 62 65  1  0  0  0  0
 63 66  1  0  0  0  0
 63 77  1  0  0  0  0
 64 78  1  0  0  0  0
 67 86  1  0  0  0  0
 68 69  1  0  0  0  0
M  CHG  1  78   1
M  ISO  4  37 100  67 101  74 100  86 101
M  END
> <Batch ID>
0141

> <Smiles>
CNc1sc([100NH:0][100C:0](=O)N2CCCC(n3nc(-c4ccc(Oc5ccc(F)cc5F)cc4)c(C(N)=O)c3N)C2)cc1CCC(C)(C)C(=O)C[101C:1](C)(C)[101O:1]c1ccc2c(c1)CN(C(=O)C(NC(=O)C(C)NC)C(C)(C)C)C(C(=O)NC1CCCc3ccccc31)C2

> <Shape>
0.241

> <Color>
0.075

> <Negative vol penalty>
0.000

$$$$

  -OEChem-04052302543D

 90 98  0     1  0  0  0  0  0999 V2000
  -26.5756  -30.2467   17.6337 C   0  0  0  0  0  0  0  0  0  0  0  0
  -26.1860  -28.9149   17.5489 C   0  0  0  0  0  0  0  0  0  0  0  0
  -26.7496  -12.4377   21.8644 C   0  0  0  0  0  0  0  0  0  0  0  0
  -26.0050  -14.0490   20.2255 C   0  0  0  0  0  0  0  0  0  0  0  0
  -26.3166  -30.9722   18.7947 C   0  0  0  0  0  0  0  0  0  0  0  0
  -25.5266  -28.3114   18.6204 C   0  0  0  0  0  0  0  0  0  0  0  0
  -23.7828  -23.7681   17.8990 C   0  0  0  0  0  0  0  0  0  0  0  0
  -30.3111  -23.9757   21.2989 C   0  0  0  0  0  0  0  0  0  0  0  0
  -30.3782  -22.7162   21.8944 C   0  0  0  0  0  0  0  0  0  0  0  0
  -25.4771  -11.8668   21.8813 C   0  0  0  0  0  0  0  0  0  0  0  0
  -24.7324  -13.4781   20.2423 C   0  0  0  0  0  0  0  0  0  0  0  0
  -24.6097  -22.6496   17.8043 C   0  0  0  0  0  0  0  0  0  0  0  0
  -22.5230   -9.7582   22.0882 C   0  0  0  0  0  0  0  0  0  0  0  0
  -22.4359   -8.3667   22.0485 C   0  0  0  0  0  0  0  0  0  0  0  0
  -24.0053  -22.0200   20.0532 C   0  0  0  0  0  0  0  0  0  0  0  0
  -28.9878  -23.0545   19.4996 C   0  0  0  0  0  0  0  0  0  0  0  0
  -23.5836   -8.3555   19.9226 C   0  0  0  0  0  0  0  0  0  0  0  0
  -27.0136  -13.5288   21.0365 C   0  0  0  0  0  0  0  0  0  0  0  0
  -29.4061  -13.7691   20.1846 C   0  0  0  0  0  0  0  0  0  0  0  0
  -25.6649  -30.3730   19.8852 C   0  0  0  0  0  0  0  0  0  0  0  0
  -23.0682  -24.0273   19.0774 C   0  0  0  0  0  0  0  0  0  0  0  0
  -25.2349  -29.0337   19.7916 C   0  0  0  0  0  0  0  0  0  0  0  0
  -23.1680  -23.1410   20.1594 C   0  0  0  0  0  0  0  0  0  0  0  0
  -29.6158  -24.1449   20.1015 C   0  0  0  0  0  0  0  0  0  0  0  0
  -29.7502  -21.6258   21.2926 C   0  0  0  0  0  0  0  0  0  0  0  0
  -24.4685  -12.3869   21.0703 C   0  0  0  0  0  0  0  0  0  0  0  0
  -24.7233  -21.7769   18.8826 C   0  0  0  0  0  0  0  0  0  0  0  0
  -23.1403  -10.4485   21.0450 C   0  0  0  0  0  0  0  0  0  0  0  0
  -29.0550  -21.7949   20.0952 C   0  0  0  0  0  0  0  0  0  0  0  0
  -22.9663   -7.6653   20.9657 C   0  0  0  0  0  0  0  0  0  0  0  0
  -23.6707   -9.7471   19.9622 C   0  0  0  0  0  0  0  0  0  0  0  0
  -28.3278  -14.1194   21.0191 C   0  0  0  0  0  0  0  0  0  0  0  0
  -30.4190  -14.6183   20.5580 C   0  0  0  0  0  0  0  0  0  0  0  0
  -29.4850  -12.7660   19.1632 C   0  0  0  0  0  0  0  0  0  0  0  0
  -23.0412  -26.3819   21.2124 C   0  0  0  0  0  0  0  0  0  0  0  0
  -20.5278  -24.7287   22.4258 C   0  0  0  0  0  0  0  0  0  0  0  0
  -18.9053  -21.7431   22.7426 C   0  0  0  0  0  0  0  0  0  0  0  0
  -30.4844  -20.0274   23.0960 C   0  0  0  0  0  0  0  0  0  0  0  0
  -25.4029  -31.2068   21.1146 C   0  0  0  0  0  0  0  0  0  0  0  0
  -22.1597  -25.2236   19.1539 C   0  0  0  0  0  0  0  0  0  0  0  0
  -22.4062  -23.3634   21.4394 C   0  0  0  0  0  0  0  0  0  0  0  0
  -25.1027  -30.3653   22.3507 C   0  0  0  0  0  0  0  0  0  0  0  0
  -32.0451  -17.0759   24.3329 C   0  0  0  0  0  0  0  0  0  0  0  0
  -24.0411  -29.3250   22.0261 C   0  0  0  0  0  0  0  0  0  0  0  0
  -31.3714  -15.9514   23.5432 C   0  0  0  0  0  0  0  0  0  0  0  0
  -31.0642  -18.1965   24.6730 C   0  0  0  0  0  0  0  0  0  0  0  0
  -29.6526  -17.6200   22.7380 C   0  0  0  0  0  0  0  0  0  0  0  0
  -24.5436  -28.3476   20.9560 C   0  0  1  0  0  0  0  0  0  0  0  0
  -21.8769  -25.6684   20.5856 C   0  0  1  0  0  0  0  0  0  0  0  0
  -30.6161  -16.4986   22.3162 C   0  0  2  0  0  0  0  0  0  0  0  0
  -16.8979  -20.6972   23.8261 C   0  0  0  0  0  0  0  0  0  0  0  0
  -29.8211  -18.1243   18.5328 C   0  0  0  0  0  0  0  0  0  0  0  0
  -30.9672  -26.0302   19.1191 C   0  0  0  0  0  0  0  0  0  0  0  0
  -28.8660  -26.5298   20.4119 C   0  0  0  0  0  0  0  0  0  0  0  0
  -28.7368  -25.5598   18.1264 C   0  0  0  0  0  0  0  0  0  0  0  0
  -21.9660  -24.7617   25.1166 C   0  0  0  0  0  0  0  0  0  0  0  0
  -20.4268  -22.9419   25.8829 C   0  0  0  0  0  0  0  0  0  0  0  0
  -19.5020  -25.1693   25.2457 C   0  0  0  0  0  0  0  0  0  0  0  0
  -26.2078  -18.0308   16.1779 C   0  0  0  0  0  0  0  0  0  0  0  0
  -24.8030  -17.8753   18.2160 C   0  0  0  0  0  0  0  0  0  0  0  0
  -17.7520  -20.9713   20.1285 C   0  0  0  0  0  0  0  0  0  0  0  0
  -27.3284  -18.3125   18.3945 C   0  0  0  0  0  0  0  0  0  0  0  0
  -28.8604  -20.4059   18.1746 C   0  0  0  0  0  0  0  0  0  0  0  0
  -25.7024  -20.1087   17.4989 C   0  0  0  0  0  0  0  0  0  1  0  0
  -20.3652  -23.6234   23.4410 C   0  0  1  0  0  0  0  0  0  0  0  0
  -17.4439  -21.3682   22.5752 C   0  0  2  0  0  0  0  0  0  0  0  0
  -28.6653  -18.9132   17.8939 C   0  0  1  0  0  0  0  0  0  0  0  0
  -29.5443  -25.4917   19.4650 C   0  0  0  0  0  0  0  0  0  0  0  0
  -20.5810  -24.1206   24.8983 C   0  0  0  0  0  0  0  0  0  0  0  0
  -26.0148  -18.6025   17.6050 C   0  0  0  0  0  0  0  0  0  0  0  0
  -28.6277  -15.1134   21.8593 N   0  0  0  0  0  0  0  0  0  0  0  0
  -29.9060  -15.3949   21.5548 N   0  0  0  0  0  0  0  0  0  0  0  0
  -21.5359  -24.5505   21.4678 N   0  0  0  0  0  0  0  0  0  0  0  0
  -30.3892  -18.6680   23.4619 N   0  0  0  0  0  0  0  0  0  0  0  0
  -31.6897  -14.7688   20.1276 N   0  0  0  0  0  0  0  0  0  0  0  0
  -28.3518  -11.9817   18.9080 N   0  0  0  0  0  0  0  0  0  0  0  0
  -29.8294  -20.3522   21.9086 N   0  0  0  0  0  0  0  0  0  0  0  0
  -23.4442  -27.5117   20.5265 N   0  0  0  0  0  0  0  0  0  0  0  0
  -19.0519  -23.0362   23.1983 N   0  0  0  0  0  0  0  0  0  0  0  0
  -17.2775  -20.4310   21.4285 N   0  3  0  0  0  0  0  0  0  0  0  0
  -30.5346  -12.5600   18.5078 O   0  0  0  0  0  0  0  0  0  0  0  0
  -23.5363  -25.9409   22.2430 O   0  0  0  0  0  0  0  0  0  0  0  0
  -19.7830  -25.7107   22.4765 O   0  0  0  0  0  0  0  0  0  0  0  0
  -19.8248  -20.9654   22.4973 O   0  0  0  0  0  0  0  0  0  0  0  0
  -31.1244  -20.8378   23.7711 O   0  0  0  0  0  0  0  0  0  0  0  0
  -23.2267  -11.8300   21.0863 O   0  0  0  0  0  0  0  0  0  0  0  0
  -25.5302  -20.6847   18.7931 O   0  0  0  0  0  0  0  0  0  1  0  0
  -28.4311  -20.7360   19.4869 O   0  0  0  0  0  0  0  0  0  0  0  0
  -22.8839   -6.3289   20.9285 F   0  0  0  0  0  0  0  0  0  0  0  0
  -24.2659  -10.4046   18.9577 F   0  0  0  0  0  0  0  0  0  0  0  0
  1  2  1  0  0  0  0
  1  5  2  0  0  0  0
  2  6  2  0  0  0  0
  3 10  2  0  0  0  0
  3 18  1  0  0  0  0
  4 11  1  0  0  0  0
  4 18  2  0  0  0  0
  5 20  1  0  0  0  0
  6 22  1  0  0  0  0
  7 12  2  0  0  0  0
  7 21  1  0  0  0  0
  8  9  2  0  0  0  0
  8 24  1  0  0  0  0
  9 25  1  0  0  0  0
 10 26  1  0  0  0  0
 11 26  2  0  0  0  0
 12 27  1  0  0  0  0
 13 14  2  0  0  0  0
 13 28  1  0  0  0  0
 14 30  1  0  0  0  0
 15 23  1  0  0  0  0
 15 27  2  0  0  0  0
 16 24  2  0  0  0  0
 16 29  1  0  0  0  0
 17 30  2  0  0  0  0
 17 31  1  0  0  0  0
 18 32  1  0  0  0  0
 19 32  1  0  0  0  0
 19 33  2  0  0  0  0
 19 34  1  0  0  0  0
 20 22  2  0  0  0  0
 20 39  1  0  0  0  0
 21 23  2  0  0  0  0
 21 40  1  0  0  0  0
 22 48  1  0  0  0  0
 23 41  1  0  0  0  0
 24 68  1  0  0  0  0
 25 29  2  0  0  0  0
 25 77  1  0  0  0  0
 26 86  1  0  0  0  0
 27 87  1  0  0  0  0
 28 31  2  0  0  0  0
 28 86  1  0  0  0  0
 29 88  1  0  0  0  0
 30 89  1  0  0  0  0
 31 90  1  0  0  0  0
 32 71  2  0  0  0  0
 33 72  1  0  0  0  0
 33 75  1  0  0  0  0
 34 76  1  0  0  0  0
 34 81  2  0  0  0  0
 35 49  1  0  0  0  0
 35 78  1  0  0  0  0
 35 82  2  0  0  0  0
 36 65  1  0  0  0  0
 36 73  1  0  0  0  0
 36 83  2  0  0  0  0
 37 66  1  0  0  0  0
 37 79  1  0  0  0  0
 37 84  2  0  0  0  0
 38 74  1  0  0  0  0
 38 77  1  0  0  0  0
 38 85  2  0  0  0  0
 39 42  1  0  0  0  0
 40 49  1  0  0  0  0
 41 73  1  0  0  0  0
 42 44  1  0  0  0  0
 43 45  1  0  0  0  0
 43 46  1  0  0  0  0
 44 48  1  0  0  0  0
 45 50  1  0  0  0  0
 46 74  1  0  0  0  0
 47 50  1  0  0  0  0
 47 74  1  0  0  0  0
 48 78  1  0  0  0  0
 49 73  1  0  0  0  0
 50 72  1  0  0  0  0
 51 66  1  0  0  0  0
 52 67  1  0  0  0  0
 53 68  1  0  0  0  0
 54 68  1  0  0  0  0
 55 68  1  0  0  0  0
 56 69  1  0  0  0  0
 57 69  1  0  0  0  0
 58 69  1  0  0  0  0
 59 70  1  0  0  0  0
 60 70  1  0  0  0  0
 61 80  1  0  0  0  0
 62 67  1  0  0  0  0
 62 70  1  0  0  0  0
 63 67  1  0  0  0  0
 63 88  1  0  0  0  0
 64 70  1  0  0  0  0
 64 87  1  0  0  0  0
 65 69  1  0  0  0  0
 65 79  1  0  0  0  0
 66 80  1  0  0  0  0
 71 72  1  0  0  0  0
M  CHG  1  80   1
M  ISO  4  38 100  64 101  77 100  87 101
M  END
> <Batch ID>
0141

> <Smiles>
CNC(C)C(=O)NC(C(=O)N1Cc2cc([101O:1][101CH2:1]C(C)(C)CC(C)COc3cc(C(C)(C)C)ccc3[100NH:0][100C:0](=O)N3CCCC(n4nc(-c5ccc(Oc6ccc(F)cc6F)cc5)c(C(N)=O)c4N)C3)ccc2CC1C(=O)NC1CCCc2ccccc21)C(C)(C)C

> <Shape>
0.243

> <Color>
0.068

> <Negative vol penalty>
0.000

$$$$

  -OEChem-04052302543D

 90 98  0     1  0  0  0  0  0999 V2000
  -33.4352  -19.9535   18.5345 C   0  0  0  0  0  0  0  0  0  0  0  0
  -32.4153  -19.7267   19.4530 C   0  0  0  0  0  0  0  0  0  0  0  0
  -23.0342   -9.8673   19.9104 C   0  0  0  0  0  0  0  0  0  0  0  0
  -23.8178   -9.7931   22.1946 C   0  0  0  0  0  0  0  0  0  0  0  0
  -32.6229  -17.3907   23.6011 C   0  0  0  0  0  0  0  0  0  0  0  0
  -33.9873  -21.2276   18.4080 C   0  0  0  0  0  0  0  0  0  0  0  0
  -31.9474  -20.7737   20.2464 C   0  0  0  0  0  0  0  0  0  0  0  0
  -26.1964  -21.6604   22.1557 C   0  0  0  0  0  0  0  0  0  0  0  0
  -32.0282  -16.5384   22.6708 C   0  0  0  0  0  0  0  0  0  0  0  0
  -22.2964   -8.7034   20.1257 C   0  0  0  0  0  0  0  0  0  0  0  0
  -23.0799   -8.6291   22.4099 C   0  0  0  0  0  0  0  0  0  0  0  0
  -25.5534  -21.3758   23.3595 C   0  0  0  0  0  0  0  0  0  0  0  0
  -23.3748   -5.3307   21.7286 C   0  0  0  0  0  0  0  0  0  0  0  0
  -24.0007   -4.2819   22.4023 C   0  0  0  0  0  0  0  0  0  0  0  0
  -25.9552  -23.6358   24.1014 C   0  0  0  0  0  0  0  0  0  0  0  0
  -29.8482  -17.3581   23.3136 C   0  0  0  0  0  0  0  0  0  0  0  0
  -22.3166   -4.3875   24.1313 C   0  0  0  0  0  0  0  0  0  0  0  0
  -23.7950  -10.4122   20.9449 C   0  0  0  0  0  0  0  0  0  0  0  0
  -31.8304  -18.2267   24.3877 C   0  0  0  0  0  0  0  0  0  0  0  0
  -24.1282  -12.9412   20.9137 C   0  0  0  0  0  0  0  0  0  0  0  0
  -33.5193  -22.2929   19.1934 C   0  0  0  0  0  0  0  0  0  0  0  0
  -26.7342  -22.9338   21.9196 C   0  0  0  0  0  0  0  0  0  0  0  0
  -32.4946  -22.0629   20.1312 C   0  0  0  0  0  0  0  0  0  0  0  0
  -26.6023  -23.9347   22.8927 C   0  0  0  0  0  0  0  0  0  0  0  0
  -30.6408  -16.5221   22.5270 C   0  0  0  0  0  0  0  0  0  0  0  0
  -30.4430  -18.2104   24.2439 C   0  0  0  0  0  0  0  0  0  0  0  0
  -22.3192   -8.0843   21.3754 C   0  0  0  0  0  0  0  0  0  0  0  0
  -25.4352  -22.3627   24.3338 C   0  0  0  0  0  0  0  0  0  0  0  0
  -22.2198   -5.9080   22.2563 C   0  0  0  0  0  0  0  0  0  0  0  0
  -23.4716   -3.8103   23.6036 C   0  0  0  0  0  0  0  0  0  0  0  0
  -21.6907   -5.4363   23.4577 C   0  0  0  0  0  0  0  0  0  0  0  0
  -24.5579  -11.6142   20.7229 C   0  0  0  0  0  0  0  0  0  0  0  0
  -25.2143  -13.7070   20.5668 C   0  0  0  0  0  0  0  0  0  0  0  0
  -32.4827  -19.1058   25.3502 C   0  0  0  0  0  0  0  0  0  0  0  0
  -22.8606  -13.4371   21.3642 C   0  0  0  0  0  0  0  0  0  0  0  0
  -29.6518  -24.0704   21.3727 C   0  0  0  0  0  0  0  0  0  0  0  0
  -27.6425  -20.0688   25.9126 C   0  0  0  0  0  0  0  0  0  0  0  0
  -28.0548  -26.8525   20.8915 C   0  0  0  0  0  0  0  0  0  0  0  0
  -25.2699  -28.7343   21.4833 C   0  0  0  0  0  0  0  0  0  0  0  0
  -30.6789  -14.7636   20.7235 C   0  0  0  0  0  0  0  0  0  0  0  0
  -34.1795  -23.6418   19.0545 C   0  0  0  0  0  0  0  0  0  0  0  0
  -27.4013  -23.2325   20.6051 C   0  0  0  0  0  0  0  0  0  0  0  0
  -27.1446  -25.3237   22.6802 C   0  0  0  0  0  0  0  0  0  0  0  0
  -33.3705  -24.7819   19.6677 C   0  0  0  0  0  0  0  0  0  0  0  0
  -29.5471  -12.4342   18.2802 C   0  0  0  0  0  0  0  0  0  0  0  0
  -32.8731  -24.3964   21.0572 C   0  0  0  0  0  0  0  0  0  0  0  0
  -28.1128  -12.1224   18.7136 C   0  0  0  0  0  0  0  0  0  0  0  0
  -30.4739  -12.6220   19.4800 C   0  0  0  0  0  0  0  0  0  0  0  0
  -28.5793  -13.2892   20.9063 C   0  0  0  0  0  0  0  0  0  0  0  0
  -31.9433  -23.1787   20.9921 C   0  0  1  0  0  0  0  0  0  0  0  0
  -28.3642  -24.4136   20.6785 C   0  0  1  0  0  0  0  0  0  0  0  0
  -27.5948  -13.1559   19.7330 C   0  0  2  0  0  0  0  0  0  0  0  0
  -33.7778  -18.6385   25.9444 C   0  0  0  0  0  0  0  0  0  0  0  0
  -24.2690  -30.9814   20.9876 C   0  0  0  0  0  0  0  0  0  0  0  0
  -24.9482  -23.3585   27.5272 C   0  0  0  0  0  0  0  0  0  0  0  0
  -29.9218  -28.1328   22.9372 C   0  0  0  0  0  0  0  0  0  0  0  0
  -28.3145  -30.0451   23.1039 C   0  0  0  0  0  0  0  0  0  0  0  0
  -29.4404  -29.5500   20.9336 C   0  0  0  0  0  0  0  0  0  0  0  0
  -24.2864  -20.3568   27.8698 C   0  0  0  0  0  0  0  0  0  0  0  0
  -26.5617  -20.9715   28.6884 C   0  0  0  0  0  0  0  0  0  0  0  0
  -22.9549  -27.5251   20.0914 C   0  0  0  0  0  0  0  0  0  0  0  0
  -26.2574  -19.7728   26.4717 C   0  0  0  0  0  0  0  0  0  0  0  0
  -28.1999  -19.0664   24.9230 C   0  0  0  0  0  0  0  0  0  0  0  0
  -27.6233  -28.0030   21.7685 C   0  0  1  0  0  0  0  0  0  0  0  0
  -24.3740  -29.5287   20.5502 C   0  0  2  0  0  0  0  0  0  0  0  0
  -25.5755  -22.2343   26.7044 C   0  0  1  0  0  0  0  0  0  1  0  0
  -28.8164  -28.9061   22.1909 C   0  0  0  0  0  0  0  0  0  0  0  0
  -25.6818  -20.8563   27.4273 C   0  0  0  0  0  0  0  0  0  0  0  0
  -25.8186  -11.5379   20.2885 N   0  0  0  0  0  0  0  0  0  0  0  0
  -26.1904  -12.8265   20.2033 N   0  0  0  0  0  0  0  0  0  0  0  0
  -27.7940  -25.5649   21.3811 N   0  0  0  0  0  0  0  0  0  0  0  0
  -29.9211  -13.6183   20.4001 N   0  0  0  0  0  0  0  0  0  0  0  0
  -25.4200  -15.0409   20.5404 N   0  0  0  0  0  0  0  0  0  0  0  0
  -21.8549  -12.5129   21.6784 N   0  0  0  0  0  0  0  0  0  0  0  0
  -30.0373  -15.6560   21.5818 N   0  0  0  0  0  0  0  0  0  0  0  0
  -29.6372  -19.0329   25.0177 N   0  0  0  0  0  0  0  0  0  0  0  0
  -30.6283  -23.5708   20.5323 N   0  0  0  0  0  0  0  0  0  0  0  0
  -26.5738  -28.7034   21.0360 N   0  0  0  0  0  0  0  0  0  0  0  0
  -23.0031  -28.9447   20.5266 N   0  3  0  0  0  0  0  0  0  0  0  0
  -32.0465  -20.1982   25.7130 O   0  0  0  0  0  0  0  0  0  0  0  0
  -22.6213  -14.6640   21.4689 O   0  0  0  0  0  0  0  0  0  0  0  0
  -29.7525  -24.2472   22.5811 O   0  0  0  0  0  0  0  0  0  0  0  0
  -28.2716  -21.0649   26.2695 O   0  0  0  0  0  0  0  0  0  0  0  0
  -28.5966  -27.0877   19.8085 O   0  0  0  0  0  0  0  0  0  0  0  0
  -24.8553  -28.1981   22.5086 O   0  0  0  0  0  0  0  0  0  0  0  0
  -31.8026  -14.9530   20.2508 O   0  0  0  0  0  0  0  0  0  0  0  0
  -21.5991   -6.9486   21.5859 O   0  0  0  0  0  0  0  0  0  0  0  0
  -24.8086  -22.0874   25.5100 O   0  0  0  0  0  0  0  0  0  1  0  0
  -24.0719   -2.8021   24.2496 F   0  0  0  0  0  0  0  0  0  0  0  0
  -20.5807   -5.9861   23.9690 F   0  0  0  0  0  0  0  0  0  0  0  0
  1  2  1  0  0  0  0
  1  6  2  0  0  0  0
  2  7  2  0  0  0  0
  3 10  2  0  0  0  0
  3 18  1  0  0  0  0
  4 11  1  0  0  0  0
  4 18  2  0  0  0  0
  5  9  2  0  0  0  0
  5 19  1  0  0  0  0
  6 21  1  0  0  0  0
  7 23  1  0  0  0  0
  8 12  2  0  0  0  0
  8 22  1  0  0  0  0
  9 25  1  0  0  0  0
 10 27  1  0  0  0  0
 11 27  2  0  0  0  0
 12 28  1  0  0  0  0
 13 14  2  0  0  0  0
 13 29  1  0  0  0  0
 14 30  1  0  0  0  0
 15 24  1  0  0  0  0
 15 28  2  0  0  0  0
 16 25  2  0  0  0  0
 16 26  1  0  0  0  0
 17 30  2  0  0  0  0
 17 31  1  0  0  0  0
 18 32  1  0  0  0  0
 19 26  2  0  0  0  0
 19 34  1  0  0  0  0
 20 32  1  0  0  0  0
 20 33  2  0  0  0  0
 20 35  1  0  0  0  0
 21 23  2  0  0  0  0
 21 41  1  0  0  0  0
 22 24  2  0  0  0  0
 22 42  1  0  0  0  0
 23 50  1  0  0  0  0
 24 43  1  0  0  0  0
 25 75  1  0  0  0  0
 26 76  1  0  0  0  0
 27 87  1  0  0  0  0
 28 88  1  0  0  0  0
 29 31  2  0  0  0  0
 29 87  1  0  0  0  0
 30 89  1  0  0  0  0
 31 90  1  0  0  0  0
 32 69  2  0  0  0  0
 33 70  1  0  0  0  0
 33 73  1  0  0  0  0
 34 53  1  0  0  0  0
 34 80  2  0  0  0  0
 35 74  1  0  0  0  0
 35 81  2  0  0  0  0
 36 51  1  0  0  0  0
 36 77  1  0  0  0  0
 36 82  2  0  0  0  0
 37 62  1  0  0  0  0
 37 63  1  0  0  0  0
 37 83  2  0  0  0  0
 38 64  1  0  0  0  0
 38 71  1  0  0  0  0
 38 84  2  0  0  0  0
 39 65  1  0  0  0  0
 39 78  1  0  0  0  0
 39 85  2  0  0  0  0
 40 72  1  0  0  0  0
 40 75  1  0  0  0  0
 40 86  2  0  0  0  0
 41 44  1  0  0  0  0
 42 51  1  0  0  0  0
 43 71  1  0  0  0  0
 44 46  1  0  0  0  0
 45 47  1  0  0  0  0
 45 48  1  0  0  0  0
 46 50  1  0  0  0  0
 47 52  1  0  0  0  0
 48 72  1  0  0  0  0
 49 52  1  0  0  0  0
 49 72  1  0  0  0  0
 50 77  1  0  0  0  0
 51 71  1  0  0  0  0
 52 70  1  0  0  0  0
 54 65  1  0  0  0  0
 55 66  1  0  0  0  0
 56 67  1  0  0  0  0
 57 67  1  0  0  0  0
 58 67  1  0  0  0  0
 59 68  1  0  0  0  0
 60 68  1  0  0  0  0
 61 79  1  0  0  0  0
 62 68  1  0  0  0  0
 63 76  1  0  0  0  0
 64 67  1  0  0  0  0
 64 78  1  0  0  0  0
 65 79  1  0  0  0  0
 66 68  1  0  0  0  0
 66 88  1  0  0  0  0
 69 70  1  0  0  0  0
M  CHG  1  79   1
M  ISO  4  40 100  66 101  75 100  88 101
M  END
> <Batch ID>
0141

> <Smiles>
CNC(C)C(=O)NC(C(=O)N1Cc2cc([101O:1][101CH:1](C)C(C)(C)CC(=O)CNc3cc([100NH:0][100C:0](=O)N4CCCC(n5nc(-c6ccc(Oc7ccc(F)cc7F)cc6)c(C(N)=O)c5N)C4)ccc3C(C)=O)ccc2CC1C(=O)NC1CCCc2ccccc21)C(C)(C)C

> <Shape>
0.246

> <Color>
0.206

> <Negative vol penalty>
0.000

$$$$

  -OEChem-04052302543D

 88 97  0     1  0  0  0  0  0999 V2000
  -31.5862  -35.0120   22.9862 C   0  0  0  0  0  0  0  0  0  0  0  0
  -31.5135  -33.6837   23.3936 C   0  0  0  0  0  0  0  0  0  0  0  0
  -23.0768   -9.8658   19.9410 C   0  0  0  0  0  0  0  0  0  0  0  0
  -23.8354   -9.8744   22.2348 C   0  0  0  0  0  0  0  0  0  0  0  0
  -31.2757  -35.3545   21.6709 C   0  0  0  0  0  0  0  0  0  0  0  0
  -31.1290  -32.6974   22.4860 C   0  0  0  0  0  0  0  0  0  0  0  0
  -33.1622  -26.9257   22.2412 C   0  0  0  0  0  0  0  0  0  0  0  0
  -22.3333   -8.7124   20.1912 C   0  0  0  0  0  0  0  0  0  0  0  0
  -23.0919   -8.7210   22.4850 C   0  0  0  0  0  0  0  0  0  0  0  0
  -32.6352  -25.7247   22.7141 C   0  0  0  0  0  0  0  0  0  0  0  0
  -19.8638   -7.9221   23.0863 C   0  0  0  0  0  0  0  0  0  0  0  0
  -19.1062   -7.8825   24.2568 C   0  0  0  0  0  0  0  0  0  0  0  0
  -31.6875  -25.2909   20.5386 C   0  0  0  0  0  0  0  0  0  0  0  0
  -31.8466  -18.3640   24.2017 C   0  0  0  0  0  0  0  0  0  0  0  0
  -29.8745  -17.4604   23.1381 C   0  0  0  0  0  0  0  0  0  0  0  0
  -32.0595  -16.6128   22.5509 C   0  0  0  0  0  0  0  0  0  0  0  0
  -20.3481   -5.9460   24.9950 C   0  0  0  0  0  0  0  0  0  0  0  0
  -23.8279  -10.4467   20.9628 C   0  0  0  0  0  0  0  0  0  0  0  0
  -24.1687  -12.9720   20.8416 C   0  0  0  0  0  0  0  0  0  0  0  0
  -30.8966  -34.3706   20.7442 C   0  0  0  0  0  0  0  0  0  0  0  0
  -32.9462  -27.3242   20.9142 C   0  0  0  0  0  0  0  0  0  0  0  0
  -30.8118  -33.0273   21.1573 C   0  0  0  0  0  0  0  0  0  0  0  0
  -32.2150  -26.4962   20.0506 C   0  0  0  0  0  0  0  0  0  0  0  0
  -30.4610  -18.3454   24.0428 C   0  0  0  0  0  0  0  0  0  0  0  0
  -32.6459  -17.4978   23.4557 C   0  0  0  0  0  0  0  0  0  0  0  0
  -30.6738  -16.5941   22.3921 C   0  0  0  0  0  0  0  0  0  0  0  0
  -22.3408   -8.1400   21.4632 C   0  0  0  0  0  0  0  0  0  0  0  0
  -31.8953  -24.9085   21.8636 C   0  0  0  0  0  0  0  0  0  0  0  0
  -20.8635   -6.9736   22.8700 C   0  0  0  0  0  0  0  0  0  0  0  0
  -19.3484   -6.8944   25.2112 C   0  0  0  0  0  0  0  0  0  0  0  0
  -21.1056   -5.9856   23.8244 C   0  0  0  0  0  0  0  0  0  0  0  0
  -24.5966  -11.6378   20.7048 C   0  0  0  0  0  0  0  0  0  0  0  0
  -25.2607  -13.7217   20.4785 C   0  0  0  0  0  0  0  0  0  0  0  0
  -29.5218  -22.6641   23.3498 C   0  0  0  0  0  0  0  0  0  0  0  0
  -30.1262  -23.7544   22.8682 C   0  0  0  0  0  0  0  0  0  1  0  0
  -22.8977  -13.4874   21.2595 C   0  0  0  0  0  0  0  0  0  0  0  0
  -31.5021  -29.7882   19.5188 C   0  0  0  0  0  0  0  0  0  0  0  0
  -32.7251  -28.4741   16.8170 C   0  0  0  0  0  0  0  0  0  0  0  0
  -33.8940  -25.6937   15.2200 C   0  0  0  0  0  0  0  0  0  0  0  0
  -30.7263  -14.7699   20.6555 C   0  0  0  0  0  0  0  0  0  0  0  0
  -30.5246  -34.7954   19.3457 C   0  0  0  0  0  0  0  0  0  0  0  0
  -33.5441  -28.6098   20.4121 C   0  0  0  0  0  0  0  0  0  0  0  0
  -31.9718  -26.8688   18.6117 C   0  0  0  0  0  0  0  0  0  0  0  0
  -28.1515  -22.6254   23.9579 C   0  0  0  0  0  0  0  0  0  0  0  0
  -30.1329  -21.3009   23.4204 C   0  0  0  0  0  0  0  0  0  0  0  0
  -30.4882  -33.6408   18.3478 C   0  0  0  0  0  0  0  0  0  0  0  0
  -29.6142  -12.3542   18.2880 C   0  0  0  0  0  0  0  0  0  0  0  0
  -29.7308  -32.4530   18.9331 C   0  0  0  0  0  0  0  0  0  0  0  0
  -28.1745  -12.0623   18.7170 C   0  0  0  0  0  0  0  0  0  0  0  0
  -30.5286  -12.5841   19.4900 C   0  0  0  0  0  0  0  0  0  0  0  0
  -28.6206  -13.3085   20.8698 C   0  0  0  0  0  0  0  0  0  0  0  0
  -28.1798  -21.3668   24.8148 C   0  0  0  0  0  0  0  0  0  0  0  0
  -30.4229  -31.9254   20.1957 C   0  0  1  0  0  0  0  0  0  0  0  0
  -32.8269  -29.1629   19.1844 C   0  0  1  0  0  0  0  0  0  0  0  0
  -27.6485  -13.1341   19.6916 C   0  0  2  0  0  0  0  0  0  0  0  0
  -34.7860  -24.9233   13.0046 C   0  0  0  0  0  0  0  0  0  0  0  0
  -29.8989  -28.5141   15.6678 C   0  0  0  0  0  0  0  0  0  0  0  0
  -30.6672  -26.9089   13.9067 C   0  0  0  0  0  0  0  0  0  0  0  0
  -31.6905  -29.1791   14.0546 C   0  0  0  0  0  0  0  0  0  0  0  0
  -36.4836  -24.8951   16.4095 C   0  0  0  0  0  0  0  0  0  0  0  0
  -29.6014  -19.2773   24.8451 C   0  0  0  0  0  0  0  0  0  0  0  0
  -32.2473  -27.4515   15.8145 C   0  0  1  0  0  0  0  0  0  0  0  0
  -35.1386  -25.4616   14.3825 C   0  0  2  0  0  0  0  0  0  0  0  0
  -34.1274  -17.5177   23.6258 C   0  0  0  0  0  0  0  0  0  0  0  0
  -31.1287  -28.0070   14.8885 C   0  0  0  0  0  0  0  0  0  0  0  0
  -25.8617  -11.5423   20.2873 N   0  0  0  0  0  0  0  0  0  0  0  0
  -26.2381  -12.8260   20.1584 N   0  0  0  0  0  0  0  0  0  0  0  0
  -32.5715  -28.1386   18.1697 N   0  0  0  0  0  0  0  0  0  0  0  0
  -29.9687  -13.6152   20.3665 N   0  0  0  0  0  0  0  0  0  0  0  0
  -25.4705  -15.0532   20.4048 N   0  0  0  0  0  0  0  0  0  0  0  0
  -21.8860  -12.5780   21.5968 N   0  0  0  0  0  0  0  0  0  0  0  0
  -30.0781  -15.6951   21.4731 N   0  0  0  0  0  0  0  0  0  0  0  0
  -31.5788  -31.1292   19.8432 N   0  0  0  0  0  0  0  0  0  0  0  0
  -33.4354  -26.9891   15.1053 N   0  0  0  0  0  0  0  0  0  0  0  0
  -29.0735  -20.4209   24.0447 N   0  3  2  0  0  0  0  0  0  0  0  0
  -36.0392  -24.4820   15.0535 N   0  3  0  0  0  0  0  0  0  0  0  0
  -22.6609  -14.7180   21.3161 O   0  0  0  0  0  0  0  0  0  0  0  0
  -30.4855  -29.1049   19.4836 O   0  0  0  0  0  0  0  0  0  0  0  0
  -33.2231  -29.5285   16.4147 O   0  0  0  0  0  0  0  0  0  0  0  0
  -33.3778  -24.8130   15.9044 O   0  0  0  0  0  0  0  0  0  0  0  0
  -31.8556  -14.9388   20.1884 O   0  0  0  0  0  0  0  0  0  0  0  0
  -21.6152   -7.0148   21.7078 O   0  0  0  0  0  0  0  0  0  0  0  0
  -31.3792  -23.7360   22.3229 O   0  0  0  0  0  0  0  0  0  1  0  0
  -18.6219   -6.8574   26.3359 F   0  0  0  0  0  0  0  0  0  0  0  0
  -22.0655   -5.0724   23.6228 F   0  0  0  0  0  0  0  0  0  0  0  0
  -34.5609  -18.4321   24.5433 F   0  0  0  0  0  0  0  0  0  0  0  0
  -34.6463  -16.3241   24.0402 F   0  0  0  0  0  0  0  0  0  0  0  0
  -34.7848  -17.8207   22.4686 F   0  0  0  0  0  0  0  0  0  0  0  0
  1  2  1  0  0  0  0
  1  5  2  0  0  0  0
  2  6  2  0  0  0  0
  3  8  2  0  0  0  0
  3 18  1  0  0  0  0
  4  9  1  0  0  0  0
  4 18  2  0  0  0  0
  5 20  1  0  0  0  0
  6 22  1  0  0  0  0
  7 10  2  0  0  0  0
  7 21  1  0  0  0  0
  8 27  1  0  0  0  0
  9 27  2  0  0  0  0
 10 28  1  0  0  0  0
 11 12  2  0  0  0  0
 11 29  1  0  0  0  0
 12 30  1  0  0  0  0
 13 23  1  0  0  0  0
 13 28  2  0  0  0  0
 14 24  2  0  0  0  0
 14 25  1  0  0  0  0
 15 24  1  0  0  0  0
 15 26  2  0  0  0  0
 16 25  2  0  0  0  0
 16 26  1  0  0  0  0
 17 30  2  0  0  0  0
 17 31  1  0  0  0  0
 18 32  1  0  0  0  0
 19 32  1  0  0  0  0
 19 33  2  0  0  0  0
 19 36  1  0  0  0  0
 20 22  2  0  0  0  0
 20 41  1  0  0  0  0
 21 23  2  0  0  0  0
 21 42  1  0  0  0  0
 22 53  1  0  0  0  0
 23 43  1  0  0  0  0
 24 61  1  0  0  0  0
 25 64  1  0  0  0  0
 26 72  1  0  0  0  0
 27 82  1  0  0  0  0
 28 83  1  0  0  0  0
 29 31  2  0  0  0  0
 29 82  1  0  0  0  0
 30 84  1  0  0  0  0
 31 85  1  0  0  0  0
 32 66  2  0  0  0  0
 33 67  1  0  0  0  0
 33 70  1  0  0  0  0
 34 35  2  0  0  0  0
 34 44  1  0  0  0  0
 34 45  1  0  0  0  0
 35 83  1  0  0  0  0
 36 71  1  0  0  0  0
 36 77  2  0  0  0  0
 37 54  1  0  0  0  0
 37 73  1  0  0  0  0
 37 78  2  0  0  0  0
 38 62  1  0  0  0  0
 38 68  1  0  0  0  0
 38 79  2  0  0  0  0
 39 63  1  0  0  0  0
 39 74  1  0  0  0  0
 39 80  2  0  0  0  0
 40 69  1  0  0  0  0
 40 72  1  0  0  0  0
 40 81  2  0  0  0  0
 41 46  1  0  0  0  0
 42 54  1  0  0  0  0
 43 68  1  0  0  0  0
 44 52  1  0  0  0  0
 45 75  1  0  0  0  0
 46 48  1  0  0  0  0
 47 49  1  0  0  0  0
 47 50  1  0  0  0  0
 48 53  1  0  0  0  0
 49 55  1  0  0  0  0
 50 69  1  0  0  0  0
 51 55  1  0  0  0  0
 51 69  1  0  0  0  0
 52 75  1  0  0  0  0
 53 73  1  0  0  0  0
 54 68  1  0  0  0  0
 55 67  1  0  0  0  0
 56 63  1  0  0  0  0
 57 65  1  0  0  0  0
 58 65  1  0  0  0  0
 59 65  1  0  0  0  0
 60 76  1  0  0  0  0
 61 75  1  0  0  0  0
 62 65  1  0  0  0  0
 62 74  1  0  0  0  0
 63 76  1  0  0  0  0
 64 86  1  0  0  0  0
 64 87  1  0  0  0  0
 64 88  1  0  0  0  0
 66 67  1  0  0  0  0
M  CHG  2  75   1  76   1
M  ISO  4  35 101  40 100  72 100  83 101
M  END
> <Batch ID>
0141

> <Smiles>
CNC(C)C(=O)NC(C(=O)N1Cc2cc([101O:1][101CH:1]=C3CCN(Cc4cc([100NH:0][100C:0](=O)N5CCCC(n6nc(-c7ccc(Oc8ccc(F)cc8F)cc7)c(C(N)=O)c6N)C5)cc(C(F)(F)F)c4)C3)ccc2CC1C(=O)NC1CCCc2ccccc21)C(C)(C)C

> <Shape>
0.180

> <Color>
0.188

> <Negative vol penalty>
0.000

$$$$

  -OEChem-04052302543D

 88 96  0     1  0  0  0  0  0999 V2000
  -30.4894  -16.9450   17.3068 C   0  0  0  0  0  0  0  0  0  0  0  0
  -29.4792  -17.4935   18.0887 C   0  0  0  0  0  0  0  0  0  0  0  0
  -23.0419   -9.8557   19.9621 C   0  0  0  0  0  0  0  0  0  0  0  0
  -23.7908   -9.8780   22.2590 C   0  0  0  0  0  0  0  0  0  0  0  0
  -31.3690  -17.7821   16.6235 C   0  0  0  0  0  0  0  0  0  0  0  0
  -29.3407  -18.8791   18.1781 C   0  0  0  0  0  0  0  0  0  0  0  0
  -25.3915  -20.5808   20.5679 C   0  0  0  0  0  0  0  0  0  0  0  0
  -22.2762   -8.7193   20.2228 C   0  0  0  0  0  0  0  0  0  0  0  0
  -23.0251   -8.7417   22.5197 C   0  0  0  0  0  0  0  0  0  0  0  0
  -25.2551  -20.4983   21.9530 C   0  0  0  0  0  0  0  0  0  0  0  0
  -19.3072   -7.9942   21.6693 C   0  0  0  0  0  0  0  0  0  0  0  0
  -18.0020   -7.9653   21.1781 C   0  0  0  0  0  0  0  0  0  0  0  0
  -31.8847  -17.4163   21.6852 C   0  0  0  0  0  0  0  0  0  0  0  0
  -25.7975  -22.8414   22.1399 C   0  0  0  0  0  0  0  0  0  0  0  0
  -18.5329   -5.9959   19.8832 C   0  0  0  0  0  0  0  0  0  0  0  0
  -23.7992  -10.4350   20.9802 C   0  0  0  0  0  0  0  0  0  0  0  0
  -31.8403  -18.6477   22.3816 C   0  0  0  0  0  0  0  0  0  0  0  0
  -24.1870  -12.9519   20.8302 C   0  0  0  0  0  0  0  0  0  0  0  0
  -31.2482  -19.1785   16.7150 C   0  0  0  0  0  0  0  0  0  0  0  0
  -25.7431  -21.7937   19.9583 C   0  0  0  0  0  0  0  0  0  0  0  0
  -30.2036  -19.7406   17.4769 C   0  0  0  0  0  0  0  0  0  0  0  0
  -25.9352  -22.9373   20.7467 C   0  0  0  0  0  0  0  0  0  0  0  0
  -22.2677   -8.1623   21.5016 C   0  0  0  0  0  0  0  0  0  0  0  0
  -25.4610  -21.6280   22.7394 C   0  0  0  0  0  0  0  0  0  0  0  0
  -20.2253   -7.0240   21.2673 C   0  0  0  0  0  0  0  0  0  0  0  0
  -17.6149   -6.9661   20.2851 C   0  0  0  0  0  0  0  0  0  0  0  0
  -19.8382   -6.0249   20.3743 C   0  0  0  0  0  0  0  0  0  0  0  0
  -24.5909  -11.6086   20.7114 C   0  0  0  0  0  0  0  0  0  0  0  0
  -25.2942  -13.6770   20.4630 C   0  0  0  0  0  0  0  0  0  0  0  0
  -30.6677  -16.8122   21.8996 C   0  0  0  0  0  0  0  0  0  0  0  0
  -30.5993  -18.7083   22.9717 C   0  0  0  0  0  0  0  0  0  0  0  0
  -32.8612  -19.6503   22.4743 C   0  0  0  0  0  0  0  0  0  0  0  0
  -22.9241  -13.4957   21.2363 C   0  0  0  0  0  0  0  0  0  0  0  0
  -28.1930  -22.7908   18.1954 C   0  0  0  0  0  0  0  0  0  0  0  0
  -28.4841  -20.4633   25.4901 C   0  0  0  0  0  0  0  0  0  0  0  0
  -26.4033  -25.4833   17.9312 C   0  0  0  0  0  0  0  0  0  0  0  0
  -23.9523  -27.4719   19.2292 C   0  0  0  0  0  0  0  0  0  0  0  0
  -30.7775  -14.6264   20.6519 C   0  0  0  0  0  0  0  0  0  0  0  0
  -32.2225  -20.0376   15.9483 C   0  0  0  0  0  0  0  0  0  0  0  0
  -25.8601  -21.8725   18.4608 C   0  0  0  0  0  0  0  0  0  0  0  0
  -26.2943  -24.2680   20.1395 C   0  0  0  0  0  0  0  0  0  0  0  0
  -32.2738  -21.4754   16.4549 C   0  0  0  0  0  0  0  0  0  0  0  0
  -29.6310  -12.2034   18.3085 C   0  0  0  0  0  0  0  0  0  0  0  0
  -30.8640  -22.0337   16.5779 C   0  0  0  0  0  0  0  0  0  0  0  0
  -28.1843  -11.9432   18.7345 C   0  0  0  0  0  0  0  0  0  0  0  0
  -30.5444  -12.4308   19.5117 C   0  0  0  0  0  0  0  0  0  0  0  0
  -28.6443  -13.2067   20.8743 C   0  0  0  0  0  0  0  0  0  0  0  0
  -30.0526  -21.2449   17.6135 C   0  0  1  0  0  0  0  0  0  0  0  0
  -26.7252  -23.0374   17.9895 C   0  0  1  0  0  0  0  0  0  0  0  0
  -27.6741  -13.0362   19.6939 C   0  0  2  0  0  0  0  0  0  0  0  0
  -34.1673  -19.4078   21.7549 C   0  0  0  0  0  0  0  0  0  0  0  0
  -22.7350  -29.6259   18.8098 C   0  0  0  0  0  0  0  0  0  0  0  0
  -28.8342  -27.0451   18.9117 C   0  0  0  0  0  0  0  0  0  0  0  0
  -27.3160  -28.9811   19.3759 C   0  0  0  0  0  0  0  0  0  0  0  0
  -27.5780  -28.1349   17.0439 C   0  0  0  0  0  0  0  0  0  0  0  0
  -27.2763  -22.8279   27.0692 C   0  0  0  0  0  0  0  0  0  0  0  0
  -25.0917  -21.6240   27.0185 C   0  0  0  0  0  0  0  0  0  0  0  0
  -21.3452  -26.0894   19.0035 C   0  0  0  0  0  0  0  0  0  0  0  0
  -27.1208  -20.4517   26.1666 C   0  0  0  0  0  0  0  0  0  0  0  0
  -28.6587  -19.5416   24.3005 C   0  0  0  0  0  0  0  0  0  0  0  0
  -26.1317  -22.4331   24.8744 C   0  0  0  0  0  0  0  0  0  1  0  0
  -26.2748  -26.7634   18.7210 C   0  0  1  0  0  0  0  0  0  0  0  0
  -22.7380  -28.1211   18.5900 C   0  0  2  0  0  0  0  0  0  0  0  0
  -27.4959  -27.7057   18.5250 C   0  0  0  0  0  0  0  0  0  0  0  0
  -26.4236  -21.8304   26.2647 C   0  0  0  0  0  0  0  0  0  0  0  0
  -25.8558  -11.4848   20.3007 N   0  0  0  0  0  0  0  0  0  0  0  0
  -26.2563  -12.7597   20.1581 N   0  0  0  0  0  0  0  0  0  0  0  0
  -26.4033  -24.2926   18.6715 N   0  0  0  0  0  0  0  0  0  0  0  0
  -29.9999  -13.4825   20.3733 N   0  0  0  0  0  0  0  0  0  0  0  0
  -25.5289  -15.0035   20.3744 N   0  0  0  0  0  0  0  0  0  0  0  0
  -21.8944  -12.6092   21.5799 N   0  0  0  0  0  0  0  0  0  0  0  0
  -30.1430  -15.5732   21.4555 N   0  0  0  0  0  0  0  0  0  0  0  0
  -29.9933  -19.6667   23.7706 N   0  0  0  0  0  0  0  0  0  0  0  0
  -28.6704  -21.6658   17.5504 N   0  0  0  0  0  0  0  0  0  0  0  0
  -24.9970  -27.3534   18.3371 N   0  0  0  0  0  0  0  0  0  0  0  0
  -21.4851  -27.5591   19.1691 N   0  3  0  0  0  0  0  0  0  0  0  0
  -32.7751  -20.7192   23.1061 O   0  0  0  0  0  0  0  0  0  0  0  0
  -22.7097  -14.7310   21.2770 O   0  0  0  0  0  0  0  0  0  0  0  0
  -28.8445  -23.5647   18.8869 O   0  0  0  0  0  0  0  0  0  0  0  0
  -29.3928  -21.1805   25.9093 O   0  0  0  0  0  0  0  0  0  0  0  0
  -26.4929  -25.5375   16.7021 O   0  0  0  0  0  0  0  0  0  0  0  0
  -23.9733  -27.1098   20.4034 O   0  0  0  0  0  0  0  0  0  0  0  0
  -31.9117  -14.7689   20.1878 O   0  0  0  0  0  0  0  0  0  0  0  0
  -29.8784  -17.5933   22.6827 O   0  0  0  0  0  0  0  0  0  0  0  0
  -21.5205   -7.0536   21.7564 O   0  0  0  0  0  0  0  0  0  0  0  0
  -25.3292  -21.5501   24.0916 O   0  0  0  0  0  0  0  0  0  1  0  0
  -16.3610   -6.9376   19.8147 F   0  0  0  0  0  0  0  0  0  0  0  0
  -20.7154   -5.0894   19.9854 F   0  0  0  0  0  0  0  0  0  0  0  0
  1  2  1  0  0  0  0
  1  5  2  0  0  0  0
  2  6  2  0  0  0  0
  3  8  2  0  0  0  0
  3 16  1  0  0  0  0
  4  9  1  0  0  0  0
  4 16  2  0  0  0  0
  5 19  1  0  0  0  0
  6 21  1  0  0  0  0
  7 10  2  0  0  0  0
  7 20  1  0  0  0  0
  8 23  1  0  0  0  0
  9 23  2  0  0  0  0
 10 24  1  0  0  0  0
 11 12  2  0  0  0  0
 11 25  1  0  0  0  0
 12 26  1  0  0  0  0
 13 17  1  0  0  0  0
 13 30  2  0  0  0  0
 14 22  1  0  0  0  0
 14 24  2  0  0  0  0
 15 26  2  0  0  0  0
 15 27  1  0  0  0  0
 16 28  1  0  0  0  0
 17 31  2  0  0  0  0
 17 32  1  0  0  0  0
 18 28  1  0  0  0  0
 18 29  2  0  0  0  0
 18 33  1  0  0  0  0
 19 21  2  0  0  0  0
 19 39  1  0  0  0  0
 20 22  2  0  0  0  0
 20 40  1  0  0  0  0
 21 48  1  0  0  0  0
 22 41  1  0  0  0  0
 23 85  1  0  0  0  0
 24 86  1  0  0  0  0
 25 27  2  0  0  0  0
 25 85  1  0  0  0  0
 26 87  1  0  0  0  0
 27 88  1  0  0  0  0
 28 66  2  0  0  0  0
 29 67  1  0  0  0  0
 29 70  1  0  0  0  0
 30 72  1  0  0  0  0
 30 84  1  0  0  0  0
 31 73  1  0  0  0  0
 31 84  1  0  0  0  0
 32 51  1  0  0  0  0
 32 77  2  0  0  0  0
 33 71  1  0  0  0  0
 33 78  2  0  0  0  0
 34 49  1  0  0  0  0
 34 74  1  0  0  0  0
 34 79  2  0  0  0  0
 35 59  1  0  0  0  0
 35 60  1  0  0  0  0
 35 80  2  0  0  0  0
 36 62  1  0  0  0  0
 36 68  1  0  0  0  0
 36 81  2  0  0  0  0
 37 63  1  0  0  0  0
 37 75  1  0  0  0  0
 37 82  2  0  0  0  0
 38 69  1  0  0  0  0
 38 72  1  0  0  0  0
 38 83  2  0  0  0  0
 39 42  1  0  0  0  0
 40 49  1  0  0  0  0
 41 68  1  0  0  0  0
 42 44  1  0  0  0  0
 43 45  1  0  0  0  0
 43 46  1  0  0  0  0
 44 48  1  0  0  0  0
 45 50  1  0  0  0  0
 46 69  1  0  0  0  0
 47 50  1  0  0  0  0
 47 69  1  0  0  0  0
 48 74  1  0  0  0  0
 49 68  1  0  0  0  0
 50 67  1  0  0  0  0
 52 63  1  0  0  0  0
 53 64  1  0  0  0  0
 54 64  1  0  0  0  0
 55 64  1  0  0  0  0
 56 65  1  0  0  0  0
 57 65  1  0  0  0  0
 58 76  1  0  0  0  0
 59 65  1  0  0  0  0
 60 73  1  0  0  0  0
 61 65  1  0  0  0  0
 61 86  1  0  0  0  0
 62 64  1  0  0  0  0
 62 75  1  0  0  0  0
 63 76  1  0  0  0  0
 66 67  1  0  0  0  0
M  CHG  1  76   1
M  ISO  4  38 100  61 101  72 100  86 101
M  END
> <Batch ID>
0141

> <Smiles>
CNC(C)C(=O)NC(C(=O)N1Cc2cc([101O:1][101CH2:1]C(C)(C)CC(=O)CNc3oc([100NH:0][100C:0](=O)N4CCCC(n5nc(-c6ccc(Oc7ccc(F)cc7F)cc6)c(C(N)=O)c5N)C4)cc3C(C)=O)ccc2CC1C(=O)NC1CCCc2ccccc21)C(C)(C)C

> <Shape>
0.212

> <Color>
0.195

> <Negative vol penalty>
0.000

$$$$

  -OEChem-04052302543D

 95104  0     1  0  0  0  0  0999 V2000
  -27.1940  -37.3623   19.5487 C   0  0  0  0  0  0  0  0  0  0  0  0
  -27.7340  -36.0867   19.4195 C   0  0  0  0  0  0  0  0  0  0  0  0
  -23.5458  -10.0985   22.2079 C   0  0  0  0  0  0  0  0  0  0  0  0
  -24.5068  -11.5132   23.9144 C   0  0  0  0  0  0  0  0  0  0  0  0
  -26.2373  -37.6169   20.5304 C   0  0  0  0  0  0  0  0  0  0  0  0
  -27.3183  -35.0651   20.2726 C   0  0  0  0  0  0  0  0  0  0  0  0
  -26.7073  -29.1312   18.8865 C   0  0  0  0  0  0  0  0  0  0  0  0
  -23.0239   -9.2624   23.1949 C   0  0  0  0  0  0  0  0  0  0  0  0
  -23.9848  -10.6771   24.9014 C   0  0  0  0  0  0  0  0  0  0  0  0
  -27.5360  -28.0294   19.0938 C   0  0  0  0  0  0  0  0  0  0  0  0
  -20.3917   -9.2553   25.3173 C   0  0  0  0  0  0  0  0  0  0  0  0
  -19.0696   -8.8337   25.1771 C   0  0  0  0  0  0  0  0  0  0  0  0
  -31.2027  -20.1001   19.2768 C   0  0  0  0  0  0  0  0  0  0  0  0
  -29.3093  -18.5995   19.2722 C   0  0  0  0  0  0  0  0  0  0  0  0
  -26.3161  -27.4980   21.1059 C   0  0  0  0  0  0  0  0  0  0  0  0
  -31.5368  -17.7349   18.9150 C   0  0  0  0  0  0  0  0  0  0  0  0
  -19.8077   -6.5337   25.1325 C   0  0  0  0  0  0  0  0  0  0  0  0
  -24.2873  -11.2239   22.5677 C   0  0  0  0  0  0  0  0  0  0  0  0
  -29.8291  -19.8881   19.3943 C   0  0  0  0  0  0  0  0  0  0  0  0
  -24.2058  -13.2097   20.9685 C   0  0  0  0  0  0  0  0  0  0  0  0
  -25.8025  -36.5955   21.3897 C   0  0  0  0  0  0  0  0  0  0  0  0
  -25.6819  -29.4315   19.7947 C   0  0  0  0  0  0  0  0  0  0  0  0
  -26.3557  -35.3065   21.2676 C   0  0  0  0  0  0  0  0  0  0  0  0
  -25.4741  -28.6027   20.9065 C   0  0  0  0  0  0  0  0  0  0  0  0
  -32.0566  -19.0235   19.0371 C   0  0  0  0  0  0  0  0  0  0  0  0
  -30.1632  -17.5228   19.0325 C   0  0  0  0  0  0  0  0  0  0  0  0
  -23.2434   -9.5517   24.5416 C   0  0  0  0  0  0  0  0  0  0  0  0
  -27.3423  -27.2143   20.2052 C   0  0  0  0  0  0  0  0  0  0  0  0
  -21.4220   -8.3161   25.3650 C   0  0  0  0  0  0  0  0  0  0  0  0
  -18.7775   -7.4729   25.0847 C   0  0  0  0  0  0  0  0  0  0  0  0
  -21.1299   -6.9553   25.2727 C   0  0  0  0  0  0  0  0  0  0  0  0
  -24.8272  -12.0876   21.5486 C   0  0  0  0  0  0  0  0  0  0  0  0
  -25.1242  -13.6806   20.0622 C   0  0  0  0  0  0  0  0  0  0  0  0
  -28.9273  -21.0260   19.6480 C   0  0  0  0  0  0  0  0  0  0  0  0
  -22.9140  -13.7759   21.2260 C   0  0  0  0  0  0  0  0  0  0  0  0
  -28.2467  -23.7331   20.6515 C   0  0  0  0  0  0  0  0  0  0  0  0
  -25.0222  -31.8880   21.7011 C   0  0  0  0  0  0  0  0  0  0  0  0
  -34.2764  -19.1534   20.2419 C   0  0  0  0  0  0  0  0  0  0  0  0
  -22.2803  -30.2377   22.2312 C   0  0  0  0  0  0  0  0  0  0  0  0
  -20.6608  -27.2337   22.2316 C   0  0  0  0  0  0  0  0  0  0  0  0
  -30.3430  -15.0359   18.6729 C   0  0  0  0  0  0  0  0  0  0  0  0
  -24.8008  -36.9301   22.4665 C   0  0  0  0  0  0  0  0  0  0  0  0
  -24.7796  -30.6082   19.5425 C   0  0  0  0  0  0  0  0  0  0  0  0
  -24.3745  -28.8702   21.9004 C   0  0  0  0  0  0  0  0  0  0  0  0
  -24.1395  -35.7016   23.0861 C   0  0  0  0  0  0  0  0  0  0  0  0
  -29.4138  -11.6146   18.3436 C   0  0  0  0  0  0  0  0  0  0  0  0
  -28.3331  -21.1028   23.2009 C   0  0  0  0  0  0  0  0  0  0  0  0
  -25.1862  -34.6439   23.4215 C   0  0  0  0  0  0  0  0  0  0  0  0
  -28.0866  -11.5250   19.1004 C   0  0  0  0  0  0  0  0  0  0  0  0
  -27.9535  -22.5304   22.8233 C   0  0  0  0  0  0  0  0  0  0  0  0
  -29.2186  -20.6501   22.0501 C   0  0  0  0  0  0  0  0  0  0  0  0
  -30.3890  -12.5759   19.0209 C   0  0  0  0  0  0  0  0  0  0  0  0
  -28.5287  -13.8293   20.0395 C   0  0  0  0  0  0  0  0  0  0  0  0
  -25.9121  -34.1661   22.1580 C   0  0  1  0  0  0  0  0  0  0  0  0
  -24.0934  -31.1167   20.8066 C   0  0  1  0  0  0  0  0  0  0  0  0
  -27.4900  -12.9224   19.3594 C   0  0  2  0  0  0  0  0  0  0  0  0
  -27.7539  -22.4781   21.2999 C   0  0  1  0  0  0  0  0  0  0  0  0
  -26.3196  -22.1580   20.9010 C   0  0  0  0  0  0  0  0  0  0  0  0
  -18.4357  -26.1954   22.7496 C   0  0  0  0  0  0  0  0  0  0  0  0
  -36.1858  -20.6888   19.6661 C   0  0  0  0  0  0  0  0  0  0  0  0
  -36.4640  -18.2317   19.3501 C   0  0  0  0  0  0  0  0  0  0  0  0
  -36.3311  -19.1997   21.6699 C   0  0  0  0  0  0  0  0  0  0  0  0
  -22.8840  -30.4384   25.2154 C   0  0  0  0  0  0  0  0  0  0  0  0
  -21.2050  -28.6228   25.6062 C   0  0  0  0  0  0  0  0  0  0  0  0
  -20.4835  -30.7932   24.6105 C   0  0  0  0  0  0  0  0  0  0  0  0
  -20.3143  -26.3058   19.4428 C   0  0  0  0  0  0  0  0  0  0  0  0
  -33.5255  -19.2501   18.9124 C   0  0  0  0  0  0  0  0  0  0  0  0
  -27.5826  -25.0205   21.0914 C   0  0  0  0  0  0  0  0  0  1  0  0
  -21.8422  -29.1805   23.2158 C   0  0  1  0  0  0  0  0  0  0  0  0
  -19.3124  -26.8163   21.6731 C   0  0  2  0  0  0  0  0  0  0  0  0
  -35.8129  -19.3064   20.2303 C   0  0  0  0  0  0  0  0  0  0  0  0
  -21.6257  -29.7546   24.6445 C   0  0  0  0  0  0  0  0  0  0  0  0
  -26.0461  -11.8592   21.0523 N   0  0  0  0  0  0  0  0  0  0  0  0
  -26.1979  -12.8442   20.1508 N   0  0  0  0  0  0  0  0  0  0  0  0
  -28.6507  -21.3710   20.8961 N   0  0  0  0  0  0  0  0  0  0  0  0
  -23.5228  -30.0362   21.6135 N   0  0  0  0  0  0  0  0  0  0  0  0
  -29.7564  -13.8801   19.2303 N   0  0  0  0  0  0  0  0  0  0  0  0
  -25.1099  -14.7242   19.2061 N   0  0  0  0  0  0  0  0  0  0  0  0
  -22.0977  -13.1673   22.1891 N   0  0  0  0  0  0  0  0  0  0  0  0
  -29.6351  -16.2136   18.9106 N   0  0  0  0  0  0  0  0  0  0  0  0
  -25.0825  -33.2392   21.4185 N   0  0  0  0  0  0  0  0  0  0  0  0
  -20.6592  -28.5509   22.6392 N   0  0  0  0  0  0  0  0  0  0  0  0
  -28.4071  -21.6893   18.6196 N   0  3  0  0  0  0  0  0  0  0  0  0
  -19.4908  -25.8196   20.5796 N   0  3  0  0  0  0  0  0  0  0  0  0
  -22.4893  -14.7817   20.6082 O   0  0  0  0  0  0  0  0  0  0  0  0
  -29.1423  -23.7078   19.8086 O   0  0  0  0  0  0  0  0  0  0  0  0
  -25.6375  -31.3008   22.5833 O   0  0  0  0  0  0  0  0  0  0  0  0
  -33.6652  -18.9426   21.2926 O   0  0  0  0  0  0  0  0  0  0  0  0
  -21.5440  -31.2030   22.0128 O   0  0  0  0  0  0  0  0  0  0  0  0
  -21.6186  -26.4669   22.3029 O   0  0  0  0  0  0  0  0  0  0  0  0
  -31.3813  -14.9810   18.0088 O   0  0  0  0  0  0  0  0  0  0  0  0
  -22.7340   -8.7362   25.5050 O   0  0  0  0  0  0  0  0  0  0  0  0
  -28.1502  -26.1386   20.4102 O   0  0  0  0  0  0  0  0  0  1  0  0
  -17.5076   -7.0681   24.9516 F   0  0  0  0  0  0  0  0  0  0  0  0
  -22.1153   -6.0483   25.3191 F   0  0  0  0  0  0  0  0  0  0  0  0
  1  2  1  0  0  0  0
  1  5  2  0  0  0  0
  2  6  2  0  0  0  0
  3  8  2  0  0  0  0
  3 18  1  0  0  0  0
  4  9  1  0  0  0  0
  4 18  2  0  0  0  0
  5 21  1  0  0  0  0
  6 23  1  0  0  0  0
  7 10  2  0  0  0  0
  7 22  1  0  0  0  0
  8 27  1  0  0  0  0
  9 27  2  0  0  0  0
 10 28  1  0  0  0  0
 11 12  2  0  0  0  0
 11 29  1  0  0  0  0
 12 30  1  0  0  0  0
 13 19  1  0  0  0  0
 13 25  2  0  0  0  0
 14 19  2  0  0  0  0
 14 26  1  0  0  0  0
 15 24  1  0  0  0  0
 15 28  2  0  0  0  0
 16 25  1  0  0  0  0
 16 26  2  0  0  0  0
 17 30  2  0  0  0  0
 17 31  1  0  0  0  0
 18 32  1  0  0  0  0
 19 34  1  0  0  0  0
 20 32  1  0  0  0  0
 20 33  2  0  0  0  0
 20 35  1  0  0  0  0
 21 23  2  0  0  0  0
 21 42  1  0  0  0  0
 22 24  2  0  0  0  0
 22 43  1  0  0  0  0
 23 54  1  0  0  0  0
 24 44  1  0  0  0  0
 25 67  1  0  0  0  0
 26 80  1  0  0  0  0
 27 92  1  0  0  0  0
 28 93  1  0  0  0  0
 29 31  2  0  0  0  0
 29 92  1  0  0  0  0
 30 94  1  0  0  0  0
 31 95  1  0  0  0  0
 32 73  2  0  0  0  0
 33 74  1  0  0  0  0
 33 78  1  0  0  0  0
 34 75  1  0  0  0  0
 34 83  2  0  0  0  0
 35 79  1  0  0  0  0
 35 85  2  0  0  0  0
 36 57  1  0  0  0  0
 36 68  1  0  0  0  0
 36 86  2  0  0  0  0
 37 55  1  0  0  0  0
 37 81  1  0  0  0  0
 37 87  2  0  0  0  0
 38 67  1  0  0  0  0
 38 71  1  0  0  0  0
 38 88  2  0  0  0  0
 39 69  1  0  0  0  0
 39 76  1  0  0  0  0
 39 89  2  0  0  0  0
 40 70  1  0  0  0  0
 40 82  1  0  0  0  0
 40 90  2  0  0  0  0
 41 77  1  0  0  0  0
 41 80  1  0  0  0  0
 41 91  2  0  0  0  0
 42 45  1  0  0  0  0
 43 55  1  0  0  0  0
 44 76  1  0  0  0  0
 45 48  1  0  0  0  0
 46 49  1  0  0  0  0
 46 52  1  0  0  0  0
 47 50  1  0  0  0  0
 47 51  1  0  0  0  0
 48 54  1  0  0  0  0
 49 56  1  0  0  0  0
 50 57  1  0  0  0  0
 51 75  1  0  0  0  0
 52 77  1  0  0  0  0
 53 56  1  0  0  0  0
 53 77  1  0  0  0  0
 54 81  1  0  0  0  0
 55 76  1  0  0  0  0
 56 74  1  0  0  0  0
 57 58  1  0  0  0  0
 57 75  1  0  0  0  0
 59 70  1  0  0  0  0
 60 71  1  0  0  0  0
 61 71  1  0  0  0  0
 62 71  1  0  0  0  0
 63 72  1  0  0  0  0
 64 72  1  0  0  0  0
 65 72  1  0  0  0  0
 66 84  1  0  0  0  0
 68 93  1  0  0  0  0
 69 72  1  0  0  0  0
 69 82  1  0  0  0  0
 70 84  1  0  0  0  0
 73 74  1  0  0  0  0
M  CHG  2  83   1  84   1
M  ISO  4  41 100  68 101  80 100  93 101
M  END
> <Batch ID>
0141

> <Smiles>
CNC(C)C(=O)NC(C(=O)N1Cc2cc([101O:1][101CH2:1]C(=O)C3(C)CCCN3C(=N)c3cc(CC(=O)C(C)(C)C)cc([100NH:0][100C:0](=O)N4CCCC(n5nc(-c6ccc(Oc7ccc(F)cc7F)cc6)c(C(N)=O)c5N)C4)c3)ccc2CC1C(=O)NC1CCCc2ccccc21)C(C)(C)C

> <Shape>
0.308

> <Color>
0.142

> <Negative vol penalty>
0.000

$$$$

  -OEChem-04052302543D

 89 97  0     1  0  0  0  0  0999 V2000
  -28.8923  -23.3713   18.9983 C   0  0  0  0  0  0  0  0  0  0  0  0
  -27.5339  -23.6682   19.0441 C   0  0  0  0  0  0  0  0  0  0  0  0
  -26.3127  -12.8387   22.1067 C   0  0  0  0  0  0  0  0  0  0  0  0
  -25.8612  -14.1927   20.1573 C   0  0  0  0  0  0  0  0  0  0  0  0
  -29.7553  -23.9119   19.9506 C   0  0  0  0  0  0  0  0  0  0  0  0
  -27.0376  -24.5049   20.0431 C   0  0  0  0  0  0  0  0  0  0  0  0
  -22.4352  -28.5134   19.5375 C   0  0  0  0  0  0  0  0  0  0  0  0
  -25.7422  -11.7352   21.4724 C   0  0  0  0  0  0  0  0  0  0  0  0
  -25.2908  -13.0891   19.5230 C   0  0  0  0  0  0  0  0  0  0  0  0
  -21.0871  -28.4426   19.8860 C   0  0  0  0  0  0  0  0  0  0  0  0
  -22.6384  -10.5644   20.8246 C   0  0  0  0  0  0  0  0  0  0  0  0
  -21.7557   -9.7773   21.5642 C   0  0  0  0  0  0  0  0  0  0  0  0
  -23.6053  -21.9811   20.8054 C   0  0  0  0  0  0  0  0  0  0  0  0
  -21.7631  -23.5402   20.6951 C   0  0  0  0  0  0  0  0  0  0  0  0
  -21.5757  -29.5439   21.9759 C   0  0  0  0  0  0  0  0  0  0  0  0
  -22.4386  -22.6170   22.8232 C   0  0  0  0  0  0  0  0  0  0  0  0
  -23.1945   -7.8630   21.2440 C   0  0  0  0  0  0  0  0  0  0  0  0
  -26.3722  -14.0675   21.4492 C   0  0  0  0  0  0  0  0  0  0  0  0
  -22.7661  -22.8085   20.0593 C   0  0  0  0  0  0  0  0  0  0  0  0
  -28.3107  -15.6060   22.0678 C   0  0  0  0  0  0  0  0  0  0  0  0
  -29.2708  -24.7634   20.9560 C   0  0  0  0  0  0  0  0  0  0  0  0
  -23.3669  -29.0912   20.4119 C   0  0  0  0  0  0  0  0  0  0  0  0
  -27.8947  -25.0563   21.0106 C   0  0  0  0  0  0  0  0  0  0  0  0
  -22.9346  -29.6231   21.6351 C   0  0  0  0  0  0  0  0  0  0  0  0
  -23.4415  -21.8853   22.1873 C   0  0  0  0  0  0  0  0  0  0  0  0
  -21.5993  -23.4445   22.0771 C   0  0  0  0  0  0  0  0  0  0  0  0
  -25.2313  -11.8604   20.1805 C   0  0  0  0  0  0  0  0  0  0  0  0
  -20.6576  -28.9552   21.1066 C   0  0  0  0  0  0  0  0  0  0  0  0
  -23.7990  -10.0008   20.2946 C   0  0  0  0  0  0  0  0  0  0  0  0
  -22.0338   -8.4267   21.7740 C   0  0  0  0  0  0  0  0  0  0  0  0
  -24.0771   -8.6501   20.5043 C   0  0  0  0  0  0  0  0  0  0  0  0
  -26.9609  -15.2079   22.1041 C   0  0  0  0  0  0  0  0  0  0  0  0
  -28.3555  -16.7388   22.8432 C   0  0  0  0  0  0  0  0  0  0  0  0
  -22.9370  -22.9089   18.6185 C   0  0  0  0  0  0  0  0  0  0  0  0
  -29.4244  -15.0056   21.3933 C   0  0  0  0  0  0  0  0  0  0  0  0
  -25.9412  -28.0466   21.9565 C   0  0  0  0  0  0  0  0  0  0  0  0
  -18.7295  -25.6798   23.0082 C   0  0  0  0  0  0  0  0  0  0  0  0
  -26.2423  -31.1724   22.7695 C   0  0  0  0  0  0  0  0  0  0  0  0
  -24.7431  -34.2030   23.2325 C   0  0  0  0  0  0  0  0  0  0  0  0
  -24.2664  -20.8365   24.3242 C   0  0  0  0  0  0  0  0  0  0  0  0
  -30.2347  -25.2859   21.9917 C   0  0  0  0  0  0  0  0  0  0  0  0
  -24.8133  -29.1839   20.0096 C   0  0  0  0  0  0  0  0  0  0  0  0
  -23.8917  -30.2718   22.6003 C   0  0  0  0  0  0  0  0  0  0  0  0
  -29.6874  -26.4636   22.7939 C   0  0  0  0  0  0  0  0  0  0  0  0
  -26.1688  -18.8217   26.5599 C   0  0  0  0  0  0  0  0  0  0  0  0
  -28.2631  -26.1771   23.2587 C   0  0  0  0  0  0  0  0  0  0  0  0
  -26.7157  -17.7060   25.6665 C   0  0  0  0  0  0  0  0  0  0  0  0
  -24.7531  -19.2293   26.1559 C   0  0  0  0  0  0  0  0  0  0  0  0
  -25.1350  -18.4633   23.8458 C   0  0  0  0  0  0  0  0  0  0  0  0
  -27.3222  -25.9797   22.0640 C   0  0  1  0  0  0  0  0  0  0  0  0
  -25.7562  -29.3314   21.1997 C   0  0  1  0  0  0  0  0  0  0  0  0
  -26.5831  -18.0638   24.1732 C   0  0  2  0  0  0  0  0  0  0  0  0
  -21.7158  -23.1941   17.7936 C   0  0  0  0  0  0  0  0  0  0  0  0
  -25.2406  -36.5600   23.9357 C   0  0  0  0  0  0  0  0  0  0  0  0
  -26.3764  -30.2726   25.6819 C   0  0  0  0  0  0  0  0  0  0  0  0
  -25.9159  -32.6379   26.3612 C   0  0  0  0  0  0  0  0  0  0  0  0
  -27.9832  -32.0910   25.0768 C   0  0  0  0  0  0  0  0  0  0  0  0
  -17.4133  -27.9940   24.5753 C   0  0  0  0  0  0  0  0  0  0  0  0
  -16.5619  -28.8608   22.3962 C   0  0  0  0  0  0  0  0  0  0  0  0
  -23.8926  -35.2870   20.6132 C   0  0  0  0  0  0  0  0  0  0  0  0
  -17.6976  -26.6414   22.4363 C   0  0  0  0  0  0  0  0  0  0  0  0
  -19.6908  -25.0507   22.0205 C   0  0  0  0  0  0  0  0  0  0  0  0
  -19.0380  -28.7895   22.8402 C   0  0  0  0  0  0  0  0  0  1  0  0
  -25.7442  -32.0347   23.9040 C   0  0  1  0  0  0  0  0  0  0  0  0
  -25.1226  -35.5965   22.7650 C   0  0  2  0  0  0  0  0  0  0  0  0
  -26.4869  -31.7451   25.2389 C   0  0  0  0  0  0  0  0  0  0  0  0
  -17.6986  -28.0565   23.0640 C   0  0  0  0  0  0  0  0  0  0  0  0
  -26.2031  -16.0215   22.8442 N   0  0  0  0  0  0  0  0  0  0  0  0
  -27.0797  -16.9422   23.2801 N   0  0  0  0  0  0  0  0  0  0  0  0
  -25.2966  -30.3327   22.1643 N   0  0  0  0  0  0  0  0  0  0  0  0
  -24.7049  -19.5581   24.7295 N   0  0  0  0  0  0  0  0  0  0  0  0
  -29.3615  -17.5708   23.1871 N   0  0  0  0  0  0  0  0  0  0  0  0
  -29.2024  -13.8451   20.6396 N   0  0  0  0  0  0  0  0  0  0  0  0
  -24.2943  -21.0453   22.9457 N   0  0  0  0  0  0  0  0  0  0  0  0
  -20.6022  -24.1721   22.7097 N   0  0  0  0  0  0  0  0  0  0  0  0
  -26.9706  -27.2569   21.4811 N   0  0  0  0  0  0  0  0  0  0  0  0
  -25.8546  -33.4155   23.4461 N   0  0  0  0  0  0  0  0  0  0  0  0
  -24.0954  -36.1247   21.8233 N   0  3  0  0  0  0  0  0  0  0  0  0
  -24.0078  -22.7729   18.0230 O   0  0  0  0  0  0  0  0  0  0  0  0
  -30.5852  -15.4748   21.4706 O   0  0  0  0  0  0  0  0  0  0  0  0
  -25.2053  -27.7913   22.9026 O   0  0  0  0  0  0  0  0  0  0  0  0
  -18.7594  -25.4258   24.2125 O   0  0  0  0  0  0  0  0  0  0  0  0
  -27.4253  -31.2465   22.4280 O   0  0  0  0  0  0  0  0  0  0  0  0
  -23.5773  -33.8497   23.3957 O   0  0  0  0  0  0  0  0  0  0  0  0
  -23.9195  -21.6930   25.1415 O   0  0  0  0  0  0  0  0  0  0  0  0
  -24.6747  -10.7837   19.5611 O   0  0  0  0  0  0  0  0  0  0  0  0
  -19.3424  -28.8868   21.4495 O   0  0  0  0  0  0  0  0  0  1  0  0
  -21.1869   -7.6713   22.4856 F   0  0  0  0  0  0  0  0  0  0  0  0
  -25.1912   -8.1033   19.9987 F   0  0  0  0  0  0  0  0  0  0  0  0
  1  2  1  0  0  0  0
  1  5  2  0  0  0  0
  2  6  2  0  0  0  0
  3  8  2  0  0  0  0
  3 18  1  0  0  0  0
  4  9  1  0  0  0  0
  4 18  2  0  0  0  0
  5 21  1  0  0  0  0
  6 23  1  0  0  0  0
  7 10  2  0  0  0  0
  7 22  1  0  0  0  0
  8 27  1  0  0  0  0
  9 27  2  0  0  0  0
 10 28  1  0  0  0  0
 11 12  2  0  0  0  0
 11 29  1  0  0  0  0
 12 30  1  0  0  0  0
 13 19  2  0  0  0  0
 13 25  1  0  0  0  0
 14 19  1  0  0  0  0
 14 26  2  0  0  0  0
 15 24  1  0  0  0  0
 15 28  2  0  0  0  0
 16 25  2  0  0  0  0
 16 26  1  0  0  0  0
 17 30  2  0  0  0  0
 17 31  1  0  0  0  0
 18 32  1  0  0  0  0
 19 34  1  0  0  0  0
 20 32  1  0  0  0  0
 20 33  2  0  0  0  0
 20 35  1  0  0  0  0
 21 23  2  0  0  0  0
 21 41  1  0  0  0  0
 22 24  2  0  0  0  0
 22 42  1  0  0  0  0
 23 50  1  0  0  0  0
 24 43  1  0  0  0  0
 25 74  1  0  0  0  0
 26 75  1  0  0  0  0
 27 86  1  0  0  0  0
 28 87  1  0  0  0  0
 29 31  2  0  0  0  0
 29 86  1  0  0  0  0
 30 88  1  0  0  0  0
 31 89  1  0  0  0  0
 32 68  2  0  0  0  0
 33 69  1  0  0  0  0
 33 72  1  0  0  0  0
 34 53  1  0  0  0  0
 34 79  2  0  0  0  0
 35 73  1  0  0  0  0
 35 80  2  0  0  0  0
 36 51  1  0  0  0  0
 36 76  1  0  0  0  0
 36 81  2  0  0  0  0
 37 61  1  0  0  0  0
 37 62  1  0  0  0  0
 37 82  2  0  0  0  0
 38 64  1  0  0  0  0
 38 70  1  0  0  0  0
 38 83  2  0  0  0  0
 39 65  1  0  0  0  0
 39 77  1  0  0  0  0
 39 84  2  0  0  0  0
 40 71  1  0  0  0  0
 40 74  1  0  0  0  0
 40 85  2  0  0  0  0
 41 44  1  0  0  0  0
 42 51  1  0  0  0  0
 43 70  1  0  0  0  0
 44 46  1  0  0  0  0
 45 47  1  0  0  0  0
 45 48  1  0  0  0  0
 46 50  1  0  0  0  0
 47 52  1  0  0  0  0
 48 71  1  0  0  0  0
 49 52  1  0  0  0  0
 49 71  1  0  0  0  0
 50 76  1  0  0  0  0
 51 70  1  0  0  0  0
 52 69  1  0  0  0  0
 54 65  1  0  0  0  0
 55 66  1  0  0  0  0
 56 66  1  0  0  0  0
 57 66  1  0  0  0  0
 58 67  1  0  0  0  0
 59 67  1  0  0  0  0
 60 78  1  0  0  0  0
 61 67  1  0  0  0  0
 62 75  1  0  0  0  0
 63 67  1  0  0  0  0
 63 87  1  0  0  0  0
 64 66  1  0  0  0  0
 64 77  1  0  0  0  0
 65 78  1  0  0  0  0
 68 69  1  0  0  0  0
M  CHG  1  78   1
M  ISO  4  40 100  63 101  74 100  87 101
M  END
> <Batch ID>
0141

> <Smiles>
CNC(C)C(=O)NC(C(=O)N1Cc2cc([101O:1][101CH2:1]C(C)(C)CC(=O)CNc3cc([100NH:0][100C:0](=O)N4CCCC(n5nc(-c6ccc(Oc7ccc(F)cc7F)cc6)c(C(N)=O)c5N)C4)cc(C(C)=O)c3)ccc2CC1C(=O)NC1CCCc2ccccc21)C(C)(C)C

> <Shape>
0.269

> <Color>
0.066

> <Negative vol penalty>
0.000

$$$$

  -OEChem-04052302543D

 85 93  0     1  0  0  0  0  0999 V2000
  -19.2807  -29.3566   23.8692 C   0  0  0  0  0  0  0  0  0  0  0  0
  -19.7426  -29.3087   22.5578 C   0  0  0  0  0  0  0  0  0  0  0  0
  -27.4613  -13.3803   22.5565 C   0  0  0  0  0  0  0  0  0  0  0  0
  -26.9138  -12.9813   20.2374 C   0  0  0  0  0  0  0  0  0  0  0  0
  -20.0850  -29.8983   24.8710 C   0  0  0  0  0  0  0  0  0  0  0  0
  -21.0087  -29.8037   22.2472 C   0  0  0  0  0  0  0  0  0  0  0  0
  -23.6071  -26.7126   19.1913 C   0  0  0  0  0  0  0  0  0  0  0  0
  -26.8555  -12.1738   22.9071 C   0  0  0  0  0  0  0  0  0  0  0  0
  -26.3080  -11.7748   20.5880 C   0  0  0  0  0  0  0  0  0  0  0  0
  -23.2760  -26.7300   17.8371 C   0  0  0  0  0  0  0  0  0  0  0  0
  -23.3732  -10.7558   21.9220 C   0  0  0  0  0  0  0  0  0  0  0  0
  -22.1316  -10.4657   21.3565 C   0  0  0  0  0  0  0  0  0  0  0  0
  -24.6534  -21.4095   15.6017 C   0  0  0  0  0  0  0  0  0  0  0  0
  -25.1725  -28.1547   17.3980 C   0  0  0  0  0  0  0  0  0  0  0  0
  -23.0556   -8.4728   20.3506 C   0  0  0  0  0  0  0  0  0  0  0  0
  -24.5737  -20.0525   13.7164 C   0  0  0  0  0  0  0  0  0  0  0  0
  -27.4904  -13.7841   21.2216 C   0  0  0  0  0  0  0  0  0  0  0  0
  -24.3464  -21.3170   14.2134 C   0  0  0  0  0  0  0  0  0  0  0  0
  -29.4629  -15.2347   20.5055 C   0  0  0  0  0  0  0  0  0  0  0  0
  -21.3654  -30.3913   24.5742 C   0  0  0  0  0  0  0  0  0  0  0  0
  -24.7189  -27.4262   19.6614 C   0  0  0  0  0  0  0  0  0  0  0  0
  -21.8303  -30.3537   23.2458 C   0  0  0  0  0  0  0  0  0  0  0  0
  -25.5170  -28.1426   18.7582 C   0  0  0  0  0  0  0  0  0  0  0  0
  -26.2789  -11.3710   21.9229 C   0  0  0  0  0  0  0  0  0  0  0  0
  -24.0571  -27.4535   16.9406 C   0  0  0  0  0  0  0  0  0  0  0  0
  -24.4560   -9.9045   21.7018 C   0  0  0  0  0  0  0  0  0  0  0  0
  -21.9728   -9.3242   20.5708 C   0  0  0  0  0  0  0  0  0  0  0  0
  -24.2972   -8.7630   20.9161 C   0  0  0  0  0  0  0  0  0  0  0  0
  -28.1156  -15.0306   20.8589 C   0  0  0  0  0  0  0  0  0  0  0  0
  -29.5511  -16.5817   20.2520 C   0  0  0  0  0  0  0  0  0  0  0  0
  -25.1034  -20.2120   16.1130 C   0  0  0  0  0  0  0  0  0  0  0  0
  -23.8445  -22.4240   13.3819 C   0  0  0  0  0  0  0  0  0  0  0  0
  -23.2539  -23.5306   13.8650 C   0  0  0  0  0  0  0  0  0  0  0  0
  -30.5385  -14.2910   20.4144 C   0  0  0  0  0  0  0  0  0  0  0  0
  -25.1445  -29.8286   21.6988 C   0  0  0  0  0  0  0  0  0  0  0  0
  -28.2840  -29.2009   21.1773 C   0  0  0  0  0  0  0  0  0  0  0  0
  -30.6748  -27.8930   19.1230 C   0  0  0  0  0  0  0  0  0  0  0  0
  -25.5562  -20.6846   18.5457 C   0  0  0  0  0  0  0  0  0  0  0  0
  -22.1796  -31.0107   25.6824 C   0  0  0  0  0  0  0  0  0  0  0  0
  -25.0781  -27.3755   21.1212 C   0  0  0  0  0  0  0  0  0  0  0  0
  -26.7327  -28.9089   19.2092 C   0  0  0  0  0  0  0  0  0  0  0  0
  -23.6574  -31.1719   25.3355 C   0  0  0  0  0  0  0  0  0  0  0  0
  -27.5656  -20.7619   21.4839 C   0  0  0  0  0  0  0  0  0  0  0  0
  -23.8163  -31.7735   23.9428 C   0  0  0  0  0  0  0  0  0  0  0  0
  -28.0622  -19.3209   21.6215 C   0  0  0  0  0  0  0  0  0  0  0  0
  -26.1321  -20.8201   20.9592 C   0  0  0  0  0  0  0  0  0  0  0  0
  -26.3918  -18.6338   19.8539 C   0  0  0  0  0  0  0  0  0  0  0  0
  -23.2078  -30.8579   22.8737 C   0  0  1  0  0  0  0  0  0  0  0  0
  -25.9340  -28.5570   21.5673 C   0  0  1  0  0  0  0  0  0  0  0  0
  -27.8537  -18.5260   20.3176 C   0  0  2  0  0  0  0  0  0  0  0  0
  -33.1561  -27.5607   18.9497 C   0  0  0  0  0  0  0  0  0  0  0  0
  -22.8991  -24.5333   11.5391 C   0  0  0  0  0  0  0  0  0  0  0  0
  -21.1693  -24.6998   13.2946 C   0  0  0  0  0  0  0  0  0  0  0  0
  -28.6269  -32.1488   20.4684 C   0  0  0  0  0  0  0  0  0  0  0  0
  -30.8225  -31.5681   19.4147 C   0  0  0  0  0  0  0  0  0  0  0  0
  -30.4730  -31.1877   21.8551 C   0  0  0  0  0  0  0  0  0  0  0  0
  -22.8409  -27.3219   12.7926 C   0  0  0  0  0  0  0  0  0  0  0  0
  -24.9115  -26.0887   13.3845 C   0  0  0  0  0  0  0  0  0  0  0  0
  -30.3914  -24.9483   19.0384 C   0  0  0  0  0  0  0  0  0  0  0  0
  -23.0822  -26.3156   15.0938 C   0  0  0  0  0  0  0  0  0  1  0  0
  -29.3195  -29.6775   20.1876 C   0  0  1  0  0  0  0  0  0  0  0  0
  -31.8355  -26.9542   19.3982 C   0  0  2  0  0  0  0  0  0  0  0  0
  -22.7038  -24.7226   13.0673 C   0  0  0  0  0  0  0  0  0  0  0  0
  -29.7865  -31.1328   20.4729 C   0  0  0  0  0  0  0  0  0  0  0  0
  -23.3731  -26.0925   13.5767 C   0  0  0  0  0  0  0  0  0  0  0  0
  -27.3994  -16.1577   20.8335 N   0  0  0  0  0  0  0  0  0  0  0  0
  -28.3001  -17.0831   20.4612 N   0  0  0  0  0  0  0  0  0  0  0  0
  -27.0391  -28.8336   20.6472 N   0  0  0  0  0  0  0  0  0  0  0  0
  -26.0112  -20.0487   19.7201 N   0  0  0  0  0  0  0  0  0  0  0  0
  -30.5760  -17.3743   19.8730 N   0  0  0  0  0  0  0  0  0  0  0  0
  -30.2744  -12.9464   20.7089 N   0  0  0  0  0  0  0  0  0  0  0  0
  -25.5133  -19.8591   17.4226 N   0  0  0  0  0  0  0  0  0  0  0  0
  -24.0946  -29.7491   22.5936 N   0  0  0  0  0  0  0  0  0  0  0  0
  -30.3930  -28.6898   20.2125 N   0  0  0  0  0  0  0  0  0  0  0  0
  -31.6413  -25.6649   18.6764 N   0  3  0  0  0  0  0  0  0  0  0  0
  -31.7031  -14.6328   20.0977 O   0  0  0  0  0  0  0  0  0  0  0  0
  -25.4652  -30.8099   21.0385 O   0  0  0  0  0  0  0  0  0  0  0  0
  -28.5716  -29.1495   22.3758 O   0  0  0  0  0  0  0  0  0  0  0  0
  -30.0801  -27.9196   18.0477 O   0  0  0  0  0  0  0  0  0  0  0  0
  -25.2545  -21.8808   18.5306 O   0  0  0  0  0  0  0  0  0  0  0  0
  -25.6878  -10.1936   22.2646 O   0  0  0  0  0  0  0  0  0  0  0  0
  -23.7339  -27.4728   15.6105 O   0  0  0  0  0  0  0  0  0  1  0  0
  -20.7801   -9.0448   20.0290 F   0  0  0  0  0  0  0  0  0  0  0  0
  -25.3335   -7.9407   20.7020 F   0  0  0  0  0  0  0  0  0  0  0  0
  -25.1547  -18.9834   14.9213 S   0  0  0  0  0  0  0  0  0  0  0  0
  1  2  1  0  0  0  0
  1  5  2  0  0  0  0
  2  6  2  0  0  0  0
  3  8  2  0  0  0  0
  3 17  1  0  0  0  0
  4  9  1  0  0  0  0
  4 17  2  0  0  0  0
  5 20  1  0  0  0  0
  6 22  1  0  0  0  0
  7 10  2  0  0  0  0
  7 21  1  0  0  0  0
  8 24  1  0  0  0  0
  9 24  2  0  0  0  0
 10 25  1  0  0  0  0
 11 12  2  0  0  0  0
 11 26  1  0  0  0  0
 12 27  1  0  0  0  0
 13 18  1  0  0  0  0
 13 31  2  0  0  0  0
 14 23  1  0  0  0  0
 14 25  2  0  0  0  0
 15 27  2  0  0  0  0
 15 28  1  0  0  0  0
 16 18  2  0  0  0  0
 16 85  1  0  0  0  0
 17 29  1  0  0  0  0
 18 32  1  0  0  0  0
 19 29  1  0  0  0  0
 19 30  2  0  0  0  0
 19 34  1  0  0  0  0
 20 22  2  0  0  0  0
 20 39  1  0  0  0  0
 21 23  2  0  0  0  0
 21 40  1  0  0  0  0
 22 48  1  0  0  0  0
 23 41  1  0  0  0  0
 24 81  1  0  0  0  0
 25 82  1  0  0  0  0
 26 28  2  0  0  0  0
 26 81  1  0  0  0  0
 27 83  1  0  0  0  0
 28 84  1  0  0  0  0
 29 66  2  0  0  0  0
 30 67  1  0  0  0  0
 30 70  1  0  0  0  0
 31 72  1  0  0  0  0
 31 85  1  0  0  0  0
 32 33  2  0  0  0  0
 33 63  1  0  0  0  0
 34 71  1  0  0  0  0
 34 76  2  0  0  0  0
 35 49  1  0  0  0  0
 35 73  1  0  0  0  0
 35 77  2  0  0  0  0
 36 61  1  0  0  0  0
 36 68  1  0  0  0  0
 36 78  2  0  0  0  0
 37 62  1  0  0  0  0
 37 74  1  0  0  0  0
 37 79  2  0  0  0  0
 38 69  1  0  0  0  0
 38 72  1  0  0  0  0
 38 80  2  0  0  0  0
 39 42  1  0  0  0  0
 40 49  1  0  0  0  0
 41 68  1  0  0  0  0
 42 44  1  0  0  0  0
 43 45  1  0  0  0  0
 43 46  1  0  0  0  0
 44 48  1  0  0  0  0
 45 50  1  0  0  0  0
 46 69  1  0  0  0  0
 47 50  1  0  0  0  0
 47 69  1  0  0  0  0
 48 73  1  0  0  0  0
 49 68  1  0  0  0  0
 50 67  1  0  0  0  0
 51 62  1  0  0  0  0
 52 63  1  0  0  0  0
 53 63  1  0  0  0  0
 54 64  1  0  0  0  0
 55 64  1  0  0  0  0
 56 64  1  0  0  0  0
 57 65  1  0  0  0  0
 58 65  1  0  0  0  0
 59 75  1  0  0  0  0
 60 65  1  0  0  0  0
 60 82  1  0  0  0  0
 61 64  1  0  0  0  0
 61 74  1  0  0  0  0
 62 75  1  0  0  0  0
 63 65  1  0  0  0  0
 66 67  1  0  0  0  0
M  CHG  1  75   1
M  ISO  4  38 100  60 101  72 100  82 101
M  END
> <Batch ID>
0141

> <Smiles>
CNC(C)C(=O)NC(C(=O)N1Cc2cc([101O:1][101CH2:1]C(C)(C)C(C)(C)C=Cc3csc([100NH:0][100C:0](=O)N4CCCC(n5nc(-c6ccc(Oc7ccc(F)cc7F)cc6)c(C(N)=O)c5N)C4)c3)ccc2CC1C(=O)NC1CCCc2ccccc21)C(C)(C)C

> <Shape>
0.222

> <Color>
0.071

> <Negative vol penalty>
0.000

$$$$

  -OEChem-04052302543D

 88 96  0     1  0  0  0  0  0999 V2000
  -27.3831  -31.8403   27.4115 C   0  0  0  0  0  0  0  0  0  0  0  0
  -27.6204  -30.8277   26.4874 C   0  0  0  0  0  0  0  0  0  0  0  0
  -23.4115  -10.2647   22.4374 C   0  0  0  0  0  0  0  0  0  0  0  0
  -23.2904  -10.2030   20.0252 C   0  0  0  0  0  0  0  0  0  0  0  0
  -26.0741  -32.2001   27.7288 C   0  0  0  0  0  0  0  0  0  0  0  0
  -26.5486  -30.1736   25.8810 C   0  0  0  0  0  0  0  0  0  0  0  0
  -27.2000  -29.5889   20.8931 C   0  0  0  0  0  0  0  0  0  0  0  0
  -22.6962   -9.0690   22.5039 C   0  0  0  0  0  0  0  0  0  0  0  0
  -22.5752   -9.0073   20.0917 C   0  0  0  0  0  0  0  0  0  0  0  0
  -28.0504  -28.5652   20.4778 C   0  0  0  0  0  0  0  0  0  0  0  0
  -23.3181   -5.7691   22.1084 C   0  0  0  0  0  0  0  0  0  0  0  0
  -23.7791   -4.7857   22.9836 C   0  0  0  0  0  0  0  0  0  0  0  0
  -26.1367  -27.1705   20.0173 C   0  0  0  0  0  0  0  0  0  0  0  0
  -29.4805  -20.3814   18.0010 C   0  0  0  0  0  0  0  0  0  0  0  0
  -28.1992  -18.3676   17.6273 C   0  0  0  0  0  0  0  0  0  0  0  0
  -27.2057  -20.2310   18.8011 C   0  0  0  0  0  0  0  0  0  0  0  0
  -21.6778   -4.8596   24.1736 C   0  0  0  0  0  0  0  0  0  0  0  0
  -23.7086  -10.8317   21.1980 C   0  0  0  0  0  0  0  0  0  0  0  0
  -25.8445  -12.2191   21.0545 C   0  0  0  0  0  0  0  0  0  0  0  0
  -24.9857  -31.5567   27.1188 C   0  0  0  0  0  0  0  0  0  0  0  0
  -25.8096  -29.4070   20.8840 C   0  0  0  0  0  0  0  0  0  0  0  0
  -25.2237  -30.5243   26.1915 C   0  0  0  0  0  0  0  0  0  0  0  0
  -25.2708  -28.1944   20.4306 C   0  0  0  0  0  0  0  0  0  0  0  0
  -29.3845  -19.0890   17.4852 C   0  0  0  0  0  0  0  0  0  0  0  0
  -28.3911  -20.9524   18.6590 C   0  0  0  0  0  0  0  0  0  0  0  0
  -27.1098  -18.9386   18.2852 C   0  0  0  0  0  0  0  0  0  0  0  0
  -22.2781   -8.4403   21.3311 C   0  0  0  0  0  0  0  0  0  0  0  0
  -27.5189  -27.3547   20.0425 C   0  0  0  0  0  0  0  0  0  0  0  0
  -22.0369   -6.2978   22.2658 C   0  0  0  0  0  0  0  0  0  0  0  0
  -22.9590   -4.3310   24.0162 C   0  0  0  0  0  0  0  0  0  0  0  0
  -21.2168   -5.8431   23.2984 C   0  0  0  0  0  0  0  0  0  0  0  0
  -24.4469  -12.0671   21.1287 C   0  0  0  0  0  0  0  0  0  0  0  0
  -26.0401  -13.5778   21.0090 C   0  0  0  0  0  0  0  0  0  0  0  0
  -26.8738  -11.2214   21.0288 C   0  0  0  0  0  0  0  0  0  0  0  0
  -23.5326  -29.4074   23.1019 C   0  0  0  0  0  0  0  0  0  0  0  0
  -29.1910  -23.9382   21.1008 C   0  0  0  0  0  0  0  0  0  0  0  0
  -21.5704  -29.1566   20.5310 C   0  0  0  0  0  0  0  0  0  0  0  0
  -21.1684  -28.2222   17.2734 C   0  0  0  0  0  0  0  0  0  0  0  0
  -24.7315  -18.6247   19.0545 C   0  0  0  0  0  0  0  0  0  0  0  0
  -23.5881  -31.9479   27.5291 C   0  0  0  0  0  0  0  0  0  0  0  0
  -24.9049  -30.5306   21.3099 C   0  0  0  0  0  0  0  0  0  0  0  0
  -23.7844  -27.9560   20.3822 C   0  0  0  0  0  0  0  0  0  0  0  0
  -22.5110  -31.4615   26.5629 C   0  0  0  0  0  0  0  0  0  0  0  0
  -22.8132  -17.3983   21.7918 C   0  0  0  0  0  0  0  0  0  0  0  0
  -22.7401  -29.9974   26.2012 C   0  0  0  0  0  0  0  0  0  0  0  0
  -23.1822  -15.9145   21.8572 C   0  0  0  0  0  0  0  0  0  0  0  0
  -22.7390  -17.9013   20.3513 C   0  0  0  0  0  0  0  0  0  0  0  0
  -24.3007  -16.1490   19.6031 C   0  0  0  0  0  0  0  0  0  0  0  0
  -24.0875  -29.8082   25.4940 C   0  0  1  0  0  0  0  0  0  0  0  0
  -23.5230  -30.0529   21.7451 C   0  0  1  0  0  0  0  0  0  0  0  0
  -24.4511  -15.6126   21.0361 C   0  0  2  0  0  0  0  0  0  0  0  0
  -27.1716  -23.1322   19.0360 C   0  0  0  0  0  0  0  0  0  0  0  0
  -19.4409  -28.1031   15.4571 C   0  0  0  0  0  0  0  0  0  0  0  0
  -30.4651  -21.7958   20.7842 C   0  0  0  0  0  0  0  0  0  0  0  0
  -28.1689  -21.7381   21.7250 C   0  0  0  0  0  0  0  0  0  0  0  0
  -20.3344  -26.7095   21.8704 C   0  0  0  0  0  0  0  0  0  0  0  0
  -19.3280  -26.0956   19.6617 C   0  0  0  0  0  0  0  0  0  0  0  0
  -18.6898  -28.2380   20.7687 C   0  0  0  0  0  0  0  0  0  0  0  0
  -22.7067  -30.0539   15.5305 C   0  0  0  0  0  0  0  0  0  0  0  0
  -30.5494  -18.4786   16.7819 C   0  0  0  0  0  0  0  0  0  0  0  0
  -30.1073  -24.8427   20.2770 C   0  0  0  0  0  0  0  0  0  0  0  0
  -29.6357  -26.2900   20.2461 C   0  0  0  0  0  0  0  0  0  1  0  0
  -28.4962  -22.3672   19.2235 C   0  0  1  0  0  0  0  0  0  0  0  0
  -20.9876  -28.0115   19.7386 C   0  0  1  0  0  0  0  0  0  0  0  0
  -20.5431  -28.9383   16.0899 C   0  0  2  0  0  0  0  0  0  0  0  0
  -29.0678  -22.4452   20.6872 C   0  0  0  0  0  0  0  0  0  0  0  0
  -19.8631  -27.2671   20.5125 C   0  0  0  0  0  0  0  0  0  0  0  0
  -23.8005  -13.2359   21.1307 N   0  0  0  0  0  0  0  0  0  0  0  0
  -24.7963  -14.1353   21.0573 N   0  0  0  0  0  0  0  0  0  0  0  0
  -22.9415  -29.0828   20.8149 N   0  0  0  0  0  0  0  0  0  0  0  0
  -23.9771  -17.5839   19.6362 N   0  0  0  0  0  0  0  0  0  0  0  0
  -27.1530  -14.3382   20.9330 N   0  0  0  0  0  0  0  0  0  0  0  0
  -26.4981   -9.8722   21.0829 N   0  0  0  0  0  0  0  0  0  0  0  0
  -25.9056  -18.2058   18.4294 N   0  0  0  0  0  0  0  0  0  0  0  0
  -23.9964  -30.2283   24.1121 N   0  0  0  0  0  0  0  0  0  0  0  0
  -20.5626  -28.5736   18.4612 N   0  0  0  0  0  0  0  0  0  0  0  0
  -31.4617  -17.7297   17.6897 N   0  3  0  0  0  0  0  0  0  0  0  0
  -21.5740  -29.2204   15.0515 N   0  3  0  0  0  0  0  0  0  0  0  0
  -28.0915  -11.5179   20.9764 O   0  0  0  0  0  0  0  0  0  0  0  0
  -23.1464  -28.2508   23.2235 O   0  0  0  0  0  0  0  0  0  0  0  0
  -28.5574  -24.3881   22.0592 O   0  0  0  0  0  0  0  0  0  0  0  0
  -20.8377  -30.0860   20.8790 O   0  0  0  0  0  0  0  0  0  0  0  0
  -22.0986  -27.4276   17.1555 O   0  0  0  0  0  0  0  0  0  0  0  0
  -24.3771  -19.8039   19.1305 O   0  0  0  0  0  0  0  0  0  0  0  0
  -21.5803   -7.2735   21.3956 O   0  0  0  0  0  0  0  0  0  0  0  0
  -28.3467  -26.3536   19.6371 O   0  0  0  0  0  0  0  0  0  1  0  0
  -23.4013   -3.3855   24.8557 F   0  0  0  0  0  0  0  0  0  0  0  0
  -19.9846   -6.3464   23.4540 F   0  0  0  0  0  0  0  0  0  0  0  0
  1  2  1  0  0  0  0
  1  5  2  0  0  0  0
  2  6  2  0  0  0  0
  3  8  2  0  0  0  0
  3 18  1  0  0  0  0
  4  9  1  0  0  0  0
  4 18  2  0  0  0  0
  5 20  1  0  0  0  0
  6 22  1  0  0  0  0
  7 10  2  0  0  0  0
  7 21  1  0  0  0  0
  8 27  1  0  0  0  0
  9 27  2  0  0  0  0
 10 28  1  0  0  0  0
 11 12  2  0  0  0  0
 11 29  1  0  0  0  0
 12 30  1  0  0  0  0
 13 23  1  0  0  0  0
 13 28  2  0  0  0  0
 14 24  2  0  0  0  0
 14 25  1  0  0  0  0
 15 24  1  0  0  0  0
 15 26  2  0  0  0  0
 16 25  2  0  0  0  0
 16 26  1  0  0  0  0
 17 30  2  0  0  0  0
 17 31  1  0  0  0  0
 18 32  1  0  0  0  0
 19 32  1  0  0  0  0
 19 33  2  0  0  0  0
 19 34  1  0  0  0  0
 20 22  2  0  0  0  0
 20 40  1  0  0  0  0
 21 23  2  0  0  0  0
 21 41  1  0  0  0  0
 22 49  1  0  0  0  0
 23 42  1  0  0  0  0
 24 60  1  0  0  0  0
 25 63  1  0  0  0  0
 26 74  1  0  0  0  0
 27 85  1  0  0  0  0
 28 86  1  0  0  0  0
 29 31  2  0  0  0  0
 29 85  1  0  0  0  0
 30 87  1  0  0  0  0
 31 88  1  0  0  0  0
 32 68  2  0  0  0  0
 33 69  1  0  0  0  0
 33 72  1  0  0  0  0
 34 73  1  0  0  0  0
 34 79  2  0  0  0  0
 35 50  1  0  0  0  0
 35 75  1  0  0  0  0
 35 80  2  0  0  0  0
 36 61  1  0  0  0  0
 36 66  1  0  0  0  0
 36 81  2  0  0  0  0
 37 64  1  0  0  0  0
 37 70  1  0  0  0  0
 37 82  2  0  0  0  0
 38 65  1  0  0  0  0
 38 76  1  0  0  0  0
 38 83  2  0  0  0  0
 39 71  1  0  0  0  0
 39 74  1  0  0  0  0
 39 84  2  0  0  0  0
 40 43  1  0  0  0  0
 41 50  1  0  0  0  0
 42 70  1  0  0  0  0
 43 45  1  0  0  0  0
 44 46  1  0  0  0  0
 44 47  1  0  0  0  0
 45 49  1  0  0  0  0
 46 51  1  0  0  0  0
 47 71  1  0  0  0  0
 48 51  1  0  0  0  0
 48 71  1  0  0  0  0
 49 75  1  0  0  0  0
 50 70  1  0  0  0  0
 51 69  1  0  0  0  0
 52 63  1  0  0  0  0
 53 65  1  0  0  0  0
 54 66  1  0  0  0  0
 55 66  1  0  0  0  0
 56 67  1  0  0  0  0
 57 67  1  0  0  0  0
 58 67  1  0  0  0  0
 59 78  1  0  0  0  0
 60 77  1  0  0  0  0
 61 62  1  0  0  0  0
 62 86  1  0  0  0  0
 63 66  1  0  0  0  0
 64 67  1  0  0  0  0
 64 76  1  0  0  0  0
 65 78  1  0  0  0  0
 68 69  1  0  0  0  0
M  CHG  2  77   1  78   1
M  ISO  4  39 100  62 101  74 100  86 101
M  END
> <Batch ID>
0141

> <Smiles>
CNC(C)C(=O)NC(C(=O)N1Cc2cc([101O:1][101CH2:1]CC(=O)C(C)(C)C(C)c3cc(CN)cc([100NH:0][100C:0](=O)N4CCCC(n5nc(-c6ccc(Oc7ccc(F)cc7F)cc6)c(C(N)=O)c5N)C4)c3)ccc2CC1C(=O)NC1CCCc2ccccc21)C(C)(C)C

> <Shape>
0.295

> <Color>
0.096

> <Negative vol penalty>
0.000

$$$$

  -OEChem-04052302543D

 86 95  0     1  0  0  0  0  0999 V2000
  -17.9862  -25.0717   24.5213 C   0  0  0  0  0  0  0  0  0  0  0  0
  -19.2069  -24.6318   24.0195 C   0  0  0  0  0  0  0  0  0  0  0  0
  -24.3627   -8.6884   20.3204 C   0  0  0  0  0  0  0  0  0  0  0  0
  -23.1105  -10.6285   21.0309 C   0  0  0  0  0  0  0  0  0  0  0  0
  -17.5440  -26.3642   24.2420 C   0  0  0  0  0  0  0  0  0  0  0  0
  -19.9856  -25.4837   23.2371 C   0  0  0  0  0  0  0  0  0  0  0  0
  -26.1009  -25.7719   23.0763 C   0  0  0  0  0  0  0  0  0  0  0  0
  -23.3664   -7.8576   20.8329 C   0  0  0  0  0  0  0  0  0  0  0  0
  -22.1141   -9.7977   21.5434 C   0  0  0  0  0  0  0  0  0  0  0  0
  -27.0427  -25.2321   22.2014 C   0  0  0  0  0  0  0  0  0  0  0  0
  -22.4099   -6.6889   23.8568 C   0  0  0  0  0  0  0  0  0  0  0  0
  -22.8111   -5.5852   24.6094 C   0  0  0  0  0  0  0  0  0  0  0  0
  -29.4672  -19.0995   18.0314 C   0  0  0  0  0  0  0  0  0  0  0  0
  -27.0940  -27.3129   20.9822 C   0  0  0  0  0  0  0  0  0  0  0  0
  -21.7255   -4.1138   23.0302 C   0  0  0  0  0  0  0  0  0  0  0  0
  -24.2348  -10.0739   20.4194 C   0  0  0  0  0  0  0  0  0  0  0  0
  -29.5891  -19.8300   16.8142 C   0  0  0  0  0  0  0  0  0  0  0  0
  -25.7055  -11.0080   18.5561 C   0  0  0  0  0  0  0  0  0  0  0  0
  -18.3222  -27.2357   23.4638 C   0  0  0  0  0  0  0  0  0  0  0  0
  -25.6397  -27.0849   22.9038 C   0  0  0  0  0  0  0  0  0  0  0  0
  -19.5528  -26.7886   22.9460 C   0  0  0  0  0  0  0  0  0  0  0  0
  -26.1482  -27.8679   21.8577 C   0  0  0  0  0  0  0  0  0  0  0  0
  -22.2420   -8.4122   21.4444 C   0  0  0  0  0  0  0  0  0  0  0  0
  -27.5372  -26.0016   21.1525 C   0  0  0  0  0  0  0  0  0  0  0  0
  -21.6664   -6.5051   22.6909 C   0  0  0  0  0  0  0  0  0  0  0  0
  -22.4690   -4.2977   24.1961 C   0  0  0  0  0  0  0  0  0  0  0  0
  -21.3243   -5.2176   22.2776 C   0  0  0  0  0  0  0  0  0  0  0  0
  -25.2639  -10.9326   19.8907 C   0  0  0  0  0  0  0  0  0  0  0  0
  -28.8432  -19.2724   15.7992 C   0  0  0  0  0  0  0  0  0  0  0  0
  -26.6888  -11.9669   18.5735 C   0  0  0  0  0  0  0  0  0  0  0  0
  -28.6324  -18.0114   17.9004 C   0  0  0  0  0  0  0  0  0  0  0  0
  -30.4072  -21.0397   16.6351 C   0  0  0  0  0  0  0  0  0  0  0  0
  -25.2662  -10.2767   17.4038 C   0  0  0  0  0  0  0  0  0  0  0  0
  -22.8118  -28.4092   22.3093 C   0  0  0  0  0  0  0  0  0  0  0  0
  -24.4484  -31.1736   22.7585 C   0  0  0  0  0  0  0  0  0  0  0  0
  -27.4476  -32.8018   22.7331 C   0  0  0  0  0  0  0  0  0  0  0  0
  -28.6172  -16.9374   20.1791 C   0  0  0  0  0  0  0  0  0  0  0  0
  -17.7807  -28.6077   23.1493 C   0  0  0  0  0  0  0  0  0  0  0  0
  -24.6434  -27.6615   23.8721 C   0  0  0  0  0  0  0  0  0  0  0  0
  -25.7006  -29.2897   21.6413 C   0  0  0  0  0  0  0  0  0  0  0  0
  -18.8389  -29.5745   22.6243 C   0  0  0  0  0  0  0  0  0  0  0  0
  -29.0138  -14.2308   22.4581 C   0  0  0  0  0  0  0  0  0  0  0  0
  -19.6879  -28.9041   21.5489 C   0  0  0  0  0  0  0  0  0  0  0  0
  -28.1099  -13.1376   21.8836 C   0  0  0  0  0  0  0  0  0  0  0  0
  -30.3333  -24.2633   18.4335 C   0  0  0  0  0  0  0  0  0  0  0  0
  -28.4078  -15.6213   22.2765 C   0  0  0  0  0  0  0  0  0  0  0  0
  -30.8548  -23.3819   17.3073 C   0  0  0  0  0  0  0  0  0  0  0  0
  -27.1096  -14.8587   20.3266 C   0  0  0  0  0  0  0  0  0  0  0  0
  -29.0200  -22.2634   18.3961 C   0  0  0  0  0  0  0  0  0  0  0  0
  -20.4375  -27.6916   22.1140 C   0  0  1  0  0  0  0  0  0  0  0  0
  -23.8615  -28.8376   23.2954 C   0  0  1  0  0  0  0  0  0  0  0  0
  -27.7079  -13.4461   20.4279 C   0  0  2  0  0  0  0  0  0  0  0  0
  -28.8896  -23.7730   18.6520 C   0  0  2  0  0  0  0  0  0  0  0  0
  -28.6969  -19.7198   14.3953 C   0  0  0  0  0  0  0  0  0  0  0  0
  -27.9286  -24.4157   17.6385 C   0  0  0  0  0  0  0  0  0  0  0  0
  -28.4631  -35.0660   23.1065 C   0  0  0  0  0  0  0  0  0  0  0  0
  -23.4024  -32.0880   20.0420 C   0  0  0  0  0  0  0  0  0  0  0  0
  -25.1593  -33.8717   20.0438 C   0  0  0  0  0  0  0  0  0  0  0  0
  -23.3982  -33.8563   21.8105 C   0  0  0  0  0  0  0  0  0  0  0  0
  -29.1201  -31.8118   24.9651 C   0  0  0  0  0  0  0  0  0  0  0  0
  -28.4042  -24.0687   20.0716 C   0  0  0  0  0  0  0  0  0  1  0  0
  -25.2272  -32.1117   21.8683 C   0  0  1  0  0  0  0  0  0  0  0  0
  -28.0966  -33.7334   23.7408 C   0  0  2  0  0  0  0  0  0  0  0  0
  -24.3040  -32.9545   20.9438 C   0  0  0  0  0  0  0  0  0  0  0  0
  -25.9135  -11.7762   20.6972 N   0  0  0  0  0  0  0  0  0  0  0  0
  -26.7733  -12.3907   19.8671 N   0  0  0  0  0  0  0  0  0  0  0  0
  -30.1073  -22.1397   17.4244 N   0  0  0  0  0  0  0  0  0  0  0  0
  -24.7204  -29.8061   22.6109 N   0  0  0  0  0  0  0  0  0  0  0  0
  -28.0557  -15.8444   20.8726 N   0  0  0  0  0  0  0  0  0  0  0  0
  -27.4807  -12.4803   17.6083 N   0  0  0  0  0  0  0  0  0  0  0  0
  -24.2185  -10.8046   16.6369 N   0  0  0  0  0  0  0  0  0  0  0  0
  -28.2347  -17.0294   18.8413 N   0  0  0  0  0  0  0  0  0  0  0  0
  -21.5873  -28.1206   22.8810 N   0  0  0  0  0  0  0  0  0  0  0  0
  -26.0728  -32.9060   22.7528 N   0  0  0  0  0  0  0  0  0  0  0  0
  -29.3372  -33.1178   24.2912 N   0  3  0  0  0  0  0  0  0  0  0  0
  -31.2981  -20.9986   15.7889 O   0  0  0  0  0  0  0  0  0  0  0  0
  -25.7763   -9.1793   17.0735 O   0  0  0  0  0  0  0  0  0  0  0  0
  -23.0917  -28.3465   21.1179 O   0  0  0  0  0  0  0  0  0  0  0  0
  -23.6341  -31.6376   23.5605 O   0  0  0  0  0  0  0  0  0  0  0  0
  -28.0956  -32.0589   21.9991 O   0  0  0  0  0  0  0  0  0  0  0  0
  -29.4023  -17.7175   20.7241 O   0  0  0  0  0  0  0  0  0  0  0  0
  -21.2695   -7.6018   21.9444 O   0  0  0  0  0  0  0  0  0  0  0  0
  -28.4561  -25.4769   20.2967 O   0  0  0  0  0  0  0  0  0  1  0  0
  -22.8557   -3.2378   24.9181 F   0  0  0  0  0  0  0  0  0  0  0  0
  -20.6112   -5.0346   21.1579 F   0  0  0  0  0  0  0  0  0  0  0  0
  -28.0002  -17.8739   16.3149 S   0  0  0  0  0  0  0  0  0  0  0  0
  1  2  1  0  0  0  0
  1  5  2  0  0  0  0
  2  6  2  0  0  0  0
  3  8  2  0  0  0  0
  3 16  1  0  0  0  0
  4  9  1  0  0  0  0
  4 16  2  0  0  0  0
  5 19  1  0  0  0  0
  6 21  1  0  0  0  0
  7 10  2  0  0  0  0
  7 20  1  0  0  0  0
  8 23  1  0  0  0  0
  9 23  2  0  0  0  0
 10 24  1  0  0  0  0
 11 12  2  0  0  0  0
 11 25  1  0  0  0  0
 12 26  1  0  0  0  0
 13 17  1  0  0  0  0
 13 31  2  0  0  0  0
 14 22  1  0  0  0  0
 14 24  2  0  0  0  0
 15 26  2  0  0  0  0
 15 27  1  0  0  0  0
 16 28  1  0  0  0  0
 17 29  2  0  0  0  0
 17 32  1  0  0  0  0
 18 28  1  0  0  0  0
 18 30  2  0  0  0  0
 18 33  1  0  0  0  0
 19 21  2  0  0  0  0
 19 38  1  0  0  0  0
 20 22  2  0  0  0  0
 20 39  1  0  0  0  0
 21 50  1  0  0  0  0
 22 40  1  0  0  0  0
 23 82  1  0  0  0  0
 24 83  1  0  0  0  0
 25 27  2  0  0  0  0
 25 82  1  0  0  0  0
 26 84  1  0  0  0  0
 27 85  1  0  0  0  0
 28 65  2  0  0  0  0
 29 54  1  0  0  0  0
 29 86  1  0  0  0  0
 30 66  1  0  0  0  0
 30 70  1  0  0  0  0
 31 72  1  0  0  0  0
 31 86  1  0  0  0  0
 32 67  1  0  0  0  0
 32 76  2  0  0  0  0
 33 71  1  0  0  0  0
 33 77  2  0  0  0  0
 34 51  1  0  0  0  0
 34 73  1  0  0  0  0
 34 78  2  0  0  0  0
 35 62  1  0  0  0  0
 35 68  1  0  0  0  0
 35 79  2  0  0  0  0
 36 63  1  0  0  0  0
 36 74  1  0  0  0  0
 36 80  2  0  0  0  0
 37 69  1  0  0  0  0
 37 72  1  0  0  0  0
 37 81  2  0  0  0  0
 38 41  1  0  0  0  0
 39 51  1  0  0  0  0
 40 68  1  0  0  0  0
 41 43  1  0  0  0  0
 42 44  1  0  0  0  0
 42 46  1  0  0  0  0
 43 50  1  0  0  0  0
 44 52  1  0  0  0  0
 45 47  1  0  0  0  0
 45 53  1  0  0  0  0
 46 69  1  0  0  0  0
 47 67  1  0  0  0  0
 48 52  1  0  0  0  0
 48 69  1  0  0  0  0
 49 53  1  0  0  0  0
 49 67  1  0  0  0  0
 50 73  1  0  0  0  0
 51 68  1  0  0  0  0
 52 66  1  0  0  0  0
 53 55  1  0  0  0  0
 53 61  1  0  0  0  0
 56 63  1  0  0  0  0
 57 64  1  0  0  0  0
 58 64  1  0  0  0  0
 59 64  1  0  0  0  0
 60 75  1  0  0  0  0
 61 83  1  0  0  0  0
 62 64  1  0  0  0  0
 62 74  1  0  0  0  0
 63 75  1  0  0  0  0
 65 66  1  0  0  0  0
M  CHG  1  75   1
M  ISO  4  37 100  61 101  72 100  83 101
M  END
> <Batch ID>
0141

> <Smiles>
CNC(C)C(=O)NC(C(=O)N1Cc2cc([101O:1][101CH2:1]C3(C)CCN(C(=O)c4cc([100NH:0][100C:0](=O)N5CCCC(n6nc(-c7ccc(Oc8ccc(F)cc8F)cc7)c(C(N)=O)c6N)C5)sc4C)C3)ccc2CC1C(=O)NC1CCCc2ccccc21)C(C)(C)C

> <Shape>
0.282

> <Color>
0.104

> <Negative vol penalty>
0.000

$$$$

  -OEChem-04052302543D

 86 94  0     1  0  0  0  0  0999 V2000
  -27.8968  -35.7340   21.4412 C   0  0  0  0  0  0  0  0  0  0  0  0
  -28.1875  -34.3735   21.4350 C   0  0  0  0  0  0  0  0  0  0  0  0
  -24.8656  -21.2981   21.9267 C   0  0  0  0  0  0  0  0  0  0  0  0
  -25.2855   -9.3132   20.5775 C   0  0  0  0  0  0  0  0  0  0  0  0
  -24.2969  -10.1350   22.6231 C   0  0  0  0  0  0  0  0  0  0  0  0
  -26.7754  -36.2029   22.1243 C   0  0  0  0  0  0  0  0  0  0  0  0
  -27.3576  -33.4812   22.1128 C   0  0  0  0  0  0  0  0  0  0  0  0
  -26.3267  -29.3368   19.3916 C   0  0  0  0  0  0  0  0  0  0  0  0
  -25.8264  -22.3016   22.0521 C   0  0  0  0  0  0  0  0  0  0  0  0
  -25.2494  -19.9574   21.9569 C   0  0  0  0  0  0  0  0  0  0  0  0
  -25.0209   -8.0029   20.9760 C   0  0  0  0  0  0  0  0  0  0  0  0
  -24.0323   -8.8247   23.0216 C   0  0  0  0  0  0  0  0  0  0  0  0
  -27.3154  -28.3560   19.3258 C   0  0  0  0  0  0  0  0  0  0  0  0
  -22.7712   -5.7122   24.4144 C   0  0  0  0  0  0  0  0  0  0  0  0
  -21.5121   -5.4377   24.9483 C   0  0  0  0  0  0  0  0  0  0  0  0
  -26.1572  -27.0837   21.0167 C   0  0  0  0  0  0  0  0  0  0  0  0
  -27.5547  -20.6236   22.2374 C   0  0  0  0  0  0  0  0  0  0  0  0
  -20.4806   -6.1564   22.8851 C   0  0  0  0  0  0  0  0  0  0  0  0
  -24.9235  -10.3792   21.4011 C   0  0  0  0  0  0  0  0  0  0  0  0
  -24.3571  -12.5810   20.2438 C   0  0  0  0  0  0  0  0  0  0  0  0
  -25.9260  -35.3148   22.8028 C   0  0  0  0  0  0  0  0  0  0  0  0
  -25.2497  -29.2033   20.2797 C   0  0  0  0  0  0  0  0  0  0  0  0
  -26.2246  -33.9388   22.8068 C   0  0  0  0  0  0  0  0  0  0  0  0
  -25.1548  -28.0629   21.0899 C   0  0  0  0  0  0  0  0  0  0  0  0
  -27.1709  -21.9643   22.2074 C   0  0  0  0  0  0  0  0  0  0  0  0
  -26.5939  -19.6201   22.1122 C   0  0  0  0  0  0  0  0  0  0  0  0
  -24.3943   -7.7587   22.1981 C   0  0  0  0  0  0  0  0  0  0  0  0
  -27.2323  -27.2306   20.1405 C   0  0  0  0  0  0  0  0  0  0  0  0
  -22.8850   -6.2089   23.1160 C   0  0  0  0  0  0  0  0  0  0  0  0
  -20.3668   -5.6597   24.1836 C   0  0  0  0  0  0  0  0  0  0  0  0
  -21.7397   -6.4310   22.3513 C   0  0  0  0  0  0  0  0  0  0  0  0
  -25.1971  -11.7329   20.9902 C   0  0  0  0  0  0  0  0  0  0  0  0
  -25.0701  -13.7484   20.1203 C   0  0  0  0  0  0  0  0  0  0  0  0
  -23.0494  -12.3354   19.7099 C   0  0  0  0  0  0  0  0  0  0  0  0
  -24.1734  -30.8657   22.7660 C   0  0  0  0  0  0  0  0  0  0  0  0
  -21.7180  -28.7510   22.6207 C   0  0  0  0  0  0  0  0  0  0  0  0
  -20.5950  -25.6775   21.6516 C   0  0  0  0  0  0  0  0  0  0  0  0
  -28.2742  -17.7517   22.2905 C   0  0  0  0  0  0  0  0  0  0  0  0
  -24.7519  -35.8739   23.5667 C   0  0  0  0  0  0  0  0  0  0  0  0
  -24.1774  -30.2573   20.3194 C   0  0  0  0  0  0  0  0  0  0  0  0
  -24.0082  -27.8624   22.0457 C   0  0  0  0  0  0  0  0  0  0  0  0
  -23.7150  -34.8201   23.9469 C   0  0  0  0  0  0  0  0  0  0  0  0
  -29.9070  -14.7835   21.1948 C   0  0  0  0  0  0  0  0  0  0  0  0
  -24.3965  -33.5878   24.5332 C   0  0  0  0  0  0  0  0  0  0  0  0
  -28.7581  -13.7950   20.9825 C   0  0  0  0  0  0  0  0  0  0  0  0
  -29.6591  -15.6912   22.3982 C   0  0  0  0  0  0  0  0  0  0  0  0
  -27.2219  -15.4075   22.1770 C   0  0  0  0  0  0  0  0  0  0  0  0
  -25.3347  -32.9368   23.5097 C   0  0  1  0  0  0  0  0  0  0  0  0
  -23.3955  -30.2652   21.6294 C   0  0  1  0  0  0  0  0  0  0  0  0
  -27.3962  -14.5152   20.9372 C   0  0  2  0  0  0  0  0  0  0  0  0
  -27.9450  -23.1192   24.9641 C   0  0  0  0  0  0  0  0  0  0  0  0
  -18.5530  -24.2197   21.7041 C   0  0  0  0  0  0  0  0  0  0  0  0
  -29.8970  -25.8733   21.6746 C   0  0  0  0  0  0  0  0  0  0  0  0
  -29.6762  -22.5083   22.5103 C   0  0  0  0  0  0  0  0  0  0  0  0
  -22.2258  -28.1499   25.5687 C   0  0  0  0  0  0  0  0  0  0  0  0
  -20.8485  -26.0751   25.3111 C   0  0  0  0  0  0  0  0  0  0  0  0
  -19.8112  -28.3129   24.9381 C   0  0  0  0  0  0  0  0  0  0  0  0
  -29.1544  -23.5043   19.9356 C   0  0  0  0  0  0  0  0  0  0  0  0
  -20.4525  -25.5718   18.6974 C   0  0  0  0  0  0  0  0  0  0  0  0
  -27.9322  -23.9044   23.6502 C   0  0  0  0  0  0  0  0  0  0  0  0
  -21.4343  -27.3987   23.2288 C   0  0  1  0  0  0  0  0  0  0  0  0
  -19.3405  -25.2509   20.9109 C   0  0  2  0  0  0  0  0  0  0  0  0
  -28.4592  -25.5374   21.2736 C   0  0  2  0  0  0  0  0  0  1  0  0
  -28.2415  -23.0834   22.3470 C   0  0  2  0  0  0  0  0  0  0  0  0
  -21.1027  -27.4886   24.7451 C   0  0  0  0  0  0  0  0  0  0  0  0
  -28.2014  -24.0168   21.0372 C   0  0  2  0  0  0  0  0  0  0  0  0
  -26.3551  -12.3123   21.3177 N   0  0  0  0  0  0  0  0  0  0  0  0
  -26.2480  -13.5368   20.7745 N   0  0  0  0  0  0  0  0  0  0  0  0
  -22.9881  -28.9239   22.0525 N   0  0  0  0  0  0  0  0  0  0  0  0
  -28.3525  -16.3430   22.2844 N   0  0  0  0  0  0  0  0  0  0  0  0
  -24.7981  -14.9250   19.5170 N   0  0  0  0  0  0  0  0  0  0  0  0
  -22.4627  -11.0816   19.9292 N   0  0  0  0  0  0  0  0  0  0  0  0
  -26.9833  -18.2581   22.1434 N   0  0  0  0  0  0  0  0  0  0  0  0
  -24.5762  -32.1691   22.5455 N   0  0  0  0  0  0  0  0  0  0  0  0
  -20.3770  -26.8013   22.4203 N   0  0  0  0  0  0  0  0  0  0  0  0
  -19.6951  -24.6576   19.5906 N   0  3  0  0  0  0  0  0  0  0  0  0
  -22.4264  -13.1965   19.0435 O   0  0  0  0  0  0  0  0  0  0  0  0
  -24.3908  -30.1967   23.7694 O   0  0  0  0  0  0  0  0  0  0  0  0
  -20.8423  -29.6196   22.6424 O   0  0  0  0  0  0  0  0  0  0  0  0
  -21.6606  -25.0720   21.5607 O   0  0  0  0  0  0  0  0  0  0  0  0
  -29.2815  -18.4572   22.3896 O   0  0  0  0  0  0  0  0  0  0  0  0
  -24.1357   -6.4803   22.5871 O   0  0  0  0  0  0  0  0  0  0  0  0
  -28.1963  -26.2721   20.0788 O   0  0  0  0  0  0  0  0  0  1  0  0
  -19.1579   -5.3945   24.6958 F   0  0  0  0  0  0  0  0  0  0  0  0
  -21.8428   -6.9069   21.1028 F   0  0  0  0  0  0  0  0  0  0  0  0
  -26.9352  -23.9308   20.5077 F   0  0  0  0  0  0  0  0  0  0  0  0
  1  2  1  0  0  0  0
  1  6  2  0  0  0  0
  2  7  2  0  0  0  0
  3  9  2  0  0  0  0
  3 10  1  0  0  0  0
  4 11  2  0  0  0  0
  4 19  1  0  0  0  0
  5 12  1  0  0  0  0
  5 19  2  0  0  0  0
  6 21  1  0  0  0  0
  7 23  1  0  0  0  0
  8 13  2  0  0  0  0
  8 22  1  0  0  0  0
  9 25  1  0  0  0  0
 10 26  2  0  0  0  0
 11 27  1  0  0  0  0
 12 27  2  0  0  0  0
 13 28  1  0  0  0  0
 14 15  2  0  0  0  0
 14 29  1  0  0  0  0
 15 30  1  0  0  0  0
 16 24  1  0  0  0  0
 16 28  2  0  0  0  0
 17 25  2  0  0  0  0
 17 26  1  0  0  0  0
 18 30  2  0  0  0  0
 18 31  1  0  0  0  0
 19 32  1  0  0  0  0
 20 32  1  0  0  0  0
 20 33  2  0  0  0  0
 20 34  1  0  0  0  0
 21 23  2  0  0  0  0
 21 39  1  0  0  0  0
 22 24  2  0  0  0  0
 22 40  1  0  0  0  0
 23 48  1  0  0  0  0
 24 41  1  0  0  0  0
 25 64  1  0  0  0  0
 26 73  1  0  0  0  0
 27 82  1  0  0  0  0
 28 83  1  0  0  0  0
 29 31  2  0  0  0  0
 29 82  1  0  0  0  0
 30 84  1  0  0  0  0
 31 85  1  0  0  0  0
 32 67  2  0  0  0  0
 33 68  1  0  0  0  0
 33 71  1  0  0  0  0
 34 72  1  0  0  0  0
 34 77  2  0  0  0  0
 35 49  1  0  0  0  0
 35 74  1  0  0  0  0
 35 78  2  0  0  0  0
 36 61  1  0  0  0  0
 36 69  1  0  0  0  0
 36 79  2  0  0  0  0
 37 62  1  0  0  0  0
 37 75  1  0  0  0  0
 37 80  2  0  0  0  0
 38 70  1  0  0  0  0
 38 73  1  0  0  0  0
 38 81  2  0  0  0  0
 39 42  1  0  0  0  0
 40 49  1  0  0  0  0
 41 69  1  0  0  0  0
 42 44  1  0  0  0  0
 43 45  1  0  0  0  0
 43 46  1  0  0  0  0
 44 48  1  0  0  0  0
 45 50  1  0  0  0  0
 46 70  1  0  0  0  0
 47 50  1  0  0  0  0
 47 70  1  0  0  0  0
 48 74  1  0  0  0  0
 49 69  1  0  0  0  0
 50 68  1  0  0  0  0
 51 60  1  0  0  0  0
 52 62  1  0  0  0  0
 53 63  1  0  0  0  0
 54 64  1  0  0  0  0
 55 65  1  0  0  0  0
 56 65  1  0  0  0  0
 57 65  1  0  0  0  0
 58 66  1  0  0  0  0
 59 76  1  0  0  0  0
 60 64  1  0  0  0  0
 61 65  1  0  0  0  0
 61 75  1  0  0  0  0
 62 76  1  0  0  0  0
 63 66  1  0  0  0  0
 63 83  1  0  0  0  0
 64 66  1  0  0  0  0
 66 86  1  0  0  0  0
 67 68  1  0  0  0  0
M  CHG  1  76   1
M  ISO  4  38 100  63 101  73 100  83 101
M  END
> <Batch ID>
0141

> <Smiles>
CCC(C)(c1cccc([100NH:0][100C:0](=O)N2CCCC(n3nc(-c4ccc(Oc5ccc(F)cc5F)cc4)c(C(N)=O)c3N)C2)c1)C(C)(F)[101CH:1](C)[101O:1]c1ccc2c(c1)CN(C(=O)C(NC(=O)C(C)NC)C(C)(C)C)C(C(=O)NC1CCCc3ccccc31)C2

> <Shape>
0.296

> <Color>
0.088

> <Negative vol penalty>
0.000

$$$$

  -OEChem-04052302543D

 85 94  0     1  0  0  0  0  0999 V2000
  -31.5894  -34.4030   20.7450 C   0  0  0  0  0  0  0  0  0  0  0  0
  -31.5918  -33.1229   21.2898 C   0  0  0  0  0  0  0  0  0  0  0  0
  -32.6487  -17.4914   23.4592 C   0  0  0  0  0  0  0  0  0  0  0  0
  -23.0759   -9.8667   19.9389 C   0  0  0  0  0  0  0  0  0  0  0  0
  -23.8363   -9.8711   22.2321 C   0  0  0  0  0  0  0  0  0  0  0  0
  -31.8508  -18.3567   24.2076 C   0  0  0  0  0  0  0  0  0  0  0  0
  -30.8995  -34.6536   19.5596 C   0  0  0  0  0  0  0  0  0  0  0  0
  -30.9033  -32.0929   20.6499 C   0  0  0  0  0  0  0  0  0  0  0  0
  -32.5170  -26.1907   20.3918 C   0  0  0  0  0  0  0  0  0  0  0  0
  -32.0607  -16.6083   22.5535 C   0  0  0  0  0  0  0  0  0  0  0  0
  -22.3326   -8.7129   20.1875 C   0  0  0  0  0  0  0  0  0  0  0  0
  -23.0929   -8.7174   22.4808 C   0  0  0  0  0  0  0  0  0  0  0  0
  -32.1138  -25.0752   21.1244 C   0  0  0  0  0  0  0  0  0  0  0  0
  -19.8652   -7.9174   23.0830 C   0  0  0  0  0  0  0  0  0  0  0  0
  -19.1085   -7.8757   24.2540 C   0  0  0  0  0  0  0  0  0  0  0  0
  -29.8769  -17.4558   23.1448 C   0  0  0  0  0  0  0  0  0  0  0  0
  -30.5189  -24.5266   19.3997 C   0  0  0  0  0  0  0  0  0  0  0  0
  -20.3509   -5.9379   24.9878 C   0  0  0  0  0  0  0  0  0  0  0  0
  -23.8278  -10.4458   20.9611 C   0  0  0  0  0  0  0  0  0  0  0  0
  -30.4649  -18.3390   24.0504 C   0  0  0  0  0  0  0  0  0  0  0  0
  -24.1686  -12.9712   20.8441 C   0  0  0  0  0  0  0  0  0  0  0  0
  -30.2102  -33.6240   18.8998 C   0  0  0  0  0  0  0  0  0  0  0  0
  -31.9156  -26.4892   19.1607 C   0  0  0  0  0  0  0  0  0  0  0  0
  -30.2024  -32.3303   19.4553 C   0  0  0  0  0  0  0  0  0  0  0  0
  -30.9181  -25.6451   18.6522 C   0  0  0  0  0  0  0  0  0  0  0  0
  -30.6749  -16.5905   22.3964 C   0  0  0  0  0  0  0  0  0  0  0  0
  -22.3411   -8.1382   21.4585 C   0  0  0  0  0  0  0  0  0  0  0  0
  -31.1126  -24.2445   20.6297 C   0  0  0  0  0  0  0  0  0  0  0  0
  -20.8647   -6.9693   22.8643 C   0  0  0  0  0  0  0  0  0  0  0  0
  -19.3513   -6.8860   25.2064 C   0  0  0  0  0  0  0  0  0  0  0  0
  -21.1076   -5.9796   23.8167 C   0  0  0  0  0  0  0  0  0  0  0  0
  -24.5964  -11.6373   20.7047 C   0  0  0  0  0  0  0  0  0  0  0  0
  -25.2603  -13.7216   20.4816 C   0  0  0  0  0  0  0  0  0  0  0  0
  -29.2280  -22.3101   22.9937 C   0  0  0  0  0  0  0  0  0  0  0  0
  -29.6975  -23.3097   22.2404 C   0  0  0  0  0  0  0  0  0  1  0  0
  -29.6210  -19.2533   24.8404 C   0  0  0  0  0  0  0  0  0  0  0  0
  -22.8979  -13.4860   21.2639 C   0  0  0  0  0  0  0  0  0  0  0  0
  -30.2129  -28.9224   18.0273 C   0  0  0  0  0  0  0  0  0  0  0  0
  -30.4786  -27.2988   15.2316 C   0  0  0  0  0  0  0  0  0  0  0  0
  -30.9755  -24.3162   13.6493 C   0  0  0  0  0  0  0  0  0  0  0  0
  -30.7261  -14.7693   20.6565 C   0  0  0  0  0  0  0  0  0  0  0  0
  -29.4396  -33.9537   17.6460 C   0  0  0  0  0  0  0  0  0  0  0  0
  -32.3805  -27.6814   18.3701 C   0  0  0  0  0  0  0  0  0  0  0  0
  -30.2549  -25.9102   17.3262 C   0  0  0  0  0  0  0  0  0  0  0  0
  -28.1131  -22.4298   23.9909 C   0  0  0  0  0  0  0  0  0  0  0  0
  -29.8151  -20.9331   23.0547 C   0  0  0  0  0  0  0  0  0  0  0  0
  -29.0463  -32.7238   16.8317 C   0  0  0  0  0  0  0  0  0  0  0  0
  -29.6123  -12.3579   18.2855 C   0  0  0  0  0  0  0  0  0  0  0  0
  -28.4599  -31.6475   17.7397 C   0  0  0  0  0  0  0  0  0  0  0  0
  -28.1728  -12.0652   18.7150 C   0  0  0  0  0  0  0  0  0  0  0  0
  -28.5055  -21.4336   25.0752 C   0  0  0  0  0  0  0  0  0  0  0  0
  -30.5275  -12.5857   19.4873 C   0  0  0  0  0  0  0  0  0  0  0  0
  -28.6205  -13.3076   20.8698 C   0  0  0  0  0  0  0  0  0  0  0  0
  -29.4879  -31.1812   18.7776 C   0  0  1  0  0  0  0  0  0  0  0  0
  -31.3406  -28.1778   17.3703 C   0  0  1  0  0  0  0  0  0  0  0  0
  -27.6475  -13.1354   19.6919 C   0  0  2  0  0  0  0  0  0  0  0  0
  -31.1009  -23.2981   11.3591 C   0  0  0  0  0  0  0  0  0  0  0  0
  -27.4393  -27.4430   15.0038 C   0  0  0  0  0  0  0  0  0  0  0  0
  -27.5538  -25.6428   13.2675 C   0  0  0  0  0  0  0  0  0  0  0  0
  -28.6660  -27.8383   12.8606 C   0  0  0  0  0  0  0  0  0  0  0  0
  -33.7710  -23.4385   14.0659 C   0  0  0  0  0  0  0  0  0  0  0  0
  -29.6704  -26.2314   14.5343 C   0  0  1  0  0  0  0  0  0  0  0  0
  -31.8869  -23.9252   12.5001 C   0  0  2  0  0  0  0  0  0  0  0  0
  -28.3433  -26.7847   13.9425 C   0  0  0  0  0  0  0  0  0  0  0  0
  -25.8612  -11.5425   20.2861 N   0  0  0  0  0  0  0  0  0  0  0  0
  -26.2375  -12.8264   20.1593 N   0  0  0  0  0  0  0  0  0  0  0  0
  -29.3333  -20.4495   24.3592 N   0  0  0  0  0  0  0  0  0  0  0  0
  -30.7397  -27.0916   16.5935 N   0  0  0  0  0  0  0  0  0  0  0  0
  -29.9683  -13.6152   20.3660 N   0  0  0  0  0  0  0  0  0  0  0  0
  -25.4701  -15.0533   20.4102 N   0  0  0  0  0  0  0  0  0  0  0  0
  -21.8865  -12.5759   21.6003 N   0  0  0  0  0  0  0  0  0  0  0  0
  -30.0785  -15.6931   21.4762 N   0  0  0  0  0  0  0  0  0  0  0  0
  -30.4426  -30.2772   18.1727 N   0  0  0  0  0  0  0  0  0  0  0  0
  -30.5584  -25.6265   13.5474 N   0  0  0  0  0  0  0  0  0  0  0  0
  -29.1611  -18.8592   26.0242 N   0  3  0  0  0  0  0  0  0  0  0  0
  -32.9099  -22.9443   12.9608 N   0  3  0  0  0  0  0  0  0  0  0  0
  -22.6612  -14.7164   21.3228 O   0  0  0  0  0  0  0  0  0  0  0  0
  -29.2082  -28.3130   18.3753 O   0  0  0  0  0  0  0  0  0  0  0  0
  -30.8701  -28.2769   14.5899 O   0  0  0  0  0  0  0  0  0  0  0  0
  -30.6617  -23.5361   14.5457 O   0  0  0  0  0  0  0  0  0  0  0  0
  -31.8550  -14.9391   20.1889 O   0  0  0  0  0  0  0  0  0  0  0  0
  -21.6156   -7.0125   21.7016 O   0  0  0  0  0  0  0  0  0  0  0  0
  -30.7167  -23.1554   21.3431 O   0  0  0  0  0  0  0  0  0  1  0  0
  -18.6256   -6.8470   26.3316 F   0  0  0  0  0  0  0  0  0  0  0  0
  -22.0672   -5.0668   23.6128 F   0  0  0  0  0  0  0  0  0  0  0  0
  1  2  1  0  0  0  0
  1  7  2  0  0  0  0
  2  8  2  0  0  0  0
  3  6  2  0  0  0  0
  3 10  1  0  0  0  0
  4 11  2  0  0  0  0
  4 19  1  0  0  0  0
  5 12  1  0  0  0  0
  5 19  2  0  0  0  0
  6 20  1  0  0  0  0
  7 22  1  0  0  0  0
  8 24  1  0  0  0  0
  9 13  2  0  0  0  0
  9 23  1  0  0  0  0
 10 26  2  0  0  0  0
 11 27  1  0  0  0  0
 12 27  2  0  0  0  0
 13 28  1  0  0  0  0
 14 15  2  0  0  0  0
 14 29  1  0  0  0  0
 15 30  1  0  0  0  0
 16 20  2  0  0  0  0
 16 26  1  0  0  0  0
 17 25  1  0  0  0  0
 17 28  2  0  0  0  0
 18 30  2  0  0  0  0
 18 31  1  0  0  0  0
 19 32  1  0  0  0  0
 20 36  1  0  0  0  0
 21 32  1  0  0  0  0
 21 33  2  0  0  0  0
 21 37  1  0  0  0  0
 22 24  2  0  0  0  0
 22 42  1  0  0  0  0
 23 25  2  0  0  0  0
 23 43  1  0  0  0  0
 24 54  1  0  0  0  0
 25 44  1  0  0  0  0
 26 72  1  0  0  0  0
 27 82  1  0  0  0  0
 28 83  1  0  0  0  0
 29 31  2  0  0  0  0
 29 82  1  0  0  0  0
 30 84  1  0  0  0  0
 31 85  1  0  0  0  0
 32 65  2  0  0  0  0
 33 66  1  0  0  0  0
 33 70  1  0  0  0  0
 34 35  2  0  0  0  0
 34 45  1  0  0  0  0
 34 46  1  0  0  0  0
 35 83  1  0  0  0  0
 36 67  1  0  0  0  0
 36 75  2  0  0  0  0
 37 71  1  0  0  0  0
 37 77  2  0  0  0  0
 38 55  1  0  0  0  0
 38 73  1  0  0  0  0
 38 78  2  0  0  0  0
 39 62  1  0  0  0  0
 39 68  1  0  0  0  0
 39 79  2  0  0  0  0
 40 63  1  0  0  0  0
 40 74  1  0  0  0  0
 40 80  2  0  0  0  0
 41 69  1  0  0  0  0
 41 72  1  0  0  0  0
 41 81  2  0  0  0  0
 42 47  1  0  0  0  0
 43 55  1  0  0  0  0
 44 68  1  0  0  0  0
 45 51  1  0  0  0  0
 46 67  1  0  0  0  0
 47 49  1  0  0  0  0
 48 50  1  0  0  0  0
 48 52  1  0  0  0  0
 49 54  1  0  0  0  0
 50 56  1  0  0  0  0
 51 67  1  0  0  0  0
 52 69  1  0  0  0  0
 53 56  1  0  0  0  0
 53 69  1  0  0  0  0
 54 73  1  0  0  0  0
 55 68  1  0  0  0  0
 56 66  1  0  0  0  0
 57 63  1  0  0  0  0
 58 64  1  0  0  0  0
 59 64  1  0  0  0  0
 60 64  1  0  0  0  0
 61 76  1  0  0  0  0
 62 64  1  0  0  0  0
 62 74  1  0  0  0  0
 63 76  1  0  0  0  0
 65 66  1  0  0  0  0
M  CHG  2  75   1  76   1
M  ISO  4  35 101  41 100  72 100  83 101
M  END
> <Batch ID>
0141

> <Smiles>
CNC(C)C(=O)NC(C(=O)N1Cc2cc([101O:1][101CH:1]=C3CCN(C(=N)c4cccc([100NH:0][100C:0](=O)N5CCCC(n6nc(-c7ccc(Oc8ccc(F)cc8F)cc7)c(C(N)=O)c6N)C5)c4)C3)ccc2CC1C(=O)NC1CCCc2ccccc21)C(C)(C)C

> <Shape>
0.206

> <Color>
0.188

> <Negative vol penalty>
0.000

$$$$

  -OEChem-04052302543D

 86 94  0     1  0  0  0  0  0999 V2000
  -27.7275  -34.2555   25.6328 C   0  0  0  0  0  0  0  0  0  0  0  0
  -27.9869  -33.0482   24.9922 C   0  0  0  0  0  0  0  0  0  0  0  0
  -24.6243   -8.5770   21.4583 C   0  0  0  0  0  0  0  0  0  0  0  0
  -22.9129  -10.2569   21.1653 C   0  0  0  0  0  0  0  0  0  0  0  0
  -26.4426  -34.5357   26.0959 C   0  0  0  0  0  0  0  0  0  0  0  0
  -26.9617  -32.1198   24.8152 C   0  0  0  0  0  0  0  0  0  0  0  0
  -26.9104  -30.1478   20.1511 C   0  0  0  0  0  0  0  0  0  0  0  0
  -23.7715   -7.8534   22.2917 C   0  0  0  0  0  0  0  0  0  0  0  0
  -22.0600   -9.5334   21.9988 C   0  0  0  0  0  0  0  0  0  0  0  0
  -27.8481  -29.1553   19.8690 C   0  0  0  0  0  0  0  0  0  0  0  0
  -21.1404   -5.7576   21.9486 C   0  0  0  0  0  0  0  0  0  0  0  0
  -21.0531   -4.3800   21.7483 C   0  0  0  0  0  0  0  0  0  0  0  0
  -26.1546  -27.4697   20.2003 C   0  0  0  0  0  0  0  0  0  0  0  0
  -26.9300  -19.2968   20.5518 C   0  0  0  0  0  0  0  0  0  0  0  0
  -21.8276   -4.0026   24.0055 C   0  0  0  0  0  0  0  0  0  0  0  0
  -24.9176  -18.4064   20.1859 C   0  0  0  0  0  0  0  0  0  0  0  0
  -24.1951   -9.7788   20.8951 C   0  0  0  0  0  0  0  0  0  0  0  0
  -25.2002  -10.4103   18.6371 C   0  0  0  0  0  0  0  0  0  0  0  0
  -25.3989  -33.6143   25.9158 C   0  0  0  0  0  0  0  0  0  0  0  0
  -25.5882  -29.8076   20.4710 C   0  0  0  0  0  0  0  0  0  0  0  0
  -25.6619  -32.3873   25.2774 C   0  0  0  0  0  0  0  0  0  0  0  0
  -25.2014  -28.4599   20.4835 C   0  0  0  0  0  0  0  0  0  0  0  0
  -26.2250  -18.0734   20.4534 C   0  0  0  0  0  0  0  0  0  0  0  0
  -22.4893   -8.3316   22.5620 C   0  0  0  0  0  0  0  0  0  0  0  0
  -27.4709  -27.8159   19.8965 C   0  0  0  0  0  0  0  0  0  0  0  0
  -21.5713   -6.2577   23.1774 C   0  0  0  0  0  0  0  0  0  0  0  0
  -21.3967   -3.5025   22.7767 C   0  0  0  0  0  0  0  0  0  0  0  0
  -21.9149   -5.3802   24.2058 C   0  0  0  0  0  0  0  0  0  0  0  0
  -25.0758  -10.5269   20.0345 C   0  0  0  0  0  0  0  0  0  0  0  0
  -26.1613  -11.3318   18.2999 C   0  0  0  0  0  0  0  0  0  0  0  0
  -26.0030  -20.2901   20.3372 C   0  0  0  0  0  0  0  0  0  0  0  0
  -28.2215  -25.6925   21.7670 C   0  0  0  0  0  0  0  0  0  0  0  0
  -24.5088   -9.5463   17.7255 C   0  0  0  0  0  0  0  0  0  0  0  0
  -27.3327  -24.6821   21.6716 C   0  0  0  0  0  0  0  0  0  0  0  0
  -23.7231  -30.2025   23.0145 C   0  0  0  0  0  0  0  0  0  0  0  0
  -21.4534  -28.9608   21.0577 C   0  0  0  0  0  0  0  0  0  0  0  0
  -27.2792  -22.4538   20.5163 C   0  0  0  0  0  0  0  0  0  0  0  0
  -20.7103  -27.0516   18.3284 C   0  0  0  0  0  0  0  0  0  0  0  0
  -28.0498  -16.3864   20.8667 C   0  0  0  0  0  0  0  0  0  0  0  0
  -24.0371  -33.9415   26.4755 C   0  0  0  0  0  0  0  0  0  0  0  0
  -24.5822  -30.8913   20.7466 C   0  0  0  0  0  0  0  0  0  0  0  0
  -23.7894  -28.0430   20.8013 C   0  0  0  0  0  0  0  0  0  0  0  0
  -22.9213  -33.0633   25.9153 C   0  0  0  0  0  0  0  0  0  0  0  0
  -30.0262  -13.5324   20.0758 C   0  0  0  0  0  0  0  0  0  0  0  0
  -23.3390  -31.5963   25.9286 C   0  0  0  0  0  0  0  0  0  0  0  0
  -28.9921  -12.4287   19.8423 C   0  0  0  0  0  0  0  0  0  0  0  0
  -29.6041  -14.4765   21.2002 C   0  0  0  0  0  0  0  0  0  0  0  0
  -27.2274  -13.9498   20.8217 C   0  0  0  0  0  0  0  0  0  0  0  0
  -24.5704  -31.3652   25.0445 C   0  0  1  0  0  0  0  0  0  0  0  0
  -23.3891  -30.4053   21.5637 C   0  0  1  0  0  0  0  0  0  0  0  0
  -27.5778  -13.0120   19.6549 C   0  0  2  0  0  0  0  0  0  0  0  0
  -26.5693  -24.2354   22.8939 C   0  0  0  0  0  0  0  0  0  0  0  0
  -18.7650  -26.1887   16.9985 C   0  0  0  0  0  0  0  0  0  0  0  0
  -30.0753  -25.2580   20.1595 C   0  0  0  0  0  0  0  0  0  0  0  0
  -29.9212  -27.4647   21.3569 C   0  0  0  0  0  0  0  0  0  0  0  0
  -20.8833  -26.8993   23.2337 C   0  0  0  0  0  0  0  0  0  0  0  0
  -19.6625  -25.5361   21.5251 C   0  0  0  0  0  0  0  0  0  0  0  0
  -18.8477  -27.8201   22.1100 C   0  0  0  0  0  0  0  0  0  0  0  0
  -21.6167  -28.4454   15.8800 C   0  0  0  0  0  0  0  0  0  0  0  0
  -26.9739  -23.9450   20.4073 C   0  0  0  0  0  0  0  0  0  0  0  0
  -20.9589  -27.5700   20.7416 C   0  0  1  0  0  0  0  0  0  0  0  0
  -19.7927  -27.3001   17.1449 C   0  0  2  0  0  0  0  0  0  0  0  0
  -29.1256  -26.3211   20.7233 C   0  0  0  0  0  0  0  0  0  1  0  0
  -20.1152  -26.9638   21.8985 C   0  0  0  0  0  0  0  0  0  0  0  0
  -25.8927  -11.4496   20.5497 N   0  0  0  0  0  0  0  0  0  0  0  0
  -26.5396  -11.9211   19.4702 N   0  0  0  0  0  0  0  0  0  0  0  0
  -22.8440  -29.1391   21.0699 N   0  0  0  0  0  0  0  0  0  0  0  0
  -28.2563  -14.9933   20.9528 N   0  0  0  0  0  0  0  0  0  0  0  0
  -26.7113  -11.6872   17.1193 N   0  0  0  0  0  0  0  0  0  0  0  0
  -23.5522   -8.6604   18.2397 N   0  0  0  0  0  0  0  0  0  0  0  0
  -26.7334  -16.7585   20.5961 N   0  0  0  0  0  0  0  0  0  0  0  0
  -26.1262  -21.6998   20.3149 N   0  0  0  0  0  0  0  0  0  0  0  0
  -24.1920  -31.3376   23.6479 N   0  0  0  0  0  0  0  0  0  0  0  0
  -20.2478  -27.6684   19.4716 N   0  0  0  0  0  0  0  0  0  0  0  0
  -20.5832  -27.3783   15.8840 N   0  3  0  0  0  0  0  0  0  0  0  0
  -24.7444   -9.5480   16.4934 O   0  0  0  0  0  0  0  0  0  0  0  0
  -23.5657  -29.0983   23.5221 O   0  0  0  0  0  0  0  0  0  0  0  0
  -20.6358  -29.8578   21.2784 O   0  0  0  0  0  0  0  0  0  0  0  0
  -28.4041  -22.0349   20.7712 O   0  0  0  0  0  0  0  0  0  0  0  0
  -21.7330  -26.3747   18.2477 O   0  0  0  0  0  0  0  0  0  0  0  0
  -28.9778  -17.1892   20.9946 O   0  0  0  0  0  0  0  0  0  0  0  0
  -24.7738  -19.7557   20.1134 O   0  0  0  0  0  0  0  0  0  0  0  0
  -21.6567   -7.6257   23.3750 O   0  0  0  0  0  0  0  0  0  0  0  0
  -28.3843  -26.8451   19.6222 O   0  0  0  0  0  0  0  0  0  1  0  0
  -21.3113   -2.1796   22.5846 F   0  0  0  0  0  0  0  0  0  0  0  0
  -22.3285   -5.8548   25.3888 F   0  0  0  0  0  0  0  0  0  0  0  0
  1  2  1  0  0  0  0
  1  5  2  0  0  0  0
  2  6  2  0  0  0  0
  3  8  2  0  0  0  0
  3 17  1  0  0  0  0
  4  9  1  0  0  0  0
  4 17  2  0  0  0  0
  5 19  1  0  0  0  0
  6 21  1  0  0  0  0
  7 10  2  0  0  0  0
  7 20  1  0  0  0  0
  8 24  1  0  0  0  0
  9 24  2  0  0  0  0
 10 25  1  0  0  0  0
 11 12  2  0  0  0  0
 11 26  1  0  0  0  0
 12 27  1  0  0  0  0
 13 22  1  0  0  0  0
 13 25  2  0  0  0  0
 14 23  1  0  0  0  0
 14 31  2  0  0  0  0
 15 27  2  0  0  0  0
 15 28  1  0  0  0  0
 16 23  2  0  0  0  0
 16 82  1  0  0  0  0
 17 29  1  0  0  0  0
 18 29  1  0  0  0  0
 18 30  2  0  0  0  0
 18 33  1  0  0  0  0
 19 21  2  0  0  0  0
 19 40  1  0  0  0  0
 20 22  2  0  0  0  0
 20 41  1  0  0  0  0
 21 49  1  0  0  0  0
 22 42  1  0  0  0  0
 23 71  1  0  0  0  0
 24 83  1  0  0  0  0
 25 84  1  0  0  0  0
 26 28  2  0  0  0  0
 26 83  1  0  0  0  0
 27 85  1  0  0  0  0
 28 86  1  0  0  0  0
 29 65  2  0  0  0  0
 30 66  1  0  0  0  0
 30 69  1  0  0  0  0
 31 72  1  0  0  0  0
 31 82  1  0  0  0  0
 32 34  2  0  0  0  0
 32 63  1  0  0  0  0
 33 70  1  0  0  0  0
 33 76  2  0  0  0  0
 34 52  1  0  0  0  0
 34 60  1  0  0  0  0
 35 50  1  0  0  0  0
 35 73  1  0  0  0  0
 35 77  2  0  0  0  0
 36 61  1  0  0  0  0
 36 67  1  0  0  0  0
 36 78  2  0  0  0  0
 37 60  1  0  0  0  0
 37 72  1  0  0  0  0
 37 79  2  0  0  0  0
 38 62  1  0  0  0  0
 38 74  1  0  0  0  0
 38 80  2  0  0  0  0
 39 68  1  0  0  0  0
 39 71  1  0  0  0  0
 39 81  2  0  0  0  0
 40 43  1  0  0  0  0
 41 50  1  0  0  0  0
 42 67  1  0  0  0  0
 43 45  1  0  0  0  0
 44 46  1  0  0  0  0
 44 47  1  0  0  0  0
 45 49  1  0  0  0  0
 46 51  1  0  0  0  0
 47 68  1  0  0  0  0
 48 51  1  0  0  0  0
 48 68  1  0  0  0  0
 49 73  1  0  0  0  0
 50 67  1  0  0  0  0
 51 66  1  0  0  0  0
 53 62  1  0  0  0  0
 54 63  1  0  0  0  0
 55 63  1  0  0  0  0
 56 64  1  0  0  0  0
 57 64  1  0  0  0  0
 58 64  1  0  0  0  0
 59 75  1  0  0  0  0
 61 64  1  0  0  0  0
 61 74  1  0  0  0  0
 62 75  1  0  0  0  0
 63 84  1  0  0  0  0
 65 66  1  0  0  0  0
M  CHG  1  75   1
M  ISO  4  39 100  63 101  71 100  84 101
M  END
> <Batch ID>
0141

> <Smiles>
CNC(C)C(=O)NC(C(=O)N1Cc2cc([101O:1][101C:1](C)(C)C=C(C)CC(=O)Nc3cc([100NH:0][100C:0](=O)N4CCCC(n5nc(-c6ccc(Oc7ccc(F)cc7F)cc6)c(C(N)=O)c5N)C4)co3)ccc2CC1C(=O)NC1CCCc2ccccc21)C(C)(C)C

> <Shape>
0.322

> <Color>
0.099

> <Negative vol penalty>
0.000

$$$$

  -OEChem-04052302543D

 91101  0     1  0  0  0  0  0999 V2000
  -24.3494  -16.5098   24.0264 C   0  0  0  0  0  0  0  0  0  0  0  0
  -25.0069  -17.7339   24.0741 C   0  0  0  0  0  0  0  0  0  0  0  0
  -23.8960  -10.0150   22.4860 C   0  0  0  0  0  0  0  0  0  0  0  0
  -24.3626  -11.6751   24.1781 C   0  0  0  0  0  0  0  0  0  0  0  0
  -23.0388  -16.4448   23.5582 C   0  0  0  0  0  0  0  0  0  0  0  0
  -24.3502  -18.8949   23.6649 C   0  0  0  0  0  0  0  0  0  0  0  0
  -26.6804  -23.1627   24.4129 C   0  0  0  0  0  0  0  0  0  0  0  0
  -23.3998   -9.1555   23.4660 C   0  0  0  0  0  0  0  0  0  0  0  0
  -23.8663  -10.8156   25.1582 C   0  0  0  0  0  0  0  0  0  0  0  0
  -27.7929  -23.5544   23.6694 C   0  0  0  0  0  0  0  0  0  0  0  0
  -22.3891   -9.1989   28.0604 C   0  0  0  0  0  0  0  0  0  0  0  0
  -21.5295   -9.7349   29.0191 C   0  0  0  0  0  0  0  0  0  0  0  0
  -26.4065  -25.0701   22.4047 C   0  0  0  0  0  0  0  0  0  0  0  0
  -31.1719  -22.4813   24.9091 C   0  0  0  0  0  0  0  0  0  0  0  0
  -19.9838  -10.3742   27.2757 C   0  0  0  0  0  0  0  0  0  0  0  0
  -32.6362  -16.6811   22.1288 C   0  0  0  0  0  0  0  0  0  0  0  0
  -24.3775  -11.2748   22.8420 C   0  0  0  0  0  0  0  0  0  0  0  0
  -24.1677  -13.1190   21.0919 C   0  0  0  0  0  0  0  0  0  0  0  0
  -22.3706  -17.6043   23.1314 C   0  0  0  0  0  0  0  0  0  0  0  0
  -25.4184  -23.7147   24.1500 C   0  0  0  0  0  0  0  0  0  0  0  0
  -23.0192  -18.8534   23.2116 C   0  0  0  0  0  0  0  0  0  0  0  0
  -25.2801  -24.6856   23.1479 C   0  0  0  0  0  0  0  0  0  0  0  0
  -31.3976  -23.7658   24.3592 C   0  0  0  0  0  0  0  0  0  0  0  0
  -23.3849   -9.5557   24.8021 C   0  0  0  0  0  0  0  0  0  0  0  0
  -27.6555  -24.5061   22.6632 C   0  0  0  0  0  0  0  0  0  0  0  0
  -22.0462   -9.2506   26.7093 C   0  0  0  0  0  0  0  0  0  0  0  0
  -20.3268  -10.3225   28.6268 C   0  0  0  0  0  0  0  0  0  0  0  0
  -20.8435   -9.8382   26.3170 C   0  0  0  0  0  0  0  0  0  0  0  0
  -24.8908  -12.1630   21.8302 C   0  0  0  0  0  0  0  0  0  0  0  0
  -32.3874  -22.0523   25.3892 C   0  0  0  0  0  0  0  0  0  0  0  0
  -32.7349  -24.0303   24.5428 C   0  0  0  0  0  0  0  0  0  0  0  0
  -25.1032  -13.6964   20.2686 C   0  0  0  0  0  0  0  0  0  0  0  0
  -31.3976  -16.1362   22.3951 C   0  0  0  0  0  0  0  0  0  0  0  0
  -32.1048  -17.9052   23.8692 C   0  0  0  0  0  0  0  0  0  0  0  0
  -22.7749  -13.4550   21.1456 C   0  0  0  0  0  0  0  0  0  0  0  0
  -22.6180  -22.5550   23.1927 C   0  0  0  0  0  0  0  0  0  0  0  0
  -21.6123  -25.5884   23.7489 C   0  0  0  0  0  0  0  0  0  0  0  0
  -22.4008  -28.8973   24.0253 C   0  0  0  0  0  0  0  0  0  0  0  0
  -31.0299  -14.3531   20.6538 C   0  0  0  0  0  0  0  0  0  0  0  0
  -20.9498  -17.4776   22.6410 C   0  0  0  0  0  0  0  0  0  0  0  0
  -24.2333  -23.3012   24.9788 C   0  0  0  0  0  0  0  0  0  0  0  0
  -23.9509  -25.3236   22.8399 C   0  0  0  0  0  0  0  0  0  0  0  0
  -20.4952  -18.6794   21.8192 C   0  0  0  0  0  0  0  0  0  0  0  0
  -29.2320  -12.7370   18.0399 C   0  0  0  0  0  0  0  0  0  0  0  0
  -20.8205  -19.9682   22.5592 C   0  0  0  0  0  0  0  0  0  0  0  0
  -27.8470  -12.4989   18.6459 C   0  0  0  0  0  0  0  0  0  0  0  0
  -31.7931  -19.9961   26.8860 C   0  0  0  0  0  0  0  0  0  0  0  0
  -30.3417  -12.5619   19.0750 C   0  0  0  0  0  0  0  0  0  0  0  0
  -31.1374  -19.0764   25.8565 C   0  0  0  0  0  0  0  0  0  0  0  0
  -33.3374  -19.7160   25.0893 C   0  0  0  0  0  0  0  0  0  0  0  0
  -28.7912  -13.1127   20.9084 C   0  0  0  0  0  0  0  0  0  0  0  0
  -22.3353  -20.1250   22.7430 C   0  0  1  0  0  0  0  0  0  0  0  0
  -32.8398  -20.7805   26.0885 C   0  0  1  0  0  0  0  0  0  0  0  0
  -22.8998  -23.5516   24.2813 C   0  0  1  0  0  0  0  0  0  0  0  0
  -27.6366  -13.3414   19.9193 C   0  0  2  0  0  0  0  0  0  0  0  0
  -33.5937  -25.1747   24.2038 C   0  0  0  0  0  0  0  0  0  0  0  0
  -21.3607  -31.1415   24.4485 C   0  0  0  0  0  0  0  0  0  0  0  0
  -20.5101  -25.6113   20.9039 C   0  0  0  0  0  0  0  0  0  0  0  0
  -20.3554  -28.1054   21.0583 C   0  0  0  0  0  0  0  0  0  0  0  0
  -19.0215  -26.6765   22.6080 C   0  0  0  0  0  0  0  0  0  0  0  0
  -29.8569  -22.7643   22.0550 C   0  0  0  0  0  0  0  0  0  0  0  0
  -31.0368  -24.8384   21.2894 C   0  0  0  0  0  0  0  0  0  0  0  0
  -24.0234  -29.3186   26.4643 C   0  0  0  0  0  0  0  0  0  0  0  0
  -30.3722  -24.6616   23.7024 C   0  0  0  0  0  0  0  0  0  0  0  0
  -21.5231  -26.8525   22.9285 C   0  0  1  0  0  0  0  0  0  0  0  0
  -22.0416  -29.9341   25.0742 C   0  0  2  0  0  0  0  0  0  0  0  0
  -20.3773  -26.7982   21.8789 C   0  0  0  0  0  0  0  0  0  0  0  0
  -29.9874  -24.2763   22.2567 C   0  0  0  0  0  0  0  0  0  1  0  0
  -33.0432  -17.6959   22.9727 N   0  0  0  0  0  0  0  0  0  0  0  0
  -26.1858  -12.1317   21.5045 N   0  0  0  0  0  0  0  0  0  0  0  0
  -26.2838  -13.0752   20.5525 N   0  0  0  0  0  0  0  0  0  0  0  0
  -32.1818  -18.8480   24.8639 N   0  0  3  0  0  0  0  0  0  0  0  0
  -22.8208  -24.8815   23.6736 N   0  0  0  0  0  0  0  0  0  0  0  0
  -30.0774  -13.3932   20.2513 N   0  0  0  0  0  0  0  0  0  0  0  0
  -25.0230  -14.6699   19.3368 N   0  0  0  0  0  0  0  0  0  0  0  0
  -21.9552  -12.7641   22.0484 N   0  0  0  0  0  0  0  0  0  0  0  0
  -30.6549  -15.1066   21.7657 N   0  0  0  0  0  0  0  0  0  0  0  0
  -22.5907  -21.2427   23.6247 N   0  0  0  0  0  0  0  0  0  0  0  0
  -21.4085  -27.9507   23.8820 N   0  0  0  0  0  0  0  0  0  0  0  0
  -23.2670  -30.4004   25.7827 N   0  3  0  0  0  0  0  0  0  0  0  0
  -22.2690  -14.3303   20.4031 O   0  0  0  0  0  0  0  0  0  0  0  0
  -22.4372  -22.9476   22.0461 O   0  0  0  0  0  0  0  0  0  0  0  0
  -20.6480  -25.2447   24.4371 O   0  0  0  0  0  0  0  0  0  0  0  0
  -23.4546  -28.9264   23.3934 O   0  0  0  0  0  0  0  0  0  0  0  0
  -32.0877  -14.5149   20.0398 O   0  0  0  0  0  0  0  0  0  0  0  0
  -33.3454  -22.9908   25.1700 O   0  0  0  0  0  0  0  0  0  0  0  0
  -22.9004   -8.7174   25.7587 O   0  0  0  0  0  0  0  0  0  0  0  0
  -28.7397  -24.8898   21.9357 O   0  0  0  0  0  0  0  0  0  1  0  0
  -19.5006  -10.8358   29.5478 F   0  0  0  0  0  0  0  0  0  0  0  0
  -20.5081   -9.8898   25.0206 F   0  0  0  0  0  0  0  0  0  0  0  0
  -30.7062  -16.9171   23.7565 S   0  0  0  0  0  0  0  0  0  0  0  0
  1  2  1  0  0  0  0
  1  5  2  0  0  0  0
  2  6  2  0  0  0  0
  3  8  2  0  0  0  0
  3 17  1  0  0  0  0
  4  9  1  0  0  0  0
  4 17  2  0  0  0  0
  5 19  1  0  0  0  0
  6 21  1  0  0  0  0
  7 10  2  0  0  0  0
  7 20  1  0  0  0  0
  8 24  1  0  0  0  0
  9 24  2  0  0  0  0
 10 25  1  0  0  0  0
 11 12  2  0  0  0  0
 11 26  1  0  0  0  0
 12 27  1  0  0  0  0
 13 22  1  0  0  0  0
 13 25  2  0  0  0  0
 14 23  1  0  0  0  0
 14 30  2  0  0  0  0
 15 27  2  0  0  0  0
 15 28  1  0  0  0  0
 16 33  2  0  0  0  0
 16 69  1  0  0  0  0
 17 29  1  0  0  0  0
 18 29  1  0  0  0  0
 18 32  2  0  0  0  0
 18 35  1  0  0  0  0
 19 21  2  0  0  0  0
 19 40  1  0  0  0  0
 20 22  2  0  0  0  0
 20 41  1  0  0  0  0
 21 52  1  0  0  0  0
 22 42  1  0  0  0  0
 23 31  2  0  0  0  0
 23 64  1  0  0  0  0
 24 87  1  0  0  0  0
 25 88  1  0  0  0  0
 26 28  2  0  0  0  0
 26 87  1  0  0  0  0
 27 89  1  0  0  0  0
 28 90  1  0  0  0  0
 29 70  2  0  0  0  0
 30 53  1  0  0  0  0
 30 86  1  0  0  0  0
 31 56  1  0  0  0  0
 31 86  1  0  0  0  0
 32 71  1  0  0  0  0
 32 75  1  0  0  0  0
 33 77  1  0  0  0  0
 33 91  1  0  0  0  0
 34 69  2  0  0  0  0
 34 72  1  0  0  0  0
 34 91  1  0  0  0  0
 35 76  1  0  0  0  0
 35 81  2  0  0  0  0
 36 54  1  0  0  0  0
 36 78  1  0  0  0  0
 36 82  2  0  0  0  0
 37 65  1  0  0  0  0
 37 73  1  0  0  0  0
 37 83  2  0  0  0  0
 38 66  1  0  0  0  0
 38 79  1  0  0  0  0
 38 84  2  0  0  0  0
 39 74  1  0  0  0  0
 39 77  1  0  0  0  0
 39 85  2  0  0  0  0
 40 43  1  0  0  0  0
 41 54  1  0  0  0  0
 42 73  1  0  0  0  0
 43 45  1  0  0  0  0
 44 46  1  0  0  0  0
 44 48  1  0  0  0  0
 45 52  1  0  0  0  0
 46 55  1  0  0  0  0
 47 49  1  0  0  0  0
 47 53  1  0  0  0  0
 48 74  1  0  0  0  0
 49 72  1  0  0  0  0
 50 53  1  0  0  0  0
 50 72  1  0  0  0  0
 51 55  1  0  0  0  0
 51 74  1  0  0  0  0
 52 78  1  0  0  0  0
 54 73  1  0  0  0  0
 55 71  1  0  0  0  0
 57 66  1  0  0  0  0
 58 67  1  0  0  0  0
 59 67  1  0  0  0  0
 60 67  1  0  0  0  0
 61 68  1  0  0  0  0
 62 68  1  0  0  0  0
 63 80  1  0  0  0  0
 64 68  1  0  0  0  0
 65 67  1  0  0  0  0
 65 79  1  0  0  0  0
 66 80  1  0  0  0  0
 68 88  1  0  0  0  0
 70 71  1  0  0  0  0
M  CHG  1  80   1
M  ISO  4  39 100  68 101  77 100  88 101
M  END
> <Batch ID>
0141

> <Smiles>
CNC(C)C(=O)NC(C(=O)N1Cc2cc([101O:1][101C:1](C)(C)Cc3cc(C4CCN(c5ncc([100NH:0][100C:0](=O)N6CCCC(n7nc(-c8ccc(Oc9ccc(F)cc9F)cc8)c(C(N)=O)c7N)C6)s5)C4)oc3C)ccc2CC1C(=O)NC1CCCc2ccccc21)C(C)(C)C

> <Shape>
0.157

> <Color>
0.119

> <Negative vol penalty>
0.000

$$$$

  -OEChem-04052302543D

 86 94  0     1  0  0  0  0  0999 V2000
  -16.7443  -27.4472   20.6175 C   0  0  0  0  0  0  0  0  0  0  0  0
  -17.9209  -27.7039   19.9211 C   0  0  0  0  0  0  0  0  0  0  0  0
  -25.2182  -13.9044   22.0999 C   0  0  0  0  0  0  0  0  0  0  0  0
  -26.7091  -13.8590   20.1993 C   0  0  0  0  0  0  0  0  0  0  0  0
  -16.6313  -27.8228   21.9554 C   0  0  0  0  0  0  0  0  0  0  0  0
  -18.9850  -28.3374   20.5620 C   0  0  0  0  0  0  0  0  0  0  0  0
  -23.4362  -26.1314   19.5793 C   0  0  0  0  0  0  0  0  0  0  0  0
  -24.4086  -12.9476   21.4877 C   0  0  0  0  0  0  0  0  0  0  0  0
  -25.8995  -12.9022   19.5871 C   0  0  0  0  0  0  0  0  0  0  0  0
  -24.0247  -26.4067   18.3458 C   0  0  0  0  0  0  0  0  0  0  0  0
  -24.4308   -9.5996   21.0154 C   0  0  0  0  0  0  0  0  0  0  0  0
  -23.9815   -8.5349   21.7966 C   0  0  0  0  0  0  0  0  0  0  0  0
  -25.4757  -28.0171   19.4043 C   0  0  0  0  0  0  0  0  0  0  0  0
  -29.1934  -22.6978   17.8560 C   0  0  0  0  0  0  0  0  0  0  0  0
  -30.3380  -22.3196   15.7622 C   0  0  0  0  0  0  0  0  0  0  0  0
  -30.3373  -20.6059   17.4652 C   0  0  0  0  0  0  0  0  0  0  0  0
  -21.6945   -9.1842   21.3660 C   0  0  0  0  0  0  0  0  0  0  0  0
  -26.3684  -14.3602   21.4556 C   0  0  0  0  0  0  0  0  0  0  0  0
  -28.2946  -15.1163   22.9474 C   0  0  0  0  0  0  0  0  0  0  0  0
  -17.6981  -28.4526   22.6158 C   0  0  0  0  0  0  0  0  0  0  0  0
  -23.8562  -26.8059   20.7347 C   0  0  0  0  0  0  0  0  0  0  0  0
  -18.8858  -28.7230   21.9097 C   0  0  0  0  0  0  0  0  0  0  0  0
  -24.8926  -27.7466   20.6517 C   0  0  0  0  0  0  0  0  0  0  0  0
  -29.5752  -23.1430   16.5904 C   0  0  0  0  0  0  0  0  0  0  0  0
  -29.5745  -21.4293   18.2934 C   0  0  0  0  0  0  0  0  0  0  0  0
  -24.7493  -12.4465   20.2313 C   0  0  0  0  0  0  0  0  0  0  0  0
  -25.0426  -27.3517   18.2576 C   0  0  0  0  0  0  0  0  0  0  0  0
  -23.5120  -10.4566   20.4096 C   0  0  0  0  0  0  0  0  0  0  0  0
  -22.6134   -8.3272   21.9718 C   0  0  0  0  0  0  0  0  0  0  0  0
  -30.7190  -21.0511   16.1996 C   0  0  0  0  0  0  0  0  0  0  0  0
  -22.1439  -10.2489   20.5849 C   0  0  0  0  0  0  0  0  0  0  0  0
  -27.2048  -15.3489   22.0872 C   0  0  0  0  0  0  0  0  0  0  0  0
  -28.7490  -16.3710   23.2729 C   0  0  0  0  0  0  0  0  0  0  0  0
  -28.8469  -13.8770   23.4108 C   0  0  0  0  0  0  0  0  0  0  0  0
  -22.4657  -28.7568   22.8238 C   0  0  0  0  0  0  0  0  0  0  0  0
  -25.2932  -28.4659   24.3867 C   0  0  0  0  0  0  0  0  0  0  0  0
  -28.4366  -25.3724   16.8348 C   0  0  0  0  0  0  0  0  0  0  0  0
  -28.6323  -27.7781   24.2310 C   0  0  0  0  0  0  0  0  0  0  0  0
  -28.4310  -21.6677   20.5254 C   0  0  0  0  0  0  0  0  0  0  0  0
  -17.5120  -28.8826   24.0494 C   0  0  0  0  0  0  0  0  0  0  0  0
  -23.2296  -26.4781   22.0623 C   0  0  0  0  0  0  0  0  0  0  0  0
  -25.3939  -28.4835   21.8658 C   0  0  0  0  0  0  0  0  0  0  0  0
  -18.8215  -29.2123   24.7612 C   0  0  0  0  0  0  0  0  0  0  0  0
  -27.2355  -20.8854   23.7867 C   0  0  0  0  0  0  0  0  0  0  0  0
  -19.6982  -30.0990   23.8826 C   0  0  0  0  0  0  0  0  0  0  0  0
  -27.1969  -19.3555   23.8014 C   0  0  0  0  0  0  0  0  0  0  0  0
  -26.8413  -21.4496   22.4229 C   0  0  0  0  0  0  0  0  0  0  0  0
  -27.5556  -19.3765   21.2998 C   0  0  0  0  0  0  0  0  0  0  0  0
  -20.0711  -29.3859   22.5773 C   0  0  1  0  0  0  0  0  0  0  0  0
  -23.3834  -27.5967   23.0881 C   0  0  1  0  0  0  0  0  0  0  0  0
  -28.0078  -18.7601   22.6336 C   0  0  2  0  0  0  0  0  0  0  0  0
  -30.6879  -27.6585   25.6655 C   0  0  0  0  0  0  0  0  0  0  0  0
  -25.4491  -31.5130   24.4134 C   0  0  0  0  0  0  0  0  0  0  0  0
  -27.8819  -31.3142   24.9703 C   0  0  0  0  0  0  0  0  0  0  0  0
  -26.1668  -30.4131   26.5416 C   0  0  0  0  0  0  0  0  0  0  0  0
  -26.8698  -28.0251   14.4500 C   0  0  0  0  0  0  0  0  0  0  0  0
  -26.8784  -25.5459   14.1594 C   0  0  0  0  0  0  0  0  0  0  0  0
  -29.0153  -24.9026   23.6446 C   0  0  0  0  0  0  0  0  0  0  0  0
  -28.2280  -26.6445   16.0227 C   0  0  0  0  0  0  0  0  0  0  0  0
  -25.6638  -26.5611   16.1024 C   0  0  0  0  0  0  0  0  0  1  0  0
  -26.6085  -29.2066   24.3641 C   0  0  1  0  0  0  0  0  0  0  0  0
  -29.5173  -26.8838   25.0805 C   0  0  2  0  0  0  0  0  0  0  0  0
  -26.5160  -30.5994   25.0490 C   0  0  0  0  0  0  0  0  0  0  0  0
  -26.9132  -26.6772   15.2020 C   0  0  0  0  0  0  0  0  0  0  0  0
  -26.9802  -16.6491   21.8794 N   0  0  0  0  0  0  0  0  0  0  0  0
  -27.9352  -17.2447   22.6138 N   0  0  0  0  0  0  0  0  0  0  0  0
  -24.7451  -28.1327   23.1400 N   0  0  0  0  0  0  0  0  0  0  0  0
  -27.6539  -20.8430   21.3662 N   0  0  0  0  0  0  0  0  0  0  0  0
  -29.7613  -16.8010   24.0557 N   0  0  0  0  0  0  0  0  0  0  0  0
  -28.2587  -12.6804   22.9789 N   0  0  0  0  0  0  0  0  0  0  0  0
  -29.1892  -24.4299   16.1462 N   0  0  0  0  0  0  0  0  0  0  0  0
  -29.1872  -20.9769   19.5791 N   0  0  0  0  0  0  0  0  0  0  0  0
  -21.1251  -28.4222   22.8112 N   0  0  0  0  0  0  0  0  0  0  0  0
  -27.5919  -28.3106   24.9627 N   0  0  0  0  0  0  0  0  0  0  0  0
  -30.0581  -25.7621   24.2618 N   0  3  0  0  0  0  0  0  0  0  0  0
  -29.8226  -13.8323   24.1980 O   0  0  0  0  0  0  0  0  0  0  0  0
  -22.9389  -29.8731   22.6460 O   0  0  0  0  0  0  0  0  0  0  0  0
  -24.7750  -28.1867   25.4708 O   0  0  0  0  0  0  0  0  0  0  0  0
  -27.9560  -25.2683   17.9600 O   0  0  0  0  0  0  0  0  0  0  0  0
  -28.8451  -27.9867   23.0386 O   0  0  0  0  0  0  0  0  0  0  0  0
  -28.4469  -22.8945   20.6545 O   0  0  0  0  0  0  0  0  0  0  0  0
  -23.9597  -11.5127   19.6337 O   0  0  0  0  0  0  0  0  0  0  0  0
  -25.6183  -27.6229   17.0547 O   0  0  0  0  0  0  0  0  0  1  0  0
  -22.1820   -7.3039   22.7207 F   0  0  0  0  0  0  0  0  0  0  0  0
  -31.4522  -20.2605   15.4048 F   0  0  0  0  0  0  0  0  0  0  0  0
  -21.2564  -11.0682   20.0044 F   0  0  0  0  0  0  0  0  0  0  0  0
  1  2  1  0  0  0  0
  1  5  2  0  0  0  0
  2  6  2  0  0  0  0
  3  8  2  0  0  0  0
  3 18  1  0  0  0  0
  4  9  1  0  0  0  0
  4 18  2  0  0  0  0
  5 20  1  0  0  0  0
  6 22  1  0  0  0  0
  7 10  2  0  0  0  0
  7 21  1  0  0  0  0
  8 26  1  0  0  0  0
  9 26  2  0  0  0  0
 10 27  1  0  0  0  0
 11 12  2  0  0  0  0
 11 28  1  0  0  0  0
 12 29  1  0  0  0  0
 13 23  1  0  0  0  0
 13 27  2  0  0  0  0
 14 24  2  0  0  0  0
 14 25  1  0  0  0  0
 15 24  1  0  0  0  0
 15 30  2  0  0  0  0
 16 25  2  0  0  0  0
 16 30  1  0  0  0  0
 17 29  2  0  0  0  0
 17 31  1  0  0  0  0
 18 32  1  0  0  0  0
 19 32  1  0  0  0  0
 19 33  2  0  0  0  0
 19 34  1  0  0  0  0
 20 22  2  0  0  0  0
 20 40  1  0  0  0  0
 21 23  2  0  0  0  0
 21 41  1  0  0  0  0
 22 49  1  0  0  0  0
 23 42  1  0  0  0  0
 24 71  1  0  0  0  0
 25 72  1  0  0  0  0
 26 82  1  0  0  0  0
 27 83  1  0  0  0  0
 28 31  2  0  0  0  0
 28 82  1  0  0  0  0
 29 84  1  0  0  0  0
 30 85  1  0  0  0  0
 31 86  1  0  0  0  0
 32 65  2  0  0  0  0
 33 66  1  0  0  0  0
 33 69  1  0  0  0  0
 34 70  1  0  0  0  0
 34 76  2  0  0  0  0
 35 50  1  0  0  0  0
 35 73  1  0  0  0  0
 35 77  2  0  0  0  0
 36 61  1  0  0  0  0
 36 67  1  0  0  0  0
 36 78  2  0  0  0  0
 37 59  1  0  0  0  0
 37 71  1  0  0  0  0
 37 79  2  0  0  0  0
 38 62  1  0  0  0  0
 38 74  1  0  0  0  0
 38 80  2  0  0  0  0
 39 68  1  0  0  0  0
 39 72  1  0  0  0  0
 39 81  2  0  0  0  0
 40 43  1  0  0  0  0
 41 50  1  0  0  0  0
 42 67  1  0  0  0  0
 43 45  1  0  0  0  0
 44 46  1  0  0  0  0
 44 47  1  0  0  0  0
 45 49  1  0  0  0  0
 46 51  1  0  0  0  0
 47 68  1  0  0  0  0
 48 51  1  0  0  0  0
 48 68  1  0  0  0  0
 49 73  1  0  0  0  0
 50 67  1  0  0  0  0
 51 66  1  0  0  0  0
 52 62  1  0  0  0  0
 53 63  1  0  0  0  0
 54 63  1  0  0  0  0
 55 63  1  0  0  0  0
 56 64  1  0  0  0  0
 57 64  1  0  0  0  0
 58 75  1  0  0  0  0
 59 64  1  0  0  0  0
 60 64  1  0  0  0  0
 60 83  1  0  0  0  0
 61 63  1  0  0  0  0
 61 74  1  0  0  0  0
 62 75  1  0  0  0  0
 65 66  1  0  0  0  0
M  CHG  1  75   1
M  ISO  4  39 100  60 101  72 100  83 101
M  END
> <Batch ID>
0141

> <Smiles>
CNC(C)C(=O)NC(C(=O)N1Cc2cc([101O:1][101CH2:1]C(C)(C)CC(=O)Nc3cc(F)cc([100NH:0][100C:0](=O)N4CCCC(n5nc(-c6ccc(Oc7ccc(F)cc7F)cc6)c(C(N)=O)c5N)C4)c3)ccc2CC1C(=O)NC1CCCc2ccccc21)C(C)(C)C

> <Shape>
0.237

> <Color>
0.060

> <Negative vol penalty>
0.000

$$$$

  -OEChem-04052302543D

 87 95  0     1  0  0  0  0  0999 V2000
  -23.1881  -20.2107   21.0859 C   0  0  0  0  0  0  0  0  0  0  0  0
  -24.1060  -20.9761   20.3738 C   0  0  0  0  0  0  0  0  0  0  0  0
  -27.6684  -13.4656   21.8030 C   0  0  0  0  0  0  0  0  0  0  0  0
  -25.7602  -14.1011   20.4643 C   0  0  0  0  0  0  0  0  0  0  0  0
  -21.9784  -20.7734   21.4910 C   0  0  0  0  0  0  0  0  0  0  0  0
  -23.8142  -22.3043   20.0653 C   0  0  0  0  0  0  0  0  0  0  0  0
  -27.7718  -26.9681   19.7614 C   0  0  0  0  0  0  0  0  0  0  0  0
  -26.8886  -12.5168   22.4642 C   0  0  0  0  0  0  0  0  0  0  0  0
  -24.9804  -13.1521   21.1254 C   0  0  0  0  0  0  0  0  0  0  0  0
  -28.4173  -27.5821   18.6890 C   0  0  0  0  0  0  0  0  0  0  0  0
  -24.5064   -9.8079   21.0180 C   0  0  0  0  0  0  0  0  0  0  0  0
  -23.6759   -8.9993   20.2421 C   0  0  0  0  0  0  0  0  0  0  0  0
  -26.6991  -29.2743   18.6314 C   0  0  0  0  0  0  0  0  0  0  0  0
  -28.3454  -23.3714   15.9339 C   0  0  0  0  0  0  0  0  0  0  0  0
  -28.1350  -23.3942   13.5272 C   0  0  0  0  0  0  0  0  0  0  0  0
  -28.7183  -21.3468   14.6694 C   0  0  0  0  0  0  0  0  0  0  0  0
  -21.7477   -9.8378   21.4322 C   0  0  0  0  0  0  0  0  0  0  0  0
  -27.1042  -14.2578   20.8031 C   0  0  0  0  0  0  0  0  0  0  0  0
  -28.6675  -15.0498   18.9492 C   0  0  0  0  0  0  0  0  0  0  0  0
  -21.6758  -22.1120   21.1957 C   0  0  0  0  0  0  0  0  0  0  0  0
  -26.5772  -27.4973   20.2707 C   0  0  0  0  0  0  0  0  0  0  0  0
  -22.5988  -22.8850   20.4657 C   0  0  0  0  0  0  0  0  0  0  0  0
  -26.0417  -28.6666   19.7120 C   0  0  0  0  0  0  0  0  0  0  0  0
  -28.0808  -24.0615   14.7509 C   0  0  0  0  0  0  0  0  0  0  0  0
  -28.6642  -22.0140   15.8931 C   0  0  0  0  0  0  0  0  0  0  0  0
  -25.5446  -12.3600   22.1254 C   0  0  0  0  0  0  0  0  0  0  0  0
  -27.8795  -28.7338   18.1220 C   0  0  0  0  0  0  0  0  0  0  0  0
  -23.9576  -10.6313   22.0011 C   0  0  0  0  0  0  0  0  0  0  0  0
  -22.2966   -9.0143   20.4491 C   0  0  0  0  0  0  0  0  0  0  0  0
  -28.4537  -22.0368   13.4865 C   0  0  0  0  0  0  0  0  0  0  0  0
  -22.5783  -10.6463   22.2082 C   0  0  0  0  0  0  0  0  0  0  0  0
  -27.9091  -15.2386   20.1201 C   0  0  0  0  0  0  0  0  0  0  0  0
  -29.2416  -16.2745   18.7108 C   0  0  0  0  0  0  0  0  0  0  0  0
  -28.8377  -13.8726   18.1487 C   0  0  0  0  0  0  0  0  0  0  0  0
  -23.5898  -26.4439   20.5343 C   0  0  0  0  0  0  0  0  0  0  0  0
  -23.1752  -29.2046   22.1863 C   0  0  0  0  0  0  0  0  0  0  0  0
  -27.4685  -26.2721   13.7184 C   0  0  0  0  0  0  0  0  0  0  0  0
  -24.2171  -32.3949   22.8052 C   0  0  0  0  0  0  0  0  0  0  0  0
  -28.9227  -21.8243   18.3918 C   0  0  0  0  0  0  0  0  0  0  0  0
  -20.3352  -22.6623   21.6135 C   0  0  0  0  0  0  0  0  0  0  0  0
  -25.9073  -26.8382   21.4451 C   0  0  0  0  0  0  0  0  0  0  0  0
  -24.7724  -29.2861   20.2349 C   0  0  0  0  0  0  0  0  0  0  0  0
  -20.2626  -24.1865   21.5717 C   0  0  0  0  0  0  0  0  0  0  0  0
  -29.4937  -20.4151   21.6114 C   0  0  0  0  0  0  0  0  0  0  0  0
  -20.8485  -24.7132   20.2655 C   0  0  0  0  0  0  0  0  0  0  0  0
  -29.1947  -18.9272   21.4141 C   0  0  0  0  0  0  0  0  0  0  0  0
  -28.5527  -21.2962   20.7917 C   0  0  0  0  0  0  0  0  0  0  0  0
  -28.1878  -19.4835   19.1638 C   0  0  0  0  0  0  0  0  0  0  0  0
  -22.3292  -24.3366   20.1335 C   0  0  1  0  0  0  0  0  0  0  0  0
  -24.4225  -27.1723   21.5510 C   0  0  1  0  0  0  0  0  0  0  0  0
  -29.1521  -18.5544   19.9192 C   0  0  2  0  0  0  0  0  0  0  0  0
  -23.6566  -34.4187   24.1792 C   0  0  0  0  0  0  0  0  0  0  0  0
  -20.8523  -29.8321   20.3100 C   0  0  0  0  0  0  0  0  0  0  0  0
  -20.9558  -32.2090   21.0898 C   0  0  0  0  0  0  0  0  0  0  0  0
  -20.4326  -30.3877   22.7120 C   0  0  0  0  0  0  0  0  0  0  0  0
  -29.6943  -30.6278   14.7454 C   0  0  0  0  0  0  0  0  0  0  0  0
  -27.4008  -30.7984   13.7712 C   0  0  0  0  0  0  0  0  0  0  0  0
  -26.8313  -32.3218   24.1906 C   0  0  0  0  0  0  0  0  0  0  0  0
  -27.1704  -27.6917   14.1707 C   0  0  0  0  0  0  0  0  0  0  0  0
  -28.4555  -28.5225   14.2118 C   0  0  0  0  0  0  0  0  0  0  0  0
  -27.6867  -30.0361   16.1414 C   0  0  0  0  0  0  0  0  0  1  0  0
  -22.7890  -30.6187   21.8255 C   0  0  1  0  0  0  0  0  0  0  0  0
  -24.4720  -33.1371   24.1047 C   0  0  2  0  0  0  0  0  0  0  0  0
  -21.2803  -30.7493   21.4730 C   0  0  0  0  0  0  0  0  0  0  0  0
  -28.2926  -29.9809   14.7226 C   0  0  0  0  0  0  0  0  0  0  0  0
  -27.9920  -16.4851   20.5927 N   0  0  0  0  0  0  0  0  0  0  0  0
  -28.8093  -17.0906   19.7144 N   0  0  0  0  0  0  0  0  0  0  0  0
  -24.1512  -28.6012   21.3806 N   0  0  0  0  0  0  0  0  0  0  0  0
  -28.5676  -20.8875   19.3854 N   0  0  0  0  0  0  0  0  0  0  0  0
  -30.0690  -16.7222   17.7426 N   0  0  0  0  0  0  0  0  0  0  0  0
  -28.1760  -12.6995   18.5364 N   0  0  0  0  0  0  0  0  0  0  0  0
  -27.7577  -25.4385   14.7917 N   0  0  0  0  0  0  0  0  0  0  0  0
  -28.9333  -21.3128   17.0946 N   0  0  0  0  0  0  0  0  0  0  0  0
  -23.1465  -25.2043   20.9541 N   0  0  0  0  0  0  0  0  0  0  0  0
  -23.2166  -31.4559   22.9411 N   0  0  0  0  0  0  0  0  0  0  0  0
  -25.9148  -33.4904   24.2250 N   0  3  0  0  0  0  0  0  0  0  0  0
  -29.5684  -13.8569   17.1292 O   0  0  0  0  0  0  0  0  0  0  0  0
  -23.3648  -26.9684   19.4499 O   0  0  0  0  0  0  0  0  0  0  0  0
  -22.6362  -28.6582   23.1520 O   0  0  0  0  0  0  0  0  0  0  0  0
  -27.4495  -25.9830   12.5254 O   0  0  0  0  0  0  0  0  0  0  0  0
  -24.8404  -32.6277   21.7719 O   0  0  0  0  0  0  0  0  0  0  0  0
  -29.2237  -22.9869   18.6740 O   0  0  0  0  0  0  0  0  0  0  0  0
  -24.7834  -11.4340   22.7701 O   0  0  0  0  0  0  0  0  0  0  0  0
  -28.5072  -29.3347   17.0748 O   0  0  0  0  0  0  0  0  0  1  0  0
  -21.4990   -8.2390   19.7028 F   0  0  0  0  0  0  0  0  0  0  0  0
  -28.5065  -21.3960   12.3114 F   0  0  0  0  0  0  0  0  0  0  0  0
  -22.0452  -11.4362   23.1503 F   0  0  0  0  0  0  0  0  0  0  0  0
  1  2  1  0  0  0  0
  1  5  2  0  0  0  0
  2  6  2  0  0  0  0
  3  8  2  0  0  0  0
  3 18  1  0  0  0  0
  4  9  1  0  0  0  0
  4 18  2  0  0  0  0
  5 20  1  0  0  0  0
  6 22  1  0  0  0  0
  7 10  2  0  0  0  0
  7 21  1  0  0  0  0
  8 26  1  0  0  0  0
  9 26  2  0  0  0  0
 10 27  1  0  0  0  0
 11 12  2  0  0  0  0
 11 28  1  0  0  0  0
 12 29  1  0  0  0  0
 13 23  1  0  0  0  0
 13 27  2  0  0  0  0
 14 24  2  0  0  0  0
 14 25  1  0  0  0  0
 15 24  1  0  0  0  0
 15 30  2  0  0  0  0
 16 25  2  0  0  0  0
 16 30  1  0  0  0  0
 17 29  2  0  0  0  0
 17 31  1  0  0  0  0
 18 32  1  0  0  0  0
 19 32  1  0  0  0  0
 19 33  2  0  0  0  0
 19 34  1  0  0  0  0
 20 22  2  0  0  0  0
 20 40  1  0  0  0  0
 21 23  2  0  0  0  0
 21 41  1  0  0  0  0
 22 49  1  0  0  0  0
 23 42  1  0  0  0  0
 24 72  1  0  0  0  0
 25 73  1  0  0  0  0
 26 83  1  0  0  0  0
 27 84  1  0  0  0  0
 28 31  2  0  0  0  0
 28 83  1  0  0  0  0
 29 85  1  0  0  0  0
 30 86  1  0  0  0  0
 31 87  1  0  0  0  0
 32 66  2  0  0  0  0
 33 67  1  0  0  0  0
 33 70  1  0  0  0  0
 34 71  1  0  0  0  0
 34 77  2  0  0  0  0
 35 50  1  0  0  0  0
 35 74  1  0  0  0  0
 35 78  2  0  0  0  0
 36 62  1  0  0  0  0
 36 68  1  0  0  0  0
 36 79  2  0  0  0  0
 37 59  1  0  0  0  0
 37 72  1  0  0  0  0
 37 80  2  0  0  0  0
 38 63  1  0  0  0  0
 38 75  1  0  0  0  0
 38 81  2  0  0  0  0
 39 69  1  0  0  0  0
 39 73  1  0  0  0  0
 39 82  2  0  0  0  0
 40 43  1  0  0  0  0
 41 50  1  0  0  0  0
 42 68  1  0  0  0  0
 43 45  1  0  0  0  0
 44 46  1  0  0  0  0
 44 47  1  0  0  0  0
 45 49  1  0  0  0  0
 46 51  1  0  0  0  0
 47 69  1  0  0  0  0
 48 51  1  0  0  0  0
 48 69  1  0  0  0  0
 49 74  1  0  0  0  0
 50 68  1  0  0  0  0
 51 67  1  0  0  0  0
 52 63  1  0  0  0  0
 53 64  1  0  0  0  0
 54 64  1  0  0  0  0
 55 64  1  0  0  0  0
 56 65  1  0  0  0  0
 57 65  1  0  0  0  0
 58 76  1  0  0  0  0
 59 60  1  0  0  0  0
 60 65  1  0  0  0  0
 61 65  1  0  0  0  0
 61 84  1  0  0  0  0
 62 64  1  0  0  0  0
 62 75  1  0  0  0  0
 63 76  1  0  0  0  0
 66 67  1  0  0  0  0
M  CHG  1  76   1
M  ISO  4  39 100  61 101  73 100  84 101
M  END
> <Batch ID>
0141

> <Smiles>
CNC(C)C(=O)NC(C(=O)N1Cc2cc([101O:1][101CH2:1]C(C)(C)CCC(=O)Nc3cc(F)cc([100NH:0][100C:0](=O)N4CCCC(n5nc(-c6ccc(Oc7ccc(F)cc7F)cc6)c(C(N)=O)c5N)C4)c3)ccc2CC1C(=O)NC1CCCc2ccccc21)C(C)(C)C

> <Shape>
0.228

> <Color>
0.065

> <Negative vol penalty>
0.000

$$$$

  -OEChem-04052302543D

 88 96  0     1  0  0  0  0  0999 V2000
  -16.6523  -29.9053   23.7843 C   0  0  0  0  0  0  0  0  0  0  0  0
  -17.7692  -30.5386   24.3200 C   0  0  0  0  0  0  0  0  0  0  0  0
  -26.1545  -16.7859   17.7354 C   0  0  0  0  0  0  0  0  0  0  0  0
  -26.3534  -18.3719   19.5471 C   0  0  0  0  0  0  0  0  0  0  0  0
  -30.8454  -26.3453   19.3895 C   0  0  0  0  0  0  0  0  0  0  0  0
  -32.5689  -26.4574   17.7001 C   0  0  0  0  0  0  0  0  0  0  0  0
  -16.8061  -28.7411   23.0327 C   0  0  0  0  0  0  0  0  0  0  0  0
  -19.0405  -30.0074   24.1052 C   0  0  0  0  0  0  0  0  0  0  0  0
  -25.8572  -32.0238   23.2205 C   0  0  0  0  0  0  0  0  0  0  0  0
  -30.0791  -25.5329   18.5538 C   0  0  0  0  0  0  0  0  0  0  0  0
  -31.8026  -25.6450   16.8644 C   0  0  0  0  0  0  0  0  0  0  0  0
  -26.3410  -15.7358   18.6342 C   0  0  0  0  0  0  0  0  0  0  0  0
  -26.5398  -17.3217   20.4460 C   0  0  0  0  0  0  0  0  0  0  0  0
  -27.1302  -31.7698   23.7291 C   0  0  0  0  0  0  0  0  0  0  0  0
  -24.4966  -14.0486   20.9111 C   0  0  0  0  0  0  0  0  0  0  0  0
  -23.6475  -12.9469   20.8061 C   0  0  0  0  0  0  0  0  0  0  0  0
  -27.2818  -29.7977   22.3481 C   0  0  0  0  0  0  0  0  0  0  0  0
  -25.5527  -11.5171   20.4022 C   0  0  0  0  0  0  0  0  0  0  0  0
  -26.1607  -18.1041   18.1918 C   0  0  0  0  0  0  0  0  0  0  0  0
  -32.0903  -26.8077   18.9626 C   0  0  0  0  0  0  0  0  0  0  0  0
  -24.7472  -19.7769   16.8837 C   0  0  0  0  0  0  0  0  0  0  0  0
  -18.0807  -28.2007   22.8005 C   0  0  0  0  0  0  0  0  0  0  0  0
  -25.2815  -31.1593   22.2784 C   0  0  0  0  0  0  0  0  0  0  0  0
  -19.2113  -28.8341   23.3509 C   0  0  0  0  0  0  0  0  0  0  0  0
  -26.0024  -30.0444   21.8272 C   0  0  0  0  0  0  0  0  0  0  0  0
  -30.5577  -25.1827   17.2913 C   0  0  0  0  0  0  0  0  0  0  0  0
  -26.5336  -16.0036   19.9895 C   0  0  0  0  0  0  0  0  0  0  0  0
  -27.8416  -30.6550   23.2951 C   0  0  0  0  0  0  0  0  0  0  0  0
  -25.8737  -13.8845   20.7616 C   0  0  0  0  0  0  0  0  0  0  0  0
  -24.1755  -11.6812   20.5516 C   0  0  0  0  0  0  0  0  0  0  0  0
  -26.4017  -12.6188   20.5072 C   0  0  0  0  0  0  0  0  0  0  0  0
  -25.9687  -19.1893   17.2637 C   0  0  0  0  0  0  0  0  0  0  0  0
  -25.1011  -20.7565   15.9884 C   0  0  0  0  0  0  0  0  0  0  0  0
  -32.9123  -27.6794   19.8590 C   0  0  0  0  0  0  0  0  0  0  0  0
  -23.4119  -19.4651   17.3026 C   0  0  0  0  0  0  0  0  0  0  0  0
  -22.6940  -29.3142   22.2138 C   0  0  0  0  0  0  0  0  0  0  0  0
  -30.9157  -30.6784   21.2819 C   0  0  0  0  0  0  0  0  0  0  0  0
  -23.5689  -28.8643   19.1228 C   0  0  0  0  0  0  0  0  0  0  0  0
  -26.0531  -28.8823   16.7829 C   0  0  0  0  0  0  0  0  0  0  0  0
  -30.1049  -23.9160   15.1613 C   0  0  0  0  0  0  0  0  0  0  0  0
  -18.1929  -26.9142   22.0215 C   0  0  0  0  0  0  0  0  0  0  0  0
  -23.9183  -31.4620   21.7196 C   0  0  0  0  0  0  0  0  0  0  0  0
  -25.4374  -29.0966   20.8021 C   0  0  0  0  0  0  0  0  0  0  0  0
  -19.6070  -26.6238   21.5254 C   0  0  0  0  0  0  0  0  0  0  0  0
  -28.4743  -21.8448   12.7679 C   0  0  0  0  0  0  0  0  0  0  0  0
  -20.6208  -26.8445   22.6436 C   0  0  0  0  0  0  0  0  0  0  0  0
  -27.5311  -20.9865   13.6140 C   0  0  0  0  0  0  0  0  0  0  0  0
  -29.7976  -22.1081   13.4844 C   0  0  0  0  0  0  0  0  0  0  0  0
  -28.7279  -21.8072   15.6831 C   0  0  0  0  0  0  0  0  0  0  0  0
  -20.6090  -28.3023   23.1191 C   0  0  1  0  0  0  0  0  0  0  0  0
  -23.2206  -30.2320   21.1471 C   0  0  1  0  0  0  0  0  0  0  0  0
  -27.3565  -21.5694   15.0301 C   0  0  2  0  0  0  0  0  0  0  0  0
  -26.4704  -28.4339   14.3493 C   0  0  0  0  0  0  0  0  0  0  0  0
  -30.5616  -31.9120   24.9311 C   0  0  0  0  0  0  0  0  0  0  0  0
  -31.5110  -30.0647   18.8990 C   0  0  0  0  0  0  0  0  0  0  0  0
  -33.2580  -30.9350   20.4409 C   0  0  0  0  0  0  0  0  0  0  0  0
  -23.4606  -25.8627   19.6598 C   0  0  0  0  0  0  0  0  0  0  0  0
  -24.7725  -25.5097   17.5568 C   0  0  0  0  0  0  0  0  0  0  0  0
  -22.5134  -26.5626   17.4536 C   0  0  0  0  0  0  0  0  0  0  0  0
  -26.9255  -31.6688   16.2998 C   0  0  0  0  0  0  0  0  0  0  0  0
  -32.2621  -28.6210   20.8724 C   0  0  0  0  0  0  0  0  0  0  0  0
  -31.2306  -30.7974   22.7738 C   0  0  0  0  0  0  0  0  0  0  0  0
  -24.4541  -27.8821   18.3943 C   0  0  1  0  0  0  0  0  0  0  0  0
  -26.1219  -29.4853   15.3914 C   0  0  2  0  0  0  0  0  0  0  0  0
  -30.0798  -31.4080   23.5767 C   0  0  1  0  0  0  0  0  0  1  0  0
  -31.9944  -30.0572   20.3580 C   0  0  0  0  0  0  0  0  0  0  0  0
  -23.8103  -26.4709   18.2869 C   0  0  0  0  0  0  0  0  0  0  0  0
  -27.0201  -19.7489   16.6591 N   0  0  0  0  0  0  0  0  0  0  0  0
  -34.2062  -27.6407   19.7793 N   0  0  0  0  0  0  0  0  0  0  0  0
  -26.4602  -20.6982   15.8901 N   0  0  0  0  0  0  0  0  0  0  0  0
  -24.0983  -29.4319   20.2905 N   0  0  0  0  0  0  0  0  0  0  0  0
  -29.5538  -22.6635   14.8174 N   0  0  0  0  0  0  0  0  0  0  0  0
  -24.3793  -21.6533   15.2834 N   0  0  0  0  0  0  0  0  0  0  0  0
  -23.2268  -18.4294   18.2286 N   0  0  0  0  0  0  0  0  0  0  0  0
  -29.7785  -24.3572   16.4433 N   0  0  0  0  0  0  0  0  0  0  0  0
  -21.3229  -29.1449   22.1838 N   0  0  0  0  0  0  0  0  0  0  0  0
  -24.7708  -28.4938   17.1083 N   0  0  0  0  0  0  0  0  0  0  0  0
  -27.1563  -30.5570   15.3419 N   0  3  0  0  0  0  0  0  0  0  0  0
  -22.4111  -20.0756   16.8562 O   0  0  0  0  0  0  0  0  0  0  0  0
  -23.4741  -28.7967   23.0046 O   0  0  0  0  0  0  0  0  0  0  0  0
  -29.8486  -31.0945   20.8238 O   0  0  0  0  0  0  0  0  0  0  0  0
  -22.4519  -29.1241   18.6685 O   0  0  0  0  0  0  0  0  0  0  0  0
  -27.0391  -28.7641   17.5071 O   0  0  0  0  0  0  0  0  0  0  0  0
  -30.7918  -24.5630   14.3666 O   0  0  0  0  0  0  0  0  0  0  0  0
  -26.7154  -14.9791   20.8669 O   0  0  0  0  0  0  0  0  0  0  0  0
  -29.0909  -30.4030   23.7931 O   0  0  0  0  0  0  0  0  0  1  0  0
  -23.3602  -10.6231   20.4524 F   0  0  0  0  0  0  0  0  0  0  0  0
  -27.7240  -12.4548   20.3638 F   0  0  0  0  0  0  0  0  0  0  0  0
  1  2  1  0  0  0  0
  1  7  2  0  0  0  0
  2  8  2  0  0  0  0
  3 12  2  0  0  0  0
  3 19  1  0  0  0  0
  4 13  1  0  0  0  0
  4 19  2  0  0  0  0
  5 10  2  0  0  0  0
  5 20  1  0  0  0  0
  6 11  1  0  0  0  0
  6 20  2  0  0  0  0
  7 22  1  0  0  0  0
  8 24  1  0  0  0  0
  9 14  2  0  0  0  0
  9 23  1  0  0  0  0
 10 26  1  0  0  0  0
 11 26  2  0  0  0  0
 12 27  1  0  0  0  0
 13 27  2  0  0  0  0
 14 28  1  0  0  0  0
 15 16  2  0  0  0  0
 15 29  1  0  0  0  0
 16 30  1  0  0  0  0
 17 25  1  0  0  0  0
 17 28  2  0  0  0  0
 18 30  2  0  0  0  0
 18 31  1  0  0  0  0
 19 32  1  0  0  0  0
 20 34  1  0  0  0  0
 21 32  1  0  0  0  0
 21 33  2  0  0  0  0
 21 35  1  0  0  0  0
 22 24  2  0  0  0  0
 22 41  1  0  0  0  0
 23 25  2  0  0  0  0
 23 42  1  0  0  0  0
 24 50  1  0  0  0  0
 25 43  1  0  0  0  0
 26 75  1  0  0  0  0
 27 85  1  0  0  0  0
 28 86  1  0  0  0  0
 29 31  2  0  0  0  0
 29 85  1  0  0  0  0
 30 87  1  0  0  0  0
 31 88  1  0  0  0  0
 32 68  2  0  0  0  0
 33 70  1  0  0  0  0
 33 73  1  0  0  0  0
 34 61  1  0  0  0  0
 34 69  2  0  0  0  0
 35 74  1  0  0  0  0
 35 79  2  0  0  0  0
 36 51  1  0  0  0  0
 36 76  1  0  0  0  0
 36 80  2  0  0  0  0
 37 62  1  0  0  0  0
 37 66  1  0  0  0  0
 37 81  2  0  0  0  0
 38 63  1  0  0  0  0
 38 71  1  0  0  0  0
 38 82  2  0  0  0  0
 39 64  1  0  0  0  0
 39 77  1  0  0  0  0
 39 83  2  0  0  0  0
 40 72  1  0  0  0  0
 40 75  1  0  0  0  0
 40 84  2  0  0  0  0
 41 44  1  0  0  0  0
 42 51  1  0  0  0  0
 43 71  1  0  0  0  0
 44 46  1  0  0  0  0
 45 47  1  0  0  0  0
 45 48  1  0  0  0  0
 46 50  1  0  0  0  0
 47 52  1  0  0  0  0
 48 72  1  0  0  0  0
 49 52  1  0  0  0  0
 49 72  1  0  0  0  0
 50 76  1  0  0  0  0
 51 71  1  0  0  0  0
 52 70  1  0  0  0  0
 53 64  1  0  0  0  0
 54 65  1  0  0  0  0
 55 66  1  0  0  0  0
 56 66  1  0  0  0  0
 57 67  1  0  0  0  0
 58 67  1  0  0  0  0
 59 67  1  0  0  0  0
 60 78  1  0  0  0  0
 61 66  1  0  0  0  0
 62 65  1  0  0  0  0
 63 67  1  0  0  0  0
 63 77  1  0  0  0  0
 64 78  1  0  0  0  0
 65 86  1  0  0  0  0
 68 70  1  0  0  0  0
M  CHG  1  78   1
M  ISO  4  40 100  65 101  75 100  86 101
M  END
> <Batch ID>
0141

> <Smiles>
CNC(C)C(=O)NC(C(=O)N1Cc2cc([101O:1][101CH:1](C)CC(=O)C(C)(C)CC(=N)c3ccc([100NH:0][100C:0](=O)N4CCCC(n5nc(-c6ccc(Oc7ccc(F)cc7F)cc6)c(C(N)=O)c5N)C4)cc3)ccc2CC1C(=O)NC1CCCc2ccccc21)C(C)(C)C

> <Shape>
0.238

> <Color>
0.110

> <Negative vol penalty>
0.000

$$$$

  -OEChem-04052302543D

 87 95  0     1  0  0  0  0  0999 V2000
  -36.1373  -29.5198   24.3011 C   0  0  0  0  0  0  0  0  0  0  0  0
  -35.3228  -28.5590   24.8916 C   0  0  0  0  0  0  0  0  0  0  0  0
  -23.0074   -9.9861   19.8799 C   0  0  0  0  0  0  0  0  0  0  0  0
  -23.8659   -9.7701   22.1279 C   0  0  0  0  0  0  0  0  0  0  0  0
  -35.5938  -30.4348   23.4004 C   0  0  0  0  0  0  0  0  0  0  0  0
  -33.9638  -28.5133   24.5824 C   0  0  0  0  0  0  0  0  0  0  0  0
  -32.3249  -23.7997   23.7212 C   0  0  0  0  0  0  0  0  0  0  0  0
  -22.2472   -8.8305   20.0591 C   0  0  0  0  0  0  0  0  0  0  0  0
  -23.1056   -8.6145   22.3072 C   0  0  0  0  0  0  0  0  0  0  0  0
  -32.0914  -22.9934   24.8344 C   0  0  0  0  0  0  0  0  0  0  0  0
  -19.8881   -7.8313   22.9816 C   0  0  0  0  0  0  0  0  0  0  0  0
  -19.1818   -7.7011   24.1773 C   0  0  0  0  0  0  0  0  0  0  0  0
  -29.7291  -23.4504   24.6624 C   0  0  0  0  0  0  0  0  0  0  0  0
  -32.2053  -17.8593   24.4674 C   0  0  0  0  0  0  0  0  0  0  0  0
  -32.2614  -16.2641   22.6538 C   0  0  0  0  0  0  0  0  0  0  0  0
  -20.4063   -5.6801   24.6804 C   0  0  0  0  0  0  0  0  0  0  0  0
  -23.8168  -10.4559   20.9143 C   0  0  0  0  0  0  0  0  0  0  0  0
  -24.2145  -12.9741   21.0053 C   0  0  0  0  0  0  0  0  0  0  0  0
  -34.2293  -30.3942   23.0728 C   0  0  0  0  0  0  0  0  0  0  0  0
  -31.2616  -24.4473   23.0758 C   0  0  0  0  0  0  0  0  0  0  0  0
  -33.4012  -29.4294   23.6775 C   0  0  0  0  0  0  0  0  0  0  0  0
  -29.9514  -24.2623   23.5397 C   0  0  0  0  0  0  0  0  0  0  0  0
  -30.1452  -17.1219   23.4430 C   0  0  0  0  0  0  0  0  0  0  0  0
  -30.8132  -17.8995   24.3890 C   0  0  0  0  0  0  0  0  0  0  0  0
  -30.8693  -16.3042   22.5754 C   0  0  0  0  0  0  0  0  0  0  0  0
  -22.2962   -8.1447   21.2728 C   0  0  0  0  0  0  0  0  0  0  0  0
  -30.7937  -22.8210   25.3069 C   0  0  0  0  0  0  0  0  0  0  0  0
  -20.8535   -6.8859   22.6352 C   0  0  0  0  0  0  0  0  0  0  0  0
  -19.4409   -6.6255   25.0267 C   0  0  0  0  0  0  0  0  0  0  0  0
  -32.9294  -17.0416   23.5997 C   0  0  0  0  0  0  0  0  0  0  0  0
  -21.1126   -5.8103   23.4846 C   0  0  0  0  0  0  0  0  0  0  0  0
  -24.6028  -11.6493   20.7295 C   0  0  0  0  0  0  0  0  0  0  0  0
  -25.3079  -13.7309   20.6614 C   0  0  0  0  0  0  0  0  0  0  0  0
  -22.9763  -13.4757   21.5259 C   0  0  0  0  0  0  0  0  0  0  0  0
  -30.4754  -27.4802   22.5402 C   0  0  0  0  0  0  0  0  0  0  0  0
  -28.1077  -26.1467   20.7687 C   0  0  0  0  0  0  0  0  0  0  0  0
  -26.1166  -23.4427   20.1603 C   0  0  0  0  0  0  0  0  0  0  0  0
  -30.4574  -19.1082   26.5729 C   0  0  0  0  0  0  0  0  0  0  0  0
  -30.8004  -14.6449   20.6811 C   0  0  0  0  0  0  0  0  0  0  0  0
  -33.6779  -31.4341   22.1297 C   0  0  0  0  0  0  0  0  0  0  0  0
  -31.5271  -25.2922   21.8601 C   0  0  0  0  0  0  0  0  0  0  0  0
  -28.7729  -24.9191   22.8701 C   0  0  0  0  0  0  0  0  0  0  0  0
  -32.3023  -31.0807   21.5703 C   0  0  0  0  0  0  0  0  0  0  0  0
  -29.5260  -12.4784   18.1593 C   0  0  0  0  0  0  0  0  0  0  0  0
  -31.3791  -30.6018   22.6862 C   0  0  0  0  0  0  0  0  0  0  0  0
  -28.0996  -12.1786   18.6258 C   0  0  0  0  0  0  0  0  0  0  0  0
  -30.4975  -12.5789   19.3339 C   0  0  0  0  0  0  0  0  0  0  0  0
  -28.6704  -13.2141   20.8594 C   0  0  0  0  0  0  0  0  0  0  0  0
  -31.9272  -29.3321   23.3488 C   0  0  1  0  0  0  0  0  0  0  0  0
  -30.4279  -26.3156   21.5921 C   0  0  1  0  0  0  0  0  0  0  0  0
  -27.6436  -13.1680   19.7161 C   0  0  2  0  0  0  0  0  0  0  0  0
  -28.1646  -18.0036   22.1835 C   0  0  0  0  0  0  0  0  0  0  0  0
  -24.2507  -22.6650   18.6734 C   0  0  0  0  0  0  0  0  0  0  0  0
  -29.8965  -20.3866   28.6725 C   0  0  0  0  0  0  0  0  0  0  0  0
  -28.0433  -19.3566   27.3080 C   0  0  0  0  0  0  0  0  0  0  0  0
  -26.1306  -27.8250   22.3762 C   0  0  0  0  0  0  0  0  0  0  0  0
  -24.2964  -26.3418   21.5372 C   0  0  0  0  0  0  0  0  0  0  0  0
  -25.6389  -27.6945   19.9276 C   0  0  0  0  0  0  0  0  0  0  0  0
  -27.7595  -21.2439   19.0534 C   0  0  0  0  0  0  0  0  0  0  0  0
  -28.6508  -17.1646   23.3595 C   0  0  0  0  0  0  0  0  0  0  0  0
  -29.3044  -21.3658   26.4558 C   0  0  0  0  0  0  0  0  0  1  0  0
  -26.6962  -25.6873   21.0435 C   0  0  1  0  0  0  0  0  0  0  0  0
  -25.7573  -22.7260   18.8712 C   0  0  2  0  0  0  0  0  0  0  0  0
  -29.4196  -20.0429   27.2503 C   0  0  0  0  0  0  0  0  0  0  0  0
  -25.7127  -26.8762   21.2352 C   0  0  0  0  0  0  0  0  0  0  0  0
  -25.8456  -11.5660   20.2475 N   0  0  0  0  0  0  0  0  0  0  0  0
  -26.2478  -12.8479   20.2176 N   0  0  0  0  0  0  0  0  0  0  0  0
  -29.0846  -25.7407   21.6889 N   0  0  0  0  0  0  0  0  0  0  0  0
  -30.0024  -13.5373   20.3244 N   0  0  0  0  0  0  0  0  0  0  0  0
  -25.5473  -15.0590   20.6984 N   0  0  0  0  0  0  0  0  0  0  0  0
  -21.9581  -12.5605   21.8259 N   0  0  0  0  0  0  0  0  0  0  0  0
  -30.0985  -18.7366   25.2803 N   0  0  0  0  0  0  0  0  0  0  0  0
  -30.2118  -15.5051   21.6075 N   0  0  0  0  0  0  0  0  0  0  0  0
  -31.6690  -28.1762   22.5171 N   0  0  0  0  0  0  0  0  0  0  0  0
  -26.3401  -24.7872   19.9520 N   0  0  0  0  0  0  0  0  0  0  0  0
  -26.2858  -21.3327   18.8885 N   0  3  0  0  0  0  0  0  0  0  0  0
  -22.7729  -14.7006   21.7037 O   0  0  0  0  0  0  0  0  0  0  0  0
  -29.5008  -27.7298   23.2399 O   0  0  0  0  0  0  0  0  0  0  0  0
  -28.3363  -26.8344   19.7705 O   0  0  0  0  0  0  0  0  0  0  0  0
  -26.1879  -22.8679   21.2444 O   0  0  0  0  0  0  0  0  0  0  0  0
  -31.4740  -18.7534   27.1668 O   0  0  0  0  0  0  0  0  0  0  0  0
  -31.9119  -14.8322   20.1798 O   0  0  0  0  0  0  0  0  0  0  0  0
  -21.5544   -7.0171   21.4481 O   0  0  0  0  0  0  0  0  0  0  0  0
  -30.5631  -22.0351   26.3937 O   0  0  0  0  0  0  0  0  0  1  0  0
  -18.7637   -6.5013   26.1757 F   0  0  0  0  0  0  0  0  0  0  0  0
  -34.2663  -17.0036   23.6752 F   0  0  0  0  0  0  0  0  0  0  0  0
  -22.0397   -4.8996   23.1578 F   0  0  0  0  0  0  0  0  0  0  0  0
  1  2  1  0  0  0  0
  1  5  2  0  0  0  0
  2  6  2  0  0  0  0
  3  8  2  0  0  0  0
  3 17  1  0  0  0  0
  4  9  1  0  0  0  0
  4 17  2  0  0  0  0
  5 19  1  0  0  0  0
  6 21  1  0  0  0  0
  7 10  2  0  0  0  0
  7 20  1  0  0  0  0
  8 26  1  0  0  0  0
  9 26  2  0  0  0  0
 10 27  1  0  0  0  0
 11 12  2  0  0  0  0
 11 28  1  0  0  0  0
 12 29  1  0  0  0  0
 13 22  1  0  0  0  0
 13 27  2  0  0  0  0
 14 24  2  0  0  0  0
 14 30  1  0  0  0  0
 15 25  1  0  0  0  0
 15 30  2  0  0  0  0
 16 29  2  0  0  0  0
 16 31  1  0  0  0  0
 17 32  1  0  0  0  0
 18 32  1  0  0  0  0
 18 33  2  0  0  0  0
 18 34  1  0  0  0  0
 19 21  2  0  0  0  0
 19 40  1  0  0  0  0
 20 22  2  0  0  0  0
 20 41  1  0  0  0  0
 21 49  1  0  0  0  0
 22 42  1  0  0  0  0
 23 24  1  0  0  0  0
 23 25  2  0  0  0  0
 23 60  1  0  0  0  0
 24 72  1  0  0  0  0
 25 73  1  0  0  0  0
 26 83  1  0  0  0  0
 27 84  1  0  0  0  0
 28 31  2  0  0  0  0
 28 83  1  0  0  0  0
 29 85  1  0  0  0  0
 30 86  1  0  0  0  0
 31 87  1  0  0  0  0
 32 66  2  0  0  0  0
 33 67  1  0  0  0  0
 33 70  1  0  0  0  0
 34 71  1  0  0  0  0
 34 77  2  0  0  0  0
 35 50  1  0  0  0  0
 35 74  1  0  0  0  0
 35 78  2  0  0  0  0
 36 62  1  0  0  0  0
 36 68  1  0  0  0  0
 36 79  2  0  0  0  0
 37 63  1  0  0  0  0
 37 75  1  0  0  0  0
 37 80  2  0  0  0  0
 38 64  1  0  0  0  0
 38 72  1  0  0  0  0
 38 81  2  0  0  0  0
 39 69  1  0  0  0  0
 39 73  1  0  0  0  0
 39 82  2  0  0  0  0
 40 43  1  0  0  0  0
 41 50  1  0  0  0  0
 42 68  1  0  0  0  0
 43 45  1  0  0  0  0
 44 46  1  0  0  0  0
 44 47  1  0  0  0  0
 45 49  1  0  0  0  0
 46 51  1  0  0  0  0
 47 69  1  0  0  0  0
 48 51  1  0  0  0  0
 48 69  1  0  0  0  0
 49 74  1  0  0  0  0
 50 68  1  0  0  0  0
 51 67  1  0  0  0  0
 52 60  1  0  0  0  0
 53 63  1  0  0  0  0
 54 64  1  0  0  0  0
 55 64  1  0  0  0  0
 56 65  1  0  0  0  0
 57 65  1  0  0  0  0
 58 65  1  0  0  0  0
 59 76  1  0  0  0  0
 61 64  1  0  0  0  0
 61 84  1  0  0  0  0
 62 65  1  0  0  0  0
 62 75  1  0  0  0  0
 63 76  1  0  0  0  0
 66 67  1  0  0  0  0
M  CHG  1  76   1
M  ISO  4  39 100  61 101  73 100  84 101
M  END
> <Batch ID>
0141

> <Smiles>
CCc1c(NC(=O)C(C)(C)[101CH2:1][101O:1]c2ccc3c(c2)CN(C(=O)C(NC(=O)C(C)NC)C(C)(C)C)C(C(=O)NC2CCCc4ccccc42)C3)cc(F)cc1[100NH:0][100C:0](=O)N1CCCC(n2nc(-c3ccc(Oc4ccc(F)cc4F)cc3)c(C(N)=O)c2N)C1

> <Shape>
0.208

> <Color>
0.199

> <Negative vol penalty>
0.000

$$$$

  -OEChem-04052302543D

 86 94  0     1  0  0  0  0  0999 V2000
  -28.1077  -24.4891   16.7431 C   0  0  0  0  0  0  0  0  0  0  0  0
  -26.9253  -24.6844   17.4496 C   0  0  0  0  0  0  0  0  0  0  0  0
  -27.9645  -15.8286   19.4727 C   0  0  0  0  0  0  0  0  0  0  0  0
  -25.6628  -16.5018   19.7656 C   0  0  0  0  0  0  0  0  0  0  0  0
  -29.3055  -25.0068   17.2341 C   0  0  0  0  0  0  0  0  0  0  0  0
  -26.9402  -25.3967   18.6483 C   0  0  0  0  0  0  0  0  0  0  0  0
  -23.1537  -28.7443   18.9662 C   0  0  0  0  0  0  0  0  0  0  0  0
  -27.6245  -14.5188   19.8108 C   0  0  0  0  0  0  0  0  0  0  0  0
  -25.3227  -15.1919   20.1037 C   0  0  0  0  0  0  0  0  0  0  0  0
  -21.8904  -28.2482   19.2851 C   0  0  0  0  0  0  0  0  0  0  0  0
  -25.5480  -13.1793   22.8110 C   0  0  0  0  0  0  0  0  0  0  0  0
  -24.7177  -12.9899   23.9157 C   0  0  0  0  0  0  0  0  0  0  0  0
  -22.9247  -24.8927   24.9177 C   0  0  0  0  0  0  0  0  0  0  0  0
  -23.7060  -23.7251   22.9522 C   0  0  0  0  0  0  0  0  0  0  0  0
  -22.2027  -28.9414   21.5745 C   0  0  0  0  0  0  0  0  0  0  0  0
  -25.2942  -24.7124   24.4819 C   0  0  0  0  0  0  0  0  0  0  0  0
  -23.0829  -11.9102   22.5019 C   0  0  0  0  0  0  0  0  0  0  0  0
  -26.9836  -16.8202   19.4501 C   0  0  0  0  0  0  0  0  0  0  0  0
  -22.6557  -24.1745   23.7526 C   0  0  0  0  0  0  0  0  0  0  0  0
  -27.3380  -18.7463   17.8155 C   0  0  0  0  0  0  0  0  0  0  0  0
  -29.3336  -25.7341   18.4344 C   0  0  0  0  0  0  0  0  0  0  0  0
  -23.9568  -29.3338   19.9531 C   0  0  0  0  0  0  0  0  0  0  0  0
  -28.1398  -25.9235   19.1565 C   0  0  0  0  0  0  0  0  0  0  0  0
  -23.4748  -29.4465   21.2650 C   0  0  0  0  0  0  0  0  0  0  0  0
  -24.2439  -25.1617   25.2823 C   0  0  0  0  0  0  0  0  0  0  0  0
  -25.0252  -23.9941   23.3168 C   0  0  0  0  0  0  0  0  0  0  0  0
  -26.3036  -14.2004   20.1263 C   0  0  0  0  0  0  0  0  0  0  0  0
  -21.4159  -28.3441   20.5900 C   0  0  0  0  0  0  0  0  0  0  0  0
  -25.1457  -12.7342   21.5517 C   0  0  0  0  0  0  0  0  0  0  0  0
  -23.4852  -12.3553   23.7611 C   0  0  0  0  0  0  0  0  0  0  0  0
  -23.9132  -12.0997   21.3971 C   0  0  0  0  0  0  0  0  0  0  0  0
  -27.3343  -18.1735   19.1015 C   0  0  0  0  0  0  0  0  0  0  0  0
  -27.7422  -20.0432   18.0185 C   0  0  0  0  0  0  0  0  0  0  0  0
  -21.2458  -23.8860   23.3639 C   0  0  0  0  0  0  0  0  0  0  0  0
  -27.0057  -18.1587   16.5506 C   0  0  0  0  0  0  0  0  0  0  0  0
  -26.7968  -28.6780   21.2211 C   0  0  0  0  0  0  0  0  0  0  0  0
  -26.3397  -31.5096   22.7361 C   0  0  0  0  0  0  0  0  0  0  0  0
  -24.1485  -33.8609   23.8837 C   0  0  0  0  0  0  0  0  0  0  0  0
  -27.4574  -23.7194   22.7206 C   0  0  0  0  0  0  0  0  0  0  0  0
  -30.6600  -26.2340   18.9495 C   0  0  0  0  0  0  0  0  0  0  0  0
  -25.3064  -29.8881   19.5871 C   0  0  0  0  0  0  0  0  0  0  0  0
  -24.2896  -30.0889   22.3567 C   0  0  0  0  0  0  0  0  0  0  0  0
  -30.5296  -27.2982   20.0361 C   0  0  0  0  0  0  0  0  0  0  0  0
  -30.3946  -22.7199   20.9739 C   0  0  0  0  0  0  0  0  0  0  0  0
  -29.4999  -26.8737   21.0783 C   0  0  0  0  0  0  0  0  0  0  0  0
  -29.9419  -21.4964   20.1738 C   0  0  0  0  0  0  0  0  0  0  0  0
  -29.7268  -22.7787   22.3466 C   0  0  0  0  0  0  0  0  0  0  0  0
  -27.8084  -21.4676   21.5281 C   0  0  0  0  0  0  0  0  0  0  0  0
  -28.1113  -26.7120   20.4479 C   0  0  1  0  0  0  0  0  0  0  0  0
  -26.2479  -30.0058   20.7817 C   0  0  1  0  0  0  0  0  0  0  0  0
  -28.4049  -21.4001   20.1127 C   0  0  2  0  0  0  0  0  0  0  0  0
  -24.0701  -36.0463   25.1145 C   0  0  0  0  0  0  0  0  0  0  0  0
  -26.8662  -30.0470   25.3617 C   0  0  0  0  0  0  0  0  0  0  0  0
  -25.8594  -31.9959   26.5685 C   0  0  0  0  0  0  0  0  0  0  0  0
  -27.9201  -32.3091   25.1982 C   0  0  0  0  0  0  0  0  0  0  0  0
  -18.3075  -24.6717   20.1295 C   0  0  0  0  0  0  0  0  0  0  0  0
  -17.5586  -26.6584   21.4460 C   0  0  0  0  0  0  0  0  0  0  0  0
  -22.9006  -35.2440   21.5840 C   0  0  0  0  0  0  0  0  0  0  0  0
  -20.6930  -24.3909   22.0384 C   0  0  0  0  0  0  0  0  0  0  0  0
  -19.5066  -25.3298   22.2777 C   0  0  0  0  0  0  0  0  0  0  0  0
  -19.7086  -26.7497   20.1440 C   0  0  0  0  0  0  0  0  0  1  0  0
  -25.7051  -31.9353   24.0380 C   0  0  1  0  0  0  0  0  0  0  0  0
  -24.1336  -35.3731   23.7523 C   0  0  2  0  0  0  0  0  0  0  0  0
  -26.5729  -31.5579   25.2717 C   0  0  0  0  0  0  0  0  0  0  0  0
  -18.7928  -25.8461   20.9976 C   0  0  0  0  0  0  0  0  0  0  0  0
  -27.7068  -19.0358   20.0511 N   0  0  0  0  0  0  0  0  0  0  0  0
  -20.4776  -23.2043   24.1549 N   0  0  0  0  0  0  0  0  0  0  0  0
  -27.9484  -20.1636   19.3613 N   0  0  0  0  0  0  0  0  0  0  0  0
  -25.6052  -30.6101   21.9505 N   0  0  0  0  0  0  0  0  0  0  0  0
  -28.2716  -22.6864   22.2099 N   0  0  0  0  0  0  0  0  0  0  0  0
  -24.5162  -25.8883   26.4600 N   0  0  0  0  0  0  0  0  0  0  0  0
  -27.9380  -21.0810   17.1775 N   0  0  0  0  0  0  0  0  0  0  0  0
  -26.6097  -16.8146   16.5218 N   0  0  0  0  0  0  0  0  0  0  0  0
  -26.0919  -23.5382   22.5032 N   0  0  0  0  0  0  0  0  0  0  0  0
  -27.4977  -28.0058   20.2381 N   0  0  0  0  0  0  0  0  0  0  0  0
  -25.4341  -33.3633   23.9123 N   0  0  0  0  0  0  0  0  0  0  0  0
  -22.9532  -35.8123   22.9556 N   0  3  0  0  0  0  0  0  0  0  0  0
  -27.0741  -18.8018   15.4758 O   0  0  0  0  0  0  0  0  0  0  0  0
  -26.6003  -28.2925   22.3676 O   0  0  0  0  0  0  0  0  0  0  0  0
  -27.4433  -31.9641   22.4243 O   0  0  0  0  0  0  0  0  0  0  0  0
  -23.1223  -33.1885   23.9575 O   0  0  0  0  0  0  0  0  0  0  0  0
  -27.9380  -24.7063   23.2837 O   0  0  0  0  0  0  0  0  0  0  0  0
  -25.9715  -12.9224   20.4560 O   0  0  0  0  0  0  0  0  0  0  0  0
  -20.1834  -27.8602   20.9042 O   0  0  0  0  0  0  0  0  0  1  0  0
  -22.6887  -12.1720   24.8223 F   0  0  0  0  0  0  0  0  0  0  0  0
  -23.5218  -11.6689   20.1900 F   0  0  0  0  0  0  0  0  0  0  0  0
  1  2  1  0  0  0  0
  1  5  2  0  0  0  0
  2  6  2  0  0  0  0
  3  8  2  0  0  0  0
  3 18  1  0  0  0  0
  4  9  1  0  0  0  0
  4 18  2  0  0  0  0
  5 21  1  0  0  0  0
  6 23  1  0  0  0  0
  7 10  2  0  0  0  0
  7 22  1  0  0  0  0
  8 27  1  0  0  0  0
  9 27  2  0  0  0  0
 10 28  1  0  0  0  0
 11 12  2  0  0  0  0
 11 29  1  0  0  0  0
 12 30  1  0  0  0  0
 13 19  1  0  0  0  0
 13 25  2  0  0  0  0
 14 19  2  0  0  0  0
 14 26  1  0  0  0  0
 15 24  1  0  0  0  0
 15 28  2  0  0  0  0
 16 25  1  0  0  0  0
 16 26  2  0  0  0  0
 17 30  2  0  0  0  0
 17 31  1  0  0  0  0
 18 32  1  0  0  0  0
 19 34  1  0  0  0  0
 20 32  1  0  0  0  0
 20 33  2  0  0  0  0
 20 35  1  0  0  0  0
 21 23  2  0  0  0  0
 21 40  1  0  0  0  0
 22 24  2  0  0  0  0
 22 41  1  0  0  0  0
 23 49  1  0  0  0  0
 24 42  1  0  0  0  0
 25 71  1  0  0  0  0
 26 74  1  0  0  0  0
 27 83  1  0  0  0  0
 28 84  1  0  0  0  0
 29 31  2  0  0  0  0
 29 83  1  0  0  0  0
 30 85  1  0  0  0  0
 31 86  1  0  0  0  0
 32 66  2  0  0  0  0
 33 68  1  0  0  0  0
 33 72  1  0  0  0  0
 34 59  1  0  0  0  0
 34 67  2  0  0  0  0
 35 73  1  0  0  0  0
 35 78  2  0  0  0  0
 36 50  1  0  0  0  0
 36 75  1  0  0  0  0
 36 79  2  0  0  0  0
 37 62  1  0  0  0  0
 37 69  1  0  0  0  0
 37 80  2  0  0  0  0
 38 63  1  0  0  0  0
 38 76  1  0  0  0  0
 38 81  2  0  0  0  0
 39 70  1  0  0  0  0
 39 74  1  0  0  0  0
 39 82  2  0  0  0  0
 40 43  1  0  0  0  0
 41 50  1  0  0  0  0
 42 69  1  0  0  0  0
 43 45  1  0  0  0  0
 44 46  1  0  0  0  0
 44 47  1  0  0  0  0
 45 49  1  0  0  0  0
 46 51  1  0  0  0  0
 47 70  1  0  0  0  0
 48 51  1  0  0  0  0
 48 70  1  0  0  0  0
 49 75  1  0  0  0  0
 50 69  1  0  0  0  0
 51 68  1  0  0  0  0
 52 63  1  0  0  0  0
 53 64  1  0  0  0  0
 54 64  1  0  0  0  0
 55 64  1  0  0  0  0
 56 65  1  0  0  0  0
 57 65  1  0  0  0  0
 58 77  1  0  0  0  0
 59 60  1  0  0  0  0
 60 65  1  0  0  0  0
 61 65  1  0  0  0  0
 61 84  1  0  0  0  0
 62 64  1  0  0  0  0
 62 76  1  0  0  0  0
 63 77  1  0  0  0  0
 66 68  1  0  0  0  0
M  CHG  1  77   1
M  ISO  4  39 100  61 101  74 100  84 101
M  END
> <Batch ID>
0141

> <Smiles>
CNC(C)C(=O)NC(C(=O)N1Cc2cc([101O:1][101CH2:1]C(C)(C)CCC(=N)c3cc(N)cc([100NH:0][100C:0](=O)N4CCCC(n5nc(-c6ccc(Oc7ccc(F)cc7F)cc6)c(C(N)=O)c5N)C4)c3)ccc2CC1C(=O)NC1CCCc2ccccc21)C(C)(C)C

> <Shape>
0.293

> <Color>
0.055

> <Negative vol penalty>
0.000

$$$$

  -OEChem-04052302543D

 87 95  0     1  0  0  0  0  0999 V2000
  -28.2483  -37.7601   23.7720 C   0  0  0  0  0  0  0  0  0  0  0  0
  -28.7439  -36.6001   23.1853 C   0  0  0  0  0  0  0  0  0  0  0  0
  -25.3775  -19.2116   16.1546 C   0  0  0  0  0  0  0  0  0  0  0  0
  -28.1958  -11.5158   23.1528 C   0  0  0  0  0  0  0  0  0  0  0  0
  -27.0511  -11.6461   21.0292 C   0  0  0  0  0  0  0  0  0  0  0  0
  -24.8920  -20.4963   16.3985 C   0  0  0  0  0  0  0  0  0  0  0  0
  -27.1937  -37.6845   24.6809 C   0  0  0  0  0  0  0  0  0  0  0  0
  -28.1859  -35.3636   23.5080 C   0  0  0  0  0  0  0  0  0  0  0  0
  -27.4868  -30.5547   19.7809 C   0  0  0  0  0  0  0  0  0  0  0  0
  -26.3595  -18.6681   16.9829 C   0  0  0  0  0  0  0  0  0  0  0  0
  -27.2610  -10.5819   23.5994 C   0  0  0  0  0  0  0  0  0  0  0  0
  -26.1162  -10.7122   21.4758 C   0  0  0  0  0  0  0  0  0  0  0  0
  -28.2365  -29.3937   19.5971 C   0  0  0  0  0  0  0  0  0  0  0  0
  -25.9397   -7.3607   21.8723 C   0  0  0  0  0  0  0  0  0  0  0  0
  -25.5923   -6.3271   21.0026 C   0  0  0  0  0  0  0  0  0  0  0  0
  -26.3705  -20.6941   18.2991 C   0  0  0  0  0  0  0  0  0  0  0  0
  -26.7644  -28.2125   21.0995 C   0  0  0  0  0  0  0  0  0  0  0  0
  -23.2896   -7.0567   21.0555 C   0  0  0  0  0  0  0  0  0  0  0  0
  -28.0908  -12.0480   21.8677 C   0  0  0  0  0  0  0  0  0  0  0  0
  -25.3885  -21.2375   17.4708 C   0  0  0  0  0  0  0  0  0  0  0  0
  -30.2666  -12.7516   20.7370 C   0  0  0  0  0  0  0  0  0  0  0  0
  -26.6161  -36.4474   25.0075 C   0  0  0  0  0  0  0  0  0  0  0  0
  -26.3749  -30.5562   20.6353 C   0  0  0  0  0  0  0  0  0  0  0  0
  -27.1234  -35.2713   24.4231 C   0  0  0  0  0  0  0  0  0  0  0  0
  -26.0008  -29.3742   21.2905 C   0  0  0  0  0  0  0  0  0  0  0  0
  -26.8560  -19.4094   18.0551 C   0  0  0  0  0  0  0  0  0  0  0  0
  -26.2212  -10.1801   22.7609 C   0  0  0  0  0  0  0  0  0  0  0  0
  -27.8770  -28.2231   20.2587 C   0  0  0  0  0  0  0  0  0  0  0  0
  -24.9622   -8.2424   22.3336 C   0  0  0  0  0  0  0  0  0  0  0  0
  -24.2672   -6.1750   20.5942 C   0  0  0  0  0  0  0  0  0  0  0  0
  -23.6372   -8.0904   21.9252 C   0  0  0  0  0  0  0  0  0  0  0  0
  -29.0559  -13.0131   21.4059 C   0  0  0  0  0  0  0  0  0  0  0  0
  -30.8128  -13.9926   20.5178 C   0  0  0  0  0  0  0  0  0  0  0  0
  -24.8684  -22.6109   17.7304 C   0  0  0  0  0  0  0  0  0  0  0  0
  -30.8457  -11.4989   20.3484 C   0  0  0  0  0  0  0  0  0  0  0  0
  -25.6008  -32.0951   23.3067 C   0  0  0  0  0  0  0  0  0  0  0  0
  -22.7463  -30.6177   22.8686 C   0  0  0  0  0  0  0  0  0  0  0  0
  -21.0094  -28.0179   21.5009 C   0  0  0  0  0  0  0  0  0  0  0  0
  -28.4532  -19.4581   20.0027 C   0  0  0  0  0  0  0  0  0  0  0  0
  -25.5091  -36.4109   26.0312 C   0  0  0  0  0  0  0  0  0  0  0  0
  -25.5608  -31.8099   20.8021 C   0  0  0  0  0  0  0  0  0  0  0  0
  -24.8037  -29.3180   22.2027 C   0  0  0  0  0  0  0  0  0  0  0  0
  -24.7263  -35.1004   26.0353 C   0  0  0  0  0  0  0  0  0  0  0  0
  -30.9171  -18.4152   22.3519 C   0  0  0  0  0  0  0  0  0  0  0  0
  -25.6789  -33.9094   26.0056 C   0  0  0  0  0  0  0  0  0  0  0  0
  -30.8338  -16.8876   22.3105 C   0  0  0  0  0  0  0  0  0  0  0  0
  -29.5415  -19.0625   22.2013 C   0  0  0  0  0  0  0  0  0  0  0  0
  -28.6897  -17.0944   20.9888 C   0  0  0  0  0  0  0  0  0  0  0  0
  -26.5282  -33.9139   24.7288 C   0  0  1  0  0  0  0  0  0  0  0  0
  -24.7521  -31.8296   22.0955 C   0  0  1  0  0  0  0  0  0  0  0  0
  -30.0583  -16.3988   21.0715 C   0  0  2  0  0  0  0  0  0  0  0  0
  -18.6956  -27.0587   21.3474 C   0  0  0  0  0  0  0  0  0  0  0  0
  -22.9997  -29.5569   25.7183 C   0  0  0  0  0  0  0  0  0  0  0  0
  -21.2090  -27.8911   25.1830 C   0  0  0  0  0  0  0  0  0  0  0  0
  -20.7056  -30.3326   25.0940 C   0  0  0  0  0  0  0  0  0  0  0  0
  -29.5070  -25.5361   18.5557 C   0  0  0  0  0  0  0  0  0  0  0  0
  -27.6753  -27.0958   17.8776 C   0  0  0  0  0  0  0  0  0  0  0  0
  -27.6889  -24.3991   20.7657 C   0  0  0  0  0  0  0  0  0  0  0  0
  -20.9564  -28.3145   18.5567 C   0  0  0  0  0  0  0  0  0  0  0  0
  -25.4021  -23.4297   18.8972 C   0  0  0  0  0  0  0  0  0  0  0  0
  -26.6172  -24.2578   18.4633 C   0  0  0  0  0  0  0  0  0  0  0  0
  -22.1490  -29.2983   23.2943 C   0  0  1  0  0  0  0  0  0  0  0  0
  -19.7200  -27.9780   20.7008 C   0  0  2  0  0  0  0  0  0  0  0  0
  -21.7896  -29.2710   24.8068 C   0  0  0  0  0  0  0  0  0  0  0  0
  -28.2136  -26.2220   19.0184 C   0  0  0  0  0  0  0  0  0  1  0  0
  -27.1687  -25.1955   19.5639 C   0  0  2  0  0  0  0  0  0  0  0  0
  -28.8449  -14.3178   21.5991 N   0  0  0  0  0  0  0  0  0  0  0  0
  -23.9593  -23.1207   16.9600 N   0  0  0  0  0  0  0  0  0  0  0  0
  -29.9306  -14.8872   21.0484 N   0  0  0  0  0  0  0  0  0  0  0  0
  -24.0434  -30.5714   22.3382 N   0  0  0  0  0  0  0  0  0  0  0  0
  -28.8676  -18.5548   21.0042 N   0  0  0  0  0  0  0  0  0  0  0  0
  -31.9569  -14.3950   19.9249 N   0  0  0  0  0  0  0  0  0  0  0  0
  -30.1517  -10.3194   20.6510 N   0  0  0  0  0  0  0  0  0  0  0  0
  -27.8533  -18.8570   18.8966 N   0  0  0  0  0  0  0  0  0  0  0  0
  -25.7527  -33.4359   23.6043 N   0  0  0  0  0  0  0  0  0  0  0  0
  -21.0166  -29.0576   22.4066 N   0  0  0  0  0  0  0  0  0  0  0  0
  -19.9835  -27.4892   19.3178 N   0  3  0  0  0  0  0  0  0  0  0  0
  -31.9539  -11.4266   19.7652 O   0  0  0  0  0  0  0  0  0  0  0  0
  -26.0809  -31.1531   23.9262 O   0  0  0  0  0  0  0  0  0  0  0  0
  -22.0837  -31.6505   22.9952 O   0  0  0  0  0  0  0  0  0  0  0  0
  -21.9178  -27.2056   21.3413 O   0  0  0  0  0  0  0  0  0  0  0  0
  -28.6427  -20.6728   20.1055 O   0  0  0  0  0  0  0  0  0  0  0  0
  -25.3089   -9.2686   23.1964 O   0  0  0  0  0  0  0  0  0  0  0  0
  -28.6074  -27.0886   20.0816 O   0  0  0  0  0  0  0  0  0  1  0  0
  -23.9339   -5.1833   19.7578 F   0  0  0  0  0  0  0  0  0  0  0  0
  -22.6938   -8.9349   22.3641 F   0  0  0  0  0  0  0  0  0  0  0  0
  -26.0964  -25.9280   20.0150 F   0  0  0  0  0  0  0  0  0  0  0  0
  1  2  1  0  0  0  0
  1  7  2  0  0  0  0
  2  8  2  0  0  0  0
  3  6  2  0  0  0  0
  3 10  1  0  0  0  0
  4 11  2  0  0  0  0
  4 19  1  0  0  0  0
  5 12  1  0  0  0  0
  5 19  2  0  0  0  0
  6 20  1  0  0  0  0
  7 22  1  0  0  0  0
  8 24  1  0  0  0  0
  9 13  2  0  0  0  0
  9 23  1  0  0  0  0
 10 26  2  0  0  0  0
 11 27  1  0  0  0  0
 12 27  2  0  0  0  0
 13 28  1  0  0  0  0
 14 15  2  0  0  0  0
 14 29  1  0  0  0  0
 15 30  1  0  0  0  0
 16 20  2  0  0  0  0
 16 26  1  0  0  0  0
 17 25  1  0  0  0  0
 17 28  2  0  0  0  0
 18 30  2  0  0  0  0
 18 31  1  0  0  0  0
 19 32  1  0  0  0  0
 20 34  1  0  0  0  0
 21 32  1  0  0  0  0
 21 33  2  0  0  0  0
 21 35  1  0  0  0  0
 22 24  2  0  0  0  0
 22 40  1  0  0  0  0
 23 25  2  0  0  0  0
 23 41  1  0  0  0  0
 24 49  1  0  0  0  0
 25 42  1  0  0  0  0
 26 74  1  0  0  0  0
 27 83  1  0  0  0  0
 28 84  1  0  0  0  0
 29 31  2  0  0  0  0
 29 83  1  0  0  0  0
 30 85  1  0  0  0  0
 31 86  1  0  0  0  0
 32 67  2  0  0  0  0
 33 69  1  0  0  0  0
 33 72  1  0  0  0  0
 34 60  1  0  0  0  0
 34 68  2  0  0  0  0
 35 73  1  0  0  0  0
 35 78  2  0  0  0  0
 36 50  1  0  0  0  0
 36 75  1  0  0  0  0
 36 79  2  0  0  0  0
 37 62  1  0  0  0  0
 37 70  1  0  0  0  0
 37 80  2  0  0  0  0
 38 63  1  0  0  0  0
 38 76  1  0  0  0  0
 38 81  2  0  0  0  0
 39 71  1  0  0  0  0
 39 74  1  0  0  0  0
 39 82  2  0  0  0  0
 40 43  1  0  0  0  0
 41 50  1  0  0  0  0
 42 70  1  0  0  0  0
 43 45  1  0  0  0  0
 44 46  1  0  0  0  0
 44 47  1  0  0  0  0
 45 49  1  0  0  0  0
 46 51  1  0  0  0  0
 47 71  1  0  0  0  0
 48 51  1  0  0  0  0
 48 71  1  0  0  0  0
 49 75  1  0  0  0  0
 50 70  1  0  0  0  0
 51 69  1  0  0  0  0
 52 63  1  0  0  0  0
 53 64  1  0  0  0  0
 54 64  1  0  0  0  0
 55 64  1  0  0  0  0
 56 65  1  0  0  0  0
 57 65  1  0  0  0  0
 58 66  1  0  0  0  0
 59 77  1  0  0  0  0
 60 61  1  0  0  0  0
 61 66  1  0  0  0  0
 62 64  1  0  0  0  0
 62 76  1  0  0  0  0
 63 77  1  0  0  0  0
 65 66  1  0  0  0  0
 65 84  1  0  0  0  0
 66 87  1  0  0  0  0
 67 69  1  0  0  0  0
M  CHG  1  77   1
M  ISO  4  39 100  65 101  74 100  84 101
M  END
> <Batch ID>
0141

> <Smiles>
CNC(C)C(=O)NC(C(=O)N1Cc2cc([101O:1][101C:1](C)(C)C(C)(F)CCC(=N)c3cccc([100NH:0][100C:0](=O)N4CCCC(n5nc(-c6ccc(Oc7ccc(F)cc7F)cc6)c(C(N)=O)c5N)C4)c3)ccc2CC1C(=O)NC1CCCc2ccccc21)C(C)(C)C

> <Shape>
0.303

> <Color>
0.080

> <Negative vol penalty>
0.000

$$$$

  -OEChem-04052302543D

 84 92  0     1  0  0  0  0  0999 V2000
  -28.2190  -24.0844   17.4656 C   0  0  0  0  0  0  0  0  0  0  0  0
  -27.0549  -24.2949   18.1977 C   0  0  0  0  0  0  0  0  0  0  0  0
  -27.4264  -12.8784   20.6007 C   0  0  0  0  0  0  0  0  0  0  0  0
  -25.6005  -12.9158   19.0190 C   0  0  0  0  0  0  0  0  0  0  0  0
  -29.4057  -24.7065   17.8511 C   0  0  0  0  0  0  0  0  0  0  0  0
  -27.0771  -25.1269   19.3165 C   0  0  0  0  0  0  0  0  0  0  0  0
  -23.1369  -28.3052   19.4525 C   0  0  0  0  0  0  0  0  0  0  0  0
  -21.3632  -19.7036   17.5593 C   0  0  0  0  0  0  0  0  0  0  0  0
  -27.0542  -11.5948   21.0000 C   0  0  0  0  0  0  0  0  0  0  0  0
  -25.2283  -11.6322   19.4182 C   0  0  0  0  0  0  0  0  0  0  0  0
  -21.9135  -27.7850   19.8726 C   0  0  0  0  0  0  0  0  0  0  0  0
  -23.5610  -10.2091   21.9922 C   0  0  0  0  0  0  0  0  0  0  0  0
  -20.0304  -19.9583   17.2362 C   0  0  0  0  0  0  0  0  0  0  0  0
  -22.2059   -9.9682   22.2186 C   0  0  0  0  0  0  0  0  0  0  0  0
  -22.2736  -28.7246   22.0650 C   0  0  0  0  0  0  0  0  0  0  0  0
  -21.2384  -21.3212   19.3495 C   0  0  0  0  0  0  0  0  0  0  0  0
  -22.2215   -8.2675   20.5026 C   0  0  0  0  0  0  0  0  0  0  0  0
  -26.6995  -13.5390   19.6102 C   0  0  0  0  0  0  0  0  0  0  0  0
  -27.9808  -15.2092   18.1694 C   0  0  0  0  0  0  0  0  0  0  0  0
  -29.4403  -25.5542   18.9695 C   0  0  0  0  0  0  0  0  0  0  0  0
  -23.9442  -29.0309   20.3402 C   0  0  0  0  0  0  0  0  0  0  0  0
  -28.2657  -25.7599   19.7181 C   0  0  0  0  0  0  0  0  0  0  0  0
  -23.5056  -29.2552   21.6530 C   0  0  0  0  0  0  0  0  0  0  0  0
  -21.9672  -20.3850   18.6160 C   0  0  0  0  0  0  0  0  0  0  0  0
  -19.9057  -21.5760   19.0264 C   0  0  0  0  0  0  0  0  0  0  0  0
  -25.9552  -10.9717   20.4088 C   0  0  0  0  0  0  0  0  0  0  0  0
  -21.4830  -27.9922   21.1798 C   0  0  0  0  0  0  0  0  0  0  0  0
  -24.2464   -9.4793   21.0210 C   0  0  0  0  0  0  0  0  0  0  0  0
  -21.5362   -8.9974   21.4739 C   0  0  0  0  0  0  0  0  0  0  0  0
  -19.3016  -20.8946   17.9697 C   0  0  0  0  0  0  0  0  0  0  0  0
  -23.5767   -8.5085   20.2762 C   0  0  0  0  0  0  0  0  0  0  0  0
  -27.0831  -14.8652   19.1978 C   0  0  0  0  0  0  0  0  0  0  0  0
  -28.0014  -16.5826   18.1768 C   0  0  0  0  0  0  0  0  0  0  0  0
  -28.7291  -14.3631   17.2863 C   0  0  0  0  0  0  0  0  0  0  0  0
  -26.8590  -28.6454   21.5480 C   0  0  0  0  0  0  0  0  0  0  0  0
  -26.3123  -31.5931   22.7867 C   0  0  0  0  0  0  0  0  0  0  0  0
  -19.6116  -23.2892   20.8488 C   0  0  0  0  0  0  0  0  0  0  0  0
  -24.0462  -33.9430   23.7813 C   0  0  0  0  0  0  0  0  0  0  0  0
  -24.0712  -20.7145   19.9617 C   0  0  0  0  0  0  0  0  0  0  0  0
  -30.7572  -26.1671   19.3754 C   0  0  0  0  0  0  0  0  0  0  0  0
  -25.2489  -29.6082   19.8638 C   0  0  0  0  0  0  0  0  0  0  0  0
  -24.3257  -30.0448   22.6391 C   0  0  0  0  0  0  0  0  0  0  0  0
  -30.6120  -27.3303   20.3533 C   0  0  0  0  0  0  0  0  0  0  0  0
  -27.4174  -20.3206   21.1128 C   0  0  0  0  0  0  0  0  0  0  0  0
  -29.6446  -26.9669   21.4752 C   0  0  0  0  0  0  0  0  0  0  0  0
  -27.7952  -18.9105   20.6535 C   0  0  0  0  0  0  0  0  0  0  0  0
  -25.9561  -20.4020   21.5506 C   0  0  0  0  0  0  0  0  0  0  0  0
  -25.3627  -18.4950   20.1082 C   0  0  0  0  0  0  0  0  0  0  0  0
  -28.2441  -26.6750   20.9232 C   0  0  1  0  0  0  0  0  0  0  0  0
  -26.2264  -29.8932   20.9999 C   0  0  1  0  0  0  0  0  0  0  0  0
  -26.8077  -18.3787   19.5963 C   0  0  2  0  0  0  0  0  0  0  0  0
  -23.9003  -36.2375   24.7870 C   0  0  0  0  0  0  0  0  0  0  0  0
  -27.0099  -30.4357   25.5223 C   0  0  0  0  0  0  0  0  0  0  0  0
  -25.9487  -32.4484   26.5670 C   0  0  0  0  0  0  0  0  0  0  0  0
  -27.9387  -32.7165   25.0869 C   0  0  0  0  0  0  0  0  0  0  0  0
  -22.6446  -35.0206   21.4079 C   0  0  0  0  0  0  0  0  0  0  0  0
  -18.4951  -24.1882   21.3615 C   0  0  0  0  0  0  0  0  0  0  0  0
  -19.0177  -25.4856   21.9686 C   0  0  0  0  0  0  0  0  0  0  0  0
  -19.8451  -26.2808   20.9692 C   0  0  0  0  0  0  0  0  0  1  0  0
  -25.7048  -32.1200   24.0643 C   0  0  1  0  0  0  0  0  0  0  0  0
  -23.9483  -35.4312   23.4985 C   0  0  2  0  0  0  0  0  0  0  0  0
  -26.6357  -31.9136   25.2923 C   0  0  0  0  0  0  0  0  0  0  0  0
  -26.5707  -15.9338   19.8138 N   0  0  0  0  0  0  0  0  0  0  0  0
  -27.1483  -16.9628   19.1707 N   0  0  0  0  0  0  0  0  0  0  0  0
  -25.5968  -30.5834   22.1275 N   0  0  0  0  0  0  0  0  0  0  0  0
  -25.0790  -19.8852   20.4977 N   0  0  0  0  0  0  0  0  0  0  0  0
  -28.6659  -17.4899   17.4301 N   0  0  0  0  0  0  0  0  0  0  0  0
  -28.5904  -12.9744   17.4146 N   0  0  0  0  0  0  0  0  0  0  0  0
  -19.1683  -22.5261   19.7723 N   0  0  0  0  0  0  0  0  0  0  0  0
  -23.3211  -20.1261   18.9440 N   0  0  0  0  0  0  0  0  0  0  0  0
  -27.5571  -27.9096   20.6095 N   0  0  0  0  0  0  0  0  0  0  0  0
  -25.3560  -33.5129   23.8063 N   0  0  0  0  0  0  0  0  0  0  0  0
  -22.7183  -35.7292   22.7116 N   0  3  0  0  0  0  0  0  0  0  0  0
  -29.5104  -14.8247   16.4202 O   0  0  0  0  0  0  0  0  0  0  0  0
  -26.7250  -28.3712   22.7348 O   0  0  0  0  0  0  0  0  0  0  0  0
  -27.3786  -32.0651   22.3845 O   0  0  0  0  0  0  0  0  0  0  0  0
  -20.7279  -23.2831   21.3569 O   0  0  0  0  0  0  0  0  0  0  0  0
  -23.0595  -33.2337   23.9657 O   0  0  0  0  0  0  0  0  0  0  0  0
  -23.9049  -21.8715   20.3562 O   0  0  0  0  0  0  0  0  0  0  0  0
  -25.5919   -9.7191   20.7979 O   0  0  0  0  0  0  0  0  0  0  0  0
  -20.2896  -27.4850   21.5926 O   0  0  0  0  0  0  0  0  0  1  0  0
  -20.2352   -8.7651   21.6924 F   0  0  0  0  0  0  0  0  0  0  0  0
  -18.0216  -21.1313   17.6498 F   0  0  0  0  0  0  0  0  0  0  0  0
  -24.2301   -7.8033   19.3426 F   0  0  0  0  0  0  0  0  0  0  0  0
  1  2  1  0  0  0  0
  1  5  2  0  0  0  0
  2  6  2  0  0  0  0
  3  9  2  0  0  0  0
  3 18  1  0  0  0  0
  4 10  1  0  0  0  0
  4 18  2  0  0  0  0
  5 20  1  0  0  0  0
  6 22  1  0  0  0  0
  7 11  2  0  0  0  0
  7 21  1  0  0  0  0
  8 13  2  0  0  0  0
  8 24  1  0  0  0  0
  9 26  1  0  0  0  0
 10 26  2  0  0  0  0
 11 27  1  0  0  0  0
 12 14  2  0  0  0  0
 12 28  1  0  0  0  0
 13 30  1  0  0  0  0
 14 29  1  0  0  0  0
 15 23  1  0  0  0  0
 15 27  2  0  0  0  0
 16 24  2  0  0  0  0
 16 25  1  0  0  0  0
 17 29  2  0  0  0  0
 17 31  1  0  0  0  0
 18 32  1  0  0  0  0
 19 32  1  0  0  0  0
 19 33  2  0  0  0  0
 19 34  1  0  0  0  0
 20 22  2  0  0  0  0
 20 40  1  0  0  0  0
 21 23  2  0  0  0  0
 21 41  1  0  0  0  0
 22 49  1  0  0  0  0
 23 42  1  0  0  0  0
 24 70  1  0  0  0  0
 25 30  2  0  0  0  0
 25 69  1  0  0  0  0
 26 80  1  0  0  0  0
 27 81  1  0  0  0  0
 28 31  2  0  0  0  0
 28 80  1  0  0  0  0
 29 82  1  0  0  0  0
 30 83  1  0  0  0  0
 31 84  1  0  0  0  0
 32 63  2  0  0  0  0
 33 64  1  0  0  0  0
 33 67  1  0  0  0  0
 34 68  1  0  0  0  0
 34 74  2  0  0  0  0
 35 50  1  0  0  0  0
 35 71  1  0  0  0  0
 35 75  2  0  0  0  0
 36 60  1  0  0  0  0
 36 65  1  0  0  0  0
 36 76  2  0  0  0  0
 37 57  1  0  0  0  0
 37 69  1  0  0  0  0
 37 77  2  0  0  0  0
 38 61  1  0  0  0  0
 38 72  1  0  0  0  0
 38 78  2  0  0  0  0
 39 66  1  0  0  0  0
 39 70  1  0  0  0  0
 39 79  2  0  0  0  0
 40 43  1  0  0  0  0
 41 50  1  0  0  0  0
 42 65  1  0  0  0  0
 43 45  1  0  0  0  0
 44 46  1  0  0  0  0
 44 47  1  0  0  0  0
 45 49  1  0  0  0  0
 46 51  1  0  0  0  0
 47 66  1  0  0  0  0
 48 51  1  0  0  0  0
 48 66  1  0  0  0  0
 49 71  1  0  0  0  0
 50 65  1  0  0  0  0
 51 64  1  0  0  0  0
 52 61  1  0  0  0  0
 53 62  1  0  0  0  0
 54 62  1  0  0  0  0
 55 62  1  0  0  0  0
 56 73  1  0  0  0  0
 57 58  1  0  0  0  0
 58 59  1  0  0  0  0
 59 81  1  0  0  0  0
 60 62  1  0  0  0  0
 60 72  1  0  0  0  0
 61 73  1  0  0  0  0
 63 64  1  0  0  0  0
M  CHG  1  73   1
M  ISO  4  39 100  59 101  70 100  81 101
M  END
> <Batch ID>
0141

> <Smiles>
CNC(C)C(=O)NC(C(=O)N1Cc2cc([101O:1][101CH2:1]CCC(=O)Nc3cc([100NH:0][100C:0](=O)N4CCCC(n5nc(-c6ccc(Oc7ccc(F)cc7F)cc6)c(C(N)=O)c5N)C4)ccc3F)ccc2CC1C(=O)NC1CCCc2ccccc21)C(C)(C)C

> <Shape>
0.279

> <Color>
0.070

> <Negative vol penalty>
0.000

$$$$

  -OEChem-04052302543D

 89 97  0     1  0  0  0  0  0999 V2000
  -17.9903  -30.7631   23.4279 C   0  0  0  0  0  0  0  0  0  0  0  0
  -19.3683  -30.8513   23.2590 C   0  0  0  0  0  0  0  0  0  0  0  0
  -22.1208  -14.6891   21.4901 C   0  0  0  0  0  0  0  0  0  0  0  0
  -22.4317  -15.0183   19.1169 C   0  0  0  0  0  0  0  0  0  0  0  0
  -28.5677  -20.4924   15.0955 C   0  0  0  0  0  0  0  0  0  0  0  0
  -17.3610  -29.5200   23.3769 C   0  0  0  0  0  0  0  0  0  0  0  0
  -20.1181  -29.6961   23.0399 C   0  0  0  0  0  0  0  0  0  0  0  0
  -25.1052  -29.1551   19.5269 C   0  0  0  0  0  0  0  0  0  0  0  0
  -28.4430  -19.6615   16.2088 C   0  0  0  0  0  0  0  0  0  0  0  0
  -20.7376  -14.7056   21.3112 C   0  0  0  0  0  0  0  0  0  0  0  0
  -21.0485  -15.0347   18.9380 C   0  0  0  0  0  0  0  0  0  0  0  0
  -26.4671  -29.1531   19.8253 C   0  0  0  0  0  0  0  0  0  0  0  0
  -18.5360  -12.7825   18.7501 C   0  0  0  0  0  0  0  0  0  0  0  0
  -18.0124  -12.0427   17.6899 C   0  0  0  0  0  0  0  0  0  0  0  0
  -26.4505  -26.7411   19.8574 C   0  0  0  0  0  0  0  0  0  0  0  0
  -29.2310  -21.4488   17.6308 C   0  0  0  0  0  0  0  0  0  0  0  0
  -17.0781  -14.0599   16.7438 C   0  0  0  0  0  0  0  0  0  0  0  0
  -22.9679  -14.8456   20.3930 C   0  0  0  0  0  0  0  0  0  0  0  0
  -29.0240  -21.8015   15.2497 C   0  0  0  0  0  0  0  0  0  0  0  0
  -25.2470  -13.7081   20.5329 C   0  0  0  0  0  0  0  0  0  0  0  0
  -18.1021  -28.3501   23.1475 C   0  0  0  0  0  0  0  0  0  0  0  0
  -24.4022  -27.9482   19.4020 C   0  0  0  0  0  0  0  0  0  0  0  0
  -19.4983  -28.4361   22.9872 C   0  0  0  0  0  0  0  0  0  0  0  0
  -25.0803  -26.7304   19.5548 C   0  0  0  0  0  0  0  0  0  0  0  0
  -28.7747  -20.1397   17.4765 C   0  0  0  0  0  0  0  0  0  0  0  0
  -29.3557  -22.2797   16.5174 C   0  0  0  0  0  0  0  0  0  0  0  0
  -20.2014  -14.8783   20.0351 C   0  0  0  0  0  0  0  0  0  0  0  0
  -27.1393  -27.9461   19.9935 C   0  0  0  0  0  0  0  0  0  0  0  0
  -18.3306  -14.1610   18.8073 C   0  0  0  0  0  0  0  0  0  0  0  0
  -17.2835  -12.6813   16.6867 C   0  0  0  0  0  0  0  0  0  0  0  0
  -17.6017  -14.7996   17.8041 C   0  0  0  0  0  0  0  0  0  0  0  0
  -24.3969  -14.8293   20.5772 C   0  0  0  0  0  0  0  0  0  0  0  0
  -26.5006  -14.2182   20.7670 C   0  0  0  0  0  0  0  0  0  0  0  0
  -29.1427  -22.6444   14.0664 C   0  0  0  0  0  0  0  0  0  0  0  0
  -24.9317  -12.3288   20.3007 C   0  0  0  0  0  0  0  0  0  0  0  0
  -21.9654  -26.6026   20.9366 C   0  0  0  0  0  0  0  0  0  0  0  0
  -31.0735  -25.3392   17.7763 C   0  0  0  0  0  0  0  0  0  0  0  0
  -22.2236  -24.3770   18.5909 C   0  0  0  0  0  0  0  0  0  0  0  0
  -24.1799  -22.8511   16.2475 C   0  0  0  0  0  0  0  0  0  0  0  0
  -28.9339  -19.6118   19.9346 C   0  0  0  0  0  0  0  0  0  0  0  0
  -17.3838  -27.0239   23.1478 C   0  0  0  0  0  0  0  0  0  0  0  0
  -22.9392  -27.9669   19.0534 C   0  0  0  0  0  0  0  0  0  0  0  0
  -24.3757  -25.4070   19.4111 C   0  0  0  0  0  0  0  0  0  0  0  0
  -18.2016  -25.8882   22.5383 C   0  0  0  0  0  0  0  0  0  0  0  0
  -28.7179  -17.8242   23.0063 C   0  0  0  0  0  0  0  0  0  0  0  0
  -19.6255  -25.9023   23.0852 C   0  0  0  0  0  0  0  0  0  0  0  0
  -27.6671  -16.7474   22.7260 C   0  0  0  0  0  0  0  0  0  0  0  0
  -28.3794  -19.1416   22.3109 C   0  0  0  0  0  0  0  0  0  0  0  0
  -27.0753  -17.9583   20.5881 C   0  0  0  0  0  0  0  0  0  0  0  0
  -20.3427  -27.2084   22.7229 C   0  0  1  0  0  0  0  0  0  0  0  0
  -22.2124  -26.6877   19.4569 C   0  0  1  0  0  0  0  0  0  0  0  0
  -27.4067  -16.5940   21.2146 C   0  0  2  0  0  0  0  0  0  0  0  0
  -29.4468  -21.9663   12.7638 C   0  0  0  0  0  0  0  0  0  0  0  0
  -24.1231  -21.0422   14.5091 C   0  0  0  0  0  0  0  0  0  0  0  0
  -22.3987  -22.2652   20.7862 C   0  0  0  0  0  0  0  0  0  0  0  0
  -23.2778  -20.6612   19.0766 C   0  0  0  0  0  0  0  0  0  0  0  0
  -20.9875  -21.6174   18.8258 C   0  0  0  0  0  0  0  0  0  0  0  0
  -30.6312  -28.3348   18.3882 C   0  0  0  0  0  0  0  0  0  0  0  0
  -31.3357  -27.8632   20.7347 C   0  0  0  0  0  0  0  0  0  0  0  0
  -24.7751  -24.7648   14.0698 C   0  0  0  0  0  0  0  0  0  0  0  0
  -31.5448  -26.0481   19.0380 C   0  0  0  0  0  0  0  0  0  0  0  0
  -30.1742  -24.1355   17.9706 C   0  0  0  0  0  0  0  0  0  0  0  0
  -29.2314  -26.8283   19.8214 C   0  0  0  0  0  0  0  0  0  1  0  0
  -22.9987  -23.0935   18.4156 C   0  0  1  0  0  0  0  0  0  0  0  0
  -23.9319  -22.5253   14.7857 C   0  0  2  0  0  0  0  0  0  0  0  0
  -22.4288  -21.9341   19.2807 C   0  0  0  0  0  0  0  0  0  0  0  0
  -30.6759  -27.2507   19.4800 C   0  0  0  0  0  0  0  0  0  0  0  0
  -25.0548  -15.9659   20.8206 N   0  0  0  0  0  0  0  0  0  0  0  0
  -26.3316  -15.5616   20.9313 N   0  0  0  0  0  0  0  0  0  0  0  0
  -22.9439  -25.4778   19.0758 N   0  0  0  0  0  0  0  0  0  0  0  0
  -28.1500  -18.9193   20.8816 N   0  0  0  0  0  0  0  0  0  0  0  0
  -27.7198  -13.6442   20.8464 N   0  0  0  0  0  0  0  0  0  0  0  0
  -23.5933  -11.9778   20.0774 N   0  0  0  0  0  0  0  0  0  0  0  0
  -28.6478  -19.2950   18.6071 N   0  0  0  0  0  0  0  0  0  0  0  0
  -29.8128  -23.5776   16.6917 N   0  0  0  0  0  0  0  0  0  0  0  0
  -20.7775  -27.1801   21.3428 N   0  0  0  0  0  0  0  0  0  0  0  0
  -23.0140  -22.8183   16.9829 N   0  0  0  0  0  0  0  0  0  0  0  0
  -24.8716  -23.2901   13.9179 N   0  3  0  0  0  0  0  0  0  0  0  0
  -29.0166  -23.8688   14.0597 O   0  0  0  0  0  0  0  0  0  0  0  0
  -25.8087  -11.4319   20.3078 O   0  0  0  0  0  0  0  0  0  0  0  0
  -22.7906  -26.0523   21.6562 O   0  0  0  0  0  0  0  0  0  0  0  0
  -31.4256  -25.7280   16.6624 O   0  0  0  0  0  0  0  0  0  0  0  0
  -21.0248  -24.4039   18.3012 O   0  0  0  0  0  0  0  0  0  0  0  0
  -25.2967  -23.1054   16.6931 O   0  0  0  0  0  0  0  0  0  0  0  0
  -29.8141  -20.4056   20.2768 O   0  0  0  0  0  0  0  0  0  0  0  0
  -18.8517  -14.8941   19.8601 O   0  0  0  0  0  0  0  0  0  0  0  0
  -28.4684  -27.9414   20.2855 O   0  0  0  0  0  0  0  0  0  1  0  0
  -16.7820  -11.9710   15.6678 F   0  0  0  0  0  0  0  0  0  0  0  0
  -17.4020  -16.1239   17.8529 F   0  0  0  0  0  0  0  0  0  0  0  0
  1  2  1  0  0  0  0
  1  6  2  0  0  0  0
  2  7  2  0  0  0  0
  3 10  2  0  0  0  0
  3 18  1  0  0  0  0
  4 11  1  0  0  0  0
  4 18  2  0  0  0  0
  5  9  2  0  0  0  0
  5 19  1  0  0  0  0
  6 21  1  0  0  0  0
  7 23  1  0  0  0  0
  8 12  2  0  0  0  0
  8 22  1  0  0  0  0
  9 25  1  0  0  0  0
 10 27  1  0  0  0  0
 11 27  2  0  0  0  0
 12 28  1  0  0  0  0
 13 14  2  0  0  0  0
 13 29  1  0  0  0  0
 14 30  1  0  0  0  0
 15 24  1  0  0  0  0
 15 28  2  0  0  0  0
 16 25  2  0  0  0  0
 16 26  1  0  0  0  0
 17 30  2  0  0  0  0
 17 31  1  0  0  0  0
 18 32  1  0  0  0  0
 19 26  2  0  0  0  0
 19 34  1  0  0  0  0
 20 32  1  0  0  0  0
 20 33  2  0  0  0  0
 20 35  1  0  0  0  0
 21 23  2  0  0  0  0
 21 41  1  0  0  0  0
 22 24  2  0  0  0  0
 22 42  1  0  0  0  0
 23 50  1  0  0  0  0
 24 43  1  0  0  0  0
 25 74  1  0  0  0  0
 26 75  1  0  0  0  0
 27 86  1  0  0  0  0
 28 87  1  0  0  0  0
 29 31  2  0  0  0  0
 29 86  1  0  0  0  0
 30 88  1  0  0  0  0
 31 89  1  0  0  0  0
 32 68  2  0  0  0  0
 33 69  1  0  0  0  0
 33 72  1  0  0  0  0
 34 53  1  0  0  0  0
 34 79  2  0  0  0  0
 35 73  1  0  0  0  0
 35 80  2  0  0  0  0
 36 51  1  0  0  0  0
 36 76  1  0  0  0  0
 36 81  2  0  0  0  0
 37 61  1  0  0  0  0
 37 62  1  0  0  0  0
 37 82  2  0  0  0  0
 38 64  1  0  0  0  0
 38 70  1  0  0  0  0
 38 83  2  0  0  0  0
 39 65  1  0  0  0  0
 39 77  1  0  0  0  0
 39 84  2  0  0  0  0
 40 71  1  0  0  0  0
 40 74  1  0  0  0  0
 40 85  2  0  0  0  0
 41 44  1  0  0  0  0
 42 51  1  0  0  0  0
 43 70  1  0  0  0  0
 44 46  1  0  0  0  0
 45 47  1  0  0  0  0
 45 48  1  0  0  0  0
 46 50  1  0  0  0  0
 47 52  1  0  0  0  0
 48 71  1  0  0  0  0
 49 52  1  0  0  0  0
 49 71  1  0  0  0  0
 50 76  1  0  0  0  0
 51 70  1  0  0  0  0
 52 69  1  0  0  0  0
 54 65  1  0  0  0  0
 55 66  1  0  0  0  0
 56 66  1  0  0  0  0
 57 66  1  0  0  0  0
 58 67  1  0  0  0  0
 59 67  1  0  0  0  0
 60 78  1  0  0  0  0
 61 67  1  0  0  0  0
 62 75  1  0  0  0  0
 63 67  1  0  0  0  0
 63 87  1  0  0  0  0
 64 66  1  0  0  0  0
 64 77  1  0  0  0  0
 65 78  1  0  0  0  0
 68 69  1  0  0  0  0
M  CHG  1  78   1
M  ISO  4  40 100  63 101  74 100  87 101
M  END
> <Batch ID>
0141

> <Smiles>
CNC(C)C(=O)NC(C(=O)N1Cc2cc([101O:1][101CH2:1]C(C)(C)CC(=O)CNc3cc([100NH:0][100C:0](=O)N4CCCC(n5nc(-c6ccc(Oc7ccc(F)cc7F)cc6)c(C(N)=O)c5N)C4)ccc3C(C)=O)ccc2CC1C(=O)NC1CCCc2ccccc21)C(C)(C)C

> <Shape>
0.227

> <Color>
0.072

> <Negative vol penalty>
0.000

$$$$

  -OEChem-04052302543D

 86 94  0     1  0  0  0  0  0999 V2000
  -24.1108  -11.6773   20.4072 C   0  0  0  0  0  0  0  0  0  0  0  0
  -23.6603  -12.8910   20.9166 C   0  0  0  0  0  0  0  0  0  0  0  0
  -30.9890  -26.6446   20.2819 C   0  0  0  0  0  0  0  0  0  0  0  0
  -30.0930  -28.7153   21.1457 C   0  0  0  0  0  0  0  0  0  0  0  0
  -19.6049  -27.4893   23.9579 C   0  0  0  0  0  0  0  0  0  0  0  0
  -25.4725  -11.4795   20.1823 C   0  0  0  0  0  0  0  0  0  0  0  0
  -24.5713  -13.9072   21.2024 C   0  0  0  0  0  0  0  0  0  0  0  0
  -23.6694  -19.9352   20.6064 C   0  0  0  0  0  0  0  0  0  0  0  0
  -32.2246  -27.2611   20.0853 C   0  0  0  0  0  0  0  0  0  0  0  0
  -31.3287  -29.3319   20.9492 C   0  0  0  0  0  0  0  0  0  0  0  0
  -23.3262  -20.9275   21.5237 C   0  0  0  0  0  0  0  0  0  0  0  0
  -34.1442  -31.5482   20.3402 C   0  0  0  0  0  0  0  0  0  0  0  0
  -18.4650  -27.9413   23.2932 C   0  0  0  0  0  0  0  0  0  0  0  0
  -34.1511  -32.8151   19.7567 C   0  0  0  0  0  0  0  0  0  0  0  0
  -25.6586  -21.4861   21.7827 C   0  0  0  0  0  0  0  0  0  0  0  0
  -19.5335  -27.5120   21.1692 C   0  0  0  0  0  0  0  0  0  0  0  0
  -33.0833  -31.9132   17.7860 C   0  0  0  0  0  0  0  0  0  0  0  0
  -29.9231  -27.3717   20.8120 C   0  0  0  0  0  0  0  0  0  0  0  0
  -20.7091  -27.0487   23.2284 C   0  0  0  0  0  0  0  0  0  0  0  0
  -28.2056  -26.0629   22.1702 C   0  0  0  0  0  0  0  0  0  0  0  0
  -26.3998  -12.4972   20.4564 C   0  0  0  0  0  0  0  0  0  0  0  0
  -25.0128  -19.7032   20.2781 C   0  0  0  0  0  0  0  0  0  0  0  0
  -25.9469  -13.7223   20.9823 C   0  0  0  0  0  0  0  0  0  0  0  0
  -26.0160  -20.4920   20.8590 C   0  0  0  0  0  0  0  0  0  0  0  0
  -20.6734  -27.0600   21.8340 C   0  0  0  0  0  0  0  0  0  0  0  0
  -32.3945  -28.6048   20.4190 C   0  0  0  0  0  0  0  0  0  0  0  0
  -24.3211  -21.7012   22.1141 C   0  0  0  0  0  0  0  0  0  0  0  0
  -33.6069  -30.4637   19.6466 C   0  0  0  0  0  0  0  0  0  0  0  0
  -18.4293  -27.9527   21.8988 C   0  0  0  0  0  0  0  0  0  0  0  0
  -33.6206  -32.9976   18.4796 C   0  0  0  0  0  0  0  0  0  0  0  0
  -33.0765  -30.6462   18.3696 C   0  0  0  0  0  0  0  0  0  0  0  0
  -28.6463  -26.7355   21.0147 C   0  0  0  0  0  0  0  0  0  0  0  0
  -26.9350  -25.6436   21.8599 C   0  0  0  0  0  0  0  0  0  0  0  0
  -21.9035  -26.5748   23.9561 C   0  0  0  0  0  0  0  0  0  0  0  0
  -28.8840  -25.8375   23.4131 C   0  0  0  0  0  0  0  0  0  0  0  0
  -27.0003  -17.2399   20.5705 C   0  0  0  0  0  0  0  0  0  0  0  0
  -28.9983  -19.1516   18.8747 C   0  0  0  0  0  0  0  0  0  0  0  0
  -29.8781  -22.3111   17.9311 C   0  0  0  0  0  0  0  0  0  0  0  0
  -21.8942  -26.5728   19.6849 C   0  0  0  0  0  0  0  0  0  0  0  0
  -27.8666  -12.2201   20.2414 C   0  0  0  0  0  0  0  0  0  0  0  0
  -25.3644  -18.6469   19.2666 C   0  0  0  0  0  0  0  0  0  0  0  0
  -27.4715  -20.2964   20.5251 C   0  0  0  0  0  0  0  0  0  0  0  0
  -28.7276  -13.4804   20.2183 C   0  0  0  0  0  0  0  0  0  0  0  0
  -24.4734  -25.5865   17.4373 C   0  0  0  0  0  0  0  0  0  0  0  0
  -28.3614  -14.3985   21.3802 C   0  0  0  0  0  0  0  0  0  0  0  0
  -25.7527  -25.7421   18.2627 C   0  0  0  0  0  0  0  0  0  0  0  0
  -23.4565  -26.6811   17.7555 C   0  0  0  0  0  0  0  0  0  0  0  0
  -24.4122  -26.9885   20.0052 C   0  0  0  0  0  0  0  0  0  0  0  0
  -26.9017  -14.8576   21.2816 C   0  0  1  0  0  0  0  0  0  0  0  0
  -26.8022  -18.1530   19.3938 C   0  0  1  0  0  0  0  0  0  0  0  0
  -25.4409  -25.8712   19.7666 C   0  0  2  0  0  0  0  0  0  0  0  0
  -31.1156  -24.1140   16.7000 C   0  0  0  0  0  0  0  0  0  0  0  0
  -31.0664  -18.7341   21.0789 C   0  0  0  0  0  0  0  0  0  0  0  0
  -32.3248  -20.7005   20.1746 C   0  0  0  0  0  0  0  0  0  0  0  0
  -31.9912  -18.6759   18.7560 C   0  0  0  0  0  0  0  0  0  0  0  0
  -24.1358  -22.6161   25.9302 C   0  0  0  0  0  0  0  0  0  0  0  0
  -21.6484  -22.8762   25.9722 C   0  0  0  0  0  0  0  0  0  0  0  0
  -27.9816  -22.2234   15.6608 C   0  0  0  0  0  0  0  0  0  0  0  0
  -23.1143  -24.6887   24.9920 C   0  0  0  0  0  0  0  0  0  0  0  0
  -22.8135  -22.4573   23.7908 C   0  0  0  0  0  0  0  0  0  1  0  0
  -30.0281  -20.1989   19.2235 C   0  0  1  0  0  0  0  0  0  0  0  0
  -30.2061  -22.9019   16.5718 C   0  0  2  0  0  0  0  0  0  0  0  0
  -31.3254  -19.5800   19.8162 C   0  0  0  0  0  0  0  0  0  0  0  0
  -22.9212  -23.1674   25.1576 C   0  0  0  0  0  0  0  0  0  0  0  0
  -27.7303  -26.7451   20.0427 N   0  0  0  0  0  0  0  0  0  0  0  0
  -26.7012  -26.0735   20.5868 N   0  0  0  0  0  0  0  0  0  0  0  0
  -27.7652  -19.2469   19.5352 N   0  0  0  0  0  0  0  0  0  0  0  0
  -23.2074  -26.7419   19.1974 N   0  0  0  0  0  0  0  0  0  0  0  0
  -26.0062  -24.9528   22.5544 N   0  0  0  0  0  0  0  0  0  0  0  0
  -22.8461  -27.4657   24.2636 N   0  0  0  0  0  0  0  0  0  0  0  0
  -30.1849  -26.3364   23.5642 N   0  0  0  0  0  0  0  0  0  0  0  0
  -21.7848  -26.6178   21.0744 N   0  0  0  0  0  0  0  0  0  0  0  0
  -26.7673  -15.9064   20.2934 N   0  0  0  0  0  0  0  0  0  0  0  0
  -30.2397  -20.9830   18.0116 N   0  0  0  0  0  0  0  0  0  0  0  0
  -21.9830  -25.2763   24.2691 N   0  3  0  0  0  0  0  0  0  0  0  0
  -28.9578  -23.3226   15.8749 N   0  3  0  0  0  0  0  0  0  0  0  0
  -28.3584  -25.1979   24.3555 O   0  0  0  0  0  0  0  0  0  0  0  0
  -27.3409  -17.7103   21.6496 O   0  0  0  0  0  0  0  0  0  0  0  0
  -29.2751  -18.2853   18.0413 O   0  0  0  0  0  0  0  0  0  0  0  0
  -29.3569  -22.9637   18.8328 O   0  0  0  0  0  0  0  0  0  0  0  0
  -20.9413  -26.3736   18.9271 O   0  0  0  0  0  0  0  0  0  0  0  0
  -33.6001  -29.2067   20.2276 O   0  0  0  0  0  0  0  0  0  0  0  0
  -23.9890  -22.6700   23.0103 O   0  0  0  0  0  0  0  0  0  1  0  0
  -17.3346  -28.3870   21.2609 F   0  0  0  0  0  0  0  0  0  0  0  0
  -33.6259  -34.2145   17.9200 F   0  0  0  0  0  0  0  0  0  0  0  0
  -32.5579  -29.6085   17.6988 F   0  0  0  0  0  0  0  0  0  0  0  0
  1  2  1  0  0  0  0
  1  6  2  0  0  0  0
  2  7  2  0  0  0  0
  3  9  2  0  0  0  0
  3 18  1  0  0  0  0
  4 10  1  0  0  0  0
  4 18  2  0  0  0  0
  5 13  2  0  0  0  0
  5 19  1  0  0  0  0
  6 21  1  0  0  0  0
  7 23  1  0  0  0  0
  8 11  2  0  0  0  0
  8 22  1  0  0  0  0
  9 26  1  0  0  0  0
 10 26  2  0  0  0  0
 11 27  1  0  0  0  0
 12 14  2  0  0  0  0
 12 28  1  0  0  0  0
 13 29  1  0  0  0  0
 14 30  1  0  0  0  0
 15 24  1  0  0  0  0
 15 27  2  0  0  0  0
 16 25  1  0  0  0  0
 16 29  2  0  0  0  0
 17 30  2  0  0  0  0
 17 31  1  0  0  0  0
 18 32  1  0  0  0  0
 19 25  2  0  0  0  0
 19 34  1  0  0  0  0
 20 32  1  0  0  0  0
 20 33  2  0  0  0  0
 20 35  1  0  0  0  0
 21 23  2  0  0  0  0
 21 40  1  0  0  0  0
 22 24  2  0  0  0  0
 22 41  1  0  0  0  0
 23 49  1  0  0  0  0
 24 42  1  0  0  0  0
 25 72  1  0  0  0  0
 26 82  1  0  0  0  0
 27 83  1  0  0  0  0
 28 31  2  0  0  0  0
 28 82  1  0  0  0  0
 29 84  1  0  0  0  0
 30 85  1  0  0  0  0
 31 86  1  0  0  0  0
 32 65  2  0  0  0  0
 33 66  1  0  0  0  0
 33 69  1  0  0  0  0
 34 70  1  0  0  0  0
 34 75  2  0  0  0  0
 35 71  1  0  0  0  0
 35 77  2  0  0  0  0
 36 50  1  0  0  0  0
 36 73  1  0  0  0  0
 36 78  2  0  0  0  0
 37 61  1  0  0  0  0
 37 67  1  0  0  0  0
 37 79  2  0  0  0  0
 38 62  1  0  0  0  0
 38 74  1  0  0  0  0
 38 80  2  0  0  0  0
 39 68  1  0  0  0  0
 39 72  1  0  0  0  0
 39 81  2  0  0  0  0
 40 43  1  0  0  0  0
 41 50  1  0  0  0  0
 42 67  1  0  0  0  0
 43 45  1  0  0  0  0
 44 46  1  0  0  0  0
 44 47  1  0  0  0  0
 45 49  1  0  0  0  0
 46 51  1  0  0  0  0
 47 68  1  0  0  0  0
 48 51  1  0  0  0  0
 48 68  1  0  0  0  0
 49 73  1  0  0  0  0
 50 67  1  0  0  0  0
 51 66  1  0  0  0  0
 52 62  1  0  0  0  0
 53 63  1  0  0  0  0
 54 63  1  0  0  0  0
 55 63  1  0  0  0  0
 56 64  1  0  0  0  0
 57 64  1  0  0  0  0
 58 76  1  0  0  0  0
 59 64  1  0  0  0  0
 59 75  1  0  0  0  0
 60 64  1  0  0  0  0
 60 83  1  0  0  0  0
 61 63  1  0  0  0  0
 61 74  1  0  0  0  0
 62 76  1  0  0  0  0
 65 66  1  0  0  0  0
M  CHG  2  75   1  76   1
M  ISO  4  39 100  60 101  72 100  83 101
M  END
> <Batch ID>
0141

> <Smiles>
CNC(C)C(=O)NC(C(=O)N1Cc2cc([101O:1][101CH2:1]C(C)(C)CNC(=N)c3ccc(F)cc3[100NH:0][100C:0](=O)N3CCCC(n4nc(-c5ccc(Oc6ccc(F)cc6F)cc5)c(C(N)=O)c4N)C3)ccc2CC1C(=O)NC1CCCc2ccccc21)C(C)(C)C

> <Shape>
0.195

> <Color>
0.064

> <Negative vol penalty>
0.000

$$$$

  -OEChem-04052302543D

 84 92  0     1  0  0  0  0  0999 V2000
  -32.6658  -26.1689   23.3136 C   0  0  0  0  0  0  0  0  0  0  0  0
  -32.0439  -26.4174   22.0942 C   0  0  0  0  0  0  0  0  0  0  0  0
  -26.3123  -13.6317   21.8491 C   0  0  0  0  0  0  0  0  0  0  0  0
  -26.1525  -12.5838   19.6781 C   0  0  0  0  0  0  0  0  0  0  0  0
  -31.9111  -25.7424   24.4056 C   0  0  0  0  0  0  0  0  0  0  0  0
  -30.6670  -26.2385   21.9658 C   0  0  0  0  0  0  0  0  0  0  0  0
  -28.4355  -30.0503   19.4887 C   0  0  0  0  0  0  0  0  0  0  0  0
  -25.1488  -12.9759   22.2513 C   0  0  0  0  0  0  0  0  0  0  0  0
  -24.9890  -11.9280   20.0802 C   0  0  0  0  0  0  0  0  0  0  0  0
  -28.5559  -30.0641   18.0998 C   0  0  0  0  0  0  0  0  0  0  0  0
  -24.1697   -9.2277   21.9398 C   0  0  0  0  0  0  0  0  0  0  0  0
  -24.0515   -7.8727   21.6307 C   0  0  0  0  0  0  0  0  0  0  0  0
  -30.0555  -24.3886   17.1918 C   0  0  0  0  0  0  0  0  0  0  0  0
  -26.3405  -29.1297   17.9044 C   0  0  0  0  0  0  0  0  0  0  0  0
  -22.0595   -8.3396   20.3458 C   0  0  0  0  0  0  0  0  0  0  0  0
  -26.8142  -13.4357   20.5625 C   0  0  0  0  0  0  0  0  0  0  0  0
  -30.8170  -23.6800   18.1657 C   0  0  0  0  0  0  0  0  0  0  0  0
  -29.3394  -13.6508   20.2718 C   0  0  0  0  0  0  0  0  0  0  0  0
  -30.5228  -25.5675   24.2931 C   0  0  0  0  0  0  0  0  0  0  0  0
  -27.2690  -29.5651   20.0972 C   0  0  0  0  0  0  0  0  0  0  0  0
  -29.8932  -25.8080   23.0569 C   0  0  0  0  0  0  0  0  0  0  0  0
  -26.2068  -29.1131   19.3012 C   0  0  0  0  0  0  0  0  0  0  0  0
  -24.4872  -12.1240   21.3669 C   0  0  0  0  0  0  0  0  0  0  0  0
  -27.5095  -29.6011   17.3075 C   0  0  0  0  0  0  0  0  0  0  0  0
  -23.2327  -10.1387   21.4520 C   0  0  0  0  0  0  0  0  0  0  0  0
  -22.9965   -7.4286   20.8337 C   0  0  0  0  0  0  0  0  0  0  0  0
  -22.1777   -9.6946   20.6549 C   0  0  0  0  0  0  0  0  0  0  0  0
  -28.0157  -14.1133   20.1462 C   0  0  0  0  0  0  0  0  0  0  0  0
  -31.9924  -24.3282   18.4753 C   0  0  0  0  0  0  0  0  0  0  0  0
  -30.1062  -14.6535   19.7305 C   0  0  0  0  0  0  0  0  0  0  0  0
  -30.6780  -25.5515   16.7944 C   0  0  0  0  0  0  0  0  0  0  0  0
  -30.4237  -22.4529   18.7540 C   0  0  0  0  0  0  0  0  0  0  0  0
  -29.2831  -21.7399   18.4815 C   0  0  0  0  0  0  0  0  0  0  0  0
  -29.8318  -12.4245   20.8280 C   0  0  0  0  0  0  0  0  0  0  0  0
  -29.0177  -20.4639   19.1758 C   0  0  0  0  0  0  0  0  0  0  0  0
  -26.6008  -27.1665   22.0731 C   0  0  0  0  0  0  0  0  0  0  0  0
  -23.6473  -28.5079   22.0781 C   0  0  0  0  0  0  0  0  0  0  0  0
  -29.1205  -26.5690   15.0969 C   0  0  0  0  0  0  0  0  0  0  0  0
  -21.3507  -30.4632   20.4816 C   0  0  0  0  0  0  0  0  0  0  0  0
  -29.7559  -25.0595   25.4883 C   0  0  0  0  0  0  0  0  0  0  0  0
  -27.1442  -29.5817   21.5961 C   0  0  0  0  0  0  0  0  0  0  0  0
  -24.9254  -28.6011   19.9048 C   0  0  0  0  0  0  0  0  0  0  0  0
  -28.2464  -25.2546   25.3714 C   0  0  0  0  0  0  0  0  0  0  0  0
  -29.9679  -18.1545   16.4933 C   0  0  0  0  0  0  0  0  0  0  0  0
  -27.7558  -24.8112   23.9968 C   0  0  0  0  0  0  0  0  0  0  0  0
  -29.6450  -16.8085   17.1365 C   0  0  0  0  0  0  0  0  0  0  0  0
  -28.9935  -19.2464   16.9323 C   0  0  0  0  0  0  0  0  0  0  0  0
  -28.5649  -18.0445   19.0564 C   0  0  0  0  0  0  0  0  0  0  0  0
  -28.3981  -25.6494   22.8849 C   0  0  1  0  0  0  0  0  0  0  0  0
  -26.1134  -28.5870   22.1209 C   0  0  1  0  0  0  0  0  0  0  0  0
  -29.5613  -16.9419   18.6654 C   0  0  1  0  0  0  0  0  0  0  0  0
  -33.0572  -23.9354   19.4278 C   0  0  0  0  0  0  0  0  0  0  0  0
  -19.0131  -31.3458   20.7144 C   0  0  0  0  0  0  0  0  0  0  0  0
  -22.5399  -25.7709   21.3084 C   0  0  0  0  0  0  0  0  0  0  0  0
  -20.4080  -26.8994   20.6379 C   0  0  0  0  0  0  0  0  0  0  0  0
  -21.1818  -27.0057   23.0070 C   0  0  0  0  0  0  0  0  0  0  0  0
  -22.2863  -33.2710   20.4777 C   0  0  0  0  0  0  0  0  0  0  0  0
  -29.0880  -27.8146   14.2222 C   0  0  0  0  0  0  0  0  0  0  0  0
  -27.6696  -28.3000   13.9439 C   0  0  0  0  0  0  0  0  0  0  0  0
  -26.9170  -28.6049   15.2309 C   0  0  0  0  0  0  0  0  0  1  0  0
  -22.3992  -28.3481   21.2441 C   0  0  1  0  0  0  0  0  0  0  0  0
  -20.4878  -31.6106   20.9750 C   0  0  2  0  0  0  0  0  0  0  0  0
  -21.6570  -27.0138   21.5377 C   0  0  0  0  0  0  0  0  0  0  0  0
  -27.9422  -15.3162   19.5705 N   0  0  0  0  0  0  0  0  0  0  0  0
  -29.2294  -15.6182   19.3295 N   0  0  0  0  0  0  0  0  0  0  0  0
  -28.8865  -19.3152   18.3974 N   0  0  0  0  0  0  0  0  0  0  0  0
  -24.8541  -28.6316   21.3750 N   0  0  0  0  0  0  0  0  0  0  0  0
  -31.4383  -14.7954   19.5632 N   0  0  0  0  0  0  0  0  0  0  0  0
  -28.9071  -11.5046   21.3408 N   0  0  0  0  0  0  0  0  0  0  0  0
  -30.2827  -26.5406   15.8626 N   0  0  0  0  0  0  0  0  0  0  0  0
  -27.7583  -26.9443   22.7945 N   0  0  0  0  0  0  0  0  0  0  0  0
  -21.5957  -29.5430   21.4788 N   0  0  0  0  0  0  0  0  0  0  0  0
  -20.8667  -32.8769   20.2866 N   0  3  0  0  0  0  0  0  0  0  0  0
  -31.0567  -12.1596   20.8838 O   0  0  0  0  0  0  0  0  0  0  0  0
  -28.9234  -20.4938   20.4042 O   0  0  0  0  0  0  0  0  0  0  0  0
  -25.9725  -26.3334   21.4307 O   0  0  0  0  0  0  0  0  0  0  0  0
  -23.5542  -28.5295   23.3080 O   0  0  0  0  0  0  0  0  0  0  0  0
  -28.2164  -25.7403   15.0838 O   0  0  0  0  0  0  0  0  0  0  0  0
  -21.7628  -30.3887   19.3262 O   0  0  0  0  0  0  0  0  0  0  0  0
  -23.3519  -11.4838   21.7591 O   0  0  0  0  0  0  0  0  0  0  0  0
  -27.6247  -29.6129   15.9516 O   0  0  0  0  0  0  0  0  0  1  0  0
  -22.8840   -6.1276   20.5357 F   0  0  0  0  0  0  0  0  0  0  0  0
  -21.2752  -10.5652   20.1824 F   0  0  0  0  0  0  0  0  0  0  0  0
  -32.1743  -25.7849   17.5937 S   0  0  0  0  0  0  0  0  0  0  0  0
  1  2  1  0  0  0  0
  1  5  2  0  0  0  0
  2  6  2  0  0  0  0
  3  8  2  0  0  0  0
  3 16  1  0  0  0  0
  4  9  1  0  0  0  0
  4 16  2  0  0  0  0
  5 19  1  0  0  0  0
  6 21  1  0  0  0  0
  7 10  2  0  0  0  0
  7 20  1  0  0  0  0
  8 23  1  0  0  0  0
  9 23  2  0  0  0  0
 10 24  1  0  0  0  0
 11 12  2  0  0  0  0
 11 25  1  0  0  0  0
 12 26  1  0  0  0  0
 13 17  1  0  0  0  0
 13 31  2  0  0  0  0
 14 22  1  0  0  0  0
 14 24  2  0  0  0  0
 15 26  2  0  0  0  0
 15 27  1  0  0  0  0
 16 28  1  0  0  0  0
 17 29  2  0  0  0  0
 17 32  1  0  0  0  0
 18 28  1  0  0  0  0
 18 30  2  0  0  0  0
 18 34  1  0  0  0  0
 19 21  2  0  0  0  0
 19 40  1  0  0  0  0
 20 22  2  0  0  0  0
 20 41  1  0  0  0  0
 21 49  1  0  0  0  0
 22 42  1  0  0  0  0
 23 80  1  0  0  0  0
 24 81  1  0  0  0  0
 25 27  2  0  0  0  0
 25 80  1  0  0  0  0
 26 82  1  0  0  0  0
 27 83  1  0  0  0  0
 28 64  2  0  0  0  0
 29 52  1  0  0  0  0
 29 84  1  0  0  0  0
 30 65  1  0  0  0  0
 30 68  1  0  0  0  0
 31 70  1  0  0  0  0
 31 84  1  0  0  0  0
 32 33  2  0  0  0  0
 33 35  1  0  0  0  0
 34 69  1  0  0  0  0
 34 74  2  0  0  0  0
 35 66  1  0  0  0  0
 35 75  2  0  0  0  0
 36 50  1  0  0  0  0
 36 71  1  0  0  0  0
 36 76  2  0  0  0  0
 37 61  1  0  0  0  0
 37 67  1  0  0  0  0
 37 77  2  0  0  0  0
 38 58  1  0  0  0  0
 38 70  1  0  0  0  0
 38 78  2  0  0  0  0
 39 62  1  0  0  0  0
 39 72  1  0  0  0  0
 39 79  2  0  0  0  0
 40 43  1  0  0  0  0
 41 50  1  0  0  0  0
 42 67  1  0  0  0  0
 43 45  1  0  0  0  0
 44 46  1  0  0  0  0
 44 47  1  0  0  0  0
 45 49  1  0  0  0  0
 46 51  1  0  0  0  0
 47 66  1  0  0  0  0
 48 51  1  0  0  0  0
 48 66  1  0  0  0  0
 49 71  1  0  0  0  0
 50 67  1  0  0  0  0
 51 65  1  0  0  0  0
 53 62  1  0  0  0  0
 54 63  1  0  0  0  0
 55 63  1  0  0  0  0
 56 63  1  0  0  0  0
 57 73  1  0  0  0  0
 58 59  1  0  0  0  0
 59 60  1  0  0  0  0
 60 81  1  0  0  0  0
 61 63  1  0  0  0  0
 61 72  1  0  0  0  0
 62 73  1  0  0  0  0
 64 65  1  0  0  0  0
M  CHG  1  73   1
M  ISO  4  33 100  35 100  60 101  81 101
M  END
> <Batch ID>
0141

> <Smiles>
CNC(C)C(=O)NC(C(=O)N1Cc2cc([101O:1][101CH2:1]CCC(=O)Nc3cc(C=[100CH:0][100C:0](=O)N4CCCC(n5nc(-c6ccc(Oc7ccc(F)cc7F)cc6)c(C(N)=O)c5N)C4)c(C)s3)ccc2CC1C(=O)NC1CCCc2ccccc21)C(C)(C)C

> <Shape>
0.231

> <Color>
0.094

> <Negative vol penalty>
0.000

$$$$

  -OEChem-04052302543D

 87 95  0     1  0  0  0  0  0999 V2000
  -23.4822   -7.8691   21.3729 C   0  0  0  0  0  0  0  0  0  0  0  0
  -24.1364   -8.8583   20.6456 C   0  0  0  0  0  0  0  0  0  0  0  0
  -24.0863  -30.4668   20.7211 C   0  0  0  0  0  0  0  0  0  0  0  0
  -24.1328  -29.1110   22.7203 C   0  0  0  0  0  0  0  0  0  0  0  0
  -22.2784   -8.1581   22.0142 C   0  0  0  0  0  0  0  0  0  0  0  0
  -23.5866  -10.1368   20.5583 C   0  0  0  0  0  0  0  0  0  0  0  0
  -27.0302  -13.7842   21.2530 C   0  0  0  0  0  0  0  0  0  0  0  0
  -22.7003  -30.5795   20.8297 C   0  0  0  0  0  0  0  0  0  0  0  0
  -22.7467  -29.2237   22.8290 C   0  0  0  0  0  0  0  0  0  0  0  0
  -27.8698  -14.0799   20.1800 C   0  0  0  0  0  0  0  0  0  0  0  0
  -20.0147  -27.8295   21.4066 C   0  0  0  0  0  0  0  0  0  0  0  0
  -19.2909  -26.6720   21.6924 C   0  0  0  0  0  0  0  0  0  0  0  0
  -26.4980  -15.9894   19.6405 C   0  0  0  0  0  0  0  0  0  0  0  0
  -29.9526  -21.7392   21.4658 C   0  0  0  0  0  0  0  0  0  0  0  0
  -29.4824  -20.4350   23.4444 C   0  0  0  0  0  0  0  0  0  0  0  0
  -29.2520  -22.8393   23.4995 C   0  0  0  0  0  0  0  0  0  0  0  0
  -18.4561  -27.6938   23.7163 C   0  0  0  0  0  0  0  0  0  0  0  0
  -24.8026  -29.7325   21.6663 C   0  0  0  0  0  0  0  0  0  0  0  0
  -27.2035  -30.4705   22.1120 C   0  0  0  0  0  0  0  0  0  0  0  0
  -21.7184   -9.4433   21.9428 C   0  0  0  0  0  0  0  0  0  0  0  0
  -25.9101  -14.5839   21.5217 C   0  0  0  0  0  0  0  0  0  0  0  0
  -22.3734  -10.4428   21.1982 C   0  0  0  0  0  0  0  0  0  0  0  0
  -25.6472  -15.7032   20.7191 C   0  0  0  0  0  0  0  0  0  0  0  0
  -29.8727  -20.5030   22.1070 C   0  0  0  0  0  0  0  0  0  0  0  0
  -29.6424  -22.9074   22.1621 C   0  0  0  0  0  0  0  0  0  0  0  0
  -22.0305  -29.9580   21.8836 C   0  0  0  0  0  0  0  0  0  0  0  0
  -27.6021  -15.1809   19.3718 C   0  0  0  0  0  0  0  0  0  0  0  0
  -19.9594  -28.9191   22.2757 C   0  0  0  0  0  0  0  0  0  0  0  0
  -29.1720  -21.6032   24.1407 C   0  0  0  0  0  0  0  0  0  0  0  0
  -18.5115  -26.6041   22.8473 C   0  0  0  0  0  0  0  0  0  0  0  0
  -19.1800  -28.8513   23.4305 C   0  0  0  0  0  0  0  0  0  0  0  0
  -26.2343  -29.6153   21.5543 C   0  0  0  0  0  0  0  0  0  0  0  0
  -28.4041  -29.9312   21.7194 C   0  0  0  0  0  0  0  0  0  0  0  0
  -27.0337  -31.6472   22.9134 C   0  0  0  0  0  0  0  0  0  0  0  0
  -22.7701  -14.0951   21.5936 C   0  0  0  0  0  0  0  0  0  0  0  0
  -22.7146  -17.1402   22.7100 C   0  0  0  0  0  0  0  0  0  0  0  0
  -30.5916  -19.2043   20.0761 C   0  0  0  0  0  0  0  0  0  0  0  0
  -24.2561  -20.1778   22.9192 C   0  0  0  0  0  0  0  0  0  0  0  0
  -30.0921  -24.4074   20.1887 C   0  0  0  0  0  0  0  0  0  0  0  0
  -20.3912   -9.6952   22.6134 C   0  0  0  0  0  0  0  0  0  0  0  0
  -25.0294  -14.2671   22.6991 C   0  0  0  0  0  0  0  0  0  0  0  0
  -24.4690  -16.6052   20.9775 C   0  0  0  0  0  0  0  0  0  0  0  0
  -20.0658  -11.1771   22.7827 C   0  0  0  0  0  0  0  0  0  0  0  0
  -30.3777  -27.3485   18.2024 C   0  0  0  0  0  0  0  0  0  0  0  0
  -20.3400  -11.9351   21.4877 C   0  0  0  0  0  0  0  0  0  0  0  0
  -29.4404  -28.3433   18.8909 C   0  0  0  0  0  0  0  0  0  0  0  0
  -29.8219  -25.9260   18.2405 C   0  0  0  0  0  0  0  0  0  0  0  0
  -28.5120  -26.4354   20.2638 C   0  0  0  0  0  0  0  0  0  0  0  0
  -21.8213  -11.8484   21.1007 C   0  0  1  0  0  0  0  0  0  0  0  0
  -23.6260  -14.8513   22.5699 C   0  0  1  0  0  0  0  0  0  0  0  0
  -29.0599  -27.8712   20.3079 C   0  0  2  0  0  0  0  0  0  0  0  0
  -24.6505  -22.5426   23.6605 C   0  0  0  0  0  0  0  0  0  0  0  0
  -20.7215  -17.7845   20.4913 C   0  0  0  0  0  0  0  0  0  0  0  0
  -21.1824  -20.2147   20.8785 C   0  0  0  0  0  0  0  0  0  0  0  0
  -20.1950  -18.8283   22.7021 C   0  0  0  0  0  0  0  0  0  0  0  0
  -30.3118  -16.0765   16.1878 C   0  0  0  0  0  0  0  0  0  0  0  0
  -32.1598  -15.6166   17.8038 C   0  0  0  0  0  0  0  0  0  0  0  0
  -25.7901  -19.3005   25.2933 C   0  0  0  0  0  0  0  0  0  0  0  0
  -30.8374  -17.7572   19.6834 C   0  0  0  0  0  0  0  0  0  0  0  0
  -30.5473  -17.5488   18.1949 C   0  0  0  0  0  0  0  0  0  0  0  0
  -29.7930  -15.1050   18.4498 C   0  0  0  0  0  0  0  0  0  1  0  0
  -22.6243  -18.5087   22.0791 C   0  0  1  0  0  0  0  0  0  0  0  0
  -24.5231  -21.0926   24.1009 C   0  0  2  0  0  0  0  0  0  0  0  0
  -21.2020  -18.8162   21.5314 C   0  0  0  0  0  0  0  0  0  0  0  0
  -30.7005  -16.0901   17.6819 C   0  0  0  0  0  0  0  0  0  0  0  0
  -26.7726  -28.6092   20.8601 N   0  0  0  0  0  0  0  0  0  0  0  0
  -28.0931  -28.8288   20.9789 N   0  0  0  0  0  0  0  0  0  0  0  0
  -23.6338  -16.2501   22.1368 N   0  0  0  0  0  0  0  0  0  0  0  0
  -29.4879  -25.5459   19.6148 N   0  0  0  0  0  0  0  0  0  0  0  0
  -29.6849  -30.2972   21.9386 N   0  0  0  0  0  0  0  0  0  0  0  0
  -25.7314  -32.0619   23.2240 N   0  0  0  0  0  0  0  0  0  0  0  0
  -30.1882  -19.3182   21.4008 N   0  0  0  0  0  0  0  0  0  0  0  0
  -29.7228  -24.1634   21.5111 N   0  0  0  0  0  0  0  0  0  0  0  0
  -22.6079  -12.7586   21.9051 N   0  0  0  0  0  0  0  0  0  0  0  0
  -23.0942  -19.4542   23.0859 N   0  0  0  0  0  0  0  0  0  0  0  0
  -25.7855  -20.6972   24.7872 N   0  3  0  0  0  0  0  0  0  0  0  0
  -28.0076  -32.3206   23.3277 O   0  0  0  0  0  0  0  0  0  0  0  0
  -22.2910  -14.6811   20.6299 O   0  0  0  0  0  0  0  0  0  0  0  0
  -22.0012  -16.8734   23.6802 O   0  0  0  0  0  0  0  0  0  0  0  0
  -30.7404  -20.1050   19.2552 O   0  0  0  0  0  0  0  0  0  0  0  0
  -25.0015  -20.1145   21.9441 O   0  0  0  0  0  0  0  0  0  0  0  0
  -30.9001  -23.7164   19.5628 O   0  0  0  0  0  0  0  0  0  0  0  0
  -28.7912  -21.5369   25.4457 O   0  0  0  0  0  0  0  0  0  0  0  0
  -20.6780  -30.0679   21.9901 O   0  0  0  0  0  0  0  0  0  0  0  0
  -28.4197  -15.4714   18.3234 O   0  0  0  0  0  0  0  0  0  1  0  0
  -17.8152  -25.4930   23.1208 F   0  0  0  0  0  0  0  0  0  0  0  0
  -19.1220  -29.8954   24.2686 F   0  0  0  0  0  0  0  0  0  0  0  0
  1  2  1  0  0  0  0
  1  5  2  0  0  0  0
  2  6  2  0  0  0  0
  3  8  2  0  0  0  0
  3 18  1  0  0  0  0
  4  9  1  0  0  0  0
  4 18  2  0  0  0  0
  5 20  1  0  0  0  0
  6 22  1  0  0  0  0
  7 10  2  0  0  0  0
  7 21  1  0  0  0  0
  8 26  1  0  0  0  0
  9 26  2  0  0  0  0
 10 27  1  0  0  0  0
 11 12  2  0  0  0  0
 11 28  1  0  0  0  0
 12 30  1  0  0  0  0
 13 23  1  0  0  0  0
 13 27  2  0  0  0  0
 14 24  2  0  0  0  0
 14 25  1  0  0  0  0
 15 24  1  0  0  0  0
 15 29  2  0  0  0  0
 16 25  2  0  0  0  0
 16 29  1  0  0  0  0
 17 30  2  0  0  0  0
 17 31  1  0  0  0  0
 18 32  1  0  0  0  0
 19 32  1  0  0  0  0
 19 33  2  0  0  0  0
 19 34  1  0  0  0  0
 20 22  2  0  0  0  0
 20 40  1  0  0  0  0
 21 23  2  0  0  0  0
 21 41  1  0  0  0  0
 22 49  1  0  0  0  0
 23 42  1  0  0  0  0
 24 72  1  0  0  0  0
 25 73  1  0  0  0  0
 26 84  1  0  0  0  0
 27 85  1  0  0  0  0
 28 31  2  0  0  0  0
 28 84  1  0  0  0  0
 29 83  1  0  0  0  0
 30 86  1  0  0  0  0
 31 87  1  0  0  0  0
 32 66  2  0  0  0  0
 33 67  1  0  0  0  0
 33 70  1  0  0  0  0
 34 71  1  0  0  0  0
 34 77  2  0  0  0  0
 35 50  1  0  0  0  0
 35 74  1  0  0  0  0
 35 78  2  0  0  0  0
 36 62  1  0  0  0  0
 36 68  1  0  0  0  0
 36 79  2  0  0  0  0
 37 59  1  0  0  0  0
 37 72  1  0  0  0  0
 37 80  2  0  0  0  0
 38 63  1  0  0  0  0
 38 75  1  0  0  0  0
 38 81  2  0  0  0  0
 39 69  1  0  0  0  0
 39 73  1  0  0  0  0
 39 82  2  0  0  0  0
 40 43  1  0  0  0  0
 41 50  1  0  0  0  0
 42 68  1  0  0  0  0
 43 45  1  0  0  0  0
 44 46  1  0  0  0  0
 44 47  1  0  0  0  0
 45 49  1  0  0  0  0
 46 51  1  0  0  0  0
 47 69  1  0  0  0  0
 48 51  1  0  0  0  0
 48 69  1  0  0  0  0
 49 74  1  0  0  0  0
 50 68  1  0  0  0  0
 51 67  1  0  0  0  0
 52 63  1  0  0  0  0
 53 64  1  0  0  0  0
 54 64  1  0  0  0  0
 55 64  1  0  0  0  0
 56 65  1  0  0  0  0
 57 65  1  0  0  0  0
 58 76  1  0  0  0  0
 59 60  1  0  0  0  0
 60 65  1  0  0  0  0
 61 65  1  0  0  0  0
 61 85  1  0  0  0  0
 62 64  1  0  0  0  0
 62 75  1  0  0  0  0
 63 76  1  0  0  0  0
 66 67  1  0  0  0  0
M  CHG  1  76   1
M  ISO  4  39 100  61 101  73 100  85 101
M  END
> <Batch ID>
0141

> <Smiles>
CNC(C)C(=O)NC(C(=O)N1Cc2cc([101O:1][101CH2:1]C(C)(C)CCC(=O)Nc3cc(O)cc([100NH:0][100C:0](=O)N4CCCC(n5nc(-c6ccc(Oc7ccc(F)cc7F)cc6)c(C(N)=O)c5N)C4)c3)ccc2CC1C(=O)NC1CCCc2ccccc21)C(C)(C)C

> <Shape>
0.265

> <Color>
0.071

> <Negative vol penalty>
0.000

$$$$

  -OEChem-04052302543D

 88 96  0     1  0  0  0  0  0999 V2000
  -31.3932  -12.1085   20.0456 C   0  0  0  0  0  0  0  0  0  0  0  0
  -30.9397  -13.1894   20.7949 C   0  0  0  0  0  0  0  0  0  0  0  0
  -22.3645  -28.6703   20.7391 C   0  0  0  0  0  0  0  0  0  0  0  0
  -23.2229  -26.9544   22.2075 C   0  0  0  0  0  0  0  0  0  0  0  0
  -30.5833  -11.5629   19.0504 C   0  0  0  0  0  0  0  0  0  0  0  0
  -29.6765  -13.7261   20.5486 C   0  0  0  0  0  0  0  0  0  0  0  0
  -27.0928  -14.6460   24.8057 C   0  0  0  0  0  0  0  0  0  0  0  0
  -29.6812  -20.1603   17.7846 C   0  0  0  0  0  0  0  0  0  0  0  0
  -29.3778  -21.4935   17.5087 C   0  0  0  0  0  0  0  0  0  0  0  0
  -21.0789  -28.4502   21.2335 C   0  0  0  0  0  0  0  0  0  0  0  0
  -21.9373  -26.7344   22.7019 C   0  0  0  0  0  0  0  0  0  0  0  0
  -27.4327  -15.7931   25.5215 C   0  0  0  0  0  0  0  0  0  0  0  0
  -19.2916  -29.2773   23.9820 C   0  0  0  0  0  0  0  0  0  0  0  0
  -18.5207  -30.3944   24.3036 C   0  0  0  0  0  0  0  0  0  0  0  0
  -25.5415  -16.9440   24.5633 C   0  0  0  0  0  0  0  0  0  0  0  0
  -29.1885  -21.9402   19.8755 C   0  0  0  0  0  0  0  0  0  0  0  0
  -16.8562  -29.7097   22.6919 C   0  0  0  0  0  0  0  0  0  0  0  0
  -23.4365  -27.9224   21.2261 C   0  0  0  0  0  0  0  0  0  0  0  0
  -25.7234  -29.0525   21.2112 C   0  0  0  0  0  0  0  0  0  0  0  0
  -29.3057  -12.0870   18.7983 C   0  0  0  0  0  0  0  0  0  0  0  0
  -25.9792  -14.6427   23.9535 C   0  0  0  0  0  0  0  0  0  0  0  0
  -28.8494  -13.1879   19.5482 C   0  0  0  0  0  0  0  0  0  0  0  0
  -25.1882  -15.7948   23.8398 C   0  0  0  0  0  0  0  0  0  0  0  0
  -29.7382  -19.7170   19.1060 C   0  0  0  0  0  0  0  0  0  0  0  0
  -29.1314  -22.3834   18.5542 C   0  0  0  0  0  0  0  0  0  0  0  0
  -29.4918  -20.6069   20.1514 C   0  0  0  0  0  0  0  0  0  0  0  0
  -20.8653  -27.4823   22.2149 C   0  0  0  0  0  0  0  0  0  0  0  0
  -26.6587  -16.9433   25.3982 C   0  0  0  0  0  0  0  0  0  0  0  0
  -18.8449  -28.3764   23.0153 C   0  0  0  0  0  0  0  0  0  0  0  0
  -17.3030  -30.6106   23.6586 C   0  0  0  0  0  0  0  0  0  0  0  0
  -17.6271  -28.5926   22.3702 C   0  0  0  0  0  0  0  0  0  0  0  0
  -24.7647  -28.1488   20.7154 C   0  0  0  0  0  0  0  0  0  0  0  0
  -26.8091  -28.8883   20.3861 C   0  0  0  0  0  0  0  0  0  0  0  0
  -25.6402  -29.9593   22.3188 C   0  0  0  0  0  0  0  0  0  0  0  0
  -25.5444  -14.2277   20.8322 C   0  0  0  0  0  0  0  0  0  0  0  0
  -22.4073  -14.3477   21.6487 C   0  0  0  0  0  0  0  0  0  0  0  0
  -28.8204  -20.6744   22.5778 C   0  0  0  0  0  0  0  0  0  0  0  0
  -20.0277  -15.3860   23.8637 C   0  0  0  0  0  0  0  0  0  0  0  0
  -28.7265  -24.3395   17.0191 C   0  0  0  0  0  0  0  0  0  0  0  0
  -28.4854  -11.4939   17.6803 C   0  0  0  0  0  0  0  0  0  0  0  0
  -25.6104  -13.3889   23.2088 C   0  0  0  0  0  0  0  0  0  0  0  0
  -23.9709  -15.8367   22.9539 C   0  0  0  0  0  0  0  0  0  0  0  0
  -27.0101  -11.8824   17.7350 C   0  0  0  0  0  0  0  0  0  0  0  0
  -27.9536  -27.6328   15.9085 C   0  0  0  0  0  0  0  0  0  0  0  0
  -26.8613  -13.3804   17.9809 C   0  0  0  0  0  0  0  0  0  0  0  0
  -27.1405  -28.2232   17.0629 C   0  0  0  0  0  0  0  0  0  0  0  0
  -27.6498  -26.1501   15.7011 C   0  0  0  0  0  0  0  0  0  0  0  0
  -26.9695  -25.9056   18.0562 C   0  0  0  0  0  0  0  0  0  0  0  0
  -27.4752  -13.7821   19.3275 C   0  0  1  0  0  0  0  0  0  0  0  0
  -24.7537  -13.6568   21.9753 C   0  0  1  0  0  0  0  0  0  0  0  0
  -27.2893  -27.3814   18.3454 C   0  0  2  0  0  0  0  0  0  0  0  0
  -30.0655  -18.2834   19.3718 C   0  0  0  0  0  0  0  0  0  0  0  0
  -30.8123  -21.3041   26.9108 C   0  0  0  0  0  0  0  0  0  0  0  0
  -17.7539  -15.6181   24.8997 C   0  0  0  0  0  0  0  0  0  0  0  0
  -22.0741  -16.5382   19.5509 C   0  0  0  0  0  0  0  0  0  0  0  0
  -19.8844  -17.1257   20.6131 C   0  0  0  0  0  0  0  0  0  0  0  0
  -20.2174  -14.8639   19.6149 C   0  0  0  0  0  0  0  0  0  0  0  0
  -27.9154  -20.4676   27.5260 C   0  0  0  0  0  0  0  0  0  0  0  0
  -20.3912  -12.9398   25.4894 C   0  0  0  0  0  0  0  0  0  0  0  0
  -29.1812  -19.9242   23.8551 C   0  0  0  0  0  0  0  0  0  0  0  0
  -30.2668  -19.8856   26.7915 C   0  0  0  0  0  0  0  0  0  0  0  0
  -28.4068  -20.4394   25.0721 C   0  0  0  0  0  0  0  0  0  0  0  0
  -28.3719  -18.2665   26.3831 C   0  0  0  0  0  0  0  0  0  1  0  0
  -21.3791  -15.4447   21.7841 C   0  0  1  0  0  0  0  0  0  0  0  0
  -18.8636  -14.6549   24.5078 C   0  0  2  0  0  0  0  0  0  0  0  0
  -20.9127  -15.9933   20.4060 C   0  0  0  0  0  0  0  0  0  0  0  0
  -28.7572  -19.7693   26.4328 C   0  0  2  0  0  0  0  0  0  0  0  0
  -25.2026  -27.4616   19.6571 N   0  0  0  0  0  0  0  0  0  0  0  0
  -26.4485  -27.9337   19.4812 N   0  0  0  0  0  0  0  0  0  0  0  0
  -23.6551  -14.5876   22.2414 N   0  0  0  0  0  0  0  0  0  0  0  0
  -27.8157  -25.4152   16.9570 N   0  0  0  0  0  0  0  0  0  0  0  0
  -28.0274  -29.4689   20.3535 N   0  0  0  0  0  0  0  0  0  0  0  0
  -24.4518  -30.0006   23.0606 N   0  0  0  0  0  0  0  0  0  0  0  0
  -29.5448  -20.1762   21.4983 N   0  0  0  0  0  0  0  0  0  0  0  0
  -28.8232  -23.7376   18.2733 N   0  0  0  0  0  0  0  0  0  0  0  0
  -26.5884  -13.4248   20.4139 N   0  0  0  0  0  0  0  0  0  0  0  0
  -20.3038  -14.8974   22.6043 N   0  0  0  0  0  0  0  0  0  0  0  0
  -19.3167  -13.9366   25.7324 N   0  3  0  0  0  0  0  0  0  0  0  0
  -26.5856  -30.7223   22.6309 O   0  0  0  0  0  0  0  0  0  0  0  0
  -25.2297  -15.3153   20.3635 O   0  0  0  0  0  0  0  0  0  0  0  0
  -22.1119  -13.3131   21.0455 O   0  0  0  0  0  0  0  0  0  0  0  0
  -27.9964  -21.5828   22.5656 O   0  0  0  0  0  0  0  0  0  0  0  0
  -20.6294  -16.3017   24.4206 O   0  0  0  0  0  0  0  0  0  0  0  0
  -29.3931  -23.9961   16.0395 O   0  0  0  0  0  0  0  0  0  0  0  0
  -19.6110  -27.2674   22.6977 O   0  0  0  0  0  0  0  0  0  0  0  0
  -26.9908  -18.0719   26.0998 O   0  0  0  0  0  0  0  0  0  1  0  0
  -16.5621  -31.6825   23.9687 F   0  0  0  0  0  0  0  0  0  0  0  0
  -17.1922  -27.7301   21.4415 F   0  0  0  0  0  0  0  0  0  0  0  0
  1  2  1  0  0  0  0
  1  5  2  0  0  0  0
  2  6  2  0  0  0  0
  3 10  2  0  0  0  0
  3 18  1  0  0  0  0
  4 11  1  0  0  0  0
  4 18  2  0  0  0  0
  5 20  1  0  0  0  0
  6 22  1  0  0  0  0
  7 12  2  0  0  0  0
  7 21  1  0  0  0  0
  8  9  2  0  0  0  0
  8 24  1  0  0  0  0
  9 25  1  0  0  0  0
 10 27  1  0  0  0  0
 11 27  2  0  0  0  0
 12 28  1  0  0  0  0
 13 14  2  0  0  0  0
 13 29  1  0  0  0  0
 14 30  1  0  0  0  0
 15 23  1  0  0  0  0
 15 28  2  0  0  0  0
 16 25  2  0  0  0  0
 16 26  1  0  0  0  0
 17 30  2  0  0  0  0
 17 31  1  0  0  0  0
 18 32  1  0  0  0  0
 19 32  1  0  0  0  0
 19 33  2  0  0  0  0
 19 34  1  0  0  0  0
 20 22  2  0  0  0  0
 20 40  1  0  0  0  0
 21 23  2  0  0  0  0
 21 41  1  0  0  0  0
 22 49  1  0  0  0  0
 23 42  1  0  0  0  0
 24 26  2  0  0  0  0
 24 52  1  0  0  0  0
 25 75  1  0  0  0  0
 26 74  1  0  0  0  0
 27 85  1  0  0  0  0
 28 86  1  0  0  0  0
 29 31  2  0  0  0  0
 29 85  1  0  0  0  0
 30 87  1  0  0  0  0
 31 88  1  0  0  0  0
 32 68  2  0  0  0  0
 33 69  1  0  0  0  0
 33 72  1  0  0  0  0
 34 73  1  0  0  0  0
 34 79  2  0  0  0  0
 35 50  1  0  0  0  0
 35 76  1  0  0  0  0
 35 80  2  0  0  0  0
 36 64  1  0  0  0  0
 36 70  1  0  0  0  0
 36 81  2  0  0  0  0
 37 60  1  0  0  0  0
 37 74  1  0  0  0  0
 37 82  2  0  0  0  0
 38 65  1  0  0  0  0
 38 77  1  0  0  0  0
 38 83  2  0  0  0  0
 39 71  1  0  0  0  0
 39 75  1  0  0  0  0
 39 84  2  0  0  0  0
 40 43  1  0  0  0  0
 41 50  1  0  0  0  0
 42 70  1  0  0  0  0
 43 45  1  0  0  0  0
 44 46  1  0  0  0  0
 44 47  1  0  0  0  0
 45 49  1  0  0  0  0
 46 51  1  0  0  0  0
 47 71  1  0  0  0  0
 48 51  1  0  0  0  0
 48 71  1  0  0  0  0
 49 76  1  0  0  0  0
 50 70  1  0  0  0  0
 51 69  1  0  0  0  0
 53 61  1  0  0  0  0
 54 65  1  0  0  0  0
 55 66  1  0  0  0  0
 56 66  1  0  0  0  0
 57 66  1  0  0  0  0
 58 67  1  0  0  0  0
 59 78  1  0  0  0  0
 60 62  1  0  0  0  0
 61 67  1  0  0  0  0
 62 67  1  0  0  0  0
 63 67  1  0  0  0  0
 63 86  1  0  0  0  0
 64 66  1  0  0  0  0
 64 77  1  0  0  0  0
 65 78  1  0  0  0  0
 68 69  1  0  0  0  0
M  CHG  1  78   1
M  ISO  4  39 100  63 101  75 100  86 101
M  END
> <Batch ID>
0141

> <Smiles>
CCC(C)(CCC(=O)Nc1cc([100NH:0][100C:0](=O)N2CCCC(n3nc(-c4ccc(Oc5ccc(F)cc5F)cc4)c(C(N)=O)c3N)C2)ccc1C)[101CH2:1][101O:1]c1ccc2c(c1)CN(C(=O)C(NC(=O)C(C)NC)C(C)(C)C)C(C(=O)NC1CCCc3ccccc31)C2

> <Shape>
0.252

> <Color>
0.060

> <Negative vol penalty>
0.000

$$$$

  -OEChem-04052302543D

 85 93  0     1  0  0  0  0  0999 V2000
  -26.9067  -37.5805   24.8212 C   0  0  0  0  0  0  0  0  0  0  0  0
  -27.6025  -36.8241   23.8836 C   0  0  0  0  0  0  0  0  0  0  0  0
  -25.0026  -10.2567   21.5588 C   0  0  0  0  0  0  0  0  0  0  0  0
  -24.9839  -11.2943   23.7405 C   0  0  0  0  0  0  0  0  0  0  0  0
  -26.0900  -36.9484   25.7578 C   0  0  0  0  0  0  0  0  0  0  0  0
  -27.4828  -35.4348   23.8828 C   0  0  0  0  0  0  0  0  0  0  0  0
  -27.4710  -29.8349   19.4154 C   0  0  0  0  0  0  0  0  0  0  0  0
  -24.7630   -9.0150   22.1472 C   0  0  0  0  0  0  0  0  0  0  0  0
  -24.7443  -10.0526   24.3290 C   0  0  0  0  0  0  0  0  0  0  0  0
  -28.0896  -28.5984   19.2367 C   0  0  0  0  0  0  0  0  0  0  0  0
  -23.7972   -5.6274   23.0455 C   0  0  0  0  0  0  0  0  0  0  0  0
  -22.8334   -4.8071   22.4592 C   0  0  0  0  0  0  0  0  0  0  0  0
  -26.5878  -27.6206   20.8516 C   0  0  0  0  0  0  0  0  0  0  0  0
  -28.8416  -21.3647   21.2281 C   0  0  0  0  0  0  0  0  0  0  0  0
  -21.1584   -6.5076   22.8333 C   0  0  0  0  0  0  0  0  0  0  0  0
  -25.1131  -11.3964   22.3554 C   0  0  0  0  0  0  0  0  0  0  0  0
  -24.4023  -13.6069   21.2990 C   0  0  0  0  0  0  0  0  0  0  0  0
  -25.9527  -35.5513   25.7623 C   0  0  0  0  0  0  0  0  0  0  0  0
  -26.4114  -29.9763   20.3230 C   0  0  0  0  0  0  0  0  0  0  0  0
  -26.6645  -34.7832   24.8212 C   0  0  0  0  0  0  0  0  0  0  0  0
  -25.9557  -28.8594   21.0380 C   0  0  0  0  0  0  0  0  0  0  0  0
  -28.2052  -22.6337   21.3489 C   0  0  0  0  0  0  0  0  0  0  0  0
  -24.6338   -8.9129   23.5323 C   0  0  0  0  0  0  0  0  0  0  0  0
  -27.6499  -27.4916   19.9570 C   0  0  0  0  0  0  0  0  0  0  0  0
  -23.4416   -6.8878   23.5258 C   0  0  0  0  0  0  0  0  0  0  0  0
  -21.5141   -5.2471   22.3530 C   0  0  0  0  0  0  0  0  0  0  0  0
  -22.1222   -7.3279   23.4196 C   0  0  0  0  0  0  0  0  0  0  0  0
  -25.3612  -12.6793   21.7482 C   0  0  0  0  0  0  0  0  0  0  0  0
  -26.8872  -22.5173   21.7322 C   0  0  0  0  0  0  0  0  0  0  0  0
  -25.1420  -14.6548   20.8079 C   0  0  0  0  0  0  0  0  0  0  0  0
  -27.9858  -20.3265   21.5240 C   0  0  0  0  0  0  0  0  0  0  0  0
  -22.9709  -13.5284   21.3237 C   0  0  0  0  0  0  0  0  0  0  0  0
  -25.9378  -31.6678   22.9722 C   0  0  0  0  0  0  0  0  0  0  0  0
  -22.9304  -30.4767   22.7291 C   0  0  0  0  0  0  0  0  0  0  0  0
  -20.8716  -28.0267   21.5434 C   0  0  0  0  0  0  0  0  0  0  0  0
  -30.1507  -24.0979   20.6971 C   0  0  0  0  0  0  0  0  0  0  0  0
  -29.3759  -18.2467   21.2268 C   0  0  0  0  0  0  0  0  0  0  0  0
  -25.0952  -34.9096   26.8242 C   0  0  0  0  0  0  0  0  0  0  0  0
  -25.7373  -31.3111   20.4845 C   0  0  0  0  0  0  0  0  0  0  0  0
  -24.8088  -28.9538   22.0097 C   0  0  0  0  0  0  0  0  0  0  0  0
  -24.7296  -33.4595   26.5179 C   0  0  0  0  0  0  0  0  0  0  0  0
  -30.1027  -15.0337   19.8756 C   0  0  0  0  0  0  0  0  0  0  0  0
  -25.9612  -32.6832   26.0626 C   0  0  0  0  0  0  0  0  0  0  0  0
  -28.8550  -14.2110   20.2054 C   0  0  0  0  0  0  0  0  0  0  0  0
  -30.4462  -16.0161   20.9939 C   0  0  0  0  0  0  0  0  0  0  0  0
  -28.0979  -16.0736   21.7367 C   0  0  0  0  0  0  0  0  0  0  0  0
  -26.5411  -33.2758   24.7725 C   0  0  1  0  0  0  0  0  0  0  0  0
  -25.0040  -31.4531   21.8148 C   0  0  1  0  0  0  0  0  0  0  0  0
  -27.6748  -15.1154   20.6113 C   0  0  2  0  0  0  0  0  0  0  0  0
  -25.8864  -23.5832   21.9671 C   0  0  0  0  0  0  0  0  0  0  0  0
  -18.4683  -27.3044   21.5391 C   0  0  0  0  0  0  0  0  0  0  0  0
  -29.7758  -25.6758   18.0381 C   0  0  0  0  0  0  0  0  0  0  0  0
  -30.2856  -26.3085   21.8930 C   0  0  0  0  0  0  0  0  0  0  0  0
  -31.9891  -25.7391   20.1728 C   0  0  0  0  0  0  0  0  0  0  0  0
  -23.2260  -29.4839   25.5992 C   0  0  0  0  0  0  0  0  0  0  0  0
  -21.2515  -27.9938   25.2134 C   0  0  0  0  0  0  0  0  0  0  0  0
  -20.9916  -30.4701   25.0614 C   0  0  0  0  0  0  0  0  0  0  0  0
  -20.6932  -28.2363   18.5967 C   0  0  0  0  0  0  0  0  0  0  0  0
  -22.2269  -29.2389   23.2311 C   0  0  1  0  0  0  0  0  0  0  0  0
  -19.5442  -28.0940   20.8099 C   0  0  2  0  0  0  0  0  0  0  0  0
  -29.6342  -26.2917   19.4288 C   0  0  2  0  0  0  0  0  0  1  0  0
  -30.4923  -25.6052   20.5343 C   0  0  0  0  0  0  0  0  0  0  0  0
  -21.9469  -29.2950   24.7595 C   0  0  0  0  0  0  0  0  0  0  0  0
  -26.6145  -13.1007   21.5590 N   0  0  0  0  0  0  0  0  0  0  0  0
  -26.4481  -14.3047   20.9855 N   0  0  0  0  0  0  0  0  0  0  0  0
  -24.1864  -30.2819   22.1373 N   0  0  0  0  0  0  0  0  0  0  0  0
  -29.2821  -16.8421   21.3221 N   0  0  0  0  0  0  0  0  0  0  0  0
  -24.7960  -15.8324   20.2457 N   0  0  0  0  0  0  0  0  0  0  0  0
  -22.3739  -12.3809   21.8634 N   0  0  0  0  0  0  0  0  0  0  0  0
  -28.8408  -23.8747   21.1064 N   0  0  0  0  0  0  0  0  0  0  0  0
  -28.1965  -18.9253   21.5319 N   0  0  0  0  0  0  0  0  0  0  0  0
  -25.7517  -32.8687   23.6299 N   0  0  0  0  0  0  0  0  0  0  0  0
  -21.0308  -29.0877   22.4096 N   0  0  0  0  0  0  0  0  0  0  0  0
  -19.6839  -27.5384   19.4341 N   0  3  0  0  0  0  0  0  0  0  0  0
  -22.2430  -14.4413   20.8652 O   0  0  0  0  0  0  0  0  0  0  0  0
  -26.7648  -30.8070   23.2490 O   0  0  0  0  0  0  0  0  0  0  0  0
  -22.3823  -31.5751   22.8510 O   0  0  0  0  0  0  0  0  0  0  0  0
  -21.6841  -27.1214   21.3685 O   0  0  0  0  0  0  0  0  0  0  0  0
  -30.9941  -23.2305   20.4767 O   0  0  0  0  0  0  0  0  0  0  0  0
  -30.4174  -18.8050   20.8725 O   0  0  0  0  0  0  0  0  0  0  0  0
  -24.3997   -7.7014   24.1069 O   0  0  0  0  0  0  0  0  0  0  0  0
  -28.2524  -26.2835   19.7850 O   0  0  0  0  0  0  0  0  0  1  0  0
  -20.5890   -4.4599   21.7886 F   0  0  0  0  0  0  0  0  0  0  0  0
  -21.7748   -8.5382   23.8781 F   0  0  0  0  0  0  0  0  0  0  0  0
  -26.4220  -20.8830   21.9450 S   0  0  0  0  0  0  0  0  0  0  0  0
  1  2  1  0  0  0  0
  1  5  2  0  0  0  0
  2  6  2  0  0  0  0
  3  8  2  0  0  0  0
  3 16  1  0  0  0  0
  4  9  1  0  0  0  0
  4 16  2  0  0  0  0
  5 18  1  0  0  0  0
  6 20  1  0  0  0  0
  7 10  2  0  0  0  0
  7 19  1  0  0  0  0
  8 23  1  0  0  0  0
  9 23  2  0  0  0  0
 10 24  1  0  0  0  0
 11 12  2  0  0  0  0
 11 25  1  0  0  0  0
 12 26  1  0  0  0  0
 13 21  1  0  0  0  0
 13 24  2  0  0  0  0
 14 22  1  0  0  0  0
 14 31  2  0  0  0  0
 15 26  2  0  0  0  0
 15 27  1  0  0  0  0
 16 28  1  0  0  0  0
 17 28  1  0  0  0  0
 17 30  2  0  0  0  0
 17 32  1  0  0  0  0
 18 20  2  0  0  0  0
 18 38  1  0  0  0  0
 19 21  2  0  0  0  0
 19 39  1  0  0  0  0
 20 47  1  0  0  0  0
 21 40  1  0  0  0  0
 22 29  2  0  0  0  0
 22 70  1  0  0  0  0
 23 81  1  0  0  0  0
 24 82  1  0  0  0  0
 25 27  2  0  0  0  0
 25 81  1  0  0  0  0
 26 83  1  0  0  0  0
 27 84  1  0  0  0  0
 28 64  2  0  0  0  0
 29 50  1  0  0  0  0
 29 85  1  0  0  0  0
 30 65  1  0  0  0  0
 30 68  1  0  0  0  0
 31 71  1  0  0  0  0
 31 85  1  0  0  0  0
 32 69  1  0  0  0  0
 32 75  2  0  0  0  0
 33 48  1  0  0  0  0
 33 72  1  0  0  0  0
 33 76  2  0  0  0  0
 34 59  1  0  0  0  0
 34 66  1  0  0  0  0
 34 77  2  0  0  0  0
 35 60  1  0  0  0  0
 35 73  1  0  0  0  0
 35 78  2  0  0  0  0
 36 62  1  0  0  0  0
 36 70  1  0  0  0  0
 36 79  2  0  0  0  0
 37 67  1  0  0  0  0
 37 71  1  0  0  0  0
 37 80  2  0  0  0  0
 38 41  1  0  0  0  0
 39 48  1  0  0  0  0
 40 66  1  0  0  0  0
 41 43  1  0  0  0  0
 42 44  1  0  0  0  0
 42 45  1  0  0  0  0
 43 47  1  0  0  0  0
 44 49  1  0  0  0  0
 45 67  1  0  0  0  0
 46 49  1  0  0  0  0
 46 67  1  0  0  0  0
 47 72  1  0  0  0  0
 48 66  1  0  0  0  0
 49 65  1  0  0  0  0
 51 60  1  0  0  0  0
 52 61  1  0  0  0  0
 53 62  1  0  0  0  0
 54 62  1  0  0  0  0
 55 63  1  0  0  0  0
 56 63  1  0  0  0  0
 57 63  1  0  0  0  0
 58 74  1  0  0  0  0
 59 63  1  0  0  0  0
 59 73  1  0  0  0  0
 60 74  1  0  0  0  0
 61 62  1  0  0  0  0
 61 82  1  0  0  0  0
 64 65  1  0  0  0  0
M  CHG  1  74   1
M  ISO  4  37 100  61 101  71 100  82 101
M  END
> <Batch ID>
0141

> <Smiles>
CNC(C)C(=O)NC(C(=O)N1Cc2cc([101O:1][101CH:1](C)C(C)(C)C(=O)Nc3cc([100NH:0][100C:0](=O)N4CCCC(n5nc(-c6ccc(Oc7ccc(F)cc7F)cc6)c(C(N)=O)c5N)C4)sc3C)ccc2CC1C(=O)NC1CCCc2ccccc21)C(C)(C)C

> <Shape>
0.363

> <Color>
0.115

> <Negative vol penalty>
0.000

$$$$

  -OEChem-04052302543D

 84 93  0     1  0  0  0  0  0999 V2000
  -28.3096  -36.0281   20.8687 C   0  0  0  0  0  0  0  0  0  0  0  0
  -28.5423  -34.6609   20.9784 C   0  0  0  0  0  0  0  0  0  0  0  0
  -21.2660  -10.5501   22.7221 C   0  0  0  0  0  0  0  0  0  0  0  0
  -22.5524  -10.6608   20.6800 C   0  0  0  0  0  0  0  0  0  0  0  0
  -27.1698  -36.5884   21.4439 C   0  0  0  0  0  0  0  0  0  0  0  0
  -27.6358  -33.8533   21.6643 C   0  0  0  0  0  0  0  0  0  0  0  0
  -27.2132  -20.6012   20.4402 C   0  0  0  0  0  0  0  0  0  0  0  0
  -26.2848  -21.4733   18.3872 C   0  0  0  0  0  0  0  0  0  0  0  0
  -26.5971  -29.5606   19.1867 C   0  0  0  0  0  0  0  0  0  0  0  0
  -26.0915  -19.7880   20.6020 C   0  0  0  0  0  0  0  0  0  0  0  0
  -25.1632  -20.6601   18.5490 C   0  0  0  0  0  0  0  0  0  0  0  0
  -21.1495   -9.1681   22.5739 C   0  0  0  0  0  0  0  0  0  0  0  0
  -22.4359   -9.2787   20.5318 C   0  0  0  0  0  0  0  0  0  0  0  0
  -27.5455  -28.5410   19.2544 C   0  0  0  0  0  0  0  0  0  0  0  0
  -23.0686   -6.4353   23.1047 C   0  0  0  0  0  0  0  0  0  0  0  0
  -23.2871   -5.6419   24.2308 C   0  0  0  0  0  0  0  0  0  0  0  0
  -26.2341  -27.4421   20.9550 C   0  0  0  0  0  0  0  0  0  0  0  0
  -21.0412   -4.7696   24.0521 C   0  0  0  0  0  0  0  0  0  0  0  0
  -21.9674  -11.2965   21.7752 C   0  0  0  0  0  0  0  0  0  0  0  0
  -22.6783  -13.4179   23.0006 C   0  0  0  0  0  0  0  0  0  0  0  0
  -27.3098  -21.4439   19.3328 C   0  0  0  0  0  0  0  0  0  0  0  0
  -26.2439  -35.7858   22.1289 C   0  0  0  0  0  0  0  0  0  0  0  0
  -25.4636  -29.5342   20.0119 C   0  0  0  0  0  0  0  0  0  0  0  0
  -26.4832  -34.4036   22.2503 C   0  0  0  0  0  0  0  0  0  0  0  0
  -25.2715  -28.4613   20.8941 C   0  0  0  0  0  0  0  0  0  0  0  0
  -25.0666  -19.8174   19.6564 C   0  0  0  0  0  0  0  0  0  0  0  0
  -21.7344   -8.5324   21.4787 C   0  0  0  0  0  0  0  0  0  0  0  0
  -27.3656  -27.4830   20.1406 C   0  0  0  0  0  0  0  0  0  0  0  0
  -21.8363   -6.3960   22.4523 C   0  0  0  0  0  0  0  0  0  0  0  0
  -22.2735   -4.8090   24.7045 C   0  0  0  0  0  0  0  0  0  0  0  0
  -20.8226   -5.5631   22.9260 C   0  0  0  0  0  0  0  0  0  0  0  0
  -22.0877  -12.7242   21.9274 C   0  0  0  0  0  0  0  0  0  0  0  0
  -22.5390  -14.7439   22.6706 C   0  0  0  0  0  0  0  0  0  0  0  0
  -23.2976  -12.9092   24.1895 C   0  0  0  0  0  0  0  0  0  0  0  0
  -24.3099  -31.4158   22.2994 C   0  0  0  0  0  0  0  0  0  0  0  0
  -21.7804  -29.3905   22.1500 C   0  0  0  0  0  0  0  0  0  0  0  0
  -21.2707  -25.8329   21.8327 C   0  0  0  0  0  0  0  0  0  0  0  0
  -22.8217  -18.8993   18.9752 C   0  0  0  0  0  0  0  0  0  0  0  0
  -25.0505  -36.4440   22.7746 C   0  0  0  0  0  0  0  0  0  0  0  0
  -24.4364  -30.6281   19.9078 C   0  0  0  0  0  0  0  0  0  0  0  0
  -24.0616  -28.3757   21.7869 C   0  0  0  0  0  0  0  0  0  0  0  0
  -23.9487  -35.4613   23.1626 C   0  0  0  0  0  0  0  0  0  0  0  0
  -30.5441  -22.8664   17.7188 C   0  0  0  0  0  0  0  0  0  0  0  0
  -19.8353  -16.9609   19.0105 C   0  0  0  0  0  0  0  0  0  0  0  0
  -29.3128  -21.9778   17.8801 C   0  0  0  0  0  0  0  0  0  0  0  0
  -24.5405  -34.2509   23.8777 C   0  0  0  0  0  0  0  0  0  0  0  0
  -30.1778  -24.3480   17.7515 C   0  0  0  0  0  0  0  0  0  0  0  0
  -20.2036  -15.7430   19.8608 C   0  0  0  0  0  0  0  0  0  0  0  0
  -28.1621  -23.8236   19.1849 C   0  0  0  0  0  0  0  0  0  0  0  0
  -21.0053  -17.4218   18.1430 C   0  0  0  0  0  0  0  0  0  0  0  0
  -22.6273  -16.4448   19.7190 C   0  0  0  0  0  0  0  0  0  0  0  0
  -28.5306  -22.3290   19.1569 C   0  0  1  0  0  0  0  0  0  0  0  0
  -25.5106  -33.4908   22.9652 C   0  0  1  0  0  0  0  0  0  0  0  0
  -23.5776  -30.7625   21.1615 C   0  0  1  0  0  0  0  0  0  0  0  0
  -29.4051  -24.7125   19.0260 C   0  0  2  0  0  0  0  0  0  0  0  0
  -21.5007  -15.9836   20.6579 C   0  0  2  0  0  0  0  0  0  0  0  0
  -19.3427  -24.5395   20.8802 C   0  0  0  0  0  0  0  0  0  0  0  0
  -20.7904  -29.3017   25.0348 C   0  0  0  0  0  0  0  0  0  0  0  0
  -20.0155  -26.9569   24.6233 C   0  0  0  0  0  0  0  0  0  0  0  0
  -19.0346  -28.8405   23.3147 C   0  0  0  0  0  0  0  0  0  0  0  0
  -23.0291  -24.3709   19.9540 C   0  0  0  0  0  0  0  0  0  0  0  0
  -29.0140  -26.1894   19.0158 C   0  0  0  0  0  0  0  0  0  1  0  0
  -21.4034  -28.0987   22.8341 C   0  0  1  0  0  0  0  0  0  0  0  0
  -20.7334  -25.0965   20.6188 C   0  0  2  0  0  0  0  0  0  0  0  0
  -20.3382  -28.3067   23.9475 C   0  0  0  0  0  0  0  0  0  0  0  0
  -21.6087  -13.5419   20.9862 N   0  0  0  0  0  0  0  0  0  0  0  0
  -21.8981  -14.7631   21.4669 N   0  0  0  0  0  0  0  0  0  0  0  0
  -23.0888  -29.4726   21.6528 N   0  0  0  0  0  0  0  0  0  0  0  0
  -22.1977  -17.6338   18.9664 N   0  0  0  0  0  0  0  0  0  0  0  0
  -22.9034  -15.8836   23.2956 N   0  0  0  0  0  0  0  0  0  0  0  0
  -24.6732  -12.6423   24.1645 N   0  0  0  0  0  0  0  0  0  0  0  0
  -23.9271  -18.9912   19.8203 N   0  0  0  0  0  0  0  0  0  0  0  0
  -24.7801  -32.6830   22.0121 N   0  0  0  0  0  0  0  0  0  0  0  0
  -20.9913  -27.1820   21.7767 N   0  0  0  0  0  0  0  0  0  0  0  0
  -21.6333  -23.9642   20.2596 N   0  3  0  0  0  0  0  0  0  0  0  0
  -22.6471  -12.6821   25.2377 O   0  0  0  0  0  0  0  0  0  0  0  0
  -24.4375  -30.8152   23.3599 O   0  0  0  0  0  0  0  0  0  0  0  0
  -20.9426  -30.2908   22.0538 O   0  0  0  0  0  0  0  0  0  0  0  0
  -21.8743  -25.2672   22.7416 O   0  0  0  0  0  0  0  0  0  0  0  0
  -22.3897  -19.8405   18.3048 O   0  0  0  0  0  0  0  0  0  0  0  0
  -21.6211   -7.1838   21.3339 O   0  0  0  0  0  0  0  0  0  0  0  0
  -28.2901  -26.4868   20.2091 O   0  0  0  0  0  0  0  0  0  1  0  0
  -22.4840   -4.0459   25.7851 F   0  0  0  0  0  0  0  0  0  0  0  0
  -19.6371   -5.5201   22.3027 F   0  0  0  0  0  0  0  0  0  0  0  0
  1  2  1  0  0  0  0
  1  5  2  0  0  0  0
  2  6  2  0  0  0  0
  3 12  2  0  0  0  0
  3 19  1  0  0  0  0
  4 13  1  0  0  0  0
  4 19  2  0  0  0  0
  5 22  1  0  0  0  0
  6 24  1  0  0  0  0
  7 10  2  0  0  0  0
  7 21  1  0  0  0  0
  8 11  1  0  0  0  0
  8 21  2  0  0  0  0
  9 14  2  0  0  0  0
  9 23  1  0  0  0  0
 10 26  1  0  0  0  0
 11 26  2  0  0  0  0
 12 27  1  0  0  0  0
 13 27  2  0  0  0  0
 14 28  1  0  0  0  0
 15 16  2  0  0  0  0
 15 29  1  0  0  0  0
 16 30  1  0  0  0  0
 17 25  1  0  0  0  0
 17 28  2  0  0  0  0
 18 30  2  0  0  0  0
 18 31  1  0  0  0  0
 19 32  1  0  0  0  0
 20 32  1  0  0  0  0
 20 33  2  0  0  0  0
 20 34  1  0  0  0  0
 21 52  1  0  0  0  0
 22 24  2  0  0  0  0
 22 39  1  0  0  0  0
 23 25  2  0  0  0  0
 23 40  1  0  0  0  0
 24 53  1  0  0  0  0
 25 41  1  0  0  0  0
 26 72  1  0  0  0  0
 27 81  1  0  0  0  0
 28 82  1  0  0  0  0
 29 31  2  0  0  0  0
 29 81  1  0  0  0  0
 30 83  1  0  0  0  0
 31 84  1  0  0  0  0
 32 66  2  0  0  0  0
 33 67  1  0  0  0  0
 33 70  1  0  0  0  0
 34 71  1  0  0  0  0
 34 76  2  0  0  0  0
 35 54  1  0  0  0  0
 35 73  1  0  0  0  0
 35 77  2  0  0  0  0
 36 63  1  0  0  0  0
 36 68  1  0  0  0  0
 36 78  2  0  0  0  0
 37 64  1  0  0  0  0
 37 74  1  0  0  0  0
 37 79  2  0  0  0  0
 38 69  1  0  0  0  0
 38 72  1  0  0  0  0
 38 80  2  0  0  0  0
 39 42  1  0  0  0  0
 40 54  1  0  0  0  0
 41 68  1  0  0  0  0
 42 46  1  0  0  0  0
 43 45  1  0  0  0  0
 43 47  1  0  0  0  0
 44 48  1  0  0  0  0
 44 50  1  0  0  0  0
 45 52  1  0  0  0  0
 46 53  1  0  0  0  0
 47 55  1  0  0  0  0
 48 56  1  0  0  0  0
 49 52  1  0  0  0  0
 49 55  1  0  0  0  0
 50 69  1  0  0  0  0
 51 56  1  0  0  0  0
 51 69  1  0  0  0  0
 53 73  1  0  0  0  0
 54 68  1  0  0  0  0
 55 62  1  0  0  0  0
 56 67  1  0  0  0  0
 57 64  1  0  0  0  0
 58 65  1  0  0  0  0
 59 65  1  0  0  0  0
 60 65  1  0  0  0  0
 61 75  1  0  0  0  0
 62 82  1  0  0  0  0
 63 65  1  0  0  0  0
 63 74  1  0  0  0  0
 64 75  1  0  0  0  0
 66 67  1  0  0  0  0
M  CHG  1  75   1
M  ISO  4  38 100  62 101  72 100  82 101
M  END
> <Batch ID>
0141

> <Smiles>
CNC(C)C(=O)NC(C(=O)N1Cc2cc([101O:1][101CH2:1]C3CCCC(c4ccc([100NH:0][100C:0](=O)N5CCCC(n6nc(-c7ccc(Oc8ccc(F)cc8F)cc7)c(C(N)=O)c6N)C5)cc4)C3)ccc2CC1C(=O)NC1CCCc2ccccc21)C(C)(C)C

> <Shape>
0.262

> <Color>
0.084

> <Negative vol penalty>
0.000

$$$$

  -OEChem-04052302543D

 87 96  0     1  0  0  0  0  0999 V2000
  -29.5520  -23.8781   10.9896 C   0  0  0  0  0  0  0  0  0  0  0  0
  -30.1543  -23.3948   12.1468 C   0  0  0  0  0  0  0  0  0  0  0  0
  -23.0732   -9.8699   19.9400 C   0  0  0  0  0  0  0  0  0  0  0  0
  -23.8315   -9.8757   22.2339 C   0  0  0  0  0  0  0  0  0  0  0  0
  -32.3647  -18.5650   22.0183 C   0  0  0  0  0  0  0  0  0  0  0  0
  -30.2994  -18.9671   23.2056 C   0  0  0  0  0  0  0  0  0  0  0  0
  -29.3004  -25.2427   10.8538 C   0  0  0  0  0  0  0  0  0  0  0  0
  -30.5062  -24.2761   13.1685 C   0  0  0  0  0  0  0  0  0  0  0  0
  -30.3673  -23.1741   19.1912 C   0  0  0  0  0  0  0  0  0  0  0  0
  -31.8676  -17.3422   21.5675 C   0  0  0  0  0  0  0  0  0  0  0  0
  -29.8022  -17.7443   22.7548 C   0  0  0  0  0  0  0  0  0  0  0  0
  -22.3284   -8.7172   20.1892 C   0  0  0  0  0  0  0  0  0  0  0  0
  -23.0866   -8.7230   22.4831 C   0  0  0  0  0  0  0  0  0  0  0  0
  -31.3588  -22.8101   20.1012 C   0  0  0  0  0  0  0  0  0  0  0  0
  -19.3785   -7.9224   21.6382 C   0  0  0  0  0  0  0  0  0  0  0  0
  -18.0720   -7.8772   21.1521 C   0  0  0  0  0  0  0  0  0  0  0  0
  -31.6367  -25.1262   20.7156 C   0  0  0  0  0  0  0  0  0  0  0  0
  -18.6312   -5.9341   19.8297 C   0  0  0  0  0  0  0  0  0  0  0  0
  -23.8249  -10.4491   20.9624 C   0  0  0  0  0  0  0  0  0  0  0  0
  -31.5807  -19.3775   22.8374 C   0  0  0  0  0  0  0  0  0  0  0  0
  -24.1686  -12.9741   20.8433 C   0  0  0  0  0  0  0  0  0  0  0  0
  -29.6405  -26.1399   11.8784 C   0  0  0  0  0  0  0  0  0  0  0  0
  -30.0101  -24.5203   19.0284 C   0  0  0  0  0  0  0  0  0  0  0  0
  -30.2600  -25.6541   13.0458 C   0  0  0  0  0  0  0  0  0  0  0  0
  -30.6386  -25.5044   19.8047 C   0  0  0  0  0  0  0  0  0  0  0  0
  -30.5863  -16.9319   21.9358 C   0  0  0  0  0  0  0  0  0  0  0  0
  -22.3350   -8.1438   21.4607 C   0  0  0  0  0  0  0  0  0  0  0  0
  -31.9957  -23.7865   20.8616 C   0  0  0  0  0  0  0  0  0  0  0  0
  -20.3115   -6.9734   21.2201 C   0  0  0  0  0  0  0  0  0  0  0  0
  -17.6982   -6.8831   20.2478 C   0  0  0  0  0  0  0  0  0  0  0  0
  -19.9378   -5.9793   20.3158 C   0  0  0  0  0  0  0  0  0  0  0  0
  -24.5950  -11.6395   20.7055 C   0  0  0  0  0  0  0  0  0  0  0  0
  -25.2616  -13.7228   20.4810 C   0  0  0  0  0  0  0  0  0  0  0  0
  -34.3866  -21.3472   23.7233 C   0  0  0  0  0  0  0  0  0  0  0  0
  -34.6590  -22.0259   22.6035 C   0  0  0  0  0  0  0  0  0  0  0  0
  -32.1059  -20.6695   23.3138 C   0  0  0  0  0  0  0  0  0  0  0  0
  -22.8982  -13.4907   21.2615 C   0  0  0  0  0  0  0  0  0  0  0  0
  -30.1005  -26.5892   16.6169 C   0  0  0  0  0  0  0  0  0  0  0  0
  -28.5325  -28.5046   18.7133 C   0  0  0  0  0  0  0  0  0  0  0  0
  -27.8177  -29.2714   21.9611 C   0  0  0  0  0  0  0  0  0  0  0  0
  -30.7284  -14.7644   20.6597 C   0  0  0  0  0  0  0  0  0  0  0  0
  -29.3919  -27.6123   11.6663 C   0  0  0  0  0  0  0  0  0  0  0  0
  -28.9199  -24.8937   18.0618 C   0  0  0  0  0  0  0  0  0  0  0  0
  -30.2775  -26.9615   19.6823 C   0  0  0  0  0  0  0  0  0  0  0  0
  -35.3719  -21.1439   24.8428 C   0  0  0  0  0  0  0  0  0  0  0  0
  -29.4543  -28.4321   12.9525 C   0  0  0  0  0  0  0  0  0  0  0  0
  -34.8219  -19.9010   25.5361 C   0  0  0  0  0  0  0  0  0  0  0  0
  -29.6139  -12.3520   18.2901 C   0  0  0  0  0  0  0  0  0  0  0  0
  -30.6844  -28.0503   13.7698 C   0  0  0  0  0  0  0  0  0  0  0  0
  -28.1737  -12.0614   18.7186 C   0  0  0  0  0  0  0  0  0  0  0  0
  -33.3130  -19.9993   25.3430 C   0  0  0  0  0  0  0  0  0  0  0  0
  -30.5283  -12.5799   19.4924 C   0  0  0  0  0  0  0  0  0  0  0  0
  -28.6210  -13.3053   20.8725 C   0  0  0  0  0  0  0  0  0  0  0  0
  -30.6338  -26.5755   14.1867 C   0  0  1  0  0  0  0  0  0  0  0  0
  -28.9966  -26.3480   17.6074 C   0  0  1  0  0  0  0  0  0  0  0  0
  -27.6488  -13.1331   19.6940 C   0  0  2  0  0  0  0  0  0  0  0  0
  -34.3976  -22.4797   20.0819 C   0  0  0  0  0  0  0  0  0  0  0  0
  -26.5375  -30.9137   23.3615 C   0  0  0  0  0  0  0  0  0  0  0  0
  -30.6802  -30.6109   18.2024 C   0  0  0  0  0  0  0  0  0  0  0  0
  -29.9125  -31.7948   20.2705 C   0  0  0  0  0  0  0  0  0  0  0  0
  -28.3509  -31.5097   18.3463 C   0  0  0  0  0  0  0  0  0  0  0  0
  -26.1265  -27.1387   23.1231 C   0  0  0  0  0  0  0  0  0  0  0  0
  -33.7379  -22.2752   21.4418 C   0  0  2  0  0  0  0  0  0  1  0  0
  -28.9484  -29.5043   19.7652 C   0  0  1  0  0  0  0  0  0  0  0  0
  -26.5029  -29.5643   22.6610 C   0  0  2  0  0  0  0  0  0  0  0  0
  -29.4814  -30.8278   19.1473 C   0  0  0  0  0  0  0  0  0  0  0  0
  -25.8601  -11.5429   20.2881 N   0  0  0  0  0  0  0  0  0  0  0  0
  -26.2380  -12.8262   20.1604 N   0  0  0  0  0  0  0  0  0  0  0  0
  -33.2051  -20.6928   24.0470 N   0  0  0  0  0  0  0  0  0  0  0  0
  -29.2098  -27.2770   18.7190 N   0  0  0  0  0  0  0  0  0  0  0  0
  -29.9695  -13.6109   20.3697 N   0  0  0  0  0  0  0  0  0  0  0  0
  -25.4730  -15.0542   20.4085 N   0  0  0  0  0  0  0  0  0  0  0  0
  -21.8854  -12.5822   21.5978 N   0  0  0  0  0  0  0  0  0  0  0  0
  -30.0812  -15.6897   21.4780 N   0  0  0  0  0  0  0  0  0  0  0  0
  -29.7274  -26.3959   15.3005 N   0  0  0  0  0  0  0  0  0  0  0  0
  -27.7960  -29.6764   20.6432 N   0  0  0  0  0  0  0  0  0  0  0  0
  -31.4665  -21.7916   22.9969 N   0  3  0  0  0  0  0  0  0  0  0  0
  -26.2122  -28.5142   23.6777 N   0  3  0  0  0  0  0  0  0  0  0  0
  -22.6628  -14.7215   21.3190 O   0  0  0  0  0  0  0  0  0  0  0  0
  -31.2083  -26.9272   17.0173 O   0  0  0  0  0  0  0  0  0  0  0  0
  -27.6346  -28.7993   17.9204 O   0  0  0  0  0  0  0  0  0  0  0  0
  -28.7701  -28.7401   22.5278 O   0  0  0  0  0  0  0  0  0  0  0  0
  -31.8579  -14.9324   20.1929 O   0  0  0  0  0  0  0  0  0  0  0  0
  -21.6081   -7.0192   21.7042 O   0  0  0  0  0  0  0  0  0  0  0  0
  -32.9643  -23.4340   21.7501 O   0  0  0  0  0  0  0  0  0  1  0  0
  -16.4431   -6.8389   19.7822 F   0  0  0  0  0  0  0  0  0  0  0  0
  -20.8293   -5.0642   19.9114 F   0  0  0  0  0  0  0  0  0  0  0  0
  1  2  1  0  0  0  0
  1  7  2  0  0  0  0
  2  8  2  0  0  0  0
  3 12  2  0  0  0  0
  3 19  1  0  0  0  0
  4 13  1  0  0  0  0
  4 19  2  0  0  0  0
  5 10  2  0  0  0  0
  5 20  1  0  0  0  0
  6 11  1  0  0  0  0
  6 20  2  0  0  0  0
  7 22  1  0  0  0  0
  8 24  1  0  0  0  0
  9 14  2  0  0  0  0
  9 23  1  0  0  0  0
 10 26  1  0  0  0  0
 11 26  2  0  0  0  0
 12 27  1  0  0  0  0
 13 27  2  0  0  0  0
 14 28  1  0  0  0  0
 15 16  2  0  0  0  0
 15 29  1  0  0  0  0
 16 30  1  0  0  0  0
 17 25  1  0  0  0  0
 17 28  2  0  0  0  0
 18 30  2  0  0  0  0
 18 31  1  0  0  0  0
 19 32  1  0  0  0  0
 20 36  1  0  0  0  0
 21 32  1  0  0  0  0
 21 33  2  0  0  0  0
 21 37  1  0  0  0  0
 22 24  2  0  0  0  0
 22 42  1  0  0  0  0
 23 25  2  0  0  0  0
 23 43  1  0  0  0  0
 24 54  1  0  0  0  0
 25 44  1  0  0  0  0
 26 74  1  0  0  0  0
 27 84  1  0  0  0  0
 28 85  1  0  0  0  0
 29 31  2  0  0  0  0
 29 84  1  0  0  0  0
 30 86  1  0  0  0  0
 31 87  1  0  0  0  0
 32 67  2  0  0  0  0
 33 68  1  0  0  0  0
 33 72  1  0  0  0  0
 34 35  2  0  0  0  0
 34 45  1  0  0  0  0
 34 69  1  0  0  0  0
 35 63  1  0  0  0  0
 36 69  1  0  0  0  0
 36 77  2  0  0  0  0
 37 73  1  0  0  0  0
 37 79  2  0  0  0  0
 38 55  1  0  0  0  0
 38 75  1  0  0  0  0
 38 80  2  0  0  0  0
 39 64  1  0  0  0  0
 39 70  1  0  0  0  0
 39 81  2  0  0  0  0
 40 65  1  0  0  0  0
 40 76  1  0  0  0  0
 40 82  2  0  0  0  0
 41 71  1  0  0  0  0
 41 74  1  0  0  0  0
 41 83  2  0  0  0  0
 42 46  1  0  0  0  0
 43 55  1  0  0  0  0
 44 70  1  0  0  0  0
 45 47  1  0  0  0  0
 46 49  1  0  0  0  0
 47 51  1  0  0  0  0
 48 50  1  0  0  0  0
 48 52  1  0  0  0  0
 49 54  1  0  0  0  0
 50 56  1  0  0  0  0
 51 69  1  0  0  0  0
 52 71  1  0  0  0  0
 53 56  1  0  0  0  0
 53 71  1  0  0  0  0
 54 75  1  0  0  0  0
 55 70  1  0  0  0  0
 56 68  1  0  0  0  0
 57 63  1  0  0  0  0
 58 65  1  0  0  0  0
 59 66  1  0  0  0  0
 60 66  1  0  0  0  0
 61 66  1  0  0  0  0
 62 78  1  0  0  0  0
 63 85  1  0  0  0  0
 64 66  1  0  0  0  0
 64 76  1  0  0  0  0
 65 78  1  0  0  0  0
 67 68  1  0  0  0  0
M  CHG  2  77   1  78   1
M  ISO  4  41 100  63 101  74 100  85 101
M  END
> <Batch ID>
0141

> <Smiles>
CNC(C)C(=O)NC(C(=O)N1Cc2cc([101O:1][101CH:1](C)C=C3CCCN3C(=N)c3ccc([100NH:0][100C:0](=O)N4CCCC(n5nc(-c6ccc(Oc7ccc(F)cc7F)cc6)c(C(N)=O)c5N)C4)cc3)ccc2CC1C(=O)NC1CCCc2ccccc21)C(C)(C)C

> <Shape>
0.225

> <Color>
0.187

> <Negative vol penalty>
0.000

$$$$

  -OEChem-04052302543D

 89 97  0     1  0  0  0  0  0999 V2000
  -28.8473  -21.1011   21.5362 C   0  0  0  0  0  0  0  0  0  0  0  0
  -27.5350  -20.9489   21.1002 C   0  0  0  0  0  0  0  0  0  0  0  0
  -26.9853  -31.6396   23.4350 C   0  0  0  0  0  0  0  0  0  0  0  0
  -26.1978  -31.8406   21.1598 C   0  0  0  0  0  0  0  0  0  0  0  0
  -29.8016  -20.1345   21.2220 C   0  0  0  0  0  0  0  0  0  0  0  0
  -27.1765  -19.8303   20.3488 C   0  0  0  0  0  0  0  0  0  0  0  0
  -21.8211  -16.8629   20.4892 C   0  0  0  0  0  0  0  0  0  0  0  0
  -27.1296  -33.0251   23.5074 C   0  0  0  0  0  0  0  0  0  0  0  0
  -26.3420  -33.2261   21.2322 C   0  0  0  0  0  0  0  0  0  0  0  0
  -20.6959  -16.9188   19.6679 C   0  0  0  0  0  0  0  0  0  0  0  0
  -25.1341  -35.7169   23.9601 C   0  0  0  0  0  0  0  0  0  0  0  0
  -24.6632  -36.3587   25.1055 C   0  0  0  0  0  0  0  0  0  0  0  0
  -24.5573  -22.7850   17.9747 C   0  0  0  0  0  0  0  0  0  0  0  0
  -24.5801  -21.2633   16.0984 C   0  0  0  0  0  0  0  0  0  0  0  0
  -21.5113  -15.0149   18.4313 C   0  0  0  0  0  0  0  0  0  0  0  0
  -26.6609  -22.0422   17.0473 C   0  0  0  0  0  0  0  0  0  0  0  0
  -26.8890  -37.1814   25.5596 C   0  0  0  0  0  0  0  0  0  0  0  0
  -26.5194  -31.0473   22.2611 C   0  0  0  0  0  0  0  0  0  0  0  0
  -23.8713  -22.0182   17.0329 C   0  0  0  0  0  0  0  0  0  0  0  0
  -25.2286  -28.8616   22.5139 C   0  0  0  0  0  0  0  0  0  0  0  0
  -29.4525  -18.9987   20.4745 C   0  0  0  0  0  0  0  0  0  0  0  0
  -22.8069  -15.8876   20.2805 C   0  0  0  0  0  0  0  0  0  0  0  0
  -28.1274  -18.8482   20.0231 C   0  0  0  0  0  0  0  0  0  0  0  0
  -22.6468  -14.9471   19.2530 C   0  0  0  0  0  0  0  0  0  0  0  0
  -25.9521  -22.7971   17.9819 C   0  0  0  0  0  0  0  0  0  0  0  0
  -26.8079  -33.8183   22.4061 C   0  0  0  0  0  0  0  0  0  0  0  0
  -20.5423  -15.9966   18.6369 C   0  0  0  0  0  0  0  0  0  0  0  0
  -26.4825  -35.8073   23.6144 C   0  0  0  0  0  0  0  0  0  0  0  0
  -25.9749  -21.2753   16.1055 C   0  0  0  0  0  0  0  0  0  0  0  0
  -25.5407  -37.0909   25.9053 C   0  0  0  0  0  0  0  0  0  0  0  0
  -27.3599  -36.5396   24.4142 C   0  0  0  0  0  0  0  0  0  0  0  0
  -26.3708  -29.6161   22.1854 C   0  0  0  0  0  0  0  0  0  0  0  0
  -25.5952  -27.5604   22.2712 C   0  0  0  0  0  0  0  0  0  0  0  0
  -22.3939  -22.0055   17.0242 C   0  0  0  0  0  0  0  0  0  0  0  0
  -23.9505  -29.2979   22.9954 C   0  0  0  0  0  0  0  0  0  0  0  0
  -25.8957  -15.9444   19.5326 C   0  0  0  0  0  0  0  0  0  0  0  0
  -25.6764  -12.7471   20.0340 C   0  0  0  0  0  0  0  0  0  0  0  0
  -20.3461  -20.6919   16.5160 C   0  0  0  0  0  0  0  0  0  0  0  0
  -23.7108   -9.9594   20.1410 C   0  0  0  0  0  0  0  0  0  0  0  0
  -28.0306  -23.7000   19.0823 C   0  0  0  0  0  0  0  0  0  0  0  0
  -30.5293  -18.0042   20.1193 C   0  0  0  0  0  0  0  0  0  0  0  0
  -24.0016  -15.8240   21.1921 C   0  0  0  0  0  0  0  0  0  0  0  0
  -23.6664  -13.8677   19.0000 C   0  0  0  0  0  0  0  0  0  0  0  0
  -29.9842  -16.6622   19.6375 C   0  0  0  0  0  0  0  0  0  0  0  0
  -30.1329  -25.5460   21.2845 C   0  0  0  0  0  0  0  0  0  0  0  0
  -28.8743  -16.8737   18.6127 C   0  0  0  0  0  0  0  0  0  0  0  0
  -29.2476  -26.7074   21.7422 C   0  0  0  0  0  0  0  0  0  0  0  0
  -29.8817  -25.1837   19.8218 C   0  0  0  0  0  0  0  0  0  0  0  0
  -27.5923  -26.0862   19.9364 C   0  0  0  0  0  0  0  0  0  0  0  0
  -27.6942  -17.6364   19.2269 C   0  0  1  0  0  0  0  0  0  0  0  0
  -25.1941  -15.1082   20.5651 C   0  0  1  0  0  0  0  0  0  0  0  0
  -27.7631  -26.4447   21.4216 C   0  0  2  0  0  0  0  0  0  0  0  0
  -23.8224   -7.4845   20.5410 C   0  0  0  0  0  0  0  0  0  0  0  0
  -26.8842  -12.3556   17.2595 C   0  0  0  0  0  0  0  0  0  0  0  0
  -26.1010   -9.9787   17.3303 C   0  0  0  0  0  0  0  0  0  0  0  0
  -27.7577  -10.7946   19.0073 C   0  0  0  0  0  0  0  0  0  0  0  0
  -18.1909  -16.7423   15.9453 C   0  0  0  0  0  0  0  0  0  0  0  0
  -20.6520  -16.2746   15.7859 C   0  0  0  0  0  0  0  0  0  0  0  0
  -21.8848  -10.1352   22.4634 C   0  0  0  0  0  0  0  0  0  0  0  0
  -28.0906  -20.5967   15.2575 C   0  0  0  0  0  0  0  0  0  0  0  0
  -19.9794  -19.3234   15.9901 C   0  0  0  0  0  0  0  0  0  0  0  0
  -19.8373  -18.2981   17.1140 C   0  0  0  0  0  0  0  0  0  0  0  0
  -25.3507  -11.5499   19.1740 C   0  0  1  0  0  0  0  0  0  0  0  0
  -23.5917   -8.8497   21.1700 C   0  0  2  0  0  0  0  0  0  0  0  0
  -26.5050  -11.1911   18.1960 C   0  0  0  0  0  0  0  0  0  0  0  0
  -19.5382  -16.8554   16.6595 C   0  0  0  0  0  0  0  0  0  1  0  0
  -27.3869  -28.8574   21.7662 N   0  0  0  0  0  0  0  0  0  0  0  0
  -26.8846  -27.6126   21.8296 N   0  0  0  0  0  0  0  0  0  0  0  0
  -24.8202  -13.8509   19.9142 N   0  0  0  0  0  0  0  0  0  0  0  0
  -28.4550  -24.9446   19.5937 N   0  0  0  0  0  0  0  0  0  0  0  0
  -24.9373  -26.3881   22.3947 N   0  0  0  0  0  0  0  0  0  0  0  0
  -23.7425  -30.6703   23.1893 N   0  0  0  0  0  0  0  0  0  0  0  0
  -26.6491  -23.5767   18.9380 N   0  0  0  0  0  0  0  0  0  0  0  0
  -21.7742  -20.8962   16.5980 N   0  0  0  0  0  0  0  0  0  0  0  0
  -26.8924  -16.7525   20.0455 N   0  0  0  0  0  0  0  0  0  0  0  0
  -24.9887  -10.4748   20.0912 N   0  0  0  0  0  0  0  0  0  0  0  0
  -21.7617  -23.1025   17.4398 N   0  3  0  0  0  0  0  0  0  0  0  0
  -22.2354   -8.8595   21.7877 N   0  3  0  0  0  0  0  0  0  0  0  0
  -23.0258  -28.4932   23.2617 O   0  0  0  0  0  0  0  0  0  0  0  0
  -25.5588  -15.8615   18.3573 O   0  0  0  0  0  0  0  0  0  0  0  0
  -26.6503  -12.7018   20.7897 O   0  0  0  0  0  0  0  0  0  0  0  0
  -19.5546  -21.5625   16.8472 O   0  0  0  0  0  0  0  0  0  0  0  0
  -22.7657  -10.3292   19.4478 O   0  0  0  0  0  0  0  0  0  0  0  0
  -28.8316  -22.7993   18.8192 O   0  0  0  0  0  0  0  0  0  0  0  0
  -26.9483  -35.1703   22.4765 O   0  0  0  0  0  0  0  0  0  0  0  0
  -26.6665  -20.5386   15.1936 O   0  0  0  0  0  0  0  0  0  0  0  0
  -19.4453  -16.0494   17.8334 O   0  0  0  0  0  0  0  0  0  1  0  0
  -25.0880  -37.7084   27.0044 F   0  0  0  0  0  0  0  0  0  0  0  0
  -28.6561  -36.6310   24.0866 F   0  0  0  0  0  0  0  0  0  0  0  0
  1  2  1  0  0  0  0
  1  5  2  0  0  0  0
  2  6  2  0  0  0  0
  3  8  2  0  0  0  0
  3 18  1  0  0  0  0
  4  9  1  0  0  0  0
  4 18  2  0  0  0  0
  5 21  1  0  0  0  0
  6 23  1  0  0  0  0
  7 10  2  0  0  0  0
  7 22  1  0  0  0  0
  8 26  1  0  0  0  0
  9 26  2  0  0  0  0
 10 27  1  0  0  0  0
 11 12  2  0  0  0  0
 11 28  1  0  0  0  0
 12 30  1  0  0  0  0
 13 19  1  0  0  0  0
 13 25  2  0  0  0  0
 14 19  2  0  0  0  0
 14 29  1  0  0  0  0
 15 24  1  0  0  0  0
 15 27  2  0  0  0  0
 16 25  1  0  0  0  0
 16 29  2  0  0  0  0
 17 30  2  0  0  0  0
 17 31  1  0  0  0  0
 18 32  1  0  0  0  0
 19 34  1  0  0  0  0
 20 32  1  0  0  0  0
 20 33  2  0  0  0  0
 20 35  1  0  0  0  0
 21 23  2  0  0  0  0
 21 41  1  0  0  0  0
 22 24  2  0  0  0  0
 22 42  1  0  0  0  0
 23 50  1  0  0  0  0
 24 43  1  0  0  0  0
 25 73  1  0  0  0  0
 26 85  1  0  0  0  0
 27 87  1  0  0  0  0
 28 31  2  0  0  0  0
 28 85  1  0  0  0  0
 29 86  1  0  0  0  0
 30 88  1  0  0  0  0
 31 89  1  0  0  0  0
 32 67  2  0  0  0  0
 33 68  1  0  0  0  0
 33 71  1  0  0  0  0
 34 74  1  0  0  0  0
 34 77  2  0  0  0  0
 35 72  1  0  0  0  0
 35 79  2  0  0  0  0
 36 51  1  0  0  0  0
 36 75  1  0  0  0  0
 36 80  2  0  0  0  0
 37 63  1  0  0  0  0
 37 69  1  0  0  0  0
 37 81  2  0  0  0  0
 38 61  1  0  0  0  0
 38 74  1  0  0  0  0
 38 82  2  0  0  0  0
 39 64  1  0  0  0  0
 39 76  1  0  0  0  0
 39 83  2  0  0  0  0
 40 70  1  0  0  0  0
 40 73  1  0  0  0  0
 40 84  2  0  0  0  0
 41 44  1  0  0  0  0
 42 51  1  0  0  0  0
 43 69  1  0  0  0  0
 44 46  1  0  0  0  0
 45 47  1  0  0  0  0
 45 48  1  0  0  0  0
 46 50  1  0  0  0  0
 47 52  1  0  0  0  0
 48 70  1  0  0  0  0
 49 52  1  0  0  0  0
 49 70  1  0  0  0  0
 50 75  1  0  0  0  0
 51 69  1  0  0  0  0
 52 68  1  0  0  0  0
 53 64  1  0  0  0  0
 54 65  1  0  0  0  0
 55 65  1  0  0  0  0
 56 65  1  0  0  0  0
 57 66  1  0  0  0  0
 58 66  1  0  0  0  0
 59 78  1  0  0  0  0
 60 86  1  0  0  0  0
 61 62  1  0  0  0  0
 62 66  1  0  0  0  0
 63 65  1  0  0  0  0
 63 76  1  0  0  0  0
 64 78  1  0  0  0  0
 66 87  1  0  0  0  0
 67 68  1  0  0  0  0
M  CHG  2  77   1  78   1
M  ISO  4  40 100  66 101  73 100  87 101
M  END
> <Batch ID>
0141

> <Smiles>
CNC(C)C(=O)NC(C(=O)N1Cc2cc([101O:1][101C:1](C)(C)CCC(=O)NC(=N)c3cc([100NH:0][100C:0](=O)N4CCCC(n5nc(-c6ccc(Oc7ccc(F)cc7F)cc6)c(C(N)=O)c5N)C4)cc(OC)c3)ccc2CC1C(=O)NC1CCCc2ccccc21)C(C)(C)C

> <Shape>
0.233

> <Color>
0.049

> <Negative vol penalty>
0.000

$$$$

  -OEChem-04052302543D

 85 94  0     1  0  0  0  0  0999 V2000
  -21.2965  -37.4759   22.8492 C   0  0  0  0  0  0  0  0  0  0  0  0
  -22.0655  -37.0268   21.7804 C   0  0  0  0  0  0  0  0  0  0  0  0
  -26.5767  -12.6405   21.6451 C   0  0  0  0  0  0  0  0  0  0  0  0
  -26.1053  -13.7265   19.5391 C   0  0  0  0  0  0  0  0  0  0  0  0
  -21.4293  -36.8782   24.1018 C   0  0  0  0  0  0  0  0  0  0  0  0
  -22.9686  -35.9803   21.9639 C   0  0  0  0  0  0  0  0  0  0  0  0
  -25.8362  -30.4077   18.4942 C   0  0  0  0  0  0  0  0  0  0  0  0
  -25.2973  -12.0849   21.6451 C   0  0  0  0  0  0  0  0  0  0  0  0
  -24.8259  -13.1708   19.5389 C   0  0  0  0  0  0  0  0  0  0  0  0
  -27.0781  -29.8543   18.1856 C   0  0  0  0  0  0  0  0  0  0  0  0
  -23.7037   -9.5013   20.1557 C   0  0  0  0  0  0  0  0  0  0  0  0
  -23.5830   -8.1518   20.4869 C   0  0  0  0  0  0  0  0  0  0  0  0
  -27.1656  -28.8451   20.3749 C   0  0  0  0  0  0  0  0  0  0  0  0
  -30.3926  -22.6165   19.0670 C   0  0  0  0  0  0  0  0  0  0  0  0
  -22.1614   -8.7365   22.3509 C   0  0  0  0  0  0  0  0  0  0  0  0
  -26.9807  -13.4614   20.5921 C   0  0  0  0  0  0  0  0  0  0  0  0
  -29.4717  -13.4780   20.0422 C   0  0  0  0  0  0  0  0  0  0  0  0
  -22.3275  -35.8175   24.2984 C   0  0  0  0  0  0  0  0  0  0  0  0
  -25.2537  -30.1925   19.7515 C   0  0  0  0  0  0  0  0  0  0  0  0
  -23.1145  -35.3688   23.2206 C   0  0  0  0  0  0  0  0  0  0  0  0
  -25.9151  -29.3947   20.6960 C   0  0  0  0  0  0  0  0  0  0  0  0
  -30.2244  -23.3471   17.8554 C   0  0  0  0  0  0  0  0  0  0  0  0
  -24.4219  -12.3500   20.5920 C   0  0  0  0  0  0  0  0  0  0  0  0
  -27.7444  -29.0753   19.1271 C   0  0  0  0  0  0  0  0  0  0  0  0
  -23.0533  -10.4685   20.9221 C   0  0  0  0  0  0  0  0  0  0  0  0
  -22.8119   -7.7693   21.5845 C   0  0  0  0  0  0  0  0  0  0  0  0
  -22.2822  -10.0860   22.0197 C   0  0  0  0  0  0  0  0  0  0  0  0
  -28.3020  -14.0360   20.5919 C   0  0  0  0  0  0  0  0  0  0  0  0
  -29.6024  -22.5976   16.8813 C   0  0  0  0  0  0  0  0  0  0  0  0
  -30.4498  -14.4068   20.3012 C   0  0  0  0  0  0  0  0  0  0  0  0
  -29.8924  -21.3363   18.9728 C   0  0  0  0  0  0  0  0  0  0  0  0
  -31.3662  -27.2075   16.7556 C   0  0  0  0  0  0  0  0  0  0  0  0
  -30.1791  -27.0756   17.3704 C   0  0  0  0  0  0  0  0  0  0  0  0
  -29.6574  -12.2315   19.3584 C   0  0  0  0  0  0  0  0  0  0  0  0
  -24.3866  -32.0621   22.1715 C   0  0  0  0  0  0  0  0  0  0  0  0
  -23.1741  -29.2989   23.3618 C   0  0  0  0  0  0  0  0  0  0  0  0
  -23.2526  -25.8875   23.4179 C   0  0  0  0  0  0  0  0  0  0  0  0
  -30.3320  -20.3083   21.2303 C   0  0  0  0  0  0  0  0  0  0  0  0
  -22.4705  -35.2343   25.6819 C   0  0  0  0  0  0  0  0  0  0  0  0
  -23.9012  -30.7744   20.0591 C   0  0  0  0  0  0  0  0  0  0  0  0
  -25.3233  -29.1168   22.0528 C   0  0  0  0  0  0  0  0  0  0  0  0
  -32.3645  -26.0954   16.6783 C   0  0  0  0  0  0  0  0  0  0  0  0
  -29.7309  -25.7753   17.9978 C   0  0  0  0  0  0  0  0  0  0  0  0
  -23.1792  -33.8824   25.7028 C   0  0  0  0  0  0  0  0  0  0  0  0
  -31.6269  -17.8309   23.4355 C   0  0  0  0  0  0  0  0  0  0  0  0
  -24.4351  -33.9246   24.8381 C   0  0  0  0  0  0  0  0  0  0  0  0
  -31.0326  -16.5251   22.9028 C   0  0  0  0  0  0  0  0  0  0  0  0
  -32.0767  -24.9775   17.6791 C   0  0  0  0  0  0  0  0  0  0  0  0
  -30.6423  -18.9927   23.3155 C   0  0  0  0  0  0  0  0  0  0  0  0
  -29.4861  -17.8885   21.4412 C   0  0  0  0  0  0  0  0  0  0  0  0
  -24.0872  -34.2197   23.3741 C   0  0  1  0  0  0  0  0  0  0  0  0
  -23.6374  -30.9147   21.5552 C   0  0  1  0  0  0  0  0  0  0  0  0
  -30.4643  -16.7031   21.4812 C   0  0  2  0  0  0  0  0  0  0  0  0
  -30.2050  -22.3985   14.4556 C   0  0  0  0  0  0  0  0  0  0  0  0
  -22.1675  -23.9100   24.5176 C   0  0  0  0  0  0  0  0  0  0  0  0
  -24.7703  -29.8405   25.9052 C   0  0  0  0  0  0  0  0  0  0  0  0
  -24.4201  -27.4471   26.5514 C   0  0  0  0  0  0  0  0  0  0  0  0
  -22.4589  -28.9665   26.2903 C   0  0  0  0  0  0  0  0  0  0  0  0
  -22.2698  -24.8410   20.8299 C   0  0  0  0  0  0  0  0  0  0  0  0
  -29.2453  -22.9808   15.4959 C   0  0  0  0  0  0  0  0  0  0  0  0
  -29.2070  -28.2157   17.4604 C   0  0  0  0  0  0  0  0  0  1  0  0
  -23.7049  -28.1864   24.2334 C   0  0  1  0  0  0  0  0  0  0  0  0
  -22.1457  -24.8528   23.3246 C   0  0  2  0  0  0  0  0  0  0  0  0
  -23.8508  -28.6168   25.7203 C   0  0  0  0  0  0  0  0  0  0  0  0
  -28.5156  -15.2270   21.1577 N   0  0  0  0  0  0  0  0  0  0  0  0
  -29.8308  -15.4249   20.9648 N   0  0  0  0  0  0  0  0  0  0  0  0
  -30.6442  -24.6680   17.6820 N   0  0  1  0  0  0  0  0  0  0  0  0
  -24.0017  -29.7131   22.3085 N   0  0  0  0  0  0  0  0  0  0  0  0
  -30.1493  -19.1031   21.9409 N   0  0  0  0  0  0  0  0  0  0  0  0
  -31.7705  -14.4437   20.0238 N   0  0  0  0  0  0  0  0  0  0  0  0
  -28.5463  -11.3967   19.1775 N   0  0  0  0  0  0  0  0  0  0  0  0
  -29.8514  -20.2846   19.9215 N   0  0  0  0  0  0  0  0  0  0  0  0
  -23.5735  -33.0313   22.7273 N   0  0  0  0  0  0  0  0  0  0  0  0
  -22.8183  -27.0466   24.0255 N   0  0  0  0  0  0  0  0  0  0  0  0
  -22.2971  -24.0430   22.0827 N   0  3  0  0  0  0  0  0  0  0  0  0
  -30.7788  -11.8614   18.9353 O   0  0  0  0  0  0  0  0  0  0  0  0
  -25.6118  -32.0670   22.1461 O   0  0  0  0  0  0  0  0  0  0  0  0
  -22.0630  -29.7778   23.6022 O   0  0  0  0  0  0  0  0  0  0  0  0
  -24.3898  -25.6862   22.9976 O   0  0  0  0  0  0  0  0  0  0  0  0
  -30.8992  -21.2802   21.7360 O   0  0  0  0  0  0  0  0  0  0  0  0
  -23.1735  -11.8079   20.5914 O   0  0  0  0  0  0  0  0  0  0  0  0
  -28.9570  -28.5345   18.8287 O   0  0  0  0  0  0  0  0  0  1  0  0
  -22.6948   -6.4732   21.9016 F   0  0  0  0  0  0  0  0  0  0  0  0
  -21.6541  -11.0105   22.7590 F   0  0  0  0  0  0  0  0  0  0  0  0
  -29.2238  -21.0198   17.4285 S   0  0  0  0  0  0  0  0  0  0  0  0
  1  2  1  0  0  0  0
  1  5  2  0  0  0  0
  2  6  2  0  0  0  0
  3  8  2  0  0  0  0
  3 16  1  0  0  0  0
  4  9  1  0  0  0  0
  4 16  2  0  0  0  0
  5 18  1  0  0  0  0
  6 20  1  0  0  0  0
  7 10  2  0  0  0  0
  7 19  1  0  0  0  0
  8 23  1  0  0  0  0
  9 23  2  0  0  0  0
 10 24  1  0  0  0  0
 11 12  2  0  0  0  0
 11 25  1  0  0  0  0
 12 26  1  0  0  0  0
 13 21  1  0  0  0  0
 13 24  2  0  0  0  0
 14 22  1  0  0  0  0
 14 31  2  0  0  0  0
 15 26  2  0  0  0  0
 15 27  1  0  0  0  0
 16 28  1  0  0  0  0
 17 28  1  0  0  0  0
 17 30  2  0  0  0  0
 17 34  1  0  0  0  0
 18 20  2  0  0  0  0
 18 39  1  0  0  0  0
 19 21  2  0  0  0  0
 19 40  1  0  0  0  0
 20 51  1  0  0  0  0
 21 41  1  0  0  0  0
 22 29  2  0  0  0  0
 22 67  1  0  0  0  0
 23 81  1  0  0  0  0
 24 82  1  0  0  0  0
 25 27  2  0  0  0  0
 25 81  1  0  0  0  0
 26 83  1  0  0  0  0
 27 84  1  0  0  0  0
 28 65  2  0  0  0  0
 29 60  1  0  0  0  0
 29 85  1  0  0  0  0
 30 66  1  0  0  0  0
 30 70  1  0  0  0  0
 31 72  1  0  0  0  0
 31 85  1  0  0  0  0
 32 33  2  0  0  0  0
 32 42  1  0  0  0  0
 33 43  1  0  0  0  0
 33 61  1  0  0  0  0
 34 71  1  0  0  0  0
 34 76  2  0  0  0  0
 35 52  1  0  0  0  0
 35 73  1  0  0  0  0
 35 77  2  0  0  0  0
 36 62  1  0  0  0  0
 36 68  1  0  0  0  0
 36 78  2  0  0  0  0
 37 63  1  0  0  0  0
 37 74  1  0  0  0  0
 37 79  2  0  0  0  0
 38 69  1  0  0  0  0
 38 72  1  0  0  0  0
 38 80  2  0  0  0  0
 39 44  1  0  0  0  0
 40 52  1  0  0  0  0
 41 68  1  0  0  0  0
 42 48  1  0  0  0  0
 43 67  1  0  0  0  0
 44 46  1  0  0  0  0
 45 47  1  0  0  0  0
 45 49  1  0  0  0  0
 46 51  1  0  0  0  0
 47 53  1  0  0  0  0
 48 67  1  0  0  0  0
 49 69  1  0  0  0  0
 50 53  1  0  0  0  0
 50 69  1  0  0  0  0
 51 73  1  0  0  0  0
 52 68  1  0  0  0  0
 53 66  1  0  0  0  0
 54 60  1  0  0  0  0
 55 63  1  0  0  0  0
 56 64  1  0  0  0  0
 57 64  1  0  0  0  0
 58 64  1  0  0  0  0
 59 75  1  0  0  0  0
 61 82  1  0  0  0  0
 62 64  1  0  0  0  0
 62 74  1  0  0  0  0
 63 75  1  0  0  0  0
 65 66  1  0  0  0  0
M  CHG  1  75   1
M  ISO  4  38 100  61 101  72 100  82 101
M  END
> <Batch ID>
0141

> <Smiles>
CCc1sc([100NH:0][100C:0](=O)N2CCCC(n3nc(-c4ccc(Oc5ccc(F)cc5F)cc4)c(C(N)=O)c3N)C2)cc1N1CCC=C([101CH2:1][101O:1]c2ccc3c(c2)CN(C(=O)C(NC(=O)C(C)NC)C(C)(C)C)C(C(=O)NC2CCCc4ccccc42)C3)C1

> <Shape>
0.276

> <Color>
0.072

> <Negative vol penalty>
0.000

$$$$

  -OEChem-04052302543D

 90 98  0     1  0  0  0  0  0999 V2000
  -21.9141  -32.3757   14.5748 C   0  0  0  0  0  0  0  0  0  0  0  0
  -23.0033  -31.6533   15.0513 C   0  0  0  0  0  0  0  0  0  0  0  0
  -24.9285   -8.2402   21.5031 C   0  0  0  0  0  0  0  0  0  0  0  0
  -23.3639   -9.6693   20.3426 C   0  0  0  0  0  0  0  0  0  0  0  0
  -21.5170  -33.5447   15.2228 C   0  0  0  0  0  0  0  0  0  0  0  0
  -23.6968  -32.1000   16.1756 C   0  0  0  0  0  0  0  0  0  0  0  0
  -24.7074  -28.3670   19.4450 C   0  0  0  0  0  0  0  0  0  0  0  0
  -23.9019   -7.7906   22.3335 C   0  0  0  0  0  0  0  0  0  0  0  0
  -22.3373   -9.2197   21.1730 C   0  0  0  0  0  0  0  0  0  0  0  0
  -25.7702  -27.5195   19.1350 C   0  0  0  0  0  0  0  0  0  0  0  0
  -21.3360   -5.5956   22.1572 C   0  0  0  0  0  0  0  0  0  0  0  0
  -21.2509   -4.2245   22.3984 C   0  0  0  0  0  0  0  0  0  0  0  0
  -27.1817  -28.7405   20.6634 C   0  0  0  0  0  0  0  0  0  0  0  0
  -25.3599  -19.4342   18.0783 C   0  0  0  0  0  0  0  0  0  0  0  0
  -25.4980  -17.0546   17.6843 C   0  0  0  0  0  0  0  0  0  0  0  0
  -27.2613  -18.1838   18.8897 C   0  0  0  0  0  0  0  0  0  0  0  0
  -21.5351   -4.6230   24.7643 C   0  0  0  0  0  0  0  0  0  0  0  0
  -24.6595   -9.1796   20.5076 C   0  0  0  0  0  0  0  0  0  0  0  0
  -26.1241   -9.0900   18.4209 C   0  0  0  0  0  0  0  0  0  0  0  0
  -22.2001  -34.0007   16.3613 C   0  0  0  0  0  0  0  0  0  0  0  0
  -24.8771  -29.4161   20.3598 C   0  0  0  0  0  0  0  0  0  0  0  0
  -23.3094  -33.2768   16.8386 C   0  0  0  0  0  0  0  0  0  0  0  0
  -26.1188  -29.5983   20.9852 C   0  0  0  0  0  0  0  0  0  0  0  0
  -24.8183  -18.2647   17.5451 C   0  0  0  0  0  0  0  0  0  0  0  0
  -26.5815  -19.3938   18.7505 C   0  0  0  0  0  0  0  0  0  0  0  0
  -26.7196  -17.0142   18.3567 C   0  0  0  0  0  0  0  0  0  0  0  0
  -22.6063   -8.2803   22.1684 C   0  0  0  0  0  0  0  0  0  0  0  0
  -27.0083  -27.7079   19.7421 C   0  0  0  0  0  0  0  0  0  0  0  0
  -21.5208   -6.4806   23.2195 C   0  0  0  0  0  0  0  0  0  0  0  0
  -21.3504   -3.7382   23.7019 C   0  0  0  0  0  0  0  0  0  0  0  0
  -21.6203   -5.9943   24.5230 C   0  0  0  0  0  0  0  0  0  0  0  0
  -25.7196   -9.6448   19.6498 C   0  0  0  0  0  0  0  0  0  0  0  0
  -27.1607   -9.8905   18.0073 C   0  0  0  0  0  0  0  0  0  0  0  0
  -25.6088   -7.9527   17.7160 C   0  0  0  0  0  0  0  0  0  0  0  0
  -24.6687  -32.5841   20.2039 C   0  0  0  0  0  0  0  0  0  0  0  0
  -28.8523  -24.5986   19.4885 C   0  0  0  0  0  0  0  0  0  0  0  0
  -25.1187  -32.3819   23.4100 C   0  0  0  0  0  0  0  0  0  0  0  0
  -26.3220  -30.5997   26.0600 C   0  0  0  0  0  0  0  0  0  0  0  0
  -28.3279  -20.7270   19.9867 C   0  0  0  0  0  0  0  0  0  0  0  0
  -28.6323  -15.5711   19.1346 C   0  0  0  0  0  0  0  0  0  0  0  0
  -21.7631  -35.2952   17.0000 C   0  0  0  0  0  0  0  0  0  0  0  0
  -23.7135  -30.3051   20.7035 C   0  0  0  0  0  0  0  0  0  0  0  0
  -26.3473  -30.6972   21.9895 C   0  0  0  0  0  0  0  0  0  0  0  0
  -22.3200  -35.4988   18.4067 C   0  0  0  0  0  0  0  0  0  0  0  0
  -30.6435  -12.6930   19.7252 C   0  0  0  0  0  0  0  0  0  0  0  0
  -23.8114  -35.1805   18.4416 C   0  0  0  0  0  0  0  0  0  0  0  0
  -29.6469  -11.5337   19.6550 C   0  0  0  0  0  0  0  0  0  0  0  0
  -30.0282  -13.9313   20.3746 C   0  0  0  0  0  0  0  0  0  0  0  0
  -27.7648  -13.2194   19.7115 C   0  0  0  0  0  0  0  0  0  0  0  0
  -24.0718  -33.7157   18.0699 C   0  0  1  0  0  0  0  0  0  0  0  0
  -24.1404  -31.6586   21.2631 C   0  0  1  0  0  0  0  0  0  0  0  0
  -28.3188  -11.9707   19.0062 C   0  0  2  0  0  0  0  0  0  0  0  0
  -23.5126  -18.3086   16.8251 C   0  0  0  0  0  0  0  0  0  0  0  0
  -27.3524  -21.8537   22.6970 C   0  0  0  0  0  0  0  0  0  0  0  0
  -29.6733  -22.7122   18.1038 C   0  0  0  0  0  0  0  0  0  0  0  0
  -26.5791  -30.7093   28.5539 C   0  0  0  0  0  0  0  0  0  0  0  0
  -29.9716  -22.2184   21.1781 C   0  0  0  0  0  0  0  0  0  0  0  0
  -27.4326  -34.3438   23.0828 C   0  0  0  0  0  0  0  0  0  0  0  0
  -28.2224  -33.6851   25.3654 C   0  0  0  0  0  0  0  0  0  0  0  0
  -25.9884  -34.7581   25.0820 C   0  0  0  0  0  0  0  0  0  0  0  0
  -24.6582  -28.1840   26.4540 C   0  0  0  0  0  0  0  0  0  0  0  0
  -27.7423  -25.5467   19.0742 C   0  0  0  0  0  0  0  0  0  1  0  0
  -27.4969  -22.6719   21.4163 C   0  0  0  0  0  0  0  0  0  0  0  0
  -28.6395  -23.1159   19.1626 C   0  0  1  0  0  0  0  0  0  0  0  0
  -26.3217  -32.3700   24.3220 C   0  0  1  0  0  0  0  0  0  0  0  0
  -25.7031  -30.2459   27.4003 C   0  0  2  0  0  0  0  0  0  0  0  0
  -28.6140  -22.1936   20.4360 C   0  0  2  0  0  0  0  0  0  0  0  0
  -26.9878  -33.7696   24.4427 C   0  0  0  0  0  0  0  0  0  0  0  0
  -26.4406  -10.7150   19.9946 N   0  0  0  0  0  0  0  0  0  0  0  0
  -27.3086  -10.8390   18.9762 N   0  0  0  0  0  0  0  0  0  0  0  0
  -25.1804  -31.5440   22.2875 N   0  0  0  0  0  0  0  0  0  0  0  0
  -28.7755  -14.2887   19.7053 N   0  0  0  0  0  0  0  0  0  0  0  0
  -27.9511   -9.8685   16.9132 N   0  0  0  0  0  0  0  0  0  0  0  0
  -24.5414   -7.2429   18.2826 N   0  0  0  0  0  0  0  0  0  0  0  0
  -27.1311  -20.5816   19.2915 N   0  0  0  0  0  0  0  0  0  0  0  0
  -27.4108  -15.7853   18.4969 N   0  0  0  0  0  0  0  0  0  0  0  0
  -23.7694  -32.8490   19.1887 N   0  0  0  0  0  0  0  0  0  0  0  0
  -25.8660  -31.8136   25.5914 N   0  0  0  0  0  0  0  0  0  0  0  0
  -25.5191  -28.7713   27.5128 N   0  3  0  0  0  0  0  0  0  0  0  0
  -26.0917   -7.5673   16.6244 O   0  0  0  0  0  0  0  0  0  0  0  0
  -25.8074  -33.0264   20.3013 O   0  0  0  0  0  0  0  0  0  0  0  0
  -29.8747  -25.0058   20.0397 O   0  0  0  0  0  0  0  0  0  0  0  0
  -24.1568  -33.1026   23.6872 O   0  0  0  0  0  0  0  0  0  0  0  0
  -27.1319  -29.8736   25.4879 O   0  0  0  0  0  0  0  0  0  0  0  0
  -29.1251  -19.8245   20.2386 O   0  0  0  0  0  0  0  0  0  0  0  0
  -29.5378  -16.4076   19.1827 O   0  0  0  0  0  0  0  0  0  0  0  0
  -21.6043   -7.8417   22.9784 O   0  0  0  0  0  0  0  0  0  0  0  0
  -28.0582  -26.8740   19.4378 O   0  0  0  0  0  0  0  0  0  1  0  0
  -21.2670   -2.4215   23.9336 F   0  0  0  0  0  0  0  0  0  0  0  0
  -21.7966   -6.8396   25.5478 F   0  0  0  0  0  0  0  0  0  0  0  0
  1  2  1  0  0  0  0
  1  5  2  0  0  0  0
  2  6  2  0  0  0  0
  3  8  2  0  0  0  0
  3 18  1  0  0  0  0
  4  9  1  0  0  0  0
  4 18  2  0  0  0  0
  5 20  1  0  0  0  0
  6 22  1  0  0  0  0
  7 10  2  0  0  0  0
  7 21  1  0  0  0  0
  8 27  1  0  0  0  0
  9 27  2  0  0  0  0
 10 28  1  0  0  0  0
 11 12  2  0  0  0  0
 11 29  1  0  0  0  0
 12 30  1  0  0  0  0
 13 23  1  0  0  0  0
 13 28  2  0  0  0  0
 14 24  2  0  0  0  0
 14 25  1  0  0  0  0
 15 24  1  0  0  0  0
 15 26  2  0  0  0  0
 16 25  2  0  0  0  0
 16 26  1  0  0  0  0
 17 30  2  0  0  0  0
 17 31  1  0  0  0  0
 18 32  1  0  0  0  0
 19 32  1  0  0  0  0
 19 33  2  0  0  0  0
 19 34  1  0  0  0  0
 20 22  2  0  0  0  0
 20 41  1  0  0  0  0
 21 23  2  0  0  0  0
 21 42  1  0  0  0  0
 22 50  1  0  0  0  0
 23 43  1  0  0  0  0
 24 53  1  0  0  0  0
 25 75  1  0  0  0  0
 26 76  1  0  0  0  0
 27 87  1  0  0  0  0
 28 88  1  0  0  0  0
 29 31  2  0  0  0  0
 29 87  1  0  0  0  0
 30 89  1  0  0  0  0
 31 90  1  0  0  0  0
 32 69  2  0  0  0  0
 33 70  1  0  0  0  0
 33 73  1  0  0  0  0
 34 74  1  0  0  0  0
 34 80  2  0  0  0  0
 35 51  1  0  0  0  0
 35 77  1  0  0  0  0
 35 81  2  0  0  0  0
 36 62  1  0  0  0  0
 36 64  1  0  0  0  0
 36 82  2  0  0  0  0
 37 65  1  0  0  0  0
 37 71  1  0  0  0  0
 37 83  2  0  0  0  0
 38 66  1  0  0  0  0
 38 78  1  0  0  0  0
 38 84  2  0  0  0  0
 39 67  1  0  0  0  0
 39 75  1  0  0  0  0
 39 85  2  0  0  0  0
 40 72  1  0  0  0  0
 40 76  1  0  0  0  0
 40 86  2  0  0  0  0
 41 44  1  0  0  0  0
 42 51  1  0  0  0  0
 43 71  1  0  0  0  0
 44 46  1  0  0  0  0
 45 47  1  0  0  0  0
 45 48  1  0  0  0  0
 46 50  1  0  0  0  0
 47 52  1  0  0  0  0
 48 72  1  0  0  0  0
 49 52  1  0  0  0  0
 49 72  1  0  0  0  0
 50 77  1  0  0  0  0
 51 71  1  0  0  0  0
 52 70  1  0  0  0  0
 54 63  1  0  0  0  0
 55 64  1  0  0  0  0
 56 66  1  0  0  0  0
 57 67  1  0  0  0  0
 58 68  1  0  0  0  0
 59 68  1  0  0  0  0
 60 68  1  0  0  0  0
 61 79  1  0  0  0  0
 62 88  1  0  0  0  0
 63 67  1  0  0  0  0
 64 67  1  0  0  0  0
 65 68  1  0  0  0  0
 65 78  1  0  0  0  0
 66 79  1  0  0  0  0
 69 70  1  0  0  0  0
M  CHG  1  79   1
M  ISO  4  40 100  62 101  76 100  88 101
M  END
> <Batch ID>
0141

> <Smiles>
CCC(C)(C(=O)Nc1cc(C)cc([100NH:0][100C:0](=O)N2CCCC(n3nc(-c4ccc(Oc5ccc(F)cc5F)cc4)c(C(N)=O)c3N)C2)c1)C(C)C(=O)[101CH2:1][101O:1]c1ccc2c(c1)CN(C(=O)C(NC(=O)C(C)NC)C(C)(C)C)C(C(=O)NC1CCCc3ccccc31)C2

> <Shape>
0.308

> <Color>
0.115

> <Negative vol penalty>
0.000

$$$$

  -OEChem-04052302543D

 89 97  0     1  0  0  0  0  0999 V2000
  -19.7605  -11.3035   21.1959 C   0  0  0  0  0  0  0  0  0  0  0  0
  -20.3939  -12.4029   21.7665 C   0  0  0  0  0  0  0  0  0  0  0  0
  -25.1290  -30.6035   20.0901 C   0  0  0  0  0  0  0  0  0  0  0  0
  -24.9337  -30.0790   22.4404 C   0  0  0  0  0  0  0  0  0  0  0  0
  -20.5145  -10.2152   20.7590 C   0  0  0  0  0  0  0  0  0  0  0  0
  -21.7817  -12.4141   21.9015 C   0  0  0  0  0  0  0  0  0  0  0  0
  -23.8339  -16.8281   20.5050 C   0  0  0  0  0  0  0  0  0  0  0  0
  -23.8864  -30.0148   19.8555 C   0  0  0  0  0  0  0  0  0  0  0  0
  -23.6911  -29.4903   22.2058 C   0  0  0  0  0  0  0  0  0  0  0  0
  -23.7446  -17.8860   21.4087 C   0  0  0  0  0  0  0  0  0  0  0  0
  -20.5074  -30.5098   21.7106 C   0  0  0  0  0  0  0  0  0  0  0  0
  -19.4698  -30.8171   22.5906 C   0  0  0  0  0  0  0  0  0  0  0  0
  -27.0184  -23.7968   18.8061 C   0  0  0  0  0  0  0  0  0  0  0  0
  -27.6525  -25.5254   20.3703 C   0  0  0  0  0  0  0  0  0  0  0  0
  -26.0166  -17.4733   22.1068 C   0  0  0  0  0  0  0  0  0  0  0  0
  -29.2675  -24.6790   18.7853 C   0  0  0  0  0  0  0  0  0  0  0  0
  -19.2656  -28.4796   23.1662 C   0  0  0  0  0  0  0  0  0  0  0  0
  -25.6527  -30.6356   21.3826 C   0  0  0  0  0  0  0  0  0  0  0  0
  -26.6915  -24.6551   19.8559 C   0  0  0  0  0  0  0  0  0  0  0  0
  -27.1925  -32.5894   21.9475 C   0  0  0  0  0  0  0  0  0  0  0  0
  -21.9131  -10.2172   20.8798 C   0  0  0  0  0  0  0  0  0  0  0  0
  -25.0134  -16.0767   20.4030 C   0  0  0  0  0  0  0  0  0  0  0  0
  -22.5551  -11.3242   21.4670 C   0  0  0  0  0  0  0  0  0  0  0  0
  -26.1190  -16.4080   21.1992 C   0  0  0  0  0  0  0  0  0  0  0  0
  -28.3065  -23.8087   18.2709 C   0  0  0  0  0  0  0  0  0  0  0  0
  -28.9405  -25.5374   19.8350 C   0  0  0  0  0  0  0  0  0  0  0  0
  -23.1675  -29.4582   20.9133 C   0  0  0  0  0  0  0  0  0  0  0  0
  -24.8351  -18.2069   22.2118 C   0  0  0  0  0  0  0  0  0  0  0  0
  -20.9241  -29.1873   21.5583 C   0  0  0  0  0  0  0  0  0  0  0  0
  -18.8489  -29.8021   23.3185 C   0  0  0  0  0  0  0  0  0  0  0  0
  -20.3032  -28.1723   22.2861 C   0  0  0  0  0  0  0  0  0  0  0  0
  -26.9364  -31.2431   21.6255 C   0  0  0  0  0  0  0  0  0  0  0  0
  -28.5582  -32.6576   22.0770 C   0  0  0  0  0  0  0  0  0  0  0  0
  -24.8703  -23.4928   20.9622 C   0  0  0  0  0  0  0  0  0  0  0  0
  -25.3250  -24.6424   20.4246 C   0  0  0  0  0  0  0  0  0  0  0  0
  -26.2778  -33.6807   22.1145 C   0  0  0  0  0  0  0  0  0  0  0  0
  -25.7805  -13.0296   20.8830 C   0  0  0  0  0  0  0  0  0  0  0  0
  -24.4096  -21.6209   23.3556 C   0  0  0  0  0  0  0  0  0  0  0  0
  -28.6462  -13.9676   19.6871 C   0  0  0  0  0  0  0  0  0  0  0  0
  -30.8559  -16.5044   19.1133 C   0  0  0  0  0  0  0  0  0  0  0  0
  -29.7692  -27.3414   21.3996 C   0  0  0  0  0  0  0  0  0  0  0  0
  -22.6818   -8.9977   20.4362 C   0  0  0  0  0  0  0  0  0  0  0  0
  -25.1026  -14.9556   19.4042 C   0  0  0  0  0  0  0  0  0  0  0  0
  -27.4150  -15.6453   21.1136 C   0  0  0  0  0  0  0  0  0  0  0  0
  -24.1789   -9.2474   20.2733 C   0  0  0  0  0  0  0  0  0  0  0  0
  -32.1900  -30.0900   20.1950 C   0  0  0  0  0  0  0  0  0  0  0  0
  -24.7270  -10.0095   21.4757 C   0  0  0  0  0  0  0  0  0  0  0  0
  -31.1517  -31.1650   20.4905 C   0  0  0  0  0  0  0  0  0  0  0  0
  -31.5329  -28.7127   20.1683 C   0  0  0  0  0  0  0  0  0  0  0  0
  -30.6076  -29.4782   22.3570 C   0  0  0  0  0  0  0  0  0  0  0  0
  -24.0606  -11.3843   21.6080 C   0  0  1  0  0  0  0  0  0  0  0  0
  -26.1796  -13.9318   19.7497 C   0  0  1  0  0  0  0  0  0  0  0  0
  -30.4641  -30.9279   21.8500 C   0  0  2  0  0  0  0  0  0  0  0  0
  -28.6568  -22.8907   17.1489 C   0  0  0  0  0  0  0  0  0  0  0  0
  -23.7677  -25.9880   18.9839 C   0  0  0  0  0  0  0  0  0  0  0  0
  -33.1296  -16.9566   18.1525 C   0  0  0  0  0  0  0  0  0  0  0  0
  -22.1672  -22.7241   23.6865 C   0  0  0  0  0  0  0  0  0  0  0  0
  -24.2435  -24.0790   23.8746 C   0  0  0  0  0  0  0  0  0  0  0  0
  -29.9352  -12.7881   22.1886 C   0  0  0  0  0  0  0  0  0  0  0  0
  -32.0094  -14.0802   21.6444 C   0  0  0  0  0  0  0  0  0  0  0  0
  -31.1765  -12.3387   20.0645 C   0  0  0  0  0  0  0  0  0  0  0  0
  -29.7518  -18.3197   17.0530 C   0  0  0  0  0  0  0  0  0  0  0  0
  -23.5277  -23.2563   21.6065 C   0  0  0  0  0  0  0  0  0  0  0  0
  -24.5289  -25.9207   20.3012 C   0  0  0  0  0  0  0  0  0  0  0  0
  -23.8922  -20.3201   22.7608 C   0  0  0  0  0  0  0  0  0  1  0  0
  -29.9205  -14.5227   20.2762 C   0  0  1  0  0  0  0  0  0  0  0  0
  -31.6360  -16.8993   17.8723 C   0  0  2  0  0  0  0  0  0  0  0  0
  -23.5884  -22.9102   23.1167 C   0  0  0  0  0  0  0  0  0  0  0  0
  -30.7355  -13.4458   21.0467 C   0  0  0  0  0  0  0  0  0  0  0  0
  -28.0500  -30.5090   21.5547 N   0  0  0  0  0  0  0  0  0  0  0  0
  -29.0191  -31.3972   21.8339 N   0  0  0  0  0  0  0  0  0  0  0  0
  -27.4506  -14.5538   20.1263 N   0  0  0  0  0  0  0  0  0  0  0  0
  -30.5969  -28.4857   21.2793 N   0  0  0  0  0  0  0  0  0  0  0  0
  -29.3977  -33.6722   22.3740 N   0  0  0  0  0  0  0  0  0  0  0  0
  -24.9081  -33.4363   21.9454 N   0  0  0  0  0  0  0  0  0  0  0  0
  -29.9178  -26.4211   20.3585 N   0  0  0  0  0  0  0  0  0  0  0  0
  -24.6225  -12.3125   20.6503 N   0  0  0  0  0  0  0  0  0  0  0  0
  -30.6444  -15.1431   19.1719 N   0  0  0  0  0  0  0  0  0  0  0  0
  -31.1967  -18.2388   17.3888 N   0  3  0  0  0  0  0  0  0  0  0  0
  -26.6649  -34.8419   22.3891 O   0  0  0  0  0  0  0  0  0  0  0  0
  -26.4729  -12.9861   21.8932 O   0  0  0  0  0  0  0  0  0  0  0  0
  -25.4462  -21.6326   24.0239 O   0  0  0  0  0  0  0  0  0  0  0  0
  -28.7097  -13.0527   18.8622 O   0  0  0  0  0  0  0  0  0  0  0  0
  -30.4756  -17.3213   19.9490 O   0  0  0  0  0  0  0  0  0  0  0  0
  -28.9993  -27.1961   22.3513 O   0  0  0  0  0  0  0  0  0  0  0  0
  -21.9549  -28.8839   20.6847 O   0  0  0  0  0  0  0  0  0  0  0  0
  -24.7497  -19.2483   23.1035 O   0  0  0  0  0  0  0  0  0  1  0  0
  -17.8536  -30.0976   24.1647 F   0  0  0  0  0  0  0  0  0  0  0  0
  -20.6999  -26.9001   22.1449 F   0  0  0  0  0  0  0  0  0  0  0  0
  1  2  1  0  0  0  0
  1  5  2  0  0  0  0
  2  6  2  0  0  0  0
  3  8  2  0  0  0  0
  3 18  1  0  0  0  0
  4  9  1  0  0  0  0
  4 18  2  0  0  0  0
  5 21  1  0  0  0  0
  6 23  1  0  0  0  0
  7 10  2  0  0  0  0
  7 22  1  0  0  0  0
  8 27  1  0  0  0  0
  9 27  2  0  0  0  0
 10 28  1  0  0  0  0
 11 12  2  0  0  0  0
 11 29  1  0  0  0  0
 12 30  1  0  0  0  0
 13 19  1  0  0  0  0
 13 25  2  0  0  0  0
 14 19  2  0  0  0  0
 14 26  1  0  0  0  0
 15 24  1  0  0  0  0
 15 28  2  0  0  0  0
 16 25  1  0  0  0  0
 16 26  2  0  0  0  0
 17 30  2  0  0  0  0
 17 31  1  0  0  0  0
 18 32  1  0  0  0  0
 19 35  1  0  0  0  0
 20 32  1  0  0  0  0
 20 33  2  0  0  0  0
 20 36  1  0  0  0  0
 21 23  2  0  0  0  0
 21 42  1  0  0  0  0
 22 24  2  0  0  0  0
 22 43  1  0  0  0  0
 23 51  1  0  0  0  0
 24 44  1  0  0  0  0
 25 54  1  0  0  0  0
 26 76  1  0  0  0  0
 27 86  1  0  0  0  0
 28 87  1  0  0  0  0
 29 31  2  0  0  0  0
 29 86  1  0  0  0  0
 30 88  1  0  0  0  0
 31 89  1  0  0  0  0
 32 70  2  0  0  0  0
 33 71  1  0  0  0  0
 33 74  1  0  0  0  0
 34 35  2  0  0  0  0
 34 63  1  0  0  0  0
 35 64  1  0  0  0  0
 36 75  1  0  0  0  0
 36 80  2  0  0  0  0
 37 52  1  0  0  0  0
 37 77  1  0  0  0  0
 37 81  2  0  0  0  0
 38 65  1  0  0  0  0
 38 68  1  0  0  0  0
 38 82  2  0  0  0  0
 39 66  1  0  0  0  0
 39 72  1  0  0  0  0
 39 83  2  0  0  0  0
 40 67  1  0  0  0  0
 40 78  1  0  0  0  0
 40 84  2  0  0  0  0
 41 73  1  0  0  0  0
 41 76  1  0  0  0  0
 41 85  2  0  0  0  0
 42 45  1  0  0  0  0
 43 52  1  0  0  0  0
 44 72  1  0  0  0  0
 45 47  1  0  0  0  0
 46 48  1  0  0  0  0
 46 49  1  0  0  0  0
 47 51  1  0  0  0  0
 48 53  1  0  0  0  0
 49 73  1  0  0  0  0
 50 53  1  0  0  0  0
 50 73  1  0  0  0  0
 51 77  1  0  0  0  0
 52 72  1  0  0  0  0
 53 71  1  0  0  0  0
 55 64  1  0  0  0  0
 56 67  1  0  0  0  0
 57 68  1  0  0  0  0
 58 68  1  0  0  0  0
 59 69  1  0  0  0  0
 60 69  1  0  0  0  0
 61 69  1  0  0  0  0
 62 79  1  0  0  0  0
 63 68  1  0  0  0  0
 65 87  1  0  0  0  0
 66 69  1  0  0  0  0
 66 78  1  0  0  0  0
 67 79  1  0  0  0  0
 70 71  1  0  0  0  0
M  CHG  1  79   1
M  ISO  4  41 100  65 101  76 100  87 101
M  END
> <Batch ID>
0141

> <Smiles>
CCC(=CCC(C)(C)C(=O)[101CH2:1][101O:1]c1ccc2c(c1)CN(C(=O)C(NC(=O)C(C)NC)C(C)(C)C)C(C(=O)NC1CCCc3ccccc31)C2)c1cc(C)cc([100NH:0][100C:0](=O)N2CCCC(n3nc(-c4ccc(Oc5ccc(F)cc5F)cc4)c(C(N)=O)c3N)C2)c1

> <Shape>
0.267

> <Color>
0.058

> <Negative vol penalty>
0.000

$$$$

  -OEChem-04052302543D

 86 94  0     1  0  0  0  0  0999 V2000
  -16.1158  -19.7070   19.6719 C   0  0  0  0  0  0  0  0  0  0  0  0
  -16.6596  -18.5035   19.2348 C   0  0  0  0  0  0  0  0  0  0  0  0
  -31.9682  -17.5884   21.8720 C   0  0  0  0  0  0  0  0  0  0  0  0
  -25.9619  -27.2376   18.8914 C   0  0  0  0  0  0  0  0  0  0  0  0
  -26.3846  -27.1280   21.2676 C   0  0  0  0  0  0  0  0  0  0  0  0
  -16.9033  -20.6071   20.3885 C   0  0  0  0  0  0  0  0  0  0  0  0
  -17.9918  -18.1998   19.5131 C   0  0  0  0  0  0  0  0  0  0  0  0
  -22.2720  -12.6302   20.9190 C   0  0  0  0  0  0  0  0  0  0  0  0
  -31.8179  -16.3346   21.2795 C   0  0  0  0  0  0  0  0  0  0  0  0
  -30.8590  -18.4170   22.0418 C   0  0  0  0  0  0  0  0  0  0  0  0
  -25.3731  -28.4916   19.0540 C   0  0  0  0  0  0  0  0  0  0  0  0
  -25.7959  -28.3820   21.4302 C   0  0  0  0  0  0  0  0  0  0  0  0
  -23.4648  -12.0523   20.4864 C   0  0  0  0  0  0  0  0  0  0  0  0
  -22.6722  -29.6658   21.5905 C   0  0  0  0  0  0  0  0  0  0  0  0
  -21.7733  -29.8279   22.6446 C   0  0  0  0  0  0  0  0  0  0  0  0
  -24.7077  -13.6483   21.8006 C   0  0  0  0  0  0  0  0  0  0  0  0
  -29.4493  -16.7382   21.0264 C   0  0  0  0  0  0  0  0  0  0  0  0
  -23.1794  -31.5569   23.5777 C   0  0  0  0  0  0  0  0  0  0  0  0
  -26.4676  -26.5558   19.9982 C   0  0  0  0  0  0  0  0  0  0  0  0
  -28.4323  -24.9840   19.5771 C   0  0  0  0  0  0  0  0  0  0  0  0
  -18.2431  -20.3100   20.6841 C   0  0  0  0  0  0  0  0  0  0  0  0
  -22.2884  -13.7303   21.7886 C   0  0  0  0  0  0  0  0  0  0  0  0
  -18.7984  -19.0973   20.2332 C   0  0  0  0  0  0  0  0  0  0  0  0
  -23.5137  -14.2367   22.2448 C   0  0  0  0  0  0  0  0  0  0  0  0
  -30.5584  -15.9095   20.8567 C   0  0  0  0  0  0  0  0  0  0  0  0
  -29.5996  -17.9920   21.6190 C   0  0  0  0  0  0  0  0  0  0  0  0
  -25.2901  -29.0638   20.3233 C   0  0  0  0  0  0  0  0  0  0  0  0
  -24.6829  -12.5632   20.9249 C   0  0  0  0  0  0  0  0  0  0  0  0
  -23.8248  -30.4492   21.5300 C   0  0  0  0  0  0  0  0  0  0  0  0
  -22.0269  -30.7735   23.6382 C   0  0  0  0  0  0  0  0  0  0  0  0
  -24.0783  -31.3948   22.5235 C   0  0  0  0  0  0  0  0  0  0  0  0
  -27.0754  -25.2601   19.8310 C   0  0  0  0  0  0  0  0  0  0  0  0
  -28.4960  -23.6140   19.5034 C   0  0  0  0  0  0  0  0  0  0  0  0
  -27.8660  -12.3666   19.2983 C   0  0  0  0  0  0  0  0  0  0  0  0
  -29.5364  -25.8854   19.4218 C   0  0  0  0  0  0  0  0  0  0  0  0
  -29.1627  -11.9938   19.3742 C   0  0  0  0  0  0  0  0  0  0  0  0
  -21.2884  -16.7425   21.6143 C   0  0  0  0  0  0  0  0  0  0  0  0
  -22.1624  -16.8036   24.7375 C   0  0  0  0  0  0  0  0  0  0  0  0
  -24.0820  -15.4905   27.2351 C   0  0  0  0  0  0  0  0  0  0  0  0
  -27.1538  -18.5649   21.4290 C   0  0  0  0  0  0  0  0  0  0  0  0
  -19.0685  -21.3351   21.4208 C   0  0  0  0  0  0  0  0  0  0  0  0
  -20.9925  -14.3254   22.2671 C   0  0  0  0  0  0  0  0  0  0  0  0
  -23.5853  -15.4034   23.1947 C   0  0  0  0  0  0  0  0  0  0  0  0
  -20.3650  -20.7726   21.9979 C   0  0  0  0  0  0  0  0  0  0  0  0
  -24.8098  -20.1529   19.2701 C   0  0  0  0  0  0  0  0  0  0  0  0
  -21.0876  -19.9222   20.9579 C   0  0  0  0  0  0  0  0  0  0  0  0
  -25.3019  -21.6005   19.2027 C   0  0  0  0  0  0  0  0  0  0  0  0
  -25.0063  -19.5512   20.6604 C   0  0  0  0  0  0  0  0  0  0  0  0
  -26.8624  -21.1025   21.1272 C   0  0  0  0  0  0  0  0  0  0  0  0
  -20.2324  -18.7210   20.5368 C   0  0  1  0  0  0  0  0  0  0  0  0
  -21.1379  -15.7664   22.7466 C   0  0  1  0  0  0  0  0  0  0  0  0
  -26.7448  -21.7303   19.7287 C   0  0  2  0  0  0  0  0  0  0  0  0
  -29.9086  -11.5147   18.1460 C   0  0  0  0  0  0  0  0  0  0  0  0
  -24.6067  -15.7742   29.6727 C   0  0  0  0  0  0  0  0  0  0  0  0
  -29.3854  -11.1174   21.8155 C   0  0  0  0  0  0  0  0  0  0  0  0
  -31.3993  -11.4853   20.4221 C   0  0  0  0  0  0  0  0  0  0  0  0
  -23.8638  -19.2507   24.0841 C   0  0  0  0  0  0  0  0  0  0  0  0
  -25.0642  -18.9092   26.2545 C   0  0  0  0  0  0  0  0  0  0  0  0
  -22.6173  -19.3943   26.2474 C   0  0  0  0  0  0  0  0  0  0  0  0
  -23.1256  -12.7644   27.8772 C   0  0  0  0  0  0  0  0  0  0  0  0
  -30.3964  -14.5530   20.2157 C   0  0  0  0  0  0  0  0  0  0  0  0
  -26.9843  -12.8610   20.4046 C   0  0  0  0  0  0  0  0  0  1  0  0
  -30.1000  -13.4704   21.2648 C   0  0  0  0  0  0  0  0  0  0  0  0
  -23.4333  -17.1258   25.4859 C   0  0  1  0  0  0  0  0  0  0  0  0
  -23.7378  -15.0595   28.6494 C   0  0  2  0  0  0  0  0  0  0  0  0
  -29.9732  -12.0202   20.7000 C   0  0  0  0  0  0  0  0  0  0  0  0
  -23.7437  -18.6492   25.4985 C   0  0  0  0  0  0  0  0  0  0  0  0
  -26.3308  -24.1543   19.9130 N   0  0  0  0  0  0  0  0  0  0  0  0
  -27.2229  -23.1701   19.7093 N   0  0  0  0  0  0  0  0  0  0  0  0
  -22.2911  -15.9548   23.6290 N   0  0  0  0  0  0  0  0  0  0  0  0
  -26.3974  -19.7071   21.0912 N   0  0  0  0  0  0  0  0  0  0  0  0
  -29.5162  -22.7578   19.2831 N   0  0  0  0  0  0  0  0  0  0  0  0
  -29.2951  -27.2620   19.5274 N   0  0  0  0  0  0  0  0  0  0  0  0
  -28.4730  -18.8337   21.7923 N   0  0  0  0  0  0  0  0  0  0  0  0
  -20.2815  -17.6865   21.5476 N   0  0  0  0  0  0  0  0  0  0  0  0
  -23.2872  -16.5348   26.8117 N   0  0  0  0  0  0  0  0  0  0  0  0
  -23.9379  -13.5911   28.8066 N   0  3  0  0  0  0  0  0  0  0  0  0
  -30.6995  -25.4828   19.1797 O   0  0  0  0  0  0  0  0  0  0  0  0
  -22.2480  -16.6472   20.8580 O   0  0  0  0  0  0  0  0  0  0  0  0
  -21.0938  -17.2816   25.1265 O   0  0  0  0  0  0  0  0  0  0  0  0
  -24.9698  -14.9569   26.5736 O   0  0  0  0  0  0  0  0  0  0  0  0
  -26.6750  -17.4293   21.3720 O   0  0  0  0  0  0  0  0  0  0  0  0
  -24.7159  -30.2876   20.4823 O   0  0  0  0  0  0  0  0  0  0  0  0
  -25.8560  -11.9978   20.5010 O   0  0  0  0  0  0  0  0  0  1  0  0
  -21.1628  -30.9302   24.6497 F   0  0  0  0  0  0  0  0  0  0  0  0
  -25.1833  -32.1511   22.4701 F   0  0  0  0  0  0  0  0  0  0  0  0
  1  2  1  0  0  0  0
  1  6  2  0  0  0  0
  2  7  2  0  0  0  0
  3  9  2  0  0  0  0
  3 10  1  0  0  0  0
  4 11  2  0  0  0  0
  4 19  1  0  0  0  0
  5 12  1  0  0  0  0
  5 19  2  0  0  0  0
  6 21  1  0  0  0  0
  7 23  1  0  0  0  0
  8 13  2  0  0  0  0
  8 22  1  0  0  0  0
  9 25  1  0  0  0  0
 10 26  2  0  0  0  0
 11 27  1  0  0  0  0
 12 27  2  0  0  0  0
 13 28  1  0  0  0  0
 14 15  2  0  0  0  0
 14 29  1  0  0  0  0
 15 30  1  0  0  0  0
 16 24  1  0  0  0  0
 16 28  2  0  0  0  0
 17 25  2  0  0  0  0
 17 26  1  0  0  0  0
 18 30  2  0  0  0  0
 18 31  1  0  0  0  0
 19 32  1  0  0  0  0
 20 32  1  0  0  0  0
 20 33  2  0  0  0  0
 20 35  1  0  0  0  0
 21 23  2  0  0  0  0
 21 41  1  0  0  0  0
 22 24  2  0  0  0  0
 22 42  1  0  0  0  0
 23 50  1  0  0  0  0
 24 43  1  0  0  0  0
 25 61  1  0  0  0  0
 26 74  1  0  0  0  0
 27 83  1  0  0  0  0
 28 84  1  0  0  0  0
 29 31  2  0  0  0  0
 29 83  1  0  0  0  0
 30 85  1  0  0  0  0
 31 86  1  0  0  0  0
 32 68  2  0  0  0  0
 33 69  1  0  0  0  0
 33 72  1  0  0  0  0
 34 36  2  0  0  0  0
 34 62  1  0  0  0  0
 35 73  1  0  0  0  0
 35 78  2  0  0  0  0
 36 53  1  0  0  0  0
 36 66  1  0  0  0  0
 37 51  1  0  0  0  0
 37 75  1  0  0  0  0
 37 79  2  0  0  0  0
 38 64  1  0  0  0  0
 38 70  1  0  0  0  0
 38 80  2  0  0  0  0
 39 65  1  0  0  0  0
 39 76  1  0  0  0  0
 39 81  2  0  0  0  0
 40 71  1  0  0  0  0
 40 74  1  0  0  0  0
 40 82  2  0  0  0  0
 41 44  1  0  0  0  0
 42 51  1  0  0  0  0
 43 70  1  0  0  0  0
 44 46  1  0  0  0  0
 45 47  1  0  0  0  0
 45 48  1  0  0  0  0
 46 50  1  0  0  0  0
 47 52  1  0  0  0  0
 48 71  1  0  0  0  0
 49 52  1  0  0  0  0
 49 71  1  0  0  0  0
 50 75  1  0  0  0  0
 51 70  1  0  0  0  0
 52 69  1  0  0  0  0
 54 65  1  0  0  0  0
 55 66  1  0  0  0  0
 56 66  1  0  0  0  0
 57 67  1  0  0  0  0
 58 67  1  0  0  0  0
 59 67  1  0  0  0  0
 60 77  1  0  0  0  0
 61 63  1  0  0  0  0
 62 84  1  0  0  0  0
 63 66  1  0  0  0  0
 64 67  1  0  0  0  0
 64 76  1  0  0  0  0
 65 77  1  0  0  0  0
 68 69  1  0  0  0  0
M  CHG  1  77   1
M  ISO  4  40 100  62 101  74 100  84 101
M  END
> <Batch ID>
0141

> <Smiles>
CNC(C)C(=O)NC(C(=O)N1Cc2cc([101O:1][101CH2:1]C=C(C)C(C)(C)CCc3cccc([100NH:0][100C:0](=O)N4CCCC(n5nc(-c6ccc(Oc7ccc(F)cc7F)cc6)c(C(N)=O)c5N)C4)c3)ccc2CC1C(=O)NC1CCCc2ccccc21)C(C)(C)C

> <Shape>
0.221

> <Color>
0.060

> <Negative vol penalty>
0.000

$$$$

  -OEChem-04052302543D

 86 94  0     1  0  0  0  0  0999 V2000
  -19.5735  -34.6644   22.2224 C   0  0  0  0  0  0  0  0  0  0  0  0
  -20.9202  -34.3317   22.1177 C   0  0  0  0  0  0  0  0  0  0  0  0
  -23.9518  -12.3943   19.2168 C   0  0  0  0  0  0  0  0  0  0  0  0
  -25.3130  -11.8515   21.1377 C   0  0  0  0  0  0  0  0  0  0  0  0
  -18.6659  -33.7390   22.7362 C   0  0  0  0  0  0  0  0  0  0  0  0
  -21.3604  -33.0738   22.5280 C   0  0  0  0  0  0  0  0  0  0  0  0
  -25.8529  -29.7485   20.0248 C   0  0  0  0  0  0  0  0  0  0  0  0
  -28.7117  -25.0471   16.2142 C   0  0  0  0  0  0  0  0  0  0  0  0
  -23.9911  -11.0602   18.8119 C   0  0  0  0  0  0  0  0  0  0  0  0
  -25.3522  -10.5172   20.7328 C   0  0  0  0  0  0  0  0  0  0  0  0
  -27.1913  -29.5683   20.3713 C   0  0  0  0  0  0  0  0  0  0  0  0
  -29.7136  -25.3924   17.1211 C   0  0  0  0  0  0  0  0  0  0  0  0
  -25.5104   -6.9004   20.3992 C   0  0  0  0  0  0  0  0  0  0  0  0
  -25.3008   -5.9209   21.3699 C   0  0  0  0  0  0  0  0  0  0  0  0
  -29.2733  -23.3753   18.3758 C   0  0  0  0  0  0  0  0  0  0  0  0
  -26.6062  -27.5511   21.5578 C   0  0  0  0  0  0  0  0  0  0  0  0
  -23.1113   -6.8368   21.8215 C   0  0  0  0  0  0  0  0  0  0  0  0
  -24.6128  -12.7900   20.3797 C   0  0  0  0  0  0  0  0  0  0  0  0
  -28.2713  -23.0299   17.4689 C   0  0  0  0  0  0  0  0  0  0  0  0
  -23.6229  -14.7731   21.6427 C   0  0  0  0  0  0  0  0  0  0  0  0
  -19.0936  -32.4657   23.1440 C   0  0  0  0  0  0  0  0  0  0  0  0
  -24.8779  -28.8357   20.4521 C   0  0  0  0  0  0  0  0  0  0  0  0
  -20.4580  -32.1310   23.0490 C   0  0  0  0  0  0  0  0  0  0  0  0
  -25.2566  -27.7206   21.2132 C   0  0  0  0  0  0  0  0  0  0  0  0
  -27.9905  -23.8658   16.3881 C   0  0  0  0  0  0  0  0  0  0  0  0
  -24.6913  -10.1216   19.5699 C   0  0  0  0  0  0  0  0  0  0  0  0
  -29.9945  -24.5566   18.2018 C   0  0  0  0  0  0  0  0  0  0  0  0
  -27.5677  -28.4710   21.1404 C   0  0  0  0  0  0  0  0  0  0  0  0
  -24.5204   -7.8482   20.1397 C   0  0  0  0  0  0  0  0  0  0  0  0
  -24.1013   -5.8891   22.0810 C   0  0  0  0  0  0  0  0  0  0  0  0
  -23.3209   -7.8164   20.8509 C   0  0  0  0  0  0  0  0  0  0  0  0
  -24.5731  -14.1682   20.7982 C   0  0  0  0  0  0  0  0  0  0  0  0
  -24.0252  -16.0835   21.7290 C   0  0  0  0  0  0  0  0  0  0  0  0
  -27.5361  -21.7894   17.6774 C   0  0  0  0  0  0  0  0  0  0  0  0
  -28.0828  -20.5578   17.7325 C   0  0  0  0  0  0  0  0  0  0  0  0
  -22.4790  -14.2016   22.2912 C   0  0  0  0  0  0  0  0  0  0  0  0
  -27.2023  -19.3945   17.9611 C   0  0  0  0  0  0  0  0  0  0  0  0
  -22.2906  -29.0136   22.2899 C   0  0  0  0  0  0  0  0  0  0  0  0
  -21.8705  -25.9456   21.3239 C   0  0  0  0  0  0  0  0  0  0  0  0
  -23.2627  -23.0679   20.1291 C   0  0  0  0  0  0  0  0  0  0  0  0
  -18.0833  -31.5160   23.7371 C   0  0  0  0  0  0  0  0  0  0  0  0
  -23.4424  -29.0298   20.0473 C   0  0  0  0  0  0  0  0  0  0  0  0
  -24.2513  -26.7007   21.6799 C   0  0  0  0  0  0  0  0  0  0  0  0
  -18.5700  -30.0705   23.8006 C   0  0  0  0  0  0  0  0  0  0  0  0
  -27.9128  -18.8395   21.5135 C   0  0  0  0  0  0  0  0  0  0  0  0
  -19.9876  -30.0087   24.3606 C   0  0  0  0  0  0  0  0  0  0  0  0
  -27.0749  -17.5939   21.7894 C   0  0  0  0  0  0  0  0  0  0  0  0
  -28.4858  -18.8408   20.0970 C   0  0  0  0  0  0  0  0  0  0  0  0
  -26.6142  -17.4191   19.3120 C   0  0  0  0  0  0  0  0  0  0  0  0
  -20.9700  -30.7677   23.4604 C   0  0  1  0  0  0  0  0  0  0  0  0
  -22.4596  -28.3156   20.9700 C   0  0  1  0  0  0  0  0  0  0  0  0
  -25.9891  -17.4195   20.7158 C   0  0  1  0  0  0  0  0  0  0  0  0
  -26.9238  -23.5276   15.3967 C   0  0  0  0  0  0  0  0  0  0  0  0
  -23.3597  -20.7318   19.2179 C   0  0  0  0  0  0  0  0  0  0  0  0
  -21.6749  -25.1766   24.2702 C   0  0  0  0  0  0  0  0  0  0  0  0
  -22.0429  -22.7924   23.6004 C   0  0  0  0  0  0  0  0  0  0  0  0
  -20.0331  -24.0208   22.7792 C   0  0  0  0  0  0  0  0  0  0  0  0
  -32.9474  -25.5831   21.1286 C   0  0  0  0  0  0  0  0  0  0  0  0
  -31.2808  -24.8880   22.8548 C   0  0  0  0  0  0  0  0  0  0  0  0
  -22.9778  -24.0194   17.3412 C   0  0  0  0  0  0  0  0  0  0  0  0
  -30.8079  -26.8606   21.3204 C   0  0  0  0  0  0  0  0  0  0  0  0
  -29.3212  -26.9498   21.6571 C   0  0  0  0  0  0  0  0  0  1  0  0
  -30.8116  -24.4503   20.4327 C   0  0  0  0  0  0  0  0  0  0  0  0
  -22.3076  -24.5943   21.8357 C   0  0  1  0  0  0  0  0  0  0  0  0
  -22.8557  -22.1486   18.9917 C   0  0  2  0  0  0  0  0  0  0  0  0
  -21.5335  -24.1661   23.1144 C   0  0  0  0  0  0  0  0  0  0  0  0
  -31.4396  -25.4474   21.4301 C   0  0  0  0  0  0  0  0  0  0  0  0
  -25.5084  -15.0241   20.3779 N   0  0  0  0  0  0  0  0  0  0  0  0
  -25.1479  -16.1802   20.9606 N   0  0  0  0  0  0  0  0  0  0  0  0
  -27.4367  -18.6139   19.0918 N   0  0  0  0  0  0  0  0  0  0  0  0
  -22.8592  -26.9379   21.2637 N   0  0  0  0  0  0  0  0  0  0  0  0
  -23.5246  -17.1511   22.3864 N   0  0  0  0  0  0  0  0  0  0  0  0
  -22.2109  -12.8399   22.0954 N   0  0  0  0  0  0  0  0  0  0  0  0
  -21.3004  -29.9774   22.2938 N   0  0  0  0  0  0  0  0  0  0  0  0
  -22.1695  -23.6695   20.7158 N   0  0  0  0  0  0  0  0  0  0  0  0
  -23.4111  -22.6446   17.7008 N   0  3  0  0  0  0  0  0  0  0  0  0
  -21.7079  -14.8821   23.0094 O   0  0  0  0  0  0  0  0  0  0  0  0
  -26.3146  -19.1818   17.1332 O   0  0  0  0  0  0  0  0  0  0  0  0
  -23.0046  -28.6999   23.2351 O   0  0  0  0  0  0  0  0  0  0  0  0
  -20.6967  -26.1125   20.9832 O   0  0  0  0  0  0  0  0  0  0  0  0
  -24.4331  -23.2328   20.4660 O   0  0  0  0  0  0  0  0  0  0  0  0
  -24.7296   -8.8196   19.1752 O   0  0  0  0  0  0  0  0  0  0  0  0
  -30.9777  -24.8974   19.0935 O   0  0  0  0  0  0  0  0  0  0  0  0
  -28.8733  -28.2931   21.4806 O   0  0  0  0  0  0  0  0  0  1  0  0
  -23.8996   -4.9474   23.0121 F   0  0  0  0  0  0  0  0  0  0  0  0
  -22.3656   -8.7236   20.6052 F   0  0  0  0  0  0  0  0  0  0  0  0
  1  2  1  0  0  0  0
  1  5  2  0  0  0  0
  2  6  2  0  0  0  0
  3  9  2  0  0  0  0
  3 18  1  0  0  0  0
  4 10  1  0  0  0  0
  4 18  2  0  0  0  0
  5 21  1  0  0  0  0
  6 23  1  0  0  0  0
  7 11  2  0  0  0  0
  7 22  1  0  0  0  0
  8 12  2  0  0  0  0
  8 25  1  0  0  0  0
  9 26  1  0  0  0  0
 10 26  2  0  0  0  0
 11 28  1  0  0  0  0
 12 27  1  0  0  0  0
 13 14  2  0  0  0  0
 13 29  1  0  0  0  0
 14 30  1  0  0  0  0
 15 19  1  0  0  0  0
 15 27  2  0  0  0  0
 16 24  1  0  0  0  0
 16 28  2  0  0  0  0
 17 30  2  0  0  0  0
 17 31  1  0  0  0  0
 18 32  1  0  0  0  0
 19 25  2  0  0  0  0
 19 34  1  0  0  0  0
 20 32  1  0  0  0  0
 20 33  2  0  0  0  0
 20 36  1  0  0  0  0
 21 23  2  0  0  0  0
 21 41  1  0  0  0  0
 22 24  2  0  0  0  0
 22 42  1  0  0  0  0
 23 50  1  0  0  0  0
 24 43  1  0  0  0  0
 25 53  1  0  0  0  0
 26 82  1  0  0  0  0
 27 83  1  0  0  0  0
 28 84  1  0  0  0  0
 29 31  2  0  0  0  0
 29 82  1  0  0  0  0
 30 85  1  0  0  0  0
 31 86  1  0  0  0  0
 32 68  2  0  0  0  0
 33 69  1  0  0  0  0
 33 72  1  0  0  0  0
 34 35  2  0  0  0  0
 35 37  1  0  0  0  0
 36 73  1  0  0  0  0
 36 77  2  0  0  0  0
 37 70  1  0  0  0  0
 37 78  2  0  0  0  0
 38 51  1  0  0  0  0
 38 74  1  0  0  0  0
 38 79  2  0  0  0  0
 39 64  1  0  0  0  0
 39 71  1  0  0  0  0
 39 80  2  0  0  0  0
 40 65  1  0  0  0  0
 40 75  1  0  0  0  0
 40 81  2  0  0  0  0
 41 44  1  0  0  0  0
 42 51  1  0  0  0  0
 43 71  1  0  0  0  0
 44 46  1  0  0  0  0
 45 47  1  0  0  0  0
 45 48  1  0  0  0  0
 46 50  1  0  0  0  0
 47 52  1  0  0  0  0
 48 70  1  0  0  0  0
 49 52  1  0  0  0  0
 49 70  1  0  0  0  0
 50 74  1  0  0  0  0
 51 71  1  0  0  0  0
 52 69  1  0  0  0  0
 54 65  1  0  0  0  0
 55 66  1  0  0  0  0
 56 66  1  0  0  0  0
 57 66  1  0  0  0  0
 58 67  1  0  0  0  0
 59 67  1  0  0  0  0
 60 76  1  0  0  0  0
 61 62  1  0  0  0  0
 61 67  1  0  0  0  0
 62 84  1  0  0  0  0
 63 67  1  0  0  0  0
 63 83  1  0  0  0  0
 64 66  1  0  0  0  0
 64 75  1  0  0  0  0
 65 76  1  0  0  0  0
 68 69  1  0  0  0  0
M  CHG  1  76   1
M  ISO  4  35 100  37 100  62 101  84 101
M  END
> <Batch ID>
0141

> <Smiles>
CNC(C)C(=O)NC(C(=O)N1Cc2cc([101O:1][101CH2:1]CC(C)(C)COc3ccc(C)c(C=[100CH:0][100C:0](=O)N4CCCC(n5nc(-c6ccc(Oc7ccc(F)cc7F)cc6)c(C(N)=O)c5N)C4)c3)ccc2CC1C(=O)NC1CCCc2ccccc21)C(C)(C)C

> <Shape>
0.210

> <Color>
0.095

> <Negative vol penalty>
0.000

$$$$

  -OEChem-04052302543D

 85 93  0     1  0  0  0  0  0999 V2000
  -28.9537  -13.3379   17.6254 C   0  0  0  0  0  0  0  0  0  0  0  0
  -27.6746  -13.5656   17.1278 C   0  0  0  0  0  0  0  0  0  0  0  0
  -28.6735  -25.8824   18.8976 C   0  0  0  0  0  0  0  0  0  0  0  0
  -26.5670  -24.7842   18.4578 C   0  0  0  0  0  0  0  0  0  0  0  0
  -29.1573  -13.2355   19.0009 C   0  0  0  0  0  0  0  0  0  0  0  0
  -26.5982  -13.6898   18.0054 C   0  0  0  0  0  0  0  0  0  0  0  0
  -22.5748  -19.6640   18.1169 C   0  0  0  0  0  0  0  0  0  0  0  0
  -29.3084  -24.6418   18.9547 C   0  0  0  0  0  0  0  0  0  0  0  0
  -27.2019  -23.5435   18.5149 C   0  0  0  0  0  0  0  0  0  0  0  0
  -21.6297  -20.6881   18.0523 C   0  0  0  0  0  0  0  0  0  0  0  0
  -28.2004  -20.0703   18.9016 C   0  0  0  0  0  0  0  0  0  0  0  0
  -27.5755  -19.0549   19.6255 C   0  0  0  0  0  0  0  0  0  0  0  0
  -20.4099  -19.6926   19.8878 C   0  0  0  0  0  0  0  0  0  0  0  0
  -17.8853  -27.2652   23.2449 C   0  0  0  0  0  0  0  0  0  0  0  0
  -19.7142  -28.7968   23.6274 C   0  0  0  0  0  0  0  0  0  0  0  0
  -19.5788  -27.5720   21.5493 C   0  0  0  0  0  0  0  0  0  0  0  0
  -27.6938  -20.4071   21.6242 C   0  0  0  0  0  0  0  0  0  0  0  0
  -27.3028  -25.9537   18.6492 C   0  0  0  0  0  0  0  0  0  0  0  0
  -26.4615  -28.0443   17.4537 C   0  0  0  0  0  0  0  0  0  0  0  0
  -28.0843  -13.3681   19.8963 C   0  0  0  0  0  0  0  0  0  0  0  0
  -22.4492  -18.6575   19.0784 C   0  0  0  0  0  0  0  0  0  0  0  0
  -26.7874  -13.5877   19.3941 C   0  0  0  0  0  0  0  0  0  0  0  0
  -21.3602  -18.6711   19.9654 C   0  0  0  0  0  0  0  0  0  0  0  0
  -18.5401  -28.1840   24.0651 C   0  0  0  0  0  0  0  0  0  0  0  0
  -18.4047  -26.9592   21.9870 C   0  0  0  0  0  0  0  0  0  0  0  0
  -20.2336  -28.4908   22.3695 C   0  0  0  0  0  0  0  0  0  0  0  0
  -28.5726  -23.4723   18.7633 C   0  0  0  0  0  0  0  0  0  0  0  0
  -20.5498  -20.7022   18.9354 C   0  0  0  0  0  0  0  0  0  0  0  0
  -28.5722  -21.2541   19.5390 C   0  0  0  0  0  0  0  0  0  0  0  0
  -27.3222  -19.2233   20.9868 C   0  0  0  0  0  0  0  0  0  0  0  0
  -28.3189  -21.4224   20.9003 C   0  0  0  0  0  0  0  0  0  0  0  0
  -26.6463  -27.2349   18.5906 C   0  0  0  0  0  0  0  0  0  0  0  0
  -25.7884  -29.1460   17.9222 C   0  0  0  0  0  0  0  0  0  0  0  0
  -26.8624  -27.8202   16.0955 C   0  0  0  0  0  0  0  0  0  0  0  0
  -18.1843  -24.5637   21.3336 C   0  0  0  0  0  0  0  0  0  0  0  0
  -19.3822  -24.0792   20.5673 C   0  0  0  0  0  0  0  0  0  0  0  0
  -23.8703  -15.5241   20.5746 C   0  0  0  0  0  0  0  0  0  0  0  0
  -22.8565  -17.2435   22.9040 C   0  0  0  0  0  0  0  0  0  0  0  0
  -21.9995  -19.6155   25.2011 C   0  0  0  0  0  0  0  0  0  0  0  0
  -22.1995  -30.0470   22.6140 C   0  0  0  0  0  0  0  0  0  0  0  0
  -28.3460  -13.2027   21.3724 C   0  0  0  0  0  0  0  0  0  0  0  0
  -23.4099  -17.5014   19.1444 C   0  0  0  0  0  0  0  0  0  0  0  0
  -21.2469  -17.5488   20.9607 C   0  0  0  0  0  0  0  0  0  0  0  0
  -27.2118  -13.7197   22.2537 C   0  0  0  0  0  0  0  0  0  0  0  0
  -25.2191  -31.7842   21.8782 C   0  0  0  0  0  0  0  0  0  0  0  0
  -25.8647  -13.2297   21.7321 C   0  0  0  0  0  0  0  0  0  0  0  0
  -25.9081  -30.8914   20.8437 C   0  0  0  0  0  0  0  0  0  0  0  0
  -24.4866  -30.9631   22.9380 C   0  0  0  0  0  0  0  0  0  0  0  0
  -24.2336  -29.0749   21.3759 C   0  0  0  0  0  0  0  0  0  0  0  0
  -25.5983  -13.7528   20.3155 C   0  0  1  0  0  0  0  0  0  0  0  0
  -23.6656  -17.0106   20.5807 C   0  0  1  0  0  0  0  0  0  0  0  0
  -24.9305  -29.8576   20.2511 C   0  0  2  0  0  0  0  0  0  0  0  0
  -17.9848  -28.5109   25.4101 C   0  0  0  0  0  0  0  0  0  0  0  0
  -21.8799  -20.0076   27.6768 C   0  0  0  0  0  0  0  0  0  0  0  0
  -20.3418  -15.5234   23.0511 C   0  0  0  0  0  0  0  0  0  0  0  0
  -19.7586  -16.6844   25.1912 C   0  0  0  0  0  0  0  0  0  0  0  0
  -21.8517  -15.3363   25.0359 C   0  0  0  0  0  0  0  0  0  0  0  0
  -23.9199  -21.8627   25.0552 C   0  0  0  0  0  0  0  0  0  0  0  0
  -17.6977  -25.9676   21.1018 C   0  0  0  0  0  0  0  0  0  0  0  0
  -19.2630  -24.0776   19.0606 C   0  0  0  0  0  0  0  0  0  0  0  0
  -20.0968  -22.9792   18.4183 C   0  0  0  0  0  0  0  0  0  1  0  0
  -21.7181  -17.5602   23.8406 C   0  0  1  0  0  0  0  0  0  0  0  0
  -22.7289  -20.1450   26.4226 C   0  0  2  0  0  0  0  0  0  0  0  0
  -20.9218  -16.2910   24.2558 C   0  0  0  0  0  0  0  0  0  0  0  0
  -26.1322  -27.7765   19.6981 N   0  0  0  0  0  0  0  0  0  0  0  0
  -17.6244  -23.7339   22.1484 N   0  0  0  0  0  0  0  0  0  0  0  0
  -25.6178  -28.9379   19.2593 N   0  0  0  0  0  0  0  0  0  0  0  0
  -22.5687  -17.2502   21.5337 N   0  0  0  0  0  0  0  0  0  0  0  0
  -23.5752  -30.0085   22.3031 N   0  0  0  0  0  0  0  0  0  0  0  0
  -25.3317  -30.2629   17.3168 N   0  0  0  0  0  0  0  0  0  0  0  0
  -27.5451  -26.6356   15.7871 N   0  0  0  0  0  0  0  0  0  0  0  0
  -21.4262  -29.1134   21.9248 N   0  0  0  0  0  0  0  0  0  0  0  0
  -25.1791  -15.1373   20.3584 N   0  0  0  0  0  0  0  0  0  0  0  0
  -22.3018  -18.2920   24.9596 N   0  0  0  0  0  0  0  0  0  0  0  0
  -23.0677  -21.5847   26.2399 N   0  3  0  0  0  0  0  0  0  0  0  0
  -26.6367  -28.6534   15.1853 O   0  0  0  0  0  0  0  0  0  0  0  0
  -20.3594  -23.7339   21.2143 O   0  0  0  0  0  0  0  0  0  0  0  0
  -22.9121  -14.7816   20.7541 O   0  0  0  0  0  0  0  0  0  0  0  0
  -23.9703  -16.9912   23.3720 O   0  0  0  0  0  0  0  0  0  0  0  0
  -21.2351  -20.3058   24.5305 O   0  0  0  0  0  0  0  0  0  0  0  0
  -21.7370  -30.8673   23.4111 O   0  0  0  0  0  0  0  0  0  0  0  0
  -29.1918  -22.2615   18.8188 O   0  0  0  0  0  0  0  0  0  0  0  0
  -19.6332  -21.7074   18.8698 O   0  0  0  0  0  0  0  0  0  1  0  0
  -26.7206  -18.2488   21.6815 F   0  0  0  0  0  0  0  0  0  0  0  0
  -28.6726  -22.5579   21.5179 F   0  0  0  0  0  0  0  0  0  0  0  0
  1  2  1  0  0  0  0
  1  5  2  0  0  0  0
  2  6  2  0  0  0  0
  3  8  2  0  0  0  0
  3 18  1  0  0  0  0
  4  9  1  0  0  0  0
  4 18  2  0  0  0  0
  5 20  1  0  0  0  0
  6 22  1  0  0  0  0
  7 10  2  0  0  0  0
  7 21  1  0  0  0  0
  8 27  1  0  0  0  0
  9 27  2  0  0  0  0
 10 28  1  0  0  0  0
 11 12  2  0  0  0  0
 11 29  1  0  0  0  0
 12 30  1  0  0  0  0
 13 23  1  0  0  0  0
 13 28  2  0  0  0  0
 14 24  2  0  0  0  0
 14 25  1  0  0  0  0
 15 24  1  0  0  0  0
 15 26  2  0  0  0  0
 16 25  2  0  0  0  0
 16 26  1  0  0  0  0
 17 30  2  0  0  0  0
 17 31  1  0  0  0  0
 18 32  1  0  0  0  0
 19 32  1  0  0  0  0
 19 33  2  0  0  0  0
 19 34  1  0  0  0  0
 20 22  2  0  0  0  0
 20 41  1  0  0  0  0
 21 23  2  0  0  0  0
 21 42  1  0  0  0  0
 22 50  1  0  0  0  0
 23 43  1  0  0  0  0
 24 53  1  0  0  0  0
 25 59  1  0  0  0  0
 26 72  1  0  0  0  0
 27 82  1  0  0  0  0
 28 83  1  0  0  0  0
 29 31  2  0  0  0  0
 29 82  1  0  0  0  0
 30 84  1  0  0  0  0
 31 85  1  0  0  0  0
 32 65  2  0  0  0  0
 33 67  1  0  0  0  0
 33 70  1  0  0  0  0
 34 71  1  0  0  0  0
 34 76  2  0  0  0  0
 35 36  1  0  0  0  0
 35 59  1  0  0  0  0
 35 66  2  0  0  0  0
 36 60  1  0  0  0  0
 36 77  2  0  0  0  0
 37 51  1  0  0  0  0
 37 73  1  0  0  0  0
 37 78  2  0  0  0  0
 38 62  1  0  0  0  0
 38 68  1  0  0  0  0
 38 79  2  0  0  0  0
 39 63  1  0  0  0  0
 39 74  1  0  0  0  0
 39 80  2  0  0  0  0
 40 69  1  0  0  0  0
 40 72  1  0  0  0  0
 40 81  2  0  0  0  0
 41 44  1  0  0  0  0
 42 51  1  0  0  0  0
 43 68  1  0  0  0  0
 44 46  1  0  0  0  0
 45 47  1  0  0  0  0
 45 48  1  0  0  0  0
 46 50  1  0  0  0  0
 47 52  1  0  0  0  0
 48 69  1  0  0  0  0
 49 52  1  0  0  0  0
 49 69  1  0  0  0  0
 50 73  1  0  0  0  0
 51 68  1  0  0  0  0
 52 67  1  0  0  0  0
 54 63  1  0  0  0  0
 55 64  1  0  0  0  0
 56 64  1  0  0  0  0
 57 64  1  0  0  0  0
 58 75  1  0  0  0  0
 60 61  1  0  0  0  0
 61 83  1  0  0  0  0
 62 64  1  0  0  0  0
 62 74  1  0  0  0  0
 63 75  1  0  0  0  0
 65 67  1  0  0  0  0
M  CHG  1  75   1
M  ISO  4  40 100  61 101  72 100  83 101
M  END
> <Batch ID>
0141

> <Smiles>
CNC(C)C(=O)NC(C(=O)N1Cc2cc([101O:1][101CH2:1]CC(=O)C(=N)Cc3cc(C)cc([100NH:0][100C:0](=O)N4CCCC(n5nc(-c6ccc(Oc7ccc(F)cc7F)cc6)c(C(N)=O)c5N)C4)c3)ccc2CC1C(=O)NC1CCCc2ccccc21)C(C)(C)C

> <Shape>
0.219

> <Color>
0.089

> <Negative vol penalty>
0.000

$$$$

  -OEChem-04052302543D

 87 95  0     1  0  0  0  0  0999 V2000
  -28.3228  -24.5170   16.6061 C   0  0  0  0  0  0  0  0  0  0  0  0
  -27.1435  -24.6565   17.3308 C   0  0  0  0  0  0  0  0  0  0  0  0
  -24.3927  -26.5774   26.4738 C   0  0  0  0  0  0  0  0  0  0  0  0
  -26.7366  -15.8647   20.7259 C   0  0  0  0  0  0  0  0  0  0  0  0
  -24.8366  -15.4178   22.1498 C   0  0  0  0  0  0  0  0  0  0  0  0
  -29.5046  -25.0808   17.0848 C   0  0  0  0  0  0  0  0  0  0  0  0
  -27.1456  -25.3591   18.5352 C   0  0  0  0  0  0  0  0  0  0  0  0
  -23.2264  -28.5411   18.9349 C   0  0  0  0  0  0  0  0  0  0  0  0
  -24.8921  -25.2840   26.6264 C   0  0  0  0  0  0  0  0  0  0  0  0
  -23.1350  -26.7768   25.9045 C   0  0  0  0  0  0  0  0  0  0  0  0
  -26.7926  -14.5154   20.3771 C   0  0  0  0  0  0  0  0  0  0  0  0
  -24.8926  -14.0684   21.8009 C   0  0  0  0  0  0  0  0  0  0  0  0
  -21.9898  -27.9896   19.2671 C   0  0  0  0  0  0  0  0  0  0  0  0
  -27.9229  -11.6359   21.7392 C   0  0  0  0  0  0  0  0  0  0  0  0
  -29.1743  -11.0199   21.7346 C   0  0  0  0  0  0  0  0  0  0  0  0
  -22.3054  -28.6770   21.5578 C   0  0  0  0  0  0  0  0  0  0  0  0
  -22.8760  -24.3893   25.6403 C   0  0  0  0  0  0  0  0  0  0  0  0
  -28.9137  -10.5080   19.3879 C   0  0  0  0  0  0  0  0  0  0  0  0
  -25.7586  -16.3159   21.6123 C   0  0  0  0  0  0  0  0  0  0  0  0
  -24.9748  -18.7264   21.3245 C   0  0  0  0  0  0  0  0  0  0  0  0
  -29.5192  -25.7990   18.2909 C   0  0  0  0  0  0  0  0  0  0  0  0
  -24.0180  -29.1561   19.9155 C   0  0  0  0  0  0  0  0  0  0  0  0
  -28.3290  -25.9320   19.0312 C   0  0  0  0  0  0  0  0  0  0  0  0
  -23.5505  -29.2378   21.2349 C   0  0  0  0  0  0  0  0  0  0  0  0
  -24.1337  -24.1899   26.2096 C   0  0  0  0  0  0  0  0  0  0  0  0
  -22.3767  -25.6828   25.4877 C   0  0  0  0  0  0  0  0  0  0  0  0
  -25.8706  -13.6172   20.9146 C   0  0  0  0  0  0  0  0  0  0  0  0
  -21.5304  -28.0549   20.5793 C   0  0  0  0  0  0  0  0  0  0  0  0
  -27.1668  -11.6879   20.5682 C   0  0  0  0  0  0  0  0  0  0  0  0
  -29.6698  -10.4560   20.5589 C   0  0  0  0  0  0  0  0  0  0  0  0
  -27.6622  -11.1240   19.3925 C   0  0  0  0  0  0  0  0  0  0  0  0
  -25.7006  -17.7096   21.9734 C   0  0  0  0  0  0  0  0  0  0  0  0
  -25.2499  -19.8605   22.0489 C   0  0  0  0  0  0  0  0  0  0  0  0
  -24.1277  -18.6525   20.1701 C   0  0  0  0  0  0  0  0  0  0  0  0
  -26.9009  -28.6105   21.1381 C   0  0  0  0  0  0  0  0  0  0  0  0
  -26.3468  -31.4080   22.6838 C   0  0  0  0  0  0  0  0  0  0  0  0
  -24.0751  -33.6554   23.8821 C   0  0  0  0  0  0  0  0  0  0  0  0
  -25.8700  -22.5042   26.9099 C   0  0  0  0  0  0  0  0  0  0  0  0
  -30.8307  -26.3502   18.7917 C   0  0  0  0  0  0  0  0  0  0  0  0
  -25.3376  -29.7698   19.5356 C   0  0  0  0  0  0  0  0  0  0  0  0
  -24.3531  -29.9052   22.3207 C   0  0  0  0  0  0  0  0  0  0  0  0
  -30.6712  -27.3992   19.8892 C   0  0  0  0  0  0  0  0  0  0  0  0
  -28.6809  -20.7020   25.6740 C   0  0  0  0  0  0  0  0  0  0  0  0
  -29.6752  -26.9232   20.9419 C   0  0  0  0  0  0  0  0  0  0  0  0
  -28.0964  -19.8465   24.5477 C   0  0  0  0  0  0  0  0  0  0  0  0
  -27.7106  -20.8361   26.8463 C   0  0  0  0  0  0  0  0  0  0  0  0
  -25.7819  -20.4515   25.3626 C   0  0  0  0  0  0  0  0  0  0  0  0
  -28.2859  -26.7081   20.3296 C   0  0  1  0  0  0  0  0  0  0  0  0
  -26.2904  -29.9176   20.7179 C   0  0  1  0  0  0  0  0  0  0  0  0
  -26.6972  -20.3414   24.1322 C   0  0  2  0  0  0  0  0  0  0  0  0
  -18.0003  -26.0651   26.1810 C   0  0  0  0  0  0  0  0  0  0  0  0
  -23.9225  -35.8256   25.1328 C   0  0  0  0  0  0  0  0  0  0  0  0
  -26.9719  -29.9479   25.2890 C   0  0  0  0  0  0  0  0  0  0  0  0
  -25.9012  -31.8427   26.5266 C   0  0  0  0  0  0  0  0  0  0  0  0
  -27.9271  -32.2537   25.1304 C   0  0  0  0  0  0  0  0  0  0  0  0
  -19.7883  -24.6737   21.3948 C   0  0  0  0  0  0  0  0  0  0  0  0
  -17.8809  -26.2220   21.6013 C   0  0  0  0  0  0  0  0  0  0  0  0
  -17.9336  -24.1337   23.8245 C   0  0  0  0  0  0  0  0  0  0  0  0
  -22.7373  -35.0031   21.6121 C   0  0  0  0  0  0  0  0  0  0  0  0
  -18.2941  -26.4160   24.7302 C   0  0  0  0  0  0  0  0  0  0  0  0
  -20.2779  -24.8039   24.4638 C   0  0  0  0  0  0  0  0  0  0  0  0
  -20.1775  -27.0163   22.2367 C   0  0  0  0  0  0  0  0  0  1  0  0
  -25.7134  -31.7961   23.9980 C   0  0  1  0  0  0  0  0  0  0  0  0
  -23.9947  -35.1667   23.7641 C   0  0  2  0  0  0  0  0  0  0  0  0
  -26.6139  -31.4457   25.2162 C   0  0  0  0  0  0  0  0  0  0  0  0
  -19.2096  -25.7987   22.2926 C   0  0  0  0  0  0  0  0  0  0  0  0
  -18.9510  -25.3183   23.8175 C   0  0  1  0  0  0  0  0  0  0  0  0
  -26.3854  -18.1581   23.0289 N   0  0  0  0  0  0  0  0  0  0  0  0
  -26.0912  -19.4693   23.0486 N   0  0  0  0  0  0  0  0  0  0  0  0
  -25.6396  -30.4847   21.9007 N   0  0  0  0  0  0  0  0  0  0  0  0
  -26.4078  -21.3134   26.3776 N   0  0  0  0  0  0  0  0  0  0  0  0
  -24.8518  -21.1441   21.9219 N   0  0  0  0  0  0  0  0  0  0  0  0
  -23.9543  -17.4090   19.5472 N   0  0  0  0  0  0  0  0  0  0  0  0
  -24.6415  -22.8762   26.3647 N   0  0  0  0  0  0  0  0  0  0  0  0
  -21.1294  -25.8810   24.9227 N   0  0  0  0  0  0  0  0  0  0  0  0
  -27.6154  -27.9765   20.1396 N   0  0  0  0  0  0  0  0  0  0  0  0
  -25.3809  -33.2123   23.8885 N   0  0  0  0  0  0  0  0  0  0  0  0
  -22.7856  -35.5620   22.9877 N   0  3  0  0  0  0  0  0  0  0  0  0
  -23.5549  -19.6623   19.6951 O   0  0  0  0  0  0  0  0  0  0  0  0
  -26.7373  -28.2079   22.2838 O   0  0  0  0  0  0  0  0  0  0  0  0
  -27.4256  -31.9113   22.3605 O   0  0  0  0  0  0  0  0  0  0  0  0
  -23.0793  -32.9397   23.9644 O   0  0  0  0  0  0  0  0  0  0  0  0
  -26.4688  -23.1612   27.7653 O   0  0  0  0  0  0  0  0  0  0  0  0
  -25.9249  -12.3005   20.5742 O   0  0  0  0  0  0  0  0  0  0  0  0
  -20.3168  -27.5136   20.9083 O   0  0  0  0  0  0  0  0  0  1  0  0
  -30.8722   -9.8658   20.5542 F   0  0  0  0  0  0  0  0  0  0  0  0
  -26.9409  -11.1719   18.2641 F   0  0  0  0  0  0  0  0  0  0  0  0
  1  2  1  0  0  0  0
  1  6  2  0  0  0  0
  2  7  2  0  0  0  0
  3  9  1  0  0  0  0
  3 10  2  0  0  0  0
  4 11  2  0  0  0  0
  4 19  1  0  0  0  0
  5 12  1  0  0  0  0
  5 19  2  0  0  0  0
  6 21  1  0  0  0  0
  7 23  1  0  0  0  0
  8 13  2  0  0  0  0
  8 22  1  0  0  0  0
  9 25  2  0  0  0  0
 10 26  1  0  0  0  0
 11 27  1  0  0  0  0
 12 27  2  0  0  0  0
 13 28  1  0  0  0  0
 14 15  2  0  0  0  0
 14 29  1  0  0  0  0
 15 30  1  0  0  0  0
 16 24  1  0  0  0  0
 16 28  2  0  0  0  0
 17 25  1  0  0  0  0
 17 26  2  0  0  0  0
 18 30  2  0  0  0  0
 18 31  1  0  0  0  0
 19 32  1  0  0  0  0
 20 32  1  0  0  0  0
 20 33  2  0  0  0  0
 20 34  1  0  0  0  0
 21 23  2  0  0  0  0
 21 39  1  0  0  0  0
 22 24  2  0  0  0  0
 22 40  1  0  0  0  0
 23 48  1  0  0  0  0
 24 41  1  0  0  0  0
 25 74  1  0  0  0  0
 26 75  1  0  0  0  0
 27 84  1  0  0  0  0
 28 85  1  0  0  0  0
 29 31  2  0  0  0  0
 29 84  1  0  0  0  0
 30 86  1  0  0  0  0
 31 87  1  0  0  0  0
 32 68  2  0  0  0  0
 33 69  1  0  0  0  0
 33 72  1  0  0  0  0
 34 73  1  0  0  0  0
 34 79  2  0  0  0  0
 35 49  1  0  0  0  0
 35 76  1  0  0  0  0
 35 80  2  0  0  0  0
 36 63  1  0  0  0  0
 36 70  1  0  0  0  0
 36 81  2  0  0  0  0
 37 64  1  0  0  0  0
 37 77  1  0  0  0  0
 37 82  2  0  0  0  0
 38 71  1  0  0  0  0
 38 74  1  0  0  0  0
 38 83  2  0  0  0  0
 39 42  1  0  0  0  0
 40 49  1  0  0  0  0
 41 70  1  0  0  0  0
 42 44  1  0  0  0  0
 43 45  1  0  0  0  0
 43 46  1  0  0  0  0
 44 48  1  0  0  0  0
 45 50  1  0  0  0  0
 46 71  1  0  0  0  0
 47 50  1  0  0  0  0
 47 71  1  0  0  0  0
 48 76  1  0  0  0  0
 49 70  1  0  0  0  0
 50 69  1  0  0  0  0
 51 60  1  0  0  0  0
 52 64  1  0  0  0  0
 53 65  1  0  0  0  0
 54 65  1  0  0  0  0
 55 65  1  0  0  0  0
 56 66  1  0  0  0  0
 57 66  1  0  0  0  0
 58 67  1  0  0  0  0
 59 78  1  0  0  0  0
 60 67  1  0  0  0  0
 61 67  1  0  0  0  0
 61 75  1  0  0  0  0
 62 66  1  0  0  0  0
 62 85  1  0  0  0  0
 63 65  1  0  0  0  0
 63 77  1  0  0  0  0
 64 78  1  0  0  0  0
 66 67  1  0  0  0  0
 68 69  1  0  0  0  0
M  CHG  1  78   1
M  ISO  4  38 100  62 101  74 100  85 101
M  END
> <Batch ID>
0141

> <Smiles>
CCC(C)(CNc1cccc([100NH:0][100C:0](=O)N2CCCC(n3nc(-c4ccc(Oc5ccc(F)cc5F)cc4)c(C(N)=O)c3N)C2)c1)C(C)(C)[101CH2:1][101O:1]c1ccc2c(c1)CN(C(=O)C(NC(=O)C(C)NC)C(C)(C)C)C(C(=O)NC1CCCc3ccccc31)C2

> <Shape>
0.242

> <Color>
0.063

> <Negative vol penalty>
0.000

$$$$

  -OEChem-04052302543D

 94103  0     1  0  0  0  0  0999 V2000
  -25.2973  -22.6486   27.0066 C   0  0  0  0  0  0  0  0  0  0  0  0
  -26.0221  -23.5903   26.2832 C   0  0  0  0  0  0  0  0  0  0  0  0
  -28.1373  -23.5958   17.1642 C   0  0  0  0  0  0  0  0  0  0  0  0
  -24.3737   -9.4947   21.3733 C   0  0  0  0  0  0  0  0  0  0  0  0
  -24.8653  -10.5103   23.5097 C   0  0  0  0  0  0  0  0  0  0  0  0
  -24.4040  -21.8034   26.3498 C   0  0  0  0  0  0  0  0  0  0  0  0
  -25.8547  -23.6866   24.9022 C   0  0  0  0  0  0  0  0  0  0  0  0
  -26.0866  -28.7816   21.5121 C   0  0  0  0  0  0  0  0  0  0  0  0
  -28.7715  -22.7732   18.0951 C   0  0  0  0  0  0  0  0  0  0  0  0
  -28.4082  -24.9640   17.1438 C   0  0  0  0  0  0  0  0  0  0  0  0
  -24.0317   -8.3056   22.0173 C   0  0  0  0  0  0  0  0  0  0  0  0
  -24.5232   -9.3212   24.1537 C   0  0  0  0  0  0  0  0  0  0  0  0
  -27.0973  -29.3462   20.7353 C   0  0  0  0  0  0  0  0  0  0  0  0
  -22.6836   -5.1161   23.1241 C   0  0  0  0  0  0  0  0  0  0  0  0
  -21.5201   -4.4668   22.7118 C   0  0  0  0  0  0  0  0  0  0  0  0
  -26.1645  -28.3000   18.7720 C   0  0  0  0  0  0  0  0  0  0  0  0
  -29.9472  -24.6868   18.9854 C   0  0  0  0  0  0  0  0  0  0  0  0
  -29.8588  -19.8302   20.2218 C   0  0  0  0  0  0  0  0  0  0  0  0
  -20.2217   -6.4155   23.3067 C   0  0  0  0  0  0  0  0  0  0  0  0
  -28.2204  -21.2832   21.0008 C   0  0  0  0  0  0  0  0  0  0  0  0
  -24.7906  -10.5970   22.1196 C   0  0  0  0  0  0  0  0  0  0  0  0
  -24.2899  -12.8992   21.1413 C   0  0  0  0  0  0  0  0  0  0  0  0
  -24.2185  -21.8958   24.9613 C   0  0  0  0  0  0  0  0  0  0  0  0
  -25.1118  -27.9617   20.9254 C   0  0  0  0  0  0  0  0  0  0  0  0
  -24.9591  -22.8409   24.2260 C   0  0  0  0  0  0  0  0  0  0  0  0
  -25.1409  -27.7283   19.5431 C   0  0  0  0  0  0  0  0  0  0  0  0
  -29.6764  -23.3186   19.0058 C   0  0  0  0  0  0  0  0  0  0  0  0
  -29.4631  -21.1854   20.4145 C   0  0  0  0  0  0  0  0  0  0  0  0
  -29.3131  -25.5095   18.0544 C   0  0  0  0  0  0  0  0  0  0  0  0
  -24.1064   -8.2188   23.4074 C   0  0  0  0  0  0  0  0  0  0  0  0
  -27.1380  -29.1031   19.3655 C   0  0  0  0  0  0  0  0  0  0  0  0
  -22.6163   -6.4152   23.6279 C   0  0  0  0  0  0  0  0  0  0  0  0
  -20.2891   -5.1165   22.8030 C   0  0  0  0  0  0  0  0  0  0  0  0
  -21.3853   -7.0649   23.7191 C   0  0  0  0  0  0  0  0  0  0  0  0
  -25.1446  -11.8254   21.4549 C   0  0  0  0  0  0  0  0  0  0  0  0
  -25.1031  -13.8151   20.5198 C   0  0  0  0  0  0  0  0  0  0  0  0
  -28.9034  -18.9438   20.6684 C   0  0  0  0  0  0  0  0  0  0  0  0
  -22.8865  -13.0548   21.3898 C   0  0  0  0  0  0  0  0  0  0  0  0
  -24.2385  -24.9238   21.2603 C   0  0  0  0  0  0  0  0  0  0  0  0
  -21.8573  -25.7914   19.2356 C   0  0  0  0  0  0  0  0  0  0  0  0
  -30.4571  -27.6037   18.8606 C   0  0  0  0  0  0  0  0  0  0  0  0
  -20.7499  -27.9193   16.8081 C   0  0  0  0  0  0  0  0  0  0  0  0
  -29.8749  -16.6669   20.2015 C   0  0  0  0  0  0  0  0  0  0  0  0
  -23.2766  -20.9287   24.2888 C   0  0  0  0  0  0  0  0  0  0  0  0
  -24.0127  -27.3819   21.7729 C   0  0  0  0  0  0  0  0  0  0  0  0
  -24.1063  -26.8719   18.8615 C   0  0  0  0  0  0  0  0  0  0  0  0
  -22.8803  -21.3477   22.8754 C   0  0  0  0  0  0  0  0  0  0  0  0
  -29.8516  -13.3854   18.8200 C   0  0  0  0  0  0  0  0  0  0  0  0
  -24.1097  -21.7789   22.0820 C   0  0  0  0  0  0  0  0  0  0  0  0
  -28.5546  -12.7753   19.3566 C   0  0  0  0  0  0  0  0  0  0  0  0
  -30.5204  -14.2929   19.8509 C   0  0  0  0  0  0  0  0  0  0  0  0
  -28.3582  -14.7285   20.9484 C   0  0  0  0  0  0  0  0  0  0  0  0
  -24.7868  -22.9926   22.7302 C   0  0  1  0  0  0  0  0  0  0  0  0
  -23.3697  -26.1450   21.1532 C   0  0  1  0  0  0  0  0  0  0  0  0
  -27.6145  -13.8578   19.9224 C   0  0  2  0  0  0  0  0  0  0  0  0
  -32.6844  -22.9870   18.8757 C   0  0  0  0  0  0  0  0  0  0  0  0
  -18.7769  -28.3538   15.3196 C   0  0  0  0  0  0  0  0  0  0  0  0
  -31.5681  -22.2478   22.4086 C   0  0  0  0  0  0  0  0  0  0  0  0
  -29.6517  -23.8046   22.1820 C   0  0  0  0  0  0  0  0  0  0  0  0
  -29.6794  -31.3752   19.1987 C   0  0  0  0  0  0  0  0  0  0  0  0
  -22.6860  -23.4535   17.4588 C   0  0  0  0  0  0  0  0  0  0  0  0
  -21.3636  -24.4871   15.6011 C   0  0  0  0  0  0  0  0  0  0  0  0
  -20.2152  -23.7610   17.6931 C   0  0  0  0  0  0  0  0  0  0  0  0
  -20.3087  -30.6006   17.9807 C   0  0  0  0  0  0  0  0  0  0  0  0
  -30.4544  -29.0853   18.4970 C   0  0  0  0  0  0  0  0  0  0  0  0
  -31.6954  -21.9009   19.3035 C   0  0  0  0  0  0  0  0  0  0  0  0
  -21.6854  -25.8174   17.7360 C   0  0  1  0  0  0  0  0  0  0  0  0
  -19.4419  -28.6731   16.6495 C   0  0  2  0  0  0  0  0  0  0  0  0
  -30.8033  -23.1351   21.4068 C   0  0  0  0  0  0  0  0  0  0  0  0
  -29.3815  -29.8822   19.2391 C   0  0  2  0  0  0  0  0  0  1  0  0
  -30.3540  -22.4387   20.0008 C   0  0  1  0  0  0  0  0  0  0  0  0
  -21.5083  -24.3943   17.1351 C   0  0  0  0  0  0  0  0  0  0  0  0
  -26.4042  -12.0380   21.0646 N   0  0  0  0  0  0  0  0  0  0  0  0
  -26.3469  -13.2559   20.4993 N   0  0  0  0  0  0  0  0  0  0  0  0
  -23.0554  -26.3223   19.7340 N   0  0  0  0  0  0  0  0  0  0  0  0
  -29.5713  -15.2958   20.3391 N   0  0  0  0  0  0  0  0  0  0  0  0
  -24.8684  -15.0362   19.9941 N   0  0  0  0  0  0  0  0  0  0  0  0
  -22.2038  -12.0173   22.0392 N   0  0  0  0  0  0  0  0  0  0  0  0
  -29.5881  -26.8976   18.0330 N   0  0  0  0  0  0  0  0  0  0  0  0
  -28.8833  -17.5270   20.6722 N   0  0  0  0  0  0  0  0  0  0  0  0
  -24.0545  -24.2029   22.4247 N   0  0  0  0  0  0  0  0  0  0  0  0
  -20.5725  -26.7218   17.4682 N   0  0  0  0  0  0  0  0  0  0  0  0
  -19.6797  -30.1429   16.7150 N   0  3  0  0  0  0  0  0  0  0  0  0
  -22.2530  -14.0765   21.0314 O   0  0  0  0  0  0  0  0  0  0  0  0
  -25.0170  -24.6547   20.3530 O   0  0  0  0  0  0  0  0  0  0  0  0
  -20.9584  -25.3241   19.9393 O   0  0  0  0  0  0  0  0  0  0  0  0
  -31.1507  -27.1545   19.7669 O   0  0  0  0  0  0  0  0  0  0  0  0
  -21.8213  -28.3481   16.3852 O   0  0  0  0  0  0  0  0  0  0  0  0
  -30.9244  -17.0498   19.6782 O   0  0  0  0  0  0  0  0  0  0  0  0
  -23.7724   -7.0588   24.0361 O   0  0  0  0  0  0  0  0  0  0  0  0
  -28.1239  -29.6524   18.6051 O   0  0  0  0  0  0  0  0  0  1  0  0
  -19.1720   -4.4934   22.4055 F   0  0  0  0  0  0  0  0  0  0  0  0
  -21.3145   -8.3133   24.2011 F   0  0  0  0  0  0  0  0  0  0  0  0
  -27.5361  -19.7455   21.3165 S   0  0  0  0  0  0  0  0  0  0  0  0
  1  2  1  0  0  0  0
  1  6  2  0  0  0  0
  2  7  2  0  0  0  0
  3  9  2  0  0  0  0
  3 10  1  0  0  0  0
  4 11  2  0  0  0  0
  4 21  1  0  0  0  0
  5 12  1  0  0  0  0
  5 21  2  0  0  0  0
  6 23  1  0  0  0  0
  7 25  1  0  0  0  0
  8 13  2  0  0  0  0
  8 24  1  0  0  0  0
  9 27  1  0  0  0  0
 10 29  2  0  0  0  0
 11 30  1  0  0  0  0
 12 30  2  0  0  0  0
 13 31  1  0  0  0  0
 14 15  2  0  0  0  0
 14 32  1  0  0  0  0
 15 33  1  0  0  0  0
 16 26  1  0  0  0  0
 16 31  2  0  0  0  0
 17 27  2  0  0  0  0
 17 29  1  0  0  0  0
 18 28  1  0  0  0  0
 18 37  2  0  0  0  0
 19 33  2  0  0  0  0
 19 34  1  0  0  0  0
 20 28  2  0  0  0  0
 20 94  1  0  0  0  0
 21 35  1  0  0  0  0
 22 35  1  0  0  0  0
 22 36  2  0  0  0  0
 22 38  1  0  0  0  0
 23 25  2  0  0  0  0
 23 44  1  0  0  0  0
 24 26  2  0  0  0  0
 24 45  1  0  0  0  0
 25 53  1  0  0  0  0
 26 46  1  0  0  0  0
 27 71  1  0  0  0  0
 28 71  1  0  0  0  0
 29 79  1  0  0  0  0
 30 90  1  0  0  0  0
 31 91  1  0  0  0  0
 32 34  2  0  0  0  0
 32 90  1  0  0  0  0
 33 92  1  0  0  0  0
 34 93  1  0  0  0  0
 35 73  2  0  0  0  0
 36 74  1  0  0  0  0
 36 77  1  0  0  0  0
 37 80  1  0  0  0  0
 37 94  1  0  0  0  0
 38 78  1  0  0  0  0
 38 84  2  0  0  0  0
 39 54  1  0  0  0  0
 39 81  1  0  0  0  0
 39 85  2  0  0  0  0
 40 67  1  0  0  0  0
 40 75  1  0  0  0  0
 40 86  2  0  0  0  0
 41 65  1  0  0  0  0
 41 79  1  0  0  0  0
 41 87  2  0  0  0  0
 42 68  1  0  0  0  0
 42 82  1  0  0  0  0
 42 88  2  0  0  0  0
 43 76  1  0  0  0  0
 43 80  1  0  0  0  0
 43 89  2  0  0  0  0
 44 47  1  0  0  0  0
 45 54  1  0  0  0  0
 46 75  1  0  0  0  0
 47 49  1  0  0  0  0
 48 50  1  0  0  0  0
 48 51  1  0  0  0  0
 49 53  1  0  0  0  0
 50 55  1  0  0  0  0
 51 76  1  0  0  0  0
 52 55  1  0  0  0  0
 52 76  1  0  0  0  0
 53 81  1  0  0  0  0
 54 75  1  0  0  0  0
 55 74  1  0  0  0  0
 56 66  1  0  0  0  0
 57 68  1  0  0  0  0
 58 69  1  0  0  0  0
 59 69  1  0  0  0  0
 60 70  1  0  0  0  0
 61 72  1  0  0  0  0
 62 72  1  0  0  0  0
 63 72  1  0  0  0  0
 64 83  1  0  0  0  0
 65 70  1  0  0  0  0
 66 71  1  0  0  0  0
 67 72  1  0  0  0  0
 67 82  1  0  0  0  0
 68 83  1  0  0  0  0
 69 71  1  0  0  0  0
 70 91  1  0  0  0  0
 73 74  1  0  0  0  0
M  CHG  1  83   1
M  ISO  4  43 100  70 101  80 100  91 101
M  END
> <Batch ID>
0141

> <Smiles>
CCC(c1cccc(NC(=O)C[101CH:1](C)[101O:1]c2ccc3c(c2)CN(C(=O)C(NC(=O)C(C)NC)C(C)(C)C)C(C(=O)NC2CCCc4ccccc42)C3)c1)(c1csc([100NH:0][100C:0](=O)N2CCCC(n3nc(-c4ccc(Oc5ccc(F)cc5F)cc4)c(C(N)=O)c3N)C2)c1)C(C)C

> <Shape>
0.247

> <Color>
0.114

> <Negative vol penalty>
0.000

$$$$

  -OEChem-04052302543D

 86 94  0     1  0  0  0  0  0999 V2000
  -27.2329  -31.5155   27.6686 C   0  0  0  0  0  0  0  0  0  0  0  0
  -27.2747  -30.2716   28.2901 C   0  0  0  0  0  0  0  0  0  0  0  0
  -23.1984   -9.8499   19.9637 C   0  0  0  0  0  0  0  0  0  0  0  0
  -23.9031   -9.9436   22.2728 C   0  0  0  0  0  0  0  0  0  0  0  0
  -26.6656  -31.6416   26.4013 C   0  0  0  0  0  0  0  0  0  0  0  0
  -26.7482  -29.1531   27.6450 C   0  0  0  0  0  0  0  0  0  0  0  0
  -28.8453  -23.4067   27.9390 C   0  0  0  0  0  0  0  0  0  0  0  0
  -22.5043   -8.6683   20.2235 C   0  0  0  0  0  0  0  0  0  0  0  0
  -23.2090   -8.7619   22.5325 C   0  0  0  0  0  0  0  0  0  0  0  0
  -28.4509  -22.3016   28.6920 C   0  0  0  0  0  0  0  0  0  0  0  0
  -23.2261   -5.3882   20.6035 C   0  0  0  0  0  0  0  0  0  0  0  0
  -23.3636   -4.3426   19.6905 C   0  0  0  0  0  0  0  0  0  0  0  0
  -27.1128  -21.5255   26.8409 C   0  0  0  0  0  0  0  0  0  0  0  0
  -32.4094  -16.0003   23.0198 C   0  0  0  0  0  0  0  0  0  0  0  0
  -20.9828   -4.3863   19.2818 C   0  0  0  0  0  0  0  0  0  0  0  0
  -23.8979  -10.4876   20.9884 C   0  0  0  0  0  0  0  0  0  0  0  0
  -24.1225  -13.0230   20.8179 C   0  0  0  0  0  0  0  0  0  0  0  0
  -26.1406  -30.5223   25.7362 C   0  0  0  0  0  0  0  0  0  0  0  0
  -28.3671  -23.5855   26.6330 C   0  0  0  0  0  0  0  0  0  0  0  0
  -26.1721  -29.2645   26.3681 C   0  0  0  0  0  0  0  0  0  0  0  0
  -27.5048  -22.6324   26.0725 C   0  0  0  0  0  0  0  0  0  0  0  0
  -32.5465  -16.7748   24.1964 C   0  0  0  0  0  0  0  0  0  0  0  0
  -22.5096   -8.1243   21.5079 C   0  0  0  0  0  0  0  0  0  0  0  0
  -27.5822  -21.3623   28.1440 C   0  0  0  0  0  0  0  0  0  0  0  0
  -21.9669   -5.9328   20.8557 C   0  0  0  0  0  0  0  0  0  0  0  0
  -22.2420   -3.8417   19.0297 C   0  0  0  0  0  0  0  0  0  0  0  0
  -20.8453   -5.4319   20.1948 C   0  0  0  0  0  0  0  0  0  0  0  0
  -24.6155  -11.7080   20.7206 C   0  0  0  0  0  0  0  0  0  0  0  0
  -25.1861  -13.8157   20.4620 C   0  0  0  0  0  0  0  0  0  0  0  0
  -31.1507  -15.4478   23.0707 C   0  0  0  0  0  0  0  0  0  0  0  0
  -31.3618  -16.6407   24.8823 C   0  0  0  0  0  0  0  0  0  0  0  0
  -22.8195  -13.4864   21.1963 C   0  0  0  0  0  0  0  0  0  0  0  0
  -26.6173  -25.7982   25.1682 C   0  0  0  0  0  0  0  0  0  0  0  0
  -27.3299  -24.0555   22.5268 C   0  0  0  0  0  0  0  0  0  0  0  0
  -29.6879  -16.9824   26.7286 C   0  0  0  0  0  0  0  0  0  0  0  0
  -28.2405  -21.0458   21.2002 C   0  0  0  0  0  0  0  0  0  0  0  0
  -30.9339  -14.0831   20.9642 C   0  0  0  0  0  0  0  0  0  0  0  0
  -25.4949  -30.7163   24.3871 C   0  0  0  0  0  0  0  0  0  0  0  0
  -28.8232  -24.7689   25.8244 C   0  0  0  0  0  0  0  0  0  0  0  0
  -26.9789  -22.7676   24.6677 C   0  0  0  0  0  0  0  0  0  0  0  0
  -25.2966  -29.4151   23.6139 C   0  0  0  0  0  0  0  0  0  0  0  0
  -29.3707  -13.0981   17.9207 C   0  0  0  0  0  0  0  0  0  0  0  0
  -24.6976  -28.3427   24.5183 C   0  0  0  0  0  0  0  0  0  0  0  0
  -27.9365  -12.7675   18.3402 C   0  0  0  0  0  0  0  0  0  0  0  0
  -30.3833  -12.6830   18.9865 C   0  0  0  0  0  0  0  0  0  0  0  0
  -28.6775  -12.8666   20.7544 C   0  0  0  0  0  0  0  0  0  0  0  0
  -25.6337  -28.0233   25.6901 C   0  0  1  0  0  0  0  0  0  0  0  0
  -27.8685  -25.1193   24.6872 C   0  0  1  0  0  0  0  0  0  0  0  0
  -27.6163  -13.3252   19.7409 C   0  0  2  0  0  0  0  0  0  0  0  0
  -33.7255  -17.5646   24.5972 C   0  0  0  0  0  0  0  0  0  0  0  0
  -28.7082  -19.9205   19.0065 C   0  0  0  0  0  0  0  0  0  0  0  0
  -24.3349  -23.9247   21.9582 C   0  0  0  0  0  0  0  0  0  0  0  0
  -24.7905  -22.0502   20.3623 C   0  0  0  0  0  0  0  0  0  0  0  0
  -25.7638  -24.3082   19.9419 C   0  0  0  0  0  0  0  0  0  0  0  0
  -26.5383  -17.9426   30.4888 C   0  0  0  0  0  0  0  0  0  0  0  0
  -28.9506  -17.7997   31.1199 C   0  0  0  0  0  0  0  0  0  0  0  0
  -31.0309  -20.4361   21.9756 C   0  0  0  0  0  0  0  0  0  0  0  0
  -29.5891  -17.7341   28.0455 C   0  0  0  0  0  0  0  0  0  0  0  0
  -28.2247  -17.4962   28.6977 C   0  0  0  0  0  0  0  0  0  0  0  0
  -28.1187  -19.7922   29.8478 C   0  0  0  0  0  0  0  0  0  1  0  0
  -26.6944  -22.8863   21.8138 C   0  0  1  0  0  0  0  0  0  0  0  0
  -29.3058  -20.6735   20.1849 C   0  0  2  0  0  0  0  0  0  0  0  0
  -25.4041  -23.2905   21.0462 C   0  0  0  0  0  0  0  0  0  0  0  0
  -27.9750  -18.2653   30.0245 C   0  0  0  0  0  0  0  0  0  0  0  0
  -25.8930  -11.6636   20.3330 N   0  0  0  0  0  0  0  0  0  0  0  0
  -26.2116  -12.9606   20.1836 N   0  0  0  0  0  0  0  0  0  0  0  0
  -27.4489  -23.9451   23.9194 N   0  0  0  0  0  0  0  0  0  0  0  0
  -30.0180  -13.2516   20.2857 N   0  0  0  0  0  0  0  0  0  0  0  0
  -25.3349  -15.1538   20.3631 N   0  0  0  0  0  0  0  0  0  0  0  0
  -21.8442  -12.5375   21.5317 N   0  0  0  0  0  0  0  0  0  0  0  0
  -30.9176  -17.1799   26.1128 N   0  0  0  0  0  0  0  0  0  0  0  0
  -30.4638  -14.5918   22.1746 N   0  0  0  0  0  0  0  0  0  0  0  0
  -26.7202  -27.1737   25.2519 N   0  0  0  0  0  0  0  0  0  0  0  0
  -27.7349  -22.3079   20.9705 N   0  0  0  0  0  0  0  0  0  0  0  0
  -30.3441  -19.8107   20.8162 N   0  3  0  0  0  0  0  0  0  0  0  0
  -22.5240  -14.7053   21.2200 O   0  0  0  0  0  0  0  0  0  0  0  0
  -25.6311  -25.1242   25.4416 O   0  0  0  0  0  0  0  0  0  0  0  0
  -27.7132  -25.0276   21.8713 O   0  0  0  0  0  0  0  0  0  0  0  0
  -28.7417  -16.3144   26.3217 O   0  0  0  0  0  0  0  0  0  0  0  0
  -27.8892  -20.2910   22.1043 O   0  0  0  0  0  0  0  0  0  0  0  0
  -32.0426  -14.3480   20.4924 O   0  0  0  0  0  0  0  0  0  0  0  0
  -30.5056  -15.8334   24.2028 O   0  0  0  0  0  0  0  0  0  0  0  0
  -21.8322   -6.9713   21.7617 O   0  0  0  0  0  0  0  0  0  0  0  0
  -27.1951  -20.2831   28.8770 O   0  0  0  0  0  0  0  0  0  1  0  0
  -22.3745   -2.8387   18.1519 F   0  0  0  0  0  0  0  0  0  0  0  0
  -19.6332   -5.9518   20.4321 F   0  0  0  0  0  0  0  0  0  0  0  0
  1  2  1  0  0  0  0
  1  5  2  0  0  0  0
  2  6  2  0  0  0  0
  3  8  2  0  0  0  0
  3 16  1  0  0  0  0
  4  9  1  0  0  0  0
  4 16  2  0  0  0  0
  5 18  1  0  0  0  0
  6 20  1  0  0  0  0
  7 10  2  0  0  0  0
  7 19  1  0  0  0  0
  8 23  1  0  0  0  0
  9 23  2  0  0  0  0
 10 24  1  0  0  0  0
 11 12  2  0  0  0  0
 11 25  1  0  0  0  0
 12 26  1  0  0  0  0
 13 21  1  0  0  0  0
 13 24  2  0  0  0  0
 14 22  1  0  0  0  0
 14 30  2  0  0  0  0
 15 26  2  0  0  0  0
 15 27  1  0  0  0  0
 16 28  1  0  0  0  0
 17 28  1  0  0  0  0
 17 29  2  0  0  0  0
 17 32  1  0  0  0  0
 18 20  2  0  0  0  0
 18 38  1  0  0  0  0
 19 21  2  0  0  0  0
 19 39  1  0  0  0  0
 20 47  1  0  0  0  0
 21 40  1  0  0  0  0
 22 31  2  0  0  0  0
 22 50  1  0  0  0  0
 23 83  1  0  0  0  0
 24 84  1  0  0  0  0
 25 27  2  0  0  0  0
 25 83  1  0  0  0  0
 26 85  1  0  0  0  0
 27 86  1  0  0  0  0
 28 65  2  0  0  0  0
 29 66  1  0  0  0  0
 29 69  1  0  0  0  0
 30 72  1  0  0  0  0
 30 82  1  0  0  0  0
 31 71  1  0  0  0  0
 31 82  1  0  0  0  0
 32 70  1  0  0  0  0
 32 76  2  0  0  0  0
 33 48  1  0  0  0  0
 33 73  1  0  0  0  0
 33 77  2  0  0  0  0
 34 61  1  0  0  0  0
 34 67  1  0  0  0  0
 34 78  2  0  0  0  0
 35 58  1  0  0  0  0
 35 71  1  0  0  0  0
 35 79  2  0  0  0  0
 36 62  1  0  0  0  0
 36 74  1  0  0  0  0
 36 80  2  0  0  0  0
 37 68  1  0  0  0  0
 37 72  1  0  0  0  0
 37 81  2  0  0  0  0
 38 41  1  0  0  0  0
 39 48  1  0  0  0  0
 40 67  1  0  0  0  0
 41 43  1  0  0  0  0
 42 44  1  0  0  0  0
 42 45  1  0  0  0  0
 43 47  1  0  0  0  0
 44 49  1  0  0  0  0
 45 68  1  0  0  0  0
 46 49  1  0  0  0  0
 46 68  1  0  0  0  0
 47 73  1  0  0  0  0
 48 67  1  0  0  0  0
 49 66  1  0  0  0  0
 51 62  1  0  0  0  0
 52 63  1  0  0  0  0
 53 63  1  0  0  0  0
 54 63  1  0  0  0  0
 55 64  1  0  0  0  0
 56 64  1  0  0  0  0
 57 75  1  0  0  0  0
 58 59  1  0  0  0  0
 59 64  1  0  0  0  0
 60 64  1  0  0  0  0
 60 84  1  0  0  0  0
 61 63  1  0  0  0  0
 61 74  1  0  0  0  0
 62 75  1  0  0  0  0
 65 66  1  0  0  0  0
M  CHG  1  75   1
M  ISO  4  37 100  60 101  72 100  84 101
M  END
> <Batch ID>
0141

> <Smiles>
CNC(C)C(=O)NC(C(=O)N1Cc2cc([101O:1][101CH2:1]C(C)(C)CCC(=O)Nc3oc([100NH:0][100C:0](=O)N4CCCC(n5nc(-c6ccc(Oc7ccc(F)cc7F)cc6)c(C(N)=O)c5N)C4)cc3C)ccc2CC1C(=O)NC1CCCc2ccccc21)C(C)(C)C

> <Shape>
0.202

> <Color>
0.178

> <Negative vol penalty>
0.000

$$$$

  -OEChem-04052302543D

 87 95  0     1  0  0  0  0  0999 V2000
  -23.7618  -23.9752   13.2481 C   0  0  0  0  0  0  0  0  0  0  0  0
  -24.2638  -23.8850   14.5425 C   0  0  0  0  0  0  0  0  0  0  0  0
  -31.4328  -18.9290   20.5020 C   0  0  0  0  0  0  0  0  0  0  0  0
  -22.9840   -9.8931   19.9940 C   0  0  0  0  0  0  0  0  0  0  0  0
  -23.7022   -9.9605   22.2998 C   0  0  0  0  0  0  0  0  0  0  0  0
  -23.4544  -25.2225   12.7063 C   0  0  0  0  0  0  0  0  0  0  0  0
  -24.4597  -25.0422   15.2953 C   0  0  0  0  0  0  0  0  0  0  0  0
  -22.7831  -24.5733   20.0507 C   0  0  0  0  0  0  0  0  0  0  0  0
  -30.7040  -19.7627   21.3502 C   0  0  0  0  0  0  0  0  0  0  0  0
  -31.2319  -17.5492   20.5388 C   0  0  0  0  0  0  0  0  0  0  0  0
  -22.2081   -8.7669   20.2686 C   0  0  0  0  0  0  0  0  0  0  0  0
  -22.9263   -8.8344   22.5745 C   0  0  0  0  0  0  0  0  0  0  0  0
  -23.5876  -23.8655   20.9426 C   0  0  0  0  0  0  0  0  0  0  0  0
  -23.1471   -5.4894   22.1350 C   0  0  0  0  0  0  0  0  0  0  0  0
  -23.7247   -4.4750   22.8987 C   0  0  0  0  0  0  0  0  0  0  0  0
  -24.4203  -25.9468   21.8338 C   0  0  0  0  0  0  0  0  0  0  0  0
  -29.5736  -17.8367   22.2720 C   0  0  0  0  0  0  0  0  0  0  0  0
  -21.9973   -4.7467   24.5659 C   0  0  0  0  0  0  0  0  0  0  0  0
  -23.7310  -10.4899   21.0096 C   0  0  0  0  0  0  0  0  0  0  0  0
  -24.1357  -13.0007   20.8110 C   0  0  0  0  0  0  0  0  0  0  0  0
  -23.6376  -26.3949   13.4564 C   0  0  0  0  0  0  0  0  0  0  0  0
  -22.7993  -25.9754   20.0362 C   0  0  0  0  0  0  0  0  0  0  0  0
  -24.1558  -26.3065   14.7625 C   0  0  0  0  0  0  0  0  0  0  0  0
  -23.6131  -26.6700   20.9425 C   0  0  0  0  0  0  0  0  0  0  0  0
  -29.7744  -19.2166   22.2352 C   0  0  0  0  0  0  0  0  0  0  0  0
  -30.3024  -17.0030   21.4238 C   0  0  0  0  0  0  0  0  0  0  0  0
  -22.1793   -8.2376   21.5588 C   0  0  0  0  0  0  0  0  0  0  0  0
  -24.4085  -24.5521   21.8324 C   0  0  0  0  0  0  0  0  0  0  0  0
  -21.9947   -6.1325   22.5868 C   0  0  0  0  0  0  0  0  0  0  0  0
  -23.1498   -4.1037   24.1141 C   0  0  0  0  0  0  0  0  0  0  0  0
  -21.4198   -5.7611   23.8022 C   0  0  0  0  0  0  0  0  0  0  0  0
  -24.5331  -11.6529   20.7265 C   0  0  0  0  0  0  0  0  0  0  0  0
  -25.2520  -13.7115   20.4434 C   0  0  0  0  0  0  0  0  0  0  0  0
  -22.8707  -13.5602   21.1882 C   0  0  0  0  0  0  0  0  0  0  0  0
  -23.5735  -28.1876   17.8890 C   0  0  0  0  0  0  0  0  0  0  0  0
  -22.4318  -30.2193   20.1454 C   0  0  0  0  0  0  0  0  0  0  0  0
  -21.7423  -30.8026   23.4365 C   0  0  0  0  0  0  0  0  0  0  0  0
  -30.7377  -14.6340   20.6861 C   0  0  0  0  0  0  0  0  0  0  0  0
  -23.3355  -27.7242   12.8110 C   0  0  0  0  0  0  0  0  0  0  0  0
  -21.9056  -26.7244   19.0861 C   0  0  0  0  0  0  0  0  0  0  0  0
  -23.6519  -28.1752   20.9810 C   0  0  0  0  0  0  0  0  0  0  0  0
  -23.2194  -28.8734   13.8091 C   0  0  0  0  0  0  0  0  0  0  0  0
  -29.6086  -12.1675   18.3799 C   0  0  0  0  0  0  0  0  0  0  0  0
  -24.3753  -28.8355   14.8037 C   0  0  0  0  0  0  0  0  0  0  0  0
  -28.1548  -11.9246   18.7917 C   0  0  0  0  0  0  0  0  0  0  0  0
  -30.5070  -12.4156   19.5902 C   0  0  0  0  0  0  0  0  0  0  0  0
  -28.5934  -13.2314   20.9100 C   0  0  0  0  0  0  0  0  0  0  0  0
  -24.3588  -27.5371   15.6195 C   0  0  1  0  0  0  0  0  0  0  0  0
  -22.3860  -28.1456   18.8087 C   0  0  1  0  0  0  0  0  0  0  0  0
  -27.6381  -13.0409   19.7205 C   0  0  2  0  0  0  0  0  0  0  0  0
  -20.8498  -32.5692   24.9791 C   0  0  0  0  0  0  0  0  0  0  0  0
  -28.6378  -19.3427   24.4845 C   0  0  0  0  0  0  0  0  0  0  0  0
  -29.9042  -21.2831   23.6784 C   0  0  0  0  0  0  0  0  0  0  0  0
  -25.0809  -31.7212   19.9543 C   0  0  0  0  0  0  0  0  0  0  0  0
  -24.5218  -32.8422   22.1220 C   0  0  0  0  0  0  0  0  0  0  0  0
  -23.0615  -33.1861   20.1290 C   0  0  0  0  0  0  0  0  0  0  0  0
  -26.7003  -22.1657   24.5010 C   0  0  0  0  0  0  0  0  0  0  0  0
  -27.9987  -23.3619   22.7933 C   0  0  0  0  0  0  0  0  0  0  0  0
  -27.8703  -20.8648   20.9148 C   0  0  0  0  0  0  0  0  0  0  0  0
  -26.4618  -19.6782   22.5665 C   0  0  0  0  0  0  0  0  0  0  0  0
  -19.4860  -29.0857   24.2852 C   0  0  0  0  0  0  0  0  0  0  0  0
  -25.6563  -22.5775   22.2793 C   0  0  0  0  0  0  0  0  0  1  0  0
  -23.0279  -30.9563   21.3203 C   0  0  1  0  0  0  0  0  0  0  0  0
  -20.5085  -31.3589   24.1239 C   0  0  2  0  0  0  0  0  0  0  0  0
  -28.9530  -20.1570   23.1912 C   0  0  0  0  0  0  0  0  0  0  0  0
  -23.9240  -32.1481   20.8796 C   0  0  0  0  0  0  0  0  0  0  0  0
  -27.0046  -22.1926   22.9653 C   0  0  0  0  0  0  0  0  0  0  0  0
  -27.5976  -20.7449   22.4492 C   0  0  0  0  0  0  0  0  0  0  0  0
  -25.8027  -11.5132   20.3357 N   0  0  0  0  0  0  0  0  0  0  0  0
  -26.2127  -12.7824   20.1713 N   0  0  0  0  0  0  0  0  0  0  0  0
  -22.7646  -28.8624   20.0281 N   0  0  0  0  0  0  0  0  0  0  0  0
  -29.9572  -13.4887   20.4216 N   0  0  0  0  0  0  0  0  0  0  0  0
  -25.4957  -15.0344   20.3295 N   0  0  0  0  0  0  0  0  0  0  0  0
  -21.8312  -12.6871   21.5368 N   0  0  0  0  0  0  0  0  0  0  0  0
  -30.0981  -15.6013   21.4604 N   0  0  0  0  0  0  0  0  0  0  0  0
  -23.3513  -27.6044   16.6562 N   0  0  0  0  0  0  0  0  0  0  0  0
  -21.9081  -31.3350   22.1754 N   0  0  0  0  0  0  0  0  0  0  0  0
  -19.8924  -30.3229   25.0003 N   0  3  0  0  0  0  0  0  0  0  0  0
  -22.6631  -14.7973   21.1996 O   0  0  0  0  0  0  0  0  0  0  0  0
  -24.6138  -28.7118   18.2693 O   0  0  0  0  0  0  0  0  0  0  0  0
  -21.6922  -30.8235   19.3646 O   0  0  0  0  0  0  0  0  0  0  0  0
  -22.4868  -29.9809   23.9667 O   0  0  0  0  0  0  0  0  0  0  0  0
  -31.8788  -14.7601   20.2344 O   0  0  0  0  0  0  0  0  0  0  0  0
  -21.4221   -7.1388   21.8272 O   0  0  0  0  0  0  0  0  0  0  0  0
  -25.1993  -23.8602   22.7081 O   0  0  0  0  0  0  0  0  0  1  0  0
  -23.7036   -3.1285   24.8465 F   0  0  0  0  0  0  0  0  0  0  0  0
  -20.3120   -6.3744   24.2409 F   0  0  0  0  0  0  0  0  0  0  0  0
  1  2  1  0  0  0  0
  1  6  2  0  0  0  0
  2  7  2  0  0  0  0
  3  9  2  0  0  0  0
  3 10  1  0  0  0  0
  4 11  2  0  0  0  0
  4 19  1  0  0  0  0
  5 12  1  0  0  0  0
  5 19  2  0  0  0  0
  6 21  1  0  0  0  0
  7 23  1  0  0  0  0
  8 13  2  0  0  0  0
  8 22  1  0  0  0  0
  9 25  1  0  0  0  0
 10 26  2  0  0  0  0
 11 27  1  0  0  0  0
 12 27  2  0  0  0  0
 13 28  1  0  0  0  0
 14 15  2  0  0  0  0
 14 29  1  0  0  0  0
 15 30  1  0  0  0  0
 16 24  1  0  0  0  0
 16 28  2  0  0  0  0
 17 25  2  0  0  0  0
 17 26  1  0  0  0  0
 18 30  2  0  0  0  0
 18 31  1  0  0  0  0
 19 32  1  0  0  0  0
 20 32  1  0  0  0  0
 20 33  2  0  0  0  0
 20 34  1  0  0  0  0
 21 23  2  0  0  0  0
 21 39  1  0  0  0  0
 22 24  2  0  0  0  0
 22 40  1  0  0  0  0
 23 48  1  0  0  0  0
 24 41  1  0  0  0  0
 25 65  1  0  0  0  0
 26 75  1  0  0  0  0
 27 84  1  0  0  0  0
 28 85  1  0  0  0  0
 29 31  2  0  0  0  0
 29 84  1  0  0  0  0
 30 86  1  0  0  0  0
 31 87  1  0  0  0  0
 32 69  2  0  0  0  0
 33 70  1  0  0  0  0
 33 73  1  0  0  0  0
 34 74  1  0  0  0  0
 34 79  2  0  0  0  0
 35 49  1  0  0  0  0
 35 76  1  0  0  0  0
 35 80  2  0  0  0  0
 36 63  1  0  0  0  0
 36 71  1  0  0  0  0
 36 81  2  0  0  0  0
 37 64  1  0  0  0  0
 37 77  1  0  0  0  0
 37 82  2  0  0  0  0
 38 72  1  0  0  0  0
 38 75  1  0  0  0  0
 38 83  2  0  0  0  0
 39 42  1  0  0  0  0
 40 49  1  0  0  0  0
 41 71  1  0  0  0  0
 42 44  1  0  0  0  0
 43 45  1  0  0  0  0
 43 46  1  0  0  0  0
 44 48  1  0  0  0  0
 45 50  1  0  0  0  0
 46 72  1  0  0  0  0
 47 50  1  0  0  0  0
 47 72  1  0  0  0  0
 48 76  1  0  0  0  0
 49 71  1  0  0  0  0
 50 70  1  0  0  0  0
 51 64  1  0  0  0  0
 52 65  1  0  0  0  0
 53 65  1  0  0  0  0
 54 66  1  0  0  0  0
 55 66  1  0  0  0  0
 56 66  1  0  0  0  0
 57 67  1  0  0  0  0
 58 67  1  0  0  0  0
 59 68  1  0  0  0  0
 60 68  1  0  0  0  0
 61 78  1  0  0  0  0
 62 67  1  0  0  0  0
 62 85  1  0  0  0  0
 63 66  1  0  0  0  0
 63 77  1  0  0  0  0
 64 78  1  0  0  0  0
 65 68  1  0  0  0  0
 67 68  1  0  0  0  0
 69 70  1  0  0  0  0
M  CHG  1  78   1
M  ISO  4  38 100  62 101  75 100  85 101
M  END
> <Batch ID>
0141

> <Smiles>
CNC(C)C(=O)NC(C(=O)N1Cc2cc([101O:1][101CH2:1]C(C)(C)C(C)(C)C(C)(C)c3cccc([100NH:0][100C:0](=O)N4CCCC(n5nc(-c6ccc(Oc7ccc(F)cc7F)cc6)c(C(N)=O)c5N)C4)c3)ccc2CC1C(=O)NC1CCCc2ccccc21)C(C)(C)C

> <Shape>
0.256

> <Color>
0.195

> <Negative vol penalty>
0.000

$$$$

  -OEChem-04052302543D

 87 95  0     1  0  0  0  0  0999 V2000
  -24.4569   -6.6412   23.8277 C   0  0  0  0  0  0  0  0  0  0  0  0
  -25.6274   -7.3462   23.5661 C   0  0  0  0  0  0  0  0  0  0  0  0
  -27.6831  -31.2437   23.1588 C   0  0  0  0  0  0  0  0  0  0  0  0
  -25.3142  -31.3058   22.6879 C   0  0  0  0  0  0  0  0  0  0  0  0
  -23.2953   -6.9312   23.1132 C   0  0  0  0  0  0  0  0  0  0  0  0
  -25.6371   -8.3409   22.5889 C   0  0  0  0  0  0  0  0  0  0  0  0
  -28.8557  -13.5505   22.6706 C   0  0  0  0  0  0  0  0  0  0  0  0
  -27.7698  -32.6121   22.9031 C   0  0  0  0  0  0  0  0  0  0  0  0
  -25.4009  -32.6743   22.4323 C   0  0  0  0  0  0  0  0  0  0  0  0
  -30.0621  -13.9172   22.0755 C   0  0  0  0  0  0  0  0  0  0  0  0
  -25.5746  -35.5349   24.2232 C   0  0  0  0  0  0  0  0  0  0  0  0
  -24.5955  -36.3594   24.7773 C   0  0  0  0  0  0  0  0  0  0  0  0
  -29.6046  -20.7234   17.3287 C   0  0  0  0  0  0  0  0  0  0  0  0
  -30.9200  -19.8454   19.1550 C   0  0  0  0  0  0  0  0  0  0  0  0
  -30.5602  -18.5098   17.1742 C   0  0  0  0  0  0  0  0  0  0  0  0
  -28.8490  -14.9084   20.2411 C   0  0  0  0  0  0  0  0  0  0  0  0
  -23.9489  -37.0792   22.5635 C   0  0  0  0  0  0  0  0  0  0  0  0
  -26.4553  -30.5905   23.0511 C   0  0  0  0  0  0  0  0  0  0  0  0
  -30.1629  -20.8759   18.5977 C   0  0  0  0  0  0  0  0  0  0  0  0
  -29.8031  -19.5403   16.6169 C   0  0  0  0  0  0  0  0  0  0  0  0
  -26.1029  -28.5574   24.5512 C   0  0  0  0  0  0  0  0  0  0  0  0
  -23.2884   -7.9365   22.1335 C   0  0  0  0  0  0  0  0  0  0  0  0
  -27.6352  -13.8509   22.0489 C   0  0  0  0  0  0  0  0  0  0  0  0
  -24.4747   -8.6437   21.8596 C   0  0  0  0  0  0  0  0  0  0  0  0
  -27.6285  -14.5467   20.8315 C   0  0  0  0  0  0  0  0  0  0  0  0
  -31.1186  -18.6623   18.4432 C   0  0  0  0  0  0  0  0  0  0  0  0
  -26.6288  -33.3275   22.5400 C   0  0  0  0  0  0  0  0  0  0  0  0
  -30.0589  -14.5937   20.8592 C   0  0  0  0  0  0  0  0  0  0  0  0
  -25.7410  -35.4826   22.8393 C   0  0  0  0  0  0  0  0  0  0  0  0
  -23.7826  -37.1316   23.9475 C   0  0  0  0  0  0  0  0  0  0  0  0
  -24.9281  -36.2547   22.0094 C   0  0  0  0  0  0  0  0  0  0  0  0
  -26.3651  -29.1767   23.3145 C   0  0  0  0  0  0  0  0  0  0  0  0
  -26.1221  -27.2126   24.2727 C   0  0  0  0  0  0  0  0  0  0  0  0
  -29.9564  -22.1099   19.3399 C   0  0  0  0  0  0  0  0  0  0  0  0
  -28.9719  -23.0050   19.1123 C   0  0  0  0  0  0  0  0  0  0  0  0
  -29.2214  -19.3812   15.2933 C   0  0  0  0  0  0  0  0  0  0  0  0
  -25.8633  -29.1452   25.8368 C   0  0  0  0  0  0  0  0  0  0  0  0
  -28.8886  -24.2102   19.9617 C   0  0  0  0  0  0  0  0  0  0  0  0
  -25.2210  -12.1326   20.8987 C   0  0  0  0  0  0  0  0  0  0  0  0
  -23.8514  -15.0453   20.4951 C   0  0  0  0  0  0  0  0  0  0  0  0
  -32.5075  -17.5966   20.2551 C   0  0  0  0  0  0  0  0  0  0  0  0
  -24.2620  -18.4093   20.0936 C   0  0  0  0  0  0  0  0  0  0  0  0
  -22.0207   -8.1819   21.3541 C   0  0  0  0  0  0  0  0  0  0  0  0
  -26.3418  -13.4721   22.7168 C   0  0  0  0  0  0  0  0  0  0  0  0
  -26.3446  -14.9107   20.1332 C   0  0  0  0  0  0  0  0  0  0  0  0
  -22.0184   -9.5071   20.5964 C   0  0  0  0  0  0  0  0  0  0  0  0
  -25.3122  -24.0952   20.7540 C   0  0  0  0  0  0  0  0  0  0  0  0
  -23.3353   -9.6979   19.8506 C   0  0  0  0  0  0  0  0  0  0  0  0
  -25.1535  -25.3684   21.5808 C   0  0  0  0  0  0  0  0  0  0  0  0
  -26.3555  -24.2571   19.6495 C   0  0  0  0  0  0  0  0  0  0  0  0
  -27.5241  -25.9951   20.9741 C   0  0  0  0  0  0  0  0  0  0  0  0
  -24.5187   -9.7468   20.8246 C   0  0  1  0  0  0  0  0  0  0  0  0
  -25.1721  -13.3750   21.7423 C   0  0  1  0  0  0  0  0  0  0  0  0
  -26.5131  -25.8396   22.1209 C   0  0  1  0  0  0  0  0  0  0  0  0
  -27.9378  -20.1054   15.0086 C   0  0  0  0  0  0  0  0  0  0  0  0
  -34.4715  -16.5219   21.3671 C   0  0  0  0  0  0  0  0  0  0  0  0
  -22.9583  -20.5260   19.7507 C   0  0  0  0  0  0  0  0  0  0  0  0
  -23.3877  -14.2841   17.5770 C   0  0  0  0  0  0  0  0  0  0  0  0
  -22.9803  -16.7044   17.0829 C   0  0  0  0  0  0  0  0  0  0  0  0
  -21.4787  -15.4849   18.6579 C   0  0  0  0  0  0  0  0  0  0  0  0
  -25.2791  -19.5811   22.6138 C   0  0  0  0  0  0  0  0  0  0  0  0
  -32.3332  -15.2281   21.1444 C   0  0  0  0  0  0  0  0  0  1  0  0
  -23.8272  -16.0711   19.3879 C   0  0  1  0  0  0  0  0  0  0  0  0
  -33.2441  -16.2708   20.4919 C   0  0  1  0  0  0  0  0  0  0  0  0
  -23.5946  -19.5934   20.7697 C   0  0  2  0  0  0  0  0  0  0  0  0
  -22.9429  -15.6277   18.1884 C   0  0  0  0  0  0  0  0  0  0  0  0
  -26.5384  -28.2975   22.3240 N   0  0  0  0  0  0  0  0  0  0  0  0
  -26.3848  -27.1121   22.9381 N   0  0  0  0  0  0  0  0  0  0  0  0
  -27.6290  -24.7644   20.1822 N   0  0  0  0  0  0  0  0  0  0  0  0
  -25.1063  -14.5130   20.8231 N   0  0  0  0  0  0  0  0  0  0  0  0
  -25.9398  -26.1181   25.0416 N   0  0  0  0  0  0  0  0  0  0  0  0
  -25.8790  -30.5424   25.9460 N   0  0  0  0  0  0  0  0  0  0  0  0
  -31.8860  -17.6165   19.0093 N   0  0  0  0  0  0  0  0  0  0  0  0
  -24.5915  -11.0416   21.4669 N   0  0  0  0  0  0  0  0  0  0  0  0
  -23.4126  -17.3269   20.0039 N   0  0  0  0  0  0  0  0  0  0  0  0
  -24.5926  -20.3697   21.5585 N   0  3  0  0  0  0  0  0  0  0  0  0
  -29.7001  -18.6931   14.3895 O   0  0  0  0  0  0  0  0  0  0  0  0
  -25.6580  -28.4516   26.8616 O   0  0  0  0  0  0  0  0  0  0  0  0
  -29.9418  -24.6560   20.4209 O   0  0  0  0  0  0  0  0  0  0  0  0
  -25.7866  -12.1621   19.8120 O   0  0  0  0  0  0  0  0  0  0  0  0
  -22.7966  -14.7332   21.0535 O   0  0  0  0  0  0  0  0  0  0  0  0
  -32.5098  -18.4938   21.0930 O   0  0  0  0  0  0  0  0  0  0  0  0
  -25.4199  -18.4426   19.6827 O   0  0  0  0  0  0  0  0  0  0  0  0
  -26.7130  -34.6629   22.2907 O   0  0  0  0  0  0  0  0  0  0  0  0
  -31.2350  -14.9522   20.2759 O   0  0  0  0  0  0  0  0  0  1  0  0
  -22.8413  -37.9222   24.4796 F   0  0  0  0  0  0  0  0  0  0  0  0
  -25.0824  -36.2077   20.6791 F   0  0  0  0  0  0  0  0  0  0  0  0
  1  2  1  0  0  0  0
  1  5  2  0  0  0  0
  2  6  2  0  0  0  0
  3  8  2  0  0  0  0
  3 18  1  0  0  0  0
  4  9  1  0  0  0  0
  4 18  2  0  0  0  0
  5 22  1  0  0  0  0
  6 24  1  0  0  0  0
  7 10  2  0  0  0  0
  7 23  1  0  0  0  0
  8 27  1  0  0  0  0
  9 27  2  0  0  0  0
 10 28  1  0  0  0  0
 11 12  2  0  0  0  0
 11 29  1  0  0  0  0
 12 30  1  0  0  0  0
 13 19  1  0  0  0  0
 13 20  2  0  0  0  0
 14 19  2  0  0  0  0
 14 26  1  0  0  0  0
 15 20  1  0  0  0  0
 15 26  2  0  0  0  0
 16 25  1  0  0  0  0
 16 28  2  0  0  0  0
 17 30  2  0  0  0  0
 17 31  1  0  0  0  0
 18 32  1  0  0  0  0
 19 34  1  0  0  0  0
 20 36  1  0  0  0  0
 21 32  1  0  0  0  0
 21 33  2  0  0  0  0
 21 37  1  0  0  0  0
 22 24  2  0  0  0  0
 22 43  1  0  0  0  0
 23 25  2  0  0  0  0
 23 44  1  0  0  0  0
 24 52  1  0  0  0  0
 25 45  1  0  0  0  0
 26 73  1  0  0  0  0
 27 84  1  0  0  0  0
 28 85  1  0  0  0  0
 29 31  2  0  0  0  0
 29 84  1  0  0  0  0
 30 86  1  0  0  0  0
 31 87  1  0  0  0  0
 32 67  2  0  0  0  0
 33 68  1  0  0  0  0
 33 71  1  0  0  0  0
 34 35  2  0  0  0  0
 35 38  1  0  0  0  0
 36 55  1  0  0  0  0
 36 77  2  0  0  0  0
 37 72  1  0  0  0  0
 37 78  2  0  0  0  0
 38 69  1  0  0  0  0
 38 79  2  0  0  0  0
 39 53  1  0  0  0  0
 39 74  1  0  0  0  0
 39 80  2  0  0  0  0
 40 63  1  0  0  0  0
 40 70  1  0  0  0  0
 40 81  2  0  0  0  0
 41 64  1  0  0  0  0
 41 73  1  0  0  0  0
 41 82  2  0  0  0  0
 42 65  1  0  0  0  0
 42 75  1  0  0  0  0
 42 83  2  0  0  0  0
 43 46  1  0  0  0  0
 44 53  1  0  0  0  0
 45 70  1  0  0  0  0
 46 48  1  0  0  0  0
 47 49  1  0  0  0  0
 47 50  1  0  0  0  0
 48 52  1  0  0  0  0
 49 54  1  0  0  0  0
 50 69  1  0  0  0  0
 51 54  1  0  0  0  0
 51 69  1  0  0  0  0
 52 74  1  0  0  0  0
 53 70  1  0  0  0  0
 54 68  1  0  0  0  0
 56 64  1  0  0  0  0
 57 65  1  0  0  0  0
 58 66  1  0  0  0  0
 59 66  1  0  0  0  0
 60 66  1  0  0  0  0
 61 76  1  0  0  0  0
 62 64  1  0  0  0  0
 62 85  1  0  0  0  0
 63 66  1  0  0  0  0
 63 75  1  0  0  0  0
 65 76  1  0  0  0  0
 67 68  1  0  0  0  0
M  CHG  1  76   1
M  ISO  4  35 100  38 100  62 101  85 101
M  END
> <Batch ID>
0141

> <Smiles>
CNC(C)C(=O)NC(C(=O)N1Cc2cc([101O:1][101CH2:1]C(C)C(=O)Nc3cc(C=[100CH:0][100C:0](=O)N4CCCC(n5nc(-c6ccc(Oc7ccc(F)cc7F)cc6)c(C(N)=O)c5N)C4)cc(C(C)=O)c3)ccc2CC1C(=O)NC1CCCc2ccccc21)C(C)(C)C

> <Shape>
0.224

> <Color>
0.070

> <Negative vol penalty>
0.000

$$$$

  -OEChem-04052302543D

 85 93  0     1  0  0  0  0  0999 V2000
  -25.2169  -35.0227   25.1836 C   0  0  0  0  0  0  0  0  0  0  0  0
  -25.9262  -33.9399   24.6738 C   0  0  0  0  0  0  0  0  0  0  0  0
  -25.4907  -23.8708   22.3805 C   0  0  0  0  0  0  0  0  0  0  0  0
  -25.1059  -13.5585   19.2759 C   0  0  0  0  0  0  0  0  0  0  0  0
  -23.7518  -15.0632   20.5947 C   0  0  0  0  0  0  0  0  0  0  0  0
  -26.5846  -24.6325   22.7914 C   0  0  0  0  0  0  0  0  0  0  0  0
  -23.8827  -34.8669   25.5573 C   0  0  0  0  0  0  0  0  0  0  0  0
  -25.3019  -32.7004   24.5384 C   0  0  0  0  0  0  0  0  0  0  0  0
  -26.2951  -30.5012   20.0862 C   0  0  0  0  0  0  0  0  0  0  0  0
  -25.6364  -22.9387   21.3530 C   0  0  0  0  0  0  0  0  0  0  0  0
  -24.8820  -12.5426   20.2050 C   0  0  0  0  0  0  0  0  0  0  0  0
  -23.5279  -14.0472   21.5239 C   0  0  0  0  0  0  0  0  0  0  0  0
  -27.5368  -29.8833   19.9442 C   0  0  0  0  0  0  0  0  0  0  0  0
  -22.4093  -10.3667   20.9695 C   0  0  0  0  0  0  0  0  0  0  0  0
  -22.0830   -9.1017   20.4808 C   0  0  0  0  0  0  0  0  0  0  0  0
  -27.9697  -23.5303   21.1471 C   0  0  0  0  0  0  0  0  0  0  0  0
  -26.5102  -27.7394   20.3551 C   0  0  0  0  0  0  0  0  0  0  0  0
  -24.0420   -8.1817   21.5546 C   0  0  0  0  0  0  0  0  0  0  0  0
  -24.5408  -14.8188   19.4707 C   0  0  0  0  0  0  0  0  0  0  0  0
  -27.8241  -24.4624   22.1746 C   0  0  0  0  0  0  0  0  0  0  0  0
  -23.9973  -16.1680   17.3750 C   0  0  0  0  0  0  0  0  0  0  0  0
  -23.2390  -33.6273   25.4173 C   0  0  0  0  0  0  0  0  0  0  0  0
  -25.1516  -29.7427   20.3750 C   0  0  0  0  0  0  0  0  0  0  0  0
  -23.9583  -32.5276   24.9117 C   0  0  0  0  0  0  0  0  0  0  0  0
  -25.2547  -28.3498   20.4977 C   0  0  0  0  0  0  0  0  0  0  0  0
  -26.8758  -22.7685   20.7363 C   0  0  0  0  0  0  0  0  0  0  0  0
  -24.0930  -12.7869   21.3290 C   0  0  0  0  0  0  0  0  0  0  0  0
  -27.6450  -28.5025   20.0815 C   0  0  0  0  0  0  0  0  0  0  0  0
  -23.5519  -10.5393   21.7507 C   0  0  0  0  0  0  0  0  0  0  0  0
  -22.8994   -8.0092   20.7734 C   0  0  0  0  0  0  0  0  0  0  0  0
  -24.3683   -9.4468   22.0433 C   0  0  0  0  0  0  0  0  0  0  0  0
  -24.7722  -15.8689   18.5116 C   0  0  0  0  0  0  0  0  0  0  0  0
  -24.6307  -17.2428   16.8006 C   0  0  0  0  0  0  0  0  0  0  0  0
  -28.9828  -25.2679   22.6092 C   0  0  0  0  0  0  0  0  0  0  0  0
  -22.8108  -15.5312   16.8826 C   0  0  0  0  0  0  0  0  0  0  0  0
  -23.0748  -29.6423   22.7793 C   0  0  0  0  0  0  0  0  0  0  0  0
  -21.5322  -27.5436   20.8458 C   0  0  0  0  0  0  0  0  0  0  0  0
  -21.7076  -25.3012   18.2791 C   0  0  0  0  0  0  0  0  0  0  0  0
  -28.1821  -21.5282   18.9751 C   0  0  0  0  0  0  0  0  0  0  0  0
  -21.8092  -33.4956   25.8790 C   0  0  0  0  0  0  0  0  0  0  0  0
  -23.8150  -30.4214   20.4987 C   0  0  0  0  0  0  0  0  0  0  0  0
  -24.0539  -27.4881   20.7875 C   0  0  0  0  0  0  0  0  0  0  0  0
  -21.1124  -32.2431   25.3535 C   0  0  0  0  0  0  0  0  0  0  0  0
  -28.9607  -19.2407   16.3601 C   0  0  0  0  0  0  0  0  0  0  0  0
  -22.0091  -31.0212   25.5261 C   0  0  0  0  0  0  0  0  0  0  0  0
  -27.9007  -18.1467   16.5078 C   0  0  0  0  0  0  0  0  0  0  0  0
  -29.4158  -19.7764   17.7165 C   0  0  0  0  0  0  0  0  0  0  0  0
  -27.2735  -19.1326   18.7487 C   0  0  0  0  0  0  0  0  0  0  0  0
  -23.3088  -31.1733   24.7266 C   0  0  1  0  0  0  0  0  0  0  0  0
  -22.8041  -29.6085   21.3017 C   0  0  1  0  0  0  0  0  0  0  0  0
  -26.7369  -18.6075   17.4071 C   0  0  2  0  0  0  0  0  0  0  0  0
  -20.2891  -23.7158   16.9481 C   0  0  0  0  0  0  0  0  0  0  0  0
  -21.5439  -25.5778   23.1794 C   0  0  0  0  0  0  0  0  0  0  0  0
  -21.0051  -23.7520   21.5533 C   0  0  0  0  0  0  0  0  0  0  0  0
  -19.4085  -25.6408   21.8791 C   0  0  0  0  0  0  0  0  0  0  0  0
  -32.3728  -28.5859   21.1770 C   0  0  0  0  0  0  0  0  0  0  0  0
  -31.5507  -26.7996   19.6310 C   0  0  0  0  0  0  0  0  0  0  0  0
  -22.2622  -26.7419   15.7541 C   0  0  0  0  0  0  0  0  0  0  0  0
  -30.7335  -26.9070   22.0218 C   0  0  0  0  0  0  0  0  0  0  0  0
  -30.0071  -28.6560   20.3112 C   0  0  0  0  0  0  0  0  0  1  0  0
  -21.5748  -26.0485   20.6410 C   0  0  1  0  0  0  0  0  0  0  0  0
  -20.8548  -25.1247   17.0357 C   0  0  2  0  0  0  0  0  0  0  0  0
  -20.9062  -25.2710   21.8096 C   0  0  0  0  0  0  0  0  0  0  0  0
  -31.1495  -27.7328   20.7872 C   0  0  0  0  0  0  0  0  0  0  0  0
  -25.8182  -16.6875   18.6524 N   0  0  0  0  0  0  0  0  0  0  0  0
  -25.7050  -17.5115   17.5969 N   0  0  0  0  0  0  0  0  0  0  0  0
  -22.7701  -28.1991   20.9059 N   0  0  0  0  0  0  0  0  0  0  0  0
  -28.2604  -20.1978   18.5117 N   0  0  0  0  0  0  0  0  0  0  0  0
  -24.3681  -17.9748   15.6972 N   0  0  0  0  0  0  0  0  0  0  0  0
  -29.3805  -25.1632   23.8772 N   0  0  0  0  0  0  0  0  0  0  0  0
  -22.2933  -14.4404   17.5944 N   0  0  0  0  0  0  0  0  0  0  0  0
  -27.0228  -21.8216   19.6925 N   0  0  0  0  0  0  0  0  0  0  0  0
  -23.0721  -30.9127   23.3228 N   0  0  0  0  0  0  0  0  0  0  0  0
  -20.9737  -25.7981   19.3355 N   0  0  0  0  0  0  0  0  0  0  0  0
  -29.5752  -26.0644   21.7119 N   0  3  0  0  0  0  0  0  0  0  0  0
  -21.6643  -25.3832   15.8114 N   0  3  0  0  0  0  0  0  0  0  0  0
  -22.2361  -15.9078   15.8331 O   0  0  0  0  0  0  0  0  0  0  0  0
  -23.2701  -28.5933   23.3819 O   0  0  0  0  0  0  0  0  0  0  0  0
  -20.4405  -28.1100   20.9416 O   0  0  0  0  0  0  0  0  0  0  0  0
  -22.9042  -25.0225   18.3113 O   0  0  0  0  0  0  0  0  0  0  0  0
  -29.0647  -22.3542   18.7288 O   0  0  0  0  0  0  0  0  0  0  0  0
  -23.8741  -11.7957   22.2358 O   0  0  0  0  0  0  0  0  0  0  0  0
  -28.8559  -27.8969   19.9440 O   0  0  0  0  0  0  0  0  0  1  0  0
  -22.5851   -6.7941   20.3054 F   0  0  0  0  0  0  0  0  0  0  0  0
  -25.4667   -9.6061   22.7943 F   0  0  0  0  0  0  0  0  0  0  0  0
  1  2  1  0  0  0  0
  1  7  2  0  0  0  0
  2  8  2  0  0  0  0
  3  6  2  0  0  0  0
  3 10  1  0  0  0  0
  4 11  2  0  0  0  0
  4 19  1  0  0  0  0
  5 12  1  0  0  0  0
  5 19  2  0  0  0  0
  6 20  1  0  0  0  0
  7 22  1  0  0  0  0
  8 24  1  0  0  0  0
  9 13  2  0  0  0  0
  9 23  1  0  0  0  0
 10 26  2  0  0  0  0
 11 27  1  0  0  0  0
 12 27  2  0  0  0  0
 13 28  1  0  0  0  0
 14 15  2  0  0  0  0
 14 29  1  0  0  0  0
 15 30  1  0  0  0  0
 16 20  2  0  0  0  0
 16 26  1  0  0  0  0
 17 25  1  0  0  0  0
 17 28  2  0  0  0  0
 18 30  2  0  0  0  0
 18 31  1  0  0  0  0
 19 32  1  0  0  0  0
 20 34  1  0  0  0  0
 21 32  1  0  0  0  0
 21 33  2  0  0  0  0
 21 35  1  0  0  0  0
 22 24  2  0  0  0  0
 22 40  1  0  0  0  0
 23 25  2  0  0  0  0
 23 41  1  0  0  0  0
 24 49  1  0  0  0  0
 25 42  1  0  0  0  0
 26 72  1  0  0  0  0
 27 82  1  0  0  0  0
 28 83  1  0  0  0  0
 29 31  2  0  0  0  0
 29 82  1  0  0  0  0
 30 84  1  0  0  0  0
 31 85  1  0  0  0  0
 32 65  2  0  0  0  0
 33 66  1  0  0  0  0
 33 69  1  0  0  0  0
 34 70  1  0  0  0  0
 34 75  2  0  0  0  0
 35 71  1  0  0  0  0
 35 77  2  0  0  0  0
 36 50  1  0  0  0  0
 36 73  1  0  0  0  0
 36 78  2  0  0  0  0
 37 61  1  0  0  0  0
 37 67  1  0  0  0  0
 37 79  2  0  0  0  0
 38 62  1  0  0  0  0
 38 74  1  0  0  0  0
 38 80  2  0  0  0  0
 39 68  1  0  0  0  0
 39 72  1  0  0  0  0
 39 81  2  0  0  0  0
 40 43  1  0  0  0  0
 41 50  1  0  0  0  0
 42 67  1  0  0  0  0
 43 45  1  0  0  0  0
 44 46  1  0  0  0  0
 44 47  1  0  0  0  0
 45 49  1  0  0  0  0
 46 51  1  0  0  0  0
 47 68  1  0  0  0  0
 48 51  1  0  0  0  0
 48 68  1  0  0  0  0
 49 73  1  0  0  0  0
 50 67  1  0  0  0  0
 51 66  1  0  0  0  0
 52 62  1  0  0  0  0
 53 63  1  0  0  0  0
 54 63  1  0  0  0  0
 55 63  1  0  0  0  0
 56 64  1  0  0  0  0
 57 64  1  0  0  0  0
 58 76  1  0  0  0  0
 59 64  1  0  0  0  0
 59 75  1  0  0  0  0
 60 64  1  0  0  0  0
 60 83  1  0  0  0  0
 61 63  1  0  0  0  0
 61 74  1  0  0  0  0
 62 76  1  0  0  0  0
 65 66  1  0  0  0  0
M  CHG  2  75   1  76   1
M  ISO  4  39 100  60 101  72 100  83 101
M  END
> <Batch ID>
0141

> <Smiles>
CNC(C)C(=O)NC(C(=O)N1Cc2cc([101O:1][101CH2:1]C(C)(C)CNC(=N)c3cccc([100NH:0][100C:0](=O)N4CCCC(n5nc(-c6ccc(Oc7ccc(F)cc7F)cc6)c(C(N)=O)c5N)C4)c3)ccc2CC1C(=O)NC1CCCc2ccccc21)C(C)(C)C

> <Shape>
0.226

> <Color>
0.063

> <Negative vol penalty>
0.000

$$$$

  -OEChem-04052302543D

 88 96  0     1  0  0  0  0  0999 V2000
  -19.0181  -30.9605   26.5214 C   0  0  0  0  0  0  0  0  0  0  0  0
  -20.3921  -30.7446   26.4905 C   0  0  0  0  0  0  0  0  0  0  0  0
  -27.4123  -11.3732   20.6584 C   0  0  0  0  0  0  0  0  0  0  0  0
  -26.7641  -12.6881   18.7380 C   0  0  0  0  0  0  0  0  0  0  0  0
  -18.2044  -30.4074   25.5335 C   0  0  0  0  0  0  0  0  0  0  0  0
  -20.9531  -29.9747   25.4723 C   0  0  0  0  0  0  0  0  0  0  0  0
  -26.4199  -30.7816   22.8324 C   0  0  0  0  0  0  0  0  0  0  0  0
  -26.4035  -10.4542   20.3697 C   0  0  0  0  0  0  0  0  0  0  0  0
  -25.7553  -11.7691   18.4493 C   0  0  0  0  0  0  0  0  0  0  0  0
  -27.6578  -30.1729   23.0339 C   0  0  0  0  0  0  0  0  0  0  0  0
  -23.7665   -7.9503   20.3444 C   0  0  0  0  0  0  0  0  0  0  0  0
  -22.9759   -7.4995   21.4014 C   0  0  0  0  0  0  0  0  0  0  0  0
  -27.2748  -23.3839   18.6982 C   0  0  0  0  0  0  0  0  0  0  0  0
  -27.2038  -28.6597   21.2110 C   0  0  0  0  0  0  0  0  0  0  0  0
  -27.8480  -22.2702   20.7641 C   0  0  0  0  0  0  0  0  0  0  0  0
  -22.2639   -9.7670   21.8360 C   0  0  0  0  0  0  0  0  0  0  0  0
  -27.5926  -12.4902   19.8426 C   0  0  0  0  0  0  0  0  0  0  0  0
  -27.1854  -22.1485   18.0569 C   0  0  0  0  0  0  0  0  0  0  0  0
  -29.9631  -13.4180   19.6766 C   0  0  0  0  0  0  0  0  0  0  0  0
  -18.7568  -29.6383   24.4972 C   0  0  0  0  0  0  0  0  0  0  0  0
  -25.5585  -30.3261   21.8239 C   0  0  0  0  0  0  0  0  0  0  0  0
  -20.1459  -29.4097   24.4703 C   0  0  0  0  0  0  0  0  0  0  0  0
  -25.9565  -29.2660   20.9970 C   0  0  0  0  0  0  0  0  0  0  0  0
  -27.6062  -23.4448   20.0518 C   0  0  0  0  0  0  0  0  0  0  0  0
  -27.7585  -21.0347   20.1229 C   0  0  0  0  0  0  0  0  0  0  0  0
  -25.5750  -10.6521   19.2651 C   0  0  0  0  0  0  0  0  0  0  0  0
  -28.0488  -29.1099   22.2251 C   0  0  0  0  0  0  0  0  0  0  0  0
  -23.8059   -9.3095   20.0332 C   0  0  0  0  0  0  0  0  0  0  0  0
  -22.2246   -8.4078   22.1472 C   0  0  0  0  0  0  0  0  0  0  0  0
  -23.0545  -10.2178   20.7789 C   0  0  0  0  0  0  0  0  0  0  0  0
  -27.4272  -20.9739   18.7693 C   0  0  0  0  0  0  0  0  0  0  0  0
  -28.6341  -13.4401   20.1406 C   0  0  0  0  0  0  0  0  0  0  0  0
  -30.5421  -14.5285   20.2405 C   0  0  0  0  0  0  0  0  0  0  0  0
  -26.8396  -22.0891   16.6453 C   0  0  0  0  0  0  0  0  0  0  0  0
  -30.6157  -12.4778   18.8131 C   0  0  0  0  0  0  0  0  0  0  0  0
  -22.6403  -29.0673   21.7660 C   0  0  0  0  0  0  0  0  0  0  0  0
  -23.0140  -29.3291   18.5545 C   0  0  0  0  0  0  0  0  0  0  0  0
  -28.0176  -24.9411   22.0310 C   0  0  0  0  0  0  0  0  0  0  0  0
  -25.1394  -29.5373   15.8924 C   0  0  0  0  0  0  0  0  0  0  0  0
  -28.3453  -19.7298   22.1964 C   0  0  0  0  0  0  0  0  0  0  0  0
  -17.8316  -29.0217   23.4782 C   0  0  0  0  0  0  0  0  0  0  0  0
  -24.2377  -31.0108   21.6020 C   0  0  0  0  0  0  0  0  0  0  0  0
  -25.0771  -28.7524   19.8874 C   0  0  0  0  0  0  0  0  0  0  0  0
  -18.5484  -28.5298   22.2234 C   0  0  0  0  0  0  0  0  0  0  0  0
  -30.2319  -17.3713   24.0819 C   0  0  0  0  0  0  0  0  0  0  0  0
  -19.7932  -27.7317   22.5980 C   0  0  0  0  0  0  0  0  0  0  0  0
  -30.1623  -16.0952   23.2400 C   0  0  0  0  0  0  0  0  0  0  0  0
  -28.9224  -18.1564   24.0311 C   0  0  0  0  0  0  0  0  0  0  0  0
  -28.3623  -17.1828   21.8385 C   0  0  0  0  0  0  0  0  0  0  0  0
  -20.7947  -28.6008   23.3682 C   0  0  1  0  0  0  0  0  0  0  0  0
  -23.2227  -30.1310   20.8789 C   0  0  1  0  0  0  0  0  0  0  0  0
  -29.6801  -16.3916   21.8064 C   0  0  2  0  0  0  0  0  0  0  0  0
  -25.9575  -23.1750   16.1014 C   0  0  0  0  0  0  0  0  0  0  0  0
  -25.1501  -29.7034   13.3885 C   0  0  0  0  0  0  0  0  0  0  0  0
  -22.3143  -26.3658   18.3573 C   0  0  0  0  0  0  0  0  0  0  0  0
  -23.2519  -26.3702   16.0359 C   0  0  0  0  0  0  0  0  0  0  0  0
  -21.2841  -27.8009   16.5871 C   0  0  0  0  0  0  0  0  0  0  0  0
  -29.7841  -27.0305   20.6247 C   0  0  0  0  0  0  0  0  0  0  0  0
  -30.4426  -26.5191   22.9847 C   0  0  0  0  0  0  0  0  0  0  0  0
  -26.5380  -32.1448   15.9555 C   0  0  0  0  0  0  0  0  0  0  0  0
  -28.0128  -26.4290   22.3576 C   0  0  0  0  0  0  0  0  0  0  0  0
  -23.5667  -28.4403   17.4665 C   0  0  1  0  0  0  0  0  0  0  0  0
  -25.1701  -30.4749   14.6989 C   0  0  2  0  0  0  0  0  0  0  0  0
  -22.6202  -27.2525   17.1338 C   0  0  0  0  0  0  0  0  0  0  0  0
  -29.3577  -27.1289   22.0903 C   0  0  0  0  0  0  0  0  0  1  0  0
  -28.3836  -14.4820   20.9379 N   0  0  0  0  0  0  0  0  0  0  0  0
  -29.5631  -15.1249   20.9794 N   0  0  0  0  0  0  0  0  0  0  0  0
  -23.7926  -29.4507   19.7141 N   0  0  0  0  0  0  0  0  0  0  0  0
  -28.5300  -18.4039   22.6420 N   0  0  0  0  0  0  0  0  0  0  0  0
  -31.7882  -15.0433   20.1715 N   0  0  0  0  0  0  0  0  0  0  0  0
  -29.8739  -11.3945   18.3227 N   0  0  0  0  0  0  0  0  0  0  0  0
  -27.6968  -24.6979   20.7023 N   0  0  0  0  0  0  0  0  0  0  0  0
  -28.0052  -19.8431   20.8487 N   0  0  0  0  0  0  0  0  0  0  0  0
  -21.5145  -29.4677   22.4601 N   0  0  0  0  0  0  0  0  0  0  0  0
  -23.8521  -29.3127   16.3325 N   0  0  0  0  0  0  0  0  0  0  0  0
  -26.4010  -31.3144   14.7313 N   0  3  0  0  0  0  0  0  0  0  0  0
  -27.2121  -21.2121   15.8632 O   0  0  0  0  0  0  0  0  0  0  0  0
  -31.8254  -12.5858   18.4992 O   0  0  0  0  0  0  0  0  0  0  0  0
  -23.1721  -27.9643   21.8159 O   0  0  0  0  0  0  0  0  0  0  0  0
  -21.9349  -29.9002   18.3789 O   0  0  0  0  0  0  0  0  0  0  0  0
  -28.2901  -24.1169   22.8997 O   0  0  0  0  0  0  0  0  0  0  0  0
  -26.1554  -29.0498   16.3829 O   0  0  0  0  0  0  0  0  0  0  0  0
  -28.5055  -20.6952   22.9476 O   0  0  0  0  0  0  0  0  0  0  0  0
  -24.5906   -9.7554   18.9830 O   0  0  0  0  0  0  0  0  0  0  0  0
  -29.2563  -28.5135   22.4201 O   0  0  0  0  0  0  0  0  0  1  0  0
  -21.4642   -7.9745   23.1612 F   0  0  0  0  0  0  0  0  0  0  0  0
  -23.0874  -11.5246   20.4839 F   0  0  0  0  0  0  0  0  0  0  0  0
  -27.3412  -19.7855   18.1522 F   0  0  0  0  0  0  0  0  0  0  0  0
  1  2  1  0  0  0  0
  1  5  2  0  0  0  0
  2  6  2  0  0  0  0
  3  8  2  0  0  0  0
  3 17  1  0  0  0  0
  4  9  1  0  0  0  0
  4 17  2  0  0  0  0
  5 20  1  0  0  0  0
  6 22  1  0  0  0  0
  7 10  2  0  0  0  0
  7 21  1  0  0  0  0
  8 26  1  0  0  0  0
  9 26  2  0  0  0  0
 10 27  1  0  0  0  0
 11 12  2  0  0  0  0
 11 28  1  0  0  0  0
 12 29  1  0  0  0  0
 13 18  1  0  0  0  0
 13 24  2  0  0  0  0
 14 23  1  0  0  0  0
 14 27  2  0  0  0  0
 15 24  1  0  0  0  0
 15 25  2  0  0  0  0
 16 29  2  0  0  0  0
 16 30  1  0  0  0  0
 17 32  1  0  0  0  0
 18 31  2  0  0  0  0
 18 34  1  0  0  0  0
 19 32  1  0  0  0  0
 19 33  2  0  0  0  0
 19 35  1  0  0  0  0
 20 22  2  0  0  0  0
 20 41  1  0  0  0  0
 21 23  2  0  0  0  0
 21 42  1  0  0  0  0
 22 50  1  0  0  0  0
 23 43  1  0  0  0  0
 24 72  1  0  0  0  0
 25 31  1  0  0  0  0
 25 73  1  0  0  0  0
 26 84  1  0  0  0  0
 27 85  1  0  0  0  0
 28 30  2  0  0  0  0
 28 84  1  0  0  0  0
 29 86  1  0  0  0  0
 30 87  1  0  0  0  0
 31 88  1  0  0  0  0
 32 66  2  0  0  0  0
 33 67  1  0  0  0  0
 33 70  1  0  0  0  0
 34 53  1  0  0  0  0
 34 77  2  0  0  0  0
 35 71  1  0  0  0  0
 35 78  2  0  0  0  0
 36 51  1  0  0  0  0
 36 74  1  0  0  0  0
 36 79  2  0  0  0  0
 37 62  1  0  0  0  0
 37 68  1  0  0  0  0
 37 80  2  0  0  0  0
 38 61  1  0  0  0  0
 38 72  1  0  0  0  0
 38 81  2  0  0  0  0
 39 63  1  0  0  0  0
 39 75  1  0  0  0  0
 39 82  2  0  0  0  0
 40 69  1  0  0  0  0
 40 73  1  0  0  0  0
 40 83  2  0  0  0  0
 41 44  1  0  0  0  0
 42 51  1  0  0  0  0
 43 68  1  0  0  0  0
 44 46  1  0  0  0  0
 45 47  1  0  0  0  0
 45 48  1  0  0  0  0
 46 50  1  0  0  0  0
 47 52  1  0  0  0  0
 48 69  1  0  0  0  0
 49 52  1  0  0  0  0
 49 69  1  0  0  0  0
 50 74  1  0  0  0  0
 51 68  1  0  0  0  0
 52 67  1  0  0  0  0
 54 63  1  0  0  0  0
 55 64  1  0  0  0  0
 56 64  1  0  0  0  0
 57 64  1  0  0  0  0
 58 65  1  0  0  0  0
 59 65  1  0  0  0  0
 60 76  1  0  0  0  0
 61 65  1  0  0  0  0
 62 64  1  0  0  0  0
 62 75  1  0  0  0  0
 63 76  1  0  0  0  0
 65 85  1  0  0  0  0
 66 67  1  0  0  0  0
M  CHG  1  76   1
M  ISO  4  40 100  65 101  73 100  85 101
M  END
> <Batch ID>
0141

> <Smiles>
CNC(C)C(=O)NC(C(=O)N1Cc2cc([101O:1][101C:1](C)(C)CC(=O)Nc3cc([100NH:0][100C:0](=O)N4CCCC(n5nc(-c6ccc(Oc7ccc(F)cc7F)cc6)c(C(N)=O)c5N)C4)c(F)c(C(C)=O)c3)ccc2CC1C(=O)NC1CCCc2ccccc21)C(C)(C)C

> <Shape>
0.276

> <Color>
0.072

> <Negative vol penalty>
0.000

$$$$

  -OEChem-04052302543D

 87 96  0     1  0  0  0  0  0999 V2000
  -19.2611  -11.6583   20.6670 C   0  0  0  0  0  0  0  0  0  0  0  0
  -19.6170  -12.8729   21.2445 C   0  0  0  0  0  0  0  0  0  0  0  0
  -22.2030  -28.2196   21.0111 C   0  0  0  0  0  0  0  0  0  0  0  0
  -23.5227  -27.8629   23.0031 C   0  0  0  0  0  0  0  0  0  0  0  0
  -20.2287  -10.6762   20.4597 C   0  0  0  0  0  0  0  0  0  0  0  0
  -20.9407  -13.1057   21.6161 C   0  0  0  0  0  0  0  0  0  0  0  0
  -33.5289  -24.2976   22.4445 C   0  0  0  0  0  0  0  0  0  0  0  0
  -23.9431  -18.4388   21.3952 C   0  0  0  0  0  0  0  0  0  0  0  0
  -33.3897  -24.7031   21.1122 C   0  0  0  0  0  0  0  0  0  0  0  0
  -21.0350  -28.0523   21.7549 C   0  0  0  0  0  0  0  0  0  0  0  0
  -22.3546  -27.6957   23.7470 C   0  0  0  0  0  0  0  0  0  0  0  0
  -24.2254  -19.3973   22.3675 C   0  0  0  0  0  0  0  0  0  0  0  0
  -19.1486  -29.8887   23.8768 C   0  0  0  0  0  0  0  0  0  0  0  0
  -18.1119  -30.7985   23.6692 C   0  0  0  0  0  0  0  0  0  0  0  0
  -26.3938  -18.3988   22.7138 C   0  0  0  0  0  0  0  0  0  0  0  0
  -16.6604  -28.9899   22.9914 C   0  0  0  0  0  0  0  0  0  0  0  0
  -23.4469  -28.1249   21.6352 C   0  0  0  0  0  0  0  0  0  0  0  0
  -25.3435  -29.5003   20.6260 C   0  0  0  0  0  0  0  0  0  0  0  0
  -21.5668  -10.9007   20.8201 C   0  0  0  0  0  0  0  0  0  0  0  0
  -24.8815  -17.4448   21.0821 C   0  0  0  0  0  0  0  0  0  0  0  0
  -21.9269  -12.1251   21.4147 C   0  0  0  0  0  0  0  0  0  0  0  0
  -32.3835  -23.9150   23.0893 C   0  0  0  0  0  0  0  0  0  0  0  0
  -26.1221  -17.4304   21.7353 C   0  0  0  0  0  0  0  0  0  0  0  0
  -32.1256  -24.6997   20.4773 C   0  0  0  0  0  0  0  0  0  0  0  0
  -31.1595  -23.9386   22.4623 C   0  0  0  0  0  0  0  0  0  0  0  0
  -30.9752  -24.3021   21.1647 C   0  0  0  0  0  0  0  0  0  0  0  0
  -21.1108  -27.7904   23.1229 C   0  0  0  0  0  0  0  0  0  0  0  0
  -25.4497  -19.3757   23.0290 C   0  0  0  0  0  0  0  0  0  0  0  0
  -18.9412  -28.5294   23.6417 C   0  0  0  0  0  0  0  0  0  0  0  0
  -16.8679  -30.3491   23.2265 C   0  0  0  0  0  0  0  0  0  0  0  0
  -17.6971  -28.0801   23.1990 C   0  0  0  0  0  0  0  0  0  0  0  0
  -24.6538  -28.2970   20.8672 C   0  0  0  0  0  0  0  0  0  0  0  0
  -26.4158  -29.1319   19.8507 C   0  0  0  0  0  0  0  0  0  0  0  0
  -25.0420  -30.8319   21.0636 C   0  0  0  0  0  0  0  0  0  0  0  0
  -24.9305  -14.2714   21.2568 C   0  0  0  0  0  0  0  0  0  0  0  0
  -27.2014  -22.1092   24.6514 C   0  0  0  0  0  0  0  0  0  0  0  0
  -27.7732  -14.6203   19.7338 C   0  0  0  0  0  0  0  0  0  0  0  0
  -30.4515  -16.6106   19.0182 C   0  0  0  0  0  0  0  0  0  0  0  0
  -29.4181  -24.0058   19.2066 C   0  0  0  0  0  0  0  0  0  0  0  0
  -22.5685   -9.7911   20.6198 C   0  0  0  0  0  0  0  0  0  0  0  0
  -24.5723  -16.4342   20.0118 C   0  0  0  0  0  0  0  0  0  0  0  0
  -31.7372  -23.3503   24.3093 C   0  0  0  0  0  0  0  0  0  0  0  0
  -27.1716  -16.3966   21.4215 C   0  0  0  0  0  0  0  0  0  0  0  0
  -24.0194  -10.2589   20.6981 C   0  0  0  0  0  0  0  0  0  0  0  0
  -27.7628  -25.8406   16.6433 C   0  0  0  0  0  0  0  0  0  0  0  0
  -24.2241  -11.1637   21.9090 C   0  0  0  0  0  0  0  0  0  0  0  0
  -26.8449  -26.7925   17.4137 C   0  0  0  0  0  0  0  0  0  0  0  0
  -27.8658  -24.4770   17.3242 C   0  0  0  0  0  0  0  0  0  0  0  0
  -27.3259  -25.4701   19.5131 C   0  0  0  0  0  0  0  0  0  0  0  0
  -23.3571  -12.4245   21.8085 C   0  0  1  0  0  0  0  0  0  0  0  0
  -25.3990  -15.1583   20.1381 C   0  0  1  0  0  0  0  0  0  0  0  0
  -27.2419  -26.8778   18.9006 C   0  0  2  0  0  0  0  0  0  0  0  0
  -32.0487  -25.1323   19.0476 C   0  0  0  0  0  0  0  0  0  0  0  0
  -32.6340  -16.6061   17.7797 C   0  0  0  0  0  0  0  0  0  0  0  0
  -29.3331  -21.8939   25.9995 C   0  0  0  0  0  0  0  0  0  0  0  0
  -28.4601  -24.1492   25.3836 C   0  0  0  0  0  0  0  0  0  0  0  0
  -29.0252  -12.9392   21.9511 C   0  0  0  0  0  0  0  0  0  0  0  0
  -31.2718  -13.7544   21.2051 C   0  0  0  0  0  0  0  0  0  0  0  0
  -29.8536  -12.4150   19.6504 C   0  0  0  0  0  0  0  0  0  0  0  0
  -29.5863  -18.8216   17.2513 C   0  0  0  0  0  0  0  0  0  0  0  0
  -27.0958  -20.6783   24.1468 C   0  0  0  0  0  0  0  0  0  1  0  0
  -29.3812  -22.6371   23.5650 C   0  0  0  0  0  0  0  0  0  0  0  0
  -29.2060  -14.8024   20.1730 C   0  0  1  0  0  0  0  0  0  0  0  0
  -31.1493  -16.9276   17.7079 C   0  0  2  0  0  0  0  0  0  0  0  0
  -28.6117  -22.6923   24.9017 C   0  0  0  0  0  0  0  0  0  0  0  0
  -29.8188  -13.4962   20.7524 C   0  0  0  0  0  0  0  0  0  0  0  0
  -25.2387  -27.2431   20.2917 N   0  0  0  0  0  0  0  0  0  0  0  0
  -26.3072  -27.7830   19.6810 N   0  0  0  0  0  0  0  0  0  0  0  0
  -30.5142  -23.5180   23.5572 N   0  0  2  0  0  0  0  0  0  0  0  0
  -26.8195  -15.4261   20.3719 N   0  0  0  0  0  0  0  0  0  0  0  0
  -28.2498  -24.6362   18.7285 N   0  0  0  0  0  0  0  0  0  0  0  0
  -27.4315  -29.8335   19.3043 N   0  0  0  0  0  0  0  0  0  0  0  0
  -23.9022  -31.0334   21.8539 N   0  0  0  0  0  0  0  0  0  0  0  0
  -29.6997  -24.2556   20.5493 N   0  0  0  0  0  0  0  0  0  0  0  0
  -23.9481  -13.3722   20.8882 N   0  0  0  0  0  0  0  0  0  0  0  0
  -29.9215  -15.3377   19.0198 N   0  0  0  0  0  0  0  0  0  0  0  0
  -30.9968  -18.3725   17.3761 N   0  3  0  0  0  0  0  0  0  0  0  0
  -25.7529  -31.8164   20.7491 O   0  0  0  0  0  0  0  0  0  0  0  0
  -25.4247  -14.3928   22.3716 O   0  0  0  0  0  0  0  0  0  0  0  0
  -26.1861  -22.7915   24.8107 O   0  0  0  0  0  0  0  0  0  0  0  0
  -27.5107  -13.7987   18.8520 O   0  0  0  0  0  0  0  0  0  0  0  0
  -30.3865  -17.4108   19.9489 O   0  0  0  0  0  0  0  0  0  0  0  0
  -30.1320  -23.3188   18.4715 O   0  0  0  0  0  0  0  0  0  0  0  0
  -19.9712  -27.6273   23.8491 O   0  0  0  0  0  0  0  0  0  0  0  0
  -25.7275  -20.3097   23.9789 O   0  0  0  0  0  0  0  0  0  1  0  0
  -15.8720  -31.2228   23.0286 F   0  0  0  0  0  0  0  0  0  0  0  0
  -17.4916  -26.7754   22.9726 F   0  0  0  0  0  0  0  0  0  0  0  0
  1  2  1  0  0  0  0
  1  5  2  0  0  0  0
  2  6  2  0  0  0  0
  3 10  2  0  0  0  0
  3 17  1  0  0  0  0
  4 11  1  0  0  0  0
  4 17  2  0  0  0  0
  5 19  1  0  0  0  0
  6 21  1  0  0  0  0
  7  9  2  0  0  0  0
  7 22  1  0  0  0  0
  8 12  2  0  0  0  0
  8 20  1  0  0  0  0
  9 24  1  0  0  0  0
 10 27  1  0  0  0  0
 11 27  2  0  0  0  0
 12 28  1  0  0  0  0
 13 14  2  0  0  0  0
 13 29  1  0  0  0  0
 14 30  1  0  0  0  0
 15 23  1  0  0  0  0
 15 28  2  0  0  0  0
 16 30  2  0  0  0  0
 16 31  1  0  0  0  0
 17 32  1  0  0  0  0
 18 32  1  0  0  0  0
 18 33  2  0  0  0  0
 18 34  1  0  0  0  0
 19 21  2  0  0  0  0
 19 40  1  0  0  0  0
 20 23  2  0  0  0  0
 20 41  1  0  0  0  0
 21 50  1  0  0  0  0
 22 25  2  0  0  0  0
 22 42  1  0  0  0  0
 23 43  1  0  0  0  0
 24 26  2  0  0  0  0
 24 53  1  0  0  0  0
 25 26  1  0  0  0  0
 25 69  1  0  0  0  0
 26 74  1  0  0  0  0
 27 84  1  0  0  0  0
 28 85  1  0  0  0  0
 29 31  2  0  0  0  0
 29 84  1  0  0  0  0
 30 86  1  0  0  0  0
 31 87  1  0  0  0  0
 32 67  2  0  0  0  0
 33 68  1  0  0  0  0
 33 72  1  0  0  0  0
 34 73  1  0  0  0  0
 34 78  2  0  0  0  0
 35 51  1  0  0  0  0
 35 75  1  0  0  0  0
 35 79  2  0  0  0  0
 36 61  1  0  0  0  0
 36 65  1  0  0  0  0
 36 80  2  0  0  0  0
 37 63  1  0  0  0  0
 37 70  1  0  0  0  0
 37 81  2  0  0  0  0
 38 64  1  0  0  0  0
 38 76  1  0  0  0  0
 38 82  2  0  0  0  0
 39 71  1  0  0  0  0
 39 74  1  0  0  0  0
 39 83  2  0  0  0  0
 40 44  1  0  0  0  0
 41 51  1  0  0  0  0
 42 69  1  0  0  0  0
 43 70  1  0  0  0  0
 44 46  1  0  0  0  0
 45 47  1  0  0  0  0
 45 48  1  0  0  0  0
 46 50  1  0  0  0  0
 47 52  1  0  0  0  0
 48 71  1  0  0  0  0
 49 52  1  0  0  0  0
 49 71  1  0  0  0  0
 50 75  1  0  0  0  0
 51 70  1  0  0  0  0
 52 68  1  0  0  0  0
 54 64  1  0  0  0  0
 55 65  1  0  0  0  0
 56 65  1  0  0  0  0
 57 66  1  0  0  0  0
 58 66  1  0  0  0  0
 59 66  1  0  0  0  0
 60 77  1  0  0  0  0
 61 85  1  0  0  0  0
 62 65  1  0  0  0  0
 62 69  1  0  0  0  0
 63 66  1  0  0  0  0
 63 76  1  0  0  0  0
 64 77  1  0  0  0  0
 67 68  1  0  0  0  0
M  CHG  1  77   1
M  ISO  4  39 100  61 101  74 100  85 101
M  END
> <Batch ID>
0141

> <Smiles>
CNC(C)C(=O)NC(C(=O)N1Cc2cc([101O:1][101CH2:1]C(=O)C(C)(C)CN3Cc4ccc(C)c([100NH:0][100C:0](=O)N5CCCC(n6nc(-c7ccc(Oc8ccc(F)cc8F)cc7)c(C(N)=O)c6N)C5)c43)ccc2CC1C(=O)NC1CCCc2ccccc21)C(C)(C)C

> <Shape>
0.260

> <Color>
0.055

> <Negative vol penalty>
0.000

$$$$

  -OEChem-04052302543D

 86 94  0     1  0  0  0  0  0999 V2000
  -22.6430   -9.0985   25.2065 C   0  0  0  0  0  0  0  0  0  0  0  0
  -23.6272   -9.5956   24.3582 C   0  0  0  0  0  0  0  0  0  0  0  0
  -22.1432  -28.2963   21.1938 C   0  0  0  0  0  0  0  0  0  0  0  0
  -23.0861  -27.1898   23.1235 C   0  0  0  0  0  0  0  0  0  0  0  0
  -21.3096   -9.4551   25.0097 C   0  0  0  0  0  0  0  0  0  0  0  0
  -23.2784  -10.4488   23.3119 C   0  0  0  0  0  0  0  0  0  0  0  0
  -26.3835  -14.4314   22.9350 C   0  0  0  0  0  0  0  0  0  0  0  0
  -20.8657  -28.1505   21.7343 C   0  0  0  0  0  0  0  0  0  0  0  0
  -21.8085  -27.0440   23.6640 C   0  0  0  0  0  0  0  0  0  0  0  0
  -27.6244  -14.2168   22.3368 C   0  0  0  0  0  0  0  0  0  0  0  0
  -18.9697  -29.6641   24.0895 C   0  0  0  0  0  0  0  0  0  0  0  0
  -18.1180  -30.7679   24.0471 C   0  0  0  0  0  0  0  0  0  0  0  0
  -26.7842  -15.1453   20.2750 C   0  0  0  0  0  0  0  0  0  0  0  0
  -29.6949  -20.9882   20.3578 C   0  0  0  0  0  0  0  0  0  0  0  0
  -29.4258  -22.1373   22.4659 C   0  0  0  0  0  0  0  0  0  0  0  0
  -30.1411  -19.8299   22.4306 C   0  0  0  0  0  0  0  0  0  0  0  0
  -16.5377  -29.4979   22.7330 C   0  0  0  0  0  0  0  0  0  0  0  0
  -23.2534  -27.8160   21.8883 C   0  0  0  0  0  0  0  0  0  0  0  0
  -25.4578  -29.0450   21.5170 C   0  0  0  0  0  0  0  0  0  0  0  0
  -20.9454  -10.3208   23.9664 C   0  0  0  0  0  0  0  0  0  0  0  0
  -25.3286  -14.9954   22.2033 C   0  0  0  0  0  0  0  0  0  0  0  0
  -21.9386  -10.8162   23.1001 C   0  0  0  0  0  0  0  0  0  0  0  0
  -25.5317  -15.3683   20.8670 C   0  0  0  0  0  0  0  0  0  0  0  0
  -29.3668  -22.1403   21.0723 C   0  0  0  0  0  0  0  0  0  0  0  0
  -30.0820  -19.8329   21.0370 C   0  0  0  0  0  0  0  0  0  0  0  0
  -20.6983  -27.5243   22.9694 C   0  0  0  0  0  0  0  0  0  0  0  0
  -27.8241  -14.5712   21.0058 C   0  0  0  0  0  0  0  0  0  0  0  0
  -18.6055  -28.4772   23.4536 C   0  0  0  0  0  0  0  0  0  0  0  0
  -16.9020  -30.6848   23.3688 C   0  0  0  0  0  0  0  0  0  0  0  0
  -29.8130  -20.9820   23.1451 C   0  0  0  0  0  0  0  0  0  0  0  0
  -17.3895  -28.3942   22.7754 C   0  0  0  0  0  0  0  0  0  0  0  0
  -24.5733  -27.9658   21.3302 C   0  0  0  0  0  0  0  0  0  0  0  0
  -26.5690  -28.7093   20.7827 C   0  0  0  0  0  0  0  0  0  0  0  0
  -25.2901  -30.2436   22.2857 C   0  0  0  0  0  0  0  0  0  0  0  0
  -22.4337  -14.0193   21.3257 C   0  0  0  0  0  0  0  0  0  0  0  0
  -22.1611  -17.0650   20.2434 C   0  0  0  0  0  0  0  0  0  0  0  0
  -23.7134  -19.9031   19.1561 C   0  0  0  0  0  0  0  0  0  0  0  0
  -28.8612  -23.4858   19.0034 C   0  0  0  0  0  0  0  0  0  0  0  0
  -19.4853  -10.6401   23.7643 C   0  0  0  0  0  0  0  0  0  0  0  0
  -24.0041  -15.2449   22.8709 C   0  0  0  0  0  0  0  0  0  0  0  0
  -24.4376  -15.9959   20.0438 C   0  0  0  0  0  0  0  0  0  0  0  0
  -19.2452  -11.8472   22.8611 C   0  0  0  0  0  0  0  0  0  0  0  0
  -27.8887  -26.2046   16.9202 C   0  0  0  0  0  0  0  0  0  0  0  0
  -20.1122  -11.7582   21.6093 C   0  0  0  0  0  0  0  0  0  0  0  0
  -27.0136  -27.0661   17.8335 C   0  0  0  0  0  0  0  0  0  0  0  0
  -27.6911  -24.7135   17.1871 C   0  0  0  0  0  0  0  0  0  0  0  0
  -26.9804  -25.1680   19.5018 C   0  0  0  0  0  0  0  0  0  0  0  0
  -21.6028  -11.7639   21.9691 C   0  0  1  0  0  0  0  0  0  0  0  0
  -22.8473  -15.3523   21.8820 C   0  0  1  0  0  0  0  0  0  0  0  0
  -27.1928  -26.6792   19.3146 C   0  0  2  0  0  0  0  0  0  0  0  0
  -23.2251  -22.2131   18.3057 C   0  0  0  0  0  0  0  0  0  0  0  0
  -32.3101  -16.8929   19.0033 C   0  0  0  0  0  0  0  0  0  0  0  0
  -21.3773  -15.8995   17.5346 C   0  0  0  0  0  0  0  0  0  0  0  0
  -21.8304  -18.1416   16.5169 C   0  0  0  0  0  0  0  0  0  0  0  0
  -20.0419  -17.8935   18.2381 C   0  0  0  0  0  0  0  0  0  0  0  0
  -32.6342  -14.9876   21.4397 C   0  0  0  0  0  0  0  0  0  0  0  0
  -31.7683  -13.9574   19.3567 C   0  0  0  0  0  0  0  0  0  0  0  0
  -25.1477  -21.1642   21.4169 C   0  0  0  0  0  0  0  0  0  0  0  0
  -30.8185  -17.4504   20.9524 C   0  0  0  0  0  0  0  0  0  0  0  0
  -30.1835  -14.4200   21.2630 C   0  0  0  0  0  0  0  0  0  1  0  0
  -22.4666  -17.7689   18.9433 C   0  0  1  0  0  0  0  0  0  0  0  0
  -23.5228  -21.3619   19.5303 C   0  0  2  0  0  0  0  0  0  0  0  0
  -31.1511  -16.3856   19.8831 C   0  0  2  0  0  0  0  0  0  0  0  0
  -21.4493  -17.4123   17.8229 C   0  0  0  0  0  0  0  0  0  0  0  0
  -31.4136  -14.9521   20.4890 C   0  0  0  0  0  0  0  0  0  0  0  0
  -25.0789  -27.0158   20.5390 N   0  0  0  0  0  0  0  0  0  0  0  0
  -26.2931  -27.4969   20.2222 N   0  0  0  0  0  0  0  0  0  0  0  0
  -23.1586  -16.2138   20.7396 N   0  0  0  0  0  0  0  0  0  0  0  0
  -27.8806  -24.4208   18.6096 N   0  0  0  0  0  0  0  0  0  0  0  0
  -27.7453  -29.3360   20.5682 N   0  0  0  0  0  0  0  0  0  0  0  0
  -24.0865  -30.4295   22.9794 N   0  0  0  0  0  0  0  0  0  0  0  0
  -28.9728  -23.3138   20.3827 N   0  0  0  0  0  0  0  0  0  0  0  0
  -30.4076  -18.6895   20.3284 N   0  0  0  0  0  0  0  0  0  0  0  0
  -22.0412  -13.1062   22.2859 N   0  0  0  0  0  0  0  0  0  0  0  0
  -22.5362  -19.1922   19.2563 N   0  0  0  0  0  0  0  0  0  0  0  0
  -24.7516  -21.8936   20.1848 N   0  3  0  0  0  0  0  0  0  0  0  0
  -26.1746  -31.1313   22.3421 O   0  0  0  0  0  0  0  0  0  0  0  0
  -22.4666  -13.8333   20.1149 O   0  0  0  0  0  0  0  0  0  0  0  0
  -21.0802  -17.2685   20.8018 O   0  0  0  0  0  0  0  0  0  0  0  0
  -24.7972  -19.4414   18.8060 O   0  0  0  0  0  0  0  0  0  0  0  0
  -29.5697  -22.9024   18.1790 O   0  0  0  0  0  0  0  0  0  0  0  0
  -19.4519  -27.3821   23.4973 O   0  0  0  0  0  0  0  0  0  0  0  0
  -29.0342  -14.3623   20.4192 O   0  0  0  0  0  0  0  0  0  1  0  0
  -16.0835  -31.7444   23.3295 F   0  0  0  0  0  0  0  0  0  0  0  0
  -29.8692  -20.9787   24.4834 F   0  0  0  0  0  0  0  0  0  0  0  0
  -17.0336  -27.2562   22.1636 F   0  0  0  0  0  0  0  0  0  0  0  0
  1  2  1  0  0  0  0
  1  5  2  0  0  0  0
  2  6  2  0  0  0  0
  3  8  2  0  0  0  0
  3 18  1  0  0  0  0
  4  9  1  0  0  0  0
  4 18  2  0  0  0  0
  5 20  1  0  0  0  0
  6 22  1  0  0  0  0
  7 10  2  0  0  0  0
  7 21  1  0  0  0  0
  8 26  1  0  0  0  0
  9 26  2  0  0  0  0
 10 27  1  0  0  0  0
 11 12  2  0  0  0  0
 11 28  1  0  0  0  0
 12 29  1  0  0  0  0
 13 23  1  0  0  0  0
 13 27  2  0  0  0  0
 14 24  1  0  0  0  0
 14 25  2  0  0  0  0
 15 24  2  0  0  0  0
 15 30  1  0  0  0  0
 16 25  1  0  0  0  0
 16 30  2  0  0  0  0
 17 29  2  0  0  0  0
 17 31  1  0  0  0  0
 18 32  1  0  0  0  0
 19 32  1  0  0  0  0
 19 33  2  0  0  0  0
 19 34  1  0  0  0  0
 20 22  2  0  0  0  0
 20 39  1  0  0  0  0
 21 23  2  0  0  0  0
 21 40  1  0  0  0  0
 22 48  1  0  0  0  0
 23 41  1  0  0  0  0
 24 72  1  0  0  0  0
 25 73  1  0  0  0  0
 26 82  1  0  0  0  0
 27 83  1  0  0  0  0
 28 31  2  0  0  0  0
 28 82  1  0  0  0  0
 29 84  1  0  0  0  0
 30 85  1  0  0  0  0
 31 86  1  0  0  0  0
 32 66  2  0  0  0  0
 33 67  1  0  0  0  0
 33 70  1  0  0  0  0
 34 71  1  0  0  0  0
 34 77  2  0  0  0  0
 35 49  1  0  0  0  0
 35 74  1  0  0  0  0
 35 78  2  0  0  0  0
 36 61  1  0  0  0  0
 36 68  1  0  0  0  0
 36 79  2  0  0  0  0
 37 62  1  0  0  0  0
 37 75  1  0  0  0  0
 37 80  2  0  0  0  0
 38 69  1  0  0  0  0
 38 72  1  0  0  0  0
 38 81  2  0  0  0  0
 39 42  1  0  0  0  0
 40 49  1  0  0  0  0
 41 68  1  0  0  0  0
 42 44  1  0  0  0  0
 43 45  1  0  0  0  0
 43 46  1  0  0  0  0
 44 48  1  0  0  0  0
 45 50  1  0  0  0  0
 46 69  1  0  0  0  0
 47 50  1  0  0  0  0
 47 69  1  0  0  0  0
 48 74  1  0  0  0  0
 49 68  1  0  0  0  0
 50 67  1  0  0  0  0
 51 62  1  0  0  0  0
 52 63  1  0  0  0  0
 53 64  1  0  0  0  0
 54 64  1  0  0  0  0
 55 64  1  0  0  0  0
 56 65  1  0  0  0  0
 57 65  1  0  0  0  0
 58 76  1  0  0  0  0
 59 63  1  0  0  0  0
 59 73  1  0  0  0  0
 60 65  1  0  0  0  0
 60 83  1  0  0  0  0
 61 64  1  0  0  0  0
 61 75  1  0  0  0  0
 62 76  1  0  0  0  0
 63 65  1  0  0  0  0
 66 67  1  0  0  0  0
M  CHG  1  76   1
M  ISO  4  38 100  60 101  72 100  83 101
M  END
> <Batch ID>
0141

> <Smiles>
CNC(C)C(=O)NC(C(=O)N1Cc2cc([101O:1][101CH2:1]C(C)(C)C(C)CNc3cc(F)cc([100NH:0][100C:0](=O)N4CCCC(n5nc(-c6ccc(Oc7ccc(F)cc7F)cc6)c(C(N)=O)c5N)C4)c3)ccc2CC1C(=O)NC1CCCc2ccccc21)C(C)(C)C

> <Shape>
0.241

> <Color>
0.058

> <Negative vol penalty>
0.000

$$$$

  -OEChem-04052302543D

 86 95  0     1  0  0  0  0  0999 V2000
  -18.1425  -25.6185   22.8840 C   0  0  0  0  0  0  0  0  0  0  0  0
  -19.5193  -25.4878   22.7329 C   0  0  0  0  0  0  0  0  0  0  0  0
  -23.5409   -9.4810   20.4163 C   0  0  0  0  0  0  0  0  0  0  0  0
  -23.8397  -10.2013   22.7030 C   0  0  0  0  0  0  0  0  0  0  0  0
  -17.5309  -26.8500   22.6534 C   0  0  0  0  0  0  0  0  0  0  0  0
  -20.2851  -26.5883   22.3500 C   0  0  0  0  0  0  0  0  0  0  0  0
  -24.5199  -27.0554   25.0875 C   0  0  0  0  0  0  0  0  0  0  0  0
  -22.9009   -8.3253   20.8639 C   0  0  0  0  0  0  0  0  0  0  0  0
  -23.1997   -9.0457   23.1507 C   0  0  0  0  0  0  0  0  0  0  0  0
  -25.5827  -26.2127   24.7650 C   0  0  0  0  0  0  0  0  0  0  0  0
  -20.0300   -7.9129   23.4509 C   0  0  0  0  0  0  0  0  0  0  0  0
  -19.0718   -8.0521   24.4549 C   0  0  0  0  0  0  0  0  0  0  0  0
  -26.6227  -28.0062   23.5317 C   0  0  0  0  0  0  0  0  0  0  0  0
  -30.8131  -18.6811   21.2616 C   0  0  0  0  0  0  0  0  0  0  0  0
  -20.3636   -6.5990   25.8891 C   0  0  0  0  0  0  0  0  0  0  0  0
  -24.0103  -10.4190   21.3358 C   0  0  0  0  0  0  0  0  0  0  0  0
  -24.0752  -12.8492   20.5627 C   0  0  0  0  0  0  0  0  0  0  0  0
  -18.2909  -27.9686   22.2768 C   0  0  0  0  0  0  0  0  0  0  0  0
  -24.4951  -28.3789   24.6246 C   0  0  0  0  0  0  0  0  0  0  0  0
  -19.6829  -27.8357   22.1128 C   0  0  0  0  0  0  0  0  0  0  0  0
  -25.5596  -28.8644   23.8519 C   0  0  0  0  0  0  0  0  0  0  0  0
  -30.6257  -20.0647   21.5456 C   0  0  0  0  0  0  0  0  0  0  0  0
  -22.7303   -8.1076   22.2311 C   0  0  0  0  0  0  0  0  0  0  0  0
  -26.6329  -26.6872   23.9846 C   0  0  0  0  0  0  0  0  0  0  0  0
  -21.1549   -7.1167   23.6658 C   0  0  0  0  0  0  0  0  0  0  0  0
  -19.2386   -7.3952   25.6740 C   0  0  0  0  0  0  0  0  0  0  0  0
  -21.3218   -6.4597   24.8849 C   0  0  0  0  0  0  0  0  0  0  0  0
  -24.6720  -11.6128   20.8740 C   0  0  0  0  0  0  0  0  0  0  0  0
  -29.3379  -20.3402   21.9497 C   0  0  0  0  0  0  0  0  0  0  0  0
  -25.1229  -13.6482   20.1750 C   0  0  0  0  0  0  0  0  0  0  0  0
  -29.6614  -17.9516   21.4598 C   0  0  0  0  0  0  0  0  0  0  0  0
  -22.6970  -13.2405   20.6191 C   0  0  0  0  0  0  0  0  0  0  0  0
  -28.8386  -21.6783   22.3135 C   0  0  0  0  0  0  0  0  0  0  0  0
  -22.5665  -30.0598   22.7383 C   0  0  0  0  0  0  0  0  0  0  0  0
  -24.4715  -32.5250   23.6416 C   0  0  0  0  0  0  0  0  0  0  0  0
  -27.5032  -33.5650   24.8137 C   0  0  0  0  0  0  0  0  0  0  0  0
  -30.2958  -15.5825   20.8845 C   0  0  0  0  0  0  0  0  0  0  0  0
  -17.5791  -29.2676   21.9926 C   0  0  0  0  0  0  0  0  0  0  0  0
  -23.3544  -29.2831   25.0036 C   0  0  0  0  0  0  0  0  0  0  0  0
  -25.5907  -30.2831   23.3472 C   0  0  0  0  0  0  0  0  0  0  0  0
  -18.5103  -30.4766   21.9538 C   0  0  0  0  0  0  0  0  0  0  0  0
  -29.9434  -12.4926   19.1508 C   0  0  0  0  0  0  0  0  0  0  0  0
  -27.7610  -23.3226   19.2726 C   0  0  0  0  0  0  0  0  0  0  0  0
  -19.7484  -30.1702   21.1171 C   0  0  0  0  0  0  0  0  0  0  0  0
  -28.4915  -12.0900   19.4190 C   0  0  0  0  0  0  0  0  0  0  0  0
  -26.9684  -24.0635   20.3445 C   0  0  0  0  0  0  0  0  0  0  0  0
  -28.2008  -22.0409   19.9687 C   0  0  0  0  0  0  0  0  0  0  0  0
  -30.5779  -13.1689   20.3649 C   0  0  0  0  0  0  0  0  0  0  0  0
  -28.3704  -13.9022   21.1763 C   0  0  0  0  0  0  0  0  0  0  0  0
  -20.5509  -29.0124   21.7228 C   0  0  1  0  0  0  0  0  0  0  0  0
  -23.1826  -30.4604   24.0488 C   0  0  1  0  0  0  0  0  0  0  0  0
  -27.6687  -13.2755   19.9603 C   0  0  2  0  0  0  0  0  0  0  0  0
  -27.7406  -23.7885   21.6383 C   0  0  2  0  0  0  0  0  0  0  0  0
  -31.7051  -21.0740   21.4143 C   0  0  0  0  0  0  0  0  0  0  0  0
  -28.7755  -35.6428   25.4149 C   0  0  0  0  0  0  0  0  0  0  0  0
  -24.8909  -33.1225   20.6790 C   0  0  0  0  0  0  0  0  0  0  0  0
  -26.8556  -34.5384   21.3142 C   0  0  0  0  0  0  0  0  0  0  0  0
  -24.5725  -35.1443   22.1161 C   0  0  0  0  0  0  0  0  0  0  0  0
  -27.8173  -32.6985   27.6261 C   0  0  0  0  0  0  0  0  0  0  0  0
  -28.8616  -24.7864   21.8874 C   0  0  0  0  0  0  0  0  0  0  0  0
  -28.3340  -26.1070   22.4271 C   0  0  0  0  0  0  0  0  0  1  0  0
  -25.7457  -33.1400   23.1152 C   0  0  1  0  0  0  0  0  0  0  0  0
  -27.8767  -34.5278   25.9264 C   0  0  2  0  0  0  0  0  0  0  0  0
  -25.5150  -33.9589   21.8139 C   0  0  0  0  0  0  0  0  0  0  0  0
  -25.9961  -11.6208   20.6989 N   0  0  0  0  0  0  0  0  0  0  0  0
  -26.2400  -12.8720   20.2734 N   0  0  0  0  0  0  0  0  0  0  0  0
  -28.3144  -22.4519   21.3788 N   0  0  0  0  0  0  0  0  0  0  0  0
  -24.4494  -31.1265   23.7392 N   0  0  0  0  0  0  0  0  0  0  0  0
  -29.7456  -14.2849   20.8195 N   0  0  0  0  0  0  0  0  0  0  0  0
  -25.1884  -14.9321   19.7627 N   0  0  0  0  0  0  0  0  0  0  0  0
  -21.7509  -12.2958   21.0396 N   0  0  0  0  0  0  0  0  0  0  0  0
  -29.4009  -16.5681   21.2996 N   0  0  0  0  0  0  0  0  0  0  0  0
  -21.3219  -29.4714   22.8583 N   0  0  0  0  0  0  0  0  0  0  0  0
  -26.3107  -33.9134   24.2157 N   0  0  0  0  0  0  0  0  0  0  0  0
  -28.9216  -22.0854   23.5767 N   0  3  0  0  0  0  0  0  0  0  0  0
  -28.5949  -33.8073   27.0154 N   0  3  0  0  0  0  0  0  0  0  0  0
  -22.3138  -14.3888   20.2902 O   0  0  0  0  0  0  0  0  0  0  0  0
  -23.1745  -30.2704   21.6954 O   0  0  0  0  0  0  0  0  0  0  0  0
  -23.5330  -33.2589   23.9614 O   0  0  0  0  0  0  0  0  0  0  0  0
  -28.2016  -32.6024   24.5035 O   0  0  0  0  0  0  0  0  0  0  0  0
  -31.4666  -15.8076   20.5673 O   0  0  0  0  0  0  0  0  0  0  0  0
  -22.1057   -6.9801   22.6683 O   0  0  0  0  0  0  0  0  0  0  0  0
  -27.6712  -25.8665   23.6678 O   0  0  0  0  0  0  0  0  0  1  0  0
  -18.3192   -7.5302   26.6387 F   0  0  0  0  0  0  0  0  0  0  0  0
  -22.4010   -5.6944   25.0978 F   0  0  0  0  0  0  0  0  0  0  0  0
  -28.3612  -18.9341   21.9857 S   0  0  0  0  0  0  0  0  0  0  0  0
  1  2  1  0  0  0  0
  1  5  2  0  0  0  0
  2  6  2  0  0  0  0
  3  8  2  0  0  0  0
  3 16  1  0  0  0  0
  4  9  1  0  0  0  0
  4 16  2  0  0  0  0
  5 18  1  0  0  0  0
  6 20  1  0  0  0  0
  7 10  2  0  0  0  0
  7 19  1  0  0  0  0
  8 23  1  0  0  0  0
  9 23  2  0  0  0  0
 10 24  1  0  0  0  0
 11 12  2  0  0  0  0
 11 25  1  0  0  0  0
 12 26  1  0  0  0  0
 13 21  1  0  0  0  0
 13 24  2  0  0  0  0
 14 22  1  0  0  0  0
 14 31  2  0  0  0  0
 15 26  2  0  0  0  0
 15 27  1  0  0  0  0
 16 28  1  0  0  0  0
 17 28  1  0  0  0  0
 17 30  2  0  0  0  0
 17 32  1  0  0  0  0
 18 20  2  0  0  0  0
 18 38  1  0  0  0  0
 19 21  2  0  0  0  0
 19 39  1  0  0  0  0
 20 50  1  0  0  0  0
 21 40  1  0  0  0  0
 22 29  2  0  0  0  0
 22 54  1  0  0  0  0
 23 82  1  0  0  0  0
 24 83  1  0  0  0  0
 25 27  2  0  0  0  0
 25 82  1  0  0  0  0
 26 84  1  0  0  0  0
 27 85  1  0  0  0  0
 28 65  2  0  0  0  0
 29 33  1  0  0  0  0
 29 86  1  0  0  0  0
 30 66  1  0  0  0  0
 30 70  1  0  0  0  0
 31 72  1  0  0  0  0
 31 86  1  0  0  0  0
 32 71  1  0  0  0  0
 32 77  2  0  0  0  0
 33 67  1  0  0  0  0
 33 75  2  0  0  0  0
 34 51  1  0  0  0  0
 34 73  1  0  0  0  0
 34 78  2  0  0  0  0
 35 62  1  0  0  0  0
 35 68  1  0  0  0  0
 35 79  2  0  0  0  0
 36 63  1  0  0  0  0
 36 74  1  0  0  0  0
 36 80  2  0  0  0  0
 37 69  1  0  0  0  0
 37 72  1  0  0  0  0
 37 81  2  0  0  0  0
 38 41  1  0  0  0  0
 39 51  1  0  0  0  0
 40 68  1  0  0  0  0
 41 44  1  0  0  0  0
 42 45  1  0  0  0  0
 42 48  1  0  0  0  0
 43 46  1  0  0  0  0
 43 47  1  0  0  0  0
 44 50  1  0  0  0  0
 45 52  1  0  0  0  0
 46 53  1  0  0  0  0
 47 67  1  0  0  0  0
 48 69  1  0  0  0  0
 49 52  1  0  0  0  0
 49 69  1  0  0  0  0
 50 73  1  0  0  0  0
 51 68  1  0  0  0  0
 52 66  1  0  0  0  0
 53 60  1  0  0  0  0
 53 67  1  0  0  0  0
 55 63  1  0  0  0  0
 56 64  1  0  0  0  0
 57 64  1  0  0  0  0
 58 64  1  0  0  0  0
 59 76  1  0  0  0  0
 60 61  1  0  0  0  0
 61 83  1  0  0  0  0
 62 64  1  0  0  0  0
 62 74  1  0  0  0  0
 63 76  1  0  0  0  0
 65 66  1  0  0  0  0
M  CHG  2  75   1  76   1
M  ISO  4  37 100  61 101  72 100  83 101
M  END
> <Batch ID>
0141

> <Smiles>
CNC(C)C(=O)NC(C(=O)N1Cc2cc([101O:1][101CH2:1]CC3CCCN3C(=N)c3sc([100NH:0][100C:0](=O)N4CCCC(n5nc(-c6ccc(Oc7ccc(F)cc7F)cc6)c(C(N)=O)c5N)C4)cc3C)ccc2CC1C(=O)NC1CCCc2ccccc21)C(C)(C)C

> <Shape>
0.332

> <Color>
0.162

> <Negative vol penalty>
0.000

$$$$

  -OEChem-04052302543D

 85 93  0     1  0  0  0  0  0999 V2000
  -24.0254  -17.5805   35.4190 C   0  0  0  0  0  0  0  0  0  0  0  0
  -24.8104  -18.1375   34.4146 C   0  0  0  0  0  0  0  0  0  0  0  0
  -23.0757   -9.8653   19.9431 C   0  0  0  0  0  0  0  0  0  0  0  0
  -23.8355   -9.8762   22.2365 C   0  0  0  0  0  0  0  0  0  0  0  0
  -23.0195  -16.6718   35.0928 C   0  0  0  0  0  0  0  0  0  0  0  0
  -24.5907  -17.7854   33.0834 C   0  0  0  0  0  0  0  0  0  0  0  0
  -25.1969  -21.3938   28.1725 C   0  0  0  0  0  0  0  0  0  0  0  0
  -22.3325   -8.7122   20.1948 C   0  0  0  0  0  0  0  0  0  0  0  0
  -23.0922   -8.7230   22.4882 C   0  0  0  0  0  0  0  0  0  0  0  0
  -26.2243  -21.5476   27.2426 C   0  0  0  0  0  0  0  0  0  0  0  0
  -19.8645   -7.9244   23.0918 C   0  0  0  0  0  0  0  0  0  0  0  0
  -19.1075   -7.8859   24.2627 C   0  0  0  0  0  0  0  0  0  0  0  0
  -25.0981  -20.0190   25.7545 C   0  0  0  0  0  0  0  0  0  0  0  0
  -20.3499   -5.9502   25.0022 C   0  0  0  0  0  0  0  0  0  0  0  0
  -31.8075  -18.7306   22.2426 C   0  0  0  0  0  0  0  0  0  0  0  0
  -23.8273  -10.4473   20.9639 C   0  0  0  0  0  0  0  0  0  0  0  0
  -24.1678  -12.9725   20.8401 C   0  0  0  0  0  0  0  0  0  0  0  0
  -22.7810  -16.3157   33.7560 C   0  0  0  0  0  0  0  0  0  0  0  0
  -24.1161  -20.5416   27.9045 C   0  0  0  0  0  0  0  0  0  0  0  0
  -23.5816  -16.8700   32.7391 C   0  0  0  0  0  0  0  0  0  0  0  0
  -24.0571  -19.8581   26.6816 C   0  0  0  0  0  0  0  0  0  0  0  0
  -22.3407   -8.1410   21.4673 C   0  0  0  0  0  0  0  0  0  0  0  0
  -26.1764  -20.8580   26.0346 C   0  0  0  0  0  0  0  0  0  0  0  0
  -20.8641   -6.9758   22.8760 C   0  0  0  0  0  0  0  0  0  0  0  0
  -19.3502   -6.8988   25.2179 C   0  0  0  0  0  0  0  0  0  0  0  0
  -21.1068   -5.9888   23.8312 C   0  0  0  0  0  0  0  0  0  0  0  0
  -24.5958  -11.6382   20.7044 C   0  0  0  0  0  0  0  0  0  0  0  0
  -25.2596  -13.7220   20.4757 C   0  0  0  0  0  0  0  0  0  0  0  0
  -30.7063  -19.0968   22.9878 C   0  0  0  0  0  0  0  0  0  0  0  0
  -30.5695  -16.9535   21.8970 C   0  0  0  0  0  0  0  0  0  0  0  0
  -22.8970  -13.4883   21.2582 C   0  0  0  0  0  0  0  0  0  0  0  0
  -22.9468  -17.9103   29.2509 C   0  0  0  0  0  0  0  0  0  0  0  0
  -20.5786  -18.3166   27.0717 C   0  0  0  0  0  0  0  0  0  0  0  0
  -19.5889  -19.6227   24.0781 C   0  0  0  0  0  0  0  0  0  0  0  0
  -30.7253  -14.7706   20.6491 C   0  0  0  0  0  0  0  0  0  0  0  0
  -21.7135  -15.2932   33.4566 C   0  0  0  0  0  0  0  0  0  0  0  0
  -23.0025  -20.4072   28.9067 C   0  0  0  0  0  0  0  0  0  0  0  0
  -22.9085  -18.9468   26.3370 C   0  0  0  0  0  0  0  0  0  0  0  0
  -21.2985  -15.2582   31.9879 C   0  0  0  0  0  0  0  0  0  0  0  0
  -29.6122  -12.3528   18.2843 C   0  0  0  0  0  0  0  0  0  0  0  0
  -22.5284  -15.2568   31.0856 C   0  0  0  0  0  0  0  0  0  0  0  0
  -28.1726  -12.0611   18.7143 C   0  0  0  0  0  0  0  0  0  0  0  0
  -30.5271  -12.5838   19.4857 C   0  0  0  0  0  0  0  0  0  0  0  0
  -28.6197  -13.3093   20.8658 C   0  0  0  0  0  0  0  0  0  0  0  0
  -23.3576  -16.5319   31.2812 C   0  0  1  0  0  0  0  0  0  0  0  0
  -22.2062  -19.1160   28.7455 C   0  0  1  0  0  0  0  0  0  0  0  0
  -27.6470  -13.1338   19.6882 C   0  0  2  0  0  0  0  0  0  0  0  0
  -17.6056  -19.7564   22.5464 C   0  0  0  0  0  0  0  0  0  0  0  0
  -29.5400  -21.5236   21.5841 C   0  0  0  0  0  0  0  0  0  0  0  0
  -21.0762  -15.4413   26.1803 C   0  0  0  0  0  0  0  0  0  0  0  0
  -19.7849  -15.9383   24.0937 C   0  0  0  0  0  0  0  0  0  0  0  0
  -18.6644  -16.0883   26.3174 C   0  0  0  0  0  0  0  0  0  0  0  0
  -27.2295  -23.1081   22.8386 C   0  0  0  0  0  0  0  0  0  0  0  0
  -29.4428  -23.7081   23.8239 C   0  0  0  0  0  0  0  0  0  0  0  0
  -19.4843  -22.5734   24.2818 C   0  0  0  0  0  0  0  0  0  0  0  0
  -27.8564  -22.2612   25.1048 C   0  0  0  0  0  0  0  0  0  1  0  0
  -20.3416  -17.8595   25.6526 C   0  0  1  0  0  0  0  0  0  0  0  0
  -18.3607  -20.4238   23.6853 C   0  0  2  0  0  0  0  0  0  0  0  0
  -29.0011  -21.2982   22.9998 C   0  0  2  0  0  0  0  0  0  0  0  0
  -19.9895  -16.3474   25.5680 C   0  0  0  0  0  0  0  0  0  0  0  0
  -28.4077  -22.5741   23.6894 C   0  0  0  0  0  0  0  0  0  0  0  0
  -31.7310  -17.5016   21.6168 N   0  0  0  0  0  0  0  0  0  0  0  0
  -25.8607  -11.5424   20.2863 N   0  0  0  0  0  0  0  0  0  0  0  0
  -26.2369  -12.8260   20.1561 N   0  0  0  0  0  0  0  0  0  0  0  0
  -21.8472  -18.8436   27.3522 N   0  0  0  0  0  0  0  0  0  0  0  0
  -29.9676  -13.6156   20.3615 N   0  0  0  0  0  0  0  0  0  0  0  0
  -25.4693  -15.0535   20.4007 N   0  0  0  0  0  0  0  0  0  0  0  0
  -21.8856  -12.5791   21.5968 N   0  0  0  0  0  0  0  0  0  0  0  0
  -30.0774  -15.6965   21.4662 N   0  0  0  0  0  0  0  0  0  0  0  0
  -22.7422  -17.6456   30.5916 N   0  0  0  0  0  0  0  0  0  0  0  0
  -19.3180  -18.7429   25.1047 N   0  0  0  0  0  0  0  0  0  0  0  0
  -18.7534  -21.7938   23.2497 N   0  3  0  0  0  0  0  0  0  0  0  0
  -22.6601  -14.7188   21.3136 O   0  0  0  0  0  0  0  0  0  0  0  0
  -23.6504  -17.2669   28.4811 O   0  0  0  0  0  0  0  0  0  0  0  0
  -19.6691  -18.2167   27.8991 O   0  0  0  0  0  0  0  0  0  0  0  0
  -20.6786  -19.7607   23.5267 O   0  0  0  0  0  0  0  0  0  0  0  0
  -31.8543  -14.9392   20.1813 O   0  0  0  0  0  0  0  0  0  0  0  0
  -29.6854  -20.0233   25.1864 O   0  0  0  0  0  0  0  0  0  0  0  0
  -31.4131  -21.4055   23.9820 O   0  0  0  0  0  0  0  0  0  0  0  0
  -21.6153   -7.0159   21.7133 O   0  0  0  0  0  0  0  0  0  0  0  0
  -27.1782  -21.0058   25.1255 O   0  0  0  0  0  0  0  0  0  1  0  0
  -18.6242   -6.8629   26.3430 F   0  0  0  0  0  0  0  0  0  0  0  0
  -22.0667   -5.0755   23.6300 F   0  0  0  0  0  0  0  0  0  0  0  0
  -29.5201  -17.8608   22.9072 S   0  0  0  0  0  0  0  0  0  0  0  0
  -30.2799  -20.5058   23.9590 S   0  0  0  0  0  0  0  0  0  0  0  0
  1  2  1  0  0  0  0
  1  5  2  0  0  0  0
  2  6  2  0  0  0  0
  3  8  2  0  0  0  0
  3 16  1  0  0  0  0
  4  9  1  0  0  0  0
  4 16  2  0  0  0  0
  5 18  1  0  0  0  0
  6 20  1  0  0  0  0
  7 10  2  0  0  0  0
  7 19  1  0  0  0  0
  8 22  1  0  0  0  0
  9 22  2  0  0  0  0
 10 23  1  0  0  0  0
 11 12  2  0  0  0  0
 11 24  1  0  0  0  0
 12 25  1  0  0  0  0
 13 21  1  0  0  0  0
 13 23  2  0  0  0  0
 14 25  2  0  0  0  0
 14 26  1  0  0  0  0
 15 29  2  0  0  0  0
 15 62  1  0  0  0  0
 16 27  1  0  0  0  0
 17 27  1  0  0  0  0
 17 28  2  0  0  0  0
 17 31  1  0  0  0  0
 18 20  2  0  0  0  0
 18 36  1  0  0  0  0
 19 21  2  0  0  0  0
 19 37  1  0  0  0  0
 20 45  1  0  0  0  0
 21 38  1  0  0  0  0
 22 80  1  0  0  0  0
 23 81  1  0  0  0  0
 24 26  2  0  0  0  0
 24 80  1  0  0  0  0
 25 82  1  0  0  0  0
 26 83  1  0  0  0  0
 27 63  2  0  0  0  0
 28 64  1  0  0  0  0
 28 67  1  0  0  0  0
 29 84  1  0  0  0  0
 29 85  1  0  0  0  0
 30 62  2  0  0  0  0
 30 69  1  0  0  0  0
 30 84  1  0  0  0  0
 31 68  1  0  0  0  0
 31 73  2  0  0  0  0
 32 46  1  0  0  0  0
 32 70  1  0  0  0  0
 32 74  2  0  0  0  0
 33 57  1  0  0  0  0
 33 65  1  0  0  0  0
 33 75  2  0  0  0  0
 34 58  1  0  0  0  0
 34 71  1  0  0  0  0
 34 76  2  0  0  0  0
 35 66  1  0  0  0  0
 35 69  1  0  0  0  0
 35 77  2  0  0  0  0
 36 39  1  0  0  0  0
 37 46  1  0  0  0  0
 38 65  1  0  0  0  0
 39 41  1  0  0  0  0
 40 42  1  0  0  0  0
 40 43  1  0  0  0  0
 41 45  1  0  0  0  0
 42 47  1  0  0  0  0
 43 66  1  0  0  0  0
 44 47  1  0  0  0  0
 44 66  1  0  0  0  0
 45 70  1  0  0  0  0
 46 65  1  0  0  0  0
 47 64  1  0  0  0  0
 48 58  1  0  0  0  0
 49 59  1  0  0  0  0
 50 60  1  0  0  0  0
 51 60  1  0  0  0  0
 52 60  1  0  0  0  0
 53 61  1  0  0  0  0
 54 61  1  0  0  0  0
 55 72  1  0  0  0  0
 56 61  1  0  0  0  0
 56 81  1  0  0  0  0
 57 60  1  0  0  0  0
 57 71  1  0  0  0  0
 58 72  1  0  0  0  0
 59 61  1  0  0  0  0
 59 85  1  0  0  0  0
 63 64  1  0  0  0  0
 78 85  2  0  0  0  0
 79 85  2  0  0  0  0
M  CHG  1  72   1
M  ISO  4  35 100  56 101  69 100  81 101
M  END
> <Batch ID>
0141

> <Smiles>
CNC(C)C(=O)NC(C(=O)N1Cc2cc([101O:1][101CH2:1]C(C)(C)C(C)S(=O)(=O)c3cnc([100NH:0][100C:0](=O)N4CCCC(n5nc(-c6ccc(Oc7ccc(F)cc7F)cc6)c(C(N)=O)c5N)C4)s3)ccc2CC1C(=O)NC1CCCc2ccccc21)C(C)(C)C

> <Shape>
0.175

> <Color>
0.184

> <Negative vol penalty>
0.000

$$$$

  -OEChem-04052302543D

 88 97  0     1  0  0  0  0  0999 V2000
  -18.6963  -30.4021   25.8200 C   0  0  0  0  0  0  0  0  0  0  0  0
  -20.0658  -30.1722   25.9039 C   0  0  0  0  0  0  0  0  0  0  0  0
  -24.3600  -22.7859   25.6870 C   0  0  0  0  0  0  0  0  0  0  0  0
  -26.8266  -14.8626   18.8114 C   0  0  0  0  0  0  0  0  0  0  0  0
  -25.0600  -15.3581   20.3832 C   0  0  0  0  0  0  0  0  0  0  0  0
  -17.9592  -29.8428   24.7771 C   0  0  0  0  0  0  0  0  0  0  0  0
  -20.6988  -29.3817   24.9454 C   0  0  0  0  0  0  0  0  0  0  0  0
  -25.1961  -23.5242   26.5245 C   0  0  0  0  0  0  0  0  0  0  0  0
  -25.0486  -31.4051   23.3235 C   0  0  0  0  0  0  0  0  0  0  0  0
  -24.7965  -22.4177   24.4143 C   0  0  0  0  0  0  0  0  0  0  0  0
  -26.8238  -13.5314   19.2278 C   0  0  0  0  0  0  0  0  0  0  0  0
  -25.0572  -14.0268   20.7997 C   0  0  0  0  0  0  0  0  0  0  0  0
  -26.1603  -31.2749   24.1546 C   0  0  0  0  0  0  0  0  0  0  0  0
  -23.8488  -11.0733   19.6874 C   0  0  0  0  0  0  0  0  0  0  0  0
  -22.6124  -10.4455   19.8379 C   0  0  0  0  0  0  0  0  0  0  0  0
  -26.9051  -23.5263   24.8167 C   0  0  0  0  0  0  0  0  0  0  0  0
  -26.9439  -29.4332   22.8080 C   0  0  0  0  0  0  0  0  0  0  0  0
  -23.0963  -10.0518   22.1720 C   0  0  0  0  0  0  0  0  0  0  0  0
  -25.9447  -15.7760   19.3891 C   0  0  0  0  0  0  0  0  0  0  0  0
  -25.1838  -17.7197   17.9227 C   0  0  0  0  0  0  0  0  0  0  0  0
  -26.4686  -23.8944   26.0894 C   0  0  0  0  0  0  0  0  0  0  0  0
  -18.5853  -29.0530   23.7998 C   0  0  0  0  0  0  0  0  0  0  0  0
  -24.8702  -30.5419   22.2329 C   0  0  0  0  0  0  0  0  0  0  0  0
  -19.9692  -28.8101   23.8891 C   0  0  0  0  0  0  0  0  0  0  0  0
  -25.8303  -29.5562   21.9630 C   0  0  0  0  0  0  0  0  0  0  0  0
  -26.0690  -22.7879   23.9792 C   0  0  0  0  0  0  0  0  0  0  0  0
  -25.9391  -13.1135   20.2219 C   0  0  0  0  0  0  0  0  0  0  0  0
  -27.1067  -30.2870   23.8987 C   0  0  0  0  0  0  0  0  0  0  0  0
  -24.7091  -11.1903   20.7792 C   0  0  0  0  0  0  0  0  0  0  0  0
  -22.2361   -9.9348   21.0802 C   0  0  0  0  0  0  0  0  0  0  0  0
  -24.3328  -10.6796   22.0215 C   0  0  0  0  0  0  0  0  0  0  0  0
  -25.9475  -17.1514   18.9598 C   0  0  0  0  0  0  0  0  0  0  0  0
  -25.5472  -19.0443   17.9149 C   0  0  0  0  0  0  0  0  0  0  0  0
  -24.2311  -17.1053   17.0449 C   0  0  0  0  0  0  0  0  0  0  0  0
  -22.6707  -28.4031   21.4013 C   0  0  0  0  0  0  0  0  0  0  0  0
  -29.3776  -28.6833   26.2192 C   0  0  0  0  0  0  0  0  0  0  0  0
  -24.3968  -28.2717   18.6580 C   0  0  0  0  0  0  0  0  0  0  0  0
  -27.3921  -28.7498   17.0939 C   0  0  0  0  0  0  0  0  0  0  0  0
  -27.7448  -22.6990   22.1004 C   0  0  0  0  0  0  0  0  0  0  0  0
  -17.7388  -28.4308   22.7177 C   0  0  0  0  0  0  0  0  0  0  0  0
  -23.6793  -30.7126   21.3302 C   0  0  0  0  0  0  0  0  0  0  0  0
  -25.6957  -28.6173   20.7931 C   0  0  0  0  0  0  0  0  0  0  0  0
  -18.5495  -27.9133   21.5322 C   0  0  0  0  0  0  0  0  0  0  0  0
  -29.2291  -21.9235   18.9583 C   0  0  0  0  0  0  0  0  0  0  0  0
  -19.7508  -27.1084   22.0177 C   0  0  0  0  0  0  0  0  0  0  0  0
  -28.4823  -20.6669   18.5049 C   0  0  0  0  0  0  0  0  0  0  0  0
  -27.8149  -26.0023   26.3544 C   0  0  0  0  0  0  0  0  0  0  0  0
  -29.4561  -21.9342   20.4689 C   0  0  0  0  0  0  0  0  0  0  0  0
  -27.5014  -20.4780   20.8263 C   0  0  0  0  0  0  0  0  0  0  0  0
  -28.6980  -23.9855   27.2381 C   0  0  0  0  0  0  0  0  0  0  0  0
  -27.3594  -24.6814   26.9826 C   0  0  2  0  0  0  0  0  0  0  0  0
  -20.6962  -27.9786   22.8546 C   0  0  1  0  0  0  0  0  0  0  0  0
  -23.3349  -29.4478   20.5497 C   0  0  1  0  0  0  0  0  0  0  0  0
  -27.1921  -20.4530   19.3205 C   0  0  2  0  0  0  0  0  0  0  0  0
  -28.9987  -26.4077   27.2206 C   0  0  2  0  0  0  0  0  0  0  0  0
  -28.5049  -28.5199   14.8564 C   0  0  0  0  0  0  0  0  0  0  0  0
  -24.5569  -25.2501   19.0508 C   0  0  0  0  0  0  0  0  0  0  0  0
  -26.4209  -25.2018   17.3801 C   0  0  0  0  0  0  0  0  0  0  0  0
  -24.1514  -25.9754   16.6920 C   0  0  0  0  0  0  0  0  0  0  0  0
  -27.9754  -31.6480   16.9565 C   0  0  0  0  0  0  0  0  0  0  0  0
  -32.2620  -27.9134   26.6778 C   0  0  0  0  0  0  0  0  0  0  0  0
  -28.7443  -28.8491   24.8508 C   0  0  0  0  0  0  0  0  0  1  0  0
  -29.9921  -27.3235   26.5284 C   0  0  2  0  0  0  0  0  0  0  0  0
  -25.5700  -27.4559   18.1711 C   0  0  1  0  0  0  0  0  0  0  0  0
  -27.7498  -29.4486   15.7946 C   0  0  2  0  0  0  0  0  0  0  0  0
  -25.1767  -25.9871   17.8467 C   0  0  0  0  0  0  0  0  0  0  0  0
  -26.7366  -18.0419   19.5667 N   0  0  0  0  0  0  0  0  0  0  0  0
  -26.4708  -19.1833   18.9088 N   0  0  0  0  0  0  0  0  0  0  0  0
  -24.5107  -28.8201   19.9433 N   0  0  0  0  0  0  0  0  0  0  0  0
  -28.1899  -21.7303   21.1761 N   0  0  0  0  0  0  0  0  0  0  0  0
  -25.1638  -20.0919   17.1548 N   0  0  0  0  0  0  0  0  0  0  0  0
  -23.9763  -15.7347   17.1894 N   0  0  0  0  0  0  0  0  0  0  0  0
  -26.5123  -22.4132   22.6866 N   0  0  0  0  0  0  0  0  0  0  0  0
  -21.4970  -28.8249   21.9960 N   0  0  0  0  0  0  0  0  0  0  0  0
  -26.1346  -28.1866   17.0416 N   0  0  0  0  0  0  0  0  0  0  0  0
  -29.6521  -25.0988   27.5666 N   0  3  0  0  0  0  0  0  0  0  0  0
  -28.6039  -30.6395   16.0650 N   0  3  0  0  0  0  0  0  0  0  0  0
  -23.6359  -17.7492   16.1478 O   0  0  0  0  0  0  0  0  0  0  0  0
  -23.1844  -27.2957   21.5095 O   0  0  0  0  0  0  0  0  0  0  0  0
  -29.4138  -29.6098   27.0295 O   0  0  0  0  0  0  0  0  0  0  0  0
  -23.4184  -28.4229   17.9221 O   0  0  0  0  0  0  0  0  0  0  0  0
  -28.1537  -28.7046   18.0575 O   0  0  0  0  0  0  0  0  0  0  0  0
  -28.3953  -23.7212   22.3329 O   0  0  0  0  0  0  0  0  0  0  0  0
  -25.9360  -11.8145   20.6284 O   0  0  0  0  0  0  0  0  0  0  0  0
  -28.1925  -30.1574   24.7087 O   0  0  0  0  0  0  0  0  0  1  0  0
  -31.1034  -27.5015   27.3922 O   0  0  0  0  0  0  0  0  0  0  0  0
  -21.0480   -9.3333   21.2249 F   0  0  0  0  0  0  0  0  0  0  0  0
  -25.1546  -10.7900   23.0743 F   0  0  0  0  0  0  0  0  0  0  0  0
  1  2  1  0  0  0  0
  1  6  2  0  0  0  0
  2  7  2  0  0  0  0
  3  8  2  0  0  0  0
  3 10  1  0  0  0  0
  4 11  2  0  0  0  0
  4 19  1  0  0  0  0
  5 12  1  0  0  0  0
  5 19  2  0  0  0  0
  6 22  1  0  0  0  0
  7 24  1  0  0  0  0
  8 21  1  0  0  0  0
  9 13  2  0  0  0  0
  9 23  1  0  0  0  0
 10 26  2  0  0  0  0
 11 27  1  0  0  0  0
 12 27  2  0  0  0  0
 13 28  1  0  0  0  0
 14 15  2  0  0  0  0
 14 29  1  0  0  0  0
 15 30  1  0  0  0  0
 16 21  2  0  0  0  0
 16 26  1  0  0  0  0
 17 25  1  0  0  0  0
 17 28  2  0  0  0  0
 18 30  2  0  0  0  0
 18 31  1  0  0  0  0
 19 32  1  0  0  0  0
 20 32  1  0  0  0  0
 20 33  2  0  0  0  0
 20 34  1  0  0  0  0
 21 51  1  0  0  0  0
 22 24  2  0  0  0  0
 22 40  1  0  0  0  0
 23 25  2  0  0  0  0
 23 41  1  0  0  0  0
 24 52  1  0  0  0  0
 25 42  1  0  0  0  0
 26 73  1  0  0  0  0
 27 84  1  0  0  0  0
 28 85  1  0  0  0  0
 29 31  2  0  0  0  0
 29 84  1  0  0  0  0
 30 87  1  0  0  0  0
 31 88  1  0  0  0  0
 32 67  2  0  0  0  0
 33 68  1  0  0  0  0
 33 71  1  0  0  0  0
 34 72  1  0  0  0  0
 34 78  2  0  0  0  0
 35 53  1  0  0  0  0
 35 74  1  0  0  0  0
 35 79  2  0  0  0  0
 36 62  1  0  0  0  0
 36 63  1  0  0  0  0
 36 80  2  0  0  0  0
 37 64  1  0  0  0  0
 37 69  1  0  0  0  0
 37 81  2  0  0  0  0
 38 65  1  0  0  0  0
 38 75  1  0  0  0  0
 38 82  2  0  0  0  0
 39 70  1  0  0  0  0
 39 73  1  0  0  0  0
 39 83  2  0  0  0  0
 40 43  1  0  0  0  0
 41 53  1  0  0  0  0
 42 69  1  0  0  0  0
 43 45  1  0  0  0  0
 44 46  1  0  0  0  0
 44 48  1  0  0  0  0
 45 52  1  0  0  0  0
 46 54  1  0  0  0  0
 47 51  1  0  0  0  0
 47 55  1  0  0  0  0
 48 70  1  0  0  0  0
 49 54  1  0  0  0  0
 49 70  1  0  0  0  0
 50 51  1  0  0  0  0
 50 76  1  0  0  0  0
 52 74  1  0  0  0  0
 53 69  1  0  0  0  0
 54 68  1  0  0  0  0
 55 63  1  0  0  0  0
 55 76  1  0  0  0  0
 56 65  1  0  0  0  0
 57 66  1  0  0  0  0
 58 66  1  0  0  0  0
 59 66  1  0  0  0  0
 60 77  1  0  0  0  0
 61 86  1  0  0  0  0
 62 85  1  0  0  0  0
 63 86  1  0  0  0  0
 64 66  1  0  0  0  0
 64 75  1  0  0  0  0
 65 77  1  0  0  0  0
 67 68  1  0  0  0  0
M  CHG  2  76   1  77   1
M  ISO  4  39 100  62 101  73 100  85 101
M  END
> <Batch ID>
0141

> <Smiles>
CNC(C)C(=O)NC(C(=O)N1Cc2cc([101O:1][101CH2:1]C(=O)C(OC)C3CC(c4cccc([100NH:0][100C:0](=O)N5CCCC(n6nc(-c7ccc(Oc8ccc(F)cc8F)cc7)c(C(N)=O)c6N)C5)c4)CN3)ccc2CC1C(=O)NC1CCCc2ccccc21)C(C)(C)C

> <Shape>
0.227

> <Color>
0.059

> <Negative vol penalty>
0.000

$$$$

  -OEChem-04052302543D

 89 97  0     1  0  0  0  0  0999 V2000
  -23.9542  -17.3117   20.5543 C   0  0  0  0  0  0  0  0  0  0  0  0
  -24.8630  -18.0933   21.2587 C   0  0  0  0  0  0  0  0  0  0  0  0
  -26.5724  -12.0732   21.6348 C   0  0  0  0  0  0  0  0  0  0  0  0
  -25.9795  -12.9265   19.4537 C   0  0  0  0  0  0  0  0  0  0  0  0
  -23.1485  -17.8949   19.5785 C   0  0  0  0  0  0  0  0  0  0  0  0
  -24.9581  -19.4604   20.9959 C   0  0  0  0  0  0  0  0  0  0  0  0
  -28.6880  -25.4241   22.3854 C   0  0  0  0  0  0  0  0  0  0  0  0
  -25.3799  -11.3509   21.6764 C   0  0  0  0  0  0  0  0  0  0  0  0
  -24.7869  -12.2042   19.4953 C   0  0  0  0  0  0  0  0  0  0  0  0
  -29.4355  -26.4554   21.8185 C   0  0  0  0  0  0  0  0  0  0  0  0
  -22.3243   -9.5651   22.5120 C   0  0  0  0  0  0  0  0  0  0  0  0
  -21.5846   -9.5994   23.6940 C   0  0  0  0  0  0  0  0  0  0  0  0
  -27.3979  -27.5346   21.1096 C   0  0  0  0  0  0  0  0  0  0  0  0
  -28.5649  -22.8552   16.3197 C   0  0  0  0  0  0  0  0  0  0  0  0
  -29.6169  -21.9755   18.3087 C   0  0  0  0  0  0  0  0  0  0  0  0
  -21.3750  -11.9979   23.4933 C   0  0  0  0  0  0  0  0  0  0  0  0
  -26.8722  -12.8610   20.5234 C   0  0  0  0  0  0  0  0  0  0  0  0
  -29.3434  -13.1742   19.9732 C   0  0  0  0  0  0  0  0  0  0  0  0
  -23.2432  -19.2675   19.2957 C   0  0  0  0  0  0  0  0  0  0  0  0
  -27.2879  -25.4347   22.3090 C   0  0  0  0  0  0  0  0  0  0  0  0
  -24.1367  -20.0720   20.0317 C   0  0  0  0  0  0  0  0  0  0  0  0
  -26.6348  -26.5035   21.6786 C   0  0  0  0  0  0  0  0  0  0  0  0
  -27.6574  -21.7960   16.3311 C   0  0  0  0  0  0  0  0  0  0  0  0
  -27.7296  -20.8265   17.3314 C   0  0  0  0  0  0  0  0  0  0  0  0
  -29.5447  -22.9449   17.3085 C   0  0  0  0  0  0  0  0  0  0  0  0
  -28.7093  -20.9162   18.3202 C   0  0  0  0  0  0  0  0  0  0  0  0
  -24.4872  -11.4164   20.6067 C   0  0  0  0  0  0  0  0  0  0  0  0
  -28.7906  -27.5094   21.1780 C   0  0  0  0  0  0  0  0  0  0  0  0
  -22.5896  -10.7473   21.8207 C   0  0  0  0  0  0  0  0  0  0  0  0
  -21.1099  -10.8158   24.1846 C   0  0  0  0  0  0  0  0  0  0  0  0
  -22.1149  -11.9637   22.3113 C   0  0  0  0  0  0  0  0  0  0  0  0
  -28.1037  -13.6078   20.4800 C   0  0  0  0  0  0  0  0  0  0  0  0
  -30.1845  -14.2436   20.1620 C   0  0  0  0  0  0  0  0  0  0  0  0
  -29.7026  -11.9173   19.3843 C   0  0  0  0  0  0  0  0  0  0  0  0
  -25.0980  -23.5346   21.0061 C   0  0  0  0  0  0  0  0  0  0  0  0
  -23.0328  -25.5282   22.5169 C   0  0  0  0  0  0  0  0  0  0  0  0
  -31.4988  -24.2611   18.1981 C   0  0  0  0  0  0  0  0  0  0  0  0
  -22.4406  -28.6067   23.8655 C   0  0  0  0  0  0  0  0  0  0  0  0
  -29.2613  -20.1271   20.6481 C   0  0  0  0  0  0  0  0  0  0  0  0
  -22.3417  -19.8482   18.2349 C   0  0  0  0  0  0  0  0  0  0  0  0
  -26.4950  -24.3283   22.9489 C   0  0  0  0  0  0  0  0  0  0  0  0
  -25.1330  -26.5723   21.5871 C   0  0  0  0  0  0  0  0  0  0  0  0
  -22.8233  -21.2010   17.7208 C   0  0  0  0  0  0  0  0  0  0  0  0
  -30.8570  -18.0179   23.0319 C   0  0  0  0  0  0  0  0  0  0  0  0
  -23.1345  -22.1211   18.8917 C   0  0  0  0  0  0  0  0  0  0  0  0
  -30.4498  -16.6079   22.5982 C   0  0  0  0  0  0  0  0  0  0  0  0
  -29.7256  -19.0236   22.8256 C   0  0  0  0  0  0  0  0  0  0  0  0
  -28.7479  -17.6373   21.0391 C   0  0  0  0  0  0  0  0  0  0  0  0
  -24.2792  -21.5553   19.7417 C   0  0  1  0  0  0  0  0  0  0  0  0
  -25.0943  -24.1807   22.3626 C   0  0  1  0  0  0  0  0  0  0  0  0
  -29.8769  -16.6017   21.1674 C   0  0  2  0  0  0  0  0  0  0  0  0
  -26.7531  -19.6921   17.3391 C   0  0  0  0  0  0  0  0  0  0  0  0
  -26.9567  -20.6869   14.1944 C   0  0  0  0  0  0  0  0  0  0  0  0
  -20.6465  -29.9518   24.9923 C   0  0  0  0  0  0  0  0  0  0  0  0
  -21.6459  -25.9262   19.8283 C   0  0  0  0  0  0  0  0  0  0  0  0
  -20.5152  -27.9428   20.7889 C   0  0  0  0  0  0  0  0  0  0  0  0
  -20.0961  -25.6910   21.7769 C   0  0  0  0  0  0  0  0  0  0  0  0
  -30.7091  -29.6035   18.8634 C   0  0  0  0  0  0  0  0  0  0  0  0
  -28.6229  -28.2718   18.4429 C   0  0  0  0  0  0  0  0  0  0  0  0
  -24.0634  -28.9315   26.3191 C   0  0  0  0  0  0  0  0  0  0  0  0
  -26.6175  -21.7236   15.2608 C   0  0  0  0  0  0  0  0  0  0  0  0
  -32.2540  -25.5294   17.8190 C   0  0  0  0  0  0  0  0  0  0  0  0
  -31.3829  -26.7870   17.8033 C   0  0  0  0  0  0  0  0  0  0  0  0
  -30.7480  -27.0662   19.1710 C   0  0  0  0  0  0  0  0  0  0  0  0
  -22.3296  -26.8140   22.1544 C   0  0  1  0  0  0  0  0  0  0  0  0
  -21.8356  -29.0253   25.1934 C   0  0  2  0  0  0  0  0  0  0  0  0
  -21.1751  -26.5915   21.1370 C   0  0  0  0  0  0  0  0  0  0  0  0
  -29.9120  -28.3597   19.2608 C   0  0  0  0  0  0  0  0  0  1  0  0
  -28.1488  -14.8553   20.9553 N   0  0  0  0  0  0  0  0  0  0  0  0
  -29.4270  -15.2147   20.7479 N   0  0  0  0  0  0  0  0  0  0  0  0
  -24.4021  -25.4635   22.2227 N   0  0  0  0  0  0  0  0  0  0  0  0
  -29.2360  -18.9642   21.4466 N   0  0  0  0  0  0  0  0  0  0  0  0
  -31.4907  -14.4385   19.8823 N   0  0  0  0  0  0  0  0  0  0  0  0
  -28.7163  -10.9286   19.2664 N   0  0  0  0  0  0  0  0  0  0  0  0
  -30.4662  -24.0190   17.2965 N   0  0  0  0  0  0  0  0  0  0  0  0
  -28.8014  -19.9418   19.3448 N   0  0  0  0  0  0  0  0  0  0  0  0
  -24.4036  -22.3413   20.9494 N   0  0  0  0  0  0  0  0  0  0  0  0
  -21.9081  -27.4178   23.4138 N   0  0  0  0  0  0  0  0  0  0  0  0
  -22.8494  -29.7352   26.0237 N   0  3  0  0  0  0  0  0  0  0  0  0
  -30.8678  -11.6722   18.9897 O   0  0  0  0  0  0  0  0  0  0  0  0
  -25.6860  -24.0792   20.0791 O   0  0  0  0  0  0  0  0  0  0  0  0
  -22.3923  -24.6177   23.0482 O   0  0  0  0  0  0  0  0  0  0  0  0
  -31.7931  -23.5982   19.1872 O   0  0  0  0  0  0  0  0  0  0  0  0
  -23.2970  -29.2702   23.2851 O   0  0  0  0  0  0  0  0  0  0  0  0
  -29.6870  -21.2016   21.0798 O   0  0  0  0  0  0  0  0  0  0  0  0
  -23.3235  -10.7115   20.6469 O   0  0  0  0  0  0  0  0  0  0  0  0
  -29.5178  -28.5170   20.6233 O   0  0  0  0  0  0  0  0  0  1  0  0
  -20.3981  -10.8484   25.3189 F   0  0  0  0  0  0  0  0  0  0  0  0
  -22.3655  -13.1025   21.6509 F   0  0  0  0  0  0  0  0  0  0  0  0
  1  2  1  0  0  0  0
  1  5  2  0  0  0  0
  2  6  2  0  0  0  0
  3  8  2  0  0  0  0
  3 17  1  0  0  0  0
  4  9  1  0  0  0  0
  4 17  2  0  0  0  0
  5 19  1  0  0  0  0
  6 21  1  0  0  0  0
  7 10  2  0  0  0  0
  7 20  1  0  0  0  0
  8 27  1  0  0  0  0
  9 27  2  0  0  0  0
 10 28  1  0  0  0  0
 11 12  2  0  0  0  0
 11 29  1  0  0  0  0
 12 30  1  0  0  0  0
 13 22  1  0  0  0  0
 13 28  2  0  0  0  0
 14 23  1  0  0  0  0
 14 25  2  0  0  0  0
 15 25  1  0  0  0  0
 15 26  2  0  0  0  0
 16 30  2  0  0  0  0
 16 31  1  0  0  0  0
 17 32  1  0  0  0  0
 18 32  1  0  0  0  0
 18 33  2  0  0  0  0
 18 34  1  0  0  0  0
 19 21  2  0  0  0  0
 19 40  1  0  0  0  0
 20 22  2  0  0  0  0
 20 41  1  0  0  0  0
 21 49  1  0  0  0  0
 22 42  1  0  0  0  0
 23 24  2  0  0  0  0
 23 61  1  0  0  0  0
 24 26  1  0  0  0  0
 24 52  1  0  0  0  0
 25 75  1  0  0  0  0
 26 76  1  0  0  0  0
 27 86  1  0  0  0  0
 28 87  1  0  0  0  0
 29 31  2  0  0  0  0
 29 86  1  0  0  0  0
 30 88  1  0  0  0  0
 31 89  1  0  0  0  0
 32 69  2  0  0  0  0
 33 70  1  0  0  0  0
 33 73  1  0  0  0  0
 34 74  1  0  0  0  0
 34 80  2  0  0  0  0
 35 50  1  0  0  0  0
 35 77  1  0  0  0  0
 35 81  2  0  0  0  0
 36 65  1  0  0  0  0
 36 71  1  0  0  0  0
 36 82  2  0  0  0  0
 37 62  1  0  0  0  0
 37 75  1  0  0  0  0
 37 83  2  0  0  0  0
 38 66  1  0  0  0  0
 38 78  1  0  0  0  0
 38 84  2  0  0  0  0
 39 72  1  0  0  0  0
 39 76  1  0  0  0  0
 39 85  2  0  0  0  0
 40 43  1  0  0  0  0
 41 50  1  0  0  0  0
 42 71  1  0  0  0  0
 43 45  1  0  0  0  0
 44 46  1  0  0  0  0
 44 47  1  0  0  0  0
 45 49  1  0  0  0  0
 46 51  1  0  0  0  0
 47 72  1  0  0  0  0
 48 51  1  0  0  0  0
 48 72  1  0  0  0  0
 49 77  1  0  0  0  0
 50 71  1  0  0  0  0
 51 70  1  0  0  0  0
 53 61  1  0  0  0  0
 54 66  1  0  0  0  0
 55 67  1  0  0  0  0
 56 67  1  0  0  0  0
 57 67  1  0  0  0  0
 58 68  1  0  0  0  0
 59 68  1  0  0  0  0
 60 79  1  0  0  0  0
 62 63  1  0  0  0  0
 63 64  1  0  0  0  0
 64 68  1  0  0  0  0
 65 67  1  0  0  0  0
 65 78  1  0  0  0  0
 66 79  1  0  0  0  0
 68 87  1  0  0  0  0
 69 70  1  0  0  0  0
M  CHG  1  79   1
M  ISO  4  39 100  68 101  76 100  87 101
M  END
> <Batch ID>
0141

> <Smiles>
CCc1cc(NC(=O)CCC[101C:1](C)(C)[101O:1]c2ccc3c(c2)CN(C(=O)C(NC(=O)C(C)NC)C(C)(C)C)C(C(=O)NC2CCCc4ccccc42)C3)cc([100NH:0][100C:0](=O)N2CCCC(n3nc(-c4ccc(Oc5ccc(F)cc5F)cc4)c(C(N)=O)c3N)C2)c1C

> <Shape>
0.235

> <Color>
0.045

> <Negative vol penalty>
0.000

$$$$

  -OEChem-04052302543D

 89 97  0     1  0  0  0  0  0999 V2000
  -17.6807  -30.2196   23.5165 C   0  0  0  0  0  0  0  0  0  0  0  0
  -19.0659  -30.3482   23.5083 C   0  0  0  0  0  0  0  0  0  0  0  0
  -26.1015  -13.7570   21.4019 C   0  0  0  0  0  0  0  0  0  0  0  0
  -25.2267  -14.7336   19.3726 C   0  0  0  0  0  0  0  0  0  0  0  0
  -17.0939  -28.9922   23.2112 C   0  0  0  0  0  0  0  0  0  0  0  0
  -19.8652  -29.2491   23.1959 C   0  0  0  0  0  0  0  0  0  0  0  0
  -25.1970  -29.3121   20.1836 C   0  0  0  0  0  0  0  0  0  0  0  0
  -32.2011  -23.3765   15.2712 C   0  0  0  0  0  0  0  0  0  0  0  0
  -24.9519  -12.9763   21.5218 C   0  0  0  0  0  0  0  0  0  0  0  0
  -24.0771  -13.9529   19.4925 C   0  0  0  0  0  0  0  0  0  0  0  0
  -26.5210  -29.2794   20.6194 C   0  0  0  0  0  0  0  0  0  0  0  0
  -23.7129  -10.1411   20.1581 C   0  0  0  0  0  0  0  0  0  0  0  0
  -32.2679  -21.9833   15.2675 C   0  0  0  0  0  0  0  0  0  0  0  0
  -23.8752   -8.7931   20.4773 C   0  0  0  0  0  0  0  0  0  0  0  0
  -26.5667  -26.8912   20.2822 C   0  0  0  0  0  0  0  0  0  0  0  0
  -31.2040  -23.3229   17.4712 C   0  0  0  0  0  0  0  0  0  0  0  0
  -22.5692   -9.1111   22.4848 C   0  0  0  0  0  0  0  0  0  0  0  0
  -26.2389  -14.6358   20.3274 C   0  0  0  0  0  0  0  0  0  0  0  0
  -28.6154  -15.1076   19.5290 C   0  0  0  0  0  0  0  0  0  0  0  0
  -17.8861  -27.8800   22.8855 C   0  0  0  0  0  0  0  0  0  0  0  0
  -24.5435  -28.1310   19.8036 C   0  0  0  0  0  0  0  0  0  0  0  0
  -19.2885  -28.0054   22.8873 C   0  0  0  0  0  0  0  0  0  0  0  0
  -25.2353  -26.9119   19.8395 C   0  0  0  0  0  0  0  0  0  0  0  0
  -31.6692  -24.0464   16.3730 C   0  0  0  0  0  0  0  0  0  0  0  0
  -31.2708  -21.9297   17.4675 C   0  0  0  0  0  0  0  0  0  0  0  0
  -23.9397  -13.0742   20.5671 C   0  0  0  0  0  0  0  0  0  0  0  0
  -27.2051  -28.0685   20.6715 C   0  0  0  0  0  0  0  0  0  0  0  0
  -22.9788  -10.9743   21.0023 C   0  0  0  0  0  0  0  0  0  0  0  0
  -23.3033   -8.2780   21.6406 C   0  0  0  0  0  0  0  0  0  0  0  0
  -31.8027  -21.2599   16.3656 C   0  0  0  0  0  0  0  0  0  0  0  0
  -22.4069  -10.4593   22.1656 C   0  0  0  0  0  0  0  0  0  0  0  0
  -27.4260  -15.4430   20.2033 C   0  0  0  0  0  0  0  0  0  0  0  0
  -29.4288  -16.2006   19.7033 C   0  0  0  0  0  0  0  0  0  0  0  0
  -28.9546  -13.9149   18.8092 C   0  0  0  0  0  0  0  0  0  0  0  0
  -22.0005  -26.5377   20.8516 C   0  0  0  0  0  0  0  0  0  0  0  0
  -22.5567  -24.7034   18.2347 C   0  0  0  0  0  0  0  0  0  0  0  0
  -24.7822  -23.5790   15.9046 C   0  0  0  0  0  0  0  0  0  0  0  0
  -30.2412  -21.7088   19.7560 C   0  0  0  0  0  0  0  0  0  0  0  0
  -17.2078  -26.5617   22.6087 C   0  0  0  0  0  0  0  0  0  0  0  0
  -23.1236  -28.1868   19.3105 C   0  0  0  0  0  0  0  0  0  0  0  0
  -24.5853  -25.6187   19.4231 C   0  0  0  0  0  0  0  0  0  0  0  0
  -18.1140  -25.5427   21.9225 C   0  0  0  0  0  0  0  0  0  0  0  0
  -28.9231  -20.2356   22.7174 C   0  0  0  0  0  0  0  0  0  0  0  0
  -19.4738  -25.4884   22.6115 C   0  0  0  0  0  0  0  0  0  0  0  0
  -28.5139  -18.8298   22.2718 C   0  0  0  0  0  0  0  0  0  0  0  0
  -28.6646  -21.2738   21.6270 C   0  0  0  0  0  0  0  0  0  0  0  0
  -28.8427  -19.5533   19.8727 C   0  0  0  0  0  0  0  0  0  0  0  0
  -20.1885  -26.8426   22.5292 C   0  0  1  0  0  0  0  0  0  0  0  0
  -22.3945  -26.8527   19.4362 C   0  0  1  0  0  0  0  0  0  0  0  0
  -29.1444  -18.4632   20.9140 C   0  0  2  0  0  0  0  0  0  0  0  0
  -24.9519  -22.0591   13.9149 C   0  0  0  0  0  0  0  0  0  0  0  0
  -22.5646  -22.2805   20.0893 C   0  0  0  0  0  0  0  0  0  0  0  0
  -23.6565  -20.9691   18.2572 C   0  0  0  0  0  0  0  0  0  0  0  0
  -21.3785  -21.9269   17.9161 C   0  0  0  0  0  0  0  0  0  0  0  0
  -31.6117  -30.0950   20.4428 C   0  0  0  0  0  0  0  0  0  0  0  0
  -31.2959  -28.1609   21.9988 C   0  0  0  0  0  0  0  0  0  0  0  0
  -30.2152  -28.0347   15.9728 C   0  0  0  0  0  0  0  0  0  0  0  0
  -32.4990  -28.2566   16.9791 C   0  0  0  0  0  0  0  0  0  0  0  0
  -25.5439  -25.8121   14.1179 C   0  0  0  0  0  0  0  0  0  0  0  0
  -31.0717  -26.2075   17.4676 C   0  0  0  0  0  0  0  0  0  0  0  0
  -29.2924  -29.1936   20.8545 C   0  0  0  0  0  0  0  0  0  1  0  0
  -30.9612  -27.8281   19.5386 C   0  0  0  0  0  0  0  0  0  0  0  0
  -23.3802  -23.4710   17.9484 C   0  0  1  0  0  0  0  0  0  0  0  0
  -24.6934  -23.4797   14.3924 C   0  0  2  0  0  0  0  0  0  0  0  0
  -22.7569  -22.1858   18.5625 C   0  0  0  0  0  0  0  0  0  0  0  0
  -30.7845  -28.8222   20.7060 C   0  0  0  0  0  0  0  0  0  0  0  0
  -31.0832  -27.7188   17.1942 C   0  0  0  0  0  0  0  0  0  0  0  0
  -27.4752  -16.6541   20.7643 N   0  0  0  0  0  0  0  0  0  0  0  0
  -28.7054  -17.0893   20.4430 N   0  0  0  0  0  0  0  0  0  0  0  0
  -23.1936  -25.7242   18.9543 N   0  0  0  0  0  0  0  0  0  0  0  0
  -29.2951  -20.8617   20.3710 N   0  0  0  0  0  0  0  0  0  0  0  0
  -30.6850  -16.4784   19.2946 N   0  0  0  0  0  0  0  0  0  0  0  0
  -28.0020  -12.8901   18.7276 N   0  0  0  0  0  0  0  0  0  0  0  0
  -30.7976  -21.1970   18.5842 N   0  0  0  0  0  0  0  0  0  0  0  0
  -31.6033  -25.4328   16.3769 N   0  0  0  0  0  0  0  0  0  0  0  0
  -20.7622  -27.0323   21.2142 N   0  0  0  0  0  0  0  0  0  0  0  0
  -23.5488  -23.4201   16.5001 N   0  0  0  0  0  0  0  0  0  0  0  0
  -25.6954  -24.3796   13.7544 N   0  3  0  0  0  0  0  0  0  0  0  0
  -30.0754  -13.7557   18.2689 O   0  0  0  0  0  0  0  0  0  0  0  0
  -22.7628  -25.8924   21.5616 O   0  0  0  0  0  0  0  0  0  0  0  0
  -21.3934  -24.7611   17.8285 O   0  0  0  0  0  0  0  0  0  0  0  0
  -25.8405  -23.7741   16.4983 O   0  0  0  0  0  0  0  0  0  0  0  0
  -30.5561  -22.7953   20.2483 O   0  0  0  0  0  0  0  0  0  0  0  0
  -22.8179  -12.3123   20.6836 O   0  0  0  0  0  0  0  0  0  0  0  0
  -28.4972  -28.0337   21.0970 O   0  0  0  0  0  0  0  0  0  1  0  0
  -30.5272  -28.3993   18.3109 O   0  0  0  0  0  0  0  0  0  0  0  0
  -23.4580   -6.9831   21.9462 F   0  0  0  0  0  0  0  0  0  0  0  0
  -31.8718  -19.9210   16.3509 F   0  0  0  0  0  0  0  0  0  0  0  0
  -21.6995  -11.2545   22.9799 F   0  0  0  0  0  0  0  0  0  0  0  0
  1  2  1  0  0  0  0
  1  5  2  0  0  0  0
  2  6  2  0  0  0  0
  3  9  2  0  0  0  0
  3 18  1  0  0  0  0
  4 10  1  0  0  0  0
  4 18  2  0  0  0  0
  5 20  1  0  0  0  0
  6 22  1  0  0  0  0
  7 11  2  0  0  0  0
  7 21  1  0  0  0  0
  8 13  2  0  0  0  0
  8 24  1  0  0  0  0
  9 26  1  0  0  0  0
 10 26  2  0  0  0  0
 11 27  1  0  0  0  0
 12 14  2  0  0  0  0
 12 28  1  0  0  0  0
 13 30  1  0  0  0  0
 14 29  1  0  0  0  0
 15 23  1  0  0  0  0
 15 27  2  0  0  0  0
 16 24  2  0  0  0  0
 16 25  1  0  0  0  0
 17 29  2  0  0  0  0
 17 31  1  0  0  0  0
 18 32  1  0  0  0  0
 19 32  1  0  0  0  0
 19 33  2  0  0  0  0
 19 34  1  0  0  0  0
 20 22  2  0  0  0  0
 20 39  1  0  0  0  0
 21 23  2  0  0  0  0
 21 40  1  0  0  0  0
 22 48  1  0  0  0  0
 23 41  1  0  0  0  0
 24 75  1  0  0  0  0
 25 30  2  0  0  0  0
 25 74  1  0  0  0  0
 26 84  1  0  0  0  0
 27 85  1  0  0  0  0
 28 31  2  0  0  0  0
 28 84  1  0  0  0  0
 29 87  1  0  0  0  0
 30 88  1  0  0  0  0
 31 89  1  0  0  0  0
 32 68  2  0  0  0  0
 33 69  1  0  0  0  0
 33 72  1  0  0  0  0
 34 73  1  0  0  0  0
 34 79  2  0  0  0  0
 35 49  1  0  0  0  0
 35 76  1  0  0  0  0
 35 80  2  0  0  0  0
 36 63  1  0  0  0  0
 36 70  1  0  0  0  0
 36 81  2  0  0  0  0
 37 64  1  0  0  0  0
 37 77  1  0  0  0  0
 37 82  2  0  0  0  0
 38 71  1  0  0  0  0
 38 74  1  0  0  0  0
 38 83  2  0  0  0  0
 39 42  1  0  0  0  0
 40 49  1  0  0  0  0
 41 70  1  0  0  0  0
 42 44  1  0  0  0  0
 43 45  1  0  0  0  0
 43 46  1  0  0  0  0
 44 48  1  0  0  0  0
 45 50  1  0  0  0  0
 46 71  1  0  0  0  0
 47 50  1  0  0  0  0
 47 71  1  0  0  0  0
 48 76  1  0  0  0  0
 49 70  1  0  0  0  0
 50 69  1  0  0  0  0
 51 64  1  0  0  0  0
 52 65  1  0  0  0  0
 53 65  1  0  0  0  0
 54 65  1  0  0  0  0
 55 66  1  0  0  0  0
 56 66  1  0  0  0  0
 57 67  1  0  0  0  0
 58 67  1  0  0  0  0
 59 78  1  0  0  0  0
 60 67  1  0  0  0  0
 60 75  1  0  0  0  0
 61 66  1  0  0  0  0
 61 85  1  0  0  0  0
 62 66  1  0  0  0  0
 62 86  1  0  0  0  0
 63 65  1  0  0  0  0
 63 77  1  0  0  0  0
 64 78  1  0  0  0  0
 67 86  1  0  0  0  0
 68 69  1  0  0  0  0
M  CHG  1  78   1
M  ISO  4  38 100  61 101  74 100  85 101
M  END
> <Batch ID>
0141

> <Smiles>
CNC(C)C(=O)NC(C(=O)N1Cc2cc([101O:1][101CH2:1]C(C)(C)COC(C)(C)CNc3ccc(F)c([100NH:0][100C:0](=O)N4CCCC(n5nc(-c6ccc(Oc7ccc(F)cc7F)cc6)c(C(N)=O)c5N)C4)c3)ccc2CC1C(=O)NC1CCCc2ccccc21)C(C)(C)C

> <Shape>
0.273

> <Color>
0.056

> <Negative vol penalty>
0.000

$$$$

  -OEChem-04052302543D

 89 97  0     1  0  0  0  0  0999 V2000
  -20.0486  -30.4867   24.1568 C   0  0  0  0  0  0  0  0  0  0  0  0
  -21.3710  -30.0939   23.9768 C   0  0  0  0  0  0  0  0  0  0  0  0
  -27.8622  -12.7789   22.6524 C   0  0  0  0  0  0  0  0  0  0  0  0
  -26.7111  -13.2252   20.5757 C   0  0  0  0  0  0  0  0  0  0  0  0
  -19.0118  -29.6408   23.7648 C   0  0  0  0  0  0  0  0  0  0  0  0
  -21.6574  -28.8544   23.4058 C   0  0  0  0  0  0  0  0  0  0  0  0
  -25.3117  -29.1238   19.9103 C   0  0  0  0  0  0  0  0  0  0  0  0
  -30.1940  -24.6750   20.1580 C   0  0  0  0  0  0  0  0  0  0  0  0
  -29.2262  -23.7530   20.5564 C   0  0  0  0  0  0  0  0  0  0  0  0
  -27.3023  -11.5019   22.6884 C   0  0  0  0  0  0  0  0  0  0  0  0
  -26.1512  -11.9482   20.6116 C   0  0  0  0  0  0  0  0  0  0  0  0
  -26.6258  -29.2084   20.3683 C   0  0  0  0  0  0  0  0  0  0  0  0
  -23.6109  -10.3857   22.2041 C   0  0  0  0  0  0  0  0  0  0  0  0
  -22.2511  -10.2660   21.9175 C   0  0  0  0  0  0  0  0  0  0  0  0
  -30.6948  -23.3143   18.2254 C   0  0  0  0  0  0  0  0  0  0  0  0
  -26.9153  -26.8494   19.9553 C   0  0  0  0  0  0  0  0  0  0  0  0
  -22.7711   -8.8172   20.0553 C   0  0  0  0  0  0  0  0  0  0  0  0
  -27.5666  -13.6406   21.5961 C   0  0  0  0  0  0  0  0  0  0  0  0
  -29.7270  -22.3922   18.6239 C   0  0  0  0  0  0  0  0  0  0  0  0
  -29.3630  -15.3380   20.9641 C   0  0  0  0  0  0  0  0  0  0  0  0
  -19.2857  -28.3945   23.1798 C   0  0  0  0  0  0  0  0  0  0  0  0
  -24.7852  -27.8970   19.4810 C   0  0  0  0  0  0  0  0  0  0  0  0
  -20.6233  -27.9905   23.0068 C   0  0  0  0  0  0  0  0  0  0  0  0
  -25.5950  -26.7524   19.4900 C   0  0  0  0  0  0  0  0  0  0  0  0
  -30.9283  -24.4557   18.9924 C   0  0  0  0  0  0  0  0  0  0  0  0
  -28.9927  -22.6116   19.7894 C   0  0  0  0  0  0  0  0  0  0  0  0
  -26.4468  -11.0865   21.6680 C   0  0  0  0  0  0  0  0  0  0  0  0
  -27.4269  -28.0705   20.3935 C   0  0  0  0  0  0  0  0  0  0  0  0
  -24.5508   -9.7212   21.4163 C   0  0  0  0  0  0  0  0  0  0  0  0
  -21.8312   -9.4817   20.8431 C   0  0  0  0  0  0  0  0  0  0  0  0
  -24.1309   -8.9369   20.3419 C   0  0  0  0  0  0  0  0  0  0  0  0
  -28.1442  -14.9601   21.5587 C   0  0  0  0  0  0  0  0  0  0  0  0
  -29.4568  -16.6876   21.2012 C   0  0  0  0  0  0  0  0  0  0  0  0
  -29.5072  -21.2097   17.7999 C   0  0  0  0  0  0  0  0  0  0  0  0
  -30.3244  -14.5404   20.2603 C   0  0  0  0  0  0  0  0  0  0  0  0
  -22.3996  -26.0240   20.4318 C   0  0  0  0  0  0  0  0  0  0  0  0
  -30.3885  -27.4407   18.3162 C   0  0  0  0  0  0  0  0  0  0  0  0
  -23.1743  -24.3436   17.7676 C   0  0  0  0  0  0  0  0  0  0  0  0
  -25.5347  -23.5257   15.4424 C   0  0  0  0  0  0  0  0  0  0  0  0
  -27.1997  -21.7755   21.3491 C   0  0  0  0  0  0  0  0  0  0  0  0
  -18.1317  -27.4943   22.8154 C   0  0  0  0  0  0  0  0  0  0  0  0
  -23.3741  -27.8278   18.9647 C   0  0  0  0  0  0  0  0  0  0  0  0
  -25.0838  -25.4156   19.0206 C   0  0  0  0  0  0  0  0  0  0  0  0
  -18.5202  -26.3567   21.8745 C   0  0  0  0  0  0  0  0  0  0  0  0
  -26.7153  -19.7030   24.2034 C   0  0  0  0  0  0  0  0  0  0  0  0
  -19.7993  -25.6791   22.3557 C   0  0  0  0  0  0  0  0  0  0  0  0
  -27.1442  -18.3154   23.7209 C   0  0  0  0  0  0  0  0  0  0  0  0
  -26.0013  -20.4896   23.1056 C   0  0  0  0  0  0  0  0  0  0  0  0
  -27.1636  -19.2037   21.3550 C   0  0  0  0  0  0  0  0  0  0  0  0
  -20.9744  -26.6642   22.3682 C   0  0  1  0  0  0  0  0  0  0  0  0
  -22.7805  -26.4242   19.0346 C   0  0  1  0  0  0  0  0  0  0  0  0
  -27.9445  -18.3983   22.4063 C   0  0  2  0  0  0  0  0  0  0  0  0
  -29.7607  -21.3379   16.3276 C   0  0  0  0  0  0  0  0  0  0  0  0
  -25.8845  -22.0984   13.4082 C   0  0  0  0  0  0  0  0  0  0  0  0
  -30.0767  -30.0988   21.1063 C   0  0  0  0  0  0  0  0  0  0  0  0
  -32.6594  -27.5223   17.2275 C   0  0  0  0  0  0  0  0  0  0  0  0
  -30.9358  -25.9789   16.3336 C   0  0  0  0  0  0  0  0  0  0  0  0
  -23.3980  -21.8722   19.5431 C   0  0  0  0  0  0  0  0  0  0  0  0
  -24.6420  -20.7388   17.6895 C   0  0  0  0  0  0  0  0  0  0  0  0
  -22.2848  -21.4759   17.3390 C   0  0  0  0  0  0  0  0  0  0  0  0
  -26.0949  -25.8826   13.7423 C   0  0  0  0  0  0  0  0  0  0  0  0
  -31.9773  -25.4556   18.5613 C   0  0  0  0  0  0  0  0  0  0  0  0
  -30.7575  -28.2110   19.5842 C   0  0  0  0  0  0  0  0  0  0  0  0
  -24.1212  -23.2097   17.4564 C   0  0  1  0  0  0  0  0  0  0  0  0
  -25.4782  -23.4692   13.9264 C   0  0  2  0  0  0  0  0  0  0  0  0
  -29.5888  -29.0284   20.1389 C   0  0  1  0  0  0  0  0  0  1  0  0
  -31.4915  -26.5992   17.6304 C   0  0  0  0  0  0  0  0  0  0  0  0
  -23.6208  -21.8488   18.0177 C   0  0  0  0  0  0  0  0  0  0  0  0
  -27.5094  -15.9867   22.1306 N   0  0  0  0  0  0  0  0  0  0  0  0
  -28.3325  -17.0230   21.8966 N   0  0  0  0  0  0  0  0  0  0  0  0
  -23.6955  -25.3979   18.5309 N   0  0  0  0  0  0  0  0  0  0  0  0
  -26.8206  -20.5298   21.8923 N   0  0  0  0  0  0  0  0  0  0  0  0
  -30.3906  -17.6084   20.8806 N   0  0  0  0  0  0  0  0  0  0  0  0
  -30.0718  -13.1704   20.1068 N   0  0  0  0  0  0  0  0  0  0  0  0
  -28.0050  -21.6885   20.2140 N   0  0  0  0  0  0  0  0  0  0  0  0
  -21.4793  -26.8656   21.0270 N   0  0  0  0  0  0  0  0  0  0  0  0
  -24.3149  -23.2248   16.0105 N   0  0  0  0  0  0  0  0  0  0  0  0
  -26.3942  -24.4854   13.3357 N   0  3  0  0  0  0  0  0  0  0  0  0
  -29.1254  -20.1190   18.2235 O   0  0  0  0  0  0  0  0  0  0  0  0
  -31.3841  -15.0251   19.7961 O   0  0  0  0  0  0  0  0  0  0  0  0
  -22.9022  -25.0247   20.9323 O   0  0  0  0  0  0  0  0  0  0  0  0
  -29.2480  -27.4963   17.8500 O   0  0  0  0  0  0  0  0  0  0  0  0
  -22.0171  -24.2989   17.3428 O   0  0  0  0  0  0  0  0  0  0  0  0
  -26.5595  -23.8050   16.0608 O   0  0  0  0  0  0  0  0  0  0  0  0
  -26.8593  -22.8410   21.8695 O   0  0  0  0  0  0  0  0  0  0  0  0
  -25.9005   -9.8404   21.7026 O   0  0  0  0  0  0  0  0  0  0  0  0
  -28.7098  -28.1502   20.8406 O   0  0  0  0  0  0  0  0  0  1  0  0
  -20.5252   -9.3656   20.5689 F   0  0  0  0  0  0  0  0  0  0  0  0
  -25.0292   -8.2952   19.5822 F   0  0  0  0  0  0  0  0  0  0  0  0
  1  2  1  0  0  0  0
  1  5  2  0  0  0  0
  2  6  2  0  0  0  0
  3 10  2  0  0  0  0
  3 18  1  0  0  0  0
  4 11  1  0  0  0  0
  4 18  2  0  0  0  0
  5 21  1  0  0  0  0
  6 23  1  0  0  0  0
  7 12  2  0  0  0  0
  7 22  1  0  0  0  0
  8  9  2  0  0  0  0
  8 25  1  0  0  0  0
  9 26  1  0  0  0  0
 10 27  1  0  0  0  0
 11 27  2  0  0  0  0
 12 28  1  0  0  0  0
 13 14  2  0  0  0  0
 13 29  1  0  0  0  0
 14 30  1  0  0  0  0
 15 19  1  0  0  0  0
 15 25  2  0  0  0  0
 16 24  1  0  0  0  0
 16 28  2  0  0  0  0
 17 30  2  0  0  0  0
 17 31  1  0  0  0  0
 18 32  1  0  0  0  0
 19 26  2  0  0  0  0
 19 34  1  0  0  0  0
 20 32  1  0  0  0  0
 20 33  2  0  0  0  0
 20 35  1  0  0  0  0
 21 23  2  0  0  0  0
 21 41  1  0  0  0  0
 22 24  2  0  0  0  0
 22 42  1  0  0  0  0
 23 50  1  0  0  0  0
 24 43  1  0  0  0  0
 25 62  1  0  0  0  0
 26 75  1  0  0  0  0
 27 86  1  0  0  0  0
 28 87  1  0  0  0  0
 29 31  2  0  0  0  0
 29 86  1  0  0  0  0
 30 88  1  0  0  0  0
 31 89  1  0  0  0  0
 32 69  2  0  0  0  0
 33 70  1  0  0  0  0
 33 73  1  0  0  0  0
 34 53  1  0  0  0  0
 34 79  2  0  0  0  0
 35 74  1  0  0  0  0
 35 80  2  0  0  0  0
 36 51  1  0  0  0  0
 36 76  1  0  0  0  0
 36 81  2  0  0  0  0
 37 63  1  0  0  0  0
 37 67  1  0  0  0  0
 37 82  2  0  0  0  0
 38 64  1  0  0  0  0
 38 71  1  0  0  0  0
 38 83  2  0  0  0  0
 39 65  1  0  0  0  0
 39 77  1  0  0  0  0
 39 84  2  0  0  0  0
 40 72  1  0  0  0  0
 40 75  1  0  0  0  0
 40 85  2  0  0  0  0
 41 44  1  0  0  0  0
 42 51  1  0  0  0  0
 43 71  1  0  0  0  0
 44 46  1  0  0  0  0
 45 47  1  0  0  0  0
 45 48  1  0  0  0  0
 46 50  1  0  0  0  0
 47 52  1  0  0  0  0
 48 72  1  0  0  0  0
 49 52  1  0  0  0  0
 49 72  1  0  0  0  0
 50 76  1  0  0  0  0
 51 71  1  0  0  0  0
 52 70  1  0  0  0  0
 54 65  1  0  0  0  0
 55 66  1  0  0  0  0
 56 67  1  0  0  0  0
 57 67  1  0  0  0  0
 58 68  1  0  0  0  0
 59 68  1  0  0  0  0
 60 68  1  0  0  0  0
 61 78  1  0  0  0  0
 62 67  1  0  0  0  0
 63 66  1  0  0  0  0
 64 68  1  0  0  0  0
 64 77  1  0  0  0  0
 65 78  1  0  0  0  0
 66 87  1  0  0  0  0
 69 70  1  0  0  0  0
M  CHG  1  78   1
M  ISO  4  40 100  66 101  75 100  87 101
M  END
> <Batch ID>
0141

> <Smiles>
CNC(C)C(=O)NC(C(=O)N1Cc2cc([101O:1][101CH:1](C)CC(=O)C(C)(C)Cc3ccc([100NH:0][100C:0](=O)N4CCCC(n5nc(-c6ccc(Oc7ccc(F)cc7F)cc6)c(C(N)=O)c5N)C4)c(C(C)=O)c3)ccc2CC1C(=O)NC1CCCc2ccccc21)C(C)(C)C

> <Shape>
0.268

> <Color>
0.071

> <Negative vol penalty>
0.000

$$$$

  -OEChem-04052302543D

 87 96  0     1  0  0  0  0  0999 V2000
  -29.8576  -35.8456   19.9986 C   0  0  0  0  0  0  0  0  0  0  0  0
  -29.8432  -34.4803   20.2657 C   0  0  0  0  0  0  0  0  0  0  0  0
  -23.1336  -16.7722   20.0824 C   0  0  0  0  0  0  0  0  0  0  0  0
  -24.6500  -17.2804   21.8933 C   0  0  0  0  0  0  0  0  0  0  0  0
  -28.8670  -36.6695   20.5312 C   0  0  0  0  0  0  0  0  0  0  0  0
  -28.8387  -33.9384   21.0667 C   0  0  0  0  0  0  0  0  0  0  0  0
  -26.9218  -29.6607   19.1504 C   0  0  0  0  0  0  0  0  0  0  0  0
  -22.4959  -17.9981   20.2724 C   0  0  0  0  0  0  0  0  0  0  0  0
  -24.0122  -18.5063   22.0833 C   0  0  0  0  0  0  0  0  0  0  0  0
  -27.6715  -28.4969   19.3158 C   0  0  0  0  0  0  0  0  0  0  0  0
  -23.0510  -21.2416   19.4951 C   0  0  0  0  0  0  0  0  0  0  0  0
  -22.7587  -22.0026   18.3633 C   0  0  0  0  0  0  0  0  0  0  0  0
  -26.2644  -27.8610   21.1691 C   0  0  0  0  0  0  0  0  0  0  0  0
  -26.9040  -20.5517   16.7787 C   0  0  0  0  0  0  0  0  0  0  0  0
  -27.3862  -18.2159   16.3939 C   0  0  0  0  0  0  0  0  0  0  0  0
  -28.1757  -19.2970   18.4051 C   0  0  0  0  0  0  0  0  0  0  0  0
  -20.4071  -21.9129   18.9103 C   0  0  0  0  0  0  0  0  0  0  0  0
  -24.2107  -16.4133   20.8929 C   0  0  0  0  0  0  0  0  0  0  0  0
  -24.2938  -13.8657   20.7914 C   0  0  0  0  0  0  0  0  0  0  0  0
  -27.8443  -36.1358   21.3312 C   0  0  0  0  0  0  0  0  0  0  0  0
  -25.8427  -29.9392   20.0016 C   0  0  0  0  0  0  0  0  0  0  0  0
  -27.8342  -34.7561   21.6117 C   0  0  0  0  0  0  0  0  0  0  0  0
  -25.5011  -29.0278   21.0109 C   0  0  0  0  0  0  0  0  0  0  0  0
  -26.8016  -19.4128   15.9800 C   0  0  0  0  0  0  0  0  0  0  0  0
  -27.5911  -20.4939   17.9912 C   0  0  0  0  0  0  0  0  0  0  0  0
  -28.0733  -18.1580   17.6065 C   0  0  0  0  0  0  0  0  0  0  0  0
  -22.9352  -18.8651   21.2728 C   0  0  0  0  0  0  0  0  0  0  0  0
  -27.3447  -27.5983   20.3270 C   0  0  0  0  0  0  0  0  0  0  0  0
  -22.0213  -20.8163   20.3345 C   0  0  0  0  0  0  0  0  0  0  0  0
  -21.4367  -22.3382   18.0708 C   0  0  0  0  0  0  0  0  0  0  0  0
  -20.6994  -21.1519   20.0421 C   0  0  0  0  0  0  0  0  0  0  0  0
  -24.8695  -15.1469   20.6975 C   0  0  0  0  0  0  0  0  0  0  0  0
  -25.3283  -13.0037   20.5207 C   0  0  0  0  0  0  0  0  0  0  0  0
  -22.9445  -13.4885   21.0959 C   0  0  0  0  0  0  0  0  0  0  0  0
  -25.1594  -32.2494   22.0752 C   0  0  0  0  0  0  0  0  0  0  0  0
  -22.3001  -30.7258   22.2352 C   0  0  0  0  0  0  0  0  0  0  0  0
  -21.1386  -27.3123   22.3609 C   0  0  0  0  0  0  0  0  0  0  0  0
  -29.3834  -16.7141   19.2017 C   0  0  0  0  0  0  0  0  0  0  0  0
  -26.8221  -37.0733   21.9236 C   0  0  0  0  0  0  0  0  0  0  0  0
  -25.0274  -31.1859   19.7932 C   0  0  0  0  0  0  0  0  0  0  0  0
  -24.3394  -29.2703   21.9384 C   0  0  0  0  0  0  0  0  0  0  0  0
  -25.5798  -36.3629   22.4550 C   0  0  0  0  0  0  0  0  0  0  0  0
  -29.1962  -14.2261   21.8882 C   0  0  0  0  0  0  0  0  0  0  0  0
  -25.9753  -35.1526   23.2950 C   0  0  0  0  0  0  0  0  0  0  0  0
  -28.6320  -12.9849   21.2082 C   0  0  0  0  0  0  0  0  0  0  0  0
  -27.8943  -24.0875   18.9074 C   0  0  0  0  0  0  0  0  0  0  0  0
  -30.0280  -15.0476   20.9149 C   0  0  0  0  0  0  0  0  0  0  0  0
  -28.3557  -22.8093   18.2116 C   0  0  0  0  0  0  0  0  0  0  0  0
  -27.7620  -21.4883   20.2496 C   0  0  0  0  0  0  0  0  0  0  0  0
  -28.6213  -14.2707   19.0080 C   0  0  0  0  0  0  0  0  0  0  0  0
  -26.7470  -34.1270   22.4558 C   0  0  1  0  0  0  0  0  0  0  0  0
  -24.2676  -31.6189   21.0432 C   0  0  1  0  0  0  0  0  0  0  0  0
  -27.3008  -22.7737   20.9661 C   0  0  2  0  0  0  0  0  0  0  0  0
  -27.8303  -13.3315   19.9443 C   0  0  2  0  0  0  0  0  0  0  0  0
  -28.0416  -24.0432   20.4467 C   0  0  1  0  0  0  0  0  0  0  0  0
  -26.0670  -19.4748   14.6836 C   0  0  0  0  0  0  0  0  0  0  0  0
  -27.4000  -22.5634   22.4828 C   0  0  0  0  0  0  0  0  0  0  0  0
  -29.5348  -24.0572   20.8329 C   0  0  0  0  0  0  0  0  0  0  0  0
  -18.9649  -26.3002   21.6204 C   0  0  0  0  0  0  0  0  0  0  0  0
  -21.4482  -31.1503   25.1342 C   0  0  0  0  0  0  0  0  0  0  0  0
  -20.2419  -28.9590   25.0275 C   0  0  0  0  0  0  0  0  0  0  0  0
  -19.5584  -30.8313   23.5276 C   0  0  0  0  0  0  0  0  0  0  0  0
  -22.5114  -25.3455   20.6271 C   0  0  0  0  0  0  0  0  0  0  0  0
  -27.3955  -25.3232   21.0179 C   0  0  0  0  0  0  0  0  0  1  0  0
  -21.7277  -29.6126   23.0791 C   0  0  1  0  0  0  0  0  0  0  0  0
  -20.4197  -26.5558   21.2585 C   0  0  2  0  0  0  0  0  0  0  0  0
  -20.7719  -30.1398   24.1863 C   0  0  0  0  0  0  0  0  0  0  0  0
  -26.1690  -15.1071   20.3913 N   0  0  0  0  0  0  0  0  0  0  0  0
  -26.4184  -13.7904   20.2905 N   0  0  0  0  0  0  0  0  0  0  0  0
  -27.6938  -21.6383   18.7933 N   0  0  2  0  0  0  0  0  0  0  0  0
  -23.5766  -30.5064   21.6984 N   0  0  0  0  0  0  0  0  0  0  0  0
  -29.2889  -15.3902   19.6975 N   0  0  0  0  0  0  0  0  0  0  0  0
  -25.4027  -11.6572   20.4596 N   0  0  0  0  0  0  0  0  0  0  0  0
  -22.5971  -13.2741   22.4367 N   0  0  0  0  0  0  0  0  0  0  0  0
  -28.6666  -16.9419   18.0267 N   0  0  0  0  0  0  0  0  0  0  0  0
  -25.8377  -33.3663   21.6258 N   0  0  0  0  0  0  0  0  0  0  0  0
  -21.1064  -28.6746   22.1504 N   0  0  0  0  0  0  0  0  0  0  0  0
  -21.0811  -25.2427   21.0150 N   0  3  0  0  0  0  0  0  0  0  0  0
  -22.0768  -13.3298   20.2040 O   0  0  0  0  0  0  0  0  0  0  0  0
  -25.2260  -31.7597   23.1966 O   0  0  0  0  0  0  0  0  0  0  0  0
  -21.6361  -31.7493   22.0531 O   0  0  0  0  0  0  0  0  0  0  0  0
  -21.6719  -26.7511   23.3154 O   0  0  0  0  0  0  0  0  0  0  0  0
  -30.0657  -17.5734   19.7656 O   0  0  0  0  0  0  0  0  0  0  0  0
  -22.3132  -20.0615   21.4583 O   0  0  0  0  0  0  0  0  0  0  0  0
  -28.0752  -26.4619   20.4910 O   0  0  0  0  0  0  0  0  0  1  0  0
  -21.1563  -23.0703   16.9847 F   0  0  0  0  0  0  0  0  0  0  0  0
  -19.7061  -20.7472   20.8455 F   0  0  0  0  0  0  0  0  0  0  0  0
  1  2  1  0  0  0  0
  1  5  2  0  0  0  0
  2  6  2  0  0  0  0
  3  8  2  0  0  0  0
  3 18  1  0  0  0  0
  4  9  1  0  0  0  0
  4 18  2  0  0  0  0
  5 20  1  0  0  0  0
  6 22  1  0  0  0  0
  7 10  2  0  0  0  0
  7 21  1  0  0  0  0
  8 27  1  0  0  0  0
  9 27  2  0  0  0  0
 10 28  1  0  0  0  0
 11 12  2  0  0  0  0
 11 29  1  0  0  0  0
 12 30  1  0  0  0  0
 13 23  1  0  0  0  0
 13 28  2  0  0  0  0
 14 24  2  0  0  0  0
 14 25  1  0  0  0  0
 15 24  1  0  0  0  0
 15 26  2  0  0  0  0
 16 25  2  0  0  0  0
 16 26  1  0  0  0  0
 17 30  2  0  0  0  0
 17 31  1  0  0  0  0
 18 32  1  0  0  0  0
 19 32  1  0  0  0  0
 19 33  2  0  0  0  0
 19 34  1  0  0  0  0
 20 22  2  0  0  0  0
 20 39  1  0  0  0  0
 21 23  2  0  0  0  0
 21 40  1  0  0  0  0
 22 51  1  0  0  0  0
 23 41  1  0  0  0  0
 24 56  1  0  0  0  0
 25 70  1  0  0  0  0
 26 75  1  0  0  0  0
 27 84  1  0  0  0  0
 28 85  1  0  0  0  0
 29 31  2  0  0  0  0
 29 84  1  0  0  0  0
 30 86  1  0  0  0  0
 31 87  1  0  0  0  0
 32 68  2  0  0  0  0
 33 69  1  0  0  0  0
 33 73  1  0  0  0  0
 34 74  1  0  0  0  0
 34 79  2  0  0  0  0
 35 52  1  0  0  0  0
 35 76  1  0  0  0  0
 35 80  2  0  0  0  0
 36 65  1  0  0  0  0
 36 71  1  0  0  0  0
 36 81  2  0  0  0  0
 37 66  1  0  0  0  0
 37 77  1  0  0  0  0
 37 82  2  0  0  0  0
 38 72  1  0  0  0  0
 38 75  1  0  0  0  0
 38 83  2  0  0  0  0
 39 42  1  0  0  0  0
 40 52  1  0  0  0  0
 41 71  1  0  0  0  0
 42 44  1  0  0  0  0
 43 45  1  0  0  0  0
 43 47  1  0  0  0  0
 44 51  1  0  0  0  0
 45 54  1  0  0  0  0
 46 48  1  0  0  0  0
 46 55  1  0  0  0  0
 47 72  1  0  0  0  0
 48 70  1  0  0  0  0
 49 53  1  0  0  0  0
 49 70  1  0  0  0  0
 50 54  1  0  0  0  0
 50 72  1  0  0  0  0
 51 76  1  0  0  0  0
 52 71  1  0  0  0  0
 53 55  1  0  0  0  0
 53 57  1  0  0  0  0
 54 69  1  0  0  0  0
 55 58  1  0  0  0  0
 55 64  1  0  0  0  0
 59 66  1  0  0  0  0
 60 67  1  0  0  0  0
 61 67  1  0  0  0  0
 62 67  1  0  0  0  0
 63 78  1  0  0  0  0
 64 85  1  0  0  0  0
 65 67  1  0  0  0  0
 65 77  1  0  0  0  0
 66 78  1  0  0  0  0
 68 69  1  0  0  0  0
M  CHG  1  78   1
M  ISO  4  38 100  64 101  75 100  85 101
M  END
> <Batch ID>
0141

> <Smiles>
CNC(C)C(=O)NC(C(=O)N1Cc2cc([101O:1][101CH2:1]C3(C)CCN(c4cc(C)cc([100NH:0][100C:0](=O)N5CCCC(n6nc(-c7ccc(Oc8ccc(F)cc8F)cc7)c(C(N)=O)c6N)C5)c4)CC3C)ccc2CC1C(=O)NC1CCCc2ccccc21)C(C)(C)C

> <Shape>
0.262

> <Color>
0.118

> <Negative vol penalty>
0.000

$$$$

  -OEChem-04052302543D

 89 97  0     1  0  0  0  0  0999 V2000
  -19.4345  -33.5935   29.3827 C   0  0  0  0  0  0  0  0  0  0  0  0
  -19.2344  -32.7596   28.2873 C   0  0  0  0  0  0  0  0  0  0  0  0
  -23.0226   -9.8299   20.0796 C   0  0  0  0  0  0  0  0  0  0  0  0
  -23.6202  -10.1235   22.4021 C   0  0  0  0  0  0  0  0  0  0  0  0
  -20.5835  -34.3796   29.4583 C   0  0  0  0  0  0  0  0  0  0  0  0
  -20.1829  -32.7121   27.2662 C   0  0  0  0  0  0  0  0  0  0  0  0
  -23.4200  -26.5250   25.4963 C   0  0  0  0  0  0  0  0  0  0  0  0
  -32.2829  -18.6566   21.6891 C   0  0  0  0  0  0  0  0  0  0  0  0
  -31.7986  -17.3897   21.3634 C   0  0  0  0  0  0  0  0  0  0  0  0
  -22.2444   -8.7234   20.4197 C   0  0  0  0  0  0  0  0  0  0  0  0
  -22.8419   -9.0170   22.7422 C   0  0  0  0  0  0  0  0  0  0  0  0
  -23.9282  -25.3427   24.9579 C   0  0  0  0  0  0  0  0  0  0  0  0
  -23.1169   -5.6491   22.6321 C   0  0  0  0  0  0  0  0  0  0  0  0
  -23.6638   -4.7192   23.5162 C   0  0  0  0  0  0  0  0  0  0  0  0
  -25.2323  -26.6148   23.3676 C   0  0  0  0  0  0  0  0  0  0  0  0
  -29.6628  -17.9549   22.3413 C   0  0  0  0  0  0  0  0  0  0  0  0
  -21.8502   -5.1212   25.0609 C   0  0  0  0  0  0  0  0  0  0  0  0
  -23.7106  -10.5299   21.0708 C   0  0  0  0  0  0  0  0  0  0  0  0
  -24.1011  -13.0166   20.6569 C   0  0  0  0  0  0  0  0  0  0  0  0
  -21.5511  -34.3346   28.4422 C   0  0  0  0  0  0  0  0  0  0  0  0
  -23.8283  -27.7587   24.9819 C   0  0  0  0  0  0  0  0  0  0  0  0
  -21.3452  -33.4994   27.3275 C   0  0  0  0  0  0  0  0  0  0  0  0
  -24.7362  -27.8028   23.9111 C   0  0  0  0  0  0  0  0  0  0  0  0
  -31.4573  -19.5726   22.3410 C   0  0  0  0  0  0  0  0  0  0  0  0
  -30.4885  -17.0389   21.6895 C   0  0  0  0  0  0  0  0  0  0  0  0
  -30.1472  -19.2217   22.6671 C   0  0  0  0  0  0  0  0  0  0  0  0
  -22.1540   -8.3170   21.7510 C   0  0  0  0  0  0  0  0  0  0  0  0
  -24.8319  -25.3875   23.8960 C   0  0  0  0  0  0  0  0  0  0  0  0
  -21.9366   -6.3151   22.9624 C   0  0  0  0  0  0  0  0  0  0  0  0
  -23.0305   -4.4552   24.7306 C   0  0  0  0  0  0  0  0  0  0  0  0
  -21.3033   -6.0511   24.1768 C   0  0  0  0  0  0  0  0  0  0  0  0
  -24.5151  -11.6726   20.7201 C   0  0  0  0  0  0  0  0  0  0  0  0
  -25.2280  -13.7058   20.2807 C   0  0  0  0  0  0  0  0  0  0  0  0
  -22.8130  -13.5908   20.9152 C   0  0  0  0  0  0  0  0  0  0  0  0
  -23.5801  -31.4975   25.1710 C   0  0  0  0  0  0  0  0  0  0  0  0
  -26.5294  -30.8249   24.6614 C   0  0  0  0  0  0  0  0  0  0  0  0
  -27.9759  -19.9366   23.7169 C   0  0  0  0  0  0  0  0  0  0  0  0
  -29.7290  -29.6500   24.5215 C   0  0  0  0  0  0  0  0  0  0  0  0
  -30.6849  -14.7253   20.7120 C   0  0  0  0  0  0  0  0  0  0  0  0
  -22.7544  -35.2380   28.5451 C   0  0  0  0  0  0  0  0  0  0  0  0
  -23.2599  -29.0558   25.4902 C   0  0  0  0  0  0  0  0  0  0  0  0
  -25.1206  -29.1516   23.3670 C   0  0  0  0  0  0  0  0  0  0  0  0
  -23.8902  -34.8495   27.6021 C   0  0  0  0  0  0  0  0  0  0  0  0
  -29.6998  -12.0376   18.5947 C   0  0  0  0  0  0  0  0  0  0  0  0
  -23.3510  -34.5744   26.2019 C   0  0  0  0  0  0  0  0  0  0  0  0
  -28.2291  -11.8136   18.9537 C   0  0  0  0  0  0  0  0  0  0  0  0
  -30.5322  -12.4110   19.8201 C   0  0  0  0  0  0  0  0  0  0  0  0
  -28.5453  -13.3194   20.9586 C   0  0  0  0  0  0  0  0  0  0  0  0
  -22.3629  -33.4017   26.2118 C   0  0  1  0  0  0  0  0  0  0  0  0
  -24.2811  -30.2074   25.4801 C   0  0  1  0  0  0  0  0  0  0  0  0
  -27.6546  -13.0046   19.7457 C   0  0  2  0  0  0  0  0  0  0  0  0
  -31.5044  -22.0018   21.7220 C   0  0  0  0  0  0  0  0  0  0  0  0
  -32.1104  -30.4311   24.3952 C   0  0  0  0  0  0  0  0  0  0  0  0
  -26.1498  -31.4937   21.7097 C   0  0  0  0  0  0  0  0  0  0  0  0
  -28.6323  -31.3345   21.4274 C   0  0  0  0  0  0  0  0  0  0  0  0
  -27.6596  -33.0562   22.9479 C   0  0  0  0  0  0  0  0  0  0  0  0
  -25.4105  -21.3747   22.8312 C   0  0  0  0  0  0  0  0  0  0  0  0
  -27.5091  -22.6044   22.3152 C   0  0  0  0  0  0  0  0  0  0  0  0
  -25.0893  -23.0190   25.4208 C   0  0  0  0  0  0  0  0  0  0  0  0
  -27.1830  -24.2629   24.8780 C   0  0  0  0  0  0  0  0  0  0  0  0
  -30.4123  -28.3536   27.0927 C   0  0  0  0  0  0  0  0  0  0  0  0
  -32.0028  -20.9223   22.6777 C   0  0  0  0  0  0  0  0  0  0  0  0
  -27.3861  -21.1637   24.4076 C   0  0  0  0  0  0  0  0  0  0  0  0
  -27.6239  -30.6259   23.6436 C   0  0  1  0  0  0  0  0  0  0  0  0
  -30.9718  -30.0147   25.3133 C   0  0  2  0  0  0  0  0  0  0  0  0
  -27.5016  -31.6056   22.4426 C   0  0  0  0  0  0  0  0  0  0  0  0
  -26.5986  -22.1330   23.4772 C   0  0  0  0  0  0  0  0  0  0  0  0
  -26.0620  -23.3896   24.2876 C   0  0  0  0  0  0  0  0  0  1  0  0
  -25.8044  -11.5151   20.4088 N   0  0  0  0  0  0  0  0  0  0  0  0
  -26.2103  -12.7691   20.1463 N   0  0  0  0  0  0  0  0  0  0  0  0
  -25.3507  -30.0929   24.4741 N   0  0  0  0  0  0  0  0  0  0  0  0
  -29.9300  -13.5493   20.5177 N   0  0  0  0  0  0  0  0  0  0  0  0
  -25.4647  -15.0155   20.0549 N   0  0  0  0  0  0  0  0  0  0  0  0
  -21.7652  -12.7394   21.2916 N   0  0  0  0  0  0  0  0  0  0  0  0
  -29.2944  -20.1370   23.3285 N   0  0  0  0  0  0  0  0  0  0  0  0
  -29.9970  -15.7518   21.3584 N   0  0  0  0  0  0  0  0  0  0  0  0
  -23.0733  -32.1428   26.2828 N   0  0  0  0  0  0  0  0  0  0  0  0
  -28.8832  -30.7288   24.3729 N   0  0  0  0  0  0  0  0  0  0  0  0
  -31.4262  -28.8528   26.1284 N   0  3  0  0  0  0  0  0  0  0  0  0
  -22.5934  -14.8204   20.7993 O   0  0  0  0  0  0  0  0  0  0  0  0
  -23.5053  -31.8813   24.0096 O   0  0  0  0  0  0  0  0  0  0  0  0
  -26.7099  -31.6118   25.5950 O   0  0  0  0  0  0  0  0  0  0  0  0
  -27.2962  -18.9259   23.5591 O   0  0  0  0  0  0  0  0  0  0  0  0
  -29.5303  -28.5220   24.0759 O   0  0  0  0  0  0  0  0  0  0  0  0
  -31.8466  -14.8249   20.3087 O   0  0  0  0  0  0  0  0  0  0  0  0
  -21.3945   -7.2375   22.0832 O   0  0  0  0  0  0  0  0  0  0  0  0
  -25.3284  -24.2277   23.3773 O   0  0  0  0  0  0  0  0  0  1  0  0
  -23.5550   -3.5610   25.5789 F   0  0  0  0  0  0  0  0  0  0  0  0
  -20.1686   -6.6870   24.4991 F   0  0  0  0  0  0  0  0  0  0  0  0
  1  2  1  0  0  0  0
  1  5  2  0  0  0  0
  2  6  2  0  0  0  0
  3 10  2  0  0  0  0
  3 18  1  0  0  0  0
  4 11  1  0  0  0  0
  4 18  2  0  0  0  0
  5 20  1  0  0  0  0
  6 22  1  0  0  0  0
  7 12  2  0  0  0  0
  7 21  1  0  0  0  0
  8  9  2  0  0  0  0
  8 24  1  0  0  0  0
  9 25  1  0  0  0  0
 10 27  1  0  0  0  0
 11 27  2  0  0  0  0
 12 28  1  0  0  0  0
 13 14  2  0  0  0  0
 13 29  1  0  0  0  0
 14 30  1  0  0  0  0
 15 23  1  0  0  0  0
 15 28  2  0  0  0  0
 16 25  2  0  0  0  0
 16 26  1  0  0  0  0
 17 30  2  0  0  0  0
 17 31  1  0  0  0  0
 18 32  1  0  0  0  0
 19 32  1  0  0  0  0
 19 33  2  0  0  0  0
 19 34  1  0  0  0  0
 20 22  2  0  0  0  0
 20 40  1  0  0  0  0
 21 23  2  0  0  0  0
 21 41  1  0  0  0  0
 22 49  1  0  0  0  0
 23 42  1  0  0  0  0
 24 26  2  0  0  0  0
 24 62  1  0  0  0  0
 25 76  1  0  0  0  0
 26 75  1  0  0  0  0
 27 86  1  0  0  0  0
 28 87  1  0  0  0  0
 29 31  2  0  0  0  0
 29 86  1  0  0  0  0
 30 88  1  0  0  0  0
 31 89  1  0  0  0  0
 32 69  2  0  0  0  0
 33 70  1  0  0  0  0
 33 73  1  0  0  0  0
 34 74  1  0  0  0  0
 34 80  2  0  0  0  0
 35 50  1  0  0  0  0
 35 77  1  0  0  0  0
 35 81  2  0  0  0  0
 36 64  1  0  0  0  0
 36 71  1  0  0  0  0
 36 82  2  0  0  0  0
 37 63  1  0  0  0  0
 37 75  1  0  0  0  0
 37 83  2  0  0  0  0
 38 65  1  0  0  0  0
 38 78  1  0  0  0  0
 38 84  2  0  0  0  0
 39 72  1  0  0  0  0
 39 76  1  0  0  0  0
 39 85  2  0  0  0  0
 40 43  1  0  0  0  0
 41 50  1  0  0  0  0
 42 71  1  0  0  0  0
 43 45  1  0  0  0  0
 44 46  1  0  0  0  0
 44 47  1  0  0  0  0
 45 49  1  0  0  0  0
 46 51  1  0  0  0  0
 47 72  1  0  0  0  0
 48 51  1  0  0  0  0
 48 72  1  0  0  0  0
 49 77  1  0  0  0  0
 50 71  1  0  0  0  0
 51 70  1  0  0  0  0
 52 62  1  0  0  0  0
 53 65  1  0  0  0  0
 54 66  1  0  0  0  0
 55 66  1  0  0  0  0
 56 66  1  0  0  0  0
 57 67  1  0  0  0  0
 58 67  1  0  0  0  0
 59 68  1  0  0  0  0
 60 68  1  0  0  0  0
 61 79  1  0  0  0  0
 63 67  1  0  0  0  0
 64 66  1  0  0  0  0
 64 78  1  0  0  0  0
 65 79  1  0  0  0  0
 67 68  1  0  0  0  0
 68 87  1  0  0  0  0
 69 70  1  0  0  0  0
M  CHG  1  79   1
M  ISO  4  39 100  68 101  76 100  87 101
M  END
> <Batch ID>
0141

> <Smiles>
CCc1ccc([100NH:0][100C:0](=O)N2CCCC(n3nc(-c4ccc(Oc5ccc(F)cc5F)cc4)c(C(N)=O)c3N)C2)cc1NC(=O)CC(C)(C)[101C:1](C)(C)[101O:1]c1ccc2c(c1)CN(C(=O)C(NC(=O)C(C)NC)C(C)(C)C)C(C(=O)NC1CCCc3ccccc31)C2

> <Shape>
0.240

> <Color>
0.195

> <Negative vol penalty>
0.000

$$$$

  -OEChem-04052302543D

 83 91  0     1  0  0  0  0  0999 V2000
  -18.7530  -24.4447   23.5328 C   0  0  0  0  0  0  0  0  0  0  0  0
  -20.0163  -24.3325   22.9611 C   0  0  0  0  0  0  0  0  0  0  0  0
  -24.5018  -13.4837   21.6554 C   0  0  0  0  0  0  0  0  0  0  0  0
  -26.1152  -13.2584   19.8712 C   0  0  0  0  0  0  0  0  0  0  0  0
  -18.1082  -25.6806   23.5590 C   0  0  0  0  0  0  0  0  0  0  0  0
  -20.6351  -25.4561   22.4142 C   0  0  0  0  0  0  0  0  0  0  0  0
  -26.6252  -26.7307   22.4243 C   0  0  0  0  0  0  0  0  0  0  0  0
  -24.4007  -12.0951   21.7393 C   0  0  0  0  0  0  0  0  0  0  0  0
  -26.0141  -11.8697   19.9552 C   0  0  0  0  0  0  0  0  0  0  0  0
  -27.6207  -26.5666   21.4621 C   0  0  0  0  0  0  0  0  0  0  0  0
  -26.1803   -9.5435   23.0642 C   0  0  0  0  0  0  0  0  0  0  0  0
  -26.1992   -8.9679   24.3346 C   0  0  0  0  0  0  0  0  0  0  0  0
  -27.3196  -28.8574   20.7687 C   0  0  0  0  0  0  0  0  0  0  0  0
  -28.2998  -22.8443   17.3280 C   0  0  0  0  0  0  0  0  0  0  0  0
  -24.0085   -8.0279   23.9412 C   0  0  0  0  0  0  0  0  0  0  0  0
  -25.3591  -14.0654   20.7213 C   0  0  0  0  0  0  0  0  0  0  0  0
  -26.3564  -16.3316   21.3357 C   0  0  0  0  0  0  0  0  0  0  0  0
  -18.7235  -26.8218   23.0208 C   0  0  0  0  0  0  0  0  0  0  0  0
  -25.9607  -27.9582   22.5588 C   0  0  0  0  0  0  0  0  0  0  0  0
  -19.9974  -26.7081   22.4320 C   0  0  0  0  0  0  0  0  0  0  0  0
  -26.3178  -29.0352   21.7351 C   0  0  0  0  0  0  0  0  0  0  0  0
  -28.5561  -24.1438   16.8291 C   0  0  0  0  0  0  0  0  0  0  0  0
  -25.1568  -11.2881   20.8893 C   0  0  0  0  0  0  0  0  0  0  0  0
  -27.9661  -27.6292   20.6322 C   0  0  0  0  0  0  0  0  0  0  0  0
  -25.0755   -9.3615   22.2324 C   0  0  0  0  0  0  0  0  0  0  0  0
  -25.1133   -8.2100   24.7731 C   0  0  0  0  0  0  0  0  0  0  0  0
  -23.9896   -8.6036   22.6708 C   0  0  0  0  0  0  0  0  0  0  0  0
  -25.4636  -15.4998   20.6336 C   0  0  0  0  0  0  0  0  0  0  0  0
  -27.3944  -24.5541   16.2175 C   0  0  0  0  0  0  0  0  0  0  0  0
  -26.0563  -17.6001   20.9029 C   0  0  0  0  0  0  0  0  0  0  0  0
  -26.9996  -22.5534   16.9860 C   0  0  0  0  0  0  0  0  0  0  0  0
  -27.3667  -15.9882   22.2933 C   0  0  0  0  0  0  0  0  0  0  0  0
  -22.9484  -28.9241   22.2478 C   0  0  0  0  0  0  0  0  0  0  0  0
  -29.6289  -26.2565   17.7150 C   0  0  0  0  0  0  0  0  0  0  0  0
  -24.1418  -31.7270   23.3623 C   0  0  0  0  0  0  0  0  0  0  0  0
  -26.8482  -33.7656   23.7697 C   0  0  0  0  0  0  0  0  0  0  0  0
  -24.8782  -21.2042   16.8255 C   0  0  0  0  0  0  0  0  0  0  0  0
  -17.9674  -28.1268   23.0299 C   0  0  0  0  0  0  0  0  0  0  0  0
  -24.9077  -28.1269   23.6195 C   0  0  0  0  0  0  0  0  0  0  0  0
  -25.6488  -30.3795   21.8528 C   0  0  0  0  0  0  0  0  0  0  0  0
  -18.8498  -29.3439   22.7646 C   0  0  0  0  0  0  0  0  0  0  0  0
  -22.1700  -19.3062   18.1447 C   0  0  0  0  0  0  0  0  0  0  0  0
  -19.7698  -29.0872   21.5753 C   0  0  0  0  0  0  0  0  0  0  0  0
  -22.8589  -18.2152   18.9676 C   0  0  0  0  0  0  0  0  0  0  0  0
  -22.9509  -19.6364   16.8739 C   0  0  0  0  0  0  0  0  0  0  0  0
  -25.0549  -18.8769   17.9062 C   0  0  0  0  0  0  0  0  0  0  0  0
  -20.7118  -27.9089   21.8507 C   0  0  1  0  0  0  0  0  0  0  0  0
  -23.9392  -29.2679   23.3238 C   0  0  1  0  0  0  0  0  0  0  0  0
  -24.3392  -18.5561   19.2285 C   0  0  2  0  0  0  0  0  0  0  0  0
  -27.0033  -25.7865   15.5167 C   0  0  0  0  0  0  0  0  0  0  0  0
  -27.5050  -36.0090   24.6826 C   0  0  0  0  0  0  0  0  0  0  0  0
  -30.5259  -25.2930   15.6001 C   0  0  0  0  0  0  0  0  0  0  0  0
  -30.8836  -24.0623   17.7244 C   0  0  0  0  0  0  0  0  0  0  0  0
  -22.9073  -33.0789   20.9214 C   0  0  0  0  0  0  0  0  0  0  0  0
  -24.3633  -35.0653   21.3719 C   0  0  0  0  0  0  0  0  0  0  0  0
  -22.6648  -34.3582   23.0566 C   0  0  0  0  0  0  0  0  0  0  0  0
  -28.7028  -32.5536   25.7320 C   0  0  0  0  0  0  0  0  0  0  0  0
  -29.1011  -26.1657   19.1402 C   0  0  0  0  0  0  0  0  0  1  0  0
  -24.7449  -32.9585   22.7309 C   0  0  1  0  0  0  0  0  0  0  0  0
  -27.3652  -34.5240   24.9789 C   0  0  2  0  0  0  0  0  0  0  0  0
  -29.8674  -24.9316   16.9483 C   0  0  0  0  0  0  0  0  0  0  0  0
  -23.6815  -33.8395   22.0164 C   0  0  0  0  0  0  0  0  0  0  0  0
  -24.6566  -16.1825   19.8170 N   0  0  0  0  0  0  0  0  0  0  0  0
  -25.0412  -17.4566   20.0033 N   0  0  0  0  0  0  0  0  0  0  0  0
  -24.6211  -30.4928   22.9008 N   0  0  0  0  0  0  0  0  0  0  0  0
  -24.3433  -19.9532   17.1991 N   0  0  0  0  0  0  0  0  0  0  0  0
  -26.5642  -18.8131   21.2080 N   0  0  0  0  0  0  0  0  0  0  0  0
  -27.5425  -14.6376   22.6239 N   0  0  0  0  0  0  0  0  0  0  0  0
  -26.2015  -21.4056   17.2167 N   0  0  0  0  0  0  0  0  0  0  0  0
  -21.7967  -28.3206   22.7155 N   0  0  0  0  0  0  0  0  0  0  0  0
  -25.4748  -33.6450   23.7913 N   0  0  0  0  0  0  0  0  0  0  0  0
  -28.6984  -33.9989   25.3885 N   0  3  0  0  0  0  0  0  0  0  0  0
  -28.0810  -16.8550   22.8518 O   0  0  0  0  0  0  0  0  0  0  0  0
  -23.2089  -29.1883   21.0799 O   0  0  0  0  0  0  0  0  0  0  0  0
  -29.8617  -27.3531   17.2013 O   0  0  0  0  0  0  0  0  0  0  0  0
  -23.2825  -31.8554   24.2379 O   0  0  0  0  0  0  0  0  0  0  0  0
  -27.5884  -33.3276   22.8918 O   0  0  0  0  0  0  0  0  0  0  0  0
  -24.2030  -22.0464   16.2281 O   0  0  0  0  0  0  0  0  0  0  0  0
  -26.4406  -23.5905   16.3089 O   0  0  0  0  0  0  0  0  0  0  0  0
  -25.0586   -9.9330   20.9711 O   0  0  0  0  0  0  0  0  0  0  0  0
  -28.9370  -27.4716   19.6917 O   0  0  0  0  0  0  0  0  0  1  0  0
  -25.1323   -7.6560   25.9924 F   0  0  0  0  0  0  0  0  0  0  0  0
  -22.9260   -8.4242   21.8757 F   0  0  0  0  0  0  0  0  0  0  0  0
  1  2  1  0  0  0  0
  1  5  2  0  0  0  0
  2  6  2  0  0  0  0
  3  8  2  0  0  0  0
  3 16  1  0  0  0  0
  4  9  1  0  0  0  0
  4 16  2  0  0  0  0
  5 18  1  0  0  0  0
  6 20  1  0  0  0  0
  7 10  2  0  0  0  0
  7 19  1  0  0  0  0
  8 23  1  0  0  0  0
  9 23  2  0  0  0  0
 10 24  1  0  0  0  0
 11 12  2  0  0  0  0
 11 25  1  0  0  0  0
 12 26  1  0  0  0  0
 13 21  1  0  0  0  0
 13 24  2  0  0  0  0
 14 22  1  0  0  0  0
 14 31  2  0  0  0  0
 15 26  2  0  0  0  0
 15 27  1  0  0  0  0
 16 28  1  0  0  0  0
 17 28  1  0  0  0  0
 17 30  2  0  0  0  0
 17 32  1  0  0  0  0
 18 20  2  0  0  0  0
 18 38  1  0  0  0  0
 19 21  2  0  0  0  0
 19 39  1  0  0  0  0
 20 47  1  0  0  0  0
 21 40  1  0  0  0  0
 22 29  2  0  0  0  0
 22 61  1  0  0  0  0
 23 80  1  0  0  0  0
 24 81  1  0  0  0  0
 25 27  2  0  0  0  0
 25 80  1  0  0  0  0
 26 82  1  0  0  0  0
 27 83  1  0  0  0  0
 28 63  2  0  0  0  0
 29 50  1  0  0  0  0
 29 79  1  0  0  0  0
 30 64  1  0  0  0  0
 30 67  1  0  0  0  0
 31 69  1  0  0  0  0
 31 79  1  0  0  0  0
 32 68  1  0  0  0  0
 32 73  2  0  0  0  0
 33 48  1  0  0  0  0
 33 70  1  0  0  0  0
 33 74  2  0  0  0  0
 34 58  1  0  0  0  0
 34 61  1  0  0  0  0
 34 75  2  0  0  0  0
 35 59  1  0  0  0  0
 35 65  1  0  0  0  0
 35 76  2  0  0  0  0
 36 60  1  0  0  0  0
 36 71  1  0  0  0  0
 36 77  2  0  0  0  0
 37 66  1  0  0  0  0
 37 69  1  0  0  0  0
 37 78  2  0  0  0  0
 38 41  1  0  0  0  0
 39 48  1  0  0  0  0
 40 65  1  0  0  0  0
 41 43  1  0  0  0  0
 42 44  1  0  0  0  0
 42 45  1  0  0  0  0
 43 47  1  0  0  0  0
 44 49  1  0  0  0  0
 45 66  1  0  0  0  0
 46 49  1  0  0  0  0
 46 66  1  0  0  0  0
 47 70  1  0  0  0  0
 48 65  1  0  0  0  0
 49 64  1  0  0  0  0
 51 60  1  0  0  0  0
 52 61  1  0  0  0  0
 53 61  1  0  0  0  0
 54 62  1  0  0  0  0
 55 62  1  0  0  0  0
 56 62  1  0  0  0  0
 57 72  1  0  0  0  0
 58 81  1  0  0  0  0
 59 62  1  0  0  0  0
 59 71  1  0  0  0  0
 60 72  1  0  0  0  0
 63 64  1  0  0  0  0
M  CHG  1  72   1
M  ISO  4  37 100  58 101  69 100  81 101
M  END
> <Batch ID>
0141

> <Smiles>
CNC(C)C(=O)NC(C(=O)N1Cc2cc([101O:1][101CH2:1]C(=O)C(C)(C)c3cc([100NH:0][100C:0](=O)N4CCCC(n5nc(-c6ccc(Oc7ccc(F)cc7F)cc6)c(C(N)=O)c5N)C4)oc3C)ccc2CC1C(=O)NC1CCCc2ccccc21)C(C)(C)C

> <Shape>
0.241

> <Color>
0.081

> <Negative vol penalty>
0.000

$$$$

  -OEChem-04052302543D

 86 94  0     1  0  0  0  0  0999 V2000
  -24.7495  -34.7015   23.9186 C   0  0  0  0  0  0  0  0  0  0  0  0
  -25.4769  -33.5501   23.6349 C   0  0  0  0  0  0  0  0  0  0  0  0
  -21.5327  -10.2024   23.2080 C   0  0  0  0  0  0  0  0  0  0  0  0
  -23.3387  -10.3349   21.6087 C   0  0  0  0  0  0  0  0  0  0  0  0
  -27.9195  -20.2289   21.8199 C   0  0  0  0  0  0  0  0  0  0  0  0
  -23.4020  -34.6061   24.2638 C   0  0  0  0  0  0  0  0  0  0  0  0
  -24.8575  -32.3024   23.6972 C   0  0  0  0  0  0  0  0  0  0  0  0
  -26.0172  -29.3579   19.7437 C   0  0  0  0  0  0  0  0  0  0  0  0
  -26.8164  -19.4183   22.0876 C   0  0  0  0  0  0  0  0  0  0  0  0
  -21.2999   -8.8786   22.8355 C   0  0  0  0  0  0  0  0  0  0  0  0
  -23.1060   -9.0110   21.2362 C   0  0  0  0  0  0  0  0  0  0  0  0
  -27.2630  -28.7322   19.7596 C   0  0  0  0  0  0  0  0  0  0  0  0
  -22.6607   -5.8436   23.4439 C   0  0  0  0  0  0  0  0  0  0  0  0
  -22.4633   -4.9093   24.4606 C   0  0  0  0  0  0  0  0  0  0  0  0
  -26.2203  -26.6883   20.5041 C   0  0  0  0  0  0  0  0  0  0  0  0
  -25.4981  -20.6927   20.5144 C   0  0  0  0  0  0  0  0  0  0  0  0
  -20.2686   -4.4146   23.5799 C   0  0  0  0  0  0  0  0  0  0  0  0
  -22.5521  -10.9306   22.5946 C   0  0  0  0  0  0  0  0  0  0  0  0
  -27.8119  -21.2716   20.8995 C   0  0  0  0  0  0  0  0  0  0  0  0
  -23.6560  -12.7578   23.9912 C   0  0  0  0  0  0  0  0  0  0  0  0
  -22.7633  -33.3573   24.3210 C   0  0  0  0  0  0  0  0  0  0  0  0
  -24.8631  -28.6554   20.1190 C   0  0  0  0  0  0  0  0  0  0  0  0
  -23.5006  -32.1900   24.0448 C   0  0  0  0  0  0  0  0  0  0  0  0
  -24.9607  -27.3066   20.4897 C   0  0  0  0  0  0  0  0  0  0  0  0
  -25.6058  -19.6501   21.4348 C   0  0  0  0  0  0  0  0  0  0  0  0
  -22.0865   -8.2828   21.8496 C   0  0  0  0  0  0  0  0  0  0  0  0
  -27.3651  -27.3980   20.1426 C   0  0  0  0  0  0  0  0  0  0  0  0
  -21.6620   -6.0635   22.4953 C   0  0  0  0  0  0  0  0  0  0  0  0
  -21.2672   -4.1948   24.5286 C   0  0  0  0  0  0  0  0  0  0  0  0
  -26.6012  -21.5034   20.2467 C   0  0  0  0  0  0  0  0  0  0  0  0
  -20.4660   -5.3490   22.5632 C   0  0  0  0  0  0  0  0  0  0  0  0
  -22.7927  -12.2984   22.9785 C   0  0  0  0  0  0  0  0  0  0  0  0
  -23.5274  -14.1249   23.9579 C   0  0  0  0  0  0  0  0  0  0  0  0
  -28.9887  -22.1342   20.6198 C   0  0  0  0  0  0  0  0  0  0  0  0
  -24.4989  -12.0152   24.8821 C   0  0  0  0  0  0  0  0  0  0  0  0
  -22.6967  -28.9683   22.4240 C   0  0  0  0  0  0  0  0  0  0  0  0
  -29.9191  -24.9774   19.2664 C   0  0  0  0  0  0  0  0  0  0  0  0
  -21.2272  -26.5519   20.8354 C   0  0  0  0  0  0  0  0  0  0  0  0
  -21.4982  -23.8928   18.7135 C   0  0  0  0  0  0  0  0  0  0  0  0
  -23.2118  -18.9206   21.1465 C   0  0  0  0  0  0  0  0  0  0  0  0
  -21.3171  -33.3004   24.7449 C   0  0  0  0  0  0  0  0  0  0  0  0
  -23.5232  -29.3371   20.0709 C   0  0  0  0  0  0  0  0  0  0  0  0
  -23.7492  -26.5023   20.8820 C   0  0  0  0  0  0  0  0  0  0  0  0
  -20.6399  -31.9706   24.4233 C   0  0  0  0  0  0  0  0  0  0  0  0
  -20.1987  -17.0621   21.5261 C   0  0  0  0  0  0  0  0  0  0  0  0
  -21.5287  -30.8039   24.8423 C   0  0  0  0  0  0  0  0  0  0  0  0
  -20.6759  -15.6949   22.0211 C   0  0  0  0  0  0  0  0  0  0  0  0
  -21.1645  -17.6654   20.5078 C   0  0  0  0  0  0  0  0  0  0  0  0
  -23.0411  -16.3713   21.4420 C   0  0  0  0  0  0  0  0  0  0  0  0
  -22.8578  -30.8204   24.0776 C   0  0  1  0  0  0  0  0  0  0  0  0
  -22.4822  -28.6725   20.9665 C   0  0  1  0  0  0  0  0  0  0  0  0
  -22.1338  -15.7529   22.5180 C   0  0  2  0  0  0  0  0  0  0  0  0
  -30.3906  -23.3413   17.4189 C   0  0  0  0  0  0  0  0  0  0  0  0
  -20.1302  -22.0886   17.6313 C   0  0  0  0  0  0  0  0  0  0  0  0
  -21.1494  -25.0290   23.4782 C   0  0  0  0  0  0  0  0  0  0  0  0
  -20.6714  -22.9415   22.1812 C   0  0  0  0  0  0  0  0  0  0  0  0
  -19.0648  -24.8484   22.1084 C   0  0  0  0  0  0  0  0  0  0  0  0
  -22.1489  -24.8685   15.9962 C   0  0  0  0  0  0  0  0  0  0  0  0
  -28.6026  -25.3810   19.9057 C   0  0  0  0  0  0  0  0  0  1  0  0
  -30.1502  -23.5085   18.9116 C   0  0  2  0  0  0  0  0  0  0  0  0
  -21.2766  -25.0444   20.8995 C   0  0  1  0  0  0  0  0  0  0  0  0
  -20.6930  -23.4943   17.4898 C   0  0  2  0  0  0  0  0  0  0  0  0
  -20.5638  -24.4813   22.1614 C   0  0  0  0  0  0  0  0  0  0  0  0
  -22.1621  -13.2929   22.3481 N   0  0  0  0  0  0  0  0  0  0  0  0
  -22.6296  -14.3908   22.9663 N   0  0  0  0  0  0  0  0  0  0  0  0
  -22.4624  -27.2152   20.8249 N   0  0  0  0  0  0  0  0  0  0  0  0
  -22.5250  -17.6919   21.0493 N   0  0  0  0  0  0  0  0  0  0  0  0
  -24.0958  -15.1134   24.6806 N   0  0  0  0  0  0  0  0  0  0  0  0
  -24.5108  -10.6174   24.7810 N   0  0  0  0  0  0  0  0  0  0  0  0
  -24.4853  -18.8265   21.7068 N   0  0  0  0  0  0  0  0  0  0  0  0
  -29.0600  -22.6738   19.3416 N   0  0  0  0  0  0  0  0  0  0  0  0
  -22.6742  -30.3146   22.7341 N   0  0  0  0  0  0  0  0  0  0  0  0
  -20.7252  -24.5638   19.6373 N   0  0  0  0  0  0  0  0  0  0  0  0
  -21.5484  -23.5376   16.2702 N   0  3  0  0  0  0  0  0  0  0  0  0
  -29.8283  -22.3072   21.4993 O   0  0  0  0  0  0  0  0  0  0  0  0
  -25.2076  -12.5738   25.7534 O   0  0  0  0  0  0  0  0  0  0  0  0
  -22.8685  -28.0433   23.2093 O   0  0  0  0  0  0  0  0  0  0  0  0
  -30.8125  -25.8086   19.0815 O   0  0  0  0  0  0  0  0  0  0  0  0
  -20.1330  -27.1196   20.7887 O   0  0  0  0  0  0  0  0  0  0  0  0
  -22.6926  -23.6313   18.8390 O   0  0  0  0  0  0  0  0  0  0  0  0
  -22.6968  -19.9822   20.7863 O   0  0  0  0  0  0  0  0  0  0  0  0
  -21.8598   -6.9909   21.4861 O   0  0  0  0  0  0  0  0  0  0  0  0
  -28.5800  -26.7851   20.1596 O   0  0  0  0  0  0  0  0  0  1  0  0
  -21.0784   -3.2964   25.5040 F   0  0  0  0  0  0  0  0  0  0  0  0
  -26.4861  -22.5029   19.3605 F   0  0  0  0  0  0  0  0  0  0  0  0
  -19.5034   -5.5551   21.6540 F   0  0  0  0  0  0  0  0  0  0  0  0
  1  2  1  0  0  0  0
  1  6  2  0  0  0  0
  2  7  2  0  0  0  0
  3 10  2  0  0  0  0
  3 18  1  0  0  0  0
  4 11  1  0  0  0  0
  4 18  2  0  0  0  0
  5  9  2  0  0  0  0
  5 19  1  0  0  0  0
  6 21  1  0  0  0  0
  7 23  1  0  0  0  0
  8 12  2  0  0  0  0
  8 22  1  0  0  0  0
  9 25  1  0  0  0  0
 10 26  1  0  0  0  0
 11 26  2  0  0  0  0
 12 27  1  0  0  0  0
 13 14  2  0  0  0  0
 13 28  1  0  0  0  0
 14 29  1  0  0  0  0
 15 24  1  0  0  0  0
 15 27  2  0  0  0  0
 16 25  2  0  0  0  0
 16 30  1  0  0  0  0
 17 29  2  0  0  0  0
 17 31  1  0  0  0  0
 18 32  1  0  0  0  0
 19 30  2  0  0  0  0
 19 34  1  0  0  0  0
 20 32  1  0  0  0  0
 20 33  2  0  0  0  0
 20 35  1  0  0  0  0
 21 23  2  0  0  0  0
 21 41  1  0  0  0  0
 22 24  2  0  0  0  0
 22 42  1  0  0  0  0
 23 50  1  0  0  0  0
 24 43  1  0  0  0  0
 25 70  1  0  0  0  0
 26 82  1  0  0  0  0
 27 83  1  0  0  0  0
 28 31  2  0  0  0  0
 28 82  1  0  0  0  0
 29 84  1  0  0  0  0
 30 85  1  0  0  0  0
 31 86  1  0  0  0  0
 32 64  2  0  0  0  0
 33 65  1  0  0  0  0
 33 68  1  0  0  0  0
 34 71  1  0  0  0  0
 34 75  2  0  0  0  0
 35 69  1  0  0  0  0
 35 76  2  0  0  0  0
 36 51  1  0  0  0  0
 36 72  1  0  0  0  0
 36 77  2  0  0  0  0
 37 59  1  0  0  0  0
 37 60  1  0  0  0  0
 37 78  2  0  0  0  0
 38 61  1  0  0  0  0
 38 66  1  0  0  0  0
 38 79  2  0  0  0  0
 39 62  1  0  0  0  0
 39 73  1  0  0  0  0
 39 80  2  0  0  0  0
 40 67  1  0  0  0  0
 40 70  1  0  0  0  0
 40 81  2  0  0  0  0
 41 44  1  0  0  0  0
 42 51  1  0  0  0  0
 43 66  1  0  0  0  0
 44 46  1  0  0  0  0
 45 47  1  0  0  0  0
 45 48  1  0  0  0  0
 46 50  1  0  0  0  0
 47 52  1  0  0  0  0
 48 67  1  0  0  0  0
 49 52  1  0  0  0  0
 49 67  1  0  0  0  0
 50 72  1  0  0  0  0
 51 66  1  0  0  0  0
 52 65  1  0  0  0  0
 53 60  1  0  0  0  0
 54 62  1  0  0  0  0
 55 63  1  0  0  0  0
 56 63  1  0  0  0  0
 57 63  1  0  0  0  0
 58 74  1  0  0  0  0
 59 83  1  0  0  0  0
 60 71  1  0  0  0  0
 61 63  1  0  0  0  0
 61 73  1  0  0  0  0
 62 74  1  0  0  0  0
 64 65  1  0  0  0  0
M  CHG  1  74   1
M  ISO  4  40 100  59 101  70 100  83 101
M  END
> <Batch ID>
0141

> <Smiles>
CNC(C)C(=O)NC(C(=O)N1Cc2cc([101O:1][101CH2:1]C(=O)C(C)NC(=O)c3ccc([100NH:0][100C:0](=O)N4CCCC(n5nc(-c6ccc(Oc7ccc(F)cc7F)cc6)c(C(N)=O)c5N)C4)cc3F)ccc2CC1C(=O)NC1CCCc2ccccc21)C(C)(C)C

> <Shape>
0.225

> <Color>
0.099

> <Negative vol penalty>
0.000

$$$$

  -OEChem-04052302543D

 85 93  0     1  0  0  0  0  0999 V2000
  -28.5233  -35.7694   21.1674 C   0  0  0  0  0  0  0  0  0  0  0  0
  -28.7313  -34.3948   21.1180 C   0  0  0  0  0  0  0  0  0  0  0  0
  -32.2396  -19.8480   15.1859 C   0  0  0  0  0  0  0  0  0  0  0  0
  -28.1119  -11.3256   22.5041 C   0  0  0  0  0  0  0  0  0  0  0  0
  -27.1909  -11.6435   20.2933 C   0  0  0  0  0  0  0  0  0  0  0  0
  -27.5254  -36.2933   21.9881 C   0  0  0  0  0  0  0  0  0  0  0  0
  -27.9421  -33.5432   21.8902 C   0  0  0  0  0  0  0  0  0  0  0  0
  -26.3396  -29.4978   19.2995 C   0  0  0  0  0  0  0  0  0  0  0  0
  -31.7797  -21.1378   14.9205 C   0  0  0  0  0  0  0  0  0  0  0  0
  -31.8979  -19.2183   16.3828 C   0  0  0  0  0  0  0  0  0  0  0  0
  -27.2251  -10.2713   22.7220 C   0  0  0  0  0  0  0  0  0  0  0  0
  -26.3040  -10.5891   20.5112 C   0  0  0  0  0  0  0  0  0  0  0  0
  -27.2536  -28.4630   19.1054 C   0  0  0  0  0  0  0  0  0  0  0  0
  -23.3862  -10.0848   22.1429 C   0  0  0  0  0  0  0  0  0  0  0  0
  -22.0547  -10.2707   21.7713 C   0  0  0  0  0  0  0  0  0  0  0  0
  -26.2437  -27.2385   20.9219 C   0  0  0  0  0  0  0  0  0  0  0  0
  -30.6367  -21.1683   17.0487 C   0  0  0  0  0  0  0  0  0  0  0  0
  -22.2190   -8.4024   20.2482 C   0  0  0  0  0  0  0  0  0  0  0  0
  -28.0948  -12.0117   21.2897 C   0  0  0  0  0  0  0  0  0  0  0  0
  -30.3039  -13.0247   20.5141 C   0  0  0  0  0  0  0  0  0  0  0  0
  -26.7171  -35.4470   22.7634 C   0  0  0  0  0  0  0  0  0  0  0  0
  -25.3762  -29.4154   20.3150 C   0  0  0  0  0  0  0  0  0  0  0  0
  -26.9333  -34.0563   22.7231 C   0  0  0  0  0  0  0  0  0  0  0  0
  -25.3171  -28.2724   21.1252 C   0  0  0  0  0  0  0  0  0  0  0  0
  -30.9783  -21.7980   15.8519 C   0  0  0  0  0  0  0  0  0  0  0  0
  -31.0965  -19.8784   17.3142 C   0  0  0  0  0  0  0  0  0  0  0  0
  -26.3211   -9.9030   21.7256 C   0  0  0  0  0  0  0  0  0  0  0  0
  -27.2076  -27.3344   19.9185 C   0  0  0  0  0  0  0  0  0  0  0  0
  -24.1342   -9.0578   21.5672 C   0  0  0  0  0  0  0  0  0  0  0  0
  -21.4711   -9.4295   20.8240 C   0  0  0  0  0  0  0  0  0  0  0  0
  -23.5506   -8.2166   20.6198 C   0  0  0  0  0  0  0  0  0  0  0  0
  -29.0103  -13.1013   21.0642 C   0  0  0  0  0  0  0  0  0  0  0  0
  -30.7536  -14.3225   20.5123 C   0  0  0  0  0  0  0  0  0  0  0  0
  -31.2842  -24.0590   15.9845 C   0  0  0  0  0  0  0  0  0  0  0  0
  -31.0336  -11.8826   20.0463 C   0  0  0  0  0  0  0  0  0  0  0  0
  -24.7177  -31.1062   22.9249 C   0  0  0  0  0  0  0  0  0  0  0  0
  -22.1444  -29.1371   23.0784 C   0  0  0  0  0  0  0  0  0  0  0  0
  -20.7321  -26.1448   22.2428 C   0  0  0  0  0  0  0  0  0  0  0  0
  -29.9614  -19.7509   19.5595 C   0  0  0  0  0  0  0  0  0  0  0  0
  -25.6823  -36.0630   23.6713 C   0  0  0  0  0  0  0  0  0  0  0  0
  -24.3804  -30.5284   20.4942 C   0  0  0  0  0  0  0  0  0  0  0  0
  -24.2892  -28.1261   22.2163 C   0  0  0  0  0  0  0  0  0  0  0  0
  -24.6414  -35.0656   24.1734 C   0  0  0  0  0  0  0  0  0  0  0  0
  -28.8430  -18.4737   22.6892 C   0  0  0  0  0  0  0  0  0  0  0  0
  -25.3179  -33.7893   24.6635 C   0  0  0  0  0  0  0  0  0  0  0  0
  -28.8932  -16.9558   22.5002 C   0  0  0  0  0  0  0  0  0  0  0  0
  -28.4044  -19.1899   21.4132 C   0  0  0  0  0  0  0  0  0  0  0  0
  -29.2273  -17.3298   20.0232 C   0  0  0  0  0  0  0  0  0  0  0  0
  -26.0813  -33.0983   23.5272 C   0  0  1  0  0  0  0  0  0  0  0  0
  -23.7702  -30.5649   21.8919 C   0  0  1  0  0  0  0  0  0  0  0  0
  -29.7266  -16.5693   21.2626 C   0  0  2  0  0  0  0  0  0  0  0  0
  -18.6313  -24.8056   22.5439 C   0  0  0  0  0  0  0  0  0  0  0  0
  -31.0095  -27.7614   16.8271 C   0  0  0  0  0  0  0  0  0  0  0  0
  -30.4365  -26.2877   20.2494 C   0  0  0  0  0  0  0  0  0  0  0  0
  -22.9808  -28.4722   25.9364 C   0  0  0  0  0  0  0  0  0  0  0  0
  -21.4637  -26.4827   25.8434 C   0  0  0  0  0  0  0  0  0  0  0  0
  -20.5200  -28.7805   25.6146 C   0  0  0  0  0  0  0  0  0  0  0  0
  -20.2156  -26.0834   19.3293 C   0  0  0  0  0  0  0  0  0  0  0  0
  -30.8869  -25.4954   15.7699 C   0  0  0  0  0  0  0  0  0  0  0  0
  -29.5530  -25.9566   17.8759 C   0  0  0  0  0  0  0  0  0  0  0  0
  -21.8607  -27.7959   23.7106 C   0  0  1  0  0  0  0  0  0  0  0  0
  -19.3722  -25.7997   21.6632 C   0  0  2  0  0  0  0  0  0  0  0  0
  -30.8534  -26.2637   17.1033 C   0  0  2  0  0  0  0  0  0  0  0  0
  -29.3835  -26.6760   19.2202 C   0  0  1  0  0  0  0  0  0  1  0  0
  -21.7270  -27.8861   25.2570 C   0  0  0  0  0  0  0  0  0  0  0  0
  -28.6610  -14.3490   21.3886 N   0  0  0  0  0  0  0  0  0  0  0  0
  -30.5170  -23.0979   15.5852 N   0  0  0  0  0  0  0  0  0  0  0  0
  -29.7417  -15.0684   21.0413 N   0  0  0  0  0  0  0  0  0  0  0  0
  -23.3414  -29.2440   22.3562 N   0  0  0  0  0  0  0  0  0  0  0  0
  -29.2411  -18.7778   20.2840 N   0  0  0  0  0  0  0  0  0  0  0  0
  -31.9121  -14.8869   20.1101 N   0  0  0  0  0  0  0  0  0  0  0  0
  -30.4230  -10.6233   20.1205 N   0  0  0  0  0  0  0  0  0  0  0  0
  -30.7477  -19.2373   18.5287 N   0  0  0  0  0  0  0  0  0  0  0  0
  -25.1649  -32.3869   22.6620 N   0  0  0  0  0  0  0  0  0  0  0  0
  -20.6777  -27.2698   23.0383 N   0  0  0  0  0  0  0  0  0  0  0  0
  -19.5238  -25.2032   20.3059 N   0  3  0  0  0  0  0  0  0  0  0  0
  -32.1992  -11.9739   19.5917 O   0  0  0  0  0  0  0  0  0  0  0  0
  -25.0194  -30.4136   23.8898 O   0  0  0  0  0  0  0  0  0  0  0  0
  -21.3304  -30.0540   23.2141 O   0  0  0  0  0  0  0  0  0  0  0  0
  -21.7409  -25.4805   22.0159 O   0  0  0  0  0  0  0  0  0  0  0  0
  -29.9074  -20.9485   19.8507 O   0  0  0  0  0  0  0  0  0  0  0  0
  -25.4557   -8.8741   21.9378 O   0  0  0  0  0  0  0  0  0  0  0  0
  -28.0989  -26.3232   19.7316 O   0  0  0  0  0  0  0  0  0  1  0  0
  -20.1920   -9.6071   20.4683 F   0  0  0  0  0  0  0  0  0  0  0  0
  -24.2638   -7.2275   20.0641 F   0  0  0  0  0  0  0  0  0  0  0  0
  1  2  1  0  0  0  0
  1  6  2  0  0  0  0
  2  7  2  0  0  0  0
  3  9  2  0  0  0  0
  3 10  1  0  0  0  0
  4 11  2  0  0  0  0
  4 19  1  0  0  0  0
  5 12  1  0  0  0  0
  5 19  2  0  0  0  0
  6 21  1  0  0  0  0
  7 23  1  0  0  0  0
  8 13  2  0  0  0  0
  8 22  1  0  0  0  0
  9 25  1  0  0  0  0
 10 26  2  0  0  0  0
 11 27  1  0  0  0  0
 12 27  2  0  0  0  0
 13 28  1  0  0  0  0
 14 15  2  0  0  0  0
 14 29  1  0  0  0  0
 15 30  1  0  0  0  0
 16 24  1  0  0  0  0
 16 28  2  0  0  0  0
 17 25  2  0  0  0  0
 17 26  1  0  0  0  0
 18 30  2  0  0  0  0
 18 31  1  0  0  0  0
 19 32  1  0  0  0  0
 20 32  1  0  0  0  0
 20 33  2  0  0  0  0
 20 35  1  0  0  0  0
 21 23  2  0  0  0  0
 21 40  1  0  0  0  0
 22 24  2  0  0  0  0
 22 41  1  0  0  0  0
 23 49  1  0  0  0  0
 24 42  1  0  0  0  0
 25 67  1  0  0  0  0
 26 73  1  0  0  0  0
 27 82  1  0  0  0  0
 28 83  1  0  0  0  0
 29 31  2  0  0  0  0
 29 82  1  0  0  0  0
 30 84  1  0  0  0  0
 31 85  1  0  0  0  0
 32 66  2  0  0  0  0
 33 68  1  0  0  0  0
 33 71  1  0  0  0  0
 34 59  1  0  0  0  0
 34 67  2  0  0  0  0
 35 72  1  0  0  0  0
 35 77  2  0  0  0  0
 36 50  1  0  0  0  0
 36 74  1  0  0  0  0
 36 78  2  0  0  0  0
 37 61  1  0  0  0  0
 37 69  1  0  0  0  0
 37 79  2  0  0  0  0
 38 62  1  0  0  0  0
 38 75  1  0  0  0  0
 38 80  2  0  0  0  0
 39 70  1  0  0  0  0
 39 73  1  0  0  0  0
 39 81  2  0  0  0  0
 40 43  1  0  0  0  0
 41 50  1  0  0  0  0
 42 69  1  0  0  0  0
 43 45  1  0  0  0  0
 44 46  1  0  0  0  0
 44 47  1  0  0  0  0
 45 49  1  0  0  0  0
 46 51  1  0  0  0  0
 47 70  1  0  0  0  0
 48 51  1  0  0  0  0
 48 70  1  0  0  0  0
 49 74  1  0  0  0  0
 50 69  1  0  0  0  0
 51 68  1  0  0  0  0
 52 62  1  0  0  0  0
 53 63  1  0  0  0  0
 54 64  1  0  0  0  0
 55 65  1  0  0  0  0
 56 65  1  0  0  0  0
 57 65  1  0  0  0  0
 58 76  1  0  0  0  0
 59 63  1  0  0  0  0
 60 63  1  0  0  0  0
 60 64  1  0  0  0  0
 61 65  1  0  0  0  0
 61 75  1  0  0  0  0
 62 76  1  0  0  0  0
 64 83  1  0  0  0  0
 66 68  1  0  0  0  0
M  CHG  1  76   1
M  ISO  4  39 100  64 101  73 100  83 101
M  END
> <Batch ID>
0141

> <Smiles>
CNC(C)C(=O)NC(C(=O)N1Cc2cc([101O:1][101CH:1](C)CC(C)C=CNc3cccc([100NH:0][100C:0](=O)N4CCCC(n5nc(-c6ccc(Oc7ccc(F)cc7F)cc6)c(C(N)=O)c5N)C4)c3)ccc2CC1C(=O)NC1CCCc2ccccc21)C(C)(C)C

> <Shape>
0.311

> <Color>
0.087

> <Negative vol penalty>
0.000

$$$$

  -OEChem-04052302543D

 84 93  0     1  0  0  0  0  0999 V2000
  -24.0855  -31.6999   25.5932 C   0  0  0  0  0  0  0  0  0  0  0  0
  -24.8490  -30.5502   25.7687 C   0  0  0  0  0  0  0  0  0  0  0  0
  -22.9895  -10.0203   19.9317 C   0  0  0  0  0  0  0  0  0  0  0  0
  -23.7693   -9.9177   22.2161 C   0  0  0  0  0  0  0  0  0  0  0  0
  -23.0979  -31.7360   24.6098 C   0  0  0  0  0  0  0  0  0  0  0  0
  -24.6244  -29.4355   24.9615 C   0  0  0  0  0  0  0  0  0  0  0  0
  -28.9241  -27.3724   23.2583 C   0  0  0  0  0  0  0  0  0  0  0  0
  -22.2089   -8.8847   20.1471 C   0  0  0  0  0  0  0  0  0  0  0  0
  -22.9886   -8.7821   22.4316 C   0  0  0  0  0  0  0  0  0  0  0  0
  -29.6434  -26.5747   24.1472 C   0  0  0  0  0  0  0  0  0  0  0  0
  -23.1607   -5.4747   21.7513 C   0  0  0  0  0  0  0  0  0  0  0  0
  -23.7470   -4.4036   22.4254 C   0  0  0  0  0  0  0  0  0  0  0  0
  -28.7203  -24.6004   23.1131 C   0  0  0  0  0  0  0  0  0  0  0  0
  -22.0676   -4.5723   24.1541 C   0  0  0  0  0  0  0  0  0  0  0  0
  -31.9761  -17.3612   21.9080 C   0  0  0  0  0  0  0  0  0  0  0  0
  -23.7699  -10.5368   20.9661 C   0  0  0  0  0  0  0  0  0  0  0  0
  -24.1969  -13.0516   20.9343 C   0  0  0  0  0  0  0  0  0  0  0  0
  -22.8676  -30.6246   23.7837 C   0  0  0  0  0  0  0  0  0  0  0  0
  -28.0876  -26.7893   22.2955 C   0  0  0  0  0  0  0  0  0  0  0  0
  -23.6318  -29.4564   23.9670 C   0  0  0  0  0  0  0  0  0  0  0  0
  -27.9935  -25.3928   22.2115 C   0  0  0  0  0  0  0  0  0  0  0  0
  -22.2083   -8.2656   21.3971 C   0  0  0  0  0  0  0  0  0  0  0  0
  -29.5394  -25.1886   24.0765 C   0  0  0  0  0  0  0  0  0  0  0  0
  -22.0278   -6.0947   22.2786 C   0  0  0  0  0  0  0  0  0  0  0  0
  -23.2004   -3.9523   23.6268 C   0  0  0  0  0  0  0  0  0  0  0  0
  -21.4813   -5.6435   23.4799 C   0  0  0  0  0  0  0  0  0  0  0  0
  -24.5770  -11.7096   20.7440 C   0  0  0  0  0  0  0  0  0  0  0  0
  -25.3108  -13.7764   20.5875 C   0  0  0  0  0  0  0  0  0  0  0  0
  -30.7538  -16.7520   22.1000 C   0  0  0  0  0  0  0  0  0  0  0  0
  -31.0757  -18.8443   23.2495 C   0  0  0  0  0  0  0  0  0  0  0  0
  -30.9995  -22.2089   24.6566 C   0  0  0  0  0  0  0  0  0  0  0  0
  -22.9485  -13.5946   21.3843 C   0  0  0  0  0  0  0  0  0  0  0  0
  -31.1399  -23.5191   24.4256 C   0  0  0  0  0  0  0  0  0  1  0  0
  -24.9698  -26.8783   21.6831 C   0  0  0  0  0  0  0  0  0  0  0  0
  -25.8312  -25.1684   19.0646 C   0  0  0  0  0  0  0  0  0  0  0  0
  -28.0870  -23.0815   17.5804 C   0  0  0  0  0  0  0  0  0  0  0  0
  -30.8110  -14.6289   20.7452 C   0  0  0  0  0  0  0  0  0  0  0  0
  -21.7570  -30.6945   22.7658 C   0  0  0  0  0  0  0  0  0  0  0  0
  -27.3391  -27.6630   21.3266 C   0  0  0  0  0  0  0  0  0  0  0  0
  -27.1251  -24.7170   21.1830 C   0  0  0  0  0  0  0  0  0  0  0  0
  -29.9020  -21.5931   25.4646 C   0  0  0  0  0  0  0  0  0  0  0  0
  -21.8352  -29.6015   21.7029 C   0  0  0  0  0  0  0  0  0  0  0  0
  -29.5938  -12.3426   18.3022 C   0  0  0  0  0  0  0  0  0  0  0  0
  -22.0942  -28.2448   22.3504 C   0  0  0  0  0  0  0  0  0  0  0  0
  -28.1488  -12.0845   18.7353 C   0  0  0  0  0  0  0  0  0  0  0  0
  -29.6840  -20.2517   24.7719 C   0  0  0  0  0  0  0  0  0  0  0  0
  -30.5267  -12.4961   19.5021 C   0  0  0  0  0  0  0  0  0  0  0  0
  -28.6579  -13.2338   20.9278 C   0  0  0  0  0  0  0  0  0  0  0  0
  -23.4349  -28.2356   23.0947 C   0  0  1  0  0  0  0  0  0  0  0  0
  -31.8407  -21.1202   24.0410 C   0  0  1  0  0  0  0  0  0  0  0  0
  -26.1197  -26.9749   20.7207 C   0  0  1  0  0  0  0  0  0  0  0  0
  -27.6694  -13.1369   19.7543 C   0  0  2  0  0  0  0  0  0  0  0  0
  -32.2503  -24.1020   23.6122 C   0  0  0  0  0  0  0  0  0  0  0  0
  -33.0575  -20.8251   24.9166 C   0  0  0  0  0  0  0  0  0  0  0  0
  -28.5001  -21.8222   15.4494 C   0  0  0  0  0  0  0  0  0  0  0  0
  -23.7543  -23.0918   19.8919 C   0  0  0  0  0  0  0  0  0  0  0  0
  -24.8515  -21.4734   18.3282 C   0  0  0  0  0  0  0  0  0  0  0  0
  -23.8323  -23.5691   17.4383 C   0  0  0  0  0  0  0  0  0  0  0  0
  -30.5953  -24.5620   17.0557 C   0  0  0  0  0  0  0  0  0  0  0  0
  -25.9890  -23.7001   18.7510 C   0  0  1  0  0  0  0  0  0  0  0  0
  -28.7420  -23.1160   16.2114 C   0  0  2  0  0  0  0  0  0  0  0  0
  -24.6217  -22.9711   18.6231 C   0  0  0  0  0  0  0  0  0  0  0  0
  -32.1624  -18.5613   22.5660 N   0  0  0  0  0  0  0  0  0  0  0  0
  -25.8341  -11.5863   20.3099 N   0  0  0  0  0  0  0  0  0  0  0  0
  -26.2536  -12.8602   20.2244 N   0  0  0  0  0  0  0  0  0  0  0  0
  -30.9164  -19.9791   24.0268 N   0  0  3  0  0  0  0  0  0  0  0  0
  -26.4081  -25.6145   20.2621 N   0  0  0  0  0  0  0  0  0  0  0  0
  -30.0111  -13.5125   20.4219 N   0  0  0  0  0  0  0  0  0  0  0  0
  -25.5661  -15.1018   20.5607 N   0  0  0  0  0  0  0  0  0  0  0  0
  -21.9091  -12.7085   21.6985 N   0  0  0  0  0  0  0  0  0  0  0  0
  -30.2029  -15.5448   21.6031 N   0  0  0  0  0  0  0  0  0  0  0  0
  -24.5310  -28.0989   22.1597 N   0  0  0  0  0  0  0  0  0  0  0  0
  -26.8202  -23.6255   17.5543 N   0  0  0  0  0  0  0  0  0  0  0  0
  -30.2129  -23.3143   16.3457 N   0  3  0  0  0  0  0  0  0  0  0  0
  -22.7551  -14.8296   21.4886 O   0  0  0  0  0  0  0  0  0  0  0  0
  -24.5135  -25.7780   21.9708 O   0  0  0  0  0  0  0  0  0  0  0  0
  -25.2247  -25.8941   18.2727 O   0  0  0  0  0  0  0  0  0  0  0  0
  -28.6420  -22.6150   18.5728 O   0  0  0  0  0  0  0  0  0  0  0  0
  -31.9410  -14.7763   20.2728 O   0  0  0  0  0  0  0  0  0  0  0  0
  -21.4465   -7.1576   21.6077 O   0  0  0  0  0  0  0  0  0  0  0  0
  -30.2399  -24.4078   24.9434 O   0  0  0  0  0  0  0  0  0  1  0  0
  -23.7626   -2.9227   24.2733 F   0  0  0  0  0  0  0  0  0  0  0  0
  -20.3924   -6.2343   23.9908 F   0  0  0  0  0  0  0  0  0  0  0  0
  -29.7912  -17.7109   23.1466 S   0  0  0  0  0  0  0  0  0  0  0  0
  1  2  1  0  0  0  0
  1  5  2  0  0  0  0
  2  6  2  0  0  0  0
  3  8  2  0  0  0  0
  3 16  1  0  0  0  0
  4  9  1  0  0  0  0
  4 16  2  0  0  0  0
  5 18  1  0  0  0  0
  6 20  1  0  0  0  0
  7 10  2  0  0  0  0
  7 19  1  0  0  0  0
  8 22  1  0  0  0  0
  9 22  2  0  0  0  0
 10 23  1  0  0  0  0
 11 12  2  0  0  0  0
 11 24  1  0  0  0  0
 12 25  1  0  0  0  0
 13 21  1  0  0  0  0
 13 23  2  0  0  0  0
 14 25  2  0  0  0  0
 14 26  1  0  0  0  0
 15 29  2  0  0  0  0
 15 63  1  0  0  0  0
 16 27  1  0  0  0  0
 17 27  1  0  0  0  0
 17 28  2  0  0  0  0
 17 32  1  0  0  0  0
 18 20  2  0  0  0  0
 18 38  1  0  0  0  0
 19 21  2  0  0  0  0
 19 39  1  0  0  0  0
 20 49  1  0  0  0  0
 21 40  1  0  0  0  0
 22 80  1  0  0  0  0
 23 81  1  0  0  0  0
 24 26  2  0  0  0  0
 24 80  1  0  0  0  0
 25 82  1  0  0  0  0
 26 83  1  0  0  0  0
 27 64  2  0  0  0  0
 28 65  1  0  0  0  0
 28 69  1  0  0  0  0
 29 71  1  0  0  0  0
 29 84  1  0  0  0  0
 30 63  2  0  0  0  0
 30 66  1  0  0  0  0
 30 84  1  0  0  0  0
 31 33  2  0  0  0  0
 31 41  1  0  0  0  0
 31 50  1  0  0  0  0
 32 70  1  0  0  0  0
 32 75  2  0  0  0  0
 33 53  1  0  0  0  0
 33 81  1  0  0  0  0
 34 51  1  0  0  0  0
 34 72  1  0  0  0  0
 34 76  2  0  0  0  0
 35 60  1  0  0  0  0
 35 67  1  0  0  0  0
 35 77  2  0  0  0  0
 36 61  1  0  0  0  0
 36 73  1  0  0  0  0
 36 78  2  0  0  0  0
 37 68  1  0  0  0  0
 37 71  1  0  0  0  0
 37 79  2  0  0  0  0
 38 42  1  0  0  0  0
 39 51  1  0  0  0  0
 40 67  1  0  0  0  0
 41 46  1  0  0  0  0
 42 44  1  0  0  0  0
 43 45  1  0  0  0  0
 43 47  1  0  0  0  0
 44 49  1  0  0  0  0
 45 52  1  0  0  0  0
 46 66  1  0  0  0  0
 47 68  1  0  0  0  0
 48 52  1  0  0  0  0
 48 68  1  0  0  0  0
 49 72  1  0  0  0  0
 50 54  1  0  0  0  0
 50 66  1  0  0  0  0
 51 67  1  0  0  0  0
 52 65  1  0  0  0  0
 55 61  1  0  0  0  0
 56 62  1  0  0  0  0
 57 62  1  0  0  0  0
 58 62  1  0  0  0  0
 59 74  1  0  0  0  0
 60 62  1  0  0  0  0
 60 73  1  0  0  0  0
 61 74  1  0  0  0  0
 64 65  1  0  0  0  0
M  CHG  1  74   1
M  ISO  4  33 101  37 100  71 100  81 101
M  END
> <Batch ID>
0141

> <Smiles>
CNC(C)C(=O)NC(C(=O)N1Cc2cc([101O:1][101C:1](C)=C3CCN(c4ncc([100NH:0][100C:0](=O)N5CCCC(n6nc(-c7ccc(Oc8ccc(F)cc8F)cc7)c(C(N)=O)c6N)C5)s4)C3C)ccc2CC1C(=O)NC1CCCc2ccccc21)C(C)(C)C

> <Shape>
0.262

> <Color>
0.211

> <Negative vol penalty>
0.000

$$$$

  -OEChem-04052302543D

 90 98  0     1  0  0  0  0  0999 V2000
  -38.4889   -8.6248   29.6565 C   0  0  0  0  0  0  0  0  0  0  0  0
  -37.1209   -8.8528   29.5468 C   0  0  0  0  0  0  0  0  0  0  0  0
  -23.1992   -9.8521   19.9528 C   0  0  0  0  0  0  0  0  0  0  0  0
  -23.9120   -9.9291   22.2600 C   0  0  0  0  0  0  0  0  0  0  0  0
  -39.2811   -9.4925   30.4071 C   0  0  0  0  0  0  0  0  0  0  0  0
  -36.5441   -9.9480   30.1888 C   0  0  0  0  0  0  0  0  0  0  0  0
  -33.2823  -12.4412   27.2241 C   0  0  0  0  0  0  0  0  0  0  0  0
  -22.5067   -8.6682   20.2063 C   0  0  0  0  0  0  0  0  0  0  0  0
  -23.2194   -8.7452   22.5135 C   0  0  0  0  0  0  0  0  0  0  0  0
  -32.0164  -11.8810   27.0581 C   0  0  0  0  0  0  0  0  0  0  0  0
  -31.3932  -15.7178   25.5894 C   0  0  0  0  0  0  0  0  0  0  0  0
  -21.3419   -5.9351   23.8539 C   0  0  0  0  0  0  0  0  0  0  0  0
  -32.7764  -15.5408   25.5577 C   0  0  0  0  0  0  0  0  0  0  0  0
  -20.5653   -5.8721   25.0109 C   0  0  0  0  0  0  0  0  0  0  0  0
  -31.1295  -13.4152   28.6948 C   0  0  0  0  0  0  0  0  0  0  0  0
  -32.6208  -14.7312   23.2866 C   0  0  0  0  0  0  0  0  0  0  0  0
  -19.2441   -7.7362   24.2256 C   0  0  0  0  0  0  0  0  0  0  0  0
  -23.9019  -10.4826   20.9797 C   0  0  0  0  0  0  0  0  0  0  0  0
  -24.1245  -13.0193   20.8272 C   0  0  0  0  0  0  0  0  0  0  0  0
  -38.7153  -10.6044   31.0507 C   0  0  0  0  0  0  0  0  0  0  0  0
  -33.4838  -13.4871   28.1362 C   0  0  0  0  0  0  0  0  0  0  0  0
  -37.3293  -10.8306   30.9499 C   0  0  0  0  0  0  0  0  0  0  0  0
  -32.3983  -13.9887   28.8686 C   0  0  0  0  0  0  0  0  0  0  0  0
  -31.2375  -14.9082   23.3184 C   0  0  0  0  0  0  0  0  0  0  0  0
  -22.5168   -8.1147   21.4866 C   0  0  0  0  0  0  0  0  0  0  0  0
  -30.9404  -12.3660   27.7956 C   0  0  0  0  0  0  0  0  0  0  0  0
  -30.6237  -15.4014   24.4697 C   0  0  0  0  0  0  0  0  0  0  0  0
  -21.0696   -6.8987   22.8828 C   0  0  0  0  0  0  0  0  0  0  0  0
  -33.3902  -15.0475   24.4063 C   0  0  0  0  0  0  0  0  0  0  0  0
  -19.5164   -6.7726   25.1967 C   0  0  0  0  0  0  0  0  0  0  0  0
  -20.0207   -7.7992   23.0686 C   0  0  0  0  0  0  0  0  0  0  0  0
  -24.6179  -11.7054   20.7184 C   0  0  0  0  0  0  0  0  0  0  0  0
  -25.1864  -13.8153   20.4734 C   0  0  0  0  0  0  0  0  0  0  0  0
  -27.4164  -12.1502   27.0682 C   0  0  0  0  0  0  0  0  0  0  0  0
  -22.8226  -13.4792   21.2136 C   0  0  0  0  0  0  0  0  0  0  0  0
  -26.3753  -12.8402   26.5489 C   0  0  0  0  0  0  0  0  0  0  0  0
  -35.2294  -13.8653   30.7655 C   0  0  0  0  0  0  0  0  0  0  0  0
  -34.1743  -16.9256   30.5564 C   0  0  0  0  0  0  0  0  0  0  0  0
  -31.8061  -19.1021   29.4157 C   0  0  0  0  0  0  0  0  0  0  0  0
  -30.9357  -14.0826   20.9575 C   0  0  0  0  0  0  0  0  0  0  0  0
  -39.6043  -11.4876   31.8899 C   0  0  0  0  0  0  0  0  0  0  0  0
  -34.8501  -14.0985   28.2840 C   0  0  0  0  0  0  0  0  0  0  0  0
  -32.5578  -15.1236   29.8459 C   0  0  0  0  0  0  0  0  0  0  0  0
  -38.9759  -12.8363   32.2308 C   0  0  0  0  0  0  0  0  0  0  0  0
  -29.3625  -13.1189   17.9123 C   0  0  0  0  0  0  0  0  0  0  0  0
  -37.5389  -12.6505   32.7077 C   0  0  0  0  0  0  0  0  0  0  0  0
  -27.9300  -12.7843   18.3344 C   0  0  0  0  0  0  0  0  0  0  0  0
  -30.3791  -12.6966   18.9715 C   0  0  0  0  0  0  0  0  0  0  0  0
  -28.6793  -12.8662   20.7466 C   0  0  0  0  0  0  0  0  0  0  0  0
  -36.6706  -12.0218   31.6112 C   0  0  1  0  0  0  0  0  0  0  0  0
  -35.0427  -14.8156   29.6167 C   0  0  1  0  0  0  0  0  0  0  0  0
  -27.6143  -13.3316   19.7402 C   0  0  2  0  0  0  0  0  0  0  0  0
  -25.2847  -12.1187   25.7853 C   0  0  0  0  0  0  0  0  0  0  0  0
  -30.7073  -21.3070   28.9376 C   0  0  0  0  0  0  0  0  0  0  0  0
  -24.7505  -14.8108   26.7113 C   0  0  0  0  0  0  0  0  0  0  0  0
  -26.7760  -14.8307   28.0871 C   0  0  0  0  0  0  0  0  0  0  0  0
  -33.2063  -16.6566   33.4375 C   0  0  0  0  0  0  0  0  0  0  0  0
  -31.8033  -18.6998   33.0834 C   0  0  0  0  0  0  0  0  0  0  0  0
  -34.2868  -18.8471   32.9002 C   0  0  0  0  0  0  0  0  0  0  0  0
  -26.4948  -14.8181   24.0988 C   0  0  0  0  0  0  0  0  0  0  0  0
  -26.8875  -16.7213   25.6312 C   0  0  0  0  0  0  0  0  0  0  0  0
  -33.2222  -19.3790   26.8318 C   0  0  0  0  0  0  0  0  0  0  0  0
  -28.5828  -12.6744   27.8472 C   0  0  0  0  0  0  0  0  0  1  0  0
  -28.5625  -14.8520   25.5210 C   0  0  0  0  0  0  0  0  0  0  0  0
  -32.9766  -17.6816   31.0790 C   0  0  1  0  0  0  0  0  0  0  0  0
  -31.9246  -20.4299   28.6894 C   0  0  2  0  0  0  0  0  0  0  0  0
  -26.2571  -14.3991   26.6814 C   0  0  0  0  0  0  0  0  0  0  0  0
  -33.0653  -17.9486   32.6081 C   0  0  0  0  0  0  0  0  0  0  0  0
  -27.0388  -15.1815   25.5043 C   0  0  0  0  0  0  0  0  0  0  0  0
  -25.8940  -11.6646   20.3261 N   0  0  0  0  0  0  0  0  0  0  0  0
  -26.2114  -12.9629   20.1851 N   0  0  0  0  0  0  0  0  0  0  0  0
  -33.9145  -15.6838   29.9597 N   0  0  0  0  0  0  0  0  0  0  0  0
  -30.0179  -13.2555   20.2761 N   0  0  0  0  0  0  0  0  0  0  0  0
  -25.3341  -15.1542   20.3839 N   0  0  0  0  0  0  0  0  0  0  0  0
  -21.8489  -12.5272   21.5453 N   0  0  0  0  0  0  0  0  0  0  0  0
  -30.4695  -14.5820   22.1732 N   0  0  0  0  0  0  0  0  0  0  0  0
  -36.3086  -13.0143   30.6221 N   0  0  0  0  0  0  0  0  0  0  0  0
  -32.8698  -18.8888   30.2668 N   0  0  0  0  0  0  0  0  0  0  0  0
  -32.0523  -20.2076   27.2213 N   0  3  0  0  0  0  0  0  0  0  0  0
  -22.5265  -14.6977   21.2473 O   0  0  0  0  0  0  0  0  0  0  0  0
  -34.4527  -13.9025   31.7127 O   0  0  0  0  0  0  0  0  0  0  0  0
  -35.2981  -17.4220   30.6671 O   0  0  0  0  0  0  0  0  0  0  0  0
  -30.8623  -18.3330   29.2479 O   0  0  0  0  0  0  0  0  0  0  0  0
  -32.0426  -14.3516   20.4838 O   0  0  0  0  0  0  0  0  0  0  0  0
  -21.8409   -6.9595   21.7343 O   0  0  0  0  0  0  0  0  0  0  0  0
  -29.6945  -11.8165   27.6348 O   0  0  0  0  0  0  0  0  0  1  0  0
  -29.2684  -15.5841   24.5218 O   0  0  0  0  0  0  0  0  0  0  0  0
  -34.7185  -14.8772   24.3757 F   0  0  0  0  0  0  0  0  0  0  0  0
  -18.7698   -6.7110   26.3071 F   0  0  0  0  0  0  0  0  0  0  0  0
  -19.7535   -8.7264   22.1387 F   0  0  0  0  0  0  0  0  0  0  0  0
  1  2  1  0  0  0  0
  1  5  2  0  0  0  0
  2  6  2  0  0  0  0
  3  8  2  0  0  0  0
  3 18  1  0  0  0  0
  4  9  1  0  0  0  0
  4 18  2  0  0  0  0
  5 20  1  0  0  0  0
  6 22  1  0  0  0  0
  7 10  2  0  0  0  0
  7 21  1  0  0  0  0
  8 25  1  0  0  0  0
  9 25  2  0  0  0  0
 10 26  1  0  0  0  0
 11 13  2  0  0  0  0
 11 27  1  0  0  0  0
 12 14  2  0  0  0  0
 12 28  1  0  0  0  0
 13 29  1  0  0  0  0
 14 30  1  0  0  0  0
 15 23  1  0  0  0  0
 15 26  2  0  0  0  0
 16 24  1  0  0  0  0
 16 29  2  0  0  0  0
 17 30  2  0  0  0  0
 17 31  1  0  0  0  0
 18 32  1  0  0  0  0
 19 32  1  0  0  0  0
 19 33  2  0  0  0  0
 19 35  1  0  0  0  0
 20 22  2  0  0  0  0
 20 41  1  0  0  0  0
 21 23  2  0  0  0  0
 21 42  1  0  0  0  0
 22 50  1  0  0  0  0
 23 43  1  0  0  0  0
 24 27  2  0  0  0  0
 24 76  1  0  0  0  0
 25 85  1  0  0  0  0
 26 86  1  0  0  0  0
 27 87  1  0  0  0  0
 28 31  2  0  0  0  0
 28 85  1  0  0  0  0
 29 88  1  0  0  0  0
 30 89  1  0  0  0  0
 31 90  1  0  0  0  0
 32 70  2  0  0  0  0
 33 71  1  0  0  0  0
 33 74  1  0  0  0  0
 34 36  2  0  0  0  0
 34 63  1  0  0  0  0
 35 75  1  0  0  0  0
 35 80  2  0  0  0  0
 36 53  1  0  0  0  0
 36 67  1  0  0  0  0
 37 51  1  0  0  0  0
 37 77  1  0  0  0  0
 37 81  2  0  0  0  0
 38 65  1  0  0  0  0
 38 72  1  0  0  0  0
 38 82  2  0  0  0  0
 39 66  1  0  0  0  0
 39 78  1  0  0  0  0
 39 83  2  0  0  0  0
 40 73  1  0  0  0  0
 40 76  1  0  0  0  0
 40 84  2  0  0  0  0
 41 44  1  0  0  0  0
 42 51  1  0  0  0  0
 43 72  1  0  0  0  0
 44 46  1  0  0  0  0
 45 47  1  0  0  0  0
 45 48  1  0  0  0  0
 46 50  1  0  0  0  0
 47 52  1  0  0  0  0
 48 73  1  0  0  0  0
 49 52  1  0  0  0  0
 49 73  1  0  0  0  0
 50 77  1  0  0  0  0
 51 72  1  0  0  0  0
 52 71  1  0  0  0  0
 54 66  1  0  0  0  0
 55 67  1  0  0  0  0
 56 67  1  0  0  0  0
 57 68  1  0  0  0  0
 58 68  1  0  0  0  0
 59 68  1  0  0  0  0
 60 69  1  0  0  0  0
 61 69  1  0  0  0  0
 62 79  1  0  0  0  0
 63 86  1  0  0  0  0
 64 69  1  0  0  0  0
 64 87  1  0  0  0  0
 65 68  1  0  0  0  0
 65 78  1  0  0  0  0
 66 79  1  0  0  0  0
 67 69  1  0  0  0  0
 70 71  1  0  0  0  0
M  CHG  1  79   1
M  ISO  4  40 100  63 101  76 100  86 101
M  END
> <Batch ID>
0141

> <Smiles>
CNC(C)C(=O)NC(C(=O)N1Cc2cc([101O:1][101CH2:1]C=C(C)C(C)(C)C(C)(C)COc3ccc(F)cc3[100NH:0][100C:0](=O)N3CCCC(n4nc(-c5ccc(Oc6ccc(F)cc6F)cc5)c(C(N)=O)c4N)C3)ccc2CC1C(=O)NC1CCCc2ccccc21)C(C)(C)C

> <Shape>
0.144

> <Color>
0.178

> <Negative vol penalty>
0.000

$$$$

  -OEChem-04052302543D

 89 98  0     1  0  0  0  0  0999 V2000
  -16.8984  -34.4898   20.6311 C   0  0  0  0  0  0  0  0  0  0  0  0
  -17.0475  -33.1579   20.2579 C   0  0  0  0  0  0  0  0  0  0  0  0
  -31.5664  -19.0709   20.2729 C   0  0  0  0  0  0  0  0  0  0  0  0
  -23.3471   -9.3524   20.4982 C   0  0  0  0  0  0  0  0  0  0  0  0
  -23.1662  -11.1231   22.1319 C   0  0  0  0  0  0  0  0  0  0  0  0
  -18.0204  -35.3088   20.7506 C   0  0  0  0  0  0  0  0  0  0  0  0
  -18.3186  -32.6445   20.0030 C   0  0  0  0  0  0  0  0  0  0  0  0
  -22.1109  -26.5929   20.5628 C   0  0  0  0  0  0  0  0  0  0  0  0
  -30.6466  -20.0266   19.8415 C   0  0  0  0  0  0  0  0  0  0  0  0
  -31.2660  -17.7133   20.1610 C   0  0  0  0  0  0  0  0  0  0  0  0
  -22.4554   -8.5773   21.2396 C   0  0  0  0  0  0  0  0  0  0  0  0
  -22.2744  -10.3480   22.8732 C   0  0  0  0  0  0  0  0  0  0  0  0
  -22.9081  -25.7463   19.7937 C   0  0  0  0  0  0  0  0  0  0  0  0
  -20.5035   -5.9899   22.8886 C   0  0  0  0  0  0  0  0  0  0  0  0
  -20.8206   -4.6463   23.0883 C   0  0  0  0  0  0  0  0  0  0  0  0
  -24.7810  -27.2336   20.1090 C   0  0  0  0  0  0  0  0  0  0  0  0
  -22.8607   -5.2942   24.2087 C   0  0  0  0  0  0  0  0  0  0  0  0
  -23.7026  -10.6253   20.9444 C   0  0  0  0  0  0  0  0  0  0  0  0
  -24.3095  -12.3392   19.1552 C   0  0  0  0  0  0  0  0  0  0  0  0
  -19.3068  -34.8026   20.5064 C   0  0  0  0  0  0  0  0  0  0  0  0
  -22.6408  -27.7736   21.1027 C   0  0  0  0  0  0  0  0  0  0  0  0
  -19.4588  -33.4578   20.1181 C   0  0  0  0  0  0  0  0  0  0  0  0
  -23.9892  -28.0921   20.8867 C   0  0  0  0  0  0  0  0  0  0  0  0
  -29.1258  -18.2672   19.1866 C   0  0  0  0  0  0  0  0  0  0  0  0
  -29.4262  -19.6248   19.2984 C   0  0  0  0  0  0  0  0  0  0  0  0
  -30.0457  -17.3115   19.6179 C   0  0  0  0  0  0  0  0  0  0  0  0
  -21.9190   -9.0751   22.4270 C   0  0  0  0  0  0  0  0  0  0  0  0
  -24.2426  -26.0681   19.5642 C   0  0  0  0  0  0  0  0  0  0  0  0
  -21.3651   -6.9857   23.3489 C   0  0  0  0  0  0  0  0  0  0  0  0
  -21.9991   -4.2985   23.7484 C   0  0  0  0  0  0  0  0  0  0  0  0
  -22.5436   -6.6378   24.0090 C   0  0  0  0  0  0  0  0  0  0  0  0
  -24.6242  -11.4262   20.1794 C   0  0  0  0  0  0  0  0  0  0  0  0
  -25.5251  -12.8360   18.7526 C   0  0  0  0  0  0  0  0  0  0  0  0
  -25.1947  -23.0432   16.1727 C   0  0  0  0  0  0  0  0  0  0  0  0
  -23.0326  -12.7057   18.6159 C   0  0  0  0  0  0  0  0  0  0  0  0
  -25.4089  -23.2946   17.4739 C   0  0  0  0  0  0  0  0  0  0  0  0
  -22.0183  -30.8722   20.7630 C   0  0  0  0  0  0  0  0  0  0  0  0
  -24.2023  -31.1734   23.1425 C   0  0  0  0  0  0  0  0  0  0  0  0
  -26.8759  -29.8562   24.8049 C   0  0  0  0  0  0  0  0  0  0  0  0
  -30.5803  -14.8663   19.9040 C   0  0  0  0  0  0  0  0  0  0  0  0
  -20.4855  -35.7386   20.6026 C   0  0  0  0  0  0  0  0  0  0  0  0
  -21.7748  -28.6626   21.9524 C   0  0  0  0  0  0  0  0  0  0  0  0
  -24.6116  -29.3377   21.4608 C   0  0  0  0  0  0  0  0  0  0  0  0
  -21.8298  -35.0194   20.6790 C   0  0  0  0  0  0  0  0  0  0  0  0
  -30.2290  -11.3236   19.8517 C   0  0  0  0  0  0  0  0  0  0  0  0
  -27.8130  -16.8997   17.4316 C   0  0  0  0  0  0  0  0  0  0  0  0
  -27.4320  -18.3338   17.2360 C   0  0  0  0  0  0  0  0  0  0  0  0
  -21.9066  -33.9181   19.6264 C   0  0  0  0  0  0  0  0  0  0  0  0
  -28.7136  -11.1096   19.8481 C   0  0  0  0  0  0  0  0  0  0  0  0
  -30.6310  -12.5181   20.7151 C   0  0  0  0  0  0  0  0  0  0  0  0
  -28.4209  -13.5590   20.3972 C   0  0  0  0  0  0  0  0  0  0  0  0
  -27.8144  -17.8409   18.6039 C   0  0  0  0  0  0  0  0  0  0  0  0
  -20.8233  -32.8577   19.8572 C   0  0  1  0  0  0  0  0  0  0  0  0
  -22.2825  -30.0995   22.0243 C   0  0  1  0  0  0  0  0  0  0  0  0
  -27.9622  -12.4065   19.4890 C   0  0  2  0  0  0  0  0  0  0  0  0
  -28.4677  -30.3509   26.6808 C   0  0  0  0  0  0  0  0  0  0  0  0
  -25.6946  -33.1437   21.3534 C   0  0  0  0  0  0  0  0  0  0  0  0
  -27.6943  -32.8662   22.8342 C   0  0  0  0  0  0  0  0  0  0  0  0
  -25.5776  -33.8045   23.7626 C   0  0  0  0  0  0  0  0  0  0  0  0
  -27.1652  -20.4083   21.0457 C   0  0  0  0  0  0  0  0  0  0  0  0
  -28.3463  -22.5823   20.5634 C   0  0  0  0  0  0  0  0  0  0  0  0
  -26.0071  -27.4707   26.3258 C   0  0  0  0  0  0  0  0  0  0  0  0
  -28.4502  -20.6821   18.8387 C   0  0  0  0  0  0  0  0  0  0  0  0
  -26.6598  -22.8187   18.1613 C   0  0  0  0  0  0  0  0  0  0  0  0
  -24.4090  -24.0661   18.2913 C   0  0  0  0  0  0  0  0  0  1  0  0
  -25.7013  -31.3421   23.2028 C   0  0  1  0  0  0  0  0  0  0  0  0
  -27.1570  -29.6876   26.2872 C   0  0  2  0  0  0  0  0  0  0  0  0
  -26.1550  -32.7666   22.7757 C   0  0  0  0  0  0  0  0  0  0  0  0
  -27.6312  -21.3740   19.9524 C   0  0  0  0  0  0  0  0  0  0  0  0
  -25.9369  -11.3455   20.4129 N   0  0  0  0  0  0  0  0  0  0  0  0
  -26.4577  -12.2142   19.5297 N   0  0  0  0  0  0  0  0  0  0  0  0
  -23.7222  -30.1780   22.2796 N   0  0  0  0  0  0  0  0  0  0  0  0
  -29.8820  -13.7113   20.3150 N   0  0  0  0  0  0  0  0  0  0  0  0
  -25.8766  -13.7396   17.8132 N   0  0  0  0  0  0  0  0  0  0  0  0
  -21.8850  -12.0994   19.1449 N   0  0  0  0  0  0  0  0  0  0  0  0
  -29.7624  -15.9269   19.5156 N   0  0  0  0  0  0  0  0  0  0  0  0
  -21.2032  -31.9741   20.9386 N   0  0  0  0  0  0  0  0  0  0  0  0
  -26.1000  -30.9684   24.5555 N   0  0  0  0  0  0  0  0  0  0  0  0
  -27.2382  -28.2415   26.6378 N   0  3  0  0  0  0  0  0  0  0  0  0
  -26.4018  -21.8969   19.2997 N   0  3  0  0  0  0  0  0  0  0  0  0
  -22.9140  -13.5337   17.6811 O   0  0  0  0  0  0  0  0  0  0  0  0
  -22.5183  -30.4973   19.7089 O   0  0  0  0  0  0  0  0  0  0  0  0
  -23.4842  -31.8933   23.8409 O   0  0  0  0  0  0  0  0  0  0  0  0
  -27.3051  -29.0811   23.9532 O   0  0  0  0  0  0  0  0  0  0  0  0
  -31.8130  -14.9021   19.8712 O   0  0  0  0  0  0  0  0  0  0  0  0
  -21.0486   -8.3191   23.1506 O   0  0  0  0  0  0  0  0  0  0  0  0
  -25.0228  -25.2439   18.8133 O   0  0  0  0  0  0  0  0  0  1  0  0
  -22.3026   -3.0082   23.9415 F   0  0  0  0  0  0  0  0  0  0  0  0
  -23.3747   -7.5900   24.4545 F   0  0  0  0  0  0  0  0  0  0  0  0
  1  2  1  0  0  0  0
  1  6  2  0  0  0  0
  2  7  2  0  0  0  0
  3  9  2  0  0  0  0
  3 10  1  0  0  0  0
  4 11  2  0  0  0  0
  4 18  1  0  0  0  0
  5 12  1  0  0  0  0
  5 18  2  0  0  0  0
  6 20  1  0  0  0  0
  7 22  1  0  0  0  0
  8 13  2  0  0  0  0
  8 21  1  0  0  0  0
  9 25  1  0  0  0  0
 10 26  2  0  0  0  0
 11 27  1  0  0  0  0
 12 27  2  0  0  0  0
 13 28  1  0  0  0  0
 14 15  2  0  0  0  0
 14 29  1  0  0  0  0
 15 30  1  0  0  0  0
 16 23  1  0  0  0  0
 16 28  2  0  0  0  0
 17 30  2  0  0  0  0
 17 31  1  0  0  0  0
 18 32  1  0  0  0  0
 19 32  1  0  0  0  0
 19 33  2  0  0  0  0
 19 35  1  0  0  0  0
 20 22  2  0  0  0  0
 20 41  1  0  0  0  0
 21 23  2  0  0  0  0
 21 42  1  0  0  0  0
 22 53  1  0  0  0  0
 23 43  1  0  0  0  0
 24 25  2  0  0  0  0
 24 26  1  0  0  0  0
 24 52  1  0  0  0  0
 25 63  1  0  0  0  0
 26 76  1  0  0  0  0
 27 86  1  0  0  0  0
 28 87  1  0  0  0  0
 29 31  2  0  0  0  0
 29 86  1  0  0  0  0
 30 88  1  0  0  0  0
 31 89  1  0  0  0  0
 32 70  2  0  0  0  0
 33 71  1  0  0  0  0
 33 74  1  0  0  0  0
 34 36  2  0  0  0  0
 35 75  1  0  0  0  0
 35 81  2  0  0  0  0
 36 64  1  0  0  0  0
 36 65  1  0  0  0  0
 37 54  1  0  0  0  0
 37 77  1  0  0  0  0
 37 82  2  0  0  0  0
 38 66  1  0  0  0  0
 38 72  1  0  0  0  0
 38 83  2  0  0  0  0
 39 67  1  0  0  0  0
 39 78  1  0  0  0  0
 39 84  2  0  0  0  0
 40 73  1  0  0  0  0
 40 76  1  0  0  0  0
 40 85  2  0  0  0  0
 41 44  1  0  0  0  0
 42 54  1  0  0  0  0
 43 72  1  0  0  0  0
 44 48  1  0  0  0  0
 45 49  1  0  0  0  0
 45 50  1  0  0  0  0
 46 47  1  0  0  0  0
 46 52  1  0  0  0  0
 47 52  1  0  0  0  0
 48 53  1  0  0  0  0
 49 55  1  0  0  0  0
 50 73  1  0  0  0  0
 51 55  1  0  0  0  0
 51 73  1  0  0  0  0
 53 77  1  0  0  0  0
 54 72  1  0  0  0  0
 55 71  1  0  0  0  0
 56 67  1  0  0  0  0
 57 68  1  0  0  0  0
 58 68  1  0  0  0  0
 59 68  1  0  0  0  0
 60 69  1  0  0  0  0
 61 69  1  0  0  0  0
 62 79  1  0  0  0  0
 63 69  1  0  0  0  0
 64 80  1  0  0  0  0
 65 87  1  0  0  0  0
 66 68  1  0  0  0  0
 66 78  1  0  0  0  0
 67 79  1  0  0  0  0
 69 80  1  0  0  0  0
 70 71  1  0  0  0  0
M  CHG  2  79   1  80   1
M  ISO  4  40 100  65 101  76 100  87 101
M  END
> <Batch ID>
0141

> <Smiles>
C=C(CNC(C)(C)Cc1cccc([100NH:0][100C:0](=O)N2CCCC(n3nc(-c4ccc(Oc5ccc(F)cc5F)cc4)c(C(N)=O)c3N)C2)c1C1CC1)[101CH2:1][101O:1]c1ccc2c(c1)CN(C(=O)C(NC(=O)C(C)NC)C(C)(C)C)C(C(=O)NC1CCCc3ccccc31)C2

> <Shape>
0.278

> <Color>
0.092

> <Negative vol penalty>
0.000

$$$$

  -OEChem-04052302543D

 88 96  0     1  0  0  0  0  0999 V2000
  -27.6071  -23.5207   17.6202 C   0  0  0  0  0  0  0  0  0  0  0  0
  -26.5684  -24.4286   17.7926 C   0  0  0  0  0  0  0  0  0  0  0  0
  -28.0711  -18.5021   21.7207 C   0  0  0  0  0  0  0  0  0  0  0  0
  -26.2934  -17.3041   20.6065 C   0  0  0  0  0  0  0  0  0  0  0  0
  -19.8116  -22.4495   25.8370 C   0  0  0  0  0  0  0  0  0  0  0  0
  -28.6424  -23.4670   18.5511 C   0  0  0  0  0  0  0  0  0  0  0  0
  -26.5706  -25.2910   18.8894 C   0  0  0  0  0  0  0  0  0  0  0  0
  -23.0843  -28.7600   19.0117 C   0  0  0  0  0  0  0  0  0  0  0  0
  -19.9274  -23.8250   25.6364 C   0  0  0  0  0  0  0  0  0  0  0  0
  -29.0132  -17.6834   21.0980 C   0  0  0  0  0  0  0  0  0  0  0  0
  -27.2355  -16.4854   19.9837 C   0  0  0  0  0  0  0  0  0  0  0  0
  -21.7439  -28.4729   19.2661 C   0  0  0  0  0  0  0  0  0  0  0  0
  -29.1525  -13.8472   18.3791 C   0  0  0  0  0  0  0  0  0  0  0  0
  -28.9038  -12.4749   18.3548 C   0  0  0  0  0  0  0  0  0  0  0  0
  -19.7523  -23.4916   23.2499 C   0  0  0  0  0  0  0  0  0  0  0  0
  -21.9976  -29.3093   21.5145 C   0  0  0  0  0  0  0  0  0  0  0  0
  -28.8864  -12.4353   20.7704 C   0  0  0  0  0  0  0  0  0  0  0  0
  -26.7112  -18.3124   21.4750 C   0  0  0  0  0  0  0  0  0  0  0  0
  -19.6663  -21.5950   24.7441 C   0  0  0  0  0  0  0  0  0  0  0  0
  -19.6366  -22.1161   23.4505 C   0  0  0  0  0  0  0  0  0  0  0  0
  -25.2182  -20.3745   21.6379 C   0  0  0  0  0  0  0  0  0  0  0  0
  -28.6501  -24.3210   19.6662 C   0  0  0  0  0  0  0  0  0  0  0  0
  -23.8955  -29.3148   20.0120 C   0  0  0  0  0  0  0  0  0  0  0  0
  -27.6188  -25.2685   19.8271 C   0  0  0  0  0  0  0  0  0  0  0  0
  -23.3473  -29.6049   21.2695 C   0  0  0  0  0  0  0  0  0  0  0  0
  -19.8978  -24.3460   24.3429 C   0  0  0  0  0  0  0  0  0  0  0  0
  -28.5954  -16.6751   20.2295 C   0  0  0  0  0  0  0  0  0  0  0  0
  -21.2011  -28.7448   20.5185 C   0  0  0  0  0  0  0  0  0  0  0  0
  -29.2683  -14.5136   19.5990 C   0  0  0  0  0  0  0  0  0  0  0  0
  -28.7708  -11.7690   19.5504 C   0  0  0  0  0  0  0  0  0  0  0  0
  -29.1352  -13.8076   20.7947 C   0  0  0  0  0  0  0  0  0  0  0  0
  -25.7375  -19.1575   22.1184 C   0  0  0  0  0  0  0  0  0  0  0  0
  -24.3356  -20.7788   22.6095 C   0  0  0  0  0  0  0  0  0  0  0  0
  -19.5473  -20.1631   24.9861 C   0  0  0  0  0  0  0  0  0  0  0  0
  -19.4859  -21.2495   22.2888 C   0  0  0  0  0  0  0  0  0  0  0  0
  -25.5077  -21.0768   20.4219 C   0  0  0  0  0  0  0  0  0  0  0  0
  -20.1947  -19.5244   26.1550 C   0  0  0  0  0  0  0  0  0  0  0  0
  -26.5186  -28.3826   21.5462 C   0  0  0  0  0  0  0  0  0  0  0  0
  -26.3741  -31.3692   22.8037 C   0  0  0  0  0  0  0  0  0  0  0  0
  -20.0001  -26.4252   22.9314 C   0  0  0  0  0  0  0  0  0  0  0  0
  -24.4731  -34.0908   23.5948 C   0  0  0  0  0  0  0  0  0  0  0  0
  -29.7993  -24.2256   20.6386 C   0  0  0  0  0  0  0  0  0  0  0  0
  -25.3326  -29.6435   19.7133 C   0  0  0  0  0  0  0  0  0  0  0  0
  -24.1706  -30.2191   22.3710 C   0  0  0  0  0  0  0  0  0  0  0  0
  -29.4895  -24.8625   21.9894 C   0  0  0  0  0  0  0  0  0  0  0  0
  -23.5625  -19.0573   27.2935 C   0  0  0  0  0  0  0  0  0  0  0  0
  -28.9162  -26.2571   21.7873 C   0  0  0  0  0  0  0  0  0  0  0  0
  -24.3808  -19.1029   26.0036 C   0  0  0  0  0  0  0  0  0  0  0  0
  -22.1973  -18.4163   27.0663 C   0  0  0  0  0  0  0  0  0  0  0  0
  -22.2146  -19.1153   24.6873 C   0  0  0  0  0  0  0  0  0  0  0  0
  -27.5843  -26.1954   21.0288 C   0  0  1  0  0  0  0  0  0  0  0  0
  -26.1983  -29.7312   20.9664 C   0  0  1  0  0  0  0  0  0  0  0  0
  -23.5894  -19.7813   24.8713 C   0  0  2  0  0  0  0  0  0  0  0  0
  -18.2938  -21.4769   21.4075 C   0  0  0  0  0  0  0  0  0  0  0  0
  -24.6283  -36.3632   24.6481 C   0  0  0  0  0  0  0  0  0  0  0  0
  -26.5049  -30.0776   25.5650 C   0  0  0  0  0  0  0  0  0  0  0  0
  -25.7110  -32.2432   26.5388 C   0  0  0  0  0  0  0  0  0  0  0  0
  -27.8833  -32.1495   25.3160 C   0  0  0  0  0  0  0  0  0  0  0  0
  -19.5793  -30.2721   22.2984 C   0  0  0  0  0  0  0  0  0  0  0  0
  -17.9118  -28.4157   22.1021 C   0  0  0  0  0  0  0  0  0  0  0  0
  -23.5965  -35.4319   21.1064 C   0  0  0  0  0  0  0  0  0  0  0  0
  -20.1535  -27.9286   23.1233 C   0  0  0  0  0  0  0  0  0  0  0  0
  -25.7210  -31.9885   24.0157 C   0  0  1  0  0  0  0  0  0  0  0  0
  -24.6858  -35.5738   23.3496 C   0  0  2  0  0  0  0  0  0  0  0  0
  -26.4398  -31.6013   25.3389 C   0  0  0  0  0  0  0  0  0  0  0  0
  -19.4029  -28.7693   22.0747 C   0  0  0  0  0  0  0  0  0  1  0  0
  -25.2274  -18.8113   23.3033 N   0  0  0  0  0  0  0  0  0  0  0  0
  -18.8749  -19.3610   24.2080 N   0  0  0  0  0  0  0  0  0  0  0  0
  -24.3785  -19.8169   23.5755 N   0  0  0  0  0  0  0  0  0  0  0  0
  -21.4883  -19.0601   25.9622 N   0  0  0  0  0  0  0  0  0  0  0  0
  -25.5722  -30.5164   22.0321 N   0  0  0  0  0  0  0  0  0  0  0  0
  -23.5349  -21.8596   22.7233 N   0  0  0  0  0  0  0  0  0  0  0  0
  -26.4395  -20.5208   19.5348 N   0  0  0  0  0  0  0  0  0  0  0  0
  -20.0151  -25.7412   24.1395 N   0  0  0  0  0  0  0  0  0  0  0  0
  -27.1799  -27.5382   20.6749 N   0  0  0  0  0  0  0  0  0  0  0  0
  -25.6684  -33.4242   23.7622 N   0  0  0  0  0  0  0  0  0  0  0  0
  -23.6379  -36.1025   22.4313 N   0  3  0  0  0  0  0  0  0  0  0  0
  -20.2611  -20.3436   21.9815 O   0  0  0  0  0  0  0  0  0  0  0  0
  -24.9687  -22.1734   20.1382 O   0  0  0  0  0  0  0  0  0  0  0  0
  -19.5152  -19.4737   27.1718 O   0  0  0  0  0  0  0  0  0  0  0  0
  -26.1914  -28.1274   22.6993 O   0  0  0  0  0  0  0  0  0  0  0  0
  -27.5503  -31.6381   22.5468 O   0  0  0  0  0  0  0  0  0  0  0  0
  -19.8771  -25.9538   21.8042 O   0  0  0  0  0  0  0  0  0  0  0  0
  -23.3579  -33.5760   23.6374 O   0  0  0  0  0  0  0  0  0  0  0  0
  -29.5144  -15.8761   19.6215 O   0  0  0  0  0  0  0  0  0  0  0  0
  -19.8932  -28.4650   20.7696 O   0  0  0  0  0  0  0  0  0  1  0  0
  -28.5304  -10.4515   19.5269 F   0  0  0  0  0  0  0  0  0  0  0  0
  -29.2442  -14.4425   21.9698 F   0  0  0  0  0  0  0  0  0  0  0  0
  1  2  1  0  0  0  0
  1  6  2  0  0  0  0
  2  7  2  0  0  0  0
  3 10  2  0  0  0  0
  3 18  1  0  0  0  0
  4 11  1  0  0  0  0
  4 18  2  0  0  0  0
  5  9  2  0  0  0  0
  5 19  1  0  0  0  0
  6 22  1  0  0  0  0
  7 24  1  0  0  0  0
  8 12  2  0  0  0  0
  8 23  1  0  0  0  0
  9 26  1  0  0  0  0
 10 27  1  0  0  0  0
 11 27  2  0  0  0  0
 12 28  1  0  0  0  0
 13 14  2  0  0  0  0
 13 29  1  0  0  0  0
 14 30  1  0  0  0  0
 15 20  1  0  0  0  0
 15 26  2  0  0  0  0
 16 25  1  0  0  0  0
 16 28  2  0  0  0  0
 17 30  2  0  0  0  0
 17 31  1  0  0  0  0
 18 32  1  0  0  0  0
 19 20  2  0  0  0  0
 19 34  1  0  0  0  0
 20 35  1  0  0  0  0
 21 32  1  0  0  0  0
 21 33  2  0  0  0  0
 21 36  1  0  0  0  0
 22 24  2  0  0  0  0
 22 42  1  0  0  0  0
 23 25  2  0  0  0  0
 23 43  1  0  0  0  0
 24 51  1  0  0  0  0
 25 44  1  0  0  0  0
 26 74  1  0  0  0  0
 27 85  1  0  0  0  0
 28 86  1  0  0  0  0
 29 31  2  0  0  0  0
 29 85  1  0  0  0  0
 30 87  1  0  0  0  0
 31 88  1  0  0  0  0
 32 67  2  0  0  0  0
 33 69  1  0  0  0  0
 33 72  1  0  0  0  0
 34 37  1  0  0  0  0
 34 68  2  0  0  0  0
 35 54  1  0  0  0  0
 35 78  2  0  0  0  0
 36 73  1  0  0  0  0
 36 79  2  0  0  0  0
 37 70  1  0  0  0  0
 37 80  2  0  0  0  0
 38 52  1  0  0  0  0
 38 75  1  0  0  0  0
 38 81  2  0  0  0  0
 39 63  1  0  0  0  0
 39 71  1  0  0  0  0
 39 82  2  0  0  0  0
 40 62  1  0  0  0  0
 40 74  1  0  0  0  0
 40 83  2  0  0  0  0
 41 64  1  0  0  0  0
 41 76  1  0  0  0  0
 41 84  2  0  0  0  0
 42 45  1  0  0  0  0
 43 52  1  0  0  0  0
 44 71  1  0  0  0  0
 45 47  1  0  0  0  0
 46 48  1  0  0  0  0
 46 49  1  0  0  0  0
 47 51  1  0  0  0  0
 48 53  1  0  0  0  0
 49 70  1  0  0  0  0
 50 53  1  0  0  0  0
 50 70  1  0  0  0  0
 51 75  1  0  0  0  0
 52 71  1  0  0  0  0
 53 69  1  0  0  0  0
 55 64  1  0  0  0  0
 56 65  1  0  0  0  0
 57 65  1  0  0  0  0
 58 65  1  0  0  0  0
 59 66  1  0  0  0  0
 60 66  1  0  0  0  0
 61 77  1  0  0  0  0
 62 66  1  0  0  0  0
 63 65  1  0  0  0  0
 63 76  1  0  0  0  0
 64 77  1  0  0  0  0
 66 86  1  0  0  0  0
 67 69  1  0  0  0  0
M  CHG  1  77   1
M  ISO  4  34 100  37 100  66 101  86 101
M  END
> <Batch ID>
0141

> <Smiles>
CNC(C)C(=O)NC(C(=O)N1Cc2cc([101O:1][101C:1](C)(C)CC(=O)Nc3ccc([100C:0](=N)[100C:0](=O)N4CCCC(n5nc(-c6ccc(Oc7ccc(F)cc7F)cc6)c(C(N)=O)c5N)C4)c(C(C)=O)c3)ccc2CC1C(=O)NC1CCCc2ccccc21)C(C)(C)C

> <Shape>
0.254

> <Color>
0.063

> <Negative vol penalty>
0.000

$$$$

  -OEChem-04052302543D

 92100  0     1  0  0  0  0  0999 V2000
  -26.4908  -33.6535   12.6546 C   0  0  0  0  0  0  0  0  0  0  0  0
  -27.1172  -33.1203   13.7766 C   0  0  0  0  0  0  0  0  0  0  0  0
  -26.6860  -12.4756   21.7520 C   0  0  0  0  0  0  0  0  0  0  0  0
  -26.0745  -13.8609   19.8695 C   0  0  0  0  0  0  0  0  0  0  0  0
  -25.2645  -34.3038   12.7854 C   0  0  0  0  0  0  0  0  0  0  0  0
  -26.5180  -33.2380   15.0302 C   0  0  0  0  0  0  0  0  0  0  0  0
  -26.6660  -28.9175   17.6676 C   0  0  0  0  0  0  0  0  0  0  0  0
  -25.4012  -11.9330   21.7701 C   0  0  0  0  0  0  0  0  0  0  0  0
  -24.7896  -13.3183   19.8876 C   0  0  0  0  0  0  0  0  0  0  0  0
  -27.8728  -28.5884   18.2833 C   0  0  0  0  0  0  0  0  0  0  0  0
  -23.6562   -9.6042   20.0482 C   0  0  0  0  0  0  0  0  0  0  0  0
  -23.5385   -8.2214   20.1877 C   0  0  0  0  0  0  0  0  0  0  0  0
  -27.0180  -29.4098   20.3843 C   0  0  0  0  0  0  0  0  0  0  0  0
  -29.4158  -22.6388   21.1233 C   0  0  0  0  0  0  0  0  0  0  0  0
  -28.3368  -23.8108   19.3071 C   0  0  0  0  0  0  0  0  0  0  0  0
  -28.8605  -21.4625   19.0874 C   0  0  0  0  0  0  0  0  0  0  0  0
  -22.2723   -8.5343   22.2214 C   0  0  0  0  0  0  0  0  0  0  0  0
  -27.0227  -13.4396   20.8017 C   0  0  0  0  0  0  0  0  0  0  0  0
  -29.4647  -13.5231   20.0687 C   0  0  0  0  0  0  0  0  0  0  0  0
  -24.6454  -34.4212   14.0398 C   0  0  0  0  0  0  0  0  0  0  0  0
  -25.6283  -29.5063   18.4045 C   0  0  0  0  0  0  0  0  0  0  0  0
  -25.2829  -33.8917   15.1781 C   0  0  0  0  0  0  0  0  0  0  0  0
  -25.7981  -29.7431   19.7761 C   0  0  0  0  0  0  0  0  0  0  0  0
  -28.8816  -23.8122   20.5911 C   0  0  0  0  0  0  0  0  0  0  0  0
  -29.4053  -21.4639   20.3714 C   0  0  0  0  0  0  0  0  0  0  0  0
  -24.4530  -12.3543   20.8379 C   0  0  0  0  0  0  0  0  0  0  0  0
  -28.0500  -28.8371   19.6412 C   0  0  0  0  0  0  0  0  0  0  0  0
  -23.0821  -10.4521   20.9954 C   0  0  0  0  0  0  0  0  0  0  0  0
  -28.3262  -22.6360   18.5552 C   0  0  0  0  0  0  0  0  0  0  0  0
  -22.8465   -7.6864   21.2743 C   0  0  0  0  0  0  0  0  0  0  0  0
  -22.3901   -9.9172   22.0820 C   0  0  0  0  0  0  0  0  0  0  0  0
  -28.3496  -14.0009   20.7829 C   0  0  0  0  0  0  0  0  0  0  0  0
  -30.4750  -14.3986   20.3837 C   0  0  0  0  0  0  0  0  0  0  0  0
  -29.5771  -12.3893   19.1984 C   0  0  0  0  0  0  0  0  0  0  0  0
  -24.0810  -32.2800   18.2782 C   0  0  0  0  0  0  0  0  0  0  0  0
  -22.2487  -30.9179   20.5825 C   0  0  0  0  0  0  0  0  0  0  0  0
  -21.9760  -28.6045   23.0766 C   0  0  0  0  0  0  0  0  0  0  0  0
  -30.5268  -20.1008   22.1689 C   0  0  0  0  0  0  0  0  0  0  0  0
  -23.3424  -35.1742   14.1387 C   0  0  0  0  0  0  0  0  0  0  0  0
  -24.3230  -29.8308   17.7314 C   0  0  0  0  0  0  0  0  0  0  0  0
  -24.7078  -30.3546   20.6162 C   0  0  0  0  0  0  0  0  0  0  0  0
  -22.5943  -34.9281   15.4463 C   0  0  0  0  0  0  0  0  0  0  0  0
  -31.9434  -17.3200   23.8828 C   0  0  0  0  0  0  0  0  0  0  0  0
  -23.5456  -35.0353   16.6339 C   0  0  0  0  0  0  0  0  0  0  0  0
  -31.2886  -16.1096   23.2132 C   0  0  0  0  0  0  0  0  0  0  0  0
  -30.9721  -18.4923   24.0098 C   0  0  0  0  0  0  0  0  0  0  0  0
  -29.6588  -17.6809   22.0898 C   0  0  0  0  0  0  0  0  0  0  0  0
  -24.6527  -33.9775   16.5512 C   0  0  1  0  0  0  0  0  0  0  0  0
  -23.5203  -30.8989   18.4677 C   0  0  1  0  0  0  0  0  0  0  0  0
  -30.6173  -16.4971   21.8810 C   0  0  2  0  0  0  0  0  0  0  0  0
  -20.3700  -27.7531   24.8067 C   0  0  0  0  0  0  0  0  0  0  0  0
  -22.7911  -33.3838   22.2958 C   0  0  0  0  0  0  0  0  0  0  0  0
  -21.9948  -32.0903   24.2860 C   0  0  0  0  0  0  0  0  0  0  0  0
  -20.4372  -32.5444   22.3912 C   0  0  0  0  0  0  0  0  0  0  0  0
  -23.7398  -24.3883   16.8346 C   0  0  0  0  0  0  0  0  0  0  0  0
  -23.6824  -23.5886   14.4831 C   0  0  0  0  0  0  0  0  0  0  0  0
  -25.2054  -25.4458   15.1287 C   0  0  0  0  0  0  0  0  0  0  0  0
  -31.6738  -27.8733   21.7110 C   0  0  0  0  0  0  0  0  0  0  0  0
  -30.2204  -26.8975   23.5063 C   0  0  0  0  0  0  0  0  0  0  0  0
  -25.1973  -21.6741   16.4026 C   0  0  0  0  0  0  0  0  0  0  0  0
  -26.6468  -22.7207   14.6792 C   0  0  0  0  0  0  0  0  0  0  0  0
  -21.9662  -25.8892   21.8991 C   0  0  0  0  0  0  0  0  0  0  0  0
  -28.8931  -25.0840   21.4046 C   0  0  0  0  0  0  0  0  0  0  0  0
  -30.1765  -25.8907   21.1627 C   0  0  0  0  0  0  0  0  0  0  0  0
  -29.1739  -28.1636   21.6259 C   0  0  0  0  0  0  0  0  0  1  0  0
  -26.7348  -23.5545   17.0454 C   0  0  0  0  0  0  0  0  0  0  0  0
  -22.2967  -30.8581   22.0902 C   0  0  1  0  0  0  0  0  0  0  0  0
  -20.8968  -27.5839   23.3902 C   0  0  2  0  0  0  0  0  0  0  0  0
  -21.9014  -32.2094   22.7498 C   0  0  0  0  0  0  0  0  0  0  0  0
  -24.6282  -24.0894   15.6018 C   0  0  0  0  0  0  0  0  0  0  0  0
  -30.3220  -27.1939   21.9995 C   0  0  0  0  0  0  0  0  0  0  0  0
  -25.7834  -23.0295   15.9298 C   0  0  0  0  0  0  0  0  0  0  0  0
  -28.6253  -15.0950   21.4978 N   0  0  0  0  0  0  0  0  0  0  0  0
  -29.9252  -15.3118   21.2345 N   0  0  0  0  0  0  0  0  0  0  0  0
  -23.4521  -30.6601   19.9108 N   0  0  0  0  0  0  0  0  0  0  0  0
  -30.3782  -18.8056   22.7083 N   0  0  0  0  0  0  0  0  0  0  0  0
  -31.7712  -14.4686   20.0132 N   0  0  0  0  0  0  0  0  0  0  0  0
  -28.4417  -11.5960   18.9844 N   0  0  0  0  0  0  0  0  0  0  0  0
  -29.9480  -20.2717   20.9117 N   0  0  0  0  0  0  0  0  0  0  0  0
  -24.1472  -32.6840   16.9584 N   0  0  0  0  0  0  0  0  0  0  0  0
  -21.4539  -29.7332   22.4810 N   0  0  0  0  0  0  0  0  0  0  0  0
  -21.4353  -26.2013   23.2511 N   0  3  0  0  0  0  0  0  0  0  0  0
  -30.6568  -12.0791   18.6402 O   0  0  0  0  0  0  0  0  0  0  0  0
  -24.4264  -32.9314   19.2569 O   0  0  0  0  0  0  0  0  0  0  0  0
  -21.1812  -31.1767   20.0212 O   0  0  0  0  0  0  0  0  0  0  0  0
  -23.1628  -28.4205   23.3374 O   0  0  0  0  0  0  0  0  0  0  0  0
  -31.1469  -20.9850   22.7653 O   0  0  0  0  0  0  0  0  0  0  0  0
  -23.1992  -11.8248   20.8551 O   0  0  0  0  0  0  0  0  0  0  0  0
  -29.2271  -28.5175   20.2445 O   0  0  0  0  0  0  0  0  0  1  0  0
  -27.7950  -22.6348   17.3021 O   0  0  0  0  0  0  0  0  0  0  0  0
  -22.7322   -6.3585   21.4072 F   0  0  0  0  0  0  0  0  0  0  0  0
  -21.8354  -10.7268   22.9945 F   0  0  0  0  0  0  0  0  0  0  0  0
  1  2  1  0  0  0  0
  1  5  2  0  0  0  0
  2  6  2  0  0  0  0
  3  8  2  0  0  0  0
  3 18  1  0  0  0  0
  4  9  1  0  0  0  0
  4 18  2  0  0  0  0
  5 20  1  0  0  0  0
  6 22  1  0  0  0  0
  7 10  2  0  0  0  0
  7 21  1  0  0  0  0
  8 26  1  0  0  0  0
  9 26  2  0  0  0  0
 10 27  1  0  0  0  0
 11 12  2  0  0  0  0
 11 28  1  0  0  0  0
 12 30  1  0  0  0  0
 13 23  1  0  0  0  0
 13 27  2  0  0  0  0
 14 24  1  0  0  0  0
 14 25  2  0  0  0  0
 15 24  2  0  0  0  0
 15 29  1  0  0  0  0
 16 25  1  0  0  0  0
 16 29  2  0  0  0  0
 17 30  2  0  0  0  0
 17 31  1  0  0  0  0
 18 32  1  0  0  0  0
 19 32  1  0  0  0  0
 19 33  2  0  0  0  0
 19 34  1  0  0  0  0
 20 22  2  0  0  0  0
 20 39  1  0  0  0  0
 21 23  2  0  0  0  0
 21 40  1  0  0  0  0
 22 48  1  0  0  0  0
 23 41  1  0  0  0  0
 24 63  1  0  0  0  0
 25 79  1  0  0  0  0
 26 88  1  0  0  0  0
 27 89  1  0  0  0  0
 28 31  2  0  0  0  0
 28 88  1  0  0  0  0
 29 90  1  0  0  0  0
 30 91  1  0  0  0  0
 31 92  1  0  0  0  0
 32 73  2  0  0  0  0
 33 74  1  0  0  0  0
 33 77  1  0  0  0  0
 34 78  1  0  0  0  0
 34 83  2  0  0  0  0
 35 49  1  0  0  0  0
 35 80  1  0  0  0  0
 35 84  2  0  0  0  0
 36 67  1  0  0  0  0
 36 75  1  0  0  0  0
 36 85  2  0  0  0  0
 37 68  1  0  0  0  0
 37 81  1  0  0  0  0
 37 86  2  0  0  0  0
 38 76  1  0  0  0  0
 38 79  1  0  0  0  0
 38 87  2  0  0  0  0
 39 42  1  0  0  0  0
 40 49  1  0  0  0  0
 41 75  1  0  0  0  0
 42 44  1  0  0  0  0
 43 45  1  0  0  0  0
 43 46  1  0  0  0  0
 44 48  1  0  0  0  0
 45 50  1  0  0  0  0
 46 76  1  0  0  0  0
 47 50  1  0  0  0  0
 47 76  1  0  0  0  0
 48 80  1  0  0  0  0
 49 75  1  0  0  0  0
 50 74  1  0  0  0  0
 51 68  1  0  0  0  0
 52 69  1  0  0  0  0
 53 69  1  0  0  0  0
 54 69  1  0  0  0  0
 55 70  1  0  0  0  0
 56 70  1  0  0  0  0
 57 70  1  0  0  0  0
 58 71  1  0  0  0  0
 59 71  1  0  0  0  0
 60 72  1  0  0  0  0
 61 72  1  0  0  0  0
 62 82  1  0  0  0  0
 63 64  1  0  0  0  0
 64 71  1  0  0  0  0
 65 71  1  0  0  0  0
 65 89  1  0  0  0  0
 66 72  1  0  0  0  0
 66 90  1  0  0  0  0
 67 69  1  0  0  0  0
 67 81  1  0  0  0  0
 68 82  1  0  0  0  0
 70 72  1  0  0  0  0
 73 74  1  0  0  0  0
M  CHG  1  82   1
M  ISO  4  38 100  65 101  79 100  89 101
M  END
> <Batch ID>
0141

> <Smiles>
CNC(C)C(=O)NC(C(=O)N1Cc2cc([101O:1][101CH2:1]C(C)(C)CCc3cc([100NH:0][100C:0](=O)N4CCCC(n5nc(-c6ccc(Oc7ccc(F)cc7F)cc6)c(C(N)=O)c5N)C4)cc(OCC(C)(C)C(C)(C)C)c3)ccc2CC1C(=O)NC1CCCc2ccccc21)C(C)(C)C

> <Shape>
0.261

> <Color>
0.082

> <Negative vol penalty>
0.000

$$$$

  -OEChem-04052302543D

 91 99  0     1  0  0  0  0  0999 V2000
  -19.5985  -25.3765   26.1391 C   0  0  0  0  0  0  0  0  0  0  0  0
  -20.8300  -24.9188   25.6814 C   0  0  0  0  0  0  0  0  0  0  0  0
  -23.1063   -9.8406   20.0318 C   0  0  0  0  0  0  0  0  0  0  0  0
  -23.7629  -10.0354   22.3487 C   0  0  0  0  0  0  0  0  0  0  0  0
  -18.8007  -26.1691   25.3150 C   0  0  0  0  0  0  0  0  0  0  0  0
  -21.2638  -25.2525   24.3990 C   0  0  0  0  0  0  0  0  0  0  0  0
  -26.1158  -26.6999   24.3047 C   0  0  0  0  0  0  0  0  0  0  0  0
  -22.3614   -8.7020   20.3386 C   0  0  0  0  0  0  0  0  0  0  0  0
  -23.0180   -8.8968   22.6556 C   0  0  0  0  0  0  0  0  0  0  0  0
  -27.0810  -25.6955   24.3621 C   0  0  0  0  0  0  0  0  0  0  0  0
  -19.7727   -8.1111   23.1766 C   0  0  0  0  0  0  0  0  0  0  0  0
  -18.9645   -8.1540   24.3126 C   0  0  0  0  0  0  0  0  0  0  0  0
  -31.6132  -18.7379   23.9969 C   0  0  0  0  0  0  0  0  0  0  0  0
  -29.6977  -17.7350   22.9190 C   0  0  0  0  0  0  0  0  0  0  0  0
  -27.3735  -25.8485   21.9724 C   0  0  0  0  0  0  0  0  0  0  0  0
  -31.9129  -16.8678   22.4970 C   0  0  0  0  0  0  0  0  0  0  0  0
  -20.1875   -6.2945   25.2527 C   0  0  0  0  0  0  0  0  0  0  0  0
  -23.8072  -10.5073   21.0368 C   0  0  0  0  0  0  0  0  0  0  0  0
  -30.2364  -18.6927   23.7782 C   0  0  0  0  0  0  0  0  0  0  0  0
  -24.1336  -13.0192   20.7341 C   0  0  0  0  0  0  0  0  0  0  0  0
  -19.2293  -26.5208   24.0253 C   0  0  0  0  0  0  0  0  0  0  0  0
  -25.7637  -27.2795   23.0773 C   0  0  0  0  0  0  0  0  0  0  0  0
  -20.4704  -26.0495   23.5563 C   0  0  0  0  0  0  0  0  0  0  0  0
  -26.4053  -26.8618   21.9025 C   0  0  0  0  0  0  0  0  0  0  0  0
  -32.4515  -17.8255   23.3562 C   0  0  0  0  0  0  0  0  0  0  0  0
  -30.5360  -16.8225   22.2784 C   0  0  0  0  0  0  0  0  0  0  0  0
  -22.3172   -8.2300   21.6505 C   0  0  0  0  0  0  0  0  0  0  0  0
  -27.7080  -25.2677   23.1955 C   0  0  0  0  0  0  0  0  0  0  0  0
  -20.7882   -7.1599   23.0785 C   0  0  0  0  0  0  0  0  0  0  0  0
  -19.1719   -7.2457   25.3507 C   0  0  0  0  0  0  0  0  0  0  0  0
  -20.9956   -6.2516   24.1166 C   0  0  0  0  0  0  0  0  0  0  0  0
  -24.5773  -11.6832   20.7204 C   0  0  0  0  0  0  0  0  0  0  0  0
  -25.2348  -13.7506   20.3614 C   0  0  0  0  0  0  0  0  0  0  0  0
  -29.3493  -19.6586   24.4570 C   0  0  0  0  0  0  0  0  0  0  0  0
  -22.8415  -13.5514   21.0550 C   0  0  0  0  0  0  0  0  0  0  0  0
  -23.0912  -27.4588   21.3659 C   0  0  0  0  0  0  0  0  0  0  0  0
  -24.8810  -29.4149   19.4970 C   0  0  0  0  0  0  0  0  0  0  0  0
  -27.9815  -30.3753   18.4429 C   0  0  0  0  0  0  0  0  0  0  0  0
  -30.6790  -14.8698   20.6932 C   0  0  0  0  0  0  0  0  0  0  0  0
  -18.3112  -27.3405   23.1536 C   0  0  0  0  0  0  0  0  0  0  0  0
  -24.7397  -28.3805   23.0358 C   0  0  0  0  0  0  0  0  0  0  0  0
  -26.0779  -27.4661   20.5624 C   0  0  0  0  0  0  0  0  0  0  0  0
  -19.0102  -27.9599   21.9461 C   0  0  0  0  0  0  0  0  0  0  0  0
  -29.6911  -12.2657   18.4751 C   0  0  0  0  0  0  0  0  0  0  0  0
  -19.8846  -26.9244   21.2461 C   0  0  0  0  0  0  0  0  0  0  0  0
  -28.2361  -11.9919   18.8626 C   0  0  0  0  0  0  0  0  0  0  0  0
  -30.5497  -12.5982   19.6941 C   0  0  0  0  0  0  0  0  0  0  0  0
  -28.5772  -13.4062   20.9292 C   0  0  0  0  0  0  0  0  0  0  0  0
  -20.9867  -26.4107   22.1805 C   0  0  1  0  0  0  0  0  0  0  0  0
  -24.0900  -28.5408   21.6649 C   0  0  1  0  0  0  0  0  0  0  0  0
  -27.6594  -13.1302   19.7270 C   0  0  2  0  0  0  0  0  0  0  0  0
  -29.1239  -31.9742   16.8821 C   0  0  0  0  0  0  0  0  0  0  0  0
  -34.2635  -17.6575   25.0981 C   0  0  0  0  0  0  0  0  0  0  0  0
  -34.5197  -19.2515   23.1668 C   0  0  0  0  0  0  0  0  0  0  0  0
  -34.7618  -16.8019   22.8174 C   0  0  0  0  0  0  0  0  0  0  0  0
  -24.1140  -27.6487   17.1301 C   0  0  0  0  0  0  0  0  0  0  0  0
  -25.9880  -28.6888   15.8361 C   0  0  0  0  0  0  0  0  0  0  0  0
  -24.1001  -30.1027   16.6482 C   0  0  0  0  0  0  0  0  0  0  0  0
  -28.6235  -21.3758   26.7884 C   0  0  0  0  0  0  0  0  0  0  0  0
  -30.0082  -23.0983   25.6183 C   0  0  0  0  0  0  0  0  0  0  0  0
  -29.3364  -22.1467   22.4574 C   0  0  0  0  0  0  0  0  0  0  0  0
  -26.9937  -22.9556   22.1661 C   0  0  0  0  0  0  0  0  0  0  0  0
  -29.4034  -31.7125   20.6676 C   0  0  0  0  0  0  0  0  0  0  0  0
  -27.8866  -22.3371   24.5028 C   0  0  0  0  0  0  0  0  0  0  0  0
  -25.7905  -29.2196   18.3080 C   0  0  1  0  0  0  0  0  0  0  0  0
  -28.6160  -31.7467   18.2974 C   0  0  2  0  0  0  0  0  0  0  0  0
  -33.9237  -17.8733   23.5907 C   0  0  0  0  0  0  0  0  0  0  0  0
  -25.0031  -28.9020   17.0055 C   0  0  0  0  0  0  0  0  0  0  0  0
  -29.0546  -21.9110   25.4246 C   0  0  0  0  0  0  0  0  0  0  0  0
  -28.1955  -22.9415   23.1097 C   0  0  0  0  0  0  0  0  0  1  0  0
  -25.8603  -11.5697   20.3669 N   0  0  0  0  0  0  0  0  0  0  0  0
  -26.2322  -12.8436   20.1548 N   0  0  0  0  0  0  0  0  0  0  0  0
  -25.0655  -28.5350   20.5729 N   0  0  0  0  0  0  0  0  0  0  0  0
  -29.9438  -13.6878   20.4624 N   0  0  0  0  0  0  0  0  0  0  0  0
  -25.4374  -15.0746   20.1933 N   0  0  0  0  0  0  0  0  0  0  0  0
  -28.1050  -19.2752   24.7429 N   0  0  0  0  0  0  0  0  0  0  0  0
  -21.8229  -12.6597   21.4179 N   0  0  0  0  0  0  0  0  0  0  0  0
  -29.9883  -15.8483   21.4072 N   0  0  0  0  0  0  0  0  0  0  0  0
  -22.0574  -27.3793   22.2794 N   0  0  0  0  0  0  0  0  0  0  0  0
  -26.6202  -30.4169   18.2278 N   0  0  0  0  0  0  0  0  0  0  0  0
  -29.8388  -20.8658   24.7469 N   0  3  0  0  0  0  0  0  0  0  0  0
  -29.7639  -31.8887   19.2372 N   0  3  0  0  0  0  0  0  0  0  0  0
  -22.5930  -14.7799   21.0052 O   0  0  0  0  0  0  0  0  0  0  0  0
  -23.2460  -26.7497   20.3785 O   0  0  0  0  0  0  0  0  0  0  0  0
  -24.0427  -30.3195   19.4750 O   0  0  0  0  0  0  0  0  0  0  0  0
  -28.6294  -29.3672   18.7161 O   0  0  0  0  0  0  0  0  0  0  0  0
  -31.8265  -15.0145   20.2638 O   0  0  0  0  0  0  0  0  0  0  0  0
  -21.5902   -7.1191   21.9503 O   0  0  0  0  0  0  0  0  0  0  0  0
  -28.6501  -24.2871   23.2485 O   0  0  0  0  0  0  0  0  0  1  0  0
  -18.3968   -7.2880   26.4423 F   0  0  0  0  0  0  0  0  0  0  0  0
  -21.9703   -5.3362   24.0286 F   0  0  0  0  0  0  0  0  0  0  0  0
  1  2  1  0  0  0  0
  1  5  2  0  0  0  0
  2  6  2  0  0  0  0
  3  8  2  0  0  0  0
  3 18  1  0  0  0  0
  4  9  1  0  0  0  0
  4 18  2  0  0  0  0
  5 21  1  0  0  0  0
  6 23  1  0  0  0  0
  7 10  2  0  0  0  0
  7 22  1  0  0  0  0
  8 27  1  0  0  0  0
  9 27  2  0  0  0  0
 10 28  1  0  0  0  0
 11 12  2  0  0  0  0
 11 29  1  0  0  0  0
 12 30  1  0  0  0  0
 13 19  2  0  0  0  0
 13 25  1  0  0  0  0
 14 19  1  0  0  0  0
 14 26  2  0  0  0  0
 15 24  1  0  0  0  0
 15 28  2  0  0  0  0
 16 25  2  0  0  0  0
 16 26  1  0  0  0  0
 17 30  2  0  0  0  0
 17 31  1  0  0  0  0
 18 32  1  0  0  0  0
 19 34  1  0  0  0  0
 20 32  1  0  0  0  0
 20 33  2  0  0  0  0
 20 35  1  0  0  0  0
 21 23  2  0  0  0  0
 21 40  1  0  0  0  0
 22 24  2  0  0  0  0
 22 41  1  0  0  0  0
 23 49  1  0  0  0  0
 24 42  1  0  0  0  0
 25 67  1  0  0  0  0
 26 78  1  0  0  0  0
 27 88  1  0  0  0  0
 28 89  1  0  0  0  0
 29 31  2  0  0  0  0
 29 88  1  0  0  0  0
 30 90  1  0  0  0  0
 31 91  1  0  0  0  0
 32 71  2  0  0  0  0
 33 72  1  0  0  0  0
 33 75  1  0  0  0  0
 34 76  1  0  0  0  0
 34 81  2  0  0  0  0
 35 77  1  0  0  0  0
 35 83  2  0  0  0  0
 36 50  1  0  0  0  0
 36 79  1  0  0  0  0
 36 84  2  0  0  0  0
 37 65  1  0  0  0  0
 37 73  1  0  0  0  0
 37 85  2  0  0  0  0
 38 66  1  0  0  0  0
 38 80  1  0  0  0  0
 38 86  2  0  0  0  0
 39 74  1  0  0  0  0
 39 78  1  0  0  0  0
 39 87  2  0  0  0  0
 40 43  1  0  0  0  0
 41 50  1  0  0  0  0
 42 73  1  0  0  0  0
 43 45  1  0  0  0  0
 44 46  1  0  0  0  0
 44 47  1  0  0  0  0
 45 49  1  0  0  0  0
 46 51  1  0  0  0  0
 47 74  1  0  0  0  0
 48 51  1  0  0  0  0
 48 74  1  0  0  0  0
 49 79  1  0  0  0  0
 50 73  1  0  0  0  0
 51 72  1  0  0  0  0
 52 66  1  0  0  0  0
 53 67  1  0  0  0  0
 54 67  1  0  0  0  0
 55 67  1  0  0  0  0
 56 68  1  0  0  0  0
 57 68  1  0  0  0  0
 58 68  1  0  0  0  0
 59 69  1  0  0  0  0
 60 69  1  0  0  0  0
 61 70  1  0  0  0  0
 62 70  1  0  0  0  0
 63 82  1  0  0  0  0
 64 69  1  0  0  0  0
 64 70  1  0  0  0  0
 65 68  1  0  0  0  0
 65 80  1  0  0  0  0
 66 82  1  0  0  0  0
 69 81  1  0  0  0  0
 70 89  1  0  0  0  0
 71 72  1  0  0  0  0
M  CHG  2  81   1  82   1
M  ISO  4  39 100  70 101  78 100  89 101
M  END
> <Batch ID>
0141

> <Smiles>
CNC(C)C(=O)NC(C(=O)N1Cc2cc([101O:1][101C:1](C)(C)CC(C)(C)NC(=N)c3cc([100NH:0][100C:0](=O)N4CCCC(n5nc(-c6ccc(Oc7ccc(F)cc7F)cc6)c(C(N)=O)c5N)C4)cc(C(C)(C)C)c3)ccc2CC1C(=O)NC1CCCc2ccccc21)C(C)(C)C

> <Shape>
0.243

> <Color>
0.184

> <Negative vol penalty>
0.000

$$$$

  -OEChem-04052302543D

 87 95  0     1  0  0  0  0  0999 V2000
  -38.2815  -29.5045   13.0687 C   0  0  0  0  0  0  0  0  0  0  0  0
  -37.4445  -29.7141   14.1600 C   0  0  0  0  0  0  0  0  0  0  0  0
  -32.5403  -17.7237   23.1517 C   0  0  0  0  0  0  0  0  0  0  0  0
  -23.0912   -9.7556   20.0861 C   0  0  0  0  0  0  0  0  0  0  0  0
  -23.7974   -9.9638   22.3872 C   0  0  0  0  0  0  0  0  0  0  0  0
  -37.7358  -29.2189   11.8179 C   0  0  0  0  0  0  0  0  0  0  0  0
  -36.0612  -29.6393   14.0008 C   0  0  0  0  0  0  0  0  0  0  0  0
  -32.1389  -24.9454   17.8053 C   0  0  0  0  0  0  0  0  0  0  0  0
  -31.7204  -18.6451   23.8030 C   0  0  0  0  0  0  0  0  0  0  0  0
  -31.9787  -16.7608   22.3131 C   0  0  0  0  0  0  0  0  0  0  0  0
  -22.3479   -8.6226   20.4167 C   0  0  0  0  0  0  0  0  0  0  0  0
  -23.0540   -8.8307   22.7178 C   0  0  0  0  0  0  0  0  0  0  0  0
  -31.2946  -24.2216   18.6476 C   0  0  0  0  0  0  0  0  0  0  0  0
  -19.8170   -8.0635   23.3126 C   0  0  0  0  0  0  0  0  0  0  0  0
  -19.0332   -8.1180   24.4651 C   0  0  0  0  0  0  0  0  0  0  0  0
  -29.3708  -25.0018   17.4073 C   0  0  0  0  0  0  0  0  0  0  0  0
  -29.7771  -17.6409   22.7772 C   0  0  0  0  0  0  0  0  0  0  0  0
  -20.2675   -6.2596   25.3924 C   0  0  0  0  0  0  0  0  0  0  0  0
  -23.8160  -10.4262   21.0714 C   0  0  0  0  0  0  0  0  0  0  0  0
  -24.1469  -12.9344   20.7439 C   0  0  0  0  0  0  0  0  0  0  0  0
  -36.3455  -29.1310   11.6453 C   0  0  0  0  0  0  0  0  0  0  0  0
  -31.6028  -25.6887   16.7500 C   0  0  0  0  0  0  0  0  0  0  0  0
  -35.4964  -29.3536   12.7462 C   0  0  0  0  0  0  0  0  0  0  0  0
  -30.2124  -25.7188   16.5527 C   0  0  0  0  0  0  0  0  0  0  0  0
  -30.3388  -18.6038   23.6158 C   0  0  0  0  0  0  0  0  0  0  0  0
  -30.5970  -16.7195   22.1259 C   0  0  0  0  0  0  0  0  0  0  0  0
  -22.3293   -8.1601   21.7325 C   0  0  0  0  0  0  0  0  0  0  0  0
  -29.9140  -24.2500   18.4492 C   0  0  0  0  0  0  0  0  0  0  0  0
  -20.8261   -7.1070   23.2000 C   0  0  0  0  0  0  0  0  0  0  0  0
  -19.2585   -7.2161   25.5050 C   0  0  0  0  0  0  0  0  0  0  0  0
  -21.0513   -6.2051   24.2399 C   0  0  0  0  0  0  0  0  0  0  0  0
  -24.5844  -11.5964   20.7304 C   0  0  0  0  0  0  0  0  0  0  0  0
  -25.2432  -13.6582   20.3429 C   0  0  0  0  0  0  0  0  0  0  0  0
  -22.8643  -13.4747   21.0882 C   0  0  0  0  0  0  0  0  0  0  0  0
  -32.2567  -27.9367   13.8183 C   0  0  0  0  0  0  0  0  0  0  0  0
  -28.6458  -20.4574   23.2946 C   0  0  0  0  0  0  0  0  0  0  0  0
  -30.0375  -25.9943   12.9742 C   0  0  0  0  0  0  0  0  0  0  0  0
  -27.9179  -23.4085   12.2970 C   0  0  0  0  0  0  0  0  0  0  0  0
  -30.6981  -14.7550   20.5521 C   0  0  0  0  0  0  0  0  0  0  0  0
  -35.8007  -28.8665   10.2640 C   0  0  0  0  0  0  0  0  0  0  0  0
  -32.4696  -26.5327   15.8555 C   0  0  0  0  0  0  0  0  0  0  0  0
  -29.6778  -26.5599   15.4260 C   0  0  0  0  0  0  0  0  0  0  0  0
  -34.3364  -28.4351   10.2591 C   0  0  0  0  0  0  0  0  0  0  0  0
  -29.6522  -12.1399   18.3739 C   0  0  0  0  0  0  0  0  0  0  0  0
  -33.5097  -29.3417   11.1654 C   0  0  0  0  0  0  0  0  0  0  0  0
  -28.2046  -11.8754   18.7939 C   0  0  0  0  0  0  0  0  0  0  0  0
  -30.5378  -12.4771   19.5721 C   0  0  0  0  0  0  0  0  0  0  0  0
  -28.5953  -13.3026   20.8427 C   0  0  0  0  0  0  0  0  0  0  0  0
  -33.9916  -29.2565   12.6187 C   0  0  1  0  0  0  0  0  0  0  0  0
  -31.9659  -26.5854   14.4020 C   0  0  1  0  0  0  0  0  0  0  0  0
  -27.6512  -13.0224   19.6621 C   0  0  2  0  0  0  0  0  0  0  0  0
  -26.4801  -22.4674   10.4682 C   0  0  0  0  0  0  0  0  0  0  0  0
  -28.4499  -18.8350   25.2287 C   0  0  0  0  0  0  0  0  0  0  0  0
  -30.1821  -20.6110   25.2499 C   0  0  0  0  0  0  0  0  0  0  0  0
  -27.9650  -28.1726   13.4877 C   0  0  0  0  0  0  0  0  0  0  0  0
  -26.2530  -26.6994   12.4075 C   0  0  0  0  0  0  0  0  0  0  0  0
  -28.2094  -27.5093   11.0888 C   0  0  0  0  0  0  0  0  0  0  0  0
  -27.8526  -21.0932   20.3241 C   0  0  0  0  0  0  0  0  0  0  0  0
  -27.7301  -23.1100   21.8194 C   0  0  0  0  0  0  0  0  0  0  0  0
  -29.4464  -20.8749   12.2405 C   0  0  0  0  0  0  0  0  0  0  0  0
  -29.4580  -21.2876   22.2933 C   0  0  0  0  0  0  0  0  0  0  0  0
  -29.7162  -22.7862   20.3143 C   0  0  0  0  0  0  0  0  0  1  0  0
  -28.5559  -25.7388   12.8601 C   0  0  1  0  0  0  0  0  0  0  0  0
  -27.8495  -22.4412   11.1291 C   0  0  2  0  0  0  0  0  0  0  0  0
  -29.4373  -19.6177   24.3325 C   0  0  0  0  0  0  0  0  0  0  0  0
  -27.7608  -27.0208   12.4833 C   0  0  0  0  0  0  0  0  0  0  0  0
  -28.6713  -22.0583   21.2012 C   0  0  0  0  0  0  0  0  0  0  0  0
  -25.8592  -11.4745   20.3508 N   0  0  0  0  0  0  0  0  0  0  0  0
  -26.2321  -12.7452   20.1219 N   0  0  0  0  0  0  0  0  0  0  0  0
  -30.5165  -26.3886   14.2294 N   0  0  0  0  0  0  0  0  0  0  0  0
  -29.9530  -13.5748   20.3453 N   0  0  0  0  0  0  0  0  0  0  0  0
  -25.4481  -14.9801   20.1612 N   0  0  0  0  0  0  0  0  0  0  0  0
  -21.8497  -12.5902   21.4787 N   0  0  0  0  0  0  0  0  0  0  0  0
  -30.0269  -15.7417   21.2735 N   0  0  0  0  0  0  0  0  0  0  0  0
  -33.5077  -28.0429   13.2413 N   0  0  0  0  0  0  0  0  0  0  0  0
  -28.4029  -24.6406   11.9121 N   0  0  0  0  0  0  0  0  0  0  0  0
  -28.1218  -21.0509   11.5914 N   0  3  0  0  0  0  0  0  0  0  0  0
  -22.6201  -14.7039   21.0348 O   0  0  0  0  0  0  0  0  0  0  0  0
  -31.4085  -28.8187   13.8846 O   0  0  0  0  0  0  0  0  0  0  0  0
  -27.4144  -20.4808   23.3038 O   0  0  0  0  0  0  0  0  0  0  0  0
  -30.7522  -25.8542   11.9778 O   0  0  0  0  0  0  0  0  0  0  0  0
  -27.5719  -23.1030   13.4361 O   0  0  0  0  0  0  0  0  0  0  0  0
  -31.8369  -14.8915   20.0976 O   0  0  0  0  0  0  0  0  0  0  0  0
  -21.6039   -7.0546   22.0555 O   0  0  0  0  0  0  0  0  0  0  0  0
  -29.0902  -23.5325   19.2781 O   0  0  0  0  0  0  0  0  0  1  0  0
  -18.5067   -7.2695   26.6123 F   0  0  0  0  0  0  0  0  0  0  0  0
  -22.0200   -5.2847   24.1380 F   0  0  0  0  0  0  0  0  0  0  0  0
  1  2  1  0  0  0  0
  1  6  2  0  0  0  0
  2  7  2  0  0  0  0
  3  9  2  0  0  0  0
  3 10  1  0  0  0  0
  4 11  2  0  0  0  0
  4 19  1  0  0  0  0
  5 12  1  0  0  0  0
  5 19  2  0  0  0  0
  6 21  1  0  0  0  0
  7 23  1  0  0  0  0
  8 13  2  0  0  0  0
  8 22  1  0  0  0  0
  9 25  1  0  0  0  0
 10 26  2  0  0  0  0
 11 27  1  0  0  0  0
 12 27  2  0  0  0  0
 13 28  1  0  0  0  0
 14 15  2  0  0  0  0
 14 29  1  0  0  0  0
 15 30  1  0  0  0  0
 16 24  1  0  0  0  0
 16 28  2  0  0  0  0
 17 25  2  0  0  0  0
 17 26  1  0  0  0  0
 18 30  2  0  0  0  0
 18 31  1  0  0  0  0
 19 32  1  0  0  0  0
 20 32  1  0  0  0  0
 20 33  2  0  0  0  0
 20 34  1  0  0  0  0
 21 23  2  0  0  0  0
 21 40  1  0  0  0  0
 22 24  2  0  0  0  0
 22 41  1  0  0  0  0
 23 49  1  0  0  0  0
 24 42  1  0  0  0  0
 25 65  1  0  0  0  0
 26 74  1  0  0  0  0
 27 84  1  0  0  0  0
 28 85  1  0  0  0  0
 29 31  2  0  0  0  0
 29 84  1  0  0  0  0
 30 86  1  0  0  0  0
 31 87  1  0  0  0  0
 32 68  2  0  0  0  0
 33 69  1  0  0  0  0
 33 72  1  0  0  0  0
 34 73  1  0  0  0  0
 34 78  2  0  0  0  0
 35 50  1  0  0  0  0
 35 75  1  0  0  0  0
 35 79  2  0  0  0  0
 36 61  1  0  0  0  0
 36 65  1  0  0  0  0
 36 80  2  0  0  0  0
 37 63  1  0  0  0  0
 37 70  1  0  0  0  0
 37 81  2  0  0  0  0
 38 64  1  0  0  0  0
 38 76  1  0  0  0  0
 38 82  2  0  0  0  0
 39 71  1  0  0  0  0
 39 74  1  0  0  0  0
 39 83  2  0  0  0  0
 40 43  1  0  0  0  0
 41 50  1  0  0  0  0
 42 70  1  0  0  0  0
 43 45  1  0  0  0  0
 44 46  1  0  0  0  0
 44 47  1  0  0  0  0
 45 49  1  0  0  0  0
 46 51  1  0  0  0  0
 47 71  1  0  0  0  0
 48 51  1  0  0  0  0
 48 71  1  0  0  0  0
 49 75  1  0  0  0  0
 50 70  1  0  0  0  0
 51 69  1  0  0  0  0
 52 64  1  0  0  0  0
 53 65  1  0  0  0  0
 54 65  1  0  0  0  0
 55 66  1  0  0  0  0
 56 66  1  0  0  0  0
 57 66  1  0  0  0  0
 58 67  1  0  0  0  0
 59 67  1  0  0  0  0
 60 77  1  0  0  0  0
 61 67  1  0  0  0  0
 62 67  1  0  0  0  0
 62 85  1  0  0  0  0
 63 66  1  0  0  0  0
 63 76  1  0  0  0  0
 64 77  1  0  0  0  0
 68 69  1  0  0  0  0
M  CHG  1  77   1
M  ISO  4  39 100  62 101  74 100  85 101
M  END
> <Batch ID>
0141

> <Smiles>
CNC(C)C(=O)NC(C(=O)N1Cc2cc([101O:1][101CH2:1]C(C)(C)CC(=O)C(C)(C)c3cccc([100NH:0][100C:0](=O)N4CCCC(n5nc(-c6ccc(Oc7ccc(F)cc7F)cc6)c(C(N)=O)c5N)C4)c3)ccc2CC1C(=O)NC1CCCc2ccccc21)C(C)(C)C

> <Shape>
0.222

> <Color>
0.196

> <Negative vol penalty>
0.000

$$$$

  -OEChem-04052302543D

 86 94  0     1  0  0  0  0  0999 V2000
  -33.4970  -31.9396   17.4458 C   0  0  0  0  0  0  0  0  0  0  0  0
  -32.6210  -30.9788   16.9509 C   0  0  0  0  0  0  0  0  0  0  0  0
  -26.6340  -12.3377   21.7312 C   0  0  0  0  0  0  0  0  0  0  0  0
  -26.0100  -13.6887   19.8279 C   0  0  0  0  0  0  0  0  0  0  0  0
  -33.6263  -32.1204   18.8222 C   0  0  0  0  0  0  0  0  0  0  0  0
  -31.8746  -30.1974   17.8322 C   0  0  0  0  0  0  0  0  0  0  0  0
  -26.1825  -28.1044   16.9807 C   0  0  0  0  0  0  0  0  0  0  0  0
  -25.3522  -11.7887   21.7618 C   0  0  0  0  0  0  0  0  0  0  0  0
  -24.7281  -13.1397   19.8585 C   0  0  0  0  0  0  0  0  0  0  0  0
  -25.6904  -26.8707   16.5570 C   0  0  0  0  0  0  0  0  0  0  0  0
  -23.6150   -9.4228   20.0833 C   0  0  0  0  0  0  0  0  0  0  0  0
  -23.5049   -8.0418   20.2458 C   0  0  0  0  0  0  0  0  0  0  0  0
  -25.3962  -26.2051   18.8569 C   0  0  0  0  0  0  0  0  0  0  0  0
  -28.7532  -21.2917   18.9133 C   0  0  0  0  0  0  0  0  0  0  0  0
  -28.2176  -23.6403   19.0972 C   0  0  0  0  0  0  0  0  0  0  0  0
  -29.3082  -22.5031   20.9287 C   0  0  0  0  0  0  0  0  0  0  0  0
  -22.2426   -8.3815   22.2776 C   0  0  0  0  0  0  0  0  0  0  0  0
  -26.9630  -13.2878   20.7643 C   0  0  0  0  0  0  0  0  0  0  0  0
  -29.4025  -13.3721   20.0232 C   0  0  0  0  0  0  0  0  0  0  0  0
  -32.8740  -31.3474   19.7207 C   0  0  0  0  0  0  0  0  0  0  0  0
  -26.2956  -28.3941   18.3480 C   0  0  0  0  0  0  0  0  0  0  0  0
  -31.9950  -30.3671   19.2220 C   0  0  0  0  0  0  0  0  0  0  0  0
  -25.8877  -27.4441   19.2953 C   0  0  0  0  0  0  0  0  0  0  0  0
  -28.2111  -22.4537   18.3642 C   0  0  0  0  0  0  0  0  0  0  0  0
  -29.3017  -21.3164   20.1956 C   0  0  0  0  0  0  0  0  0  0  0  0
  -24.3992  -12.1896   20.8254 C   0  0  0  0  0  0  0  0  0  0  0  0
  -25.2998  -25.9197   17.4952 C   0  0  0  0  0  0  0  0  0  0  0  0
  -23.0389  -10.2832   21.0180 C   0  0  0  0  0  0  0  0  0  0  0  0
  -22.8188   -7.5212   21.3429 C   0  0  0  0  0  0  0  0  0  0  0  0
  -28.7661  -23.6651   20.3795 C   0  0  0  0  0  0  0  0  0  0  0  0
  -22.3527   -9.7625   22.1151 C   0  0  0  0  0  0  0  0  0  0  0  0
  -28.2868  -13.8557   20.7325 C   0  0  0  0  0  0  0  0  0  0  0  0
  -30.4090  -14.2579   20.3209 C   0  0  0  0  0  0  0  0  0  0  0  0
  -29.5186  -12.2247   19.1713 C   0  0  0  0  0  0  0  0  0  0  0  0
  -28.7059  -29.0773   20.3044 C   0  0  0  0  0  0  0  0  0  0  0  0
  -26.1326  -22.0899   16.9716 C   0  0  0  0  0  0  0  0  0  0  0  0
  -26.3177  -29.5748   22.4423 C   0  0  0  0  0  0  0  0  0  0  0  0
  -23.1053  -28.9327   23.3990 C   0  0  0  0  0  0  0  0  0  0  0  0
  -30.4353  -19.9890   22.0120 C   0  0  0  0  0  0  0  0  0  0  0  0
  -33.0828  -31.5465   21.2010 C   0  0  0  0  0  0  0  0  0  0  0  0
  -26.8034  -29.7396   18.7886 C   0  0  0  0  0  0  0  0  0  0  0  0
  -25.9700  -27.7136   20.7749 C   0  0  0  0  0  0  0  0  0  0  0  0
  -31.9785  -30.9352   22.0596 C   0  0  0  0  0  0  0  0  0  0  0  0
  -31.8713  -17.2442   23.7674 C   0  0  0  0  0  0  0  0  0  0  0  0
  -31.6608  -29.5186   21.5914 C   0  0  0  0  0  0  0  0  0  0  0  0
  -31.2212  -16.0195   23.1197 C   0  0  0  0  0  0  0  0  0  0  0  0
  -30.8941  -18.4132   23.8779 C   0  0  0  0  0  0  0  0  0  0  0  0
  -29.5801  -17.5635   21.9752 C   0  0  0  0  0  0  0  0  0  0  0  0
  -31.1498  -29.5170   20.1456 C   0  0  1  0  0  0  0  0  0  0  0  0
  -27.3574  -29.7331   20.2100 C   0  0  1  0  0  0  0  0  0  0  0  0
  -30.5443  -16.3815   21.7831 C   0  0  2  0  0  0  0  0  0  0  0  0
  -25.7577  -20.6114   14.3060 C   0  0  0  0  0  0  0  0  0  0  0  0
  -21.4482  -29.4520   25.2106 C   0  0  0  0  0  0  0  0  0  0  0  0
  -23.8005  -22.2065   16.0135 C   0  0  0  0  0  0  0  0  0  0  0  0
  -27.7530  -27.6336   24.3083 C   0  0  0  0  0  0  0  0  0  0  0  0
  -25.6399  -27.4601   25.6397 C   0  0  0  0  0  0  0  0  0  0  0  0
  -26.8059  -29.6557   25.4346 C   0  0  0  0  0  0  0  0  0  0  0  0
  -21.2393  -30.2064   21.4873 C   0  0  0  0  0  0  0  0  0  0  0  0
  -27.6187  -22.4277   16.9781 C   0  0  0  0  0  0  0  0  0  0  0  0
  -25.7792  -22.1282   14.4624 C   0  0  0  0  0  0  0  0  0  0  0  0
  -25.3122  -24.2074   15.8447 C   0  0  0  0  0  0  0  0  0  1  0  0
  -25.5761  -28.7139   23.4364 C   0  0  1  0  0  0  0  0  0  0  0  0
  -21.9840  -29.8536   23.8452 C   0  0  2  0  0  0  0  0  0  0  0  0
  -25.2617  -22.6604   15.8242 C   0  0  2  0  0  0  0  0  0  0  0  0
  -26.4439  -28.3597   24.6769 C   0  0  0  0  0  0  0  0  0  0  0  0
  -28.5586  -14.9628   21.4286 N   0  0  0  0  0  0  0  0  0  0  0  0
  -29.8566  -15.1821   21.1582 N   0  0  0  0  0  0  0  0  0  0  0  0
  -26.4791  -29.0415   21.1557 N   0  0  0  0  0  0  0  0  0  0  0  0
  -30.2951  -18.7020   22.5731 N   0  0  0  0  0  0  0  0  0  0  0  0
  -31.7039  -14.3287   19.9457 N   0  0  0  0  0  0  0  0  0  0  0  0
  -28.3869  -11.4221   18.9735 N   0  0  0  0  0  0  0  0  0  0  0  0
  -29.8523  -20.1361   20.7539 N   0  0  0  0  0  0  0  0  0  0  0  0
  -29.7663  -29.9390   20.0980 N   0  0  0  0  0  0  0  0  0  0  0  0
  -24.3431  -29.4263   23.7533 N   0  0  0  0  0  0  0  0  0  0  0  0
  -20.8594  -29.8116   22.8681 N   0  3  0  0  0  0  0  0  0  0  0  0
  -30.5985  -11.9111   18.6153 O   0  0  0  0  0  0  0  0  0  0  0  0
  -28.7791  -27.8786   20.5479 O   0  0  0  0  0  0  0  0  0  0  0  0
  -25.6394  -21.3877   17.8583 O   0  0  0  0  0  0  0  0  0  0  0  0
  -26.7320  -30.6827   22.7924 O   0  0  0  0  0  0  0  0  0  0  0  0
  -22.9031  -27.8790   22.7996 O   0  0  0  0  0  0  0  0  0  0  0  0
  -31.0523  -20.8861   22.5921 O   0  0  0  0  0  0  0  0  0  0  0  0
  -23.1483  -11.6539   20.8549 O   0  0  0  0  0  0  0  0  0  0  0  0
  -24.8197  -24.7145   17.0843 O   0  0  0  0  0  0  0  0  0  1  0  0
  -22.7119   -6.1950   21.4980 F   0  0  0  0  0  0  0  0  0  0  0  0
  -28.7723  -24.8047   21.0834 F   0  0  0  0  0  0  0  0  0  0  0  0
  -21.7962  -10.5840   23.0158 F   0  0  0  0  0  0  0  0  0  0  0  0
  1  2  1  0  0  0  0
  1  5  2  0  0  0  0
  2  6  2  0  0  0  0
  3  8  2  0  0  0  0
  3 18  1  0  0  0  0
  4  9  1  0  0  0  0
  4 18  2  0  0  0  0
  5 20  1  0  0  0  0
  6 22  1  0  0  0  0
  7 10  2  0  0  0  0
  7 21  1  0  0  0  0
  8 26  1  0  0  0  0
  9 26  2  0  0  0  0
 10 27  1  0  0  0  0
 11 12  2  0  0  0  0
 11 28  1  0  0  0  0
 12 29  1  0  0  0  0
 13 23  1  0  0  0  0
 13 27  2  0  0  0  0
 14 24  2  0  0  0  0
 14 25  1  0  0  0  0
 15 24  1  0  0  0  0
 15 30  2  0  0  0  0
 16 25  2  0  0  0  0
 16 30  1  0  0  0  0
 17 29  2  0  0  0  0
 17 31  1  0  0  0  0
 18 32  1  0  0  0  0
 19 32  1  0  0  0  0
 19 33  2  0  0  0  0
 19 34  1  0  0  0  0
 20 22  2  0  0  0  0
 20 40  1  0  0  0  0
 21 23  2  0  0  0  0
 21 41  1  0  0  0  0
 22 49  1  0  0  0  0
 23 42  1  0  0  0  0
 24 59  1  0  0  0  0
 25 72  1  0  0  0  0
 26 82  1  0  0  0  0
 27 83  1  0  0  0  0
 28 31  2  0  0  0  0
 28 82  1  0  0  0  0
 29 84  1  0  0  0  0
 30 85  1  0  0  0  0
 31 86  1  0  0  0  0
 32 66  2  0  0  0  0
 33 67  1  0  0  0  0
 33 70  1  0  0  0  0
 34 71  1  0  0  0  0
 34 76  2  0  0  0  0
 35 50  1  0  0  0  0
 35 73  1  0  0  0  0
 35 77  2  0  0  0  0
 36 59  1  0  0  0  0
 36 64  1  0  0  0  0
 36 78  2  0  0  0  0
 37 62  1  0  0  0  0
 37 68  1  0  0  0  0
 37 79  2  0  0  0  0
 38 63  1  0  0  0  0
 38 74  1  0  0  0  0
 38 80  2  0  0  0  0
 39 69  1  0  0  0  0
 39 72  1  0  0  0  0
 39 81  2  0  0  0  0
 40 43  1  0  0  0  0
 41 50  1  0  0  0  0
 42 68  1  0  0  0  0
 43 45  1  0  0  0  0
 44 46  1  0  0  0  0
 44 47  1  0  0  0  0
 45 49  1  0  0  0  0
 46 51  1  0  0  0  0
 47 69  1  0  0  0  0
 48 51  1  0  0  0  0
 48 69  1  0  0  0  0
 49 73  1  0  0  0  0
 50 68  1  0  0  0  0
 51 67  1  0  0  0  0
 52 60  1  0  0  0  0
 53 63  1  0  0  0  0
 54 64  1  0  0  0  0
 55 65  1  0  0  0  0
 56 65  1  0  0  0  0
 57 65  1  0  0  0  0
 58 75  1  0  0  0  0
 60 64  1  0  0  0  0
 61 64  1  0  0  0  0
 61 83  1  0  0  0  0
 62 65  1  0  0  0  0
 62 74  1  0  0  0  0
 63 75  1  0  0  0  0
 66 67  1  0  0  0  0
M  CHG  1  75   1
M  ISO  4  39 100  61 101  72 100  83 101
M  END
> <Batch ID>
0141

> <Smiles>
CCC(C)(C(=O)Cc1cc(F)cc([100NH:0][100C:0](=O)N2CCCC(n3nc(-c4ccc(Oc5ccc(F)cc5F)cc4)c(C(N)=O)c3N)C2)c1)[101CH2:1][101O:1]c1ccc2c(c1)CN(C(=O)C(NC(=O)C(C)NC)C(C)(C)C)C(C(=O)NC1CCCc3ccccc31)C2

> <Shape>
0.255

> <Color>
0.076

> <Negative vol penalty>
0.000

$$$$

  -OEChem-04052302543D

 87 96  0     1  0  0  0  0  0999 V2000
  -30.2654  -35.4856   25.8057 C   0  0  0  0  0  0  0  0  0  0  0  0
  -30.4865  -34.6640   24.7050 C   0  0  0  0  0  0  0  0  0  0  0  0
  -24.7660   -8.0960   21.4749 C   0  0  0  0  0  0  0  0  0  0  0  0
  -23.0557   -9.6350   20.7377 C   0  0  0  0  0  0  0  0  0  0  0  0
  -29.2719  -35.1605   26.7283 C   0  0  0  0  0  0  0  0  0  0  0  0
  -29.7149  -33.5163   24.5268 C   0  0  0  0  0  0  0  0  0  0  0  0
  -26.8935  -29.4320   19.3620 C   0  0  0  0  0  0  0  0  0  0  0  0
  -23.8648   -7.5247   22.3733 C   0  0  0  0  0  0  0  0  0  0  0  0
  -22.1544   -9.0637   21.6361 C   0  0  0  0  0  0  0  0  0  0  0  0
  -26.8376  -28.1009   18.9513 C   0  0  0  0  0  0  0  0  0  0  0  0
  -21.2985   -5.3256   22.2680 C   0  0  0  0  0  0  0  0  0  0  0  0
  -21.2473   -3.9335   22.3378 C   0  0  0  0  0  0  0  0  0  0  0  0
  -25.0964  -27.6816   20.5673 C   0  0  0  0  0  0  0  0  0  0  0  0
  -26.8944  -18.4889   18.6148 C   0  0  0  0  0  0  0  0  0  0  0  0
  -21.8581   -4.0281   24.6735 C   0  0  0  0  0  0  0  0  0  0  0  0
  -24.7364  -18.9677   17.8962 C   0  0  0  0  0  0  0  0  0  0  0  0
  -24.3615   -9.1512   20.6571 C   0  0  0  0  0  0  0  0  0  0  0  0
  -25.5214   -9.3580   18.3946 C   0  0  0  0  0  0  0  0  0  0  0  0
  -28.4812  -34.0134   26.5562 C   0  0  0  0  0  0  0  0  0  0  0  0
  -26.0574  -29.8961   20.3877 C   0  0  0  0  0  0  0  0  0  0  0  0
  -28.7108  -33.1748   25.4487 C   0  0  0  0  0  0  0  0  0  0  0  0
  -25.1418  -29.0197   20.9875 C   0  0  0  0  0  0  0  0  0  0  0  0
  -25.9929  -19.4809   18.1315 C   0  0  0  0  0  0  0  0  0  0  0  0
  -22.5590   -8.0085   22.4539 C   0  0  0  0  0  0  0  0  0  0  0  0
  -25.9410  -27.2247   19.5559 C   0  0  0  0  0  0  0  0  0  0  0  0
  -21.6296   -6.0691   23.4009 C   0  0  0  0  0  0  0  0  0  0  0  0
  -21.5270   -3.2847   23.5405 C   0  0  0  0  0  0  0  0  0  0  0  0
  -21.9093   -5.4203   24.6036 C   0  0  0  0  0  0  0  0  0  0  0  0
  -25.2921   -9.7421   19.7293 C   0  0  0  0  0  0  0  0  0  0  0  0
  -26.4907  -10.2235   17.9499 C   0  0  0  0  0  0  0  0  0  0  0  0
  -26.2923  -17.2552   18.7307 C   0  0  0  0  0  0  0  0  0  0  0  0
  -24.9127   -8.3123   17.6254 C   0  0  0  0  0  0  0  0  0  0  0  0
  -25.1036  -24.1004   17.8440 C   0  0  0  0  0  0  0  0  0  0  0  0
  -26.5273  -31.1315   23.2785 C   0  0  0  0  0  0  0  0  0  0  0  0
  -23.3117  -31.5505   23.1952 C   0  0  0  0  0  0  0  0  0  0  0  0
  -20.2978  -30.5950   21.9106 C   0  0  0  0  0  0  0  0  0  0  0  0
  -28.1069  -15.7361   19.5945 C   0  0  0  0  0  0  0  0  0  0  0  0
  -27.4510  -33.6777   27.6053 C   0  0  0  0  0  0  0  0  0  0  0  0
  -26.1111  -31.3414   20.8009 C   0  0  0  0  0  0  0  0  0  0  0  0
  -24.2083  -29.4731   22.0790 C   0  0  0  0  0  0  0  0  0  0  0  0
  -26.4261  -32.6448   27.1439 C   0  0  0  0  0  0  0  0  0  0  0  0
  -30.1796  -12.8421   19.5213 C   0  0  0  0  0  0  0  0  0  0  0  0
  -27.1209  -31.4724   26.4587 C   0  0  0  0  0  0  0  0  0  0  0  0
  -29.1825  -11.6840   19.4387 C   0  0  0  0  0  0  0  0  0  0  0  0
  -25.7631  -23.2583   20.2601 C   0  0  0  0  0  0  0  0  0  0  0  0
  -29.6612  -13.9750   20.4053 C   0  0  0  0  0  0  0  0  0  0  0  0
  -27.3273  -13.3146   19.9738 C   0  0  0  0  0  0  0  0  0  0  0  0
  -25.8470  -21.7277   20.1604 C   0  0  0  0  0  0  0  0  0  0  0  0
  -27.8779  -31.9345   25.2077 C   0  0  1  0  0  0  0  0  0  0  0  0
  -25.5732  -31.5809   22.2082 C   0  0  1  0  0  0  0  0  0  0  0  0
  -27.7773  -12.1775   19.0421 C   0  0  2  0  0  0  0  0  0  0  0  0
  -26.0561  -23.2711   18.7357 C   0  0  2  0  0  0  0  0  0  0  0  0
  -27.5269  -23.5116   18.4068 C   0  0  0  0  0  0  0  0  0  0  0  0
  -17.8436  -31.0963   22.0624 C   0  0  0  0  0  0  0  0  0  0  0  0
  -25.3909  -26.4003   16.8657 C   0  0  0  0  0  0  0  0  0  0  0  0
  -23.5678  -25.9582   18.5647 C   0  0  0  0  0  0  0  0  0  0  0  0
  -23.1744  -30.0612   25.8547 C   0  0  0  0  0  0  0  0  0  0  0  0
  -20.7172  -29.7613   25.4804 C   0  0  0  0  0  0  0  0  0  0  0  0
  -21.6732  -32.0552   25.6970 C   0  0  0  0  0  0  0  0  0  0  0  0
  -20.1601  -31.3636   19.0560 C   0  0  0  0  0  0  0  0  0  0  0  0
  -26.3693  -20.9157   17.9064 C   0  0  0  0  0  0  0  0  0  0  0  0
  -22.1149  -30.7218   23.5949 C   0  0  1  0  0  0  0  0  0  0  0  0
  -19.1457  -31.4008   21.3382 C   0  0  2  0  0  0  0  0  0  0  0  0
  -24.9784  -25.6075   18.1019 C   0  0  0  0  0  0  0  0  0  1  0  0
  -21.9387  -30.6405   25.1375 C   0  0  0  0  0  0  0  0  0  0  0  0
  -26.0544  -10.7714   20.1079 N   0  0  0  0  0  0  0  0  0  0  0  0
  -26.7723  -11.0414   19.0044 N   0  0  0  0  0  0  0  0  0  0  0  0
  -24.3033  -30.8940   22.4524 N   0  0  0  0  0  0  0  0  0  0  0  0
  -28.3277  -14.3935   19.9677 N   0  0  0  0  0  0  0  0  0  0  0  0
  -27.1212  -10.3572   16.7637 N   0  0  0  0  0  0  0  0  0  0  0  0
  -23.9342   -7.5164   18.2364 N   0  0  0  0  0  0  0  0  0  0  0  0
  -26.8086  -16.0091   19.1649 N   0  0  0  0  0  0  0  0  0  0  0  0
  -26.9586  -32.1471   24.1104 N   0  0  0  0  0  0  0  0  0  0  0  0
  -20.9706  -31.2918   22.8920 N   0  0  0  0  0  0  0  0  0  0  0  0
  -25.5693  -21.8585   18.7171 N   0  3  1  0  0  0  0  0  0  0  0  0
  -18.9634  -31.0889   19.8924 N   0  3  0  0  0  0  0  0  0  0  0  0
  -25.2388   -8.0798   16.4366 O   0  0  0  0  0  0  0  0  0  0  0  0
  -24.4499  -23.5657   16.9364 O   0  0  0  0  0  0  0  0  0  0  0  0
  -26.8472  -29.9504   23.3456 O   0  0  0  0  0  0  0  0  0  0  0  0
  -23.3615  -32.7385   23.5236 O   0  0  0  0  0  0  0  0  0  0  0  0
  -20.5711  -29.4593   21.5283 O   0  0  0  0  0  0  0  0  0  0  0  0
  -29.0106  -16.5754   19.6258 O   0  0  0  0  0  0  0  0  0  0  0  0
  -21.6793   -7.4512   23.3302 O   0  0  0  0  0  0  0  0  0  0  0  0
  -25.8850  -25.9248   19.1574 O   0  0  0  0  0  0  0  0  0  1  0  0
  -21.4762   -1.9479   23.6078 F   0  0  0  0  0  0  0  0  0  0  0  0
  -22.2268   -6.1292   25.6956 F   0  0  0  0  0  0  0  0  0  0  0  0
  -24.6471  -17.2962   18.2576 S   0  0  0  0  0  0  0  0  0  0  0  0
  1  2  1  0  0  0  0
  1  5  2  0  0  0  0
  2  6  2  0  0  0  0
  3  8  2  0  0  0  0
  3 17  1  0  0  0  0
  4  9  1  0  0  0  0
  4 17  2  0  0  0  0
  5 19  1  0  0  0  0
  6 21  1  0  0  0  0
  7 10  2  0  0  0  0
  7 20  1  0  0  0  0
  8 24  1  0  0  0  0
  9 24  2  0  0  0  0
 10 25  1  0  0  0  0
 11 12  2  0  0  0  0
 11 26  1  0  0  0  0
 12 27  1  0  0  0  0
 13 22  1  0  0  0  0
 13 25  2  0  0  0  0
 14 23  1  0  0  0  0
 14 31  2  0  0  0  0
 15 27  2  0  0  0  0
 15 28  1  0  0  0  0
 16 23  2  0  0  0  0
 16 87  1  0  0  0  0
 17 29  1  0  0  0  0
 18 29  1  0  0  0  0
 18 30  2  0  0  0  0
 18 32  1  0  0  0  0
 19 21  2  0  0  0  0
 19 38  1  0  0  0  0
 20 22  2  0  0  0  0
 20 39  1  0  0  0  0
 21 49  1  0  0  0  0
 22 40  1  0  0  0  0
 23 61  1  0  0  0  0
 24 83  1  0  0  0  0
 25 84  1  0  0  0  0
 26 28  2  0  0  0  0
 26 83  1  0  0  0  0
 27 85  1  0  0  0  0
 28 86  1  0  0  0  0
 29 66  2  0  0  0  0
 30 67  1  0  0  0  0
 30 70  1  0  0  0  0
 31 72  1  0  0  0  0
 31 87  1  0  0  0  0
 32 71  1  0  0  0  0
 32 77  2  0  0  0  0
 33 52  1  0  0  0  0
 33 64  1  0  0  0  0
 33 78  2  0  0  0  0
 34 50  1  0  0  0  0
 34 73  1  0  0  0  0
 34 79  2  0  0  0  0
 35 62  1  0  0  0  0
 35 68  1  0  0  0  0
 35 80  2  0  0  0  0
 36 63  1  0  0  0  0
 36 74  1  0  0  0  0
 36 81  2  0  0  0  0
 37 69  1  0  0  0  0
 37 72  1  0  0  0  0
 37 82  2  0  0  0  0
 38 41  1  0  0  0  0
 39 50  1  0  0  0  0
 40 68  1  0  0  0  0
 41 43  1  0  0  0  0
 42 44  1  0  0  0  0
 42 46  1  0  0  0  0
 43 49  1  0  0  0  0
 44 51  1  0  0  0  0
 45 48  1  0  0  0  0
 45 52  1  0  0  0  0
 46 69  1  0  0  0  0
 47 51  1  0  0  0  0
 47 69  1  0  0  0  0
 48 75  1  0  0  0  0
 49 73  1  0  0  0  0
 50 68  1  0  0  0  0
 51 67  1  0  0  0  0
 52 53  1  0  0  0  0
 52 75  1  0  0  0  0
 54 63  1  0  0  0  0
 55 64  1  0  0  0  0
 56 64  1  0  0  0  0
 57 65  1  0  0  0  0
 58 65  1  0  0  0  0
 59 65  1  0  0  0  0
 60 76  1  0  0  0  0
 61 75  1  0  0  0  0
 62 65  1  0  0  0  0
 62 74  1  0  0  0  0
 63 76  1  0  0  0  0
 64 84  1  0  0  0  0
 66 67  1  0  0  0  0
M  CHG  2  75   1  76   1
M  ISO  4  37 100  64 101  72 100  84 101
M  END
> <Batch ID>
0141

> <Smiles>
CNC(C)C(=O)NC(C(=O)N1Cc2cc([101O:1][101C:1](C)(C)C(=O)C3(C)CCN3Cc3csc([100NH:0][100C:0](=O)N4CCCC(n5nc(-c6ccc(Oc7ccc(F)cc7F)cc6)c(C(N)=O)c5N)C4)c3)ccc2CC1C(=O)NC1CCCc2ccccc21)C(C)(C)C

> <Shape>
0.248

> <Color>
0.085

> <Negative vol penalty>
0.000

$$$$

  -OEChem-04052302543D

 85 93  0     1  0  0  0  0  0999 V2000
  -18.1918  -25.4741   23.0398 C   0  0  0  0  0  0  0  0  0  0  0  0
  -19.2953  -25.4433   22.1932 C   0  0  0  0  0  0  0  0  0  0  0  0
  -30.4314  -15.6697   22.6853 C   0  0  0  0  0  0  0  0  0  0  0  0
  -32.2603  -17.0275   21.8800 C   0  0  0  0  0  0  0  0  0  0  0  0
  -30.0855  -27.0805   20.5974 C   0  0  0  0  0  0  0  0  0  0  0  0
  -32.2916  -26.1231   20.8285 C   0  0  0  0  0  0  0  0  0  0  0  0
  -17.6660  -26.6974   23.4534 C   0  0  0  0  0  0  0  0  0  0  0  0
  -19.8730  -26.6357   21.7589 C   0  0  0  0  0  0  0  0  0  0  0  0
  -25.8149  -27.6775   20.7032 C   0  0  0  0  0  0  0  0  0  0  0  0
  -29.5720  -26.1033   21.4499 C   0  0  0  0  0  0  0  0  0  0  0  0
  -31.7781  -25.1458   21.6811 C   0  0  0  0  0  0  0  0  0  0  0  0
  -30.7137  -14.7118   21.7115 C   0  0  0  0  0  0  0  0  0  0  0  0
  -32.5426  -16.0696   20.9062 C   0  0  0  0  0  0  0  0  0  0  0  0
  -26.5719  -27.6877   19.5324 C   0  0  0  0  0  0  0  0  0  0  0  0
  -31.1793  -11.7411   19.6688 C   0  0  0  0  0  0  0  0  0  0  0  0
  -31.1905  -10.4023   20.0600 C   0  0  0  0  0  0  0  0  0  0  0  0
  -26.3141  -30.0822   19.3938 C   0  0  0  0  0  0  0  0  0  0  0  0
  -32.9595  -10.8776   21.6355 C   0  0  0  0  0  0  0  0  0  0  0  0
  -31.2046  -16.8276   22.7695 C   0  0  0  0  0  0  0  0  0  0  0  0
  -31.4453  -27.0904   20.2866 C   0  0  0  0  0  0  0  0  0  0  0  0
  -31.4381  -17.8848   25.0794 C   0  0  0  0  0  0  0  0  0  0  0  0
  -18.2435  -27.9054   23.0317 C   0  0  0  0  0  0  0  0  0  0  0  0
  -25.2918  -28.8702   21.2230 C   0  0  0  0  0  0  0  0  0  0  0  0
  -19.3536  -27.8763   22.1662 C   0  0  0  0  0  0  0  0  0  0  0  0
  -25.5530  -30.0848   20.5727 C   0  0  0  0  0  0  0  0  0  0  0  0
  -30.4183  -25.1360   21.9919 C   0  0  0  0  0  0  0  0  0  0  0  0
  -31.7694  -14.9117   20.8220 C   0  0  0  0  0  0  0  0  0  0  0  0
  -26.8192  -28.8898   18.8760 C   0  0  0  0  0  0  0  0  0  0  0  0
  -32.0582  -12.6481   20.2608 C   0  0  0  0  0  0  0  0  0  0  0  0
  -32.0806   -9.9705   21.0434 C   0  0  0  0  0  0  0  0  0  0  0  0
  -32.9483  -12.2164   21.2441 C   0  0  0  0  0  0  0  0  0  0  0  0
  -30.9131  -17.8178   23.7749 C   0  0  0  0  0  0  0  0  0  0  0  0
  -30.8530  -18.9998   25.6280 C   0  0  0  0  0  0  0  0  0  0  0  0
  -31.9940  -28.1347   19.3752 C   0  0  0  0  0  0  0  0  0  0  0  0
  -32.3712  -17.0169   25.7364 C   0  0  0  0  0  0  0  0  0  0  0  0
  -22.3665  -29.9807   21.7825 C   0  0  0  0  0  0  0  0  0  0  0  0
  -23.9829  -32.4421   23.1430 C   0  0  0  0  0  0  0  0  0  0  0  0
  -26.8667  -34.2561   23.3425 C   0  0  0  0  0  0  0  0  0  0  0  0
  -28.5714  -23.9926   23.2678 C   0  0  0  0  0  0  0  0  0  0  0  0
  -17.6110  -29.2034   23.4674 C   0  0  0  0  0  0  0  0  0  0  0  0
  -24.4997  -28.8456   22.5014 C   0  0  0  0  0  0  0  0  0  0  0  0
  -25.0312  -31.3952   21.1008 C   0  0  0  0  0  0  0  0  0  0  0  0
  -18.5118  -30.4187   23.2626 C   0  0  0  0  0  0  0  0  0  0  0  0
  -26.8800  -21.6601   25.3596 C   0  0  0  0  0  0  0  0  0  0  0  0
  -19.1405  -30.3892   21.8732 C   0  0  0  0  0  0  0  0  0  0  0  0
  -27.7732  -20.4183   25.3141 C   0  0  0  0  0  0  0  0  0  0  0  0
  -26.8360  -22.3768   24.0111 C   0  0  0  0  0  0  0  0  0  0  0  0
  -29.0414  -21.4672   23.3962 C   0  0  0  0  0  0  0  0  0  0  0  0
  -20.0234  -29.1483   21.6934 C   0  0  1  0  0  0  0  0  0  0  0  0
  -23.5838  -30.0552   22.6602 C   0  0  1  0  0  0  0  0  0  0  0  0
  -29.1687  -20.7482   24.7492 C   0  0  2  0  0  0  0  0  0  0  0  0
  -27.8738  -36.2318   24.5171 C   0  0  0  0  0  0  0  0  0  0  0  0
  -22.3770  -34.3212   21.3541 C   0  0  0  0  0  0  0  0  0  0  0  0
  -24.0466  -36.1169   21.8599 C   0  0  0  0  0  0  0  0  0  0  0  0
  -22.6865  -35.1264   23.7015 C   0  0  0  0  0  0  0  0  0  0  0  0
  -30.3882  -31.0380   16.4248 C   0  0  0  0  0  0  0  0  0  0  0  0
  -29.2319  -29.1137   15.3290 C   0  0  0  0  0  0  0  0  0  0  0  0
  -28.9883  -32.5943   24.5657 C   0  0  0  0  0  0  0  0  0  0  0  0
  -31.0790  -29.1948   18.7784 C   0  0  0  0  0  0  0  0  0  0  0  0
  -30.4947  -28.7085   17.4485 C   0  0  0  0  0  0  0  0  0  0  0  0
  -28.3194  -30.0788   17.4647 C   0  0  0  0  0  0  0  0  0  1  0  0
  -24.5362  -33.7585   22.6530 C   0  0  1  0  0  0  0  0  0  0  0  0
  -27.6824  -34.7232   24.5345 C   0  0  2  0  0  0  0  0  0  0  0  0
  -23.4199  -34.8060   22.3809 C   0  0  0  0  0  0  0  0  0  0  0  0
  -29.6104  -29.7368   16.6900 C   0  0  0  0  0  0  0  0  0  0  0  0
  -30.0601  -18.8110   23.5107 N   0  0  0  0  0  0  0  0  0  0  0  0
  -33.2564  -28.1457   19.0811 N   0  0  0  0  0  0  0  0  0  0  0  0
  -30.0444  -19.5126   24.6567 N   0  0  0  0  0  0  0  0  0  0  0  0
  -24.2567  -31.3183   22.3505 N   0  0  0  0  0  0  0  0  0  0  0  0
  -28.1935  -22.6609   23.5405 N   0  0  0  0  0  0  0  0  0  0  0  0
  -30.9564  -19.5817   26.8417 N   0  0  0  0  0  0  0  0  0  0  0  0
  -32.8743  -15.9175   25.0276 N   0  0  0  0  0  0  0  0  0  0  0  0
  -29.8957  -24.1438   22.8580 N   0  0  0  0  0  0  0  0  0  0  0  0
  -21.2937  -29.3307   22.3623 N   0  0  0  0  0  0  0  0  0  0  0  0
  -25.5228  -34.1798   23.6416 N   0  0  0  0  0  0  0  0  0  0  0  0
  -29.0262  -34.0789   24.5271 N   0  3  0  0  0  0  0  0  0  0  0  0
  -32.7351  -17.2013   26.9226 O   0  0  0  0  0  0  0  0  0  0  0  0
  -22.3977  -30.4774   20.6627 O   0  0  0  0  0  0  0  0  0  0  0  0
  -23.3378  -32.4109   24.1939 O   0  0  0  0  0  0  0  0  0  0  0  0
  -27.3708  -33.9894   22.2538 O   0  0  0  0  0  0  0  0  0  0  0  0
  -27.7865  -24.9330   23.4149 O   0  0  0  0  0  0  0  0  0  0  0  0
  -32.0453  -13.9771   19.8717 O   0  0  0  0  0  0  0  0  0  0  0  0
  -27.5572  -28.9026   17.7327 O   0  0  0  0  0  0  0  0  0  1  0  0
  -32.0902   -8.6852   21.4202 F   0  0  0  0  0  0  0  0  0  0  0  0
  -33.7942  -13.0834   21.8173 F   0  0  0  0  0  0  0  0  0  0  0  0
  1  2  1  0  0  0  0
  1  7  2  0  0  0  0
  2  8  2  0  0  0  0
  3 12  2  0  0  0  0
  3 19  1  0  0  0  0
  4 13  1  0  0  0  0
  4 19  2  0  0  0  0
  5 10  2  0  0  0  0
  5 20  1  0  0  0  0
  6 11  1  0  0  0  0
  6 20  2  0  0  0  0
  7 22  1  0  0  0  0
  8 24  1  0  0  0  0
  9 14  2  0  0  0  0
  9 23  1  0  0  0  0
 10 26  1  0  0  0  0
 11 26  2  0  0  0  0
 12 27  1  0  0  0  0
 13 27  2  0  0  0  0
 14 28  1  0  0  0  0
 15 16  2  0  0  0  0
 15 29  1  0  0  0  0
 16 30  1  0  0  0  0
 17 25  1  0  0  0  0
 17 28  2  0  0  0  0
 18 30  2  0  0  0  0
 18 31  1  0  0  0  0
 19 32  1  0  0  0  0
 20 34  1  0  0  0  0
 21 32  1  0  0  0  0
 21 33  2  0  0  0  0
 21 35  1  0  0  0  0
 22 24  2  0  0  0  0
 22 40  1  0  0  0  0
 23 25  2  0  0  0  0
 23 41  1  0  0  0  0
 24 49  1  0  0  0  0
 25 42  1  0  0  0  0
 26 73  1  0  0  0  0
 27 82  1  0  0  0  0
 28 83  1  0  0  0  0
 29 31  2  0  0  0  0
 29 82  1  0  0  0  0
 30 84  1  0  0  0  0
 31 85  1  0  0  0  0
 32 66  2  0  0  0  0
 33 68  1  0  0  0  0
 33 71  1  0  0  0  0
 34 59  1  0  0  0  0
 34 67  2  0  0  0  0
 35 72  1  0  0  0  0
 35 77  2  0  0  0  0
 36 50  1  0  0  0  0
 36 74  1  0  0  0  0
 36 78  2  0  0  0  0
 37 62  1  0  0  0  0
 37 69  1  0  0  0  0
 37 79  2  0  0  0  0
 38 63  1  0  0  0  0
 38 75  1  0  0  0  0
 38 80  2  0  0  0  0
 39 70  1  0  0  0  0
 39 73  1  0  0  0  0
 39 81  2  0  0  0  0
 40 43  1  0  0  0  0
 41 50  1  0  0  0  0
 42 69  1  0  0  0  0
 43 45  1  0  0  0  0
 44 46  1  0  0  0  0
 44 47  1  0  0  0  0
 45 49  1  0  0  0  0
 46 51  1  0  0  0  0
 47 70  1  0  0  0  0
 48 51  1  0  0  0  0
 48 70  1  0  0  0  0
 49 74  1  0  0  0  0
 50 69  1  0  0  0  0
 51 68  1  0  0  0  0
 52 63  1  0  0  0  0
 53 64  1  0  0  0  0
 54 64  1  0  0  0  0
 55 64  1  0  0  0  0
 56 65  1  0  0  0  0
 57 65  1  0  0  0  0
 58 76  1  0  0  0  0
 59 60  1  0  0  0  0
 60 65  1  0  0  0  0
 61 65  1  0  0  0  0
 61 83  1  0  0  0  0
 62 64  1  0  0  0  0
 62 75  1  0  0  0  0
 63 76  1  0  0  0  0
 66 68  1  0  0  0  0
M  CHG  1  76   1
M  ISO  4  39 100  61 101  73 100  83 101
M  END
> <Batch ID>
0141

> <Smiles>
CNC(C)C(=O)NC(C(=O)N1Cc2cc([101O:1][101CH2:1]C(C)(C)CCC(=N)c3ccc([100NH:0][100C:0](=O)N4CCCC(n5nc(-c6ccc(Oc7ccc(F)cc7F)cc6)c(C(N)=O)c5N)C4)cc3)ccc2CC1C(=O)NC1CCCc2ccccc21)C(C)(C)C

> <Shape>
0.213

> <Color>
0.095

> <Negative vol penalty>
0.000

$$$$

  -OEChem-04052302543D

 89 99  0     1  0  0  0  0  0999 V2000
  -16.6727  -29.5645   23.9990 C   0  0  0  0  0  0  0  0  0  0  0  0
  -17.7770  -30.2292   24.5227 C   0  0  0  0  0  0  0  0  0  0  0  0
  -25.9164  -12.2661   20.6352 C   0  0  0  0  0  0  0  0  0  0  0  0
  -25.1982  -14.5463   20.2862 C   0  0  0  0  0  0  0  0  0  0  0  0
  -16.8547  -28.4522   23.1783 C   0  0  0  0  0  0  0  0  0  0  0  0
  -19.0639  -29.7812   24.2268 C   0  0  0  0  0  0  0  0  0  0  0  0
  -33.2821  -23.7164   21.2475 C   0  0  0  0  0  0  0  0  0  0  0  0
  -25.7187  -32.2155   23.1761 C   0  0  0  0  0  0  0  0  0  0  0  0
  -33.1377  -22.3344   21.3854 C   0  0  0  0  0  0  0  0  0  0  0  0
  -24.6424  -11.9355   21.0971 C   0  0  0  0  0  0  0  0  0  0  0  0
  -23.9242  -14.2157   20.7480 C   0  0  0  0  0  0  0  0  0  0  0  0
  -27.0246  -32.0056   23.6171 C   0  0  0  0  0  0  0  0  0  0  0  0
  -21.4781  -10.4073   22.0280 C   0  0  0  0  0  0  0  0  0  0  0  0
  -20.9030   -9.2275   21.5558 C   0  0  0  0  0  0  0  0  0  0  0  0
  -30.9272  -22.4203   20.3734 C   0  0  0  0  0  0  0  0  0  0  0  0
  -27.2195  -30.1211   22.1238 C   0  0  0  0  0  0  0  0  0  0  0  0
  -21.0348  -10.0683   19.2946 C   0  0  0  0  0  0  0  0  0  0  0  0
  -26.1943  -13.5715   20.2298 C   0  0  0  0  0  0  0  0  0  0  0  0
  -28.1838  -13.3623   18.6468 C   0  0  0  0  0  0  0  0  0  0  0  0
  -18.1447  -27.9962   22.8644 C   0  0  0  0  0  0  0  0  0  0  0  0
  -32.2393  -24.4327   20.6843 C   0  0  0  0  0  0  0  0  0  0  0  0
  -25.1488  -31.3718   22.2119 C   0  0  0  0  0  0  0  0  0  0  0  0
  -19.2633  -28.6609   23.4022 C   0  0  0  0  0  0  0  0  0  0  0  0
  -31.0744  -23.7920   20.2520 C   0  0  0  0  0  0  0  0  0  0  0  0
  -25.9071  -30.3240   21.6703 C   0  0  0  0  0  0  0  0  0  0  0  0
  -31.9683  -21.6908   20.9511 C   0  0  0  0  0  0  0  0  0  0  0  0
  -23.6463  -12.9103   21.1534 C   0  0  0  0  0  0  0  0  0  0  0  0
  -27.7742  -30.9565   23.0931 C   0  0  0  0  0  0  0  0  0  0  0  0
  -21.8314  -11.4176   21.1335 C   0  0  0  0  0  0  0  0  0  0  0  0
  -20.6814   -9.0579   20.1891 C   0  0  0  0  0  0  0  0  0  0  0  0
  -21.6098  -11.2481   19.7668 C   0  0  0  0  0  0  0  0  0  0  0  0
  -27.5103  -13.9138   19.7532 C   0  0  0  0  0  0  0  0  0  0  0  0
  -29.3898  -14.0189   18.6168 C   0  0  0  0  0  0  0  0  0  0  0  0
  -27.7573  -12.3473   17.7283 C   0  0  0  0  0  0  0  0  0  0  0  0
  -22.6623  -29.3925   22.1514 C   0  0  0  0  0  0  0  0  0  0  0  0
  -23.4229  -29.1566   19.0069 C   0  0  0  0  0  0  0  0  0  0  0  0
  -29.8434  -28.6786   22.7278 C   0  0  0  0  0  0  0  0  0  0  0  0
  -25.7973  -29.4362   16.5716 C   0  0  0  0  0  0  0  0  0  0  0  0
  -30.7674  -19.4792   20.7247 C   0  0  0  0  0  0  0  0  0  0  0  0
  -18.2904  -26.7610   22.0113 C   0  0  0  0  0  0  0  0  0  0  0  0
  -23.7481  -31.6279   21.7272 C   0  0  0  0  0  0  0  0  0  0  0  0
  -32.1804  -25.9037   20.4023 C   0  0  0  0  0  0  0  0  0  0  0  0
  -30.1174  -24.7685   19.6421 C   0  0  0  0  0  0  0  0  0  0  0  0
  -25.3486  -29.4022   20.6184 C   0  0  0  0  0  0  0  0  0  0  0  0
  -19.6948  -26.5760   21.4422 C   0  0  0  0  0  0  0  0  0  0  0  0
  -31.9792  -16.1182   22.1243 C   0  0  0  0  0  0  0  0  0  0  0  0
  -20.7437  -26.7927   22.5284 C   0  0  0  0  0  0  0  0  0  0  0  0
  -31.4889  -15.1902   21.0154 C   0  0  0  0  0  0  0  0  0  0  0  0
  -32.1619  -17.5509   21.6397 C   0  0  0  0  0  0  0  0  0  0  0  0
  -30.4048  -28.5155   20.2571 C   0  0  0  0  0  0  0  0  0  0  0  0
  -29.8880  -17.1531   20.6770 C   0  0  0  0  0  0  0  0  0  0  0  0
  -29.9744  -26.5105   21.5155 C   0  0  0  0  0  0  0  0  0  0  0  0
  -20.6756  -28.2203   23.0841 C   0  0  1  0  0  0  0  0  0  0  0  0
  -23.0921  -30.3934   21.1165 C   0  0  1  0  0  0  0  0  0  0  0  0
  -30.2774  -27.3305   19.2976 C   0  0  2  0  0  0  0  0  0  0  0  0
  -30.4598  -15.8571   20.0813 C   0  0  2  0  0  0  0  0  0  0  0  0
  -30.6536  -26.1179   20.1815 C   0  0  1  0  0  0  0  0  0  0  0  0
  -31.0782  -27.5307   18.0197 C   0  0  0  0  0  0  0  0  0  0  0  0
  -31.3737  -30.6198   22.9374 C   0  0  0  0  0  0  0  0  0  0  0  0
  -26.1302  -29.1415   14.1018 C   0  0  0  0  0  0  0  0  0  0  0  0
  -23.4975  -26.1293   19.3806 C   0  0  0  0  0  0  0  0  0  0  0  0
  -24.7323  -25.9616   17.2092 C   0  0  0  0  0  0  0  0  0  0  0  0
  -22.4183  -26.8920   17.2574 C   0  0  0  0  0  0  0  0  0  0  0  0
  -26.4988  -32.2884   16.2083 C   0  0  0  0  0  0  0  0  0  0  0  0
  -24.3259  -28.2649   18.1894 C   0  0  1  0  0  0  0  0  0  0  0  0
  -29.9671  -30.1761   22.6050 C   0  0  2  0  0  0  0  0  0  1  0  0
  -25.7728  -30.1152   15.2140 C   0  0  2  0  0  0  0  0  0  0  0  0
  -23.7537  -26.8279   18.0304 C   0  0  0  0  0  0  0  0  0  0  0  0
  -28.2289  -14.8486   20.3808 N   0  0  0  0  0  0  0  0  0  0  0  0
  -29.3664  -14.8895   19.6664 N   0  0  0  0  0  0  0  0  0  0  0  0
  -23.9723  -29.6897   20.1815 N   0  0  0  0  0  0  0  0  0  0  0  0
  -30.0645  -27.9643   21.5640 N   0  0  0  0  0  0  0  0  0  0  0  0
  -30.9569  -18.1037   21.0045 N   0  0  0  0  0  0  0  0  0  0  0  0
  -30.4574  -13.9305   17.7953 N   0  0  0  0  0  0  0  0  0  0  0  0
  -27.0697  -12.7392   16.5716 N   0  0  0  0  0  0  0  0  0  0  0  0
  -31.8465  -20.2860   21.0952 N   0  0  0  0  0  0  0  0  0  0  0  0
  -21.3021  -29.1495   22.1684 N   0  0  0  0  0  0  0  0  0  0  0  0
  -24.5529  -28.9607   16.9273 N   0  0  0  0  0  0  0  0  0  0  0  0
  -26.7457  -31.2435   15.1816 N   0  3  0  0  0  0  0  0  0  0  0  0
  -27.9650  -11.1277   17.9355 O   0  0  0  0  0  0  0  0  0  0  0  0
  -23.5027  -28.8776   22.8797 O   0  0  0  0  0  0  0  0  0  0  0  0
  -22.2748  -29.3780   18.6139 O   0  0  0  0  0  0  0  0  0  0  0  0
  -29.5577  -28.1631   23.8098 O   0  0  0  0  0  0  0  0  0  0  0  0
  -26.8190  -29.3344   17.2470 O   0  0  0  0  0  0  0  0  0  0  0  0
  -29.7377  -19.8956   20.1896 O   0  0  0  0  0  0  0  0  0  0  0  0
  -22.4030  -12.5880   21.6038 O   0  0  0  0  0  0  0  0  0  0  0  0
  -29.0618  -30.7468   23.5267 O   0  0  0  0  0  0  0  0  0  1  0  0
  -20.1306   -7.9243   19.7357 F   0  0  0  0  0  0  0  0  0  0  0  0
  -21.9482  -12.2147   18.9026 F   0  0  0  0  0  0  0  0  0  0  0  0
  1  2  1  0  0  0  0
  1  5  2  0  0  0  0
  2  6  2  0  0  0  0
  3 10  2  0  0  0  0
  3 18  1  0  0  0  0
  4 11  1  0  0  0  0
  4 18  2  0  0  0  0
  5 20  1  0  0  0  0
  6 23  1  0  0  0  0
  7  9  2  0  0  0  0
  7 21  1  0  0  0  0
  8 12  2  0  0  0  0
  8 22  1  0  0  0  0
  9 26  1  0  0  0  0
 10 27  1  0  0  0  0
 11 27  2  0  0  0  0
 12 28  1  0  0  0  0
 13 14  2  0  0  0  0
 13 29  1  0  0  0  0
 14 30  1  0  0  0  0
 15 24  1  0  0  0  0
 15 26  2  0  0  0  0
 16 25  1  0  0  0  0
 16 28  2  0  0  0  0
 17 30  2  0  0  0  0
 17 31  1  0  0  0  0
 18 32  1  0  0  0  0
 19 32  1  0  0  0  0
 19 33  2  0  0  0  0
 19 34  1  0  0  0  0
 20 23  2  0  0  0  0
 20 40  1  0  0  0  0
 21 24  2  0  0  0  0
 21 42  1  0  0  0  0
 22 25  2  0  0  0  0
 22 41  1  0  0  0  0
 23 53  1  0  0  0  0
 24 43  1  0  0  0  0
 25 44  1  0  0  0  0
 26 76  1  0  0  0  0
 27 86  1  0  0  0  0
 28 87  1  0  0  0  0
 29 31  2  0  0  0  0
 29 86  1  0  0  0  0
 30 88  1  0  0  0  0
 31 89  1  0  0  0  0
 32 69  2  0  0  0  0
 33 70  1  0  0  0  0
 33 74  1  0  0  0  0
 34 75  1  0  0  0  0
 34 80  2  0  0  0  0
 35 54  1  0  0  0  0
 35 77  1  0  0  0  0
 35 81  2  0  0  0  0
 36 65  1  0  0  0  0
 36 71  1  0  0  0  0
 36 82  2  0  0  0  0
 37 66  1  0  0  0  0
 37 72  1  0  0  0  0
 37 83  2  0  0  0  0
 38 67  1  0  0  0  0
 38 78  1  0  0  0  0
 38 84  2  0  0  0  0
 39 73  1  0  0  0  0
 39 76  1  0  0  0  0
 39 85  2  0  0  0  0
 40 45  1  0  0  0  0
 41 54  1  0  0  0  0
 42 57  1  0  0  0  0
 43 57  1  0  0  0  0
 44 71  1  0  0  0  0
 45 47  1  0  0  0  0
 46 48  1  0  0  0  0
 46 49  1  0  0  0  0
 47 53  1  0  0  0  0
 48 56  1  0  0  0  0
 49 73  1  0  0  0  0
 50 55  1  0  0  0  0
 50 72  1  0  0  0  0
 51 56  1  0  0  0  0
 51 73  1  0  0  0  0
 52 57  1  0  0  0  0
 52 72  1  0  0  0  0
 53 77  1  0  0  0  0
 54 71  1  0  0  0  0
 55 57  1  0  0  0  0
 55 58  1  0  0  0  0
 56 70  1  0  0  0  0
 59 66  1  0  0  0  0
 60 67  1  0  0  0  0
 61 68  1  0  0  0  0
 62 68  1  0  0  0  0
 63 68  1  0  0  0  0
 64 79  1  0  0  0  0
 65 68  1  0  0  0  0
 65 78  1  0  0  0  0
 66 87  1  0  0  0  0
 67 79  1  0  0  0  0
 69 70  1  0  0  0  0
M  CHG  1  79   1
M  ISO  4  39 100  66 101  76 100  87 101
M  END
> <Batch ID>
0141

> <Smiles>
CNC(C)C(=O)NC(C(=O)N1Cc2cc([101O:1][101CH:1](C)C(=O)N3CC(C)C4(Cc5ccc([100NH:0][100C:0](=O)N6CCCC(n7nc(-c8ccc(Oc9ccc(F)cc9F)cc8)c(C(N)=O)c7N)C6)cc5C4)C3)ccc2CC1C(=O)NC1CCCc2ccccc21)C(C)(C)C

> <Shape>
0.341

> <Color>
0.112

> <Negative vol penalty>
0.000

$$$$

  -OEChem-04052302543D

 83 91  0     1  0  0  0  0  0999 V2000
  -20.7988   -7.2558   22.8124 C   0  0  0  0  0  0  0  0  0  0  0  0
  -21.4598   -8.2910   23.4656 C   0  0  0  0  0  0  0  0  0  0  0  0
  -22.7028  -29.4128   19.7008 C   0  0  0  0  0  0  0  0  0  0  0  0
  -22.6279  -27.7783   21.4784 C   0  0  0  0  0  0  0  0  0  0  0  0
  -21.2295   -6.8401   21.5531 C   0  0  0  0  0  0  0  0  0  0  0  0
  -22.5527   -8.9105   22.8604 C   0  0  0  0  0  0  0  0  0  0  0  0
  -24.1280  -14.8147   23.2661 C   0  0  0  0  0  0  0  0  0  0  0  0
  -21.3186  -29.5646   19.7820 C   0  0  0  0  0  0  0  0  0  0  0  0
  -21.2437  -27.9301   21.5596 C   0  0  0  0  0  0  0  0  0  0  0  0
  -25.0621  -15.4842   24.0553 C   0  0  0  0  0  0  0  0  0  0  0  0
  -19.0552  -30.1353   22.8894 C   0  0  0  0  0  0  0  0  0  0  0  0
  -18.4911  -30.2519   24.1597 C   0  0  0  0  0  0  0  0  0  0  0  0
  -26.6594  -15.3698   22.2512 C   0  0  0  0  0  0  0  0  0  0  0  0
  -17.1700  -28.2700   23.7548 C   0  0  0  0  0  0  0  0  0  0  0  0
  -23.3574  -28.5196   20.5489 C   0  0  0  0  0  0  0  0  0  0  0  0
  -25.7652  -29.0862   21.1726 C   0  0  0  0  0  0  0  0  0  0  0  0
  -22.3222   -7.4612   20.9280 C   0  0  0  0  0  0  0  0  0  0  0  0
  -24.4567  -14.4074   21.9651 C   0  0  0  0  0  0  0  0  0  0  0  0
  -22.9993   -8.5018   21.5922 C   0  0  0  0  0  0  0  0  0  0  0  0
  -25.7268  -14.6976   21.4466 C   0  0  0  0  0  0  0  0  0  0  0  0
  -20.5890  -28.8233   20.7114 C   0  0  0  0  0  0  0  0  0  0  0  0
  -26.3290  -15.7593   23.5490 C   0  0  0  0  0  0  0  0  0  0  0  0
  -18.6768  -29.0861   22.0517 C   0  0  0  0  0  0  0  0  0  0  0  0
  -17.5485  -29.3192   24.5924 C   0  0  0  0  0  0  0  0  0  0  0  0
  -17.7342  -28.1534   22.4845 C   0  0  0  0  0  0  0  0  0  0  0  0
  -24.7872  -28.3619   20.4651 C   0  0  0  0  0  0  0  0  0  0  0  0
  -29.4088  -19.7692   20.9954 C   0  0  0  0  0  0  0  0  0  0  0  0
  -26.9594  -28.5618   20.7419 C   0  0  0  0  0  0  0  0  0  0  0  0
  -28.6406  -19.9726   22.1226 C   0  0  0  0  0  0  0  0  0  0  0  0
  -28.4708  -21.6655   20.4174 C   0  0  0  0  0  0  0  0  0  0  0  0
  -25.6084  -30.1389   22.1333 C   0  0  0  0  0  0  0  0  0  0  0  0
  -24.6625  -11.6067   20.4760 C   0  0  0  0  0  0  0  0  0  0  0  0
  -25.1617  -13.4705   17.8684 C   0  0  0  0  0  0  0  0  0  0  0  0
  -27.6565  -19.5268   24.3986 C   0  0  0  0  0  0  0  0  0  0  0  0
  -26.1859  -16.4706   16.6047 C   0  0  0  0  0  0  0  0  0  0  0  0
  -28.5041  -23.2575   18.4653 C   0  0  0  0  0  0  0  0  0  0  0  0
  -22.7805   -6.9457   19.5868 C   0  0  0  0  0  0  0  0  0  0  0  0
  -23.4289  -13.7099   21.1170 C   0  0  0  0  0  0  0  0  0  0  0  0
  -26.1226  -14.2997   20.0489 C   0  0  0  0  0  0  0  0  0  0  0  0
  -23.7137   -7.9047   18.8522 C   0  0  0  0  0  0  0  0  0  0  0  0
  -28.9668  -26.4436   16.9449 C   0  0  0  0  0  0  0  0  0  0  0  0
  -24.7918   -8.4282   19.7958 C   0  0  0  0  0  0  0  0  0  0  0  0
  -28.0411  -27.3642   17.7434 C   0  0  0  0  0  0  0  0  0  0  0  0
  -28.3596  -25.0547   16.7552 C   0  0  0  0  0  0  0  0  0  0  0  0
  -26.9956  -25.3153   18.7901 C   0  0  0  0  0  0  0  0  0  0  0  0
  -24.1734   -9.2152   20.9576 C   0  0  1  0  0  0  0  0  0  0  0  0
  -24.0437  -12.8865   19.9894 C   0  0  1  0  0  0  0  0  0  0  0  0
  -27.5925  -26.7056   19.0627 C   0  0  2  0  0  0  0  0  0  0  0  0
  -30.3090  -18.6233   20.7522 C   0  0  0  0  0  0  0  0  0  0  0  0
  -27.5585  -19.1052   26.8606 C   0  0  0  0  0  0  0  0  0  0  0  0
  -26.5171  -17.6836   14.4330 C   0  0  0  0  0  0  0  0  0  0  0  0
  -27.7045  -11.8622   17.3607 C   0  0  0  0  0  0  0  0  0  0  0  0
  -28.4574  -13.6748   15.8065 C   0  0  0  0  0  0  0  0  0  0  0  0
  -26.3774  -12.3911   15.3080 C   0  0  0  0  0  0  0  0  0  0  0  0
  -24.2295  -18.5651   17.3426 C   0  0  0  0  0  0  0  0  0  0  0  0
  -26.7394  -17.3342   25.2832 C   0  0  0  0  0  0  0  0  0  1  0  0
  -26.3750  -14.0695   17.1989 C   0  0  1  0  0  0  0  0  0  0  0  0
  -27.7606  -18.4549   25.4925 C   0  0  1  0  0  0  0  0  0  0  0  0
  -25.5595  -17.3984   15.5794 C   0  0  2  0  0  0  0  0  0  0  0  0
  -27.2220  -13.0053   16.4456 C   0  0  0  0  0  0  0  0  0  0  0  0
  -25.3143  -27.4472   19.6469 N   0  0  0  0  0  0  0  0  0  0  0  0
  -29.3124  -20.7387   20.0163 N   0  0  0  0  0  0  0  0  0  0  0  0
  -26.6366  -27.5932   19.8375 N   0  0  0  0  0  0  0  0  0  0  0  0
  -25.0849  -13.6143   19.2610 N   0  0  0  0  0  0  0  0  0  0  0  0
  -27.9622  -24.4914   18.0474 N   0  0  0  0  0  0  0  0  0  0  0  0
  -28.2435  -28.8394   21.0522 N   0  0  0  0  0  0  0  0  0  0  0  0
  -24.3112  -30.5562   22.4614 N   0  0  0  0  0  0  0  0  0  0  0  0
  -28.4731  -19.2243   23.3122 N   0  0  0  0  0  0  0  0  0  0  0  0
  -28.0781  -22.8377   19.7250 N   0  0  0  0  0  0  0  0  0  0  0  0
  -23.7859  -10.5396   20.5214 N   0  0  0  0  0  0  0  0  0  0  0  0
  -25.8818  -15.1498   16.3514 N   0  0  0  0  0  0  0  0  0  0  0  0
  -25.1861  -18.6945   16.2134 N   0  3  0  0  0  0  0  0  0  0  0  0
  -26.5899  -30.7042   22.6723 O   0  0  0  0  0  0  0  0  0  0  0  0
  -25.8480  -11.5884   20.7859 O   0  0  0  0  0  0  0  0  0  0  0  0
  -24.3100  -12.9024   17.1804 O   0  0  0  0  0  0  0  0  0  0  0  0
  -26.9334  -20.5105   24.5269 O   0  0  0  0  0  0  0  0  0  0  0  0
  -26.8790  -16.8767   17.5349 O   0  0  0  0  0  0  0  0  0  0  0  0
  -29.3092  -22.6333   17.7694 O   0  0  0  0  0  0  0  0  0  0  0  0
  -19.2384  -28.9713   20.7911 O   0  0  0  0  0  0  0  0  0  0  0  0
  -27.2429  -16.4120   24.3175 O   0  0  0  0  0  0  0  0  0  1  0  0
  -17.0079  -29.4304   25.8129 F   0  0  0  0  0  0  0  0  0  0  0  0
  -17.3675  -27.1426   21.6847 F   0  0  0  0  0  0  0  0  0  0  0  0
  -27.7592  -21.4350   21.9619 S   0  0  0  0  0  0  0  0  0  0  0  0
  1  2  1  0  0  0  0
  1  5  2  0  0  0  0
  2  6  2  0  0  0  0
  3  8  2  0  0  0  0
  3 15  1  0  0  0  0
  4  9  1  0  0  0  0
  4 15  2  0  0  0  0
  5 17  1  0  0  0  0
  6 19  1  0  0  0  0
  7 10  2  0  0  0  0
  7 18  1  0  0  0  0
  8 21  1  0  0  0  0
  9 21  2  0  0  0  0
 10 22  1  0  0  0  0
 11 12  2  0  0  0  0
 11 23  1  0  0  0  0
 12 24  1  0  0  0  0
 13 20  1  0  0  0  0
 13 22  2  0  0  0  0
 14 24  2  0  0  0  0
 14 25  1  0  0  0  0
 15 26  1  0  0  0  0
 16 26  1  0  0  0  0
 16 28  2  0  0  0  0
 16 31  1  0  0  0  0
 17 19  2  0  0  0  0
 17 37  1  0  0  0  0
 18 20  2  0  0  0  0
 18 38  1  0  0  0  0
 19 46  1  0  0  0  0
 20 39  1  0  0  0  0
 21 79  1  0  0  0  0
 22 80  1  0  0  0  0
 23 25  2  0  0  0  0
 23 79  1  0  0  0  0
 24 81  1  0  0  0  0
 25 82  1  0  0  0  0
 26 61  2  0  0  0  0
 27 29  2  0  0  0  0
 27 49  1  0  0  0  0
 27 62  1  0  0  0  0
 28 63  1  0  0  0  0
 28 66  1  0  0  0  0
 29 68  1  0  0  0  0
 29 83  1  0  0  0  0
 30 62  2  0  0  0  0
 30 69  1  0  0  0  0
 30 83  1  0  0  0  0
 31 67  1  0  0  0  0
 31 73  2  0  0  0  0
 32 47  1  0  0  0  0
 32 70  1  0  0  0  0
 32 74  2  0  0  0  0
 33 57  1  0  0  0  0
 33 64  1  0  0  0  0
 33 75  2  0  0  0  0
 34 58  1  0  0  0  0
 34 68  1  0  0  0  0
 34 76  2  0  0  0  0
 35 59  1  0  0  0  0
 35 71  1  0  0  0  0
 35 77  2  0  0  0  0
 36 65  1  0  0  0  0
 36 69  1  0  0  0  0
 36 78  2  0  0  0  0
 37 40  1  0  0  0  0
 38 47  1  0  0  0  0
 39 64  1  0  0  0  0
 40 42  1  0  0  0  0
 41 43  1  0  0  0  0
 41 44  1  0  0  0  0
 42 46  1  0  0  0  0
 43 48  1  0  0  0  0
 44 65  1  0  0  0  0
 45 48  1  0  0  0  0
 45 65  1  0  0  0  0
 46 70  1  0  0  0  0
 47 64  1  0  0  0  0
 48 63  1  0  0  0  0
 50 58  1  0  0  0  0
 51 59  1  0  0  0  0
 52 60  1  0  0  0  0
 53 60  1  0  0  0  0
 54 60  1  0  0  0  0
 55 72  1  0  0  0  0
 56 58  1  0  0  0  0
 56 80  1  0  0  0  0
 57 60  1  0  0  0  0
 57 71  1  0  0  0  0
 59 72  1  0  0  0  0
 61 63  1  0  0  0  0
M  CHG  1  72   1
M  ISO  4  36 100  56 101  69 100  80 101
M  END
> <Batch ID>
0141

> <Smiles>
CNC(C)C(=O)NC(C(=O)N1Cc2cc([101O:1][101CH2:1]C(C)C(=O)Nc3sc([100NH:0][100C:0](=O)N4CCCC(n5nc(-c6ccc(Oc7ccc(F)cc7F)cc6)c(C(N)=O)c5N)C4)nc3C)ccc2CC1C(=O)NC1CCCc2ccccc21)C(C)(C)C

> <Shape>
0.242

> <Color>
0.078

> <Negative vol penalty>
0.000

$$$$

  -OEChem-04052302543D

 86 95  0     1  0  0  0  0  0999 V2000
  -29.7511  -35.8776   17.4645 C   0  0  0  0  0  0  0  0  0  0  0  0
  -30.0328  -34.5265   17.2896 C   0  0  0  0  0  0  0  0  0  0  0  0
  -23.0839   -9.7186   20.0138 C   0  0  0  0  0  0  0  0  0  0  0  0
  -23.7371   -9.9213   22.3310 C   0  0  0  0  0  0  0  0  0  0  0  0
  -29.1408  -36.3149   18.6393 C   0  0  0  0  0  0  0  0  0  0  0  0
  -29.7053  -33.6120   18.2900 C   0  0  0  0  0  0  0  0  0  0  0  0
  -27.5868  -26.8263   19.1750 C   0  0  0  0  0  0  0  0  0  0  0  0
  -22.3473   -8.5748   20.3215 C   0  0  0  0  0  0  0  0  0  0  0  0
  -23.0004   -8.7775   22.6387 C   0  0  0  0  0  0  0  0  0  0  0  0
  -27.9331  -25.6728   19.8773 C   0  0  0  0  0  0  0  0  0  0  0  0
  -23.3682   -5.4280   22.3619 C   0  0  0  0  0  0  0  0  0  0  0  0
  -23.9658   -4.4747   23.1862 C   0  0  0  0  0  0  0  0  0  0  0  0
  -26.8093  -26.5321   21.8312 C   0  0  0  0  0  0  0  0  0  0  0  0
  -22.1850   -4.7500   24.7956 C   0  0  0  0  0  0  0  0  0  0  0  0
  -23.7789  -10.3918   21.0186 C   0  0  0  0  0  0  0  0  0  0  0  0
  -24.0867  -12.9057   20.7127 C   0  0  0  0  0  0  0  0  0  0  0  0
  -28.7969  -35.4040   19.6505 C   0  0  0  0  0  0  0  0  0  0  0  0
  -26.8573  -27.8480   19.8000 C   0  0  0  0  0  0  0  0  0  0  0  0
  -29.0911  -34.0377   19.4800 C   0  0  0  0  0  0  0  0  0  0  0  0
  -26.4528  -27.6965   21.1340 C   0  0  0  0  0  0  0  0  0  0  0  0
  -22.3055   -8.1042   21.6340 C   0  0  0  0  0  0  0  0  0  0  0  0
  -27.5469  -25.5268   21.2064 C   0  0  0  0  0  0  0  0  0  0  0  0
  -22.1791   -6.0425   22.7545 C   0  0  0  0  0  0  0  0  0  0  0  0
  -23.3742   -4.1356   24.4031 C   0  0  0  0  0  0  0  0  0  0  0  0
  -21.5875   -5.7035   23.9713 C   0  0  0  0  0  0  0  0  0  0  0  0
  -24.5405  -11.5731   20.7012 C   0  0  0  0  0  0  0  0  0  0  0  0
  -30.4262  -19.3014   22.6578 C   0  0  0  0  0  0  0  0  0  0  0  0
  -31.5664  -18.8967   21.9958 C   0  0  0  0  0  0  0  0  0  0  0  0
  -25.1827  -13.6448   20.3400 C   0  0  0  0  0  0  0  0  0  0  0  0
  -30.3723  -17.0750   21.7400 C   0  0  0  0  0  0  0  0  0  0  0  0
  -30.1636  -21.8411   22.4530 C   0  0  0  0  0  0  0  0  0  0  0  0
  -28.9489  -22.2785   22.0987 C   0  0  0  0  0  0  0  0  0  0  0  0
  -22.7904  -13.4286   21.0319 C   0  0  0  0  0  0  0  0  0  0  0  0
  -27.4072  -30.9041   20.4792 C   0  0  0  0  0  0  0  0  0  0  0  0
  -24.3054  -30.8479   21.4266 C   0  0  0  0  0  0  0  0  0  0  0  0
  -21.6462  -29.0162   22.5313 C   0  0  0  0  0  0  0  0  0  0  0  0
  -30.6182  -14.8052   20.6750 C   0  0  0  0  0  0  0  0  0  0  0  0
  -28.1815  -35.9302   20.9230 C   0  0  0  0  0  0  0  0  0  0  0  0
  -26.4686  -29.0744   19.0207 C   0  0  0  0  0  0  0  0  0  0  0  0
  -25.6511  -28.7551   21.8446 C   0  0  0  0  0  0  0  0  0  0  0  0
  -27.8701  -21.4507   22.7140 C   0  0  0  0  0  0  0  0  0  0  0  0
  -27.5264  -34.8469   21.7760 C   0  0  0  0  0  0  0  0  0  0  0  0
  -28.6253  -20.7053   23.8174 C   0  0  0  0  0  0  0  0  0  0  0  0
  -29.6516  -12.1910   18.4594 C   0  0  0  0  0  0  0  0  0  0  0  0
  -28.4474  -33.6377   21.9032 C   0  0  0  0  0  0  0  0  0  0  0  0
  -28.1984  -11.9069   18.8460 C   0  0  0  0  0  0  0  0  0  0  0  0
  -30.5067  -12.5315   19.6787 C   0  0  0  0  0  0  0  0  0  0  0  0
  -28.5271  -13.3262   20.9111 C   0  0  0  0  0  0  0  0  0  0  0  0
  -28.7286  -33.0117   20.5318 C   0  0  1  0  0  0  0  0  0  0  0  0
  -26.1663  -30.2765   19.9101 C   0  0  1  0  0  0  0  0  0  0  0  0
  -27.6124  -13.0419   19.7085 C   0  0  2  0  0  0  0  0  0  0  0  0
  -30.1082  -20.6282   23.3570 C   0  0  1  0  0  0  0  0  0  0  0  0
  -32.7928  -19.6980   21.8066 C   0  0  0  0  0  0  0  0  0  0  0  0
  -19.2557  -29.2539   23.2569 C   0  0  0  0  0  0  0  0  0  0  0  0
  -30.7775  -22.1652   25.2356 C   0  0  0  0  0  0  0  0  0  0  0  0
  -30.9266  -19.6775   25.5399 C   0  0  0  0  0  0  0  0  0  0  0  0
  -25.2332  -31.9783   24.1046 C   0  0  0  0  0  0  0  0  0  0  0  0
  -23.0246  -31.3071   25.0740 C   0  0  0  0  0  0  0  0  0  0  0  0
  -23.1169  -32.9804   23.2262 C   0  0  0  0  0  0  0  0  0  0  0  0
  -20.6877  -27.2632   20.3478 C   0  0  0  0  0  0  0  0  0  0  0  0
  -28.6346  -23.4119   21.1924 C   0  0  0  0  0  0  0  0  0  1  0  0
  -23.5881  -30.5484   22.7207 C   0  0  1  0  0  0  0  0  0  0  0  0
  -20.1938  -28.9825   22.0911 C   0  0  2  0  0  0  0  0  0  0  0  0
  -31.0579  -20.8310   24.5491 C   0  0  0  0  0  0  0  0  0  0  0  0
  -23.7574  -31.6842   23.7688 C   0  0  0  0  0  0  0  0  0  0  0  0
  -25.8246  -11.4687   20.3489 N   0  0  0  0  0  0  0  0  0  0  0  0
  -31.5375  -17.6201   21.4692 N   0  0  0  0  0  0  0  0  0  0  0  0
  -26.1871  -12.7451   20.1355 N   0  0  0  0  0  0  0  0  0  0  0  0
  -25.3010  -29.9387   21.0421 N   0  0  0  0  0  0  0  0  0  0  0  0
  -29.8920  -13.6175   20.4451 N   0  0  0  0  0  0  0  0  0  0  0  0
  -25.3755  -14.9701   20.1704 N   0  0  0  0  0  0  0  0  0  0  0  0
  -21.7782  -12.5297   21.3951 N   0  0  0  0  0  0  0  0  0  0  0  0
  -29.9195  -15.7795   21.3873 N   0  0  0  0  0  0  0  0  0  0  0  0
  -27.5990  -32.2182   20.0973 N   0  0  0  0  0  0  0  0  0  0  0  0
  -22.2019  -30.2669   22.3634 N   0  0  0  0  0  0  0  0  0  0  0  0
  -19.8571  -27.6488   21.5176 N   0  3  0  0  0  0  0  0  0  0  0  0
  -22.5327  -14.6551   20.9802 O   0  0  0  0  0  0  0  0  0  0  0  0
  -28.1360  -30.2454   21.2119 O   0  0  0  0  0  0  0  0  0  0  0  0
  -23.9889  -31.8477   20.7772 O   0  0  0  0  0  0  0  0  0  0  0  0
  -22.2284  -28.0324   22.9827 O   0  0  0  0  0  0  0  0  0  0  0  0
  -31.7649  -14.9580   20.2464 O   0  0  0  0  0  0  0  0  0  0  0  0
  -21.5866   -6.9883   21.9346 O   0  0  0  0  0  0  0  0  0  0  0  0
  -27.8841  -24.4021   21.8943 O   0  0  0  0  0  0  0  0  0  1  0  0
  -23.9474   -3.2189   25.1938 F   0  0  0  0  0  0  0  0  0  0  0  0
  -20.4445   -6.2895   24.3533 F   0  0  0  0  0  0  0  0  0  0  0  0
  -29.2634  -18.0412   22.6241 S   0  0  0  0  0  0  0  0  0  0  0  0
  1  2  1  0  0  0  0
  1  5  2  0  0  0  0
  2  6  2  0  0  0  0
  3  8  2  0  0  0  0
  3 15  1  0  0  0  0
  4  9  1  0  0  0  0
  4 15  2  0  0  0  0
  5 17  1  0  0  0  0
  6 19  1  0  0  0  0
  7 10  2  0  0  0  0
  7 18  1  0  0  0  0
  8 21  1  0  0  0  0
  9 21  2  0  0  0  0
 10 22  1  0  0  0  0
 11 12  2  0  0  0  0
 11 23  1  0  0  0  0
 12 24  1  0  0  0  0
 13 20  1  0  0  0  0
 13 22  2  0  0  0  0
 14 24  2  0  0  0  0
 14 25  1  0  0  0  0
 15 26  1  0  0  0  0
 16 26  1  0  0  0  0
 16 29  2  0  0  0  0
 16 33  1  0  0  0  0
 17 19  2  0  0  0  0
 17 38  1  0  0  0  0
 18 20  2  0  0  0  0
 18 39  1  0  0  0  0
 19 49  1  0  0  0  0
 20 40  1  0  0  0  0
 21 82  1  0  0  0  0
 22 83  1  0  0  0  0
 23 25  2  0  0  0  0
 23 82  1  0  0  0  0
 24 84  1  0  0  0  0
 25 85  1  0  0  0  0
 26 66  2  0  0  0  0
 27 28  2  0  0  0  0
 27 52  1  0  0  0  0
 27 86  1  0  0  0  0
 28 53  1  0  0  0  0
 28 67  1  0  0  0  0
 29 68  1  0  0  0  0
 29 71  1  0  0  0  0
 30 67  2  0  0  0  0
 30 73  1  0  0  0  0
 30 86  1  0  0  0  0
 31 32  2  0  0  0  0
 31 52  1  0  0  0  0
 32 41  1  0  0  0  0
 32 61  1  0  0  0  0
 33 72  1  0  0  0  0
 33 77  2  0  0  0  0
 34 50  1  0  0  0  0
 34 74  1  0  0  0  0
 34 78  2  0  0  0  0
 35 62  1  0  0  0  0
 35 69  1  0  0  0  0
 35 79  2  0  0  0  0
 36 63  1  0  0  0  0
 36 75  1  0  0  0  0
 36 80  2  0  0  0  0
 37 70  1  0  0  0  0
 37 73  1  0  0  0  0
 37 81  2  0  0  0  0
 38 42  1  0  0  0  0
 39 50  1  0  0  0  0
 40 69  1  0  0  0  0
 41 43  1  0  0  0  0
 42 45  1  0  0  0  0
 43 52  1  0  0  0  0
 44 46  1  0  0  0  0
 44 47  1  0  0  0  0
 45 49  1  0  0  0  0
 46 51  1  0  0  0  0
 47 70  1  0  0  0  0
 48 51  1  0  0  0  0
 48 70  1  0  0  0  0
 49 74  1  0  0  0  0
 50 69  1  0  0  0  0
 51 68  1  0  0  0  0
 52 64  1  0  0  0  0
 54 63  1  0  0  0  0
 55 64  1  0  0  0  0
 56 64  1  0  0  0  0
 57 65  1  0  0  0  0
 58 65  1  0  0  0  0
 59 65  1  0  0  0  0
 60 76  1  0  0  0  0
 61 83  1  0  0  0  0
 62 65  1  0  0  0  0
 62 75  1  0  0  0  0
 63 76  1  0  0  0  0
 66 68  1  0  0  0  0
M  CHG  1  76   1
M  ISO  4  37 100  61 101  73 100  83 101
M  END
> <Batch ID>
0141

> <Smiles>
CNC(C)C(=O)NC(C(=O)N1Cc2cc([101O:1][101CH2:1]C3=CC(c4sc([100NH:0][100C:0](=O)N5CCCC(n6nc(-c7ccc(Oc8ccc(F)cc8F)cc7)c(C(N)=O)c6N)C5)nc4C)(C(C)C)CC3)ccc2CC1C(=O)NC1CCCc2ccccc21)C(C)(C)C

> <Shape>
0.323

> <Color>
0.211

> <Negative vol penalty>
0.000

$$$$

  -OEChem-04052302543D

 85 93  0     1  0  0  0  0  0999 V2000
  -25.5387  -35.4652   21.7739 C   0  0  0  0  0  0  0  0  0  0  0  0
  -26.1513  -34.2162   21.7736 C   0  0  0  0  0  0  0  0  0  0  0  0
  -27.0367  -12.7585   21.5791 C   0  0  0  0  0  0  0  0  0  0  0  0
  -26.5558  -14.1194   19.6417 C   0  0  0  0  0  0  0  0  0  0  0  0
  -24.2474  -35.6070   22.2804 C   0  0  0  0  0  0  0  0  0  0  0  0
  -25.4733  -33.1083   22.2808 C   0  0  0  0  0  0  0  0  0  0  0  0
  -25.9080  -29.0345   19.3042 C   0  0  0  0  0  0  0  0  0  0  0  0
  -25.6920  -12.3967   21.6588 C   0  0  0  0  0  0  0  0  0  0  0  0
  -25.2110  -13.7576   19.7214 C   0  0  0  0  0  0  0  0  0  0  0  0
  -27.1051  -28.3229   19.3697 C   0  0  0  0  0  0  0  0  0  0  0  0
  -23.5955  -10.2440   20.1084 C   0  0  0  0  0  0  0  0  0  0  0  0
  -23.2979   -8.8985   20.3243 C   0  0  0  0  0  0  0  0  0  0  0  0
  -26.0540  -26.6993   20.8114 C   0  0  0  0  0  0  0  0  0  0  0  0
  -32.1028  -22.2961   19.5560 C   0  0  0  0  0  0  0  0  0  0  0  0
  -22.1519   -9.4802   22.3701 C   0  0  0  0  0  0  0  0  0  0  0  0
  -27.4686  -13.6199   20.5706 C   0  0  0  0  0  0  0  0  0  0  0  0
  -29.8747  -13.3352   19.7721 C   0  0  0  0  0  0  0  0  0  0  0  0
  -23.5496  -34.4984   22.7852 C   0  0  0  0  0  0  0  0  0  0  0  0
  -24.7760  -28.5890   20.0018 C   0  0  0  0  0  0  0  0  0  0  0  0
  -24.1720  -33.2355   22.7957 C   0  0  0  0  0  0  0  0  0  0  0  0
  -24.8431  -27.4057   20.7510 C   0  0  0  0  0  0  0  0  0  0  0  0
  -31.9426  -23.1694   18.4417 C   0  0  0  0  0  0  0  0  0  0  0  0
  -24.7791  -12.8962   20.7300 C   0  0  0  0  0  0  0  0  0  0  0  0
  -27.1791  -27.1567   20.1257 C   0  0  0  0  0  0  0  0  0  0  0  0
  -23.1713  -11.2077   21.0235 C   0  0  0  0  0  0  0  0  0  0  0  0
  -22.5761   -8.5166   21.4551 C   0  0  0  0  0  0  0  0  0  0  0  0
  -22.4495  -10.8257   22.1543 C   0  0  0  0  0  0  0  0  0  0  0  0
  -28.8575  -13.9945   20.4880 C   0  0  0  0  0  0  0  0  0  0  0  0
  -31.1287  -22.6268   17.4718 C   0  0  0  0  0  0  0  0  0  0  0  0
  -31.0030  -14.0800   20.0142 C   0  0  0  0  0  0  0  0  0  0  0  0
  -31.4050  -21.1191   19.3954 C   0  0  0  0  0  0  0  0  0  0  0  0
  -29.8057  -12.1551   18.9608 C   0  0  0  0  0  0  0  0  0  0  0  0
  -22.9657  -29.7742   22.3302 C   0  0  0  0  0  0  0  0  0  0  0  0
  -21.1532  -27.1529   21.7252 C   0  0  0  0  0  0  0  0  0  0  0  0
  -20.9751  -23.9748   20.4945 C   0  0  0  0  0  0  0  0  0  0  0  0
  -31.8769  -19.8036   21.4914 C   0  0  0  0  0  0  0  0  0  0  0  0
  -22.1736  -34.7096   23.3655 C   0  0  0  0  0  0  0  0  0  0  0  0
  -23.4847  -29.3535   19.8993 C   0  0  0  0  0  0  0  0  0  0  0  0
  -23.6507  -26.8740   21.5020 C   0  0  0  0  0  0  0  0  0  0  0  0
  -21.3814  -33.4165   23.5407 C   0  0  0  0  0  0  0  0  0  0  0  0
  -32.9628  -16.9443   23.3141 C   0  0  0  0  0  0  0  0  0  0  0  0
  -22.2483  -32.3435   24.1919 C   0  0  0  0  0  0  0  0  0  0  0  0
  -32.1302  -15.8023   22.7268 C   0  0  0  0  0  0  0  0  0  0  0  0
  -32.1621  -18.2422   23.4034 C   0  0  0  0  0  0  0  0  0  0  0  0
  -30.6903  -17.5228   21.5635 C   0  0  0  0  0  0  0  0  0  0  0  0
  -23.4596  -32.0053   23.3146 C   0  0  1  0  0  0  0  0  0  0  0  0
  -22.5377  -29.0859   21.0650 C   0  0  1  0  0  0  0  0  0  0  0  0
  -31.4741  -16.2111   21.3935 C   0  0  2  0  0  0  0  0  0  0  0  0
  -30.7155  -23.2071   16.1739 C   0  0  0  0  0  0  0  0  0  0  0  0
  -34.6988  -23.5549   17.1039 C   0  0  0  0  0  0  0  0  0  0  0  0
  -19.3681  -22.0746   20.1714 C   0  0  0  0  0  0  0  0  0  0  0  0
  -32.0136  -27.0973   17.9732 C   0  0  0  0  0  0  0  0  0  0  0  0
  -33.4738  -24.9110   19.5876 C   0  0  0  0  0  0  0  0  0  0  0  0
  -21.3455  -26.4883   24.6970 C   0  0  0  0  0  0  0  0  0  0  0  0
  -20.5727  -24.1689   24.1570 C   0  0  0  0  0  0  0  0  0  0  0  0
  -19.0869  -26.1173   23.6891 C   0  0  0  0  0  0  0  0  0  0  0  0
  -21.3067  -24.0415   17.5543 C   0  0  0  0  0  0  0  0  0  0  0  0
  -33.5654  -24.5810   17.0958 C   0  0  0  0  0  0  0  0  0  0  0  0
  -30.4351  -25.6586   19.3222 C   0  0  0  0  0  0  0  0  0  0  0  0
  -29.2080  -26.5277   19.0562 C   0  0  0  0  0  0  0  0  0  1  0  0
  -21.1215  -25.7334   22.2381 C   0  0  1  0  0  0  0  0  0  0  0  0
  -19.9887  -23.3151   19.5478 C   0  0  2  0  0  0  0  0  0  0  0  0
  -31.4697  -25.6689   18.1646 C   0  0  2  0  0  0  0  0  0  0  0  0
  -32.6115  -24.5650   18.3443 C   0  0  1  0  0  0  0  0  0  0  0  0
  -20.5548  -25.6378   23.6828 C   0  0  0  0  0  0  0  0  0  0  0  0
  -29.3005  -15.0749   21.1364 N   0  0  0  0  0  0  0  0  0  0  0  0
  -30.6085  -15.1002   20.8289 N   0  0  0  0  0  0  0  0  0  0  0  0
  -22.4125  -27.6604   21.3757 N   0  0  0  0  0  0  0  0  0  0  0  0
  -31.5737  -18.5686   22.1026 N   0  0  0  0  0  0  0  0  0  0  0  0
  -32.2842  -13.9552   19.6075 N   0  0  0  0  0  0  0  0  0  0  0  0
  -28.5678  -11.5135   18.8184 N   0  0  0  0  0  0  0  0  0  0  0  0
  -31.2858  -19.9892   20.2421 N   0  0  0  0  0  0  0  0  0  0  0  0
  -23.0654  -31.1478   22.2174 N   0  0  0  0  0  0  0  0  0  0  0  0
  -20.3760  -24.9594   21.2514 N   0  0  0  0  0  0  0  0  0  0  0  0
  -20.6713  -22.9148   18.2849 N   0  3  0  0  0  0  0  0  0  0  0  0
  -30.8154  -11.6741   18.3926 O   0  0  0  0  0  0  0  0  0  0  0  0
  -23.1875  -29.1084   23.3349 O   0  0  0  0  0  0  0  0  0  0  0  0
  -20.0984  -27.7856   21.6312 O   0  0  0  0  0  0  0  0  0  0  0  0
  -22.1578  -23.6468   20.5589 O   0  0  0  0  0  0  0  0  0  0  0  0
  -32.6290  -20.6238   22.0239 O   0  0  0  0  0  0  0  0  0  0  0  0
  -23.4669  -12.5432   20.8073 O   0  0  0  0  0  0  0  0  0  0  0  0
  -28.3465  -26.4605   20.1918 O   0  0  0  0  0  0  0  0  0  1  0  0
  -22.2891   -7.2246   21.6615 F   0  0  0  0  0  0  0  0  0  0  0  0
  -22.0383  -11.7471   23.0362 F   0  0  0  0  0  0  0  0  0  0  0  0
  -30.5615  -21.0704   17.9060 S   0  0  0  0  0  0  0  0  0  0  0  0
  1  2  1  0  0  0  0
  1  5  2  0  0  0  0
  2  6  2  0  0  0  0
  3  8  2  0  0  0  0
  3 16  1  0  0  0  0
  4  9  1  0  0  0  0
  4 16  2  0  0  0  0
  5 18  1  0  0  0  0
  6 20  1  0  0  0  0
  7 10  2  0  0  0  0
  7 19  1  0  0  0  0
  8 23  1  0  0  0  0
  9 23  2  0  0  0  0
 10 24  1  0  0  0  0
 11 12  2  0  0  0  0
 11 25  1  0  0  0  0
 12 26  1  0  0  0  0
 13 21  1  0  0  0  0
 13 24  2  0  0  0  0
 14 22  1  0  0  0  0
 14 31  2  0  0  0  0
 15 26  2  0  0  0  0
 15 27  1  0  0  0  0
 16 28  1  0  0  0  0
 17 28  1  0  0  0  0
 17 30  2  0  0  0  0
 17 32  1  0  0  0  0
 18 20  2  0  0  0  0
 18 37  1  0  0  0  0
 19 21  2  0  0  0  0
 19 38  1  0  0  0  0
 20 46  1  0  0  0  0
 21 39  1  0  0  0  0
 22 29  2  0  0  0  0
 22 64  1  0  0  0  0
 23 81  1  0  0  0  0
 24 82  1  0  0  0  0
 25 27  2  0  0  0  0
 25 81  1  0  0  0  0
 26 83  1  0  0  0  0
 27 84  1  0  0  0  0
 28 66  2  0  0  0  0
 29 49  1  0  0  0  0
 29 85  1  0  0  0  0
 30 67  1  0  0  0  0
 30 70  1  0  0  0  0
 31 72  1  0  0  0  0
 31 85  1  0  0  0  0
 32 71  1  0  0  0  0
 32 76  2  0  0  0  0
 33 47  1  0  0  0  0
 33 73  1  0  0  0  0
 33 77  2  0  0  0  0
 34 61  1  0  0  0  0
 34 68  1  0  0  0  0
 34 78  2  0  0  0  0
 35 62  1  0  0  0  0
 35 74  1  0  0  0  0
 35 79  2  0  0  0  0
 36 69  1  0  0  0  0
 36 72  1  0  0  0  0
 36 80  2  0  0  0  0
 37 40  1  0  0  0  0
 38 47  1  0  0  0  0
 39 68  1  0  0  0  0
 40 42  1  0  0  0  0
 41 43  1  0  0  0  0
 41 44  1  0  0  0  0
 42 46  1  0  0  0  0
 43 48  1  0  0  0  0
 44 69  1  0  0  0  0
 45 48  1  0  0  0  0
 45 69  1  0  0  0  0
 46 73  1  0  0  0  0
 47 68  1  0  0  0  0
 48 67  1  0  0  0  0
 50 58  1  0  0  0  0
 51 62  1  0  0  0  0
 52 63  1  0  0  0  0
 53 64  1  0  0  0  0
 54 65  1  0  0  0  0
 55 65  1  0  0  0  0
 56 65  1  0  0  0  0
 57 75  1  0  0  0  0
 58 64  1  0  0  0  0
 59 60  1  0  0  0  0
 59 63  1  0  0  0  0
 60 82  1  0  0  0  0
 61 65  1  0  0  0  0
 61 74  1  0  0  0  0
 62 75  1  0  0  0  0
 63 64  1  0  0  0  0
 66 67  1  0  0  0  0
M  CHG  1  75   1
M  ISO  4  36 100  60 101  72 100  82 101
M  END
> <Batch ID>
0141

> <Smiles>
CCC(C)(c1cc([100NH:0][100C:0](=O)N2CCCC(n3nc(-c4ccc(Oc5ccc(F)cc5F)cc4)c(C(N)=O)c3N)C2)sc1C)C(C)C[101CH2:1][101O:1]c1ccc2c(c1)CN(C(=O)C(NC(=O)C(C)NC)C(C)(C)C)C(C(=O)NC1CCCc3ccccc31)C2

> <Shape>
0.286

> <Color>
0.073

> <Negative vol penalty>
0.000

$$$$

  -OEChem-04052302543D

 85 94  0     1  0  0  0  0  0999 V2000
  -30.8407  -29.0955   29.1644 C   0  0  0  0  0  0  0  0  0  0  0  0
  -30.4506  -28.4184   28.0135 C   0  0  0  0  0  0  0  0  0  0  0  0
  -23.2780   -9.7732   20.9421 C   0  0  0  0  0  0  0  0  0  0  0  0
  -23.9892  -10.4560   23.1477 C   0  0  0  0  0  0  0  0  0  0  0  0
  -30.1556  -30.2425   29.5631 C   0  0  0  0  0  0  0  0  0  0  0  0
  -29.3743  -28.8873   27.2611 C   0  0  0  0  0  0  0  0  0  0  0  0
  -30.3306  -28.8800   22.2881 C   0  0  0  0  0  0  0  0  0  0  0  0
  -22.6088   -8.6818   21.4957 C   0  0  0  0  0  0  0  0  0  0  0  0
  -23.3199   -9.3647   23.7014 C   0  0  0  0  0  0  0  0  0  0  0  0
  -30.2505  -27.6556   21.6261 C   0  0  0  0  0  0  0  0  0  0  0  0
  -23.3977   -5.6158   22.6797 C   0  0  0  0  0  0  0  0  0  0  0  0
  -23.5529   -4.3774   22.0569 C   0  0  0  0  0  0  0  0  0  0  0  0
  -31.4127  -19.6378   20.8536 C   0  0  0  0  0  0  0  0  0  0  0  0
  -31.4229  -18.2437   20.5594 C   0  0  0  0  0  0  0  0  0  0  0  0
  -28.0503  -28.2382   20.8270 C   0  0  0  0  0  0  0  0  0  0  0  0
  -21.1702   -4.2731   21.6708 C   0  0  0  0  0  0  0  0  0  0  0  0
  -23.9683  -10.6603   21.7681 C   0  0  0  0  0  0  0  0  0  0  0  0
  -24.1413  -13.0756   20.9655 C   0  0  0  0  0  0  0  0  0  0  0  0
  -29.0765  -30.7312   28.8099 C   0  0  0  0  0  0  0  0  0  0  0  0
  -29.2648  -29.7897   22.2333 C   0  0  0  0  0  0  0  0  0  0  0  0
  -28.6732  -30.0412   27.6508 C   0  0  0  0  0  0  0  0  0  0  0  0
  -28.1203  -29.4746   21.4870 C   0  0  0  0  0  0  0  0  0  0  0  0
  -22.6297   -8.4775   22.8754 C   0  0  0  0  0  0  0  0  0  0  0  0
  -29.1091  -27.3333   20.8978 C   0  0  0  0  0  0  0  0  0  0  0  0
  -22.1288   -6.1829   22.7981 C   0  0  0  0  0  0  0  0  0  0  0  0
  -22.4391   -3.7061   21.5524 C   0  0  0  0  0  0  0  0  0  0  0  0
  -21.0150   -5.5115   22.2937 C   0  0  0  0  0  0  0  0  0  0  0  0
  -24.6603  -11.7876   21.1967 C   0  0  0  0  0  0  0  0  0  0  0  0
  -30.2341  -20.0328   21.4473 C   0  0  0  0  0  0  0  0  0  0  0  0
  -25.1875  -13.7733   20.4131 C   0  0  0  0  0  0  0  0  0  0  0  0
  -30.2516  -17.6261   20.9397 C   0  0  0  0  0  0  0  0  0  0  0  0
  -22.8307  -13.5949   21.2268 C   0  0  0  0  0  0  0  0  0  0  0  0
  -27.3141  -31.0912   24.3792 C   0  0  0  0  0  0  0  0  0  0  0  0
  -26.2937  -32.8174   21.8294 C   0  0  0  0  0  0  0  0  0  0  0  0
  -25.9656  -33.0634   18.4414 C   0  0  0  0  0  0  0  0  0  0  0  0
  -30.5661  -15.2092   20.3025 C   0  0  0  0  0  0  0  0  0  0  0  0
  -28.3366  -31.9481   29.3065 C   0  0  0  0  0  0  0  0  0  0  0  0
  -29.3776  -31.1175   22.9309 C   0  0  0  0  0  0  0  0  0  0  0  0
  -26.9568  -30.4250   21.3801 C   0  0  0  0  0  0  0  0  0  0  0  0
  -27.4439  -32.5919   28.2487 C   0  0  0  0  0  0  0  0  0  0  0  0
  -29.6651  -12.1710   18.6795 C   0  0  0  0  0  0  0  0  0  0  0  0
  -26.6204  -31.5299   27.5269 C   0  0  0  0  0  0  0  0  0  0  0  0
  -29.4491  -22.2641   19.5373 C   0  0  0  0  0  0  0  0  0  0  0  0
  -28.8069  -23.5397   18.9831 C   0  0  0  0  0  0  0  0  0  0  0  0
  -28.2400  -11.9063   19.1706 C   0  0  0  0  0  0  0  0  0  0  0  0
  -28.4582  -23.4793   21.3619 C   0  0  0  0  0  0  0  0  0  0  0  0
  -30.5382  -12.7812   19.7744 C   0  0  0  0  0  0  0  0  0  0  0  0
  -28.5592  -13.7172   20.9043 C   0  0  0  0  0  0  0  0  0  0  0  0
  -27.5263  -30.5327   26.7945 C   0  0  1  0  0  0  0  0  0  0  0  0
  -28.0229  -31.7519   23.2308 C   0  0  1  0  0  0  0  0  0  0  0  0
  -28.8637  -22.0699   20.9389 C   0  0  2  0  0  0  0  0  0  0  0  0
  -27.8632  -24.0478   20.0766 C   0  0  1  0  0  0  0  0  0  0  0  0
  -27.6243  -13.1627   19.8171 C   0  0  2  0  0  0  0  0  0  0  0  0
  -25.0561  -34.5727   16.6548 C   0  0  0  0  0  0  0  0  0  0  0  0
  -27.1570  -26.0771   18.7760 C   0  0  0  0  0  0  0  0  0  0  0  0
  -26.8580  -26.0232   21.2694 C   0  0  0  0  0  0  0  0  0  0  0  0
  -23.4613  -31.9047   22.5037 C   0  0  0  0  0  0  0  0  0  0  0  0
  -22.7580  -32.6262   20.2117 C   0  0  0  0  0  0  0  0  0  0  0  0
  -23.6506  -34.3048   21.8267 C   0  0  0  0  0  0  0  0  0  0  0  0
  -28.6378  -33.4206   17.2205 C   0  0  0  0  0  0  0  0  0  0  0  0
  -29.8307  -21.4100   21.9070 C   0  0  0  0  0  0  0  0  0  0  0  0
  -25.2312  -32.6369   20.7723 C   0  0  1  0  0  0  0  0  0  0  0  0
  -26.2772  -34.1950   17.4787 C   0  0  2  0  0  0  0  0  0  0  0  0
  -27.7284  -25.5697   20.0982 C   0  0  0  0  0  0  0  0  0  1  0  0
  -23.7962  -32.8492   21.3320 C   0  0  0  0  0  0  0  0  0  0  0  0
  -25.9369  -11.6711   20.8217 N   0  0  0  0  0  0  0  0  0  0  0  0
  -26.2289  -12.8949   20.3491 N   0  0  0  0  0  0  0  0  0  0  0  0
  -27.1123  -31.7082   22.0849 N   0  0  0  0  0  0  0  0  0  0  0  0
  -29.8934  -13.9695   20.3375 N   0  0  0  0  0  0  0  0  0  0  0  0
  -25.3090  -15.0463   19.9805 N   0  0  0  0  0  0  0  0  0  0  0  0
  -21.8758  -12.7425   21.7977 N   0  0  0  0  0  0  0  0  0  0  0  0
  -29.8414  -16.2737   20.8375 N   0  0  0  0  0  0  0  0  0  0  0  0
  -28.0239  -31.1109   25.5647 N   0  0  0  0  0  0  0  0  0  0  0  0
  -25.5855  -33.5362   19.6796 N   0  0  0  0  0  0  0  0  0  0  0  0
  -27.3685  -33.7957   16.5457 N   0  3  0  0  0  0  0  0  0  0  0  0
  -22.5108  -14.7751   20.9467 O   0  0  0  0  0  0  0  0  0  0  0  0
  -26.2048  -30.6013   24.2032 O   0  0  0  0  0  0  0  0  0  0  0  0
  -26.3983  -33.9049   22.4022 O   0  0  0  0  0  0  0  0  0  0  0  0
  -26.0473  -31.8785   18.1254 O   0  0  0  0  0  0  0  0  0  0  0  0
  -31.6904  -15.3238   19.8078 O   0  0  0  0  0  0  0  0  0  0  0  0
  -21.9765   -7.4128   23.4160 O   0  0  0  0  0  0  0  0  0  0  0  0
  -29.0282  -26.1386   20.2513 O   0  0  0  0  0  0  0  0  0  1  0  0
  -22.5884   -2.5176   20.9530 F   0  0  0  0  0  0  0  0  0  0  0  0
  -19.7936   -6.0518   22.4034 F   0  0  0  0  0  0  0  0  0  0  0  0
  -29.1462  -18.7256   21.6479 S   0  0  0  0  0  0  0  0  0  0  0  0
  1  2  1  0  0  0  0
  1  5  2  0  0  0  0
  2  6  2  0  0  0  0
  3  8  2  0  0  0  0
  3 17  1  0  0  0  0
  4  9  1  0  0  0  0
  4 17  2  0  0  0  0
  5 19  1  0  0  0  0
  6 21  1  0  0  0  0
  7 10  2  0  0  0  0
  7 20  1  0  0  0  0
  8 23  1  0  0  0  0
  9 23  2  0  0  0  0
 10 24  1  0  0  0  0
 11 12  2  0  0  0  0
 11 25  1  0  0  0  0
 12 26  1  0  0  0  0
 13 14  1  0  0  0  0
 13 29  2  0  0  0  0
 14 31  2  0  0  0  0
 15 22  1  0  0  0  0
 15 24  2  0  0  0  0
 16 26  2  0  0  0  0
 16 27  1  0  0  0  0
 17 28  1  0  0  0  0
 18 28  1  0  0  0  0
 18 30  2  0  0  0  0
 18 32  1  0  0  0  0
 19 21  2  0  0  0  0
 19 37  1  0  0  0  0
 20 22  2  0  0  0  0
 20 38  1  0  0  0  0
 21 49  1  0  0  0  0
 22 39  1  0  0  0  0
 23 81  1  0  0  0  0
 24 82  1  0  0  0  0
 25 27  2  0  0  0  0
 25 81  1  0  0  0  0
 26 83  1  0  0  0  0
 27 84  1  0  0  0  0
 28 66  2  0  0  0  0
 29 61  1  0  0  0  0
 29 85  1  0  0  0  0
 30 67  1  0  0  0  0
 30 70  1  0  0  0  0
 31 72  1  0  0  0  0
 31 85  1  0  0  0  0
 32 71  1  0  0  0  0
 32 76  2  0  0  0  0
 33 50  1  0  0  0  0
 33 73  1  0  0  0  0
 33 77  2  0  0  0  0
 34 62  1  0  0  0  0
 34 68  1  0  0  0  0
 34 78  2  0  0  0  0
 35 63  1  0  0  0  0
 35 74  1  0  0  0  0
 35 79  2  0  0  0  0
 36 69  1  0  0  0  0
 36 72  1  0  0  0  0
 36 80  2  0  0  0  0
 37 40  1  0  0  0  0
 38 50  1  0  0  0  0
 39 68  1  0  0  0  0
 40 42  1  0  0  0  0
 41 45  1  0  0  0  0
 41 47  1  0  0  0  0
 42 49  1  0  0  0  0
 43 44  1  0  0  0  0
 43 51  1  0  0  0  0
 44 52  1  0  0  0  0
 45 53  1  0  0  0  0
 46 51  1  0  0  0  0
 46 52  1  0  0  0  0
 47 69  1  0  0  0  0
 48 53  1  0  0  0  0
 48 69  1  0  0  0  0
 49 73  1  0  0  0  0
 50 68  1  0  0  0  0
 51 61  1  0  0  0  0
 52 64  1  0  0  0  0
 53 67  1  0  0  0  0
 54 63  1  0  0  0  0
 55 64  1  0  0  0  0
 56 64  1  0  0  0  0
 57 65  1  0  0  0  0
 58 65  1  0  0  0  0
 59 65  1  0  0  0  0
 60 75  1  0  0  0  0
 62 65  1  0  0  0  0
 62 74  1  0  0  0  0
 63 75  1  0  0  0  0
 64 82  1  0  0  0  0
 66 67  1  0  0  0  0
M  CHG  1  75   1
M  ISO  4  36 100  64 101  72 100  82 101
M  END
> <Batch ID>
0141

> <Smiles>
CNC(C)C(=O)NC(C(=O)N1Cc2cc([101O:1][101C:1](C)(C)C3CCC(Cc4ccc([100NH:0][100C:0](=O)N5CCCC(n6nc(-c7ccc(Oc8ccc(F)cc8F)cc7)c(C(N)=O)c6N)C5)s4)C3)ccc2CC1C(=O)NC1CCCc2ccccc21)C(C)(C)C

> <Shape>
0.302

> <Color>
0.167

> <Negative vol penalty>
0.000

$$$$
