
  -OEChem-04052302573D

 84 93  0     1  0  0  0  0  0999 V2000
  -25.1237  -35.4604   17.3053 C   0  0  0  0  0  0  0  0  0  0  0  0
  -25.9648  -34.3741   17.0865 C   0  0  0  0  0  0  0  0  0  0  0  0
  -24.2896   -9.4957   20.7376 C   0  0  0  0  0  0  0  0  0  0  0  0
  -24.5813  -10.2699   23.0076 C   0  0  0  0  0  0  0  0  0  0  0  0
  -24.6841  -35.7512   18.5961 C   0  0  0  0  0  0  0  0  0  0  0  0
  -26.3677  -33.5786   18.1585 C   0  0  0  0  0  0  0  0  0  0  0  0
  -27.0720  -20.8939   21.2185 C   0  0  0  0  0  0  0  0  0  0  0  0
  -27.3664  -27.5367   18.0885 C   0  0  0  0  0  0  0  0  0  0  0  0
  -27.3679  -19.5695   21.5508 C   0  0  0  0  0  0  0  0  0  0  0  0
  -23.9072   -8.2419   21.2143 C   0  0  0  0  0  0  0  0  0  0  0  0
  -24.1988   -9.0160   23.4843 C   0  0  0  0  0  0  0  0  0  0  0  0
  -28.5325  -26.7799   17.9823 C   0  0  0  0  0  0  0  0  0  0  0  0
  -22.5063   -4.9464   21.8411 C   0  0  0  0  0  0  0  0  0  0  0  0
  -21.3909   -4.3440   21.2593 C   0  0  0  0  0  0  0  0  0  0  0  0
  -29.2872  -19.5677   20.0474 C   0  0  0  0  0  0  0  0  0  0  0  0
  -28.6158  -26.5823   20.3851 C   0  0  0  0  0  0  0  0  0  0  0  0
  -20.0225   -6.2120   21.9487 C   0  0  0  0  0  0  0  0  0  0  0  0
  -24.6267  -10.5097   21.6342 C   0  0  0  0  0  0  0  0  0  0  0  0
  -24.1854  -12.9048   20.8751 C   0  0  0  0  0  0  0  0  0  0  0  0
  -25.0740  -34.9531   19.6831 C   0  0  0  0  0  0  0  0  0  0  0  0
  -27.8964  -21.5134   20.3089 C   0  0  0  0  0  0  0  0  0  0  0  0
  -26.8214  -27.8317   19.3465 C   0  0  0  0  0  0  0  0  0  0  0  0
  -25.9340  -33.8598   19.4652 C   0  0  0  0  0  0  0  0  0  0  0  0
  -28.9715  -20.8712   19.7421 C   0  0  0  0  0  0  0  0  0  0  0  0
  -27.4413  -27.3408   20.5044 C   0  0  0  0  0  0  0  0  0  0  0  0
  -28.4683  -18.9106   20.9691 C   0  0  0  0  0  0  0  0  0  0  0  0
  -23.8617   -8.0021   22.5877 C   0  0  0  0  0  0  0  0  0  0  0  0
  -29.1590  -26.3050   19.1308 C   0  0  0  0  0  0  0  0  0  0  0  0
  -22.3798   -6.1816   22.4768 C   0  0  0  0  0  0  0  0  0  0  0  0
  -20.1490   -4.9768   21.3131 C   0  0  0  0  0  0  0  0  0  0  0  0
  -21.1379   -6.8144   22.5306 C   0  0  0  0  0  0  0  0  0  0  0  0
  -25.0224  -11.8049   21.1424 C   0  0  0  0  0  0  0  0  0  0  0  0
  -25.0385  -13.8857   20.4318 C   0  0  0  0  0  0  0  0  0  0  0  0
  -22.7639  -13.0287   21.0150 C   0  0  0  0  0  0  0  0  0  0  0  0
  -26.2516  -30.5019   20.9741 C   0  0  0  0  0  0  0  0  0  0  0  0
  -24.8246  -28.4655   23.0571 C   0  0  0  0  0  0  0  0  0  0  0  0
  -24.5667  -25.2946   24.2922 C   0  0  0  0  0  0  0  0  0  0  0  0
  -29.7852  -16.7663   20.8490 C   0  0  0  0  0  0  0  0  0  0  0  0
  -24.6112  -35.3349   21.0669 C   0  0  0  0  0  0  0  0  0  0  0  0
  -28.1469  -22.7967   19.5718 C   0  0  0  0  0  0  0  0  0  0  0  0
  -25.5482  -28.6267   19.4427 C   0  0  0  0  0  0  0  0  0  0  0  0
  -26.8853  -27.6125   21.8775 C   0  0  0  0  0  0  0  0  0  0  0  0
  -24.7824  -34.2201   22.0956 C   0  0  0  0  0  0  0  0  0  0  0  0
  -29.9216  -13.6577   19.1185 C   0  0  0  0  0  0  0  0  0  0  0  0
  -26.1687  -33.5946   21.9793 C   0  0  0  0  0  0  0  0  0  0  0  0
  -28.5903  -12.9890   19.4687 C   0  0  0  0  0  0  0  0  0  0  0  0
  -30.4873  -14.4473   20.2976 C   0  0  0  0  0  0  0  0  0  0  0  0
  -28.2327  -14.7537   21.2422 C   0  0  0  0  0  0  0  0  0  0  0  0
  -29.3720  -22.0631   18.9127 C   0  0  1  0  0  0  0  0  0  0  0  0
  -26.3730  -32.9586   20.5989 C   0  0  1  0  0  0  0  0  0  0  0  0
  -25.3658  -29.3009   20.7991 C   0  0  1  0  0  0  0  0  0  0  0  0
  -27.5917  -14.0001   20.0654 C   0  0  2  0  0  0  0  0  0  0  0  0
  -23.3403  -23.9460   26.0169 C   0  0  0  0  0  0  0  0  0  0  0  0
  -26.5772  -29.6727   25.2437 C   0  0  0  0  0  0  0  0  0  0  0  0
  -26.0201  -27.7006   26.6821 C   0  0  0  0  0  0  0  0  0  0  0  0
  -24.2098  -29.2404   25.9242 C   0  0  0  0  0  0  0  0  0  0  0  0
  -32.7266  -24.0192   18.6227 C   0  0  0  0  0  0  0  0  0  0  0  0
  -31.5405  -22.7597   16.8237 C   0  0  0  0  0  0  0  0  0  0  0  0
  -23.3717  -23.5346   22.2345 C   0  0  0  0  0  0  0  0  0  0  0  0
  -30.7518  -22.6248   19.2429 C   0  0  0  0  0  0  0  0  0  0  0  0
  -30.4542  -24.7715   17.8555 C   0  0  0  0  0  0  0  0  0  1  0  0
  -25.2803  -27.6702   24.2567 C   0  0  1  0  0  0  0  0  0  0  0  0
  -23.3596  -24.4173   24.5711 C   0  0  2  0  0  0  0  0  0  0  0  0
  -25.5337  -28.5673   25.5010 C   0  0  0  0  0  0  0  0  0  0  0  0
  -31.3412  -23.5391   18.1360 C   0  0  0  0  0  0  0  0  0  0  0  0
  -26.3085  -12.0623   20.8899 N   0  0  0  0  0  0  0  0  0  0  0  0
  -26.2860  -13.3351   20.4592 N   0  0  0  0  0  0  0  0  0  0  0  0
  -25.6420  -28.3998   21.9198 N   0  0  0  0  0  0  0  0  0  0  0  0
  -29.4873  -15.3878   20.8078 N   0  0  0  0  0  0  0  0  0  0  0  0
  -24.8357  -15.1569   20.0251 N   0  0  0  0  0  0  0  0  0  0  0  0
  -22.0399  -11.9241   21.4840 N   0  0  0  0  0  0  0  0  0  0  0  0
  -28.7462  -17.5668   21.3225 N   0  0  0  0  0  0  0  0  0  0  0  0
  -25.6931  -31.6832   20.5245 N   0  0  0  0  0  0  0  0  0  0  0  0
  -24.2767  -26.6317   24.4631 N   0  0  0  0  0  0  0  0  0  0  0  0
  -23.3750  -23.2184   23.6861 N   0  3  0  0  0  0  0  0  0  0  0  0
  -22.1518  -14.0823   20.7169 O   0  0  0  0  0  0  0  0  0  0  0  0
  -27.3592  -30.3671   21.4808 O   0  0  0  0  0  0  0  0  0  0  0  0
  -23.7782  -29.1152   23.1243 O   0  0  0  0  0  0  0  0  0  0  0  0
  -25.6587  -24.8389   23.9597 O   0  0  0  0  0  0  0  0  0  0  0  0
  -30.8715  -17.2073   20.4651 O   0  0  0  0  0  0  0  0  0  0  0  0
  -23.4883   -6.7788   23.0532 O   0  0  0  0  0  0  0  0  0  0  0  0
  -30.2976  -25.5666   19.0300 O   0  0  0  0  0  0  0  0  0  1  0  0
  -19.0783   -4.3989   20.7530 F   0  0  0  0  0  0  0  0  0  0  0  0
  -21.0104   -8.0016   23.1388 F   0  0  0  0  0  0  0  0  0  0  0  0
  1  2  1  0  0  0  0
  1  5  2  0  0  0  0
  2  6  2  0  0  0  0
  3 10  2  0  0  0  0
  3 18  1  0  0  0  0
  4 11  1  0  0  0  0
  4 18  2  0  0  0  0
  5 20  1  0  0  0  0
  6 23  1  0  0  0  0
  7  9  2  0  0  0  0
  7 21  1  0  0  0  0
  8 12  2  0  0  0  0
  8 22  1  0  0  0  0
  9 26  1  0  0  0  0
 10 27  1  0  0  0  0
 11 27  2  0  0  0  0
 12 28  1  0  0  0  0
 13 14  2  0  0  0  0
 13 29  1  0  0  0  0
 14 30  1  0  0  0  0
 15 24  1  0  0  0  0
 15 26  2  0  0  0  0
 16 25  1  0  0  0  0
 16 28  2  0  0  0  0
 17 30  2  0  0  0  0
 17 31  1  0  0  0  0
 18 32  1  0  0  0  0
 19 32  1  0  0  0  0
 19 33  2  0  0  0  0
 19 34  1  0  0  0  0
 20 23  2  0  0  0  0
 20 39  1  0  0  0  0
 21 24  2  0  0  0  0
 21 40  1  0  0  0  0
 22 25  2  0  0  0  0
 22 41  1  0  0  0  0
 23 50  1  0  0  0  0
 24 49  1  0  0  0  0
 25 42  1  0  0  0  0
 26 72  1  0  0  0  0
 27 81  1  0  0  0  0
 28 82  1  0  0  0  0
 29 31  2  0  0  0  0
 29 81  1  0  0  0  0
 30 83  1  0  0  0  0
 31 84  1  0  0  0  0
 32 66  2  0  0  0  0
 33 67  1  0  0  0  0
 33 70  1  0  0  0  0
 34 71  1  0  0  0  0
 34 76  2  0  0  0  0
 35 51  1  0  0  0  0
 35 73  1  0  0  0  0
 35 77  2  0  0  0  0
 36 62  1  0  0  0  0
 36 68  1  0  0  0  0
 36 78  2  0  0  0  0
 37 63  1  0  0  0  0
 37 74  1  0  0  0  0
 37 79  2  0  0  0  0
 38 69  1  0  0  0  0
 38 72  1  0  0  0  0
 38 80  2  0  0  0  0
 39 43  1  0  0  0  0
 40 49  1  0  0  0  0
 41 51  1  0  0  0  0
 42 68  1  0  0  0  0
 43 45  1  0  0  0  0
 44 46  1  0  0  0  0
 44 47  1  0  0  0  0
 45 50  1  0  0  0  0
 46 52  1  0  0  0  0
 47 69  1  0  0  0  0
 48 52  1  0  0  0  0
 48 69  1  0  0  0  0
 49 60  1  0  0  0  0
 50 73  1  0  0  0  0
 51 68  1  0  0  0  0
 52 67  1  0  0  0  0
 53 63  1  0  0  0  0
 54 64  1  0  0  0  0
 55 64  1  0  0  0  0
 56 64  1  0  0  0  0
 57 65  1  0  0  0  0
 58 65  1  0  0  0  0
 59 75  1  0  0  0  0
 60 65  1  0  0  0  0
 61 65  1  0  0  0  0
 61 82  1  0  0  0  0
 62 64  1  0  0  0  0
 62 74  1  0  0  0  0
 63 75  1  0  0  0  0
 66 67  1  0  0  0  0
M  CHG  1  75   1
M  ISO  4  38 100  61 101  72 100  82 101
M  END
> <Batch ID>
0142

> <Smiles>
CNC(C)C(=O)NC(C(=O)N1Cc2cc([101O:1][101CH2:1]C(C)(C)CC3Cc4ccc([100NH:0][100C:0](=O)N5CCCC(n6nc(-c7ccc(Oc8ccc(F)cc8F)cc7)c(C(N)=O)c6N)C5)cc43)ccc2CC1C(=O)NC1CCCc2ccccc21)C(C)(C)C

> <Shape>
0.295

> <Color>
0.139

> <Negative vol penalty>
0.000

$$$$

  -OEChem-04052302573D

 85 93  0     1  0  0  0  0  0999 V2000
  -24.2117  -16.3290   23.7634 C   0  0  0  0  0  0  0  0  0  0  0  0
  -25.2118  -17.2527   23.4769 C   0  0  0  0  0  0  0  0  0  0  0  0
  -27.8078  -24.1061   18.5433 C   0  0  0  0  0  0  0  0  0  0  0  0
  -26.3944  -12.8831   20.8035 C   0  0  0  0  0  0  0  0  0  0  0  0
  -24.7071  -14.6061   20.9504 C   0  0  0  0  0  0  0  0  0  0  0  0
  -22.8836  -16.6244   23.4589 C   0  0  0  0  0  0  0  0  0  0  0  0
  -24.8844  -18.4719   22.8847 C   0  0  0  0  0  0  0  0  0  0  0  0
  -27.5856  -23.8811   23.8591 C   0  0  0  0  0  0  0  0  0  0  0  0
  -27.7701  -22.9918   19.3814 C   0  0  0  0  0  0  0  0  0  0  0  0
  -28.9831  -24.8473   18.4208 C   0  0  0  0  0  0  0  0  0  0  0  0
  -25.4996  -11.9606   21.3457 C   0  0  0  0  0  0  0  0  0  0  0  0
  -23.8123  -13.6836   21.4926 C   0  0  0  0  0  0  0  0  0  0  0  0
  -28.5592  -24.5844   23.1512 C   0  0  0  0  0  0  0  0  0  0  0  0
  -23.5442   -9.0674   22.3560 C   0  0  0  0  0  0  0  0  0  0  0  0
  -23.4620   -7.8123   21.7532 C   0  0  0  0  0  0  0  0  0  0  0  0
  -26.8305  -25.8520   22.0449 C   0  0  0  0  0  0  0  0  0  0  0  0
  -30.0830  -23.3597   19.9746 C   0  0  0  0  0  0  0  0  0  0  0  0
  -22.7960   -8.8531   19.6770 C   0  0  0  0  0  0  0  0  0  0  0  0
  -25.9981  -14.2059   20.6059 C   0  0  0  0  0  0  0  0  0  0  0  0
  -27.1115  -15.4613   18.6845 C   0  0  0  0  0  0  0  0  0  0  0  0
  -22.5386  -17.8518   22.8715 C   0  0  0  0  0  0  0  0  0  0  0  0
  -26.2244  -24.1509   23.6569 C   0  0  0  0  0  0  0  0  0  0  0  0
  -23.5505  -18.7834   22.5708 C   0  0  0  0  0  0  0  0  0  0  0  0
  -25.8417  -25.1525   22.7534 C   0  0  0  0  0  0  0  0  0  0  0  0
  -28.9077  -22.6186   20.0970 C   0  0  0  0  0  0  0  0  0  0  0  0
  -24.2086  -12.3608   21.6903 C   0  0  0  0  0  0  0  0  0  0  0  0
  -28.1817  -25.5680   22.2418 C   0  0  0  0  0  0  0  0  0  0  0  0
  -30.1207  -24.4741   19.1365 C   0  0  0  0  0  0  0  0  0  0  0  0
  -23.2523  -10.2154   21.6194 C   0  0  0  0  0  0  0  0  0  0  0  0
  -23.0879   -7.7051   20.4137 C   0  0  0  0  0  0  0  0  0  0  0  0
  -22.8782  -10.1083   20.2799 C   0  0  0  0  0  0  0  0  0  0  0  0
  -26.9221  -15.1594   20.0464 C   0  0  0  0  0  0  0  0  0  0  0  0
  -28.0920  -16.4231   18.6791 C   0  0  0  0  0  0  0  0  0  0  0  0
  -26.4594  -14.9207   17.5277 C   0  0  0  0  0  0  0  0  0  0  0  0
  -23.7370  -22.4735   22.6067 C   0  0  0  0  0  0  0  0  0  0  0  0
  -22.0822  -25.1308   23.4568 C   0  0  0  0  0  0  0  0  0  0  0  0
  -22.1035  -28.4923   24.0457 C   0  0  0  0  0  0  0  0  0  0  0  0
  -29.9080  -20.9800   21.7282 C   0  0  0  0  0  0  0  0  0  0  0  0
  -21.0949  -18.1067   22.5173 C   0  0  0  0  0  0  0  0  0  0  0  0
  -25.1873  -23.4019   24.4480 C   0  0  0  0  0  0  0  0  0  0  0  0
  -24.3944  -25.4944   22.5148 C   0  0  0  0  0  0  0  0  0  0  0  0
  -20.7874  -19.5748   22.2336 C   0  0  0  0  0  0  0  0  0  0  0  0
  -31.5942  -17.8473   21.8713 C   0  0  0  0  0  0  0  0  0  0  0  0
  -21.8416  -20.1715   21.3065 C   0  0  0  0  0  0  0  0  0  0  0  0
  -30.5810  -16.8631   21.2823 C   0  0  0  0  0  0  0  0  0  0  0  0
  -30.9134  -18.9294   22.7076 C   0  0  0  0  0  0  0  0  0  0  0  0
  -28.8189  -18.6681   21.4371 C   0  0  0  0  0  0  0  0  0  0  0  0
  -23.2322  -20.1269   21.9513 C   0  0  1  0  0  0  0  0  0  0  0  0
  -23.8136  -23.4033   23.7845 C   0  0  1  0  0  0  0  0  0  0  0  0
  -29.4517  -17.5974   20.5333 C   0  0  2  0  0  0  0  0  0  0  0  0
  -31.8410  -27.1495   17.0012 C   0  0  0  0  0  0  0  0  0  0  0  0
  -20.5914  -30.3893   24.6878 C   0  0  0  0  0  0  0  0  0  0  0  0
  -20.9276  -25.1631   20.6326 C   0  0  0  0  0  0  0  0  0  0  0  0
  -20.2132  -27.5300   21.0267 C   0  0  0  0  0  0  0  0  0  0  0  0
  -19.2819  -25.6965   22.4386 C   0  0  0  0  0  0  0  0  0  0  0  0
  -32.9023  -26.3200   21.2684 C   0  0  0  0  0  0  0  0  0  0  0  0
  -31.3095  -28.2414   21.2957 C   0  0  0  0  0  0  0  0  0  0  0  0
  -23.6525  -29.0473   26.5057 C   0  0  0  0  0  0  0  0  0  0  0  0
  -32.1382  -27.3835   18.4786 C   0  0  0  0  0  0  0  0  0  0  0  0
  -30.4928  -25.9176   21.8033 C   0  0  0  0  0  0  0  0  0  1  0  0
  -21.6854  -26.4110   22.7620 C   0  0  1  0  0  0  0  0  0  0  0  0
  -21.5459  -29.3177   25.1912 C   0  0  2  0  0  0  0  0  0  0  0  0
  -31.1996  -26.5780   19.3925 C   0  0  2  0  0  0  0  0  0  0  0  0
  -20.5543  -26.1926   21.7178 C   0  0  0  0  0  0  0  0  0  0  0  0
  -31.4604  -26.7473   20.9260 C   0  0  0  0  0  0  0  0  0  0  0  0
  -27.7185  -15.8716   20.8480 N   0  0  0  0  0  0  0  0  0  0  0  0
  -28.4179  -16.6305   19.9871 N   0  0  0  0  0  0  0  0  0  0  0  0
  -23.4175  -24.7299   23.3077 N   0  0  0  0  0  0  0  0  0  0  0  0
  -29.8581  -19.5847   21.9319 N   0  0  0  0  0  0  0  0  0  0  0  0
  -28.6987  -17.1031   17.6831 N   0  0  0  0  0  0  0  0  0  0  0  0
  -25.4752  -13.9401   17.7126 N   0  0  0  0  0  0  0  0  0  0  0  0
  -28.8690  -21.4863   20.9481 N   0  0  0  0  0  0  0  0  0  0  0  0
  -23.3685  -21.1821   22.9323 N   0  0  0  0  0  0  0  0  0  0  0  0
  -21.3493  -27.3608   23.8172 N   0  0  0  0  0  0  0  0  0  0  0  0
  -22.6515  -29.9851   25.9350 N   0  3  0  0  0  0  0  0  0  0  0  0
  -26.7526  -15.2843   16.3635 O   0  0  0  0  0  0  0  0  0  0  0  0
  -23.9919  -22.8967   21.4853 O   0  0  0  0  0  0  0  0  0  0  0  0
  -21.2403  -24.5132   24.1135 O   0  0  0  0  0  0  0  0  0  0  0  0
  -23.1055  -28.8205   23.4143 O   0  0  0  0  0  0  0  0  0  0  0  0
  -30.8212  -21.6706   22.1877 O   0  0  0  0  0  0  0  0  0  0  0  0
  -23.3351  -11.4609   22.2191 O   0  0  0  0  0  0  0  0  0  0  0  0
  -29.1299  -26.2555   21.5490 O   0  0  0  0  0  0  0  0  0  1  0  0
  -31.2724  -25.2002   19.0167 O   0  0  0  0  0  0  0  0  0  0  0  0
  -23.0105   -6.4998   19.8345 F   0  0  0  0  0  0  0  0  0  0  0  0
  -22.5977  -11.2076   19.5668 F   0  0  0  0  0  0  0  0  0  0  0  0
  1  2  1  0  0  0  0
  1  6  2  0  0  0  0
  2  7  2  0  0  0  0
  3  9  1  0  0  0  0
  3 10  2  0  0  0  0
  4 11  2  0  0  0  0
  4 19  1  0  0  0  0
  5 12  1  0  0  0  0
  5 19  2  0  0  0  0
  6 21  1  0  0  0  0
  7 23  1  0  0  0  0
  8 13  2  0  0  0  0
  8 22  1  0  0  0  0
  9 25  2  0  0  0  0
 10 28  1  0  0  0  0
 11 26  1  0  0  0  0
 12 26  2  0  0  0  0
 13 27  1  0  0  0  0
 14 15  2  0  0  0  0
 14 29  1  0  0  0  0
 15 30  1  0  0  0  0
 16 24  1  0  0  0  0
 16 27  2  0  0  0  0
 17 25  1  0  0  0  0
 17 28  2  0  0  0  0
 18 30  2  0  0  0  0
 18 31  1  0  0  0  0
 19 32  1  0  0  0  0
 20 32  1  0  0  0  0
 20 33  2  0  0  0  0
 20 34  1  0  0  0  0
 21 23  2  0  0  0  0
 21 39  1  0  0  0  0
 22 24  2  0  0  0  0
 22 40  1  0  0  0  0
 23 48  1  0  0  0  0
 24 41  1  0  0  0  0
 25 72  1  0  0  0  0
 26 81  1  0  0  0  0
 27 82  1  0  0  0  0
 28 83  1  0  0  0  0
 29 31  2  0  0  0  0
 29 81  1  0  0  0  0
 30 84  1  0  0  0  0
 31 85  1  0  0  0  0
 32 66  2  0  0  0  0
 33 67  1  0  0  0  0
 33 70  1  0  0  0  0
 34 71  1  0  0  0  0
 34 76  2  0  0  0  0
 35 49  1  0  0  0  0
 35 73  1  0  0  0  0
 35 77  2  0  0  0  0
 36 61  1  0  0  0  0
 36 68  1  0  0  0  0
 36 78  2  0  0  0  0
 37 62  1  0  0  0  0
 37 74  1  0  0  0  0
 37 79  2  0  0  0  0
 38 69  1  0  0  0  0
 38 72  1  0  0  0  0
 38 80  2  0  0  0  0
 39 42  1  0  0  0  0
 40 49  1  0  0  0  0
 41 68  1  0  0  0  0
 42 44  1  0  0  0  0
 43 45  1  0  0  0  0
 43 46  1  0  0  0  0
 44 48  1  0  0  0  0
 45 50  1  0  0  0  0
 46 69  1  0  0  0  0
 47 50  1  0  0  0  0
 47 69  1  0  0  0  0
 48 73  1  0  0  0  0
 49 68  1  0  0  0  0
 50 67  1  0  0  0  0
 51 59  1  0  0  0  0
 52 62  1  0  0  0  0
 53 64  1  0  0  0  0
 54 64  1  0  0  0  0
 55 64  1  0  0  0  0
 56 65  1  0  0  0  0
 57 65  1  0  0  0  0
 58 75  1  0  0  0  0
 59 63  1  0  0  0  0
 60 65  1  0  0  0  0
 60 82  1  0  0  0  0
 61 64  1  0  0  0  0
 61 74  1  0  0  0  0
 62 75  1  0  0  0  0
 63 65  1  0  0  0  0
 63 83  1  0  0  0  0
 66 67  1  0  0  0  0
M  CHG  1  75   1
M  ISO  4  38 100  60 101  72 100  82 101
M  END
> <Batch ID>
0142

> <Smiles>
CCC(Oc1cccc([100NH:0][100C:0](=O)N2CCCC(n3nc(-c4ccc(Oc5ccc(F)cc5F)cc4)c(C(N)=O)c3N)C2)c1)C(C)(C)[101CH2:1][101O:1]c1ccc2c(c1)CN(C(=O)C(NC(=O)C(C)NC)C(C)(C)C)C(C(=O)NC1CCCc3ccccc31)C2

> <Shape>
0.212

> <Color>
0.055

> <Negative vol penalty>
0.000

$$$$

  -OEChem-04052302573D

 86 95  0     1  0  0  0  0  0999 V2000
  -29.4103  -23.9889   18.3704 C   0  0  0  0  0  0  0  0  0  0  0  0
  -28.0378  -24.2101   18.4222 C   0  0  0  0  0  0  0  0  0  0  0  0
  -25.9740  -13.1980   22.3355 C   0  0  0  0  0  0  0  0  0  0  0  0
  -25.5455  -14.4943   20.3422 C   0  0  0  0  0  0  0  0  0  0  0  0
  -30.2340  -24.4867   19.3792 C   0  0  0  0  0  0  0  0  0  0  0  0
  -27.4880  -24.9283   19.4835 C   0  0  0  0  0  0  0  0  0  0  0  0
  -21.5896  -22.7167   19.8675 C   0  0  0  0  0  0  0  0  0  0  0  0
  -22.6863  -28.7232   19.2649 C   0  0  0  0  0  0  0  0  0  0  0  0
  -22.4336  -21.9912   20.7121 C   0  0  0  0  0  0  0  0  0  0  0  0
  -25.5801  -12.0392   21.6666 C   0  0  0  0  0  0  0  0  0  0  0  0
  -25.1516  -13.3354   19.6733 C   0  0  0  0  0  0  0  0  0  0  0  0
  -21.3403  -28.5524   19.5859 C   0  0  0  0  0  0  0  0  0  0  0  0
  -22.6847  -10.5412   20.7737 C   0  0  0  0  0  0  0  0  0  0  0  0
  -21.8325   -9.6644   21.4448 C   0  0  0  0  0  0  0  0  0  0  0  0
  -21.0282  -22.5006   22.6381 C   0  0  0  0  0  0  0  0  0  0  0  0
  -21.7491  -29.4878   21.7715 C   0  0  0  0  0  0  0  0  0  0  0  0
  -23.4896   -7.9155   21.2643 C   0  0  0  0  0  0  0  0  0  0  0  0
  -25.9566  -14.4256   21.6733 C   0  0  0  0  0  0  0  0  0  0  0  0
  -27.6606  -16.1640   22.4364 C   0  0  0  0  0  0  0  0  0  0  0  0
  -29.6952  -25.2197   20.4484 C   0  0  0  0  0  0  0  0  0  0  0  0
  -20.4891  -23.3123   20.4375 C   0  0  0  0  0  0  0  0  0  0  0  0
  -23.5774  -29.2685   20.2002 C   0  0  0  0  0  0  0  0  0  0  0  0
  -28.3051  -25.4353   20.5082 C   0  0  0  0  0  0  0  0  0  0  0  0
  -20.2161  -23.2079   21.7815 C   0  0  0  0  0  0  0  0  0  0  0  0
  -23.1053  -29.6669   21.4590 C   0  0  0  0  0  0  0  0  0  0  0  0
  -22.1548  -21.8838   22.0885 C   0  0  0  0  0  0  0  0  0  0  0  0
  -25.1689  -12.1078   20.3355 C   0  0  0  0  0  0  0  0  0  0  0  0
  -20.8721  -28.9320   20.8404 C   0  0  0  0  0  0  0  0  0  0  0  0
  -23.9394  -10.1052   20.3478 C   0  0  0  0  0  0  0  0  0  0  0  0
  -22.2349   -8.3516   21.6901 C   0  0  0  0  0  0  0  0  0  0  0  0
  -24.3419   -8.7924   20.5932 C   0  0  0  0  0  0  0  0  0  0  0  0
  -26.3629  -15.6232   22.3640 C   0  0  0  0  0  0  0  0  0  0  0  0
  -27.5187  -17.2956   23.2018 C   0  0  0  0  0  0  0  0  0  0  0  0
  -28.8848  -15.6862   21.8631 C   0  0  0  0  0  0  0  0  0  0  0  0
  -26.1874  -28.2252   21.6847 C   0  0  0  0  0  0  0  0  0  0  0  0
  -26.3153  -31.2780   22.7739 C   0  0  0  0  0  0  0  0  0  0  0  0
  -24.6539  -34.1744   23.4796 C   0  0  0  0  0  0  0  0  0  0  0  0
  -22.9048  -20.9313   24.2967 C   0  0  0  0  0  0  0  0  0  0  0  0
  -30.6198  -25.6973   21.5401 C   0  0  0  0  0  0  0  0  0  0  0  0
  -25.0209  -29.4709   19.8290 C   0  0  0  0  0  0  0  0  0  0  0  0
  -19.2802  -24.1576   20.1520 C   0  0  0  0  0  0  0  0  0  0  0  0
  -24.0171  -30.2760   22.4916 C   0  0  0  0  0  0  0  0  0  0  0  0
  -30.0031  -26.7695   22.4347 C   0  0  0  0  0  0  0  0  0  0  0  0
  -24.8174  -19.1342   26.7028 C   0  0  0  0  0  0  0  0  0  0  0  0
  -28.5912  -26.3699   22.8514 C   0  0  0  0  0  0  0  0  0  0  0  0
  -25.5536  -18.0830   25.8690 C   0  0  0  0  0  0  0  0  0  0  0  0
  -23.4052  -19.3870   26.1782 C   0  0  0  0  0  0  0  0  0  0  0  0
  -24.0594  -18.6648   23.9155 C   0  0  0  0  0  0  0  0  0  0  0  0
  -27.6741  -26.2309   21.6303 C   0  0  1  0  0  0  0  0  0  0  0  0
  -25.9427  -29.5608   21.0413 C   0  0  1  0  0  0  0  0  0  0  0  0
  -25.5093  -18.4234   24.3664 C   0  0  2  0  0  0  0  0  0  0  0  0
  -18.9592  -24.0425   21.6953 C   0  0  1  0  0  0  0  0  0  0  0  0
  -17.6900  -23.2632   22.0243 C   0  0  0  0  0  0  0  0  0  0  0  0
  -25.0196  -36.4822   24.3947 C   0  0  0  0  0  0  0  0  0  0  0  0
  -26.4672  -30.1318   25.5975 C   0  0  0  0  0  0  0  0  0  0  0  0
  -25.8758  -32.4007   26.4754 C   0  0  0  0  0  0  0  0  0  0  0  0
  -27.9820  -32.0771   25.1785 C   0  0  0  0  0  0  0  0  0  0  0  0
  -17.6455  -27.5045   24.1614 C   0  0  0  0  0  0  0  0  0  0  0  0
  -16.7764  -28.5187   22.0507 C   0  0  0  0  0  0  0  0  0  0  0  0
  -23.7741  -35.4410   20.9536 C   0  0  0  0  0  0  0  0  0  0  0  0
  -19.0503  -25.3580   22.4637 C   0  0  0  0  0  0  0  0  0  0  0  0
  -18.0195  -26.3530   21.9207 C   0  0  0  0  0  0  0  0  0  0  0  0
  -19.2461  -28.5300   22.5287 C   0  0  0  0  0  0  0  0  0  1  0  0
  -25.7610  -32.0096   23.9724 C   0  0  1  0  0  0  0  0  0  0  0  0
  -24.9643  -35.6215   23.1421 C   0  0  2  0  0  0  0  0  0  0  0  0
  -26.5044  -31.6416   25.2874 C   0  0  0  0  0  0  0  0  0  0  0  0
  -17.9423  -27.7147   22.6659 C   0  0  0  0  0  0  0  0  0  0  0  0
  -25.4629  -16.3512   23.0303 N   0  0  0  0  0  0  0  0  0  0  0  0
  -26.1962  -17.3611   23.5288 N   0  0  0  0  0  0  0  0  0  0  0  0
  -25.4212  -30.4476   22.0833 N   0  0  0  0  0  0  0  0  0  0  0  0
  -23.4419  -19.7077   24.7497 N   0  0  0  0  0  0  0  0  0  0  0  0
  -28.3974  -18.2311   23.6203 N   0  0  0  0  0  0  0  0  0  0  0  0
  -28.8523  -14.5080   21.1048 N   0  0  0  0  0  0  0  0  0  0  0  0
  -23.0258  -21.1409   22.9234 N   0  0  0  0  0  0  0  0  0  0  0  0
  -27.2617  -27.5349   21.1569 N   0  0  0  0  0  0  0  0  0  0  0  0
  -25.8032  -33.4294   23.6394 N   0  0  0  0  0  0  0  0  0  0  0  0
  -23.9202  -36.1774   22.2356 N   0  3  0  0  0  0  0  0  0  0  0  0
  -29.9781  -16.2775   22.0323 O   0  0  0  0  0  0  0  0  0  0  0  0
  -25.4565  -27.8495   22.5937 O   0  0  0  0  0  0  0  0  0  0  0  0
  -27.4962  -31.4430   22.4577 O   0  0  0  0  0  0  0  0  0  0  0  0
  -23.5068  -33.7483   23.5939 O   0  0  0  0  0  0  0  0  0  0  0  0
  -22.4009  -21.7461   25.0740 O   0  0  0  0  0  0  0  0  0  0  0  0
  -24.7848  -10.9771   19.6824 O   0  0  0  0  0  0  0  0  0  0  0  0
  -19.5590  -28.7658   21.1565 O   0  0  0  0  0  0  0  0  0  1  0  0
  -21.4169   -7.5101   22.3360 F   0  0  0  0  0  0  0  0  0  0  0  0
  -25.5465   -8.3681   20.1875 F   0  0  0  0  0  0  0  0  0  0  0  0
  1  2  1  0  0  0  0
  1  5  2  0  0  0  0
  2  6  2  0  0  0  0
  3 10  2  0  0  0  0
  3 18  1  0  0  0  0
  4 11  1  0  0  0  0
  4 18  2  0  0  0  0
  5 20  1  0  0  0  0
  6 23  1  0  0  0  0
  7  9  2  0  0  0  0
  7 21  1  0  0  0  0
  8 12  2  0  0  0  0
  8 22  1  0  0  0  0
  9 26  1  0  0  0  0
 10 27  1  0  0  0  0
 11 27  2  0  0  0  0
 12 28  1  0  0  0  0
 13 14  2  0  0  0  0
 13 29  1  0  0  0  0
 14 30  1  0  0  0  0
 15 24  1  0  0  0  0
 15 26  2  0  0  0  0
 16 25  1  0  0  0  0
 16 28  2  0  0  0  0
 17 30  2  0  0  0  0
 17 31  1  0  0  0  0
 18 32  1  0  0  0  0
 19 32  1  0  0  0  0
 19 33  2  0  0  0  0
 19 34  1  0  0  0  0
 20 23  2  0  0  0  0
 20 39  1  0  0  0  0
 21 24  2  0  0  0  0
 21 41  1  0  0  0  0
 22 25  2  0  0  0  0
 22 40  1  0  0  0  0
 23 49  1  0  0  0  0
 24 52  1  0  0  0  0
 25 42  1  0  0  0  0
 26 74  1  0  0  0  0
 27 83  1  0  0  0  0
 28 84  1  0  0  0  0
 29 31  2  0  0  0  0
 29 83  1  0  0  0  0
 30 85  1  0  0  0  0
 31 86  1  0  0  0  0
 32 68  2  0  0  0  0
 33 69  1  0  0  0  0
 33 72  1  0  0  0  0
 34 73  1  0  0  0  0
 34 78  2  0  0  0  0
 35 50  1  0  0  0  0
 35 75  1  0  0  0  0
 35 79  2  0  0  0  0
 36 64  1  0  0  0  0
 36 70  1  0  0  0  0
 36 80  2  0  0  0  0
 37 65  1  0  0  0  0
 37 76  1  0  0  0  0
 37 81  2  0  0  0  0
 38 71  1  0  0  0  0
 38 74  1  0  0  0  0
 38 82  2  0  0  0  0
 39 43  1  0  0  0  0
 40 50  1  0  0  0  0
 41 52  1  0  0  0  0
 42 70  1  0  0  0  0
 43 45  1  0  0  0  0
 44 46  1  0  0  0  0
 44 47  1  0  0  0  0
 45 49  1  0  0  0  0
 46 51  1  0  0  0  0
 47 71  1  0  0  0  0
 48 51  1  0  0  0  0
 48 71  1  0  0  0  0
 49 75  1  0  0  0  0
 50 70  1  0  0  0  0
 51 69  1  0  0  0  0
 52 53  1  0  0  0  0
 52 61  1  0  0  0  0
 54 65  1  0  0  0  0
 55 66  1  0  0  0  0
 56 66  1  0  0  0  0
 57 66  1  0  0  0  0
 58 67  1  0  0  0  0
 59 67  1  0  0  0  0
 60 77  1  0  0  0  0
 61 62  1  0  0  0  0
 62 67  1  0  0  0  0
 63 67  1  0  0  0  0
 63 84  1  0  0  0  0
 64 66  1  0  0  0  0
 64 76  1  0  0  0  0
 65 77  1  0  0  0  0
 68 69  1  0  0  0  0
M  CHG  1  77   1
M  ISO  4  38 100  63 101  74 100  84 101
M  END
> <Batch ID>
0142

> <Smiles>
CNC(C)C(=O)NC(C(=O)N1Cc2cc([101O:1][101CH2:1]C(C)(C)CCC3(C)Cc4ccc([100NH:0][100C:0](=O)N5CCCC(n6nc(-c7ccc(Oc8ccc(F)cc8F)cc7)c(C(N)=O)c6N)C5)cc43)ccc2CC1C(=O)NC1CCCc2ccccc21)C(C)(C)C

> <Shape>
0.278

> <Color>
0.076

> <Negative vol penalty>
0.000

$$$$

  -OEChem-04052302573D

 82 91  0     1  0  0  0  0  0999 V2000
  -19.8543  -27.2482   26.5201 C   0  0  0  0  0  0  0  0  0  0  0  0
  -21.0256  -26.7402   25.9676 C   0  0  0  0  0  0  0  0  0  0  0  0
  -23.0778  -10.1796   20.1796 C   0  0  0  0  0  0  0  0  0  0  0  0
  -24.1463   -9.7140   22.2959 C   0  0  0  0  0  0  0  0  0  0  0  0
  -18.8746  -27.7950   25.6923 C   0  0  0  0  0  0  0  0  0  0  0  0
  -21.2175  -26.7776   24.5870 C   0  0  0  0  0  0  0  0  0  0  0  0
  -30.4886  -19.8493   15.9691 C   0  0  0  0  0  0  0  0  0  0  0  0
  -26.5146  -27.6067   21.6274 C   0  0  0  0  0  0  0  0  0  0  0  0
  -29.8554  -21.1000   16.0056 C   0  0  0  0  0  0  0  0  0  0  0  0
  -22.6583   -8.8518   20.0992 C   0  0  0  0  0  0  0  0  0  0  0  0
  -23.7268   -8.3861   22.2155 C   0  0  0  0  0  0  0  0  0  0  0  0
  -27.4067  -26.7151   21.0334 C   0  0  0  0  0  0  0  0  0  0  0  0
  -20.8868   -6.6360   22.7556 C   0  0  0  0  0  0  0  0  0  0  0  0
  -20.3395   -6.0603   23.9022 C   0  0  0  0  0  0  0  0  0  0  0  0
  -26.3605  -27.1027   18.8946 C   0  0  0  0  0  0  0  0  0  0  0  0
  -28.0033  -20.2219   17.3457 C   0  0  0  0  0  0  0  0  0  0  0  0
  -22.0805   -4.3851   23.8920 C   0  0  0  0  0  0  0  0  0  0  0  0
  -23.8219  -10.6107   21.2779 C   0  0  0  0  0  0  0  0  0  0  0  0
  -23.5640  -13.0587   21.9477 C   0  0  0  0  0  0  0  0  0  0  0  0
  -19.0587  -27.8480   24.3017 C   0  0  0  0  0  0  0  0  0  0  0  0
  -25.5301  -28.2459   20.8602 C   0  0  0  0  0  0  0  0  0  0  0  0
  -20.2388  -27.3244   23.7398 C   0  0  0  0  0  0  0  0  0  0  0  0
  -29.8623  -18.8239   16.6237 C   0  0  0  0  0  0  0  0  0  0  0  0
  -25.4588  -28.0040   19.4809 C   0  0  0  0  0  0  0  0  0  0  0  0
  -28.6258  -21.2830   16.6857 C   0  0  0  0  0  0  0  0  0  0  0  0
  -28.6760  -19.0351   17.2826 C   0  0  0  0  0  0  0  0  0  0  0  0
  -22.9828   -7.9550   21.1172 C   0  0  0  0  0  0  0  0  0  0  0  0
  -27.3279  -26.4608   19.6673 C   0  0  0  0  0  0  0  0  0  0  0  0
  -22.0308   -6.0862   22.1771 C   0  0  0  0  0  0  0  0  0  0  0  0
  -20.9364   -4.9349   24.4704 C   0  0  0  0  0  0  0  0  0  0  0  0
  -22.6277   -4.9608   22.7454 C   0  0  0  0  0  0  0  0  0  0  0  0
  -24.2560  -11.9821   21.3612 C   0  0  0  0  0  0  0  0  0  0  0  0
  -24.3932  -14.1387   21.7676 C   0  0  0  0  0  0  0  0  0  0  0  0
  -22.2860  -13.0805   22.5973 C   0  0  0  0  0  0  0  0  0  0  0  0
  -22.3516  -28.2712   20.8601 C   0  0  0  0  0  0  0  0  0  0  0  0
  -28.4130  -23.5108   17.8611 C   0  0  0  0  0  0  0  0  0  0  0  0
  -22.7582  -30.5667   18.6045 C   0  0  0  0  0  0  0  0  0  0  0  0
  -24.7545  -31.9531   16.2088 C   0  0  0  0  0  0  0  0  0  0  0  0
  -27.4996  -17.0858   18.2584 C   0  0  0  0  0  0  0  0  0  0  0  0
  -17.9509  -28.4056   23.4434 C   0  0  0  0  0  0  0  0  0  0  0  0
  -24.5925  -29.2253   21.5113 C   0  0  0  0  0  0  0  0  0  0  0  0
  -29.8484  -17.3752   17.0178 C   0  0  0  0  0  0  0  0  0  0  0  0
  -24.4331  -28.6799   18.6092 C   0  0  0  0  0  0  0  0  0  0  0  0
  -18.3941  -28.7477   22.0233 C   0  0  0  0  0  0  0  0  0  0  0  0
  -29.1827  -14.4262   20.2730 C   0  0  0  0  0  0  0  0  0  0  0  0
  -19.2186  -27.6085   21.4323 C   0  0  0  0  0  0  0  0  0  0  0  0
  -27.9808  -13.5924   20.6962 C   0  0  0  0  0  0  0  0  0  0  0  0
  -28.9768  -15.1060   18.9193 C   0  0  0  0  0  0  0  0  0  0  0  0
  -26.5182  -15.0664   19.2757 C   0  0  0  0  0  0  0  0  0  0  0  0
  -20.4944  -27.3696   22.2489 C   0  0  1  0  0  0  0  0  0  0  0  0
  -23.3005  -29.4283   20.7257 C   0  0  1  0  0  0  0  0  0  0  0  0
  -26.7089  -14.4491   20.6675 C   0  0  1  0  0  0  0  0  0  0  0  0
  -24.7991  -33.7965   14.5067 C   0  0  0  0  0  0  0  0  0  0  0  0
  -20.9256  -28.9340   16.7918 C   0  0  0  0  0  0  0  0  0  0  0  0
  -21.7566  -30.2830   14.8534 C   0  0  0  0  0  0  0  0  0  0  0  0
  -20.5356  -31.4032   16.7180 C   0  0  0  0  0  0  0  0  0  0  0  0
  -27.0826  -33.2462   17.4998 C   0  0  0  0  0  0  0  0  0  0  0  0
  -27.9871  -22.6324   16.6920 C   0  0  0  0  0  0  0  0  0  0  0  0
  -27.7457  -24.8696   17.9499 C   0  0  0  0  0  0  0  0  0  1  0  0
  -22.8938  -30.5760   17.1010 C   0  0  1  0  0  0  0  0  0  0  0  0
  -25.1437  -33.3941   15.9322 C   0  0  2  0  0  0  0  0  0  0  0  0
  -21.5461  -30.2847   16.3825 C   0  0  0  0  0  0  0  0  0  0  0  0
  -25.4340  -12.3452   20.8469 N   0  0  0  0  0  0  0  0  0  0  0  0
  -25.4886  -13.6620   21.1096 N   0  0  0  0  0  0  0  0  0  0  0  0
  -28.5722  -17.7178   17.6784 N   0  0  0  0  0  0  0  0  0  0  0  0
  -23.5347  -29.6244   19.2936 N   0  0  0  0  0  0  0  0  0  0  0  0
  -27.6986  -15.8200   18.8289 N   0  0  0  0  0  0  0  0  0  0  0  0
  -24.2849  -15.4402   22.1095 N   0  0  0  0  0  0  0  0  0  0  0  0
  -21.5663  -11.8819   22.6961 N   0  0  0  0  0  0  0  0  0  0  0  0
  -21.4901  -28.3721   21.9358 N   0  0  0  0  0  0  0  0  0  0  0  0
  -23.4909  -31.8609   16.7530 N   0  0  0  0  0  0  0  0  0  0  0  0
  -26.6083  -33.5827   16.1328 N   0  3  0  0  0  0  0  0  0  0  0  0
  -21.7895  -14.1348   23.0613 O   0  0  0  0  0  0  0  0  0  0  0  0
  -22.3966  -27.3553   20.0471 O   0  0  0  0  0  0  0  0  0  0  0  0
  -29.2485  -23.1468   18.6876 O   0  0  0  0  0  0  0  0  0  0  0  0
  -21.9968  -31.3707   19.1480 O   0  0  0  0  0  0  0  0  0  0  0  0
  -25.4956  -31.0040   15.9630 O   0  0  0  0  0  0  0  0  0  0  0  0
  -26.3749  -17.6055   18.2312 O   0  0  0  0  0  0  0  0  0  0  0  0
  -22.5734   -6.6593   21.0392 O   0  0  0  0  0  0  0  0  0  0  0  0
  -28.2060  -25.5814   19.0790 O   0  0  0  0  0  0  0  0  0  1  0  0
  -20.4117   -4.3831   25.5724 F   0  0  0  0  0  0  0  0  0  0  0  0
  -23.7276   -4.4289   22.1948 F   0  0  0  0  0  0  0  0  0  0  0  0
  1  2  1  0  0  0  0
  1  5  2  0  0  0  0
  2  6  2  0  0  0  0
  3 10  2  0  0  0  0
  3 18  1  0  0  0  0
  4 11  1  0  0  0  0
  4 18  2  0  0  0  0
  5 20  1  0  0  0  0
  6 22  1  0  0  0  0
  7  9  2  0  0  0  0
  7 23  1  0  0  0  0
  8 12  2  0  0  0  0
  8 21  1  0  0  0  0
  9 25  1  0  0  0  0
 10 27  1  0  0  0  0
 11 27  2  0  0  0  0
 12 28  1  0  0  0  0
 13 14  2  0  0  0  0
 13 29  1  0  0  0  0
 14 30  1  0  0  0  0
 15 24  1  0  0  0  0
 15 28  2  0  0  0  0
 16 25  2  0  0  0  0
 16 26  1  0  0  0  0
 17 30  2  0  0  0  0
 17 31  1  0  0  0  0
 18 32  1  0  0  0  0
 19 32  1  0  0  0  0
 19 33  2  0  0  0  0
 19 34  1  0  0  0  0
 20 22  2  0  0  0  0
 20 40  1  0  0  0  0
 21 24  2  0  0  0  0
 21 41  1  0  0  0  0
 22 50  1  0  0  0  0
 23 26  2  0  0  0  0
 23 42  1  0  0  0  0
 24 43  1  0  0  0  0
 25 58  1  0  0  0  0
 26 65  1  0  0  0  0
 27 79  1  0  0  0  0
 28 80  1  0  0  0  0
 29 31  2  0  0  0  0
 29 79  1  0  0  0  0
 30 81  1  0  0  0  0
 31 82  1  0  0  0  0
 32 63  2  0  0  0  0
 33 64  1  0  0  0  0
 33 68  1  0  0  0  0
 34 69  1  0  0  0  0
 34 73  2  0  0  0  0
 35 51  1  0  0  0  0
 35 70  1  0  0  0  0
 35 74  2  0  0  0  0
 36 58  1  0  0  0  0
 36 59  1  0  0  0  0
 36 75  2  0  0  0  0
 37 60  1  0  0  0  0
 37 66  1  0  0  0  0
 37 76  2  0  0  0  0
 38 61  1  0  0  0  0
 38 71  1  0  0  0  0
 38 77  2  0  0  0  0
 39 65  1  0  0  0  0
 39 67  1  0  0  0  0
 39 78  2  0  0  0  0
 40 44  1  0  0  0  0
 41 51  1  0  0  0  0
 42 65  1  0  0  0  0
 43 66  1  0  0  0  0
 44 46  1  0  0  0  0
 45 47  1  0  0  0  0
 45 48  1  0  0  0  0
 46 50  1  0  0  0  0
 47 52  1  0  0  0  0
 48 67  1  0  0  0  0
 49 52  1  0  0  0  0
 49 67  1  0  0  0  0
 50 70  1  0  0  0  0
 51 66  1  0  0  0  0
 52 64  1  0  0  0  0
 53 61  1  0  0  0  0
 54 62  1  0  0  0  0
 55 62  1  0  0  0  0
 56 62  1  0  0  0  0
 57 72  1  0  0  0  0
 59 80  1  0  0  0  0
 60 62  1  0  0  0  0
 60 71  1  0  0  0  0
 61 72  1  0  0  0  0
 63 64  1  0  0  0  0
M  CHG  1  72   1
M  ISO  4  39 100  59 101  65 100  80 101
M  END
> <Batch ID>
0142

> <Smiles>
CNC(C)C(=O)NC(C(=O)N1Cc2cc([101O:1][101CH2:1]C(=O)Cc3ccc4c(c3)[100N:0]([100C:0](=O)N3CCCC(n5nc(-c6ccc(Oc7ccc(F)cc7F)cc6)c(C(N)=O)c5N)C3)C4)ccc2CC1C(=O)NC1CCCc2ccccc21)C(C)(C)C

> <Shape>
0.247

> <Color>
0.119

> <Negative vol penalty>
0.000

$$$$

  -OEChem-04052302573D

 86 94  0     1  0  0  0  0  0999 V2000
  -27.4455  -22.9460   17.2856 C   0  0  0  0  0  0  0  0  0  0  0  0
  -27.9746  -21.6613   17.3358 C   0  0  0  0  0  0  0  0  0  0  0  0
  -25.5367  -27.1294   20.5370 C   0  0  0  0  0  0  0  0  0  0  0  0
  -27.1394  -28.9283   20.3582 C   0  0  0  0  0  0  0  0  0  0  0  0
  -26.3382  -23.2706   18.0665 C   0  0  0  0  0  0  0  0  0  0  0  0
  -27.3895  -20.6976   18.1579 C   0  0  0  0  0  0  0  0  0  0  0  0
  -29.0991  -16.1001   17.7785 C   0  0  0  0  0  0  0  0  0  0  0  0
  -24.4932  -28.0468   20.4143 C   0  0  0  0  0  0  0  0  0  0  0  0
  -26.0959  -29.8458   20.2354 C   0  0  0  0  0  0  0  0  0  0  0  0
  -30.3516  -15.7197   18.2585 C   0  0  0  0  0  0  0  0  0  0  0  0
  -22.8887  -30.2723   22.3885 C   0  0  0  0  0  0  0  0  0  0  0  0
  -21.8107  -30.1475   23.2647 C   0  0  0  0  0  0  0  0  0  0  0  0
  -29.2983  -14.6726   20.1595 C   0  0  0  0  0  0  0  0  0  0  0  0
  -20.3219  -29.8324   21.3881 C   0  0  0  0  0  0  0  0  0  0  0  0
  -34.2441  -18.8077   19.9011 C   0  0  0  0  0  0  0  0  0  0  0  0
  -26.8598  -27.5701   20.5090 C   0  0  0  0  0  0  0  0  0  0  0  0
  -33.0320  -18.4876   20.4721 C   0  0  0  0  0  0  0  0  0  0  0  0
  -31.9897  -19.3566   20.0378 C   0  0  0  0  0  0  0  0  0  0  0  0
  -28.1858  -25.7572   21.7184 C   0  0  0  0  0  0  0  0  0  0  0  0
  -25.7475  -22.3133   18.9077 C   0  0  0  0  0  0  0  0  0  0  0  0
  -27.9356  -15.7785   18.4922 C   0  0  0  0  0  0  0  0  0  0  0  0
  -26.2568  -20.9991   18.9356 C   0  0  0  0  0  0  0  0  0  0  0  0
  -28.0322  -15.0479   19.6851 C   0  0  0  0  0  0  0  0  0  0  0  0
  -24.7728  -29.4050   20.2635 C   0  0  0  0  0  0  0  0  0  0  0  0
  -30.4515  -15.0084   19.4506 C   0  0  0  0  0  0  0  0  0  0  0  0
  -22.6834  -30.1772   21.0120 C   0  0  0  0  0  0  0  0  0  0  0  0
  -20.5273  -29.9275   22.7646 C   0  0  0  0  0  0  0  0  0  0  0  0
  -21.4000  -29.9572   20.5119 C   0  0  0  0  0  0  0  0  0  0  0  0
  -27.9381  -26.6230   20.6363 C   0  0  0  0  0  0  0  0  0  0  0  0
  -29.3175  -25.0688   21.3552 C   0  0  0  0  0  0  0  0  0  0  0  0
  -32.4450  -20.3081   19.1516 C   0  0  0  0  0  0  0  0  0  0  0  0
  -32.8852  -17.3516   21.4284 C   0  0  0  0  0  0  0  0  0  0  0  0
  -30.6107  -19.2821   20.4528 C   0  0  0  0  0  0  0  0  0  0  0  0
  -27.4579  -25.5900   22.9423 C   0  0  0  0  0  0  0  0  0  0  0  0
  -25.6269  -17.4563   19.8918 C   0  0  0  0  0  0  0  0  0  0  0  0
  -24.2972  -14.5294   20.3250 C   0  0  0  0  0  0  0  0  0  0  0  0
  -24.7413  -11.1563   20.5925 C   0  0  0  0  0  0  0  0  0  0  0  0
  -32.3242  -22.2802   17.5887 C   0  0  0  0  0  0  0  0  0  0  0  0
  -24.5460  -22.7165   19.7256 C   0  0  0  0  0  0  0  0  0  0  0  0
  -26.5903  -16.1730   17.9473 C   0  0  0  0  0  0  0  0  0  0  0  0
  -26.8121  -14.6603   20.4786 C   0  0  0  0  0  0  0  0  0  0  0  0
  -24.2722  -21.7674   20.8877 C   0  0  0  0  0  0  0  0  0  0  0  0
  -32.5559  -25.8328   17.5407 C   0  0  0  0  0  0  0  0  0  0  0  0
  -24.2765  -20.3280   20.3953 C   0  0  0  0  0  0  0  0  0  0  0  0
  -31.3956  -26.2839   18.4308 C   0  0  0  0  0  0  0  0  0  0  0  0
  -32.1905  -24.6019   16.7130 C   0  0  0  0  0  0  0  0  0  0  0  0
  -30.5048  -23.9195   18.3749 C   0  0  0  0  0  0  0  0  0  0  0  0
  -25.6558  -19.9430   19.8454 C   0  0  1  0  0  0  0  0  0  0  0  0
  -25.5072  -16.2386   19.0196 C   0  0  1  0  0  0  0  0  0  0  0  0
  -30.8470  -25.1174   19.2757 C   0  0  2  0  0  0  0  0  0  0  0  0
  -30.0177  -20.4793   21.1496 C   0  0  0  0  0  0  0  0  0  0  0  0
  -24.1166   -8.7341   20.7927 C   0  0  0  0  0  0  0  0  0  0  0  0
  -24.0818  -15.2047   23.2927 C   0  0  0  0  0  0  0  0  0  0  0  0
  -23.7184  -12.7699   23.7490 C   0  0  0  0  0  0  0  0  0  0  0  0
  -22.0886  -14.0304   22.3427 C   0  0  0  0  0  0  0  0  0  0  0  0
  -33.4020  -14.6367   23.2920 C   0  0  0  0  0  0  0  0  0  0  0  0
  -34.1743  -13.6880   21.1226 C   0  0  0  0  0  0  0  0  0  0  0  0
  -24.5584  -10.8410   17.6555 C   0  0  0  0  0  0  0  0  0  0  0  0
  -33.8171  -16.1516   21.2777 C   0  0  0  0  0  0  0  0  0  0  0  0
  -31.8178  -14.5291   21.3373 C   0  0  0  0  0  0  0  0  0  1  0  0
  -24.3671  -13.4719   21.4001 C   0  0  1  0  0  0  0  0  0  0  0  0
  -24.0194   -9.9904   19.9413 C   0  0  2  0  0  0  0  0  0  0  0  0
  -23.5873  -13.8781   22.6824 C   0  0  0  0  0  0  0  0  0  0  0  0
  -33.2814  -14.7768   21.7636 C   0  0  0  0  0  0  0  0  0  0  0  0
  -28.8401  -26.4981   19.6591 N   0  0  0  0  0  0  0  0  0  0  0  0
  -29.6656  -25.5458   20.1258 N   0  0  0  0  0  0  0  0  0  0  0  0
  -25.5197  -15.0744   19.9077 N   0  0  0  0  0  0  0  0  0  0  0  0
  -31.6826  -23.5368   17.5805 N   0  0  0  0  0  0  0  0  0  0  0  0
  -30.0390  -24.1082   21.9709 N   0  0  0  0  0  0  0  0  0  0  0  0
  -27.8157  -26.3772   24.0453 N   0  0  0  0  0  0  0  0  0  0  0  0
  -31.7728  -21.3571   18.4767 N   0  0  0  0  0  0  0  0  0  0  0  0
  -25.5635  -18.6514   19.2011 N   0  0  0  0  0  0  0  0  0  0  0  0
  -23.9022  -12.2333   20.7852 N   0  0  0  0  0  0  0  0  0  0  0  0
  -24.6083   -9.6985   18.6038 N   0  3  0  0  0  0  0  0  0  0  0  0
  -32.0326  -17.4321   22.3077 O   0  0  0  0  0  0  0  0  0  0  0  0
  -29.8626  -18.3069   20.2893 O   0  0  0  0  0  0  0  0  0  0  0  0
  -26.5289  -24.7554   23.0593 O   0  0  0  0  0  0  0  0  0  0  0  0
  -25.7650  -17.3214   21.1019 O   0  0  0  0  0  0  0  0  0  0  0  0
  -23.1989  -14.8546   19.8671 O   0  0  0  0  0  0  0  0  0  0  0  0
  -25.9298  -11.1143   20.9030 O   0  0  0  0  0  0  0  0  0  0  0  0
  -33.3083  -22.0493   16.8814 O   0  0  0  0  0  0  0  0  0  0  0  0
  -23.7548  -30.3005   20.1434 O   0  0  0  0  0  0  0  0  0  0  0  0
  -31.6729  -14.6364   19.9217 O   0  0  0  0  0  0  0  0  0  1  0  0
  -19.4923  -29.8062   23.6062 F   0  0  0  0  0  0  0  0  0  0  0  0
  -21.1967  -29.8637   19.1906 F   0  0  0  0  0  0  0  0  0  0  0  0
  -34.1227  -20.1512   18.8463 S   0  0  0  0  0  0  0  0  0  0  0  0
  1  2  1  0  0  0  0
  1  5  2  0  0  0  0
  2  6  2  0  0  0  0
  3  8  2  0  0  0  0
  3 16  1  0  0  0  0
  4  9  1  0  0  0  0
  4 16  2  0  0  0  0
  5 20  1  0  0  0  0
  6 22  1  0  0  0  0
  7 10  2  0  0  0  0
  7 21  1  0  0  0  0
  8 24  1  0  0  0  0
  9 24  2  0  0  0  0
 10 25  1  0  0  0  0
 11 12  2  0  0  0  0
 11 26  1  0  0  0  0
 12 27  1  0  0  0  0
 13 23  1  0  0  0  0
 13 25  2  0  0  0  0
 14 27  2  0  0  0  0
 14 28  1  0  0  0  0
 15 17  2  0  0  0  0
 15 86  1  0  0  0  0
 16 29  1  0  0  0  0
 17 18  1  0  0  0  0
 17 32  1  0  0  0  0
 18 31  2  0  0  0  0
 18 33  1  0  0  0  0
 19 29  1  0  0  0  0
 19 30  2  0  0  0  0
 19 34  1  0  0  0  0
 20 22  2  0  0  0  0
 20 39  1  0  0  0  0
 21 23  2  0  0  0  0
 21 40  1  0  0  0  0
 22 48  1  0  0  0  0
 23 41  1  0  0  0  0
 24 82  1  0  0  0  0
 25 83  1  0  0  0  0
 26 28  2  0  0  0  0
 26 82  1  0  0  0  0
 27 84  1  0  0  0  0
 28 85  1  0  0  0  0
 29 65  2  0  0  0  0
 30 66  1  0  0  0  0
 30 69  1  0  0  0  0
 31 71  1  0  0  0  0
 31 86  1  0  0  0  0
 32 59  1  0  0  0  0
 32 75  2  0  0  0  0
 33 51  1  0  0  0  0
 33 76  2  0  0  0  0
 34 70  1  0  0  0  0
 34 77  2  0  0  0  0
 35 49  1  0  0  0  0
 35 72  1  0  0  0  0
 35 78  2  0  0  0  0
 36 61  1  0  0  0  0
 36 67  1  0  0  0  0
 36 79  2  0  0  0  0
 37 62  1  0  0  0  0
 37 73  1  0  0  0  0
 37 80  2  0  0  0  0
 38 68  1  0  0  0  0
 38 71  1  0  0  0  0
 38 81  2  0  0  0  0
 39 42  1  0  0  0  0
 40 49  1  0  0  0  0
 41 67  1  0  0  0  0
 42 44  1  0  0  0  0
 43 45  1  0  0  0  0
 43 46  1  0  0  0  0
 44 48  1  0  0  0  0
 45 50  1  0  0  0  0
 46 68  1  0  0  0  0
 47 50  1  0  0  0  0
 47 68  1  0  0  0  0
 48 72  1  0  0  0  0
 49 67  1  0  0  0  0
 50 66  1  0  0  0  0
 52 62  1  0  0  0  0
 53 63  1  0  0  0  0
 54 63  1  0  0  0  0
 55 63  1  0  0  0  0
 56 64  1  0  0  0  0
 57 64  1  0  0  0  0
 58 74  1  0  0  0  0
 59 64  1  0  0  0  0
 60 64  1  0  0  0  0
 60 83  1  0  0  0  0
 61 63  1  0  0  0  0
 61 73  1  0  0  0  0
 62 74  1  0  0  0  0
 65 66  1  0  0  0  0
M  CHG  1  74   1
M  ISO  4  38 100  60 101  71 100  83 101
M  END
> <Batch ID>
0142

> <Smiles>
CNC(C)C(=O)NC(C(=O)N1Cc2cc([101O:1][101CH2:1]C(C)(C)CC(=O)c3csc([100NH:0][100C:0](=O)N4CCCC(n5nc(-c6ccc(Oc7ccc(F)cc7F)cc6)c(C(N)=O)c5N)C4)c3C(C)=O)ccc2CC1C(=O)NC1CCCc2ccccc21)C(C)(C)C

> <Shape>
0.212

> <Color>
0.074

> <Negative vol penalty>
0.000

$$$$

  -OEChem-04052302573D

 87 95  0     1  0  0  0  0  0999 V2000
  -25.2749  -18.4577   23.8523 C   0  0  0  0  0  0  0  0  0  0  0  0
  -25.8192  -19.4623   23.0587 C   0  0  0  0  0  0  0  0  0  0  0  0
  -24.5683  -12.5375   19.7378 C   0  0  0  0  0  0  0  0  0  0  0  0
  -25.8123  -13.1845   21.7053 C   0  0  0  0  0  0  0  0  0  0  0  0
  -23.9049  -18.4404   24.1108 C   0  0  0  0  0  0  0  0  0  0  0  0
  -24.9936  -20.4498   22.5222 C   0  0  0  0  0  0  0  0  0  0  0  0
  -26.9567  -25.0935   22.9990 C   0  0  0  0  0  0  0  0  0  0  0  0
  -24.9708  -11.2143   19.9185 C   0  0  0  0  0  0  0  0  0  0  0  0
  -26.2147  -11.8612   21.8860 C   0  0  0  0  0  0  0  0  0  0  0  0
  -27.9606  -25.4556   22.1018 C   0  0  0  0  0  0  0  0  0  0  0  0
  -24.1102   -8.5938   21.8744 C   0  0  0  0  0  0  0  0  0  0  0  0
  -23.1422   -7.5982   21.7433 C   0  0  0  0  0  0  0  0  0  0  0  0
  -26.3426  -26.6757   20.7931 C   0  0  0  0  0  0  0  0  0  0  0  0
  -30.1347  -24.2567   17.3279 C   0  0  0  0  0  0  0  0  0  0  0  0
  -31.0676  -22.0817   16.8422 C   0  0  0  0  0  0  0  0  0  0  0  0
  -31.7998  -24.0163   15.5939 C   0  0  0  0  0  0  0  0  0  0  0  0
  -24.4059   -6.6072   19.9383 C   0  0  0  0  0  0  0  0  0  0  0  0
  -24.9891  -13.5226   20.6312 C   0  0  0  0  0  0  0  0  0  0  0  0
  -23.4233  -15.5080   20.9694 C   0  0  0  0  0  0  0  0  0  0  0  0
  -23.0635  -19.4336   23.5851 C   0  0  0  0  0  0  0  0  0  0  0  0
  -25.6339  -25.5114   22.7936 C   0  0  0  0  0  0  0  0  0  0  0  0
  -23.6109  -20.4450   22.7728 C   0  0  0  0  0  0  0  0  0  0  0  0
  -25.3243  -26.3197   21.6904 C   0  0  0  0  0  0  0  0  0  0  0  0
  -30.2016  -22.8868   17.5821 C   0  0  0  0  0  0  0  0  0  0  0  0
  -30.9338  -24.8214   16.3338 C   0  0  0  0  0  0  0  0  0  0  0  0
  -25.7939  -10.8761   20.9926 C   0  0  0  0  0  0  0  0  0  0  0  0
  -27.6531  -26.2443   20.9971 C   0  0  0  0  0  0  0  0  0  0  0  0
  -25.2261   -8.5962   21.0374 C   0  0  0  0  0  0  0  0  0  0  0  0
  -23.2900   -6.6049   20.7753 C   0  0  0  0  0  0  0  0  0  0  0  0
  -31.8667  -22.6464   15.8481 C   0  0  0  0  0  0  0  0  0  0  0  0
  -25.3739   -7.6029   20.0694 C   0  0  0  0  0  0  0  0  0  0  0  0
  -24.5741  -14.8898   20.4448 C   0  0  0  0  0  0  0  0  0  0  0  0
  -23.4858  -16.7995   20.5062 C   0  0  0  0  0  0  0  0  0  0  0  0
  -22.3901  -14.9634   21.8011 C   0  0  0  0  0  0  0  0  0  0  0  0
  -22.8671  -24.0314   22.2858 C   0  0  0  0  0  0  0  0  0  0  0  0
  -30.6273  -27.4587   18.1290 C   0  0  0  0  0  0  0  0  0  0  0  0
  -21.6623  -27.0331   22.5326 C   0  0  0  0  0  0  0  0  0  0  0  0
  -22.1894  -30.3959   22.2861 C   0  0  0  0  0  0  0  0  0  0  0  0
  -28.0470  -20.1827   18.8920 C   0  0  0  0  0  0  0  0  0  0  0  0
  -21.5819  -19.3464   23.8531 C   0  0  0  0  0  0  0  0  0  0  0  0
  -24.5675  -25.1346   23.7851 C   0  0  0  0  0  0  0  0  0  0  0  0
  -23.9236  -26.8113   21.4359 C   0  0  0  0  0  0  0  0  0  0  0  0
  -20.8317  -20.6420   23.5551 C   0  0  0  0  0  0  0  0  0  0  0  0
  -25.1672  -19.3888   16.8489 C   0  0  0  0  0  0  0  0  0  0  0  0
  -21.2568  -21.2062   22.2031 C   0  0  0  0  0  0  0  0  0  0  0  0
  -24.5801  -18.1937   17.6020 C   0  0  0  0  0  0  0  0  0  0  0  0
  -26.6926  -19.3611   16.8712 C   0  0  0  0  0  0  0  0  0  0  0  0
  -26.7024  -18.1030   18.9904 C   0  0  0  0  0  0  0  0  0  0  0  0
  -22.7517  -21.5477   22.1932 C   0  0  1  0  0  0  0  0  0  0  0  0
  -23.1603  -25.1886   23.1984 C   0  0  1  0  0  0  0  0  0  0  0  0
  -25.1633  -18.0857   19.0234 C   0  0  2  0  0  0  0  0  0  0  0  0
  -21.0053  -32.5970   22.5100 C   0  0  0  0  0  0  0  0  0  0  0  0
  -29.6522  -29.7712   18.3304 C   0  0  0  0  0  0  0  0  0  0  0  0
  -30.6855  -28.6644   20.3189 C   0  0  0  0  0  0  0  0  0  0  0  0
  -20.3105  -26.5776   19.8353 C   0  0  0  0  0  0  0  0  0  0  0  0
  -19.9598  -29.0511   19.6719 C   0  0  0  0  0  0  0  0  0  0  0  0
  -18.8965  -27.7621   21.5240 C   0  0  0  0  0  0  0  0  0  0  0  0
  -23.9833  -31.2704   24.4715 C   0  0  0  0  0  0  0  0  0  0  0  0
  -29.3463  -22.2819   18.6436 C   0  0  0  0  0  0  0  0  0  0  0  0
  -30.0008  -27.0893   16.7941 C   0  0  0  0  0  0  0  0  0  0  0  0
  -28.4761  -27.8456   19.4433 C   0  0  0  0  0  0  0  0  0  1  0  0
  -21.3929  -28.1599   21.5647 C   0  0  1  0  0  0  0  0  0  0  0  0
  -21.8394  -31.5413   23.2188 C   0  0  2  0  0  0  0  0  0  0  0  0
  -29.8487  -28.4242   19.0535 C   0  0  0  0  0  0  0  0  0  0  0  0
  -20.1661  -27.8769   20.6524 C   0  0  0  0  0  0  0  0  0  0  0  0
  -25.3136  -15.7203   19.7048 N   0  0  0  0  0  0  0  0  0  0  0  0
  -24.6258  -16.8734   19.7610 N   0  0  0  0  0  0  0  0  0  0  0  0
  -22.9146  -26.4109   22.4304 N   0  0  0  0  0  0  0  0  0  0  0  0
  -27.1837  -19.2766   18.2539 N   0  0  0  0  0  0  0  0  0  0  0  0
  -22.6763  -17.8677   20.6676 N   0  0  0  0  0  0  0  0  0  0  0  0
  -22.4808  -13.6186   22.1851 N   0  0  0  0  0  0  0  0  0  0  0  0
  -30.8668  -26.1826   16.0801 N   0  0  0  0  0  0  0  0  0  0  0  0
  -22.9900  -22.7942   22.8888 N   0  0  0  0  0  0  0  0  0  0  0  0
  -21.2719  -29.3700   22.3705 N   0  0  0  0  0  0  0  0  0  0  0  0
  -28.4622  -21.2630   18.1231 N   0  0  0  0  0  0  0  0  0  0  0  0
  -23.0797  -32.1889   23.7319 N   0  3  0  0  0  0  0  0  0  0  0  0
  -21.4069  -15.6447   22.1787 O   0  0  0  0  0  0  0  0  0  0  0  0
  -22.5513  -24.2453   21.1213 O   0  0  0  0  0  0  0  0  0  0  0  0
  -31.7165  -26.9897   18.4700 O   0  0  0  0  0  0  0  0  0  0  0  0
  -20.7963  -26.7213   23.3539 O   0  0  0  0  0  0  0  0  0  0  0  0
  -23.1757  -30.4113   21.5530 O   0  0  0  0  0  0  0  0  0  0  0  0
  -28.4164  -20.0423   20.0628 O   0  0  0  0  0  0  0  0  0  0  0  0
  -26.1867   -9.5849   21.1693 O   0  0  0  0  0  0  0  0  0  0  0  0
  -28.6310  -26.5986   20.1196 O   0  0  0  0  0  0  0  0  0  1  0  0
  -22.3611   -5.6479   20.6506 F   0  0  0  0  0  0  0  0  0  0  0  0
  -32.6986  -21.8732   15.1381 F   0  0  0  0  0  0  0  0  0  0  0  0
  -26.4444   -7.5993   19.2631 F   0  0  0  0  0  0  0  0  0  0  0  0
  1  2  1  0  0  0  0
  1  5  2  0  0  0  0
  2  6  2  0  0  0  0
  3  8  2  0  0  0  0
  3 18  1  0  0  0  0
  4  9  1  0  0  0  0
  4 18  2  0  0  0  0
  5 20  1  0  0  0  0
  6 22  1  0  0  0  0
  7 10  2  0  0  0  0
  7 21  1  0  0  0  0
  8 26  1  0  0  0  0
  9 26  2  0  0  0  0
 10 27  1  0  0  0  0
 11 12  2  0  0  0  0
 11 28  1  0  0  0  0
 12 29  1  0  0  0  0
 13 23  1  0  0  0  0
 13 27  2  0  0  0  0
 14 24  1  0  0  0  0
 14 25  2  0  0  0  0
 15 24  2  0  0  0  0
 15 30  1  0  0  0  0
 16 25  1  0  0  0  0
 16 30  2  0  0  0  0
 17 29  2  0  0  0  0
 17 31  1  0  0  0  0
 18 32  1  0  0  0  0
 19 32  1  0  0  0  0
 19 33  2  0  0  0  0
 19 34  1  0  0  0  0
 20 22  2  0  0  0  0
 20 40  1  0  0  0  0
 21 23  2  0  0  0  0
 21 41  1  0  0  0  0
 22 49  1  0  0  0  0
 23 42  1  0  0  0  0
 24 59  1  0  0  0  0
 25 72  1  0  0  0  0
 26 83  1  0  0  0  0
 27 84  1  0  0  0  0
 28 31  2  0  0  0  0
 28 83  1  0  0  0  0
 29 85  1  0  0  0  0
 30 86  1  0  0  0  0
 31 87  1  0  0  0  0
 32 66  2  0  0  0  0
 33 67  1  0  0  0  0
 33 70  1  0  0  0  0
 34 71  1  0  0  0  0
 34 77  2  0  0  0  0
 35 50  1  0  0  0  0
 35 73  1  0  0  0  0
 35 78  2  0  0  0  0
 36 60  1  0  0  0  0
 36 64  1  0  0  0  0
 36 79  2  0  0  0  0
 37 62  1  0  0  0  0
 37 68  1  0  0  0  0
 37 80  2  0  0  0  0
 38 63  1  0  0  0  0
 38 74  1  0  0  0  0
 38 81  2  0  0  0  0
 39 69  1  0  0  0  0
 39 75  1  0  0  0  0
 39 82  2  0  0  0  0
 40 43  1  0  0  0  0
 41 50  1  0  0  0  0
 42 68  1  0  0  0  0
 43 45  1  0  0  0  0
 44 46  1  0  0  0  0
 44 47  1  0  0  0  0
 45 49  1  0  0  0  0
 46 51  1  0  0  0  0
 47 69  1  0  0  0  0
 48 51  1  0  0  0  0
 48 69  1  0  0  0  0
 49 73  1  0  0  0  0
 50 68  1  0  0  0  0
 51 67  1  0  0  0  0
 52 63  1  0  0  0  0
 53 64  1  0  0  0  0
 54 64  1  0  0  0  0
 55 65  1  0  0  0  0
 56 65  1  0  0  0  0
 57 65  1  0  0  0  0
 58 76  1  0  0  0  0
 59 75  1  0  0  0  0
 60 72  1  0  0  0  0
 61 64  1  0  0  0  0
 61 84  1  0  0  0  0
 62 65  1  0  0  0  0
 62 74  1  0  0  0  0
 63 76  1  0  0  0  0
 66 67  1  0  0  0  0
M  CHG  1  76   1
M  ISO  4  39 100  61 101  75 100  84 101
M  END
> <Batch ID>
0142

> <Smiles>
CNC(C)C(=O)NC(C(=O)N1Cc2cc([101O:1][101CH2:1]C(C)(C)C(=O)CNc3cc(F)cc(C[100NH:0][100C:0](=O)N4CCCC(n5nc(-c6ccc(Oc7ccc(F)cc7F)cc6)c(C(N)=O)c5N)C4)c3)ccc2CC1C(=O)NC1CCCc2ccccc21)C(C)(C)C

> <Shape>
0.183

> <Color>
0.075

> <Negative vol penalty>
0.000

$$$$

  -OEChem-04052302573D

 87 95  0     1  0  0  0  0  0999 V2000
  -18.6372  -28.7018   23.0970 C   0  0  0  0  0  0  0  0  0  0  0  0
  -20.0228  -28.6370   23.2031 C   0  0  0  0  0  0  0  0  0  0  0  0
  -27.4006  -17.9564   20.1106 C   0  0  0  0  0  0  0  0  0  0  0  0
  -29.5876  -17.1203   20.7065 C   0  0  0  0  0  0  0  0  0  0  0  0
  -17.9409  -27.6852   22.4446 C   0  0  0  0  0  0  0  0  0  0  0  0
  -20.7129  -27.5551   22.6576 C   0  0  0  0  0  0  0  0  0  0  0  0
  -24.8407  -28.9776   20.0919 C   0  0  0  0  0  0  0  0  0  0  0  0
  -26.9683  -16.6527   19.8678 C   0  0  0  0  0  0  0  0  0  0  0  0
  -29.1553  -15.8165   20.4637 C   0  0  0  0  0  0  0  0  0  0  0  0
  -25.9700  -29.3125   20.8378 C   0  0  0  0  0  0  0  0  0  0  0  0
  -25.1829  -13.5154   19.4385 C   0  0  0  0  0  0  0  0  0  0  0  0
  -23.9369  -13.1410   19.9413 C   0  0  0  0  0  0  0  0  0  0  0  0
  -26.9003  -27.1308   20.3977 C   0  0  0  0  0  0  0  0  0  0  0  0
  -32.5529  -28.9284   22.7481 C   0  0  0  0  0  0  0  0  0  0  0  0
  -34.0228  -27.9329   21.1095 C   0  0  0  0  0  0  0  0  0  0  0  0
  -33.2280  -26.6197   22.9752 C   0  0  0  0  0  0  0  0  0  0  0  0
  -24.7004  -13.6129   22.1844 C   0  0  0  0  0  0  0  0  0  0  0  0
  -28.7103  -18.1902   20.5299 C   0  0  0  0  0  0  0  0  0  0  0  0
  -29.0952  -20.2407   21.9979 C   0  0  0  0  0  0  0  0  0  0  0  0
  -18.6236  -26.5951   21.8824 C   0  0  0  0  0  0  0  0  0  0  0  0
  -24.7277  -27.7107   19.5015 C   0  0  0  0  0  0  0  0  0  0  0  0
  -20.0249  -26.5223   21.9981 C   0  0  0  0  0  0  0  0  0  0  0  0
  -25.7697  -26.7831   19.6427 C   0  0  0  0  0  0  0  0  0  0  0  0
  -33.3079  -29.0343   21.5801 C   0  0  0  0  0  0  0  0  0  0  0  0
  -32.5130  -27.7211   23.4458 C   0  0  0  0  0  0  0  0  0  0  0  0
  -33.9829  -26.7256   21.8070 C   0  0  0  0  0  0  0  0  0  0  0  0
  -27.8456  -15.5827   20.0443 C   0  0  0  0  0  0  0  0  0  0  0  0
  -26.9987  -28.3880   20.9932 C   0  0  0  0  0  0  0  0  0  0  0  0
  -26.1877  -13.9384   20.3086 C   0  0  0  0  0  0  0  0  0  0  0  0
  -23.6956  -13.1899   21.3143 C   0  0  0  0  0  0  0  0  0  0  0  0
  -25.9464  -13.9872   21.6815 C   0  0  0  0  0  0  0  0  0  0  0  0
  -29.1576  -19.5368   20.7804 C   0  0  0  0  0  0  0  0  0  0  0  0
  -29.6428  -21.4678   21.7136 C   0  0  0  0  0  0  0  0  0  0  0  0
  -28.5878  -19.8227   23.2721 C   0  0  0  0  0  0  0  0  0  0  0  0
  -22.7209  -25.2646   19.8066 C   0  0  0  0  0  0  0  0  0  0  0  0
  -29.4452  -28.1639   23.6576 C   0  0  0  0  0  0  0  0  0  0  0  0
  -24.4173  -24.0665   17.3147 C   0  0  0  0  0  0  0  0  0  0  0  0
  -27.3372  -24.0303   15.5484 C   0  0  0  0  0  0  0  0  0  0  0  0
  -33.5969  -24.5963   19.3213 C   0  0  0  0  0  0  0  0  0  0  0  0
  -17.8236  -25.4968   21.2279 C   0  0  0  0  0  0  0  0  0  0  0  0
  -23.5150  -27.3743   18.6777 C   0  0  0  0  0  0  0  0  0  0  0  0
  -25.7062  -25.4169   19.0121 C   0  0  0  0  0  0  0  0  0  0  0  0
  -18.6629  -24.5721   20.3500 C   0  0  0  0  0  0  0  0  0  0  0  0
  -30.8593  -23.5832   17.2828 C   0  0  0  0  0  0  0  0  0  0  0  0
  -19.9383  -24.1580   21.0772 C   0  0  0  0  0  0  0  0  0  0  0  0
  -30.1716  -22.4945   18.1085 C   0  0  0  0  0  0  0  0  0  0  0  0
  -32.3773  -23.5385   17.4425 C   0  0  0  0  0  0  0  0  0  0  0  0
  -32.1671  -22.4903   19.6630 C   0  0  0  0  0  0  0  0  0  0  0  0
  -20.8113  -25.3772   21.3977 C   0  0  1  0  0  0  0  0  0  0  0  0
  -23.2769  -25.8729   18.5502 C   0  0  1  0  0  0  0  0  0  0  0  0
  -30.6317  -22.5307   19.5783 C   0  0  2  0  0  0  0  0  0  0  0  0
  -33.3499  -30.3253   20.8344 C   0  0  0  0  0  0  0  0  0  0  0  0
  -28.1151  -26.6735   26.0301 C   0  0  0  0  0  0  0  0  0  0  0  0
  -28.4381  -22.9211   13.5851 C   0  0  0  0  0  0  0  0  0  0  0  0
  -30.1419  -25.7519   23.9107 C   0  0  0  0  0  0  0  0  0  0  0  0
  -24.8554  -21.5508   18.9848 C   0  0  0  0  0  0  0  0  0  0  0  0
  -26.6952  -20.9112   17.4118 C   0  0  0  0  0  0  0  0  0  0  0  0
  -24.3565  -21.1269   16.5712 C   0  0  0  0  0  0  0  0  0  0  0  0
  -27.6536  -26.6049   14.1236 C   0  0  0  0  0  0  0  0  0  0  0  0
  -31.6941  -27.6055   24.7125 C   0  0  0  0  0  0  0  0  0  0  0  0
  -34.7476  -25.5481   21.3036 C   0  0  0  0  0  0  0  0  0  0  0  0
  -28.7717  -27.6471   22.3945 C   0  0  0  0  0  0  0  0  0  1  0  0
  -29.5793  -27.0987   25.9738 C   0  0  0  0  0  0  0  0  0  0  0  0
  -25.6534  -23.2112   17.1758 C   0  0  1  0  0  0  0  0  0  0  0  0
  -27.6137  -24.1084   14.0578 C   0  0  2  0  0  0  0  0  0  0  0  0
  -30.2088  -27.1553   24.5510 C   0  0  1  0  0  0  0  0  0  0  0  0
  -25.3908  -21.7250   17.5496 C   0  0  0  0  0  0  0  0  0  0  0  0
  -29.7018  -20.2569   19.7958 N   0  0  0  0  0  0  0  0  0  0  0  0
  -29.9862  -21.4261   20.3943 N   0  0  0  0  0  0  0  0  0  0  0  0
  -24.4971  -25.1330   18.2214 N   0  0  0  0  0  0  0  0  0  0  0  0
  -32.7473  -23.5776   18.8594 N   0  0  0  0  0  0  0  0  0  0  0  0
  -29.8592  -22.5677   22.4658 N   0  0  0  0  0  0  0  0  0  0  0  0
  -28.0605  -18.5294   23.3896 N   0  0  0  0  0  0  0  0  0  0  0  0
  -21.5212  -25.8154   20.2151 N   0  0  0  0  0  0  0  0  0  0  0  0
  -26.1353  -23.4084   15.8130 N   0  0  0  0  0  0  0  0  0  0  0  0
  -33.8924  -24.5637   20.6787 N   0  0  0  0  0  0  0  0  0  0  0  0
  -28.3597  -25.3572   13.7341 N   0  3  0  0  0  0  0  0  0  0  0  0
  -28.5865  -20.5795   24.2725 O   0  0  0  0  0  0  0  0  0  0  0  0
  -23.3341  -24.3614   20.3632 O   0  0  0  0  0  0  0  0  0  0  0  0
  -29.3603  -29.3558   23.9650 O   0  0  0  0  0  0  0  0  0  0  0  0
  -23.4201  -23.8026   16.6383 O   0  0  0  0  0  0  0  0  0  0  0  0
  -28.1117  -24.4732   16.3937 O   0  0  0  0  0  0  0  0  0  0  0  0
  -34.0537  -25.4732   18.5802 O   0  0  0  0  0  0  0  0  0  0  0  0
  -27.4240  -14.3104   19.8077 O   0  0  0  0  0  0  0  0  0  0  0  0
  -28.1018  -28.7122   21.7212 O   0  0  0  0  0  0  0  0  0  1  0  0
  -22.4985  -12.8319   21.7969 F   0  0  0  0  0  0  0  0  0  0  0  0
  -26.9075  -14.3939   22.5223 F   0  0  0  0  0  0  0  0  0  0  0  0
  1  2  1  0  0  0  0
  1  5  2  0  0  0  0
  2  6  2  0  0  0  0
  3  8  2  0  0  0  0
  3 18  1  0  0  0  0
  4  9  1  0  0  0  0
  4 18  2  0  0  0  0
  5 20  1  0  0  0  0
  6 22  1  0  0  0  0
  7 10  2  0  0  0  0
  7 21  1  0  0  0  0
  8 27  1  0  0  0  0
  9 27  2  0  0  0  0
 10 28  1  0  0  0  0
 11 12  2  0  0  0  0
 11 29  1  0  0  0  0
 12 30  1  0  0  0  0
 13 23  1  0  0  0  0
 13 28  2  0  0  0  0
 14 24  2  0  0  0  0
 14 25  1  0  0  0  0
 15 24  1  0  0  0  0
 15 26  2  0  0  0  0
 16 25  2  0  0  0  0
 16 26  1  0  0  0  0
 17 30  2  0  0  0  0
 17 31  1  0  0  0  0
 18 32  1  0  0  0  0
 19 32  1  0  0  0  0
 19 33  2  0  0  0  0
 19 34  1  0  0  0  0
 20 22  2  0  0  0  0
 20 40  1  0  0  0  0
 21 23  2  0  0  0  0
 21 41  1  0  0  0  0
 22 49  1  0  0  0  0
 23 42  1  0  0  0  0
 24 52  1  0  0  0  0
 25 60  1  0  0  0  0
 26 61  1  0  0  0  0
 27 84  1  0  0  0  0
 28 85  1  0  0  0  0
 29 31  2  0  0  0  0
 29 84  1  0  0  0  0
 30 86  1  0  0  0  0
 31 87  1  0  0  0  0
 32 68  2  0  0  0  0
 33 69  1  0  0  0  0
 33 72  1  0  0  0  0
 34 73  1  0  0  0  0
 34 78  2  0  0  0  0
 35 50  1  0  0  0  0
 35 74  1  0  0  0  0
 35 79  2  0  0  0  0
 36 62  1  0  0  0  0
 36 66  1  0  0  0  0
 36 80  2  0  0  0  0
 37 64  1  0  0  0  0
 37 70  1  0  0  0  0
 37 81  2  0  0  0  0
 38 65  1  0  0  0  0
 38 75  1  0  0  0  0
 38 82  2  0  0  0  0
 39 71  1  0  0  0  0
 39 76  1  0  0  0  0
 39 83  2  0  0  0  0
 40 43  1  0  0  0  0
 41 50  1  0  0  0  0
 42 70  1  0  0  0  0
 43 45  1  0  0  0  0
 44 46  1  0  0  0  0
 44 47  1  0  0  0  0
 45 49  1  0  0  0  0
 46 51  1  0  0  0  0
 47 71  1  0  0  0  0
 48 51  1  0  0  0  0
 48 71  1  0  0  0  0
 49 74  1  0  0  0  0
 50 70  1  0  0  0  0
 51 69  1  0  0  0  0
 53 63  1  0  0  0  0
 54 65  1  0  0  0  0
 55 66  1  0  0  0  0
 56 67  1  0  0  0  0
 57 67  1  0  0  0  0
 58 67  1  0  0  0  0
 59 77  1  0  0  0  0
 60 66  1  0  0  0  0
 61 76  1  0  0  0  0
 62 85  1  0  0  0  0
 63 66  1  0  0  0  0
 64 67  1  0  0  0  0
 64 75  1  0  0  0  0
 65 77  1  0  0  0  0
 68 69  1  0  0  0  0
M  CHG  1  77   1
M  ISO  4  39 100  62 101  76 100  85 101
M  END
> <Batch ID>
0142

> <Smiles>
CCC(C)(Cc1cc(C)cc(C[100NH:0][100C:0](=O)N2CCCC(n3nc(-c4ccc(Oc5ccc(F)cc5F)cc4)c(C(N)=O)c3N)C2)c1)C(=O)[101CH2:1][101O:1]c1ccc2c(c1)CN(C(=O)C(NC(=O)C(C)NC)C(C)(C)C)C(C(=O)NC1CCCc3ccccc31)C2

> <Shape>
0.191

> <Color>
0.059

> <Negative vol penalty>
0.000

$$$$

  -OEChem-04052302573D

 89 97  0     1  0  0  0  0  0999 V2000
  -27.1685  -24.5578   16.6486 C   0  0  0  0  0  0  0  0  0  0  0  0
  -26.0054  -24.9280   17.3160 C   0  0  0  0  0  0  0  0  0  0  0  0
  -20.4190  -21.2446   16.9690 C   0  0  0  0  0  0  0  0  0  0  0  0
  -25.8041  -14.0463   22.9123 C   0  0  0  0  0  0  0  0  0  0  0  0
  -24.4379  -14.0312   20.9197 C   0  0  0  0  0  0  0  0  0  0  0  0
  -28.4132  -24.8589   17.2001 C   0  0  0  0  0  0  0  0  0  0  0  0
  -26.0862  -25.5985   18.5360 C   0  0  0  0  0  0  0  0  0  0  0  0
  -22.8889  -29.5155   18.8156 C   0  0  0  0  0  0  0  0  0  0  0  0
  -19.6596  -22.3406   17.3784 C   0  0  0  0  0  0  0  0  0  0  0  0
  -21.5896  -20.9133   17.6514 C   0  0  0  0  0  0  0  0  0  0  0  0
  -25.1845  -12.8744   23.3461 C   0  0  0  0  0  0  0  0  0  0  0  0
  -23.8183  -12.8592   21.3535 C   0  0  0  0  0  0  0  0  0  0  0  0
  -21.5491  -29.2268   19.0713 C   0  0  0  0  0  0  0  0  0  0  0  0
  -22.1297   -9.6657   21.7638 C   0  0  0  0  0  0  0  0  0  0  0  0
  -21.9532   -8.6418   20.8331 C   0  0  0  0  0  0  0  0  0  0  0  0
  -21.8740  -29.8028   21.3912 C   0  0  0  0  0  0  0  0  0  0  0  0
  -21.2414  -22.7741   19.1524 C   0  0  0  0  0  0  0  0  0  0  0  0
  -24.3441   -8.5284   20.5045 C   0  0  0  0  0  0  0  0  0  0  0  0
  -25.4308  -14.6248   21.6991 C   0  0  0  0  0  0  0  0  0  0  0  0
  -27.2273  -15.9421   20.4563 C   0  0  0  0  0  0  0  0  0  0  0  0
  -28.5094  -25.5419   18.4227 C   0  0  0  0  0  0  0  0  0  0  0  0
  -23.7354  -29.9403   19.8497 C   0  0  0  0  0  0  0  0  0  0  0  0
  -27.3334  -25.9078   19.1050 C   0  0  0  0  0  0  0  0  0  0  0  0
  -23.2235  -30.0987   21.1455 C   0  0  0  0  0  0  0  0  0  0  0  0
  -20.0708  -23.1054   18.4700 C   0  0  0  0  0  0  0  0  0  0  0  0
  -22.0009  -21.6780   18.7430 C   0  0  0  0  0  0  0  0  0  0  0  0
  -24.1917  -12.2808   22.5667 C   0  0  0  0  0  0  0  0  0  0  0  0
  -21.0421  -29.3676   20.3598 C   0  0  0  0  0  0  0  0  0  0  0  0
  -23.4134  -10.1210   22.0648 C   0  0  0  0  0  0  0  0  0  0  0  0
  -23.0604   -8.0731   20.2035 C   0  0  0  0  0  0  0  0  0  0  0  0
  -24.5206   -9.5523   21.4351 C   0  0  0  0  0  0  0  0  0  0  0  0
  -26.0701  -15.8357   21.2508 C   0  0  0  0  0  0  0  0  0  0  0  0
  -27.4215  -17.2941   20.3118 C   0  0  0  0  0  0  0  0  0  0  0  0
  -28.0529  -14.9111   19.8986 C   0  0  0  0  0  0  0  0  0  0  0  0
  -26.3737  -28.7944   21.2024 C   0  0  0  0  0  0  0  0  0  0  0  0
  -26.3229  -31.6246   22.7866 C   0  0  0  0  0  0  0  0  0  0  0  0
  -24.4998  -34.2760   23.9237 C   0  0  0  0  0  0  0  0  0  0  0  0
  -23.7390  -21.9944   20.5389 C   0  0  0  0  0  0  0  0  0  0  0  0
  -29.8769  -25.8035   19.0025 C   0  0  0  0  0  0  0  0  0  0  0  0
  -25.1716  -30.2734   19.5521 C   0  0  0  0  0  0  0  0  0  0  0  0
  -24.0857  -30.5710   22.2865 C   0  0  0  0  0  0  0  0  0  0  0  0
  -29.8768  -26.8477   20.1160 C   0  0  0  0  0  0  0  0  0  0  0  0
  -26.6259  -21.4519   22.5510 C   0  0  0  0  0  0  0  0  0  0  0  0
  -28.7485  -26.5733   21.1051 C   0  0  0  0  0  0  0  0  0  0  0  0
  -26.9199  -19.9611   22.3688 C   0  0  0  0  0  0  0  0  0  0  0  0
  -25.1249  -21.7340   22.5850 C   0  0  0  0  0  0  0  0  0  0  0  0
  -24.6603  -19.7057   21.2660 C   0  0  0  0  0  0  0  0  0  0  0  0
  -27.3800  -26.6582   20.4183 C   0  0  1  0  0  0  0  0  0  0  0  0
  -26.0686  -30.2050   20.7843 C   0  0  1  0  0  0  0  0  0  0  0  0
  -26.1592  -19.3803   21.1607 C   0  0  2  0  0  0  0  0  0  0  0  0
  -24.7285  -36.4137   25.2181 C   0  0  0  0  0  0  0  0  0  0  0  0
  -26.4918  -30.0313   25.3833 C   0  0  0  0  0  0  0  0  0  0  0  0
  -25.7676  -32.0893   26.6116 C   0  0  0  0  0  0  0  0  0  0  0  0
  -27.9077  -32.0921   25.3299 C   0  0  0  0  0  0  0  0  0  0  0  0
  -17.0904  -23.0360   19.4105 C   0  0  0  0  0  0  0  0  0  0  0  0
  -18.7346  -23.3849   21.2375 C   0  0  0  0  0  0  0  0  0  0  0  0
  -17.8944  -27.2344   23.3504 C   0  0  0  0  0  0  0  0  0  0  0  0
  -16.9813  -28.5702   21.4319 C   0  0  0  0  0  0  0  0  0  0  0  0
  -16.7276  -26.0904   19.1192 C   0  0  0  0  0  0  0  0  0  0  0  0
  -16.2525  -25.2306   21.4014 C   0  0  0  0  0  0  0  0  0  0  0  0
  -23.5932  -35.9019   21.6230 C   0  0  0  0  0  0  0  0  0  0  0  0
  -19.2455  -24.2957   18.9143 C   0  0  0  0  0  0  0  0  0  0  0  0
  -18.4595  -26.4834   20.9495 C   0  0  0  0  0  0  0  0  0  0  0  0
  -19.4134  -28.6088   21.9178 C   0  0  0  0  0  0  0  0  0  1  0  0
  -25.7122  -32.1171   24.0764 C   0  0  1  0  0  0  0  0  0  0  0  0
  -24.7383  -35.7728   23.8390 C   0  0  2  0  0  0  0  0  0  0  0  0
  -26.4538  -31.5717   25.3294 C   0  0  0  0  0  0  0  0  0  0  0  0
  -18.1129  -24.0554   19.9826 C   0  0  0  0  0  0  0  0  0  0  0  0
  -18.1500  -27.6938   21.9004 C   0  0  0  0  0  0  0  0  0  0  0  0
  -17.3857  -25.4722   20.3818 C   0  0  0  0  0  0  0  0  0  0  0  0
  -25.5647  -17.0253   21.5876 N   0  0  0  0  0  0  0  0  0  0  0  0
  -26.4084  -17.8921   21.0020 N   0  0  0  0  0  0  0  0  0  0  0  0
  -25.4848  -30.8780   21.9464 N   0  0  0  0  0  0  0  0  0  0  0  0
  -24.4713  -21.1580   21.4077 N   0  0  0  0  0  0  0  0  0  0  0  0
  -28.3583  -18.0179   19.6631 N   0  0  0  0  0  0  0  0  0  0  0  0
  -27.7102  -13.5745   20.1446 N   0  0  0  0  0  0  0  0  0  0  0  0
  -23.1897  -21.3408   19.4363 N   0  0  0  0  0  0  0  0  0  0  0  0
  -26.9959  -28.0402   20.2260 N   0  0  0  0  0  0  0  0  0  0  0  0
  -25.6843  -33.5728   23.9851 N   0  0  0  0  0  0  0  0  0  0  0  0
  -23.6803  -36.4199   23.0126 N   0  3  0  0  0  0  0  0  0  0  0  0
  -29.0738  -15.1675   19.2164 O   0  0  0  0  0  0  0  0  0  0  0  0
  -26.0686  -28.4186   22.3282 O   0  0  0  0  0  0  0  0  0  0  0  0
  -27.4981  -31.8985   22.5307 O   0  0  0  0  0  0  0  0  0  0  0  0
  -23.3752  -33.7804   23.9380 O   0  0  0  0  0  0  0  0  0  0  0  0
  -23.6316  -23.2065   20.7423 O   0  0  0  0  0  0  0  0  0  0  0  0
  -23.5870  -11.1370   22.9895 O   0  0  0  0  0  0  0  0  0  0  0  0
  -19.7260  -29.0839   20.6140 O   0  0  0  0  0  0  0  0  0  1  0  0
  -22.8909   -7.0889   19.3109 F   0  0  0  0  0  0  0  0  0  0  0  0
  -25.7563   -9.9847   21.7211 F   0  0  0  0  0  0  0  0  0  0  0  0
  1  2  1  0  0  0  0
  1  6  2  0  0  0  0
  2  7  2  0  0  0  0
  3  9  2  0  0  0  0
  3 10  1  0  0  0  0
  4 11  2  0  0  0  0
  4 19  1  0  0  0  0
  5 12  1  0  0  0  0
  5 19  2  0  0  0  0
  6 21  1  0  0  0  0
  7 23  1  0  0  0  0
  8 13  2  0  0  0  0
  8 22  1  0  0  0  0
  9 25  1  0  0  0  0
 10 26  2  0  0  0  0
 11 27  1  0  0  0  0
 12 27  2  0  0  0  0
 13 28  1  0  0  0  0
 14 15  2  0  0  0  0
 14 29  1  0  0  0  0
 15 30  1  0  0  0  0
 16 24  1  0  0  0  0
 16 28  2  0  0  0  0
 17 25  2  0  0  0  0
 17 26  1  0  0  0  0
 18 30  2  0  0  0  0
 18 31  1  0  0  0  0
 19 32  1  0  0  0  0
 20 32  1  0  0  0  0
 20 33  2  0  0  0  0
 20 34  1  0  0  0  0
 21 23  2  0  0  0  0
 21 39  1  0  0  0  0
 22 24  2  0  0  0  0
 22 40  1  0  0  0  0
 23 48  1  0  0  0  0
 24 41  1  0  0  0  0
 25 62  1  0  0  0  0
 26 77  1  0  0  0  0
 27 86  1  0  0  0  0
 28 87  1  0  0  0  0
 29 31  2  0  0  0  0
 29 86  1  0  0  0  0
 30 88  1  0  0  0  0
 31 89  1  0  0  0  0
 32 71  2  0  0  0  0
 33 72  1  0  0  0  0
 33 75  1  0  0  0  0
 34 76  1  0  0  0  0
 34 81  2  0  0  0  0
 35 49  1  0  0  0  0
 35 78  1  0  0  0  0
 35 82  2  0  0  0  0
 36 65  1  0  0  0  0
 36 73  1  0  0  0  0
 36 83  2  0  0  0  0
 37 66  1  0  0  0  0
 37 79  1  0  0  0  0
 37 84  2  0  0  0  0
 38 74  1  0  0  0  0
 38 77  1  0  0  0  0
 38 85  2  0  0  0  0
 39 42  1  0  0  0  0
 40 49  1  0  0  0  0
 41 73  1  0  0  0  0
 42 44  1  0  0  0  0
 43 45  1  0  0  0  0
 43 46  1  0  0  0  0
 44 48  1  0  0  0  0
 45 50  1  0  0  0  0
 46 74  1  0  0  0  0
 47 50  1  0  0  0  0
 47 74  1  0  0  0  0
 48 78  1  0  0  0  0
 49 73  1  0  0  0  0
 50 72  1  0  0  0  0
 51 66  1  0  0  0  0
 52 67  1  0  0  0  0
 53 67  1  0  0  0  0
 54 67  1  0  0  0  0
 55 68  1  0  0  0  0
 56 68  1  0  0  0  0
 57 69  1  0  0  0  0
 58 69  1  0  0  0  0
 59 70  1  0  0  0  0
 60 70  1  0  0  0  0
 61 80  1  0  0  0  0
 62 68  1  0  0  0  0
 63 69  1  0  0  0  0
 63 70  1  0  0  0  0
 64 69  1  0  0  0  0
 64 87  1  0  0  0  0
 65 67  1  0  0  0  0
 65 79  1  0  0  0  0
 66 80  1  0  0  0  0
 68 70  1  0  0  0  0
 71 72  1  0  0  0  0
M  CHG  1  80   1
M  ISO  4  38 100  64 101  77 100  87 101
M  END
> <Batch ID>
0142

> <Smiles>
CNC(C)C(=O)NC(C(=O)N1Cc2cc([101O:1][101CH2:1]C(C)(C)CC(C)(C)C(C)(C)Cc3cccc([100NH:0][100C:0](=O)N4CCCC(n5nc(-c6ccc(Oc7ccc(F)cc7F)cc6)c(C(N)=O)c5N)C4)c3)ccc2CC1C(=O)NC1CCCc2ccccc21)C(C)(C)C

> <Shape>
0.283

> <Color>
0.070

> <Negative vol penalty>
0.000

$$$$

  -OEChem-04052302573D

 87 96  0     1  0  0  0  0  0999 V2000
  -25.4987  -35.8753   21.6231 C   0  0  0  0  0  0  0  0  0  0  0  0
  -26.1632  -35.0764   20.6981 C   0  0  0  0  0  0  0  0  0  0  0  0
  -23.8238  -10.0080   22.3307 C   0  0  0  0  0  0  0  0  0  0  0  0
  -23.0864  -10.1545   20.0346 C   0  0  0  0  0  0  0  0  0  0  0  0
  -25.2789  -35.4058   22.9173 C   0  0  0  0  0  0  0  0  0  0  0  0
  -26.6093  -33.8079   21.0672 C   0  0  0  0  0  0  0  0  0  0  0  0
  -27.6431  -27.2509   18.3741 C   0  0  0  0  0  0  0  0  0  0  0  0
  -22.9624   -8.9308   22.5386 C   0  0  0  0  0  0  0  0  0  0  0  0
  -22.2250   -9.0772   20.2425 C   0  0  0  0  0  0  0  0  0  0  0  0
  -28.6306  -26.2722   18.2711 C   0  0  0  0  0  0  0  0  0  0  0  0
  -22.9127   -5.6163   21.8716 C   0  0  0  0  0  0  0  0  0  0  0  0
  -23.4126   -4.5096   22.5578 C   0  0  0  0  0  0  0  0  0  0  0  0
  -28.1559  -19.5520   18.1961 C   0  0  0  0  0  0  0  0  0  0  0  0
  -30.1446  -19.4249   16.8301 C   0  0  0  0  0  0  0  0  0  0  0  0
  -28.1248  -25.5347   20.5115 C   0  0  0  0  0  0  0  0  0  0  0  0
  -28.4978  -17.6598   16.7333 C   0  0  0  0  0  0  0  0  0  0  0  0
  -21.7235   -4.8022   24.2603 C   0  0  0  0  0  0  0  0  0  0  0  0
  -23.8857  -10.6199   21.0787 C   0  0  0  0  0  0  0  0  0  0  0  0
  -29.3677  -20.0980   17.7731 C   0  0  0  0  0  0  0  0  0  0  0  0
  -26.1133  -11.6805   20.4300 C   0  0  0  0  0  0  0  0  0  0  0  0
  -25.7140  -34.1271   23.2997 C   0  0  0  0  0  0  0  0  0  0  0  0
  -26.8951  -27.3861   19.5525 C   0  0  0  0  0  0  0  0  0  0  0  0
  -26.3963  -33.3214   22.3682 C   0  0  0  0  0  0  0  0  0  0  0  0
  -27.1265  -26.5142   20.6259 C   0  0  0  0  0  0  0  0  0  0  0  0
  -27.7209  -18.3328   17.6762 C   0  0  0  0  0  0  0  0  0  0  0  0
  -22.1630   -8.4654   21.4945 C   0  0  0  0  0  0  0  0  0  0  0  0
  -28.8736  -25.4157   19.3410 C   0  0  0  0  0  0  0  0  0  0  0  0
  -21.8182   -6.3161   22.3798 C   0  0  0  0  0  0  0  0  0  0  0  0
  -22.8180   -4.1025   23.7521 C   0  0  0  0  0  0  0  0  0  0  0  0
  -29.7096  -18.2058   16.3102 C   0  0  0  0  0  0  0  0  0  0  0  0
  -21.2236   -5.9090   23.5742 C   0  0  0  0  0  0  0  0  0  0  0  0
  -24.7749  -11.7330   20.8634 C   0  0  0  0  0  0  0  0  0  0  0  0
  -26.5114  -12.9943   20.3851 C   0  0  0  0  0  0  0  0  0  0  0  0
  -29.8285  -21.3854   18.3230 C   0  0  0  0  0  0  0  0  0  0  0  0
  -26.9240  -10.5457   20.0977 C   0  0  0  0  0  0  0  0  0  0  0  0
  -26.5063  -29.6870   21.7108 C   0  0  0  0  0  0  0  0  0  0  0  0
  -24.2712  -27.6584   22.8990 C   0  0  0  0  0  0  0  0  0  0  0  0
  -23.1211  -24.4576   23.1803 C   0  0  0  0  0  0  0  0  0  0  0  0
  -25.5975  -18.3174   19.0315 C   0  0  0  0  0  0  0  0  0  0  0  0
  -25.4952  -33.6816   24.7239 C   0  0  0  0  0  0  0  0  0  0  0  0
  -25.8151  -28.4296   19.6379 C   0  0  0  0  0  0  0  0  0  0  0  0
  -26.3373  -26.6048   21.9055 C   0  0  0  0  0  0  0  0  0  0  0  0
  -25.6686  -32.1784   24.9253 C   0  0  0  0  0  0  0  0  0  0  0  0
  -24.2616  -17.1796   22.1296 C   0  0  0  0  0  0  0  0  0  0  0  0
  -32.1176  -20.6014   20.9946 C   0  0  0  0  0  0  0  0  0  0  0  0
  -26.9393  -31.6906   24.2368 C   0  0  0  0  0  0  0  0  0  0  0  0
  -24.3862  -15.6568   22.0407 C   0  0  0  0  0  0  0  0  0  0  0  0
  -31.7389  -22.0312   21.3616 C   0  0  0  0  0  0  0  0  0  0  0  0
  -30.9719  -20.1508   20.1005 C   0  0  0  0  0  0  0  0  0  0  0  0
  -23.9082  -17.7995   20.7789 C   0  0  0  0  0  0  0  0  0  0  0  0
  -24.9192  -15.8982   19.5821 C   0  0  0  0  0  0  0  0  0  0  0  0
  -26.8734  -31.9299   22.7235 C   0  0  1  0  0  0  0  0  0  0  0  0
  -25.4652  -28.8113   21.0729 C   0  0  1  0  0  0  0  0  0  0  0  0
  -25.3379  -15.2346   20.9043 C   0  0  2  0  0  0  0  0  0  0  0  0
  -31.1370  -22.6108   20.0649 C   0  0  2  0  0  0  0  0  0  0  0  0
  -32.2088  -23.2168   19.1587 C   0  0  0  0  0  0  0  0  0  0  0  0
  -21.2941  -23.1075   24.2464 C   0  0  0  0  0  0  0  0  0  0  0  0
  -25.6826  -27.8817   25.5949 C   0  0  0  0  0  0  0  0  0  0  0  0
  -24.4366  -25.8412   26.3377 C   0  0  0  0  0  0  0  0  0  0  0  0
  -23.1850  -27.9086   25.7196 C   0  0  0  0  0  0  0  0  0  0  0  0
  -22.1036  -23.5466   20.5548 C   0  0  0  0  0  0  0  0  0  0  0  0
  -30.0331  -23.6168   20.3779 C   0  0  0  0  0  0  0  0  0  1  0  0
  -24.2767  -26.5307   23.9025 C   0  0  1  0  0  0  0  0  0  0  0  0
  -21.7340  -23.8666   23.0042 C   0  0  2  0  0  0  0  0  0  0  0  0
  -24.4116  -27.0398   25.3654 C   0  0  0  0  0  0  0  0  0  0  0  0
  -24.3512  -12.9813   21.0786 N   0  0  0  0  0  0  0  0  0  0  0  0
  -25.4296  -13.7253   20.7793 N   0  0  0  0  0  0  0  0  0  0  0  0
  -30.5789  -21.3955   19.4132 N   0  0  0  0  0  0  0  0  0  0  0  0
  -25.2965  -27.6455   21.9427 N   0  0  0  0  0  0  0  0  0  0  0  0
  -24.8548  -17.3583   19.7522 N   0  0  0  0  0  0  0  0  0  0  0  0
  -27.6779  -13.5839   20.0473 N   0  0  0  0  0  0  0  0  0  0  0  0
  -26.3580   -9.2675   20.1987 N   0  0  0  0  0  0  0  0  0  0  0  0
  -26.4893  -17.7786   18.1047 N   0  0  0  0  0  0  0  0  0  0  0  0
  -26.0395  -30.9312   22.0897 N   0  0  0  0  0  0  0  0  0  0  0  0
  -23.0685  -25.7532   23.6495 N   0  0  0  0  0  0  0  0  0  0  0  0
  -29.4845  -22.5165   17.7142 N   0  3  0  0  0  0  0  0  0  0  0  0
  -21.7143  -22.9269   21.8477 N   0  3  0  0  0  0  0  0  0  0  0  0
  -28.1203  -10.6606   19.7380 O   0  0  0  0  0  0  0  0  0  0  0  0
  -27.6481  -29.2646   21.8504 O   0  0  0  0  0  0  0  0  0  0  0  0
  -23.3856  -28.5151   22.9568 O   0  0  0  0  0  0  0  0  0  0  0  0
  -24.1487  -23.8313   22.9305 O   0  0  0  0  0  0  0  0  0  0  0  0
  -25.4726  -19.5266   19.2417 O   0  0  0  0  0  0  0  0  0  0  0  0
  -21.3225   -7.4141   21.6970 O   0  0  0  0  0  0  0  0  0  0  0  0
  -29.8374  -24.4600   19.2434 O   0  0  0  0  0  0  0  0  0  1  0  0
  -23.2973   -3.0388   24.4102 F   0  0  0  0  0  0  0  0  0  0  0  0
  -30.4557  -17.5596   15.4048 F   0  0  0  0  0  0  0  0  0  0  0  0
  -20.1712   -6.5765   24.0667 F   0  0  0  0  0  0  0  0  0  0  0  0
  1  2  1  0  0  0  0
  1  5  2  0  0  0  0
  2  6  2  0  0  0  0
  3  8  2  0  0  0  0
  3 18  1  0  0  0  0
  4  9  1  0  0  0  0
  4 18  2  0  0  0  0
  5 21  1  0  0  0  0
  6 23  1  0  0  0  0
  7 10  2  0  0  0  0
  7 22  1  0  0  0  0
  8 26  1  0  0  0  0
  9 26  2  0  0  0  0
 10 27  1  0  0  0  0
 11 12  2  0  0  0  0
 11 28  1  0  0  0  0
 12 29  1  0  0  0  0
 13 19  2  0  0  0  0
 13 25  1  0  0  0  0
 14 19  1  0  0  0  0
 14 30  2  0  0  0  0
 15 24  1  0  0  0  0
 15 27  2  0  0  0  0
 16 25  2  0  0  0  0
 16 30  1  0  0  0  0
 17 29  2  0  0  0  0
 17 31  1  0  0  0  0
 18 32  1  0  0  0  0
 19 34  1  0  0  0  0
 20 32  1  0  0  0  0
 20 33  2  0  0  0  0
 20 35  1  0  0  0  0
 21 23  2  0  0  0  0
 21 40  1  0  0  0  0
 22 24  2  0  0  0  0
 22 41  1  0  0  0  0
 23 52  1  0  0  0  0
 24 42  1  0  0  0  0
 25 73  1  0  0  0  0
 26 83  1  0  0  0  0
 27 84  1  0  0  0  0
 28 31  2  0  0  0  0
 28 83  1  0  0  0  0
 29 85  1  0  0  0  0
 30 86  1  0  0  0  0
 31 87  1  0  0  0  0
 32 66  2  0  0  0  0
 33 67  1  0  0  0  0
 33 71  1  0  0  0  0
 34 68  1  0  0  0  0
 34 76  2  0  0  0  0
 35 72  1  0  0  0  0
 35 78  2  0  0  0  0
 36 53  1  0  0  0  0
 36 74  1  0  0  0  0
 36 79  2  0  0  0  0
 37 63  1  0  0  0  0
 37 69  1  0  0  0  0
 37 80  2  0  0  0  0
 38 64  1  0  0  0  0
 38 75  1  0  0  0  0
 38 81  2  0  0  0  0
 39 70  1  0  0  0  0
 39 73  1  0  0  0  0
 39 82  2  0  0  0  0
 40 43  1  0  0  0  0
 41 53  1  0  0  0  0
 42 69  1  0  0  0  0
 43 46  1  0  0  0  0
 44 47  1  0  0  0  0
 44 50  1  0  0  0  0
 45 48  1  0  0  0  0
 45 49  1  0  0  0  0
 46 52  1  0  0  0  0
 47 54  1  0  0  0  0
 48 55  1  0  0  0  0
 49 68  1  0  0  0  0
 50 70  1  0  0  0  0
 51 54  1  0  0  0  0
 51 70  1  0  0  0  0
 52 74  1  0  0  0  0
 53 69  1  0  0  0  0
 54 67  1  0  0  0  0
 55 56  1  0  0  0  0
 55 62  1  0  0  0  0
 55 68  1  0  0  0  0
 57 64  1  0  0  0  0
 58 65  1  0  0  0  0
 59 65  1  0  0  0  0
 60 65  1  0  0  0  0
 61 77  1  0  0  0  0
 62 84  1  0  0  0  0
 63 65  1  0  0  0  0
 63 75  1  0  0  0  0
 64 77  1  0  0  0  0
 66 67  1  0  0  0  0
M  CHG  2  76   1  77   1
M  ISO  4  39 100  62 101  73 100  84 101
M  END
> <Batch ID>
0142

> <Smiles>
CNC(C)C(=O)NC(C(=O)N1Cc2cc([101O:1][101CH2:1]C3(C)CCCN3C(=N)c3cc(F)cc([100NH:0][100C:0](=O)N4CCCC(n5nc(-c6ccc(Oc7ccc(F)cc7F)cc6)c(C(N)=O)c5N)C4)c3)ccc2CC1C(=O)NC1CCCc2ccccc21)C(C)(C)C

> <Shape>
0.257

> <Color>
0.084

> <Negative vol penalty>
0.000

$$$$

  -OEChem-04052302573D

 91 99  0     1  0  0  0  0  0999 V2000
  -17.8293  -31.1686   24.7422 C   0  0  0  0  0  0  0  0  0  0  0  0
  -19.2088  -31.3475   24.7217 C   0  0  0  0  0  0  0  0  0  0  0  0
  -24.6634   -8.4100   21.4659 C   0  0  0  0  0  0  0  0  0  0  0  0
  -22.9452  -10.0642   21.0802 C   0  0  0  0  0  0  0  0  0  0  0  0
  -17.2664  -30.0313   24.1646 C   0  0  0  0  0  0  0  0  0  0  0  0
  -20.0263  -30.3886   24.1247 C   0  0  0  0  0  0  0  0  0  0  0  0
  -26.1531  -29.7729   20.4641 C   0  0  0  0  0  0  0  0  0  0  0  0
  -23.8297   -7.7555   22.3726 C   0  0  0  0  0  0  0  0  0  0  0  0
  -22.1115   -9.4096   21.9869 C   0  0  0  0  0  0  0  0  0  0  0  0
  -27.3563  -29.0690   20.4885 C   0  0  0  0  0  0  0  0  0  0  0  0
  -21.1923   -5.6429   22.2543 C   0  0  0  0  0  0  0  0  0  0  0  0
  -21.1010   -4.2539   22.1648 C   0  0  0  0  0  0  0  0  0  0  0  0
  -26.2668  -27.1826   19.4523 C   0  0  0  0  0  0  0  0  0  0  0  0
  -25.2307  -20.3558   19.2190 C   0  0  0  0  0  0  0  0  0  0  0  0
  -24.8785  -17.9746   19.4259 C   0  0  0  0  0  0  0  0  0  0  0  0
  -27.0937  -18.8970   19.7072 C   0  0  0  0  0  0  0  0  0  0  0  0
  -21.9261   -4.0540   24.4268 C   0  0  0  0  0  0  0  0  0  0  0  0
  -24.2212   -9.5645   20.8198 C   0  0  0  0  0  0  0  0  0  0  0  0
  -25.1752  -10.0152   18.4972 C   0  0  0  0  0  0  0  0  0  0  0  0
  -18.0767  -29.0627   23.5516 C   0  0  0  0  0  0  0  0  0  0  0  0
  -24.9932  -29.1820   19.9427 C   0  0  0  0  0  0  0  0  0  0  0  0
  -19.4738  -29.2366   23.5396 C   0  0  0  0  0  0  0  0  0  0  0  0
  -25.0507  -27.8821   19.4201 C   0  0  0  0  0  0  0  0  0  0  0  0
  -24.3749  -19.2546   19.1942 C   0  0  0  0  0  0  0  0  0  0  0  0
  -26.5901  -20.1770   19.4754 C   0  0  0  0  0  0  0  0  0  0  0  0
  -26.2379  -17.7958   19.6825 C   0  0  0  0  0  0  0  0  0  0  0  0
  -22.5537   -8.2552   22.6330 C   0  0  0  0  0  0  0  0  0  0  0  0
  -27.4126  -27.7726   19.9853 C   0  0  0  0  0  0  0  0  0  0  0  0
  -21.6505   -6.2374   23.4300 C   0  0  0  0  0  0  0  0  0  0  0  0
  -21.4679   -3.4594   23.2510 C   0  0  0  0  0  0  0  0  0  0  0  0
  -22.0174   -5.4430   24.5162 C   0  0  0  0  0  0  0  0  0  0  0  0
  -25.0821  -10.2414   19.8835 C   0  0  0  0  0  0  0  0  0  0  0  0
  -26.1281  -10.9059   18.0671 C   0  0  0  0  0  0  0  0  0  0  0  0
  -24.4638   -9.0832   17.6720 C   0  0  0  0  0  0  0  0  0  0  0  0
  -22.1435  -28.4122   21.1217 C   0  0  0  0  0  0  0  0  0  0  0  0
  -21.4938  -27.6831   18.0283 C   0  0  0  0  0  0  0  0  0  0  0  0
  -28.8269  -21.2985   19.7378 C   0  0  0  0  0  0  0  0  0  0  0  0
  -22.6740  -26.7980   14.9509 C   0  0  0  0  0  0  0  0  0  0  0  0
  -28.0720  -16.1439   20.1859 C   0  0  0  0  0  0  0  0  0  0  0  0
  -17.4262  -27.8268   22.9823 C   0  0  0  0  0  0  0  0  0  0  0  0
  -23.7094  -29.9644   19.8991 C   0  0  0  0  0  0  0  0  0  0  0  0
  -23.8385  -27.2100   18.8308 C   0  0  0  0  0  0  0  0  0  0  0  0
  -18.3332  -27.0405   22.0392 C   0  0  0  0  0  0  0  0  0  0  0  0
  -30.0312  -13.2338   19.5774 C   0  0  0  0  0  0  0  0  0  0  0  0
  -19.7205  -26.8714   22.6504 C   0  0  0  0  0  0  0  0  0  0  0  0
  -28.9925  -12.1166   19.4546 C   0  0  0  0  0  0  0  0  0  0  0  0
  -29.6341  -14.2638   20.6334 C   0  0  0  0  0  0  0  0  0  0  0  0
  -27.2497  -13.7124   20.3510 C   0  0  0  0  0  0  0  0  0  0  0  0
  -20.3920  -28.2308   22.8795 C   0  0  1  0  0  0  0  0  0  0  0  0
  -22.4714  -29.0770   19.8146 C   0  0  1  0  0  0  0  0  0  0  0  0
  -27.5741  -12.6854   19.2538 C   0  0  2  0  0  0  0  0  0  0  0  0
  -21.1160  -19.5251   17.1420 C   0  0  0  0  0  0  0  0  0  0  0  0
  -21.8995  -26.2356   12.6311 C   0  0  0  0  0  0  0  0  0  0  0  0
  -20.6083  -24.9277   18.9945 C   0  0  0  0  0  0  0  0  0  0  0  0
  -20.7606  -24.1256   16.6277 C   0  0  0  0  0  0  0  0  0  0  0  0
  -19.1495  -25.9326   17.2291 C   0  0  0  0  0  0  0  0  0  0  0  0
  -28.2861  -23.1527   21.9111 C   0  0  0  0  0  0  0  0  0  0  0  0
  -30.7538  -22.8483   21.8185 C   0  0  0  0  0  0  0  0  0  0  0  0
  -30.9939  -25.3488   19.9760 C   0  0  0  0  0  0  0  0  0  0  0  0
  -29.9363  -25.7778   22.1793 C   0  0  0  0  0  0  0  0  0  0  0  0
  -24.1595  -29.0733   13.7784 C   0  0  0  0  0  0  0  0  0  0  0  0
  -22.9215  -19.4461   18.9185 C   0  0  0  0  0  0  0  0  0  0  0  0
  -29.4167  -22.7067   19.6816 C   0  0  0  0  0  0  0  0  0  0  0  0
  -22.6024  -19.3638   17.4181 C   0  0  0  0  0  0  0  0  0  0  0  0
  -28.4987  -25.6614   20.1235 C   0  0  0  0  0  0  0  0  0  1  0  0
  -21.6242  -26.4473   17.1711 C   0  0  1  0  0  0  0  0  0  0  0  0
  -22.3755  -27.3383   13.5640 C   0  0  2  0  0  0  0  0  0  0  0  0
  -20.5582  -25.3700   17.5184 C   0  0  0  0  0  0  0  0  0  0  0  0
  -29.5443  -23.4463   21.0547 C   0  0  0  0  0  0  0  0  0  0  0  0
  -29.7381  -25.0345   20.8321 C   0  0  0  0  0  0  0  0  0  0  0  0
  -25.9100  -11.2006   20.3061 N   0  0  0  0  0  0  0  0  0  0  0  0
  -26.5324  -11.5849   19.1787 N   0  0  0  0  0  0  0  0  0  0  0  0
  -22.6051  -28.0138   18.8166 N   0  0  0  0  0  0  0  0  0  0  0  0
  -28.2809  -14.7616   20.3765 N   0  0  0  0  0  0  0  0  0  0  0  0
  -26.6513  -11.1667   16.8503 N   0  0  0  0  0  0  0  0  0  0  0  0
  -23.5193   -8.2418   18.2756 N   0  0  0  0  0  0  0  0  0  0  0  0
  -27.4579  -21.2946   19.5003 N   0  0  0  0  0  0  0  0  0  0  0  0
  -26.7497  -16.4954   19.9166 N   0  0  0  0  0  0  0  0  0  0  0  0
  -20.9070  -28.7566   21.6334 N   0  0  0  0  0  0  0  0  0  0  0  0
  -21.5823  -26.9047   15.7864 N   0  0  0  0  0  0  0  0  0  0  0  0
  -23.5968  -27.9572   12.9754 N   0  3  0  0  0  0  0  0  0  0  0  0
  -24.6716   -8.9877   16.4386 O   0  0  0  0  0  0  0  0  0  0  0  0
  -22.9519  -27.6426   21.6276 O   0  0  0  0  0  0  0  0  0  0  0  0
  -20.4472  -28.3351   17.9942 O   0  0  0  0  0  0  0  0  0  0  0  0
  -29.5465  -20.3310   19.9706 O   0  0  0  0  0  0  0  0  0  0  0  0
  -23.7651  -26.3248   15.2609 O   0  0  0  0  0  0  0  0  0  0  0  0
  -29.0024  -16.9529   20.2295 O   0  0  0  0  0  0  0  0  0  0  0  0
  -21.7398   -7.6166   23.5175 O   0  0  0  0  0  0  0  0  0  0  0  0
  -28.5925  -27.0790   20.0086 O   0  0  0  0  0  0  0  0  0  1  0  0
  -21.3788   -2.1257   23.1655 F   0  0  0  0  0  0  0  0  0  0  0  0
  -22.4573   -6.0085   25.6487 F   0  0  0  0  0  0  0  0  0  0  0  0
  1  2  1  0  0  0  0
  1  5  2  0  0  0  0
  2  6  2  0  0  0  0
  3  8  2  0  0  0  0
  3 18  1  0  0  0  0
  4  9  1  0  0  0  0
  4 18  2  0  0  0  0
  5 20  1  0  0  0  0
  6 22  1  0  0  0  0
  7 10  2  0  0  0  0
  7 21  1  0  0  0  0
  8 27  1  0  0  0  0
  9 27  2  0  0  0  0
 10 28  1  0  0  0  0
 11 12  2  0  0  0  0
 11 29  1  0  0  0  0
 12 30  1  0  0  0  0
 13 23  1  0  0  0  0
 13 28  2  0  0  0  0
 14 24  1  0  0  0  0
 14 25  2  0  0  0  0
 15 24  2  0  0  0  0
 15 26  1  0  0  0  0
 16 25  1  0  0  0  0
 16 26  2  0  0  0  0
 17 30  2  0  0  0  0
 17 31  1  0  0  0  0
 18 32  1  0  0  0  0
 19 32  1  0  0  0  0
 19 33  2  0  0  0  0
 19 34  1  0  0  0  0
 20 22  2  0  0  0  0
 20 40  1  0  0  0  0
 21 23  2  0  0  0  0
 21 41  1  0  0  0  0
 22 49  1  0  0  0  0
 23 42  1  0  0  0  0
 24 62  1  0  0  0  0
 25 77  1  0  0  0  0
 26 78  1  0  0  0  0
 27 88  1  0  0  0  0
 28 89  1  0  0  0  0
 29 31  2  0  0  0  0
 29 88  1  0  0  0  0
 30 90  1  0  0  0  0
 31 91  1  0  0  0  0
 32 71  2  0  0  0  0
 33 72  1  0  0  0  0
 33 75  1  0  0  0  0
 34 76  1  0  0  0  0
 34 82  2  0  0  0  0
 35 50  1  0  0  0  0
 35 79  1  0  0  0  0
 35 83  2  0  0  0  0
 36 66  1  0  0  0  0
 36 73  1  0  0  0  0
 36 84  2  0  0  0  0
 37 63  1  0  0  0  0
 37 77  1  0  0  0  0
 37 85  2  0  0  0  0
 38 67  1  0  0  0  0
 38 80  1  0  0  0  0
 38 86  2  0  0  0  0
 39 74  1  0  0  0  0
 39 78  1  0  0  0  0
 39 87  2  0  0  0  0
 40 43  1  0  0  0  0
 41 50  1  0  0  0  0
 42 73  1  0  0  0  0
 43 45  1  0  0  0  0
 44 46  1  0  0  0  0
 44 47  1  0  0  0  0
 45 49  1  0  0  0  0
 46 51  1  0  0  0  0
 47 74  1  0  0  0  0
 48 51  1  0  0  0  0
 48 74  1  0  0  0  0
 49 79  1  0  0  0  0
 50 73  1  0  0  0  0
 51 72  1  0  0  0  0
 52 64  1  0  0  0  0
 53 67  1  0  0  0  0
 54 68  1  0  0  0  0
 55 68  1  0  0  0  0
 56 68  1  0  0  0  0
 57 69  1  0  0  0  0
 58 69  1  0  0  0  0
 59 70  1  0  0  0  0
 60 70  1  0  0  0  0
 61 81  1  0  0  0  0
 62 64  1  0  0  0  0
 63 69  1  0  0  0  0
 65 70  1  0  0  0  0
 65 89  1  0  0  0  0
 66 68  1  0  0  0  0
 66 80  1  0  0  0  0
 67 81  1  0  0  0  0
 69 70  1  0  0  0  0
 71 72  1  0  0  0  0
M  CHG  1  81   1
M  ISO  4  39 100  65 101  78 100  89 101
M  END
> <Batch ID>
0142

> <Smiles>
CCCc1cc(NC(=O)CC(C)(C)C(C)(C)[101CH2:1][101O:1]c2ccc3c(c2)CN(C(=O)C(NC(=O)C(C)NC)C(C)(C)C)C(C(=O)NC2CCCc4ccccc42)C3)cc([100NH:0][100C:0](=O)N2CCCC(n3nc(-c4ccc(Oc5ccc(F)cc5F)cc4)c(C(N)=O)c3N)C2)c1

> <Shape>
0.305

> <Color>
0.127

> <Negative vol penalty>
0.000

$$$$

  -OEChem-04052302573D

 87 95  0     1  0  0  0  0  0999 V2000
  -23.1216  -10.7761   18.3133 C   0  0  0  0  0  0  0  0  0  0  0  0
  -22.4881  -12.0078   18.4436 C   0  0  0  0  0  0  0  0  0  0  0  0
  -29.7110  -28.7886   18.8123 C   0  0  0  0  0  0  0  0  0  0  0  0
  -29.3355  -27.3173   20.6915 C   0  0  0  0  0  0  0  0  0  0  0  0
  -24.2767  -10.5066   19.0461 C   0  0  0  0  0  0  0  0  0  0  0  0
  -23.0087  -12.9704   19.3077 C   0  0  0  0  0  0  0  0  0  0  0  0
  -22.9446  -19.0436   18.5218 C   0  0  0  0  0  0  0  0  0  0  0  0
  -31.0606  -28.4361   18.8060 C   0  0  0  0  0  0  0  0  0  0  0  0
  -30.6851  -26.9649   20.6852 C   0  0  0  0  0  0  0  0  0  0  0  0
  -22.1106  -20.0448   19.0176 C   0  0  0  0  0  0  0  0  0  0  0  0
  -34.1025  -25.9503   21.3937 C   0  0  0  0  0  0  0  0  0  0  0  0
  -34.7676  -25.9094   22.6190 C   0  0  0  0  0  0  0  0  0  0  0  0
  -23.6893  -20.4736   20.7904 C   0  0  0  0  0  0  0  0  0  0  0  0
  -18.8388  -28.1728   21.6734 C   0  0  0  0  0  0  0  0  0  0  0  0
  -34.2777  -28.2501   22.9631 C   0  0  0  0  0  0  0  0  0  0  0  0
  -28.8484  -28.2292   19.7551 C   0  0  0  0  0  0  0  0  0  0  0  0
  -26.4079  -27.9647   19.0614 C   0  0  0  0  0  0  0  0  0  0  0  0
  -24.8172  -11.4699   19.9124 C   0  0  0  0  0  0  0  0  0  0  0  0
  -24.1541  -18.7419   19.1640 C   0  0  0  0  0  0  0  0  0  0  0  0
  -24.1714  -12.7130   20.0538 C   0  0  0  0  0  0  0  0  0  0  0  0
  -24.5381  -19.4698   20.2993 C   0  0  0  0  0  0  0  0  0  0  0  0
  -18.5933  -26.7743   21.5557 C   0  0  0  0  0  0  0  0  0  0  0  0
  -31.5476  -27.5243   19.7425 C   0  0  0  0  0  0  0  0  0  0  0  0
  -22.4815  -20.7580   20.1537 C   0  0  0  0  0  0  0  0  0  0  0  0
  -33.5250  -27.1411   20.9529 C   0  0  0  0  0  0  0  0  0  0  0  0
  -34.8552  -27.0593   23.4038 C   0  0  0  0  0  0  0  0  0  0  0  0
  -33.6126  -28.2910   21.7376 C   0  0  0  0  0  0  0  0  0  0  0  0
  -27.4544  -28.5933   19.7624 C   0  0  0  0  0  0  0  0  0  0  0  0
  -19.6212  -28.4705   22.7673 C   0  0  0  0  0  0  0  0  0  0  0  0
  -19.1976  -26.0562   22.5642 C   0  0  0  0  0  0  0  0  0  0  0  0
  -25.2873  -28.6827   19.4007 C   0  0  0  0  0  0  0  0  0  0  0  0
  -26.4453  -26.8328   18.1821 C   0  0  0  0  0  0  0  0  0  0  0  0
  -25.3503  -16.1718   20.6018 C   0  0  0  0  0  0  0  0  0  0  0  0
  -28.0341  -17.9873   20.7560 C   0  0  0  0  0  0  0  0  0  0  0  0
  -29.4272  -21.1026   20.7772 C   0  0  0  0  0  0  0  0  0  0  0  0
  -22.1131  -31.2352   23.2158 C   0  0  0  0  0  0  0  0  0  0  0  0
  -26.0411  -11.1154   20.7193 C   0  0  0  0  0  0  0  0  0  0  0  0
  -25.0552  -17.6772   18.6011 C   0  0  0  0  0  0  0  0  0  0  0  0
  -25.8359  -19.1985   21.0138 C   0  0  0  0  0  0  0  0  0  0  0  0
  -26.7395  -12.3273   21.3308 C   0  0  0  0  0  0  0  0  0  0  0  0
  -24.8147  -33.0945   21.8296 C   0  0  0  0  0  0  0  0  0  0  0  0
  -25.7223  -13.2534   21.9899 C   0  0  0  0  0  0  0  0  0  0  0  0
  -25.6586  -32.0368   21.1162 C   0  0  0  0  0  0  0  0  0  0  0  0
  -24.2078  -32.5543   23.1227 C   0  0  0  0  0  0  0  0  0  0  0  0
  -24.2818  -30.2478   22.2576 C   0  0  0  0  0  0  0  0  0  0  0  0
  -24.7196  -13.7920   20.9623 C   0  0  1  0  0  0  0  0  0  0  0  0
  -26.0213  -17.1048   19.6338 C   0  0  1  0  0  0  0  0  0  0  0  0
  -24.8692  -30.7286   20.9197 C   0  0  2  0  0  0  0  0  0  0  0  0
  -31.6422  -22.2688   20.9529 C   0  0  0  0  0  0  0  0  0  0  0  0
  -17.8658  -27.0170   19.1561 C   0  0  0  0  0  0  0  0  0  0  0  0
  -16.2703  -26.0855   20.8657 C   0  0  0  0  0  0  0  0  0  0  0  0
  -18.1784  -24.7174   20.0481 C   0  0  0  0  0  0  0  0  0  0  0  0
  -20.0201  -24.2423   24.0817 C   0  0  0  0  0  0  0  0  0  0  0  0
  -17.7745  -23.9567   23.0728 C   0  0  0  0  0  0  0  0  0  0  0  0
  -28.0824  -17.4382   23.7570 C   0  0  0  0  0  0  0  0  0  0  0  0
  -29.6894  -19.3414   24.0088 C   0  0  0  0  0  0  0  0  0  0  0  0
  -30.3204  -17.3507   22.6443 C   0  0  0  0  0  0  0  0  0  0  0  0
  -29.1235  -22.3312   18.1019 C   0  0  0  0  0  0  0  0  0  0  0  0
  -20.0922  -29.7947   23.2283 C   0  0  0  0  0  0  0  0  0  0  0  0
  -19.5166  -22.2636   21.5640 C   0  0  0  0  0  0  0  0  0  0  0  0
  -19.8324  -23.7632   21.6173 C   0  0  0  0  0  0  0  0  0  0  0  0
  -20.2666  -21.5798   20.4270 C   0  0  0  0  0  0  0  0  0  1  0  0
  -28.6019  -18.9739   21.7476 C   0  0  1  0  0  0  0  0  0  0  0  0
  -30.6000  -21.6868   20.0107 C   0  0  2  0  0  0  0  0  0  0  0  0
  -17.7804  -26.1747   20.4705 C   0  0  0  0  0  0  0  0  0  0  0  0
  -19.1853  -24.5365   22.8097 C   0  0  0  0  0  0  0  0  0  0  0  0
  -29.1481  -18.2801   23.0273 C   0  0  0  0  0  0  0  0  0  0  0  0
  -27.0360  -29.6310   20.4919 N   0  0  0  0  0  0  0  0  0  0  0  0
  -25.7142  -29.6600   20.2510 N   0  0  0  0  0  0  0  0  0  0  0  0
  -26.6797  -18.1435   20.4286 N   0  0  0  0  0  0  0  0  0  0  0  0
  -23.4715  -31.3140   22.8670 N   0  0  0  0  0  0  0  0  0  0  0  0
  -23.9883  -28.5673   19.0517 N   0  0  0  0  0  0  0  0  0  0  0  0
  -27.6795  -26.2132   17.9428 N   0  0  0  0  0  0  0  0  0  0  0  0
  -25.3166  -14.8554   20.1829 N   0  0  0  0  0  0  0  0  0  0  0  0
  -29.5963  -19.7561   21.0212 N   0  0  0  0  0  0  0  0  0  0  0  0
  -21.4887  -30.0264   22.9335 N   0  0  0  0  0  0  0  0  0  0  0  0
  -30.1348  -22.7693   19.0981 N   0  3  0  0  0  0  0  0  0  0  0  0
  -25.4175  -26.3941   17.6124 O   0  0  0  0  0  0  0  0  0  0  0  0
  -24.8980  -16.6133   21.6517 O   0  0  0  0  0  0  0  0  0  0  0  0
  -28.7670  -17.1147   20.2838 O   0  0  0  0  0  0  0  0  0  0  0  0
  -28.4596  -21.7745   21.1280 O   0  0  0  0  0  0  0  0  0  0  0  0
  -21.5007  -32.1745   23.7352 O   0  0  0  0  0  0  0  0  0  0  0  0
  -32.8644  -27.1799   19.7365 O   0  0  0  0  0  0  0  0  0  0  0  0
  -21.6691  -21.7353   20.6401 O   0  0  0  0  0  0  0  0  0  1  0  0
  -35.4925  -27.0194   24.5812 F   0  0  0  0  0  0  0  0  0  0  0  0
  -33.0588  -29.4376   21.3201 F   0  0  0  0  0  0  0  0  0  0  0  0
  -20.0565  -27.0672   23.6469 S   0  0  0  0  0  0  0  0  0  0  0  0
  1  2  1  0  0  0  0
  1  5  2  0  0  0  0
  2  6  2  0  0  0  0
  3  8  2  0  0  0  0
  3 16  1  0  0  0  0
  4  9  1  0  0  0  0
  4 16  2  0  0  0  0
  5 18  1  0  0  0  0
  6 20  1  0  0  0  0
  7 10  2  0  0  0  0
  7 19  1  0  0  0  0
  8 23  1  0  0  0  0
  9 23  2  0  0  0  0
 10 24  1  0  0  0  0
 11 12  2  0  0  0  0
 11 25  1  0  0  0  0
 12 26  1  0  0  0  0
 13 21  1  0  0  0  0
 13 24  2  0  0  0  0
 14 22  1  0  0  0  0
 14 29  2  0  0  0  0
 15 26  2  0  0  0  0
 15 27  1  0  0  0  0
 16 28  1  0  0  0  0
 17 28  1  0  0  0  0
 17 31  2  0  0  0  0
 17 32  1  0  0  0  0
 18 20  2  0  0  0  0
 18 37  1  0  0  0  0
 19 21  2  0  0  0  0
 19 38  1  0  0  0  0
 20 46  1  0  0  0  0
 21 39  1  0  0  0  0
 22 30  2  0  0  0  0
 22 65  1  0  0  0  0
 23 83  1  0  0  0  0
 24 84  1  0  0  0  0
 25 27  2  0  0  0  0
 25 83  1  0  0  0  0
 26 85  1  0  0  0  0
 27 86  1  0  0  0  0
 28 68  2  0  0  0  0
 29 59  1  0  0  0  0
 29 87  1  0  0  0  0
 30 66  1  0  0  0  0
 30 87  1  0  0  0  0
 31 69  1  0  0  0  0
 31 72  1  0  0  0  0
 32 73  1  0  0  0  0
 32 78  2  0  0  0  0
 33 47  1  0  0  0  0
 33 74  1  0  0  0  0
 33 79  2  0  0  0  0
 34 63  1  0  0  0  0
 34 70  1  0  0  0  0
 34 80  2  0  0  0  0
 35 64  1  0  0  0  0
 35 75  1  0  0  0  0
 35 81  2  0  0  0  0
 36 71  1  0  0  0  0
 36 76  1  0  0  0  0
 36 82  2  0  0  0  0
 37 40  1  0  0  0  0
 38 47  1  0  0  0  0
 39 70  1  0  0  0  0
 40 42  1  0  0  0  0
 41 43  1  0  0  0  0
 41 44  1  0  0  0  0
 42 46  1  0  0  0  0
 43 48  1  0  0  0  0
 44 71  1  0  0  0  0
 45 48  1  0  0  0  0
 45 71  1  0  0  0  0
 46 74  1  0  0  0  0
 47 70  1  0  0  0  0
 48 69  1  0  0  0  0
 49 64  1  0  0  0  0
 50 65  1  0  0  0  0
 51 65  1  0  0  0  0
 52 65  1  0  0  0  0
 53 66  1  0  0  0  0
 54 66  1  0  0  0  0
 55 67  1  0  0  0  0
 56 67  1  0  0  0  0
 57 67  1  0  0  0  0
 58 77  1  0  0  0  0
 59 76  1  0  0  0  0
 60 61  1  0  0  0  0
 60 62  1  0  0  0  0
 61 66  1  0  0  0  0
 62 84  1  0  0  0  0
 63 67  1  0  0  0  0
 63 75  1  0  0  0  0
 64 77  1  0  0  0  0
 68 69  1  0  0  0  0
M  CHG  1  77   1
M  ISO  4  36 100  62 101  76 100  84 101
M  END
> <Batch ID>
0142

> <Smiles>
CNC(C)C(=O)NC(C(=O)N1Cc2cc([101O:1][101CH2:1]CCC(C)(C)c3sc(C[100NH:0][100C:0](=O)N4CCCC(n5nc(-c6ccc(Oc7ccc(F)cc7F)cc6)c(C(N)=O)c5N)C4)cc3C(C)(C)C)ccc2CC1C(=O)NC1CCCc2ccccc21)C(C)(C)C

> <Shape>
0.233

> <Color>
0.072

> <Negative vol penalty>
0.000

$$$$

  -OEChem-04052302573D

 88 97  0     1  0  0  0  0  0999 V2000
  -28.8252  -29.0978   27.3968 C   0  0  0  0  0  0  0  0  0  0  0  0
  -28.6847  -28.4840   26.1562 C   0  0  0  0  0  0  0  0  0  0  0  0
  -23.7241   -9.0815   20.4592 C   0  0  0  0  0  0  0  0  0  0  0  0
  -23.2462  -10.8973   21.9797 C   0  0  0  0  0  0  0  0  0  0  0  0
  -30.3467  -19.9324   19.7012 C   0  0  0  0  0  0  0  0  0  0  0  0
  -27.6990  -29.5622   28.0750 C   0  0  0  0  0  0  0  0  0  0  0  0
  -27.4178  -28.3332   25.5937 C   0  0  0  0  0  0  0  0  0  0  0  0
  -27.3147  -29.5597   20.6814 C   0  0  0  0  0  0  0  0  0  0  0  0
  -30.2789  -18.5394   19.6822 C   0  0  0  0  0  0  0  0  0  0  0  0
  -22.9464   -8.2247   21.2380 C   0  0  0  0  0  0  0  0  0  0  0  0
  -22.4684  -10.0404   22.7585 C   0  0  0  0  0  0  0  0  0  0  0  0
  -27.8184  -28.6224   19.7805 C   0  0  0  0  0  0  0  0  0  0  0  0
  -19.6612   -7.5703   21.6987 C   0  0  0  0  0  0  0  0  0  0  0  0
  -18.7669   -6.7273   21.0391 C   0  0  0  0  0  0  0  0  0  0  0  0
  -25.5698  -27.9130   19.2707 C   0  0  0  0  0  0  0  0  0  0  0  0
  -28.0966  -18.6596   18.6526 C   0  0  0  0  0  0  0  0  0  0  0  0
  -19.8956   -4.8035   21.9677 C   0  0  0  0  0  0  0  0  0  0  0  0
  -23.8740  -10.4178   20.8301 C   0  0  0  0  0  0  0  0  0  0  0  0
  -29.2894  -20.6891   19.1959 C   0  0  0  0  0  0  0  0  0  0  0  0
  -24.2476  -12.0957   18.9452 C   0  0  0  0  0  0  0  0  0  0  0  0
  -26.4185  -29.4256   27.5161 C   0  0  0  0  0  0  0  0  0  0  0  0
  -25.9330  -29.6733   20.8922 C   0  0  0  0  0  0  0  0  0  0  0  0
  -26.2733  -28.7950   26.2657 C   0  0  0  0  0  0  0  0  0  0  0  0
  -25.0510  -28.8543   20.1730 C   0  0  0  0  0  0  0  0  0  0  0  0
  -28.1644  -20.0527   18.6715 C   0  0  0  0  0  0  0  0  0  0  0  0
  -29.1539  -17.9029   19.1579 C   0  0  0  0  0  0  0  0  0  0  0  0
  -22.3185   -8.7041   22.3876 C   0  0  0  0  0  0  0  0  0  0  0  0
  -26.9461  -27.7970   19.0771 C   0  0  0  0  0  0  0  0  0  0  0  0
  -20.6727   -7.0300   22.4928 C   0  0  0  0  0  0  0  0  0  0  0  0
  -18.8841   -5.3438   21.1736 C   0  0  0  0  0  0  0  0  0  0  0  0
  -20.7899   -5.6465   22.6273 C   0  0  0  0  0  0  0  0  0  0  0  0
  -24.6777  -11.3034   20.0264 C   0  0  0  0  0  0  0  0  0  0  0  0
  -25.3811  -12.7474   18.5247 C   0  0  0  0  0  0  0  0  0  0  0  0
  -29.3817  -22.1597   19.2247 C   0  0  0  0  0  0  0  0  0  0  0  0
  -22.9402  -12.2307   18.3723 C   0  0  0  0  0  0  0  0  0  0  0  0
  -28.8452  -24.9343   17.9223 C   0  0  0  0  0  0  0  0  0  0  0  0
  -24.0056  -29.2859   23.3900 C   0  0  0  0  0  0  0  0  0  0  0  0
  -21.7613  -30.4180   21.3396 C   0  0  0  0  0  0  0  0  0  0  0  0
  -20.7578  -30.8827   18.1110 C   0  0  0  0  0  0  0  0  0  0  0  0
  -30.0476  -15.5891   19.5981 C   0  0  0  0  0  0  0  0  0  0  0  0
  -25.2263  -29.9008   28.3082 C   0  0  0  0  0  0  0  0  0  0  0  0
  -25.4043  -30.7076   21.8477 C   0  0  0  0  0  0  0  0  0  0  0  0
  -23.5582  -28.9506   20.3480 C   0  0  0  0  0  0  0  0  0  0  0  0
  -23.9559  -30.0385   27.4732 C   0  0  0  0  0  0  0  0  0  0  0  0
  -30.7073  -23.2746   16.0068 C   0  0  0  0  0  0  0  0  0  0  0  0
  -30.2384  -12.0373   19.7593 C   0  0  0  0  0  0  0  0  0  0  0  0
  -23.7562  -28.8055   26.5976 C   0  0  0  0  0  0  0  0  0  0  0  0
  -31.0685  -24.4413   16.9172 C   0  0  0  0  0  0  0  0  0  0  0  0
  -28.7734  -11.5949   19.7542 C   0  0  0  0  0  0  0  0  0  0  0  0
  -30.4356  -22.1395   16.9866 C   0  0  0  0  0  0  0  0  0  0  0  0
  -30.4384  -13.3279   20.5518 C   0  0  0  0  0  0  0  0  0  0  0  0
  -28.1024  -13.9992   20.1497 C   0  0  0  0  0  0  0  0  0  0  0  0
  -24.9181  -28.6352   25.6114 C   0  0  1  0  0  0  0  0  0  0  0  0
  -30.1725  -24.2420   18.1347 C   0  0  2  0  0  0  0  0  0  0  0  0
  -24.0059  -30.3842   22.3646 C   0  0  1  0  0  0  0  0  0  0  0  0
  -27.8409  -12.7386   19.3093 C   0  0  2  0  0  0  0  0  0  0  0  0
  -27.0209  -20.8410   18.1222 C   0  0  0  0  0  0  0  0  0  0  0  0
  -18.8599  -31.8024   16.7511 C   0  0  0  0  0  0  0  0  0  0  0  0
  -20.0996  -27.9427   21.9891 C   0  0  0  0  0  0  0  0  0  0  0  0
  -18.7203  -28.4206   19.9550 C   0  0  0  0  0  0  0  0  0  0  0  0
  -18.7888  -30.0665   21.8282 C   0  0  0  0  0  0  0  0  0  0  0  0
  -22.5041  -32.8939   16.8208 C   0  0  0  0  0  0  0  0  0  0  0  0
  -28.7255  -26.3386   18.4750 C   0  0  0  0  0  0  0  0  0  1  0  0
  -20.8153  -29.7966   20.3407 C   0  0  1  0  0  0  0  0  0  0  0  0
  -20.2057  -32.1011   17.3933 C   0  0  2  0  0  0  0  0  0  0  0  0
  -19.6342  -29.0532   21.0261 C   0  0  0  0  0  0  0  0  0  0  0  0
  -25.9828  -11.4377   20.2769 N   0  0  0  0  0  0  0  0  0  0  0  0
  -26.3825  -12.3220   19.3472 N   0  0  0  0  0  0  0  0  0  0  0  0
  -29.9235  -22.8102   18.1751 N   0  0  0  0  0  0  0  0  0  0  0  0
  -23.0903  -29.9730   21.2983 N   0  0  0  0  0  0  0  0  0  0  0  0
  -29.5248  -14.3673   20.0723 N   0  0  0  0  0  0  0  0  0  0  0  0
  -25.6091  -13.6369   17.5352 N   0  0  0  0  0  0  0  0  0  0  0  0
  -21.8881  -11.4888   18.9264 N   0  0  0  0  0  0  0  0  0  0  0  0
  -29.0858  -16.4877   19.1377 N   0  0  0  0  0  0  0  0  0  0  0  0
  -24.7791  -29.5552   24.5029 N   0  0  0  0  0  0  0  0  0  0  0  0
  -20.4048  -30.8716   19.4439 N   0  0  0  0  0  0  0  0  0  0  0  0
  -28.9277  -22.8222   20.2846 N   0  3  0  0  0  0  0  0  0  0  0  0
  -21.1473  -32.5448   16.3267 N   0  3  0  0  0  0  0  0  0  0  0  0
  -22.7150  -12.9744   17.3876 O   0  0  0  0  0  0  0  0  0  0  0  0
  -27.9211  -24.3771   17.3318 O   0  0  0  0  0  0  0  0  0  0  0  0
  -23.3510  -28.2701   23.1871 O   0  0  0  0  0  0  0  0  0  0  0  0
  -21.3384  -31.2721   22.1228 O   0  0  0  0  0  0  0  0  0  0  0  0
  -21.4315  -30.0246   17.5450 O   0  0  0  0  0  0  0  0  0  0  0  0
  -31.2610  -15.8104   19.5750 O   0  0  0  0  0  0  0  0  0  0  0  0
  -21.5593   -7.8683   23.1476 O   0  0  0  0  0  0  0  0  0  0  0  0
  -27.4351  -26.8809   18.1976 O   0  0  0  0  0  0  0  0  0  1  0  0
  -18.0243   -4.5344   20.5413 F   0  0  0  0  0  0  0  0  0  0  0  0
  -21.7589   -5.1216   23.3897 F   0  0  0  0  0  0  0  0  0  0  0  0
  1  2  1  0  0  0  0
  1  6  2  0  0  0  0
  2  7  2  0  0  0  0
  3 10  2  0  0  0  0
  3 18  1  0  0  0  0
  4 11  1  0  0  0  0
  4 18  2  0  0  0  0
  5  9  2  0  0  0  0
  5 19  1  0  0  0  0
  6 21  1  0  0  0  0
  7 23  1  0  0  0  0
  8 12  2  0  0  0  0
  8 22  1  0  0  0  0
  9 26  1  0  0  0  0
 10 27  1  0  0  0  0
 11 27  2  0  0  0  0
 12 28  1  0  0  0  0
 13 14  2  0  0  0  0
 13 29  1  0  0  0  0
 14 30  1  0  0  0  0
 15 24  1  0  0  0  0
 15 28  2  0  0  0  0
 16 25  1  0  0  0  0
 16 26  2  0  0  0  0
 17 30  2  0  0  0  0
 17 31  1  0  0  0  0
 18 32  1  0  0  0  0
 19 25  2  0  0  0  0
 19 34  1  0  0  0  0
 20 32  1  0  0  0  0
 20 33  2  0  0  0  0
 20 35  1  0  0  0  0
 21 23  2  0  0  0  0
 21 41  1  0  0  0  0
 22 24  2  0  0  0  0
 22 42  1  0  0  0  0
 23 53  1  0  0  0  0
 24 43  1  0  0  0  0
 25 57  1  0  0  0  0
 26 74  1  0  0  0  0
 27 85  1  0  0  0  0
 28 86  1  0  0  0  0
 29 31  2  0  0  0  0
 29 85  1  0  0  0  0
 30 87  1  0  0  0  0
 31 88  1  0  0  0  0
 32 67  2  0  0  0  0
 33 68  1  0  0  0  0
 33 72  1  0  0  0  0
 34 69  1  0  0  0  0
 34 77  2  0  0  0  0
 35 73  1  0  0  0  0
 35 79  2  0  0  0  0
 36 54  1  0  0  0  0
 36 63  1  0  0  0  0
 36 80  2  0  0  0  0
 37 55  1  0  0  0  0
 37 75  1  0  0  0  0
 37 81  2  0  0  0  0
 38 64  1  0  0  0  0
 38 70  1  0  0  0  0
 38 82  2  0  0  0  0
 39 65  1  0  0  0  0
 39 76  1  0  0  0  0
 39 83  2  0  0  0  0
 40 71  1  0  0  0  0
 40 74  1  0  0  0  0
 40 84  2  0  0  0  0
 41 44  1  0  0  0  0
 42 55  1  0  0  0  0
 43 70  1  0  0  0  0
 44 47  1  0  0  0  0
 45 48  1  0  0  0  0
 45 50  1  0  0  0  0
 46 49  1  0  0  0  0
 46 51  1  0  0  0  0
 47 53  1  0  0  0  0
 48 54  1  0  0  0  0
 49 56  1  0  0  0  0
 50 69  1  0  0  0  0
 51 71  1  0  0  0  0
 52 56  1  0  0  0  0
 52 71  1  0  0  0  0
 53 75  1  0  0  0  0
 54 69  1  0  0  0  0
 55 70  1  0  0  0  0
 56 68  1  0  0  0  0
 58 65  1  0  0  0  0
 59 66  1  0  0  0  0
 60 66  1  0  0  0  0
 61 66  1  0  0  0  0
 62 78  1  0  0  0  0
 63 86  1  0  0  0  0
 64 66  1  0  0  0  0
 64 76  1  0  0  0  0
 65 78  1  0  0  0  0
 67 68  1  0  0  0  0
M  CHG  2  77   1  78   1
M  ISO  4  40 100  63 101  74 100  86 101
M  END
> <Batch ID>
0142

> <Smiles>
CNC(C)C(=O)NC(C(=O)N1Cc2cc([101O:1][101CH2:1]C(=O)C3CCCN3C(=N)c3ccc([100NH:0][100C:0](=O)N4CCCC(n5nc(-c6ccc(Oc7ccc(F)cc7F)cc6)c(C(N)=O)c5N)C4)cc3C)ccc2CC1C(=O)NC1CCCc2ccccc21)C(C)(C)C

> <Shape>
0.282

> <Color>
0.094

> <Negative vol penalty>
0.000

$$$$

  -OEChem-04052302573D

 85 94  0     1  0  0  0  0  0999 V2000
  -29.3518  -37.1262   20.7997 C   0  0  0  0  0  0  0  0  0  0  0  0
  -29.5599  -35.7843   20.4974 C   0  0  0  0  0  0  0  0  0  0  0  0
  -24.6245   -8.8576   20.8361 C   0  0  0  0  0  0  0  0  0  0  0  0
  -22.6374  -10.2314   20.8688 C   0  0  0  0  0  0  0  0  0  0  0  0
  -28.4635  -37.4815   21.8139 C   0  0  0  0  0  0  0  0  0  0  0  0
  -28.8806  -34.7968   21.2099 C   0  0  0  0  0  0  0  0  0  0  0  0
  -26.8459  -29.4395   19.0499 C   0  0  0  0  0  0  0  0  0  0  0  0
  -28.0851  -20.6899   18.1682 C   0  0  0  0  0  0  0  0  0  0  0  0
  -26.9234  -20.0001   17.8216 C   0  0  0  0  0  0  0  0  0  0  0  0
  -23.8539   -7.7356   21.1407 C   0  0  0  0  0  0  0  0  0  0  0  0
  -21.8667   -9.1093   21.1733 C   0  0  0  0  0  0  0  0  0  0  0  0
  -27.3681  -28.1479   19.1021 C   0  0  0  0  0  0  0  0  0  0  0  0
  -21.8063   -5.6007   19.5027 C   0  0  0  0  0  0  0  0  0  0  0  0
  -22.0471   -4.4330   18.7788 C   0  0  0  0  0  0  0  0  0  0  0  0
  -26.0023  -27.6803   21.0348 C   0  0  0  0  0  0  0  0  0  0  0  0
  -28.1341  -19.5399   20.2924 C   0  0  0  0  0  0  0  0  0  0  0  0
  -22.6007   -3.2774   20.8271 C   0  0  0  0  0  0  0  0  0  0  0  0
  -24.0163  -10.1056   20.7002 C   0  0  0  0  0  0  0  0  0  0  0  0
  -25.1302  -11.7563   19.1059 C   0  0  0  0  0  0  0  0  0  0  0  0
  -27.7657  -36.4982   22.5327 C   0  0  0  0  0  0  0  0  0  0  0  0
  -25.9045  -29.8655   19.9979 C   0  0  0  0  0  0  0  0  0  0  0  0
  -27.9831  -35.1392   22.2356 C   0  0  0  0  0  0  0  0  0  0  0  0
  -25.4678  -28.9770   20.9909 C   0  0  0  0  0  0  0  0  0  0  0  0
  -28.6905  -20.4597   19.4036 C   0  0  0  0  0  0  0  0  0  0  0  0
  -26.3670  -19.0802   18.7104 C   0  0  0  0  0  0  0  0  0  0  0  0
  -26.9724  -18.8501   19.9458 C   0  0  0  0  0  0  0  0  0  0  0  0
  -22.4750   -7.8614   21.3092 C   0  0  0  0  0  0  0  0  0  0  0  0
  -26.9484  -27.2690   20.0964 C   0  0  0  0  0  0  0  0  0  0  0  0
  -21.9628   -5.6068   20.8888 C   0  0  0  0  0  0  0  0  0  0  0  0
  -22.4442   -3.2714   19.4410 C   0  0  0  0  0  0  0  0  0  0  0  0
  -22.3599   -4.4452   21.5510 C   0  0  0  0  0  0  0  0  0  0  0  0
  -24.8119  -11.2651   20.3862 C   0  0  0  0  0  0  0  0  0  0  0  0
  -25.9011  -12.8673   19.3463 C   0  0  0  0  0  0  0  0  0  0  0  0
  -29.1700  -24.6049   21.0166 C   0  0  0  0  0  0  0  0  0  0  0  0
  -28.5849  -25.8001   20.8932 C   0  0  0  0  0  0  0  0  0  1  0  0
  -24.7618  -11.2534   17.8148 C   0  0  0  0  0  0  0  0  0  0  0  0
  -25.8286  -32.1374   22.2198 C   0  0  0  0  0  0  0  0  0  0  0  0
  -22.7491  -31.1719   22.5464 C   0  0  0  0  0  0  0  0  0  0  0  0
  -20.4324  -28.6961   22.1588 C   0  0  0  0  0  0  0  0  0  0  0  0
  -26.9132  -17.5857   22.1239 C   0  0  0  0  0  0  0  0  0  0  0  0
  -26.8514  -36.9290   23.6521 C   0  0  0  0  0  0  0  0  0  0  0  0
  -25.3309  -31.2533   19.9118 C   0  0  0  0  0  0  0  0  0  0  0  0
  -24.4441  -29.3788   22.0200 C   0  0  0  0  0  0  0  0  0  0  0  0
  -30.4057  -24.3190   21.8168 C   0  0  0  0  0  0  0  0  0  0  0  0
  -28.7267  -23.3538   20.3274 C   0  0  0  0  0  0  0  0  0  0  0  0
  -25.8889  -35.8352   24.1076 C   0  0  0  0  0  0  0  0  0  0  0  0
  -28.0077  -14.5508   23.6300 C   0  0  0  0  0  0  0  0  0  0  0  0
  -26.6298  -34.5145   24.2908 C   0  0  0  0  0  0  0  0  0  0  0  0
  -27.3000  -13.4658   22.8150 C   0  0  0  0  0  0  0  0  0  0  0  0
  -27.1251  -15.7829   23.8210 C   0  0  0  0  0  0  0  0  0  0  0  0
  -25.8651  -15.2639   21.7687 C   0  0  0  0  0  0  0  0  0  0  0  0
  -30.9441  -23.0390   21.1917 C   0  0  0  0  0  0  0  0  0  0  0  0
  -27.2462  -34.0398   22.9694 C   0  0  1  0  0  0  0  0  0  0  0  0
  -24.7604  -31.7474   21.2376 C   0  0  1  0  0  0  0  0  0  0  0  0
  -26.7387  -14.0288   21.4946 C   0  0  2  0  0  0  0  0  0  0  0  0
  -25.1215  -18.3565   18.3128 C   0  0  0  0  0  0  0  0  0  0  0  0
  -18.0060  -28.1899   22.5509 C   0  0  0  0  0  0  0  0  0  0  0  0
  -23.3060  -30.8224   25.5259 C   0  0  0  0  0  0  0  0  0  0  0  0
  -21.2178  -29.4503   25.6842 C   0  0  0  0  0  0  0  0  0  0  0  0
  -21.0862  -31.8433   24.9923 C   0  0  0  0  0  0  0  0  0  0  0  0
  -19.9381  -28.2581   19.2739 C   0  0  0  0  0  0  0  0  0  0  0  0
  -29.9402  -21.2020   19.7756 C   0  0  0  0  0  0  0  0  0  0  0  0
  -22.0358  -30.1387   23.3846 C   0  0  1  0  0  0  0  0  0  0  0  0
  -19.0375  -28.7067   21.5601 C   0  0  2  0  0  0  0  0  0  0  0  0
  -21.9322  -30.5564   24.8787 C   0  0  0  0  0  0  0  0  0  0  0  0
  -25.3378  -12.0034   21.3672 N   0  0  0  0  0  0  0  0  0  0  0  0
  -25.9944  -12.9698   20.7031 N   0  0  0  0  0  0  0  0  0  0  0  0
  -23.9177  -30.7483   21.8977 N   0  0  0  0  0  0  0  0  0  0  0  0
  -26.6333  -16.2631   22.5278 N   0  0  0  0  0  0  0  0  0  0  0  0
  -26.5017  -13.7567   18.5273 N   0  0  0  0  0  0  0  0  0  0  0  0
  -23.9655  -10.1019   17.7485 N   0  0  0  0  0  0  0  0  0  0  0  0
  -26.4228  -17.9192   20.8618 N   0  0  0  0  0  0  0  0  0  0  0  0
  -26.2312  -33.4555   22.1193 N   0  0  0  0  0  0  0  0  0  0  0  0
  -20.7486  -29.9067   22.7384 N   0  0  0  0  0  0  0  0  0  0  0  0
  -29.7013  -22.2867   20.7723 N   0  3  2  0  0  0  0  0  0  0  0  0
  -18.9901  -27.8492   20.3421 N   0  3  0  0  0  0  0  0  0  0  0  0
  -25.1415  -11.7992   16.7511 O   0  0  0  0  0  0  0  0  0  0  0  0
  -26.2550  -31.3045   23.0111 O   0  0  0  0  0  0  0  0  0  0  0  0
  -22.2826  -32.3109   22.4642 O   0  0  0  0  0  0  0  0  0  0  0  0
  -21.1666  -27.7113   22.1198 O   0  0  0  0  0  0  0  0  0  0  0  0
  -27.5651  -18.3566   22.8330 O   0  0  0  0  0  0  0  0  0  0  0  0
  -21.7226   -6.7667   21.6062 O   0  0  0  0  0  0  0  0  0  0  0  0
  -27.4570  -26.0079   20.1500 O   0  0  0  0  0  0  0  0  0  1  0  0
  -22.6739   -2.1497   18.7458 F   0  0  0  0  0  0  0  0  0  0  0  0
  -22.5108   -4.4446   22.8825 F   0  0  0  0  0  0  0  0  0  0  0  0
  1  2  1  0  0  0  0
  1  5  2  0  0  0  0
  2  6  2  0  0  0  0
  3 10  2  0  0  0  0
  3 18  1  0  0  0  0
  4 11  1  0  0  0  0
  4 18  2  0  0  0  0
  5 20  1  0  0  0  0
  6 22  1  0  0  0  0
  7 12  2  0  0  0  0
  7 21  1  0  0  0  0
  8  9  2  0  0  0  0
  8 24  1  0  0  0  0
  9 25  1  0  0  0  0
 10 27  1  0  0  0  0
 11 27  2  0  0  0  0
 12 28  1  0  0  0  0
 13 14  2  0  0  0  0
 13 29  1  0  0  0  0
 14 30  1  0  0  0  0
 15 23  1  0  0  0  0
 15 28  2  0  0  0  0
 16 24  2  0  0  0  0
 16 26  1  0  0  0  0
 17 30  2  0  0  0  0
 17 31  1  0  0  0  0
 18 32  1  0  0  0  0
 19 32  1  0  0  0  0
 19 33  2  0  0  0  0
 19 36  1  0  0  0  0
 20 22  2  0  0  0  0
 20 41  1  0  0  0  0
 21 23  2  0  0  0  0
 21 42  1  0  0  0  0
 22 53  1  0  0  0  0
 23 43  1  0  0  0  0
 24 62  1  0  0  0  0
 25 26  2  0  0  0  0
 25 56  1  0  0  0  0
 26 72  1  0  0  0  0
 27 82  1  0  0  0  0
 28 83  1  0  0  0  0
 29 31  2  0  0  0  0
 29 82  1  0  0  0  0
 30 84  1  0  0  0  0
 31 85  1  0  0  0  0
 32 66  2  0  0  0  0
 33 67  1  0  0  0  0
 33 70  1  0  0  0  0
 34 35  2  0  0  0  0
 34 44  1  0  0  0  0
 34 45  1  0  0  0  0
 35 83  1  0  0  0  0
 36 71  1  0  0  0  0
 36 77  2  0  0  0  0
 37 54  1  0  0  0  0
 37 73  1  0  0  0  0
 37 78  2  0  0  0  0
 38 63  1  0  0  0  0
 38 68  1  0  0  0  0
 38 79  2  0  0  0  0
 39 64  1  0  0  0  0
 39 74  1  0  0  0  0
 39 80  2  0  0  0  0
 40 69  1  0  0  0  0
 40 72  1  0  0  0  0
 40 81  2  0  0  0  0
 41 46  1  0  0  0  0
 42 54  1  0  0  0  0
 43 68  1  0  0  0  0
 44 52  1  0  0  0  0
 45 75  1  0  0  0  0
 46 48  1  0  0  0  0
 47 49  1  0  0  0  0
 47 50  1  0  0  0  0
 48 53  1  0  0  0  0
 49 55  1  0  0  0  0
 50 69  1  0  0  0  0
 51 55  1  0  0  0  0
 51 69  1  0  0  0  0
 52 75  1  0  0  0  0
 53 73  1  0  0  0  0
 54 68  1  0  0  0  0
 55 67  1  0  0  0  0
 57 64  1  0  0  0  0
 58 65  1  0  0  0  0
 59 65  1  0  0  0  0
 60 65  1  0  0  0  0
 61 76  1  0  0  0  0
 62 75  1  0  0  0  0
 63 65  1  0  0  0  0
 63 74  1  0  0  0  0
 64 76  1  0  0  0  0
 66 67  1  0  0  0  0
M  CHG  2  75   1  76   1
M  ISO  4  35 101  40 100  72 100  83 101
M  END
> <Batch ID>
0142

> <Smiles>
CNC(C)C(=O)NC(C(=O)N1Cc2cc([101O:1][101CH:1]=C3CCN(Cc4ccc(C)c([100NH:0][100C:0](=O)N5CCCC(n6nc(-c7ccc(Oc8ccc(F)cc8F)cc7)c(C(N)=O)c6N)C5)c4)C3)ccc2CC1C(=O)NC1CCCc2ccccc21)C(C)(C)C

> <Shape>
0.269

> <Color>
0.100

> <Negative vol penalty>
0.000

$$$$

  -OEChem-04052302573D

 87 95  0     1  0  0  0  0  0999 V2000
  -19.8929   -8.5916   20.3618 C   0  0  0  0  0  0  0  0  0  0  0  0
  -20.1269   -9.8671   20.8657 C   0  0  0  0  0  0  0  0  0  0  0  0
  -28.8486  -26.4858   19.9437 C   0  0  0  0  0  0  0  0  0  0  0  0
  -26.9495  -26.1028   18.5001 C   0  0  0  0  0  0  0  0  0  0  0  0
  -20.9481   -7.6893   20.2343 C   0  0  0  0  0  0  0  0  0  0  0  0
  -21.4162  -10.2405   21.2435 C   0  0  0  0  0  0  0  0  0  0  0  0
  -22.6621  -14.8631   19.5929 C   0  0  0  0  0  0  0  0  0  0  0  0
  -29.2305  -25.1526   19.7950 C   0  0  0  0  0  0  0  0  0  0  0  0
  -27.3315  -24.7695   18.3514 C   0  0  0  0  0  0  0  0  0  0  0  0
  -22.1483  -15.9507   20.2977 C   0  0  0  0  0  0  0  0  0  0  0  0
  -27.1228  -21.9045   20.1344 C   0  0  0  0  0  0  0  0  0  0  0  0
  -26.1300  -20.9305   20.2393 C   0  0  0  0  0  0  0  0  0  0  0  0
  -24.2564  -16.1957   21.4446 C   0  0  0  0  0  0  0  0  0  0  0  0
  -17.9252  -27.2524   22.6947 C   0  0  0  0  0  0  0  0  0  0  0  0
  -19.3974  -29.0868   23.2466 C   0  0  0  0  0  0  0  0  0  0  0  0
  -20.1664  -27.3155   21.7947 C   0  0  0  0  0  0  0  0  0  0  0  0
  -26.6089  -20.1998   17.9868 C   0  0  0  0  0  0  0  0  0  0  0  0
  -27.7081  -26.9610   19.2962 C   0  0  0  0  0  0  0  0  0  0  0  0
  -27.7014  -29.4285   18.6489 C   0  0  0  0  0  0  0  0  0  0  0  0
  -22.2526   -8.0551   20.6017 C   0  0  0  0  0  0  0  0  0  0  0  0
  -23.9756  -14.4260   19.8170 C   0  0  0  0  0  0  0  0  0  0  0  0
  -22.4896   -9.3417   21.1221 C   0  0  0  0  0  0  0  0  0  0  0  0
  -24.7853  -15.1038   20.7395 C   0  0  0  0  0  0  0  0  0  0  0  0
  -18.1596  -28.4542   23.3627 C   0  0  0  0  0  0  0  0  0  0  0  0
  -18.9286  -26.6830   21.9107 C   0  0  0  0  0  0  0  0  0  0  0  0
  -20.4008  -28.5174   22.4626 C   0  0  0  0  0  0  0  0  0  0  0  0
  -28.4720  -24.2944   18.9989 C   0  0  0  0  0  0  0  0  0  0  0  0
  -22.9445  -16.6154   21.2258 C   0  0  0  0  0  0  0  0  0  0  0  0
  -27.8587  -22.0263   18.9557 C   0  0  0  0  0  0  0  0  0  0  0  0
  -25.8731  -20.0780   19.1655 C   0  0  0  0  0  0  0  0  0  0  0  0
  -27.6017  -21.1739   17.8819 C   0  0  0  0  0  0  0  0  0  0  0  0
  -27.3127  -28.3380   19.4499 C   0  0  0  0  0  0  0  0  0  0  0  0
  -27.0601  -30.5085   19.2046 C   0  0  0  0  0  0  0  0  0  0  0  0
  -28.5649  -29.4621   17.5048 C   0  0  0  0  0  0  0  0  0  0  0  0
  -25.2942  -11.7348   20.8763 C   0  0  0  0  0  0  0  0  0  0  0  0
  -21.5073  -19.9037   21.7399 C   0  0  0  0  0  0  0  0  0  0  0  0
  -28.0586  -13.2366   20.0857 C   0  0  0  0  0  0  0  0  0  0  0  0
  -29.7067  -16.1755   19.5438 C   0  0  0  0  0  0  0  0  0  0  0  0
  -19.5047  -23.1770   21.0723 C   0  0  0  0  0  0  0  0  0  0  0  0
  -22.0638  -30.3581   22.9382 C   0  0  0  0  0  0  0  0  0  0  0  0
  -23.3528   -7.0295   20.4901 C   0  0  0  0  0  0  0  0  0  0  0  0
  -24.5236  -13.2678   19.0292 C   0  0  0  0  0  0  0  0  0  0  0  0
  -26.2086  -14.6868   21.0020 C   0  0  0  0  0  0  0  0  0  0  0  0
  -24.7546   -7.6297   20.5621 C   0  0  0  0  0  0  0  0  0  0  0  0
  -25.4053  -31.8046   23.5716 C   0  0  0  0  0  0  0  0  0  0  0  0
  -24.8513   -8.6232   21.7155 C   0  0  0  0  0  0  0  0  0  0  0  0
  -26.2780  -31.3905   22.3858 C   0  0  0  0  0  0  0  0  0  0  0  0
  -23.9379  -31.9660   23.1991 C   0  0  0  0  0  0  0  0  0  0  0  0
  -24.2724  -29.9755   21.7170 C   0  0  0  0  0  0  0  0  0  0  0  0
  -23.8785   -9.7924   21.5195 C   0  0  1  0  0  0  0  0  0  0  0  0
  -25.7073  -12.5883   19.7107 C   0  0  1  0  0  0  0  0  0  0  0  0
  -25.4695  -30.8000   21.2185 C   0  0  2  0  0  0  0  0  0  0  0  0
  -17.0867  -29.0629   24.2010 C   0  0  0  0  0  0  0  0  0  0  0  0
  -31.5834  -17.7053   18.8843 C   0  0  0  0  0  0  0  0  0  0  0  0
  -29.0270  -12.6796   22.9250 C   0  0  0  0  0  0  0  0  0  0  0  0
  -30.8217  -14.3895   22.5738 C   0  0  0  0  0  0  0  0  0  0  0  0
  -30.7549  -12.3432   21.1487 C   0  0  0  0  0  0  0  0  0  0  0  0
  -28.8426  -16.2050   16.7134 C   0  0  0  0  0  0  0  0  0  0  0  0
  -18.6763  -25.3902   21.1921 C   0  0  0  0  0  0  0  0  0  0  0  0
  -20.4771  -20.8408   21.1264 C   0  0  0  0  0  0  0  0  0  0  0  0
  -21.4504  -18.4654   21.2636 C   0  0  0  0  0  0  0  0  0  1  0  0
  -20.5715  -22.2715   21.6492 C   0  0  0  0  0  0  0  0  0  0  0  0
  -29.0216  -14.1511   20.8035 C   0  0  1  0  0  0  0  0  0  0  0  0
  -30.6196  -16.6256   18.4175 C   0  0  2  0  0  0  0  0  0  0  0  0
  -29.8789  -13.3977   21.8594 C   0  0  0  0  0  0  0  0  0  0  0  0
  -26.4884  -28.6928   20.4392 N   0  0  0  0  0  0  0  0  0  0  0  0
  -26.3540  -30.0184   20.2636 N   0  0  0  0  0  0  0  0  0  0  0  0
  -26.6966  -13.5448   20.2113 N   0  0  0  0  0  0  0  0  0  0  0  0
  -23.3917  -30.7347   22.6211 N   0  0  0  0  0  0  0  0  0  0  0  0
  -27.0369  -31.8201   18.8858 N   0  0  0  0  0  0  0  0  0  0  0  0
  -29.1408  -28.2618   17.0668 N   0  0  0  0  0  0  0  0  0  0  0  0
  -21.6583  -29.1601   22.3447 N   0  0  0  0  0  0  0  0  0  0  0  0
  -24.4037  -10.7298   20.5500 N   0  0  0  0  0  0  0  0  0  0  0  0
  -29.8013  -14.8180   19.7664 N   0  0  0  0  0  0  0  0  0  0  0  0
  -29.8167  -17.1695   17.2859 N   0  3  0  0  0  0  0  0  0  0  0  0
  -28.8312  -30.5278   16.8990 O   0  0  0  0  0  0  0  0  0  0  0  0
  -25.7508  -11.9697   21.9890 O   0  0  0  0  0  0  0  0  0  0  0  0
  -22.3394  -20.2800   22.5636 O   0  0  0  0  0  0  0  0  0  0  0  0
  -28.4990  -12.2881   19.4315 O   0  0  0  0  0  0  0  0  0  0  0  0
  -28.9848  -16.9511   20.1665 O   0  0  0  0  0  0  0  0  0  0  0  0
  -18.6843  -22.8527   20.2249 O   0  0  0  0  0  0  0  0  0  0  0  0
  -21.3587  -31.0389   23.6862 O   0  0  0  0  0  0  0  0  0  0  0  0
  -28.8445  -22.9934   18.8534 O   0  0  0  0  0  0  0  0  0  0  0  0
  -22.4453  -17.6770   21.9156 O   0  0  0  0  0  0  0  0  0  1  0  0
  -19.6175  -24.4121   21.6458 O   0  0  0  0  0  0  0  0  0  0  0  0
  -24.9207  -19.1416   19.2669 F   0  0  0  0  0  0  0  0  0  0  0  0
  -28.3062  -21.2853   16.7474 F   0  0  0  0  0  0  0  0  0  0  0  0
  1  2  1  0  0  0  0
  1  5  2  0  0  0  0
  2  6  2  0  0  0  0
  3  8  2  0  0  0  0
  3 18  1  0  0  0  0
  4  9  1  0  0  0  0
  4 18  2  0  0  0  0
  5 20  1  0  0  0  0
  6 22  1  0  0  0  0
  7 10  2  0  0  0  0
  7 21  1  0  0  0  0
  8 27  1  0  0  0  0
  9 27  2  0  0  0  0
 10 28  1  0  0  0  0
 11 12  2  0  0  0  0
 11 29  1  0  0  0  0
 12 30  1  0  0  0  0
 13 23  1  0  0  0  0
 13 28  2  0  0  0  0
 14 24  2  0  0  0  0
 14 25  1  0  0  0  0
 15 24  1  0  0  0  0
 15 26  2  0  0  0  0
 16 25  2  0  0  0  0
 16 26  1  0  0  0  0
 17 30  2  0  0  0  0
 17 31  1  0  0  0  0
 18 32  1  0  0  0  0
 19 32  1  0  0  0  0
 19 33  2  0  0  0  0
 19 34  1  0  0  0  0
 20 22  2  0  0  0  0
 20 41  1  0  0  0  0
 21 23  2  0  0  0  0
 21 42  1  0  0  0  0
 22 50  1  0  0  0  0
 23 43  1  0  0  0  0
 24 53  1  0  0  0  0
 25 59  1  0  0  0  0
 26 72  1  0  0  0  0
 27 83  1  0  0  0  0
 28 84  1  0  0  0  0
 29 31  2  0  0  0  0
 29 83  1  0  0  0  0
 30 86  1  0  0  0  0
 31 87  1  0  0  0  0
 32 66  2  0  0  0  0
 33 67  1  0  0  0  0
 33 70  1  0  0  0  0
 34 71  1  0  0  0  0
 34 76  2  0  0  0  0
 35 51  1  0  0  0  0
 35 73  1  0  0  0  0
 35 77  2  0  0  0  0
 36 60  1  0  0  0  0
 36 61  1  0  0  0  0
 36 78  2  0  0  0  0
 37 63  1  0  0  0  0
 37 68  1  0  0  0  0
 37 79  2  0  0  0  0
 38 64  1  0  0  0  0
 38 74  1  0  0  0  0
 38 80  2  0  0  0  0
 39 62  1  0  0  0  0
 39 81  2  0  0  0  0
 39 85  1  0  0  0  0
 40 69  1  0  0  0  0
 40 72  1  0  0  0  0
 40 82  2  0  0  0  0
 41 44  1  0  0  0  0
 42 51  1  0  0  0  0
 43 68  1  0  0  0  0
 44 46  1  0  0  0  0
 45 47  1  0  0  0  0
 45 48  1  0  0  0  0
 46 50  1  0  0  0  0
 47 52  1  0  0  0  0
 48 69  1  0  0  0  0
 49 52  1  0  0  0  0
 49 69  1  0  0  0  0
 50 73  1  0  0  0  0
 51 68  1  0  0  0  0
 52 67  1  0  0  0  0
 54 64  1  0  0  0  0
 55 65  1  0  0  0  0
 56 65  1  0  0  0  0
 57 65  1  0  0  0  0
 58 75  1  0  0  0  0
 59 85  1  0  0  0  0
 60 62  1  0  0  0  0
 61 84  1  0  0  0  0
 63 65  1  0  0  0  0
 63 74  1  0  0  0  0
 64 75  1  0  0  0  0
 66 67  1  0  0  0  0
M  CHG  1  75   1
M  ISO  4  40 100  61 101  72 100  84 101
M  END
> <Batch ID>
0142

> <Smiles>
CNC(C)C(=O)NC(C(=O)N1Cc2cc([101O:1][101CH2:1]C(=O)CCC(=O)OCc3cc(C)cc([100NH:0][100C:0](=O)N4CCCC(n5nc(-c6ccc(Oc7ccc(F)cc7F)cc6)c(C(N)=O)c5N)C4)c3)ccc2CC1C(=O)NC1CCCc2ccccc21)C(C)(C)C

> <Shape>
0.285

> <Color>
0.071

> <Negative vol penalty>
0.000

$$$$

  -OEChem-04052302573D

 86 95  0     1  0  0  0  0  0999 V2000
  -25.2379   -9.3434   22.3116 C   0  0  0  0  0  0  0  0  0  0  0  0
  -26.5072   -9.3879   21.7438 C   0  0  0  0  0  0  0  0  0  0  0  0
  -25.6198  -26.7220   20.9844 C   0  0  0  0  0  0  0  0  0  0  0  0
  -26.5442  -28.2426   19.3503 C   0  0  0  0  0  0  0  0  0  0  0  0
  -24.3643  -10.4177   22.1481 C   0  0  0  0  0  0  0  0  0  0  0  0
  -26.9032  -10.5064   21.0112 C   0  0  0  0  0  0  0  0  0  0  0  0
  -33.3451  -20.8351   14.5157 C   0  0  0  0  0  0  0  0  0  0  0  0
  -32.7132  -14.4078   19.4817 C   0  0  0  0  0  0  0  0  0  0  0  0
  -32.9304  -22.0639   15.0292 C   0  0  0  0  0  0  0  0  0  0  0  0
  -24.6352  -27.6586   21.2990 C   0  0  0  0  0  0  0  0  0  0  0  0
  -25.5595  -29.1792   19.6649 C   0  0  0  0  0  0  0  0  0  0  0  0
  -33.4140  -14.9128   18.3873 C   0  0  0  0  0  0  0  0  0  0  0  0
  -24.3843  -30.4884   23.1302 C   0  0  0  0  0  0  0  0  0  0  0  0
  -24.1146  -30.7156   24.4798 C   0  0  0  0  0  0  0  0  0  0  0  0
  -31.8495  -16.7429   18.2377 C   0  0  0  0  0  0  0  0  0  0  0  0
  -34.9256  -22.1696   16.3875 C   0  0  0  0  0  0  0  0  0  0  0  0
  -21.8260  -30.0200   24.1395 C   0  0  0  0  0  0  0  0  0  0  0  0
  -26.5743  -27.0140   20.0100 C   0  0  0  0  0  0  0  0  0  0  0  0
  -27.3988  -24.7430   19.1913 C   0  0  0  0  0  0  0  0  0  0  0  0
  -24.7533  -11.5539   21.4213 C   0  0  0  0  0  0  0  0  0  0  0  0
  -31.5670  -15.0617   19.9563 C   0  0  0  0  0  0  0  0  0  0  0  0
  -26.0335  -11.5963   20.8367 C   0  0  0  0  0  0  0  0  0  0  0  0
  -34.5500  -20.2735   14.9382 C   0  0  0  0  0  0  0  0  0  0  0  0
  -31.1374  -16.2455   19.3398 C   0  0  0  0  0  0  0  0  0  0  0  0
  -35.3403  -20.9408   15.8741 C   0  0  0  0  0  0  0  0  0  0  0  0
  -33.7206  -22.7312   15.9650 C   0  0  0  0  0  0  0  0  0  0  0  0
  -24.6051  -28.8872   20.6393 C   0  0  0  0  0  0  0  0  0  0  0  0
  -32.9805  -16.0789   17.7633 C   0  0  0  0  0  0  0  0  0  0  0  0
  -23.3748  -30.0271   22.2853 C   0  0  0  0  0  0  0  0  0  0  0  0
  -22.8355  -30.4814   24.9844 C   0  0  0  0  0  0  0  0  0  0  0  0
  -22.0957  -29.7928   22.7900 C   0  0  0  0  0  0  0  0  0  0  0  0
  -27.5919  -26.0472   19.6850 C   0  0  0  0  0  0  0  0  0  0  0  0
  -28.6683  -24.2388   19.0477 C   0  0  0  0  0  0  0  0  0  0  0  0
  -26.1808  -24.0495   18.8895 C   0  0  0  0  0  0  0  0  0  0  0  0
  -28.4984  -14.2844   20.2442 C   0  0  0  0  0  0  0  0  0  0  0  0
  -28.3186  -17.1448   21.7634 C   0  0  0  0  0  0  0  0  0  0  0  0
  -29.6614  -20.4614   21.3004 C   0  0  0  0  0  0  0  0  0  0  0  0
  -33.9663  -24.7730   17.4200 C   0  0  0  0  0  0  0  0  0  0  0  0
  -23.7573  -12.6705   21.2317 C   0  0  0  0  0  0  0  0  0  0  0  0
  -30.8377  -14.5187   21.1545 C   0  0  0  0  0  0  0  0  0  0  0  0
  -29.9246  -16.9964   19.8233 C   0  0  0  0  0  0  0  0  0  0  0  0
  -24.3894  -13.9765   20.7572 C   0  0  0  0  0  0  0  0  0  0  0  0
  -33.1250  -26.0324   20.6423 C   0  0  0  0  0  0  0  0  0  0  0  0
  -25.3593  -13.7141   19.6095 C   0  0  0  0  0  0  0  0  0  0  0  0
  -31.5946  -26.0412   20.6399 C   0  0  0  0  0  0  0  0  0  0  0  0
  -33.8076  -18.0042   13.9683 C   0  0  0  0  0  0  0  0  0  0  0  0
  -34.4106  -16.6078   13.8925 C   0  0  0  0  0  0  0  0  0  0  0  0
  -35.7361  -18.0364   15.3897 C   0  0  0  0  0  0  0  0  0  0  0  0
  -33.6964  -26.4041   19.2752 C   0  0  0  0  0  0  0  0  0  0  0  0
  -31.6501  -25.6219   18.1483 C   0  0  0  0  0  0  0  0  0  0  0  0
  -26.5086  -12.8024   20.0559 C   0  0  1  0  0  0  0  0  0  0  0  0
  -29.3872  -14.9847   21.2328 C   0  0  1  0  0  0  0  0  0  0  0  0
  -31.0280  -25.1904   19.4864 C   0  0  2  0  0  0  0  0  0  0  0  0
  -34.9832  -18.9240   14.3610 C   0  0  2  0  0  0  0  0  0  0  0  0
  -35.4266  -16.5554   15.0462 C   0  0  2  0  0  0  0  0  0  0  0  0
  -36.6350  -20.3598   16.3395 C   0  0  0  0  0  0  0  0  0  0  0  0
  -35.8795  -19.2098   13.1366 C   0  0  0  0  0  0  0  0  0  0  0  0
  -36.6938  -15.8021   14.6250 C   0  0  0  0  0  0  0  0  0  0  0  0
  -30.1362  -22.2766   22.9668 C   0  0  0  0  0  0  0  0  0  0  0  0
  -25.5290  -18.1440   21.0352 C   0  0  0  0  0  0  0  0  0  0  0  0
  -26.4036  -20.4849   21.1877 C   0  0  0  0  0  0  0  0  0  0  0  0
  -26.4164  -19.0167   23.2043 C   0  0  0  0  0  0  0  0  0  0  0  0
  -32.4840  -20.6758   20.4367 C   0  0  0  0  0  0  0  0  0  0  0  0
  -34.8131  -15.8471   16.2654 C   0  0  0  0  0  0  0  0  0  1  0  0
  -28.0581  -18.5686   21.3345 C   0  0  1  0  0  0  0  0  0  0  0  0
  -30.7239  -21.1381   22.1475 C   0  0  2  0  0  0  0  0  0  0  0  0
  -26.6139  -19.0347   21.6729 C   0  0  0  0  0  0  0  0  0  0  0  0
  -28.8825  -26.3523   19.8444 N   0  0  0  0  0  0  0  0  0  0  0  0
  -29.5118  -25.2327   19.4487 N   0  0  0  0  0  0  0  0  0  0  0  0
  -29.2416  -16.4221   20.9943 N   0  0  0  0  0  0  0  0  0  0  0  0
  -33.1175  -25.5541   18.2325 N   0  0  0  0  0  0  0  0  0  0  0  0
  -29.1342  -23.0466   18.6188 N   0  0  0  0  0  0  0  0  0  0  0  0
  -25.6539  -24.1569   17.5952 N   0  0  0  0  0  0  0  0  0  0  0  0
  -33.3007  -23.9804   16.4854 N   0  0  0  0  0  0  0  0  0  0  0  0
  -27.4796  -13.5524   20.8235 N   0  0  0  0  0  0  0  0  0  0  0  0
  -29.1061  -19.3777   21.9473 N   0  0  0  0  0  0  0  0  0  0  0  0
  -31.8029  -21.6909   21.2809 N   0  3  0  0  0  0  0  0  0  0  0  0
  -25.5689  -23.3683   19.7469 O   0  0  0  0  0  0  0  0  0  0  0  0
  -28.7196  -14.4009   19.0445 O   0  0  0  0  0  0  0  0  0  0  0  0
  -27.7302  -16.6929   22.7489 O   0  0  0  0  0  0  0  0  0  0  0  0
  -29.3522  -20.8570   20.1786 O   0  0  0  0  0  0  0  0  0  0  0  0
  -35.1917  -24.7844   17.5623 O   0  0  0  0  0  0  0  0  0  0  0  0
  -23.6443  -29.8013   20.9459 O   0  0  0  0  0  0  0  0  0  0  0  0
  -33.6623  -16.5736   16.6946 O   0  0  0  0  0  0  0  0  0  1  0  0
  -22.5771  -30.6981   26.2807 F   0  0  0  0  0  0  0  0  0  0  0  0
  -21.1222  -29.3485   21.9834 F   0  0  0  0  0  0  0  0  0  0  0  0
  1  2  1  0  0  0  0
  1  5  2  0  0  0  0
  2  6  2  0  0  0  0
  3 10  2  0  0  0  0
  3 18  1  0  0  0  0
  4 11  1  0  0  0  0
  4 18  2  0  0  0  0
  5 20  1  0  0  0  0
  6 22  1  0  0  0  0
  7  9  2  0  0  0  0
  7 23  1  0  0  0  0
  8 12  2  0  0  0  0
  8 21  1  0  0  0  0
  9 26  1  0  0  0  0
 10 27  1  0  0  0  0
 11 27  2  0  0  0  0
 12 28  1  0  0  0  0
 13 14  2  0  0  0  0
 13 29  1  0  0  0  0
 14 30  1  0  0  0  0
 15 24  1  0  0  0  0
 15 28  2  0  0  0  0
 16 25  1  0  0  0  0
 16 26  2  0  0  0  0
 17 30  2  0  0  0  0
 17 31  1  0  0  0  0
 18 32  1  0  0  0  0
 19 32  1  0  0  0  0
 19 33  2  0  0  0  0
 19 34  1  0  0  0  0
 20 22  2  0  0  0  0
 20 39  1  0  0  0  0
 21 24  2  0  0  0  0
 21 40  1  0  0  0  0
 22 51  1  0  0  0  0
 23 25  2  0  0  0  0
 23 54  1  0  0  0  0
 24 41  1  0  0  0  0
 25 56  1  0  0  0  0
 26 74  1  0  0  0  0
 27 83  1  0  0  0  0
 28 84  1  0  0  0  0
 29 31  2  0  0  0  0
 29 83  1  0  0  0  0
 30 85  1  0  0  0  0
 31 86  1  0  0  0  0
 32 68  2  0  0  0  0
 33 69  1  0  0  0  0
 33 72  1  0  0  0  0
 34 73  1  0  0  0  0
 34 78  2  0  0  0  0
 35 52  1  0  0  0  0
 35 75  1  0  0  0  0
 35 79  2  0  0  0  0
 36 65  1  0  0  0  0
 36 70  1  0  0  0  0
 36 80  2  0  0  0  0
 37 66  1  0  0  0  0
 37 76  1  0  0  0  0
 37 81  2  0  0  0  0
 38 71  1  0  0  0  0
 38 74  1  0  0  0  0
 38 82  2  0  0  0  0
 39 42  1  0  0  0  0
 40 52  1  0  0  0  0
 41 70  1  0  0  0  0
 42 44  1  0  0  0  0
 43 45  1  0  0  0  0
 43 49  1  0  0  0  0
 44 51  1  0  0  0  0
 45 53  1  0  0  0  0
 46 47  1  0  0  0  0
 46 54  1  0  0  0  0
 47 55  1  0  0  0  0
 48 54  1  0  0  0  0
 48 55  1  0  0  0  0
 49 71  1  0  0  0  0
 50 53  1  0  0  0  0
 50 71  1  0  0  0  0
 51 75  1  0  0  0  0
 52 70  1  0  0  0  0
 53 69  1  0  0  0  0
 54 57  1  0  0  0  0
 55 58  1  0  0  0  0
 55 64  1  0  0  0  0
 59 66  1  0  0  0  0
 60 67  1  0  0  0  0
 61 67  1  0  0  0  0
 62 67  1  0  0  0  0
 63 77  1  0  0  0  0
 64 84  1  0  0  0  0
 65 67  1  0  0  0  0
 65 76  1  0  0  0  0
 66 77  1  0  0  0  0
 68 69  1  0  0  0  0
M  CHG  1  77   1
M  ISO  4  38 100  64 101  74 100  84 101
M  END
> <Batch ID>
0142

> <Smiles>
CNC(C)C(=O)NC(C(=O)N1Cc2cc([101O:1][101CH2:1]C3(C)CCC(C)(c4ccc([100NH:0][100C:0](=O)N5CCCC(n6nc(-c7ccc(Oc8ccc(F)cc8F)cc7)c(C(N)=O)c6N)C5)cc4C)C3)ccc2CC1C(=O)NC1CCCc2ccccc21)C(C)(C)C

> <Shape>
0.205

> <Color>
0.080

> <Negative vol penalty>
0.000

$$$$

  -OEChem-04052302573D

 87 95  0     1  0  0  0  0  0999 V2000
  -25.0041  -32.7135   22.2366 C   0  0  0  0  0  0  0  0  0  0  0  0
  -24.9505  -31.9151   23.3747 C   0  0  0  0  0  0  0  0  0  0  0  0
  -31.1670  -17.0181   21.5065 C   0  0  0  0  0  0  0  0  0  0  0  0
  -23.2118   -9.8893   19.9103 C   0  0  0  0  0  0  0  0  0  0  0  0
  -23.7351   -9.9535   22.2681 C   0  0  0  0  0  0  0  0  0  0  0  0
  -24.9081  -32.1316   20.9732 C   0  0  0  0  0  0  0  0  0  0  0  0
  -24.7998  -30.5345   23.2500 C   0  0  0  0  0  0  0  0  0  0  0  0
  -29.6976  -26.0085   25.9737 C   0  0  0  0  0  0  0  0  0  0  0  0
  -30.6947  -15.7083   21.5888 C   0  0  0  0  0  0  0  0  0  0  0  0
  -31.5390  -17.6995   22.6654 C   0  0  0  0  0  0  0  0  0  0  0  0
  -22.4574   -8.7331   20.1092 C   0  0  0  0  0  0  0  0  0  0  0  0
  -22.9806   -8.7973   22.4670 C   0  0  0  0  0  0  0  0  0  0  0  0
  -30.4818  -25.0738   26.6502 C   0  0  0  0  0  0  0  0  0  0  0  0
  -19.7157   -7.9747   22.7573 C   0  0  0  0  0  0  0  0  0  0  0  0
  -18.8443   -7.9507   23.8462 C   0  0  0  0  0  0  0  0  0  0  0  0
  -29.1790  -23.2740   25.6956 C   0  0  0  0  0  0  0  0  0  0  0  0
  -30.9663  -15.7612   23.9889 C   0  0  0  0  0  0  0  0  0  0  0  0
  -20.0229   -6.0438   24.7472 C   0  0  0  0  0  0  0  0  0  0  0  0
  -23.8507  -10.4995   20.9898 C   0  0  0  0  0  0  0  0  0  0  0  0
  -24.1790  -13.0254   20.8490 C   0  0  0  0  0  0  0  0  0  0  0  0
  -24.7658  -30.7422   20.8327 C   0  0  0  0  0  0  0  0  0  0  0  0
  -28.6597  -25.5783   25.1424 C   0  0  0  0  0  0  0  0  0  0  0  0
  -24.7005  -29.9337   21.9836 C   0  0  0  0  0  0  0  0  0  0  0  0
  -28.3981  -24.2051   25.0056 C   0  0  0  0  0  0  0  0  0  0  0  0
  -30.5943  -15.0798   22.8300 C   0  0  0  0  0  0  0  0  0  0  0  0
  -31.4387  -17.0710   23.9066 C   0  0  0  0  0  0  0  0  0  0  0  0
  -22.3418   -8.1871   21.3876 C   0  0  0  0  0  0  0  0  0  0  0  0
  -30.2229  -23.7100   26.5117 C   0  0  0  0  0  0  0  0  0  0  0  0
  -20.7407   -7.0333   22.6633 C   0  0  0  0  0  0  0  0  0  0  0  0
  -18.9979   -6.9853   24.8411 C   0  0  0  0  0  0  0  0  0  0  0  0
  -20.8943   -6.0679   23.6583 C   0  0  0  0  0  0  0  0  0  0  0  0
  -24.6307  -11.6936   20.7849 C   0  0  0  0  0  0  0  0  0  0  0  0
  -25.2952  -13.7798   20.5816 C   0  0  0  0  0  0  0  0  0  0  0  0
  -22.8678  -13.5351   21.1257 C   0  0  0  0  0  0  0  0  0  0  0  0
  -25.8862  -26.5312   22.8024 C   0  0  0  0  0  0  0  0  0  0  0  0
  -27.2575  -24.0641   21.6010 C   0  0  0  0  0  0  0  0  0  0  0  0
  -32.3056  -19.0624   25.1818 C   0  0  0  0  0  0  0  0  0  0  0  0
  -29.3007  -21.6072   20.4068 C   0  0  0  0  0  0  0  0  0  0  0  0
  -31.1865  -12.2060   21.1774 C   0  0  0  0  0  0  0  0  0  0  0  0
  -24.6186  -30.1639   19.4476 C   0  0  0  0  0  0  0  0  0  0  0  0
  -27.7505  -26.5518   24.4428 C   0  0  0  0  0  0  0  0  0  0  0  0
  -27.2492  -23.7897   24.1279 C   0  0  0  0  0  0  0  0  0  0  0  0
  -24.8369  -28.6541   19.3915 C   0  0  0  0  0  0  0  0  0  0  0  0
  -29.4544  -13.6323   18.2334 C   0  0  0  0  0  0  0  0  0  0  0  0
  -24.0701  -27.9618   20.5138 C   0  0  0  0  0  0  0  0  0  0  0  0
  -27.9859  -13.3400   18.5369 C   0  0  0  0  0  0  0  0  0  0  0  0
  -30.3819  -12.6072   18.8788 C   0  0  0  0  0  0  0  0  0  0  0  0
  -28.7142  -12.1618   20.6493 C   0  0  0  0  0  0  0  0  0  0  0  0
  -24.5626  -28.4296   21.8886 C   0  0  1  0  0  0  0  0  0  0  0  0
  -27.2864  -26.0578   23.0608 C   0  0  1  0  0  0  0  0  0  0  0  0
  -27.7557  -13.2030   20.0520 C   0  0  2  0  0  0  0  0  0  0  0  0
  -29.5786  -20.0504   18.4583 C   0  0  0  0  0  0  0  0  0  0  0  0
  -25.0075  -22.3126   22.6843 C   0  0  0  0  0  0  0  0  0  0  0  0
  -25.9389  -20.4120   21.3469 C   0  0  0  0  0  0  0  0  0  0  0  0
  -25.1070  -22.4594   20.1897 C   0  0  0  0  0  0  0  0  0  0  0  0
  -32.8168  -21.1515   28.4397 C   0  0  0  0  0  0  0  0  0  0  0  0
  -32.1788  -12.4679   23.4193 C   0  0  0  0  0  0  0  0  0  0  0  0
  -31.9287  -22.7717   19.7024 C   0  0  0  0  0  0  0  0  0  0  0  0
  -30.0893  -13.6794   22.9174 C   0  0  0  0  0  0  0  0  0  0  0  0
  -32.5908  -19.4207   26.6377 C   0  0  0  0  0  0  0  0  0  0  0  0
  -31.1645  -21.5262   26.5565 C   0  0  0  0  0  0  0  0  0  1  0  0
  -27.2782  -22.5613   21.4809 C   0  0  1  0  0  0  0  0  0  0  0  0
  -29.9440  -21.4042   19.0469 C   0  0  2  0  0  0  0  0  0  0  0  0
  -25.8491  -21.9499   21.4444 C   0  0  0  0  0  0  0  0  0  0  0  0
  -32.5134  -20.9208   26.9582 C   0  0  1  0  0  0  0  0  0  0  0  0
  -25.9323  -11.6037   20.4990 N   0  0  0  0  0  0  0  0  0  0  0  0
  -26.3081  -12.8886   20.3811 N   0  0  0  0  0  0  0  0  0  0  0  0
  -27.2410  -24.5949   22.8966 N   0  0  0  0  0  0  0  0  0  0  0  0
  -30.1126  -12.4655   20.3101 N   0  0  0  0  0  0  0  0  0  0  0  0
  -25.4993  -15.1118   20.5008 N   0  0  0  0  0  0  0  0  0  0  0  0
  -21.8355  -12.6215   21.3789 N   0  0  0  0  0  0  0  0  0  0  0  0
  -31.8169  -17.7625   25.0822 N   0  0  0  0  0  0  0  0  0  0  0  0
  -25.8137  -27.7841   22.2239 N   0  0  0  0  0  0  0  0  0  0  0  0
  -28.0886  -22.2567   20.3066 N   0  0  0  0  0  0  0  0  0  0  0  0
  -31.0857  -12.7014   22.4862 N   0  0  0  0  0  0  0  0  0  0  0  0
  -31.4280  -21.4829   19.1589 N   0  3  0  0  0  0  0  0  0  0  0  0
  -22.6153  -14.7638   21.1315 O   0  0  0  0  0  0  0  0  0  0  0  0
  -24.9403  -25.8129   23.1037 O   0  0  0  0  0  0  0  0  0  0  0  0
  -27.2504  -24.7511   20.5757 O   0  0  0  0  0  0  0  0  0  0  0  0
  -32.5344  -19.8403   24.2616 O   0  0  0  0  0  0  0  0  0  0  0  0
  -29.8197  -21.2242   21.4530 O   0  0  0  0  0  0  0  0  0  0  0  0
  -32.1830  -11.5761   20.8003 O   0  0  0  0  0  0  0  0  0  0  0  0
  -21.6055   -7.0590   21.5821 O   0  0  0  0  0  0  0  0  0  0  0  0
  -30.9951  -22.8028   27.1715 O   0  0  0  0  0  0  0  0  0  1  0  0
  -18.1620   -6.9632   25.8875 F   0  0  0  0  0  0  0  0  0  0  0  0
  -21.8778   -5.1616   23.5741 F   0  0  0  0  0  0  0  0  0  0  0  0
  -33.4929  -21.5595   26.2509 F   0  0  0  0  0  0  0  0  0  0  0  0
  1  2  1  0  0  0  0
  1  6  2  0  0  0  0
  2  7  2  0  0  0  0
  3  9  1  0  0  0  0
  3 10  2  0  0  0  0
  4 11  2  0  0  0  0
  4 19  1  0  0  0  0
  5 12  1  0  0  0  0
  5 19  2  0  0  0  0
  6 21  1  0  0  0  0
  7 23  1  0  0  0  0
  8 13  2  0  0  0  0
  8 22  1  0  0  0  0
  9 25  2  0  0  0  0
 10 26  1  0  0  0  0
 11 27  1  0  0  0  0
 12 27  2  0  0  0  0
 13 28  1  0  0  0  0
 14 15  2  0  0  0  0
 14 29  1  0  0  0  0
 15 30  1  0  0  0  0
 16 24  1  0  0  0  0
 16 28  2  0  0  0  0
 17 25  1  0  0  0  0
 17 26  2  0  0  0  0
 18 30  2  0  0  0  0
 18 31  1  0  0  0  0
 19 32  1  0  0  0  0
 20 32  1  0  0  0  0
 20 33  2  0  0  0  0
 20 34  1  0  0  0  0
 21 23  2  0  0  0  0
 21 40  1  0  0  0  0
 22 24  2  0  0  0  0
 22 41  1  0  0  0  0
 23 49  1  0  0  0  0
 24 42  1  0  0  0  0
 25 59  1  0  0  0  0
 26 72  1  0  0  0  0
 27 83  1  0  0  0  0
 28 84  1  0  0  0  0
 29 31  2  0  0  0  0
 29 83  1  0  0  0  0
 30 85  1  0  0  0  0
 31 86  1  0  0  0  0
 32 66  2  0  0  0  0
 33 67  1  0  0  0  0
 33 70  1  0  0  0  0
 34 71  1  0  0  0  0
 34 77  2  0  0  0  0
 35 50  1  0  0  0  0
 35 73  1  0  0  0  0
 35 78  2  0  0  0  0
 36 62  1  0  0  0  0
 36 68  1  0  0  0  0
 36 79  2  0  0  0  0
 37 60  1  0  0  0  0
 37 72  1  0  0  0  0
 37 80  2  0  0  0  0
 38 63  1  0  0  0  0
 38 74  1  0  0  0  0
 38 81  2  0  0  0  0
 39 69  1  0  0  0  0
 39 75  1  0  0  0  0
 39 82  2  0  0  0  0
 40 43  1  0  0  0  0
 41 50  1  0  0  0  0
 42 68  1  0  0  0  0
 43 45  1  0  0  0  0
 44 46  1  0  0  0  0
 44 47  1  0  0  0  0
 45 49  1  0  0  0  0
 46 51  1  0  0  0  0
 47 69  1  0  0  0  0
 48 51  1  0  0  0  0
 48 69  1  0  0  0  0
 49 73  1  0  0  0  0
 50 68  1  0  0  0  0
 51 67  1  0  0  0  0
 52 63  1  0  0  0  0
 53 64  1  0  0  0  0
 54 64  1  0  0  0  0
 55 64  1  0  0  0  0
 56 65  1  0  0  0  0
 57 75  1  0  0  0  0
 58 76  1  0  0  0  0
 59 75  1  0  0  0  0
 60 65  1  0  0  0  0
 61 65  1  0  0  0  0
 61 84  1  0  0  0  0
 62 64  1  0  0  0  0
 62 74  1  0  0  0  0
 63 76  1  0  0  0  0
 65 87  1  0  0  0  0
 66 67  1  0  0  0  0
M  CHG  1  76   1
M  ISO  4  39 100  61 101  75 100  84 101
M  END
> <Batch ID>
0142

> <Smiles>
CNC(C)C(=O)NC(C(=O)N1Cc2cc([101O:1][101CH2:1]C(C)(F)CC(=O)Nc3cccc(C[100N:0](C)[100C:0](=O)N4CCCC(n5nc(-c6ccc(Oc7ccc(F)cc7F)cc6)c(C(N)=O)c5N)C4)c3)ccc2CC1C(=O)NC1CCCc2ccccc21)C(C)(C)C

> <Shape>
0.244

> <Color>
0.190

> <Negative vol penalty>
0.000

$$$$

  -OEChem-04052302573D

 87 96  0     1  0  0  0  0  0999 V2000
  -18.7291  -30.3757   26.4219 C   0  0  0  0  0  0  0  0  0  0  0  0
  -20.0158  -29.8478   26.4565 C   0  0  0  0  0  0  0  0  0  0  0  0
  -25.2129  -19.5092   19.9602 C   0  0  0  0  0  0  0  0  0  0  0  0
  -24.7275   -8.8458   21.4389 C   0  0  0  0  0  0  0  0  0  0  0  0
  -23.1712  -10.6543   21.0592 C   0  0  0  0  0  0  0  0  0  0  0  0
  -26.0260  -20.4546   20.5851 C   0  0  0  0  0  0  0  0  0  0  0  0
  -17.9403  -30.2125   25.2839 C   0  0  0  0  0  0  0  0  0  0  0  0
  -20.5141  -29.1555   25.3534 C   0  0  0  0  0  0  0  0  0  0  0  0
  -26.3042  -29.0848   23.3595 C   0  0  0  0  0  0  0  0  0  0  0  0
  -25.7213  -18.2478   19.6502 C   0  0  0  0  0  0  0  0  0  0  0  0
  -23.8588   -8.2961   22.3815 C   0  0  0  0  0  0  0  0  0  0  0  0
  -22.3024  -10.1045   22.0018 C   0  0  0  0  0  0  0  0  0  0  0  0
  -27.3450  -28.1735   23.5331 C   0  0  0  0  0  0  0  0  0  0  0  0
  -21.0233   -6.4540   22.3799 C   0  0  0  0  0  0  0  0  0  0  0  0
  -20.7928   -5.0795   22.3249 C   0  0  0  0  0  0  0  0  0  0  0  0
  -27.8561  -18.8774   20.5900 C   0  0  0  0  0  0  0  0  0  0  0  0
  -26.7956  -27.1524   21.4177 C   0  0  0  0  0  0  0  0  0  0  0  0
  -21.6567   -4.8450   24.5690 C   0  0  0  0  0  0  0  0  0  0  0  0
  -24.3838  -10.0250   20.7777 C   0  0  0  0  0  0  0  0  0  0  0  0
  -27.3476  -20.1388   20.9000 C   0  0  0  0  0  0  0  0  0  0  0  0
  -25.3127  -10.3309   18.4216 C   0  0  0  0  0  0  0  0  0  0  0  0
  -18.4327  -29.5262   24.1626 C   0  0  0  0  0  0  0  0  0  0  0  0
  -25.4931  -29.0297   22.2169 C   0  0  0  0  0  0  0  0  0  0  0  0
  -19.7307  -28.9819   24.1998 C   0  0  0  0  0  0  0  0  0  0  0  0
  -25.7469  -28.0657   21.2308 C   0  0  0  0  0  0  0  0  0  0  0  0
  -27.0430  -17.9319   19.9650 C   0  0  0  0  0  0  0  0  0  0  0  0
  -22.6462   -8.9254   22.6630 C   0  0  0  0  0  0  0  0  0  0  0  0
  -27.5890  -27.2053   22.5635 C   0  0  0  0  0  0  0  0  0  0  0  0
  -21.5706   -7.0241   23.5293 C   0  0  0  0  0  0  0  0  0  0  0  0
  -21.1095   -4.2750   23.4195 C   0  0  0  0  0  0  0  0  0  0  0  0
  -21.8872   -6.2196   24.6239 C   0  0  0  0  0  0  0  0  0  0  0  0
  -25.2811  -10.5937   19.8043 C   0  0  0  0  0  0  0  0  0  0  0  0
  -26.3367  -11.1135   17.9468 C   0  0  0  0  0  0  0  0  0  0  0  0
  -28.2074  -21.1369   21.5608 C   0  0  0  0  0  0  0  0  0  0  0  0
  -24.4900   -9.4575   17.6367 C   0  0  0  0  0  0  0  0  0  0  0  0
  -22.3993  -28.5312   21.6842 C   0  0  0  0  0  0  0  0  0  0  0  0
  -23.2088  -29.2508   18.6265 C   0  0  0  0  0  0  0  0  0  0  0  0
  -25.6356  -29.4068   16.2321 C   0  0  0  0  0  0  0  0  0  0  0  0
  -28.8467  -16.1747   19.8932 C   0  0  0  0  0  0  0  0  0  0  0  0
  -17.5258  -29.3343   22.9729 C   0  0  0  0  0  0  0  0  0  0  0  0
  -24.3914  -30.0369   22.0320 C   0  0  0  0  0  0  0  0  0  0  0  0
  -24.9179  -27.9771   19.9765 C   0  0  0  0  0  0  0  0  0  0  0  0
  -18.2646  -28.9118   21.7057 C   0  0  0  0  0  0  0  0  0  0  0  0
  -30.4911  -13.0725   19.3022 C   0  0  0  0  0  0  0  0  0  0  0  0
  -27.6693  -20.8714   25.1318 C   0  0  0  0  0  0  0  0  0  0  0  0
  -19.2494  -27.7878   22.0116 C   0  0  0  0  0  0  0  0  0  0  0  0
  -29.3441  -12.0618   19.2320 C   0  0  0  0  0  0  0  0  0  0  0  0
  -29.0512  -21.5121   25.0553 C   0  0  0  0  0  0  0  0  0  0  0  0
  -27.4659  -20.2823   23.7417 C   0  0  0  0  0  0  0  0  0  0  0  0
  -30.2273  -14.1583   20.3439 C   0  0  0  0  0  0  0  0  0  0  0  0
  -27.7931  -13.8409   20.1355 C   0  0  0  0  0  0  0  0  0  0  0  0
  -20.3157  -28.2461   23.0138 C   0  0  1  0  0  0  0  0  0  0  0  0
  -23.3039  -29.5634   21.0725 C   0  0  1  0  0  0  0  0  0  0  0  0
  -27.9838  -12.7645   19.0545 C   0  0  2  0  0  0  0  0  0  0  0  0
  -29.1085  -22.1117   23.6471 C   0  0  2  0  0  0  0  0  0  0  0  0
  -25.9866  -29.9982   13.8187 C   0  0  0  0  0  0  0  0  0  0  0  0
  -21.9065  -26.6198   17.7948 C   0  0  0  0  0  0  0  0  0  0  0  0
  -23.0973  -26.8045   15.6003 C   0  0  0  0  0  0  0  0  0  0  0  0
  -21.4385  -28.5441   16.2675 C   0  0  0  0  0  0  0  0  0  0  0  0
  -27.5529  -31.5547   16.9171 C   0  0  0  0  0  0  0  0  0  0  0  0
  -28.5369  -23.5198   23.5748 C   0  0  0  0  0  0  0  0  0  0  0  0
  -29.5280  -24.5538   24.1014 C   0  0  0  0  0  0  0  0  0  0  0  0
  -28.9423  -25.9593   24.0709 C   0  0  0  0  0  0  0  0  0  1  0  0
  -23.6815  -28.4591   17.4312 C   0  0  1  0  0  0  0  0  0  0  0  0
  -26.0156  -30.5029   15.2530 C   0  0  2  0  0  0  0  0  0  0  0  0
  -22.5455  -27.6071   16.7979 C   0  0  0  0  0  0  0  0  0  0  0  0
  -26.2111  -11.4743   20.1832 N   0  0  0  0  0  0  0  0  0  0  0  0
  -26.8368  -11.7716   19.0316 N   0  0  0  0  0  0  0  0  0  0  0  0
  -28.2479  -21.1868   22.8810 N   0  0  0  0  0  0  0  0  0  0  0  0
  -23.8483  -28.9802   19.8446 N   0  0  0  0  0  0  0  0  0  0  0  0
  -28.9233  -14.7827   20.1103 N   0  0  0  0  0  0  0  0  0  0  0  0
  -26.8490  -11.2960   16.7112 N   0  0  0  0  0  0  0  0  0  0  0  0
  -23.4842   -8.7267   18.2837 N   0  0  0  0  0  0  0  0  0  0  0  0
  -27.5586  -16.6504   19.6498 N   0  0  0  0  0  0  0  0  0  0  0  0
  -21.3128  -29.0611   22.3536 N   0  0  0  0  0  0  0  0  0  0  0  0
  -24.2866  -29.4219   16.5173 N   0  0  0  0  0  0  0  0  0  0  0  0
  -28.9304  -21.9703   20.8185 N   0  3  0  0  0  0  0  0  0  0  0  0
  -27.3872  -31.0066   15.5463 N   0  3  0  0  0  0  0  0  0  0  0  0
  -24.6531   -9.3166   16.4010 O   0  0  0  0  0  0  0  0  0  0  0  0
  -22.6666  -27.3421   21.5570 O   0  0  0  0  0  0  0  0  0  0  0  0
  -22.3104  -30.0839   18.4833 O   0  0  0  0  0  0  0  0  0  0  0  0
  -26.4529  -28.6139   16.6945 O   0  0  0  0  0  0  0  0  0  0  0  0
  -29.8533  -16.8880   19.8942 O   0  0  0  0  0  0  0  0  0  0  0  0
  -21.7981   -8.3891   23.5826 O   0  0  0  0  0  0  0  0  0  0  0  0
  -28.6038  -26.3141   22.7308 O   0  0  0  0  0  0  0  0  0  1  0  0
  -20.8866   -2.9552   23.3672 F   0  0  0  0  0  0  0  0  0  0  0  0
  -22.4121   -6.7617   25.7314 F   0  0  0  0  0  0  0  0  0  0  0  0
  1  2  1  0  0  0  0
  1  7  2  0  0  0  0
  2  8  2  0  0  0  0
  3  6  2  0  0  0  0
  3 10  1  0  0  0  0
  4 11  2  0  0  0  0
  4 19  1  0  0  0  0
  5 12  1  0  0  0  0
  5 19  2  0  0  0  0
  6 20  1  0  0  0  0
  7 22  1  0  0  0  0
  8 24  1  0  0  0  0
  9 13  2  0  0  0  0
  9 23  1  0  0  0  0
 10 26  2  0  0  0  0
 11 27  1  0  0  0  0
 12 27  2  0  0  0  0
 13 28  1  0  0  0  0
 14 15  2  0  0  0  0
 14 29  1  0  0  0  0
 15 30  1  0  0  0  0
 16 20  2  0  0  0  0
 16 26  1  0  0  0  0
 17 25  1  0  0  0  0
 17 28  2  0  0  0  0
 18 30  2  0  0  0  0
 18 31  1  0  0  0  0
 19 32  1  0  0  0  0
 20 34  1  0  0  0  0
 21 32  1  0  0  0  0
 21 33  2  0  0  0  0
 21 35  1  0  0  0  0
 22 24  2  0  0  0  0
 22 40  1  0  0  0  0
 23 25  2  0  0  0  0
 23 41  1  0  0  0  0
 24 52  1  0  0  0  0
 25 42  1  0  0  0  0
 26 74  1  0  0  0  0
 27 84  1  0  0  0  0
 28 85  1  0  0  0  0
 29 31  2  0  0  0  0
 29 84  1  0  0  0  0
 30 86  1  0  0  0  0
 31 87  1  0  0  0  0
 32 67  2  0  0  0  0
 33 68  1  0  0  0  0
 33 72  1  0  0  0  0
 34 69  1  0  0  0  0
 34 77  2  0  0  0  0
 35 73  1  0  0  0  0
 35 79  2  0  0  0  0
 36 53  1  0  0  0  0
 36 75  1  0  0  0  0
 36 80  2  0  0  0  0
 37 64  1  0  0  0  0
 37 70  1  0  0  0  0
 37 81  2  0  0  0  0
 38 65  1  0  0  0  0
 38 76  1  0  0  0  0
 38 82  2  0  0  0  0
 39 71  1  0  0  0  0
 39 74  1  0  0  0  0
 39 83  2  0  0  0  0
 40 43  1  0  0  0  0
 41 53  1  0  0  0  0
 42 70  1  0  0  0  0
 43 46  1  0  0  0  0
 44 47  1  0  0  0  0
 44 50  1  0  0  0  0
 45 48  1  0  0  0  0
 45 49  1  0  0  0  0
 46 52  1  0  0  0  0
 47 54  1  0  0  0  0
 48 55  1  0  0  0  0
 49 69  1  0  0  0  0
 50 71  1  0  0  0  0
 51 54  1  0  0  0  0
 51 71  1  0  0  0  0
 52 75  1  0  0  0  0
 53 70  1  0  0  0  0
 54 68  1  0  0  0  0
 55 61  1  0  0  0  0
 55 69  1  0  0  0  0
 56 65  1  0  0  0  0
 57 66  1  0  0  0  0
 58 66  1  0  0  0  0
 59 66  1  0  0  0  0
 60 78  1  0  0  0  0
 61 62  1  0  0  0  0
 62 63  1  0  0  0  0
 63 85  1  0  0  0  0
 64 66  1  0  0  0  0
 64 76  1  0  0  0  0
 65 78  1  0  0  0  0
 67 68  1  0  0  0  0
M  CHG  2  77   1  78   1
M  ISO  4  39 100  63 101  74 100  85 101
M  END
> <Batch ID>
0142

> <Smiles>
CNC(C)C(=O)NC(C(=O)N1Cc2cc([101O:1][101CH2:1]CCC3CCCN3C(=N)c3cccc([100NH:0][100C:0](=O)N4CCCC(n5nc(-c6ccc(Oc7ccc(F)cc7F)cc6)c(C(N)=O)c5N)C4)c3)ccc2CC1C(=O)NC1CCCc2ccccc21)C(C)(C)C

> <Shape>
0.242

> <Color>
0.090

> <Negative vol penalty>
0.000

$$$$

  -OEChem-04052302573D

 88 96  0     1  0  0  0  0  0999 V2000
  -27.0289  -33.9414   26.3944 C   0  0  0  0  0  0  0  0  0  0  0  0
  -27.3739  -32.6819   25.9148 C   0  0  0  0  0  0  0  0  0  0  0  0
  -23.3926   -9.9003   21.2987 C   0  0  0  0  0  0  0  0  0  0  0  0
  -22.6108  -12.0188   22.1574 C   0  0  0  0  0  0  0  0  0  0  0  0
  -30.6544  -20.3001   20.1691 C   0  0  0  0  0  0  0  0  0  0  0  0
  -28.8844  -20.1697   18.5299 C   0  0  0  0  0  0  0  0  0  0  0  0
  -25.6915  -34.3344   26.4191 C   0  0  0  0  0  0  0  0  0  0  0  0
  -26.3814  -31.8141   25.4606 C   0  0  0  0  0  0  0  0  0  0  0  0
  -27.6178  -29.5626   21.0963 C   0  0  0  0  0  0  0  0  0  0  0  0
  -30.5024  -18.9406   20.4415 C   0  0  0  0  0  0  0  0  0  0  0  0
  -28.7324  -18.8102   18.8022 C   0  0  0  0  0  0  0  0  0  0  0  0
  -22.3648   -9.2458   21.9774 C   0  0  0  0  0  0  0  0  0  0  0  0
  -21.5829  -11.3644   22.8361 C   0  0  0  0  0  0  0  0  0  0  0  0
  -28.5115  -28.4946   21.1617 C   0  0  0  0  0  0  0  0  0  0  0  0
  -21.7151   -8.2348   25.1365 C   0  0  0  0  0  0  0  0  0  0  0  0
  -22.0395   -7.0742   25.8390 C   0  0  0  0  0  0  0  0  0  0  0  0
  -26.6660  -26.9486   21.0089 C   0  0  0  0  0  0  0  0  0  0  0  0
  -20.4877   -5.8173   24.4791 C   0  0  0  0  0  0  0  0  0  0  0  0
  -23.5157  -11.2868   21.3887 C   0  0  0  0  0  0  0  0  0  0  0  0
  -29.8454  -20.9147   19.2133 C   0  0  0  0  0  0  0  0  0  0  0  0
  -24.5386  -12.4799   19.3793 C   0  0  0  0  0  0  0  0  0  0  0  0
  -24.6830  -33.4747   25.9560 C   0  0  0  0  0  0  0  0  0  0  0  0
  -26.2382  -29.3312   20.9976 C   0  0  0  0  0  0  0  0  0  0  0  0
  -25.0290  -32.1954   25.4804 C   0  0  0  0  0  0  0  0  0  0  0  0
  -25.7570  -28.0155   20.9399 C   0  0  0  0  0  0  0  0  0  0  0  0
  -29.5414  -18.1956   19.7580 C   0  0  0  0  0  0  0  0  0  0  0  0
  -21.4599   -9.9778   22.7461 C   0  0  0  0  0  0  0  0  0  0  0  0
  -28.0355  -27.1874   21.1209 C   0  0  0  0  0  0  0  0  0  0  0  0
  -20.7770   -8.1866   24.1053 C   0  0  0  0  0  0  0  0  0  0  0  0
  -21.4258   -5.8655   25.5103 C   0  0  0  0  0  0  0  0  0  0  0  0
  -20.1633   -6.9779   23.7766 C   0  0  0  0  0  0  0  0  0  0  0  0
  -24.5776  -11.9634   20.6883 C   0  0  0  0  0  0  0  0  0  0  0  0
  -25.7866  -13.0198   19.1858 C   0  0  0  0  0  0  0  0  0  0  0  0
  -30.0074  -22.3643   18.9231 C   0  0  0  0  0  0  0  0  0  0  0  0
  -23.4698  -12.4723   18.4236 C   0  0  0  0  0  0  0  0  0  0  0  0
  -23.7151  -30.0067   22.8091 C   0  0  0  0  0  0  0  0  0  0  0  0
  -22.0705  -28.7982   20.2877 C   0  0  0  0  0  0  0  0  0  0  0  0
  -22.0564  -26.7757   17.5390 C   0  0  0  0  0  0  0  0  0  0  0  0
  -30.1093  -16.0519   20.9532 C   0  0  0  0  0  0  0  0  0  0  0  0
  -23.2466  -33.9256   26.0464 C   0  0  0  0  0  0  0  0  0  0  0  0
  -25.2893  -30.4943   20.9011 C   0  0  0  0  0  0  0  0  0  0  0  0
  -24.2868  -27.7136   20.8138 C   0  0  0  0  0  0  0  0  0  0  0  0
  -22.2913  -33.0898   25.1984 C   0  0  0  0  0  0  0  0  0  0  0  0
  -30.0067  -12.6367   21.9546 C   0  0  0  0  0  0  0  0  0  0  0  0
  -22.5619  -31.6021   25.3988 C   0  0  0  0  0  0  0  0  0  0  0  0
  -28.5819  -12.1996   21.6068 C   0  0  0  0  0  0  0  0  0  0  0  0
  -30.0503  -14.0774   22.4608 C   0  0  0  0  0  0  0  0  0  0  0  0
  -27.9864  -14.6271   21.2330 C   0  0  0  0  0  0  0  0  0  0  0  0
  -23.9834  -31.2353   24.9560 C   0  0  1  0  0  0  0  0  0  0  0  0
  -23.8657  -30.1402   21.3200 C   0  0  1  0  0  0  0  0  0  0  0  0
  -27.9002  -13.2042   20.6572 C   0  0  2  0  0  0  0  0  0  0  0  0
  -20.5557  -25.9621   15.6996 C   0  0  0  0  0  0  0  0  0  0  0  0
  -20.6855  -26.9188   22.2523 C   0  0  0  0  0  0  0  0  0  0  0  0
  -19.9472  -25.5354   20.3006 C   0  0  0  0  0  0  0  0  0  0  0  0
  -19.1822  -27.9003   20.5113 C   0  0  0  0  0  0  0  0  0  0  0  0
  -31.9347  -25.2868   23.3155 C   0  0  0  0  0  0  0  0  0  0  0  0
  -29.6027  -24.4774   23.5184 C   0  0  0  0  0  0  0  0  0  0  0  0
  -32.8705  -24.7542   20.0552 C   0  0  0  0  0  0  0  0  0  0  0  0
  -23.7894  -27.9509   15.4474 C   0  0  0  0  0  0  0  0  0  0  0  0
  -31.3812  -23.0115   19.0880 C   0  0  0  0  0  0  0  0  0  0  0  0
  -30.8533  -23.9227   21.4239 C   0  0  0  0  0  0  0  0  0  0  0  0
  -30.1140  -26.3500   21.9175 C   0  0  0  0  0  0  0  0  0  1  0  0
  -21.5856  -27.4261   19.8862 C   0  0  1  0  0  0  0  0  0  0  0  0
  -21.5751  -27.0100   16.1184 C   0  0  2  0  0  0  0  0  0  0  0  0
  -20.3778  -26.9505   20.7420 C   0  0  0  0  0  0  0  0  0  0  0  0
  -30.6447  -25.0294   22.5101 C   0  0  0  0  0  0  0  0  0  0  0  0
  -31.4239  -24.2543   20.0188 C   0  0  1  0  0  0  0  0  0  0  0  0
  -25.7571  -12.1577   21.2843 N   0  0  0  0  0  0  0  0  0  0  0  0
  -29.0281  -23.0886   18.4816 N   0  0  0  0  0  0  0  0  0  0  0  0
  -26.4708  -12.8021   20.3455 N   0  0  0  0  0  0  0  0  0  0  0  0
  -23.3984  -28.8845   20.7293 N   0  0  0  0  0  0  0  0  0  0  0  0
  -29.3898  -14.9725   21.5082 N   0  0  0  0  0  0  0  0  0  0  0  0
  -26.3546  -13.6548   18.1386 N   0  0  0  0  0  0  0  0  0  0  0  0
  -22.2541  -11.8761   18.7856 N   0  0  0  0  0  0  0  0  0  0  0  0
  -29.3879  -16.8146   20.0353 N   0  0  0  0  0  0  0  0  0  0  0  0
  -24.0561  -31.1456   23.5134 N   0  0  0  0  0  0  0  0  0  0  0  0
  -21.3144  -27.4919   18.4543 N   0  0  0  0  0  0  0  0  0  0  0  0
  -22.7215  -26.9568   15.1677 N   0  3  0  0  0  0  0  0  0  0  0  0
  -23.5946  -12.9647   17.2767 O   0  0  0  0  0  0  0  0  0  0  0  0
  -23.3175  -28.9492   23.2837 O   0  0  0  0  0  0  0  0  0  0  0  0
  -21.3016  -29.7593   20.2056 O   0  0  0  0  0  0  0  0  0  0  0  0
  -22.9942  -26.0289   17.8099 O   0  0  0  0  0  0  0  0  0  0  0  0
  -31.2878  -16.2665   21.2484 O   0  0  0  0  0  0  0  0  0  0  0  0
  -30.6571  -25.2922   19.4037 O   0  0  0  0  0  0  0  0  0  0  0  0
  -20.4566   -9.3395   23.4083 O   0  0  0  0  0  0  0  0  0  0  0  0
  -28.9111  -26.1365   21.1856 O   0  0  0  0  0  0  0  0  0  1  0  0
  -21.7386   -4.7508   26.1840 F   0  0  0  0  0  0  0  0  0  0  0  0
  -19.2622   -6.9252   22.7862 F   0  0  0  0  0  0  0  0  0  0  0  0
  1  2  1  0  0  0  0
  1  7  2  0  0  0  0
  2  8  2  0  0  0  0
  3 12  2  0  0  0  0
  3 19  1  0  0  0  0
  4 13  1  0  0  0  0
  4 19  2  0  0  0  0
  5 10  2  0  0  0  0
  5 20  1  0  0  0  0
  6 11  1  0  0  0  0
  6 20  2  0  0  0  0
  7 22  1  0  0  0  0
  8 24  1  0  0  0  0
  9 14  2  0  0  0  0
  9 23  1  0  0  0  0
 10 26  1  0  0  0  0
 11 26  2  0  0  0  0
 12 27  1  0  0  0  0
 13 27  2  0  0  0  0
 14 28  1  0  0  0  0
 15 16  2  0  0  0  0
 15 29  1  0  0  0  0
 16 30  1  0  0  0  0
 17 25  1  0  0  0  0
 17 28  2  0  0  0  0
 18 30  2  0  0  0  0
 18 31  1  0  0  0  0
 19 32  1  0  0  0  0
 20 34  1  0  0  0  0
 21 32  1  0  0  0  0
 21 33  2  0  0  0  0
 21 35  1  0  0  0  0
 22 24  2  0  0  0  0
 22 40  1  0  0  0  0
 23 25  2  0  0  0  0
 23 41  1  0  0  0  0
 24 49  1  0  0  0  0
 25 42  1  0  0  0  0
 26 75  1  0  0  0  0
 27 85  1  0  0  0  0
 28 86  1  0  0  0  0
 29 31  2  0  0  0  0
 29 85  1  0  0  0  0
 30 87  1  0  0  0  0
 31 88  1  0  0  0  0
 32 68  2  0  0  0  0
 33 70  1  0  0  0  0
 33 73  1  0  0  0  0
 34 60  1  0  0  0  0
 34 69  2  0  0  0  0
 35 74  1  0  0  0  0
 35 79  2  0  0  0  0
 36 50  1  0  0  0  0
 36 76  1  0  0  0  0
 36 80  2  0  0  0  0
 37 63  1  0  0  0  0
 37 71  1  0  0  0  0
 37 81  2  0  0  0  0
 38 64  1  0  0  0  0
 38 77  1  0  0  0  0
 38 82  2  0  0  0  0
 39 72  1  0  0  0  0
 39 75  1  0  0  0  0
 39 83  2  0  0  0  0
 40 43  1  0  0  0  0
 41 50  1  0  0  0  0
 42 71  1  0  0  0  0
 43 45  1  0  0  0  0
 44 46  1  0  0  0  0
 44 47  1  0  0  0  0
 45 49  1  0  0  0  0
 46 51  1  0  0  0  0
 47 72  1  0  0  0  0
 48 51  1  0  0  0  0
 48 72  1  0  0  0  0
 49 76  1  0  0  0  0
 50 71  1  0  0  0  0
 51 70  1  0  0  0  0
 52 64  1  0  0  0  0
 53 65  1  0  0  0  0
 54 65  1  0  0  0  0
 55 65  1  0  0  0  0
 56 66  1  0  0  0  0
 57 66  1  0  0  0  0
 58 67  1  0  0  0  0
 59 78  1  0  0  0  0
 60 67  1  0  0  0  0
 61 66  1  0  0  0  0
 61 67  1  0  0  0  0
 62 66  1  0  0  0  0
 62 86  1  0  0  0  0
 63 65  1  0  0  0  0
 63 77  1  0  0  0  0
 64 78  1  0  0  0  0
 67 84  1  0  0  0  0
 68 70  1  0  0  0  0
M  CHG  1  78   1
M  ISO  4  39 100  62 101  75 100  86 101
M  END
> <Batch ID>
0142

> <Smiles>
CNC(C)C(=O)NC(C(=O)N1Cc2cc([101O:1][101CH2:1]C(C)(C)CC(C)(O)CC(=N)c3ccc([100NH:0][100C:0](=O)N4CCCC(n5nc(-c6ccc(Oc7ccc(F)cc7F)cc6)c(C(N)=O)c5N)C4)cc3)ccc2CC1C(=O)NC1CCCc2ccccc21)C(C)(C)C

> <Shape>
0.310

> <Color>
0.088

> <Negative vol penalty>
0.000

$$$$

  -OEChem-04052302573D

 87 96  0     1  0  0  0  0  0999 V2000
  -28.3477   -9.8823   16.5497 C   0  0  0  0  0  0  0  0  0  0  0  0
  -27.2482  -10.7343   16.5256 C   0  0  0  0  0  0  0  0  0  0  0  0
  -25.1761  -31.1668   22.0370 C   0  0  0  0  0  0  0  0  0  0  0  0
  -24.6052  -31.4952   19.7125 C   0  0  0  0  0  0  0  0  0  0  0  0
  -29.3093  -10.0151   17.5504 C   0  0  0  0  0  0  0  0  0  0  0  0
  -27.1091  -11.7190   17.5031 C   0  0  0  0  0  0  0  0  0  0  0  0
  -24.7074  -17.3065   16.7843 C   0  0  0  0  0  0  0  0  0  0  0  0
  -21.3216  -22.6221   24.0275 C   0  0  0  0  0  0  0  0  0  0  0  0
  -22.2129  -23.2304   23.1437 C   0  0  0  0  0  0  0  0  0  0  0  0
  -24.6028  -32.3987   22.3519 C   0  0  0  0  0  0  0  0  0  0  0  0
  -24.0318  -32.7271   20.0274 C   0  0  0  0  0  0  0  0  0  0  0  0
  -23.4437  -17.8269   17.0602 C   0  0  0  0  0  0  0  0  0  0  0  0
  -23.6084  -35.6215   23.7116 C   0  0  0  0  0  0  0  0  0  0  0  0
  -24.3152  -36.4682   24.5654 C   0  0  0  0  0  0  0  0  0  0  0  0
  -21.1230  -22.1320   21.2883 C   0  0  0  0  0  0  0  0  0  0  0  0
  -24.2505  -18.6451   19.1813 C   0  0  0  0  0  0  0  0  0  0  0  0
  -26.1534  -36.5141   22.9982 C   0  0  0  0  0  0  0  0  0  0  0  0
  -25.1774  -30.7150   20.7173 C   0  0  0  0  0  0  0  0  0  0  0  0
  -27.1078  -29.0523   20.5901 C   0  0  0  0  0  0  0  0  0  0  0  0
  -29.1869  -11.0082   18.5351 C   0  0  0  0  0  0  0  0  0  0  0  0
  -25.7509  -17.4422   17.7111 C   0  0  0  0  0  0  0  0  0  0  0  0
  -28.0693  -11.8643   18.5188 C   0  0  0  0  0  0  0  0  0  0  0  0
  -20.2316  -21.5237   22.1721 C   0  0  0  0  0  0  0  0  0  0  0  0
  -25.5271  -18.1278   18.9136 C   0  0  0  0  0  0  0  0  0  0  0  0
  -20.3309  -21.7687   23.5416 C   0  0  0  0  0  0  0  0  0  0  0  0
  -22.1136  -22.9853   21.7741 C   0  0  0  0  0  0  0  0  0  0  0  0
  -24.0306  -33.1789   21.3472 C   0  0  0  0  0  0  0  0  0  0  0  0
  -23.2144  -18.4938   18.2601 C   0  0  0  0  0  0  0  0  0  0  0  0
  -24.1741  -35.2210   22.5011 C   0  0  0  0  0  0  0  0  0  0  0  0
  -25.5877  -36.9146   24.2087 C   0  0  0  0  0  0  0  0  0  0  0  0
  -25.4466  -35.6673   22.1444 C   0  0  0  0  0  0  0  0  0  0  0  0
  -25.7700  -29.4428   20.3913 C   0  0  0  0  0  0  0  0  0  0  0  0
  -27.1629  -27.7633   20.1190 C   0  0  0  0  0  0  0  0  0  0  0  0
  -28.2029  -29.7888   21.1506 C   0  0  0  0  0  0  0  0  0  0  0  0
  -27.5442  -15.4185   19.3821 C   0  0  0  0  0  0  0  0  0  0  0  0
  -29.1169  -18.1248   20.2334 C   0  0  0  0  0  0  0  0  0  0  0  0
  -29.0434  -21.5125   20.6389 C   0  0  0  0  0  0  0  0  0  0  0  0
  -23.0564  -23.4686   19.4885 C   0  0  0  0  0  0  0  0  0  0  0  0
  -30.2275  -11.0827   19.6243 C   0  0  0  0  0  0  0  0  0  0  0  0
  -27.1153  -16.8985   17.3868 C   0  0  0  0  0  0  0  0  0  0  0  0
  -26.6194  -18.3180   19.9331 C   0  0  0  0  0  0  0  0  0  0  0  0
  -30.1990  -12.3940   20.4052 C   0  0  0  0  0  0  0  0  0  0  0  0
  -25.1009  -24.8530   16.9232 C   0  0  0  0  0  0  0  0  0  0  0  0
  -18.6299  -20.9640   20.2227 C   0  0  0  0  0  0  0  0  0  0  0  0
  -28.7680  -12.7543   20.7916 C   0  0  0  0  0  0  0  0  0  0  0  0
  -25.6311  -26.1485   17.5418 C   0  0  0  0  0  0  0  0  0  0  0  0
  -19.4001  -20.1065   19.2194 C   0  0  0  0  0  0  0  0  0  0  0  0
  -23.6598  -24.5714   17.3450 C   0  0  0  0  0  0  0  0  0  0  0  0
  -23.9540  -25.8778   19.4129 C   0  0  0  0  0  0  0  0  0  0  0  0
  -19.1577  -20.5981   21.6187 C   0  0  1  0  0  0  0  0  0  0  0  0
  -27.8959  -12.9609   19.5472 C   0  0  1  0  0  0  0  0  0  0  0  0
  -27.9680  -16.6460   18.6263 C   0  0  1  0  0  0  0  0  0  0  0  0
  -25.4237  -26.1700   19.0689 C   0  0  2  0  0  0  0  0  0  0  0  0
  -20.0567  -18.9374   20.0000 C   0  0  1  0  0  0  0  0  0  0  0  0
  -19.5011  -19.0726   21.4738 C   0  0  0  0  0  0  0  0  0  0  0  0
  -19.3885  -21.1283   24.5073 C   0  0  0  0  0  0  0  0  0  0  0  0
  -19.7074  -17.5965   19.3212 C   0  0  0  0  0  0  0  0  0  0  0  0
  -18.1752  -18.2809   21.6685 C   0  0  0  0  0  0  0  0  0  0  0  0
  -20.4661  -18.5331   22.5458 C   0  0  0  0  0  0  0  0  0  0  0  0
  -30.4686  -23.4385   21.3852 C   0  0  0  0  0  0  0  0  0  0  0  0
  -28.7025  -17.3014   23.1420 C   0  0  0  0  0  0  0  0  0  0  0  0
  -29.2686  -19.6459   23.8136 C   0  0  0  0  0  0  0  0  0  0  0  0
  -30.9632  -18.2438   22.6366 C   0  0  0  0  0  0  0  0  0  0  0  0
  -28.8762  -22.8146   17.9865 C   0  0  0  0  0  0  0  0  0  0  0  0
  -21.5944  -19.0672   19.9042 C   0  0  0  0  0  0  0  0  0  1  0  0
  -28.9803  -19.1356   21.3463 C   0  0  1  0  0  0  0  0  0  0  0  0
  -30.0081  -22.6004   20.2027 C   0  0  2  0  0  0  0  0  0  0  0  0
  -29.4573  -18.5765   22.7165 C   0  0  0  0  0  0  0  0  0  0  0  0
  -25.0287  -28.4799   19.8369 N   0  0  0  0  0  0  0  0  0  0  0  0
  -25.9038  -27.4716   19.6833 N   0  0  0  0  0  0  0  0  0  0  0  0
  -27.9344  -17.7629   19.5726 N   0  0  0  0  0  0  0  0  0  0  0  0
  -23.5403  -24.6037   18.8043 N   0  0  0  0  0  0  0  0  0  0  0  0
  -28.1650  -26.8623   20.0389 N   0  0  0  0  0  0  0  0  0  0  0  0
  -29.0029  -30.5541   20.2911 N   0  0  0  0  0  0  0  0  0  0  0  0
  -23.0177  -23.6046   20.8758 N   0  0  0  0  0  0  0  0  0  0  0  0
  -28.1574  -14.2557   18.9561 N   0  0  0  0  0  0  0  0  0  0  0  0
  -29.6964  -20.3277   20.9053 N   0  0  0  0  0  0  0  0  0  0  0  0
  -29.3570  -23.5033   19.2118 N   0  3  0  0  0  0  0  0  0  0  0  0
  -28.4741  -29.7558   22.3749 O   0  0  0  0  0  0  0  0  0  0  0  0
  -26.7228  -15.5190   20.2859 O   0  0  0  0  0  0  0  0  0  0  0  0
  -30.2328  -17.6783   19.9556 O   0  0  0  0  0  0  0  0  0  0  0  0
  -27.8323  -21.6966   20.7375 O   0  0  0  0  0  0  0  0  0  0  0  0
  -22.7281  -22.4410   18.8899 O   0  0  0  0  0  0  0  0  0  0  0  0
  -23.4708  -34.3810   21.6541 O   0  0  0  0  0  0  0  0  0  0  0  0
  -21.9817  -19.0022   18.5323 O   0  0  0  0  0  0  0  0  0  1  0  0
  -26.2657  -37.7289   25.0280 F   0  0  0  0  0  0  0  0  0  0  0  0
  -25.9947  -35.2869   20.9822 F   0  0  0  0  0  0  0  0  0  0  0  0
  1  2  1  0  0  0  0
  1  5  2  0  0  0  0
  2  6  2  0  0  0  0
  3 10  2  0  0  0  0
  3 18  1  0  0  0  0
  4 11  1  0  0  0  0
  4 18  2  0  0  0  0
  5 20  1  0  0  0  0
  6 22  1  0  0  0  0
  7 12  2  0  0  0  0
  7 21  1  0  0  0  0
  8  9  2  0  0  0  0
  8 25  1  0  0  0  0
  9 26  1  0  0  0  0
 10 27  1  0  0  0  0
 11 27  2  0  0  0  0
 12 28  1  0  0  0  0
 13 14  2  0  0  0  0
 13 29  1  0  0  0  0
 14 30  1  0  0  0  0
 15 23  1  0  0  0  0
 15 26  2  0  0  0  0
 16 24  1  0  0  0  0
 16 28  2  0  0  0  0
 17 30  2  0  0  0  0
 17 31  1  0  0  0  0
 18 32  1  0  0  0  0
 19 32  1  0  0  0  0
 19 33  2  0  0  0  0
 19 34  1  0  0  0  0
 20 22  2  0  0  0  0
 20 39  1  0  0  0  0
 21 24  2  0  0  0  0
 21 40  1  0  0  0  0
 22 51  1  0  0  0  0
 23 25  2  0  0  0  0
 23 50  1  0  0  0  0
 24 41  1  0  0  0  0
 25 56  1  0  0  0  0
 26 75  1  0  0  0  0
 27 84  1  0  0  0  0
 28 85  1  0  0  0  0
 29 31  2  0  0  0  0
 29 84  1  0  0  0  0
 30 86  1  0  0  0  0
 31 87  1  0  0  0  0
 32 69  2  0  0  0  0
 33 70  1  0  0  0  0
 33 73  1  0  0  0  0
 34 74  1  0  0  0  0
 34 79  2  0  0  0  0
 35 52  1  0  0  0  0
 35 76  1  0  0  0  0
 35 80  2  0  0  0  0
 36 66  1  0  0  0  0
 36 71  1  0  0  0  0
 36 81  2  0  0  0  0
 37 67  1  0  0  0  0
 37 77  1  0  0  0  0
 37 82  2  0  0  0  0
 38 72  1  0  0  0  0
 38 75  1  0  0  0  0
 38 83  2  0  0  0  0
 39 42  1  0  0  0  0
 40 52  1  0  0  0  0
 41 71  1  0  0  0  0
 42 45  1  0  0  0  0
 43 46  1  0  0  0  0
 43 48  1  0  0  0  0
 44 47  1  0  0  0  0
 44 50  1  0  0  0  0
 45 51  1  0  0  0  0
 46 53  1  0  0  0  0
 47 54  1  0  0  0  0
 48 72  1  0  0  0  0
 49 53  1  0  0  0  0
 49 72  1  0  0  0  0
 50 55  1  0  0  0  0
 51 76  1  0  0  0  0
 52 71  1  0  0  0  0
 53 70  1  0  0  0  0
 54 55  1  0  0  0  0
 54 57  1  0  0  0  0
 54 65  1  0  0  0  0
 55 58  1  0  0  0  0
 55 59  1  0  0  0  0
 60 67  1  0  0  0  0
 61 68  1  0  0  0  0
 62 68  1  0  0  0  0
 63 68  1  0  0  0  0
 64 78  1  0  0  0  0
 65 85  1  0  0  0  0
 66 68  1  0  0  0  0
 66 77  1  0  0  0  0
 67 78  1  0  0  0  0
 69 70  1  0  0  0  0
M  CHG  1  78   1
M  ISO  4  38 100  65 101  75 100  85 101
M  END
> <Batch ID>
0142

> <Smiles>
CNC(C)C(=O)NC(C(=O)N1Cc2cc([101O:1][101CH2:1]C3(C)CCC(c4cc([100NH:0][100C:0](=O)N5CCCC(n6nc(-c7ccc(Oc8ccc(F)cc8F)cc7)c(C(N)=O)c6N)C5)ccc4C)C3(C)C)ccc2CC1C(=O)NC1CCCc2ccccc21)C(C)(C)C

> <Shape>
0.218

> <Color>
0.069

> <Negative vol penalty>
0.000

$$$$

  -OEChem-04052302573D

 87 95  0     1  0  0  0  0  0999 V2000
  -23.8424   -8.0527   22.3230 C   0  0  0  0  0  0  0  0  0  0  0  0
  -24.4735   -8.9958   21.5182 C   0  0  0  0  0  0  0  0  0  0  0  0
  -32.2611  -18.5572   22.8108 C   0  0  0  0  0  0  0  0  0  0  0  0
  -26.0237  -28.0865   19.2095 C   0  0  0  0  0  0  0  0  0  0  0  0
  -26.7053  -28.3260   21.5150 C   0  0  0  0  0  0  0  0  0  0  0  0
  -22.5197   -8.2483   22.7180 C   0  0  0  0  0  0  0  0  0  0  0  0
  -23.7818  -10.1345   21.1069 C   0  0  0  0  0  0  0  0  0  0  0  0
  -26.5427  -14.3552   21.5633 C   0  0  0  0  0  0  0  0  0  0  0  0
  -30.9841  -19.0462   23.0863 C   0  0  0  0  0  0  0  0  0  0  0  0
  -32.4715  -17.7450   21.6964 C   0  0  0  0  0  0  0  0  0  0  0  0
  -25.0172  -29.0313   19.4088 C   0  0  0  0  0  0  0  0  0  0  0  0
  -25.6987  -29.2709   21.7143 C   0  0  0  0  0  0  0  0  0  0  0  0
  -27.5055  -14.5952   20.5840 C   0  0  0  0  0  0  0  0  0  0  0  0
  -22.3577  -29.2802   22.2324 C   0  0  0  0  0  0  0  0  0  0  0  0
  -21.5831  -29.1681   23.3870 C   0  0  0  0  0  0  0  0  0  0  0  0
  -26.0042  -16.1372   19.4943 C   0  0  0  0  0  0  0  0  0  0  0  0
  -30.1279  -17.9105   21.1332 C   0  0  0  0  0  0  0  0  0  0  0  0
  -22.3027  -31.3669   24.0831 C   0  0  0  0  0  0  0  0  0  0  0  0
  -26.8678  -27.7338   20.2626 C   0  0  0  0  0  0  0  0  0  0  0  0
  -29.2304  -26.9991   19.6414 C   0  0  0  0  0  0  0  0  0  0  0  0
  -21.8145   -9.3947   22.3193 C   0  0  0  0  0  0  0  0  0  0  0  0
  -25.2971  -14.9972   21.5093 C   0  0  0  0  0  0  0  0  0  0  0  0
  -22.4479  -10.3450   21.4958 C   0  0  0  0  0  0  0  0  0  0  0  0
  -25.0282  -15.9056   20.4756 C   0  0  0  0  0  0  0  0  0  0  0  0
  -29.9175  -18.7228   22.2475 C   0  0  0  0  0  0  0  0  0  0  0  0
  -31.4049  -17.4216   20.8577 C   0  0  0  0  0  0  0  0  0  0  0  0
  -24.8547  -29.6235   20.6612 C   0  0  0  0  0  0  0  0  0  0  0  0
  -27.2353  -15.4841   19.5477 C   0  0  0  0  0  0  0  0  0  0  0  0
  -23.1048  -30.4356   22.0032 C   0  0  0  0  0  0  0  0  0  0  0  0
  -21.5556  -30.2115   24.3123 C   0  0  0  0  0  0  0  0  0  0  0  0
  -23.0773  -31.4790   22.9285 C   0  0  0  0  0  0  0  0  0  0  0  0
  -27.9074  -26.7575   20.0574 C   0  0  0  0  0  0  0  0  0  0  0  0
  -29.8101  -25.7546   19.6002 C   0  0  0  0  0  0  0  0  0  0  0  0
  -31.3284  -17.1359   18.5994 C   0  0  0  0  0  0  0  0  0  0  0  0
  -29.8775  -28.2377   19.3209 C   0  0  0  0  0  0  0  0  0  0  0  0
  -31.5147  -16.3184   17.3610 C   0  0  0  0  0  0  0  0  0  0  0  0
  -22.2836  -14.0265   21.2269 C   0  0  0  0  0  0  0  0  0  0  0  0
  -28.5031  -20.7527   22.5240 C   0  0  0  0  0  0  0  0  0  0  0  0
  -21.6358  -17.1679   21.7112 C   0  0  0  0  0  0  0  0  0  0  0  0
  -22.7025  -20.4053   21.5440 C   0  0  0  0  0  0  0  0  0  0  0  0
  -20.3711   -9.5394   22.7323 C   0  0  0  0  0  0  0  0  0  0  0  0
  -24.2792  -14.7478   22.5882 C   0  0  0  0  0  0  0  0  0  0  0  0
  -23.7141  -16.6358   20.3835 C   0  0  0  0  0  0  0  0  0  0  0  0
  -19.8281  -10.9559   22.5625 C   0  0  0  0  0  0  0  0  0  0  0  0
  -28.7564  -21.1451   18.9172 C   0  0  0  0  0  0  0  0  0  0  0  0
  -20.2151  -11.5160   21.1975 C   0  0  0  0  0  0  0  0  0  0  0  0
  -28.6582  -22.6627   18.7672 C   0  0  0  0  0  0  0  0  0  0  0  0
  -27.8834  -20.6365   20.0614 C   0  0  0  0  0  0  0  0  0  0  0  0
  -28.0673  -22.8128   21.2251 C   0  0  0  0  0  0  0  0  0  0  0  0
  -21.7388  -11.6052   21.0496 C   0  0  1  0  0  0  0  0  0  0  0  0
  -22.8533  -15.0666   22.1496 C   0  0  1  0  0  0  0  0  0  0  0  0
  -28.9569  -23.3695   20.1009 C   0  0  2  0  0  0  0  0  0  0  0  0
  -21.9366  -22.7564   21.9723 C   0  0  0  0  0  0  0  0  0  0  0  0
  -19.9808  -17.0930   19.1489 C   0  0  0  0  0  0  0  0  0  0  0  0
  -20.0427  -19.5956   19.1184 C   0  0  0  0  0  0  0  0  0  0  0  0
  -18.9528  -18.3998   21.0170 C   0  0  0  0  0  0  0  0  0  0  0  0
  -28.3353  -14.6560   15.8797 C   0  0  0  0  0  0  0  0  0  0  0  0
  -30.4721  -13.5380   16.5295 C   0  0  0  0  0  0  0  0  0  0  0  0
  -24.8149  -20.8479   23.5691 C   0  0  0  0  0  0  0  0  0  0  0  0
  -30.2844  -16.0719   16.5212 C   0  0  0  0  0  0  0  0  0  0  0  0
  -29.0709  -14.6536   18.2841 C   0  0  0  0  0  0  0  0  0  1  0  0
  -28.5521  -19.2456   22.5418 C   0  0  2  0  0  0  0  0  0  0  0  0
  -21.4732  -18.3757   20.8203 C   0  0  1  0  0  0  0  0  0  0  0  0
  -22.6413  -21.5394   22.5513 C   0  0  2  0  0  0  0  0  0  0  0  0
  -20.1365  -18.3509   20.0265 C   0  0  0  0  0  0  0  0  0  0  0  0
  -29.5561  -14.7400   16.8211 C   0  0  0  0  0  0  0  0  0  0  0  0
  -27.6608  -25.4613   20.2655 N   0  0  0  0  0  0  0  0  0  0  0  0
  -31.6167  -16.6033   19.7359 N   0  0  0  0  0  0  0  0  0  0  0  0
  -28.8368  -24.8773   19.9790 N   0  0  0  0  0  0  0  0  0  0  0  0
  -22.7488  -16.3535   21.4587 N   0  0  0  0  0  0  0  0  0  0  0  0
  -28.1792  -21.3537   21.3074 N   0  0  0  0  0  0  0  0  0  0  0  0
  -31.0522  -25.3360   19.2773 N   0  0  0  0  0  0  0  0  0  0  0  0
  -29.1360  -29.4232   19.4162 N   0  0  0  0  0  0  0  0  0  0  0  0
  -22.2496  -12.7545   21.7657 N   0  0  0  0  0  0  0  0  0  0  0  0
  -21.6357  -19.5425   21.6808 N   0  0  0  0  0  0  0  0  0  0  0  0
  -27.9854  -18.7645   23.8442 N   0  3  0  0  0  0  0  0  0  0  0  0
  -24.0161  -21.9430   22.9611 N   0  3  0  0  0  0  0  0  0  0  0  0
  -31.0731  -28.2900   18.9449 O   0  0  0  0  0  0  0  0  0  0  0  0
  -32.6359  -15.9073   17.1032 O   0  0  0  0  0  0  0  0  0  0  0  0
  -21.9016  -14.3541   20.1095 O   0  0  0  0  0  0  0  0  0  0  0  0
  -28.7485  -21.3753   23.5605 O   0  0  0  0  0  0  0  0  0  0  0  0
  -20.8098  -16.9588   22.6032 O   0  0  0  0  0  0  0  0  0  0  0  0
  -23.6044  -20.2978   20.7160 O   0  0  0  0  0  0  0  0  0  0  0  0
  -23.8727  -30.5457   20.8561 O   0  0  0  0  0  0  0  0  0  0  0  0
  -28.1731  -15.7197   18.5901 O   0  0  0  0  0  0  0  0  0  1  0  0
  -20.8105  -30.1044   25.4203 F   0  0  0  0  0  0  0  0  0  0  0  0
  -23.7920  -32.5919   22.7132 F   0  0  0  0  0  0  0  0  0  0  0  0
  1  2  1  0  0  0  0
  1  6  2  0  0  0  0
  2  7  2  0  0  0  0
  3  9  1  0  0  0  0
  3 10  2  0  0  0  0
  4 11  2  0  0  0  0
  4 19  1  0  0  0  0
  5 12  1  0  0  0  0
  5 19  2  0  0  0  0
  6 21  1  0  0  0  0
  7 23  1  0  0  0  0
  8 13  2  0  0  0  0
  8 22  1  0  0  0  0
  9 25  2  0  0  0  0
 10 26  1  0  0  0  0
 11 27  1  0  0  0  0
 12 27  2  0  0  0  0
 13 28  1  0  0  0  0
 14 15  2  0  0  0  0
 14 29  1  0  0  0  0
 15 30  1  0  0  0  0
 16 24  1  0  0  0  0
 16 28  2  0  0  0  0
 17 25  1  0  0  0  0
 17 26  2  0  0  0  0
 18 30  2  0  0  0  0
 18 31  1  0  0  0  0
 19 32  1  0  0  0  0
 20 32  1  0  0  0  0
 20 33  2  0  0  0  0
 20 35  1  0  0  0  0
 21 23  2  0  0  0  0
 21 41  1  0  0  0  0
 22 24  2  0  0  0  0
 22 42  1  0  0  0  0
 23 50  1  0  0  0  0
 24 43  1  0  0  0  0
 25 62  1  0  0  0  0
 26 68  1  0  0  0  0
 27 84  1  0  0  0  0
 28 85  1  0  0  0  0
 29 31  2  0  0  0  0
 29 84  1  0  0  0  0
 30 86  1  0  0  0  0
 31 87  1  0  0  0  0
 32 67  2  0  0  0  0
 33 69  1  0  0  0  0
 33 72  1  0  0  0  0
 34 36  1  0  0  0  0
 34 68  2  0  0  0  0
 35 73  1  0  0  0  0
 35 78  2  0  0  0  0
 36 60  1  0  0  0  0
 36 79  2  0  0  0  0
 37 51  1  0  0  0  0
 37 74  1  0  0  0  0
 37 80  2  0  0  0  0
 38 62  1  0  0  0  0
 38 71  1  0  0  0  0
 38 81  2  0  0  0  0
 39 63  1  0  0  0  0
 39 70  1  0  0  0  0
 39 82  2  0  0  0  0
 40 64  1  0  0  0  0
 40 75  1  0  0  0  0
 40 83  2  0  0  0  0
 41 44  1  0  0  0  0
 42 51  1  0  0  0  0
 43 70  1  0  0  0  0
 44 46  1  0  0  0  0
 45 47  1  0  0  0  0
 45 48  1  0  0  0  0
 46 50  1  0  0  0  0
 47 52  1  0  0  0  0
 48 71  1  0  0  0  0
 49 52  1  0  0  0  0
 49 71  1  0  0  0  0
 50 74  1  0  0  0  0
 51 70  1  0  0  0  0
 52 69  1  0  0  0  0
 53 64  1  0  0  0  0
 54 65  1  0  0  0  0
 55 65  1  0  0  0  0
 56 65  1  0  0  0  0
 57 66  1  0  0  0  0
 58 66  1  0  0  0  0
 59 77  1  0  0  0  0
 60 66  1  0  0  0  0
 61 66  1  0  0  0  0
 61 85  1  0  0  0  0
 62 76  1  0  0  0  0
 63 65  1  0  0  0  0
 63 75  1  0  0  0  0
 64 77  1  0  0  0  0
 67 69  1  0  0  0  0
M  CHG  2  76   1  77   1
M  ISO  4  38 100  61 101  62 100  85 101
M  END
> <Batch ID>
0142

> <Smiles>
CNC(C)C(=O)NC(C(=O)N1Cc2cc([101O:1][101CH2:1]C(C)(C)CC(=O)CNc3cccc([100C:0](=N)[100C:0](=O)N4CCCC(n5nc(-c6ccc(Oc7ccc(F)cc7F)cc6)c(C(N)=O)c5N)C4)c3)ccc2CC1C(=O)NC1CCCc2ccccc21)C(C)(C)C

> <Shape>
0.232

> <Color>
0.072

> <Negative vol penalty>
0.000

$$$$

  -OEChem-04052302573D

 90 98  0     1  0  0  0  0  0999 V2000
  -23.0631  -30.4819   26.9535 C   0  0  0  0  0  0  0  0  0  0  0  0
  -23.9040  -29.7541   26.1177 C   0  0  0  0  0  0  0  0  0  0  0  0
  -23.5134  -12.9486   19.6148 C   0  0  0  0  0  0  0  0  0  0  0  0
  -22.8030  -13.9977   21.6720 C   0  0  0  0  0  0  0  0  0  0  0  0
  -21.6882  -30.4896   26.7220 C   0  0  0  0  0  0  0  0  0  0  0  0
  -23.3703  -29.0326   25.0504 C   0  0  0  0  0  0  0  0  0  0  0  0
  -26.0180  -29.6414   20.7767 C   0  0  0  0  0  0  0  0  0  0  0  0
  -22.8524  -11.7771   19.9839 C   0  0  0  0  0  0  0  0  0  0  0  0
  -22.1419  -12.8262   22.0411 C   0  0  0  0  0  0  0  0  0  0  0  0
  -27.2077  -28.9243   20.6572 C   0  0  0  0  0  0  0  0  0  0  0  0
  -23.4010   -9.1495   22.0379 C   0  0  0  0  0  0  0  0  0  0  0  0
  -24.0767   -7.9420   21.8617 C   0  0  0  0  0  0  0  0  0  0  0  0
  -26.0782  -27.2905   19.2881 C   0  0  0  0  0  0  0  0  0  0  0  0
  -27.5712  -24.7661   23.0106 C   0  0  0  0  0  0  0  0  0  0  0  0
  -28.8013  -22.7105   22.6973 C   0  0  0  0  0  0  0  0  0  0  0  0
  -22.3312   -7.1823   20.3740 C   0  0  0  0  0  0  0  0  0  0  0  0
  -23.4888  -14.0589   20.4589 C   0  0  0  0  0  0  0  0  0  0  0  0
  -23.6439  -16.3489   19.3457 C   0  0  0  0  0  0  0  0  0  0  0  0
  -21.1384  -29.7757   25.6456 C   0  0  0  0  0  0  0  0  0  0  0  0
  -24.8450  -29.1819   20.1609 C   0  0  0  0  0  0  0  0  0  0  0  0
  -21.9866  -29.0297   24.8051 C   0  0  0  0  0  0  0  0  0  0  0  0
  -24.8756  -28.0050   19.3993 C   0  0  0  0  0  0  0  0  0  0  0  0
  -28.7083  -23.9917   23.2408 C   0  0  0  0  0  0  0  0  0  0  0  0
  -26.5270  -24.2591   22.2370 C   0  0  0  0  0  0  0  0  0  0  0  0
  -26.6200  -22.9779   21.6935 C   0  0  0  0  0  0  0  0  0  0  0  0
  -27.7572  -22.2035   21.9236 C   0  0  0  0  0  0  0  0  0  0  0  0
  -22.1666  -11.7159   21.1970 C   0  0  0  0  0  0  0  0  0  0  0  0
  -27.2372  -27.7472   19.9152 C   0  0  0  0  0  0  0  0  0  0  0  0
  -22.1904   -9.3734   21.3821 C   0  0  0  0  0  0  0  0  0  0  0  0
  -23.5418   -6.9584   21.0298 C   0  0  0  0  0  0  0  0  0  0  0  0
  -21.6555   -8.3898   20.5502 C   0  0  0  0  0  0  0  0  0  0  0  0
  -24.1720  -15.2691   20.0785 C   0  0  0  0  0  0  0  0  0  0  0  0
  -24.6841  -17.2409   19.2510 C   0  0  0  0  0  0  0  0  0  0  0  0
  -22.3306  -16.5296   18.7995 C   0  0  0  0  0  0  0  0  0  0  0  0
  -21.9859  -28.2521   21.1928 C   0  0  0  0  0  0  0  0  0  0  0  0
  -30.1373  -25.8463   20.9768 C   0  0  0  0  0  0  0  0  0  0  0  0
  -21.3099  -28.1392   18.0222 C   0  0  0  0  0  0  0  0  0  0  0  0
  -22.4606  -27.8374   14.8235 C   0  0  0  0  0  0  0  0  0  0  0  0
  -28.9424  -20.0169   21.5235 C   0  0  0  0  0  0  0  0  0  0  0  0
  -19.6413  -29.7758   25.4635 C   0  0  0  0  0  0  0  0  0  0  0  0
  -23.5761  -29.9811   20.2773 C   0  0  0  0  0  0  0  0  0  0  0  0
  -23.6484  -27.4797   18.7017 C   0  0  0  0  0  0  0  0  0  0  0  0
  -19.1950  -29.2881   24.0875 C   0  0  0  0  0  0  0  0  0  0  0  0
  -29.5912  -16.7102   20.3737 C   0  0  0  0  0  0  0  0  0  0  0  0
  -19.9366  -28.0104   23.7076 C   0  0  0  0  0  0  0  0  0  0  0  0
  -28.1957  -16.1293   20.1341 C   0  0  0  0  0  0  0  0  0  0  0  0
  -29.6216  -17.6276   21.5948 C   0  0  0  0  0  0  0  0  0  0  0  0
  -27.2188  -18.1152   21.3543 C   0  0  0  0  0  0  0  0  0  0  0  0
  -21.4481  -28.2546   23.6221 C   0  0  1  0  0  0  0  0  0  0  0  0
  -22.3211  -29.1484   20.0343 C   0  0  1  0  0  0  0  0  0  0  0  0
  -27.1235  -17.2359   20.0968 C   0  0  2  0  0  0  0  0  0  0  0  0
  -25.4965  -22.4384   20.8649 C   0  0  0  0  0  0  0  0  0  0  0  0
  -24.3991  -25.1453   23.2234 C   0  0  0  0  0  0  0  0  0  0  0  0
  -21.6662  -27.7426   12.4450 C   0  0  0  0  0  0  0  0  0  0  0  0
  -29.3006  -24.8601   25.4876 C   0  0  0  0  0  0  0  0  0  0  0  0
  -31.9119  -24.3745   21.9776 C   0  0  0  0  0  0  0  0  0  0  0  0
  -32.2690  -26.8183   21.9015 C   0  0  0  0  0  0  0  0  0  0  0  0
  -20.3760  -25.2663   18.4512 C   0  0  0  0  0  0  0  0  0  0  0  0
  -20.5035  -24.9286   15.9737 C   0  0  0  0  0  0  0  0  0  0  0  0
  -18.9295  -26.6160   16.9213 C   0  0  0  0  0  0  0  0  0  0  0  0
  -23.9844  -30.2679   14.0958 C   0  0  0  0  0  0  0  0  0  0  0  0
  -25.3198  -25.1083   22.0075 C   0  0  0  0  0  0  0  0  0  0  0  0
  -29.3177  -27.1245   20.8847 C   0  0  0  0  0  0  0  0  0  1  0  0
  -30.5321  -25.8112   23.5085 C   0  0  0  0  0  0  0  0  0  0  0  0
  -21.4133  -27.0878   16.9439 C   0  0  1  0  0  0  0  0  0  0  0  0
  -22.1669  -28.6380   13.5676 C   0  0  2  0  0  0  0  0  0  0  0  0
  -29.8447  -24.5432   24.0844 C   0  0  2  0  0  0  0  0  0  0  0  0
  -31.1923  -25.7355   22.0999 C   0  0  0  0  0  0  0  0  0  0  0  0
  -20.3284  -25.9833   17.0871 C   0  0  0  0  0  0  0  0  0  0  0  0
  -25.4484  -15.4560   20.4246 N   0  0  0  0  0  0  0  0  0  0  0  0
  -25.7312  -16.6635   19.9070 N   0  0  0  0  0  0  0  0  0  0  0  0
  -22.4305  -28.2933   18.8507 N   0  0  0  0  0  0  0  0  0  0  0  0
  -28.5817  -18.6533   21.4878 N   0  0  0  0  0  0  0  0  0  0  0  0
  -24.7960  -18.4550   18.6714 N   0  0  0  0  0  0  0  0  0  0  0  0
  -21.3829  -15.5146   18.9889 N   0  0  0  0  0  0  0  0  0  0  0  0
  -27.8728  -20.9001   21.3801 N   0  0  0  0  0  0  0  0  0  0  0  0
  -21.7827  -28.9237   22.3833 N   0  0  0  0  0  0  0  0  0  0  0  0
  -21.3745  -27.8021   15.6723 N   0  0  0  0  0  0  0  0  0  0  0  0
  -23.3973  -29.3360   13.0988 N   0  3  0  0  0  0  0  0  0  0  0  0
  -22.0121  -17.5533   18.1483 O   0  0  0  0  0  0  0  0  0  0  0  0
  -21.9153  -27.0411   21.0191 O   0  0  0  0  0  0  0  0  0  0  0  0
  -29.9699  -24.9383   20.1589 O   0  0  0  0  0  0  0  0  0  0  0  0
  -20.2758  -28.8043   18.1212 O   0  0  0  0  0  0  0  0  0  0  0  0
  -23.5437  -27.2943   15.0292 O   0  0  0  0  0  0  0  0  0  0  0  0
  -30.1170  -20.3745   21.6430 O   0  0  0  0  0  0  0  0  0  0  0  0
  -21.5212  -10.5730   21.5574 O   0  0  0  0  0  0  0  0  0  0  0  0
  -28.3969  -27.0450   19.7974 O   0  0  0  0  0  0  0  0  0  1  0  0
  -24.1915   -5.7995   20.8596 F   0  0  0  0  0  0  0  0  0  0  0  0
  -20.4935   -8.5996   19.9166 F   0  0  0  0  0  0  0  0  0  0  0  0
  -30.8292  -23.6095   24.2907 F   0  0  0  0  0  0  0  0  0  0  0  0
  1  2  1  0  0  0  0
  1  5  2  0  0  0  0
  2  6  2  0  0  0  0
  3  8  2  0  0  0  0
  3 17  1  0  0  0  0
  4  9  1  0  0  0  0
  4 17  2  0  0  0  0
  5 19  1  0  0  0  0
  6 21  1  0  0  0  0
  7 10  2  0  0  0  0
  7 20  1  0  0  0  0
  8 27  1  0  0  0  0
  9 27  2  0  0  0  0
 10 28  1  0  0  0  0
 11 12  2  0  0  0  0
 11 29  1  0  0  0  0
 12 30  1  0  0  0  0
 13 22  1  0  0  0  0
 13 28  2  0  0  0  0
 14 23  2  0  0  0  0
 14 24  1  0  0  0  0
 15 23  1  0  0  0  0
 15 26  2  0  0  0  0
 16 30  2  0  0  0  0
 16 31  1  0  0  0  0
 17 32  1  0  0  0  0
 18 32  1  0  0  0  0
 18 33  2  0  0  0  0
 18 34  1  0  0  0  0
 19 21  2  0  0  0  0
 19 40  1  0  0  0  0
 20 22  2  0  0  0  0
 20 41  1  0  0  0  0
 21 49  1  0  0  0  0
 22 42  1  0  0  0  0
 23 67  1  0  0  0  0
 24 25  2  0  0  0  0
 24 62  1  0  0  0  0
 25 26  1  0  0  0  0
 25 52  1  0  0  0  0
 26 76  1  0  0  0  0
 27 86  1  0  0  0  0
 28 87  1  0  0  0  0
 29 31  2  0  0  0  0
 29 86  1  0  0  0  0
 30 88  1  0  0  0  0
 31 89  1  0  0  0  0
 32 70  2  0  0  0  0
 33 71  1  0  0  0  0
 33 74  1  0  0  0  0
 34 75  1  0  0  0  0
 34 80  2  0  0  0  0
 35 50  1  0  0  0  0
 35 77  1  0  0  0  0
 35 81  2  0  0  0  0
 36 63  1  0  0  0  0
 36 68  1  0  0  0  0
 36 82  2  0  0  0  0
 37 65  1  0  0  0  0
 37 72  1  0  0  0  0
 37 83  2  0  0  0  0
 38 66  1  0  0  0  0
 38 78  1  0  0  0  0
 38 84  2  0  0  0  0
 39 73  1  0  0  0  0
 39 76  1  0  0  0  0
 39 85  2  0  0  0  0
 40 43  1  0  0  0  0
 41 50  1  0  0  0  0
 42 72  1  0  0  0  0
 43 45  1  0  0  0  0
 44 46  1  0  0  0  0
 44 47  1  0  0  0  0
 45 49  1  0  0  0  0
 46 51  1  0  0  0  0
 47 73  1  0  0  0  0
 48 51  1  0  0  0  0
 48 73  1  0  0  0  0
 49 77  1  0  0  0  0
 50 72  1  0  0  0  0
 51 71  1  0  0  0  0
 53 62  1  0  0  0  0
 54 66  1  0  0  0  0
 55 67  1  0  0  0  0
 56 68  1  0  0  0  0
 57 68  1  0  0  0  0
 58 69  1  0  0  0  0
 59 69  1  0  0  0  0
 60 69  1  0  0  0  0
 61 79  1  0  0  0  0
 63 87  1  0  0  0  0
 64 67  1  0  0  0  0
 64 68  1  0  0  0  0
 65 69  1  0  0  0  0
 65 78  1  0  0  0  0
 66 79  1  0  0  0  0
 67 90  1  0  0  0  0
 70 71  1  0  0  0  0
M  CHG  1  79   1
M  ISO  4  39 100  63 101  76 100  87 101
M  END
> <Batch ID>
0142

> <Smiles>
CCc1cc(C(C)(F)CC(C)(C)C(=O)[101CH2:1][101O:1]c2ccc3c(c2)CN(C(=O)C(NC(=O)C(C)NC)C(C)(C)C)C(C(=O)NC2CCCc4ccccc42)C3)cc([100NH:0][100C:0](=O)N2CCCC(n3nc(-c4ccc(Oc5ccc(F)cc5F)cc4)c(C(N)=O)c3N)C2)c1C

> <Shape>
0.212

> <Color>
0.077

> <Negative vol penalty>
0.000

$$$$

  -OEChem-04052302573D

 87 96  0     1  0  0  0  0  0999 V2000
  -29.0209  -36.8604   24.5023 C   0  0  0  0  0  0  0  0  0  0  0  0
  -29.2259  -35.5806   23.9968 C   0  0  0  0  0  0  0  0  0  0  0  0
  -22.8794   -9.8762   20.0195 C   0  0  0  0  0  0  0  0  0  0  0  0
  -24.5717   -8.8904   21.4342 C   0  0  0  0  0  0  0  0  0  0  0  0
  -27.8494  -37.1542   25.1989 C   0  0  0  0  0  0  0  0  0  0  0  0
  -28.2599  -34.5934   24.1887 C   0  0  0  0  0  0  0  0  0  0  0  0
  -27.8202  -19.5185   20.3572 C   0  0  0  0  0  0  0  0  0  0  0  0
  -26.7771  -30.0906   20.3116 C   0  0  0  0  0  0  0  0  0  0  0  0
  -28.2715  -18.2156   20.1466 C   0  0  0  0  0  0  0  0  0  0  0  0
  -21.8877   -9.4196   20.8876 C   0  0  0  0  0  0  0  0  0  0  0  0
  -23.5800   -8.4338   22.3024 C   0  0  0  0  0  0  0  0  0  0  0  0
  -27.1455  -28.7475   20.2490 C   0  0  0  0  0  0  0  0  0  0  0  0
  -21.3559   -5.8905   22.4270 C   0  0  0  0  0  0  0  0  0  0  0  0
  -21.4515   -4.5771   22.8868 C   0  0  0  0  0  0  0  0  0  0  0  0
  -25.1310  -28.1460   21.4318 C   0  0  0  0  0  0  0  0  0  0  0  0
  -26.2040  -17.6823   19.0161 C   0  0  0  0  0  0  0  0  0  0  0  0
  -21.5680   -5.3821   25.1618 C   0  0  0  0  0  0  0  0  0  0  0  0
  -24.2214   -9.6115   20.2928 C   0  0  0  0  0  0  0  0  0  0  0  0
  -25.3974   -9.7607   18.0339 C   0  0  0  0  0  0  0  0  0  0  0  0
  -26.8643  -36.1727   25.3910 C   0  0  0  0  0  0  0  0  0  0  0  0
  -25.5862  -30.4732   20.9454 C   0  0  0  0  0  0  0  0  0  0  0  0
  -27.0747  -34.8740   24.8897 C   0  0  0  0  0  0  0  0  0  0  0  0
  -26.5608  -19.9033   19.8973 C   0  0  0  0  0  0  0  0  0  0  0  0
  -24.7485  -29.4944   21.4989 C   0  0  0  0  0  0  0  0  0  0  0  0
  -25.7527  -18.9852   19.2267 C   0  0  0  0  0  0  0  0  0  0  0  0
  -27.4634  -17.2975   19.4761 C   0  0  0  0  0  0  0  0  0  0  0  0
  -22.2380   -8.6985   22.0291 C   0  0  0  0  0  0  0  0  0  0  0  0
  -26.3239  -27.7752   20.8117 C   0  0  0  0  0  0  0  0  0  0  0  0
  -21.3664   -6.9497   23.3346 C   0  0  0  0  0  0  0  0  0  0  0  0
  -21.5576   -4.3229   24.2542 C   0  0  0  0  0  0  0  0  0  0  0  0
  -21.4724   -6.6955   24.7020 C   0  0  0  0  0  0  0  0  0  0  0  0
  -25.2463  -10.0824   19.3961 C   0  0  0  0  0  0  0  0  0  0  0  0
  -26.5127  -10.4578   17.6382 C   0  0  0  0  0  0  0  0  0  0  0  0
  -24.6008   -8.9080   17.2008 C   0  0  0  0  0  0  0  0  0  0  0  0
  -24.8626  -32.2856   23.4545 C   0  0  0  0  0  0  0  0  0  0  0  0
  -21.8182  -31.7525   22.4697 C   0  0  0  0  0  0  0  0  0  0  0  0
  -19.6324  -29.7676   20.7582 C   0  0  0  0  0  0  0  0  0  0  0  0
  -29.1456  -15.4303   19.6498 C   0  0  0  0  0  0  0  0  0  0  0  0
  -25.6354  -36.5246   26.1915 C   0  0  0  0  0  0  0  0  0  0  0  0
  -25.1898  -31.9237   20.9810 C   0  0  0  0  0  0  0  0  0  0  0  0
  -23.4496  -29.8510   22.1728 C   0  0  0  0  0  0  0  0  0  0  0  0
  -24.4944  -35.5239   26.0273 C   0  0  0  0  0  0  0  0  0  0  0  0
  -30.6324  -12.2101   19.3387 C   0  0  0  0  0  0  0  0  0  0  0  0
  -26.9923  -22.3531   19.4329 C   0  0  0  0  0  0  0  0  0  0  0  0
  -25.9688  -21.6409   21.6393 C   0  0  0  0  0  0  0  0  0  0  0  0
  -25.0148  -34.0956   26.1532 C   0  0  0  0  0  0  0  0  0  0  0  0
  -29.4339  -11.2704   19.1880 C   0  0  0  0  0  0  0  0  0  0  0  0
  -26.5038  -23.7847   19.6706 C   0  0  0  0  0  0  0  0  0  0  0  0
  -25.4791  -23.0725   21.8724 C   0  0  0  0  0  0  0  0  0  0  0  0
  -30.3388  -13.3527   20.3093 C   0  0  0  0  0  0  0  0  0  0  0  0
  -27.9217  -13.1785   19.8660 C   0  0  0  0  0  0  0  0  0  0  0  0
  -26.0915  -21.3265   20.1391 C   0  0  0  0  0  0  0  0  0  0  0  0
  -26.0392  -33.7830   25.0558 C   0  0  1  0  0  0  0  0  0  0  0  0
  -24.2077  -32.2474   22.1027 C   0  0  1  0  0  0  0  0  0  0  0  0
  -28.1472  -12.0482   18.8486 C   0  0  2  0  0  0  0  0  0  0  0  0
  -26.3618  -24.1126   21.1645 C   0  0  0  0  0  0  0  0  0  0  0  0
  -23.3632  -19.4336   19.8398 C   0  0  0  0  0  0  0  0  0  0  0  0
  -17.2027  -29.5701   20.1623 C   0  0  0  0  0  0  0  0  0  0  0  0
  -21.2058  -30.7843   25.2977 C   0  0  0  0  0  0  0  0  0  0  0  0
  -19.1116  -29.7374   24.4108 C   0  0  0  0  0  0  0  0  0  0  0  0
  -19.4232  -32.2086   24.2737 C   0  0  0  0  0  0  0  0  0  0  0  0
  -20.2093  -29.9441   17.8608 C   0  0  0  0  0  0  0  0  0  0  0  0
  -24.4017  -19.3753   18.7236 C   0  0  0  0  0  0  0  0  0  0  0  0
  -25.7925  -25.5204   21.3497 C   0  0  0  0  0  0  0  0  0  1  0  0
  -20.7709  -30.7031   22.7540 C   0  0  1  0  0  0  0  0  0  0  0  0
  -18.5628  -30.0978   19.7328 C   0  0  2  0  0  0  0  0  0  0  0  0
  -20.1532  -30.8515   24.1731 C   0  0  0  0  0  0  0  0  0  0  0  0
  -26.1902  -10.9186   19.8362 N   0  0  0  0  0  0  0  0  0  0  0  0
  -26.9452  -11.1282   18.7444 N   0  0  0  0  0  0  0  0  0  0  0  0
  -23.1089  -31.2833   22.1876 N   0  0  0  0  0  0  0  0  0  0  0  0
  -29.1083  -14.0465   19.9225 N   0  0  0  0  0  0  0  0  0  0  0  0
  -27.1559  -10.5564   16.4554 N   0  0  0  0  0  0  0  0  0  0  0  0
  -24.9382   -7.5502   17.1180 N   0  0  0  0  0  0  0  0  0  0  0  0
  -27.9222  -15.9743   19.2602 N   0  0  0  0  0  0  0  0  0  0  0  0
  -25.3703  -33.5238   23.7989 N   0  0  0  0  0  0  0  0  0  0  0  0
  -19.8006  -30.7900   21.6680 N   0  0  0  0  0  0  0  0  0  0  0  0
  -18.9059  -29.4945   18.4140 N   0  3  0  0  0  0  0  0  0  0  0  0
  -23.6289   -9.3407   16.5362 O   0  0  0  0  0  0  0  0  0  0  0  0
  -24.9029  -31.2675   24.1353 O   0  0  0  0  0  0  0  0  0  0  0  0
  -21.5011  -32.9445   22.4899 O   0  0  0  0  0  0  0  0  0  0  0  0
  -20.2537  -28.7072   20.7549 O   0  0  0  0  0  0  0  0  0  0  0  0
  -30.1919  -16.0792   19.7279 O   0  0  0  0  0  0  0  0  0  0  0  0
  -27.6682  -24.0901   21.7475 O   0  0  0  0  0  0  0  0  0  0  0  0
  -21.2705   -8.2530   22.8766 O   0  0  0  0  0  0  0  0  0  0  0  0
  -26.6815  -26.4635   20.7525 O   0  0  0  0  0  0  0  0  0  1  0  0
  -21.6479   -3.0615   24.6958 F   0  0  0  0  0  0  0  0  0  0  0  0
  -21.4818   -7.7089   25.5788 F   0  0  0  0  0  0  0  0  0  0  0  0
  1  2  1  0  0  0  0
  1  5  2  0  0  0  0
  2  6  2  0  0  0  0
  3 10  2  0  0  0  0
  3 18  1  0  0  0  0
  4 11  1  0  0  0  0
  4 18  2  0  0  0  0
  5 20  1  0  0  0  0
  6 22  1  0  0  0  0
  7  9  2  0  0  0  0
  7 23  1  0  0  0  0
  8 12  2  0  0  0  0
  8 21  1  0  0  0  0
  9 26  1  0  0  0  0
 10 27  1  0  0  0  0
 11 27  2  0  0  0  0
 12 28  1  0  0  0  0
 13 14  2  0  0  0  0
 13 29  1  0  0  0  0
 14 30  1  0  0  0  0
 15 24  1  0  0  0  0
 15 28  2  0  0  0  0
 16 25  1  0  0  0  0
 16 26  2  0  0  0  0
 17 30  2  0  0  0  0
 17 31  1  0  0  0  0
 18 32  1  0  0  0  0
 19 32  1  0  0  0  0
 19 33  2  0  0  0  0
 19 34  1  0  0  0  0
 20 22  2  0  0  0  0
 20 39  1  0  0  0  0
 21 24  2  0  0  0  0
 21 40  1  0  0  0  0
 22 53  1  0  0  0  0
 23 25  2  0  0  0  0
 23 52  1  0  0  0  0
 24 41  1  0  0  0  0
 25 63  1  0  0  0  0
 26 74  1  0  0  0  0
 27 84  1  0  0  0  0
 28 85  1  0  0  0  0
 29 31  2  0  0  0  0
 29 84  1  0  0  0  0
 30 86  1  0  0  0  0
 31 87  1  0  0  0  0
 32 68  2  0  0  0  0
 33 69  1  0  0  0  0
 33 72  1  0  0  0  0
 34 73  1  0  0  0  0
 34 78  2  0  0  0  0
 35 54  1  0  0  0  0
 35 75  1  0  0  0  0
 35 79  2  0  0  0  0
 36 65  1  0  0  0  0
 36 70  1  0  0  0  0
 36 80  2  0  0  0  0
 37 66  1  0  0  0  0
 37 76  1  0  0  0  0
 37 81  2  0  0  0  0
 38 71  1  0  0  0  0
 38 74  1  0  0  0  0
 38 82  2  0  0  0  0
 39 42  1  0  0  0  0
 40 54  1  0  0  0  0
 41 70  1  0  0  0  0
 42 46  1  0  0  0  0
 43 47  1  0  0  0  0
 43 50  1  0  0  0  0
 44 48  1  0  0  0  0
 44 52  1  0  0  0  0
 45 49  1  0  0  0  0
 45 52  1  0  0  0  0
 46 53  1  0  0  0  0
 47 55  1  0  0  0  0
 48 56  1  0  0  0  0
 49 56  1  0  0  0  0
 50 71  1  0  0  0  0
 51 55  1  0  0  0  0
 51 71  1  0  0  0  0
 53 75  1  0  0  0  0
 54 70  1  0  0  0  0
 55 69  1  0  0  0  0
 56 64  1  0  0  0  0
 56 83  1  0  0  0  0
 57 63  1  0  0  0  0
 58 66  1  0  0  0  0
 59 67  1  0  0  0  0
 60 67  1  0  0  0  0
 61 67  1  0  0  0  0
 62 77  1  0  0  0  0
 64 85  1  0  0  0  0
 65 67  1  0  0  0  0
 65 76  1  0  0  0  0
 66 77  1  0  0  0  0
 68 69  1  0  0  0  0
M  CHG  1  77   1
M  ISO  4  38 100  64 101  74 100  85 101
M  END
> <Batch ID>
0142

> <Smiles>
CCc1cc([100NH:0][100C:0](=O)N2CCCC(n3nc(-c4ccc(Oc5ccc(F)cc5F)cc4)c(C(N)=O)c3N)C2)ccc1C1CCC(O)([101CH2:1][101O:1]c2ccc3c(c2)CN(C(=O)C(NC(=O)C(C)NC)C(C)(C)C)C(C(=O)NC2CCCc4ccccc42)C3)CC1

> <Shape>
0.275

> <Color>
0.086

> <Negative vol penalty>
0.000

$$$$

  -OEChem-04052302573D

 92100  0     1  0  0  0  0  0999 V2000
  -27.9218  -34.5631   25.4529 C   0  0  0  0  0  0  0  0  0  0  0  0
  -27.9964  -33.1998   25.1858 C   0  0  0  0  0  0  0  0  0  0  0  0
  -21.7269  -12.0541   23.0819 C   0  0  0  0  0  0  0  0  0  0  0  0
  -22.3405  -10.7722   21.1282 C   0  0  0  0  0  0  0  0  0  0  0  0
  -26.6873  -35.2105   25.4283 C   0  0  0  0  0  0  0  0  0  0  0  0
  -26.8363  -32.4829   24.8950 C   0  0  0  0  0  0  0  0  0  0  0  0
  -27.4198  -29.3588   20.9524 C   0  0  0  0  0  0  0  0  0  0  0  0
  -21.0975  -10.9320   23.6206 C   0  0  0  0  0  0  0  0  0  0  0  0
  -21.7112   -9.6499   21.6669 C   0  0  0  0  0  0  0  0  0  0  0  0
  -28.0936  -28.1604   21.1839 C   0  0  0  0  0  0  0  0  0  0  0  0
  -20.5778   -6.3501   22.6890 C   0  0  0  0  0  0  0  0  0  0  0  0
  -21.2529   -5.1315   22.6202 C   0  0  0  0  0  0  0  0  0  0  0  0
  -25.9803  -27.0044   21.3140 C   0  0  0  0  0  0  0  0  0  0  0  0
  -23.0676   -6.0636   23.9144 C   0  0  0  0  0  0  0  0  0  0  0  0
  -22.3484  -11.9743   21.8357 C   0  0  0  0  0  0  0  0  0  0  0  0
  -24.3417  -13.5182   21.4476 C   0  0  0  0  0  0  0  0  0  0  0  0
  -25.5126  -34.5032   25.1276 C   0  0  0  0  0  0  0  0  0  0  0  0
  -26.0185  -29.3909   20.9107 C   0  0  0  0  0  0  0  0  0  0  0  0
  -25.5847  -33.1213   24.8677 C   0  0  0  0  0  0  0  0  0  0  0  0
  -25.2912  -28.2040   21.0792 C   0  0  0  0  0  0  0  0  0  0  0  0
  -21.0897   -9.7299   22.9131 C   0  0  0  0  0  0  0  0  0  0  0  0
  -27.3738  -26.9834   21.3676 C   0  0  0  0  0  0  0  0  0  0  0  0
  -21.1477   -7.4256   23.3705 C   0  0  0  0  0  0  0  0  0  0  0  0
  -22.4978   -4.9882   23.2329 C   0  0  0  0  0  0  0  0  0  0  0  0
  -22.3926   -7.2823   23.9832 C   0  0  0  0  0  0  0  0  0  0  0  0
  -22.9982  -13.1333   21.2784 C   0  0  0  0  0  0  0  0  0  0  0  0
  -24.4603  -14.6786   20.7224 C   0  0  0  0  0  0  0  0  0  0  0  0
  -21.2940  -23.2012   19.7740 C   0  0  0  0  0  0  0  0  0  0  0  0
  -22.7349  -23.2628   19.8081 C   0  0  0  0  0  0  0  0  0  0  0  0
  -20.4987  -22.2676   19.2335 C   0  0  0  0  0  0  0  0  0  0  0  0
  -23.5965  -22.6229   18.9987 C   0  0  0  0  0  0  0  0  0  0  0  0
  -25.3888  -12.8835   22.1935 C   0  0  0  0  0  0  0  0  0  0  0  0
  -23.7561  -30.8331   22.6153 C   0  0  0  0  0  0  0  0  0  0  0  0
  -29.9928  -23.6969   19.4136 C   0  0  0  0  0  0  0  0  0  0  0  0
  -21.7985  -29.5822   20.3514 C   0  0  0  0  0  0  0  0  0  0  0  0
  -21.2726  -27.1861   17.9788 C   0  0  0  0  0  0  0  0  0  0  0  0
  -22.7871  -19.5108   19.1285 C   0  0  0  0  0  0  0  0  0  0  0  0
  -24.1952  -35.2368   25.1593 C   0  0  0  0  0  0  0  0  0  0  0  0
  -25.3075  -30.6871   20.6334 C   0  0  0  0  0  0  0  0  0  0  0  0
  -23.7863  -28.1814   21.0235 C   0  0  0  0  0  0  0  0  0  0  0  0
  -20.8234  -20.9967   18.5034 C   0  0  0  0  0  0  0  0  0  0  0  0
  -23.1750  -21.6394   17.9403 C   0  0  0  0  0  0  0  0  0  0  0  0
  -23.0601  -34.4801   24.4744 C   0  0  0  0  0  0  0  0  0  0  0  0
  -21.3157  -16.8429   17.4143 C   0  0  0  0  0  0  0  0  0  0  0  0
  -23.0483  -33.0204   24.9168 C   0  0  0  0  0  0  0  0  0  0  0  0
  -21.7330  -15.6568   18.2832 C   0  0  0  0  0  0  0  0  0  0  0  0
  -20.9111  -18.0553   18.2550 C   0  0  0  0  0  0  0  0  0  0  0  0
  -22.3506  -17.2819   20.1117 C   0  0  0  0  0  0  0  0  0  0  0  0
  -24.3516  -32.3143   24.5238 C   0  0  1  0  0  0  0  0  0  0  0  0
  -23.8626  -30.6927   21.1231 C   0  0  1  0  0  0  0  0  0  0  0  0
  -22.8181  -16.0676   19.2943 C   0  0  1  0  0  0  0  0  0  0  0  0
  -19.5626  -26.3986   16.3196 C   0  0  0  0  0  0  0  0  0  0  0  0
  -24.9805  -24.8022   17.5253 C   0  0  0  0  0  0  0  0  0  0  0  0
  -30.0841  -23.0861   16.9662 C   0  0  0  0  0  0  0  0  0  0  0  0
  -30.2534  -21.2974   18.6805 C   0  0  0  0  0  0  0  0  0  0  0  0
  -20.1675  -28.3540   22.6189 C   0  0  0  0  0  0  0  0  0  0  0  0
  -19.0903  -26.8472   20.9345 C   0  0  0  0  0  0  0  0  0  0  0  0
  -18.8045  -29.3189   20.7573 C   0  0  0  0  0  0  0  0  0  0  0  0
  -29.5443  -23.9858   23.3059 C   0  0  0  0  0  0  0  0  0  0  0  0
  -31.5944  -24.5532   22.0196 C   0  0  0  0  0  0  0  0  0  0  0  0
  -23.1037  -27.6443   15.6993 C   0  0  0  0  0  0  0  0  0  0  0  0
  -25.0778  -22.8574   19.1153 C   0  0  0  0  0  0  0  0  0  0  0  0
  -29.6019  -23.4358   20.8716 C   0  0  0  0  0  0  0  0  0  0  0  0
  -27.2350  -23.7000   17.9467 C   0  0  0  0  0  0  0  0  0  0  0  0
  -28.0406  -22.4519   18.3437 C   0  0  0  0  0  0  0  0  0  0  0  0
  -29.4548  -25.8627   21.6313 C   0  0  0  0  0  0  0  0  0  1  0  0
  -21.0414  -28.2861   20.1904 C   0  0  1  0  0  0  0  0  0  0  0  0
  -20.7822  -27.2787   16.5451 C   0  0  2  0  0  0  0  0  0  0  0  0
  -25.7042  -23.4936   17.8601 C   0  0  2  0  0  0  0  0  0  0  0  0
  -29.5804  -22.6441   18.3547 C   0  0  0  0  0  0  0  0  0  0  0  0
  -19.8042  -28.2020   21.1283 C   0  0  0  0  0  0  0  0  0  0  0  0
  -30.0584  -24.4732   21.9305 C   0  0  0  0  0  0  0  0  0  0  0  0
  -22.3124  -13.9805   20.5065 N   0  0  0  0  0  0  0  0  0  0  0  0
  -23.2285  -14.9094   20.1842 N   0  0  0  0  0  0  0  0  0  0  0  0
  -23.1367  -29.4752   20.7559 N   0  0  0  0  0  0  0  0  0  0  0  0
  -22.2499  -20.6480   18.4941 N   0  0  0  0  0  0  0  0  0  0  0  0
  -21.9583  -18.3844   19.2318 N   0  0  0  0  0  0  0  0  0  0  0  0
  -25.4970  -15.5139   20.4990 N   0  0  0  0  0  0  0  0  0  0  0  0
  -25.0955  -11.6976   22.8805 N   0  0  0  0  0  0  0  0  0  0  0  0
  -24.3409  -31.9808   23.1155 N   0  0  0  0  0  0  0  0  0  0  0  0
  -20.7240  -28.1724   18.7710 N   0  0  0  0  0  0  0  0  0  0  0  0
  -21.8532  -26.8482   15.6025 N   0  3  0  0  0  0  0  0  0  0  0  0
  -26.5459  -13.3629   22.2626 O   0  0  0  0  0  0  0  0  0  0  0  0
  -23.1843  -29.9652   23.2645 O   0  0  0  0  0  0  0  0  0  0  0  0
  -30.6273  -24.7014   19.0873 O   0  0  0  0  0  0  0  0  0  0  0  0
  -21.2258  -30.6499   20.1196 O   0  0  0  0  0  0  0  0  0  0  0  0
  -22.0605  -26.3228   18.3588 O   0  0  0  0  0  0  0  0  0  0  0  0
  -23.9406  -19.5040   19.5768 O   0  0  0  0  0  0  0  0  0  0  0  0
  -20.4759   -8.6346   23.4386 O   0  0  0  0  0  0  0  0  0  0  0  0
  -28.0333  -25.8047   21.5959 O   0  0  0  0  0  0  0  0  0  1  0  0
  -23.1453   -3.8174   23.1680 F   0  0  0  0  0  0  0  0  0  0  0  0
  -22.9445   -8.3116   24.6403 F   0  0  0  0  0  0  0  0  0  0  0  0
  1  2  1  0  0  0  0
  1  5  2  0  0  0  0
  2  6  2  0  0  0  0
  3  8  2  0  0  0  0
  3 15  1  0  0  0  0
  4  9  1  0  0  0  0
  4 15  2  0  0  0  0
  5 17  1  0  0  0  0
  6 19  1  0  0  0  0
  7 10  2  0  0  0  0
  7 18  1  0  0  0  0
  8 21  1  0  0  0  0
  9 21  2  0  0  0  0
 10 22  1  0  0  0  0
 11 12  2  0  0  0  0
 11 23  1  0  0  0  0
 12 24  1  0  0  0  0
 13 20  1  0  0  0  0
 13 22  2  0  0  0  0
 14 24  2  0  0  0  0
 14 25  1  0  0  0  0
 15 26  1  0  0  0  0
 16 26  1  0  0  0  0
 16 27  2  0  0  0  0
 16 32  1  0  0  0  0
 17 19  2  0  0  0  0
 17 38  1  0  0  0  0
 18 20  2  0  0  0  0
 18 39  1  0  0  0  0
 19 49  1  0  0  0  0
 20 40  1  0  0  0  0
 21 89  1  0  0  0  0
 22 90  1  0  0  0  0
 23 25  2  0  0  0  0
 23 89  1  0  0  0  0
 24 91  1  0  0  0  0
 25 92  1  0  0  0  0
 26 73  2  0  0  0  0
 27 74  1  0  0  0  0
 27 78  1  0  0  0  0
 28 29  1  0  0  0  0
 28 30  2  0  0  0  0
 29 31  2  0  0  0  0
 30 41  1  0  0  0  0
 31 42  1  0  0  0  0
 31 62  1  0  0  0  0
 32 79  1  0  0  0  0
 32 83  2  0  0  0  0
 33 50  1  0  0  0  0
 33 80  1  0  0  0  0
 33 84  2  0  0  0  0
 34 63  1  0  0  0  0
 34 70  1  0  0  0  0
 34 85  2  0  0  0  0
 35 67  1  0  0  0  0
 35 75  1  0  0  0  0
 35 86  2  0  0  0  0
 36 68  1  0  0  0  0
 36 81  1  0  0  0  0
 36 87  2  0  0  0  0
 37 76  1  0  0  0  0
 37 77  1  0  0  0  0
 37 88  2  0  0  0  0
 38 43  1  0  0  0  0
 39 50  1  0  0  0  0
 40 75  1  0  0  0  0
 41 76  1  0  0  0  0
 42 76  1  0  0  0  0
 43 45  1  0  0  0  0
 44 46  1  0  0  0  0
 44 47  1  0  0  0  0
 45 49  1  0  0  0  0
 46 51  1  0  0  0  0
 47 77  1  0  0  0  0
 48 51  1  0  0  0  0
 48 77  1  0  0  0  0
 49 80  1  0  0  0  0
 50 75  1  0  0  0  0
 51 74  1  0  0  0  0
 52 68  1  0  0  0  0
 53 69  1  0  0  0  0
 54 70  1  0  0  0  0
 55 70  1  0  0  0  0
 56 71  1  0  0  0  0
 57 71  1  0  0  0  0
 58 71  1  0  0  0  0
 59 72  1  0  0  0  0
 60 72  1  0  0  0  0
 61 82  1  0  0  0  0
 62 69  1  0  0  0  0
 63 72  1  0  0  0  0
 64 65  1  0  0  0  0
 64 69  1  0  0  0  0
 65 70  1  0  0  0  0
 66 72  1  0  0  0  0
 66 90  1  0  0  0  0
 67 71  1  0  0  0  0
 67 81  1  0  0  0  0
 68 82  1  0  0  0  0
 73 74  1  0  0  0  0
M  CHG  1  82   1
M  ISO  4  37 100  66 101  76 100  90 101
M  END
> <Batch ID>
0142

> <Smiles>
CNC(C)C(=O)NC(C(=O)N1Cc2cc([101O:1][101CH2:1]C(C)(C)CC(=O)C(C)(C)CCC(C)CC3=CC=CC[100N:0]([100C:0](=O)N4CCCC(n5nc(-c6ccc(Oc7ccc(F)cc7F)cc6)c(C(N)=O)c5N)C4)C3)ccc2CC1C(=O)NC1CCCc2ccccc21)C(C)(C)C

> <Shape>
0.246

> <Color>
0.085

> <Negative vol penalty>
0.000

$$$$

  -OEChem-04052302573D

 85 93  0     1  0  0  0  0  0999 V2000
  -29.9798  -20.7889   21.6264 C   0  0  0  0  0  0  0  0  0  0  0  0
  -28.5964  -20.9161   21.5540 C   0  0  0  0  0  0  0  0  0  0  0  0
  -28.3600  -26.2738   18.2601 C   0  0  0  0  0  0  0  0  0  0  0  0
  -26.3704  -24.9673   18.6742 C   0  0  0  0  0  0  0  0  0  0  0  0
  -30.5934  -19.6101   21.2048 C   0  0  0  0  0  0  0  0  0  0  0  0
  -27.8257  -19.8647   21.0587 C   0  0  0  0  0  0  0  0  0  0  0  0
  -23.7236  -18.9623   23.8877 C   0  0  0  0  0  0  0  0  0  0  0  0
  -29.1391  -25.1220   18.3692 C   0  0  0  0  0  0  0  0  0  0  0  0
  -27.1495  -23.8154   18.7832 C   0  0  0  0  0  0  0  0  0  0  0  0
  -22.6384  -19.8231   23.7285 C   0  0  0  0  0  0  0  0  0  0  0  0
  -29.9389  -22.4637   16.4387 C   0  0  0  0  0  0  0  0  0  0  0  0
  -30.9321  -22.2598   15.4808 C   0  0  0  0  0  0  0  0  0  0  0  0
  -21.5631  -18.1955   22.3095 C   0  0  0  0  0  0  0  0  0  0  0  0
  -19.9775  -26.9396   23.2066 C   0  0  0  0  0  0  0  0  0  0  0  0
  -32.6095  -22.2621   17.2196 C   0  0  0  0  0  0  0  0  0  0  0  0
  -18.2762  -27.2389   21.7950 C   0  0  0  0  0  0  0  0  0  0  0  0
  -26.9757  -26.1965   18.4127 C   0  0  0  0  0  0  0  0  0  0  0  0
  -25.5839  -27.9088   17.1325 C   0  0  0  0  0  0  0  0  0  0  0  0
  -29.8291  -18.5402   20.7131 C   0  0  0  0  0  0  0  0  0  0  0  0
  -23.7415  -17.7140   23.2490 C   0  0  0  0  0  0  0  0  0  0  0  0
  -28.4298  -18.6710   20.6288 C   0  0  0  0  0  0  0  0  0  0  0  0
  -22.6485  -17.3196   22.4642 C   0  0  0  0  0  0  0  0  0  0  0  0
  -18.9588  -26.2676   22.4897 C   0  0  0  0  0  0  0  0  0  0  0  0
  -28.5338  -23.8928   18.6307 C   0  0  0  0  0  0  0  0  0  0  0  0
  -21.5593  -19.4410   22.9371 C   0  0  0  0  0  0  0  0  0  0  0  0
  -30.2810  -22.5669   17.7871 C   0  0  0  0  0  0  0  0  0  0  0  0
  -32.2674  -22.1590   15.8713 C   0  0  0  0  0  0  0  0  0  0  0  0
  -31.6163  -22.4661   18.1775 C   0  0  0  0  0  0  0  0  0  0  0  0
  -26.1704  -27.3861   18.3007 C   0  0  0  0  0  0  0  0  0  0  0  0
  -19.8450  -28.2736   22.8987 C   0  0  0  0  0  0  0  0  0  0  0  0
  -24.9280  -29.0396   17.5540 C   0  0  0  0  0  0  0  0  0  0  0  0
  -25.6279  -27.4161   15.7868 C   0  0  0  0  0  0  0  0  0  0  0  0
  -25.6010  -16.3353   21.0707 C   0  0  0  0  0  0  0  0  0  0  0  0
  -19.7852  -22.4512   21.9788 C   0  0  0  0  0  0  0  0  0  0  0  0
  -23.7647  -13.7395   21.7127 C   0  0  0  0  0  0  0  0  0  0  0  0
  -20.7999  -12.5007   22.8627 C   0  0  0  0  0  0  0  0  0  0  0  0
  -22.6809  -30.7169   22.8444 C   0  0  0  0  0  0  0  0  0  0  0  0
  -30.5411  -17.3035   20.2249 C   0  0  0  0  0  0  0  0  0  0  0  0
  -24.9075  -16.7860   23.4523 C   0  0  0  0  0  0  0  0  0  0  0  0
  -22.6098  -15.9817   21.7736 C   0  0  0  0  0  0  0  0  0  0  0  0
  -29.6220  -16.0955   20.0628 C   0  0  0  0  0  0  0  0  0  0  0  0
  -25.1163  -32.4470   20.9073 C   0  0  0  0  0  0  0  0  0  0  0  0
  -28.3443  -16.4915   19.3295 C   0  0  0  0  0  0  0  0  0  0  0  0
  -25.6097  -31.3933   19.9142 C   0  0  0  0  0  0  0  0  0  0  0  0
  -24.8157  -31.8369   22.2746 C   0  0  0  0  0  0  0  0  0  0  0  0
  -24.3851  -29.6339   21.2572 C   0  0  0  0  0  0  0  0  0  0  0  0
  -27.5577  -17.5435   20.1207 C   0  0  1  0  0  0  0  0  0  0  0  0
  -25.0487  -15.7512   22.3402 C   0  0  1  0  0  0  0  0  0  0  0  0
  -24.6481  -30.1915   19.8479 C   0  0  2  0  0  0  0  0  0  0  0  0
  -20.3955  -24.3894   20.5576 C   0  0  0  0  0  0  0  0  0  0  0  0
  -19.5780  -10.3400   23.2308 C   0  0  0  0  0  0  0  0  0  0  0  0
  -18.3460  -24.3206   23.9442 C   0  0  0  0  0  0  0  0  0  0  0  0
  -17.4123  -24.3827   21.6551 C   0  0  0  0  0  0  0  0  0  0  0  0
  -23.2188  -13.5406   18.7174 C   0  0  0  0  0  0  0  0  0  0  0  0
  -21.2997  -12.0195   19.2388 C   0  0  0  0  0  0  0  0  0  0  0  0
  -23.6229  -11.3488   19.8519 C   0  0  0  0  0  0  0  0  0  0  0  0
  -20.6035  -12.9742   25.7775 C   0  0  0  0  0  0  0  0  0  0  0  0
  -20.5809  -29.4781   23.3077 C   0  0  0  0  0  0  0  0  0  0  0  0
  -20.7635  -21.6803   22.8460 C   0  0  0  0  0  0  0  0  0  1  0  0
  -19.9398  -23.9777   21.9644 C   0  0  1  0  0  0  0  0  0  0  0  0
  -22.4747  -13.1802   21.1632 C   0  0  1  0  0  0  0  0  0  0  0  0
  -20.4871  -11.3905   23.8495 C   0  0  2  0  0  0  0  0  0  0  0  0
  -18.6691  -24.7456   22.4869 C   0  0  0  0  0  0  0  0  0  0  0  0
  -22.6553  -12.5484   19.7541 C   0  0  0  0  0  0  0  0  0  0  0  0
  -25.9103  -28.1243   19.3830 N   0  0  0  0  0  0  0  0  0  0  0  0
  -25.1531  -29.1224   18.8966 N   0  0  0  0  0  0  0  0  0  0  0  0
  -23.7764  -15.1122   21.9980 N   0  0  0  0  0  0  0  0  0  0  0  0
  -23.8972  -30.7035   22.1419 N   0  0  0  0  0  0  0  0  0  0  0  0
  -24.1866  -29.9612   16.9034 N   0  0  0  0  0  0  0  0  0  0  0  0
  -26.3467  -26.2409   15.5287 N   0  0  0  0  0  0  0  0  0  0  0  0
  -26.8434  -16.9226   21.2156 N   0  0  0  0  0  0  0  0  0  0  0  0
  -21.9680  -12.2560   22.1720 N   0  0  0  0  0  0  0  0  0  0  0  0
  -21.8661  -29.6070   22.6576 N   0  0  0  0  0  0  0  0  0  0  0  0
  -19.8110  -11.9453   25.0562 N   0  3  0  0  0  0  0  0  0  0  0  0
  -25.0606  -28.0096   14.8384 O   0  0  0  0  0  0  0  0  0  0  0  0
  -24.9490  -16.2574   20.0361 O   0  0  0  0  0  0  0  0  0  0  0  0
  -18.9276  -21.8752   21.3093 O   0  0  0  0  0  0  0  0  0  0  0  0
  -24.7244  -12.9848   21.8893 O   0  0  0  0  0  0  0  0  0  0  0  0
  -20.0782  -13.4847   22.7162 O   0  0  0  0  0  0  0  0  0  0  0  0
  -22.3435  -31.6515   23.5791 O   0  0  0  0  0  0  0  0  0  0  0  0
  -18.8102  -28.4645   22.0387 O   0  0  0  0  0  0  0  0  0  0  0  0
  -29.2937  -22.7686   18.7370 O   0  0  0  0  0  0  0  0  0  0  0  0
  -20.4991  -20.2795   22.7795 O   0  0  0  0  0  0  0  0  0  1  0  0
  -33.2209  -21.9616   14.9514 F   0  0  0  0  0  0  0  0  0  0  0  0
  -31.9510  -22.5633   19.4715 F   0  0  0  0  0  0  0  0  0  0  0  0
  1  2  1  0  0  0  0
  1  5  2  0  0  0  0
  2  6  2  0  0  0  0
  3  8  2  0  0  0  0
  3 17  1  0  0  0  0
  4  9  1  0  0  0  0
  4 17  2  0  0  0  0
  5 19  1  0  0  0  0
  6 21  1  0  0  0  0
  7 10  2  0  0  0  0
  7 20  1  0  0  0  0
  8 24  1  0  0  0  0
  9 24  2  0  0  0  0
 10 25  1  0  0  0  0
 11 12  2  0  0  0  0
 11 26  1  0  0  0  0
 12 27  1  0  0  0  0
 13 22  1  0  0  0  0
 13 25  2  0  0  0  0
 14 23  1  0  0  0  0
 14 30  2  0  0  0  0
 15 27  2  0  0  0  0
 15 28  1  0  0  0  0
 16 23  2  0  0  0  0
 16 81  1  0  0  0  0
 17 29  1  0  0  0  0
 18 29  1  0  0  0  0
 18 31  2  0  0  0  0
 18 32  1  0  0  0  0
 19 21  2  0  0  0  0
 19 38  1  0  0  0  0
 20 22  2  0  0  0  0
 20 39  1  0  0  0  0
 21 47  1  0  0  0  0
 22 40  1  0  0  0  0
 23 63  1  0  0  0  0
 24 82  1  0  0  0  0
 25 83  1  0  0  0  0
 26 28  2  0  0  0  0
 26 82  1  0  0  0  0
 27 84  1  0  0  0  0
 28 85  1  0  0  0  0
 29 65  2  0  0  0  0
 30 58  1  0  0  0  0
 30 81  1  0  0  0  0
 31 66  1  0  0  0  0
 31 69  1  0  0  0  0
 32 70  1  0  0  0  0
 32 75  2  0  0  0  0
 33 48  1  0  0  0  0
 33 71  1  0  0  0  0
 33 76  2  0  0  0  0
 34 59  1  0  0  0  0
 34 60  1  0  0  0  0
 34 77  2  0  0  0  0
 35 61  1  0  0  0  0
 35 67  1  0  0  0  0
 35 78  2  0  0  0  0
 36 62  1  0  0  0  0
 36 72  1  0  0  0  0
 36 79  2  0  0  0  0
 37 68  1  0  0  0  0
 37 73  1  0  0  0  0
 37 80  2  0  0  0  0
 38 41  1  0  0  0  0
 39 48  1  0  0  0  0
 40 67  1  0  0  0  0
 41 43  1  0  0  0  0
 42 44  1  0  0  0  0
 42 45  1  0  0  0  0
 43 47  1  0  0  0  0
 44 49  1  0  0  0  0
 45 68  1  0  0  0  0
 46 49  1  0  0  0  0
 46 68  1  0  0  0  0
 47 71  1  0  0  0  0
 48 67  1  0  0  0  0
 49 66  1  0  0  0  0
 50 60  1  0  0  0  0
 51 62  1  0  0  0  0
 52 63  1  0  0  0  0
 53 63  1  0  0  0  0
 54 64  1  0  0  0  0
 55 64  1  0  0  0  0
 56 64  1  0  0  0  0
 57 74  1  0  0  0  0
 58 73  1  0  0  0  0
 59 83  1  0  0  0  0
 60 63  1  0  0  0  0
 61 64  1  0  0  0  0
 61 72  1  0  0  0  0
 62 74  1  0  0  0  0
 65 66  1  0  0  0  0
M  CHG  1  74   1
M  ISO  4  37 100  59 101  73 100  83 101
M  END
> <Batch ID>
0142

> <Smiles>
CNC(C)C(=O)NC(C(=O)N1Cc2cc([101O:1][101CH2:1]C(=O)C(C)C(C)(C)c3coc(C[100NH:0][100C:0](=O)N4CCCC(n5nc(-c6ccc(Oc7ccc(F)cc7F)cc6)c(C(N)=O)c5N)C4)c3)ccc2CC1C(=O)NC1CCCc2ccccc21)C(C)(C)C

> <Shape>
0.209

> <Color>
0.075

> <Negative vol penalty>
0.000

$$$$

  -OEChem-04052302573D

 85 94  0     1  0  0  0  0  0999 V2000
  -36.3659  -29.9568   27.4785 C   0  0  0  0  0  0  0  0  0  0  0  0
  -35.5640  -29.0293   26.8212 C   0  0  0  0  0  0  0  0  0  0  0  0
  -23.0764   -9.8662   19.9411 C   0  0  0  0  0  0  0  0  0  0  0  0
  -23.8348   -9.8749   22.2350 C   0  0  0  0  0  0  0  0  0  0  0  0
  -36.3388  -31.2967   27.0940 C   0  0  0  0  0  0  0  0  0  0  0  0
  -34.7335  -29.4415   25.7796 C   0  0  0  0  0  0  0  0  0  0  0  0
  -34.9268  -26.3261   21.7919 C   0  0  0  0  0  0  0  0  0  0  0  0
  -22.3327   -8.7130   20.1914 C   0  0  0  0  0  0  0  0  0  0  0  0
  -23.0910   -8.7218   22.4853 C   0  0  0  0  0  0  0  0  0  0  0  0
  -34.2112  -25.1329   21.8808 C   0  0  0  0  0  0  0  0  0  0  0  0
  -19.8627   -7.9235   23.0862 C   0  0  0  0  0  0  0  0  0  0  0  0
  -19.1049   -7.8841   24.2566 C   0  0  0  0  0  0  0  0  0  0  0  0
  -31.8819  -18.8137   22.3703 C   0  0  0  0  0  0  0  0  0  0  0  0
  -31.7940  -17.5549   21.7086 C   0  0  0  0  0  0  0  0  0  0  0  0
  -32.4375  -26.1059   20.5668 C   0  0  0  0  0  0  0  0  0  0  0  0
  -20.3464   -5.9475   24.9952 C   0  0  0  0  0  0  0  0  0  0  0  0
  -23.8275  -10.4471   20.9629 C   0  0  0  0  0  0  0  0  0  0  0  0
  -24.1687  -12.9723   20.8414 C   0  0  0  0  0  0  0  0  0  0  0  0
  -35.5147  -31.7238   26.0408 C   0  0  0  0  0  0  0  0  0  0  0  0
  -34.3975  -27.4236   21.0978 C   0  0  0  0  0  0  0  0  0  0  0  0
  -34.6943  -30.7886   25.3815 C   0  0  0  0  0  0  0  0  0  0  0  0
  -33.1496  -27.3111   20.4684 C   0  0  0  0  0  0  0  0  0  0  0  0
  -22.3400   -8.1408   21.4635 C   0  0  0  0  0  0  0  0  0  0  0  0
  -32.9650  -25.0236   21.2706 C   0  0  0  0  0  0  0  0  0  0  0  0
  -20.8622   -6.9748   22.8702 C   0  0  0  0  0  0  0  0  0  0  0  0
  -19.3468   -6.8962   25.2111 C   0  0  0  0  0  0  0  0  0  0  0  0
  -21.1041   -5.9869   23.8248 C   0  0  0  0  0  0  0  0  0  0  0  0
  -24.5964  -11.6380   20.7049 C   0  0  0  0  0  0  0  0  0  0  0  0
  -25.2609  -13.7218   20.4783 C   0  0  0  0  0  0  0  0  0  0  0  0
  -30.7344  -19.1106   23.0721 C   0  0  0  0  0  0  0  0  0  0  0  0
  -30.5825  -16.9374   21.9302 C   0  0  0  0  0  0  0  0  0  0  0  0
  -29.1757  -20.4558   24.5518 C   0  0  0  0  0  0  0  0  0  0  0  0
  -22.8978  -13.4880   21.2591 C   0  0  0  0  0  0  0  0  0  0  0  0
  -31.2167  -22.2674   22.8460 C   0  0  0  0  0  0  0  0  0  0  0  0
  -33.5539  -30.3840   21.8903 C   0  0  0  0  0  0  0  0  0  0  0  0
  -33.1139  -30.6980   18.6919 C   0  0  0  0  0  0  0  0  0  0  0  0
  -32.4982  -29.1945   15.6907 C   0  0  0  0  0  0  0  0  0  0  0  0
  -30.7267  -14.7690   20.6561 C   0  0  0  0  0  0  0  0  0  0  0  0
  -35.4841  -33.1908   25.6921 C   0  0  0  0  0  0  0  0  0  0  0  0
  -35.1939  -28.6949   20.9885 C   0  0  0  0  0  0  0  0  0  0  0  0
  -32.5461  -28.4533   19.6941 C   0  0  0  0  0  0  0  0  0  0  0  0
  -29.2618  -21.7961   25.2434 C   0  0  0  0  0  0  0  0  0  0  0  0
  -34.8555  -33.4805   24.3315 C   0  0  0  0  0  0  0  0  0  0  0  0
  -30.7502  -22.0970   25.2730 C   0  0  0  0  0  0  0  0  0  0  0  0
  -29.6145  -12.3534   18.2886 C   0  0  0  0  0  0  0  0  0  0  0  0
  -33.5520  -32.7049   24.1697 C   0  0  0  0  0  0  0  0  0  0  0  0
  -28.1747  -12.0617   18.7174 C   0  0  0  0  0  0  0  0  0  0  0  0
  -30.5288  -12.5832   19.4907 C   0  0  0  0  0  0  0  0  0  0  0  0
  -28.6207  -13.3080   20.8703 C   0  0  0  0  0  0  0  0  0  0  0  0
  -33.7986  -31.1926   24.2306 C   0  0  1  0  0  0  0  0  0  0  0  0
  -31.2908  -21.3759   24.0513 C   0  0  1  0  0  0  0  0  0  0  0  0
  -34.3305  -29.9172   20.6918 C   0  0  1  0  0  0  0  0  0  0  0  0
  -27.6487  -13.1337   19.6919 C   0  0  2  0  0  0  0  0  0  0  0  0
  -32.1558  -29.7155   13.2599 C   0  0  0  0  0  0  0  0  0  0  0  0
  -30.2918  -31.6838   19.3032 C   0  0  0  0  0  0  0  0  0  0  0  0
  -29.7053  -31.2784   16.9032 C   0  0  0  0  0  0  0  0  0  0  0  0
  -31.4672  -32.9438   17.4907 C   0  0  0  0  0  0  0  0  0  0  0  0
  -34.8547  -27.5902   14.8955 C   0  0  0  0  0  0  0  0  0  0  0  0
  -32.4612  -23.0681   22.5267 C   0  0  0  0  0  0  0  0  0  1  0  0
  -31.9593  -30.4770   17.7447 C   0  0  1  0  0  0  0  0  0  0  0  0
  -33.1647  -29.3418   14.3347 C   0  0  2  0  0  0  0  0  0  0  0  0
  -30.8661  -31.5747   17.8766 C   0  0  0  0  0  0  0  0  0  0  0  0
  -25.8616  -11.5423   20.2875 N   0  0  0  0  0  0  0  0  0  0  0  0
  -26.2382  -12.8259   20.1586 N   0  0  0  0  0  0  0  0  0  0  0  0
  -30.3922  -20.2501   23.8687 N   0  0  0  0  0  0  0  0  0  0  0  0
  -33.3606  -29.6776   19.6213 N   0  0  0  0  0  0  0  0  0  0  0  0
  -29.9690  -13.6144   20.3671 N   0  0  0  0  0  0  0  0  0  0  0  0
  -25.4710  -15.0533   20.4046 N   0  0  0  0  0  0  0  0  0  0  0  0
  -21.8859  -12.5788   21.5963 N   0  0  0  0  0  0  0  0  0  0  0  0
  -30.0786  -15.6944   21.4735 N   0  0  0  0  0  0  0  0  0  0  0  0
  -34.3411  -30.7180   22.9757 N   0  0  0  0  0  0  0  0  0  0  0  0
  -32.5404  -30.3695   16.4108 N   0  0  0  0  0  0  0  0  0  0  0  0
  -33.8216  -28.0640   13.9388 N   0  3  0  0  0  0  0  0  0  0  0  0
  -28.1704  -19.7615   24.5998 O   0  0  0  0  0  0  0  0  0  0  0  0
  -22.6612  -14.7186   21.3154 O   0  0  0  0  0  0  0  0  0  0  0  0
  -30.1957  -22.3356   22.1634 O   0  0  0  0  0  0  0  0  0  0  0  0
  -32.3309  -30.4385   21.8340 O   0  0  0  0  0  0  0  0  0  0  0  0
  -33.7771  -31.7345   18.6054 O   0  0  0  0  0  0  0  0  0  0  0  0
  -31.9878  -28.1432   16.0713 O   0  0  0  0  0  0  0  0  0  0  0  0
  -31.8561  -14.9377   20.1891 O   0  0  0  0  0  0  0  0  0  0  0  0
  -21.6142   -7.0156   21.7081 O   0  0  0  0  0  0  0  0  0  0  0  0
  -32.2641  -23.8604   21.3564 O   0  0  0  0  0  0  0  0  0  1  0  0
  -18.6201   -6.8595   26.3357 F   0  0  0  0  0  0  0  0  0  0  0  0
  -22.0638   -5.0735   23.6234 F   0  0  0  0  0  0  0  0  0  0  0  0
  -29.5576  -17.8745   22.9320 S   0  0  0  0  0  0  0  0  0  0  0  0
  1  2  1  0  0  0  0
  1  5  2  0  0  0  0
  2  6  2  0  0  0  0
  3  8  2  0  0  0  0
  3 17  1  0  0  0  0
  4  9  1  0  0  0  0
  4 17  2  0  0  0  0
  5 19  1  0  0  0  0
  6 21  1  0  0  0  0
  7 10  2  0  0  0  0
  7 20  1  0  0  0  0
  8 23  1  0  0  0  0
  9 23  2  0  0  0  0
 10 24  1  0  0  0  0
 11 12  2  0  0  0  0
 11 25  1  0  0  0  0
 12 26  1  0  0  0  0
 13 14  1  0  0  0  0
 13 30  2  0  0  0  0
 14 31  2  0  0  0  0
 15 22  1  0  0  0  0
 15 24  2  0  0  0  0
 16 26  2  0  0  0  0
 16 27  1  0  0  0  0
 17 28  1  0  0  0  0
 18 28  1  0  0  0  0
 18 29  2  0  0  0  0
 18 33  1  0  0  0  0
 19 21  2  0  0  0  0
 19 39  1  0  0  0  0
 20 22  2  0  0  0  0
 20 40  1  0  0  0  0
 21 50  1  0  0  0  0
 22 41  1  0  0  0  0
 23 81  1  0  0  0  0
 24 82  1  0  0  0  0
 25 27  2  0  0  0  0
 25 81  1  0  0  0  0
 26 83  1  0  0  0  0
 27 84  1  0  0  0  0
 28 63  2  0  0  0  0
 29 64  1  0  0  0  0
 29 68  1  0  0  0  0
 30 65  1  0  0  0  0
 30 85  1  0  0  0  0
 31 70  1  0  0  0  0
 31 85  1  0  0  0  0
 32 42  1  0  0  0  0
 32 65  1  0  0  0  0
 32 74  2  0  0  0  0
 33 69  1  0  0  0  0
 33 75  2  0  0  0  0
 34 51  1  0  0  0  0
 34 59  1  0  0  0  0
 34 76  2  0  0  0  0
 35 52  1  0  0  0  0
 35 71  1  0  0  0  0
 35 77  2  0  0  0  0
 36 60  1  0  0  0  0
 36 66  1  0  0  0  0
 36 78  2  0  0  0  0
 37 61  1  0  0  0  0
 37 72  1  0  0  0  0
 37 79  2  0  0  0  0
 38 67  1  0  0  0  0
 38 70  1  0  0  0  0
 38 80  2  0  0  0  0
 39 43  1  0  0  0  0
 40 52  1  0  0  0  0
 41 66  1  0  0  0  0
 42 44  1  0  0  0  0
 43 46  1  0  0  0  0
 44 51  1  0  0  0  0
 45 47  1  0  0  0  0
 45 48  1  0  0  0  0
 46 50  1  0  0  0  0
 47 53  1  0  0  0  0
 48 67  1  0  0  0  0
 49 53  1  0  0  0  0
 49 67  1  0  0  0  0
 50 71  1  0  0  0  0
 51 65  1  0  0  0  0
 52 66  1  0  0  0  0
 53 64  1  0  0  0  0
 54 61  1  0  0  0  0
 55 62  1  0  0  0  0
 56 62  1  0  0  0  0
 57 62  1  0  0  0  0
 58 73  1  0  0  0  0
 59 82  1  0  0  0  0
 60 62  1  0  0  0  0
 60 72  1  0  0  0  0
 61 73  1  0  0  0  0
 63 64  1  0  0  0  0
M  CHG  1  73   1
M  ISO  4  38 100  59 101  70 100  82 101
M  END
> <Batch ID>
0142

> <Smiles>
CNC(C)C(=O)NC(C(=O)N1Cc2cc([101O:1][101CH2:1]C(=O)C3CCC(=O)N3c3ccc([100NH:0][100C:0](=O)N4CCCC(n5nc(-c6ccc(Oc7ccc(F)cc7F)cc6)c(C(N)=O)c5N)C4)s3)ccc2CC1C(=O)NC1CCCc2ccccc21)C(C)(C)C

> <Shape>
0.174

> <Color>
0.188

> <Negative vol penalty>
0.000

$$$$

  -OEChem-04052302573D

 89 97  0     1  0  0  0  0  0999 V2000
  -27.0855  -31.5924   28.1537 C   0  0  0  0  0  0  0  0  0  0  0  0
  -27.3669  -30.6550   27.1651 C   0  0  0  0  0  0  0  0  0  0  0  0
  -24.4829  -12.1063   19.7760 C   0  0  0  0  0  0  0  0  0  0  0  0
  -25.5269  -12.3850   21.9369 C   0  0  0  0  0  0  0  0  0  0  0  0
  -25.7765  -32.0344   28.3414 C   0  0  0  0  0  0  0  0  0  0  0  0
  -26.3392  -30.1582   26.3642 C   0  0  0  0  0  0  0  0  0  0  0  0
  -27.6025  -29.9934   21.4630 C   0  0  0  0  0  0  0  0  0  0  0  0
  -24.7744  -10.7428   19.8110 C   0  0  0  0  0  0  0  0  0  0  0  0
  -25.8184  -11.0213   21.9719 C   0  0  0  0  0  0  0  0  0  0  0  0
  -28.4213  -28.9427   21.0515 C   0  0  0  0  0  0  0  0  0  0  0  0
  -24.9239   -7.1244   19.4940 C   0  0  0  0  0  0  0  0  0  0  0  0
  -23.9165   -6.2361   19.1177 C   0  0  0  0  0  0  0  0  0  0  0  0
  -26.4867  -27.7719   20.2115 C   0  0  0  0  0  0  0  0  0  0  0  0
  -32.1050  -19.9626   23.9884 C   0  0  0  0  0  0  0  0  0  0  0  0
  -30.9246  -20.1672   21.8903 C   0  0  0  0  0  0  0  0  0  0  0  0
  -22.5128   -7.0743   20.8965 C   0  0  0  0  0  0  0  0  0  0  0  0
  -24.8593  -12.9275   20.8390 C   0  0  0  0  0  0  0  0  0  0  0  0
  -23.3972  -14.9702   21.2830 C   0  0  0  0  0  0  0  0  0  0  0  0
  -24.7338  -31.5500   27.5360 C   0  0  0  0  0  0  0  0  0  0  0  0
  -26.2159  -29.9362   21.2613 C   0  0  0  0  0  0  0  0  0  0  0  0
  -25.0148  -30.5931   26.5421 C   0  0  0  0  0  0  0  0  0  0  0  0
  -25.6528  -28.8243   20.6191 C   0  0  0  0  0  0  0  0  0  0  0  0
  -32.0568  -20.4100   22.6681 C   0  0  0  0  0  0  0  0  0  0  0  0
  -31.0210  -19.2724   24.5309 C   0  0  0  0  0  0  0  0  0  0  0  0
  -29.8888  -19.0297   23.7531 C   0  0  0  0  0  0  0  0  0  0  0  0
  -29.8406  -19.4771   22.4328 C   0  0  0  0  0  0  0  0  0  0  0  0
  -25.4421  -10.2002   20.9089 C   0  0  0  0  0  0  0  0  0  0  0  0
  -27.8632  -27.8305   20.4282 C   0  0  0  0  0  0  0  0  0  0  0  0
  -24.7257   -7.9877   20.5716 C   0  0  0  0  0  0  0  0  0  0  0  0
  -22.7110   -6.2110   19.8189 C   0  0  0  0  0  0  0  0  0  0  0  0
  -23.5202   -7.9627   21.2728 C   0  0  0  0  0  0  0  0  0  0  0  0
  -24.5589  -14.3362   20.8032 C   0  0  0  0  0  0  0  0  0  0  0  0
  -23.5976  -16.3024   21.0153 C   0  0  0  0  0  0  0  0  0  0  0  0
  -22.2403  -14.4055   21.9142 C   0  0  0  0  0  0  0  0  0  0  0  0
  -23.6707  -29.9270   23.1654 C   0  0  0  0  0  0  0  0  0  0  0  0
  -22.0546  -30.0946   20.3578 C   0  0  0  0  0  0  0  0  0  0  0  0
  -22.0204  -29.5119   16.9953 C   0  0  0  0  0  0  0  0  0  0  0  0
  -28.5099  -19.6283   20.2992 C   0  0  0  0  0  0  0  0  0  0  0  0
  -23.3274  -32.0221   27.8076 C   0  0  0  0  0  0  0  0  0  0  0  0
  -25.3495  -31.0897   21.6869 C   0  0  0  0  0  0  0  0  0  0  0  0
  -24.1724  -28.7232   20.3608 C   0  0  0  0  0  0  0  0  0  0  0  0
  -22.3549  -31.7260   26.6688 C   0  0  0  0  0  0  0  0  0  0  0  0
  -25.8627  -19.2078   17.9555 C   0  0  0  0  0  0  0  0  0  0  0  0
  -22.5196  -30.2883   26.1864 C   0  0  0  0  0  0  0  0  0  0  0  0
  -25.1186  -17.9721   18.4669 C   0  0  0  0  0  0  0  0  0  0  0  0
  -27.3719  -19.0852   18.1579 C   0  0  0  0  0  0  0  0  0  0  0  0
  -27.0464  -17.5291   20.0399 C   0  0  0  0  0  0  0  0  0  0  0  0
  -23.9311  -30.0491   25.6368 C   0  0  1  0  0  0  0  0  0  0  0  0
  -23.8901  -30.6964   21.8935 C   0  0  1  0  0  0  0  0  0  0  0  0
  -25.5175  -17.6340   19.9168 C   0  0  2  0  0  0  0  0  0  0  0  0
  -31.0991  -18.8026   25.9466 C   0  0  0  0  0  0  0  0  0  0  0  0
  -28.7288  -18.2879   24.3398 C   0  0  0  0  0  0  0  0  0  0  0  0
  -20.5459  -29.7178   14.9753 C   0  0  0  0  0  0  0  0  0  0  0  0
  -34.5771  -20.6808   22.7486 C   0  0  0  0  0  0  0  0  0  0  0  0
  -33.4696  -20.7658   20.5706 C   0  0  0  0  0  0  0  0  0  0  0  0
  -20.4714  -27.6499   21.2673 C   0  0  0  0  0  0  0  0  0  0  0  0
  -19.7245  -27.3389   18.8980 C   0  0  0  0  0  0  0  0  0  0  0  0
  -19.1073  -29.4146   20.1361 C   0  0  0  0  0  0  0  0  0  0  0  0
  -34.2952  -23.5305   21.5889 C   0  0  0  0  0  0  0  0  0  0  0  0
  -32.9905  -23.2286   23.6815 C   0  0  0  0  0  0  0  0  0  0  0  0
  -23.9099  -31.3578   15.6606 C   0  0  0  0  0  0  0  0  0  0  0  0
  -31.4588  -24.7666   21.5142 C   0  0  0  0  0  0  0  0  0  0  0  0
  -30.1997  -25.0882   20.7059 C   0  0  0  0  0  0  0  0  0  0  0  0
  -31.7741  -23.2621   21.4642 C   0  0  0  0  0  0  0  0  0  0  0  0
  -29.8475  -26.5673   20.7787 C   0  0  0  0  0  0  0  0  0  1  0  0
  -21.4981  -29.0854   19.3827 C   0  0  1  0  0  0  0  0  0  0  0  0
  -21.6136  -30.3891   15.8251 C   0  0  2  0  0  0  0  0  0  0  0  0
  -33.2653  -21.1778   22.0630 C   0  0  0  0  0  0  0  0  0  0  0  0
  -20.2280  -28.3729   19.9275 C   0  0  0  0  0  0  0  0  0  0  0  0
  -33.0795  -22.7847   22.1982 C   0  0  0  0  0  0  0  0  0  0  0  0
  -25.4326  -15.1950   20.2710 N   0  0  0  0  0  0  0  0  0  0  0  0
  -24.8194  -16.3822   20.4146 N   0  0  0  0  0  0  0  0  0  0  0  0
  -23.3663  -29.8738   20.8011 N   0  0  0  0  0  0  0  0  0  0  0  0
  -27.6747  -18.7682   19.5553 N   0  0  0  0  0  0  0  0  0  0  0  0
  -22.8460  -17.4016   21.2375 N   0  0  0  0  0  0  0  0  0  0  0  0
  -22.1976  -13.0187   22.1128 N   0  0  0  0  0  0  0  0  0  0  0  0
  -28.7000  -19.2423   21.6256 N   0  0  0  0  0  0  0  0  0  0  0  0
  -24.0563  -30.6045   24.3063 N   0  0  0  0  0  0  0  0  0  0  0  0
  -21.2902  -29.8011   18.1286 N   0  0  0  0  0  0  0  0  0  0  0  0
  -22.7917  -30.6765   14.9589 N   0  3  0  0  0  0  0  0  0  0  0  0
  -21.2660  -15.1078   22.2761 O   0  0  0  0  0  0  0  0  0  0  0  0
  -23.1861  -28.8026   23.1154 O   0  0  0  0  0  0  0  0  0  0  0  0
  -21.3540  -31.0477   20.7075 O   0  0  0  0  0  0  0  0  0  0  0  0
  -22.8958  -28.6532   16.9114 O   0  0  0  0  0  0  0  0  0  0  0  0
  -28.9970  -20.6479   19.8041 O   0  0  0  0  0  0  0  0  0  0  0  0
  -25.7265   -8.8696   20.9435 O   0  0  0  0  0  0  0  0  0  0  0  0
  -28.6660  -26.7957   20.0232 O   0  0  0  0  0  0  0  0  0  1  0  0
  -21.7431   -5.3589   19.4564 F   0  0  0  0  0  0  0  0  0  0  0  0
  -23.3236   -8.7904   22.3082 F   0  0  0  0  0  0  0  0  0  0  0  0
  1  2  1  0  0  0  0
  1  5  2  0  0  0  0
  2  6  2  0  0  0  0
  3  8  2  0  0  0  0
  3 17  1  0  0  0  0
  4  9  1  0  0  0  0
  4 17  2  0  0  0  0
  5 19  1  0  0  0  0
  6 21  1  0  0  0  0
  7 10  2  0  0  0  0
  7 20  1  0  0  0  0
  8 27  1  0  0  0  0
  9 27  2  0  0  0  0
 10 28  1  0  0  0  0
 11 12  2  0  0  0  0
 11 29  1  0  0  0  0
 12 30  1  0  0  0  0
 13 22  1  0  0  0  0
 13 28  2  0  0  0  0
 14 23  1  0  0  0  0
 14 24  2  0  0  0  0
 15 23  2  0  0  0  0
 15 26  1  0  0  0  0
 16 30  2  0  0  0  0
 16 31  1  0  0  0  0
 17 32  1  0  0  0  0
 18 32  1  0  0  0  0
 18 33  2  0  0  0  0
 18 34  1  0  0  0  0
 19 21  2  0  0  0  0
 19 39  1  0  0  0  0
 20 22  2  0  0  0  0
 20 40  1  0  0  0  0
 21 48  1  0  0  0  0
 22 41  1  0  0  0  0
 23 68  1  0  0  0  0
 24 25  1  0  0  0  0
 24 51  1  0  0  0  0
 25 26  2  0  0  0  0
 25 52  1  0  0  0  0
 26 77  1  0  0  0  0
 27 86  1  0  0  0  0
 28 87  1  0  0  0  0
 29 31  2  0  0  0  0
 29 86  1  0  0  0  0
 30 88  1  0  0  0  0
 31 89  1  0  0  0  0
 32 71  2  0  0  0  0
 33 72  1  0  0  0  0
 33 75  1  0  0  0  0
 34 76  1  0  0  0  0
 34 81  2  0  0  0  0
 35 49  1  0  0  0  0
 35 78  1  0  0  0  0
 35 82  2  0  0  0  0
 36 66  1  0  0  0  0
 36 73  1  0  0  0  0
 36 83  2  0  0  0  0
 37 67  1  0  0  0  0
 37 79  1  0  0  0  0
 37 84  2  0  0  0  0
 38 74  1  0  0  0  0
 38 77  1  0  0  0  0
 38 85  2  0  0  0  0
 39 42  1  0  0  0  0
 40 49  1  0  0  0  0
 41 73  1  0  0  0  0
 42 44  1  0  0  0  0
 43 45  1  0  0  0  0
 43 46  1  0  0  0  0
 44 48  1  0  0  0  0
 45 50  1  0  0  0  0
 46 74  1  0  0  0  0
 47 50  1  0  0  0  0
 47 74  1  0  0  0  0
 48 78  1  0  0  0  0
 49 73  1  0  0  0  0
 50 72  1  0  0  0  0
 53 67  1  0  0  0  0
 54 68  1  0  0  0  0
 55 68  1  0  0  0  0
 56 69  1  0  0  0  0
 57 69  1  0  0  0  0
 58 69  1  0  0  0  0
 59 70  1  0  0  0  0
 60 70  1  0  0  0  0
 61 80  1  0  0  0  0
 62 63  1  0  0  0  0
 62 64  1  0  0  0  0
 63 65  1  0  0  0  0
 64 70  1  0  0  0  0
 65 87  1  0  0  0  0
 66 69  1  0  0  0  0
 66 79  1  0  0  0  0
 67 80  1  0  0  0  0
 68 70  1  0  0  0  0
 71 72  1  0  0  0  0
M  CHG  1  80   1
M  ISO  4  38 100  65 101  77 100  87 101
M  END
> <Batch ID>
0142

> <Smiles>
CNC(C)C(=O)NC(C(=O)N1Cc2cc([101O:1][101CH2:1]CCCC(C)(C)C(C)(C)c3cc(C)c(C)c([100NH:0][100C:0](=O)N4CCCC(n5nc(-c6ccc(Oc7ccc(F)cc7F)cc6)c(C(N)=O)c5N)C4)c3)ccc2CC1C(=O)NC1CCCc2ccccc21)C(C)(C)C

> <Shape>
0.221

> <Color>
0.116

> <Negative vol penalty>
0.000

$$$$

  -OEChem-04052302573D

 85 94  0     1  0  0  0  0  0999 V2000
  -24.5218  -33.6678   28.0289 C   0  0  0  0  0  0  0  0  0  0  0  0
  -25.1362  -32.4503   27.7538 C   0  0  0  0  0  0  0  0  0  0  0  0
  -22.8089  -10.8333   21.4554 C   0  0  0  0  0  0  0  0  0  0  0  0
  -24.4860   -9.0959   21.5307 C   0  0  0  0  0  0  0  0  0  0  0  0
  -23.3457  -34.0189   27.3677 C   0  0  0  0  0  0  0  0  0  0  0  0
  -24.5740  -31.5827   26.8180 C   0  0  0  0  0  0  0  0  0  0  0  0
  -27.5676  -27.8676   22.9784 C   0  0  0  0  0  0  0  0  0  0  0  0
  -22.0629  -10.1550   22.4192 C   0  0  0  0  0  0  0  0  0  0  0  0
  -23.7400   -8.4176   22.4946 C   0  0  0  0  0  0  0  0  0  0  0  0
  -27.8699  -26.5077   23.0338 C   0  0  0  0  0  0  0  0  0  0  0  0
  -21.0173   -6.4151   22.5834 C   0  0  0  0  0  0  0  0  0  0  0  0
  -20.8548   -5.0386   22.4268 C   0  0  0  0  0  0  0  0  0  0  0  0
  -25.9233  -26.0264   21.6928 C   0  0  0  0  0  0  0  0  0  0  0  0
  -30.9425  -17.6522   22.2064 C   0  0  0  0  0  0  0  0  0  0  0  0
  -21.9393   -4.6686   24.5538 C   0  0  0  0  0  0  0  0  0  0  0  0
  -32.9429  -17.1528   21.1336 C   0  0  0  0  0  0  0  0  0  0  0  0
  -24.0204  -10.3037   21.0111 C   0  0  0  0  0  0  0  0  0  0  0  0
  -24.3884  -11.3375   18.7081 C   0  0  0  0  0  0  0  0  0  0  0  0
  -22.7741  -33.1595   26.4162 C   0  0  0  0  0  0  0  0  0  0  0  0
  -26.4328  -28.3169   22.2877 C   0  0  0  0  0  0  0  0  0  0  0  0
  -23.3884  -31.9221   26.1443 C   0  0  0  0  0  0  0  0  0  0  0  0
  -25.6101  -27.3927   21.6280 C   0  0  0  0  0  0  0  0  0  0  0  0
  -31.6482  -16.7437   21.3658 C   0  0  0  0  0  0  0  0  0  0  0  0
  -22.5284   -8.9472   22.9389 C   0  0  0  0  0  0  0  0  0  0  0  0
  -27.0461  -25.5866   22.3934 C   0  0  0  0  0  0  0  0  0  0  0  0
  -21.6409   -6.9183   23.7252 C   0  0  0  0  0  0  0  0  0  0  0  0
  -21.3157   -4.1653   23.4120 C   0  0  0  0  0  0  0  0  0  0  0  0
  -22.1019   -6.0450   24.7104 C   0  0  0  0  0  0  0  0  0  0  0  0
  -24.7912  -11.0036   20.0151 C   0  0  0  0  0  0  0  0  0  0  0  0
  -31.7248  -18.7211   22.5849 C   0  0  0  0  0  0  0  0  0  0  0  0
  -25.4709  -11.9905   18.1714 C   0  0  0  0  0  0  0  0  0  0  0  0
  -23.1466  -11.0803   18.0391 C   0  0  0  0  0  0  0  0  0  0  0  0
  -31.3721  -19.8655   23.4396 C   0  0  0  0  0  0  0  0  0  0  0  0
  -23.7766  -29.8612   23.1022 C   0  0  0  0  0  0  0  0  0  0  0  0
  -23.2641  -29.8697   19.8991 C   0  0  0  0  0  0  0  0  0  0  0  0
  -23.8746  -28.4347   16.8635 C   0  0  0  0  0  0  0  0  0  0  0  0
  -29.8135  -15.0471   20.9920 C   0  0  0  0  0  0  0  0  0  0  0  0
  -21.4762  -33.5616   25.7616 C   0  0  0  0  0  0  0  0  0  0  0  0
  -26.1353  -29.7895   22.2149 C   0  0  0  0  0  0  0  0  0  0  0  0
  -24.3913  -27.8255   20.8562 C   0  0  0  0  0  0  0  0  0  0  0  0
  -21.1483  -32.7509   24.5104 C   0  0  0  0  0  0  0  0  0  0  0  0
  -30.1986  -11.6974   19.1602 C   0  0  0  0  0  0  0  0  0  0  0  0
  -21.3594  -31.2624   24.7683 C   0  0  0  0  0  0  0  0  0  0  0  0
  -28.8319  -11.6197   18.4839 C   0  0  0  0  0  0  0  0  0  0  0  0
  -28.7722  -21.8445   21.6821 C   0  0  0  0  0  0  0  0  0  0  0  0
  -30.5921  -13.1284   19.5045 C   0  0  0  0  0  0  0  0  0  0  0  0
  -29.5138  -20.5209   21.8219 C   0  0  0  0  0  0  0  0  0  0  0  0
  -28.2668  -13.1838   20.4242 C   0  0  0  0  0  0  0  0  0  0  0  0
  -29.9722  -21.8905   23.7501 C   0  0  0  0  0  0  0  0  0  0  0  0
  -22.8226  -30.9651   25.1177 C   0  0  1  0  0  0  0  0  0  0  0  0
  -24.6697  -30.0889   21.9155 C   0  0  1  0  0  0  0  0  0  0  0  0
  -27.8097  -12.6117   19.0733 C   0  0  2  0  0  0  0  0  0  0  0  0
  -28.6483  -22.3574   23.1291 C   0  0  2  0  0  0  0  0  0  0  0  0
  -27.4522  -21.7086   23.8446 C   0  0  0  0  0  0  0  0  0  0  0  0
  -23.2847  -28.6403   14.4331 C   0  0  0  0  0  0  0  0  0  0  0  0
  -20.5348  -28.6255   20.4587 C   0  0  0  0  0  0  0  0  0  0  0  0
  -20.4059  -27.9908   18.0403 C   0  0  0  0  0  0  0  0  0  0  0  0
  -20.5319  -30.3954   18.6919 C   0  0  0  0  0  0  0  0  0  0  0  0
  -26.6935  -28.9149   16.1007 C   0  0  0  0  0  0  0  0  0  0  0  0
  -28.5049  -23.8791   23.1758 C   0  0  0  0  0  0  0  0  0  1  0  0
  -22.5860  -28.9395   18.9224 C   0  0  1  0  0  0  0  0  0  0  0  0
  -24.2659  -29.0358   15.5256 C   0  0  2  0  0  0  0  0  0  0  0  0
  -21.0365  -28.9792   19.0444 C   0  0  0  0  0  0  0  0  0  0  0  0
  -26.0329  -11.4108   20.2918 N   0  0  0  0  0  0  0  0  0  0  0  0
  -26.4196  -12.0072   19.1512 N   0  0  0  0  0  0  0  0  0  0  0  0
  -30.3276  -20.6775   23.0245 N   0  0  0  0  0  0  0  0  0  0  0  0
  -24.1391  -29.2755   20.8195 N   0  0  0  0  0  0  0  0  0  0  0  0
  -29.5809  -13.8271   20.3110 N   0  0  0  0  0  0  0  0  0  0  0  0
  -25.6944  -12.5464   16.9617 N   0  0  0  0  0  0  0  0  0  0  0  0
  -23.0117   -9.8871   17.3164 N   0  0  0  0  0  0  0  0  0  0  0  0
  -31.1047  -15.5532   20.8214 N   0  0  0  0  0  0  0  0  0  0  0  0
  -23.6378  -30.9650   23.9219 N   0  0  0  0  0  0  0  0  0  0  0  0
  -23.0907  -29.2966   17.6010 N   0  0  0  0  0  0  0  0  0  0  0  0
  -25.6250  -28.5722   15.1271 N   0  3  0  0  0  0  0  0  0  0  0  0
  -22.1910  -11.8924   18.0674 O   0  0  0  0  0  0  0  0  0  0  0  0
  -32.0345  -20.0319   24.4618 O   0  0  0  0  0  0  0  0  0  0  0  0
  -23.2511  -28.7657   23.2615 O   0  0  0  0  0  0  0  0  0  0  0  0
  -23.0316  -31.0798   19.8427 O   0  0  0  0  0  0  0  0  0  0  0  0
  -24.2259  -27.3113   17.2173 O   0  0  0  0  0  0  0  0  0  0  0  0
  -28.9324  -15.5959   21.6571 O   0  0  0  0  0  0  0  0  0  0  0  0
  -21.8008   -8.2851   23.8796 O   0  0  0  0  0  0  0  0  0  0  0  0
  -27.3386  -24.2586   22.4465 O   0  0  0  0  0  0  0  0  0  1  0  0
  -21.1582   -2.8436   23.2622 F   0  0  0  0  0  0  0  0  0  0  0  0
  -22.7007   -6.5226   25.8100 F   0  0  0  0  0  0  0  0  0  0  0  0
  -33.3031  -18.6267   21.9274 S   0  0  0  0  0  0  0  0  0  0  0  0
  1  2  1  0  0  0  0
  1  5  2  0  0  0  0
  2  6  2  0  0  0  0
  3  8  2  0  0  0  0
  3 17  1  0  0  0  0
  4  9  1  0  0  0  0
  4 17  2  0  0  0  0
  5 19  1  0  0  0  0
  6 21  1  0  0  0  0
  7 10  2  0  0  0  0
  7 20  1  0  0  0  0
  8 24  1  0  0  0  0
  9 24  2  0  0  0  0
 10 25  1  0  0  0  0
 11 12  2  0  0  0  0
 11 26  1  0  0  0  0
 12 27  1  0  0  0  0
 13 22  1  0  0  0  0
 13 25  2  0  0  0  0
 14 23  1  0  0  0  0
 14 30  2  0  0  0  0
 15 27  2  0  0  0  0
 15 28  1  0  0  0  0
 16 23  2  0  0  0  0
 16 85  1  0  0  0  0
 17 29  1  0  0  0  0
 18 29  1  0  0  0  0
 18 31  2  0  0  0  0
 18 32  1  0  0  0  0
 19 21  2  0  0  0  0
 19 38  1  0  0  0  0
 20 22  2  0  0  0  0
 20 39  1  0  0  0  0
 21 50  1  0  0  0  0
 22 40  1  0  0  0  0
 23 71  1  0  0  0  0
 24 81  1  0  0  0  0
 25 82  1  0  0  0  0
 26 28  2  0  0  0  0
 26 81  1  0  0  0  0
 27 83  1  0  0  0  0
 28 84  1  0  0  0  0
 29 64  2  0  0  0  0
 30 33  1  0  0  0  0
 30 85  1  0  0  0  0
 31 65  1  0  0  0  0
 31 69  1  0  0  0  0
 32 70  1  0  0  0  0
 32 75  2  0  0  0  0
 33 66  1  0  0  0  0
 33 76  2  0  0  0  0
 34 51  1  0  0  0  0
 34 72  1  0  0  0  0
 34 77  2  0  0  0  0
 35 61  1  0  0  0  0
 35 67  1  0  0  0  0
 35 78  2  0  0  0  0
 36 62  1  0  0  0  0
 36 73  1  0  0  0  0
 36 79  2  0  0  0  0
 37 68  1  0  0  0  0
 37 71  1  0  0  0  0
 37 80  2  0  0  0  0
 38 41  1  0  0  0  0
 39 51  1  0  0  0  0
 40 67  1  0  0  0  0
 41 43  1  0  0  0  0
 42 44  1  0  0  0  0
 42 46  1  0  0  0  0
 43 50  1  0  0  0  0
 44 52  1  0  0  0  0
 45 47  1  0  0  0  0
 45 53  1  0  0  0  0
 46 68  1  0  0  0  0
 47 66  1  0  0  0  0
 48 52  1  0  0  0  0
 48 68  1  0  0  0  0
 49 53  1  0  0  0  0
 49 66  1  0  0  0  0
 50 72  1  0  0  0  0
 51 67  1  0  0  0  0
 52 65  1  0  0  0  0
 53 54  1  0  0  0  0
 53 60  1  0  0  0  0
 55 62  1  0  0  0  0
 56 63  1  0  0  0  0
 57 63  1  0  0  0  0
 58 63  1  0  0  0  0
 59 74  1  0  0  0  0
 60 82  1  0  0  0  0
 61 63  1  0  0  0  0
 61 73  1  0  0  0  0
 62 74  1  0  0  0  0
 64 65  1  0  0  0  0
M  CHG  1  74   1
M  ISO  4  37 100  60 101  71 100  82 101
M  END
> <Batch ID>
0142

> <Smiles>
CNC(C)C(=O)NC(C(=O)N1Cc2cc([101O:1][101CH2:1]C3(C)CCN(C(=O)c4cc([100NH:0][100C:0](=O)N5CCCC(n6nc(-c7ccc(Oc8ccc(F)cc8F)cc7)c(C(N)=O)c6N)C5)cs4)C3)ccc2CC1C(=O)NC1CCCc2ccccc21)C(C)(C)C

> <Shape>
0.217

> <Color>
0.082

> <Negative vol penalty>
0.000

$$$$

  -OEChem-04052302573D

 88 97  0     1  0  0  0  0  0999 V2000
  -29.8880  -33.4514   25.7044 C   0  0  0  0  0  0  0  0  0  0  0  0
  -29.7135  -32.3200   24.9140 C   0  0  0  0  0  0  0  0  0  0  0  0
  -24.4101   -8.7907   21.4775 C   0  0  0  0  0  0  0  0  0  0  0  0
  -24.1345  -10.2952   23.3477 C   0  0  0  0  0  0  0  0  0  0  0  0
  -28.8218  -33.9490   26.4525 C   0  0  0  0  0  0  0  0  0  0  0  0
  -28.4729  -31.6847   24.8721 C   0  0  0  0  0  0  0  0  0  0  0  0
  -27.0769  -30.4573   20.1615 C   0  0  0  0  0  0  0  0  0  0  0  0
  -29.5810  -20.4230   21.1080 C   0  0  0  0  0  0  0  0  0  0  0  0
  -29.6461  -19.0497   20.8725 C   0  0  0  0  0  0  0  0  0  0  0  0
  -23.9265   -7.7374   22.2536 C   0  0  0  0  0  0  0  0  0  0  0  0
  -23.6509   -9.2419   24.1238 C   0  0  0  0  0  0  0  0  0  0  0  0
  -27.6665  -29.3273   19.5967 C   0  0  0  0  0  0  0  0  0  0  0  0
  -22.4253   -4.7272   23.6320 C   0  0  0  0  0  0  0  0  0  0  0  0
  -21.4883   -3.8717   23.0526 C   0  0  0  0  0  0  0  0  0  0  0  0
  -25.6926  -28.0431   20.1201 C   0  0  0  0  0  0  0  0  0  0  0  0
  -27.2806  -19.0216   20.3818 C   0  0  0  0  0  0  0  0  0  0  0  0
  -19.9868   -5.7364   22.7278 C   0  0  0  0  0  0  0  0  0  0  0  0
  -24.5141  -10.0696   22.0246 C   0  0  0  0  0  0  0  0  0  0  0  0
  -24.2646  -12.0303   20.4118 C   0  0  0  0  0  0  0  0  0  0  0  0
  -27.5649  -33.3251   26.4122 C   0  0  0  0  0  0  0  0  0  0  0  0
  -25.7928  -30.3860   20.7206 C   0  0  0  0  0  0  0  0  0  0  0  0
  -27.3892  -32.1736   25.6214 C   0  0  0  0  0  0  0  0  0  0  0  0
  -25.0879  -29.1743   20.6891 C   0  0  0  0  0  0  0  0  0  0  0  0
  -28.3656  -21.0956   20.9805 C   0  0  0  0  0  0  0  0  0  0  0  0
  -27.2155  -20.3949   20.6174 C   0  0  0  0  0  0  0  0  0  0  0  0
  -28.4960  -18.3490   20.5094 C   0  0  0  0  0  0  0  0  0  0  0  0
  -23.5469   -7.9629   23.5767 C   0  0  0  0  0  0  0  0  0  0  0  0
  -26.9756  -28.1192   19.5785 C   0  0  0  0  0  0  0  0  0  0  0  0
  -22.1431   -6.0873   23.7594 C   0  0  0  0  0  0  0  0  0  0  0  0
  -20.2690   -4.3763   22.6005 C   0  0  0  0  0  0  0  0  0  0  0  0
  -20.9238   -6.5919   23.3073 C   0  0  0  0  0  0  0  0  0  0  0  0
  -25.0142  -11.1580   21.2237 C   0  0  0  0  0  0  0  0  0  0  0  0
  -25.1972  -12.8791   19.8675 C   0  0  0  0  0  0  0  0  0  0  0  0
  -22.8517  -12.0697   20.1712 C   0  0  0  0  0  0  0  0  0  0  0  0
  -24.5835  -30.8319   23.6262 C   0  0  0  0  0  0  0  0  0  0  0  0
  -21.7567  -30.4309   22.0865 C   0  0  0  0  0  0  0  0  0  0  0  0
  -20.0717  -29.1479   19.4104 C   0  0  0  0  0  0  0  0  0  0  0  0
  -29.6880  -16.1355   20.3488 C   0  0  0  0  0  0  0  0  0  0  0  0
  -26.4551  -33.8718   27.2749 C   0  0  0  0  0  0  0  0  0  0  0  0
  -25.1601  -31.6205   21.3020 C   0  0  0  0  0  0  0  0  0  0  0  0
  -23.6989  -29.0500   21.2579 C   0  0  0  0  0  0  0  0  0  0  0  0
  -25.0712  -33.3598   26.8840 C   0  0  0  0  0  0  0  0  0  0  0  0
  -30.2540  -12.6534   19.8674 C   0  0  0  0  0  0  0  0  0  0  0  0
  -25.1009  -31.8495   26.6723 C   0  0  0  0  0  0  0  0  0  0  0  0
  -28.8795  -12.0257   20.1105 C   0  0  0  0  0  0  0  0  0  0  0  0
  -28.5188  -24.5675   18.2731 C   0  0  0  0  0  0  0  0  0  0  0  0
  -30.5111  -13.8349   20.8011 C   0  0  0  0  0  0  0  0  0  0  0  0
  -28.0928  -14.2401   21.0404 C   0  0  0  0  0  0  0  0  0  0  0  0
  -28.7536  -23.1659   18.8173 C   0  0  0  0  0  0  0  0  0  0  0  0
  -29.1599  -24.8587   20.5439 C   0  0  0  0  0  0  0  0  0  0  0  0
  -26.0519  -31.4711   25.5304 C   0  0  1  0  0  0  0  0  0  0  0  0
  -24.0526  -31.3090   22.3040 C   0  0  1  0  0  0  0  0  0  0  0  0
  -27.7620  -13.0866   20.0793 C   0  0  2  0  0  0  0  0  0  0  0  0
  -29.3689  -25.4639   19.1650 C   0  0  2  0  0  0  0  0  0  0  0  0
  -25.9038  -21.0944   20.4727 C   0  0  0  0  0  0  0  0  0  0  0  0
  -28.7776  -22.9477   22.6517 C   0  0  0  0  0  0  0  0  0  0  0  0
  -17.7630  -28.9490   18.4473 C   0  0  0  0  0  0  0  0  0  0  0  0
  -21.0922  -28.2671   24.1325 C   0  0  0  0  0  0  0  0  0  0  0  0
  -19.2769  -27.4746   22.6013 C   0  0  0  0  0  0  0  0  0  0  0  0
  -19.1847  -29.7778   23.5549 C   0  0  0  0  0  0  0  0  0  0  0  0
  -20.8380  -30.6304   16.9662 C   0  0  0  0  0  0  0  0  0  0  0  0
  -31.5727  -26.1603   19.5905 C   0  0  0  0  0  0  0  0  0  0  0  0
  -28.9718  -26.9226   19.0894 C   0  0  0  0  0  0  0  0  0  1  0  0
  -28.3199  -22.5835   21.2416 C   0  0  1  0  0  0  0  0  0  0  0  0
  -20.8786  -29.2488   21.7541 C   0  0  1  0  0  0  0  0  0  0  0  0
  -19.0465  -29.7643   18.4758 C   0  0  2  0  0  0  0  0  0  0  0  0
  -20.1350  -28.6936   23.0016 C   0  0  0  0  0  0  0  0  0  0  0  0
  -26.3221  -11.4277   21.2001 N   0  0  0  0  0  0  0  0  0  0  0  0
  -26.4017  -12.4790   20.3667 N   0  0  0  0  0  0  0  0  0  0  0  0
  -23.1255  -30.2836   21.8210 N   0  0  0  0  0  0  0  0  0  0  0  0
  -29.4136  -14.8008   20.7149 N   0  0  0  0  0  0  0  0  0  0  0  0
  -25.0962  -13.9212   19.0152 N   0  0  0  0  0  0  0  0  0  0  0  0
  -22.0384  -11.1244   20.8109 N   0  0  0  0  0  0  0  0  0  0  0  0
  -28.5621  -16.9543   20.2682 N   0  0  0  0  0  0  0  0  0  0  0  0
  -25.4306  -31.7286   24.2489 N   0  0  0  0  0  0  0  0  0  0  0  0
  -19.9960  -29.6857   20.6778 N   0  0  0  0  0  0  0  0  0  0  0  0
  -29.1437  -23.3653   20.2695 N   0  3  1  0  0  0  0  0  0  0  0  0
  -19.5876  -29.8377   17.0892 N   0  3  0  0  0  0  0  0  0  0  0  0
  -22.3280  -12.9079   19.3987 O   0  0  0  0  0  0  0  0  0  0  0  0
  -24.2482  -29.7323   24.0507 O   0  0  0  0  0  0  0  0  0  0  0  0
  -21.2459  -31.4502   22.5574 O   0  0  0  0  0  0  0  0  0  0  0  0
  -20.8584  -28.2739   19.0529 O   0  0  0  0  0  0  0  0  0  0  0  0
  -30.8339  -16.5169   20.0968 O   0  0  0  0  0  0  0  0  0  0  0  0
  -23.0747   -6.9354   24.3342 O   0  0  0  0  0  0  0  0  0  0  0  0
  -27.5491  -27.0145   19.0284 O   0  0  0  0  0  0  0  0  0  1  0  0
  -30.7384  -25.3414   18.7856 O   0  0  0  0  0  0  0  0  0  0  0  0
  -19.3699   -3.5549   22.0427 F   0  0  0  0  0  0  0  0  0  0  0  0
  -20.6475   -7.8978   23.4259 F   0  0  0  0  0  0  0  0  0  0  0  0
  1  2  1  0  0  0  0
  1  5  2  0  0  0  0
  2  6  2  0  0  0  0
  3 10  2  0  0  0  0
  3 18  1  0  0  0  0
  4 11  1  0  0  0  0
  4 18  2  0  0  0  0
  5 20  1  0  0  0  0
  6 22  1  0  0  0  0
  7 12  2  0  0  0  0
  7 21  1  0  0  0  0
  8  9  2  0  0  0  0
  8 24  1  0  0  0  0
  9 26  1  0  0  0  0
 10 27  1  0  0  0  0
 11 27  2  0  0  0  0
 12 28  1  0  0  0  0
 13 14  2  0  0  0  0
 13 29  1  0  0  0  0
 14 30  1  0  0  0  0
 15 23  1  0  0  0  0
 15 28  2  0  0  0  0
 16 25  1  0  0  0  0
 16 26  2  0  0  0  0
 17 30  2  0  0  0  0
 17 31  1  0  0  0  0
 18 32  1  0  0  0  0
 19 32  1  0  0  0  0
 19 33  2  0  0  0  0
 19 34  1  0  0  0  0
 20 22  2  0  0  0  0
 20 39  1  0  0  0  0
 21 23  2  0  0  0  0
 21 40  1  0  0  0  0
 22 51  1  0  0  0  0
 23 41  1  0  0  0  0
 24 25  2  0  0  0  0
 24 64  1  0  0  0  0
 25 55  1  0  0  0  0
 26 74  1  0  0  0  0
 27 84  1  0  0  0  0
 28 85  1  0  0  0  0
 29 31  2  0  0  0  0
 29 84  1  0  0  0  0
 30 87  1  0  0  0  0
 31 88  1  0  0  0  0
 32 68  2  0  0  0  0
 33 69  1  0  0  0  0
 33 72  1  0  0  0  0
 34 73  1  0  0  0  0
 34 79  2  0  0  0  0
 35 52  1  0  0  0  0
 35 75  1  0  0  0  0
 35 80  2  0  0  0  0
 36 65  1  0  0  0  0
 36 70  1  0  0  0  0
 36 81  2  0  0  0  0
 37 66  1  0  0  0  0
 37 76  1  0  0  0  0
 37 82  2  0  0  0  0
 38 71  1  0  0  0  0
 38 74  1  0  0  0  0
 38 83  2  0  0  0  0
 39 42  1  0  0  0  0
 40 52  1  0  0  0  0
 41 70  1  0  0  0  0
 42 44  1  0  0  0  0
 43 45  1  0  0  0  0
 43 47  1  0  0  0  0
 44 51  1  0  0  0  0
 45 53  1  0  0  0  0
 46 49  1  0  0  0  0
 46 54  1  0  0  0  0
 47 71  1  0  0  0  0
 48 53  1  0  0  0  0
 48 71  1  0  0  0  0
 49 77  1  0  0  0  0
 50 54  1  0  0  0  0
 50 77  1  0  0  0  0
 51 75  1  0  0  0  0
 52 70  1  0  0  0  0
 53 69  1  0  0  0  0
 54 63  1  0  0  0  0
 54 86  1  0  0  0  0
 56 64  1  0  0  0  0
 57 66  1  0  0  0  0
 58 67  1  0  0  0  0
 59 67  1  0  0  0  0
 60 67  1  0  0  0  0
 61 78  1  0  0  0  0
 62 86  1  0  0  0  0
 63 85  1  0  0  0  0
 64 77  1  0  0  0  0
 65 67  1  0  0  0  0
 65 76  1  0  0  0  0
 66 78  1  0  0  0  0
 68 69  1  0  0  0  0
M  CHG  2  77   1  78   1
M  ISO  4  38 100  63 101  74 100  85 101
M  END
> <Batch ID>
0142

> <Smiles>
CNC(C)C(=O)NC(C(=O)N1Cc2cc([101O:1][101CH2:1]C3(OC)CCN(C(C)c4ccc([100NH:0][100C:0](=O)N5CCCC(n6nc(-c7ccc(Oc8ccc(F)cc8F)cc7)c(C(N)=O)c6N)C5)cc4C)C3)ccc2CC1C(=O)NC1CCCc2ccccc21)C(C)(C)C

> <Shape>
0.390

> <Color>
0.086

> <Negative vol penalty>
0.000

$$$$

  -OEChem-04052302573D

 85 94  0     1  0  0  0  0  0999 V2000
  -34.3579  -25.0001   23.1849 C   0  0  0  0  0  0  0  0  0  0  0  0
  -33.3441  -24.3267   22.5109 C   0  0  0  0  0  0  0  0  0  0  0  0
  -23.1100   -9.8607   19.9211 C   0  0  0  0  0  0  0  0  0  0  0  0
  -23.7775   -9.8877   22.2429 C   0  0  0  0  0  0  0  0  0  0  0  0
  -34.0623  -26.1474   23.9198 C   0  0  0  0  0  0  0  0  0  0  0  0
  -32.0338  -24.7997   22.5724 C   0  0  0  0  0  0  0  0  0  0  0  0
  -29.7553  -24.8030   18.0499 C   0  0  0  0  0  0  0  0  0  0  0  0
  -22.3417   -8.7203   20.1552 C   0  0  0  0  0  0  0  0  0  0  0  0
  -23.0092   -8.7473   22.4771 C   0  0  0  0  0  0  0  0  0  0  0  0
  -29.2840  -23.5804   17.5735 C   0  0  0  0  0  0  0  0  0  0  0  0
  -19.9177   -6.0120   20.2216 C   0  0  0  0  0  0  0  0  0  0  0  0
  -18.6321   -5.9741   19.6818 C   0  0  0  0  0  0  0  0  0  0  0  0
  -27.0553  -24.1696   18.2842 C   0  0  0  0  0  0  0  0  0  0  0  0
  -29.1264  -17.8936   21.2013 C   0  0  0  0  0  0  0  0  0  0  0  0
  -18.0400   -7.9408   20.9540 C   0  0  0  0  0  0  0  0  0  0  0  0
  -30.3292  -19.6793   20.6177 C   0  0  0  0  0  0  0  0  0  0  0  0
  -23.8280  -10.4444   20.9650 C   0  0  0  0  0  0  0  0  0  0  0  0
  -24.2073  -12.9633   20.8275 C   0  0  0  0  0  0  0  0  0  0  0  0
  -32.7493  -26.6402   23.9824 C   0  0  0  0  0  0  0  0  0  0  0  0
  -28.8807  -25.7150   18.6578 C   0  0  0  0  0  0  0  0  0  0  0  0
  -31.7201  -25.9540   23.3099 C   0  0  0  0  0  0  0  0  0  0  0  0
  -27.5176  -25.4042   18.7652 C   0  0  0  0  0  0  0  0  0  0  0  0
  -29.0587  -19.1550   20.5631 C   0  0  0  0  0  0  0  0  0  0  0  0
  -22.2913   -8.1636   21.4332 C   0  0  0  0  0  0  0  0  0  0  0  0
  -27.9343  -23.2624   17.6932 C   0  0  0  0  0  0  0  0  0  0  0  0
  -20.2645   -7.0143   21.1277 C   0  0  0  0  0  0  0  0  0  0  0  0
  -17.6933   -6.9385   20.0480 C   0  0  0  0  0  0  0  0  0  0  0  0
  -19.3256   -7.9787   21.4939 C   0  0  0  0  0  0  0  0  0  0  0  0
  -24.6223  -11.6221   20.7236 C   0  0  0  0  0  0  0  0  0  0  0  0
  -30.4334  -17.7369   21.6003 C   0  0  0  0  0  0  0  0  0  0  0  0
  -25.3228  -13.6942   20.4992 C   0  0  0  0  0  0  0  0  0  0  0  0
  -22.9279  -13.5004   21.1886 C   0  0  0  0  0  0  0  0  0  0  0  0
  -28.6498  -27.0151   21.5492 C   0  0  0  0  0  0  0  0  0  0  0  0
  -27.6581  -19.4498   18.4809 C   0  0  0  0  0  0  0  0  0  0  0  0
  -26.2905  -28.7499   20.1540 C   0  0  0  0  0  0  0  0  0  0  0  0
  -23.9631  -29.0051   17.6711 C   0  0  0  0  0  0  0  0  0  0  0  0
  -30.7471  -14.6761   20.8268 C   0  0  0  0  0  0  0  0  0  0  0  0
  -32.4704  -27.8574   24.8282 C   0  0  0  0  0  0  0  0  0  0  0  0
  -29.4001  -27.0408   19.1425 C   0  0  0  0  0  0  0  0  0  0  0  0
  -26.5338  -26.3572   19.3915 C   0  0  0  0  0  0  0  0  0  0  0  0
  -31.1196  -28.5057   24.5359 C   0  0  0  0  0  0  0  0  0  0  0  0
  -31.1766  -15.3646   24.3611 C   0  0  0  0  0  0  0  0  0  0  0  0
  -29.7296  -12.2865   18.4850 C   0  0  0  0  0  0  0  0  0  0  0  0
  -30.0234  -27.4473   24.4662 C   0  0  0  0  0  0  0  0  0  0  0  0
  -31.1209  -16.7986   23.8499 C   0  0  0  0  0  0  0  0  0  0  0  0
  -28.2815  -11.9867   18.8671 C   0  0  0  0  0  0  0  0  0  0  0  0
  -30.5927  -12.4658   19.7277 C   0  0  0  0  0  0  0  0  0  0  0  0
  -30.3400  -14.6096   23.3398 C   0  0  0  0  0  0  0  0  0  0  0  0
  -28.6492  -13.2636   21.0389 C   0  0  0  0  0  0  0  0  0  0  0  0
  -30.2906  -26.4501   23.3323 C   0  0  1  0  0  0  0  0  0  0  0  0
  -31.1685  -16.6324   22.3253 C   0  0  1  0  0  0  0  0  0  0  0  0
  -28.5122  -27.6772   20.2074 C   0  0  1  0  0  0  0  0  0  0  0  0
  -27.7321  -13.0660   19.8146 C   0  0  2  0  0  0  0  0  0  0  0  0
  -22.1569  -30.5208   16.8124 C   0  0  0  0  0  0  0  0  0  0  0  0
  -24.4559  -27.8413   22.4164 C   0  0  0  0  0  0  0  0  0  0  0  0
  -22.5020  -28.5700   21.0310 C   0  0  0  0  0  0  0  0  0  0  0  0
  -24.2002  -30.2426   21.7665 C   0  0  0  0  0  0  0  0  0  0  0  0
  -25.3354  -29.3599   15.0730 C   0  0  0  0  0  0  0  0  0  0  0  0
  -27.8688  -19.7819   19.9613 C   0  0  0  0  0  0  0  0  0  0  0  0
  -26.4087  -19.9887   17.8087 C   0  0  0  0  0  0  0  0  0  0  0  0
  -26.3476  -21.5030   17.9005 C   0  0  0  0  0  0  0  0  0  1  0  0
  -24.8031  -28.5742   19.9652 C   0  0  1  0  0  0  0  0  0  0  0  0
  -23.6259  -30.1385   16.7192 C   0  0  2  0  0  0  0  0  0  0  0  0
  -24.0089  -28.7880   21.2847 C   0  0  0  0  0  0  0  0  0  0  0  0
  -25.9015  -11.5050   20.3578 N   0  0  0  0  0  0  0  0  0  0  0  0
  -26.3000  -12.7819   20.2288 N   0  0  0  0  0  0  0  0  0  0  0  0
  -27.0913  -27.6383   19.8558 N   0  0  0  0  0  0  0  0  0  0  0  0
  -30.0402  -13.4846   20.6212 N   0  0  0  0  0  0  0  0  0  0  0  0
  -30.6147  -15.2929   22.0743 N   0  0  0  0  0  0  0  0  0  0  0  0
  -25.5534  -15.0219   20.4182 N   0  0  0  0  0  0  0  0  0  0  0  0
  -21.8915  -12.6084   21.4961 N   0  0  0  0  0  0  0  0  0  0  0  0
  -29.9357  -27.0303   22.0549 N   0  0  0  0  0  0  0  0  0  0  0  0
  -24.4195  -29.4756   18.8842 N   0  0  0  0  0  0  0  0  0  0  0  0
  -23.9194  -29.7393   15.3137 N   0  3  0  0  0  0  0  0  0  0  0  0
  -22.7057  -14.7345   21.2211 O   0  0  0  0  0  0  0  0  0  0  0  0
  -27.6622  -26.5279   22.0867 O   0  0  0  0  0  0  0  0  0  0  0  0
  -28.4749  -18.7844   17.8437 O   0  0  0  0  0  0  0  0  0  0  0  0
  -26.7264  -29.8357   20.5446 O   0  0  0  0  0  0  0  0  0  0  0  0
  -23.8312  -27.8208   17.3700 O   0  0  0  0  0  0  0  0  0  0  0  0
  -31.4771  -15.1545   19.9492 O   0  0  0  0  0  0  0  0  0  0  0  0
  -31.1731  -18.8211   21.2483 O   0  0  0  0  0  0  0  0  0  0  0  0
  -21.5415   -7.0510   21.6621 O   0  0  0  0  0  0  0  0  0  0  0  0
  -27.4685  -22.0612   17.2264 O   0  0  0  0  0  0  0  0  0  1  0  0
  -16.4592   -6.9029   19.5284 F   0  0  0  0  0  0  0  0  0  0  0  0
  -19.6533   -8.9447   22.3630 F   0  0  0  0  0  0  0  0  0  0  0  0
  1  2  1  0  0  0  0
  1  5  2  0  0  0  0
  2  6  2  0  0  0  0
  3  8  2  0  0  0  0
  3 17  1  0  0  0  0
  4  9  1  0  0  0  0
  4 17  2  0  0  0  0
  5 19  1  0  0  0  0
  6 21  1  0  0  0  0
  7 10  2  0  0  0  0
  7 20  1  0  0  0  0
  8 24  1  0  0  0  0
  9 24  2  0  0  0  0
 10 25  1  0  0  0  0
 11 12  2  0  0  0  0
 11 26  1  0  0  0  0
 12 27  1  0  0  0  0
 13 22  1  0  0  0  0
 13 25  2  0  0  0  0
 14 23  1  0  0  0  0
 14 30  2  0  0  0  0
 15 27  2  0  0  0  0
 15 28  1  0  0  0  0
 16 23  2  0  0  0  0
 16 81  1  0  0  0  0
 17 29  1  0  0  0  0
 18 29  1  0  0  0  0
 18 31  2  0  0  0  0
 18 32  1  0  0  0  0
 19 21  2  0  0  0  0
 19 38  1  0  0  0  0
 20 22  2  0  0  0  0
 20 39  1  0  0  0  0
 21 50  1  0  0  0  0
 22 40  1  0  0  0  0
 23 59  1  0  0  0  0
 24 82  1  0  0  0  0
 25 83  1  0  0  0  0
 26 28  2  0  0  0  0
 26 82  1  0  0  0  0
 27 84  1  0  0  0  0
 28 85  1  0  0  0  0
 29 65  2  0  0  0  0
 30 51  1  0  0  0  0
 30 81  1  0  0  0  0
 31 66  1  0  0  0  0
 31 70  1  0  0  0  0
 32 71  1  0  0  0  0
 32 75  2  0  0  0  0
 33 52  1  0  0  0  0
 33 72  1  0  0  0  0
 33 76  2  0  0  0  0
 34 59  1  0  0  0  0
 34 60  1  0  0  0  0
 34 77  2  0  0  0  0
 35 62  1  0  0  0  0
 35 67  1  0  0  0  0
 35 78  2  0  0  0  0
 36 63  1  0  0  0  0
 36 73  1  0  0  0  0
 36 79  2  0  0  0  0
 37 68  1  0  0  0  0
 37 69  1  0  0  0  0
 37 80  2  0  0  0  0
 38 41  1  0  0  0  0
 39 52  1  0  0  0  0
 40 67  1  0  0  0  0
 41 44  1  0  0  0  0
 42 45  1  0  0  0  0
 42 48  1  0  0  0  0
 43 46  1  0  0  0  0
 43 47  1  0  0  0  0
 44 50  1  0  0  0  0
 45 51  1  0  0  0  0
 46 53  1  0  0  0  0
 47 68  1  0  0  0  0
 48 69  1  0  0  0  0
 49 53  1  0  0  0  0
 49 68  1  0  0  0  0
 50 72  1  0  0  0  0
 51 69  1  0  0  0  0
 52 67  1  0  0  0  0
 53 66  1  0  0  0  0
 54 63  1  0  0  0  0
 55 64  1  0  0  0  0
 56 64  1  0  0  0  0
 57 64  1  0  0  0  0
 58 74  1  0  0  0  0
 60 61  1  0  0  0  0
 61 83  1  0  0  0  0
 62 64  1  0  0  0  0
 62 73  1  0  0  0  0
 63 74  1  0  0  0  0
 65 66  1  0  0  0  0
M  CHG  1  74   1
M  ISO  4  37 100  61 101  69 100  83 101
M  END
> <Batch ID>
0142

> <Smiles>
CNC(C)C(=O)NC(C(=O)N1Cc2cc([101O:1][101CH2:1]CC(=O)Cc3coc(C4CCC[100N:0]4[100C:0](=O)N4CCCC(n5nc(-c6ccc(Oc7ccc(F)cc7F)cc6)c(C(N)=O)c5N)C4)c3)ccc2CC1C(=O)NC1CCCc2ccccc21)C(C)(C)C

> <Shape>
0.291

> <Color>
0.186

> <Negative vol penalty>
0.000

$$$$

  -OEChem-04052302573D

 91 99  0     1  0  0  0  0  0999 V2000
  -20.3339   -9.0894   23.5351 C   0  0  0  0  0  0  0  0  0  0  0  0
  -21.1455  -10.1186   24.0015 C   0  0  0  0  0  0  0  0  0  0  0  0
  -26.4962  -28.6755   19.2210 C   0  0  0  0  0  0  0  0  0  0  0  0
  -26.3485  -27.6974   21.4252 C   0  0  0  0  0  0  0  0  0  0  0  0
  -20.7014   -8.3753   22.3954 C   0  0  0  0  0  0  0  0  0  0  0  0
  -22.3258  -10.4334   23.3290 C   0  0  0  0  0  0  0  0  0  0  0  0
  -22.9454  -15.4230   22.7243 C   0  0  0  0  0  0  0  0  0  0  0  0
  -25.1773  -29.1166   19.3284 C   0  0  0  0  0  0  0  0  0  0  0  0
  -25.0296  -28.1385   21.5326 C   0  0  0  0  0  0  0  0  0  0  0  0
  -23.3899  -16.1479   23.8291 C   0  0  0  0  0  0  0  0  0  0  0  0
  -21.9847  -27.1843   20.4151 C   0  0  0  0  0  0  0  0  0  0  0  0
  -21.0390  -26.2858   20.9090 C   0  0  0  0  0  0  0  0  0  0  0  0
  -25.6281  -16.1349   22.9294 C   0  0  0  0  0  0  0  0  0  0  0  0
  -29.6781  -18.2775   23.5738 C   0  0  0  0  0  0  0  0  0  0  0  0
  -29.9881  -20.6461   23.2128 C   0  0  0  0  0  0  0  0  0  0  0  0
  -30.3174  -19.0932   21.3915 C   0  0  0  0  0  0  0  0  0  0  0  0
  -20.5607  -27.7932   22.7355 C   0  0  0  0  0  0  0  0  0  0  0  0
  -27.0818  -27.9658   20.2694 C   0  0  0  0  0  0  0  0  0  0  0  0
  -29.6068  -28.2028   20.5446 C   0  0  0  0  0  0  0  0  0  0  0  0
  -21.8819   -8.6880   21.7031 C   0  0  0  0  0  0  0  0  0  0  0  0
  -23.8425  -15.0385   21.7174 C   0  0  0  0  0  0  0  0  0  0  0  0
  -22.7102   -9.7219   22.1798 C   0  0  0  0  0  0  0  0  0  0  0  0
  -25.1920  -15.4073   21.8116 C   0  0  0  0  0  0  0  0  0  0  0  0
  -29.6717  -19.5846   24.0606 C   0  0  0  0  0  0  0  0  0  0  0  0
  -30.0010  -18.0318   22.2393 C   0  0  0  0  0  0  0  0  0  0  0  0
  -30.3110  -20.4004   21.8782 C   0  0  0  0  0  0  0  0  0  0  0  0
  -24.4440  -28.8482   20.4842 C   0  0  0  0  0  0  0  0  0  0  0  0
  -24.7320  -16.5015   23.9332 C   0  0  0  0  0  0  0  0  0  0  0  0
  -22.2184  -28.3873   21.0815 C   0  0  0  0  0  0  0  0  0  0  0  0
  -20.3270  -26.5902   22.0692 C   0  0  0  0  0  0  0  0  0  0  0  0
  -21.5064  -28.6917   22.2416 C   0  0  0  0  0  0  0  0  0  0  0  0
  -28.4440  -27.5094   20.1588 C   0  0  0  0  0  0  0  0  0  0  0  0
  -30.6355  -27.3471   20.2347 C   0  0  0  0  0  0  0  0  0  0  0  0
  -29.7447  -29.5040   21.1308 C   0  0  0  0  0  0  0  0  0  0  0  0
  -24.8475  -12.2578   20.5507 C   0  0  0  0  0  0  0  0  0  0  0  0
  -27.8375  -20.0786   25.7281 C   0  0  0  0  0  0  0  0  0  0  0  0
  -26.3531  -14.1522   18.3904 C   0  0  0  0  0  0  0  0  0  0  0  0
  -27.6641  -17.2116   17.6366 C   0  0  0  0  0  0  0  0  0  0  0  0
  -30.9751  -21.4085   19.6671 C   0  0  0  0  0  0  0  0  0  0  0  0
  -22.2615   -7.8569   20.5031 C   0  0  0  0  0  0  0  0  0  0  0  0
  -23.3421  -14.2798   20.5189 C   0  0  0  0  0  0  0  0  0  0  0  0
  -26.1916  -15.0365   20.7478 C   0  0  0  0  0  0  0  0  0  0  0  0
  -23.3383   -8.4999   19.6328 C   0  0  0  0  0  0  0  0  0  0  0  0
  -31.7976  -23.8345   17.1942 C   0  0  0  0  0  0  0  0  0  0  0  0
  -24.4796   -9.0261   20.4973 C   0  0  0  0  0  0  0  0  0  0  0  0
  -31.1419  -25.1167   17.7120 C   0  0  0  0  0  0  0  0  0  0  0  0
  -30.9437  -22.6023   17.4879 C   0  0  0  0  0  0  0  0  0  0  0  0
  -29.8892  -23.7259   19.4101 C   0  0  0  0  0  0  0  0  0  0  0  0
  -23.9856  -10.1096   21.4635 C   0  0  1  0  0  0  0  0  0  0  0  0
  -24.4405  -13.4975   19.8056 C   0  0  1  0  0  0  0  0  0  0  0  0
  -30.7428  -24.9863   19.1950 C   0  0  2  0  0  0  0  0  0  0  0  0
  -31.3717  -15.9653   21.8684 C   0  0  0  0  0  0  0  0  0  0  0  0
  -28.7117  -19.0168   16.2433 C   0  0  0  0  0  0  0  0  0  0  0  0
  -28.9406  -12.7048   19.1116 C   0  0  0  0  0  0  0  0  0  0  0  0
  -30.2054  -14.5626   18.0083 C   0  0  0  0  0  0  0  0  0  0  0  0
  -28.6420  -13.1533   16.6695 C   0  0  0  0  0  0  0  0  0  0  0  0
  -25.7812  -20.6761   29.0202 C   0  0  0  0  0  0  0  0  0  0  0  0
  -25.4351  -21.8095   26.8583 C   0  0  0  0  0  0  0  0  0  0  0  0
  -26.5615  -17.3939   27.5751 C   0  0  0  0  0  0  0  0  0  0  0  0
  -24.3357  -17.5101   28.6994 C   0  0  0  0  0  0  0  0  0  0  0  0
  -25.0291  -18.1721   16.6918 C   0  0  0  0  0  0  0  0  0  0  0  0
  -29.3233  -19.8496   25.5014 C   0  0  0  0  0  0  0  0  0  0  0  0
  -30.0077  -16.6341   21.7189 C   0  0  0  0  0  0  0  0  0  0  0  0
  -27.4305  -20.2925   27.1844 C   0  0  0  0  0  0  0  0  0  0  0  0
  -24.9821  -19.3431   26.9810 C   0  0  0  0  0  0  0  0  0  0  0  0
  -24.4752  -17.0113   26.2419 C   0  0  0  0  0  0  0  0  0  1  0  0
  -27.7020  -14.8259   18.3160 C   0  0  1  0  0  0  0  0  0  0  0  0
  -27.5104  -18.1002   16.4154 C   0  0  2  0  0  0  0  0  0  0  0  0
  -28.8543  -13.8171   18.0475 C   0  0  0  0  0  0  0  0  0  0  0  0
  -25.9285  -20.4797   27.4915 C   0  0  0  0  0  0  0  0  0  0  0  0
  -25.0956  -17.8404   27.4073 C   0  0  0  0  0  0  0  0  0  0  0  0
  -28.7084  -26.3061   19.6431 N   0  0  0  0  0  0  0  0  0  0  0  0
  -30.0492  -26.2366   19.7026 N   0  0  0  0  0  0  0  0  0  0  0  0
  -25.6548  -14.2892   19.5985 N   0  0  0  0  0  0  0  0  0  0  0  0
  -30.6079  -22.5425   18.9122 N   0  0  0  0  0  0  0  0  0  0  0  0
  -31.9754  -27.4439   20.3682 N   0  0  0  0  0  0  0  0  0  0  0  0
  -28.5850  -30.2495   21.3831 N   0  0  0  0  0  0  0  0  0  0  0  0
  -30.6323  -21.4787   21.0170 N   0  0  0  0  0  0  0  0  0  0  0  0
  -23.8138  -11.3669   20.7677 N   0  0  0  0  0  0  0  0  0  0  0  0
  -27.5795  -15.8748   17.3094 N   0  0  0  0  0  0  0  0  0  0  0  0
  -26.2889  -18.9447   16.5398 N   0  3  0  0  0  0  0  0  0  0  0  0
  -30.8643  -29.9979   21.4070 O   0  0  0  0  0  0  0  0  0  0  0  0
  -26.0135  -12.1190   20.9013 O   0  0  0  0  0  0  0  0  0  0  0  0
  -27.0348  -20.1046   24.7979 O   0  0  0  0  0  0  0  0  0  0  0  0
  -25.9313  -13.5334   17.4102 O   0  0  0  0  0  0  0  0  0  0  0  0
  -27.8452  -17.6585   18.7671 O   0  0  0  0  0  0  0  0  0  0  0  0
  -31.5755  -20.4577   19.1597 O   0  0  0  0  0  0  0  0  0  0  0  0
  -23.1571  -29.2786   20.5894 O   0  0  0  0  0  0  0  0  0  0  0  0
  -25.1717  -17.2134   25.0182 O   0  0  0  0  0  0  0  0  0  1  0  0
  -19.4178  -25.7280   22.5425 F   0  0  0  0  0  0  0  0  0  0  0  0
  -21.7257  -29.8464   22.8854 F   0  0  0  0  0  0  0  0  0  0  0  0
  1  2  1  0  0  0  0
  1  5  2  0  0  0  0
  2  6  2  0  0  0  0
  3  8  2  0  0  0  0
  3 18  1  0  0  0  0
  4  9  1  0  0  0  0
  4 18  2  0  0  0  0
  5 20  1  0  0  0  0
  6 22  1  0  0  0  0
  7 10  2  0  0  0  0
  7 21  1  0  0  0  0
  8 27  1  0  0  0  0
  9 27  2  0  0  0  0
 10 28  1  0  0  0  0
 11 12  2  0  0  0  0
 11 29  1  0  0  0  0
 12 30  1  0  0  0  0
 13 23  1  0  0  0  0
 13 28  2  0  0  0  0
 14 24  2  0  0  0  0
 14 25  1  0  0  0  0
 15 24  1  0  0  0  0
 15 26  2  0  0  0  0
 16 25  2  0  0  0  0
 16 26  1  0  0  0  0
 17 30  2  0  0  0  0
 17 31  1  0  0  0  0
 18 32  1  0  0  0  0
 19 32  1  0  0  0  0
 19 33  2  0  0  0  0
 19 34  1  0  0  0  0
 20 22  2  0  0  0  0
 20 40  1  0  0  0  0
 21 23  2  0  0  0  0
 21 41  1  0  0  0  0
 22 49  1  0  0  0  0
 23 42  1  0  0  0  0
 24 62  1  0  0  0  0
 25 63  1  0  0  0  0
 26 78  1  0  0  0  0
 27 88  1  0  0  0  0
 28 89  1  0  0  0  0
 29 31  2  0  0  0  0
 29 88  1  0  0  0  0
 30 90  1  0  0  0  0
 31 91  1  0  0  0  0
 32 72  2  0  0  0  0
 33 73  1  0  0  0  0
 33 76  1  0  0  0  0
 34 77  1  0  0  0  0
 34 82  2  0  0  0  0
 35 50  1  0  0  0  0
 35 79  1  0  0  0  0
 35 83  2  0  0  0  0
 36 62  1  0  0  0  0
 36 64  1  0  0  0  0
 36 84  2  0  0  0  0
 37 67  1  0  0  0  0
 37 74  1  0  0  0  0
 37 85  2  0  0  0  0
 38 68  1  0  0  0  0
 38 80  1  0  0  0  0
 38 86  2  0  0  0  0
 39 75  1  0  0  0  0
 39 78  1  0  0  0  0
 39 87  2  0  0  0  0
 40 43  1  0  0  0  0
 41 50  1  0  0  0  0
 42 74  1  0  0  0  0
 43 45  1  0  0  0  0
 44 46  1  0  0  0  0
 44 47  1  0  0  0  0
 45 49  1  0  0  0  0
 46 51  1  0  0  0  0
 47 75  1  0  0  0  0
 48 51  1  0  0  0  0
 48 75  1  0  0  0  0
 49 79  1  0  0  0  0
 50 74  1  0  0  0  0
 51 73  1  0  0  0  0
 52 63  1  0  0  0  0
 53 68  1  0  0  0  0
 54 69  1  0  0  0  0
 55 69  1  0  0  0  0
 56 69  1  0  0  0  0
 57 70  1  0  0  0  0
 58 70  1  0  0  0  0
 59 71  1  0  0  0  0
 60 71  1  0  0  0  0
 61 81  1  0  0  0  0
 64 70  1  0  0  0  0
 65 70  1  0  0  0  0
 65 71  1  0  0  0  0
 66 71  1  0  0  0  0
 66 89  1  0  0  0  0
 67 69  1  0  0  0  0
 67 80  1  0  0  0  0
 68 81  1  0  0  0  0
 72 73  1  0  0  0  0
M  CHG  1  81   1
M  ISO  4  39 100  66 101  78 100  89 101
M  END
> <Batch ID>
0142

> <Smiles>
CCc1cc(CC(=O)CC(C)(C)CC(C)(C)[101CH2:1][101O:1]c2ccc3c(c2)CN(C(=O)C(NC(=O)C(C)NC)C(C)(C)C)C(C(=O)NC2CCCc4ccccc42)C3)cc([100NH:0][100C:0](=O)N2CCCC(n3nc(-c4ccc(Oc5ccc(F)cc5F)cc4)c(C(N)=O)c3N)C2)c1

> <Shape>
0.259

> <Color>
0.057

> <Negative vol penalty>
0.000

$$$$

  -OEChem-04052302573D

 84 93  0     1  0  0  0  0  0999 V2000
  -26.1245  -38.2119   26.8262 C   0  0  0  0  0  0  0  0  0  0  0  0
  -26.1860  -36.8915   27.2600 C   0  0  0  0  0  0  0  0  0  0  0  0
  -26.7569  -15.0999   21.5294 C   0  0  0  0  0  0  0  0  0  0  0  0
  -26.5769  -15.0000   19.1222 C   0  0  0  0  0  0  0  0  0  0  0  0
  -25.3746  -38.5395   25.6974 C   0  0  0  0  0  0  0  0  0  0  0  0
  -25.4966  -35.8979   26.5657 C   0  0  0  0  0  0  0  0  0  0  0  0
  -28.2900  -31.7357   25.8465 C   0  0  0  0  0  0  0  0  0  0  0  0
  -26.3961  -13.7551   21.6123 C   0  0  0  0  0  0  0  0  0  0  0  0
  -26.2161  -13.6551   19.2050 C   0  0  0  0  0  0  0  0  0  0  0  0
  -28.4328  -30.8697   26.9297 C   0  0  0  0  0  0  0  0  0  0  0  0
  -25.5985  -10.1000   18.7599 C   0  0  0  0  0  0  0  0  0  0  0  0
  -26.2054   -9.2093   17.8746 C   0  0  0  0  0  0  0  0  0  0  0  0
  -27.0916  -22.1742   23.4204 C   0  0  0  0  0  0  0  0  0  0  0  0
  -27.7650  -22.2469   24.6737 C   0  0  0  0  0  0  0  0  0  0  0  0
  -26.7279  -29.4375   26.0015 C   0  0  0  0  0  0  0  0  0  0  0  0
  -28.3712   -9.7923   18.7726 C   0  0  0  0  0  0  0  0  0  0  0  0
  -26.8472  -15.7224   20.2844 C   0  0  0  0  0  0  0  0  0  0  0  0
  -28.5197  -17.6377   20.0789 C   0  0  0  0  0  0  0  0  0  0  0  0
  -24.6835  -37.5479   24.9833 C   0  0  0  0  0  0  0  0  0  0  0  0
  -27.3559  -31.4643   24.8365 C   0  0  0  0  0  0  0  0  0  0  0  0
  -24.7356  -36.2127   25.4270 C   0  0  0  0  0  0  0  0  0  0  0  0
  -26.5770  -30.3004   24.9053 C   0  0  0  0  0  0  0  0  0  0  0  0
  -26.1257  -13.0327   20.4501 C   0  0  0  0  0  0  0  0  0  0  0  0
  -27.6496  -29.7219   27.0088 C   0  0  0  0  0  0  0  0  0  0  0  0
  -26.3780  -10.8370   19.6516 C   0  0  0  0  0  0  0  0  0  0  0  0
  -27.5917   -9.0554   17.8809 C   0  0  0  0  0  0  0  0  0  0  0  0
  -27.7643  -10.6831   19.6580 C   0  0  0  0  0  0  0  0  0  0  0  0
  -27.2193  -17.1117   20.1982 C   0  0  0  0  0  0  0  0  0  0  0  0
  -25.9236  -22.9044   23.4173 C   0  0  0  0  0  0  0  0  0  0  0  0
  -27.0862  -23.0304   25.5810 C   0  0  0  0  0  0  0  0  0  0  0  0
  -28.3370  -18.9983   20.0353 C   0  0  0  0  0  0  0  0  0  0  0  0
  -29.7800  -16.9572   20.0134 C   0  0  0  0  0  0  0  0  0  0  0  0
  -24.9520  -23.0852   22.3310 C   0  0  0  0  0  0  0  0  0  0  0  0
  -24.7716  -32.9377   23.7165 C   0  0  0  0  0  0  0  0  0  0  0  0
  -24.8634  -30.5740   21.4969 C   0  0  0  0  0  0  0  0  0  0  0  0
  -25.8705  -27.4222   20.6609 C   0  0  0  0  0  0  0  0  0  0  0  0
  -23.8477  -37.9574   23.7965 C   0  0  0  0  0  0  0  0  0  0  0  0
  -27.2329  -32.3948   23.6611 C   0  0  0  0  0  0  0  0  0  0  0  0
  -25.5740  -29.9531   23.8367 C   0  0  0  0  0  0  0  0  0  0  0  0
  -23.4505  -36.7884   22.8988 C   0  0  0  0  0  0  0  0  0  0  0  0
  -24.5468  -21.9848   18.9595 C   0  0  0  0  0  0  0  0  0  0  0  0
  -22.9352  -35.6227   23.7370 C   0  0  0  0  0  0  0  0  0  0  0  0
  -25.3034  -20.6557   18.9242 C   0  0  0  0  0  0  0  0  0  0  0  0
  -28.2249  -24.6688   27.0927 C   0  0  0  0  0  0  0  0  0  0  0  0
  -23.8518  -22.2021   20.3013 C   0  0  0  0  0  0  0  0  0  0  0  0
  -25.4997  -20.7590   21.4444 C   0  0  0  0  0  0  0  0  0  0  0  0
  -26.4581  -24.8077   28.6759 C   0  0  0  0  0  0  0  0  0  0  0  0
  -24.0217  -35.1030   24.6861 C   0  0  1  0  0  0  0  0  0  0  0  0
  -27.4548  -23.3516   26.9711 C   0  0  1  0  0  0  0  0  0  0  0  0
  -25.8874  -32.2852   22.9505 C   0  0  1  0  0  0  0  0  0  0  0  0
  -27.9414  -25.1020   28.5266 C   0  0  2  0  0  0  0  0  0  0  0  0
  -26.2567  -20.5245   20.1268 C   0  0  1  0  0  0  0  0  0  0  0  0
  -26.2536  -25.4067   19.2159 C   0  0  0  0  0  0  0  0  0  0  0  0
  -29.7990  -26.7845   28.5774 C   0  0  0  0  0  0  0  0  0  0  0  0
  -27.9476  -26.9077   30.2583 C   0  0  0  0  0  0  0  0  0  0  0  0
  -21.9627  -29.9577   22.2153 C   0  0  0  0  0  0  0  0  0  0  0  0
  -22.2170  -27.7532   21.0562 C   0  0  0  0  0  0  0  0  0  0  0  0
  -22.4718  -29.8742   19.7682 C   0  0  0  0  0  0  0  0  0  0  0  0
  -28.4878  -28.4431   19.7300 C   0  0  0  0  0  0  0  0  0  0  0  0
  -27.5164  -27.4939   27.8299 C   0  0  0  0  0  0  0  0  0  1  0  0
  -24.2838  -29.1841   21.3906 C   0  0  1  0  0  0  0  0  0  0  0  0
  -26.5630  -26.8811   19.4231 C   0  0  2  0  0  0  0  0  0  0  0  0
  -28.2917  -26.5747   28.7969 C   0  0  0  0  0  0  0  0  0  0  0  0
  -22.7513  -29.1996   21.1288 C   0  0  0  0  0  0  0  0  0  0  0  0
  -26.2800  -18.0608   20.2285 N   0  0  0  0  0  0  0  0  0  0  0  0
  -26.9909  -19.1968   20.1278 N   0  0  0  0  0  0  0  0  0  0  0  0
  -24.7990  -22.0504   21.4052 N   0  0  0  0  0  0  0  0  0  0  0  0
  -25.4862  -30.8974   22.7107 N   0  0  0  0  0  0  0  0  0  0  0  0
  -29.1982  -20.0322   19.9272 N   0  0  0  0  0  0  0  0  0  0  0  0
  -29.7870  -15.5569   20.0718 N   0  0  0  0  0  0  0  0  0  0  0  0
  -24.9714  -34.2821   23.9660 N   0  0  0  0  0  0  0  0  0  0  0  0
  -25.0585  -28.4962   20.3635 N   0  0  0  0  0  0  0  0  0  0  0  0
  -26.2565  -23.5488   27.8816 N   0  3  0  0  0  0  0  0  0  0  0  0
  -28.0399  -27.0387   19.5453 N   0  3  0  0  0  0  0  0  0  0  0  0
  -30.8688  -17.5734   19.9228 O   0  0  0  0  0  0  0  0  0  0  0  0
  -24.3479  -24.1567   22.3148 O   0  0  0  0  0  0  0  0  0  0  0  0
  -23.8005  -32.2712   24.0549 O   0  0  0  0  0  0  0  0  0  0  0  0
  -24.7734  -31.3419   20.5357 O   0  0  0  0  0  0  0  0  0  0  0  0
  -26.0307  -26.9380   21.7791 O   0  0  0  0  0  0  0  0  0  0  0  0
  -25.7739  -11.7203   20.5305 O   0  0  0  0  0  0  0  0  0  0  0  0
  -27.7865  -28.8752   28.0653 O   0  0  0  0  0  0  0  0  0  1  0  0
  -28.1743   -8.1989   17.0317 F   0  0  0  0  0  0  0  0  0  0  0  0
  -28.5183  -11.3874   20.5131 F   0  0  0  0  0  0  0  0  0  0  0  0
  -25.6430  -23.6737   24.9212 S   0  0  0  0  0  0  0  0  0  0  0  0
  1  2  1  0  0  0  0
  1  5  2  0  0  0  0
  2  6  2  0  0  0  0
  3  8  2  0  0  0  0
  3 17  1  0  0  0  0
  4  9  1  0  0  0  0
  4 17  2  0  0  0  0
  5 19  1  0  0  0  0
  6 21  1  0  0  0  0
  7 10  2  0  0  0  0
  7 20  1  0  0  0  0
  8 23  1  0  0  0  0
  9 23  2  0  0  0  0
 10 24  1  0  0  0  0
 11 12  2  0  0  0  0
 11 25  1  0  0  0  0
 12 26  1  0  0  0  0
 13 14  1  0  0  0  0
 13 29  2  0  0  0  0
 14 30  2  0  0  0  0
 15 22  1  0  0  0  0
 15 24  2  0  0  0  0
 16 26  2  0  0  0  0
 16 27  1  0  0  0  0
 17 28  1  0  0  0  0
 18 28  1  0  0  0  0
 18 31  2  0  0  0  0
 18 32  1  0  0  0  0
 19 21  2  0  0  0  0
 19 37  1  0  0  0  0
 20 22  2  0  0  0  0
 20 38  1  0  0  0  0
 21 48  1  0  0  0  0
 22 39  1  0  0  0  0
 23 80  1  0  0  0  0
 24 81  1  0  0  0  0
 25 27  2  0  0  0  0
 25 80  1  0  0  0  0
 26 82  1  0  0  0  0
 27 83  1  0  0  0  0
 28 65  2  0  0  0  0
 29 33  1  0  0  0  0
 29 84  1  0  0  0  0
 30 49  1  0  0  0  0
 30 84  1  0  0  0  0
 31 66  1  0  0  0  0
 31 69  1  0  0  0  0
 32 70  1  0  0  0  0
 32 75  2  0  0  0  0
 33 67  1  0  0  0  0
 33 76  2  0  0  0  0
 34 50  1  0  0  0  0
 34 71  1  0  0  0  0
 34 77  2  0  0  0  0
 35 61  1  0  0  0  0
 35 68  1  0  0  0  0
 35 78  2  0  0  0  0
 36 62  1  0  0  0  0
 36 72  1  0  0  0  0
 36 79  2  0  0  0  0
 37 40  1  0  0  0  0
 38 50  1  0  0  0  0
 39 68  1  0  0  0  0
 40 42  1  0  0  0  0
 41 43  1  0  0  0  0
 41 45  1  0  0  0  0
 42 48  1  0  0  0  0
 43 52  1  0  0  0  0
 44 49  1  0  0  0  0
 44 51  1  0  0  0  0
 45 67  1  0  0  0  0
 46 52  1  0  0  0  0
 46 67  1  0  0  0  0
 47 51  1  0  0  0  0
 47 73  1  0  0  0  0
 48 71  1  0  0  0  0
 49 73  1  0  0  0  0
 50 68  1  0  0  0  0
 51 63  1  0  0  0  0
 52 66  1  0  0  0  0
 53 62  1  0  0  0  0
 54 63  1  0  0  0  0
 55 63  1  0  0  0  0
 56 64  1  0  0  0  0
 57 64  1  0  0  0  0
 58 64  1  0  0  0  0
 59 74  1  0  0  0  0
 60 63  1  0  0  0  0
 60 81  1  0  0  0  0
 61 64  1  0  0  0  0
 61 72  1  0  0  0  0
 62 74  1  0  0  0  0
 65 66  1  0  0  0  0
M  CHG  2  73   1  74   1
M  ISO  4  29 100  33 100  60 101  81 101
M  END
> <Batch ID>
0142

> <Smiles>
CNC(C)C(=O)NC(C(=O)N1Cc2cc([101O:1][101CH2:1]C(C)(C)C3CNC(c4cc[100c:0]([100C:0](=O)N5CCCC(n6nc(-c7ccc(Oc8ccc(F)cc8F)cc7)c(C(N)=O)c6N)C5)s4)C3)ccc2CC1C(=O)NC1CCCc2ccccc21)C(C)(C)C

> <Shape>
0.228

> <Color>
0.075

> <Negative vol penalty>
0.000

$$$$

  -OEChem-04052302573D

 87 95  0     1  0  0  0  0  0999 V2000
  -22.7230  -36.2370   16.2203 C   0  0  0  0  0  0  0  0  0  0  0  0
  -23.7100  -35.2573   16.1822 C   0  0  0  0  0  0  0  0  0  0  0  0
  -24.4963   -9.9537   22.2830 C   0  0  0  0  0  0  0  0  0  0  0  0
  -24.5662  -11.4682   24.1641 C   0  0  0  0  0  0  0  0  0  0  0  0
  -22.3647  -36.8171   17.4364 C   0  0  0  0  0  0  0  0  0  0  0  0
  -24.3400  -34.8579   17.3603 C   0  0  0  0  0  0  0  0  0  0  0  0
  -24.1426  -27.9907   19.5271 C   0  0  0  0  0  0  0  0  0  0  0  0
  -24.1113   -8.9165   23.1324 C   0  0  0  0  0  0  0  0  0  0  0  0
  -24.1811  -10.4310   25.0135 C   0  0  0  0  0  0  0  0  0  0  0  0
  -24.3289  -26.6593   19.8995 C   0  0  0  0  0  0  0  0  0  0  0  0
  -22.7597   -5.9548   24.7500 C   0  0  0  0  0  0  0  0  0  0  0  0
  -21.7175   -5.1273   24.3320 C   0  0  0  0  0  0  0  0  0  0  0  0
  -25.5347  -27.3685   21.8720 C   0  0  0  0  0  0  0  0  0  0  0  0
  -28.6863  -22.1322   21.0929 C   0  0  0  0  0  0  0  0  0  0  0  0
  -29.8716  -20.0487   20.7918 C   0  0  0  0  0  0  0  0  0  0  0  0
  -27.4583  -20.0919   20.6851 C   0  0  0  0  0  0  0  0  0  0  0  0
  -20.2394   -7.0361   24.2385 C   0  0  0  0  0  0  0  0  0  0  0  0
  -24.7239  -11.2296   22.7989 C   0  0  0  0  0  0  0  0  0  0  0  0
  -24.2794  -13.1948   21.2343 C   0  0  0  0  0  0  0  0  0  0  0  0
  -22.9839  -36.4177   18.6313 C   0  0  0  0  0  0  0  0  0  0  0  0
  -24.6390  -29.0177   20.3347 C   0  0  0  0  0  0  0  0  0  0  0  0
  -23.9906  -35.4341   18.5934 C   0  0  0  0  0  0  0  0  0  0  0  0
  -25.3404  -28.7043   21.5105 C   0  0  0  0  0  0  0  0  0  0  0  0
  -29.8858  -21.4233   21.0281 C   0  0  0  0  0  0  0  0  0  0  0  0
  -27.4725  -21.4665   20.9215 C   0  0  0  0  0  0  0  0  0  0  0  0
  -28.6578  -19.3830   20.6202 C   0  0  0  0  0  0  0  0  0  0  0  0
  -23.9536   -9.1551   24.4976 C   0  0  0  0  0  0  0  0  0  0  0  0
  -25.0234  -26.3490   21.0689 C   0  0  0  0  0  0  0  0  0  0  0  0
  -22.5417   -7.3229   24.9124 C   0  0  0  0  0  0  0  0  0  0  0  0
  -20.4574   -5.6679   24.0762 C   0  0  0  0  0  0  0  0  0  0  0  0
  -21.2816   -7.8636   24.6566 C   0  0  0  0  0  0  0  0  0  0  0  0
  -25.1222  -12.3013   21.9221 C   0  0  0  0  0  0  0  0  0  0  0  0
  -25.1383  -14.0144   20.5436 C   0  0  0  0  0  0  0  0  0  0  0  0
  -22.8480  -13.2767   21.2210 C   0  0  0  0  0  0  0  0  0  0  0  0
  -25.0083  -32.7119   20.8753 C   0  0  0  0  0  0  0  0  0  0  0  0
  -24.4127  -31.4657   23.6144 C   0  0  0  0  0  0  0  0  0  0  0  0
  -23.3258  -29.7610   26.3621 C   0  0  0  0  0  0  0  0  0  0  0  0
  -29.7430  -17.1342   20.2857 C   0  0  0  0  0  0  0  0  0  0  0  0
  -22.5964  -37.1073   19.9154 C   0  0  0  0  0  0  0  0  0  0  0  0
  -24.5152  -30.4646   19.9409 C   0  0  0  0  0  0  0  0  0  0  0  0
  -25.8867  -29.8411   22.3304 C   0  0  0  0  0  0  0  0  0  0  0  0
  -23.0485  -36.3610   21.1680 C   0  0  0  0  0  0  0  0  0  0  0  0
  -30.1218  -13.6360   19.7417 C   0  0  0  0  0  0  0  0  0  0  0  0
  -24.5029  -35.9217   21.0318 C   0  0  0  0  0  0  0  0  0  0  0  0
  -28.7856  -13.0504   20.2039 C   0  0  0  0  0  0  0  0  0  0  0  0
  -30.5590  -14.8103   20.6155 C   0  0  0  0  0  0  0  0  0  0  0  0
  -28.2226  -15.2887   21.2335 C   0  0  0  0  0  0  0  0  0  0  0  0
  -24.6797  -34.9566   19.8533 C   0  0  1  0  0  0  0  0  0  0  0  0
  -24.3250  -31.4037   21.1456 C   0  0  1  0  0  0  0  0  0  0  0  0
  -27.7091  -14.1446   20.3441 C   0  0  2  0  0  0  0  0  0  0  0  0
  -31.1834  -22.1351   21.2117 C   0  0  0  0  0  0  0  0  0  0  0  0
  -22.8506  -21.2911   21.4009 C   0  0  0  0  0  0  0  0  0  0  0  0
  -22.7424  -30.0895   28.7806 C   0  0  0  0  0  0  0  0  0  0  0  0
  -27.3796  -31.6192   24.3055 C   0  0  0  0  0  0  0  0  0  0  0  0
  -26.7918  -30.9916   26.6568 C   0  0  0  0  0  0  0  0  0  0  0  0
  -25.9105  -33.1089   25.6755 C   0  0  0  0  0  0  0  0  0  0  0  0
  -23.6760  -22.6506   23.9980 C   0  0  0  0  0  0  0  0  0  0  0  0
  -23.4178  -25.5506   22.9384 C   0  0  0  0  0  0  0  0  0  0  0  0
  -25.7096  -25.0182   23.7535 C   0  0  0  0  0  0  0  0  0  0  0  0
  -20.5348  -28.8770   25.9288 C   0  0  0  0  0  0  0  0  0  0  0  0
  -26.1737  -22.2344   20.9915 C   0  0  0  0  0  0  0  0  0  0  0  0
  -23.2529  -22.7535   21.5440 C   0  0  0  0  0  0  0  0  0  0  0  0
  -25.6271  -22.2761   22.4282 C   0  0  0  0  0  0  0  0  0  0  0  0
  -24.9719  -30.8955   24.8932 C   0  0  1  0  0  0  0  0  0  0  0  0
  -22.2150  -30.0529   27.3547 C   0  0  2  0  0  0  0  0  0  0  0  0
  -26.2560  -31.6370   25.3610 C   0  0  0  0  0  0  0  0  0  0  0  0
  -24.3064  -23.0974   22.6516 C   0  0  2  0  0  0  0  0  0  0  0  0
  -24.6472  -24.6555   22.6978 C   0  0  0  0  0  0  0  0  0  1  0  0
  -26.4172  -12.5314   21.6894 N   0  0  0  0  0  0  0  0  0  0  0  0
  -26.3945  -13.5787   20.8476 N   0  0  0  0  0  0  0  0  0  0  0  0
  -24.8920  -30.9218   22.4165 N   0  0  0  0  0  0  0  0  0  0  0  0
  -29.4909  -15.8089   20.6989 N   0  0  0  0  0  0  0  0  0  0  0  0
  -24.9340  -15.0579   19.7119 N   0  0  0  0  0  0  0  0  0  0  0  0
  -22.1190  -12.3572   21.9874 N   0  0  0  0  0  0  0  0  0  0  0  0
  -28.6434  -17.9866   20.3800 N   0  0  0  0  0  0  0  0  0  0  0  0
  -24.2195  -33.6320   20.2114 N   0  0  0  0  0  0  0  0  0  0  0  0
  -23.8815  -30.9197   25.8621 N   0  0  0  0  0  0  0  0  0  0  0  0
  -21.1576  -29.0060   27.2714 N   0  3  0  0  0  0  0  0  0  0  0  0
  -22.2332  -14.1293   20.5364 O   0  0  0  0  0  0  0  0  0  0  0  0
  -26.1656  -32.8764   21.2430 O   0  0  0  0  0  0  0  0  0  0  0  0
  -23.5776  -32.3727   23.6728 O   0  0  0  0  0  0  0  0  0  0  0  0
  -23.6690  -28.6193   26.0632 O   0  0  0  0  0  0  0  0  0  0  0  0
  -30.8451  -17.4804   19.8527 O   0  0  0  0  0  0  0  0  0  0  0  0
  -23.5776   -8.1433   25.3267 O   0  0  0  0  0  0  0  0  0  0  0  0
  -25.1982  -25.0441   21.4298 O   0  0  0  0  0  0  0  0  0  1  0  0
  -19.4571   -4.8734   23.6733 F   0  0  0  0  0  0  0  0  0  0  0  0
  -21.0664   -9.1774   24.8097 F   0  0  0  0  0  0  0  0  0  0  0  0
  1  2  1  0  0  0  0
  1  5  2  0  0  0  0
  2  6  2  0  0  0  0
  3  8  2  0  0  0  0
  3 18  1  0  0  0  0
  4  9  1  0  0  0  0
  4 18  2  0  0  0  0
  5 20  1  0  0  0  0
  6 22  1  0  0  0  0
  7 10  2  0  0  0  0
  7 21  1  0  0  0  0
  8 27  1  0  0  0  0
  9 27  2  0  0  0  0
 10 28  1  0  0  0  0
 11 12  2  0  0  0  0
 11 29  1  0  0  0  0
 12 30  1  0  0  0  0
 13 23  1  0  0  0  0
 13 28  2  0  0  0  0
 14 24  2  0  0  0  0
 14 25  1  0  0  0  0
 15 24  1  0  0  0  0
 15 26  2  0  0  0  0
 16 25  2  0  0  0  0
 16 26  1  0  0  0  0
 17 30  2  0  0  0  0
 17 31  1  0  0  0  0
 18 32  1  0  0  0  0
 19 32  1  0  0  0  0
 19 33  2  0  0  0  0
 19 34  1  0  0  0  0
 20 22  2  0  0  0  0
 20 39  1  0  0  0  0
 21 23  2  0  0  0  0
 21 40  1  0  0  0  0
 22 48  1  0  0  0  0
 23 41  1  0  0  0  0
 24 51  1  0  0  0  0
 25 61  1  0  0  0  0
 26 75  1  0  0  0  0
 27 84  1  0  0  0  0
 28 85  1  0  0  0  0
 29 31  2  0  0  0  0
 29 84  1  0  0  0  0
 30 86  1  0  0  0  0
 31 87  1  0  0  0  0
 32 69  2  0  0  0  0
 33 70  1  0  0  0  0
 33 73  1  0  0  0  0
 34 74  1  0  0  0  0
 34 79  2  0  0  0  0
 35 49  1  0  0  0  0
 35 76  1  0  0  0  0
 35 80  2  0  0  0  0
 36 64  1  0  0  0  0
 36 71  1  0  0  0  0
 36 81  2  0  0  0  0
 37 65  1  0  0  0  0
 37 77  1  0  0  0  0
 37 82  2  0  0  0  0
 38 72  1  0  0  0  0
 38 75  1  0  0  0  0
 38 83  2  0  0  0  0
 39 42  1  0  0  0  0
 40 49  1  0  0  0  0
 41 71  1  0  0  0  0
 42 44  1  0  0  0  0
 43 45  1  0  0  0  0
 43 46  1  0  0  0  0
 44 48  1  0  0  0  0
 45 50  1  0  0  0  0
 46 72  1  0  0  0  0
 47 50  1  0  0  0  0
 47 72  1  0  0  0  0
 48 76  1  0  0  0  0
 49 71  1  0  0  0  0
 50 70  1  0  0  0  0
 52 62  1  0  0  0  0
 53 65  1  0  0  0  0
 54 66  1  0  0  0  0
 55 66  1  0  0  0  0
 56 66  1  0  0  0  0
 57 67  1  0  0  0  0
 58 68  1  0  0  0  0
 59 68  1  0  0  0  0
 60 78  1  0  0  0  0
 61 63  1  0  0  0  0
 62 67  1  0  0  0  0
 63 67  1  0  0  0  0
 64 66  1  0  0  0  0
 64 77  1  0  0  0  0
 65 78  1  0  0  0  0
 67 68  1  0  0  0  0
 68 85  1  0  0  0  0
 69 70  1  0  0  0  0
M  CHG  1  78   1
M  ISO  4  38 100  68 101  75 100  85 101
M  END
> <Batch ID>
0142

> <Smiles>
CCC(C)(CCc1cc(C)cc([100NH:0][100C:0](=O)N2CCCC(n3nc(-c4ccc(Oc5ccc(F)cc5F)cc4)c(C(N)=O)c3N)C2)c1)[101C:1](C)(C)[101O:1]c1ccc2c(c1)CN(C(=O)C(NC(=O)C(C)NC)C(C)(C)C)C(C(=O)NC1CCCc3ccccc31)C2

> <Shape>
0.249

> <Color>
0.134

> <Negative vol penalty>
0.000

$$$$

  -OEChem-04052302573D

 88 97  0     1  0  0  0  0  0999 V2000
  -17.5323  -31.1849   25.1079 C   0  0  0  0  0  0  0  0  0  0  0  0
  -18.8328  -31.0410   25.5805 C   0  0  0  0  0  0  0  0  0  0  0  0
  -23.8639   -9.0545   20.1747 C   0  0  0  0  0  0  0  0  0  0  0  0
  -23.0504  -10.7578   21.6827 C   0  0  0  0  0  0  0  0  0  0  0  0
  -17.1251  -30.4919   23.9687 C   0  0  0  0  0  0  0  0  0  0  0  0
  -19.7266  -30.2030   24.9147 C   0  0  0  0  0  0  0  0  0  0  0  0
  -26.6921  -29.5746   23.3643 C   0  0  0  0  0  0  0  0  0  0  0  0
  -23.1045   -8.0968   20.8467 C   0  0  0  0  0  0  0  0  0  0  0  0
  -22.2910   -9.8001   22.3548 C   0  0  0  0  0  0  0  0  0  0  0  0
  -27.7368  -28.6557   23.4539 C   0  0  0  0  0  0  0  0  0  0  0  0
  -23.3202   -6.3037   23.7038 C   0  0  0  0  0  0  0  0  0  0  0  0
  -23.9335   -5.0885   24.0085 C   0  0  0  0  0  0  0  0  0  0  0  0
  -27.3290  -20.4903   19.1516 C   0  0  0  0  0  0  0  0  0  0  0  0
  -26.9458  -27.5699   21.4503 C   0  0  0  0  0  0  0  0  0  0  0  0
  -29.4608  -19.1257   20.3246 C   0  0  0  0  0  0  0  0  0  0  0  0
  -22.2744   -3.9220   22.6956 C   0  0  0  0  0  0  0  0  0  0  0  0
  -23.8369  -10.3850   20.5927 C   0  0  0  0  0  0  0  0  0  0  0  0
  -24.2227  -12.1581   18.7996 C   0  0  0  0  0  0  0  0  0  0  0  0
  -18.0172  -29.6525   23.2830 C   0  0  0  0  0  0  0  0  0  0  0  0
  -25.7584  -29.4912   22.3213 C   0  0  0  0  0  0  0  0  0  0  0  0
  -19.3306  -29.4971   23.7660 C   0  0  0  0  0  0  0  0  0  0  0  0
  -28.3334  -21.1997   19.8100 C   0  0  0  0  0  0  0  0  0  0  0  0
  -25.8916  -28.4904   21.3482 C   0  0  0  0  0  0  0  0  0  0  0  0
  -27.3904  -19.0986   19.0797 C   0  0  0  0  0  0  0  0  0  0  0  0
  -28.4563  -18.4164   19.6662 C   0  0  0  0  0  0  0  0  0  0  0  0
  -22.3181   -8.4695   21.9368 C   0  0  0  0  0  0  0  0  0  0  0  0
  -27.8621  -27.6515   22.4985 C   0  0  0  0  0  0  0  0  0  0  0  0
  -22.1840   -6.3280   22.8950 C   0  0  0  0  0  0  0  0  0  0  0  0
  -23.4106   -3.8977   23.5044 C   0  0  0  0  0  0  0  0  0  0  0  0
  -29.3993  -20.5174   20.3966 C   0  0  0  0  0  0  0  0  0  0  0  0
  -21.6611   -5.1372   22.3909 C   0  0  0  0  0  0  0  0  0  0  0  0
  -24.6215  -11.3747   19.8992 C   0  0  0  0  0  0  0  0  0  0  0  0
  -25.3194  -12.9346   18.5154 C   0  0  0  0  0  0  0  0  0  0  0  0
  -22.9726  -12.1817   18.0979 C   0  0  0  0  0  0  0  0  0  0  0  0
  -22.6199  -29.0167   22.1529 C   0  0  0  0  0  0  0  0  0  0  0  0
  -23.0912  -29.6194   19.0006 C   0  0  0  0  0  0  0  0  0  0  0  0
  -25.2380  -29.6599   16.3479 C   0  0  0  0  0  0  0  0  0  0  0  0
  -29.5355  -16.1895   20.1382 C   0  0  0  0  0  0  0  0  0  0  0  0
  -17.5173  -28.8872   22.0834 C   0  0  0  0  0  0  0  0  0  0  0  0
  -24.6527  -30.5062   22.2237 C   0  0  0  0  0  0  0  0  0  0  0  0
  -24.9274  -28.3699   20.1974 C   0  0  0  0  0  0  0  0  0  0  0  0
  -18.6360  -28.3099   21.2199 C   0  0  0  0  0  0  0  0  0  0  0  0
  -30.0751  -12.6713   20.2286 C   0  0  0  0  0  0  0  0  0  0  0  0
  -19.6819  -27.6216   22.0912 C   0  0  0  0  0  0  0  0  0  0  0  0
  -28.6716  -12.0848   20.0605 C   0  0  0  0  0  0  0  0  0  0  0  0
  -27.0579  -23.3116   20.5701 C   0  0  0  0  0  0  0  0  0  0  0  0
  -30.0600  -13.9463   21.0699 C   0  0  0  0  0  0  0  0  0  0  0  0
  -27.7194  -14.3940   20.4448 C   0  0  0  0  0  0  0  0  0  0  0  0
  -20.3366  -28.6166   23.0570 C   0  0  1  0  0  0  0  0  0  0  0  0
  -23.4607  -30.0147   21.4082 C   0  0  1  0  0  0  0  0  0  0  0  0
  -28.3823  -23.3166   21.2741 C   0  0  1  0  0  0  0  0  0  0  0  0
  -27.6754  -13.1444   19.5503 C   0  0  2  0  0  0  0  0  0  0  0  0
  -28.2651  -22.6886   19.8849 C   0  0  1  0  0  0  0  0  0  0  0  0
  -26.3002  -18.3644   18.3688 C   0  0  0  0  0  0  0  0  0  0  0  0
  -25.3241  -30.1630   13.8909 C   0  0  0  0  0  0  0  0  0  0  0  0
  -29.0756  -24.8502   24.0271 C   0  0  0  0  0  0  0  0  0  0  0  0
  -21.6791  -26.9792   18.4129 C   0  0  0  0  0  0  0  0  0  0  0  0
  -22.6202  -27.0721   16.0947 C   0  0  0  0  0  0  0  0  0  0  0  0
  -21.0628  -28.8559   16.8790 C   0  0  0  0  0  0  0  0  0  0  0  0
  -27.2403  -31.8039   16.7391 C   0  0  0  0  0  0  0  0  0  0  0  0
  -29.1051  -24.6087   21.5196 C   0  0  0  0  0  0  0  0  0  0  0  0
  -23.4203  -28.7807   17.7893 C   0  0  1  0  0  0  0  0  0  0  0  0
  -25.5174  -30.7164   15.2942 C   0  0  2  0  0  0  0  0  0  0  0  0
  -28.8380  -23.3978   18.6871 C   0  0  0  0  0  0  0  0  0  0  0  0
  -28.5239  -25.3769   22.7088 C   0  0  2  0  0  0  0  0  0  1  0  0
  -22.2128  -27.9228   17.3166 C   0  0  0  0  0  0  0  0  0  0  0  0
  -25.8739  -11.6301   20.2870 N   0  0  0  0  0  0  0  0  0  0  0  0
  -26.2715  -12.5826   19.4263 N   0  0  0  0  0  0  0  0  0  0  0  0
  -23.8595  -29.3822   20.1492 N   0  0  0  0  0  0  0  0  0  0  0  0
  -29.0968  -14.9053   20.5246 N   0  0  0  0  0  0  0  0  0  0  0  0
  -25.5525  -13.8773   17.5776 N   0  0  0  0  0  0  0  0  0  0  0  0
  -21.9524  -11.3189   18.5210 N   0  0  0  0  0  0  0  0  0  0  0  0
  -28.5372  -17.0031   19.6034 N   0  0  0  0  0  0  0  0  0  0  0  0
  -21.3164  -29.4245   22.3629 N   0  0  0  0  0  0  0  0  0  0  0  0
  -23.9293  -29.7032   16.7801 N   0  0  0  0  0  0  0  0  0  0  0  0
  -26.9178  -31.2113   15.4155 N   0  3  0  0  0  0  0  0  0  0  0  0
  -22.7720  -12.9337   17.1141 O   0  0  0  0  0  0  0  0  0  0  0  0
  -23.1165  -27.9545   22.5091 O   0  0  0  0  0  0  0  0  0  0  0  0
  -22.1905  -30.4592   18.9281 O   0  0  0  0  0  0  0  0  0  0  0  0
  -26.0940  -28.8724   16.7450 O   0  0  0  0  0  0  0  0  0  0  0  0
  -30.7157  -16.5319   20.2466 O   0  0  0  0  0  0  0  0  0  0  0  0
  -21.5768   -7.5353   22.5927 O   0  0  0  0  0  0  0  0  0  0  0  0
  -28.8806  -26.7529   22.5840 O   0  0  0  0  0  0  0  0  0  1  0  0
  -24.0005   -2.7310   23.7959 F   0  0  0  0  0  0  0  0  0  0  0  0
  -30.3684  -21.1893   21.0340 F   0  0  0  0  0  0  0  0  0  0  0  0
  -20.5705   -5.1543   21.6124 F   0  0  0  0  0  0  0  0  0  0  0  0
  -28.1733  -22.9891   17.5863 F   0  0  0  0  0  0  0  0  0  0  0  0
  -30.1287  -23.0307   18.5460 F   0  0  0  0  0  0  0  0  0  0  0  0
  1  2  1  0  0  0  0
  1  5  2  0  0  0  0
  2  6  2  0  0  0  0
  3  8  2  0  0  0  0
  3 17  1  0  0  0  0
  4  9  1  0  0  0  0
  4 17  2  0  0  0  0
  5 19  1  0  0  0  0
  6 21  1  0  0  0  0
  7 10  2  0  0  0  0
  7 20  1  0  0  0  0
  8 26  1  0  0  0  0
  9 26  2  0  0  0  0
 10 27  1  0  0  0  0
 11 12  2  0  0  0  0
 11 28  1  0  0  0  0
 12 29  1  0  0  0  0
 13 22  1  0  0  0  0
 13 24  2  0  0  0  0
 14 23  1  0  0  0  0
 14 27  2  0  0  0  0
 15 25  2  0  0  0  0
 15 30  1  0  0  0  0
 16 29  2  0  0  0  0
 16 31  1  0  0  0  0
 17 32  1  0  0  0  0
 18 32  1  0  0  0  0
 18 33  2  0  0  0  0
 18 34  1  0  0  0  0
 19 21  2  0  0  0  0
 19 39  1  0  0  0  0
 20 23  2  0  0  0  0
 20 40  1  0  0  0  0
 21 49  1  0  0  0  0
 22 30  2  0  0  0  0
 22 53  1  0  0  0  0
 23 41  1  0  0  0  0
 24 25  1  0  0  0  0
 24 54  1  0  0  0  0
 25 73  1  0  0  0  0
 26 82  1  0  0  0  0
 27 83  1  0  0  0  0
 28 31  2  0  0  0  0
 28 82  1  0  0  0  0
 29 84  1  0  0  0  0
 30 85  1  0  0  0  0
 31 86  1  0  0  0  0
 32 67  2  0  0  0  0
 33 68  1  0  0  0  0
 33 71  1  0  0  0  0
 34 72  1  0  0  0  0
 34 77  2  0  0  0  0
 35 50  1  0  0  0  0
 35 74  1  0  0  0  0
 35 78  2  0  0  0  0
 36 62  1  0  0  0  0
 36 69  1  0  0  0  0
 36 79  2  0  0  0  0
 37 63  1  0  0  0  0
 37 75  1  0  0  0  0
 37 80  2  0  0  0  0
 38 70  1  0  0  0  0
 38 73  1  0  0  0  0
 38 81  2  0  0  0  0
 39 42  1  0  0  0  0
 40 50  1  0  0  0  0
 41 69  1  0  0  0  0
 42 44  1  0  0  0  0
 43 45  1  0  0  0  0
 43 47  1  0  0  0  0
 44 49  1  0  0  0  0
 45 52  1  0  0  0  0
 46 51  1  0  0  0  0
 46 53  1  0  0  0  0
 47 70  1  0  0  0  0
 48 52  1  0  0  0  0
 48 70  1  0  0  0  0
 49 74  1  0  0  0  0
 50 69  1  0  0  0  0
 51 53  1  0  0  0  0
 51 61  1  0  0  0  0
 52 68  1  0  0  0  0
 53 64  1  0  0  0  0
 55 63  1  0  0  0  0
 56 65  1  0  0  0  0
 57 66  1  0  0  0  0
 58 66  1  0  0  0  0
 59 66  1  0  0  0  0
 60 76  1  0  0  0  0
 61 65  1  0  0  0  0
 62 66  1  0  0  0  0
 62 75  1  0  0  0  0
 63 76  1  0  0  0  0
 64 87  1  0  0  0  0
 64 88  1  0  0  0  0
 65 83  1  0  0  0  0
 67 68  1  0  0  0  0
M  CHG  1  76   1
M  ISO  4  38 100  65 101  73 100  83 101
M  END
> <Batch ID>
0142

> <Smiles>
CNC(C)C(=O)NC(C(=O)N1Cc2cc([101O:1][101CH:1](C)CC3CC3(c3cc(C)c([100NH:0][100C:0](=O)N4CCCC(n5nc(-c6ccc(Oc7ccc(F)cc7F)cc6)c(C(N)=O)c5N)C4)cc3F)C(F)F)ccc2CC1C(=O)NC1CCCc2ccccc21)C(C)(C)C

> <Shape>
0.307

> <Color>
0.105

> <Negative vol penalty>
0.000

$$$$

  -OEChem-04052302573D

 88 97  0     1  0  0  0  0  0999 V2000
  -20.3807  -31.3124   22.5398 C   0  0  0  0  0  0  0  0  0  0  0  0
  -21.6343  -30.7094   22.5288 C   0  0  0  0  0  0  0  0  0  0  0  0
  -26.5746  -12.1651   20.6536 C   0  0  0  0  0  0  0  0  0  0  0  0
  -24.6674  -13.6479   20.6827 C   0  0  0  0  0  0  0  0  0  0  0  0
  -19.2297  -30.5256   22.5259 C   0  0  0  0  0  0  0  0  0  0  0  0
  -21.7377  -29.3190   22.5051 C   0  0  0  0  0  0  0  0  0  0  0  0
  -25.1944  -27.6844   19.1848 C   0  0  0  0  0  0  0  0  0  0  0  0
  -25.7190  -11.0639   20.6859 C   0  0  0  0  0  0  0  0  0  0  0  0
  -23.8118  -12.5468   20.7149 C   0  0  0  0  0  0  0  0  0  0  0  0
  -26.5330  -27.7702   19.5650 C   0  0  0  0  0  0  0  0  0  0  0  0
  -23.8920   -9.3965   22.9893 C   0  0  0  0  0  0  0  0  0  0  0  0
  -24.2047   -8.3592   23.8679 C   0  0  0  0  0  0  0  0  0  0  0  0
  -26.5144  -25.4269   20.1374 C   0  0  0  0  0  0  0  0  0  0  0  0
  -29.7988  -23.4724   19.7720 C   0  0  0  0  0  0  0  0  0  0  0  0
  -24.3582   -6.8280   22.0053 C   0  0  0  0  0  0  0  0  0  0  0  0
  -30.6349  -22.5560   22.2024 C   0  0  0  0  0  0  0  0  0  0  0  0
  -26.0488  -13.4571   20.6521 C   0  0  0  0  0  0  0  0  0  0  0  0
  -27.4272  -15.2543   19.4783 C   0  0  0  0  0  0  0  0  0  0  0  0
  -19.3191  -29.1251   22.4923 C   0  0  0  0  0  0  0  0  0  0  0  0
  -24.5015  -26.4696   19.2885 C   0  0  0  0  0  0  0  0  0  0  0  0
  -20.5869  -28.5127   22.4921 C   0  0  0  0  0  0  0  0  0  0  0  0
  -25.1678  -25.3277   19.7555 C   0  0  0  0  0  0  0  0  0  0  0  0
  -29.0773  -22.4677   20.4072 C   0  0  0  0  0  0  0  0  0  0  0  0
  -29.4966  -21.9952   21.6458 C   0  0  0  0  0  0  0  0  0  0  0  0
  -24.3376  -11.2548   20.7165 C   0  0  0  0  0  0  0  0  0  0  0  0
  -27.1924  -26.6421   20.0441 C   0  0  0  0  0  0  0  0  0  0  0  0
  -23.8122   -9.1495   21.6188 C   0  0  0  0  0  0  0  0  0  0  0  0
  -24.4378   -7.0750   23.3759 C   0  0  0  0  0  0  0  0  0  0  0  0
  -24.0454   -7.8653   21.1268 C   0  0  0  0  0  0  0  0  0  0  0  0
  -26.9322  -14.5949   20.6193 C   0  0  0  0  0  0  0  0  0  0  0  0
  -30.9234  -23.9671   20.4125 C   0  0  0  0  0  0  0  0  0  0  0  0
  -28.2164  -16.2609   19.9787 C   0  0  0  0  0  0  0  0  0  0  0  0
  -27.1943  -14.9813   18.0901 C   0  0  0  0  0  0  0  0  0  0  0  0
  -21.9667  -25.4655   20.9226 C   0  0  0  0  0  0  0  0  0  0  0  0
  -22.3830  -22.7746   19.1595 C   0  0  0  0  0  0  0  0  0  0  0  0
  -24.4933  -20.7921   17.3531 C   0  0  0  0  0  0  0  0  0  0  0  0
  -29.1119  -20.4184   23.5725 C   0  0  0  0  0  0  0  0  0  0  0  0
  -18.0470  -28.3155   22.5260 C   0  0  0  0  0  0  0  0  0  0  0  0
  -23.0654  -26.3873   18.8491 C   0  0  0  0  0  0  0  0  0  0  0  0
  -24.4747  -23.9951   19.8669 C   0  0  0  0  0  0  0  0  0  0  0  0
  -18.2428  -26.8564   22.1224 C   0  0  0  0  0  0  0  0  0  0  0  0
  -29.8663  -17.1217   24.6859 C   0  0  0  0  0  0  0  0  0  0  0  0
  -19.4569  -26.2646   22.8315 C   0  0  0  0  0  0  0  0  0  0  0  0
  -29.2110  -16.2247   23.6333 C   0  0  0  0  0  0  0  0  0  0  0  0
  -31.3378  -26.9838   21.0860 C   0  0  0  0  0  0  0  0  0  0  0  0
  -32.4075  -25.9583   20.7916 C   0  0  0  0  0  0  0  0  0  0  0  0
  -29.0281  -18.3665   24.9716 C   0  0  0  0  0  0  0  0  0  0  0  0
  -28.0030  -18.2544   22.7343 C   0  0  0  0  0  0  0  0  0  0  0  0
  -20.7401  -27.0080   22.4414 C   0  0  1  0  0  0  0  0  0  0  0  0
  -22.3131  -25.2203   19.4812 C   0  0  1  0  0  0  0  0  0  0  0  0
  -28.8423  -17.0201   22.3657 C   0  0  2  0  0  0  0  0  0  0  0  0
  -30.7389  -27.1876   19.7086 C   0  0  2  0  0  0  0  0  0  0  0  0
  -31.7239  -25.0479   19.7585 C   0  0  1  0  0  0  0  0  0  0  0  0
  -27.8601  -21.9162   19.7401 C   0  0  0  0  0  0  0  0  0  0  0  0
  -24.5542  -18.6386   16.0661 C   0  0  0  0  0  0  0  0  0  0  0  0
  -31.9367  -23.6589   17.6820 C   0  0  0  0  0  0  0  0  0  0  0  0
  -33.6608  -23.4782   19.4935 C   0  0  0  0  0  0  0  0  0  0  0  0
  -33.5278  -25.5529   18.0920 C   0  0  0  0  0  0  0  0  0  0  0  0
  -22.4097  -21.2120   21.7801 C   0  0  0  0  0  0  0  0  0  0  0  0
  -23.4024  -19.2790   20.5366 C   0  0  0  0  0  0  0  0  0  0  0  0
  -21.1342  -20.1195   19.9270 C   0  0  0  0  0  0  0  0  0  0  0  0
  -25.2341  -22.1773   14.8449 C   0  0  0  0  0  0  0  0  0  0  0  0
  -29.3088  -27.6830   19.7390 C   0  0  0  0  0  0  0  0  0  1  0  0
  -23.1684  -21.4965   19.3287 C   0  0  1  0  0  0  0  0  0  0  0  0
  -24.3447  -20.1429   15.9890 C   0  0  2  0  0  0  0  0  0  0  0  0
  -32.7032  -24.4401   18.7657 C   0  0  0  0  0  0  0  0  0  0  0  0
  -22.5414  -20.5522   20.3929 C   0  0  0  0  0  0  0  0  0  0  0  0
  -31.3617  -23.5332   21.6156 N   0  0  0  0  0  0  0  0  0  0  0  0
  -27.3703  -15.1369   21.7587 N   0  0  0  0  0  0  0  0  0  0  0  0
  -28.1490  -16.1475   21.3361 N   0  0  0  0  0  0  0  0  0  0  0  0
  -23.0688  -23.9670   19.4309 N   0  0  0  0  0  0  0  0  0  0  0  0
  -28.7210  -19.0713   23.7251 N   0  0  0  0  0  0  0  0  0  0  0  0
  -28.9545  -17.2230   19.3855 N   0  0  0  0  0  0  0  0  0  0  0  0
  -26.3569  -13.9098   17.7512 N   0  0  0  0  0  0  0  0  0  0  0  0
  -28.7952  -20.9738   22.3332 N   0  0  0  0  0  0  0  0  0  0  0  0
  -21.1888  -26.5884   21.1311 N   0  0  0  0  0  0  0  0  0  0  0  0
  -23.2804  -20.9072   17.9988 N   0  0  0  0  0  0  0  0  0  0  0  0
  -25.3408  -20.7079   15.0352 N   0  3  0  0  0  0  0  0  0  0  0  0
  -27.7265  -15.6572   17.1771 O   0  0  0  0  0  0  0  0  0  0  0  0
  -22.3737  -24.6923   21.7817 O   0  0  0  0  0  0  0  0  0  0  0  0
  -21.2066  -22.7175   18.7930 O   0  0  0  0  0  0  0  0  0  0  0  0
  -25.5774  -21.1569   17.8027 O   0  0  0  0  0  0  0  0  0  0  0  0
  -29.7095  -21.0258   24.4647 O   0  0  0  0  0  0  0  0  0  0  0  0
  -30.7978  -25.9102   19.0528 O   0  0  0  0  0  0  0  0  0  0  0  0
  -23.5024  -10.1805   20.7478 O   0  0  0  0  0  0  0  0  0  0  0  0
  -28.4988  -26.7233   20.4165 O   0  0  0  0  0  0  0  0  0  1  0  0
  -24.7397   -6.0793   24.2195 F   0  0  0  0  0  0  0  0  0  0  0  0
  -23.9714   -7.6222   19.8110 F   0  0  0  0  0  0  0  0  0  0  0  0
  1  2  1  0  0  0  0
  1  5  2  0  0  0  0
  2  6  2  0  0  0  0
  3  8  2  0  0  0  0
  3 17  1  0  0  0  0
  4  9  1  0  0  0  0
  4 17  2  0  0  0  0
  5 19  1  0  0  0  0
  6 21  1  0  0  0  0
  7 10  2  0  0  0  0
  7 20  1  0  0  0  0
  8 25  1  0  0  0  0
  9 25  2  0  0  0  0
 10 26  1  0  0  0  0
 11 12  2  0  0  0  0
 11 27  1  0  0  0  0
 12 28  1  0  0  0  0
 13 22  1  0  0  0  0
 13 26  2  0  0  0  0
 14 23  2  0  0  0  0
 14 31  1  0  0  0  0
 15 28  2  0  0  0  0
 15 29  1  0  0  0  0
 16 24  2  0  0  0  0
 16 68  1  0  0  0  0
 17 30  1  0  0  0  0
 18 30  1  0  0  0  0
 18 32  2  0  0  0  0
 18 33  1  0  0  0  0
 19 21  2  0  0  0  0
 19 38  1  0  0  0  0
 20 22  2  0  0  0  0
 20 39  1  0  0  0  0
 21 49  1  0  0  0  0
 22 40  1  0  0  0  0
 23 24  1  0  0  0  0
 23 54  1  0  0  0  0
 24 75  1  0  0  0  0
 25 85  1  0  0  0  0
 26 86  1  0  0  0  0
 27 29  2  0  0  0  0
 27 85  1  0  0  0  0
 28 87  1  0  0  0  0
 29 88  1  0  0  0  0
 30 69  2  0  0  0  0
 31 53  1  0  0  0  0
 31 68  2  0  0  0  0
 32 70  1  0  0  0  0
 32 73  1  0  0  0  0
 33 74  1  0  0  0  0
 33 79  2  0  0  0  0
 34 50  1  0  0  0  0
 34 76  1  0  0  0  0
 34 80  2  0  0  0  0
 35 64  1  0  0  0  0
 35 71  1  0  0  0  0
 35 81  2  0  0  0  0
 36 65  1  0  0  0  0
 36 77  1  0  0  0  0
 36 82  2  0  0  0  0
 37 72  1  0  0  0  0
 37 75  1  0  0  0  0
 37 83  2  0  0  0  0
 38 41  1  0  0  0  0
 39 50  1  0  0  0  0
 40 71  1  0  0  0  0
 41 43  1  0  0  0  0
 42 44  1  0  0  0  0
 42 47  1  0  0  0  0
 43 49  1  0  0  0  0
 44 51  1  0  0  0  0
 45 46  1  0  0  0  0
 45 52  1  0  0  0  0
 46 53  1  0  0  0  0
 47 72  1  0  0  0  0
 48 51  1  0  0  0  0
 48 72  1  0  0  0  0
 49 76  1  0  0  0  0
 50 71  1  0  0  0  0
 51 70  1  0  0  0  0
 52 63  1  0  0  0  0
 52 84  1  0  0  0  0
 53 66  1  0  0  0  0
 53 84  1  0  0  0  0
 55 65  1  0  0  0  0
 56 66  1  0  0  0  0
 57 66  1  0  0  0  0
 58 66  1  0  0  0  0
 59 67  1  0  0  0  0
 60 67  1  0  0  0  0
 61 67  1  0  0  0  0
 62 78  1  0  0  0  0
 63 86  1  0  0  0  0
 64 67  1  0  0  0  0
 64 77  1  0  0  0  0
 65 78  1  0  0  0  0
 69 70  1  0  0  0  0
M  CHG  1  78   1
M  ISO  4  37 100  63 101  75 100  86 101
M  END
> <Batch ID>
0142

> <Smiles>
CNC(C)C(=O)NC(C(=O)N1Cc2cc([101O:1][101CH2:1]C3CCC(c4cc(C)c([100NH:0][100C:0](=O)N5CCCC(n6nc(-c7ccc(Oc8ccc(F)cc8F)cc7)c(C(N)=O)c6N)C5)cn4)(C(C)(C)C)O3)ccc2CC1C(=O)NC1CCCc2ccccc21)C(C)(C)C

> <Shape>
0.231

> <Color>
0.064

> <Negative vol penalty>
0.000

$$$$

  -OEChem-04052302573D

 86 95  0     1  0  0  0  0  0999 V2000
  -17.6060  -29.8365   19.5390 C   0  0  0  0  0  0  0  0  0  0  0  0
  -18.8356  -30.4870   19.5210 C   0  0  0  0  0  0  0  0  0  0  0  0
  -23.9633   -9.4706   21.4999 C   0  0  0  0  0  0  0  0  0  0  0  0
  -24.6653  -10.6024   23.5156 C   0  0  0  0  0  0  0  0  0  0  0  0
  -17.3132  -28.9297   20.5568 C   0  0  0  0  0  0  0  0  0  0  0  0
  -19.7727  -30.2318   20.5216 C   0  0  0  0  0  0  0  0  0  0  0  0
  -26.3268  -27.7150   18.9089 C   0  0  0  0  0  0  0  0  0  0  0  0
  -28.5174  -20.5418   20.1719 C   0  0  0  0  0  0  0  0  0  0  0  0
  -28.3952  -19.1556   20.2802 C   0  0  0  0  0  0  0  0  0  0  0  0
  -23.5343   -8.3827   22.2601 C   0  0  0  0  0  0  0  0  0  0  0  0
  -24.2363   -9.5145   24.2759 C   0  0  0  0  0  0  0  0  0  0  0  0
  -27.6712  -27.4332   18.6652 C   0  0  0  0  0  0  0  0  0  0  0  0
  -20.8668   -7.5802   24.1767 C   0  0  0  0  0  0  0  0  0  0  0  0
  -19.6214   -7.0293   23.8748 C   0  0  0  0  0  0  0  0  0  0  0  0
  -30.5475  -18.7924   19.1446 C   0  0  0  0  0  0  0  0  0  0  0  0
  -28.0950  -27.3440   21.0443 C   0  0  0  0  0  0  0  0  0  0  0  0
  -20.6753   -4.9080   23.3988 C   0  0  0  0  0  0  0  0  0  0  0  0
  -24.5289  -10.5805   22.1276 C   0  0  0  0  0  0  0  0  0  0  0  0
  -24.2180  -12.8334   20.9719 C   0  0  0  0  0  0  0  0  0  0  0  0
  -18.2509  -28.6561   21.5649 C   0  0  0  0  0  0  0  0  0  0  0  0
  -25.8577  -27.7972   20.2229 C   0  0  0  0  0  0  0  0  0  0  0  0
  -19.4917  -29.3215   21.5545 C   0  0  0  0  0  0  0  0  0  0  0  0
  -30.6493  -20.1530   19.0479 C   0  0  0  0  0  0  0  0  0  0  0  0
  -26.7468  -27.6136   21.2946 C   0  0  0  0  0  0  0  0  0  0  0  0
  -29.6569  -20.9630   19.5515 C   0  0  0  0  0  0  0  0  0  0  0  0
  -29.3978  -18.2902   19.7730 C   0  0  0  0  0  0  0  0  0  0  0  0
  -23.6707   -8.4046   23.6481 C   0  0  0  0  0  0  0  0  0  0  0  0
  -28.5531  -27.2484   19.7303 C   0  0  0  0  0  0  0  0  0  0  0  0
  -22.0164   -6.7951   24.0895 C   0  0  0  0  0  0  0  0  0  0  0  0
  -19.5256   -5.6932   23.4859 C   0  0  0  0  0  0  0  0  0  0  0  0
  -21.9206   -5.4590   23.7006 C   0  0  0  0  0  0  0  0  0  0  0  0
  -24.9728  -11.7043   21.3428 C   0  0  0  0  0  0  0  0  0  0  0  0
  -25.0882  -13.6022   20.2382 C   0  0  0  0  0  0  0  0  0  0  0  0
  -22.8526  -13.1581   21.2646 C   0  0  0  0  0  0  0  0  0  0  0  0
  -22.9306  -28.3578   22.5020 C   0  0  0  0  0  0  0  0  0  0  0  0
  -29.9765  -23.4242   19.3047 C   0  0  0  0  0  0  0  0  0  0  0  0
  -24.5843  -26.0788   23.7195 C   0  0  0  0  0  0  0  0  0  0  0  0
  -26.0358  -23.3077   24.0612 C   0  0  0  0  0  0  0  0  0  0  0  0
  -30.1050  -15.8916   19.4685 C   0  0  0  0  0  0  0  0  0  0  0  0
  -17.8709  -27.7034   22.6707 C   0  0  0  0  0  0  0  0  0  0  0  0
  -24.4306  -28.1594   20.5329 C   0  0  0  0  0  0  0  0  0  0  0  0
  -31.4325  -21.3534   18.5932 C   0  0  0  0  0  0  0  0  0  0  0  0
  -26.2048  -27.7456   22.6916 C   0  0  0  0  0  0  0  0  0  0  0  0
  -19.0635  -27.2084   23.4849 C   0  0  0  0  0  0  0  0  0  0  0  0
  -29.6741  -12.5276   18.3845 C   0  0  0  0  0  0  0  0  0  0  0  0
  -19.9745  -28.3731   23.8596 C   0  0  0  0  0  0  0  0  0  0  0  0
  -28.3505  -12.1064   19.0270 C   0  0  0  0  0  0  0  0  0  0  0  0
  -30.4845  -13.4414   19.3022 C   0  0  0  0  0  0  0  0  0  0  0  0
  -28.4374  -14.1953   20.4469 C   0  0  0  0  0  0  0  0  0  0  0  0
  -20.5439  -29.0528   22.6084 C   0  0  1  0  0  0  0  0  0  0  0  0
  -23.8862  -27.4496   21.7855 C   0  0  1  0  0  0  0  0  0  0  0  0
  -27.5568  -13.3265   19.5341 C   0  0  2  0  0  0  0  0  0  0  0  0
  -26.8582  -21.3414   25.3859 C   0  0  0  0  0  0  0  0  0  0  0  0
  -25.8071  -28.0520   25.6982 C   0  0  0  0  0  0  0  0  0  0  0  0
  -26.8104  -26.1050   26.9108 C   0  0  0  0  0  0  0  0  0  0  0  0
  -24.3315  -26.3173   26.7313 C   0  0  0  0  0  0  0  0  0  0  0  0
  -32.6561  -26.2077   19.0673 C   0  0  0  0  0  0  0  0  0  0  0  0
  -32.3882  -24.4839   20.8516 C   0  0  0  0  0  0  0  0  0  0  0  0
  -24.4598  -21.4040   22.4329 C   0  0  0  0  0  0  0  0  0  0  0  0
  -30.9998  -24.3671   18.7292 C   0  0  0  0  0  0  0  0  0  0  0  0
  -30.5494  -26.1759   20.4529 C   0  0  0  0  0  0  0  0  0  1  0  0
  -25.6724  -25.6813   24.6845 C   0  0  1  0  0  0  0  0  0  0  0  0
  -25.7330  -21.8944   24.5251 C   0  0  2  0  0  0  0  0  0  0  0  0
  -25.6608  -26.5431   25.9786 C   0  0  0  0  0  0  0  0  0  0  0  0
  -31.6341  -25.3014   19.7852 C   0  0  0  0  0  0  0  0  0  0  0  0
  -26.2259  -11.7479   20.8825 N   0  0  0  0  0  0  0  0  0  0  0  0
  -26.2652  -12.9136   20.2148 N   0  0  0  0  0  0  0  0  0  0  0  0
  -30.3061  -22.1078   19.1700 N   0  0  0  0  0  0  0  0  0  0  0  0
  -24.8979  -27.0767   22.7887 N   0  0  0  0  0  0  0  0  0  0  0  0
  -29.6696  -14.5771   19.7393 N   0  0  0  0  0  0  0  0  0  0  0  0
  -24.9536  -14.7932   19.6172 N   0  0  0  0  0  0  0  0  0  0  0  0
  -22.1010  -12.2572   22.0313 N   0  0  0  0  0  0  0  0  0  0  0  0
  -29.2325  -16.8889   19.9027 N   0  0  0  0  0  0  0  0  0  0  0  0
  -21.6262  -28.2675   22.0550 N   0  0  0  0  0  0  0  0  0  0  0  0
  -25.5083  -24.2505   24.9179 N   0  0  0  0  0  0  0  0  0  0  0  0
  -25.5511  -20.9922   23.3530 N   0  3  0  0  0  0  0  0  0  0  0  0
  -22.3100  -14.2082   20.8444 O   0  0  0  0  0  0  0  0  0  0  0  0
  -23.3448  -29.0864   23.3960 O   0  0  0  0  0  0  0  0  0  0  0  0
  -28.9510  -23.8444   19.8381 O   0  0  0  0  0  0  0  0  0  0  0  0
  -23.4834  -25.5254   23.7904 O   0  0  0  0  0  0  0  0  0  0  0  0
  -26.6794  -23.5510   23.0428 O   0  0  0  0  0  0  0  0  0  0  0  0
  -31.1602  -16.1153   18.8697 O   0  0  0  0  0  0  0  0  0  0  0  0
  -23.2520   -7.3433   24.3903 O   0  0  0  0  0  0  0  0  0  0  0  0
  -29.8633  -26.9691   19.4852 O   0  0  0  0  0  0  0  0  0  1  0  0
  -18.3295   -5.1638   23.1976 F   0  0  0  0  0  0  0  0  0  0  0  0
  -23.0214   -4.6994   23.6162 F   0  0  0  0  0  0  0  0  0  0  0  0
  1  2  1  0  0  0  0
  1  5  2  0  0  0  0
  2  6  2  0  0  0  0
  3 10  2  0  0  0  0
  3 18  1  0  0  0  0
  4 11  1  0  0  0  0
  4 18  2  0  0  0  0
  5 20  1  0  0  0  0
  6 22  1  0  0  0  0
  7 12  2  0  0  0  0
  7 21  1  0  0  0  0
  8  9  2  0  0  0  0
  8 25  1  0  0  0  0
  9 26  1  0  0  0  0
 10 27  1  0  0  0  0
 11 27  2  0  0  0  0
 12 28  1  0  0  0  0
 13 14  2  0  0  0  0
 13 29  1  0  0  0  0
 14 30  1  0  0  0  0
 15 23  1  0  0  0  0
 15 26  2  0  0  0  0
 16 24  1  0  0  0  0
 16 28  2  0  0  0  0
 17 30  2  0  0  0  0
 17 31  1  0  0  0  0
 18 32  1  0  0  0  0
 19 32  1  0  0  0  0
 19 33  2  0  0  0  0
 19 34  1  0  0  0  0
 20 22  2  0  0  0  0
 20 40  1  0  0  0  0
 21 24  2  0  0  0  0
 21 41  1  0  0  0  0
 22 50  1  0  0  0  0
 23 25  2  0  0  0  0
 23 42  1  0  0  0  0
 24 43  1  0  0  0  0
 25 68  1  0  0  0  0
 26 73  1  0  0  0  0
 27 83  1  0  0  0  0
 28 84  1  0  0  0  0
 29 31  2  0  0  0  0
 29 83  1  0  0  0  0
 30 85  1  0  0  0  0
 31 86  1  0  0  0  0
 32 66  2  0  0  0  0
 33 67  1  0  0  0  0
 33 71  1  0  0  0  0
 34 72  1  0  0  0  0
 34 77  2  0  0  0  0
 35 51  1  0  0  0  0
 35 74  1  0  0  0  0
 35 78  2  0  0  0  0
 36 60  1  0  0  0  0
 36 68  1  0  0  0  0
 36 79  2  0  0  0  0
 37 62  1  0  0  0  0
 37 69  1  0  0  0  0
 37 80  2  0  0  0  0
 38 63  1  0  0  0  0
 38 75  1  0  0  0  0
 38 81  2  0  0  0  0
 39 70  1  0  0  0  0
 39 73  1  0  0  0  0
 39 82  2  0  0  0  0
 40 44  1  0  0  0  0
 41 51  1  0  0  0  0
 42 68  1  0  0  0  0
 43 69  1  0  0  0  0
 44 46  1  0  0  0  0
 45 47  1  0  0  0  0
 45 48  1  0  0  0  0
 46 50  1  0  0  0  0
 47 52  1  0  0  0  0
 48 70  1  0  0  0  0
 49 52  1  0  0  0  0
 49 70  1  0  0  0  0
 50 74  1  0  0  0  0
 51 69  1  0  0  0  0
 52 67  1  0  0  0  0
 53 63  1  0  0  0  0
 54 64  1  0  0  0  0
 55 64  1  0  0  0  0
 56 64  1  0  0  0  0
 57 65  1  0  0  0  0
 58 65  1  0  0  0  0
 59 76  1  0  0  0  0
 60 65  1  0  0  0  0
 61 65  1  0  0  0  0
 61 84  1  0  0  0  0
 62 64  1  0  0  0  0
 62 75  1  0  0  0  0
 63 76  1  0  0  0  0
 66 67  1  0  0  0  0
M  CHG  1  76   1
M  ISO  4  39 100  61 101  73 100  84 101
M  END
> <Batch ID>
0142

> <Smiles>
CNC(C)C(=O)NC(C(=O)N1Cc2cc([101O:1][101CH2:1]C(C)(C)CC(=O)N3Cc4cc([100NH:0][100C:0](=O)N5CCCC(n6nc(-c7ccc(Oc8ccc(F)cc8F)cc7)c(C(N)=O)c6N)C5)ccc43)ccc2CC1C(=O)NC1CCCc2ccccc21)C(C)(C)C

> <Shape>
0.296

> <Color>
0.147

> <Negative vol penalty>
0.000

$$$$

  -OEChem-04052302573D

 83 92  0     1  0  0  0  0  0999 V2000
  -20.3024  -35.0124   22.7682 C   0  0  0  0  0  0  0  0  0  0  0  0
  -21.6141  -34.5659   22.6437 C   0  0  0  0  0  0  0  0  0  0  0  0
  -24.8871  -11.2594   20.5601 C   0  0  0  0  0  0  0  0  0  0  0  0
  -25.2209  -12.0460   22.8200 C   0  0  0  0  0  0  0  0  0  0  0  0
  -19.3002  -34.1268   23.1622 C   0  0  0  0  0  0  0  0  0  0  0  0
  -21.9246  -33.2336   22.9143 C   0  0  0  0  0  0  0  0  0  0  0  0
  -26.1428  -29.7933   20.1079 C   0  0  0  0  0  0  0  0  0  0  0  0
  -29.1164  -21.8687   22.1207 C   0  0  0  0  0  0  0  0  0  0  0  0
  -29.5393  -23.1982   22.1717 C   0  0  0  0  0  0  0  0  0  0  0  0
  -25.1876   -9.9599   20.9680 C   0  0  0  0  0  0  0  0  0  0  0  0
  -25.5213  -10.7464   23.2279 C   0  0  0  0  0  0  0  0  0  0  0  0
  -27.4499  -29.4480   20.4488 C   0  0  0  0  0  0  0  0  0  0  0  0
  -25.5145   -6.3767   21.4868 C   0  0  0  0  0  0  0  0  0  0  0  0
  -24.6903   -5.3473   21.0321 C   0  0  0  0  0  0  0  0  0  0  0  0
  -29.9680  -23.2377   19.7528 C   0  0  0  0  0  0  0  0  0  0  0  0
  -26.6504  -27.3764   21.3914 C   0  0  0  0  0  0  0  0  0  0  0  0
  -22.7940   -6.3920   22.1043 C   0  0  0  0  0  0  0  0  0  0  0  0
  -24.9038  -12.3025   21.4861 C   0  0  0  0  0  0  0  0  0  0  0  0
  -23.3264  -14.2571   21.0396 C   0  0  0  0  0  0  0  0  0  0  0  0
  -19.5969  -32.7808   23.4284 C   0  0  0  0  0  0  0  0  0  0  0  0
  -25.0767  -28.9362   20.4164 C   0  0  0  0  0  0  0  0  0  0  0  0
  -20.9256  -32.3295   23.3135 C   0  0  0  0  0  0  0  0  0  0  0  0
  -29.5506  -21.9349   19.7263 C   0  0  0  0  0  0  0  0  0  0  0  0
  -25.3310  -27.7120   21.0510 C   0  0  0  0  0  0  0  0  0  0  0  0
  -29.1540  -21.3025   20.8782 C   0  0  0  0  0  0  0  0  0  0  0  0
  -29.9614  -23.8760   21.0013 C   0  0  0  0  0  0  0  0  0  0  0  0
  -25.5047   -9.7034   22.3019 C   0  0  0  0  0  0  0  0  0  0  0  0
  -27.7035  -28.2408   21.0933 C   0  0  0  0  0  0  0  0  0  0  0  0
  -24.9784   -7.4137   22.2504 C   0  0  0  0  0  0  0  0  0  0  0  0
  -23.3301   -5.3550   21.3408 C   0  0  0  0  0  0  0  0  0  0  0  0
  -23.6181   -7.4213   22.5591 C   0  0  0  0  0  0  0  0  0  0  0  0
  -24.5940  -13.6453   21.0651 C   0  0  0  0  0  0  0  0  0  0  0  0
  -23.5657  -15.5233   20.5644 C   0  0  0  0  0  0  0  0  0  0  0  0
  -22.0469  -13.7281   21.4123 C   0  0  0  0  0  0  0  0  0  0  0  0
  -22.4750  -29.1551   22.2294 C   0  0  0  0  0  0  0  0  0  0  0  0
  -21.7917  -26.2686   20.9166 C   0  0  0  0  0  0  0  0  0  0  0  0
  -30.8331  -26.0464   20.0669 C   0  0  0  0  0  0  0  0  0  0  0  0
  -22.9355  -23.4221   19.4211 C   0  0  0  0  0  0  0  0  0  0  0  0
  -28.2655  -18.9984   20.7338 C   0  0  0  0  0  0  0  0  0  0  0  0
  -18.4882  -31.8720   23.8971 C   0  0  0  0  0  0  0  0  0  0  0  0
  -23.6756  -29.3111   20.0180 C   0  0  0  0  0  0  0  0  0  0  0  0
  -29.2810  -20.6932   18.9279 C   0  0  0  0  0  0  0  0  0  0  0  0
  -24.2239  -26.7474   21.3862 C   0  0  0  0  0  0  0  0  0  0  0  0
  -18.8356  -30.3885   23.8025 C   0  0  0  0  0  0  0  0  0  0  0  0
  -26.5935  -17.9470   17.7471 C   0  0  0  0  0  0  0  0  0  0  0  0
  -20.2275  -30.1290   24.3700 C   0  0  0  0  0  0  0  0  0  0  0  0
  -25.7362  -16.7932   18.2736 C   0  0  0  0  0  0  0  0  0  0  0  0
  -27.9709  -17.9432   18.4015 C   0  0  0  0  0  0  0  0  0  0  0  0
  -27.1160  -16.8370   20.4080 C   0  0  0  0  0  0  0  0  0  0  0  0
  -21.2976  -30.8860   23.5742 C   0  0  1  0  0  0  0  0  0  0  0  0
  -22.6087  -28.5959   20.8412 C   0  0  1  0  0  0  0  0  0  0  0  0
  -25.6949  -16.7764   19.8145 C   0  0  2  0  0  0  0  0  0  0  0  0
  -22.1435  -21.2276   18.4970 C   0  0  0  0  0  0  0  0  0  0  0  0
  -21.4557  -25.1978   23.7539 C   0  0  0  0  0  0  0  0  0  0  0  0
  -21.6140  -22.8791   22.8229 C   0  0  0  0  0  0  0  0  0  0  0  0
  -19.7482  -24.3784   22.1206 C   0  0  0  0  0  0  0  0  0  0  0  0
  -23.9337  -24.0707   16.7115 C   0  0  0  0  0  0  0  0  0  0  0  0
  -31.1939  -27.4260   20.6061 C   0  0  0  0  0  0  0  0  0  0  0  0
  -30.0234  -28.3974   20.5936 C   0  0  0  0  0  0  0  0  0  1  0  0
  -22.0879  -24.8329   21.2774 C   0  0  1  0  0  0  0  0  0  0  0  0
  -22.4708  -22.6789   18.1817 C   0  0  2  0  0  0  0  0  0  0  0  0
  -21.2473  -24.3409   22.4893 C   0  0  0  0  0  0  0  0  0  0  0  0
  -25.5665  -14.4561   20.6398 N   0  0  0  0  0  0  0  0  0  0  0  0
  -24.9097  -15.5903   20.3425 N   0  0  0  0  0  0  0  0  0  0  0  0
  -28.8618  -20.1227   20.2226 N   0  0  0  0  0  0  0  0  0  0  0  0
  -22.8703  -27.1620   20.9819 N   0  0  0  0  0  0  0  0  0  0  0  0
  -27.8380  -17.9936   19.8597 N   0  0  0  0  0  0  0  0  0  0  0  0
  -22.7555  -16.5748   20.3189 N   0  0  0  0  0  0  0  0  0  0  0  0
  -21.9800  -12.4088   21.8806 N   0  0  0  0  0  0  0  0  0  0  0  0
  -30.3813  -25.2042   21.0954 N   0  0  0  0  0  0  0  0  0  0  0  0
  -21.5798  -30.2029   22.3299 N   0  0  0  0  0  0  0  0  0  0  0  0
  -21.8900  -24.0565   20.0582 N   0  0  0  0  0  0  0  0  0  0  0  0
  -23.5307  -22.7048   17.1344 N   0  3  0  0  0  0  0  0  0  0  0  0
  -20.9919  -14.3998   21.3168 O   0  0  0  0  0  0  0  0  0  0  0  0
  -23.1340  -28.6708   23.1419 O   0  0  0  0  0  0  0  0  0  0  0  0
  -20.6471  -26.5842   20.5820 O   0  0  0  0  0  0  0  0  0  0  0  0
  -30.9425  -25.7606   18.8792 O   0  0  0  0  0  0  0  0  0  0  0  0
  -24.1080  -23.4354   19.7895 O   0  0  0  0  0  0  0  0  0  0  0  0
  -28.0795  -18.8973   21.9557 O   0  0  0  0  0  0  0  0  0  0  0  0
  -25.7978   -8.4353   22.7004 O   0  0  0  0  0  0  0  0  0  0  0  0
  -28.9873  -27.8993   21.4301 O   0  0  0  0  0  0  0  0  0  1  0  0
  -22.5385   -4.3672   20.9028 F   0  0  0  0  0  0  0  0  0  0  0  0
  -23.0972   -8.4155   23.2913 F   0  0  0  0  0  0  0  0  0  0  0  0
  1  2  1  0  0  0  0
  1  5  2  0  0  0  0
  2  6  2  0  0  0  0
  3 10  2  0  0  0  0
  3 18  1  0  0  0  0
  4 11  1  0  0  0  0
  4 18  2  0  0  0  0
  5 20  1  0  0  0  0
  6 22  1  0  0  0  0
  7 12  2  0  0  0  0
  7 21  1  0  0  0  0
  8  9  2  0  0  0  0
  8 25  1  0  0  0  0
  9 26  1  0  0  0  0
 10 27  1  0  0  0  0
 11 27  2  0  0  0  0
 12 28  1  0  0  0  0
 13 14  2  0  0  0  0
 13 29  1  0  0  0  0
 14 30  1  0  0  0  0
 15 23  1  0  0  0  0
 15 26  2  0  0  0  0
 16 24  1  0  0  0  0
 16 28  2  0  0  0  0
 17 30  2  0  0  0  0
 17 31  1  0  0  0  0
 18 32  1  0  0  0  0
 19 32  1  0  0  0  0
 19 33  2  0  0  0  0
 19 34  1  0  0  0  0
 20 22  2  0  0  0  0
 20 40  1  0  0  0  0
 21 24  2  0  0  0  0
 21 41  1  0  0  0  0
 22 50  1  0  0  0  0
 23 25  2  0  0  0  0
 23 42  1  0  0  0  0
 24 43  1  0  0  0  0
 25 65  1  0  0  0  0
 26 70  1  0  0  0  0
 27 80  1  0  0  0  0
 28 81  1  0  0  0  0
 29 31  2  0  0  0  0
 29 80  1  0  0  0  0
 30 82  1  0  0  0  0
 31 83  1  0  0  0  0
 32 63  2  0  0  0  0
 33 64  1  0  0  0  0
 33 68  1  0  0  0  0
 34 69  1  0  0  0  0
 34 74  2  0  0  0  0
 35 51  1  0  0  0  0
 35 71  1  0  0  0  0
 35 75  2  0  0  0  0
 36 60  1  0  0  0  0
 36 66  1  0  0  0  0
 36 76  2  0  0  0  0
 37 58  1  0  0  0  0
 37 70  1  0  0  0  0
 37 77  2  0  0  0  0
 38 61  1  0  0  0  0
 38 72  1  0  0  0  0
 38 78  2  0  0  0  0
 39 65  1  0  0  0  0
 39 67  1  0  0  0  0
 39 79  2  0  0  0  0
 40 44  1  0  0  0  0
 41 51  1  0  0  0  0
 42 65  1  0  0  0  0
 43 66  1  0  0  0  0
 44 46  1  0  0  0  0
 45 47  1  0  0  0  0
 45 48  1  0  0  0  0
 46 50  1  0  0  0  0
 47 52  1  0  0  0  0
 48 67  1  0  0  0  0
 49 52  1  0  0  0  0
 49 67  1  0  0  0  0
 50 71  1  0  0  0  0
 51 66  1  0  0  0  0
 52 64  1  0  0  0  0
 53 61  1  0  0  0  0
 54 62  1  0  0  0  0
 55 62  1  0  0  0  0
 56 62  1  0  0  0  0
 57 73  1  0  0  0  0
 58 59  1  0  0  0  0
 59 81  1  0  0  0  0
 60 62  1  0  0  0  0
 60 72  1  0  0  0  0
 61 73  1  0  0  0  0
 63 64  1  0  0  0  0
M  CHG  1  73   1
M  ISO  4  39 100  59 101  65 100  81 101
M  END
> <Batch ID>
0142

> <Smiles>
CNC(C)C(=O)NC(C(=O)N1Cc2cc([101O:1][101CH2:1]CC(=O)Nc3ccc4c(c3)C[100N:0]4[100C:0](=O)N3CCCC(n4nc(-c5ccc(Oc6ccc(F)cc6F)cc5)c(C(N)=O)c4N)C3)ccc2CC1C(=O)NC1CCCc2ccccc21)C(C)(C)C

> <Shape>
0.251

> <Color>
0.077

> <Negative vol penalty>
0.000

$$$$

  -OEChem-04052302573D

 85 94  0     1  0  0  0  0  0999 V2000
  -25.9805  -18.1130   28.0027 C   0  0  0  0  0  0  0  0  0  0  0  0
  -26.9661  -19.0182   27.6227 C   0  0  0  0  0  0  0  0  0  0  0  0
  -29.3511  -20.8135   15.3471 C   0  0  0  0  0  0  0  0  0  0  0  0
  -27.2816  -11.1103   20.2123 C   0  0  0  0  0  0  0  0  0  0  0  0
  -26.2801  -12.7100   18.7039 C   0  0  0  0  0  0  0  0  0  0  0  0
  -24.8991  -17.8662   27.1579 C   0  0  0  0  0  0  0  0  0  0  0  0
  -26.8715  -19.6765   26.3970 C   0  0  0  0  0  0  0  0  0  0  0  0
  -28.4700  -25.9237   23.2771 C   0  0  0  0  0  0  0  0  0  0  0  0
  -30.1733  -21.9088   15.6112 C   0  0  0  0  0  0  0  0  0  0  0  0
  -28.8456  -20.0509   16.4000 C   0  0  0  0  0  0  0  0  0  0  0  0
  -26.1834  -10.2664   20.0465 C   0  0  0  0  0  0  0  0  0  0  0  0
  -25.1820  -11.8660   18.5380 C   0  0  0  0  0  0  0  0  0  0  0  0
  -29.1278  -26.4313   22.1576 C   0  0  0  0  0  0  0  0  0  0  0  0
  -23.4765   -7.8515   20.2999 C   0  0  0  0  0  0  0  0  0  0  0  0
  -22.9288   -7.2655   21.4410 C   0  0  0  0  0  0  0  0  0  0  0  0
  -27.1740  -25.9852   20.8148 C   0  0  0  0  0  0  0  0  0  0  0  0
  -29.9847  -21.4789   17.9812 C   0  0  0  0  0  0  0  0  0  0  0  0
  -22.4652   -9.4579   22.3443 C   0  0  0  0  0  0  0  0  0  0  0  0
  -27.3299  -12.3322   19.5411 C   0  0  0  0  0  0  0  0  0  0  0  0
  -29.8094  -12.9184   19.4139 C   0  0  0  0  0  0  0  0  0  0  0  0
  -24.7862  -18.5290   25.9256 C   0  0  0  0  0  0  0  0  0  0  0  0
  -27.1609  -25.4321   23.1715 C   0  0  0  0  0  0  0  0  0  0  0  0
  -25.7883  -19.4374   25.5343 C   0  0  0  0  0  0  0  0  0  0  0  0
  -26.5009  -25.4742   21.9351 C   0  0  0  0  0  0  0  0  0  0  0  0
  -30.4902  -22.2415   16.9282 C   0  0  0  0  0  0  0  0  0  0  0  0
  -29.1624  -20.3836   17.7171 C   0  0  0  0  0  0  0  0  0  0  0  0
  -25.1337  -10.6443   19.2093 C   0  0  0  0  0  0  0  0  0  0  0  0
  -28.4808  -26.4595   20.9256 C   0  0  0  0  0  0  0  0  0  0  0  0
  -23.5187   -9.2407   20.1809 C   0  0  0  0  0  0  0  0  0  0  0  0
  -22.4231   -8.0687   22.4632 C   0  0  0  0  0  0  0  0  0  0  0  0
  -23.0130  -10.0438   21.2031 C   0  0  0  0  0  0  0  0  0  0  0  0
  -28.4637  -13.2046   19.7124 C   0  0  0  0  0  0  0  0  0  0  0  0
  -30.4874  -14.0637   19.7530 C   0  0  0  0  0  0  0  0  0  0  0  0
  -30.3941  -11.7241   18.8778 C   0  0  0  0  0  0  0  0  0  0  0  0
  -25.7823  -22.6054   23.6326 C   0  0  0  0  0  0  0  0  0  0  0  0
  -23.0580  -24.2838   23.1003 C   0  0  0  0  0  0  0  0  0  0  0  0
  -21.5647  -27.0166   21.7044 C   0  0  0  0  0  0  0  0  0  0  0  0
  -28.8664  -19.8013   20.1501 C   0  0  0  0  0  0  0  0  0  0  0  0
  -23.6236  -18.1942   25.0251 C   0  0  0  0  0  0  0  0  0  0  0  0
  -26.4556  -24.9125   24.3942 C   0  0  0  0  0  0  0  0  0  0  0  0
  -25.0883  -24.9773   21.7729 C   0  0  0  0  0  0  0  0  0  0  0  0
  -23.4041  -19.2128   23.9095 C   0  0  0  0  0  0  0  0  0  0  0  0
  -30.2674  -17.8002   22.7405 C   0  0  0  0  0  0  0  0  0  0  0  0
  -24.7269  -19.5547   23.2310 C   0  0  0  0  0  0  0  0  0  0  0  0
  -30.0918  -16.3688   22.2280 C   0  0  0  0  0  0  0  0  0  0  0  0
  -29.0833  -18.6877   22.3610 C   0  0  0  0  0  0  0  0  0  0  0  0
  -28.5680  -17.2609   20.4199 C   0  0  0  0  0  0  0  0  0  0  0  0
  -32.1926  -23.3783   18.3849 C   0  0  0  0  0  0  0  0  0  0  0  0
  -25.7082  -20.1896   24.2237 C   0  0  1  0  0  0  0  0  0  0  0  0
  -25.3073  -23.9641   24.0637 C   0  0  1  0  0  0  0  0  0  0  0  0
  -29.7658  -16.3456   20.7218 C   0  0  2  0  0  0  0  0  0  0  0  0
  -31.0128  -24.2815   18.2905 C   0  0  1  0  0  0  0  0  0  0  0  0
  -19.3194  -28.0963   21.4040 C   0  0  0  0  0  0  0  0  0  0  0  0
  -22.3593  -22.2286   20.9560 C   0  0  0  0  0  0  0  0  0  0  0  0
  -20.6574  -23.8362   20.0686 C   0  0  0  0  0  0  0  0  0  0  0  0
  -20.4347  -22.9399   22.3858 C   0  0  0  0  0  0  0  0  0  0  0  0
  -30.3259  -27.9830   17.3909 C   0  0  0  0  0  0  0  0  0  0  0  0
  -29.4693  -25.9635   16.1995 C   0  0  0  0  0  0  0  0  0  0  0  0
  -22.4099  -29.4488   23.1635 C   0  0  0  0  0  0  0  0  0  0  0  0
  -31.1949  -25.7403   18.0620 C   0  0  0  0  0  0  0  0  0  0  0  0
  -28.7601  -26.4044   18.5645 C   0  0  0  0  0  0  0  0  0  1  0  0
  -22.2403  -24.6361   21.8812 C   0  0  1  0  0  0  0  0  0  0  0  0
  -20.5706  -28.0176   22.2649 C   0  0  2  0  0  0  0  0  0  0  0  0
  -21.4502  -23.4179   21.3252 C   0  0  0  0  0  0  0  0  0  0  0  0
  -29.9342  -26.4990   17.5659 C   0  0  0  0  0  0  0  0  0  0  0  0
  -28.2950  -14.4352   20.2037 N   0  0  0  0  0  0  0  0  0  0  0  0
  -29.5435  -14.9323   20.2164 N   0  0  0  0  0  0  0  0  0  0  0  0
  -31.3252  -23.3549   17.1963 N   0  0  2  0  0  0  0  0  0  0  0  0
  -24.4434  -24.4729   22.9964 N   0  0  0  0  0  0  0  0  0  0  0  0
  -28.8362  -18.6187   20.9191 N   0  0  0  0  0  0  0  0  0  0  0  0
  -31.7930  -14.4024   19.6972 N   0  0  0  0  0  0  0  0  0  0  0  0
  -30.5055  -11.6012   17.4861 N   0  0  0  0  0  0  0  0  0  0  0  0
  -28.6496  -19.6079   18.7862 N   0  0  0  0  0  0  0  0  0  0  0  0
  -25.3659  -21.5765   24.4557 N   0  0  0  0  0  0  0  0  0  0  0  0
  -21.4024  -25.7672   22.2646 N   0  0  0  0  0  0  0  0  0  0  0  0
  -21.1827  -29.3748   22.3295 N   0  3  0  0  0  0  0  0  0  0  0  0
  -30.7907  -10.7864   19.6106 O   0  0  0  0  0  0  0  0  0  0  0  0
  -26.4741  -22.4982   22.6269 O   0  0  0  0  0  0  0  0  0  0  0  0
  -22.4878  -23.8633   24.1101 O   0  0  0  0  0  0  0  0  0  0  0  0
  -22.3991  -27.3124   20.8519 O   0  0  0  0  0  0  0  0  0  0  0  0
  -29.0968  -20.9010   20.6596 O   0  0  0  0  0  0  0  0  0  0  0  0
  -24.0621   -9.8209   19.0470 O   0  0  0  0  0  0  0  0  0  0  0  0
  -29.1208  -26.9538   19.8311 O   0  0  0  0  0  0  0  0  0  1  0  0
  -21.8958   -7.5058   23.5583 F   0  0  0  0  0  0  0  0  0  0  0  0
  -23.0497  -11.3790   21.0940 F   0  0  0  0  0  0  0  0  0  0  0  0
  1  2  1  0  0  0  0
  1  6  2  0  0  0  0
  2  7  2  0  0  0  0
  3  9  2  0  0  0  0
  3 10  1  0  0  0  0
  4 11  2  0  0  0  0
  4 19  1  0  0  0  0
  5 12  1  0  0  0  0
  5 19  2  0  0  0  0
  6 21  1  0  0  0  0
  7 23  1  0  0  0  0
  8 13  2  0  0  0  0
  8 22  1  0  0  0  0
  9 25  1  0  0  0  0
 10 26  2  0  0  0  0
 11 27  1  0  0  0  0
 12 27  2  0  0  0  0
 13 28  1  0  0  0  0
 14 15  2  0  0  0  0
 14 29  1  0  0  0  0
 15 30  1  0  0  0  0
 16 24  1  0  0  0  0
 16 28  2  0  0  0  0
 17 25  2  0  0  0  0
 17 26  1  0  0  0  0
 18 30  2  0  0  0  0
 18 31  1  0  0  0  0
 19 32  1  0  0  0  0
 20 32  1  0  0  0  0
 20 33  2  0  0  0  0
 20 34  1  0  0  0  0
 21 23  2  0  0  0  0
 21 39  1  0  0  0  0
 22 24  2  0  0  0  0
 22 40  1  0  0  0  0
 23 49  1  0  0  0  0
 24 41  1  0  0  0  0
 25 68  1  0  0  0  0
 26 73  1  0  0  0  0
 27 82  1  0  0  0  0
 28 83  1  0  0  0  0
 29 31  2  0  0  0  0
 29 82  1  0  0  0  0
 30 84  1  0  0  0  0
 31 85  1  0  0  0  0
 32 66  2  0  0  0  0
 33 67  1  0  0  0  0
 33 71  1  0  0  0  0
 34 72  1  0  0  0  0
 34 77  2  0  0  0  0
 35 50  1  0  0  0  0
 35 74  1  0  0  0  0
 35 78  2  0  0  0  0
 36 62  1  0  0  0  0
 36 69  1  0  0  0  0
 36 79  2  0  0  0  0
 37 63  1  0  0  0  0
 37 75  1  0  0  0  0
 37 80  2  0  0  0  0
 38 70  1  0  0  0  0
 38 73  1  0  0  0  0
 38 81  2  0  0  0  0
 39 42  1  0  0  0  0
 40 50  1  0  0  0  0
 41 69  1  0  0  0  0
 42 44  1  0  0  0  0
 43 45  1  0  0  0  0
 43 46  1  0  0  0  0
 44 49  1  0  0  0  0
 45 51  1  0  0  0  0
 46 70  1  0  0  0  0
 47 51  1  0  0  0  0
 47 70  1  0  0  0  0
 48 52  1  0  0  0  0
 48 68  1  0  0  0  0
 49 74  1  0  0  0  0
 50 69  1  0  0  0  0
 51 67  1  0  0  0  0
 52 60  1  0  0  0  0
 52 68  1  0  0  0  0
 53 63  1  0  0  0  0
 54 64  1  0  0  0  0
 55 64  1  0  0  0  0
 56 64  1  0  0  0  0
 57 65  1  0  0  0  0
 58 65  1  0  0  0  0
 59 76  1  0  0  0  0
 60 65  1  0  0  0  0
 61 65  1  0  0  0  0
 61 83  1  0  0  0  0
 62 64  1  0  0  0  0
 62 75  1  0  0  0  0
 63 76  1  0  0  0  0
 66 67  1  0  0  0  0
M  CHG  1  76   1
M  ISO  4  38 100  61 101  73 100  83 101
M  END
> <Batch ID>
0142

> <Smiles>
CNC(C)C(=O)NC(C(=O)N1Cc2cc([101O:1][101CH2:1]C(C)(C)CC3CN3c3cccc([100NH:0][100C:0](=O)N4CCCC(n5nc(-c6ccc(Oc7ccc(F)cc7F)cc6)c(C(N)=O)c5N)C4)c3)ccc2CC1C(=O)NC1CCCc2ccccc21)C(C)(C)C

> <Shape>
0.222

> <Color>
0.072

> <Negative vol penalty>
0.000

$$$$

  -OEChem-04052302573D

 84 92  0     1  0  0  0  0  0999 V2000
  -30.3279  -26.4972   17.4538 C   0  0  0  0  0  0  0  0  0  0  0  0
  -29.1891  -27.1891   17.0571 C   0  0  0  0  0  0  0  0  0  0  0  0
  -27.7065  -16.9303   18.9495 C   0  0  0  0  0  0  0  0  0  0  0  0
  -27.8988  -17.0485   21.3550 C   0  0  0  0  0  0  0  0  0  0  0  0
  -30.2943  -25.1081   17.5567 C   0  0  0  0  0  0  0  0  0  0  0  0
  -28.0131  -26.4934   16.7748 C   0  0  0  0  0  0  0  0  0  0  0  0
  -22.1763  -23.0043   20.3822 C   0  0  0  0  0  0  0  0  0  0  0  0
  -28.4221  -18.1220   18.8338 C   0  0  0  0  0  0  0  0  0  0  0  0
  -28.6144  -18.2402   21.2392 C   0  0  0  0  0  0  0  0  0  0  0  0
  -22.1851  -22.3120   21.5924 C   0  0  0  0  0  0  0  0  0  0  0  0
  -30.1807  -21.5006   21.5944 C   0  0  0  0  0  0  0  0  0  0  0  0
  -29.8377  -22.5484   22.4488 C   0  0  0  0  0  0  0  0  0  0  0  0
  -23.5765  -24.0298   22.5580 C   0  0  0  0  0  0  0  0  0  0  0  0
  -27.5987  -22.5558   21.5411 C   0  0  0  0  0  0  0  0  0  0  0  0
  -27.4448  -16.3935   20.2101 C   0  0  0  0  0  0  0  0  0  0  0  0
  -27.2277  -13.8558   20.3530 C   0  0  0  0  0  0  0  0  0  0  0  0
  -29.1204  -24.3948   17.2632 C   0  0  0  0  0  0  0  0  0  0  0  0
  -22.8777  -24.2110   20.2475 C   0  0  0  0  0  0  0  0  0  0  0  0
  -27.9523  -25.0933   16.8959 C   0  0  0  0  0  0  0  0  0  0  0  0
  -23.5729  -24.7367   21.3459 C   0  0  0  0  0  0  0  0  0  0  0  0
  -28.8760  -18.7770   19.9786 C   0  0  0  0  0  0  0  0  0  0  0  0
  -22.8877  -22.8232   22.6797 C   0  0  0  0  0  0  0  0  0  0  0  0
  -29.2327  -20.9805   20.7132 C   0  0  0  0  0  0  0  0  0  0  0  0
  -28.5467  -23.0760   22.4222 C   0  0  0  0  0  0  0  0  0  0  0  0
  -27.9417  -21.5080   20.6866 C   0  0  0  0  0  0  0  0  0  0  0  0
  -26.7052  -15.1628   20.3304 C   0  0  0  0  0  0  0  0  0  0  0  0
  -26.1248  -13.0474   20.4817 C   0  0  0  0  0  0  0  0  0  0  0  0
  -21.4841  -15.9069   26.2883 C   0  0  0  0  0  0  0  0  0  0  0  0
  -21.1069  -14.6259   26.3736 C   0  0  0  0  0  0  0  0  0  0  0  0
  -21.2526  -15.8701   23.8859 C   0  0  0  0  0  0  0  0  0  0  0  0
  -21.4946  -16.5722   25.0056 C   0  0  0  0  0  0  0  0  0  0  0  0
  -28.5883  -13.4122   20.2656 C   0  0  0  0  0  0  0  0  0  0  0  0
  -25.2938  -25.2115   18.4405 C   0  0  0  0  0  0  0  0  0  0  0  0
  -24.6135  -28.0769   19.8003 C   0  0  0  0  0  0  0  0  0  0  0  0
  -23.2490  -29.7910   22.4170 C   0  0  0  0  0  0  0  0  0  0  0  0
  -20.7340  -13.7596   22.7130 C   0  0  0  0  0  0  0  0  0  0  0  0
  -29.1375  -22.8926   17.3987 C   0  0  0  0  0  0  0  0  0  0  0  0
  -22.8362  -24.9592   18.9433 C   0  0  0  0  0  0  0  0  0  0  0  0
  -24.3252  -26.0386   21.2590 C   0  0  0  0  0  0  0  0  0  0  0  0
  -20.6960  -13.8328   25.1718 C   0  0  0  0  0  0  0  0  0  0  0  0
  -27.9899  -22.2156   16.6564 C   0  0  0  0  0  0  0  0  0  0  0  0
  -21.4641  -12.8633   19.4523 C   0  0  0  0  0  0  0  0  0  0  0  0
  -26.6728  -22.8904   17.0092 C   0  0  0  0  0  0  0  0  0  0  0  0
  -22.9415  -13.2203   19.2954 C   0  0  0  0  0  0  0  0  0  0  0  0
  -20.7256  -13.9358   20.2447 C   0  0  0  0  0  0  0  0  0  0  0  0
  -22.7919  -14.5567   21.4556 C   0  0  0  0  0  0  0  0  0  0  0  0
  -26.6705  -24.3553   16.5541 C   0  0  1  0  0  0  0  0  0  0  0  0
  -24.0091  -25.9188   18.7674 C   0  0  1  0  0  0  0  0  0  0  0  0
  -23.5891  -13.5009   20.6628 C   0  0  2  0  0  0  0  0  0  0  0  0
  -22.8775  -32.1236   23.2644 C   0  0  0  0  0  0  0  0  0  0  0  0
  -27.5485  -28.2450   20.6170 C   0  0  0  0  0  0  0  0  0  0  0  0
  -26.9243  -30.0568   22.2283 C   0  0  0  0  0  0  0  0  0  0  0  0
  -26.5737  -30.3911   19.7812 C   0  0  0  0  0  0  0  0  0  0  0  0
  -23.9330  -17.8506   23.6528 C   0  0  0  0  0  0  0  0  0  0  0  0
  -24.0311  -17.7460   26.1380 C   0  0  0  0  0  0  0  0  0  0  0  0
  -24.9817  -20.4544   24.9778 C   0  0  0  0  0  0  0  0  0  0  0  0
  -22.8948  -20.6334   26.3072 C   0  0  0  0  0  0  0  0  0  0  0  0
  -20.3082  -29.4607   22.3792 C   0  0  0  0  0  0  0  0  0  0  0  0
  -21.7936  -18.0394   24.9985 C   0  0  0  0  0  0  0  0  0  0  0  0
  -22.7848  -20.7260   23.7964 C   0  0  0  0  0  0  0  0  0  1  0  0
  -25.0644  -28.8039   21.0441 C   0  0  1  0  0  0  0  0  0  0  0  0
  -22.2956  -30.9715   22.4602 C   0  0  2  0  0  0  0  0  0  0  0  0
  -26.5152  -29.3487   20.9191 C   0  0  0  0  0  0  0  0  0  0  0  0
  -23.3096  -18.4340   24.9484 C   0  0  0  0  0  0  0  0  0  0  0  0
  -23.4872  -20.0361   25.0040 C   0  0  0  0  0  0  0  0  0  0  0  0
  -25.3740  -15.1879   20.4361 N   0  0  0  0  0  0  0  0  0  0  0  0
  -25.0506  -13.8866   20.5263 N   0  0  0  0  0  0  0  0  0  0  0  0
  -20.9739  -14.5059   23.8875 N   0  0  0  0  0  0  0  0  0  0  0  0
  -24.2597  -26.7297   19.9607 N   0  0  0  0  0  0  0  0  0  0  0  0
  -21.3710  -14.1802   21.5347 N   0  0  0  0  0  0  0  0  0  0  0  0
  -25.9788  -11.7076   20.5599 N   0  0  0  0  0  0  0  0  0  0  0  0
  -29.5982  -14.3754   20.1368 N   0  0  0  0  0  0  0  0  0  0  0  0
  -25.4988  -25.0137   17.0883 N   0  0  0  0  0  0  0  0  0  0  0  0
  -24.0608  -29.8307   21.3031 N   0  0  0  0  0  0  0  0  0  0  0  0
  -21.0022  -30.5702   23.0824 N   0  3  0  0  0  0  0  0  0  0  0  0
  -28.8979  -12.1967   20.2841 O   0  0  0  0  0  0  0  0  0  0  0  0
  -26.0442  -24.8718   19.3477 O   0  0  0  0  0  0  0  0  0  0  0  0
  -24.5697  -28.6839   18.7274 O   0  0  0  0  0  0  0  0  0  0  0  0
  -23.2738  -28.9226   23.2863 O   0  0  0  0  0  0  0  0  0  0  0  0
  -19.9901  -12.7697   22.7246 O   0  0  0  0  0  0  0  0  0  0  0  0
  -29.5745  -19.9397   19.8660 O   0  0  0  0  0  0  0  0  0  0  0  0
  -22.8985  -22.1453   23.8686 O   0  0  0  0  0  0  0  0  0  1  0  0
  -28.2171  -24.0811   23.2439 F   0  0  0  0  0  0  0  0  0  0  0  0
  -27.0264  -21.0117   19.8430 F   0  0  0  0  0  0  0  0  0  0  0  0
  1  2  1  0  0  0  0
  1  5  2  0  0  0  0
  2  6  2  0  0  0  0
  3  8  2  0  0  0  0
  3 15  1  0  0  0  0
  4  9  1  0  0  0  0
  4 15  2  0  0  0  0
  5 17  1  0  0  0  0
  6 19  1  0  0  0  0
  7 10  2  0  0  0  0
  7 18  1  0  0  0  0
  8 21  1  0  0  0  0
  9 21  2  0  0  0  0
 10 22  1  0  0  0  0
 11 12  2  0  0  0  0
 11 23  1  0  0  0  0
 12 24  1  0  0  0  0
 13 20  1  0  0  0  0
 13 22  2  0  0  0  0
 14 24  2  0  0  0  0
 14 25  1  0  0  0  0
 15 26  1  0  0  0  0
 16 26  1  0  0  0  0
 16 27  2  0  0  0  0
 16 32  1  0  0  0  0
 17 19  2  0  0  0  0
 17 37  1  0  0  0  0
 18 20  2  0  0  0  0
 18 38  1  0  0  0  0
 19 47  1  0  0  0  0
 20 39  1  0  0  0  0
 21 81  1  0  0  0  0
 22 82  1  0  0  0  0
 23 25  2  0  0  0  0
 23 81  1  0  0  0  0
 24 83  1  0  0  0  0
 25 84  1  0  0  0  0
 26 66  2  0  0  0  0
 27 67  1  0  0  0  0
 27 71  1  0  0  0  0
 28 29  2  0  0  0  0
 28 31  1  0  0  0  0
 29 40  1  0  0  0  0
 30 31  2  0  0  0  0
 30 68  1  0  0  0  0
 31 59  1  0  0  0  0
 32 72  1  0  0  0  0
 32 76  2  0  0  0  0
 33 48  1  0  0  0  0
 33 73  1  0  0  0  0
 33 77  2  0  0  0  0
 34 61  1  0  0  0  0
 34 69  1  0  0  0  0
 34 78  2  0  0  0  0
 35 62  1  0  0  0  0
 35 74  1  0  0  0  0
 35 79  2  0  0  0  0
 36 68  1  0  0  0  0
 36 70  1  0  0  0  0
 36 80  2  0  0  0  0
 37 41  1  0  0  0  0
 38 48  1  0  0  0  0
 39 69  1  0  0  0  0
 40 68  1  0  0  0  0
 41 43  1  0  0  0  0
 42 44  1  0  0  0  0
 42 45  1  0  0  0  0
 43 47  1  0  0  0  0
 44 49  1  0  0  0  0
 45 70  1  0  0  0  0
 46 49  1  0  0  0  0
 46 70  1  0  0  0  0
 47 73  1  0  0  0  0
 48 69  1  0  0  0  0
 49 67  1  0  0  0  0
 50 62  1  0  0  0  0
 51 63  1  0  0  0  0
 52 63  1  0  0  0  0
 53 63  1  0  0  0  0
 54 64  1  0  0  0  0
 55 64  1  0  0  0  0
 56 65  1  0  0  0  0
 57 65  1  0  0  0  0
 58 75  1  0  0  0  0
 59 64  1  0  0  0  0
 60 65  1  0  0  0  0
 60 82  1  0  0  0  0
 61 63  1  0  0  0  0
 61 74  1  0  0  0  0
 62 75  1  0  0  0  0
 64 65  1  0  0  0  0
 66 67  1  0  0  0  0
M  CHG  1  75   1
M  ISO  4  36 100  60 101  68 100  82 101
M  END
> <Batch ID>
0142

> <Smiles>
CNC(C)C(=O)NC(C(=O)N1Cc2cc([101O:1][101CH2:1]C(C)(C)C(C)(C)CC3=C[100N:0]([100C:0](=O)N4CCCC(n5nc(-c6ccc(Oc7ccc(F)cc7F)cc6)c(C(N)=O)c5N)C4)CC=C3)ccc2CC1C(=O)NC1CCCc2ccccc21)C(C)(C)C

> <Shape>
0.217

> <Color>
0.076

> <Negative vol penalty>
0.000

$$$$

  -OEChem-04052302573D

 91100  0     1  0  0  0  0  0999 V2000
  -37.8697  -27.5730   13.7846 C   0  0  0  0  0  0  0  0  0  0  0  0
  -37.0381  -26.6465   14.4054 C   0  0  0  0  0  0  0  0  0  0  0  0
  -23.0796   -9.8617   19.9416 C   0  0  0  0  0  0  0  0  0  0  0  0
  -23.8366   -9.8742   22.2359 C   0  0  0  0  0  0  0  0  0  0  0  0
  -38.3935  -28.6380   14.5161 C   0  0  0  0  0  0  0  0  0  0  0  0
  -36.7308  -26.7839   15.7586 C   0  0  0  0  0  0  0  0  0  0  0  0
  -31.4407  -25.3589   18.4954 C   0  0  0  0  0  0  0  0  0  0  0  0
  -22.3375   -8.7077   20.1927 C   0  0  0  0  0  0  0  0  0  0  0  0
  -23.0944   -8.7201   22.4870 C   0  0  0  0  0  0  0  0  0  0  0  0
  -31.0324  -24.2426   19.2240 C   0  0  0  0  0  0  0  0  0  0  0  0
  -19.8670   -7.9175   23.0869 C   0  0  0  0  0  0  0  0  0  0  0  0
  -19.1086   -7.8783   24.2569 C   0  0  0  0  0  0  0  0  0  0  0  0
  -31.8339  -18.3746   24.2011 C   0  0  0  0  0  0  0  0  0  0  0  0
  -29.8645  -17.4694   23.1340 C   0  0  0  0  0  0  0  0  0  0  0  0
  -31.5747  -25.3905   21.2752 C   0  0  0  0  0  0  0  0  0  0  0  0
  -32.0510  -16.6230   22.5513 C   0  0  0  0  0  0  0  0  0  0  0  0
  -20.3526   -5.9445   24.9984 C   0  0  0  0  0  0  0  0  0  0  0  0
  -23.8292  -10.4449   20.9632 C   0  0  0  0  0  0  0  0  0  0  0  0
  -30.4486  -18.3551   24.0396 C   0  0  0  0  0  0  0  0  0  0  0  0
  -24.1666  -12.9705   20.8391 C   0  0  0  0  0  0  0  0  0  0  0  0
  -38.0846  -28.7940   15.8766 C   0  0  0  0  0  0  0  0  0  0  0  0
  -31.9300  -26.4973   19.1519 C   0  0  0  0  0  0  0  0  0  0  0  0
  -37.2520  -27.8513   16.5094 C   0  0  0  0  0  0  0  0  0  0  0  0
  -31.9861  -26.5209   20.5527 C   0  0  0  0  0  0  0  0  0  0  0  0
  -32.6352  -17.5087   23.4569 C   0  0  0  0  0  0  0  0  0  0  0  0
  -30.6657  -16.6034   22.3898 C   0  0  0  0  0  0  0  0  0  0  0  0
  -22.3449   -8.1369   21.4654 C   0  0  0  0  0  0  0  0  0  0  0  0
  -31.1021  -24.2571   20.6140 C   0  0  0  0  0  0  0  0  0  0  0  0
  -20.8681   -6.9702   22.8726 C   0  0  0  0  0  0  0  0  0  0  0  0
  -19.3514   -6.8918   25.2127 C   0  0  0  0  0  0  0  0  0  0  0  0
  -21.1109   -5.9837   23.8283 C   0  0  0  0  0  0  0  0  0  0  0  0
  -24.5964  -11.6367   20.7043 C   0  0  0  0  0  0  0  0  0  0  0  0
  -25.2579  -13.7213   20.4758 C   0  0  0  0  0  0  0  0  0  0  0  0
  -29.2125  -22.3245   22.9754 C   0  0  0  0  0  0  0  0  0  0  0  0
  -29.6835  -23.3234   22.2222 C   0  0  0  0  0  0  0  0  0  1  0  0
  -29.6024  -19.2699   24.8264 C   0  0  0  0  0  0  0  0  0  0  0  0
  -22.8947  -13.4847   21.2555 C   0  0  0  0  0  0  0  0  0  0  0  0
  -34.6989  -28.0583   19.1724 C   0  0  0  0  0  0  0  0  0  0  0  0
  -33.0512  -30.1662   21.0066 C   0  0  0  0  0  0  0  0  0  0  0  0
  -30.4333  -30.7398   23.1195 C   0  0  0  0  0  0  0  0  0  0  0  0
  -30.7219  -14.7771   20.6555 C   0  0  0  0  0  0  0  0  0  0  0  0
  -38.7127  -29.9348   16.6374 C   0  0  0  0  0  0  0  0  0  0  0  0
  -32.3414  -27.7033   18.3526 C   0  0  0  0  0  0  0  0  0  0  0  0
  -32.4847  -27.7260   21.3062 C   0  0  0  0  0  0  0  0  0  0  0  0
  -28.0952  -22.4448   23.9698 C   0  0  0  0  0  0  0  0  0  0  0  0
  -29.8001  -20.9478   23.0394 C   0  0  0  0  0  0  0  0  0  0  0  0
  -38.0369  -30.2191   17.9763 C   0  0  0  0  0  0  0  0  0  0  0  0
  -29.6149  -12.3570   18.2902 C   0  0  0  0  0  0  0  0  0  0  0  0
  -37.8059  -28.9214   18.7440 C   0  0  0  0  0  0  0  0  0  0  0  0
  -28.1752  -12.0636   18.7185 C   0  0  0  0  0  0  0  0  0  0  0  0
  -28.4853  -21.4500   25.0561 C   0  0  0  0  0  0  0  0  0  0  0  0
  -30.5281  -12.5896   19.4926 C   0  0  0  0  0  0  0  0  0  0  0  0
  -28.6181  -13.3131   20.8701 C   0  0  0  0  0  0  0  0  0  0  0  0
  -36.8755  -27.9803   17.9694 C   0  0  1  0  0  0  0  0  0  0  0  0
  -33.3057  -28.6168   19.1029 C   0  0  1  0  0  0  0  0  0  0  0  0
  -27.6470  -13.1360   19.6914 C   0  0  2  0  0  0  0  0  0  0  0  0
  -37.1259  -17.0599   22.8585 C   0  0  0  0  0  0  0  0  0  0  0  0
  -29.3664  -32.5533   24.4870 C   0  0  0  0  0  0  0  0  0  0  0  0
  -35.2724  -29.9044   23.0822 C   0  0  0  0  0  0  0  0  0  0  0  0
  -33.7320  -30.9443   24.7597 C   0  0  0  0  0  0  0  0  0  0  0  0
  -34.4312  -32.2350   22.7428 C   0  0  0  0  0  0  0  0  0  0  0  0
  -34.7365  -18.1507   21.2254 C   0  0  0  0  0  0  0  0  0  0  0  0
  -34.5065  -19.9595   22.9351 C   0  0  0  0  0  0  0  0  0  0  0  0
  -27.8944  -30.5433   21.6114 C   0  0  0  0  0  0  0  0  0  0  0  0
  -34.1165  -17.5290   23.6303 C   0  0  0  0  0  0  0  0  0  0  0  0
  -36.4587  -18.4143   23.0689 C   0  0  0  0  0  0  0  0  0  0  0  0
  -32.7956  -30.3242   22.4860 C   0  0  1  0  0  0  0  0  0  0  0  0
  -29.3822  -31.8347   23.1469 C   0  0  2  0  0  0  0  0  0  0  0  0
  -34.0502  -30.8284   23.2537 C   0  0  0  0  0  0  0  0  0  0  0  0
  -34.9428  -18.4950   22.7127 C   0  0  0  0  0  0  0  0  0  0  0  0
  -25.8620  -11.5424   20.2878 N   0  0  0  0  0  0  0  0  0  0  0  0
  -26.2368  -12.8265   20.1576 N   0  0  0  0  0  0  0  0  0  0  0  0
  -29.3153  -20.4654   24.3432 N   0  0  0  0  0  0  0  0  0  0  0  0
  -32.8813  -28.8780   20.4798 N   0  0  0  0  0  0  0  0  0  0  0  0
  -29.9661  -13.6210   20.3674 N   0  0  0  0  0  0  0  0  0  0  0  0
  -25.4660  -15.0530   20.4007 N   0  0  0  0  0  0  0  0  0  0  0  0
  -21.8840  -12.5743   21.5931 N   0  0  0  0  0  0  0  0  0  0  0  0
  -30.0719  -15.7024   21.4715 N   0  0  0  0  0  0  0  0  0  0  0  0
  -35.4994  -28.4083   18.1018 N   0  0  0  0  0  0  0  0  0  0  0  0
  -31.6307  -31.1939   22.6084 N   0  0  0  0  0  0  0  0  0  0  0  0
  -29.1397  -18.8769   26.0095 N   0  3  0  0  0  0  0  0  0  0  0  0
  -28.0286  -31.2595   22.9061 N   0  3  0  0  0  0  0  0  0  0  0  0
  -22.6561  -14.7150   21.3103 O   0  0  0  0  0  0  0  0  0  0  0  0
  -35.0240  -27.3626   20.1274 O   0  0  0  0  0  0  0  0  0  0  0  0
  -33.3824  -31.1509   20.3416 O   0  0  0  0  0  0  0  0  0  0  0  0
  -30.2152  -29.5969   23.5156 O   0  0  0  0  0  0  0  0  0  0  0  0
  -31.8513  -14.9470   20.1890 O   0  0  0  0  0  0  0  0  0  0  0  0
  -21.6207   -7.0109   21.7108 O   0  0  0  0  0  0  0  0  0  0  0  0
  -30.7049  -23.1686   21.3275 O   0  0  0  0  0  0  0  0  0  1  0  0
  -18.6241   -6.8552   26.3369 F   0  0  0  0  0  0  0  0  0  0  0  0
  -22.0722   -5.0715   23.6286 F   0  0  0  0  0  0  0  0  0  0  0  0
  1  2  1  0  0  0  0
  1  5  2  0  0  0  0
  2  6  2  0  0  0  0
  3  8  2  0  0  0  0
  3 18  1  0  0  0  0
  4  9  1  0  0  0  0
  4 18  2  0  0  0  0
  5 21  1  0  0  0  0
  6 23  1  0  0  0  0
  7 10  2  0  0  0  0
  7 22  1  0  0  0  0
  8 27  1  0  0  0  0
  9 27  2  0  0  0  0
 10 28  1  0  0  0  0
 11 12  2  0  0  0  0
 11 29  1  0  0  0  0
 12 30  1  0  0  0  0
 13 19  1  0  0  0  0
 13 25  2  0  0  0  0
 14 19  2  0  0  0  0
 14 26  1  0  0  0  0
 15 24  1  0  0  0  0
 15 28  2  0  0  0  0
 16 25  1  0  0  0  0
 16 26  2  0  0  0  0
 17 30  2  0  0  0  0
 17 31  1  0  0  0  0
 18 32  1  0  0  0  0
 19 36  1  0  0  0  0
 20 32  1  0  0  0  0
 20 33  2  0  0  0  0
 20 37  1  0  0  0  0
 21 23  2  0  0  0  0
 21 42  1  0  0  0  0
 22 24  2  0  0  0  0
 22 43  1  0  0  0  0
 23 54  1  0  0  0  0
 24 44  1  0  0  0  0
 25 65  1  0  0  0  0
 26 78  1  0  0  0  0
 27 88  1  0  0  0  0
 28 89  1  0  0  0  0
 29 31  2  0  0  0  0
 29 88  1  0  0  0  0
 30 90  1  0  0  0  0
 31 91  1  0  0  0  0
 32 71  2  0  0  0  0
 33 72  1  0  0  0  0
 33 76  1  0  0  0  0
 34 35  2  0  0  0  0
 34 45  1  0  0  0  0
 34 46  1  0  0  0  0
 35 89  1  0  0  0  0
 36 73  1  0  0  0  0
 36 81  2  0  0  0  0
 37 77  1  0  0  0  0
 37 83  2  0  0  0  0
 38 55  1  0  0  0  0
 38 79  1  0  0  0  0
 38 84  2  0  0  0  0
 39 67  1  0  0  0  0
 39 74  1  0  0  0  0
 39 85  2  0  0  0  0
 40 68  1  0  0  0  0
 40 80  1  0  0  0  0
 40 86  2  0  0  0  0
 41 75  1  0  0  0  0
 41 78  1  0  0  0  0
 41 87  2  0  0  0  0
 42 47  1  0  0  0  0
 43 55  1  0  0  0  0
 44 74  1  0  0  0  0
 45 51  1  0  0  0  0
 46 73  1  0  0  0  0
 47 49  1  0  0  0  0
 48 50  1  0  0  0  0
 48 52  1  0  0  0  0
 49 54  1  0  0  0  0
 50 56  1  0  0  0  0
 51 73  1  0  0  0  0
 52 75  1  0  0  0  0
 53 56  1  0  0  0  0
 53 75  1  0  0  0  0
 54 79  1  0  0  0  0
 55 74  1  0  0  0  0
 56 72  1  0  0  0  0
 57 66  1  0  0  0  0
 58 68  1  0  0  0  0
 59 69  1  0  0  0  0
 60 69  1  0  0  0  0
 61 69  1  0  0  0  0
 62 70  1  0  0  0  0
 63 70  1  0  0  0  0
 64 82  1  0  0  0  0
 65 70  1  0  0  0  0
 66 70  1  0  0  0  0
 67 69  1  0  0  0  0
 67 80  1  0  0  0  0
 68 82  1  0  0  0  0
 71 72  1  0  0  0  0
M  CHG  2  81   1  82   1
M  ISO  4  35 101  41 100  78 100  89 101
M  END
> <Batch ID>
0142

> <Smiles>
CCC(C)(C)Cc1cc([100NH:0][100C:0](=O)N2CCCC(n3nc(-c4ccc(Oc5ccc(F)cc5F)cc4)c(C(N)=O)c3N)C2)cc(C(=N)N2CCC(=[101CH:1][101O:1]c3ccc4c(c3)CN(C(=O)C(NC(=O)C(C)NC)C(C)(C)C)C(C(=O)NC3CCCc5ccccc53)C4)C2)c1

> <Shape>
0.205

> <Color>
0.180

> <Negative vol penalty>
0.000

$$$$

  -OEChem-04052302573D

 84 92  0     1  0  0  0  0  0999 V2000
  -17.0744  -29.5557   24.8047 C   0  0  0  0  0  0  0  0  0  0  0  0
  -17.3728  -28.4484   24.0171 C   0  0  0  0  0  0  0  0  0  0  0  0
  -23.0828  -10.1302   20.5382 C   0  0  0  0  0  0  0  0  0  0  0  0
  -24.4790   -9.0671   22.1988 C   0  0  0  0  0  0  0  0  0  0  0  0
  -17.7078  -30.7737   24.5614 C   0  0  0  0  0  0  0  0  0  0  0  0
  -18.3039  -28.5588   22.9850 C   0  0  0  0  0  0  0  0  0  0  0  0
  -21.5522  -24.6753   22.8752 C   0  0  0  0  0  0  0  0  0  0  0  0
  -22.3128   -8.9710   20.4434 C   0  0  0  0  0  0  0  0  0  0  0  0
  -23.7090   -7.9079   22.1041 C   0  0  0  0  0  0  0  0  0  0  0  0
  -21.0953  -23.4784   22.3253 C   0  0  0  0  0  0  0  0  0  0  0  0
  -20.7297   -6.7980   23.2499 C   0  0  0  0  0  0  0  0  0  0  0  0
  -20.3518   -6.1740   24.4387 C   0  0  0  0  0  0  0  0  0  0  0  0
  -27.0198  -20.4876   19.7410 C   0  0  0  0  0  0  0  0  0  0  0  0
  -25.7777  -20.8627   20.3299 C   0  0  0  0  0  0  0  0  0  0  0  0
  -22.2265  -24.0025   20.2601 C   0  0  0  0  0  0  0  0  0  0  0  0
  -21.5133   -4.1687   23.7553 C   0  0  0  0  0  0  0  0  0  0  0  0
  -24.1660  -10.1782   21.4159 C   0  0  0  0  0  0  0  0  0  0  0  0
  -24.7575  -12.4635   22.3829 C   0  0  0  0  0  0  0  0  0  0  0  0
  -18.6543  -30.8966   23.5320 C   0  0  0  0  0  0  0  0  0  0  0  0
  -22.3419  -25.5514   22.1168 C   0  0  0  0  0  0  0  0  0  0  0  0
  -18.9495  -29.7800   22.7268 C   0  0  0  0  0  0  0  0  0  0  0  0
  -22.6942  -25.2087   20.8036 C   0  0  0  0  0  0  0  0  0  0  0  0
  -22.6259   -7.8599   21.2264 C   0  0  0  0  0  0  0  0  0  0  0  0
  -21.4300  -23.1432   21.0166 C   0  0  0  0  0  0  0  0  0  0  0  0
  -21.4994   -6.1074   22.3137 C   0  0  0  0  0  0  0  0  0  0  0  0
  -20.7435   -4.8593   24.6914 C   0  0  0  0  0  0  0  0  0  0  0  0
  -21.8912   -4.7928   22.5665 C   0  0  0  0  0  0  0  0  0  0  0  0
  -24.9621  -11.3751   21.5138 C   0  0  0  0  0  0  0  0  0  0  0  0
  -27.1281  -19.1231   19.5865 C   0  0  0  0  0  0  0  0  0  0  0  0
  -24.9839  -19.7704   20.6029 C   0  0  0  0  0  0  0  0  0  0  0  0
  -25.7760  -13.3360   22.0864 C   0  0  0  0  0  0  0  0  0  0  0  0
  -23.7379  -12.6675   23.3701 C   0  0  0  0  0  0  0  0  0  0  0  0
  -28.2519  -18.3351   19.0183 C   0  0  0  0  0  0  0  0  0  0  0  0
  -22.0165  -28.5391   21.0817 C   0  0  0  0  0  0  0  0  0  0  0  0
  -25.0754  -28.1152   20.0887 C   0  0  0  0  0  0  0  0  0  0  0  0
  -27.5478  -25.9521   19.1641 C   0  0  0  0  0  0  0  0  0  0  0  0
  -28.9806  -16.0365   18.4620 C   0  0  0  0  0  0  0  0  0  0  0  0
  -19.2780  -32.2459   23.2767 C   0  0  0  0  0  0  0  0  0  0  0  0
  -22.8490  -26.8261   22.7335 C   0  0  0  0  0  0  0  0  0  0  0  0
  -23.5564  -26.1052   19.9542 C   0  0  0  0  0  0  0  0  0  0  0  0
  -20.5288  -32.1833   22.4039 C   0  0  0  0  0  0  0  0  0  0  0  0
  -29.9222  -12.7199   19.2433 C   0  0  0  0  0  0  0  0  0  0  0  0
  -20.2881  -31.2929   21.1890 C   0  0  0  0  0  0  0  0  0  0  0  0
  -28.7028  -12.1631   19.9830 C   0  0  0  0  0  0  0  0  0  0  0  0
  -29.5166  -13.6440   18.0959 C   0  0  0  0  0  0  0  0  0  0  0  0
  -27.3798  -14.1679   19.1992 C   0  0  0  0  0  0  0  0  0  0  0  0
  -19.9721  -29.8537   21.6138 C   0  0  1  0  0  0  0  0  0  0  0  0
  -23.2197  -27.8842   21.6989 C   0  0  1  0  0  0  0  0  0  0  0  0
  -27.7367  -13.2873   20.4076 C   0  0  1  0  0  0  0  0  0  0  0  0
  -29.9275  -25.9041   18.3691 C   0  0  0  0  0  0  0  0  0  0  0  0
  -24.1628  -28.9895   17.3115 C   0  0  0  0  0  0  0  0  0  0  0  0
  -26.2822  -28.0279   16.3886 C   0  0  0  0  0  0  0  0  0  0  0  0
  -26.3764  -29.9121   18.0207 C   0  0  0  0  0  0  0  0  0  0  0  0
  -20.8261  -18.3840   21.6772 C   0  0  0  0  0  0  0  0  0  0  0  0
  -20.0579  -19.3846   19.5101 C   0  0  0  0  0  0  0  0  0  0  0  0
  -28.4272  -24.4001   21.5256 C   0  0  0  0  0  0  0  0  0  0  0  0
  -23.6059  -19.7414   21.2192 C   0  0  0  0  0  0  0  0  0  0  0  0
  -22.5225  -19.5153   20.1554 C   0  0  0  0  0  0  0  0  0  0  0  0
  -20.7803  -20.8832   21.3719 C   0  0  0  0  0  0  0  0  0  1  0  0
  -25.7288  -27.6050   18.8271 C   0  0  1  0  0  0  0  0  0  0  0  0
  -29.0051  -25.8521   19.5771 C   0  0  2  0  0  0  0  0  0  0  0  0
  -25.6197  -28.6174   17.6521 C   0  0  0  0  0  0  0  0  0  0  0  0
  -21.0556  -19.5290   20.6730 C   0  0  0  0  0  0  0  0  0  0  0  0
  -26.0269  -11.5390   20.7242 N   0  0  0  0  0  0  0  0  0  0  0  0
  -26.5004  -12.7405   21.0960 N   0  0  0  0  0  0  0  0  0  0  0  0
  -24.0224  -27.3434   20.6000 N   0  0  0  0  0  0  0  0  0  0  0  0
  -28.6103  -14.6857   18.5823 N   0  0  0  0  0  0  0  0  0  0  0  0
  -26.1136  -14.5467   22.5787 N   0  0  0  0  0  0  0  0  0  0  0  0
  -22.7687  -11.6705   23.5456 N   0  0  0  0  0  0  0  0  0  0  0  0
  -28.0667  -16.9525   18.9949 N   0  0  0  0  0  0  0  0  0  0  0  0
  -21.1847  -29.1609   21.9933 N   0  0  0  0  0  0  0  0  0  0  0  0
  -27.0981  -27.2553   19.1893 N   0  0  0  0  0  0  0  0  0  0  0  0
  -29.2515  -24.5734   20.3019 N   0  3  0  0  0  0  0  0  0  0  0  0
  -23.6783  -13.7106   24.0643 O   0  0  0  0  0  0  0  0  0  0  0  0
  -29.2340  -18.9260   18.5776 O   0  0  0  0  0  0  0  0  0  0  0  0
  -21.8554  -28.4855   19.8681 O   0  0  0  0  0  0  0  0  0  0  0  0
  -25.4888  -29.1561   20.6056 O   0  0  0  0  0  0  0  0  0  0  0  0
  -26.8766  -24.9726   18.8469 O   0  0  0  0  0  0  0  0  0  0  0  0
  -30.0498  -16.3948   17.9583 O   0  0  0  0  0  0  0  0  0  0  0  0
  -21.8746   -6.7287   21.1343 O   0  0  0  0  0  0  0  0  0  0  0  0
  -20.9848  -21.9758   20.4771 O   0  0  0  0  0  0  0  0  0  1  0  0
  -20.3818   -4.2607   25.8338 F   0  0  0  0  0  0  0  0  0  0  0  0
  -22.6317   -4.1247   21.6715 F   0  0  0  0  0  0  0  0  0  0  0  0
  -25.7361  -18.3002   20.1501 S   0  0  0  0  0  0  0  0  0  0  0  0
  1  2  1  0  0  0  0
  1  5  2  0  0  0  0
  2  6  2  0  0  0  0
  3  8  2  0  0  0  0
  3 17  1  0  0  0  0
  4  9  1  0  0  0  0
  4 17  2  0  0  0  0
  5 19  1  0  0  0  0
  6 21  1  0  0  0  0
  7 10  2  0  0  0  0
  7 20  1  0  0  0  0
  8 23  1  0  0  0  0
  9 23  2  0  0  0  0
 10 24  1  0  0  0  0
 11 12  2  0  0  0  0
 11 25  1  0  0  0  0
 12 26  1  0  0  0  0
 13 14  1  0  0  0  0
 13 29  2  0  0  0  0
 14 30  2  0  0  0  0
 15 22  1  0  0  0  0
 15 24  2  0  0  0  0
 16 26  2  0  0  0  0
 16 27  1  0  0  0  0
 17 28  1  0  0  0  0
 18 28  1  0  0  0  0
 18 31  2  0  0  0  0
 18 32  1  0  0  0  0
 19 21  2  0  0  0  0
 19 38  1  0  0  0  0
 20 22  2  0  0  0  0
 20 39  1  0  0  0  0
 21 47  1  0  0  0  0
 22 40  1  0  0  0  0
 23 80  1  0  0  0  0
 24 81  1  0  0  0  0
 25 27  2  0  0  0  0
 25 80  1  0  0  0  0
 26 82  1  0  0  0  0
 27 83  1  0  0  0  0
 28 64  2  0  0  0  0
 29 33  1  0  0  0  0
 29 84  1  0  0  0  0
 30 57  1  0  0  0  0
 30 84  1  0  0  0  0
 31 65  1  0  0  0  0
 31 68  1  0  0  0  0
 32 69  1  0  0  0  0
 32 74  2  0  0  0  0
 33 70  1  0  0  0  0
 33 75  2  0  0  0  0
 34 48  1  0  0  0  0
 34 71  1  0  0  0  0
 34 76  2  0  0  0  0
 35 60  1  0  0  0  0
 35 66  1  0  0  0  0
 35 77  2  0  0  0  0
 36 61  1  0  0  0  0
 36 72  1  0  0  0  0
 36 78  2  0  0  0  0
 37 67  1  0  0  0  0
 37 70  1  0  0  0  0
 37 79  2  0  0  0  0
 38 41  1  0  0  0  0
 39 48  1  0  0  0  0
 40 66  1  0  0  0  0
 41 43  1  0  0  0  0
 42 44  1  0  0  0  0
 42 45  1  0  0  0  0
 43 47  1  0  0  0  0
 44 49  1  0  0  0  0
 45 67  1  0  0  0  0
 46 49  1  0  0  0  0
 46 67  1  0  0  0  0
 47 71  1  0  0  0  0
 48 66  1  0  0  0  0
 49 65  1  0  0  0  0
 50 61  1  0  0  0  0
 51 62  1  0  0  0  0
 52 62  1  0  0  0  0
 53 62  1  0  0  0  0
 54 63  1  0  0  0  0
 55 63  1  0  0  0  0
 56 73  1  0  0  0  0
 57 58  1  0  0  0  0
 58 63  1  0  0  0  0
 59 63  1  0  0  0  0
 59 81  1  0  0  0  0
 60 62  1  0  0  0  0
 60 72  1  0  0  0  0
 61 73  1  0  0  0  0
 64 65  1  0  0  0  0
M  CHG  1  73   1
M  ISO  4  37 100  59 101  70 100  81 101
M  END
> <Batch ID>
0142

> <Smiles>
CNC(C)C(=O)NC(C(=O)N1Cc2cc([101O:1][101CH2:1]C(C)(C)CCc3ccc(C(=O)[100NH:0][100C:0](=O)N4CCCC(n5nc(-c6ccc(Oc7ccc(F)cc7F)cc6)c(C(N)=O)c5N)C4)s3)ccc2CC1C(=O)NC1CCCc2ccccc21)C(C)(C)C

> <Shape>
0.261

> <Color>
0.117

> <Negative vol penalty>
0.000

$$$$

  -OEChem-04052302573D

 84 93  0     1  0  0  0  0  0999 V2000
  -30.3145  -36.4552   22.0700 C   0  0  0  0  0  0  0  0  0  0  0  0
  -30.3367  -35.2089   21.4523 C   0  0  0  0  0  0  0  0  0  0  0  0
  -24.6776   -8.4885   20.4748 C   0  0  0  0  0  0  0  0  0  0  0  0
  -22.9570  -10.1841   20.5106 C   0  0  0  0  0  0  0  0  0  0  0  0
  -29.5781  -36.6393   23.2395 C   0  0  0  0  0  0  0  0  0  0  0  0
  -29.6232  -34.1456   22.0044 C   0  0  0  0  0  0  0  0  0  0  0  0
  -26.7846  -29.6467   18.9699 C   0  0  0  0  0  0  0  0  0  0  0  0
  -26.8072  -19.6471   16.6327 C   0  0  0  0  0  0  0  0  0  0  0  0
  -27.1544  -20.8013   17.3347 C   0  0  0  0  0  0  0  0  0  0  0  0
  -23.7797   -7.5659   21.0115 C   0  0  0  0  0  0  0  0  0  0  0  0
  -22.0590   -9.2615   21.0473 C   0  0  0  0  0  0  0  0  0  0  0  0
  -27.1583  -28.3380   18.6675 C   0  0  0  0  0  0  0  0  0  0  0  0
  -21.2295   -5.6397   19.9074 C   0  0  0  0  0  0  0  0  0  0  0  0
  -21.1882   -4.3677   19.3366 C   0  0  0  0  0  0  0  0  0  0  0  0
  -25.9472  -27.5521   20.6001 C   0  0  0  0  0  0  0  0  0  0  0  0
  -27.9916  -19.4450   19.1504 C   0  0  0  0  0  0  0  0  0  0  0  0
  -21.7959   -3.3939   21.4625 C   0  0  0  0  0  0  0  0  0  0  0  0
  -24.2663   -9.7977   20.2243 C   0  0  0  0  0  0  0  0  0  0  0  0
  -25.4271  -11.0173   18.3079 C   0  0  0  0  0  0  0  0  0  0  0  0
  -28.8474  -35.5803   23.8009 C   0  0  0  0  0  0  0  0  0  0  0  0
  -25.9971  -29.9195   20.0977 C   0  0  0  0  0  0  0  0  0  0  0  0
  -28.8774  -34.3153   23.1832 C   0  0  0  0  0  0  0  0  0  0  0  0
  -25.5628  -28.8648   20.9132 C   0  0  0  0  0  0  0  0  0  0  0  0
  -27.0522  -18.3919   17.1895 C   0  0  0  0  0  0  0  0  0  0  0  0
  -27.7466  -20.7003   18.5936 C   0  0  0  0  0  0  0  0  0  0  0  0
  -27.6444  -18.2908   18.4484 C   0  0  0  0  0  0  0  0  0  0  0  0
  -22.4704   -7.9524   21.2977 C   0  0  0  0  0  0  0  0  0  0  0  0
  -26.7420  -27.2908   19.4843 C   0  0  0  0  0  0  0  0  0  0  0  0
  -21.5540   -5.7889   21.2558 C   0  0  0  0  0  0  0  0  0  0  0  0
  -21.4714   -3.2448   20.1141 C   0  0  0  0  0  0  0  0  0  0  0  0
  -21.8372   -4.6660   22.0334 C   0  0  0  0  0  0  0  0  0  0  0  0
  -25.1936  -10.7513   19.6704 C   0  0  0  0  0  0  0  0  0  0  0  0
  -26.3905  -11.9962   18.3093 C   0  0  0  0  0  0  0  0  0  0  0  0
  -28.2478  -24.0639   19.9376 C   0  0  0  0  0  0  0  0  0  0  0  0
  -27.8364  -25.3234   20.1187 C   0  0  0  0  0  0  0  0  0  1  0  0
  -24.8266  -10.4319   17.1449 C   0  0  0  0  0  0  0  0  0  0  0  0
  -26.4031  -31.6035   22.7629 C   0  0  0  0  0  0  0  0  0  0  0  0
  -23.2813  -30.8642   23.2425 C   0  0  0  0  0  0  0  0  0  0  0  0
  -20.6698  -28.7632   22.6002 C   0  0  0  0  0  0  0  0  0  0  0  0
  -28.4829  -16.7683   20.2719 C   0  0  0  0  0  0  0  0  0  0  0  0
  -28.1044  -35.8151   25.0921 C   0  0  0  0  0  0  0  0  0  0  0  0
  -25.5803  -31.3338   20.3951 C   0  0  0  0  0  0  0  0  0  0  0  0
  -24.6994  -29.1024   22.1242 C   0  0  0  0  0  0  0  0  0  0  0  0
  -29.0567  -23.2738   20.9170 C   0  0  0  0  0  0  0  0  0  0  0  0
  -27.8681  -23.1937   18.7774 C   0  0  0  0  0  0  0  0  0  0  0  0
  -27.0733  -34.7343   25.4068 C   0  0  0  0  0  0  0  0  0  0  0  0
  -29.2509  -13.7971   22.0771 C   0  0  0  0  0  0  0  0  0  0  0  0
  -27.6729  -33.3474   25.1977 C   0  0  0  0  0  0  0  0  0  0  0  0
  -28.2830  -12.7617   21.4998 C   0  0  0  0  0  0  0  0  0  0  0  0
  -28.5990  -21.8412   20.6580 C   0  0  0  0  0  0  0  0  0  0  0  0
  -28.6086  -15.1794   22.1783 C   0  0  0  0  0  0  0  0  0  0  0  0
  -27.0389  -14.6415   20.3574 C   0  0  0  0  0  0  0  0  0  0  0  0
  -28.0964  -33.1439   23.7380 C   0  0  1  0  0  0  0  0  0  0  0  0
  -25.2049  -31.5510   21.8578 C   0  0  1  0  0  0  0  0  0  0  0  0
  -27.6618  -13.2478   20.1757 C   0  0  2  0  0  0  0  0  0  0  0  0
  -26.6697  -17.1727   16.4148 C   0  0  0  0  0  0  0  0  0  0  0  0
  -18.2526  -28.3952   23.1652 C   0  0  0  0  0  0  0  0  0  0  0  0
  -24.0884  -29.7768   25.9768 C   0  0  0  0  0  0  0  0  0  0  0  0
  -21.8833  -28.5958   26.0806 C   0  0  0  0  0  0  0  0  0  0  0  0
  -21.9579  -31.0864   25.9624 C   0  0  0  0  0  0  0  0  0  0  0  0
  -19.8439  -29.0604   19.7738 C   0  0  0  0  0  0  0  0  0  0  0  0
  -22.5416  -29.7301   23.9101 C   0  0  1  0  0  0  0  0  0  0  0  0
  -19.2326  -29.0372   22.1955 C   0  0  2  0  0  0  0  0  0  0  0  0
  -22.6357  -29.7927   25.4608 C   0  0  0  0  0  0  0  0  0  0  0  0
  -25.9481  -11.5006   20.4787 N   0  0  0  0  0  0  0  0  0  0  0  0
  -26.6651  -12.2470   19.6215 N   0  0  0  0  0  0  0  0  0  0  0  0
  -28.0902  -21.8434   19.2884 N   0  0  3  0  0  0  0  0  0  0  0  0
  -24.3234  -30.5032   22.3767 N   0  0  0  0  0  0  0  0  0  0  0  0
  -28.0454  -15.5756   20.8858 N   0  0  0  0  0  0  0  0  0  0  0  0
  -27.0212  -12.6581   17.3161 N   0  0  0  0  0  0  0  0  0  0  0  0
  -23.8533   -9.4394   17.3233 N   0  0  0  0  0  0  0  0  0  0  0  0
  -27.9012  -17.0249   19.0307 N   0  0  0  0  0  0  0  0  0  0  0  0
  -26.9417  -32.8675   22.9106 N   0  0  0  0  0  0  0  0  0  0  0  0
  -21.1784  -29.7709   23.3921 N   0  0  0  0  0  0  0  0  0  0  0  0
  -18.9664  -28.4973   20.8322 N   0  3  0  0  0  0  0  0  0  0  0  0
  -25.1557  -10.7671   15.9818 O   0  0  0  0  0  0  0  0  0  0  0  0
  -26.8081  -30.5738   23.2895 O   0  0  0  0  0  0  0  0  0  0  0  0
  -22.9422  -32.0272   23.4750 O   0  0  0  0  0  0  0  0  0  0  0  0
  -21.2790  -27.7541   22.2521 O   0  0  0  0  0  0  0  0  0  0  0  0
  -29.3325  -17.4937   20.7952 O   0  0  0  0  0  0  0  0  0  0  0  0
  -21.5938   -7.0523   21.8213 O   0  0  0  0  0  0  0  0  0  0  0  0
  -27.1059  -26.0125   19.1917 O   0  0  0  0  0  0  0  0  0  1  0  0
  -21.4303   -2.0232   19.5662 F   0  0  0  0  0  0  0  0  0  0  0  0
  -22.1485   -4.8029   23.3296 F   0  0  0  0  0  0  0  0  0  0  0  0
  1  2  1  0  0  0  0
  1  5  2  0  0  0  0
  2  6  2  0  0  0  0
  3 10  2  0  0  0  0
  3 18  1  0  0  0  0
  4 11  1  0  0  0  0
  4 18  2  0  0  0  0
  5 20  1  0  0  0  0
  6 22  1  0  0  0  0
  7 12  2  0  0  0  0
  7 21  1  0  0  0  0
  8  9  2  0  0  0  0
  8 24  1  0  0  0  0
  9 25  1  0  0  0  0
 10 27  1  0  0  0  0
 11 27  2  0  0  0  0
 12 28  1  0  0  0  0
 13 14  2  0  0  0  0
 13 29  1  0  0  0  0
 14 30  1  0  0  0  0
 15 23  1  0  0  0  0
 15 28  2  0  0  0  0
 16 25  2  0  0  0  0
 16 26  1  0  0  0  0
 17 30  2  0  0  0  0
 17 31  1  0  0  0  0
 18 32  1  0  0  0  0
 19 32  1  0  0  0  0
 19 33  2  0  0  0  0
 19 36  1  0  0  0  0
 20 22  2  0  0  0  0
 20 41  1  0  0  0  0
 21 23  2  0  0  0  0
 21 42  1  0  0  0  0
 22 53  1  0  0  0  0
 23 43  1  0  0  0  0
 24 26  2  0  0  0  0
 24 56  1  0  0  0  0
 25 67  1  0  0  0  0
 26 72  1  0  0  0  0
 27 81  1  0  0  0  0
 28 82  1  0  0  0  0
 29 31  2  0  0  0  0
 29 81  1  0  0  0  0
 30 83  1  0  0  0  0
 31 84  1  0  0  0  0
 32 65  2  0  0  0  0
 33 66  1  0  0  0  0
 33 70  1  0  0  0  0
 34 35  2  0  0  0  0
 34 44  1  0  0  0  0
 34 45  1  0  0  0  0
 35 82  1  0  0  0  0
 36 71  1  0  0  0  0
 36 76  2  0  0  0  0
 37 54  1  0  0  0  0
 37 73  1  0  0  0  0
 37 77  2  0  0  0  0
 38 62  1  0  0  0  0
 38 68  1  0  0  0  0
 38 78  2  0  0  0  0
 39 63  1  0  0  0  0
 39 74  1  0  0  0  0
 39 79  2  0  0  0  0
 40 69  1  0  0  0  0
 40 72  1  0  0  0  0
 40 80  2  0  0  0  0
 41 46  1  0  0  0  0
 42 54  1  0  0  0  0
 43 68  1  0  0  0  0
 44 50  1  0  0  0  0
 45 67  1  0  0  0  0
 46 48  1  0  0  0  0
 47 49  1  0  0  0  0
 47 51  1  0  0  0  0
 48 53  1  0  0  0  0
 49 55  1  0  0  0  0
 50 67  1  0  0  0  0
 51 69  1  0  0  0  0
 52 55  1  0  0  0  0
 52 69  1  0  0  0  0
 53 73  1  0  0  0  0
 54 68  1  0  0  0  0
 55 66  1  0  0  0  0
 57 63  1  0  0  0  0
 58 64  1  0  0  0  0
 59 64  1  0  0  0  0
 60 64  1  0  0  0  0
 61 75  1  0  0  0  0
 62 64  1  0  0  0  0
 62 74  1  0  0  0  0
 63 75  1  0  0  0  0
 65 66  1  0  0  0  0
M  CHG  1  75   1
M  ISO  4  35 101  40 100  72 100  82 101
M  END
> <Batch ID>
0142

> <Smiles>
CNC(C)C(=O)NC(C(=O)N1Cc2cc([101O:1][101CH:1]=C3CCN(c4ccc(C)c([100NH:0][100C:0](=O)N5CCCC(n6nc(-c7ccc(Oc8ccc(F)cc8F)cc7)c(C(N)=O)c6N)C5)c4)C3)ccc2CC1C(=O)NC1CCCc2ccccc21)C(C)(C)C

> <Shape>
0.281

> <Color>
0.102

> <Negative vol penalty>
0.000

$$$$

  -OEChem-04052302573D

 89 97  0     1  0  0  0  0  0999 V2000
  -26.2544  -34.9113   24.3872 C   0  0  0  0  0  0  0  0  0  0  0  0
  -26.7635  -33.6708   24.0163 C   0  0  0  0  0  0  0  0  0  0  0  0
  -26.6184   -8.7525   22.0287 C   0  0  0  0  0  0  0  0  0  0  0  0
  -26.5166  -10.4879   23.7065 C   0  0  0  0  0  0  0  0  0  0  0  0
  -24.9164  -35.0312   24.7605 C   0  0  0  0  0  0  0  0  0  0  0  0
  -25.9350  -32.5492   24.0197 C   0  0  0  0  0  0  0  0  0  0  0  0
  -26.4997  -29.7046   19.8682 C   0  0  0  0  0  0  0  0  0  0  0  0
  -27.4016   -7.9743   22.8811 C   0  0  0  0  0  0  0  0  0  0  0  0
  -27.2997   -9.7097   24.5590 C   0  0  0  0  0  0  0  0  0  0  0  0
  -27.6160  -28.8710   19.8146 C   0  0  0  0  0  0  0  0  0  0  0  0
  -26.9282   -5.9744   25.5661 C   0  0  0  0  0  0  0  0  0  0  0  0
  -26.6060   -4.6229   25.6891 C   0  0  0  0  0  0  0  0  0  0  0  0
  -26.2407  -26.9978   20.4616 C   0  0  0  0  0  0  0  0  0  0  0  0
  -26.6742  -18.3701   21.7026 C   0  0  0  0  0  0  0  0  0  0  0  0
  -28.0202  -20.3733   21.5939 C   0  0  0  0  0  0  0  0  0  0  0  0
  -27.8083  -18.9534   19.6507 C   0  0  0  0  0  0  0  0  0  0  0  0
  -28.8021   -4.0255   24.8784 C   0  0  0  0  0  0  0  0  0  0  0  0
  -26.1759  -10.0094   22.4413 C   0  0  0  0  0  0  0  0  0  0  0  0
  -23.9628  -10.8223   21.4673 C   0  0  0  0  0  0  0  0  0  0  0  0
  -24.0687  -33.9122   24.7591 C   0  0  0  0  0  0  0  0  0  0  0  0
  -25.2456  -29.1923   20.2302 C   0  0  0  0  0  0  0  0  0  0  0  0
  -24.5847  -32.6540   24.3946 C   0  0  0  0  0  0  0  0  0  0  0  0
  -25.1096  -27.8264   20.5166 C   0  0  0  0  0  0  0  0  0  0  0  0
  -27.1935  -19.5111   22.3141 C   0  0  0  0  0  0  0  0  0  0  0  0
  -26.9816  -18.0912   20.3709 C   0  0  0  0  0  0  0  0  0  0  0  0
  -27.7422   -8.4529   24.1462 C   0  0  0  0  0  0  0  0  0  0  0  0
  -27.4871  -27.5180   20.1141 C   0  0  0  0  0  0  0  0  0  0  0  0
  -28.1874   -6.3515   25.0992 C   0  0  0  0  0  0  0  0  0  0  0  0
  -28.3276  -20.0945   20.2621 C   0  0  0  0  0  0  0  0  0  0  0  0
  -27.5429   -3.6484   25.3453 C   0  0  0  0  0  0  0  0  0  0  0  0
  -29.1244   -5.3770   24.7554 C   0  0  0  0  0  0  0  0  0  0  0  0
  -25.3674  -10.8140   21.5610 C   0  0  0  0  0  0  0  0  0  0  0  0
  -23.6892  -11.7502   20.4923 C   0  0  0  0  0  0  0  0  0  0  0  0
  -22.9921  -10.0597   22.1966 C   0  0  0  0  0  0  0  0  0  0  0  0
  -23.2023  -29.7320   22.6046 C   0  0  0  0  0  0  0  0  0  0  0  0
  -21.3070  -27.7157   20.9121 C   0  0  0  0  0  0  0  0  0  0  0  0
  -21.0743  -25.1904   18.6283 C   0  0  0  0  0  0  0  0  0  0  0  0
  -26.6610  -16.5092   18.4367 C   0  0  0  0  0  0  0  0  0  0  0  0
  -22.6414  -34.0822   25.2158 C   0  0  0  0  0  0  0  0  0  0  0  0
  -24.0460  -30.0994   20.2574 C   0  0  0  0  0  0  0  0  0  0  0  0
  -23.7813  -27.2231   20.8910 C   0  0  0  0  0  0  0  0  0  0  0  0
  -21.7360  -32.9145   24.8324 C   0  0  0  0  0  0  0  0  0  0  0  0
  -25.5713  -13.6980   16.5428 C   0  0  0  0  0  0  0  0  0  0  0  0
  -22.4115  -31.5861   25.1578 C   0  0  0  0  0  0  0  0  0  0  0  0
  -25.2617  -12.6422   17.6066 C   0  0  0  0  0  0  0  0  0  0  0  0
  -26.7857  -14.5445   16.9204 C   0  0  0  0  0  0  0  0  0  0  0  0
  -26.4137  -14.1047   19.3157 C   0  0  0  0  0  0  0  0  0  0  0  0
  -23.7113  -31.4186   24.3616 C   0  0  1  0  0  0  0  0  0  0  0  0
  -22.9176  -29.5716   21.1380 C   0  0  1  0  0  0  0  0  0  0  0  0
  -25.1592  -13.2699   19.0105 C   0  0  2  0  0  0  0  0  0  0  0  0
  -19.3942  -23.7258   17.4754 C   0  0  0  0  0  0  0  0  0  0  0  0
  -28.2679  -22.9529   17.6448 C   0  0  0  0  0  0  0  0  0  0  0  0
  -27.3438  -18.6623   24.6811 C   0  0  0  0  0  0  0  0  0  0  0  0
  -25.3270  -19.9744   23.9415 C   0  0  0  0  0  0  0  0  0  0  0  0
  -27.5037  -21.1163   24.3148 C   0  0  0  0  0  0  0  0  0  0  0  0
  -21.0011  -26.0650   23.4600 C   0  0  0  0  0  0  0  0  0  0  0  0
  -20.1440  -24.1800   22.0528 C   0  0  0  0  0  0  0  0  0  0  0  0
  -18.8974  -26.3391   22.1358 C   0  0  0  0  0  0  0  0  0  0  0  0
  -29.8962  -25.5189   17.7447 C   0  0  0  0  0  0  0  0  0  0  0  0
  -30.8154  -24.8832   19.9602 C   0  0  0  0  0  0  0  0  0  0  0  0
  -21.8465  -26.2080   15.9586 C   0  0  0  0  0  0  0  0  0  0  0  0
  -29.1059  -22.3163   19.9249 C   0  0  0  0  0  0  0  0  0  0  0  0
  -28.3465  -25.3348   19.7250 C   0  0  0  0  0  0  0  0  0  1  0  0
  -21.0912  -26.2218   20.8845 C   0  0  1  0  0  0  0  0  0  0  0  0
  -20.1935  -25.0175   17.4040 C   0  0  2  0  0  0  0  0  0  0  0  0
  -29.3735  -23.1980   18.6888 C   0  0  2  0  0  0  0  0  0  0  0  0
  -26.8651  -19.8093   23.7379 C   0  0  0  0  0  0  0  0  0  0  0  0
  -20.3090  -25.7129   22.1281 C   0  0  0  0  0  0  0  0  0  0  0  0
  -29.5869  -24.7198   19.0332 C   0  0  0  0  0  0  0  0  0  0  0  0
  -25.9458  -11.6685   20.7129 N   0  0  0  0  0  0  0  0  0  0  0  0
  -24.8995  -12.2225   20.0771 N   0  0  0  0  0  0  0  0  0  0  0  0
  -22.6394  -28.1522   20.9098 N   0  0  0  0  0  0  0  0  0  0  0  0
  -26.6159  -15.1100   18.2606 N   0  0  0  0  0  0  0  0  0  0  0  0
  -22.5339  -12.1999   19.9580 N   0  0  0  0  0  0  0  0  0  0  0  0
  -23.4450   -9.1511   23.1628 N   0  0  0  0  0  0  0  0  0  0  0  0
  -26.4544  -16.9321   19.7494 N   0  0  0  0  0  0  0  0  0  0  0  0
  -23.4218  -31.0391   22.9954 N   0  0  0  0  0  0  0  0  0  0  0  0
  -20.4452  -25.9262   19.6102 N   0  0  0  0  0  0  0  0  0  0  0  0
  -21.0251  -24.9879   16.1677 N   0  3  0  0  0  0  0  0  0  0  0  0
  -21.7603  -10.1685   21.9858 O   0  0  0  0  0  0  0  0  0  0  0  0
  -23.2200  -28.7433   23.3283 O   0  0  0  0  0  0  0  0  0  0  0  0
  -20.3293  -28.4678   20.9277 O   0  0  0  0  0  0  0  0  0  0  0  0
  -22.2056  -24.7168   18.7073 O   0  0  0  0  0  0  0  0  0  0  0  0
  -26.8406  -17.2772   17.4881 O   0  0  0  0  0  0  0  0  0  0  0  0
  -28.5062   -7.6937   24.9784 O   0  0  0  0  0  0  0  0  0  0  0  0
  -28.5752  -26.7022   20.0631 O   0  0  0  0  0  0  0  0  0  1  0  0
  -29.1393  -20.9406   19.5555 O   0  0  0  0  0  0  0  0  0  0  0  0
  -27.2338   -2.3506   25.4649 F   0  0  0  0  0  0  0  0  0  0  0  0
  -30.3361   -5.7331   24.3074 F   0  0  0  0  0  0  0  0  0  0  0  0
  1  2  1  0  0  0  0
  1  5  2  0  0  0  0
  2  6  2  0  0  0  0
  3  8  2  0  0  0  0
  3 18  1  0  0  0  0
  4  9  1  0  0  0  0
  4 18  2  0  0  0  0
  5 20  1  0  0  0  0
  6 22  1  0  0  0  0
  7 10  2  0  0  0  0
  7 21  1  0  0  0  0
  8 26  1  0  0  0  0
  9 26  2  0  0  0  0
 10 27  1  0  0  0  0
 11 12  2  0  0  0  0
 11 28  1  0  0  0  0
 12 30  1  0  0  0  0
 13 23  1  0  0  0  0
 13 27  2  0  0  0  0
 14 24  2  0  0  0  0
 14 25  1  0  0  0  0
 15 24  1  0  0  0  0
 15 29  2  0  0  0  0
 16 25  2  0  0  0  0
 16 29  1  0  0  0  0
 17 30  2  0  0  0  0
 17 31  1  0  0  0  0
 18 32  1  0  0  0  0
 19 32  1  0  0  0  0
 19 33  2  0  0  0  0
 19 34  1  0  0  0  0
 20 22  2  0  0  0  0
 20 39  1  0  0  0  0
 21 23  2  0  0  0  0
 21 40  1  0  0  0  0
 22 48  1  0  0  0  0
 23 41  1  0  0  0  0
 24 67  1  0  0  0  0
 25 76  1  0  0  0  0
 26 85  1  0  0  0  0
 27 86  1  0  0  0  0
 28 31  2  0  0  0  0
 28 85  1  0  0  0  0
 29 87  1  0  0  0  0
 30 88  1  0  0  0  0
 31 89  1  0  0  0  0
 32 70  2  0  0  0  0
 33 71  1  0  0  0  0
 33 74  1  0  0  0  0
 34 75  1  0  0  0  0
 34 80  2  0  0  0  0
 35 49  1  0  0  0  0
 35 77  1  0  0  0  0
 35 81  2  0  0  0  0
 36 64  1  0  0  0  0
 36 72  1  0  0  0  0
 36 82  2  0  0  0  0
 37 65  1  0  0  0  0
 37 78  1  0  0  0  0
 37 83  2  0  0  0  0
 38 73  1  0  0  0  0
 38 76  1  0  0  0  0
 38 84  2  0  0  0  0
 39 42  1  0  0  0  0
 40 49  1  0  0  0  0
 41 72  1  0  0  0  0
 42 44  1  0  0  0  0
 43 45  1  0  0  0  0
 43 46  1  0  0  0  0
 44 48  1  0  0  0  0
 45 50  1  0  0  0  0
 46 73  1  0  0  0  0
 47 50  1  0  0  0  0
 47 73  1  0  0  0  0
 48 77  1  0  0  0  0
 49 72  1  0  0  0  0
 50 71  1  0  0  0  0
 51 65  1  0  0  0  0
 52 66  1  0  0  0  0
 53 67  1  0  0  0  0
 54 67  1  0  0  0  0
 55 67  1  0  0  0  0
 56 68  1  0  0  0  0
 57 68  1  0  0  0  0
 58 68  1  0  0  0  0
 59 69  1  0  0  0  0
 60 69  1  0  0  0  0
 61 79  1  0  0  0  0
 62 66  1  0  0  0  0
 62 87  1  0  0  0  0
 63 69  1  0  0  0  0
 63 86  1  0  0  0  0
 64 68  1  0  0  0  0
 64 78  1  0  0  0  0
 65 79  1  0  0  0  0
 66 69  1  0  0  0  0
 70 71  1  0  0  0  0
M  CHG  1  79   1
M  ISO  4  38 100  63 101  76 100  86 101
M  END
> <Batch ID>
0142

> <Smiles>
CNC(C)C(=O)NC(C(=O)N1Cc2cc([101O:1][101CH2:1]C(C)(C)C(C)COc3cc([100NH:0][100C:0](=O)N4CCCC(n5nc(-c6ccc(Oc7ccc(F)cc7F)cc6)c(C(N)=O)c5N)C4)cc(C(C)(C)C)c3)ccc2CC1C(=O)NC1CCCc2ccccc21)C(C)(C)C

> <Shape>
0.239

> <Color>
0.088

> <Negative vol penalty>
0.000

$$$$

  -OEChem-04052302573D

 85 94  0     1  0  0  0  0  0999 V2000
  -25.0213  -35.6436   25.6113 C   0  0  0  0  0  0  0  0  0  0  0  0
  -25.8506  -34.6633   25.0759 C   0  0  0  0  0  0  0  0  0  0  0  0
  -24.2069  -13.7143   21.3475 C   0  0  0  0  0  0  0  0  0  0  0  0
  -25.9149  -13.7400   19.6390 C   0  0  0  0  0  0  0  0  0  0  0  0
  -23.6935  -35.3433   25.9125 C   0  0  0  0  0  0  0  0  0  0  0  0
  -25.3530  -33.3818   24.8425 C   0  0  0  0  0  0  0  0  0  0  0  0
  -32.3153  -22.4139   22.9527 C   0  0  0  0  0  0  0  0  0  0  0  0
  -26.7348  -31.5540   20.3265 C   0  0  0  0  0  0  0  0  0  0  0  0
  -31.3145  -21.6286   22.3750 C   0  0  0  0  0  0  0  0  0  0  0  0
  -23.7806  -12.4629   20.9026 C   0  0  0  0  0  0  0  0  0  0  0  0
  -25.4887  -12.4885   19.1941 C   0  0  0  0  0  0  0  0  0  0  0  0
  -28.0343  -31.0629   20.2089 C   0  0  0  0  0  0  0  0  0  0  0  0
  -24.7664   -9.2428   21.2061 C   0  0  0  0  0  0  0  0  0  0  0  0
  -24.5100   -8.2657   22.1679 C   0  0  0  0  0  0  0  0  0  0  0  0
  -30.7402  -23.4427   20.8955 C   0  0  0  0  0  0  0  0  0  0  0  0
  -27.1994  -28.8127   20.4510 C   0  0  0  0  0  0  0  0  0  0  0  0
  -22.2203   -8.1211   21.4106 C   0  0  0  0  0  0  0  0  0  0  0  0
  -25.2740  -14.3529   20.7156 C   0  0  0  0  0  0  0  0  0  0  0  0
  -31.7349  -24.2288   21.4883 C   0  0  0  0  0  0  0  0  0  0  0  0
  -26.1974  -15.9742   22.4552 C   0  0  0  0  0  0  0  0  0  0  0  0
  -32.5432  -23.7294   22.5185 C   0  0  0  0  0  0  0  0  0  0  0  0
  -23.1766  -34.0602   25.6736 C   0  0  0  0  0  0  0  0  0  0  0  0
  -25.6572  -30.6773   20.5185 C   0  0  0  0  0  0  0  0  0  0  0  0
  -24.0174  -33.0638   25.1420 C   0  0  0  0  0  0  0  0  0  0  0  0
  -25.8868  -29.2950   20.5682 C   0  0  0  0  0  0  0  0  0  0  0  0
  -30.5303  -22.1417   21.3450 C   0  0  0  0  0  0  0  0  0  0  0  0
  -24.4215  -11.8500   19.8260 C   0  0  0  0  0  0  0  0  0  0  0  0
  -28.2671  -29.6923   20.2740 C   0  0  0  0  0  0  0  0  0  0  0  0
  -23.7497   -9.6592   20.3466 C   0  0  0  0  0  0  0  0  0  0  0  0
  -23.2369   -7.7048   22.2702 C   0  0  0  0  0  0  0  0  0  0  0  0
  -22.4767   -9.0983   20.4488 C   0  0  0  0  0  0  0  0  0  0  0  0
  -25.7144  -15.6458   21.1744 C   0  0  0  0  0  0  0  0  0  0  0  0
  -26.4796  -17.3164   22.3821 C   0  0  0  0  0  0  0  0  0  0  0  0
  -31.8999  -25.6034   20.9876 C   0  0  0  0  0  0  0  0  0  0  0  0
  -26.3752  -15.1405   23.6081 C   0  0  0  0  0  0  0  0  0  0  0  0
  -23.5010  -30.2420   22.8130 C   0  0  0  0  0  0  0  0  0  0  0  0
  -22.2463  -28.1294   20.6953 C   0  0  0  0  0  0  0  0  0  0  0  0
  -23.4970  -25.6258   18.4183 C   0  0  0  0  0  0  0  0  0  0  0  0
  -28.6541  -21.6987   19.7232 C   0  0  0  0  0  0  0  0  0  0  0  0
  -33.6811  -24.5176   23.1161 C   0  0  0  0  0  0  0  0  0  0  0  0
  -21.7478  -33.7697   26.0595 C   0  0  0  0  0  0  0  0  0  0  0  0
  -24.2583  -31.2212   20.6167 C   0  0  0  0  0  0  0  0  0  0  0  0
  -24.7621  -28.3104   20.7527 C   0  0  0  0  0  0  0  0  0  0  0  0
  -33.2613  -25.8188   23.7981 C   0  0  0  0  0  0  0  0  0  0  0  0
  -21.1954  -32.4920   25.4329 C   0  0  0  0  0  0  0  0  0  0  0  0
  -25.3488  -20.7308   18.8205 C   0  0  0  0  0  0  0  0  0  0  0  0
  -22.1960  -31.3499   25.5792 C   0  0  0  0  0  0  0  0  0  0  0  0
  -32.9568  -26.9578   22.8231 C   0  0  0  0  0  0  0  0  0  0  0  0
  -25.1890  -19.3486   19.4578 C   0  0  0  0  0  0  0  0  0  0  0  0
  -26.7651  -20.9514   18.2921 C   0  0  0  0  0  0  0  0  0  0  0  0
  -27.6764  -19.3267   19.9043 C   0  0  0  0  0  0  0  0  0  0  0  0
  -23.5075  -31.6689   24.8514 C   0  0  1  0  0  0  0  0  0  0  0  0
  -31.6940  -26.7271   21.9924 C   0  0  1  0  0  0  0  0  0  0  0  0
  -23.2966  -30.2719   21.3248 C   0  0  1  0  0  0  0  0  0  0  0  0
  -26.2842  -19.0828   20.5092 C   0  0  2  0  0  0  0  0  0  0  0  0
  -22.5215  -24.7234   16.2896 C   0  0  0  0  0  0  0  0  0  0  0  0
  -21.0837  -25.9535   22.4909 C   0  0  0  0  0  0  0  0  0  0  0  0
  -21.5469  -24.3000   20.6689 C   0  0  0  0  0  0  0  0  0  0  0  0
  -19.9602  -26.1827   20.2683 C   0  0  0  0  0  0  0  0  0  0  0  0
  -25.9399  -26.2848   16.8831 C   0  0  0  0  0  0  0  0  0  0  0  0
  -31.2964  -28.0100   21.2597 C   0  0  0  0  0  0  0  0  0  0  0  0
  -29.8320  -27.9961   20.8484 C   0  0  0  0  0  0  0  0  0  1  0  0
  -22.4390  -26.6596   20.4098 C   0  0  1  0  0  0  0  0  0  0  0  0
  -23.5112  -25.7021   16.9022 C   0  0  2  0  0  0  0  0  0  0  0  0
  -21.2784  -25.7899   20.9702 C   0  0  0  0  0  0  0  0  0  0  0  0
  -25.6896  -16.6949   20.3480 N   0  0  0  0  0  0  0  0  0  0  0  0
  -26.1605  -17.6957   21.1114 N   0  0  0  0  0  0  0  0  0  0  0  0
  -23.4129  -28.8916   20.8500 N   0  0  0  0  0  0  0  0  0  0  0  0
  -27.7487  -20.6852   19.3440 N   0  0  0  0  0  0  0  0  0  0  0  0
  -26.9669  -18.1974   23.2814 N   0  0  0  0  0  0  0  0  0  0  0  0
  -26.0355  -13.7843   23.5106 N   0  0  0  0  0  0  0  0  0  0  0  0
  -29.5205  -21.3411   20.7557 N   0  0  0  0  0  0  0  0  0  0  0  0
  -23.3552  -31.4720   23.4258 N   0  0  0  0  0  0  0  0  0  0  0  0
  -22.6289  -26.5453   18.9679 N   0  0  0  0  0  0  0  0  0  0  0  0
  -24.8704  -25.3846   16.3803 N   0  3  0  0  0  0  0  0  0  0  0  0
  -32.1640  -25.7745   19.8024 O   0  0  0  0  0  0  0  0  0  0  0  0
  -26.8065  -15.5886   24.6974 O   0  0  0  0  0  0  0  0  0  0  0  0
  -23.7697  -29.1814   23.3648 O   0  0  0  0  0  0  0  0  0  0  0  0
  -21.1028  -28.5859   20.7710 O   0  0  0  0  0  0  0  0  0  0  0  0
  -24.1843  -24.8276   19.0515 O   0  0  0  0  0  0  0  0  0  0  0  0
  -28.6423  -22.8117   19.1912 O   0  0  0  0  0  0  0  0  0  0  0  0
  -24.0061  -10.6288   19.3917 O   0  0  0  0  0  0  0  0  0  0  0  0
  -29.5346  -29.2103   20.1602 O   0  0  0  0  0  0  0  0  0  1  0  0
  -22.9913   -6.7654   23.1928 F   0  0  0  0  0  0  0  0  0  0  0  0
  -21.4963   -9.4933   19.6251 F   0  0  0  0  0  0  0  0  0  0  0  0
  1  2  1  0  0  0  0
  1  5  2  0  0  0  0
  2  6  2  0  0  0  0
  3 10  2  0  0  0  0
  3 18  1  0  0  0  0
  4 11  1  0  0  0  0
  4 18  2  0  0  0  0
  5 22  1  0  0  0  0
  6 24  1  0  0  0  0
  7  9  2  0  0  0  0
  7 21  1  0  0  0  0
  8 12  2  0  0  0  0
  8 23  1  0  0  0  0
  9 26  1  0  0  0  0
 10 27  1  0  0  0  0
 11 27  2  0  0  0  0
 12 28  1  0  0  0  0
 13 14  2  0  0  0  0
 13 29  1  0  0  0  0
 14 30  1  0  0  0  0
 15 19  1  0  0  0  0
 15 26  2  0  0  0  0
 16 25  1  0  0  0  0
 16 28  2  0  0  0  0
 17 30  2  0  0  0  0
 17 31  1  0  0  0  0
 18 32  1  0  0  0  0
 19 21  2  0  0  0  0
 19 34  1  0  0  0  0
 20 32  1  0  0  0  0
 20 33  2  0  0  0  0
 20 35  1  0  0  0  0
 21 40  1  0  0  0  0
 22 24  2  0  0  0  0
 22 41  1  0  0  0  0
 23 25  2  0  0  0  0
 23 42  1  0  0  0  0
 24 52  1  0  0  0  0
 25 43  1  0  0  0  0
 26 72  1  0  0  0  0
 27 82  1  0  0  0  0
 28 83  1  0  0  0  0
 29 31  2  0  0  0  0
 29 82  1  0  0  0  0
 30 84  1  0  0  0  0
 31 85  1  0  0  0  0
 32 66  2  0  0  0  0
 33 67  1  0  0  0  0
 33 70  1  0  0  0  0
 34 53  1  0  0  0  0
 34 76  2  0  0  0  0
 35 71  1  0  0  0  0
 35 77  2  0  0  0  0
 36 54  1  0  0  0  0
 36 73  1  0  0  0  0
 36 78  2  0  0  0  0
 37 63  1  0  0  0  0
 37 68  1  0  0  0  0
 37 79  2  0  0  0  0
 38 64  1  0  0  0  0
 38 74  1  0  0  0  0
 38 80  2  0  0  0  0
 39 69  1  0  0  0  0
 39 72  1  0  0  0  0
 39 81  2  0  0  0  0
 40 44  1  0  0  0  0
 41 45  1  0  0  0  0
 42 54  1  0  0  0  0
 43 68  1  0  0  0  0
 44 48  1  0  0  0  0
 45 47  1  0  0  0  0
 46 49  1  0  0  0  0
 46 50  1  0  0  0  0
 47 52  1  0  0  0  0
 48 53  1  0  0  0  0
 49 55  1  0  0  0  0
 50 69  1  0  0  0  0
 51 55  1  0  0  0  0
 51 69  1  0  0  0  0
 52 73  1  0  0  0  0
 53 61  1  0  0  0  0
 54 68  1  0  0  0  0
 55 67  1  0  0  0  0
 56 64  1  0  0  0  0
 57 65  1  0  0  0  0
 58 65  1  0  0  0  0
 59 65  1  0  0  0  0
 60 75  1  0  0  0  0
 61 62  1  0  0  0  0
 62 83  1  0  0  0  0
 63 65  1  0  0  0  0
 63 74  1  0  0  0  0
 64 75  1  0  0  0  0
 66 67  1  0  0  0  0
M  CHG  1  75   1
M  ISO  4  39 100  62 101  72 100  83 101
M  END
> <Batch ID>
0142

> <Smiles>
CNC(C)C(=O)NC(C(=O)N1Cc2cc([101O:1][101CH2:1]CC3CCCc4ccc([100NH:0][100C:0](=O)N5CCCC(n6nc(-c7ccc(Oc8ccc(F)cc8F)cc7)c(C(N)=O)c6N)C5)cc4C3=O)ccc2CC1C(=O)NC1CCCc2ccccc21)C(C)(C)C

> <Shape>
0.234

> <Color>
0.073

> <Negative vol penalty>
0.000

$$$$

  -OEChem-04052302573D

 84 92  0     1  0  0  0  0  0999 V2000
  -17.9885  -31.3125   19.9832 C   0  0  0  0  0  0  0  0  0  0  0  0
  -19.2406  -30.9355   19.5084 C   0  0  0  0  0  0  0  0  0  0  0  0
  -24.5996   -9.8023   22.1605 C   0  0  0  0  0  0  0  0  0  0  0  0
  -24.3925  -11.2182   24.1072 C   0  0  0  0  0  0  0  0  0  0  0  0
  -17.7660  -31.4129   21.3560 C   0  0  0  0  0  0  0  0  0  0  0  0
  -20.2714  -30.6596   20.4061 C   0  0  0  0  0  0  0  0  0  0  0  0
  -24.6902  -26.4684   19.7629 C   0  0  0  0  0  0  0  0  0  0  0  0
  -24.1927   -8.7031   22.9166 C   0  0  0  0  0  0  0  0  0  0  0  0
  -23.9856  -10.1190   24.8633 C   0  0  0  0  0  0  0  0  0  0  0  0
  -26.0147  -26.5596   19.3373 C   0  0  0  0  0  0  0  0  0  0  0  0
  -21.2916   -7.4256   24.0932 C   0  0  0  0  0  0  0  0  0  0  0  0
  -20.3438   -6.5689   23.5335 C   0  0  0  0  0  0  0  0  0  0  0  0
  -26.7367  -26.7036   21.6345 C   0  0  0  0  0  0  0  0  0  0  0  0
  -29.4375  -20.3581   20.4342 C   0  0  0  0  0  0  0  0  0  0  0  0
  -21.9100   -4.7358   23.6871 C   0  0  0  0  0  0  0  0  0  0  0  0
  -27.1528  -20.2122   20.8358 C   0  0  0  0  0  0  0  0  0  0  0  0
  -24.6996  -11.0599   22.7558 C   0  0  0  0  0  0  0  0  0  0  0  0
  -24.2999  -13.0776   21.2469 C   0  0  0  0  0  0  0  0  0  0  0  0
  -18.7918  -31.1287   22.2712 C   0  0  0  0  0  0  0  0  0  0  0  0
  -24.3776  -26.5052   21.1294 C   0  0  0  0  0  0  0  0  0  0  0  0
  -20.0628  -30.7576   21.7923 C   0  0  0  0  0  0  0  0  0  0  0  0
  -25.4077  -26.6102   22.0750 C   0  0  0  0  0  0  0  0  0  0  0  0
  -28.3424  -19.5191   20.7906 C   0  0  0  0  0  0  0  0  0  0  0  0
  -23.8856   -8.8614   24.2680 C   0  0  0  0  0  0  0  0  0  0  0  0
  -27.0380  -26.6801   20.2729 C   0  0  0  0  0  0  0  0  0  0  0  0
  -22.5487   -6.9374   24.4498 C   0  0  0  0  0  0  0  0  0  0  0  0
  -20.6530   -5.2240   23.3305 C   0  0  0  0  0  0  0  0  0  0  0  0
  -22.8579   -5.5925   24.2468 C   0  0  0  0  0  0  0  0  0  0  0  0
  -25.1204  -12.1956   21.9753 C   0  0  0  0  0  0  0  0  0  0  0  0
  -29.0431  -21.6607   20.2203 C   0  0  0  0  0  0  0  0  0  0  0  0
  -25.1743  -13.9767   20.6870 C   0  0  0  0  0  0  0  0  0  0  0  0
  -22.8747  -13.0836   21.0903 C   0  0  0  0  0  0  0  0  0  0  0  0
  -22.6847  -28.4467   22.9918 C   0  0  0  0  0  0  0  0  0  0  0  0
  -30.1310  -25.6839   18.6611 C   0  0  0  0  0  0  0  0  0  0  0  0
  -23.3029  -26.1925   25.2410 C   0  0  0  0  0  0  0  0  0  0  0  0
  -25.3113  -23.6549   26.3241 C   0  0  0  0  0  0  0  0  0  0  0  0
  -29.5917  -17.3468   21.0489 C   0  0  0  0  0  0  0  0  0  0  0  0
  -18.5173  -31.2969   23.7446 C   0  0  0  0  0  0  0  0  0  0  0  0
  -22.9461  -26.3789   21.5734 C   0  0  0  0  0  0  0  0  0  0  0  0
  -25.1267  -26.6339   23.5545 C   0  0  0  0  0  0  0  0  0  0  0  0
  -19.5559  -30.6242   24.6384 C   0  0  0  0  0  0  0  0  0  0  0  0
  -30.2266  -13.9069   20.3848 C   0  0  0  0  0  0  0  0  0  0  0  0
  -20.9661  -30.9508   24.1572 C   0  0  0  0  0  0  0  0  0  0  0  0
  -28.8872  -13.2276   20.6795 C   0  0  0  0  0  0  0  0  0  0  0  0
  -30.5048  -15.0557   21.3525 C   0  0  0  0  0  0  0  0  0  0  0  0
  -28.0945  -15.3760   21.7486 C   0  0  0  0  0  0  0  0  0  0  0  0
  -21.1991  -30.4261   22.7352 C   0  0  1  0  0  0  0  0  0  0  0  0
  -22.7011  -26.9444   22.9689 C   0  0  1  0  0  0  0  0  0  0  0  0
  -27.7402  -14.2540   20.7590 C   0  0  2  0  0  0  0  0  0  0  0  0
  -25.5838  -22.0287   28.2159 C   0  0  0  0  0  0  0  0  0  0  0  0
  -32.0476  -24.1775   18.0148 C   0  0  0  0  0  0  0  0  0  0  0  0
  -30.2415  -24.6669   16.3749 C   0  0  0  0  0  0  0  0  0  0  0  0
  -24.3935  -28.4308   27.0047 C   0  0  0  0  0  0  0  0  0  0  0  0
  -25.4906  -26.6838   28.4233 C   0  0  0  0  0  0  0  0  0  0  0  0
  -23.0058  -26.7351   28.2101 C   0  0  0  0  0  0  0  0  0  0  0  0
  -25.0104  -21.3277   24.5205 C   0  0  0  0  0  0  0  0  0  0  0  0
  -29.8904  -22.8466   19.8300 C   0  0  0  0  0  0  0  0  0  0  0  0
  -28.6712  -26.1120   18.6402 C   0  0  0  0  0  0  0  0  0  1  0  0
  -29.7372  -23.1785   18.3388 C   0  0  0  0  0  0  0  0  0  0  0  0
  -24.4023  -25.9619   26.2495 C   0  0  1  0  0  0  0  0  0  0  0  0
  -24.9880  -22.2630   26.8364 C   0  0  2  0  0  0  0  0  0  0  0  0
  -30.5330  -24.4205   17.8661 C   0  0  0  0  0  0  0  0  0  0  0  0
  -24.3285  -26.9545   27.4440 C   0  0  0  0  0  0  0  0  0  0  0  0
  -26.4165  -12.5062   21.8879 N   0  0  0  0  0  0  0  0  0  0  0  0
  -26.4170  -13.5934   21.0978 N   0  0  0  0  0  0  0  0  0  0  0  0
  -23.7105  -26.5137   23.9385 N   0  0  0  0  0  0  0  0  0  0  0  0
  -29.3773  -15.9902   21.3720 N   0  0  0  0  0  0  0  0  0  0  0  0
  -24.9937  -15.0498   19.8881 N   0  0  0  0  0  0  0  0  0  0  0  0
  -22.1276  -12.0878   21.7342 N   0  0  0  0  0  0  0  0  0  0  0  0
  -28.4403  -18.1333   21.0691 N   0  0  0  0  0  0  0  0  0  0  0  0
  -21.4402  -28.9993   22.7561 N   0  0  0  0  0  0  0  0  0  0  0  0
  -24.3157  -24.5571   26.6336 N   0  0  0  0  0  0  0  0  0  0  0  0
  -25.5304  -21.2305   25.9087 N   0  3  0  0  0  0  0  0  0  0  0  0
  -22.2827  -13.9367   20.3866 O   0  0  0  0  0  0  0  0  0  0  0  0
  -23.7237  -29.0591   23.2086 O   0  0  0  0  0  0  0  0  0  0  0  0
  -30.9640  -26.3393   19.2921 O   0  0  0  0  0  0  0  0  0  0  0  0
  -22.1259  -26.0845   25.5941 O   0  0  0  0  0  0  0  0  0  0  0  0
  -26.3456  -23.9164   25.7137 O   0  0  0  0  0  0  0  0  0  0  0  0
  -30.7095  -17.7734   20.7479 O   0  0  0  0  0  0  0  0  0  0  0  0
  -23.4883   -7.7891   25.0061 O   0  0  0  0  0  0  0  0  0  0  0  0
  -28.3316  -26.7699   19.8601 O   0  0  0  0  0  0  0  0  0  1  0  0
  -19.7421   -4.4010   22.7944 F   0  0  0  0  0  0  0  0  0  0  0  0
  -24.0634   -5.1175   24.5885 F   0  0  0  0  0  0  0  0  0  0  0  0
  -27.3588  -21.8677   20.4495 S   0  0  0  0  0  0  0  0  0  0  0  0
  1  2  1  0  0  0  0
  1  5  2  0  0  0  0
  2  6  2  0  0  0  0
  3  8  2  0  0  0  0
  3 17  1  0  0  0  0
  4  9  1  0  0  0  0
  4 17  2  0  0  0  0
  5 19  1  0  0  0  0
  6 21  1  0  0  0  0
  7 10  2  0  0  0  0
  7 20  1  0  0  0  0
  8 24  1  0  0  0  0
  9 24  2  0  0  0  0
 10 25  1  0  0  0  0
 11 12  2  0  0  0  0
 11 26  1  0  0  0  0
 12 27  1  0  0  0  0
 13 22  1  0  0  0  0
 13 25  2  0  0  0  0
 14 23  1  0  0  0  0
 14 30  2  0  0  0  0
 15 27  2  0  0  0  0
 15 28  1  0  0  0  0
 16 23  2  0  0  0  0
 16 84  1  0  0  0  0
 17 29  1  0  0  0  0
 18 29  1  0  0  0  0
 18 31  2  0  0  0  0
 18 32  1  0  0  0  0
 19 21  2  0  0  0  0
 19 38  1  0  0  0  0
 20 22  2  0  0  0  0
 20 39  1  0  0  0  0
 21 47  1  0  0  0  0
 22 40  1  0  0  0  0
 23 70  1  0  0  0  0
 24 80  1  0  0  0  0
 25 81  1  0  0  0  0
 26 28  2  0  0  0  0
 26 80  1  0  0  0  0
 27 82  1  0  0  0  0
 28 83  1  0  0  0  0
 29 64  2  0  0  0  0
 30 57  1  0  0  0  0
 30 84  1  0  0  0  0
 31 65  1  0  0  0  0
 31 68  1  0  0  0  0
 32 69  1  0  0  0  0
 32 74  2  0  0  0  0
 33 48  1  0  0  0  0
 33 71  1  0  0  0  0
 33 75  2  0  0  0  0
 34 58  1  0  0  0  0
 34 62  1  0  0  0  0
 34 76  2  0  0  0  0
 35 60  1  0  0  0  0
 35 66  1  0  0  0  0
 35 77  2  0  0  0  0
 36 61  1  0  0  0  0
 36 72  1  0  0  0  0
 36 78  2  0  0  0  0
 37 67  1  0  0  0  0
 37 70  1  0  0  0  0
 37 79  2  0  0  0  0
 38 41  1  0  0  0  0
 39 48  1  0  0  0  0
 40 66  1  0  0  0  0
 41 43  1  0  0  0  0
 42 44  1  0  0  0  0
 42 45  1  0  0  0  0
 43 47  1  0  0  0  0
 44 49  1  0  0  0  0
 45 67  1  0  0  0  0
 46 49  1  0  0  0  0
 46 67  1  0  0  0  0
 47 71  1  0  0  0  0
 48 66  1  0  0  0  0
 49 65  1  0  0  0  0
 50 61  1  0  0  0  0
 51 62  1  0  0  0  0
 52 62  1  0  0  0  0
 53 63  1  0  0  0  0
 54 63  1  0  0  0  0
 55 63  1  0  0  0  0
 56 73  1  0  0  0  0
 57 59  1  0  0  0  0
 58 81  1  0  0  0  0
 59 62  1  0  0  0  0
 60 63  1  0  0  0  0
 60 72  1  0  0  0  0
 61 73  1  0  0  0  0
 64 65  1  0  0  0  0
M  CHG  1  73   1
M  ISO  4  37 100  58 101  70 100  81 101
M  END
> <Batch ID>
0142

> <Smiles>
CNC(C)C(=O)NC(C(=O)N1Cc2cc([101O:1][101CH2:1]C(=O)C(C)(C)CCc3cc([100NH:0][100C:0](=O)N4CCCC(n5nc(-c6ccc(Oc7ccc(F)cc7F)cc6)c(C(N)=O)c5N)C4)cs3)ccc2CC1C(=O)NC1CCCc2ccccc21)C(C)(C)C

> <Shape>
0.257

> <Color>
0.139

> <Negative vol penalty>
0.000

$$$$

  -OEChem-04052302573D

 86 95  0     1  0  0  0  0  0999 V2000
  -31.8414  -12.7187   21.5852 C   0  0  0  0  0  0  0  0  0  0  0  0
  -31.2528  -13.8488   22.1437 C   0  0  0  0  0  0  0  0  0  0  0  0
  -22.8260  -30.6283   20.6209 C   0  0  0  0  0  0  0  0  0  0  0  0
  -22.7054  -28.8452   22.2466 C   0  0  0  0  0  0  0  0  0  0  0  0
  -31.2302  -12.0748   20.5102 C   0  0  0  0  0  0  0  0  0  0  0  0
  -30.0530  -14.3362   21.6267 C   0  0  0  0  0  0  0  0  0  0  0  0
  -26.7294  -15.5543   25.2481 C   0  0  0  0  0  0  0  0  0  0  0  0
  -21.4409  -30.5792   20.4642 C   0  0  0  0  0  0  0  0  0  0  0  0
  -21.3202  -28.7961   22.0899 C   0  0  0  0  0  0  0  0  0  0  0  0
  -26.9264  -16.7642   25.9123 C   0  0  0  0  0  0  0  0  0  0  0  0
  -18.6317  -30.5481   23.1497 C   0  0  0  0  0  0  0  0  0  0  0  0
  -17.8528  -30.4702   24.3042 C   0  0  0  0  0  0  0  0  0  0  0  0
  -28.4317  -23.0851   22.6897 C   0  0  0  0  0  0  0  0  0  0  0  0
  -29.0061  -20.7975   22.1663 C   0  0  0  0  0  0  0  0  0  0  0  0
  -25.2361  -17.7908   24.5309 C   0  0  0  0  0  0  0  0  0  0  0  0
  -29.6307  -22.5759   20.6549 C   0  0  0  0  0  0  0  0  0  0  0  0
  -16.9342  -28.3694   23.5426 C   0  0  0  0  0  0  0  0  0  0  0  0
  -23.4583  -29.7612   21.5120 C   0  0  0  0  0  0  0  0  0  0  0  0
  -28.4150  -21.7298   23.0190 C   0  0  0  0  0  0  0  0  0  0  0  0
  -25.6142  -30.5967   22.5897 C   0  0  0  0  0  0  0  0  0  0  0  0
  -30.0174  -12.5490   19.9859 C   0  0  0  0  0  0  0  0  0  0  0  0
  -25.7904  -15.4562   24.2113 C   0  0  0  0  0  0  0  0  0  0  0  0
  -29.4256  -13.6988   20.5427 C   0  0  0  0  0  0  0  0  0  0  0  0
  -25.0272  -16.5779   23.8569 C   0  0  0  0  0  0  0  0  0  0  0  0
  -29.0395  -23.5081   21.5076 C   0  0  0  0  0  0  0  0  0  0  0  0
  -20.6879  -29.6632   21.1987 C   0  0  0  0  0  0  0  0  0  0  0  0
  -26.1817  -17.8834   25.5518 C   0  0  0  0  0  0  0  0  0  0  0  0
  -18.5618  -29.5367   22.1916 C   0  0  0  0  0  0  0  0  0  0  0  0
  -17.0041  -29.3808   24.5007 C   0  0  0  0  0  0  0  0  0  0  0  0
  -29.6140  -21.2205   20.9843 C   0  0  0  0  0  0  0  0  0  0  0  0
  -17.7131  -28.4473   22.3881 C   0  0  0  0  0  0  0  0  0  0  0  0
  -24.8892  -29.8111   21.6739 C   0  0  0  0  0  0  0  0  0  0  0  0
  -26.9290  -30.2836   22.3452 C   0  0  0  0  0  0  0  0  0  0  0  0
  -27.7718  -21.2820   24.2672 C   0  0  0  0  0  0  0  0  0  0  0  0
  -25.1416  -31.5263   23.5736 C   0  0  0  0  0  0  0  0  0  0  0  0
  -25.9359  -14.7724   21.1105 C   0  0  0  0  0  0  0  0  0  0  0  0
  -22.7019  -14.8942   21.3298 C   0  0  0  0  0  0  0  0  0  0  0  0
  -19.9517  -16.0637   22.9778 C   0  0  0  0  0  0  0  0  0  0  0  0
  -29.6188  -25.4717   20.0396 C   0  0  0  0  0  0  0  0  0  0  0  0
  -29.4186  -11.8472   18.7927 C   0  0  0  0  0  0  0  0  0  0  0  0
  -25.5709  -14.1371   23.5227 C   0  0  0  0  0  0  0  0  0  0  0  0
  -23.9922  -16.5198   22.7643 C   0  0  0  0  0  0  0  0  0  0  0  0
  -27.9561  -12.2077   18.5448 C   0  0  0  0  0  0  0  0  0  0  0  0
  -29.8387  -28.8155   18.8362 C   0  0  0  0  0  0  0  0  0  0  0  0
  -30.3277  -21.0980   26.8257 C   0  0  0  0  0  0  0  0  0  0  0  0
  -27.7566  -13.7176   18.6297 C   0  0  0  0  0  0  0  0  0  0  0  0
  -28.6640  -29.5232   19.5155 C   0  0  0  0  0  0  0  0  0  0  0  0
  -29.0520  -21.2518   27.6473 C   0  0  0  0  0  0  0  0  0  0  0  0
  -29.9179  -21.5557   25.4317 C   0  0  0  0  0  0  0  0  0  0  0  0
  -29.4897  -27.3788   18.4517 C   0  0  0  0  0  0  0  0  0  0  0  0
  -27.7824  -27.2632   20.2240 C   0  0  0  0  0  0  0  0  0  0  0  0
  -28.1118  -14.2434   20.0257 C   0  0  1  0  0  0  0  0  0  0  0  0
  -24.9527  -14.2827   22.1356 C   0  0  1  0  0  0  0  0  0  0  0  0
  -28.1074  -28.6924   20.6883 C   0  0  2  0  0  0  0  0  0  0  0  0
  -27.9363  -20.8198   26.6908 C   0  0  2  0  0  0  0  0  0  0  0  0
  -17.4438  -16.0253   22.8992 C   0  0  0  0  0  0  0  0  0  0  0  0
  -22.7459  -16.8939   19.0257 C   0  0  0  0  0  0  0  0  0  0  0  0
  -20.3957  -17.5219   19.6177 C   0  0  0  0  0  0  0  0  0  0  0  0
  -20.9179  -15.1921   18.8952 C   0  0  0  0  0  0  0  0  0  0  0  0
  -19.7728  -14.7659   25.6316 C   0  0  0  0  0  0  0  0  0  0  0  0
  -27.6783  -19.3206   26.7140 C   0  0  0  0  0  0  0  0  0  1  0  0
  -21.6602  -15.9767   21.1812 C   0  0  1  0  0  0  0  0  0  0  0  0
  -18.6935  -15.3647   23.4601 C   0  0  2  0  0  0  0  0  0  0  0  0
  -21.4507  -16.3981   19.6993 C   0  0  0  0  0  0  0  0  0  0  0  0
  -25.6779  -29.0558   20.9048 N   0  0  0  0  0  0  0  0  0  0  0  0
  -26.9122  -29.3655   21.3368 N   0  0  0  0  0  0  0  0  0  0  0  0
  -28.4873  -21.2083   25.3761 N   0  0  0  0  0  0  0  0  0  0  0  0
  -23.8188  -15.2091   22.1166 N   0  0  0  0  0  0  0  0  0  0  0  0
  -28.9730  -26.6515   19.6131 N   0  0  0  0  0  0  0  0  0  0  0  0
  -28.0863  -30.7070   22.8965 N   0  0  0  0  0  0  0  0  0  0  0  0
  -23.7598  -31.7288   23.6921 N   0  0  0  0  0  0  0  0  0  0  0  0
  -29.0579  -24.8850   21.1735 N   0  0  0  0  0  0  0  0  0  0  0  0
  -27.0432  -13.9596   20.9596 N   0  0  0  0  0  0  0  0  0  0  0  0
  -20.4561  -15.4773   21.8363 N   0  0  0  0  0  0  0  0  0  0  0  0
  -26.4814  -20.9610   24.2586 N   0  3  0  0  0  0  0  0  0  0  0  0
  -18.6177  -15.4027   24.9480 N   0  3  0  0  0  0  0  0  0  0  0  0
  -25.9222  -32.1709   24.3143 O   0  0  0  0  0  0  0  0  0  0  0  0
  -25.7063  -15.8101   20.5004 O   0  0  0  0  0  0  0  0  0  0  0  0
  -22.5273  -13.8067   20.7744 O   0  0  0  0  0  0  0  0  0  0  0  0
  -20.4364  -17.0352   23.5538 O   0  0  0  0  0  0  0  0  0  0  0  0
  -30.6139  -25.0304   19.4590 O   0  0  0  0  0  0  0  0  0  0  0  0
  -19.3363  -29.6152   21.0463 O   0  0  0  0  0  0  0  0  0  0  0  0
  -26.3725  -19.0658   26.1980 O   0  0  0  0  0  0  0  0  0  1  0  0
  -16.2574  -29.3053   25.6101 F   0  0  0  0  0  0  0  0  0  0  0  0
  -30.1816  -20.3252   20.1655 F   0  0  0  0  0  0  0  0  0  0  0  0
  -17.6425  -27.4721   21.4718 F   0  0  0  0  0  0  0  0  0  0  0  0
  1  2  1  0  0  0  0
  1  5  2  0  0  0  0
  2  6  2  0  0  0  0
  3  8  2  0  0  0  0
  3 18  1  0  0  0  0
  4  9  1  0  0  0  0
  4 18  2  0  0  0  0
  5 21  1  0  0  0  0
  6 23  1  0  0  0  0
  7 10  2  0  0  0  0
  7 22  1  0  0  0  0
  8 26  1  0  0  0  0
  9 26  2  0  0  0  0
 10 27  1  0  0  0  0
 11 12  2  0  0  0  0
 11 28  1  0  0  0  0
 12 29  1  0  0  0  0
 13 19  2  0  0  0  0
 13 25  1  0  0  0  0
 14 19  1  0  0  0  0
 14 30  2  0  0  0  0
 15 24  1  0  0  0  0
 15 27  2  0  0  0  0
 16 25  2  0  0  0  0
 16 30  1  0  0  0  0
 17 29  2  0  0  0  0
 17 31  1  0  0  0  0
 18 32  1  0  0  0  0
 19 34  1  0  0  0  0
 20 32  1  0  0  0  0
 20 33  2  0  0  0  0
 20 35  1  0  0  0  0
 21 23  2  0  0  0  0
 21 40  1  0  0  0  0
 22 24  2  0  0  0  0
 22 41  1  0  0  0  0
 23 52  1  0  0  0  0
 24 42  1  0  0  0  0
 25 72  1  0  0  0  0
 26 82  1  0  0  0  0
 27 83  1  0  0  0  0
 28 31  2  0  0  0  0
 28 82  1  0  0  0  0
 29 84  1  0  0  0  0
 30 85  1  0  0  0  0
 31 86  1  0  0  0  0
 32 65  2  0  0  0  0
 33 66  1  0  0  0  0
 33 70  1  0  0  0  0
 34 67  1  0  0  0  0
 34 75  2  0  0  0  0
 35 71  1  0  0  0  0
 35 77  2  0  0  0  0
 36 53  1  0  0  0  0
 36 73  1  0  0  0  0
 36 78  2  0  0  0  0
 37 62  1  0  0  0  0
 37 68  1  0  0  0  0
 37 79  2  0  0  0  0
 38 63  1  0  0  0  0
 38 74  1  0  0  0  0
 38 80  2  0  0  0  0
 39 69  1  0  0  0  0
 39 72  1  0  0  0  0
 39 81  2  0  0  0  0
 40 43  1  0  0  0  0
 41 53  1  0  0  0  0
 42 68  1  0  0  0  0
 43 46  1  0  0  0  0
 44 47  1  0  0  0  0
 44 50  1  0  0  0  0
 45 48  1  0  0  0  0
 45 49  1  0  0  0  0
 46 52  1  0  0  0  0
 47 54  1  0  0  0  0
 48 55  1  0  0  0  0
 49 67  1  0  0  0  0
 50 69  1  0  0  0  0
 51 54  1  0  0  0  0
 51 69  1  0  0  0  0
 52 73  1  0  0  0  0
 53 68  1  0  0  0  0
 54 66  1  0  0  0  0
 55 61  1  0  0  0  0
 55 67  1  0  0  0  0
 56 63  1  0  0  0  0
 57 64  1  0  0  0  0
 58 64  1  0  0  0  0
 59 64  1  0  0  0  0
 60 76  1  0  0  0  0
 61 83  1  0  0  0  0
 62 64  1  0  0  0  0
 62 74  1  0  0  0  0
 63 76  1  0  0  0  0
 65 66  1  0  0  0  0
M  CHG  2  75   1  76   1
M  ISO  4  39 100  61 101  72 100  83 101
M  END
> <Batch ID>
0142

> <Smiles>
CNC(C)C(=O)NC(C(=O)N1Cc2cc([101O:1][101CH2:1]C3CCCN3C(=N)c3cc(F)cc([100NH:0][100C:0](=O)N4CCCC(n5nc(-c6ccc(Oc7ccc(F)cc7F)cc6)c(C(N)=O)c5N)C4)c3)ccc2CC1C(=O)NC1CCCc2ccccc21)C(C)(C)C

> <Shape>
0.249

> <Color>
0.076

> <Negative vol penalty>
0.000

$$$$

  -OEChem-04052302573D

 86 94  0     1  0  0  0  0  0999 V2000
  -18.3971  -14.6560   24.0993 C   0  0  0  0  0  0  0  0  0  0  0  0
  -19.5257  -15.3657   24.4968 C   0  0  0  0  0  0  0  0  0  0  0  0
  -23.0003   -9.8940   19.9808 C   0  0  0  0  0  0  0  0  0  0  0  0
  -23.7252   -9.9446   22.2849 C   0  0  0  0  0  0  0  0  0  0  0  0
  -17.8041  -13.7455   24.9729 C   0  0  0  0  0  0  0  0  0  0  0  0
  -20.0614  -15.1660   25.7687 C   0  0  0  0  0  0  0  0  0  0  0  0
  -25.1059  -14.7257   25.7051 C   0  0  0  0  0  0  0  0  0  0  0  0
  -22.2335   -8.7597   20.2468 C   0  0  0  0  0  0  0  0  0  0  0  0
  -22.9583   -8.8102   22.5510 C   0  0  0  0  0  0  0  0  0  0  0  0
  -25.8461  -15.9011   25.5857 C   0  0  0  0  0  0  0  0  0  0  0  0
  -23.2021   -5.4713   22.0787 C   0  0  0  0  0  0  0  0  0  0  0  0
  -23.7894   -4.4539   22.8308 C   0  0  0  0  0  0  0  0  0  0  0  0
  -26.2446  -15.8846   27.9648 C   0  0  0  0  0  0  0  0  0  0  0  0
  -31.8205  -17.4765   21.6978 C   0  0  0  0  0  0  0  0  0  0  0  0
  -22.0653   -4.6969   24.5058 C   0  0  0  0  0  0  0  0  0  0  0  0
  -23.7462  -10.4865   20.9998 C   0  0  0  0  0  0  0  0  0  0  0  0
  -24.1320  -13.0020   20.8242 C   0  0  0  0  0  0  0  0  0  0  0  0
  -18.3384  -13.5275   26.2526 C   0  0  0  0  0  0  0  0  0  0  0  0
  -24.9199  -14.1259   26.9589 C   0  0  0  0  0  0  0  0  0  0  0  0
  -19.4741  -14.2527   26.6607 C   0  0  0  0  0  0  0  0  0  0  0  0
  -25.5037  -14.7002   28.0970 C   0  0  0  0  0  0  0  0  0  0  0  0
  -31.9192  -18.7499   22.3293 C   0  0  0  0  0  0  0  0  0  0  0  0
  -22.2125   -8.2177   21.5320 C   0  0  0  0  0  0  0  0  0  0  0  0
  -26.4132  -16.4823   26.7161 C   0  0  0  0  0  0  0  0  0  0  0  0
  -22.0465   -6.1016   22.5402 C   0  0  0  0  0  0  0  0  0  0  0  0
  -23.2210   -4.0667   24.0443 C   0  0  0  0  0  0  0  0  0  0  0  0
  -21.4781   -5.7144   23.7537 C   0  0  0  0  0  0  0  0  0  0  0  0
  -24.5389  -11.6580   20.7254 C   0  0  0  0  0  0  0  0  0  0  0  0
  -30.7662  -19.0829   23.0054 C   0  0  0  0  0  0  0  0  0  0  0  0
  -25.2419  -13.7245   20.4600 C   0  0  0  0  0  0  0  0  0  0  0  0
  -30.5957  -16.8845   21.9155 C   0  0  0  0  0  0  0  0  0  0  0  0
  -22.8641  -13.5486   21.2106 C   0  0  0  0  0  0  0  0  0  0  0  0
  -22.3983  -13.4672   28.7785 C   0  0  0  0  0  0  0  0  0  0  0  0
  -24.6084  -11.9695   30.6210 C   0  0  0  0  0  0  0  0  0  0  0  0
  -27.8730  -11.6844   31.5740 C   0  0  0  0  0  0  0  0  0  0  0  0
  -30.7216  -14.6844   20.6949 C   0  0  0  0  0  0  0  0  0  0  0  0
  -17.6348  -12.5678   27.1792 C   0  0  0  0  0  0  0  0  0  0  0  0
  -24.1411  -12.8436   27.0670 C   0  0  0  0  0  0  0  0  0  0  0  0
  -25.3506  -14.0847   29.4631 C   0  0  0  0  0  0  0  0  0  0  0  0
  -18.4851  -12.1393   28.3724 C   0  0  0  0  0  0  0  0  0  0  0  0
  -29.6031  -12.2322   18.3684 C   0  0  0  0  0  0  0  0  0  0  0  0
  -19.1558  -13.3506   29.0124 C   0  0  0  0  0  0  0  0  0  0  0  0
  -28.1524  -11.9748   18.7823 C   0  0  0  0  0  0  0  0  0  0  0  0
  -30.5035  -12.4752   19.5783 C   0  0  0  0  0  0  0  0  0  0  0  0
  -28.5881  -13.2642   20.9118 C   0  0  0  0  0  0  0  0  0  0  0  0
  -20.0992  -14.0456   28.0233 C   0  0  1  0  0  0  0  0  0  0  0  0
  -23.5841  -12.5990   28.4660 C   0  0  1  0  0  0  0  0  0  0  0  0
  -27.6306  -13.0782   19.7234 C   0  0  2  0  0  0  0  0  0  0  0  0
  -33.1267  -19.6068   22.2597 C   0  0  0  0  0  0  0  0  0  0  0  0
  -29.3668  -10.3969   33.1258 C   0  0  0  0  0  0  0  0  0  0  0  0
  -23.5818  -13.6189   32.9738 C   0  0  0  0  0  0  0  0  0  0  0  0
  -25.6700  -13.0170   34.2169 C   0  0  0  0  0  0  0  0  0  0  0  0
  -24.0797  -11.2283   33.5139 C   0  0  0  0  0  0  0  0  0  0  0  0
  -31.9918  -19.8365   25.7598 C   0  0  0  0  0  0  0  0  0  0  0  0
  -30.2879  -21.6551   25.8997 C   0  0  0  0  0  0  0  0  0  0  0  0
  -27.8386  -20.3060   27.4911 C   0  0  0  0  0  0  0  0  0  0  0  0
  -29.9528  -19.3380   28.4315 C   0  0  0  0  0  0  0  0  0  0  0  0
  -29.4589  -10.5911   29.3271 C   0  0  0  0  0  0  0  0  0  0  0  0
  -30.4590  -20.3325   23.8006 C   0  0  0  0  0  0  0  0  0  0  0  0
  -29.5034  -19.1959   25.8800 C   0  0  0  0  0  0  0  0  0  0  0  0
  -28.1887  -17.8307   27.5440 C   0  0  0  0  0  0  0  0  0  1  0  0
  -25.4997  -12.3804   31.7680 C   0  0  1  0  0  0  0  0  0  0  0  0
  -28.7757  -10.4735   31.7267 C   0  0  2  0  0  0  0  0  0  0  0  0
  -24.7092  -12.5740   33.0928 C   0  0  0  0  0  0  0  0  0  0  0  0
  -30.5548  -20.2358   25.3678 C   0  0  0  0  0  0  0  0  0  0  0  0
  -28.9001  -19.1992   27.3248 C   0  0  0  0  0  0  0  0  0  0  0  0
  -25.8082  -11.5313   20.3294 N   0  0  0  0  0  0  0  0  0  0  0  0
  -26.2084  -12.8050   20.1760 N   0  0  0  0  0  0  0  0  0  0  0  0
  -24.5750  -12.8346   29.5180 N   0  0  0  0  0  0  0  0  0  0  0  0
  -29.9486  -13.5361   20.4218 N   0  0  0  0  0  0  0  0  0  0  0  0
  -25.4757  -15.0501   20.3582 N   0  0  0  0  0  0  0  0  0  0  0  0
  -21.8321  -12.6646   21.5538 N   0  0  0  0  0  0  0  0  0  0  0  0
  -30.0774  -15.6396   21.4806 N   0  0  0  0  0  0  0  0  0  0  0  0
  -21.3393  -13.3090   27.9050 N   0  0  0  0  0  0  0  0  0  0  0  0
  -26.5562  -11.3771   31.8438 N   0  0  0  0  0  0  0  0  0  0  0  0
  -29.8959  -10.5355   30.7459 N   0  3  0  0  0  0  0  0  0  0  0  0
  -22.6476  -14.7840   21.2345 O   0  0  0  0  0  0  0  0  0  0  0  0
  -22.4404  -14.2235   29.7418 O   0  0  0  0  0  0  0  0  0  0  0  0
  -23.9711  -10.9162   30.6976 O   0  0  0  0  0  0  0  0  0  0  0  0
  -28.2945  -12.7930   31.2515 O   0  0  0  0  0  0  0  0  0  0  0  0
  -31.8603  -14.8232   20.2411 O   0  0  0  0  0  0  0  0  0  0  0  0
  -21.4642   -7.1110   21.7920 O   0  0  0  0  0  0  0  0  0  0  0  0
  -27.1406  -17.6377   26.6017 O   0  0  0  0  0  0  0  0  0  1  0  0
  -23.7841   -3.0886   24.7656 F   0  0  0  0  0  0  0  0  0  0  0  0
  -20.3672   -6.3154   24.2016 F   0  0  0  0  0  0  0  0  0  0  0  0
  -29.5712  -17.8630   22.8775 S   0  0  0  0  0  0  0  0  0  0  0  0
  1  2  1  0  0  0  0
  1  5  2  0  0  0  0
  2  6  2  0  0  0  0
  3  8  2  0  0  0  0
  3 16  1  0  0  0  0
  4  9  1  0  0  0  0
  4 16  2  0  0  0  0
  5 18  1  0  0  0  0
  6 20  1  0  0  0  0
  7 10  2  0  0  0  0
  7 19  1  0  0  0  0
  8 23  1  0  0  0  0
  9 23  2  0  0  0  0
 10 24  1  0  0  0  0
 11 12  2  0  0  0  0
 11 25  1  0  0  0  0
 12 26  1  0  0  0  0
 13 21  1  0  0  0  0
 13 24  2  0  0  0  0
 14 22  1  0  0  0  0
 14 31  2  0  0  0  0
 15 26  2  0  0  0  0
 15 27  1  0  0  0  0
 16 28  1  0  0  0  0
 17 28  1  0  0  0  0
 17 30  2  0  0  0  0
 17 32  1  0  0  0  0
 18 20  2  0  0  0  0
 18 37  1  0  0  0  0
 19 21  2  0  0  0  0
 19 38  1  0  0  0  0
 20 46  1  0  0  0  0
 21 39  1  0  0  0  0
 22 29  2  0  0  0  0
 22 49  1  0  0  0  0
 23 82  1  0  0  0  0
 24 83  1  0  0  0  0
 25 27  2  0  0  0  0
 25 82  1  0  0  0  0
 26 84  1  0  0  0  0
 27 85  1  0  0  0  0
 28 67  2  0  0  0  0
 29 59  1  0  0  0  0
 29 86  1  0  0  0  0
 30 68  1  0  0  0  0
 30 71  1  0  0  0  0
 31 73  1  0  0  0  0
 31 86  1  0  0  0  0
 32 72  1  0  0  0  0
 32 77  2  0  0  0  0
 33 47  1  0  0  0  0
 33 74  1  0  0  0  0
 33 78  2  0  0  0  0
 34 62  1  0  0  0  0
 34 69  1  0  0  0  0
 34 79  2  0  0  0  0
 35 63  1  0  0  0  0
 35 75  1  0  0  0  0
 35 80  2  0  0  0  0
 36 70  1  0  0  0  0
 36 73  1  0  0  0  0
 36 81  2  0  0  0  0
 37 40  1  0  0  0  0
 38 47  1  0  0  0  0
 39 69  1  0  0  0  0
 40 42  1  0  0  0  0
 41 43  1  0  0  0  0
 41 44  1  0  0  0  0
 42 46  1  0  0  0  0
 43 48  1  0  0  0  0
 44 70  1  0  0  0  0
 45 48  1  0  0  0  0
 45 70  1  0  0  0  0
 46 74  1  0  0  0  0
 47 69  1  0  0  0  0
 48 68  1  0  0  0  0
 50 63  1  0  0  0  0
 51 64  1  0  0  0  0
 52 64  1  0  0  0  0
 53 64  1  0  0  0  0
 54 65  1  0  0  0  0
 55 65  1  0  0  0  0
 56 66  1  0  0  0  0
 57 66  1  0  0  0  0
 58 76  1  0  0  0  0
 59 65  1  0  0  0  0
 60 65  1  0  0  0  0
 60 66  1  0  0  0  0
 61 66  1  0  0  0  0
 61 83  1  0  0  0  0
 62 64  1  0  0  0  0
 62 75  1  0  0  0  0
 63 76  1  0  0  0  0
 67 68  1  0  0  0  0
M  CHG  1  76   1
M  ISO  4  36 100  61 101  73 100  83 101
M  END
> <Batch ID>
0142

> <Smiles>
CNC(C)C(=O)NC(C(=O)N1Cc2cc([101O:1][101CH2:1]C(C)(C)CC(C)(C)Cc3sc([100NH:0][100C:0](=O)N4CCCC(n5nc(-c6ccc(Oc7ccc(F)cc7F)cc6)c(C(N)=O)c5N)C4)cc3C)ccc2CC1C(=O)NC1CCCc2ccccc21)C(C)(C)C

> <Shape>
0.172

> <Color>
0.192

> <Negative vol penalty>
0.000

$$$$

  -OEChem-04052302573D

 86 95  0     1  0  0  0  0  0999 V2000
  -24.8541  -31.7028   20.0197 C   0  0  0  0  0  0  0  0  0  0  0  0
  -25.6937  -30.7863   20.6446 C   0  0  0  0  0  0  0  0  0  0  0  0
  -23.0703   -9.8270   19.9744 C   0  0  0  0  0  0  0  0  0  0  0  0
  -23.8012   -9.8944   22.2763 C   0  0  0  0  0  0  0  0  0  0  0  0
  -23.5830  -31.9480   20.5377 C   0  0  0  0  0  0  0  0  0  0  0  0
  -25.2631  -30.1153   21.7885 C   0  0  0  0  0  0  0  0  0  0  0  0
  -26.3381  -25.1683   21.6592 C   0  0  0  0  0  0  0  0  0  0  0  0
  -22.3125   -8.6884   20.2483 C   0  0  0  0  0  0  0  0  0  0  0  0
  -23.0433   -8.7558   22.5502 C   0  0  0  0  0  0  0  0  0  0  0  0
  -27.6509  -24.7944   21.9427 C   0  0  0  0  0  0  0  0  0  0  0  0
  -19.8004   -8.0052   23.1340 C   0  0  0  0  0  0  0  0  0  0  0  0
  -19.0284   -8.0065   24.2957 C   0  0  0  0  0  0  0  0  0  0  0  0
  -31.2129  -17.5938   20.5023 C   0  0  0  0  0  0  0  0  0  0  0  0
  -26.9943  -24.2158   24.1907 C   0  0  0  0  0  0  0  0  0  0  0  0
  -29.5465  -17.8546   22.2633 C   0  0  0  0  0  0  0  0  0  0  0  0
  -20.2421   -6.0803   25.1044 C   0  0  0  0  0  0  0  0  0  0  0  0
  -23.8147  -10.4299   20.9884 C   0  0  0  0  0  0  0  0  0  0  0  0
  -24.1818  -12.9473   20.7991 C   0  0  0  0  0  0  0  0  0  0  0  0
  -23.1330  -31.2725   21.6830 C   0  0  0  0  0  0  0  0  0  0  0  0
  -25.3440  -25.0789   22.6442 C   0  0  0  0  0  0  0  0  0  0  0  0
  -23.9854  -30.3527   22.3231 C   0  0  0  0  0  0  0  0  0  0  0  0
  -31.3509  -18.9617   20.5149 C   0  0  0  0  0  0  0  0  0  0  0  0
  -25.6691  -24.5868   23.9164 C   0  0  0  0  0  0  0  0  0  0  0  0
  -30.6231  -19.7610   21.3639 C   0  0  0  0  0  0  0  0  0  0  0  0
  -29.7093  -19.2420   22.2516 C   0  0  0  0  0  0  0  0  0  0  0  0
  -30.2934  -17.0358   21.3942 C   0  0  0  0  0  0  0  0  0  0  0  0
  -22.2990   -8.1529   21.5362 C   0  0  0  0  0  0  0  0  0  0  0  0
  -27.9798  -24.3207   23.2095 C   0  0  0  0  0  0  0  0  0  0  0  0
  -20.7933   -7.0415   22.9575 C   0  0  0  0  0  0  0  0  0  0  0  0
  -19.2492   -7.0441   25.2809 C   0  0  0  0  0  0  0  0  0  0  0  0
  -21.0141   -6.0791   23.9427 C   0  0  0  0  0  0  0  0  0  0  0  0
  -24.5982  -11.6057   20.7059 C   0  0  0  0  0  0  0  0  0  0  0  0
  -25.2855  -13.6759   20.4282 C   0  0  0  0  0  0  0  0  0  0  0  0
  -22.9110  -13.4866   21.1863 C   0  0  0  0  0  0  0  0  0  0  0  0
  -23.4444  -27.1639   24.1098 C   0  0  0  0  0  0  0  0  0  0  0  0
  -31.0719  -22.4561   22.9213 C   0  0  0  0  0  0  0  0  0  0  0  0
  -22.1421  -24.4841   25.3922 C   0  0  0  0  0  0  0  0  0  0  0  0
  -22.5215  -21.2021   26.2476 C   0  0  0  0  0  0  0  0  0  0  0  0
  -30.7586  -14.6767   20.6429 C   0  0  0  0  0  0  0  0  0  0  0  0
  -21.7689  -31.6057   22.2333 C   0  0  0  0  0  0  0  0  0  0  0  0
  -23.9271  -25.4610   22.3145 C   0  0  0  0  0  0  0  0  0  0  0  0
  -32.0820  -20.1159   19.8934 C   0  0  0  0  0  0  0  0  0  0  0  0
  -24.6346  -24.4524   25.0028 C   0  0  0  0  0  0  0  0  0  0  0  0
  -21.2472  -30.5764   23.2326 C   0  0  0  0  0  0  0  0  0  0  0  0
  -29.6516  -12.2046   18.3320 C   0  0  0  0  0  0  0  0  0  0  0  0
  -22.3311  -30.2175   24.2442 C   0  0  0  0  0  0  0  0  0  0  0  0
  -28.2039  -11.9388   18.7512 C   0  0  0  0  0  0  0  0  0  0  0  0
  -30.5535  -12.4603   19.5381 C   0  0  0  0  0  0  0  0  0  0  0  0
  -28.6362  -13.2422   20.8729 C   0  0  0  0  0  0  0  0  0  0  0  0
  -31.2433  -21.0358   20.8546 C   0  0  2  0  0  0  0  0  0  0  0  0
  -23.5450  -29.5866   23.5517 C   0  0  1  0  0  0  0  0  0  0  0  0
  -23.1009  -25.8135   23.5476 C   0  0  1  0  0  0  0  0  0  0  0  0
  -27.6767  -13.0432   19.6882 C   0  0  2  0  0  0  0  0  0  0  0  0
  -28.9270  -20.1211   23.1580 C   0  0  0  0  0  0  0  0  0  0  0  0
  -21.2952  -19.2898   27.3138 C   0  0  0  0  0  0  0  0  0  0  0  0
  -33.0273  -20.8897   22.6257 C   0  0  0  0  0  0  0  0  0  0  0  0
  -32.8640  -22.8936   21.1678 C   0  0  0  0  0  0  0  0  0  0  0  0
  -22.5883  -25.7331   28.1401 C   0  0  0  0  0  0  0  0  0  0  0  0
  -22.2506  -23.4664   29.1482 C   0  0  0  0  0  0  0  0  0  0  0  0
  -20.4004  -24.5511   27.8743 C   0  0  0  0  0  0  0  0  0  0  0  0
  -22.7048  -19.5628   23.7904 C   0  0  0  0  0  0  0  0  0  0  0  0
  -30.0427  -23.4503   22.4077 C   0  0  0  0  0  0  0  0  0  1  0  0
  -22.4051  -23.6515   26.6237 C   0  0  1  0  0  0  0  0  0  0  0  0
  -21.6390  -19.9903   26.0085 C   0  0  2  0  0  0  0  0  0  0  0  0
  -32.0409  -21.8183   21.9058 C   0  0  0  0  0  0  0  0  0  0  0  0
  -21.9312  -24.3548   27.9269 C   0  0  0  0  0  0  0  0  0  0  0  0
  -25.8673  -11.4862   20.3070 N   0  0  0  0  0  0  0  0  0  0  0  0
  -26.2578  -12.7620   20.1461 N   0  0  0  0  0  0  0  0  0  0  0  0
  -23.2645  -24.8448   24.6334 N   0  0  0  0  0  0  0  0  0  0  0  0
  -29.9932  -13.5214   20.3777 N   0  0  0  0  0  0  0  0  0  0  0  0
  -25.5093  -15.0027   20.3191 N   0  0  0  0  0  0  0  0  0  0  0  0
  -21.8864  -12.5969   21.5369 N   0  0  0  0  0  0  0  0  0  0  0  0
  -30.1097  -15.6311   21.4255 N   0  0  0  0  0  0  0  0  0  0  0  0
  -23.2744  -28.2048   23.2170 N   0  0  0  0  0  0  0  0  0  0  0  0
  -21.7789  -22.3562   26.3822 N   0  0  0  0  0  0  0  0  0  0  0  0
  -22.3294  -19.0142   25.1189 N   0  3  0  0  0  0  0  0  0  0  0  0
  -22.6857  -14.7205   21.2046 O   0  0  0  0  0  0  0  0  0  0  0  0
  -23.8334  -27.2549   25.2683 O   0  0  0  0  0  0  0  0  0  0  0  0
  -31.1313  -22.1777   24.1214 O   0  0  0  0  0  0  0  0  0  0  0  0
  -20.9827  -24.7967   25.1099 O   0  0  0  0  0  0  0  0  0  0  0  0
  -23.7467  -21.1314   26.3126 O   0  0  0  0  0  0  0  0  0  0  0  0
  -31.8951  -14.8214   20.1852 O   0  0  0  0  0  0  0  0  0  0  0  0
  -21.5595   -7.0420   21.8039 O   0  0  0  0  0  0  0  0  0  0  0  0
  -29.2606  -23.9557   23.4891 O   0  0  0  0  0  0  0  0  0  1  0  0
  -18.5088   -7.0464   26.3971 F   0  0  0  0  0  0  0  0  0  0  0  0
  -21.9673   -5.1514   23.7792 F   0  0  0  0  0  0  0  0  0  0  0  0
  1  2  1  0  0  0  0
  1  5  2  0  0  0  0
  2  6  2  0  0  0  0
  3  8  2  0  0  0  0
  3 17  1  0  0  0  0
  4  9  1  0  0  0  0
  4 17  2  0  0  0  0
  5 19  1  0  0  0  0
  6 21  1  0  0  0  0
  7 10  2  0  0  0  0
  7 20  1  0  0  0  0
  8 27  1  0  0  0  0
  9 27  2  0  0  0  0
 10 28  1  0  0  0  0
 11 12  2  0  0  0  0
 11 29  1  0  0  0  0
 12 30  1  0  0  0  0
 13 22  1  0  0  0  0
 13 26  2  0  0  0  0
 14 23  1  0  0  0  0
 14 28  2  0  0  0  0
 15 25  2  0  0  0  0
 15 26  1  0  0  0  0
 16 30  2  0  0  0  0
 16 31  1  0  0  0  0
 17 32  1  0  0  0  0
 18 32  1  0  0  0  0
 18 33  2  0  0  0  0
 18 34  1  0  0  0  0
 19 21  2  0  0  0  0
 19 40  1  0  0  0  0
 20 23  2  0  0  0  0
 20 41  1  0  0  0  0
 21 51  1  0  0  0  0
 22 24  2  0  0  0  0
 22 42  1  0  0  0  0
 23 43  1  0  0  0  0
 24 25  1  0  0  0  0
 24 50  1  0  0  0  0
 25 54  1  0  0  0  0
 26 73  1  0  0  0  0
 27 83  1  0  0  0  0
 28 84  1  0  0  0  0
 29 31  2  0  0  0  0
 29 83  1  0  0  0  0
 30 85  1  0  0  0  0
 31 86  1  0  0  0  0
 32 67  2  0  0  0  0
 33 68  1  0  0  0  0
 33 71  1  0  0  0  0
 34 72  1  0  0  0  0
 34 77  2  0  0  0  0
 35 52  1  0  0  0  0
 35 74  1  0  0  0  0
 35 78  2  0  0  0  0
 36 62  1  0  0  0  0
 36 65  1  0  0  0  0
 36 79  2  0  0  0  0
 37 63  1  0  0  0  0
 37 69  1  0  0  0  0
 37 80  2  0  0  0  0
 38 64  1  0  0  0  0
 38 75  1  0  0  0  0
 38 81  2  0  0  0  0
 39 70  1  0  0  0  0
 39 73  1  0  0  0  0
 39 82  2  0  0  0  0
 40 44  1  0  0  0  0
 41 52  1  0  0  0  0
 42 50  1  0  0  0  0
 43 69  1  0  0  0  0
 44 46  1  0  0  0  0
 45 47  1  0  0  0  0
 45 48  1  0  0  0  0
 46 51  1  0  0  0  0
 47 53  1  0  0  0  0
 48 70  1  0  0  0  0
 49 53  1  0  0  0  0
 49 70  1  0  0  0  0
 50 65  1  0  0  0  0
 51 74  1  0  0  0  0
 52 69  1  0  0  0  0
 53 68  1  0  0  0  0
 55 64  1  0  0  0  0
 56 65  1  0  0  0  0
 57 65  1  0  0  0  0
 58 66  1  0  0  0  0
 59 66  1  0  0  0  0
 60 66  1  0  0  0  0
 61 76  1  0  0  0  0
 62 84  1  0  0  0  0
 63 66  1  0  0  0  0
 63 75  1  0  0  0  0
 64 76  1  0  0  0  0
 67 68  1  0  0  0  0
M  CHG  1  76   1
M  ISO  4  39 100  62 101  73 100  84 101
M  END
> <Batch ID>
0142

> <Smiles>
CNC(C)C(=O)NC(C(=O)N1Cc2cc([101O:1][101CH2:1]C(=O)C(C)(C)C3Cc4cc([100NH:0][100C:0](=O)N5CCCC(n6nc(-c7ccc(Oc8ccc(F)cc8F)cc7)c(C(N)=O)c6N)C5)cc(C)c43)ccc2CC1C(=O)NC1CCCc2ccccc21)C(C)(C)C

> <Shape>
0.230

> <Color>
0.195

> <Negative vol penalty>
0.000

$$$$

  -OEChem-04052302573D

 84 92  0     1  0  0  0  0  0999 V2000
  -35.2252  -32.2542   21.3191 C   0  0  0  0  0  0  0  0  0  0  0  0
  -34.7565  -31.1351   21.9997 C   0  0  0  0  0  0  0  0  0  0  0  0
  -23.0874   -9.8895   19.9091 C   0  0  0  0  0  0  0  0  0  0  0  0
  -23.8674   -9.8434   22.1952 C   0  0  0  0  0  0  0  0  0  0  0  0
  -34.5309  -32.7356   20.2100 C   0  0  0  0  0  0  0  0  0  0  0  0
  -33.5924  -30.4974   21.5723 C   0  0  0  0  0  0  0  0  0  0  0  0
  -34.0626  -25.4561   21.4756 C   0  0  0  0  0  0  0  0  0  0  0  0
  -32.6420  -17.4891   23.5199 C   0  0  0  0  0  0  0  0  0  0  0  0
  -32.0362  -16.6304   22.6027 C   0  0  0  0  0  0  0  0  0  0  0  0
  -22.3565   -8.7232   20.1349 C   0  0  0  0  0  0  0  0  0  0  0  0
  -23.1364   -8.6771   22.4211 C   0  0  0  0  0  0  0  0  0  0  0  0
  -33.9741  -24.7849   22.6944 C   0  0  0  0  0  0  0  0  0  0  0  0
  -19.9212   -7.8332   23.0301 C   0  0  0  0  0  0  0  0  0  0  0  0
  -19.1751   -7.7553   24.2060 C   0  0  0  0  0  0  0  0  0  0  0  0
  -31.6829  -24.2105   22.2049 C   0  0  0  0  0  0  0  0  0  0  0  0
  -30.4707  -18.3230   24.1734 C   0  0  0  0  0  0  0  0  0  0  0  0
  -20.4408   -5.8110   24.8804 C   0  0  0  0  0  0  0  0  0  0  0  0
  -23.8430  -10.4496   20.9392 C   0  0  0  0  0  0  0  0  0  0  0  0
  -24.1604  -12.9801   20.8829 C   0  0  0  0  0  0  0  0  0  0  0  0
  -33.3630  -32.0977   19.7629 C   0  0  0  0  0  0  0  0  0  0  0  0
  -32.9566  -25.5189   20.6158 C   0  0  0  0  0  0  0  0  0  0  0  0
  -32.8811  -30.9715   20.4570 C   0  0  0  0  0  0  0  0  0  0  0  0
  -31.7607  -24.8809   20.9747 C   0  0  0  0  0  0  0  0  0  0  0  0
  -31.8593  -18.3354   24.3053 C   0  0  0  0  0  0  0  0  0  0  0  0
  -29.8649  -17.4644   23.2562 C   0  0  0  0  0  0  0  0  0  0  0  0
  -30.6476  -16.6181   22.4708 C   0  0  0  0  0  0  0  0  0  0  0  0
  -22.3810   -8.1170   21.3909 C   0  0  0  0  0  0  0  0  0  0  0  0
  -32.7833  -24.1644   23.0605 C   0  0  0  0  0  0  0  0  0  0  0  0
  -20.9272   -6.8999   22.7793 C   0  0  0  0  0  0  0  0  0  0  0  0
  -19.4348   -6.7443   25.1311 C   0  0  0  0  0  0  0  0  0  0  0  0
  -21.1869   -5.8889   23.7045 C   0  0  0  0  0  0  0  0  0  0  0  0
  -24.5987  -11.6540   20.7064 C   0  0  0  0  0  0  0  0  0  0  0  0
  -25.2423  -13.7492   20.5301 C   0  0  0  0  0  0  0  0  0  0  0  0
  -22.8889  -13.4727   21.3261 C   0  0  0  0  0  0  0  0  0  0  0  0
  -31.1660  -27.8633   19.4320 C   0  0  0  0  0  0  0  0  0  0  0  0
  -29.8270  -25.4521   17.7246 C   0  0  0  0  0  0  0  0  0  0  0  0
  -29.1620  -22.1157   17.4535 C   0  0  0  0  0  0  0  0  0  0  0  0
  -30.6999  -14.8416   20.6854 C   0  0  0  0  0  0  0  0  0  0  0  0
  -32.6206  -32.6830   18.5878 C   0  0  0  0  0  0  0  0  0  0  0  0
  -33.0764  -26.2241   19.2926 C   0  0  0  0  0  0  0  0  0  0  0  0
  -30.5506  -24.9019   20.0781 C   0  0  0  0  0  0  0  0  0  0  0  0
  -31.6017  -31.7266   17.9735 C   0  0  0  0  0  0  0  0  0  0  0  0
  -29.5870  -12.4804   18.2640 C   0  0  0  0  0  0  0  0  0  0  0  0
  -30.7609  -31.0700   19.0637 C   0  0  0  0  0  0  0  0  0  0  0  0
  -28.1540  -12.1640   18.6980 C   0  0  0  0  0  0  0  0  0  0  0  0
  -30.5105  -12.6862   19.4633 C   0  0  0  0  0  0  0  0  0  0  0  0
  -28.6092  -13.3560   20.8795 C   0  0  0  0  0  0  0  0  0  0  0  0
  -31.6358  -30.2376   20.0090 C   0  0  1  0  0  0  0  0  0  0  0  0
  -31.7299  -26.6631   18.7254 C   0  0  1  0  0  0  0  0  0  0  0  0
  -27.6277  -13.2046   19.7059 C   0  0  2  0  0  0  0  0  0  0  0  0
  -28.3755  -17.4745   23.1339 C   0  0  0  0  0  0  0  0  0  0  0  0
  -28.0169  -20.4498   15.9667 C   0  0  0  0  0  0  0  0  0  0  0  0
  -27.1171  -26.3802   18.7758 C   0  0  0  0  0  0  0  0  0  0  0  0
  -26.1636  -24.1786   18.0603 C   0  0  0  0  0  0  0  0  0  0  0  0
  -27.1317  -25.7277   16.3616 C   0  0  0  0  0  0  0  0  0  0  0  0
  -34.9001  -21.0410   26.0959 C   0  0  0  0  0  0  0  0  0  0  0  0
  -32.7022  -22.0416   26.7708 C   0  0  0  0  0  0  0  0  0  0  0  0
  -31.6848  -20.6498   16.9580 C   0  0  0  0  0  0  0  0  0  0  0  0
  -32.5153  -19.2665   25.2963 C   0  0  0  0  0  0  0  0  0  0  0  0
  -32.8449  -20.6221   24.6560 C   0  0  0  0  0  0  0  0  0  0  0  0
  -33.8905  -22.9205   24.7584 C   0  0  0  0  0  0  0  0  0  1  0  0
  -28.6765  -24.4991   17.9416 C   0  0  1  0  0  0  0  0  0  0  0  0
  -29.3277  -21.1463   16.2972 C   0  0  2  0  0  0  0  0  0  0  0  0
  -27.2943  -25.1975   17.8028 C   0  0  0  0  0  0  0  0  0  0  0  0
  -33.5813  -21.6402   25.5730 C   0  0  0  0  0  0  0  0  0  0  0  0
  -25.8606  -11.5812   20.2749 N   0  0  0  0  0  0  0  0  0  0  0  0
  -26.2245  -12.8712   20.1772 N   0  0  0  0  0  0  0  0  0  0  0  0
  -30.7156  -25.6095   18.7976 N   0  0  0  0  0  0  0  0  0  0  0  0
  -29.9498  -13.6883   20.3723 N   0  0  0  0  0  0  0  0  0  0  0  0
  -25.4397  -15.0841   20.4904 N   0  0  0  0  0  0  0  0  0  0  0  0
  -21.8885  -12.5454   21.6480 N   0  0  0  0  0  0  0  0  0  0  0  0
  -30.0513  -15.7386   21.5334 N   0  0  0  0  0  0  0  0  0  0  0  0
  -31.9855  -28.9753   19.3936 N   0  0  0  0  0  0  0  0  0  0  0  0
  -28.8826  -23.3923   17.0137 N   0  0  0  0  0  0  0  0  0  0  0  0
  -30.3406  -20.1063   16.6342 N   0  3  0  0  0  0  0  0  0  0  0  0
  -22.6418  -14.6991   21.4179 O   0  0  0  0  0  0  0  0  0  0  0  0
  -30.0680  -27.7867   19.9707 O   0  0  0  0  0  0  0  0  0  0  0  0
  -29.9374  -26.0299   16.6403 O   0  0  0  0  0  0  0  0  0  0  0  0
  -29.2661  -21.7739   18.6295 O   0  0  0  0  0  0  0  0  0  0  0  0
  -31.8232  -15.0332   20.2127 O   0  0  0  0  0  0  0  0  0  0  0  0
  -21.6676   -6.9790   21.6117 O   0  0  0  0  0  0  0  0  0  0  0  0
  -32.6941  -23.5091   24.2499 O   0  0  0  0  0  0  0  0  0  1  0  0
  -18.7192   -6.6706   26.2610 F   0  0  0  0  0  0  0  0  0  0  0  0
  -22.1528   -4.9902   23.4696 F   0  0  0  0  0  0  0  0  0  0  0  0
  1  2  1  0  0  0  0
  1  5  2  0  0  0  0
  2  6  2  0  0  0  0
  3 10  2  0  0  0  0
  3 18  1  0  0  0  0
  4 11  1  0  0  0  0
  4 18  2  0  0  0  0
  5 20  1  0  0  0  0
  6 22  1  0  0  0  0
  7 12  2  0  0  0  0
  7 21  1  0  0  0  0
  8  9  2  0  0  0  0
  8 24  1  0  0  0  0
  9 26  1  0  0  0  0
 10 27  1  0  0  0  0
 11 27  2  0  0  0  0
 12 28  1  0  0  0  0
 13 14  2  0  0  0  0
 13 29  1  0  0  0  0
 14 30  1  0  0  0  0
 15 23  1  0  0  0  0
 15 28  2  0  0  0  0
 16 24  2  0  0  0  0
 16 25  1  0  0  0  0
 17 30  2  0  0  0  0
 17 31  1  0  0  0  0
 18 32  1  0  0  0  0
 19 32  1  0  0  0  0
 19 33  2  0  0  0  0
 19 34  1  0  0  0  0
 20 22  2  0  0  0  0
 20 39  1  0  0  0  0
 21 23  2  0  0  0  0
 21 40  1  0  0  0  0
 22 48  1  0  0  0  0
 23 41  1  0  0  0  0
 24 59  1  0  0  0  0
 25 26  2  0  0  0  0
 25 51  1  0  0  0  0
 26 72  1  0  0  0  0
 27 81  1  0  0  0  0
 28 82  1  0  0  0  0
 29 31  2  0  0  0  0
 29 81  1  0  0  0  0
 30 83  1  0  0  0  0
 31 84  1  0  0  0  0
 32 66  2  0  0  0  0
 33 67  1  0  0  0  0
 33 70  1  0  0  0  0
 34 71  1  0  0  0  0
 34 76  2  0  0  0  0
 35 49  1  0  0  0  0
 35 73  1  0  0  0  0
 35 77  2  0  0  0  0
 36 62  1  0  0  0  0
 36 68  1  0  0  0  0
 36 78  2  0  0  0  0
 37 63  1  0  0  0  0
 37 74  1  0  0  0  0
 37 79  2  0  0  0  0
 38 69  1  0  0  0  0
 38 72  1  0  0  0  0
 38 80  2  0  0  0  0
 39 42  1  0  0  0  0
 40 49  1  0  0  0  0
 41 68  1  0  0  0  0
 42 44  1  0  0  0  0
 43 45  1  0  0  0  0
 43 46  1  0  0  0  0
 44 48  1  0  0  0  0
 45 50  1  0  0  0  0
 46 69  1  0  0  0  0
 47 50  1  0  0  0  0
 47 69  1  0  0  0  0
 48 73  1  0  0  0  0
 49 68  1  0  0  0  0
 50 67  1  0  0  0  0
 52 63  1  0  0  0  0
 53 64  1  0  0  0  0
 54 64  1  0  0  0  0
 55 64  1  0  0  0  0
 56 65  1  0  0  0  0
 57 65  1  0  0  0  0
 58 75  1  0  0  0  0
 59 60  1  0  0  0  0
 60 65  1  0  0  0  0
 61 65  1  0  0  0  0
 61 82  1  0  0  0  0
 62 64  1  0  0  0  0
 62 74  1  0  0  0  0
 63 75  1  0  0  0  0
 66 67  1  0  0  0  0
M  CHG  1  75   1
M  ISO  4  38 100  61 101  72 100  82 101
M  END
> <Batch ID>
0142

> <Smiles>
CNC(C)C(=O)NC(C(=O)N1Cc2cc([101O:1][101CH2:1]C(C)(C)CCc3ccc([100NH:0][100C:0](=O)N4CCCC(n5nc(-c6ccc(Oc7ccc(F)cc7F)cc6)c(C(N)=O)c5N)C4)c(C)c3)ccc2CC1C(=O)NC1CCCc2ccccc21)C(C)(C)C

> <Shape>
0.233

> <Color>
0.201

> <Negative vol penalty>
0.000

$$$$

  -OEChem-04052302573D

 88 97  0     1  0  0  0  0  0999 V2000
  -30.8188  -24.9737   19.3104 C   0  0  0  0  0  0  0  0  0  0  0  0
  -29.4317  -25.0104   19.2113 C   0  0  0  0  0  0  0  0  0  0  0  0
  -28.0943  -14.3280   21.0384 C   0  0  0  0  0  0  0  0  0  0  0  0
  -26.1515  -15.0015   19.7700 C   0  0  0  0  0  0  0  0  0  0  0  0
  -31.4564  -25.5937   20.3841 C   0  0  0  0  0  0  0  0  0  0  0  0
  -28.6812  -25.6662   20.1865 C   0  0  0  0  0  0  0  0  0  0  0  0
  -23.4754  -28.7815   19.3495 C   0  0  0  0  0  0  0  0  0  0  0  0
  -22.6664  -22.2716   20.8480 C   0  0  0  0  0  0  0  0  0  0  0  0
  -27.6047  -13.0232   21.0955 C   0  0  0  0  0  0  0  0  0  0  0  0
  -25.6619  -13.6966   19.8271 C   0  0  0  0  0  0  0  0  0  0  0  0
  -22.1367  -28.4378   19.5329 C   0  0  0  0  0  0  0  0  0  0  0  0
  -21.3512  -22.7305   20.7779 C   0  0  0  0  0  0  0  0  0  0  0  0
  -24.0717  -11.7282   22.0693 C   0  0  0  0  0  0  0  0  0  0  0  0
  -22.7234  -11.5550   22.3815 C   0  0  0  0  0  0  0  0  0  0  0  0
  -22.9039  -23.2850   23.0283 C   0  0  0  0  0  0  0  0  0  0  0  0
  -22.1811  -29.4555   21.7195 C   0  0  0  0  0  0  0  0  0  0  0  0
  -22.3746  -10.4497   20.2616 C   0  0  0  0  0  0  0  0  0  0  0  0
  -27.3677  -15.3172   20.3757 C   0  0  0  0  0  0  0  0  0  0  0  0
  -28.7091  -17.2175   19.3283 C   0  0  0  0  0  0  0  0  0  0  0  0
  -30.7140  -26.2658   21.3679 C   0  0  0  0  0  0  0  0  0  0  0  0
  -24.1812  -29.4564   20.3559 C   0  0  0  0  0  0  0  0  0  0  0  0
  -29.3094  -26.2946   21.2752 C   0  0  0  0  0  0  0  0  0  0  0  0
  -21.5886  -23.7441   22.9581 C   0  0  0  0  0  0  0  0  0  0  0  0
  -23.5279  -29.8089   21.5454 C   0  0  0  0  0  0  0  0  0  0  0  0
  -23.4428  -22.5487   21.9733 C   0  0  0  0  0  0  0  0  0  0  0  0
  -26.3885  -12.7075   20.4898 C   0  0  0  0  0  0  0  0  0  0  0  0
  -21.4902  -28.7722   20.7191 C   0  0  0  0  0  0  0  0  0  0  0  0
  -20.8122  -23.4668   21.8329 C   0  0  0  0  0  0  0  0  0  0  0  0
  -24.5715  -11.2622   20.8533 C   0  0  0  0  0  0  0  0  0  0  0  0
  -21.8748  -10.9158   21.4777 C   0  0  0  0  0  0  0  0  0  0  0  0
  -23.7230  -10.6230   19.9495 C   0  0  0  0  0  0  0  0  0  0  0  0
  -27.8726  -16.6654   20.3168 C   0  0  0  0  0  0  0  0  0  0  0  0
  -28.8990  -18.5182   19.7264 C   0  0  0  0  0  0  0  0  0  0  0  0
  -29.2647  -16.6090   18.1549 C   0  0  0  0  0  0  0  0  0  0  0  0
  -26.7298  -28.7958   22.1370 C   0  0  0  0  0  0  0  0  0  0  0  0
  -26.3383  -31.8560   23.1392 C   0  0  0  0  0  0  0  0  0  0  0  0
  -24.2453  -34.5157   23.5777 C   0  0  0  0  0  0  0  0  0  0  0  0
  -25.6844  -22.2690   23.0884 C   0  0  0  0  0  0  0  0  0  0  0  0
  -31.4448  -26.8806   22.5353 C   0  0  0  0  0  0  0  0  0  0  0  0
  -25.6173  -29.8436   20.1319 C   0  0  0  0  0  0  0  0  0  0  0  0
  -24.2352  -30.5513   22.6486 C   0  0  0  0  0  0  0  0  0  0  0  0
  -30.6000  -27.8755   23.3270 C   0  0  0  0  0  0  0  0  0  0  0  0
  -29.0469  -21.2471   23.6591 C   0  0  0  0  0  0  0  0  0  0  0  0
  -29.2160  -27.2978   23.6056 C   0  0  0  0  0  0  0  0  0  0  0  0
  -29.2054  -20.0100   22.7722 C   0  0  0  0  0  0  0  0  0  0  0  0
  -20.9757  -23.8672   25.4585 C   0  0  0  0  0  0  0  0  0  0  0  0
  -19.7085  -24.0745   24.6895 C   0  0  0  0  0  0  0  0  0  0  0  0
  -27.6523  -21.3267   24.2775 C   0  0  0  0  0  0  0  0  0  0  0  0
  -26.7010  -19.9991   22.4332 C   0  0  0  0  0  0  0  0  0  0  0  0
  -28.4622  -27.0173   22.2999 C   0  0  1  0  0  0  0  0  0  0  0  0
  -26.3831  -30.0759   21.4307 C   0  0  1  0  0  0  0  0  0  0  0  0
  -28.0685  -19.9099   21.7363 C   0  0  2  0  0  0  0  0  0  0  0  0
  -21.0276  -24.5309   24.0953 C   0  0  0  0  0  0  0  0  0  0  0  0
  -21.3023  -26.0072   24.0412 C   0  0  0  0  0  0  0  0  0  0  0  0
  -24.2044  -36.8666   24.4546 C   0  0  0  0  0  0  0  0  0  0  0  0
  -26.3334  -30.7872   25.9972 C   0  0  0  0  0  0  0  0  0  0  0  0
  -25.3586  -32.9710   26.7381 C   0  0  0  0  0  0  0  0  0  0  0  0
  -27.6166  -32.9102   25.6795 C   0  0  0  0  0  0  0  0  0  0  0  0
  -16.8060  -24.9130   21.3871 C   0  0  0  0  0  0  0  0  0  0  0  0
  -17.4401  -25.5481   19.0558 C   0  0  0  0  0  0  0  0  0  0  0  0
  -23.4848  -35.6114   20.9357 C   0  0  0  0  0  0  0  0  0  0  0  0
  -18.5777  -26.6432   21.0498 C   0  0  0  0  0  0  0  0  0  0  0  0
  -19.7173  -27.2604   20.2424 C   0  0  0  0  0  0  0  0  0  1  0  0
  -19.0221  -24.1872   20.4428 C   0  0  0  0  0  0  0  0  0  0  0  0
  -25.5668  -32.5267   24.2500 C   0  0  1  0  0  0  0  0  0  0  0  0
  -24.3979  -35.9855   23.2303 C   0  0  2  0  0  0  0  0  0  0  0  0
  -26.2058  -32.2831   25.6464 C   0  0  0  0  0  0  0  0  0  0  0  0
  -17.9830  -25.3284   20.4789 C   0  0  0  0  0  0  0  0  0  0  0  0
  -27.5532  -17.5435   21.2713 N   0  0  0  0  0  0  0  0  0  0  0  0
  -28.1925  -18.6606   20.8844 N   0  0  0  0  0  0  0  0  0  0  0  0
  -25.6405  -30.9022   22.3847 N   0  0  0  0  0  0  0  0  0  0  0  0
  -26.6268  -21.2295   23.2365 N   0  0  0  0  0  0  0  0  0  0  0  0
  -29.5998  -19.5427   19.1956 N   0  0  0  0  0  0  0  0  0  0  0  0
  -28.9685  -15.2639   17.8958 N   0  0  0  0  0  0  0  0  0  0  0  0
  -24.7787  -22.0818   22.0447 N   0  0  0  0  0  0  0  0  0  0  0  0
  -27.9360  -28.2465   21.7461 N   0  0  0  0  0  0  0  0  0  0  0  0
  -25.4582  -33.9337   23.8798 N   0  0  0  0  0  0  0  0  0  0  0  0
  -23.3940  -36.3819   22.2026 N   0  3  0  0  0  0  0  0  0  0  0  0
  -30.0153  -17.2349   17.3685 O   0  0  0  0  0  0  0  0  0  0  0  0
  -25.9606  -28.3409   22.9755 O   0  0  0  0  0  0  0  0  0  0  0  0
  -27.5145  -32.1719   22.9435 O   0  0  0  0  0  0  0  0  0  0  0  0
  -23.1583  -33.9422   23.5842 O   0  0  0  0  0  0  0  0  0  0  0  0
  -25.6979  -23.2657   23.8153 O   0  0  0  0  0  0  0  0  0  0  0  0
  -25.9106  -11.4342   20.5451 O   0  0  0  0  0  0  0  0  0  0  0  0
  -20.1838  -28.4373   20.9009 O   0  0  0  0  0  0  0  0  0  1  0  0
  -19.5182  -23.9095   21.7458 O   0  0  0  0  0  0  0  0  0  0  0  0
  -20.5803  -10.7482   21.7783 F   0  0  0  0  0  0  0  0  0  0  0  0
  -24.1976  -10.1721   18.7802 F   0  0  0  0  0  0  0  0  0  0  0  0
  1  2  1  0  0  0  0
  1  5  2  0  0  0  0
  2  6  2  0  0  0  0
  3  9  2  0  0  0  0
  3 18  1  0  0  0  0
  4 10  1  0  0  0  0
  4 18  2  0  0  0  0
  5 20  1  0  0  0  0
  6 22  1  0  0  0  0
  7 11  2  0  0  0  0
  7 21  1  0  0  0  0
  8 12  2  0  0  0  0
  8 25  1  0  0  0  0
  9 26  1  0  0  0  0
 10 26  2  0  0  0  0
 11 27  1  0  0  0  0
 12 28  1  0  0  0  0
 13 14  2  0  0  0  0
 13 29  1  0  0  0  0
 14 30  1  0  0  0  0
 15 23  1  0  0  0  0
 15 25  2  0  0  0  0
 16 24  1  0  0  0  0
 16 27  2  0  0  0  0
 17 30  2  0  0  0  0
 17 31  1  0  0  0  0
 18 32  1  0  0  0  0
 19 32  1  0  0  0  0
 19 33  2  0  0  0  0
 19 34  1  0  0  0  0
 20 22  2  0  0  0  0
 20 39  1  0  0  0  0
 21 24  2  0  0  0  0
 21 40  1  0  0  0  0
 22 50  1  0  0  0  0
 23 28  2  0  0  0  0
 23 53  1  0  0  0  0
 24 41  1  0  0  0  0
 25 75  1  0  0  0  0
 26 84  1  0  0  0  0
 27 85  1  0  0  0  0
 28 86  1  0  0  0  0
 29 31  2  0  0  0  0
 29 84  1  0  0  0  0
 30 87  1  0  0  0  0
 31 88  1  0  0  0  0
 32 69  2  0  0  0  0
 33 70  1  0  0  0  0
 33 73  1  0  0  0  0
 34 74  1  0  0  0  0
 34 79  2  0  0  0  0
 35 51  1  0  0  0  0
 35 76  1  0  0  0  0
 35 80  2  0  0  0  0
 36 65  1  0  0  0  0
 36 71  1  0  0  0  0
 36 81  2  0  0  0  0
 37 66  1  0  0  0  0
 37 77  1  0  0  0  0
 37 82  2  0  0  0  0
 38 72  1  0  0  0  0
 38 75  1  0  0  0  0
 38 83  2  0  0  0  0
 39 42  1  0  0  0  0
 40 51  1  0  0  0  0
 41 71  1  0  0  0  0
 42 44  1  0  0  0  0
 43 45  1  0  0  0  0
 43 48  1  0  0  0  0
 44 50  1  0  0  0  0
 45 52  1  0  0  0  0
 46 47  1  0  0  0  0
 46 53  1  0  0  0  0
 47 53  1  0  0  0  0
 48 72  1  0  0  0  0
 49 52  1  0  0  0  0
 49 72  1  0  0  0  0
 50 76  1  0  0  0  0
 51 71  1  0  0  0  0
 52 70  1  0  0  0  0
 53 54  1  0  0  0  0
 55 66  1  0  0  0  0
 56 67  1  0  0  0  0
 57 67  1  0  0  0  0
 58 67  1  0  0  0  0
 59 68  1  0  0  0  0
 60 68  1  0  0  0  0
 61 78  1  0  0  0  0
 62 63  1  0  0  0  0
 62 68  1  0  0  0  0
 63 85  1  0  0  0  0
 64 68  1  0  0  0  0
 64 86  1  0  0  0  0
 65 67  1  0  0  0  0
 65 77  1  0  0  0  0
 66 78  1  0  0  0  0
 69 70  1  0  0  0  0
M  CHG  1  78   1
M  ISO  4  38 100  63 101  75 100  85 101
M  END
> <Batch ID>
0142

> <Smiles>
CNC(C)C(=O)NC(C(=O)N1Cc2cc([101O:1][101CH2:1]CC(C)(C)COc3ccc([100NH:0][100C:0](=O)N4CCCC(n5nc(-c6ccc(Oc7ccc(F)cc7F)cc6)c(C(N)=O)c5N)C4)cc3C3(C)CC3)ccc2CC1C(=O)NC1CCCc2ccccc21)C(C)(C)C

> <Shape>
0.285

> <Color>
0.063

> <Negative vol penalty>
0.000

$$$$

  -OEChem-04052302573D

 87 96  0     1  0  0  0  0  0999 V2000
  -25.6265  -20.0040   14.2612 C   0  0  0  0  0  0  0  0  0  0  0  0
  -26.6097  -19.2230   14.8601 C   0  0  0  0  0  0  0  0  0  0  0  0
  -29.6315  -18.8652   19.1355 C   0  0  0  0  0  0  0  0  0  0  0  0
  -23.6211  -29.0646   20.8956 C   0  0  0  0  0  0  0  0  0  0  0  0
  -26.0365  -29.0099   20.8924 C   0  0  0  0  0  0  0  0  0  0  0  0
  -24.4779  -20.3446   14.9744 C   0  0  0  0  0  0  0  0  0  0  0  0
  -26.4455  -18.7831   16.1730 C   0  0  0  0  0  0  0  0  0  0  0  0
  -28.3187  -13.4502   18.5304 C   0  0  0  0  0  0  0  0  0  0  0  0
  -30.1979  -17.9607   20.0336 C   0  0  0  0  0  0  0  0  0  0  0  0
  -28.6055  -19.7130   19.5532 C   0  0  0  0  0  0  0  0  0  0  0  0
  -23.6525  -30.4389   21.1315 C   0  0  0  0  0  0  0  0  0  0  0  0
  -26.0679  -30.3843   21.1282 C   0  0  0  0  0  0  0  0  0  0  0  0
  -29.4388  -13.0989   19.2824 C   0  0  0  0  0  0  0  0  0  0  0  0
  -26.7847  -33.8160   22.0874 C   0  0  0  0  0  0  0  0  0  0  0  0
  -27.6715  -34.2876   23.0552 C   0  0  0  0  0  0  0  0  0  0  0  0
  -28.1458  -13.3311   21.3057 C   0  0  0  0  0  0  0  0  0  0  0  0
  -28.7123  -18.7515   21.7670 C   0  0  0  0  0  0  0  0  0  0  0  0
  -26.5614  -32.9432   24.7277 C   0  0  0  0  0  0  0  0  0  0  0  0
  -24.8131  -28.3500   20.7761 C   0  0  0  0  0  0  0  0  0  0  0  0
  -24.7652  -26.2817   19.2836 C   0  0  0  0  0  0  0  0  0  0  0  0
  -24.2951  -19.9006   16.2935 C   0  0  0  0  0  0  0  0  0  0  0  0
  -27.1045  -13.7557   19.1620 C   0  0  0  0  0  0  0  0  0  0  0  0
  -25.2940  -19.1192   16.9051 C   0  0  0  0  0  0  0  0  0  0  0  0
  -27.0110  -13.6834   20.5592 C   0  0  0  0  0  0  0  0  0  0  0  0
  -29.7383  -17.9038   21.3493 C   0  0  0  0  0  0  0  0  0  0  0  0
  -28.1460  -19.6561   20.8689 C   0  0  0  0  0  0  0  0  0  0  0  0
  -24.8759  -31.0989   21.2477 C   0  0  0  0  0  0  0  0  0  0  0  0
  -29.3533  -13.0422   20.6705 C   0  0  0  0  0  0  0  0  0  0  0  0
  -25.7861  -32.9080   22.4398 C   0  0  0  0  0  0  0  0  0  0  0  0
  -27.5599  -33.8512   24.3753 C   0  0  0  0  0  0  0  0  0  0  0  0
  -25.6745  -32.4715   23.7599 C   0  0  0  0  0  0  0  0  0  0  0  0
  -24.7813  -26.9301   20.5331 C   0  0  0  0  0  0  0  0  0  0  0  0
  -24.7362  -24.9435   19.5916 C   0  0  0  0  0  0  0  0  0  0  0  0
  -31.5194  -15.2394   23.1104 C   0  0  0  0  0  0  0  0  0  0  0  0
  -32.0642  -14.0186   23.1400 C   0  0  0  0  0  0  0  0  0  0  0  0
  -24.7756  -26.8392   17.9627 C   0  0  0  0  0  0  0  0  0  0  0  0
  -25.2485  -16.3307   19.3289 C   0  0  0  0  0  0  0  0  0  0  0  0
  -23.2537  -14.3119   20.8997 C   0  0  0  0  0  0  0  0  0  0  0  0
  -22.8765  -11.4696   22.7506 C   0  0  0  0  0  0  0  0  0  0  0  0
  -26.5302  -20.5889   22.5618 C   0  0  0  0  0  0  0  0  0  0  0  0
  -23.0585  -20.3338   17.0405 C   0  0  0  0  0  0  0  0  0  0  0  0
  -25.8982  -14.1068   18.3350 C   0  0  0  0  0  0  0  0  0  0  0  0
  -25.7253  -13.9823   21.2845 C   0  0  0  0  0  0  0  0  0  0  0  0
  -30.8575  -15.9148   24.2694 C   0  0  0  0  0  0  0  0  0  0  0  0
  -31.3765  -16.0879   21.8826 C   0  0  0  0  0  0  0  0  0  0  0  0
  -22.7896  -19.5147   18.3003 C   0  0  0  0  0  0  0  0  0  0  0  0
  -23.9713  -22.5964   24.0107 C   0  0  0  0  0  0  0  0  0  0  0  0
  -24.0686  -19.3547   19.1161 C   0  0  0  0  0  0  0  0  0  0  0  0
  -23.9526  -23.8495   23.1323 C   0  0  0  0  0  0  0  0  0  0  0  0
  -29.8057  -16.7922   23.5964 C   0  0  0  0  0  0  0  0  0  0  0  0
  -25.3890  -22.0618   24.2059 C   0  0  0  0  0  0  0  0  0  0  0  0
  -26.1230  -23.0839   22.0880 C   0  0  0  0  0  0  0  0  0  0  0  0
  -25.1409  -18.6022   18.3190 C   0  0  1  0  0  0  0  0  0  0  0  0
  -24.8507  -14.8981   19.1121 C   0  0  1  0  0  0  0  0  0  0  0  0
  -24.7099  -23.6217   21.8093 C   0  0  2  0  0  0  0  0  0  0  0  0
  -21.1311  -10.0987   23.9220 C   0  0  0  0  0  0  0  0  0  0  0  0
  -33.2062  -11.9067   22.5410 C   0  0  0  0  0  0  0  0  0  0  0  0
  -33.9838  -14.0077   21.4342 C   0  0  0  0  0  0  0  0  0  0  0  0
  -23.1741  -16.3537   23.1656 C   0  0  0  0  0  0  0  0  0  0  0  0
  -22.2349  -14.5682   24.6482 C   0  0  0  0  0  0  0  0  0  0  0  0
  -20.9684  -15.3043   22.6291 C   0  0  0  0  0  0  0  0  0  0  0  0
  -23.4202   -9.1108   21.0479 C   0  0  0  0  0  0  0  0  0  0  0  0
  -31.7231  -13.0407   20.8705 C   0  0  0  0  0  0  0  0  0  1  0  0
  -23.0575  -13.9097   22.3415 C   0  0  1  0  0  0  0  0  0  0  0  0
  -21.9040  -10.3103   22.6294 C   0  0  2  0  0  0  0  0  0  0  0  0
  -32.7505  -13.2759   22.0009 C   0  0  0  0  0  0  0  0  0  0  0  0
  -22.3836  -15.0302   23.1829 C   0  0  0  0  0  0  0  0  0  0  0  0
  -24.7638  -26.0743   21.5584 N   0  0  0  0  0  0  0  0  0  0  0  0
  -24.7363  -24.8744   20.9538 N   0  0  0  0  0  0  0  0  0  0  0  0
  -30.2997  -17.0085   22.2385 N   0  0  3  0  0  0  0  0  0  0  0  0
  -24.5754  -14.3270   20.4321 N   0  0  0  0  0  0  0  0  0  0  0  0
  -26.0430  -21.8664   22.9102 N   0  0  0  0  0  0  0  0  0  0  0  0
  -24.7107  -23.8309   18.8275 N   0  0  0  0  0  0  0  0  0  0  0  0
  -24.8062  -28.2337   17.8263 N   0  0  0  0  0  0  0  0  0  0  0  0
  -27.1029  -20.5167   21.2924 N   0  0  0  0  0  0  0  0  0  0  0  0
  -24.8615  -17.1822   18.3117 N   0  0  0  0  0  0  0  0  0  0  0  0
  -22.3168  -12.6530   22.3176 N   0  0  0  0  0  0  0  0  0  0  0  0
  -22.6353   -9.0522   22.3078 N   0  3  0  0  0  0  0  0  0  0  0  0
  -24.7417  -26.1223   16.9339 O   0  0  0  0  0  0  0  0  0  0  0  0
  -25.8598  -16.6410   20.3447 O   0  0  0  0  0  0  0  0  0  0  0  0
  -22.2698  -14.5951   20.2116 O   0  0  0  0  0  0  0  0  0  0  0  0
  -24.0171  -11.3391   23.1893 O   0  0  0  0  0  0  0  0  0  0  0  0
  -26.4211  -19.6232   23.3218 O   0  0  0  0  0  0  0  0  0  0  0  0
  -24.9069  -32.4400   21.4776 O   0  0  0  0  0  0  0  0  0  0  0  0
  -30.4453  -12.7002   21.4069 O   0  0  0  0  0  0  0  0  0  1  0  0
  -28.4126  -34.3030   25.3042 F   0  0  0  0  0  0  0  0  0  0  0  0
  -24.7180  -31.5984   24.1042 F   0  0  0  0  0  0  0  0  0  0  0  0
  1  2  1  0  0  0  0
  1  6  2  0  0  0  0
  2  7  2  0  0  0  0
  3  9  2  0  0  0  0
  3 10  1  0  0  0  0
  4 11  2  0  0  0  0
  4 19  1  0  0  0  0
  5 12  1  0  0  0  0
  5 19  2  0  0  0  0
  6 21  1  0  0  0  0
  7 23  1  0  0  0  0
  8 13  2  0  0  0  0
  8 22  1  0  0  0  0
  9 25  1  0  0  0  0
 10 26  2  0  0  0  0
 11 27  1  0  0  0  0
 12 27  2  0  0  0  0
 13 28  1  0  0  0  0
 14 15  2  0  0  0  0
 14 29  1  0  0  0  0
 15 30  1  0  0  0  0
 16 24  1  0  0  0  0
 16 28  2  0  0  0  0
 17 25  2  0  0  0  0
 17 26  1  0  0  0  0
 18 30  2  0  0  0  0
 18 31  1  0  0  0  0
 19 32  1  0  0  0  0
 20 32  1  0  0  0  0
 20 33  2  0  0  0  0
 20 36  1  0  0  0  0
 21 23  2  0  0  0  0
 21 41  1  0  0  0  0
 22 24  2  0  0  0  0
 22 42  1  0  0  0  0
 23 53  1  0  0  0  0
 24 43  1  0  0  0  0
 25 70  1  0  0  0  0
 26 75  1  0  0  0  0
 27 84  1  0  0  0  0
 28 85  1  0  0  0  0
 29 31  2  0  0  0  0
 29 84  1  0  0  0  0
 30 86  1  0  0  0  0
 31 87  1  0  0  0  0
 32 68  2  0  0  0  0
 33 69  1  0  0  0  0
 33 73  1  0  0  0  0
 34 35  2  0  0  0  0
 34 44  1  0  0  0  0
 34 45  1  0  0  0  0
 35 66  1  0  0  0  0
 36 74  1  0  0  0  0
 36 79  2  0  0  0  0
 37 54  1  0  0  0  0
 37 76  1  0  0  0  0
 37 80  2  0  0  0  0
 38 64  1  0  0  0  0
 38 71  1  0  0  0  0
 38 81  2  0  0  0  0
 39 65  1  0  0  0  0
 39 77  1  0  0  0  0
 39 82  2  0  0  0  0
 40 72  1  0  0  0  0
 40 75  1  0  0  0  0
 40 83  2  0  0  0  0
 41 46  1  0  0  0  0
 42 54  1  0  0  0  0
 43 71  1  0  0  0  0
 44 50  1  0  0  0  0
 45 70  1  0  0  0  0
 46 48  1  0  0  0  0
 47 49  1  0  0  0  0
 47 51  1  0  0  0  0
 48 53  1  0  0  0  0
 49 55  1  0  0  0  0
 50 70  1  0  0  0  0
 51 72  1  0  0  0  0
 52 55  1  0  0  0  0
 52 72  1  0  0  0  0
 53 76  1  0  0  0  0
 54 71  1  0  0  0  0
 55 69  1  0  0  0  0
 56 65  1  0  0  0  0
 57 66  1  0  0  0  0
 58 66  1  0  0  0  0
 59 67  1  0  0  0  0
 60 67  1  0  0  0  0
 61 67  1  0  0  0  0
 62 78  1  0  0  0  0
 63 66  1  0  0  0  0
 63 85  1  0  0  0  0
 64 67  1  0  0  0  0
 64 77  1  0  0  0  0
 65 78  1  0  0  0  0
 68 69  1  0  0  0  0
M  CHG  1  78   1
M  ISO  4  40 100  63 101  75 100  85 101
M  END
> <Batch ID>
0142

> <Smiles>
CNC(C)C(=O)NC(C(=O)N1Cc2cc([101O:1][101CH2:1]C(C)(C)C=C3CCN(c4cccc([100NH:0][100C:0](=O)N5CCCC(n6nc(-c7ccc(Oc8ccc(F)cc8F)cc7)c(C(N)=O)c6N)C5)c4)C3)ccc2CC1C(=O)NC1CCCc2ccccc21)C(C)(C)C

> <Shape>
0.234

> <Color>
0.055

> <Negative vol penalty>
0.000

$$$$

  -OEChem-04052302573D

 91100  0     1  0  0  0  0  0999 V2000
  -29.2941  -32.7719   26.0527 C   0  0  0  0  0  0  0  0  0  0  0  0
  -28.9020  -31.5296   25.5645 C   0  0  0  0  0  0  0  0  0  0  0  0
  -22.4834  -12.8138   21.2659 C   0  0  0  0  0  0  0  0  0  0  0  0
  -24.0275  -14.2433   22.4532 C   0  0  0  0  0  0  0  0  0  0  0  0
  -28.3752  -33.8190   26.1094 C   0  0  0  0  0  0  0  0  0  0  0  0
  -27.5903  -31.3333   25.1338 C   0  0  0  0  0  0  0  0  0  0  0  0
  -27.3428  -28.8269   20.7405 C   0  0  0  0  0  0  0  0  0  0  0  0
  -25.4856  -19.1396   17.8098 C   0  0  0  0  0  0  0  0  0  0  0  0
  -26.0692  -17.8895   18.0152 C   0  0  0  0  0  0  0  0  0  0  0  0
  -21.4278  -13.6474   21.6351 C   0  0  0  0  0  0  0  0  0  0  0  0
  -22.9718  -15.0769   22.8223 C   0  0  0  0  0  0  0  0  0  0  0  0
  -27.5275  -27.4456   20.7841 C   0  0  0  0  0  0  0  0  0  0  0  0
  -18.2762  -15.2039   22.5672 C   0  0  0  0  0  0  0  0  0  0  0  0
  -17.1066  -14.6038   23.0335 C   0  0  0  0  0  0  0  0  0  0  0  0
  -28.0101  -18.9545   18.9825 C   0  0  0  0  0  0  0  0  0  0  0  0
  -25.1386  -27.1288   20.6748 C   0  0  0  0  0  0  0  0  0  0  0  0
  -18.3480  -13.5875   24.8398 C   0  0  0  0  0  0  0  0  0  0  0  0
  -23.7833  -13.1117   21.6750 C   0  0  0  0  0  0  0  0  0  0  0  0
  -25.0259  -10.8851   21.6008 C   0  0  0  0  0  0  0  0  0  0  0  0
  -27.0542  -33.6382   25.6702 C   0  0  0  0  0  0  0  0  0  0  0  0
  -26.0519  -29.3706   20.6745 C   0  0  0  0  0  0  0  0  0  0  0  0
  -26.6526  -32.3786   25.1860 C   0  0  0  0  0  0  0  0  0  0  0  0
  -27.4265  -20.2046   18.7770 C   0  0  0  0  0  0  0  0  0  0  0  0
  -24.9403  -28.5172   20.6278 C   0  0  0  0  0  0  0  0  0  0  0  0
  -26.1643  -20.2972   18.1907 C   0  0  0  0  0  0  0  0  0  0  0  0
  -27.3314  -17.7969   18.6016 C   0  0  0  0  0  0  0  0  0  0  0  0
  -21.6719  -14.7790   22.4133 C   0  0  0  0  0  0  0  0  0  0  0  0
  -26.4252  -26.5965   20.7542 C   0  0  0  0  0  0  0  0  0  0  0  0
  -19.4818  -14.9957   23.2372 C   0  0  0  0  0  0  0  0  0  0  0  0
  -17.1424  -13.7957   24.1698 C   0  0  0  0  0  0  0  0  0  0  0  0
  -19.5177  -14.1875   24.3735 C   0  0  0  0  0  0  0  0  0  0  0  0
  -24.8741  -12.2507   21.2945 C   0  0  0  0  0  0  0  0  0  0  0  0
  -26.2173  -10.5323   21.0155 C   0  0  0  0  0  0  0  0  0  0  0  0
  -24.1668  -10.0133   22.3475 C   0  0  0  0  0  0  0  0  0  0  0  0
  -24.3185  -31.2672   22.5459 C   0  0  0  0  0  0  0  0  0  0  0  0
  -22.2326  -31.1590   20.0640 C   0  0  0  0  0  0  0  0  0  0  0  0
  -21.0837  -29.4937   17.3156 C   0  0  0  0  0  0  0  0  0  0  0  0
  -27.3940  -15.2721   18.4980 C   0  0  0  0  0  0  0  0  0  0  0  0
  -26.0841  -34.7863   25.7950 C   0  0  0  0  0  0  0  0  0  0  0  0
  -25.8708  -30.8620   20.6011 C   0  0  0  0  0  0  0  0  0  0  0  0
  -23.5346  -29.0502   20.5367 C   0  0  0  0  0  0  0  0  0  0  0  0
  -24.8132  -34.6023   24.9696 C   0  0  0  0  0  0  0  0  0  0  0  0
  -30.2003  -13.0121   19.8704 C   0  0  0  0  0  0  0  0  0  0  0  0
  -24.2497  -33.1981   25.1630 C   0  0  0  0  0  0  0  0  0  0  0  0
  -29.1750  -12.1169   20.5548 C   0  0  0  0  0  0  0  0  0  0  0  0
  -29.1285  -21.2493   20.4157 C   0  0  0  0  0  0  0  0  0  0  0  0
  -29.3278  -22.6428   20.9987 C   0  0  0  0  0  0  0  0  0  0  0  0
  -27.2566  -22.6107   19.6966 C   0  0  0  0  0  0  0  0  0  0  0  0
  -29.5605  -14.3381   19.4684 C   0  0  0  0  0  0  0  0  0  0  0  0
  -27.8433  -12.8262   18.4696 C   0  0  0  0  0  0  0  0  0  0  0  0
  -25.2453  -32.1336   24.6863 C   0  0  1  0  0  0  0  0  0  0  0  0
  -24.4875  -31.3190   21.0537 C   0  0  1  0  0  0  0  0  0  0  0  0
  -27.9783  -11.8185   19.6296 C   0  0  2  0  0  0  0  0  0  0  0  0
  -28.1891  -21.4602   19.2049 C   0  0  2  0  0  0  0  0  0  0  0  0
  -27.9299  -23.2502   20.9272 C   0  0  2  0  0  0  0  0  0  0  0  0
  -25.5196  -21.6245   17.9599 C   0  0  0  0  0  0  0  0  0  0  0  0
  -19.3443  -29.6332   15.5122 C   0  0  0  0  0  0  0  0  0  0  0  0
  -30.0757  -21.5147   15.1339 C   0  0  0  0  0  0  0  0  0  0  0  0
  -31.9578  -20.1537   16.0543 C   0  0  0  0  0  0  0  0  0  0  0  0
  -31.7266  -22.5691   16.6845 C   0  0  0  0  0  0  0  0  0  0  0  0
  -20.0964  -30.2864   22.0603 C   0  0  0  0  0  0  0  0  0  0  0  0
  -18.6938  -29.5381   20.1262 C   0  0  0  0  0  0  0  0  0  0  0  0
  -19.3173  -31.9425   20.3560 C   0  0  0  0  0  0  0  0  0  0  0  0
  -23.1345  -29.5869   15.1838 C   0  0  0  0  0  0  0  0  0  0  0  0
  -29.0101  -21.9384   17.9849 C   0  0  0  0  0  0  0  0  0  0  0  0
  -27.9456  -24.7716   20.8728 C   0  0  0  0  0  0  0  0  0  1  0  0
  -30.0288  -20.8780   17.5559 C   0  0  0  0  0  0  0  0  0  0  0  0
  -21.0809  -30.2644   19.6736 C   0  0  1  0  0  0  0  0  0  0  0  0
  -20.7743  -29.9677   15.9070 C   0  0  2  0  0  0  0  0  0  0  0  0
  -30.9559  -21.2748   16.3761 C   0  0  0  0  0  0  0  0  0  0  0  0
  -19.8234  -30.4975   20.5577 C   0  0  0  0  0  0  0  0  0  0  0  0
  -25.8881  -12.7327   20.5709 N   0  0  0  0  0  0  0  0  0  0  0  0
  -26.6885  -11.6641   20.4178 N   0  0  0  0  0  0  0  0  0  0  0  0
  -23.4091  -30.5158   20.4738 N   0  0  0  0  0  0  0  0  0  0  0  0
  -28.2409  -14.1874   18.8376 N   0  0  0  0  0  0  0  0  0  0  0  0
  -26.8974   -9.3675   20.9590 N   0  0  0  0  0  0  0  0  0  0  0  0
  -24.3634   -9.9058   23.7310 N   0  0  0  0  0  0  0  0  0  0  0  0
  -27.9242  -16.5264   18.8123 N   0  0  0  0  0  0  0  0  0  0  0  0
  -25.2299  -32.0378   23.2423 N   0  0  0  0  0  0  0  0  0  0  0  0
  -20.8585  -30.4837   18.2486 N   0  0  0  0  0  0  0  0  0  0  0  0
  -21.6951  -29.3219   14.9292 N   0  3  0  0  0  0  0  0  0  0  0  0
  -23.2624   -9.3370   21.8015 O   0  0  0  0  0  0  0  0  0  0  0  0
  -23.4263  -30.5803   23.0295 O   0  0  0  0  0  0  0  0  0  0  0  0
  -22.0958  -32.3833   20.0006 O   0  0  0  0  0  0  0  0  0  0  0  0
  -21.4816  -28.3577   17.5638 O   0  0  0  0  0  0  0  0  0  0  0  0
  -26.2945  -15.0946   17.9696 O   0  0  0  0  0  0  0  0  0  0  0  0
  -27.1944  -22.8497   22.0871 O   0  0  0  0  0  0  0  0  0  0  0  0
  -20.6421  -15.5927   22.7735 O   0  0  0  0  0  0  0  0  0  0  0  0
  -26.6026  -25.2479   20.7974 O   0  0  0  0  0  0  0  0  0  1  0  0
  -16.0188  -13.2208   24.6183 F   0  0  0  0  0  0  0  0  0  0  0  0
  -20.6727  -13.9848   25.0221 F   0  0  0  0  0  0  0  0  0  0  0  0
  1  2  1  0  0  0  0
  1  5  2  0  0  0  0
  2  6  2  0  0  0  0
  3 10  2  0  0  0  0
  3 18  1  0  0  0  0
  4 11  1  0  0  0  0
  4 18  2  0  0  0  0
  5 20  1  0  0  0  0
  6 22  1  0  0  0  0
  7 12  2  0  0  0  0
  7 21  1  0  0  0  0
  8  9  2  0  0  0  0
  8 25  1  0  0  0  0
  9 26  1  0  0  0  0
 10 27  1  0  0  0  0
 11 27  2  0  0  0  0
 12 28  1  0  0  0  0
 13 14  2  0  0  0  0
 13 29  1  0  0  0  0
 14 30  1  0  0  0  0
 15 23  1  0  0  0  0
 15 26  2  0  0  0  0
 16 24  1  0  0  0  0
 16 28  2  0  0  0  0
 17 30  2  0  0  0  0
 17 31  1  0  0  0  0
 18 32  1  0  0  0  0
 19 32  1  0  0  0  0
 19 33  2  0  0  0  0
 19 34  1  0  0  0  0
 20 22  2  0  0  0  0
 20 39  1  0  0  0  0
 21 24  2  0  0  0  0
 21 40  1  0  0  0  0
 22 51  1  0  0  0  0
 23 25  2  0  0  0  0
 23 54  1  0  0  0  0
 24 41  1  0  0  0  0
 25 56  1  0  0  0  0
 26 78  1  0  0  0  0
 27 88  1  0  0  0  0
 28 89  1  0  0  0  0
 29 31  2  0  0  0  0
 29 88  1  0  0  0  0
 30 90  1  0  0  0  0
 31 91  1  0  0  0  0
 32 72  2  0  0  0  0
 33 73  1  0  0  0  0
 33 76  1  0  0  0  0
 34 77  1  0  0  0  0
 34 82  2  0  0  0  0
 35 52  1  0  0  0  0
 35 79  1  0  0  0  0
 35 83  2  0  0  0  0
 36 68  1  0  0  0  0
 36 74  1  0  0  0  0
 36 84  2  0  0  0  0
 37 69  1  0  0  0  0
 37 80  1  0  0  0  0
 37 85  2  0  0  0  0
 38 75  1  0  0  0  0
 38 78  1  0  0  0  0
 38 86  2  0  0  0  0
 39 42  1  0  0  0  0
 40 52  1  0  0  0  0
 41 74  1  0  0  0  0
 42 44  1  0  0  0  0
 43 45  1  0  0  0  0
 43 49  1  0  0  0  0
 44 51  1  0  0  0  0
 45 53  1  0  0  0  0
 46 47  1  0  0  0  0
 46 54  1  0  0  0  0
 47 55  1  0  0  0  0
 48 54  1  0  0  0  0
 48 55  1  0  0  0  0
 49 75  1  0  0  0  0
 50 53  1  0  0  0  0
 50 75  1  0  0  0  0
 51 79  1  0  0  0  0
 52 74  1  0  0  0  0
 53 73  1  0  0  0  0
 54 65  1  0  0  0  0
 55 66  1  0  0  0  0
 55 87  1  0  0  0  0
 57 69  1  0  0  0  0
 58 70  1  0  0  0  0
 59 70  1  0  0  0  0
 60 70  1  0  0  0  0
 61 71  1  0  0  0  0
 62 71  1  0  0  0  0
 63 71  1  0  0  0  0
 64 81  1  0  0  0  0
 65 67  1  0  0  0  0
 66 89  1  0  0  0  0
 67 70  1  0  0  0  0
 68 71  1  0  0  0  0
 68 80  1  0  0  0  0
 69 81  1  0  0  0  0
 72 73  1  0  0  0  0
M  CHG  1  81   1
M  ISO  4  38 100  66 101  78 100  89 101
M  END
> <Batch ID>
0142

> <Smiles>
CNC(C)C(=O)NC(C(=O)N1Cc2cc([101O:1][101CH2:1]C3(O)CCC(CCC(C)(C)C)(c4cc([100NH:0][100C:0](=O)N5CCCC(n6nc(-c7ccc(Oc8ccc(F)cc8F)cc7)c(C(N)=O)c6N)C5)ccc4C)C3)ccc2CC1C(=O)NC1CCCc2ccccc21)C(C)(C)C

> <Shape>
0.259

> <Color>
0.056

> <Negative vol penalty>
0.000

$$$$

  -OEChem-04052302573D

 83 92  0     1  0  0  0  0  0999 V2000
  -19.4585  -27.6153   26.4590 C   0  0  0  0  0  0  0  0  0  0  0  0
  -20.7384  -27.2371   26.0661 C   0  0  0  0  0  0  0  0  0  0  0  0
  -24.6116   -9.0675   20.7973 C   0  0  0  0  0  0  0  0  0  0  0  0
  -22.7675  -10.5926   20.4650 C   0  0  0  0  0  0  0  0  0  0  0  0
  -18.4782  -27.8569   25.4976 C   0  0  0  0  0  0  0  0  0  0  0  0
  -21.0383  -27.0992   24.7113 C   0  0  0  0  0  0  0  0  0  0  0  0
  -26.3681  -28.3650   21.9732 C   0  0  0  0  0  0  0  0  0  0  0  0
  -23.7170   -8.0702   21.1853 C   0  0  0  0  0  0  0  0  0  0  0  0
  -21.8728   -9.5953   20.8530 C   0  0  0  0  0  0  0  0  0  0  0  0
  -27.4377  -27.5595   21.5849 C   0  0  0  0  0  0  0  0  0  0  0  0
  -21.9450   -5.2316   22.6087 C   0  0  0  0  0  0  0  0  0  0  0  0
  -22.2621   -4.4775   23.7384 C   0  0  0  0  0  0  0  0  0  0  0  0
  -26.5284  -27.4382   19.3538 C   0  0  0  0  0  0  0  0  0  0  0  0
  -28.2796  -20.1215   19.3256 C   0  0  0  0  0  0  0  0  0  0  0  0
  -22.2687   -6.4878   25.0785 C   0  0  0  0  0  0  0  0  0  0  0  0
  -27.1484  -19.0641   17.5922 C   0  0  0  0  0  0  0  0  0  0  0  0
  -24.1369  -10.3288   20.4372 C   0  0  0  0  0  0  0  0  0  0  0  0
  -25.5194  -11.6307   18.7339 C   0  0  0  0  0  0  0  0  0  0  0  0
  -18.7689  -27.7313   24.1300 C   0  0  0  0  0  0  0  0  0  0  0  0
  -25.3632  -28.7048   21.0560 C   0  0  0  0  0  0  0  0  0  0  0  0
  -20.0605  -27.3381   23.7306 C   0  0  0  0  0  0  0  0  0  0  0  0
  -25.4485  -28.2503   19.7323 C   0  0  0  0  0  0  0  0  0  0  0  0
  -27.5493  -18.9719   18.9069 C   0  0  0  0  0  0  0  0  0  0  0  0
  -22.3476   -8.3340   21.2131 C   0  0  0  0  0  0  0  0  0  0  0  0
  -27.5165  -27.0935   20.2758 C   0  0  0  0  0  0  0  0  0  0  0  0
  -21.7898   -6.6138   22.7138 C   0  0  0  0  0  0  0  0  0  0  0  0
  -22.4239   -5.1056   24.9733 C   0  0  0  0  0  0  0  0  0  0  0  0
  -21.9516   -7.2419   23.9487 C   0  0  0  0  0  0  0  0  0  0  0  0
  -25.0606  -11.3596   20.0369 C   0  0  0  0  0  0  0  0  0  0  0  0
  -28.4092  -21.0486   18.3148 C   0  0  0  0  0  0  0  0  0  0  0  0
  -26.3724  -12.6965   18.8851 C   0  0  0  0  0  0  0  0  0  0  0  0
  -25.2026  -10.9776   17.4974 C   0  0  0  0  0  0  0  0  0  0  0  0
  -22.2327  -28.1881   20.8649 C   0  0  0  0  0  0  0  0  0  0  0  0
  -22.4592  -30.1548   18.2953 C   0  0  0  0  0  0  0  0  0  0  0  0
  -24.4057  -31.4859   15.8283 C   0  0  0  0  0  0  0  0  0  0  0  0
  -27.6182  -17.6679   21.0612 C   0  0  0  0  0  0  0  0  0  0  0  0
  -17.6635  -27.9570   23.1291 C   0  0  0  0  0  0  0  0  0  0  0  0
  -24.2300  -29.5966   21.4837 C   0  0  0  0  0  0  0  0  0  0  0  0
  -24.4062  -28.6032   18.7039 C   0  0  0  0  0  0  0  0  0  0  0  0
  -18.1655  -28.1527   21.7009 C   0  0  0  0  0  0  0  0  0  0  0  0
  -28.3024  -14.8041   23.0630 C   0  0  0  0  0  0  0  0  0  0  0  0
  -19.2077  -27.0950   21.3517 C   0  0  0  0  0  0  0  0  0  0  0  0
  -27.5577  -13.6750   22.3470 C   0  0  0  0  0  0  0  0  0  0  0  0
  -28.4092  -23.6599   18.0853 C   0  0  0  0  0  0  0  0  0  0  0  0
  -27.5294  -16.1204   23.0034 C   0  0  0  0  0  0  0  0  0  0  0  0
  -26.3833  -15.4150   20.9399 C   0  0  0  0  0  0  0  0  0  0  0  0
  -20.4313  -27.2020   22.2698 C   0  0  1  0  0  0  0  0  0  0  0  0
  -29.1463  -22.3926   18.4613 C   0  0  1  0  0  0  0  0  0  0  0  0
  -22.9936  -29.4566   20.6010 C   0  0  1  0  0  0  0  0  0  0  0  0
  -27.1533  -14.0845   20.9172 C   0  0  2  0  0  0  0  0  0  0  0  0
  -28.7112  -23.3783   19.5288 C   0  0  1  0  0  0  0  0  0  0  0  0
  -24.3011  -33.0336   13.8557 C   0  0  0  0  0  0  0  0  0  0  0  0
  -30.4750  -23.3825   21.2973 C   0  0  0  0  0  0  0  0  0  0  0  0
  -21.0699  -27.9808   16.6663 C   0  0  0  0  0  0  0  0  0  0  0  0
  -21.8374  -29.1456   14.5872 C   0  0  0  0  0  0  0  0  0  0  0  0
  -20.3001  -30.3081   16.1708 C   0  0  0  0  0  0  0  0  0  0  0  0
  -26.3807  -33.3353   17.0275 C   0  0  0  0  0  0  0  0  0  0  0  0
  -29.1420  -25.4713   20.8937 C   0  0  0  0  0  0  0  0  0  1  0  0
  -22.7187  -29.9616   16.8207 C   0  0  1  0  0  0  0  0  0  0  0  0
  -24.5830  -32.9141   15.3453 C   0  0  2  0  0  0  0  0  0  0  0  0
  -29.7583  -24.2159   20.2647 C   0  0  2  0  0  0  0  0  0  0  0  0
  -21.5003  -29.3406   16.0809 C   0  0  0  0  0  0  0  0  0  0  0  0
  -25.5794  -12.1863   20.9487 N   0  0  0  0  0  0  0  0  0  0  0  0
  -26.3730  -12.9874   20.2176 N   0  0  0  0  0  0  0  0  0  0  0  0
  -23.3143  -29.4727   19.1723 N   0  0  0  0  0  0  0  0  0  0  0  0
  -27.1840  -16.4464   21.6180 N   0  0  0  0  0  0  0  0  0  0  0  0
  -27.1147  -13.4038   18.0069 N   0  0  0  0  0  0  0  0  0  0  0  0
  -24.3076   -9.8994   17.5215 N   0  0  0  0  0  0  0  0  0  0  0  0
  -27.2579  -17.8538   19.7270 N   0  0  0  0  0  0  0  0  0  0  0  0
  -21.2779  -28.3010   21.8575 N   0  0  0  0  0  0  0  0  0  0  0  0
  -23.1313  -31.2624   16.3050 N   0  0  0  0  0  0  0  0  0  0  0  0
  -25.9767  -33.3772   15.5985 N   0  3  0  0  0  0  0  0  0  0  0  0
  -25.7113  -11.3291   16.4060 O   0  0  0  0  0  0  0  0  0  0  0  0
  -22.4915  -27.1820   20.2151 O   0  0  0  0  0  0  0  0  0  0  0  0
  -21.5363  -30.8897   18.6557 O   0  0  0  0  0  0  0  0  0  0  0  0
  -25.3065  -30.6509   15.7834 O   0  0  0  0  0  0  0  0  0  0  0  0
  -28.2855  -18.4767   21.7113 O   0  0  0  0  0  0  0  0  0  0  0  0
  -27.5833  -23.0151   20.3448 O   0  0  0  0  0  0  0  0  0  0  0  0
  -21.4742   -7.3610   21.5914 O   0  0  0  0  0  0  0  0  0  0  0  0
  -28.5591  -26.3066   19.8943 O   0  0  0  0  0  0  0  0  0  1  0  0
  -22.7269   -4.3811   26.0585 F   0  0  0  0  0  0  0  0  0  0  0  0
  -21.8026   -8.5693   24.0561 F   0  0  0  0  0  0  0  0  0  0  0  0
  -27.6521  -20.5320   16.8684 S   0  0  0  0  0  0  0  0  0  0  0  0
  1  2  1  0  0  0  0
  1  5  2  0  0  0  0
  2  6  2  0  0  0  0
  3  8  2  0  0  0  0
  3 17  1  0  0  0  0
  4  9  1  0  0  0  0
  4 17  2  0  0  0  0
  5 19  1  0  0  0  0
  6 21  1  0  0  0  0
  7 10  2  0  0  0  0
  7 20  1  0  0  0  0
  8 24  1  0  0  0  0
  9 24  2  0  0  0  0
 10 25  1  0  0  0  0
 11 12  2  0  0  0  0
 11 26  1  0  0  0  0
 12 27  1  0  0  0  0
 13 22  1  0  0  0  0
 13 25  2  0  0  0  0
 14 23  1  0  0  0  0
 14 30  2  0  0  0  0
 15 27  2  0  0  0  0
 15 28  1  0  0  0  0
 16 23  2  0  0  0  0
 16 83  1  0  0  0  0
 17 29  1  0  0  0  0
 18 29  1  0  0  0  0
 18 31  2  0  0  0  0
 18 32  1  0  0  0  0
 19 21  2  0  0  0  0
 19 37  1  0  0  0  0
 20 22  2  0  0  0  0
 20 38  1  0  0  0  0
 21 47  1  0  0  0  0
 22 39  1  0  0  0  0
 23 69  1  0  0  0  0
 24 79  1  0  0  0  0
 25 80  1  0  0  0  0
 26 28  2  0  0  0  0
 26 79  1  0  0  0  0
 27 81  1  0  0  0  0
 28 82  1  0  0  0  0
 29 63  2  0  0  0  0
 30 48  1  0  0  0  0
 30 83  1  0  0  0  0
 31 64  1  0  0  0  0
 31 67  1  0  0  0  0
 32 68  1  0  0  0  0
 32 73  2  0  0  0  0
 33 49  1  0  0  0  0
 33 70  1  0  0  0  0
 33 74  2  0  0  0  0
 34 59  1  0  0  0  0
 34 65  1  0  0  0  0
 34 75  2  0  0  0  0
 35 60  1  0  0  0  0
 35 71  1  0  0  0  0
 35 76  2  0  0  0  0
 36 66  1  0  0  0  0
 36 69  1  0  0  0  0
 36 77  2  0  0  0  0
 37 40  1  0  0  0  0
 38 49  1  0  0  0  0
 39 65  1  0  0  0  0
 40 42  1  0  0  0  0
 41 43  1  0  0  0  0
 41 45  1  0  0  0  0
 42 47  1  0  0  0  0
 43 50  1  0  0  0  0
 44 48  1  0  0  0  0
 44 51  1  0  0  0  0
 45 66  1  0  0  0  0
 46 50  1  0  0  0  0
 46 66  1  0  0  0  0
 47 70  1  0  0  0  0
 48 51  1  0  0  0  0
 49 65  1  0  0  0  0
 50 64  1  0  0  0  0
 51 61  1  0  0  0  0
 51 78  1  0  0  0  0
 52 60  1  0  0  0  0
 53 61  1  0  0  0  0
 54 62  1  0  0  0  0
 55 62  1  0  0  0  0
 56 62  1  0  0  0  0
 57 72  1  0  0  0  0
 58 61  1  0  0  0  0
 58 80  1  0  0  0  0
 59 62  1  0  0  0  0
 59 71  1  0  0  0  0
 60 72  1  0  0  0  0
 63 64  1  0  0  0  0
M  CHG  1  72   1
M  ISO  4  36 100  58 101  69 100  80 101
M  END
> <Batch ID>
0142

> <Smiles>
CNC(C)C(=O)NC(C(=O)N1Cc2cc([101O:1][101CH2:1]C(C)C3(O)CC3c3cc([100NH:0][100C:0](=O)N4CCCC(n5nc(-c6ccc(Oc7ccc(F)cc7F)cc6)c(C(N)=O)c5N)C4)cs3)ccc2CC1C(=O)NC1CCCc2ccccc21)C(C)(C)C

> <Shape>
0.262

> <Color>
0.110

> <Negative vol penalty>
0.000

$$$$

  -OEChem-04052302573D

 85 94  0     1  0  0  0  0  0999 V2000
  -36.3659  -29.9568   27.4785 C   0  0  0  0  0  0  0  0  0  0  0  0
  -35.5640  -29.0293   26.8212 C   0  0  0  0  0  0  0  0  0  0  0  0
  -23.0764   -9.8662   19.9411 C   0  0  0  0  0  0  0  0  0  0  0  0
  -23.8348   -9.8749   22.2350 C   0  0  0  0  0  0  0  0  0  0  0  0
  -36.3388  -31.2967   27.0940 C   0  0  0  0  0  0  0  0  0  0  0  0
  -34.7335  -29.4415   25.7796 C   0  0  0  0  0  0  0  0  0  0  0  0
  -34.9268  -26.3261   21.7919 C   0  0  0  0  0  0  0  0  0  0  0  0
  -22.3327   -8.7130   20.1914 C   0  0  0  0  0  0  0  0  0  0  0  0
  -23.0910   -8.7218   22.4853 C   0  0  0  0  0  0  0  0  0  0  0  0
  -34.2112  -25.1329   21.8808 C   0  0  0  0  0  0  0  0  0  0  0  0
  -19.8627   -7.9235   23.0862 C   0  0  0  0  0  0  0  0  0  0  0  0
  -19.1049   -7.8841   24.2566 C   0  0  0  0  0  0  0  0  0  0  0  0
  -31.8819  -18.8137   22.3703 C   0  0  0  0  0  0  0  0  0  0  0  0
  -31.7940  -17.5549   21.7086 C   0  0  0  0  0  0  0  0  0  0  0  0
  -32.4375  -26.1059   20.5668 C   0  0  0  0  0  0  0  0  0  0  0  0
  -20.3464   -5.9475   24.9952 C   0  0  0  0  0  0  0  0  0  0  0  0
  -23.8275  -10.4471   20.9629 C   0  0  0  0  0  0  0  0  0  0  0  0
  -24.1687  -12.9723   20.8414 C   0  0  0  0  0  0  0  0  0  0  0  0
  -35.5147  -31.7238   26.0408 C   0  0  0  0  0  0  0  0  0  0  0  0
  -34.3975  -27.4236   21.0978 C   0  0  0  0  0  0  0  0  0  0  0  0
  -34.6943  -30.7886   25.3815 C   0  0  0  0  0  0  0  0  0  0  0  0
  -33.1496  -27.3111   20.4684 C   0  0  0  0  0  0  0  0  0  0  0  0
  -22.3400   -8.1408   21.4635 C   0  0  0  0  0  0  0  0  0  0  0  0
  -32.9650  -25.0236   21.2706 C   0  0  0  0  0  0  0  0  0  0  0  0
  -20.8622   -6.9748   22.8702 C   0  0  0  0  0  0  0  0  0  0  0  0
  -19.3468   -6.8962   25.2111 C   0  0  0  0  0  0  0  0  0  0  0  0
  -21.1041   -5.9869   23.8248 C   0  0  0  0  0  0  0  0  0  0  0  0
  -24.5964  -11.6380   20.7049 C   0  0  0  0  0  0  0  0  0  0  0  0
  -25.2609  -13.7218   20.4783 C   0  0  0  0  0  0  0  0  0  0  0  0
  -30.7344  -19.1106   23.0721 C   0  0  0  0  0  0  0  0  0  0  0  0
  -30.5825  -16.9374   21.9302 C   0  0  0  0  0  0  0  0  0  0  0  0
  -29.1757  -20.4558   24.5518 C   0  0  0  0  0  0  0  0  0  0  0  0
  -22.8978  -13.4880   21.2591 C   0  0  0  0  0  0  0  0  0  0  0  0
  -31.2167  -22.2674   22.8460 C   0  0  0  0  0  0  0  0  0  0  0  0
  -33.5539  -30.3840   21.8903 C   0  0  0  0  0  0  0  0  0  0  0  0
  -33.1139  -30.6980   18.6919 C   0  0  0  0  0  0  0  0  0  0  0  0
  -32.4982  -29.1945   15.6907 C   0  0  0  0  0  0  0  0  0  0  0  0
  -30.7267  -14.7690   20.6561 C   0  0  0  0  0  0  0  0  0  0  0  0
  -35.4841  -33.1908   25.6921 C   0  0  0  0  0  0  0  0  0  0  0  0
  -35.1939  -28.6949   20.9885 C   0  0  0  0  0  0  0  0  0  0  0  0
  -32.5461  -28.4533   19.6941 C   0  0  0  0  0  0  0  0  0  0  0  0
  -29.2618  -21.7961   25.2434 C   0  0  0  0  0  0  0  0  0  0  0  0
  -34.8555  -33.4805   24.3315 C   0  0  0  0  0  0  0  0  0  0  0  0
  -30.7502  -22.0970   25.2730 C   0  0  0  0  0  0  0  0  0  0  0  0
  -29.6145  -12.3534   18.2886 C   0  0  0  0  0  0  0  0  0  0  0  0
  -33.5520  -32.7049   24.1697 C   0  0  0  0  0  0  0  0  0  0  0  0
  -28.1747  -12.0617   18.7174 C   0  0  0  0  0  0  0  0  0  0  0  0
  -30.5288  -12.5832   19.4907 C   0  0  0  0  0  0  0  0  0  0  0  0
  -28.6207  -13.3080   20.8703 C   0  0  0  0  0  0  0  0  0  0  0  0
  -33.7986  -31.1926   24.2306 C   0  0  1  0  0  0  0  0  0  0  0  0
  -31.2908  -21.3759   24.0513 C   0  0  1  0  0  0  0  0  0  0  0  0
  -34.3305  -29.9172   20.6918 C   0  0  1  0  0  0  0  0  0  0  0  0
  -27.6487  -13.1337   19.6919 C   0  0  2  0  0  0  0  0  0  0  0  0
  -32.1558  -29.7155   13.2599 C   0  0  0  0  0  0  0  0  0  0  0  0
  -30.2918  -31.6838   19.3032 C   0  0  0  0  0  0  0  0  0  0  0  0
  -29.7053  -31.2784   16.9032 C   0  0  0  0  0  0  0  0  0  0  0  0
  -31.4672  -32.9438   17.4907 C   0  0  0  0  0  0  0  0  0  0  0  0
  -34.8547  -27.5902   14.8955 C   0  0  0  0  0  0  0  0  0  0  0  0
  -32.4612  -23.0681   22.5267 C   0  0  0  0  0  0  0  0  0  1  0  0
  -31.9593  -30.4770   17.7447 C   0  0  1  0  0  0  0  0  0  0  0  0
  -33.1647  -29.3418   14.3347 C   0  0  2  0  0  0  0  0  0  0  0  0
  -30.8661  -31.5747   17.8766 C   0  0  0  0  0  0  0  0  0  0  0  0
  -25.8616  -11.5423   20.2875 N   0  0  0  0  0  0  0  0  0  0  0  0
  -26.2382  -12.8259   20.1586 N   0  0  0  0  0  0  0  0  0  0  0  0
  -30.3922  -20.2501   23.8687 N   0  0  0  0  0  0  0  0  0  0  0  0
  -33.3606  -29.6776   19.6213 N   0  0  0  0  0  0  0  0  0  0  0  0
  -29.9690  -13.6144   20.3671 N   0  0  0  0  0  0  0  0  0  0  0  0
  -25.4710  -15.0533   20.4046 N   0  0  0  0  0  0  0  0  0  0  0  0
  -21.8859  -12.5788   21.5963 N   0  0  0  0  0  0  0  0  0  0  0  0
  -30.0786  -15.6944   21.4735 N   0  0  0  0  0  0  0  0  0  0  0  0
  -34.3411  -30.7180   22.9757 N   0  0  0  0  0  0  0  0  0  0  0  0
  -32.5404  -30.3695   16.4108 N   0  0  0  0  0  0  0  0  0  0  0  0
  -33.8216  -28.0640   13.9388 N   0  3  0  0  0  0  0  0  0  0  0  0
  -28.1704  -19.7615   24.5998 O   0  0  0  0  0  0  0  0  0  0  0  0
  -22.6612  -14.7186   21.3154 O   0  0  0  0  0  0  0  0  0  0  0  0
  -30.1957  -22.3356   22.1634 O   0  0  0  0  0  0  0  0  0  0  0  0
  -32.3309  -30.4385   21.8340 O   0  0  0  0  0  0  0  0  0  0  0  0
  -33.7771  -31.7345   18.6054 O   0  0  0  0  0  0  0  0  0  0  0  0
  -31.9878  -28.1432   16.0713 O   0  0  0  0  0  0  0  0  0  0  0  0
  -31.8561  -14.9377   20.1891 O   0  0  0  0  0  0  0  0  0  0  0  0
  -21.6142   -7.0156   21.7081 O   0  0  0  0  0  0  0  0  0  0  0  0
  -32.2641  -23.8604   21.3564 O   0  0  0  0  0  0  0  0  0  1  0  0
  -18.6201   -6.8595   26.3357 F   0  0  0  0  0  0  0  0  0  0  0  0
  -22.0638   -5.0735   23.6234 F   0  0  0  0  0  0  0  0  0  0  0  0
  -29.5576  -17.8745   22.9320 S   0  0  0  0  0  0  0  0  0  0  0  0
  1  2  1  0  0  0  0
  1  5  2  0  0  0  0
  2  6  2  0  0  0  0
  3  8  2  0  0  0  0
  3 17  1  0  0  0  0
  4  9  1  0  0  0  0
  4 17  2  0  0  0  0
  5 19  1  0  0  0  0
  6 21  1  0  0  0  0
  7 10  2  0  0  0  0
  7 20  1  0  0  0  0
  8 23  1  0  0  0  0
  9 23  2  0  0  0  0
 10 24  1  0  0  0  0
 11 12  2  0  0  0  0
 11 25  1  0  0  0  0
 12 26  1  0  0  0  0
 13 14  1  0  0  0  0
 13 30  2  0  0  0  0
 14 31  2  0  0  0  0
 15 22  1  0  0  0  0
 15 24  2  0  0  0  0
 16 26  2  0  0  0  0
 16 27  1  0  0  0  0
 17 28  1  0  0  0  0
 18 28  1  0  0  0  0
 18 29  2  0  0  0  0
 18 33  1  0  0  0  0
 19 21  2  0  0  0  0
 19 39  1  0  0  0  0
 20 22  2  0  0  0  0
 20 40  1  0  0  0  0
 21 50  1  0  0  0  0
 22 41  1  0  0  0  0
 23 81  1  0  0  0  0
 24 82  1  0  0  0  0
 25 27  2  0  0  0  0
 25 81  1  0  0  0  0
 26 83  1  0  0  0  0
 27 84  1  0  0  0  0
 28 63  2  0  0  0  0
 29 64  1  0  0  0  0
 29 68  1  0  0  0  0
 30 65  1  0  0  0  0
 30 85  1  0  0  0  0
 31 70  1  0  0  0  0
 31 85  1  0  0  0  0
 32 42  1  0  0  0  0
 32 65  1  0  0  0  0
 32 74  2  0  0  0  0
 33 69  1  0  0  0  0
 33 75  2  0  0  0  0
 34 51  1  0  0  0  0
 34 59  1  0  0  0  0
 34 76  2  0  0  0  0
 35 52  1  0  0  0  0
 35 71  1  0  0  0  0
 35 77  2  0  0  0  0
 36 60  1  0  0  0  0
 36 66  1  0  0  0  0
 36 78  2  0  0  0  0
 37 61  1  0  0  0  0
 37 72  1  0  0  0  0
 37 79  2  0  0  0  0
 38 67  1  0  0  0  0
 38 70  1  0  0  0  0
 38 80  2  0  0  0  0
 39 43  1  0  0  0  0
 40 52  1  0  0  0  0
 41 66  1  0  0  0  0
 42 44  1  0  0  0  0
 43 46  1  0  0  0  0
 44 51  1  0  0  0  0
 45 47  1  0  0  0  0
 45 48  1  0  0  0  0
 46 50  1  0  0  0  0
 47 53  1  0  0  0  0
 48 67  1  0  0  0  0
 49 53  1  0  0  0  0
 49 67  1  0  0  0  0
 50 71  1  0  0  0  0
 51 65  1  0  0  0  0
 52 66  1  0  0  0  0
 53 64  1  0  0  0  0
 54 61  1  0  0  0  0
 55 62  1  0  0  0  0
 56 62  1  0  0  0  0
 57 62  1  0  0  0  0
 58 73  1  0  0  0  0
 59 82  1  0  0  0  0
 60 62  1  0  0  0  0
 60 72  1  0  0  0  0
 61 73  1  0  0  0  0
 63 64  1  0  0  0  0
M  CHG  1  73   1
M  ISO  4  38 100  59 101  70 100  82 101
M  END
> <Batch ID>
0142

> <Smiles>
CNC(C)C(=O)NC(C(=O)N1Cc2cc([101O:1][101CH2:1]C(=O)C3CCC(=O)N3c3ccc([100NH:0][100C:0](=O)N4CCCC(n5nc(-c6ccc(Oc7ccc(F)cc7F)cc6)c(C(N)=O)c5N)C4)s3)ccc2CC1C(=O)NC1CCCc2ccccc21)C(C)(C)C

> <Shape>
0.174

> <Color>
0.188

> <Negative vol penalty>
0.000

$$$$

  -OEChem-04052302573D

 85 94  0     1  0  0  0  0  0999 V2000
  -35.7737  -34.4202   31.2843 C   0  0  0  0  0  0  0  0  0  0  0  0
  -35.8402  -33.1403   30.7431 C   0  0  0  0  0  0  0  0  0  0  0  0
  -23.2076   -9.6450   20.1313 C   0  0  0  0  0  0  0  0  0  0  0  0
  -23.7988  -10.0060   22.4458 C   0  0  0  0  0  0  0  0  0  0  0  0
  -32.2010  -18.1381   23.1576 C   0  0  0  0  0  0  0  0  0  0  0  0
  -29.9486  -18.9527   23.4747 C   0  0  0  0  0  0  0  0  0  0  0  0
  -34.5526  -35.0912   31.3364 C   0  0  0  0  0  0  0  0  0  0  0  0
  -34.6854  -32.5302   30.2547 C   0  0  0  0  0  0  0  0  0  0  0  0
  -34.2698  -28.7381   25.4638 C   0  0  0  0  0  0  0  0  0  0  0  0
  -31.7154  -17.1097   22.3500 C   0  0  0  0  0  0  0  0  0  0  0  0
  -29.4630  -17.9243   22.6670 C   0  0  0  0  0  0  0  0  0  0  0  0
  -22.4928   -8.5029   20.4919 C   0  0  0  0  0  0  0  0  0  0  0  0
  -23.0839   -8.8639   22.8065 C   0  0  0  0  0  0  0  0  0  0  0  0
  -34.2144  -27.3482   25.3697 C   0  0  0  0  0  0  0  0  0  0  0  0
  -19.8539   -8.0018   23.3007 C   0  0  0  0  0  0  0  0  0  0  0  0
  -19.0163   -8.0877   24.4128 C   0  0  0  0  0  0  0  0  0  0  0  0
  -31.8070  -27.4576   25.2604 C   0  0  0  0  0  0  0  0  0  0  0  0
  -20.2751   -6.3331   25.4963 C   0  0  0  0  0  0  0  0  0  0  0  0
  -23.8608  -10.3966   21.1082 C   0  0  0  0  0  0  0  0  0  0  0  0
  -31.3176  -19.0595   23.7200 C   0  0  0  0  0  0  0  0  0  0  0  0
  -24.1126  -12.8944   20.6553 C   0  0  0  0  0  0  0  0  0  0  0  0
  -33.3840  -34.4928   30.8396 C   0  0  0  0  0  0  0  0  0  0  0  0
  -33.0917  -29.4988   25.4679 C   0  0  0  0  0  0  0  0  0  0  0  0
  -33.4473  -33.1933   30.3015 C   0  0  0  0  0  0  0  0  0  0  0  0
  -31.8503  -28.8572   25.3521 C   0  0  0  0  0  0  0  0  0  0  0  0
  -30.3464  -17.0028   22.1046 C   0  0  0  0  0  0  0  0  0  0  0  0
  -22.4308   -8.1124   21.8295 C   0  0  0  0  0  0  0  0  0  0  0  0
  -32.9827  -26.7075   25.2709 C   0  0  0  0  0  0  0  0  0  0  0  0
  -20.9020   -7.0816   23.2864 C   0  0  0  0  0  0  0  0  0  0  0  0
  -19.2269   -7.2534   25.5106 C   0  0  0  0  0  0  0  0  0  0  0  0
  -21.1126   -6.2472   24.3842 C   0  0  0  0  0  0  0  0  0  0  0  0
  -24.5999  -11.5761   20.7362 C   0  0  0  0  0  0  0  0  0  0  0  0
  -25.1984  -13.6383   20.2628 C   0  0  0  0  0  0  0  0  0  0  0  0
  -32.9042  -23.4686   23.7266 C   0  0  0  0  0  0  0  0  0  0  0  0
  -32.9544  -24.7881   23.9346 C   0  0  0  0  0  0  0  0  0  1  0  0
  -31.8305  -20.1461   24.5735 C   0  0  0  0  0  0  0  0  0  0  0  0
  -22.7961  -13.4011   20.9121 C   0  0  0  0  0  0  0  0  0  0  0  0
  -31.7018  -31.4704   27.5378 C   0  0  0  0  0  0  0  0  0  0  0  0
  -29.6389  -31.9662   25.0841 C   0  0  0  0  0  0  0  0  0  0  0  0
  -28.2327  -30.8016   22.2008 C   0  0  0  0  0  0  0  0  0  0  0  0
  -30.5931  -14.9613   20.6495 C   0  0  0  0  0  0  0  0  0  0  0  0
  -32.0786  -35.2385   30.9608 C   0  0  0  0  0  0  0  0  0  0  0  0
  -33.1697  -30.9990   25.5431 C   0  0  0  0  0  0  0  0  0  0  0  0
  -30.5574  -29.6295   25.3315 C   0  0  0  0  0  0  0  0  0  0  0  0
  -32.9326  -22.8042   22.3814 C   0  0  0  0  0  0  0  0  0  0  0  0
  -32.6908  -22.4394   24.7942 C   0  0  0  0  0  0  0  0  0  0  0  0
  -30.9686  -34.6704   30.0802 C   0  0  0  0  0  0  0  0  0  0  0  0
  -29.7470  -12.1920   18.5777 C   0  0  0  0  0  0  0  0  0  0  0  0
  -30.9105  -33.1515   30.2080 C   0  0  0  0  0  0  0  0  0  0  0  0
  -28.2924  -11.8933   18.9479 C   0  0  0  0  0  0  0  0  0  0  0  0
  -32.0587  -21.5720   22.5815 C   0  0  0  0  0  0  0  0  0  0  0  0
  -30.5633  -12.6288   19.7928 C   0  0  0  0  0  0  0  0  0  0  0  0
  -28.5349  -13.4443   20.9285 C   0  0  0  0  0  0  0  0  0  0  0  0
  -32.2209  -32.5079   29.7389 C   0  0  1  0  0  0  0  0  0  0  0  0
  -31.8835  -31.6392   26.0559 C   0  0  1  0  0  0  0  0  0  0  0  0
  -27.6572  -13.0629   19.7252 C   0  0  2  0  0  0  0  0  0  0  0  0
  -26.5507  -31.4141   20.4421 C   0  0  0  0  0  0  0  0  0  0  0  0
  -27.3761  -31.2799   27.0126 C   0  0  0  0  0  0  0  0  0  0  0  0
  -25.8740  -30.9773   25.0326 C   0  0  0  0  0  0  0  0  0  0  0  0
  -26.9002  -33.2049   25.4886 C   0  0  0  0  0  0  0  0  0  0  0  0
  -30.2781  -30.7519   20.0624 C   0  0  0  0  0  0  0  0  0  0  0  0
  -28.3524  -31.3251   24.6228 C   0  0  1  0  0  0  0  0  0  0  0  0
  -28.0153  -31.4581   20.8495 C   0  0  2  0  0  0  0  0  0  0  0  0
  -27.1497  -31.6818   25.5415 C   0  0  0  0  0  0  0  0  0  0  0  0
  -25.8944  -11.4847   20.4203 N   0  0  0  0  0  0  0  0  0  0  0  0
  -26.2298  -12.7549   20.1371 N   0  0  0  0  0  0  0  0  0  0  0  0
  -32.1697  -21.2983   24.0234 N   0  0  0  0  0  0  0  0  0  0  0  0
  -30.6857  -31.0938   25.4140 N   0  0  0  0  0  0  0  0  0  0  0  0
  -29.9029  -13.7429   20.4767 N   0  0  0  0  0  0  0  0  0  0  0  0
  -25.3619  -14.9555   20.0164 N   0  0  0  0  0  0  0  0  0  0  0  0
  -21.7984  -12.4994   21.3067 N   0  0  0  0  0  0  0  0  0  0  0  0
  -29.8530  -15.9582   21.2842 N   0  0  0  0  0  0  0  0  0  0  0  0
  -32.2781  -32.4737   28.2932 N   0  0  0  0  0  0  0  0  0  0  0  0
  -28.1770  -31.7187   23.2290 N   0  0  0  0  0  0  0  0  0  0  0  0
  -31.9421  -19.9502   25.8840 N   0  3  0  0  0  0  0  0  0  0  0  0
  -28.8157  -30.7638   19.8015 N   0  3  0  0  0  0  0  0  0  0  0  0
  -22.5090  -14.6149   20.7791 O   0  0  0  0  0  0  0  0  0  0  0  0
  -31.0832  -30.5023   27.9643 O   0  0  0  0  0  0  0  0  0  0  0  0
  -29.7146  -33.1961   25.1426 O   0  0  0  0  0  0  0  0  0  0  0  0
  -28.4286  -29.5954   22.3316 O   0  0  0  0  0  0  0  0  0  0  0  0
  -31.7457  -15.1181   20.2385 O   0  0  0  0  0  0  0  0  0  0  0  0
  -21.7331   -6.9981   22.1819 O   0  0  0  0  0  0  0  0  0  0  0  0
  -32.9258  -25.3510   25.1796 O   0  0  0  0  0  0  0  0  0  1  0  0
  -18.4235   -7.3370   26.5791 F   0  0  0  0  0  0  0  0  0  0  0  0
  -22.1187   -5.3620   24.3767 F   0  0  0  0  0  0  0  0  0  0  0  0
  1  2  1  0  0  0  0
  1  7  2  0  0  0  0
  2  8  2  0  0  0  0
  3 12  2  0  0  0  0
  3 19  1  0  0  0  0
  4 13  1  0  0  0  0
  4 19  2  0  0  0  0
  5 10  2  0  0  0  0
  5 20  1  0  0  0  0
  6 11  1  0  0  0  0
  6 20  2  0  0  0  0
  7 22  1  0  0  0  0
  8 24  1  0  0  0  0
  9 14  2  0  0  0  0
  9 23  1  0  0  0  0
 10 26  1  0  0  0  0
 11 26  2  0  0  0  0
 12 27  1  0  0  0  0
 13 27  2  0  0  0  0
 14 28  1  0  0  0  0
 15 16  2  0  0  0  0
 15 29  1  0  0  0  0
 16 30  1  0  0  0  0
 17 25  1  0  0  0  0
 17 28  2  0  0  0  0
 18 30  2  0  0  0  0
 18 31  1  0  0  0  0
 19 32  1  0  0  0  0
 20 36  1  0  0  0  0
 21 32  1  0  0  0  0
 21 33  2  0  0  0  0
 21 37  1  0  0  0  0
 22 24  2  0  0  0  0
 22 42  1  0  0  0  0
 23 25  2  0  0  0  0
 23 43  1  0  0  0  0
 24 54  1  0  0  0  0
 25 44  1  0  0  0  0
 26 72  1  0  0  0  0
 27 82  1  0  0  0  0
 28 83  1  0  0  0  0
 29 31  2  0  0  0  0
 29 82  1  0  0  0  0
 30 84  1  0  0  0  0
 31 85  1  0  0  0  0
 32 65  2  0  0  0  0
 33 66  1  0  0  0  0
 33 70  1  0  0  0  0
 34 35  2  0  0  0  0
 34 45  1  0  0  0  0
 34 46  1  0  0  0  0
 35 83  1  0  0  0  0
 36 67  1  0  0  0  0
 36 75  2  0  0  0  0
 37 71  1  0  0  0  0
 37 77  2  0  0  0  0
 38 55  1  0  0  0  0
 38 73  1  0  0  0  0
 38 78  2  0  0  0  0
 39 62  1  0  0  0  0
 39 68  1  0  0  0  0
 39 79  2  0  0  0  0
 40 63  1  0  0  0  0
 40 74  1  0  0  0  0
 40 80  2  0  0  0  0
 41 69  1  0  0  0  0
 41 72  1  0  0  0  0
 41 81  2  0  0  0  0
 42 47  1  0  0  0  0
 43 55  1  0  0  0  0
 44 68  1  0  0  0  0
 45 51  1  0  0  0  0
 46 67  1  0  0  0  0
 47 49  1  0  0  0  0
 48 50  1  0  0  0  0
 48 52  1  0  0  0  0
 49 54  1  0  0  0  0
 50 56  1  0  0  0  0
 51 67  1  0  0  0  0
 52 69  1  0  0  0  0
 53 56  1  0  0  0  0
 53 69  1  0  0  0  0
 54 73  1  0  0  0  0
 55 68  1  0  0  0  0
 56 66  1  0  0  0  0
 57 63  1  0  0  0  0
 58 64  1  0  0  0  0
 59 64  1  0  0  0  0
 60 64  1  0  0  0  0
 61 76  1  0  0  0  0
 62 64  1  0  0  0  0
 62 74  1  0  0  0  0
 63 76  1  0  0  0  0
 65 66  1  0  0  0  0
M  CHG  2  75   1  76   1
M  ISO  4  35 101  41 100  72 100  83 101
M  END
> <Batch ID>
0142

> <Smiles>
CNC(C)C(=O)NC(C(=O)N1Cc2cc([101O:1][101CH:1]=C3CCN(C(=N)c4ccc([100NH:0][100C:0](=O)N5CCCC(n6nc(-c7ccc(Oc8ccc(F)cc8F)cc7)c(C(N)=O)c6N)C5)cc4)C3)ccc2CC1C(=O)NC1CCCc2ccccc21)C(C)(C)C

> <Shape>
0.213

> <Color>
0.187

> <Negative vol penalty>
0.000

$$$$

  -OEChem-04052302573D

 93101  0     1  0  0  0  0  0999 V2000
  -29.1789  -25.8016   16.2088 C   0  0  0  0  0  0  0  0  0  0  0  0
  -27.9699  -26.3844   16.5715 C   0  0  0  0  0  0  0  0  0  0  0  0
  -28.2201  -22.5338   20.4744 C   0  0  0  0  0  0  0  0  0  0  0  0
  -24.9270  -10.4492   23.5211 C   0  0  0  0  0  0  0  0  0  0  0  0
  -23.9316  -12.0736   25.0068 C   0  0  0  0  0  0  0  0  0  0  0  0
  -30.2572  -25.8364   17.0903 C   0  0  0  0  0  0  0  0  0  0  0  0
  -27.8424  -27.0127   17.8108 C   0  0  0  0  0  0  0  0  0  0  0  0
  -23.6554  -29.4524   18.6596 C   0  0  0  0  0  0  0  0  0  0  0  0
  -26.9430  -22.9224   20.0702 C   0  0  0  0  0  0  0  0  0  0  0  0
  -28.4198  -21.2741   21.0393 C   0  0  0  0  0  0  0  0  0  0  0  0
  -24.4904   -9.4194   24.3544 C   0  0  0  0  0  0  0  0  0  0  0  0
  -23.4949  -11.0438   25.8402 C   0  0  0  0  0  0  0  0  0  0  0  0
  -22.4398  -28.8078   18.8842 C   0  0  0  0  0  0  0  0  0  0  0  0
  -23.3261   -6.3434   25.9028 C   0  0  0  0  0  0  0  0  0  0  0  0
  -22.7371   -5.2300   25.3037 C   0  0  0  0  0  0  0  0  0  0  0  0
  -22.6387  -29.2679   21.2438 C   0  0  0  0  0  0  0  0  0  0  0  0
  -21.0189   -6.6447   24.3638 C   0  0  0  0  0  0  0  0  0  0  0  0
  -24.6476  -11.7763   23.8473 C   0  0  0  0  0  0  0  0  0  0  0  0
  -24.4051  -13.4085   21.9018 C   0  0  0  0  0  0  0  0  0  0  0  0
  -30.1383  -26.4547   18.3459 C   0  0  0  0  0  0  0  0  0  0  0  0
  -24.3784  -30.0009   19.7286 C   0  0  0  0  0  0  0  0  0  0  0  0
  -28.9264  -27.0793   18.7046 C   0  0  0  0  0  0  0  0  0  0  0  0
  -23.8621  -29.9211   21.0298 C   0  0  0  0  0  0  0  0  0  0  0  0
  -25.8654  -22.0514   20.2311 C   0  0  0  0  0  0  0  0  0  0  0  0
  -26.0650  -20.7917   20.7960 C   0  0  0  0  0  0  0  0  0  0  0  0
  -27.3423  -20.4031   21.2001 C   0  0  0  0  0  0  0  0  0  0  0  0
  -23.7743   -9.7167   25.5139 C   0  0  0  0  0  0  0  0  0  0  0  0
  -21.9326  -28.7129   20.1768 C   0  0  0  0  0  0  0  0  0  0  0  0
  -22.7615   -7.6075   25.7324 C   0  0  0  0  0  0  0  0  0  0  0  0
  -21.5835   -5.3806   24.5342 C   0  0  0  0  0  0  0  0  0  0  0  0
  -21.6079   -7.7581   24.9629 C   0  0  0  0  0  0  0  0  0  0  0  0
  -25.0989  -12.8406   22.9872 C   0  0  0  0  0  0  0  0  0  0  0  0
  -25.2549  -14.3730   21.4180 C   0  0  0  0  0  0  0  0  0  0  0  0
  -23.1085  -13.0925   21.3779 C   0  0  0  0  0  0  0  0  0  0  0  0
  -27.2429  -29.4766   21.0028 C   0  0  0  0  0  0  0  0  0  0  0  0
  -26.4853  -32.0665   22.8030 C   0  0  0  0  0  0  0  0  0  0  0  0
  -24.0556  -34.0597   24.1334 C   0  0  0  0  0  0  0  0  0  0  0  0
  -22.3453  -23.8452   20.1488 C   0  0  0  0  0  0  0  0  0  0  0  0
  -28.7814  -18.6061   22.2229 C   0  0  0  0  0  0  0  0  0  0  0  0
  -31.3397  -26.4703   19.2578 C   0  0  0  0  0  0  0  0  0  0  0  0
  -25.6752  -30.7164   19.4662 C   0  0  0  0  0  0  0  0  0  0  0  0
  -24.5895  -30.5113   22.2092 C   0  0  0  0  0  0  0  0  0  0  0  0
  -30.9794  -26.7625   20.7108 C   0  0  0  0  0  0  0  0  0  0  0  0
  -30.1141  -15.3143   22.4779 C   0  0  0  0  0  0  0  0  0  0  0  0
  -30.0828  -27.9892   20.7873 C   0  0  0  0  0  0  0  0  0  0  0  0
  -28.8711  -14.4240   22.5438 C   0  0  0  0  0  0  0  0  0  0  0  0
  -29.9088  -16.6311   23.2246 C   0  0  0  0  0  0  0  0  0  0  0  0
  -27.4708  -16.4980   22.8968 C   0  0  0  0  0  0  0  0  0  0  0  0
  -28.7552  -27.7415   20.0598 C   0  0  1  0  0  0  0  0  0  0  0  0
  -26.5773  -30.7879   20.6944 C   0  0  1  0  0  0  0  0  0  0  0  0
  -27.6068  -15.1879   22.1039 C   0  0  2  0  0  0  0  0  0  0  0  0
  -24.8917  -25.5199   19.5975 C   0  0  0  0  0  0  0  0  0  0  0  0
  -24.6398  -19.5242   22.4439 C   0  0  0  0  0  0  0  0  0  0  0  0
  -25.0728  -18.5655   20.1529 C   0  0  0  0  0  0  0  0  0  0  0  0
  -23.7428  -36.0775   25.5923 C   0  0  0  0  0  0  0  0  0  0  0  0
  -23.5393  -22.8271   22.1223 C   0  0  0  0  0  0  0  0  0  0  0  0
  -27.0985  -30.3762   25.2682 C   0  0  0  0  0  0  0  0  0  0  0  0
  -25.8850  -32.0756   26.6494 C   0  0  0  0  0  0  0  0  0  0  0  0
  -27.9325  -32.7310   25.3842 C   0  0  0  0  0  0  0  0  0  0  0  0
  -19.5164  -25.5301   22.9173 C   0  0  0  0  0  0  0  0  0  0  0  0
  -18.2875  -26.6581   21.0421 C   0  0  0  0  0  0  0  0  0  0  0  0
  -22.7256  -35.5676   21.9616 C   0  0  0  0  0  0  0  0  0  0  0  0
  -24.4908  -22.4983   19.7841 C   0  0  0  0  0  0  0  0  0  0  0  0
  -24.6096  -24.7569   20.8880 C   0  0  0  0  0  0  0  0  0  0  0  0
  -20.3032  -25.2023   20.5330 C   0  0  0  0  0  0  0  0  0  0  0  0
  -20.5791  -27.4406   21.6617 C   0  0  0  0  0  0  0  0  0  1  0  0
  -24.9058  -19.8606   20.9664 C   0  0  0  0  0  0  0  0  0  0  0  0
  -25.7871  -32.2832   24.1238 C   0  0  1  0  0  0  0  0  0  0  0  0
  -23.8976  -35.5691   24.1674 C   0  0  2  0  0  0  0  0  0  0  0  0
  -23.7302  -23.4779   20.7347 C   0  0  1  0  0  0  0  0  0  0  0  0
  -26.6628  -31.8536   25.3346 C   0  0  0  0  0  0  0  0  0  0  0  0
  -19.6704  -26.1958   21.5364 C   0  0  0  0  0  0  0  0  0  0  0  0
  -26.2971  -13.3978   23.1816 N   0  0  0  0  0  0  0  0  0  0  0  0
  -26.3629  -14.3258   22.2118 N   0  0  0  0  0  0  0  0  0  0  0  0
  -25.8565  -31.1953   21.9022 N   0  0  0  0  0  0  0  0  0  0  0  0
  -28.6952  -17.3011   22.7523 N   0  0  0  0  0  0  0  0  0  0  0  0
  -25.1549  -15.2484   20.3952 N   0  0  0  0  0  0  0  0  0  0  0  0
  -22.3688  -12.0741   21.9945 N   0  0  0  0  0  0  0  0  0  0  0  0
  -27.5681  -19.1282   21.7757 N   0  0  0  0  0  0  0  0  0  0  0  0
  -28.0245  -28.9867   19.9739 N   0  0  0  0  0  0  0  0  0  0  0  0
  -21.6107  -24.7413   20.9167 N   0  0  0  0  0  0  0  0  0  0  0  0
  -25.3824  -33.6846   24.1465 N   0  0  0  0  0  0  0  0  0  0  0  0
  -22.6963  -35.9819   23.3880 N   0  3  0  0  0  0  0  0  0  0  0  0
  -22.6271  -13.6841   20.3820 O   0  0  0  0  0  0  0  0  0  0  0  0
  -27.0619  -28.9490   22.0940 O   0  0  0  0  0  0  0  0  0  0  0  0
  -27.5459  -32.6542   22.5761 O   0  0  0  0  0  0  0  0  0  0  0  0
  -23.0977  -33.2903   24.1025 O   0  0  0  0  0  0  0  0  0  0  0  0
  -21.9408  -23.3754   19.0847 O   0  0  0  0  0  0  0  0  0  0  0  0
  -29.8570  -19.2051   22.1451 O   0  0  0  0  0  0  0  0  0  0  0  0
  -23.3479   -8.7120   26.3272 O   0  0  0  0  0  0  0  0  0  0  0  0
  -20.7466  -28.0838   20.3989 O   0  0  0  0  0  0  0  0  0  1  0  0
  -21.0188   -4.3115   23.9577 F   0  0  0  0  0  0  0  0  0  0  0  0
  -21.0616   -8.9702   24.7947 F   0  0  0  0  0  0  0  0  0  0  0  0
  1  2  1  0  0  0  0
  1  6  2  0  0  0  0
  2  7  2  0  0  0  0
  3  9  2  0  0  0  0
  3 10  1  0  0  0  0
  4 11  2  0  0  0  0
  4 18  1  0  0  0  0
  5 12  1  0  0  0  0
  5 18  2  0  0  0  0
  6 20  1  0  0  0  0
  7 22  1  0  0  0  0
  8 13  2  0  0  0  0
  8 21  1  0  0  0  0
  9 24  1  0  0  0  0
 10 26  2  0  0  0  0
 11 27  1  0  0  0  0
 12 27  2  0  0  0  0
 13 28  1  0  0  0  0
 14 15  2  0  0  0  0
 14 29  1  0  0  0  0
 15 30  1  0  0  0  0
 16 23  1  0  0  0  0
 16 28  2  0  0  0  0
 17 30  2  0  0  0  0
 17 31  1  0  0  0  0
 18 32  1  0  0  0  0
 19 32  1  0  0  0  0
 19 33  2  0  0  0  0
 19 34  1  0  0  0  0
 20 22  2  0  0  0  0
 20 40  1  0  0  0  0
 21 23  2  0  0  0  0
 21 41  1  0  0  0  0
 22 49  1  0  0  0  0
 23 42  1  0  0  0  0
 24 25  2  0  0  0  0
 24 63  1  0  0  0  0
 25 26  1  0  0  0  0
 25 67  1  0  0  0  0
 26 79  1  0  0  0  0
 27 90  1  0  0  0  0
 28 91  1  0  0  0  0
 29 31  2  0  0  0  0
 29 90  1  0  0  0  0
 30 92  1  0  0  0  0
 31 93  1  0  0  0  0
 32 73  2  0  0  0  0
 33 74  1  0  0  0  0
 33 77  1  0  0  0  0
 34 78  1  0  0  0  0
 34 84  2  0  0  0  0
 35 50  1  0  0  0  0
 35 80  1  0  0  0  0
 35 85  2  0  0  0  0
 36 68  1  0  0  0  0
 36 75  1  0  0  0  0
 36 86  2  0  0  0  0
 37 69  1  0  0  0  0
 37 82  1  0  0  0  0
 37 87  2  0  0  0  0
 38 70  1  0  0  0  0
 38 81  1  0  0  0  0
 38 88  2  0  0  0  0
 39 76  1  0  0  0  0
 39 79  1  0  0  0  0
 39 89  2  0  0  0  0
 40 43  1  0  0  0  0
 41 50  1  0  0  0  0
 42 75  1  0  0  0  0
 43 45  1  0  0  0  0
 44 46  1  0  0  0  0
 44 47  1  0  0  0  0
 45 49  1  0  0  0  0
 46 51  1  0  0  0  0
 47 76  1  0  0  0  0
 48 51  1  0  0  0  0
 48 76  1  0  0  0  0
 49 80  1  0  0  0  0
 50 75  1  0  0  0  0
 51 74  1  0  0  0  0
 52 64  1  0  0  0  0
 53 67  1  0  0  0  0
 54 67  1  0  0  0  0
 55 69  1  0  0  0  0
 56 70  1  0  0  0  0
 57 71  1  0  0  0  0
 58 71  1  0  0  0  0
 59 71  1  0  0  0  0
 60 72  1  0  0  0  0
 61 72  1  0  0  0  0
 62 83  1  0  0  0  0
 63 70  1  0  0  0  0
 64 70  1  0  0  0  0
 65 72  1  0  0  0  0
 65 81  1  0  0  0  0
 66 72  1  0  0  0  0
 66 91  1  0  0  0  0
 68 71  1  0  0  0  0
 68 82  1  0  0  0  0
 69 83  1  0  0  0  0
 73 74  1  0  0  0  0
M  CHG  1  83   1
M  ISO  4  39 100  66 101  79 100  91 101
M  END
> <Batch ID>
0142

> <Smiles>
CCC(C)(Cc1cccc([100NH:0][100C:0](=O)N2CCCC(n3nc(-c4ccc(Oc5ccc(F)cc5F)cc4)c(C(N)=O)c3N)C2)c1C(C)C)C(=O)NCC(C)(C)[101CH2:1][101O:1]c1ccc2c(c1)CN(C(=O)C(NC(=O)C(C)NC)C(C)(C)C)C(C(=O)NC1CCCc3ccccc31)C2

> <Shape>
0.292

> <Color>
0.100

> <Negative vol penalty>
0.000

$$$$

  -OEChem-04052302573D

 85 94  0     1  0  0  0  0  0999 V2000
  -28.7259  -11.1838   21.6446 C   0  0  0  0  0  0  0  0  0  0  0  0
  -29.0262  -12.4421   21.1328 C   0  0  0  0  0  0  0  0  0  0  0  0
  -20.1227  -27.1790   23.2108 C   0  0  0  0  0  0  0  0  0  0  0  0
  -19.4885  -29.4765   22.8156 C   0  0  0  0  0  0  0  0  0  0  0  0
  -27.4209  -10.6978   21.5757 C   0  0  0  0  0  0  0  0  0  0  0  0
  -28.0219  -13.2147   20.5509 C   0  0  0  0  0  0  0  0  0  0  0  0
  -28.1704  -18.0476   22.0562 C   0  0  0  0  0  0  0  0  0  0  0  0
  -18.8895  -26.7536   22.7169 C   0  0  0  0  0  0  0  0  0  0  0  0
  -18.2553  -29.0511   22.3217 C   0  0  0  0  0  0  0  0  0  0  0  0
  -29.1322  -18.8683   21.4685 C   0  0  0  0  0  0  0  0  0  0  0  0
  -15.7041  -26.5346   23.8258 C   0  0  0  0  0  0  0  0  0  0  0  0
  -15.0229  -25.5523   24.5445 C   0  0  0  0  0  0  0  0  0  0  0  0
  -30.6674  -26.8150   20.5537 C   0  0  0  0  0  0  0  0  0  0  0  0
  -28.2724  -27.1033   20.4212 C   0  0  0  0  0  0  0  0  0  0  0  0
  -27.4525  -19.7669   19.9886 C   0  0  0  0  0  0  0  0  0  0  0  0
  -29.7086  -29.0291   20.6772 C   0  0  0  0  0  0  0  0  0  0  0  0
  -15.0847  -24.0984   22.6159 C   0  0  0  0  0  0  0  0  0  0  0  0
  -20.4221  -28.5404   23.2602 C   0  0  0  0  0  0  0  0  0  0  0  0
  -22.2183  -28.7569   25.0586 C   0  0  0  0  0  0  0  0  0  0  0  0
  -26.3981  -11.4688   21.0013 C   0  0  0  0  0  0  0  0  0  0  0  0
  -26.8425  -18.0726   21.6063 C   0  0  0  0  0  0  0  0  0  0  0  0
  -26.7022  -12.7380   20.4731 C   0  0  0  0  0  0  0  0  0  0  0  0
  -29.3903  -26.2692   20.4243 C   0  0  0  0  0  0  0  0  0  0  0  0
  -26.4752  -18.9475   20.5739 C   0  0  0  0  0  0  0  0  0  0  0  0
  -30.8265  -28.1950   20.6803 C   0  0  0  0  0  0  0  0  0  0  0  0
  -28.4315  -28.4833   20.5477 C   0  0  0  0  0  0  0  0  0  0  0  0
  -17.9558  -27.6896   22.2723 C   0  0  0  0  0  0  0  0  0  0  0  0
  -28.7739  -19.7260   20.4326 C   0  0  0  0  0  0  0  0  0  0  0  0
  -16.0755  -26.2989   22.5021 C   0  0  0  0  0  0  0  0  0  0  0  0
  -14.7133  -24.3342   23.9396 C   0  0  0  0  0  0  0  0  0  0  0  0
  -15.7659  -25.0808   21.8971 C   0  0  0  0  0  0  0  0  0  0  0  0
  -21.6956  -28.9805   23.7708 C   0  0  0  0  0  0  0  0  0  0  0  0
  -23.4464  -29.3719   25.0422 C   0  0  0  0  0  0  0  0  0  0  0  0
  -21.6451  -28.0560   26.1703 C   0  0  0  0  0  0  0  0  0  0  0  0
  -24.8799  -15.9471   20.2894 C   0  0  0  0  0  0  0  0  0  0  0  0
  -22.7018  -18.3263   20.6326 C   0  0  0  0  0  0  0  0  0  0  0  0
  -22.6158  -21.9040   20.1742 C   0  0  0  0  0  0  0  0  0  0  0  0
  -27.2784  -30.7203   20.6601 C   0  0  0  0  0  0  0  0  0  0  0  0
  -25.0121  -10.8817   20.9070 C   0  0  0  0  0  0  0  0  0  0  0  0
  -25.8113  -17.2005   22.2686 C   0  0  0  0  0  0  0  0  0  0  0  0
  -25.0588  -19.0269   20.0680 C   0  0  0  0  0  0  0  0  0  0  0  0
  -23.9305  -11.9177   20.6118 C   0  0  0  0  0  0  0  0  0  0  0  0
  -25.7941  -32.9923   22.9650 C   0  0  0  0  0  0  0  0  0  0  0  0
  -29.7601  -23.9578   21.4789 C   0  0  0  0  0  0  0  0  0  0  0  0
  -24.3688  -12.8387   19.4777 C   0  0  0  0  0  0  0  0  0  0  0  0
  -24.6259  -32.1989   23.5548 C   0  0  0  0  0  0  0  0  0  0  0  0
  -30.8183  -23.0212   20.8995 C   0  0  0  0  0  0  0  0  0  0  0  0
  -29.9212  -24.2080   19.0370 C   0  0  0  0  0  0  0  0  0  0  0  0
  -25.9976  -32.6846   21.4825 C   0  0  0  0  0  0  0  0  0  0  0  0
  -24.9610  -30.4653   21.7467 C   0  0  0  0  0  0  0  0  0  0  0  0
  -29.2179  -24.7728   20.2873 C   0  0  2  0  0  0  0  0  0  0  0  0
  -25.6351  -13.6162   19.8565 C   0  0  1  0  0  0  0  0  0  0  0  0
  -24.5963  -16.9355   21.3850 C   0  0  1  0  0  0  0  0  0  0  0  0
  -24.7582  -30.6931   23.2535 C   0  0  2  0  0  0  0  0  0  0  0  0
  -30.3989  -22.8039   19.4394 C   0  0  1  0  0  0  0  0  0  0  0  0
  -32.1921  -28.7784   20.8186 C   0  0  0  0  0  0  0  0  0  0  0  0
  -31.5795  -22.3431   18.5812 C   0  0  0  0  0  0  0  0  0  0  0  0
  -21.1962  -23.6562   21.2751 C   0  0  0  0  0  0  0  0  0  0  0  0
  -20.8725  -17.9467   18.2202 C   0  0  0  0  0  0  0  0  0  0  0  0
  -20.4635  -20.4166   18.2295 C   0  0  0  0  0  0  0  0  0  0  0  0
  -19.7858  -19.0346   20.1925 C   0  0  0  0  0  0  0  0  0  0  0  0
  -24.9882  -23.4428   21.0474 C   0  0  0  0  0  0  0  0  0  0  0  0
  -29.2622  -21.7747   19.3279 C   0  0  0  0  0  0  0  0  0  1  0  0
  -22.2395  -19.4836   19.7806 C   0  0  1  0  0  0  0  0  0  0  0  0
  -22.5474  -22.9584   21.2641 C   0  0  2  0  0  0  0  0  0  0  0  0
  -20.8668  -19.2101   19.1038 C   0  0  0  0  0  0  0  0  0  0  0  0
  -22.5237  -29.6828   22.9929 N   0  0  0  0  0  0  0  0  0  0  0  0
  -23.5792  -29.9059   23.7943 N   0  0  0  0  0  0  0  0  0  0  0  0
  -24.0883  -18.1499   20.7435 N   0  0  0  0  0  0  0  0  0  0  0  0
  -26.1190  -31.2401   21.2738 N   0  0  0  0  0  0  0  0  0  0  0  0
  -24.4147  -29.5025   25.9737 N   0  0  0  0  0  0  0  0  0  0  0  0
  -20.8592  -28.7758   27.0806 N   0  0  0  0  0  0  0  0  0  0  0  0
  -27.2958  -29.3307   20.5444 N   0  0  0  0  0  0  0  0  0  0  0  0
  -25.3085  -14.7137   20.7416 N   0  0  0  0  0  0  0  0  0  0  0  0
  -22.2560  -20.6589   20.6449 N   0  0  0  0  0  0  0  0  0  0  0  0
  -23.6058  -23.9869   21.0568 N   0  3  0  0  0  0  0  0  0  0  0  0
  -21.8381  -26.8312   26.3601 O   0  0  0  0  0  0  0  0  0  0  0  0
  -24.7201  -16.2785   19.1205 O   0  0  0  0  0  0  0  0  0  0  0  0
  -21.8636  -17.6096   21.1853 O   0  0  0  0  0  0  0  0  0  0  0  0
  -22.9509  -22.1600   19.0198 O   0  0  0  0  0  0  0  0  0  0  0  0
  -28.2006  -31.4518   20.2909 O   0  0  0  0  0  0  0  0  0  0  0  0
  -16.7525  -27.2749   21.7901 O   0  0  0  0  0  0  0  0  0  0  0  0
  -29.7109  -20.5276   19.8569 O   0  0  0  0  0  0  0  0  0  1  0  0
  -14.0605  -23.3903   24.6304 F   0  0  0  0  0  0  0  0  0  0  0  0
  -16.1212  -24.8481   20.6261 F   0  0  0  0  0  0  0  0  0  0  0  0
  1  2  1  0  0  0  0
  1  5  2  0  0  0  0
  2  6  2  0  0  0  0
  3  8  2  0  0  0  0
  3 18  1  0  0  0  0
  4  9  1  0  0  0  0
  4 18  2  0  0  0  0
  5 20  1  0  0  0  0
  6 22  1  0  0  0  0
  7 10  2  0  0  0  0
  7 21  1  0  0  0  0
  8 27  1  0  0  0  0
  9 27  2  0  0  0  0
 10 28  1  0  0  0  0
 11 12  2  0  0  0  0
 11 29  1  0  0  0  0
 12 30  1  0  0  0  0
 13 23  1  0  0  0  0
 13 25  2  0  0  0  0
 14 23  2  0  0  0  0
 14 26  1  0  0  0  0
 15 24  1  0  0  0  0
 15 28  2  0  0  0  0
 16 25  1  0  0  0  0
 16 26  2  0  0  0  0
 17 30  2  0  0  0  0
 17 31  1  0  0  0  0
 18 32  1  0  0  0  0
 19 32  1  0  0  0  0
 19 33  2  0  0  0  0
 19 34  1  0  0  0  0
 20 22  2  0  0  0  0
 20 39  1  0  0  0  0
 21 24  2  0  0  0  0
 21 40  1  0  0  0  0
 22 52  1  0  0  0  0
 23 51  1  0  0  0  0
 24 41  1  0  0  0  0
 25 56  1  0  0  0  0
 26 73  1  0  0  0  0
 27 82  1  0  0  0  0
 28 83  1  0  0  0  0
 29 31  2  0  0  0  0
 29 82  1  0  0  0  0
 30 84  1  0  0  0  0
 31 85  1  0  0  0  0
 32 67  2  0  0  0  0
 33 68  1  0  0  0  0
 33 71  1  0  0  0  0
 34 72  1  0  0  0  0
 34 77  2  0  0  0  0
 35 53  1  0  0  0  0
 35 74  1  0  0  0  0
 35 78  2  0  0  0  0
 36 64  1  0  0  0  0
 36 69  1  0  0  0  0
 36 79  2  0  0  0  0
 37 65  1  0  0  0  0
 37 75  1  0  0  0  0
 37 80  2  0  0  0  0
 38 70  1  0  0  0  0
 38 73  1  0  0  0  0
 38 81  2  0  0  0  0
 39 42  1  0  0  0  0
 40 53  1  0  0  0  0
 41 69  1  0  0  0  0
 42 45  1  0  0  0  0
 43 46  1  0  0  0  0
 43 49  1  0  0  0  0
 44 47  1  0  0  0  0
 44 51  1  0  0  0  0
 45 52  1  0  0  0  0
 46 54  1  0  0  0  0
 47 55  1  0  0  0  0
 48 51  1  0  0  0  0
 48 55  1  0  0  0  0
 49 70  1  0  0  0  0
 50 54  1  0  0  0  0
 50 70  1  0  0  0  0
 52 74  1  0  0  0  0
 53 69  1  0  0  0  0
 54 68  1  0  0  0  0
 55 57  1  0  0  0  0
 55 63  1  0  0  0  0
 58 65  1  0  0  0  0
 59 66  1  0  0  0  0
 60 66  1  0  0  0  0
 61 66  1  0  0  0  0
 62 76  1  0  0  0  0
 63 83  1  0  0  0  0
 64 66  1  0  0  0  0
 64 75  1  0  0  0  0
 65 76  1  0  0  0  0
 67 68  1  0  0  0  0
M  CHG  1  76   1
M  ISO  4  38 100  63 101  73 100  83 101
M  END
> <Batch ID>
0142

> <Smiles>
CNC(C)C(=O)NC(C(=O)N1Cc2cc([101O:1][101CH2:1]C3(C)CCC(c4cc(C)cc([100NH:0][100C:0](=O)N5CCCC(n6nc(-c7ccc(Oc8ccc(F)cc8F)cc7)c(C(N)=O)c6N)C5)c4)C3)ccc2CC1C(=O)NC1CCCc2ccccc21)C(C)(C)C

> <Shape>
0.248

> <Color>
0.065

> <Negative vol penalty>
0.000

$$$$

  -OEChem-04052302573D

 88 96  0     1  0  0  0  0  0999 V2000
  -30.1903  -34.8787   21.1995 C   0  0  0  0  0  0  0  0  0  0  0  0
  -30.0500  -33.5494   20.8141 C   0  0  0  0  0  0  0  0  0  0  0  0
  -24.0149   -9.8192   22.1984 C   0  0  0  0  0  0  0  0  0  0  0  0
  -23.0774  -10.2373   20.0113 C   0  0  0  0  0  0  0  0  0  0  0  0
  -29.6469  -35.3143   22.4074 C   0  0  0  0  0  0  0  0  0  0  0  0
  -29.3671  -32.6544   21.6371 C   0  0  0  0  0  0  0  0  0  0  0  0
  -26.1503  -29.7123   19.0601 C   0  0  0  0  0  0  0  0  0  0  0  0
  -23.3183   -8.6127   22.2664 C   0  0  0  0  0  0  0  0  0  0  0  0
  -22.3808   -9.0307   20.0792 C   0  0  0  0  0  0  0  0  0  0  0  0
  -26.6939  -28.6388   18.3559 C   0  0  0  0  0  0  0  0  0  0  0  0
  -23.6372   -5.4795   21.0358 C   0  0  0  0  0  0  0  0  0  0  0  0
  -24.3294   -4.3559   21.4873 C   0  0  0  0  0  0  0  0  0  0  0  0
  -26.0473  -27.1491   20.1397 C   0  0  0  0  0  0  0  0  0  0  0  0
  -28.2932  -20.1392   17.7877 C   0  0  0  0  0  0  0  0  0  0  0  0
  -22.7635   -4.1247   23.3126 C   0  0  0  0  0  0  0  0  0  0  0  0
  -23.8944  -10.6316   21.0709 C   0  0  0  0  0  0  0  0  0  0  0  0
  -25.9069  -12.0857   20.4853 C   0  0  0  0  0  0  0  0  0  0  0  0
  -28.9487  -34.4264   23.2410 C   0  0  0  0  0  0  0  0  0  0  0  0
  -25.5599  -29.5136   20.3164 C   0  0  0  0  0  0  0  0  0  0  0  0
  -28.8151  -33.0782   22.8579 C   0  0  0  0  0  0  0  0  0  0  0  0
  -25.4947  -28.2214   20.8567 C   0  0  0  0  0  0  0  0  0  0  0  0
  -27.3270  -19.0926   17.8209 C   0  0  0  0  0  0  0  0  0  0  0  0
  -22.5013   -8.2184   21.2068 C   0  0  0  0  0  0  0  0  0  0  0  0
  -26.6450  -27.3574   18.8970 C   0  0  0  0  0  0  0  0  0  0  0  0
  -22.5082   -5.9258   21.7227 C   0  0  0  0  0  0  0  0  0  0  0  0
  -23.8926   -3.6785   22.6257 C   0  0  0  0  0  0  0  0  0  0  0  0
  -22.0713   -5.2484   22.8610 C   0  0  0  0  0  0  0  0  0  0  0  0
  -24.6133  -11.8783   21.0003 C   0  0  0  0  0  0  0  0  0  0  0  0
  -26.1290  -13.4315   20.6465 C   0  0  0  0  0  0  0  0  0  0  0  0
  -26.4183  -19.2594   18.8426 C   0  0  0  0  0  0  0  0  0  0  0  0
  -28.0860  -21.0663   18.7854 C   0  0  0  0  0  0  0  0  0  0  0  0
  -26.8257  -11.1459   19.9123 C   0  0  0  0  0  0  0  0  0  0  0  0
  -26.1561  -30.5448   23.2634 C   0  0  0  0  0  0  0  0  0  0  0  0
  -29.7655  -24.9491   18.6102 C   0  0  0  0  0  0  0  0  0  0  0  0
  -23.3783  -29.0133   23.9425 C   0  0  0  0  0  0  0  0  0  0  0  0
  -21.1267  -26.5894   23.1050 C   0  0  0  0  0  0  0  0  0  0  0  0
  -24.4337  -18.7238   20.2990 C   0  0  0  0  0  0  0  0  0  0  0  0
  -28.4198  -34.9326   24.5596 C   0  0  0  0  0  0  0  0  0  0  0  0
  -24.9542  -30.6779   21.0513 C   0  0  0  0  0  0  0  0  0  0  0  0
  -24.8537  -27.9518   22.1927 C   0  0  0  0  0  0  0  0  0  0  0  0
  -27.3871  -34.0068   25.1974 C   0  0  0  0  0  0  0  0  0  0  0  0
  -23.5152  -16.9156   23.2254 C   0  0  0  0  0  0  0  0  0  0  0  0
  -27.8696  -32.5603   25.1565 C   0  0  0  0  0  0  0  0  0  0  0  0
  -23.8255  -15.4610   22.8651 C   0  0  0  0  0  0  0  0  0  0  0  0
  -22.9749  -17.6940   22.0271 C   0  0  0  0  0  0  0  0  0  0  0  0
  -24.1179  -16.1762   20.4588 C   0  0  0  0  0  0  0  0  0  0  0  0
  -28.0598  -32.0829   23.7117 C   0  0  1  0  0  0  0  0  0  0  0  0
  -24.8359  -30.4401   22.5536 C   0  0  1  0  0  0  0  0  0  0  0  0
  -24.7259  -15.3692   21.6175 C   0  0  2  0  0  0  0  0  0  0  0  0
  -27.8619  -16.6687   17.4671 C   0  0  0  0  0  0  0  0  0  0  0  0
  -32.7923  -25.1168   18.0398 C   0  0  0  0  0  0  0  0  0  0  0  0
  -18.9756  -25.5492   23.8719 C   0  0  0  0  0  0  0  0  0  0  0  0
  -31.1763  -23.4916   20.1091 C   0  0  0  0  0  0  0  0  0  0  0  0
  -24.8873  -27.5086   26.1263 C   0  0  0  0  0  0  0  0  0  0  0  0
  -23.0016  -25.8634   26.1987 C   0  0  0  0  0  0  0  0  0  0  0  0
  -22.5896  -28.2561   26.7714 C   0  0  0  0  0  0  0  0  0  0  0  0
  -19.7279  -27.3678   20.6157 C   0  0  0  0  0  0  0  0  0  0  0  0
  -27.3115  -17.9615   16.8621 C   0  0  0  0  0  0  0  0  0  0  0  0
  -29.1737  -25.3542   17.2609 C   0  0  0  0  0  0  0  0  0  0  0  0
  -31.9106  -23.9155   17.7163 C   0  0  0  0  0  0  0  0  0  0  0  0
  -28.2814  -26.5848   17.3539 C   0  0  0  0  0  0  0  0  0  1  0  0
  -29.9288  -22.4501   18.1978 C   0  0  0  0  0  0  0  0  0  0  0  0
  -23.0050  -27.6120   24.3621 C   0  0  1  0  0  0  0  0  0  0  0  0
  -19.6129  -26.6156   22.9947 C   0  0  2  0  0  0  0  0  0  0  0  0
  -30.6959  -23.7105   18.6582 C   0  0  2  0  0  0  0  0  0  0  0  0
  -23.3848  -27.3151   25.8403 C   0  0  0  0  0  0  0  0  0  0  0  0
  -24.0529  -13.0023   21.4549 N   0  0  0  0  0  0  0  0  0  0  0  0
  -24.9990  -13.9290   21.2260 N   0  0  0  0  0  0  0  0  0  0  0  0
  -24.2812  -29.1237   22.8755 N   0  0  0  0  0  0  0  0  0  0  0  0
  -23.8819  -17.5648   20.8845 N   0  0  0  0  0  0  0  0  0  0  0  0
  -27.1786  -14.2261   20.3476 N   0  0  0  0  0  0  0  0  0  0  0  0
  -26.4377   -9.8021   19.8225 N   0  0  0  0  0  0  0  0  0  0  0  0
  -25.3072  -18.4753   19.2408 N   0  0  0  0  0  0  0  0  0  0  0  0
  -26.7814  -31.7676   23.1112 N   0  0  0  0  0  0  0  0  0  0  0  0
  -21.5837  -27.4631   24.0688 N   0  0  0  0  0  0  0  0  0  0  0  0
  -19.1920  -26.3777   21.5850 N   0  3  0  0  0  0  0  0  0  0  0  0
  -27.9635  -11.4848   19.5074 O   0  0  0  0  0  0  0  0  0  0  0  0
  -26.5756  -29.5875   23.9033 O   0  0  0  0  0  0  0  0  0  0  0  0
  -29.5107  -25.5931   19.6310 O   0  0  0  0  0  0  0  0  0  0  0  0
  -22.8815  -29.9745   24.5348 O   0  0  0  0  0  0  0  0  0  0  0  0
  -21.8328  -25.8636   22.4086 O   0  0  0  0  0  0  0  0  0  0  0  0
  -24.1733  -19.8524   20.7239 O   0  0  0  0  0  0  0  0  0  0  0  0
  -21.8216   -7.0410   21.2727 O   0  0  0  0  0  0  0  0  0  0  0  0
  -27.1754  -26.3080   18.2121 O   0  0  0  0  0  0  0  0  0  1  0  0
  -28.8179  -22.1938   19.0492 O   0  0  0  0  0  0  0  0  0  0  0  0
  -24.5565   -2.5985   23.0583 F   0  0  0  0  0  0  0  0  0  0  0  0
  -20.9866   -5.6717   23.5244 F   0  0  0  0  0  0  0  0  0  0  0  0
  -26.7315  -20.6733   19.7565 S   0  0  0  0  0  0  0  0  0  0  0  0
  1  2  1  0  0  0  0
  1  5  2  0  0  0  0
  2  6  2  0  0  0  0
  3  8  2  0  0  0  0
  3 16  1  0  0  0  0
  4  9  1  0  0  0  0
  4 16  2  0  0  0  0
  5 18  1  0  0  0  0
  6 20  1  0  0  0  0
  7 10  2  0  0  0  0
  7 19  1  0  0  0  0
  8 23  1  0  0  0  0
  9 23  2  0  0  0  0
 10 24  1  0  0  0  0
 11 12  2  0  0  0  0
 11 25  1  0  0  0  0
 12 26  1  0  0  0  0
 13 21  1  0  0  0  0
 13 24  2  0  0  0  0
 14 22  1  0  0  0  0
 14 31  2  0  0  0  0
 15 26  2  0  0  0  0
 15 27  1  0  0  0  0
 16 28  1  0  0  0  0
 17 28  1  0  0  0  0
 17 29  2  0  0  0  0
 17 32  1  0  0  0  0
 18 20  2  0  0  0  0
 18 38  1  0  0  0  0
 19 21  2  0  0  0  0
 19 39  1  0  0  0  0
 20 47  1  0  0  0  0
 21 40  1  0  0  0  0
 22 30  2  0  0  0  0
 22 58  1  0  0  0  0
 23 83  1  0  0  0  0
 24 84  1  0  0  0  0
 25 27  2  0  0  0  0
 25 83  1  0  0  0  0
 26 86  1  0  0  0  0
 27 87  1  0  0  0  0
 28 67  2  0  0  0  0
 29 68  1  0  0  0  0
 29 71  1  0  0  0  0
 30 73  1  0  0  0  0
 30 88  1  0  0  0  0
 31 85  1  0  0  0  0
 31 88  1  0  0  0  0
 32 72  1  0  0  0  0
 32 77  2  0  0  0  0
 33 48  1  0  0  0  0
 33 74  1  0  0  0  0
 33 78  2  0  0  0  0
 34 59  1  0  0  0  0
 34 65  1  0  0  0  0
 34 79  2  0  0  0  0
 35 63  1  0  0  0  0
 35 69  1  0  0  0  0
 35 80  2  0  0  0  0
 36 64  1  0  0  0  0
 36 75  1  0  0  0  0
 36 81  2  0  0  0  0
 37 70  1  0  0  0  0
 37 73  1  0  0  0  0
 37 82  2  0  0  0  0
 38 41  1  0  0  0  0
 39 48  1  0  0  0  0
 40 69  1  0  0  0  0
 41 43  1  0  0  0  0
 42 44  1  0  0  0  0
 42 45  1  0  0  0  0
 43 47  1  0  0  0  0
 44 49  1  0  0  0  0
 45 70  1  0  0  0  0
 46 49  1  0  0  0  0
 46 70  1  0  0  0  0
 47 74  1  0  0  0  0
 48 69  1  0  0  0  0
 49 68  1  0  0  0  0
 50 58  1  0  0  0  0
 51 60  1  0  0  0  0
 52 64  1  0  0  0  0
 53 65  1  0  0  0  0
 54 66  1  0  0  0  0
 55 66  1  0  0  0  0
 56 66  1  0  0  0  0
 57 76  1  0  0  0  0
 59 61  1  0  0  0  0
 60 65  1  0  0  0  0
 61 84  1  0  0  0  0
 62 65  1  0  0  0  0
 62 85  1  0  0  0  0
 63 66  1  0  0  0  0
 63 75  1  0  0  0  0
 64 76  1  0  0  0  0
 67 68  1  0  0  0  0
M  CHG  1  76   1
M  ISO  4  37 100  61 101  73 100  84 101
M  END
> <Batch ID>
0142

> <Smiles>
CCc1cc(OCC(C)(CC)C(=O)C[101CH2:1][101O:1]c2ccc3c(c2)CN(C(=O)C(NC(=O)C(C)NC)C(C)(C)C)C(C(=O)NC2CCCc4ccccc42)C3)sc1[100NH:0][100C:0](=O)N1CCCC(n2nc(-c3ccc(Oc4ccc(F)cc4F)cc3)c(C(N)=O)c2N)C1

> <Shape>
0.278

> <Color>
0.086

> <Negative vol penalty>
0.000

$$$$

  -OEChem-04052302573D

 86 95  0     1  0  0  0  0  0999 V2000
  -31.4423  -30.7090   15.0112 C   0  0  0  0  0  0  0  0  0  0  0  0
  -31.4535  -29.5528   15.7849 C   0  0  0  0  0  0  0  0  0  0  0  0
  -23.2641   -9.8221   19.9563 C   0  0  0  0  0  0  0  0  0  0  0  0
  -23.9808   -9.9316   22.2609 C   0  0  0  0  0  0  0  0  0  0  0  0
  -30.7763  -31.8456   15.4679 C   0  0  0  0  0  0  0  0  0  0  0  0
  -30.7995  -29.5329   17.0163 C   0  0  0  0  0  0  0  0  0  0  0  0
  -31.8103  -18.2054   22.7297 C   0  0  0  0  0  0  0  0  0  0  0  0
  -27.8775  -24.7880   19.5566 C   0  0  0  0  0  0  0  0  0  0  0  0
  -31.5137  -16.9821   22.1287 C   0  0  0  0  0  0  0  0  0  0  0  0
  -22.6211   -8.6113   20.2137 C   0  0  0  0  0  0  0  0  0  0  0  0
  -23.3378   -8.7208   22.5184 C   0  0  0  0  0  0  0  0  0  0  0  0
  -28.2604  -23.8589   20.5229 C   0  0  0  0  0  0  0  0  0  0  0  0
  -19.7305   -7.5782   21.6315 C   0  0  0  0  0  0  0  0  0  0  0  0
  -18.4414   -7.4086   21.1265 C   0  0  0  0  0  0  0  0  0  0  0  0
  -27.1899  -25.1944   22.2228 C   0  0  0  0  0  0  0  0  0  0  0  0
  -30.0726  -16.4199   23.9846 C   0  0  0  0  0  0  0  0  0  0  0  0
  -19.1937   -5.5030   19.8460 C   0  0  0  0  0  0  0  0  0  0  0  0
  -23.9440  -10.4822   20.9798 C   0  0  0  0  0  0  0  0  0  0  0  0
  -24.0628  -13.0256   20.8230 C   0  0  0  0  0  0  0  0  0  0  0  0
  -30.1057  -31.8366   16.7011 C   0  0  0  0  0  0  0  0  0  0  0  0
  -27.1560  -25.9348   19.9183 C   0  0  0  0  0  0  0  0  0  0  0  0
  -30.1251  -30.6709   17.4905 C   0  0  0  0  0  0  0  0  0  0  0  0
  -31.2382  -18.5360   23.9581 C   0  0  0  0  0  0  0  0  0  0  0  0
  -26.7967  -26.1353   21.2588 C   0  0  0  0  0  0  0  0  0  0  0  0
  -30.3693  -17.6432   24.5856 C   0  0  0  0  0  0  0  0  0  0  0  0
  -30.6449  -16.0894   22.7562 C   0  0  0  0  0  0  0  0  0  0  0  0
  -22.6580   -8.0607   21.4948 C   0  0  0  0  0  0  0  0  0  0  0  0
  -27.9192  -24.0634   21.8566 C   0  0  0  0  0  0  0  0  0  0  0  0
  -20.7513   -6.7102   21.2436 C   0  0  0  0  0  0  0  0  0  0  0  0
  -18.1730   -6.3710   20.2338 C   0  0  0  0  0  0  0  0  0  0  0  0
  -20.4829   -5.6726   20.3509 C   0  0  0  0  0  0  0  0  0  0  0  0
  -24.6089  -11.7326   20.7144 C   0  0  0  0  0  0  0  0  0  0  0  0
  -25.0903  -13.8635   20.4645 C   0  0  0  0  0  0  0  0  0  0  0  0
  -22.7446  -13.4328   21.2131 C   0  0  0  0  0  0  0  0  0  0  0  0
  -30.1630  -22.0434   23.8745 C   0  0  0  0  0  0  0  0  0  0  0  0
  -27.6900  -29.0642   19.7581 C   0  0  0  0  0  0  0  0  0  0  0  0
  -24.6212  -29.2465   20.7935 C   0  0  0  0  0  0  0  0  0  0  0  0
  -22.0219  -27.7573   22.4283 C   0  0  0  0  0  0  0  0  0  0  0  0
  -30.8256  -14.3650   20.9286 C   0  0  0  0  0  0  0  0  0  0  0  0
  -29.4395  -33.1042   17.1745 C   0  0  0  0  0  0  0  0  0  0  0  0
  -26.7273  -26.9141   18.8602 C   0  0  0  0  0  0  0  0  0  0  0  0
  -26.0054  -27.3400   21.6961 C   0  0  0  0  0  0  0  0  0  0  0  0
  -28.4542  -32.8836   18.3194 C   0  0  0  0  0  0  0  0  0  0  0  0
  -29.2826  -13.3334   17.8901 C   0  0  0  0  0  0  0  0  0  0  0  0
  -33.0900  -20.3094   24.7991 C   0  0  0  0  0  0  0  0  0  0  0  0
  -29.0702  -31.9866   19.3884 C   0  0  0  0  0  0  0  0  0  0  0  0
  -32.6883  -21.7740   24.5609 C   0  0  0  0  0  0  0  0  0  0  0  0
  -27.8663  -12.9416   18.3175 C   0  0  0  0  0  0  0  0  0  0  0  0
  -30.3191  -12.9545   18.9464 C   0  0  0  0  0  0  0  0  0  0  0  0
  -28.6197  -13.0576   20.7271 C   0  0  0  0  0  0  0  0  0  0  0  0
  -31.5900  -19.9337   24.6235 C   0  0  1  0  0  0  0  0  0  0  0  0
  -29.4063  -30.6024   18.8205 C   0  0  1  0  0  0  0  0  0  0  0  0
  -31.4668  -21.2438   23.7686 C   0  0  1  0  0  0  0  0  0  0  0  0
  -26.4391  -28.3055   19.4153 C   0  0  1  0  0  0  0  0  0  0  0  0
  -27.5334  -13.4778   19.7237 C   0  0  2  0  0  0  0  0  0  0  0  0
  -30.7231  -17.8089   27.0623 C   0  0  0  0  0  0  0  0  0  0  0  0
  -19.6533  -28.1679   23.1485 C   0  0  0  0  0  0  0  0  0  0  0  0
  -25.6211  -31.0397   23.0506 C   0  0  0  0  0  0  0  0  0  0  0  0
  -23.4534  -30.6371   24.2369 C   0  0  0  0  0  0  0  0  0  0  0  0
  -23.4654  -31.7705   22.0147 C   0  0  0  0  0  0  0  0  0  0  0  0
  -21.0150  -25.4920   20.8116 C   0  0  0  0  0  0  0  0  0  0  0  0
  -29.7474  -17.9775   25.9013 C   0  0  0  0  0  0  0  0  0  0  0  0
  -29.4993  -22.4342   22.5672 C   0  0  0  0  0  0  0  0  0  1  0  0
  -23.9498  -29.2925   22.1448 C   0  0  1  0  0  0  0  0  0  0  0  0
  -20.5565  -27.6049   22.0623 C   0  0  2  0  0  0  0  0  0  0  0  0
  -24.1390  -30.6631   22.8541 C   0  0  0  0  0  0  0  0  0  0  0  0
  -25.8842  -11.7432   20.3177 N   0  0  0  0  0  0  0  0  0  0  0  0
  -26.1481  -13.0531   20.1739 N   0  0  0  0  0  0  0  0  0  0  0  0
  -25.6151  -28.2719   20.6252 N   0  0  0  0  0  0  0  0  0  0  0  0
  -29.9399  -13.5002   20.2515 N   0  0  0  0  0  0  0  0  0  0  0  0
  -25.1831  -15.2072   20.3725 N   0  0  0  0  0  0  0  0  0  0  0  0
  -21.8115  -12.4426   21.5495 N   0  0  0  0  0  0  0  0  0  0  0  0
  -30.3435  -14.8470   22.1451 N   0  0  0  0  0  0  0  0  0  0  0  0
  -28.2086  -29.7978   18.7081 N   0  0  0  0  0  0  0  0  0  0  0  0
  -22.5564  -28.9228   21.9211 N   0  0  0  0  0  0  0  0  0  0  0  0
  -20.2179  -26.1666   21.8682 N   0  3  0  0  0  0  0  0  0  0  0  0
  -22.3993  -14.6383   21.2461 O   0  0  0  0  0  0  0  0  0  0  0  0
  -29.6626  -22.3633   24.9590 O   0  0  0  0  0  0  0  0  0  0  0  0
  -28.1497  -28.9907   20.8916 O   0  0  0  0  0  0  0  0  0  0  0  0
  -24.2717  -30.0411   19.9171 O   0  0  0  0  0  0  0  0  0  0  0  0
  -22.6304  -26.9274   23.1002 O   0  0  0  0  0  0  0  0  0  0  0  0
  -31.9190  -14.6780   20.4507 O   0  0  0  0  0  0  0  0  0  0  0  0
  -22.0305   -6.8794   21.7464 O   0  0  0  0  0  0  0  0  0  0  0  0
  -28.2923  -23.1584   22.8019 O   0  0  0  0  0  0  0  0  0  1  0  0
  -16.9347   -6.2073   19.7502 F   0  0  0  0  0  0  0  0  0  0  0  0
  -21.4592   -4.8349   19.9756 F   0  0  0  0  0  0  0  0  0  0  0  0
  1  2  1  0  0  0  0
  1  5  2  0  0  0  0
  2  6  2  0  0  0  0
  3 10  2  0  0  0  0
  3 18  1  0  0  0  0
  4 11  1  0  0  0  0
  4 18  2  0  0  0  0
  5 20  1  0  0  0  0
  6 22  1  0  0  0  0
  7  9  2  0  0  0  0
  7 23  1  0  0  0  0
  8 12  2  0  0  0  0
  8 21  1  0  0  0  0
  9 26  1  0  0  0  0
 10 27  1  0  0  0  0
 11 27  2  0  0  0  0
 12 28  1  0  0  0  0
 13 14  2  0  0  0  0
 13 29  1  0  0  0  0
 14 30  1  0  0  0  0
 15 24  1  0  0  0  0
 15 28  2  0  0  0  0
 16 25  1  0  0  0  0
 16 26  2  0  0  0  0
 17 30  2  0  0  0  0
 17 31  1  0  0  0  0
 18 32  1  0  0  0  0
 19 32  1  0  0  0  0
 19 33  2  0  0  0  0
 19 34  1  0  0  0  0
 20 22  2  0  0  0  0
 20 40  1  0  0  0  0
 21 24  2  0  0  0  0
 21 41  1  0  0  0  0
 22 52  1  0  0  0  0
 23 25  2  0  0  0  0
 23 51  1  0  0  0  0
 24 42  1  0  0  0  0
 25 62  1  0  0  0  0
 26 73  1  0  0  0  0
 27 83  1  0  0  0  0
 28 84  1  0  0  0  0
 29 31  2  0  0  0  0
 29 83  1  0  0  0  0
 30 85  1  0  0  0  0
 31 86  1  0  0  0  0
 32 67  2  0  0  0  0
 33 68  1  0  0  0  0
 33 71  1  0  0  0  0
 34 72  1  0  0  0  0
 34 77  2  0  0  0  0
 35 53  1  0  0  0  0
 35 63  1  0  0  0  0
 35 78  2  0  0  0  0
 36 54  1  0  0  0  0
 36 74  1  0  0  0  0
 36 79  2  0  0  0  0
 37 64  1  0  0  0  0
 37 69  1  0  0  0  0
 37 80  2  0  0  0  0
 38 65  1  0  0  0  0
 38 75  1  0  0  0  0
 38 81  2  0  0  0  0
 39 70  1  0  0  0  0
 39 73  1  0  0  0  0
 39 82  2  0  0  0  0
 40 43  1  0  0  0  0
 41 54  1  0  0  0  0
 42 69  1  0  0  0  0
 43 46  1  0  0  0  0
 44 48  1  0  0  0  0
 44 49  1  0  0  0  0
 45 47  1  0  0  0  0
 45 51  1  0  0  0  0
 46 52  1  0  0  0  0
 47 53  1  0  0  0  0
 48 55  1  0  0  0  0
 49 70  1  0  0  0  0
 50 55  1  0  0  0  0
 50 70  1  0  0  0  0
 51 53  1  0  0  0  0
 52 74  1  0  0  0  0
 54 69  1  0  0  0  0
 55 68  1  0  0  0  0
 56 62  1  0  0  0  0
 57 65  1  0  0  0  0
 58 66  1  0  0  0  0
 59 66  1  0  0  0  0
 60 66  1  0  0  0  0
 61 76  1  0  0  0  0
 63 84  1  0  0  0  0
 64 66  1  0  0  0  0
 64 75  1  0  0  0  0
 65 76  1  0  0  0  0
 67 68  1  0  0  0  0
M  CHG  1  76   1
M  ISO  4  39 100  63 101  73 100  84 101
M  END
> <Batch ID>
0142

> <Smiles>
CCc1cc([100NH:0][100C:0](=O)N2CCCC(n3nc(-c4ccc(Oc5ccc(F)cc5F)cc4)c(C(N)=O)c3N)C2)ccc1C1CCC1C(=O)[101CH2:1][101O:1]c1ccc2c(c1)CN(C(=O)C(NC(=O)C(C)NC)C(C)(C)C)C(C(=O)NC1CCCc3ccccc31)C2

> <Shape>
0.271

> <Color>
0.187

> <Negative vol penalty>
0.000

$$$$

  -OEChem-04052302573D

 87 96  0     1  0  0  0  0  0999 V2000
  -18.6828  -28.6478   17.4838 C   0  0  0  0  0  0  0  0  0  0  0  0
  -19.4145  -27.6580   18.1321 C   0  0  0  0  0  0  0  0  0  0  0  0
  -23.1320   -9.8058   19.9954 C   0  0  0  0  0  0  0  0  0  0  0  0
  -23.8163   -9.9479   22.3081 C   0  0  0  0  0  0  0  0  0  0  0  0
  -19.1825  -29.9474   17.4106 C   0  0  0  0  0  0  0  0  0  0  0  0
  -20.6469  -27.9670   18.7068 C   0  0  0  0  0  0  0  0  0  0  0  0
  -23.0264  -25.5804   23.8203 C   0  0  0  0  0  0  0  0  0  0  0  0
  -22.4009   -8.6531   20.2824 C   0  0  0  0  0  0  0  0  0  0  0  0
  -23.0852   -8.7951   22.5952 C   0  0  0  0  0  0  0  0  0  0  0  0
  -23.9573  -24.5653   24.0367 C   0  0  0  0  0  0  0  0  0  0  0  0
  -19.8538   -7.9674   23.1366 C   0  0  0  0  0  0  0  0  0  0  0  0
  -19.0599   -7.9742   24.2834 C   0  0  0  0  0  0  0  0  0  0  0  0
  -31.6182  -18.6769   24.0734 C   0  0  0  0  0  0  0  0  0  0  0  0
  -25.7080  -26.2159   24.2093 C   0  0  0  0  0  0  0  0  0  0  0  0
  -31.9084  -16.8460   22.5240 C   0  0  0  0  0  0  0  0  0  0  0  0
  -20.3108   -6.1025   25.1605 C   0  0  0  0  0  0  0  0  0  0  0  0
  -23.8397  -10.4532   21.0082 C   0  0  0  0  0  0  0  0  0  0  0  0
  -30.2385  -18.6263   23.8749 C   0  0  0  0  0  0  0  0  0  0  0  0
  -24.1404  -12.9747   20.7652 C   0  0  0  0  0  0  0  0  0  0  0  0
  -20.4172  -30.2747   17.9931 C   0  0  0  0  0  0  0  0  0  0  0  0
  -23.4317  -26.9224   23.7858 C   0  0  0  0  0  0  0  0  0  0  0  0
  -21.1642  -29.2718   18.6402 C   0  0  0  0  0  0  0  0  0  0  0  0
  -24.7799  -27.2463   23.9948 C   0  0  0  0  0  0  0  0  0  0  0  0
  -30.5286  -16.7953   22.3255 C   0  0  0  0  0  0  0  0  0  0  0  0
  -22.3775   -8.1478   21.5823 C   0  0  0  0  0  0  0  0  0  0  0  0
  -25.2988  -24.8828   24.2284 C   0  0  0  0  0  0  0  0  0  0  0  0
  -20.8762   -7.0281   23.0017 C   0  0  0  0  0  0  0  0  0  0  0  0
  -19.2883   -7.0418   25.2954 C   0  0  0  0  0  0  0  0  0  0  0  0
  -32.4532  -17.7868   23.3979 C   0  0  0  0  0  0  0  0  0  0  0  0
  -21.1047   -6.0957   24.0137 C   0  0  0  0  0  0  0  0  0  0  0  0
  -29.6937  -17.6855   23.0010 C   0  0  0  0  0  0  0  0  0  0  0  0
  -24.5955  -11.6436   20.7121 C   0  0  0  0  0  0  0  0  0  0  0  0
  -25.2303  -13.7252   20.3975 C   0  0  0  0  0  0  0  0  0  0  0  0
  -28.1920  -22.8361   23.6605 C   0  0  0  0  0  0  0  0  0  0  0  0
  -27.2415  -23.7697   23.5518 C   0  0  0  0  0  0  0  0  0  1  0  0
  -29.3592  -19.5679   24.5906 C   0  0  0  0  0  0  0  0  0  0  0  0
  -22.8479  -13.4870   21.1158 C   0  0  0  0  0  0  0  0  0  0  0  0
  -23.3818  -29.2252   21.5953 C   0  0  0  0  0  0  0  0  0  0  0  0
  -24.4347  -31.0549   24.0582 C   0  0  0  0  0  0  0  0  0  0  0  0
  -26.0249  -31.2175   27.0734 C   0  0  0  0  0  0  0  0  0  0  0  0
  -30.6685  -14.8847   20.6895 C   0  0  0  0  0  0  0  0  0  0  0  0
  -20.9382  -31.6825   17.8472 C   0  0  0  0  0  0  0  0  0  0  0  0
  -22.4110  -28.0074   23.5779 C   0  0  0  0  0  0  0  0  0  0  0  0
  -25.2631  -28.6728   23.9874 C   0  0  0  0  0  0  0  0  0  0  0  0
  -29.3426  -22.6600   22.7135 C   0  0  0  0  0  0  0  0  0  0  0  0
  -28.2012  -21.7357   24.6772 C   0  0  0  0  0  0  0  0  0  0  0  0
  -22.0782  -32.0125   18.8073 C   0  0  0  0  0  0  0  0  0  0  0  0
  -29.6750  -12.3288   18.4185 C   0  0  0  0  0  0  0  0  0  0  0  0
  -23.1120  -30.8909   18.8142 C   0  0  0  0  0  0  0  0  0  0  0  0
  -28.2275  -12.0322   18.8171 C   0  0  0  0  0  0  0  0  0  0  0  0
  -29.5754  -21.1541   22.7224 C   0  0  0  0  0  0  0  0  0  0  0  0
  -30.5462  -12.6381   19.6347 C   0  0  0  0  0  0  0  0  0  0  0  0
  -28.5826  -13.3967   20.9145 C   0  0  0  0  0  0  0  0  0  0  0  0
  -22.4935  -29.5735   19.2974 C   0  0  1  0  0  0  0  0  0  0  0  0
  -23.0168  -29.3045   23.0507 C   0  0  1  0  0  0  0  0  0  0  0  0
  -27.6520  -13.1430   19.7173 C   0  0  2  0  0  0  0  0  0  0  0  0
  -26.7684  -32.8561   28.8226 C   0  0  0  0  0  0  0  0  0  0  0  0
  -26.7509  -31.9126   22.2666 C   0  0  0  0  0  0  0  0  0  0  0  0
  -27.9302  -32.7499   24.3103 C   0  0  0  0  0  0  0  0  0  0  0  0
  -25.7501  -33.7541   23.6310 C   0  0  0  0  0  0  0  0  0  0  0  0
  -24.3318  -29.9518   29.1448 C   0  0  0  0  0  0  0  0  0  0  0  0
  -25.7894  -31.4245   24.6125 C   0  0  1  0  0  0  0  0  0  0  0  0
  -25.6592  -31.9200   28.3685 C   0  0  2  0  0  0  0  0  0  0  0  0
  -26.5467  -32.4332   23.7034 C   0  0  0  0  0  0  0  0  0  0  0  0
  -25.8749  -11.5506   20.3398 N   0  0  0  0  0  0  0  0  0  0  0  0
  -26.2329  -12.8328   20.1555 N   0  0  0  0  0  0  0  0  0  0  0  0
  -29.0692  -20.7325   24.0386 N   0  0  0  0  0  0  0  0  0  0  0  0
  -24.2278  -29.6976   23.7738 N   0  0  0  0  0  0  0  0  0  0  0  0
  -29.9407  -13.7024   20.4380 N   0  0  0  0  0  0  0  0  0  0  0  0
  -25.4193  -15.0549   20.2607 N   0  0  0  0  0  0  0  0  0  0  0  0
  -21.8419  -12.5773   21.4686 N   0  0  0  0  0  0  0  0  0  0  0  0
  -29.9784  -15.8386   21.4368 N   0  0  0  0  0  0  0  0  0  0  0  0
  -22.3569  -29.5778   20.7381 N   0  0  0  0  0  0  0  0  0  0  0  0
  -25.5578  -31.9021   25.9715 N   0  0  0  0  0  0  0  0  0  0  0  0
  -28.8700  -19.2296   25.7800 N   0  3  0  0  0  0  0  0  0  0  0  0
  -25.4150  -30.9222   29.4481 N   0  3  0  0  0  0  0  0  0  0  0  0
  -22.5881  -14.7141   21.1002 O   0  0  0  0  0  0  0  0  0  0  0  0
  -24.5103  -28.8717   21.2738 O   0  0  0  0  0  0  0  0  0  0  0  0
  -23.5888  -31.9369   23.8905 O   0  0  0  0  0  0  0  0  0  0  0  0
  -26.6643  -30.1683   27.0424 O   0  0  0  0  0  0  0  0  0  0  0  0
  -31.8091  -15.0506   20.2496 O   0  0  0  0  0  0  0  0  0  0  0  0
  -21.6641   -7.0231   21.8629 O   0  0  0  0  0  0  0  0  0  0  0  0
  -26.2096  -23.8939   24.4392 O   0  0  0  0  0  0  0  0  0  1  0  0
  -18.5268   -7.0495   26.3973 F   0  0  0  0  0  0  0  0  0  0  0  0
  -33.7779  -17.8354   23.5887 F   0  0  0  0  0  0  0  0  0  0  0  0
  -22.0862   -5.1917   23.8903 F   0  0  0  0  0  0  0  0  0  0  0  0
  -28.3665  -17.6381   22.8108 F   0  0  0  0  0  0  0  0  0  0  0  0
  1  2  1  0  0  0  0
  1  5  2  0  0  0  0
  2  6  2  0  0  0  0
  3  8  2  0  0  0  0
  3 17  1  0  0  0  0
  4  9  1  0  0  0  0
  4 17  2  0  0  0  0
  5 20  1  0  0  0  0
  6 22  1  0  0  0  0
  7 10  2  0  0  0  0
  7 21  1  0  0  0  0
  8 25  1  0  0  0  0
  9 25  2  0  0  0  0
 10 26  1  0  0  0  0
 11 12  2  0  0  0  0
 11 27  1  0  0  0  0
 12 28  1  0  0  0  0
 13 18  1  0  0  0  0
 13 29  2  0  0  0  0
 14 23  1  0  0  0  0
 14 26  2  0  0  0  0
 15 24  2  0  0  0  0
 15 29  1  0  0  0  0
 16 28  2  0  0  0  0
 16 30  1  0  0  0  0
 17 32  1  0  0  0  0
 18 31  2  0  0  0  0
 18 36  1  0  0  0  0
 19 32  1  0  0  0  0
 19 33  2  0  0  0  0
 19 37  1  0  0  0  0
 20 22  2  0  0  0  0
 20 42  1  0  0  0  0
 21 23  2  0  0  0  0
 21 43  1  0  0  0  0
 22 54  1  0  0  0  0
 23 44  1  0  0  0  0
 24 31  1  0  0  0  0
 24 72  1  0  0  0  0
 25 82  1  0  0  0  0
 26 83  1  0  0  0  0
 27 30  2  0  0  0  0
 27 82  1  0  0  0  0
 28 84  1  0  0  0  0
 29 85  1  0  0  0  0
 30 86  1  0  0  0  0
 31 87  1  0  0  0  0
 32 65  2  0  0  0  0
 33 66  1  0  0  0  0
 33 70  1  0  0  0  0
 34 35  2  0  0  0  0
 34 45  1  0  0  0  0
 34 46  1  0  0  0  0
 35 83  1  0  0  0  0
 36 67  1  0  0  0  0
 36 75  2  0  0  0  0
 37 71  1  0  0  0  0
 37 77  2  0  0  0  0
 38 55  1  0  0  0  0
 38 73  1  0  0  0  0
 38 78  2  0  0  0  0
 39 62  1  0  0  0  0
 39 68  1  0  0  0  0
 39 79  2  0  0  0  0
 40 63  1  0  0  0  0
 40 74  1  0  0  0  0
 40 80  2  0  0  0  0
 41 69  1  0  0  0  0
 41 72  1  0  0  0  0
 41 81  2  0  0  0  0
 42 47  1  0  0  0  0
 43 55  1  0  0  0  0
 44 68  1  0  0  0  0
 45 51  1  0  0  0  0
 46 67  1  0  0  0  0
 47 49  1  0  0  0  0
 48 50  1  0  0  0  0
 48 52  1  0  0  0  0
 49 54  1  0  0  0  0
 50 56  1  0  0  0  0
 51 67  1  0  0  0  0
 52 69  1  0  0  0  0
 53 56  1  0  0  0  0
 53 69  1  0  0  0  0
 54 73  1  0  0  0  0
 55 68  1  0  0  0  0
 56 66  1  0  0  0  0
 57 63  1  0  0  0  0
 58 64  1  0  0  0  0
 59 64  1  0  0  0  0
 60 64  1  0  0  0  0
 61 76  1  0  0  0  0
 62 64  1  0  0  0  0
 62 74  1  0  0  0  0
 63 76  1  0  0  0  0
 65 66  1  0  0  0  0
M  CHG  2  75   1  76   1
M  ISO  4  35 101  41 100  72 100  83 101
M  END
> <Batch ID>
0142

> <Smiles>
CNC(C)C(=O)NC(C(=O)N1Cc2cc([101O:1][101CH:1]=C3CCN(C(=N)c4cc(F)cc([100NH:0][100C:0](=O)N5CCCC(n6nc(-c7ccc(Oc8ccc(F)cc8F)cc7)c(C(N)=O)c6N)C5)c4F)C3)ccc2CC1C(=O)NC1CCCc2ccccc21)C(C)(C)C

> <Shape>
0.277

> <Color>
0.209

> <Negative vol penalty>
0.000

$$$$

  -OEChem-04052302573D

 88 96  0     1  0  0  0  0  0999 V2000
  -22.9437  -23.9805   19.9027 C   0  0  0  0  0  0  0  0  0  0  0  0
  -24.1048  -23.2384   20.0942 C   0  0  0  0  0  0  0  0  0  0  0  0
  -21.9743  -29.2443   19.7059 C   0  0  0  0  0  0  0  0  0  0  0  0
  -22.3400  -28.2390   21.8722 C   0  0  0  0  0  0  0  0  0  0  0  0
  -21.7243  -23.5000   20.3782 C   0  0  0  0  0  0  0  0  0  0  0  0
  -24.0473  -22.0159   20.7623 C   0  0  0  0  0  0  0  0  0  0  0  0
  -26.7352  -18.4055   18.4417 C   0  0  0  0  0  0  0  0  0  0  0  0
  -20.6364  -28.8526   19.7500 C   0  0  0  0  0  0  0  0  0  0  0  0
  -21.0020  -27.8473   21.9163 C   0  0  0  0  0  0  0  0  0  0  0  0
  -28.1180  -18.4286   18.6181 C   0  0  0  0  0  0  0  0  0  0  0  0
  -18.0119  -29.2728   22.5855 C   0  0  0  0  0  0  0  0  0  0  0  0
  -17.3152  -29.4843   23.7752 C   0  0  0  0  0  0  0  0  0  0  0  0
  -30.3937  -22.2545   23.9251 C   0  0  0  0  0  0  0  0  0  0  0  0
  -27.9280  -16.6975   20.2873 C   0  0  0  0  0  0  0  0  0  0  0  0
  -30.5015  -23.4343   21.8195 C   0  0  0  0  0  0  0  0  0  0  0  0
  -16.8986  -27.1111   23.9531 C   0  0  0  0  0  0  0  0  0  0  0  0
  -22.8262  -28.9374   20.7670 C   0  0  0  0  0  0  0  0  0  0  0  0
  -29.6276  -23.2876   24.4648 C   0  0  0  0  0  0  0  0  0  0  0  0
  -24.7568  -30.5502   21.1905 C   0  0  0  0  0  0  0  0  0  0  0  0
  -21.6503  -22.2663   21.0440 C   0  0  0  0  0  0  0  0  0  0  0  0
  -25.9360  -17.5344   19.1960 C   0  0  0  0  0  0  0  0  0  0  0  0
  -22.8259  -21.5190   21.2483 C   0  0  0  0  0  0  0  0  0  0  0  0
  -26.5356  -16.6634   20.1168 C   0  0  0  0  0  0  0  0  0  0  0  0
  -29.2983  -24.3941   23.6819 C   0  0  0  0  0  0  0  0  0  0  0  0
  -29.7353  -24.4674   22.3592 C   0  0  0  0  0  0  0  0  0  0  0  0
  -20.1502  -28.1542   20.8552 C   0  0  0  0  0  0  0  0  0  0  0  0
  -28.7144  -17.5765   19.5430 C   0  0  0  0  0  0  0  0  0  0  0  0
  -18.1519  -27.9804   22.0795 C   0  0  0  0  0  0  0  0  0  0  0  0
  -30.8308  -22.3279   22.6025 C   0  0  0  0  0  0  0  0  0  0  0  0
  -16.7585  -28.4035   24.4590 C   0  0  0  0  0  0  0  0  0  0  0  0
  -17.5953  -26.8996   22.7633 C   0  0  0  0  0  0  0  0  0  0  0  0
  -24.2086  -29.3413   20.7218 C   0  0  0  0  0  0  0  0  0  0  0  0
  -26.0989  -30.4474   20.9172 C   0  0  0  0  0  0  0  0  0  0  0  0
  -29.1860  -23.1822   25.8489 C   0  0  0  0  0  0  0  0  0  0  0  0
  -24.1107  -31.6663   21.8170 C   0  0  0  0  0  0  0  0  0  0  0  0
  -23.5931  -17.9051   21.3120 C   0  0  0  0  0  0  0  0  0  0  0  0
  -23.4243  -14.6721   21.1081 C   0  0  0  0  0  0  0  0  0  0  0  0
  -24.9900  -11.7297   20.3751 C   0  0  0  0  0  0  0  0  0  0  0  0
  -29.7771  -25.7908   20.2160 C   0  0  0  0  0  0  0  0  0  0  0  0
  -20.3170  -21.8104   21.5816 C   0  0  0  0  0  0  0  0  0  0  0  0
  -24.4485  -17.5028   18.9748 C   0  0  0  0  0  0  0  0  0  0  0  0
  -25.7242  -15.6951   20.9368 C   0  0  0  0  0  0  0  0  0  0  0  0
  -20.2827  -20.3293   21.9495 C   0  0  0  0  0  0  0  0  0  0  0  0
  -29.1499  -28.3830   17.8572 C   0  0  0  0  0  0  0  0  0  0  0  0
  -21.5193  -19.9515   22.7588 C   0  0  0  0  0  0  0  0  0  0  0  0
  -27.8648  -29.0369   18.3701 C   0  0  0  0  0  0  0  0  0  0  0  0
  -29.1407  -26.8703   18.0702 C   0  0  0  0  0  0  0  0  0  0  0  0
  -27.5738  -27.0925   19.9581 C   0  0  0  0  0  0  0  0  0  0  0  0
  -22.8003  -20.1766   21.9465 C   0  0  1  0  0  0  0  0  0  0  0  0
  -23.6793  -16.9382   20.1651 C   0  0  1  0  0  0  0  0  0  0  0  0
  -27.5642  -28.6241   19.8244 C   0  0  2  0  0  0  0  0  0  0  0  0
  -28.4767  -25.5033   24.2617 C   0  0  0  0  0  0  0  0  0  0  0  0
  -28.3207  -22.0116   26.2111 C   0  0  0  0  0  0  0  0  0  0  0  0
  -24.6072   -9.2498   20.3408 C   0  0  0  0  0  0  0  0  0  0  0  0
  -23.6875  -14.5919   24.1469 C   0  0  0  0  0  0  0  0  0  0  0  0
  -24.2504  -12.1592   23.9643 C   0  0  0  0  0  0  0  0  0  0  0  0
  -22.0229  -12.9828   23.2011 C   0  0  0  0  0  0  0  0  0  0  0  0
  -34.0516  -20.0756   21.1398 C   0  0  0  0  0  0  0  0  0  0  0  0
  -33.2625  -20.4627   18.8014 C   0  0  0  0  0  0  0  0  0  0  0  0
  -25.4778  -11.5777   17.4600 C   0  0  0  0  0  0  0  0  0  0  0  0
  -31.9805  -18.9144   20.3599 C   0  0  0  0  0  0  0  0  0  0  0  0
  -30.7292  -18.8389   19.4881 C   0  0  0  0  0  0  0  0  0  1  0  0
  -31.9921  -21.4579   20.7183 C   0  0  0  0  0  0  0  0  0  0  0  0
  -24.0788  -13.5197   21.8311 C   0  0  1  0  0  0  0  0  0  0  0  0
  -24.5575  -10.5400   19.5372 C   0  0  2  0  0  0  0  0  0  0  0  0
  -23.5253  -13.3329   23.2719 C   0  0  0  0  0  0  0  0  0  0  0  0
  -32.7994  -20.2280   20.2501 C   0  0  0  0  0  0  0  0  0  0  0  0
  -25.1273  -28.5301   20.1908 N   0  0  0  0  0  0  0  0  0  0  0  0
  -26.2664  -29.2307   20.3241 N   0  0  0  0  0  0  0  0  0  0  0  0
  -24.2730  -15.7064   20.6888 N   0  0  0  0  0  0  0  0  0  0  0  0
  -28.8537  -26.5546   19.4712 N   0  0  0  0  0  0  0  0  0  0  0  0
  -27.1403  -31.2801   21.1286 N   0  0  0  0  0  0  0  0  0  0  0  0
  -22.7255  -31.6073   22.0226 N   0  0  0  0  0  0  0  0  0  0  0  0
  -29.4126  -25.5818   21.5457 N   0  0  0  0  0  0  0  0  0  0  0  0
  -22.9880  -19.1054   20.9916 N   0  0  0  0  0  0  0  0  0  0  0  0
  -23.9141  -12.3523   20.9717 N   0  0  0  0  0  0  0  0  0  0  0  0
  -25.4482  -10.3900   18.3519 N   0  3  0  0  0  0  0  0  0  0  0  0
  -29.4662  -23.9842   26.7404 O   0  0  0  0  0  0  0  0  0  0  0  0
  -24.7404  -32.6926   22.1688 O   0  0  0  0  0  0  0  0  0  0  0  0
  -24.0411  -17.5853   22.4068 O   0  0  0  0  0  0  0  0  0  0  0  0
  -22.2060  -14.6519   20.9161 O   0  0  0  0  0  0  0  0  0  0  0  0
  -26.1651  -12.0701   20.4919 O   0  0  0  0  0  0  0  0  0  0  0  0
  -30.8277  -25.3773   19.7188 O   0  0  0  0  0  0  0  0  0  0  0  0
  -18.8445  -27.7720   20.8986 O   0  0  0  0  0  0  0  0  0  0  0  0
  -30.0638  -17.5975   19.7175 O   0  0  0  0  0  0  0  0  0  1  0  0
  -31.5835  -21.3128   22.0722 O   0  0  0  0  0  0  0  0  0  0  0  0
  -16.0908  -28.6065   25.6023 F   0  0  0  0  0  0  0  0  0  0  0  0
  -17.7275  -25.6557   22.2828 F   0  0  0  0  0  0  0  0  0  0  0  0
  1  2  1  0  0  0  0
  1  5  2  0  0  0  0
  2  6  2  0  0  0  0
  3  8  2  0  0  0  0
  3 17  1  0  0  0  0
  4  9  1  0  0  0  0
  4 17  2  0  0  0  0
  5 20  1  0  0  0  0
  6 22  1  0  0  0  0
  7 10  2  0  0  0  0
  7 21  1  0  0  0  0
  8 26  1  0  0  0  0
  9 26  2  0  0  0  0
 10 27  1  0  0  0  0
 11 12  2  0  0  0  0
 11 28  1  0  0  0  0
 12 30  1  0  0  0  0
 13 18  1  0  0  0  0
 13 29  2  0  0  0  0
 14 23  1  0  0  0  0
 14 27  2  0  0  0  0
 15 25  2  0  0  0  0
 15 29  1  0  0  0  0
 16 30  2  0  0  0  0
 16 31  1  0  0  0  0
 17 32  1  0  0  0  0
 18 24  2  0  0  0  0
 18 34  1  0  0  0  0
 19 32  1  0  0  0  0
 19 33  2  0  0  0  0
 19 35  1  0  0  0  0
 20 22  2  0  0  0  0
 20 40  1  0  0  0  0
 21 23  2  0  0  0  0
 21 41  1  0  0  0  0
 22 49  1  0  0  0  0
 23 42  1  0  0  0  0
 24 25  1  0  0  0  0
 24 52  1  0  0  0  0
 25 74  1  0  0  0  0
 26 84  1  0  0  0  0
 27 85  1  0  0  0  0
 28 31  2  0  0  0  0
 28 84  1  0  0  0  0
 29 86  1  0  0  0  0
 30 87  1  0  0  0  0
 31 88  1  0  0  0  0
 32 68  2  0  0  0  0
 33 69  1  0  0  0  0
 33 72  1  0  0  0  0
 34 53  1  0  0  0  0
 34 78  2  0  0  0  0
 35 73  1  0  0  0  0
 35 79  2  0  0  0  0
 36 50  1  0  0  0  0
 36 75  1  0  0  0  0
 36 80  2  0  0  0  0
 37 64  1  0  0  0  0
 37 70  1  0  0  0  0
 37 81  2  0  0  0  0
 38 65  1  0  0  0  0
 38 76  1  0  0  0  0
 38 82  2  0  0  0  0
 39 71  1  0  0  0  0
 39 74  1  0  0  0  0
 39 83  2  0  0  0  0
 40 43  1  0  0  0  0
 41 50  1  0  0  0  0
 42 70  1  0  0  0  0
 43 45  1  0  0  0  0
 44 46  1  0  0  0  0
 44 47  1  0  0  0  0
 45 49  1  0  0  0  0
 46 51  1  0  0  0  0
 47 71  1  0  0  0  0
 48 51  1  0  0  0  0
 48 71  1  0  0  0  0
 49 75  1  0  0  0  0
 50 70  1  0  0  0  0
 51 69  1  0  0  0  0
 54 65  1  0  0  0  0
 55 66  1  0  0  0  0
 56 66  1  0  0  0  0
 57 66  1  0  0  0  0
 58 67  1  0  0  0  0
 59 67  1  0  0  0  0
 60 77  1  0  0  0  0
 61 62  1  0  0  0  0
 61 67  1  0  0  0  0
 62 85  1  0  0  0  0
 63 67  1  0  0  0  0
 63 86  1  0  0  0  0
 64 66  1  0  0  0  0
 64 76  1  0  0  0  0
 65 77  1  0  0  0  0
 68 69  1  0  0  0  0
M  CHG  1  77   1
M  ISO  4  39 100  62 101  74 100  85 101
M  END
> <Batch ID>
0142

> <Smiles>
CNC(C)C(=O)NC(C(=O)N1Cc2cc([101O:1][101CH2:1]CC(C)(C)COc3cc([100NH:0][100C:0](=O)N4CCCC(n5nc(-c6ccc(Oc7ccc(F)cc7F)cc6)c(C(N)=O)c5N)C4)c(C)c(C(C)=O)c3)ccc2CC1C(=O)NC1CCCc2ccccc21)C(C)(C)C

> <Shape>
0.212

> <Color>
0.081

> <Negative vol penalty>
0.000

$$$$

  -OEChem-04052302573D

 84 93  0     1  0  0  0  0  0999 V2000
  -18.7944  -33.4411   21.0017 C   0  0  0  0  0  0  0  0  0  0  0  0
  -20.0904  -33.1575   20.5827 C   0  0  0  0  0  0  0  0  0  0  0  0
  -36.2332  -26.6980   20.2587 C   0  0  0  0  0  0  0  0  0  0  0  0
  -28.7769  -17.7208   19.9627 C   0  0  0  0  0  0  0  0  0  0  0  0
  -31.0174  -17.9899   20.8257 C   0  0  0  0  0  0  0  0  0  0  0  0
  -18.2831  -32.8290   22.1452 C   0  0  0  0  0  0  0  0  0  0  0  0
  -20.8761  -32.2624   21.3078 C   0  0  0  0  0  0  0  0  0  0  0  0
  -25.0197  -28.3491   19.0666 C   0  0  0  0  0  0  0  0  0  0  0  0
  -36.1857  -26.0826   19.0079 C   0  0  0  0  0  0  0  0  0  0  0  0
  -35.0964  -27.3220   20.7726 C   0  0  0  0  0  0  0  0  0  0  0  0
  -28.7880  -16.3813   20.3514 C   0  0  0  0  0  0  0  0  0  0  0  0
  -31.0285  -16.6504   21.2145 C   0  0  0  0  0  0  0  0  0  0  0  0
  -26.4084  -28.4122   18.9608 C   0  0  0  0  0  0  0  0  0  0  0  0
  -30.0605  -13.4666   19.2071 C   0  0  0  0  0  0  0  0  0  0  0  0
  -29.5832  -12.5242   18.2962 C   0  0  0  0  0  0  0  0  0  0  0  0
  -26.6156  -27.1698   21.0182 C   0  0  0  0  0  0  0  0  0  0  0  0
  -33.8647  -26.7152   18.7848 C   0  0  0  0  0  0  0  0  0  0  0  0
  -27.8857  -11.8537   19.8793 C   0  0  0  0  0  0  0  0  0  0  0  0
  -29.8916  -18.5251   20.1998 C   0  0  0  0  0  0  0  0  0  0  0  0
  -29.4547  -21.0124   20.5610 C   0  0  0  0  0  0  0  0  0  0  0  0
  -19.0595  -31.9186   22.8793 C   0  0  0  0  0  0  0  0  0  0  0  0
  -24.4175  -27.7042   20.1565 C   0  0  0  0  0  0  0  0  0  0  0  0
  -20.3751  -31.6385   22.4631 C   0  0  0  0  0  0  0  0  0  0  0  0
  -25.2190  -27.0977   21.1342 C   0  0  0  0  0  0  0  0  0  0  0  0
  -35.0015  -26.0912   18.2709 C   0  0  0  0  0  0  0  0  0  0  0  0
  -33.9122  -27.3306   20.0356 C   0  0  0  0  0  0  0  0  0  0  0  0
  -29.9138  -15.8461   20.9774 C   0  0  0  0  0  0  0  0  0  0  0  0
  -27.2066  -27.8251   19.9381 C   0  0  0  0  0  0  0  0  0  0  0  0
  -29.4504  -13.6025   20.4541 C   0  0  0  0  0  0  0  0  0  0  0  0
  -28.4958  -11.7178   18.6322 C   0  0  0  0  0  0  0  0  0  0  0  0
  -28.3630  -12.7961   20.7902 C   0  0  0  0  0  0  0  0  0  0  0  0
  -29.8810  -19.9088   19.7980 C   0  0  0  0  0  0  0  0  0  0  0  0
  -29.6436  -22.0939   19.7358 C   0  0  0  0  0  0  0  0  0  0  0  0
  -30.5873  -28.6174   20.8484 C   0  0  0  0  0  0  0  0  0  0  0  0
  -29.2552  -28.5001   20.8428 C   0  0  0  0  0  0  0  0  0  1  0  0
  -28.9346  -21.0559   21.8964 C   0  0  0  0  0  0  0  0  0  0  0  0
  -22.4982  -28.6150   22.5210 C   0  0  0  0  0  0  0  0  0  0  0  0
  -22.4450  -25.4391   23.1791 C   0  0  0  0  0  0  0  0  0  0  0  0
  -23.9808  -22.4019   22.9270 C   0  0  0  0  0  0  0  0  0  0  0  0
  -33.3023  -24.0500   15.6982 C   0  0  0  0  0  0  0  0  0  0  0  0
  -18.4801  -31.3179   24.1355 C   0  0  0  0  0  0  0  0  0  0  0  0
  -22.9180  -27.6217   20.2422 C   0  0  0  0  0  0  0  0  0  0  0  0
  -24.6218  -26.3758   22.3134 C   0  0  0  0  0  0  0  0  0  0  0  0
  -31.3882  -29.2798   21.9243 C   0  0  0  0  0  0  0  0  0  0  0  0
  -31.5089  -28.0022   19.8386 C   0  0  0  0  0  0  0  0  0  0  0  0
  -19.2463  -30.0961   24.6360 C   0  0  0  0  0  0  0  0  0  0  0  0
  -30.1134  -22.7109   14.8531 C   0  0  0  0  0  0  0  0  0  0  0  0
  -20.7473  -30.3677   24.6292 C   0  0  0  0  0  0  0  0  0  0  0  0
  -29.6888  -21.9544   16.1130 C   0  0  0  0  0  0  0  0  0  0  0  0
  -32.7046  -28.5085   21.8915 C   0  0  0  0  0  0  0  0  0  0  0  0
  -31.6165  -22.5993   14.6074 C   0  0  0  0  0  0  0  0  0  0  0  0
  -32.0371  -22.2396   17.0090 C   0  0  0  0  0  0  0  0  0  0  0  0
  -21.2497  -30.6543   23.2090 C   0  0  1  0  0  0  0  0  0  0  0  0
  -22.4128  -27.3851   21.6621 C   0  0  1  0  0  0  0  0  0  0  0  0
  -30.5381  -22.3696   17.3293 C   0  0  2  0  0  0  0  0  0  0  0  0
  -23.7143  -19.9981   23.5963 C   0  0  0  0  0  0  0  0  0  0  0  0
  -23.2766  -26.1430   26.0292 C   0  0  0  0  0  0  0  0  0  0  0  0
  -23.9081  -23.7435   26.3633 C   0  0  0  0  0  0  0  0  0  0  0  0
  -21.5411  -24.3502   25.8616 C   0  0  0  0  0  0  0  0  0  0  0  0
  -23.9199  -21.5029   20.1079 C   0  0  0  0  0  0  0  0  0  0  0  0
  -34.9513  -25.4337   16.9334 C   0  0  0  0  0  0  0  0  0  0  0  0
  -23.2763  -24.5095   24.0298 C   0  0  1  0  0  0  0  0  0  0  0  0
  -23.4548  -21.0380   22.5175 C   0  0  2  0  0  0  0  0  0  0  0  0
  -23.0121  -24.7018   25.5499 C   0  0  0  0  0  0  0  0  0  0  0  0
  -30.3083  -20.2573   18.5814 N   0  0  0  0  0  0  0  0  0  0  0  0
  -30.1514  -21.5919   18.5737 N   0  0  0  0  0  0  0  0  0  0  0  0
  -32.7866  -27.9481   20.5447 N   0  0  3  0  0  0  0  0  0  0  0  0
  -23.1509  -26.3277   22.3558 N   0  0  0  0  0  0  0  0  0  0  0  0
  -32.3646  -23.0090   15.7984 N   0  0  0  0  0  0  0  0  0  0  0  0
  -29.4231  -23.4158   19.8980 N   0  0  0  0  0  0  0  0  0  0  0  0
  -28.8062  -19.8524   22.6030 N   0  0  0  0  0  0  0  0  0  0  0  0
  -21.3785  -29.4225   22.4603 N   0  0  0  0  0  0  0  0  0  0  0  0
  -23.0080  -23.1607   23.5426 N   0  0  0  0  0  0  0  0  0  0  0  0
  -33.9628  -24.3799   16.8754 N   0  0  0  0  0  0  0  0  0  0  0  0
  -24.1135  -20.5850   21.2598 N   0  3  0  0  0  0  0  0  0  0  0  0
  -28.5785  -22.1285   22.4408 O   0  0  0  0  0  0  0  0  0  0  0  0
  -23.5048  -28.8156   23.1905 O   0  0  0  0  0  0  0  0  0  0  0  0
  -21.2145  -25.3741   23.2375 O   0  0  0  0  0  0  0  0  0  0  0  0
  -25.1399  -22.7570   22.7245 O   0  0  0  0  0  0  0  0  0  0  0  0
  -33.5300  -24.6451   14.6395 O   0  0  0  0  0  0  0  0  0  0  0  0
  -29.9249  -14.5391   21.3571 O   0  0  0  0  0  0  0  0  0  0  0  0
  -28.5624  -27.8858   19.8376 O   0  0  0  0  0  0  0  0  0  1  0  0
  -28.0366  -10.8139   17.7568 F   0  0  0  0  0  0  0  0  0  0  0  0
  -27.7721  -12.9228   21.9862 F   0  0  0  0  0  0  0  0  0  0  0  0
  1  2  1  0  0  0  0
  1  6  2  0  0  0  0
  2  7  2  0  0  0  0
  3  9  1  0  0  0  0
  3 10  2  0  0  0  0
  4 11  2  0  0  0  0
  4 19  1  0  0  0  0
  5 12  1  0  0  0  0
  5 19  2  0  0  0  0
  6 21  1  0  0  0  0
  7 23  1  0  0  0  0
  8 13  2  0  0  0  0
  8 22  1  0  0  0  0
  9 25  2  0  0  0  0
 10 26  1  0  0  0  0
 11 27  1  0  0  0  0
 12 27  2  0  0  0  0
 13 28  1  0  0  0  0
 14 15  2  0  0  0  0
 14 29  1  0  0  0  0
 15 30  1  0  0  0  0
 16 24  1  0  0  0  0
 16 28  2  0  0  0  0
 17 25  1  0  0  0  0
 17 26  2  0  0  0  0
 18 30  2  0  0  0  0
 18 31  1  0  0  0  0
 19 32  1  0  0  0  0
 20 32  1  0  0  0  0
 20 33  2  0  0  0  0
 20 36  1  0  0  0  0
 21 23  2  0  0  0  0
 21 41  1  0  0  0  0
 22 24  2  0  0  0  0
 22 42  1  0  0  0  0
 23 53  1  0  0  0  0
 24 43  1  0  0  0  0
 25 61  1  0  0  0  0
 26 67  1  0  0  0  0
 27 81  1  0  0  0  0
 28 82  1  0  0  0  0
 29 31  2  0  0  0  0
 29 81  1  0  0  0  0
 30 83  1  0  0  0  0
 31 84  1  0  0  0  0
 32 65  2  0  0  0  0
 33 66  1  0  0  0  0
 33 70  1  0  0  0  0
 34 35  2  0  0  0  0
 34 44  1  0  0  0  0
 34 45  1  0  0  0  0
 35 82  1  0  0  0  0
 36 71  1  0  0  0  0
 36 76  2  0  0  0  0
 37 54  1  0  0  0  0
 37 72  1  0  0  0  0
 37 77  2  0  0  0  0
 38 62  1  0  0  0  0
 38 68  1  0  0  0  0
 38 78  2  0  0  0  0
 39 63  1  0  0  0  0
 39 73  1  0  0  0  0
 39 79  2  0  0  0  0
 40 69  1  0  0  0  0
 40 74  1  0  0  0  0
 40 80  2  0  0  0  0
 41 46  1  0  0  0  0
 42 54  1  0  0  0  0
 43 68  1  0  0  0  0
 44 50  1  0  0  0  0
 45 67  1  0  0  0  0
 46 48  1  0  0  0  0
 47 49  1  0  0  0  0
 47 51  1  0  0  0  0
 48 53  1  0  0  0  0
 49 55  1  0  0  0  0
 50 67  1  0  0  0  0
 51 69  1  0  0  0  0
 52 55  1  0  0  0  0
 52 69  1  0  0  0  0
 53 72  1  0  0  0  0
 54 68  1  0  0  0  0
 55 66  1  0  0  0  0
 56 63  1  0  0  0  0
 57 64  1  0  0  0  0
 58 64  1  0  0  0  0
 59 64  1  0  0  0  0
 60 75  1  0  0  0  0
 61 74  1  0  0  0  0
 62 64  1  0  0  0  0
 62 73  1  0  0  0  0
 63 75  1  0  0  0  0
 65 66  1  0  0  0  0
M  CHG  1  75   1
M  ISO  4  35 101  40 100  74 100  82 101
M  END
> <Batch ID>
0142

> <Smiles>
CNC(C)C(=O)NC(C(=O)N1Cc2cc([101O:1][101CH:1]=C3CCN(c4cccc(C[100NH:0][100C:0](=O)N5CCCC(n6nc(-c7ccc(Oc8ccc(F)cc8F)cc7)c(C(N)=O)c6N)C5)c4)C3)ccc2CC1C(=O)NC1CCCc2ccccc21)C(C)(C)C

> <Shape>
0.200

> <Color>
0.084

> <Negative vol penalty>
0.000

$$$$

  -OEChem-04052302573D

 89 97  0     1  0  0  0  0  0999 V2000
  -20.3565  -33.7343   19.9294 C   0  0  0  0  0  0  0  0  0  0  0  0
  -21.6644  -33.3083   20.1379 C   0  0  0  0  0  0  0  0  0  0  0  0
  -26.4340  -12.1022   21.4551 C   0  0  0  0  0  0  0  0  0  0  0  0
  -25.1220  -13.1172   19.6985 C   0  0  0  0  0  0  0  0  0  0  0  0
  -19.3122  -33.1524   20.6468 C   0  0  0  0  0  0  0  0  0  0  0  0
  -21.9288  -32.3006   21.0648 C   0  0  0  0  0  0  0  0  0  0  0  0
  -25.1781  -28.8408   19.2995 C   0  0  0  0  0  0  0  0  0  0  0  0
  -25.2751  -11.5521   22.0028 C   0  0  0  0  0  0  0  0  0  0  0  0
  -23.9631  -12.5671   20.2462 C   0  0  0  0  0  0  0  0  0  0  0  0
  -26.5301  -29.1811   19.2945 C   0  0  0  0  0  0  0  0  0  0  0  0
  -22.4101   -9.5659   20.2849 C   0  0  0  0  0  0  0  0  0  0  0  0
  -21.5053   -8.9629   19.4113 C   0  0  0  0  0  0  0  0  0  0  0  0
  -26.8512  -27.9101   21.3196 C   0  0  0  0  0  0  0  0  0  0  0  0
  -28.5530  -22.4906   18.3650 C   0  0  0  0  0  0  0  0  0  0  0  0
  -30.6498  -23.2212   19.3172 C   0  0  0  0  0  0  0  0  0  0  0  0
  -19.7980  -10.5277   20.0997 C   0  0  0  0  0  0  0  0  0  0  0  0
  -26.3574  -12.8848   20.3030 C   0  0  0  0  0  0  0  0  0  0  0  0
  -28.3973  -12.8725   18.7711 C   0  0  0  0  0  0  0  0  0  0  0  0
  -19.5629  -32.1304   21.5760 C   0  0  0  0  0  0  0  0  0  0  0  0
  -24.6493  -28.0402   20.3222 C   0  0  0  0  0  0  0  0  0  0  0  0
  -20.8870  -31.7054   21.7963 C   0  0  0  0  0  0  0  0  0  0  0  0
  -25.4926  -27.5590   21.3338 C   0  0  0  0  0  0  0  0  0  0  0  0
  -28.3068  -23.7867   17.9125 C   0  0  0  0  0  0  0  0  0  0  0  0
  -29.2321  -24.8002   18.1622 C   0  0  0  0  0  0  0  0  0  0  0  0
  -29.7245  -22.2078   19.0675 C   0  0  0  0  0  0  0  0  0  0  0  0
  -24.0397  -11.7845   21.3983 C   0  0  0  0  0  0  0  0  0  0  0  0
  -27.3663  -28.7182   20.3063 C   0  0  0  0  0  0  0  0  0  0  0  0
  -22.0089  -10.6497   21.0660 C   0  0  0  0  0  0  0  0  0  0  0  0
  -30.4036  -24.5175   18.8646 C   0  0  0  0  0  0  0  0  0  0  0  0
  -20.1992   -9.4438   19.3186 C   0  0  0  0  0  0  0  0  0  0  0  0
  -20.7029  -11.1306   20.9734 C   0  0  0  0  0  0  0  0  0  0  0  0
  -27.5541  -13.4538   19.7370 C   0  0  0  0  0  0  0  0  0  0  0  0
  -29.3851  -13.8057   18.5714 C   0  0  0  0  0  0  0  0  0  0  0  0
  -28.2966  -11.6026   18.1132 C   0  0  0  0  0  0  0  0  0  0  0  0
  -22.4418  -28.4447   22.5731 C   0  0  0  0  0  0  0  0  0  0  0  0
  -30.9508  -28.2004   20.2058 C   0  0  0  0  0  0  0  0  0  0  0  0
  -22.9824  -25.2936   23.1213 C   0  0  0  0  0  0  0  0  0  0  0  0
  -25.1066  -22.6335   22.8792 C   0  0  0  0  0  0  0  0  0  0  0  0
  -29.1667  -19.7617   19.3678 C   0  0  0  0  0  0  0  0  0  0  0  0
  -18.4069  -31.5644   22.3620 C   0  0  0  0  0  0  0  0  0  0  0  0
  -23.1942  -27.6600   20.2985 C   0  0  0  0  0  0  0  0  0  0  0  0
  -24.9784  -26.6798   22.4433 C   0  0  0  0  0  0  0  0  0  0  0  0
  -18.7298  -30.2425   23.0537 C   0  0  0  0  0  0  0  0  0  0  0  0
  -31.1680  -17.2488   21.4665 C   0  0  0  0  0  0  0  0  0  0  0  0
  -20.0745  -30.3286   23.7686 C   0  0  0  0  0  0  0  0  0  0  0  0
  -30.9909  -16.0009   20.6046 C   0  0  0  0  0  0  0  0  0  0  0  0
  -30.9834  -18.5331   20.6680 C   0  0  0  0  0  0  0  0  0  0  0  0
  -28.9413  -17.3346   19.8622 C   0  0  0  0  0  0  0  0  0  0  0  0
  -21.2112  -30.5978   22.7752 C   0  0  1  0  0  0  0  0  0  0  0  0
  -22.6579  -27.2631   21.6704 C   0  0  1  0  0  0  0  0  0  0  0  0
  -29.8627  -16.1416   19.5636 C   0  0  2  0  0  0  0  0  0  0  0  0
  -27.0449  -24.0641   17.1629 C   0  0  0  0  0  0  0  0  0  0  0  0
  -29.2391  -26.3394   16.1830 C   0  0  0  0  0  0  0  0  0  0  0  0
  -32.8911  -28.9122   22.4808 C   0  0  0  0  0  0  0  0  0  0  0  0
  -25.8806  -20.2509   23.0263 C   0  0  0  0  0  0  0  0  0  0  0  0
  -33.3366  -27.4750   19.8345 C   0  0  0  0  0  0  0  0  0  0  0  0
  -23.4755  -26.0150   26.0447 C   0  0  0  0  0  0  0  0  0  0  0  0
  -24.5510  -23.7741   26.3439 C   0  0  0  0  0  0  0  0  0  0  0  0
  -22.1469  -23.9251   25.6957 C   0  0  0  0  0  0  0  0  0  0  0  0
  -24.1264  -22.0250   20.1537 C   0  0  0  0  0  0  0  0  0  0  0  0
  -28.9744  -26.1912   17.6775 C   0  0  0  0  0  0  0  0  0  0  0  0
  -29.5920  -28.1116   20.8842 C   0  0  0  0  0  0  0  0  0  1  0  0
  -32.4002  -27.5030   22.1669 C   0  0  0  0  0  0  0  0  0  0  0  0
  -31.6089  -25.7693   20.4881 C   0  0  0  0  0  0  0  0  0  0  0  0
  -23.9274  -24.5076   23.9978 C   0  0  1  0  0  0  0  0  0  0  0  0
  -24.8903  -21.2131   22.3889 C   0  0  2  0  0  0  0  0  0  0  0  0
  -32.0675  -27.2359   20.6762 C   0  0  1  0  0  0  0  0  0  0  0  0
  -23.5348  -24.5736   25.5008 C   0  0  0  0  0  0  0  0  0  0  0  0
  -27.9701  -14.6626   20.1242 N   0  0  0  0  0  0  0  0  0  0  0  0
  -29.0854  -14.8485   19.3979 N   0  0  0  0  0  0  0  0  0  0  0  0
  -23.5471  -26.3409   22.3797 N   0  0  0  0  0  0  0  0  0  0  0  0
  -29.7034  -18.5858   19.9470 N   0  0  0  0  0  0  0  0  0  0  0  0
  -30.4722  -13.8278   17.7713 N   0  0  0  0  0  0  0  0  0  0  0  0
  -27.2190  -10.7666   18.4359 N   0  0  0  0  0  0  0  0  0  0  0  0
  -29.9750  -20.8905   19.5268 N   0  0  0  0  0  0  0  0  0  0  0  0
  -21.5632  -29.3846   22.0690 N   0  0  0  0  0  0  0  0  0  0  0  0
  -23.9650  -23.1565   23.4488 N   0  0  0  0  0  0  0  0  0  0  0  0
  -25.0549  -21.1452   20.9093 N   0  3  0  0  0  0  0  0  0  0  0  0
  -29.1462  -11.2137   17.2763 O   0  0  0  0  0  0  0  0  0  0  0  0
  -23.0275  -28.4989   23.6481 O   0  0  0  0  0  0  0  0  0  0  0  0
  -31.1373  -29.0046   19.2894 O   0  0  0  0  0  0  0  0  0  0  0  0
  -21.7885  -24.9849   23.0900 O   0  0  0  0  0  0  0  0  0  0  0  0
  -26.1818  -23.2190   22.7712 O   0  0  0  0  0  0  0  0  0  0  0  0
  -28.0875  -19.7561   18.7720 O   0  0  0  0  0  0  0  0  0  0  0  0
  -22.9087  -11.2476   21.9324 O   0  0  0  0  0  0  0  0  0  0  0  0
  -28.6862  -29.0494   20.3042 O   0  0  0  0  0  0  0  0  0  1  0  0
  -31.3235  -25.4993   19.1192 O   0  0  0  0  0  0  0  0  0  0  0  0
  -19.3308   -8.8657   18.4785 F   0  0  0  0  0  0  0  0  0  0  0  0
  -20.3120  -12.1722   21.7204 F   0  0  0  0  0  0  0  0  0  0  0  0
  1  2  1  0  0  0  0
  1  5  2  0  0  0  0
  2  6  2  0  0  0  0
  3  8  2  0  0  0  0
  3 17  1  0  0  0  0
  4  9  1  0  0  0  0
  4 17  2  0  0  0  0
  5 19  1  0  0  0  0
  6 21  1  0  0  0  0
  7 10  2  0  0  0  0
  7 20  1  0  0  0  0
  8 26  1  0  0  0  0
  9 26  2  0  0  0  0
 10 27  1  0  0  0  0
 11 12  2  0  0  0  0
 11 28  1  0  0  0  0
 12 30  1  0  0  0  0
 13 22  1  0  0  0  0
 13 27  2  0  0  0  0
 14 23  2  0  0  0  0
 14 25  1  0  0  0  0
 15 25  2  0  0  0  0
 15 29  1  0  0  0  0
 16 30  2  0  0  0  0
 16 31  1  0  0  0  0
 17 32  1  0  0  0  0
 18 32  1  0  0  0  0
 18 33  2  0  0  0  0
 18 34  1  0  0  0  0
 19 21  2  0  0  0  0
 19 40  1  0  0  0  0
 20 22  2  0  0  0  0
 20 41  1  0  0  0  0
 21 49  1  0  0  0  0
 22 42  1  0  0  0  0
 23 24  1  0  0  0  0
 23 52  1  0  0  0  0
 24 29  2  0  0  0  0
 24 61  1  0  0  0  0
 25 75  1  0  0  0  0
 26 85  1  0  0  0  0
 27 86  1  0  0  0  0
 28 31  2  0  0  0  0
 28 85  1  0  0  0  0
 29 87  1  0  0  0  0
 30 88  1  0  0  0  0
 31 89  1  0  0  0  0
 32 69  2  0  0  0  0
 33 70  1  0  0  0  0
 33 73  1  0  0  0  0
 34 74  1  0  0  0  0
 34 79  2  0  0  0  0
 35 50  1  0  0  0  0
 35 76  1  0  0  0  0
 35 80  2  0  0  0  0
 36 62  1  0  0  0  0
 36 67  1  0  0  0  0
 36 81  2  0  0  0  0
 37 65  1  0  0  0  0
 37 71  1  0  0  0  0
 37 82  2  0  0  0  0
 38 66  1  0  0  0  0
 38 77  1  0  0  0  0
 38 83  2  0  0  0  0
 39 72  1  0  0  0  0
 39 75  1  0  0  0  0
 39 84  2  0  0  0  0
 40 43  1  0  0  0  0
 41 50  1  0  0  0  0
 42 71  1  0  0  0  0
 43 45  1  0  0  0  0
 44 46  1  0  0  0  0
 44 47  1  0  0  0  0
 45 49  1  0  0  0  0
 46 51  1  0  0  0  0
 47 72  1  0  0  0  0
 48 51  1  0  0  0  0
 48 72  1  0  0  0  0
 49 76  1  0  0  0  0
 50 71  1  0  0  0  0
 51 70  1  0  0  0  0
 53 61  1  0  0  0  0
 54 63  1  0  0  0  0
 55 66  1  0  0  0  0
 56 67  1  0  0  0  0
 57 68  1  0  0  0  0
 58 68  1  0  0  0  0
 59 68  1  0  0  0  0
 60 78  1  0  0  0  0
 62 86  1  0  0  0  0
 63 67  1  0  0  0  0
 64 67  1  0  0  0  0
 64 87  1  0  0  0  0
 65 68  1  0  0  0  0
 65 77  1  0  0  0  0
 66 78  1  0  0  0  0
 69 70  1  0  0  0  0
M  CHG  1  78   1
M  ISO  4  39 100  62 101  75 100  86 101
M  END
> <Batch ID>
0142

> <Smiles>
CCc1c(C)cc([100NH:0][100C:0](=O)N2CCCC(n3nc(-c4ccc(Oc5ccc(F)cc5F)cc4)c(C(N)=O)c3N)C2)cc1OCC(C)(CC)C(=O)[101CH2:1][101O:1]c1ccc2c(c1)CN(C(=O)C(NC(=O)C(C)NC)C(C)(C)C)C(C(=O)NC1CCCc3ccccc31)C2

> <Shape>
0.258

> <Color>
0.078

> <Negative vol penalty>
0.000

$$$$

  -OEChem-04052302573D

 85 94  0     1  0  0  0  0  0999 V2000
  -17.0760  -30.5932   23.7955 C   0  0  0  0  0  0  0  0  0  0  0  0
  -18.4113  -30.9838   23.7942 C   0  0  0  0  0  0  0  0  0  0  0  0
  -24.4593  -13.1917   21.2155 C   0  0  0  0  0  0  0  0  0  0  0  0
  -26.4181  -12.5705   19.9450 C   0  0  0  0  0  0  0  0  0  0  0  0
  -16.7328  -29.2864   23.4515 C   0  0  0  0  0  0  0  0  0  0  0  0
  -19.4042  -30.0674   23.4499 C   0  0  0  0  0  0  0  0  0  0  0  0
  -25.8088  -29.7105   20.2606 C   0  0  0  0  0  0  0  0  0  0  0  0
  -23.8777  -11.9584   20.9218 C   0  0  0  0  0  0  0  0  0  0  0  0
  -25.8366  -11.3371   19.6514 C   0  0  0  0  0  0  0  0  0  0  0  0
  -27.0981  -29.2294   20.4843 C   0  0  0  0  0  0  0  0  0  0  0  0
  -24.1235   -8.7663   22.0096 C   0  0  0  0  0  0  0  0  0  0  0  0
  -23.5057   -8.0762   23.0526 C   0  0  0  0  0  0  0  0  0  0  0  0
  -31.2102  -22.4254   19.8687 C   0  0  0  0  0  0  0  0  0  0  0  0
  -26.3809  -27.0208   19.8310 C   0  0  0  0  0  0  0  0  0  0  0  0
  -33.6587  -21.1669   20.3202 C   0  0  0  0  0  0  0  0  0  0  0  0
  -21.4097   -8.1391   21.8527 C   0  0  0  0  0  0  0  0  0  0  0  0
  -25.7295  -13.4978   20.7270 C   0  0  0  0  0  0  0  0  0  0  0  0
  -27.1462  -15.0865   22.1329 C   0  0  0  0  0  0  0  0  0  0  0  0
  -17.7213  -28.3562   23.0935 C   0  0  0  0  0  0  0  0  0  0  0  0
  -24.7915  -28.8466   19.8301 C   0  0  0  0  0  0  0  0  0  0  0  0
  -19.0741  -28.7465   23.1020 C   0  0  0  0  0  0  0  0  0  0  0  0
  -32.3435  -23.1868   20.1540 C   0  0  0  0  0  0  0  0  0  0  0  0
  -25.0801  -27.4939   19.6000 C   0  0  0  0  0  0  0  0  0  0  0  0
  -32.5253  -20.4055   20.0350 C   0  0  0  0  0  0  0  0  0  0  0  0
  -31.3011  -21.0347   19.8093 C   0  0  0  0  0  0  0  0  0  0  0  0
  -33.5678  -22.5576   20.3798 C   0  0  0  0  0  0  0  0  0  0  0  0
  -24.5663  -11.0311   20.1398 C   0  0  0  0  0  0  0  0  0  0  0  0
  -27.3836  -27.8838   20.2723 C   0  0  0  0  0  0  0  0  0  0  0  0
  -23.3843   -9.1430   20.8882 C   0  0  0  0  0  0  0  0  0  0  0  0
  -22.1489   -7.7626   22.9741 C   0  0  0  0  0  0  0  0  0  0  0  0
  -22.0274   -8.8293   20.8098 C   0  0  0  0  0  0  0  0  0  0  0  0
  -26.3306  -14.7719   21.0295 C   0  0  0  0  0  0  0  0  0  0  0  0
  -27.4576  -16.4133   21.9626 C   0  0  0  0  0  0  0  0  0  0  0  0
  -27.5834  -14.2537   23.2151 C   0  0  0  0  0  0  0  0  0  0  0  0
  -22.0084  -27.8857   21.0280 C   0  0  0  0  0  0  0  0  0  0  0  0
  -21.7054  -26.4446   18.1377 C   0  0  0  0  0  0  0  0  0  0  0  0
  -23.2288  -25.1506   15.3716 C   0  0  0  0  0  0  0  0  0  0  0  0
  -29.0480  -20.6689   18.7433 C   0  0  0  0  0  0  0  0  0  0  0  0
  -17.3058  -26.9418   22.7749 C   0  0  0  0  0  0  0  0  0  0  0  0
  -23.4124  -29.3865   19.5677 C   0  0  0  0  0  0  0  0  0  0  0  0
  -24.0284  -26.5293   19.1185 C   0  0  0  0  0  0  0  0  0  0  0  0
  -18.3870  -26.1357   22.0597 C   0  0  0  0  0  0  0  0  0  0  0  0
  -25.5827  -19.8511   18.7551 C   0  0  0  0  0  0  0  0  0  0  0  0
  -19.7349  -26.3206   22.7495 C   0  0  0  0  0  0  0  0  0  0  0  0
  -25.5355  -18.4827   19.4386 C   0  0  0  0  0  0  0  0  0  0  0  0
  -32.3697  -25.4799   21.5924 C   0  0  0  0  0  0  0  0  0  0  0  0
  -30.7948  -25.4070   20.1646 C   0  0  0  0  0  0  0  0  0  0  0  0
  -26.8193  -20.0009   17.8707 C   0  0  0  0  0  0  0  0  0  0  0  0
  -28.0495  -18.3469   19.2196 C   0  0  0  0  0  0  0  0  0  0  0  0
  -32.2136  -24.7643   20.2169 C   0  0  0  0  0  0  0  0  0  0  0  0
  -20.1779  -27.7882   22.7104 C   0  0  1  0  0  0  0  0  0  0  0  0
  -22.3298  -28.3131   19.6238 C   0  0  1  0  0  0  0  0  0  0  0  0
  -31.3364  -26.5201   21.0946 C   0  0  0  0  0  0  0  0  0  0  0  0
  -26.8553  -18.1732   20.1721 C   0  0  2  0  0  0  0  0  0  0  0  0
  -32.6511  -18.9175   19.9803 C   0  0  0  0  0  0  0  0  0  0  0  0
  -22.7207  -24.0086   13.1956 C   0  0  0  0  0  0  0  0  0  0  0  0
  -21.1702  -23.8392   19.6328 C   0  0  0  0  0  0  0  0  0  0  0  0
  -21.6151  -22.6053   17.5003 C   0  0  0  0  0  0  0  0  0  0  0  0
  -19.7132  -24.2138   17.6350 C   0  0  0  0  0  0  0  0  0  0  0  0
  -24.4424  -27.3469   13.8023 C   0  0  0  0  0  0  0  0  0  0  0  0
  -30.3750  -27.0696   22.1278 C   0  0  0  0  0  0  0  0  0  0  0  0
  -29.4159  -28.0668   21.4938 C   0  0  0  0  0  0  0  0  0  1  0  0
  -22.0812  -25.0971   17.5704 C   0  0  1  0  0  0  0  0  0  0  0  0
  -22.9570  -25.3407   13.8902 C   0  0  2  0  0  0  0  0  0  0  0  0
  -21.1645  -23.9564   18.0956 C   0  0  0  0  0  0  0  0  0  0  0  0
  -26.1358  -15.8149   20.2183 N   0  0  0  0  0  0  0  0  0  0  0  0
  -26.8335  -16.7979   20.8125 N   0  0  0  0  0  0  0  0  0  0  0  0
  -22.6937  -27.1040   18.8822 N   0  0  0  0  0  0  0  0  0  0  0  0
  -28.0316  -19.6964   18.6337 N   0  0  0  0  0  0  0  0  0  0  0  0
  -34.7236  -23.3143   20.6708 N   0  0  0  0  0  0  0  0  0  0  0  0
  -28.2015  -17.2769   22.6859 N   0  0  0  0  0  0  0  0  0  0  0  0
  -27.1714  -12.9143   23.2361 N   0  0  0  0  0  0  0  0  0  0  0  0
  -30.1383  -20.2784   19.5201 N   0  0  0  0  0  0  0  0  0  0  0  0
  -20.6999  -28.1239   21.4030 N   0  0  0  0  0  0  0  0  0  0  0  0
  -22.0745  -25.2489   16.1194 N   0  0  0  0  0  0  0  0  0  0  0  0
  -24.1129  -26.0145   13.2338 N   0  3  0  0  0  0  0  0  0  0  0  0
  -28.3043  -14.6889   24.1449 O   0  0  0  0  0  0  0  0  0  0  0  0
  -22.8824  -27.3763   21.7195 O   0  0  0  0  0  0  0  0  0  0  0  0
  -20.5789  -26.8987   17.9221 O   0  0  0  0  0  0  0  0  0  0  0  0
  -24.3522  -24.9328   15.8201 O   0  0  0  0  0  0  0  0  0  0  0  0
  -28.9457  -21.7773   18.2114 O   0  0  0  0  0  0  0  0  0  0  0  0
  -23.9992   -9.8274   19.8533 O   0  0  0  0  0  0  0  0  0  0  0  0
  -28.6411  -27.4116   20.4905 O   0  0  0  0  0  0  0  0  0  1  0  0
  -21.5561   -7.0985   23.9750 F   0  0  0  0  0  0  0  0  0  0  0  0
  -21.3124   -9.1874   19.7345 F   0  0  0  0  0  0  0  0  0  0  0  0
  1  2  1  0  0  0  0
  1  5  2  0  0  0  0
  2  6  2  0  0  0  0
  3  8  2  0  0  0  0
  3 17  1  0  0  0  0
  4  9  1  0  0  0  0
  4 17  2  0  0  0  0
  5 19  1  0  0  0  0
  6 21  1  0  0  0  0
  7 10  2  0  0  0  0
  7 20  1  0  0  0  0
  8 27  1  0  0  0  0
  9 27  2  0  0  0  0
 10 28  1  0  0  0  0
 11 12  2  0  0  0  0
 11 29  1  0  0  0  0
 12 30  1  0  0  0  0
 13 22  1  0  0  0  0
 13 25  2  0  0  0  0
 14 23  1  0  0  0  0
 14 28  2  0  0  0  0
 15 24  2  0  0  0  0
 15 26  1  0  0  0  0
 16 30  2  0  0  0  0
 16 31  1  0  0  0  0
 17 32  1  0  0  0  0
 18 32  1  0  0  0  0
 18 33  2  0  0  0  0
 18 34  1  0  0  0  0
 19 21  2  0  0  0  0
 19 39  1  0  0  0  0
 20 23  2  0  0  0  0
 20 40  1  0  0  0  0
 21 51  1  0  0  0  0
 22 26  2  0  0  0  0
 22 50  1  0  0  0  0
 23 41  1  0  0  0  0
 24 25  1  0  0  0  0
 24 55  1  0  0  0  0
 25 73  1  0  0  0  0
 26 70  1  0  0  0  0
 27 82  1  0  0  0  0
 28 83  1  0  0  0  0
 29 31  2  0  0  0  0
 29 82  1  0  0  0  0
 30 84  1  0  0  0  0
 31 85  1  0  0  0  0
 32 66  2  0  0  0  0
 33 67  1  0  0  0  0
 33 71  1  0  0  0  0
 34 72  1  0  0  0  0
 34 77  2  0  0  0  0
 35 52  1  0  0  0  0
 35 74  1  0  0  0  0
 35 78  2  0  0  0  0
 36 63  1  0  0  0  0
 36 68  1  0  0  0  0
 36 79  2  0  0  0  0
 37 64  1  0  0  0  0
 37 75  1  0  0  0  0
 37 80  2  0  0  0  0
 38 69  1  0  0  0  0
 38 73  1  0  0  0  0
 38 81  2  0  0  0  0
 39 42  1  0  0  0  0
 40 52  1  0  0  0  0
 41 68  1  0  0  0  0
 42 44  1  0  0  0  0
 43 45  1  0  0  0  0
 43 48  1  0  0  0  0
 44 51  1  0  0  0  0
 45 54  1  0  0  0  0
 46 50  1  0  0  0  0
 46 53  1  0  0  0  0
 47 50  1  0  0  0  0
 47 53  1  0  0  0  0
 48 69  1  0  0  0  0
 49 54  1  0  0  0  0
 49 69  1  0  0  0  0
 51 74  1  0  0  0  0
 52 68  1  0  0  0  0
 53 61  1  0  0  0  0
 54 67  1  0  0  0  0
 56 64  1  0  0  0  0
 57 65  1  0  0  0  0
 58 65  1  0  0  0  0
 59 65  1  0  0  0  0
 60 76  1  0  0  0  0
 61 62  1  0  0  0  0
 62 83  1  0  0  0  0
 63 65  1  0  0  0  0
 63 75  1  0  0  0  0
 64 76  1  0  0  0  0
 66 67  1  0  0  0  0
M  CHG  1  76   1
M  ISO  4  38 100  62 101  73 100  83 101
M  END
> <Batch ID>
0142

> <Smiles>
CNC(C)C(=O)NC(C(=O)N1Cc2cc([101O:1][101CH2:1]CC3CC(c4cc([100NH:0][100C:0](=O)N5CCCC(n6nc(-c7ccc(Oc8ccc(F)cc8F)cc7)c(C(N)=O)c6N)C5)c(C)cc4N)C3)ccc2CC1C(=O)NC1CCCc2ccccc21)C(C)(C)C

> <Shape>
0.260

> <Color>
0.089

> <Negative vol penalty>
0.000

$$$$

  -OEChem-04052302573D

 85 93  0     1  0  0  0  0  0999 V2000
  -16.7661  -28.2303   24.0435 C   0  0  0  0  0  0  0  0  0  0  0  0
  -17.7579  -27.4864   23.4124 C   0  0  0  0  0  0  0  0  0  0  0  0
  -31.9523  -23.5023   22.5563 C   0  0  0  0  0  0  0  0  0  0  0  0
  -26.9496  -13.0303   22.5710 C   0  0  0  0  0  0  0  0  0  0  0  0
  -26.3663  -14.8870   21.1394 C   0  0  0  0  0  0  0  0  0  0  0  0
  -31.1686  -23.9024   21.4741 C   0  0  0  0  0  0  0  0  0  0  0  0
  -16.7412  -29.6173   23.9036 C   0  0  0  0  0  0  0  0  0  0  0  0
  -18.7249  -28.1290   22.6400 C   0  0  0  0  0  0  0  0  0  0  0  0
  -25.6146  -27.6046   20.7497 C   0  0  0  0  0  0  0  0  0  0  0  0
  -32.2344  -22.1501   22.7510 C   0  0  0  0  0  0  0  0  0  0  0  0
  -25.5987  -12.8172   22.8451 C   0  0  0  0  0  0  0  0  0  0  0  0
  -25.0153  -14.6739   21.4134 C   0  0  0  0  0  0  0  0  0  0  0  0
  -26.4208  -27.5831   19.6125 C   0  0  0  0  0  0  0  0  0  0  0  0
  -22.9424  -11.3878   21.3174 C   0  0  0  0  0  0  0  0  0  0  0  0
  -22.4722  -10.0752   21.2780 C   0  0  0  0  0  0  0  0  0  0  0  0
  -30.9488  -21.5983   20.7813 C   0  0  0  0  0  0  0  0  0  0  0  0
  -26.3253  -29.9912   19.5067 C   0  0  0  0  0  0  0  0  0  0  0  0
  -21.8101  -10.2427   23.5955 C   0  0  0  0  0  0  0  0  0  0  0  0
  -27.3335  -14.0653   21.7182 C   0  0  0  0  0  0  0  0  0  0  0  0
  -30.6668  -22.9505   20.5866 C   0  0  0  0  0  0  0  0  0  0  0  0
  -29.4848  -13.7194   20.3916 C   0  0  0  0  0  0  0  0  0  0  0  0
  -17.7140  -30.2781   23.1371 C   0  0  0  0  0  0  0  0  0  0  0  0
  -25.1479  -28.8209   21.2685 C   0  0  0  0  0  0  0  0  0  0  0  0
  -18.7122  -29.5260   22.4887 C   0  0  0  0  0  0  0  0  0  0  0  0
  -25.5154  -30.0255   20.6521 C   0  0  0  0  0  0  0  0  0  0  0  0
  -31.7326  -21.1982   21.8636 C   0  0  0  0  0  0  0  0  0  0  0  0
  -24.6315  -13.6390   22.2663 C   0  0  0  0  0  0  0  0  0  0  0  0
  -26.7739  -28.7763   18.9891 C   0  0  0  0  0  0  0  0  0  0  0  0
  -22.8466  -12.1278   22.4959 C   0  0  0  0  0  0  0  0  0  0  0  0
  -21.9060   -9.5027   22.4170 C   0  0  0  0  0  0  0  0  0  0  0  0
  -22.2804  -11.5553   23.6349 C   0  0  0  0  0  0  0  0  0  0  0  0
  -28.7289  -14.2863   21.4351 C   0  0  0  0  0  0  0  0  0  0  0  0
  -30.7439  -14.2429   20.5561 C   0  0  0  0  0  0  0  0  0  0  0  0
  -29.0845  -12.8017   19.3653 C   0  0  0  0  0  0  0  0  0  0  0  0
  -29.8327  -23.3779   19.4351 C   0  0  0  0  0  0  0  0  0  0  0  0
  -22.2792  -30.1122   21.7236 C   0  0  0  0  0  0  0  0  0  0  0  0
  -23.9913  -32.4410   23.1959 C   0  0  0  0  0  0  0  0  0  0  0  0
  -26.9754  -34.0586   23.5504 C   0  0  0  0  0  0  0  0  0  0  0  0
  -32.7810  -19.2595   23.0837 C   0  0  0  0  0  0  0  0  0  0  0  0
  -17.6183  -31.7747   22.9764 C   0  0  0  0  0  0  0  0  0  0  0  0
  -24.3010  -28.8287   22.5116 C   0  0  0  0  0  0  0  0  0  0  0  0
  -25.0573  -31.3591   21.1813 C   0  0  0  0  0  0  0  0  0  0  0  0
  -18.8995  -32.4136   22.4466 C   0  0  0  0  0  0  0  0  0  0  0  0
  -33.6879  -15.9242   23.9384 C   0  0  0  0  0  0  0  0  0  0  0  0
  -19.4371  -31.6244   21.2571 C   0  0  0  0  0  0  0  0  0  0  0  0
  -32.5913  -15.0737   23.2933 C   0  0  0  0  0  0  0  0  0  0  0  0
  -33.1370  -17.2394   24.4865 C   0  0  0  0  0  0  0  0  0  0  0  0
  -31.2700  -17.1880   22.8799 C   0  0  0  0  0  0  0  0  0  0  0  0
  -19.7930  -30.1891   21.6627 C   0  0  1  0  0  0  0  0  0  0  0  0
  -23.4595  -30.0932   22.6533 C   0  0  1  0  0  0  0  0  0  0  0  0
  -31.7883  -15.8822   22.2555 C   0  0  2  0  0  0  0  0  0  0  0  0
  -28.0566  -35.9457   24.8024 C   0  0  0  0  0  0  0  0  0  0  0  0
  -22.5900  -34.4487   21.3751 C   0  0  0  0  0  0  0  0  0  0  0  0
  -24.3491  -36.1231   21.9837 C   0  0  0  0  0  0  0  0  0  0  0  0
  -22.8488  -35.1957   23.7478 C   0  0  0  0  0  0  0  0  0  0  0  0
  -28.8515  -27.7042   16.1609 C   0  0  0  0  0  0  0  0  0  0  0  0
  -26.7348  -26.6896   17.0293 C   0  0  0  0  0  0  0  0  0  0  0  0
  -28.9294  -32.2425   24.8320 C   0  0  0  0  0  0  0  0  0  0  0  0
  -28.8150  -26.7826   18.5015 C   0  0  0  0  0  0  0  0  0  0  0  0
  -28.8927  -25.2630   18.3681 C   0  0  0  0  0  0  0  0  0  0  0  0
  -24.6496  -33.7256   22.7539 C   0  0  1  0  0  0  0  0  0  0  0  0
  -27.7671  -34.4528   24.7842 C   0  0  2  0  0  0  0  0  0  0  0  0
  -23.6166  -34.8482   22.4538 C   0  0  0  0  0  0  0  0  0  0  0  0
  -27.9877  -27.4812   17.4062 C   0  0  0  0  0  0  0  0  0  1  0  0
  -29.4478  -15.1069   22.2057 N   0  0  0  0  0  0  0  0  0  0  0  0
  -30.6686  -15.0594   21.6459 N   0  0  0  0  0  0  0  0  0  0  0  0
  -24.2258  -31.3140   22.3955 N   0  0  0  0  0  0  0  0  0  0  0  0
  -32.3920  -17.9527   23.4466 N   0  0  0  0  0  0  0  0  0  0  0  0
  -31.8970  -14.0797   19.8734 N   0  0  0  0  0  0  0  0  0  0  0  0
  -27.7531  -12.3645   19.3420 N   0  0  0  0  0  0  0  0  0  0  0  0
  -32.0195  -19.8247   22.0614 N   0  0  0  0  0  0  0  0  0  0  0  0
  -21.0572  -30.1615   22.3667 N   0  0  0  0  0  0  0  0  0  0  0  0
  -25.6177  -34.0661   23.7909 N   0  0  0  0  0  0  0  0  0  0  0  0
  -29.0653  -33.7218   24.8221 N   0  3  0  0  0  0  0  0  0  0  0  0
  -29.8879  -12.3691   18.5044 O   0  0  0  0  0  0  0  0  0  0  0  0
  -29.3629  -22.5972   18.6220 O   0  0  0  0  0  0  0  0  0  0  0  0
  -22.4637  -30.0857   20.5124 O   0  0  0  0  0  0  0  0  0  0  0  0
  -23.3005  -32.4360   24.2178 O   0  0  0  0  0  0  0  0  0  0  0  0
  -27.5079  -33.7762   22.4794 O   0  0  0  0  0  0  0  0  0  0  0  0
  -33.7376  -19.8244   23.6202 O   0  0  0  0  0  0  0  0  0  0  0  0
  -23.3132  -13.4311   22.5333 O   0  0  0  0  0  0  0  0  0  0  0  0
  -27.5602  -28.7581   17.8785 O   0  0  0  0  0  0  0  0  0  1  0  0
  -29.6779  -24.7301   19.4286 O   0  0  0  0  0  0  0  0  0  0  0  0
  -21.4531   -8.2427   22.3785 F   0  0  0  0  0  0  0  0  0  0  0  0
  -22.1846  -12.2617   24.7697 F   0  0  0  0  0  0  0  0  0  0  0  0
  1  2  1  0  0  0  0
  1  7  2  0  0  0  0
  2  8  2  0  0  0  0
  3  6  2  0  0  0  0
  3 10  1  0  0  0  0
  4 11  2  0  0  0  0
  4 19  1  0  0  0  0
  5 12  1  0  0  0  0
  5 19  2  0  0  0  0
  6 20  1  0  0  0  0
  7 22  1  0  0  0  0
  8 24  1  0  0  0  0
  9 13  2  0  0  0  0
  9 23  1  0  0  0  0
 10 26  2  0  0  0  0
 11 27  1  0  0  0  0
 12 27  2  0  0  0  0
 13 28  1  0  0  0  0
 14 15  2  0  0  0  0
 14 29  1  0  0  0  0
 15 30  1  0  0  0  0
 16 20  2  0  0  0  0
 16 26  1  0  0  0  0
 17 25  1  0  0  0  0
 17 28  2  0  0  0  0
 18 30  2  0  0  0  0
 18 31  1  0  0  0  0
 19 32  1  0  0  0  0
 20 35  1  0  0  0  0
 21 32  1  0  0  0  0
 21 33  2  0  0  0  0
 21 34  1  0  0  0  0
 22 24  2  0  0  0  0
 22 40  1  0  0  0  0
 23 25  2  0  0  0  0
 23 41  1  0  0  0  0
 24 49  1  0  0  0  0
 25 42  1  0  0  0  0
 26 71  1  0  0  0  0
 27 81  1  0  0  0  0
 28 82  1  0  0  0  0
 29 31  2  0  0  0  0
 29 81  1  0  0  0  0
 30 84  1  0  0  0  0
 31 85  1  0  0  0  0
 32 65  2  0  0  0  0
 33 66  1  0  0  0  0
 33 69  1  0  0  0  0
 34 70  1  0  0  0  0
 34 75  2  0  0  0  0
 35 76  2  0  0  0  0
 35 83  1  0  0  0  0
 36 50  1  0  0  0  0
 36 72  1  0  0  0  0
 36 77  2  0  0  0  0
 37 61  1  0  0  0  0
 37 67  1  0  0  0  0
 37 78  2  0  0  0  0
 38 62  1  0  0  0  0
 38 73  1  0  0  0  0
 38 79  2  0  0  0  0
 39 68  1  0  0  0  0
 39 71  1  0  0  0  0
 39 80  2  0  0  0  0
 40 43  1  0  0  0  0
 41 50  1  0  0  0  0
 42 67  1  0  0  0  0
 43 45  1  0  0  0  0
 44 46  1  0  0  0  0
 44 47  1  0  0  0  0
 45 49  1  0  0  0  0
 46 51  1  0  0  0  0
 47 68  1  0  0  0  0
 48 51  1  0  0  0  0
 48 68  1  0  0  0  0
 49 72  1  0  0  0  0
 50 67  1  0  0  0  0
 51 66  1  0  0  0  0
 52 62  1  0  0  0  0
 53 63  1  0  0  0  0
 54 63  1  0  0  0  0
 55 63  1  0  0  0  0
 56 64  1  0  0  0  0
 57 64  1  0  0  0  0
 58 74  1  0  0  0  0
 59 60  1  0  0  0  0
 59 64  1  0  0  0  0
 60 83  1  0  0  0  0
 61 63  1  0  0  0  0
 61 73  1  0  0  0  0
 62 74  1  0  0  0  0
 64 82  1  0  0  0  0
 65 66  1  0  0  0  0
M  CHG  1  74   1
M  ISO  4  39 100  64 101  71 100  82 101
M  END
> <Batch ID>
0142

> <Smiles>
CNC(C)C(=O)NC(C(=O)N1Cc2cc([101O:1][101C:1](C)(C)CCOC(=O)c3cccc([100NH:0][100C:0](=O)N4CCCC(n5nc(-c6ccc(Oc7ccc(F)cc7F)cc6)c(C(N)=O)c5N)C4)c3)ccc2CC1C(=O)NC1CCCc2ccccc21)C(C)(C)C

> <Shape>
0.287

> <Color>
0.110

> <Negative vol penalty>
0.000

$$$$

  -OEChem-04052302573D

 86 95  0     1  0  0  0  0  0999 V2000
  -27.5480  -24.2150   31.4111 C   0  0  0  0  0  0  0  0  0  0  0  0
  -28.5671  -23.9669   30.4971 C   0  0  0  0  0  0  0  0  0  0  0  0
  -23.2609  -10.1325   22.1737 C   0  0  0  0  0  0  0  0  0  0  0  0
  -23.4892   -9.5849   19.8316 C   0  0  0  0  0  0  0  0  0  0  0  0
  -26.2159  -24.0936   31.0180 C   0  0  0  0  0  0  0  0  0  0  0  0
  -28.2546  -23.5961   29.1897 C   0  0  0  0  0  0  0  0  0  0  0  0
  -31.3359  -25.0733   24.1075 C   0  0  0  0  0  0  0  0  0  0  0  0
  -22.4951   -8.9829   22.3678 C   0  0  0  0  0  0  0  0  0  0  0  0
  -22.7234   -8.4353   20.0258 C   0  0  0  0  0  0  0  0  0  0  0  0
  -32.2766  -24.3809   23.3463 C   0  0  0  0  0  0  0  0  0  0  0  0
  -23.0318   -5.6647   22.7338 C   0  0  0  0  0  0  0  0  0  0  0  0
  -23.3201   -4.8740   23.8462 C   0  0  0  0  0  0  0  0  0  0  0  0
  -30.5255  -23.6536   21.8550 C   0  0  0  0  0  0  0  0  0  0  0  0
  -31.8947  -17.3169   21.9190 C   0  0  0  0  0  0  0  0  0  0  0  0
  -21.0730   -5.2102   24.6675 C   0  0  0  0  0  0  0  0  0  0  0  0
  -23.7579  -10.4335   20.9055 C   0  0  0  0  0  0  0  0  0  0  0  0
  -24.1549  -12.9532   20.9325 C   0  0  0  0  0  0  0  0  0  0  0  0
  -25.8868  -23.7305   29.7025 C   0  0  0  0  0  0  0  0  0  0  0  0
  -29.9791  -25.0521   23.7538 C   0  0  0  0  0  0  0  0  0  0  0  0
  -26.9168  -23.4684   28.7791 C   0  0  0  0  0  0  0  0  0  0  0  0
  -29.5700  -24.3487   22.6119 C   0  0  0  0  0  0  0  0  0  0  0  0
  -31.8727  -18.4944   22.7039 C   0  0  0  0  0  0  0  0  0  0  0  0
  -22.2264   -8.1343   21.2939 C   0  0  0  0  0  0  0  0  0  0  0  0
  -31.8711  -23.6685   22.2215 C   0  0  0  0  0  0  0  0  0  0  0  0
  -21.7642   -6.2283   22.5883 C   0  0  0  0  0  0  0  0  0  0  0  0
  -22.3407   -4.6467   24.8130 C   0  0  0  0  0  0  0  0  0  0  0  0
  -20.7847   -6.0010   23.5551 C   0  0  0  0  0  0  0  0  0  0  0  0
  -24.5486  -11.6211   20.7042 C   0  0  0  0  0  0  0  0  0  0  0  0
  -30.6466  -18.5152   23.3271 C   0  0  0  0  0  0  0  0  0  0  0  0
  -25.2562  -13.6999   20.5918 C   0  0  0  0  0  0  0  0  0  0  0  0
  -30.6806  -16.7020   22.1186 C   0  0  0  0  0  0  0  0  0  0  0  0
  -22.9055  -13.4696   21.4100 C   0  0  0  0  0  0  0  0  0  0  0  0
  -27.3134  -24.0255   25.1479 C   0  0  0  0  0  0  0  0  0  0  0  0
  -25.8983  -25.4195   22.5834 C   0  0  0  0  0  0  0  0  0  0  0  0
  -26.1643  -26.4895   19.3536 C   0  0  0  0  0  0  0  0  0  0  0  0
  -30.7474  -14.6144   20.7100 C   0  0  0  0  0  0  0  0  0  0  0  0
  -24.4328  -23.5659   29.3370 C   0  0  0  0  0  0  0  0  0  0  0  0
  -28.9807  -25.8261   24.5701 C   0  0  0  0  0  0  0  0  0  0  0  0
  -28.1282  -24.3110   22.1779 C   0  0  0  0  0  0  0  0  0  0  0  0
  -24.1832  -23.5332   27.8314 C   0  0  0  0  0  0  0  0  0  0  0  0
  -29.5294  -12.3758   18.2236 C   0  0  0  0  0  0  0  0  0  0  0  0
  -25.1772  -22.6014   27.1456 C   0  0  0  0  0  0  0  0  0  0  0  0
  -28.0926  -12.0895   18.6661 C   0  0  0  0  0  0  0  0  0  0  0  0
  -35.6546  -20.6213   22.1549 C   0  0  0  0  0  0  0  0  0  0  0  0
  -33.2923  -20.1353   21.4470 C   0  0  0  0  0  0  0  0  0  0  0  0
  -30.4741  -12.5103   19.4166 C   0  0  0  0  0  0  0  0  0  0  0  0
  -28.6131  -13.1893   20.8812 C   0  0  0  0  0  0  0  0  0  0  0  0
  -35.3630  -20.0438   23.5315 C   0  0  0  0  0  0  0  0  0  0  0  0
  -26.6177  -23.0880   27.3452 C   0  0  1  0  0  0  0  0  0  0  0  0
  -32.9825  -19.5255   22.8294 C   0  0  2  0  0  0  0  0  0  0  0  0
  -27.5528  -25.3130   24.4112 C   0  0  1  0  0  0  0  0  0  0  0  0
  -27.6125  -13.1100   19.7166 C   0  0  2  0  0  0  0  0  0  0  0  0
  -34.4093  -21.1995   21.4581 C   0  0  2  0  0  0  0  0  0  0  0  0
  -30.0063  -19.4502   24.2644 C   0  0  0  0  0  0  0  0  0  0  0  0
  -34.7714  -21.5629   20.0051 C   0  0  0  0  0  0  0  0  0  0  0  0
  -24.8287  -27.5528   17.5144 C   0  0  0  0  0  0  0  0  0  0  0  0
  -24.4865  -22.7626   22.0759 C   0  0  0  0  0  0  0  0  0  0  0  0
  -23.9468  -23.5698   19.7682 C   0  0  0  0  0  0  0  0  0  0  0  0
  -23.0509  -24.7850   21.7540 C   0  0  0  0  0  0  0  0  0  0  0  0
  -34.0811  -18.3389   24.7862 C   0  0  0  0  0  0  0  0  0  0  0  0
  -27.9669  -28.8341   19.2423 C   0  0  0  0  0  0  0  0  0  0  0  0
  -33.9334  -22.4857   22.1603 C   0  0  0  0  0  0  0  0  0  1  0  0
  -25.5106  -24.9638   21.1974 C   0  0  1  0  0  0  0  0  0  0  0  0
  -25.7645  -27.7942   18.6886 C   0  0  2  0  0  0  0  0  0  0  0  0
  -24.2757  -24.0192   21.2079 C   0  0  0  0  0  0  0  0  0  0  0  0
  -25.8020  -11.5239   20.2532 N   0  0  0  0  0  0  0  0  0  0  0  0
  -26.2055  -12.8045   20.1953 N   0  0  0  0  0  0  0  0  0  0  0  0
  -27.1889  -25.0785   23.0123 N   0  0  0  0  0  0  0  0  0  0  0  0
  -29.9571  -13.4969   20.3675 N   0  0  0  0  0  0  0  0  0  0  0  0
  -25.4955  -15.0285   20.5957 N   0  0  0  0  0  0  0  0  0  0  0  0
  -21.9123  -13.7874   20.4736 N   0  0  0  0  0  0  0  0  0  0  0  0
  -30.1384  -15.5011   21.5975 N   0  0  0  0  0  0  0  0  0  0  0  0
  -26.9050  -24.1941   26.4572 N   0  0  0  0  0  0  0  0  0  0  0  0
  -25.3294  -26.1754   20.4051 N   0  0  0  0  0  0  0  0  0  0  0  0
  -34.2841  -18.9870   23.4359 N   0  3  2  0  0  0  0  0  0  0  0  0
  -26.9711  -28.5116   18.1882 N   0  3  0  0  0  0  0  0  0  0  0  0
  -22.6825  -13.6594   22.6297 O   0  0  0  0  0  0  0  0  0  0  0  0
  -27.4849  -22.9582   24.5708 O   0  0  0  0  0  0  0  0  0  0  0  0
  -25.0886  -26.0607   23.2577 O   0  0  0  0  0  0  0  0  0  0  0  0
  -27.1193  -25.8145   18.9756 O   0  0  0  0  0  0  0  0  0  0  0  0
  -31.8702  -14.7872   20.2289 O   0  0  0  0  0  0  0  0  0  0  0  0
  -29.9140  -17.4260   22.9757 O   0  0  0  0  0  0  0  0  0  0  0  0
  -21.4793   -7.0124   21.4831 O   0  0  0  0  0  0  0  0  0  0  0  0
  -32.7871  -22.9913   21.4771 O   0  0  0  0  0  0  0  0  0  1  0  0
  -22.6171   -3.8861   25.8803 F   0  0  0  0  0  0  0  0  0  0  0  0
  -19.5647   -6.5388   23.4202 F   0  0  0  0  0  0  0  0  0  0  0  0
  1  2  1  0  0  0  0
  1  5  2  0  0  0  0
  2  6  2  0  0  0  0
  3  8  2  0  0  0  0
  3 16  1  0  0  0  0
  4  9  1  0  0  0  0
  4 16  2  0  0  0  0
  5 18  1  0  0  0  0
  6 20  1  0  0  0  0
  7 10  2  0  0  0  0
  7 19  1  0  0  0  0
  8 23  1  0  0  0  0
  9 23  2  0  0  0  0
 10 24  1  0  0  0  0
 11 12  2  0  0  0  0
 11 25  1  0  0  0  0
 12 26  1  0  0  0  0
 13 21  1  0  0  0  0
 13 24  2  0  0  0  0
 14 22  1  0  0  0  0
 14 31  2  0  0  0  0
 15 26  2  0  0  0  0
 15 27  1  0  0  0  0
 16 28  1  0  0  0  0
 17 28  1  0  0  0  0
 17 30  2  0  0  0  0
 17 32  1  0  0  0  0
 18 20  2  0  0  0  0
 18 37  1  0  0  0  0
 19 21  2  0  0  0  0
 19 38  1  0  0  0  0
 20 49  1  0  0  0  0
 21 39  1  0  0  0  0
 22 29  2  0  0  0  0
 22 50  1  0  0  0  0
 23 83  1  0  0  0  0
 24 84  1  0  0  0  0
 25 27  2  0  0  0  0
 25 83  1  0  0  0  0
 26 85  1  0  0  0  0
 27 86  1  0  0  0  0
 28 66  2  0  0  0  0
 29 54  1  0  0  0  0
 29 82  1  0  0  0  0
 30 67  1  0  0  0  0
 30 70  1  0  0  0  0
 31 72  1  0  0  0  0
 31 82  1  0  0  0  0
 32 71  1  0  0  0  0
 32 77  2  0  0  0  0
 33 51  1  0  0  0  0
 33 73  1  0  0  0  0
 33 78  2  0  0  0  0
 34 63  1  0  0  0  0
 34 68  1  0  0  0  0
 34 79  2  0  0  0  0
 35 64  1  0  0  0  0
 35 74  1  0  0  0  0
 35 80  2  0  0  0  0
 36 69  1  0  0  0  0
 36 72  1  0  0  0  0
 36 81  2  0  0  0  0
 37 40  1  0  0  0  0
 38 51  1  0  0  0  0
 39 68  1  0  0  0  0
 40 42  1  0  0  0  0
 41 43  1  0  0  0  0
 41 46  1  0  0  0  0
 42 49  1  0  0  0  0
 43 52  1  0  0  0  0
 44 48  1  0  0  0  0
 44 53  1  0  0  0  0
 45 50  1  0  0  0  0
 45 53  1  0  0  0  0
 46 69  1  0  0  0  0
 47 52  1  0  0  0  0
 47 69  1  0  0  0  0
 48 75  1  0  0  0  0
 49 73  1  0  0  0  0
 50 75  1  0  0  0  0
 51 68  1  0  0  0  0
 52 67  1  0  0  0  0
 53 55  1  0  0  0  0
 53 62  1  0  0  0  0
 56 64  1  0  0  0  0
 57 65  1  0  0  0  0
 58 65  1  0  0  0  0
 59 65  1  0  0  0  0
 60 75  1  0  0  0  0
 61 76  1  0  0  0  0
 62 84  1  0  0  0  0
 63 65  1  0  0  0  0
 63 74  1  0  0  0  0
 64 76  1  0  0  0  0
 66 67  1  0  0  0  0
M  CHG  2  75   1  76   1
M  ISO  4  36 100  62 101  72 100  84 101
M  END
> <Batch ID>
0142

> <Smiles>
CNC(C)C(=O)NC(C(=O)N1Cc2cc([101O:1][101CH2:1]C3(C)CCN(C)C(c4cc([100NH:0][100C:0](=O)N5CCCC(n6nc(-c7ccc(Oc8ccc(F)cc8F)cc7)c(C(N)=O)c6N)C5)oc4C)C3)ccc2CC1C(=O)NC1CCCc2ccccc21)C(C)(C)C

> <Shape>
0.195

> <Color>
0.170

> <Negative vol penalty>
0.000

$$$$

  -OEChem-04052302573D

 85 94  0     1  0  0  0  0  0999 V2000
  -17.4833  -26.2514   22.6642 C   0  0  0  0  0  0  0  0  0  0  0  0
  -18.7406  -25.8927   22.1889 C   0  0  0  0  0  0  0  0  0  0  0  0
  -26.5495  -10.7950   21.3256 C   0  0  0  0  0  0  0  0  0  0  0  0
  -25.6635  -11.8517   19.3418 C   0  0  0  0  0  0  0  0  0  0  0  0
  -17.1155  -27.5954   22.7139 C   0  0  0  0  0  0  0  0  0  0  0  0
  -19.6305  -26.8777   21.7620 C   0  0  0  0  0  0  0  0  0  0  0  0
  -25.7285  -26.8241   22.3253 C   0  0  0  0  0  0  0  0  0  0  0  0
  -27.8747  -20.1473   16.0900 C   0  0  0  0  0  0  0  0  0  0  0  0
  -28.0507  -21.4277   16.6145 C   0  0  0  0  0  0  0  0  0  0  0  0
  -25.2734  -10.3348   21.6504 C   0  0  0  0  0  0  0  0  0  0  0  0
  -24.3874  -11.3915   19.6666 C   0  0  0  0  0  0  0  0  0  0  0  0
  -26.7496  -26.4892   21.4371 C   0  0  0  0  0  0  0  0  0  0  0  0
  -22.3109   -8.5771   22.8119 C   0  0  0  0  0  0  0  0  0  0  0  0
  -22.1856   -7.2511   23.2263 C   0  0  0  0  0  0  0  0  0  0  0  0
  -27.0051  -28.8180   20.8622 C   0  0  0  0  0  0  0  0  0  0  0  0
  -29.3871  -20.5101   18.4060 C   0  0  0  0  0  0  0  0  0  0  0  0
  -23.0840   -6.5052   21.1112 C   0  0  0  0  0  0  0  0  0  0  0  0
  -26.7445  -11.5535   20.1714 C   0  0  0  0  0  0  0  0  0  0  0  0
  -29.0301  -11.3718   19.0529 C   0  0  0  0  0  0  0  0  0  0  0  0
  -18.0050  -28.5980   22.2965 C   0  0  0  0  0  0  0  0  0  0  0  0
  -25.3300  -28.1595   22.4808 C   0  0  0  0  0  0  0  0  0  0  0  0
  -19.2738  -28.2362   21.8050 C   0  0  0  0  0  0  0  0  0  0  0  0
  -25.9804  -29.1675   21.7549 C   0  0  0  0  0  0  0  0  0  0  0  0
  -28.4549  -19.0482   16.7235 C   0  0  0  0  0  0  0  0  0  0  0  0
  -28.8069  -21.6091   17.7725 C   0  0  0  0  0  0  0  0  0  0  0  0
  -29.2111  -19.2297   17.8815 C   0  0  0  0  0  0  0  0  0  0  0  0
  -24.1924  -10.6331   20.8209 C   0  0  0  0  0  0  0  0  0  0  0  0
  -27.3861  -27.4859   20.7032 C   0  0  0  0  0  0  0  0  0  0  0  0
  -22.8226   -8.8671   21.5471 C   0  0  0  0  0  0  0  0  0  0  0  0
  -22.5722   -6.2152   22.3760 C   0  0  0  0  0  0  0  0  0  0  0  0
  -23.2092   -7.8312   20.6968 C   0  0  0  0  0  0  0  0  0  0  0  0
  -28.0624  -12.0296   19.8356 C   0  0  0  0  0  0  0  0  0  0  0  0
  -30.0995  -12.2334   19.0333 C   0  0  0  0  0  0  0  0  0  0  0  0
  -28.7357  -25.1486   18.6883 C   0  0  0  0  0  0  0  0  0  0  0  0
  -28.9678  -10.0960   18.4016 C   0  0  0  0  0  0  0  0  0  0  0  0
  -28.0881  -26.3127   18.8054 C   0  0  0  0  0  0  0  0  0  1  0  0
  -22.6318  -29.7667   21.9907 C   0  0  0  0  0  0  0  0  0  0  0  0
  -24.2862  -32.1953   23.3643 C   0  0  0  0  0  0  0  0  0  0  0  0
  -27.3150  -33.5809   24.1084 C   0  0  0  0  0  0  0  0  0  0  0  0
  -30.5857  -18.1519   19.6967 C   0  0  0  0  0  0  0  0  0  0  0  0
  -17.5451  -30.0341   22.3247 C   0  0  0  0  0  0  0  0  0  0  0  0
  -24.2450  -28.5073   23.4628 C   0  0  0  0  0  0  0  0  0  0  0  0
  -25.6038  -30.6185   21.9004 C   0  0  0  0  0  0  0  0  0  0  0  0
  -29.8151  -24.6684   19.6060 C   0  0  0  0  0  0  0  0  0  0  0  0
  -28.4081  -24.0789   17.6903 C   0  0  0  0  0  0  0  0  0  0  0  0
  -18.6857  -31.0414   22.2047 C   0  0  0  0  0  0  0  0  0  0  0  0
  -32.2036  -15.6505   21.6468 C   0  0  0  0  0  0  0  0  0  0  0  0
  -19.6344  -30.6421   21.0789 C   0  0  0  0  0  0  0  0  0  0  0  0
  -31.4171  -14.3771   21.3277 C   0  0  0  0  0  0  0  0  0  0  0  0
  -29.6491  -23.1520   19.5614 C   0  0  0  0  0  0  0  0  0  0  0  0
  -31.2955  -16.8775   21.7084 C   0  0  0  0  0  0  0  0  0  0  0  0
  -29.6596  -15.8077   20.2089 C   0  0  0  0  0  0  0  0  0  0  0  0
  -20.2762  -29.2773   21.3562 C   0  0  1  0  0  0  0  0  0  0  0  0
  -23.5712  -29.8423   23.1609 C   0  0  1  0  0  0  0  0  0  0  0  0
  -30.5410  -14.5554   20.0722 C   0  0  2  0  0  0  0  0  0  0  0  0
  -28.2495  -17.6883   16.1393 C   0  0  0  0  0  0  0  0  0  0  0  0
  -27.0264  -26.7683   17.8569 C   0  0  0  0  0  0  0  0  0  0  0  0
  -28.3469  -35.5884   25.2049 C   0  0  0  0  0  0  0  0  0  0  0  0
  -23.5928  -33.8841   20.9195 C   0  0  0  0  0  0  0  0  0  0  0  0
  -25.3898  -35.4874   21.6040 C   0  0  0  0  0  0  0  0  0  0  0  0
  -23.4345  -35.0943   23.1024 C   0  0  0  0  0  0  0  0  0  0  0  0
  -28.6848  -31.9145   26.1347 C   0  0  0  0  0  0  0  0  0  0  0  0
  -25.1914  -33.2926   22.8588 C   0  0  1  0  0  0  0  0  0  0  0  0
  -27.8692  -34.1577   25.3986 C   0  0  2  0  0  0  0  0  0  0  0  0
  -24.4081  -34.4122   22.1168 C   0  0  0  0  0  0  0  0  0  0  0  0
  -28.4801  -13.2174   20.2812 N   0  0  0  0  0  0  0  0  0  0  0  0
  -29.7222  -13.3128   19.7769 N   0  0  0  0  0  0  0  0  0  0  0  0
  -28.9809  -22.8771   18.2916 N   0  0  3  0  0  0  0  0  0  0  0  0
  -24.5327  -30.9073   22.8684 N   0  0  0  0  0  0  0  0  0  0  0  0
  -30.4992  -16.9842   20.4840 N   0  0  0  0  0  0  0  0  0  0  0  0
  -31.3164  -12.1656   18.4528 N   0  0  0  0  0  0  0  0  0  0  0  0
  -27.7940   -9.3399   18.5240 N   0  0  0  0  0  0  0  0  0  0  0  0
  -29.8083  -18.1259   18.5393 N   0  0  0  0  0  0  0  0  0  0  0  0
  -21.3407  -29.4076   22.3279 N   0  0  0  0  0  0  0  0  0  0  0  0
  -25.9511  -33.7596   24.0134 N   0  0  0  0  0  0  0  0  0  0  0  0
  -29.0181  -33.3397   25.8802 N   0  3  0  0  0  0  0  0  0  0  0  0
  -29.9308   -9.6327   17.7447 O   0  0  0  0  0  0  0  0  0  0  0  0
  -23.0471  -30.0173   20.8653 O   0  0  0  0  0  0  0  0  0  0  0  0
  -23.3979  -32.4697   24.1750 O   0  0  0  0  0  0  0  0  0  0  0  0
  -28.0219  -33.0304   23.2671 O   0  0  0  0  0  0  0  0  0  0  0  0
  -31.3180  -19.0937   20.0111 O   0  0  0  0  0  0  0  0  0  0  0  0
  -22.9471  -10.1840   21.1374 O   0  0  0  0  0  0  0  0  0  0  0  0
  -28.3827  -27.1616   19.8351 O   0  0  0  0  0  0  0  0  0  1  0  0
  -22.4533   -4.9420   22.7747 F   0  0  0  0  0  0  0  0  0  0  0  0
  -23.7026   -8.1036   19.4810 F   0  0  0  0  0  0  0  0  0  0  0  0
  1  2  1  0  0  0  0
  1  5  2  0  0  0  0
  2  6  2  0  0  0  0
  3 10  2  0  0  0  0
  3 18  1  0  0  0  0
  4 11  1  0  0  0  0
  4 18  2  0  0  0  0
  5 20  1  0  0  0  0
  6 22  1  0  0  0  0
  7 12  2  0  0  0  0
  7 21  1  0  0  0  0
  8  9  2  0  0  0  0
  8 24  1  0  0  0  0
  9 25  1  0  0  0  0
 10 27  1  0  0  0  0
 11 27  2  0  0  0  0
 12 28  1  0  0  0  0
 13 14  2  0  0  0  0
 13 29  1  0  0  0  0
 14 30  1  0  0  0  0
 15 23  1  0  0  0  0
 15 28  2  0  0  0  0
 16 25  2  0  0  0  0
 16 26  1  0  0  0  0
 17 30  2  0  0  0  0
 17 31  1  0  0  0  0
 18 32  1  0  0  0  0
 19 32  1  0  0  0  0
 19 33  2  0  0  0  0
 19 35  1  0  0  0  0
 20 22  2  0  0  0  0
 20 41  1  0  0  0  0
 21 23  2  0  0  0  0
 21 42  1  0  0  0  0
 22 53  1  0  0  0  0
 23 43  1  0  0  0  0
 24 26  2  0  0  0  0
 24 56  1  0  0  0  0
 25 68  1  0  0  0  0
 26 73  1  0  0  0  0
 27 82  1  0  0  0  0
 28 83  1  0  0  0  0
 29 31  2  0  0  0  0
 29 82  1  0  0  0  0
 30 84  1  0  0  0  0
 31 85  1  0  0  0  0
 32 66  2  0  0  0  0
 33 67  1  0  0  0  0
 33 71  1  0  0  0  0
 34 36  2  0  0  0  0
 34 44  1  0  0  0  0
 34 45  1  0  0  0  0
 35 72  1  0  0  0  0
 35 77  2  0  0  0  0
 36 57  1  0  0  0  0
 36 83  1  0  0  0  0
 37 54  1  0  0  0  0
 37 74  1  0  0  0  0
 37 78  2  0  0  0  0
 38 63  1  0  0  0  0
 38 69  1  0  0  0  0
 38 79  2  0  0  0  0
 39 64  1  0  0  0  0
 39 75  1  0  0  0  0
 39 80  2  0  0  0  0
 40 70  1  0  0  0  0
 40 73  1  0  0  0  0
 40 81  2  0  0  0  0
 41 46  1  0  0  0  0
 42 54  1  0  0  0  0
 43 69  1  0  0  0  0
 44 50  1  0  0  0  0
 45 68  1  0  0  0  0
 46 48  1  0  0  0  0
 47 49  1  0  0  0  0
 47 51  1  0  0  0  0
 48 53  1  0  0  0  0
 49 55  1  0  0  0  0
 50 68  1  0  0  0  0
 51 70  1  0  0  0  0
 52 55  1  0  0  0  0
 52 70  1  0  0  0  0
 53 74  1  0  0  0  0
 54 69  1  0  0  0  0
 55 67  1  0  0  0  0
 58 64  1  0  0  0  0
 59 65  1  0  0  0  0
 60 65  1  0  0  0  0
 61 65  1  0  0  0  0
 62 76  1  0  0  0  0
 63 65  1  0  0  0  0
 63 75  1  0  0  0  0
 64 76  1  0  0  0  0
 66 67  1  0  0  0  0
M  CHG  1  76   1
M  ISO  4  36 101  40 100  73 100  83 101
M  END
> <Batch ID>
0142

> <Smiles>
CNC(C)C(=O)NC(C(=O)N1Cc2cc([101O:1][101C:1](C)=C3CCN(c4ccc(C)c([100NH:0][100C:0](=O)N5CCCC(n6nc(-c7ccc(Oc8ccc(F)cc8F)cc7)c(C(N)=O)c6N)C5)c4)C3)ccc2CC1C(=O)NC1CCCc2ccccc21)C(C)(C)C

> <Shape>
0.352

> <Color>
0.098

> <Negative vol penalty>
0.000

$$$$

  -OEChem-04052302573D

 89 98  0     1  0  0  0  0  0999 V2000
  -22.9509  -31.1883   24.2093 C   0  0  0  0  0  0  0  0  0  0  0  0
  -23.7322  -30.0924   24.5616 C   0  0  0  0  0  0  0  0  0  0  0  0
  -22.7424   -9.9381   20.0943 C   0  0  0  0  0  0  0  0  0  0  0  0
  -24.3392   -9.3227   21.7997 C   0  0  0  0  0  0  0  0  0  0  0  0
  -23.1140  -31.7866   22.9606 C   0  0  0  0  0  0  0  0  0  0  0  0
  -24.6763  -29.5935   23.6648 C   0  0  0  0  0  0  0  0  0  0  0  0
  -30.0581  -18.3941   24.1657 C   0  0  0  0  0  0  0  0  0  0  0  0
  -32.2943  -17.6592   23.6213 C   0  0  0  0  0  0  0  0  0  0  0  0
  -30.1203  -27.1451   25.0336 C   0  0  0  0  0  0  0  0  0  0  0  0
  -29.5361  -17.4936   23.2370 C   0  0  0  0  0  0  0  0  0  0  0  0
  -31.7723  -16.7587   22.6927 C   0  0  0  0  0  0  0  0  0  0  0  0
  -22.0498   -8.7472   20.3130 C   0  0  0  0  0  0  0  0  0  0  0  0
  -23.6466   -8.1319   22.0185 C   0  0  0  0  0  0  0  0  0  0  0  0
  -30.5514  -25.8247   25.1538 C   0  0  0  0  0  0  0  0  0  0  0  0
  -20.8545   -7.1385   23.6428 C   0  0  0  0  0  0  0  0  0  0  0  0
  -20.6185   -6.7613   24.9648 C   0  0  0  0  0  0  0  0  0  0  0  0
  -31.3546  -25.8864   22.8800 C   0  0  0  0  0  0  0  0  0  0  0  0
  -21.8577   -4.7190   24.6032 C   0  0  0  0  0  0  0  0  0  0  0  0
  -23.8871  -10.2258   20.8376 C   0  0  0  0  0  0  0  0  0  0  0  0
  -24.1084  -12.7658   20.7533 C   0  0  0  0  0  0  0  0  0  0  0  0
  -31.4372  -18.4769   24.3578 C   0  0  0  0  0  0  0  0  0  0  0  0
  -24.0673  -31.3008   22.0518 C   0  0  0  0  0  0  0  0  0  0  0  0
  -30.2936  -27.8437   23.8302 C   0  0  0  0  0  0  0  0  0  0  0  0
  -24.8513  -30.1851   22.4022 C   0  0  0  0  0  0  0  0  0  0  0  0
  -30.9272  -27.2164   22.7479 C   0  0  0  0  0  0  0  0  0  0  0  0
  -30.3932  -16.6759   22.5006 C   0  0  0  0  0  0  0  0  0  0  0  0
  -22.5019   -7.8441   21.2751 C   0  0  0  0  0  0  0  0  0  0  0  0
  -31.1661  -25.1942   24.0760 C   0  0  0  0  0  0  0  0  0  0  0  0
  -21.5920   -6.3059   22.8010 C   0  0  0  0  0  0  0  0  0  0  0  0
  -21.1201   -5.5515   25.4450 C   0  0  0  0  0  0  0  0  0  0  0  0
  -22.0936   -5.0962   23.2812 C   0  0  0  0  0  0  0  0  0  0  0  0
  -24.6033  -11.4555   20.6117 C   0  0  0  0  0  0  0  0  0  0  0  0
  -25.1712  -13.5715   20.4251 C   0  0  0  0  0  0  0  0  0  0  0  0
  -31.8502  -21.8483   25.3797 C   0  0  0  0  0  0  0  0  0  0  0  0
  -31.1461  -20.7156   25.5499 C   0  0  0  0  0  0  0  0  0  0  0  0
  -22.8047  -13.2145   21.1465 C   0  0  0  0  0  0  0  0  0  0  0  0
  -28.3376  -29.1765   21.7085 C   0  0  0  0  0  0  0  0  0  0  0  0
  -31.1109  -30.2226   20.3906 C   0  0  0  0  0  0  0  0  0  0  0  0
  -34.4735  -29.7942   19.9956 C   0  0  0  0  0  0  0  0  0  0  0  0
  -30.5743  -14.8782   20.7451 C   0  0  0  0  0  0  0  0  0  0  0  0
  -24.1744  -31.9512   20.6952 C   0  0  0  0  0  0  0  0  0  0  0  0
  -29.8471  -29.2762   23.7253 C   0  0  0  0  0  0  0  0  0  0  0  0
  -31.1552  -27.9290   21.4408 C   0  0  0  0  0  0  0  0  0  0  0  0
  -25.4573  -31.5947   19.9485 C   0  0  0  0  0  0  0  0  0  0  0  0
  -29.6358  -12.4418   18.3243 C   0  0  0  0  0  0  0  0  0  0  0  0
  -25.7147  -30.0927   20.0164 C   0  0  0  0  0  0  0  0  0  0  0  0
  -28.2021  -12.0758   18.7152 C   0  0  0  0  0  0  0  0  0  0  0  0
  -33.3490  -20.0633   24.8487 C   0  0  0  0  0  0  0  0  0  0  0  0
  -30.5096  -12.7002   19.5504 C   0  0  0  0  0  0  0  0  0  0  0  0
  -28.5371  -13.3150   20.8922 C   0  0  0  0  0  0  0  0  0  0  0  0
  -25.9032  -29.6303   21.4663 C   0  0  1  0  0  0  0  0  0  0  0  0
  -33.3005  -21.5817   25.0806 C   0  0  2  0  0  0  0  0  0  0  0  0
  -29.6116  -29.7248   22.2863 C   0  0  1  0  0  0  0  0  0  0  0  0
  -27.6023  -13.1090   19.6891 C   0  0  2  0  0  0  0  0  0  0  0  0
  -32.0123  -19.4691   25.3810 C   0  0  2  0  0  0  0  0  0  0  0  0
  -29.6968  -20.5926   25.9027 C   0  0  0  0  0  0  0  0  0  0  0  0
  -34.2323  -22.0247   26.2048 C   0  0  0  0  0  0  0  0  0  0  0  0
  -36.4623  -30.7863   18.8302 C   0  0  0  0  0  0  0  0  0  0  0  0
  -31.8544  -17.3785   26.7815 C   0  0  0  0  0  0  0  0  0  0  0  0
  -31.4260  -19.6160   27.8286 C   0  0  0  0  0  0  0  0  0  0  0  0
  -33.7510  -18.9790   27.1396 C   0  0  0  0  0  0  0  0  0  0  0  0
  -30.1758  -28.9976   17.7571 C   0  0  0  0  0  0  0  0  0  0  0  0
  -32.5301  -29.1677   16.9225 C   0  0  0  0  0  0  0  0  0  0  0  0
  -31.2738  -31.2336   17.5358 C   0  0  0  0  0  0  0  0  0  0  0  0
  -35.8417  -30.3554   22.5592 C   0  0  0  0  0  0  0  0  0  0  0  0
  -31.3675  -23.2589   25.4436 C   0  0  0  0  0  0  0  0  0  1  0  0
  -32.0771  -29.6828   19.3639 C   0  0  1  0  0  0  0  0  0  0  0  0
  -35.6327  -30.7683   20.1047 C   0  0  2  0  0  0  0  0  0  0  0  0
  -32.2605  -18.8616   26.7804 C   0  0  0  0  0  0  0  0  0  0  0  0
  -31.5083  -29.7561   17.9187 C   0  0  0  0  0  0  0  0  0  0  0  0
  -25.8810  -11.4260   20.2236 N   0  0  0  0  0  0  0  0  0  0  0  0
  -26.1979  -12.7277   20.1184 N   0  0  0  0  0  0  0  0  0  0  0  0
  -30.6952  -29.3265   21.3856 N   0  0  0  0  0  0  0  0  0  0  0  0
  -29.8802  -13.6922   20.4249 N   0  0  0  0  0  0  0  0  0  0  0  0
  -25.3183  -14.9124   20.3716 N   0  0  0  0  0  0  0  0  0  0  0  0
  -22.5553  -13.4314   22.5085 N   0  0  0  0  0  0  0  0  0  0  0  0
  -29.8632  -15.7609   21.5574 N   0  0  0  0  0  0  0  0  0  0  0  0
  -27.2292  -29.9695   21.9366 N   0  0  0  0  0  0  0  0  0  0  0  0
  -33.3247  -30.4150   19.5528 N   0  0  0  0  0  0  0  0  0  0  0  0
  -36.5222  -30.3900   21.2390 N   0  3  0  0  0  0  0  0  0  0  0  0
  -21.8831  -13.4012   20.3162 O   0  0  0  0  0  0  0  0  0  0  0  0
  -28.3589  -28.1133   21.0994 O   0  0  0  0  0  0  0  0  0  0  0  0
  -30.7442  -31.3981   20.3167 O   0  0  0  0  0  0  0  0  0  0  0  0
  -34.5778  -28.6012   20.2717 O   0  0  0  0  0  0  0  0  0  0  0  0
  -31.7047  -15.1069   20.3072 O   0  0  0  0  0  0  0  0  0  0  0  0
  -21.8262   -6.6821   21.4890 O   0  0  0  0  0  0  0  0  0  0  0  0
  -31.5873  -23.9052   24.1904 O   0  0  0  0  0  0  0  0  0  1  0  0
  -20.8947   -5.1902   26.7150 F   0  0  0  0  0  0  0  0  0  0  0  0
  -22.8038   -4.2927   22.4776 F   0  0  0  0  0  0  0  0  0  0  0  0
  1  2  1  0  0  0  0
  1  5  2  0  0  0  0
  2  6  2  0  0  0  0
  3 12  2  0  0  0  0
  3 19  1  0  0  0  0
  4 13  1  0  0  0  0
  4 19  2  0  0  0  0
  5 22  1  0  0  0  0
  6 24  1  0  0  0  0
  7 10  2  0  0  0  0
  7 21  1  0  0  0  0
  8 11  1  0  0  0  0
  8 21  2  0  0  0  0
  9 14  2  0  0  0  0
  9 23  1  0  0  0  0
 10 26  1  0  0  0  0
 11 26  2  0  0  0  0
 12 27  1  0  0  0  0
 13 27  2  0  0  0  0
 14 28  1  0  0  0  0
 15 16  2  0  0  0  0
 15 29  1  0  0  0  0
 16 30  1  0  0  0  0
 17 25  1  0  0  0  0
 17 28  2  0  0  0  0
 18 30  2  0  0  0  0
 18 31  1  0  0  0  0
 19 32  1  0  0  0  0
 20 32  1  0  0  0  0
 20 33  2  0  0  0  0
 20 36  1  0  0  0  0
 21 55  1  0  0  0  0
 22 24  2  0  0  0  0
 22 41  1  0  0  0  0
 23 25  2  0  0  0  0
 23 42  1  0  0  0  0
 24 51  1  0  0  0  0
 25 43  1  0  0  0  0
 26 77  1  0  0  0  0
 27 86  1  0  0  0  0
 28 87  1  0  0  0  0
 29 31  2  0  0  0  0
 29 86  1  0  0  0  0
 30 88  1  0  0  0  0
 31 89  1  0  0  0  0
 32 71  2  0  0  0  0
 33 72  1  0  0  0  0
 33 75  1  0  0  0  0
 34 35  2  0  0  0  0
 34 52  1  0  0  0  0
 34 66  1  0  0  0  0
 35 55  1  0  0  0  0
 35 56  1  0  0  0  0
 36 76  1  0  0  0  0
 36 81  2  0  0  0  0
 37 53  1  0  0  0  0
 37 78  1  0  0  0  0
 37 82  2  0  0  0  0
 38 67  1  0  0  0  0
 38 73  1  0  0  0  0
 38 83  2  0  0  0  0
 39 68  1  0  0  0  0
 39 79  1  0  0  0  0
 39 84  2  0  0  0  0
 40 74  1  0  0  0  0
 40 77  1  0  0  0  0
 40 85  2  0  0  0  0
 41 44  1  0  0  0  0
 42 53  1  0  0  0  0
 43 73  1  0  0  0  0
 44 46  1  0  0  0  0
 45 47  1  0  0  0  0
 45 49  1  0  0  0  0
 46 51  1  0  0  0  0
 47 54  1  0  0  0  0
 48 52  1  0  0  0  0
 48 55  1  0  0  0  0
 49 74  1  0  0  0  0
 50 54  1  0  0  0  0
 50 74  1  0  0  0  0
 51 78  1  0  0  0  0
 52 57  1  0  0  0  0
 53 73  1  0  0  0  0
 54 72  1  0  0  0  0
 55 69  1  0  0  0  0
 58 68  1  0  0  0  0
 59 69  1  0  0  0  0
 60 69  1  0  0  0  0
 61 69  1  0  0  0  0
 62 70  1  0  0  0  0
 63 70  1  0  0  0  0
 64 70  1  0  0  0  0
 65 80  1  0  0  0  0
 66 87  1  0  0  0  0
 67 70  1  0  0  0  0
 67 79  1  0  0  0  0
 68 80  1  0  0  0  0
 71 72  1  0  0  0  0
M  CHG  1  80   1
M  ISO  4  40 100  66 101  77 100  87 101
M  END
> <Batch ID>
0142

> <Smiles>
CNC(C)C(=O)NC(C(=O)N1Cc2cc([101O:1][101CH2:1]C3=C(C)C(c4ccc([100NH:0][100C:0](=O)N5CCCC(n6nc(-c7ccc(Oc8ccc(F)cc8F)cc7)c(C(N)=O)c6N)C5)cc4)(C(C)(C)C)CC3C)ccc2CC1C(=O)NC1CCCc2ccccc21)C(C)(C)C

> <Shape>
0.248

> <Color>
0.187

> <Negative vol penalty>
0.000

$$$$

  -OEChem-04052302573D

 85 94  0     1  0  0  0  0  0999 V2000
  -28.5762  -24.7437   17.2069 C   0  0  0  0  0  0  0  0  0  0  0  0
  -27.4203  -24.8646   17.9714 C   0  0  0  0  0  0  0  0  0  0  0  0
  -24.2298  -12.8378   22.4691 C   0  0  0  0  0  0  0  0  0  0  0  0
  -25.6159  -11.6519   20.8850 C   0  0  0  0  0  0  0  0  0  0  0  0
  -29.7359  -25.4179   17.5872 C   0  0  0  0  0  0  0  0  0  0  0  0
  -27.4236  -25.6591   19.1174 C   0  0  0  0  0  0  0  0  0  0  0  0
  -24.2190  -21.9791   21.8658 C   0  0  0  0  0  0  0  0  0  0  0  0
  -23.3191  -28.6065   19.4501 C   0  0  0  0  0  0  0  0  0  0  0  0
  -23.4949  -23.0038   22.4789 C   0  0  0  0  0  0  0  0  0  0  0  0
  -23.6132  -11.6390   22.8271 C   0  0  0  0  0  0  0  0  0  0  0  0
  -24.9994  -10.4530   21.2431 C   0  0  0  0  0  0  0  0  0  0  0  0
  -22.1366  -28.0053   19.8790 C   0  0  0  0  0  0  0  0  0  0  0  0
  -22.0960   -8.8507   20.5842 C   0  0  0  0  0  0  0  0  0  0  0  0
  -21.7069   -7.9902   19.5577 C   0  0  0  0  0  0  0  0  0  0  0  0
  -21.5827  -22.5824   21.0328 C   0  0  0  0  0  0  0  0  0  0  0  0
  -22.4971  -28.8904   22.0939 C   0  0  0  0  0  0  0  0  0  0  0  0
  -23.1495   -6.2709   20.4520 C   0  0  0  0  0  0  0  0  0  0  0  0
  -25.2311  -12.8443   21.4980 C   0  0  0  0  0  0  0  0  0  0  0  0
  -27.0175  -14.6535   21.7053 C   0  0  0  0  0  0  0  0  0  0  0  0
  -29.7507  -26.2286   18.7331 C   0  0  0  0  0  0  0  0  0  0  0  0
  -24.1064  -29.3463   20.3441 C   0  0  0  0  0  0  0  0  0  0  0  0
  -23.6124  -21.2732   20.8419 C   0  0  0  0  0  0  0  0  0  0  0  0
  -28.5849  -26.3436   19.5142 C   0  0  0  0  0  0  0  0  0  0  0  0
  -22.3096  -21.5710   20.4304 C   0  0  0  0  0  0  0  0  0  0  0  0
  -23.6878  -29.5021   21.6732 C   0  0  0  0  0  0  0  0  0  0  0  0
  -22.1862  -23.3028   22.0660 C   0  0  0  0  0  0  0  0  0  0  0  0
  -23.9980  -10.4466   22.2142 C   0  0  0  0  0  0  0  0  0  0  0  0
  -21.7269  -28.1448   21.2018 C   0  0  0  0  0  0  0  0  0  0  0  0
  -23.0120   -8.4213   21.5446 C   0  0  0  0  0  0  0  0  0  0  0  0
  -22.2336   -6.7003   19.4916 C   0  0  0  0  0  0  0  0  0  0  0  0
  -23.5387   -7.1314   21.4785 C   0  0  0  0  0  0  0  0  0  0  0  0
  -25.8679  -14.0825   21.1272 C   0  0  0  0  0  0  0  0  0  0  0  0
  -27.2127  -15.8177   21.0032 C   0  0  0  0  0  0  0  0  0  0  0  0
  -27.8358  -14.1744   22.7807 C   0  0  0  0  0  0  0  0  0  0  0  0
  -27.0662  -29.0840   21.4730 C   0  0  0  0  0  0  0  0  0  0  0  0
  -26.3882  -31.9540   22.8242 C   0  0  0  0  0  0  0  0  0  0  0  0
  -24.0209  -34.1397   23.9492 C   0  0  0  0  0  0  0  0  0  0  0  0
  -23.2331  -19.1523   17.8605 C   0  0  0  0  0  0  0  0  0  0  0  0
  -31.0413  -26.9002   19.1306 C   0  0  0  0  0  0  0  0  0  0  0  0
  -25.3656  -30.0109   19.8591 C   0  0  0  0  0  0  0  0  0  0  0  0
  -24.1587  -20.1299   20.0501 C   0  0  0  0  0  0  0  0  0  0  0  0
  -21.9008  -20.6708   19.3137 C   0  0  0  0  0  0  0  0  0  0  0  0
  -24.4868  -30.3031   22.6675 C   0  0  0  0  0  0  0  0  0  0  0  0
  -30.8560  -28.0204   20.1509 C   0  0  0  0  0  0  0  0  0  0  0  0
  -26.4353  -17.7839   16.7048 C   0  0  0  0  0  0  0  0  0  0  0  0
  -29.9373  -27.5667   21.2808 C   0  0  0  0  0  0  0  0  0  0  0  0
  -26.7275  -16.6977   17.7424 C   0  0  0  0  0  0  0  0  0  0  0  0
  -24.9363  -17.9926   16.4996 C   0  0  0  0  0  0  0  0  0  0  0  0
  -24.4669  -17.1425   18.7631 C   0  0  0  0  0  0  0  0  0  0  0  0
  -28.5420  -27.2157   20.7502 C   0  0  1  0  0  0  0  0  0  0  0  0
  -26.3530  -30.3121   20.9824 C   0  0  1  0  0  0  0  0  0  0  0  0
  -25.9621  -16.9582   19.0541 C   0  0  1  0  0  0  0  0  0  0  0  0
  -23.7734  -36.3879   25.0362 C   0  0  0  0  0  0  0  0  0  0  0  0
  -27.2139  -30.7473   25.5023 C   0  0  0  0  0  0  0  0  0  0  0  0
  -26.0691  -32.6619   26.6389 C   0  0  0  0  0  0  0  0  0  0  0  0
  -28.0052  -33.0895   25.1251 C   0  0  0  0  0  0  0  0  0  0  0  0
  -18.1900  -26.2263   22.6804 C   0  0  0  0  0  0  0  0  0  0  0  0
  -19.5543  -25.5459   24.6613 C   0  0  0  0  0  0  0  0  0  0  0  0
  -22.5056  -35.2156   21.6458 C   0  0  0  0  0  0  0  0  0  0  0  0
  -20.1407  -24.7053   22.3385 C   0  0  0  0  0  0  0  0  0  0  0  0
  -20.5103  -27.1556   22.9900 C   0  0  0  0  0  0  0  0  0  1  0  0
  -25.7835  -32.4036   24.1324 C   0  0  1  0  0  0  0  0  0  0  0  0
  -23.8347  -35.6287   23.7199 C   0  0  2  0  0  0  0  0  0  0  0  0
  -26.7537  -32.2088   25.3317 C   0  0  0  0  0  0  0  0  0  0  0  0
  -19.6191  -25.9056   23.1654 C   0  0  0  0  0  0  0  0  0  0  0  0
  -25.3679  -14.8230   20.1345 N   0  0  0  0  0  0  0  0  0  0  0  0
  -26.2072  -15.8714   20.0833 N   0  0  0  0  0  0  0  0  0  0  0  0
  -25.7137  -30.9284   22.1467 N   0  0  0  0  0  0  0  0  0  0  0  0
  -23.0930  -19.8429   19.0668 N   0  0  0  0  0  0  0  0  0  0  0  0
  -24.2622  -18.2090   17.7787 N   0  0  0  0  0  0  0  0  0  0  0  0
  -28.1446  -16.7907   21.0892 N   0  0  0  0  0  0  0  0  0  0  0  0
  -27.4932  -12.9601   23.3912 N   0  0  0  0  0  0  0  0  0  0  0  0
  -21.4743  -24.3429   22.7028 N   0  0  0  0  0  0  0  0  0  0  0  0
  -27.7809  -28.4198   20.4945 N   0  0  0  0  0  0  0  0  0  0  0  0
  -25.3526  -33.7826   23.9303 N   0  0  0  0  0  0  0  0  0  0  0  0
  -22.5716  -35.8835   22.9712 N   0  3  0  0  0  0  0  0  0  0  0  0
  -28.8314  -14.8125   23.1991 O   0  0  0  0  0  0  0  0  0  0  0  0
  -26.9760  -28.7636   22.6524 O   0  0  0  0  0  0  0  0  0  0  0  0
  -27.4170  -32.4977   22.4150 O   0  0  0  0  0  0  0  0  0  0  0  0
  -23.0794  -33.3708   24.1308 O   0  0  0  0  0  0  0  0  0  0  0  0
  -22.5121  -19.4043   16.8867 O   0  0  0  0  0  0  0  0  0  0  0  0
  -23.3968   -9.2765   22.5635 O   0  0  0  0  0  0  0  0  0  0  0  0
  -20.5653  -27.5543   21.6262 O   0  0  0  0  0  0  0  0  0  1  0  0
  -21.8586   -5.8736   18.5067 F   0  0  0  0  0  0  0  0  0  0  0  0
  -24.4181   -6.7128   22.3989 F   0  0  0  0  0  0  0  0  0  0  0  0
  1  2  1  0  0  0  0
  1  5  2  0  0  0  0
  2  6  2  0  0  0  0
  3 10  2  0  0  0  0
  3 18  1  0  0  0  0
  4 11  1  0  0  0  0
  4 18  2  0  0  0  0
  5 20  1  0  0  0  0
  6 23  1  0  0  0  0
  7  9  2  0  0  0  0
  7 22  1  0  0  0  0
  8 12  2  0  0  0  0
  8 21  1  0  0  0  0
  9 26  1  0  0  0  0
 10 27  1  0  0  0  0
 11 27  2  0  0  0  0
 12 28  1  0  0  0  0
 13 14  2  0  0  0  0
 13 29  1  0  0  0  0
 14 30  1  0  0  0  0
 15 24  1  0  0  0  0
 15 26  2  0  0  0  0
 16 25  1  0  0  0  0
 16 28  2  0  0  0  0
 17 30  2  0  0  0  0
 17 31  1  0  0  0  0
 18 32  1  0  0  0  0
 19 32  1  0  0  0  0
 19 33  2  0  0  0  0
 19 34  1  0  0  0  0
 20 23  2  0  0  0  0
 20 39  1  0  0  0  0
 21 25  2  0  0  0  0
 21 40  1  0  0  0  0
 22 24  2  0  0  0  0
 22 41  1  0  0  0  0
 23 50  1  0  0  0  0
 24 42  1  0  0  0  0
 25 43  1  0  0  0  0
 26 73  1  0  0  0  0
 27 82  1  0  0  0  0
 28 83  1  0  0  0  0
 29 31  2  0  0  0  0
 29 82  1  0  0  0  0
 30 84  1  0  0  0  0
 31 85  1  0  0  0  0
 32 66  2  0  0  0  0
 33 67  1  0  0  0  0
 33 71  1  0  0  0  0
 34 72  1  0  0  0  0
 34 77  2  0  0  0  0
 35 51  1  0  0  0  0
 35 74  1  0  0  0  0
 35 78  2  0  0  0  0
 36 62  1  0  0  0  0
 36 68  1  0  0  0  0
 36 79  2  0  0  0  0
 37 63  1  0  0  0  0
 37 75  1  0  0  0  0
 37 80  2  0  0  0  0
 38 69  1  0  0  0  0
 38 70  1  0  0  0  0
 38 81  2  0  0  0  0
 39 44  1  0  0  0  0
 40 51  1  0  0  0  0
 41 69  1  0  0  0  0
 42 69  1  0  0  0  0
 43 68  1  0  0  0  0
 44 46  1  0  0  0  0
 45 47  1  0  0  0  0
 45 48  1  0  0  0  0
 46 50  1  0  0  0  0
 47 52  1  0  0  0  0
 48 70  1  0  0  0  0
 49 52  1  0  0  0  0
 49 70  1  0  0  0  0
 50 74  1  0  0  0  0
 51 68  1  0  0  0  0
 52 67  1  0  0  0  0
 53 63  1  0  0  0  0
 54 64  1  0  0  0  0
 55 64  1  0  0  0  0
 56 64  1  0  0  0  0
 57 65  1  0  0  0  0
 58 65  1  0  0  0  0
 59 76  1  0  0  0  0
 60 65  1  0  0  0  0
 60 73  1  0  0  0  0
 61 65  1  0  0  0  0
 61 83  1  0  0  0  0
 62 64  1  0  0  0  0
 62 75  1  0  0  0  0
 63 76  1  0  0  0  0
 66 67  1  0  0  0  0
M  CHG  1  76   1
M  ISO  4  38 100  61 101  69 100  83 101
M  END
> <Batch ID>
0142

> <Smiles>
CNC(C)C(=O)NC(C(=O)N1Cc2cc([101O:1][101CH2:1]C(C)(C)CNc3ccc4c(c3)C[100N:0]([100C:0](=O)N3CCCC(n5nc(-c6ccc(Oc7ccc(F)cc7F)cc6)c(C(N)=O)c5N)C3)C4)ccc2CC1C(=O)NC1CCCc2ccccc21)C(C)(C)C

> <Shape>
0.282

> <Color>
0.062

> <Negative vol penalty>
0.000

$$$$

  -OEChem-04052302573D

 82 91  0     1  0  0  0  0  0999 V2000
  -28.4476  -24.7321   16.7937 C   0  0  0  0  0  0  0  0  0  0  0  0
  -27.2425  -24.9029   17.4675 C   0  0  0  0  0  0  0  0  0  0  0  0
  -24.2927  -11.9374   20.2156 C   0  0  0  0  0  0  0  0  0  0  0  0
  -25.1461  -13.8104   21.4807 C   0  0  0  0  0  0  0  0  0  0  0  0
  -29.6225  -25.2640   17.3233 C   0  0  0  0  0  0  0  0  0  0  0  0
  -27.2119  -25.6049   18.6720 C   0  0  0  0  0  0  0  0  0  0  0  0
  -23.3656  -28.8905   18.9084 C   0  0  0  0  0  0  0  0  0  0  0  0
  -25.5924  -11.5997   19.8385 C   0  0  0  0  0  0  0  0  0  0  0  0
  -26.4460  -13.4727   21.1037 C   0  0  0  0  0  0  0  0  0  0  0  0
  -22.1017  -28.3722   19.1867 C   0  0  0  0  0  0  0  0  0  0  0  0
  -28.4239  -13.8308   18.3851 C   0  0  0  0  0  0  0  0  0  0  0  0
  -29.2634  -14.8604   17.9600 C   0  0  0  0  0  0  0  0  0  0  0  0
  -22.3373  -29.0502   21.4897 C   0  0  0  0  0  0  0  0  0  0  0  0
  -18.9967  -21.5307   21.0171 C   0  0  0  0  0  0  0  0  0  0  0  0
  -30.7989  -14.3490   19.7539 C   0  0  0  0  0  0  0  0  0  0  0  0
  -20.4736  -22.4726   22.5448 C   0  0  0  0  0  0  0  0  0  0  0  0
  -24.0695  -13.0427   21.0367 C   0  0  0  0  0  0  0  0  0  0  0  0
  -22.0274  -12.9438   22.5624 C   0  0  0  0  0  0  0  0  0  0  0  0
  -29.6047  -25.9812   18.5299 C   0  0  0  0  0  0  0  0  0  0  0  0
  -24.1308  -29.4838   19.9228 C   0  0  0  0  0  0  0  0  0  0  0  0
  -28.3879  -26.1458   19.2189 C   0  0  0  0  0  0  0  0  0  0  0  0
  -23.6096  -29.5776   21.2212 C   0  0  0  0  0  0  0  0  0  0  0  0
  -19.3673  -22.6924   21.7542 C   0  0  0  0  0  0  0  0  0  0  0  0
  -26.6691  -12.3674   20.2826 C   0  0  0  0  0  0  0  0  0  0  0  0
  -21.5885  -28.4494   20.4781 C   0  0  0  0  0  0  0  0  0  0  0  0
  -28.7718  -13.0604   19.4947 C   0  0  0  0  0  0  0  0  0  0  0  0
  -30.4509  -15.1195   18.6444 C   0  0  0  0  0  0  0  0  0  0  0  0
  -29.9593  -13.3194   20.1790 C   0  0  0  0  0  0  0  0  0  0  0  0
  -22.7270  -13.3923   21.4261 C   0  0  0  0  0  0  0  0  0  0  0  0
  -20.8030  -13.5603   22.4773 C   0  0  0  0  0  0  0  0  0  0  0  0
  -19.8342  -20.4671   21.2724 C   0  0  0  0  0  0  0  0  0  0  0  0
  -22.4469  -12.0500   23.6020 C   0  0  0  0  0  0  0  0  0  0  0  0
  -26.9432  -28.8609   21.2667 C   0  0  0  0  0  0  0  0  0  0  0  0
  -26.3984  -31.6718   22.7913 C   0  0  0  0  0  0  0  0  0  0  0  0
  -24.1385  -33.9788   23.8947 C   0  0  0  0  0  0  0  0  0  0  0  0
  -18.9403  -18.5921   19.8472 C   0  0  0  0  0  0  0  0  0  0  0  0
  -30.9079  -26.4970   19.0871 C   0  0  0  0  0  0  0  0  0  0  0  0
  -25.4813  -30.0621   19.6005 C   0  0  0  0  0  0  0  0  0  0  0  0
  -24.3826  -30.2229   22.3412 C   0  0  0  0  0  0  0  0  0  0  0  0
  -30.7297  -27.5495   20.1783 C   0  0  0  0  0  0  0  0  0  0  0  0
  -17.7030  -15.3037   19.2703 C   0  0  0  0  0  0  0  0  0  0  0  0
  -18.0868  -24.4293   23.0443 C   0  0  0  0  0  0  0  0  0  0  0  0
  -29.6772  -27.1001   21.1868 C   0  0  0  0  0  0  0  0  0  0  0  0
  -18.8054  -25.7315   23.3830 C   0  0  0  0  0  0  0  0  0  0  0  0
  -18.7844  -14.3997   19.8665 C   0  0  0  0  0  0  0  0  0  0  0  0
  -19.5632  -25.1288   21.2081 C   0  0  0  0  0  0  0  0  0  0  0  0
  -18.3023  -16.5391   18.6008 C   0  0  0  0  0  0  0  0  0  0  0  0
  -20.2980  -16.4161   20.0399 C   0  0  0  0  0  0  0  0  0  0  0  0
  -18.6478  -23.9828   21.6779 C   0  0  1  0  0  0  0  0  0  0  0  0
  -28.3101  -26.9224   20.5154 C   0  0  1  0  0  0  0  0  0  0  0  0
  -26.3863  -30.1839   20.8226 C   0  0  1  0  0  0  0  0  0  0  0  0
  -19.1045  -26.3403   22.0174 C   0  0  2  0  0  0  0  0  0  0  0  0
  -19.7389  -15.1911   20.7820 C   0  0  2  0  0  0  0  0  0  0  0  0
  -23.9905  -36.1519   25.1408 C   0  0  0  0  0  0  0  0  0  0  0  0
  -26.8723  -30.1947   25.4187 C   0  0  0  0  0  0  0  0  0  0  0  0
  -25.8007  -32.1171   26.6122 C   0  0  0  0  0  0  0  0  0  0  0  0
  -27.8947  -32.4742   25.3044 C   0  0  0  0  0  0  0  0  0  0  0  0
  -22.9354  -35.3624   21.5715 C   0  0  0  0  0  0  0  0  0  0  0  0
  -20.1361  -27.4468   22.0722 C   0  0  0  0  0  0  0  0  0  1  0  0
  -25.7200  -32.0763   24.0778 C   0  0  1  0  0  0  0  0  0  0  0  0
  -24.1036  -35.4917   23.7755 C   0  0  2  0  0  0  0  0  0  0  0  0
  -26.5579  -31.7016   25.3328 C   0  0  0  0  0  0  0  0  0  0  0  0
  -22.0069  -14.2290   20.6741 N   0  0  0  0  0  0  0  0  0  0  0  0
  -20.8420  -14.3111   21.3393 N   0  0  0  0  0  0  0  0  0  0  0  0
  -25.7010  -30.7680   21.9774 N   0  0  0  0  0  0  0  0  0  0  0  0
  -19.1919  -17.2407   19.5288 N   0  0  0  0  0  0  0  0  0  0  0  0
  -19.7076  -13.5280   23.2655 N   0  0  0  0  0  0  0  0  0  0  0  0
  -23.7369  -11.5062   23.5354 N   0  0  0  0  0  0  0  0  0  0  0  0
  -19.8332  -19.1441   20.7650 N   0  0  0  0  0  0  0  0  0  0  0  0
  -27.6825  -28.2083   20.2987 N   0  0  0  0  0  0  0  0  0  0  0  0
  -25.4304  -33.5010   23.9562 N   0  0  0  0  0  0  0  0  0  0  0  0
  -22.9398  -35.9195   22.9487 N   0  3  0  0  0  0  0  0  0  0  0  0
  -21.6940  -11.7297   24.5528 O   0  0  0  0  0  0  0  0  0  0  0  0
  -26.7200  -28.4624   22.4038 O   0  0  0  0  0  0  0  0  0  0  0  0
  -27.5031  -32.1461   22.5151 O   0  0  0  0  0  0  0  0  0  0  0  0
  -23.1213  -33.2900   23.9333 O   0  0  0  0  0  0  0  0  0  0  0  0
  -17.9856  -19.2058   19.3635 O   0  0  0  0  0  0  0  0  0  0  0  0
  -27.9376  -12.0381   19.9150 O   0  0  0  0  0  0  0  0  0  0  0  0
  -20.3553  -27.9437   20.7526 O   0  0  0  0  0  0  0  0  0  1  0  0
  -31.2578  -16.1072   18.2351 F   0  0  0  0  0  0  0  0  0  0  0  0
  -30.2994  -12.5819   21.2449 F   0  0  0  0  0  0  0  0  0  0  0  0
  -21.0610  -20.8709   22.3969 S   0  0  0  0  0  0  0  0  0  0  0  0
  1  2  1  0  0  0  0
  1  5  2  0  0  0  0
  2  6  2  0  0  0  0
  3  8  2  0  0  0  0
  3 17  1  0  0  0  0
  4  9  1  0  0  0  0
  4 17  2  0  0  0  0
  5 19  1  0  0  0  0
  6 21  1  0  0  0  0
  7 10  2  0  0  0  0
  7 20  1  0  0  0  0
  8 24  1  0  0  0  0
  9 24  2  0  0  0  0
 10 25  1  0  0  0  0
 11 12  2  0  0  0  0
 11 26  1  0  0  0  0
 12 27  1  0  0  0  0
 13 22  1  0  0  0  0
 13 25  2  0  0  0  0
 14 23  1  0  0  0  0
 14 31  2  0  0  0  0
 15 27  2  0  0  0  0
 15 28  1  0  0  0  0
 16 23  2  0  0  0  0
 16 82  1  0  0  0  0
 17 29  1  0  0  0  0
 18 29  1  0  0  0  0
 18 30  2  0  0  0  0
 18 32  1  0  0  0  0
 19 21  2  0  0  0  0
 19 37  1  0  0  0  0
 20 22  2  0  0  0  0
 20 38  1  0  0  0  0
 21 50  1  0  0  0  0
 22 39  1  0  0  0  0
 23 49  1  0  0  0  0
 24 78  1  0  0  0  0
 25 79  1  0  0  0  0
 26 28  2  0  0  0  0
 26 78  1  0  0  0  0
 27 80  1  0  0  0  0
 28 81  1  0  0  0  0
 29 63  2  0  0  0  0
 30 64  1  0  0  0  0
 30 67  1  0  0  0  0
 31 69  1  0  0  0  0
 31 82  1  0  0  0  0
 32 68  1  0  0  0  0
 32 73  2  0  0  0  0
 33 51  1  0  0  0  0
 33 70  1  0  0  0  0
 33 74  2  0  0  0  0
 34 60  1  0  0  0  0
 34 65  1  0  0  0  0
 34 75  2  0  0  0  0
 35 61  1  0  0  0  0
 35 71  1  0  0  0  0
 35 76  2  0  0  0  0
 36 66  1  0  0  0  0
 36 69  1  0  0  0  0
 36 77  2  0  0  0  0
 37 40  1  0  0  0  0
 38 51  1  0  0  0  0
 39 65  1  0  0  0  0
 40 43  1  0  0  0  0
 41 45  1  0  0  0  0
 41 47  1  0  0  0  0
 42 44  1  0  0  0  0
 42 49  1  0  0  0  0
 43 50  1  0  0  0  0
 44 52  1  0  0  0  0
 45 53  1  0  0  0  0
 46 49  1  0  0  0  0
 46 52  1  0  0  0  0
 47 66  1  0  0  0  0
 48 53  1  0  0  0  0
 48 66  1  0  0  0  0
 50 70  1  0  0  0  0
 51 65  1  0  0  0  0
 52 59  1  0  0  0  0
 53 64  1  0  0  0  0
 54 61  1  0  0  0  0
 55 62  1  0  0  0  0
 56 62  1  0  0  0  0
 57 62  1  0  0  0  0
 58 72  1  0  0  0  0
 59 79  1  0  0  0  0
 60 62  1  0  0  0  0
 60 71  1  0  0  0  0
 61 72  1  0  0  0  0
 63 64  1  0  0  0  0
M  CHG  1  72   1
M  ISO  4  36 100  59 101  69 100  79 101
M  END
> <Batch ID>
0142

> <Smiles>
CNC(C)C(=O)NC(C(=O)N1Cc2cc([101O:1][101CH2:1]C3CCC(c4csc([100NH:0][100C:0](=O)N5CCCC(n6nc(-c7ccc(Oc8ccc(F)cc8F)cc7)c(C(N)=O)c6N)C5)c4)C3)ccc2CC1C(=O)NC1CCCc2ccccc21)C(C)(C)C

> <Shape>
0.304

> <Color>
0.093

> <Negative vol penalty>
0.000

$$$$

  -OEChem-04052302573D

 84 93  0     1  0  0  0  0  0999 V2000
  -29.2859  -33.2593   28.9044 C   0  0  0  0  0  0  0  0  0  0  0  0
  -29.4383  -31.8806   29.0105 C   0  0  0  0  0  0  0  0  0  0  0  0
  -23.1197   -9.7803   19.9884 C   0  0  0  0  0  0  0  0  0  0  0  0
  -23.8101   -9.9243   22.2992 C   0  0  0  0  0  0  0  0  0  0  0  0
  -28.7317  -33.8114   27.7503 C   0  0  0  0  0  0  0  0  0  0  0  0
  -29.0354  -31.0530   27.9630 C   0  0  0  0  0  0  0  0  0  0  0  0
  -31.6796  -25.8267   26.1742 C   0  0  0  0  0  0  0  0  0  0  0  0
  -22.4081   -8.6150   20.2736 C   0  0  0  0  0  0  0  0  0  0  0  0
  -23.0984   -8.7590   22.5844 C   0  0  0  0  0  0  0  0  0  0  0  0
  -31.3819  -24.4891   26.4309 C   0  0  0  0  0  0  0  0  0  0  0  0
  -23.5178   -5.4264   22.1993 C   0  0  0  0  0  0  0  0  0  0  0  0
  -24.1458   -4.4590   22.9838 C   0  0  0  0  0  0  0  0  0  0  0  0
  -30.1292  -18.6999   23.8794 C   0  0  0  0  0  0  0  0  0  0  0  0
  -30.1594  -24.3690   24.3548 C   0  0  0  0  0  0  0  0  0  0  0  0
  -31.7948  -16.9360   22.5021 C   0  0  0  0  0  0  0  0  0  0  0  0
  -22.3892   -4.6546   24.6311 C   0  0  0  0  0  0  0  0  0  0  0  0
  -23.8208  -10.4349   21.0012 C   0  0  0  0  0  0  0  0  0  0  0  0
  -24.0806  -12.9618   20.7670 C   0  0  0  0  0  0  0  0  0  0  0  0
  -28.3307  -32.9909   26.6842 C   0  0  0  0  0  0  0  0  0  0  0  0
  -31.2095  -26.4496   25.0091 C   0  0  0  0  0  0  0  0  0  0  0  0
  -28.4740  -31.5946   26.7942 C   0  0  0  0  0  0  0  0  0  0  0  0
  -31.5108  -18.7588   24.0622 C   0  0  0  0  0  0  0  0  0  0  0  0
  -30.4547  -25.7139   24.0844 C   0  0  0  0  0  0  0  0  0  0  0  0
  -29.5804  -17.7590   23.0081 C   0  0  0  0  0  0  0  0  0  0  0  0
  -32.3436  -17.8768   23.3735 C   0  0  0  0  0  0  0  0  0  0  0  0
  -30.4132  -16.8771   22.3194 C   0  0  0  0  0  0  0  0  0  0  0  0
  -22.3974   -8.1044   21.5716 C   0  0  0  0  0  0  0  0  0  0  0  0
  -30.6193  -23.7608   25.5226 C   0  0  0  0  0  0  0  0  0  0  0  0
  -22.3255   -6.0079   22.6307 C   0  0  0  0  0  0  0  0  0  0  0  0
  -23.5815   -4.0731   24.1997 C   0  0  0  0  0  0  0  0  0  0  0  0
  -21.7612   -5.6220   23.8465 C   0  0  0  0  0  0  0  0  0  0  0  0
  -24.5566  -11.6383   20.7071 C   0  0  0  0  0  0  0  0  0  0  0  0
  -25.1572  -13.7308   20.3983 C   0  0  0  0  0  0  0  0  0  0  0  0
  -22.7815  -13.4521   21.1241 C   0  0  0  0  0  0  0  0  0  0  0  0
  -29.2777  -28.8989   24.3982 C   0  0  0  0  0  0  0  0  0  0  0  0
  -30.2044  -28.3622   21.3363 C   0  0  0  0  0  0  0  0  0  0  0  0
  -31.4288  -26.1742   19.0211 C   0  0  0  0  0  0  0  0  0  0  0  0
  -30.5774  -14.9752   20.6755 C   0  0  0  0  0  0  0  0  0  0  0  0
  -27.6932  -33.6302   25.4761 C   0  0  0  0  0  0  0  0  0  0  0  0
  -31.5618  -27.8858   24.7339 C   0  0  0  0  0  0  0  0  0  0  0  0
  -29.9432  -26.3303   22.8089 C   0  0  0  0  0  0  0  0  0  0  0  0
  -27.6371  -32.7108   24.2587 C   0  0  0  0  0  0  0  0  0  0  0  0
  -29.6163  -12.4126   18.3982 C   0  0  0  0  0  0  0  0  0  0  0  0
  -27.1299  -31.3284   24.6568 C   0  0  0  0  0  0  0  0  0  0  0  0
  -28.1751  -12.0915   18.8008 C   0  0  0  0  0  0  0  0  0  0  0  0
  -32.3759  -19.3666   26.4216 C   0  0  0  0  0  0  0  0  0  0  0  0
  -30.4869  -12.7309   19.6125 C   0  0  0  0  0  0  0  0  0  0  0  0
  -28.5161  -13.4535   20.9022 C   0  0  0  0  0  0  0  0  0  0  0  0
  -32.0729  -19.7662   24.9937 C   0  0  2  0  0  0  0  0  0  0  0  0
  -28.0718  -30.6656   25.6692 C   0  0  1  0  0  0  0  0  0  0  0  0
  -30.5977  -28.5623   23.7642 C   0  0  1  0  0  0  0  0  0  0  0  0
  -31.2177  -20.2753   26.1353 C   0  0  2  0  0  0  0  0  0  0  0  0
  -27.5853  -13.1897   19.7073 C   0  0  2  0  0  0  0  0  0  0  0  0
  -28.0971  -17.7187   22.8313 C   0  0  0  0  0  0  0  0  0  0  0  0
  -34.3306  -16.7933   24.4525 C   0  0  0  0  0  0  0  0  0  0  0  0
  -32.0433  -26.0146   16.5932 C   0  0  0  0  0  0  0  0  0  0  0  0
  -27.2472  -28.2079   20.6005 C   0  0  0  0  0  0  0  0  0  0  0  0
  -27.9125  -27.1295   18.4411 C   0  0  0  0  0  0  0  0  0  0  0  0
  -28.6673  -29.4500   18.9588 C   0  0  0  0  0  0  0  0  0  0  0  0
  -34.2512  -25.5508   19.6569 C   0  0  0  0  0  0  0  0  0  0  0  0
  -33.8259  -17.9178   23.5534 C   0  0  0  0  0  0  0  0  0  0  0  0
  -31.2765  -21.7103   26.5322 C   0  0  0  0  0  0  0  0  0  1  0  0
  -29.6992  -27.5048   20.2011 C   0  0  1  0  0  0  0  0  0  0  0  0
  -32.5434  -26.3082   17.9991 C   0  0  2  0  0  0  0  0  0  0  0  0
  -28.3894  -28.0617   19.5752 C   0  0  0  0  0  0  0  0  0  0  0  0
  -25.8359  -11.5670   20.3298 N   0  0  0  0  0  0  0  0  0  0  0  0
  -26.1730  -12.8553   20.1493 N   0  0  0  0  0  0  0  0  0  0  0  0
  -30.3089  -27.7392   22.5880 N   0  0  0  0  0  0  0  0  0  0  0  0
  -29.8675  -13.7825   20.4221 N   0  0  0  0  0  0  0  0  0  0  0  0
  -25.3247  -15.0638   20.2660 N   0  0  0  0  0  0  0  0  0  0  0  0
  -21.7912  -12.5252   21.4769 N   0  0  0  0  0  0  0  0  0  0  0  0
  -29.8750  -15.9152   21.4290 N   0  0  0  0  0  0  0  0  0  0  0  0
  -29.2440  -30.1417   25.0013 N   0  0  0  0  0  0  0  0  0  0  0  0
  -30.8062  -27.3813   19.2589 N   0  0  0  0  0  0  0  0  0  0  0  0
  -33.6497  -25.3600   18.3120 N   0  3  0  0  0  0  0  0  0  0  0  0
  -22.5023  -14.6750   21.1142 O   0  0  0  0  0  0  0  0  0  0  0  0
  -28.3575  -28.0915   24.3430 O   0  0  0  0  0  0  0  0  0  0  0  0
  -30.5023  -29.5393   21.1188 O   0  0  0  0  0  0  0  0  0  0  0  0
  -31.1371  -25.1050   19.5522 O   0  0  0  0  0  0  0  0  0  0  0  0
  -31.7136  -15.1608   20.2322 O   0  0  0  0  0  0  0  0  0  0  0  0
  -21.7028   -6.9675   21.8503 O   0  0  0  0  0  0  0  0  0  0  0  0
  -30.3268  -22.4552   25.7710 O   0  0  0  0  0  0  0  0  0  1  0  0
  -24.1839   -3.1431   24.9522 F   0  0  0  0  0  0  0  0  0  0  0  0
  -20.6154   -6.1762   24.2657 F   0  0  0  0  0  0  0  0  0  0  0  0
  1  2  1  0  0  0  0
  1  5  2  0  0  0  0
  2  6  2  0  0  0  0
  3  8  2  0  0  0  0
  3 17  1  0  0  0  0
  4  9  1  0  0  0  0
  4 17  2  0  0  0  0
  5 19  1  0  0  0  0
  6 21  1  0  0  0  0
  7 10  2  0  0  0  0
  7 20  1  0  0  0  0
  8 27  1  0  0  0  0
  9 27  2  0  0  0  0
 10 28  1  0  0  0  0
 11 12  2  0  0  0  0
 11 29  1  0  0  0  0
 12 30  1  0  0  0  0
 13 22  1  0  0  0  0
 13 24  2  0  0  0  0
 14 23  1  0  0  0  0
 14 28  2  0  0  0  0
 15 25  1  0  0  0  0
 15 26  2  0  0  0  0
 16 30  2  0  0  0  0
 16 31  1  0  0  0  0
 17 32  1  0  0  0  0
 18 32  1  0  0  0  0
 18 33  2  0  0  0  0
 18 34  1  0  0  0  0
 19 21  2  0  0  0  0
 19 39  1  0  0  0  0
 20 23  2  0  0  0  0
 20 40  1  0  0  0  0
 21 50  1  0  0  0  0
 22 25  2  0  0  0  0
 22 49  1  0  0  0  0
 23 41  1  0  0  0  0
 24 26  1  0  0  0  0
 24 54  1  0  0  0  0
 25 61  1  0  0  0  0
 26 72  1  0  0  0  0
 27 81  1  0  0  0  0
 28 82  1  0  0  0  0
 29 31  2  0  0  0  0
 29 81  1  0  0  0  0
 30 83  1  0  0  0  0
 31 84  1  0  0  0  0
 32 66  2  0  0  0  0
 33 67  1  0  0  0  0
 33 70  1  0  0  0  0
 34 71  1  0  0  0  0
 34 76  2  0  0  0  0
 35 51  1  0  0  0  0
 35 73  1  0  0  0  0
 35 77  2  0  0  0  0
 36 63  1  0  0  0  0
 36 68  1  0  0  0  0
 36 78  2  0  0  0  0
 37 64  1  0  0  0  0
 37 74  1  0  0  0  0
 37 79  2  0  0  0  0
 38 69  1  0  0  0  0
 38 72  1  0  0  0  0
 38 80  2  0  0  0  0
 39 42  1  0  0  0  0
 40 51  1  0  0  0  0
 41 68  1  0  0  0  0
 42 44  1  0  0  0  0
 43 45  1  0  0  0  0
 43 47  1  0  0  0  0
 44 50  1  0  0  0  0
 45 53  1  0  0  0  0
 46 49  1  0  0  0  0
 46 52  1  0  0  0  0
 47 69  1  0  0  0  0
 48 53  1  0  0  0  0
 48 69  1  0  0  0  0
 49 52  1  0  0  0  0
 50 73  1  0  0  0  0
 51 68  1  0  0  0  0
 52 62  1  0  0  0  0
 53 67  1  0  0  0  0
 55 61  1  0  0  0  0
 56 64  1  0  0  0  0
 57 65  1  0  0  0  0
 58 65  1  0  0  0  0
 59 65  1  0  0  0  0
 60 75  1  0  0  0  0
 62 82  1  0  0  0  0
 63 65  1  0  0  0  0
 63 74  1  0  0  0  0
 64 75  1  0  0  0  0
 66 67  1  0  0  0  0
M  CHG  1  75   1
M  ISO  4  38 100  62 101  72 100  82 101
M  END
> <Batch ID>
0142

> <Smiles>
CCc1cc([100NH:0][100C:0](=O)N2CCCC(n3nc(-c4ccc(Oc5ccc(F)cc5F)cc4)c(C(N)=O)c3N)C2)c(C)cc1C1CC1[101CH2:1][101O:1]c1ccc2c(c1)CN(C(=O)C(NC(=O)C(C)NC)C(C)(C)C)C(C(=O)NC1CCCc3ccccc31)C2

> <Shape>
0.261

> <Color>
0.216

> <Negative vol penalty>
0.000

$$$$

  -OEChem-04052302573D

 84 93  0     1  0  0  0  0  0999 V2000
  -34.0376  -22.6814   30.2289 C   0  0  0  0  0  0  0  0  0  0  0  0
  -33.9979  -22.6659   28.8383 C   0  0  0  0  0  0  0  0  0  0  0  0
  -23.3679   -9.7930   21.6014 C   0  0  0  0  0  0  0  0  0  0  0  0
  -24.1098  -10.8620   23.6370 C   0  0  0  0  0  0  0  0  0  0  0  0
  -32.9270  -23.1145   30.9520 C   0  0  0  0  0  0  0  0  0  0  0  0
  -32.8470  -23.0824   28.1701 C   0  0  0  0  0  0  0  0  0  0  0  0
  -30.7956  -18.9791   17.9079 C   0  0  0  0  0  0  0  0  0  0  0  0
  -32.5658  -26.0315   22.8102 C   0  0  0  0  0  0  0  0  0  0  0  0
  -30.7344  -17.7287   18.5230 C   0  0  0  0  0  0  0  0  0  0  0  0
  -22.7254   -8.8087   22.3524 C   0  0  0  0  0  0  0  0  0  0  0  0
  -23.4673   -9.8777   24.3881 C   0  0  0  0  0  0  0  0  0  0  0  0
  -32.3297  -25.5912   21.5085 C   0  0  0  0  0  0  0  0  0  0  0  0
  -19.8484   -8.4902   24.1001 C   0  0  0  0  0  0  0  0  0  0  0  0
  -18.5535   -8.1313   23.7258 C   0  0  0  0  0  0  0  0  0  0  0  0
  -29.1445  -19.8221   19.4572 C   0  0  0  0  0  0  0  0  0  0  0  0
  -29.9994  -26.1694   21.7420 C   0  0  0  0  0  0  0  0  0  0  0  0
  -19.2881   -5.8582   23.3644 C   0  0  0  0  0  0  0  0  0  0  0  0
  -24.0602  -10.8196   22.2437 C   0  0  0  0  0  0  0  0  0  0  0  0
  -24.1822  -13.0574   21.0251 C   0  0  0  0  0  0  0  0  0  0  0  0
  -30.0007  -20.0258   18.3750 C   0  0  0  0  0  0  0  0  0  0  0  0
  -31.7654  -23.5456   30.2922 C   0  0  0  0  0  0  0  0  0  0  0  0
  -31.5165  -26.5348   23.5926 C   0  0  0  0  0  0  0  0  0  0  0  0
  -31.7194  -23.5204   28.8852 C   0  0  0  0  0  0  0  0  0  0  0  0
  -30.2252  -26.6178   23.0523 C   0  0  0  0  0  0  0  0  0  0  0  0
  -29.0834  -18.5717   20.0723 C   0  0  0  0  0  0  0  0  0  0  0  0
  -29.8783  -17.5250   19.6052 C   0  0  0  0  0  0  0  0  0  0  0  0
  -22.7751   -8.8511   23.7458 C   0  0  0  0  0  0  0  0  0  0  0  0
  -31.0459  -25.6574   20.9753 C   0  0  0  0  0  0  0  0  0  0  0  0
  -20.8632   -7.5332   24.1064 C   0  0  0  0  0  0  0  0  0  0  0  0
  -18.2734   -6.8153   23.3580 C   0  0  0  0  0  0  0  0  0  0  0  0
  -20.5830   -6.2172   23.7386 C   0  0  0  0  0  0  0  0  0  0  0  0
  -24.7245  -11.8363   21.4684 C   0  0  0  0  0  0  0  0  0  0  0  0
  -25.2074  -13.6586   20.3366 C   0  0  0  0  0  0  0  0  0  0  0  0
  -22.8691  -13.5997   21.2183 C   0  0  0  0  0  0  0  0  0  0  0  0
  -30.1456  -25.6740   26.3282 C   0  0  0  0  0  0  0  0  0  0  0  0
  -28.5287  -28.4596   25.9434 C   0  0  0  0  0  0  0  0  0  0  0  0
  -27.3824  -30.8749   23.8223 C   0  0  0  0  0  0  0  0  0  0  0  0
  -30.5610  -15.1137   19.8621 C   0  0  0  0  0  0  0  0  0  0  0  0
  -30.5732  -23.9604   31.1176 C   0  0  0  0  0  0  0  0  0  0  0  0
  -31.7927  -27.0306   24.9855 C   0  0  0  0  0  0  0  0  0  0  0  0
  -29.0683  -27.1687   23.8439 C   0  0  0  0  0  0  0  0  0  0  0  0
  -29.5259  -24.7397   30.3263 C   0  0  0  0  0  0  0  0  0  0  0  0
  -29.6753  -11.8268   18.8186 C   0  0  0  0  0  0  0  0  0  0  0  0
  -28.6929  -21.7973   17.1581 C   0  0  0  0  0  0  0  0  0  0  0  0
  -29.2388  -24.0495   28.9966 C   0  0  0  0  0  0  0  0  0  0  0  0
  -28.2939  -23.0349   17.9557 C   0  0  0  0  0  0  0  0  0  0  0  0
  -28.2637  -11.6367   19.3785 C   0  0  0  0  0  0  0  0  0  0  0  0
  -30.4753  -22.4591   18.7156 C   0  0  0  0  0  0  0  0  0  0  0  0
  -30.5595  -12.6304   19.7705 C   0  0  0  0  0  0  0  0  0  0  0  0
  -28.5882  -13.7284   20.7592 C   0  0  0  0  0  0  0  0  0  0  0  0
  -30.0644  -21.3622   17.7156 C   0  0  1  0  0  0  0  0  0  0  0  0
  -30.4980  -23.9879   28.1237 C   0  0  1  0  0  0  0  0  0  0  0  0
  -30.5507  -27.0468   25.8712 C   0  0  1  0  0  0  0  0  0  0  0  0
  -29.6306  -23.6697   18.3232 C   0  0  2  0  0  0  0  0  0  0  0  0
  -27.6415  -12.9803   19.8064 C   0  0  2  0  0  0  0  0  0  0  0  0
  -28.1550  -18.3811   21.2279 C   0  0  0  0  0  0  0  0  0  0  0  0
  -26.0600  -33.0075   23.7960 C   0  0  0  0  0  0  0  0  0  0  0  0
  -25.9493  -26.8612   26.2620 C   0  0  0  0  0  0  0  0  0  0  0  0
  -24.7055  -28.8088   25.2985 C   0  0  0  0  0  0  0  0  0  0  0  0
  -25.9611  -29.0682   27.4384 C   0  0  0  0  0  0  0  0  0  0  0  0
  -29.6744  -32.4192   22.7637 C   0  0  0  0  0  0  0  0  0  0  0  0
  -29.5164  -24.7004   19.4258 C   0  0  0  0  0  0  0  0  0  1  0  0
  -27.2407  -28.8635   25.2675 C   0  0  1  0  0  0  0  0  0  0  0  0
  -27.4464  -32.3900   23.8923 C   0  0  2  0  0  0  0  0  0  0  0  0
  -25.9853  -28.3882   26.0521 C   0  0  0  0  0  0  0  0  0  0  0  0
  -25.9956  -11.6700   21.0930 N   0  0  0  0  0  0  0  0  0  0  0  0
  -26.2604  -12.7946   20.4065 N   0  0  0  0  0  0  0  0  0  0  0  0
  -29.3879  -27.6350   25.2033 N   0  0  0  0  0  0  0  0  0  0  0  0
  -29.9076  -13.8919   20.1289 N   0  0  0  0  0  0  0  0  0  0  0  0
  -25.3019  -14.8367   19.6843 N   0  0  0  0  0  0  0  0  0  0  0  0
  -21.9379  -12.8505   21.9503 N   0  0  0  0  0  0  0  0  0  0  0  0
  -29.8306  -16.2475   20.2164 N   0  0  0  0  0  0  0  0  0  0  0  0
  -30.7476  -25.2724   27.5054 N   0  0  0  0  0  0  0  0  0  0  0  0
  -27.3150  -30.3081   25.0775 N   0  0  0  0  0  0  0  0  0  0  0  0
  -28.2778  -32.9254   22.7773 N   0  3  0  0  0  0  0  0  0  0  0  0
  -22.5265  -14.7083   20.7416 O   0  0  0  0  0  0  0  0  0  0  0  0
  -29.3450  -25.0275   25.6627 O   0  0  0  0  0  0  0  0  0  0  0  0
  -28.7672  -28.8668   27.0831 O   0  0  0  0  0  0  0  0  0  0  0  0
  -27.3876  -30.2563   22.7603 O   0  0  0  0  0  0  0  0  0  0  0  0
  -31.6741  -15.1520   19.3315 O   0  0  0  0  0  0  0  0  0  0  0  0
  -22.1480   -7.8910   24.4789 O   0  0  0  0  0  0  0  0  0  0  0  0
  -30.8126  -25.2277   19.7053 O   0  0  0  0  0  0  0  0  0  1  0  0
  -17.0295   -6.4704   23.0002 F   0  0  0  0  0  0  0  0  0  0  0  0
  -21.5535   -5.2931   23.7439 F   0  0  0  0  0  0  0  0  0  0  0  0
  1  2  1  0  0  0  0
  1  5  2  0  0  0  0
  2  6  2  0  0  0  0
  3 10  2  0  0  0  0
  3 18  1  0  0  0  0
  4 11  1  0  0  0  0
  4 18  2  0  0  0  0
  5 21  1  0  0  0  0
  6 23  1  0  0  0  0
  7  9  2  0  0  0  0
  7 20  1  0  0  0  0
  8 12  2  0  0  0  0
  8 22  1  0  0  0  0
  9 26  1  0  0  0  0
 10 27  1  0  0  0  0
 11 27  2  0  0  0  0
 12 28  1  0  0  0  0
 13 14  2  0  0  0  0
 13 29  1  0  0  0  0
 14 30  1  0  0  0  0
 15 20  2  0  0  0  0
 15 25  1  0  0  0  0
 16 24  1  0  0  0  0
 16 28  2  0  0  0  0
 17 30  2  0  0  0  0
 17 31  1  0  0  0  0
 18 32  1  0  0  0  0
 19 32  1  0  0  0  0
 19 33  2  0  0  0  0
 19 34  1  0  0  0  0
 20 51  1  0  0  0  0
 21 23  2  0  0  0  0
 21 39  1  0  0  0  0
 22 24  2  0  0  0  0
 22 40  1  0  0  0  0
 23 52  1  0  0  0  0
 24 41  1  0  0  0  0
 25 26  2  0  0  0  0
 25 56  1  0  0  0  0
 26 72  1  0  0  0  0
 27 81  1  0  0  0  0
 28 82  1  0  0  0  0
 29 31  2  0  0  0  0
 29 81  1  0  0  0  0
 30 83  1  0  0  0  0
 31 84  1  0  0  0  0
 32 66  2  0  0  0  0
 33 67  1  0  0  0  0
 33 70  1  0  0  0  0
 34 71  1  0  0  0  0
 34 76  2  0  0  0  0
 35 53  1  0  0  0  0
 35 73  1  0  0  0  0
 35 77  2  0  0  0  0
 36 63  1  0  0  0  0
 36 68  1  0  0  0  0
 36 78  2  0  0  0  0
 37 64  1  0  0  0  0
 37 74  1  0  0  0  0
 37 79  2  0  0  0  0
 38 69  1  0  0  0  0
 38 72  1  0  0  0  0
 38 80  2  0  0  0  0
 39 42  1  0  0  0  0
 40 53  1  0  0  0  0
 41 68  1  0  0  0  0
 42 45  1  0  0  0  0
 43 47  1  0  0  0  0
 43 49  1  0  0  0  0
 44 46  1  0  0  0  0
 44 51  1  0  0  0  0
 45 52  1  0  0  0  0
 46 54  1  0  0  0  0
 47 55  1  0  0  0  0
 48 51  1  0  0  0  0
 48 54  1  0  0  0  0
 49 69  1  0  0  0  0
 50 55  1  0  0  0  0
 50 69  1  0  0  0  0
 52 73  1  0  0  0  0
 53 68  1  0  0  0  0
 54 62  1  0  0  0  0
 55 67  1  0  0  0  0
 57 64  1  0  0  0  0
 58 65  1  0  0  0  0
 59 65  1  0  0  0  0
 60 65  1  0  0  0  0
 61 75  1  0  0  0  0
 62 82  1  0  0  0  0
 63 65  1  0  0  0  0
 63 74  1  0  0  0  0
 64 75  1  0  0  0  0
 66 67  1  0  0  0  0
M  CHG  1  75   1
M  ISO  4  38 100  62 101  72 100  82 101
M  END
> <Batch ID>
0142

> <Smiles>
CNC(C)C(=O)NC(C(=O)N1Cc2cc([101O:1][101CH2:1]C3CCC(c4ccc([100NH:0][100C:0](=O)N5CCCC(n6nc(-c7ccc(Oc8ccc(F)cc8F)cc7)c(C(N)=O)c6N)C5)c(C)c4)C3)ccc2CC1C(=O)NC1CCCc2ccccc21)C(C)(C)C

> <Shape>
0.233

> <Color>
0.148

> <Negative vol penalty>
0.000

$$$$

  -OEChem-04052302573D

 84 93  0     1  0  0  0  0  0999 V2000
  -22.1159  -11.7344   19.5800 C   0  0  0  0  0  0  0  0  0  0  0  0
  -21.8403  -13.0850   19.7684 C   0  0  0  0  0  0  0  0  0  0  0  0
  -26.2884  -28.9570   21.6914 C   0  0  0  0  0  0  0  0  0  0  0  0
  -25.1976  -27.1845   20.4645 C   0  0  0  0  0  0  0  0  0  0  0  0
  -23.3700  -11.2266   19.9162 C   0  0  0  0  0  0  0  0  0  0  0  0
  -22.8185  -13.9283   20.2941 C   0  0  0  0  0  0  0  0  0  0  0  0
  -23.1571  -18.3131   17.7834 C   0  0  0  0  0  0  0  0  0  0  0  0
  -27.5227  -28.5451   21.1891 C   0  0  0  0  0  0  0  0  0  0  0  0
  -26.4319  -26.7726   19.9622 C   0  0  0  0  0  0  0  0  0  0  0  0
  -22.1888  -19.2787   18.0550 C   0  0  0  0  0  0  0  0  0  0  0  0
  -29.7809  -26.1104   21.8195 C   0  0  0  0  0  0  0  0  0  0  0  0
  -30.8477  -26.0246   22.7139 C   0  0  0  0  0  0  0  0  0  0  0  0
  -18.8517  -23.1403   23.5537 C   0  0  0  0  0  0  0  0  0  0  0  0
  -23.7408  -20.4171   19.5092 C   0  0  0  0  0  0  0  0  0  0  0  0
  -18.1098  -21.0924   24.5988 C   0  0  0  0  0  0  0  0  0  0  0  0
  -18.7171  -22.9928   25.9614 C   0  0  0  0  0  0  0  0  0  0  0  0
  -32.0710  -27.6503   21.4110 C   0  0  0  0  0  0  0  0  0  0  0  0
  -25.1258  -28.2767   21.3291 C   0  0  0  0  0  0  0  0  0  0  0  0
  -22.9696  -29.6389   21.2764 C   0  0  0  0  0  0  0  0  0  0  0  0
  -24.3673  -12.0660   20.4373 C   0  0  0  0  0  0  0  0  0  0  0  0
  -24.4230  -18.3863   18.3822 C   0  0  0  0  0  0  0  0  0  0  0  0
  -24.0867  -13.4309   20.6389 C   0  0  0  0  0  0  0  0  0  0  0  0
  -18.4020  -21.8243   23.4478 C   0  0  0  0  0  0  0  0  0  0  0  0
  -24.7242  -19.4525   19.2416 C   0  0  0  0  0  0  0  0  0  0  0  0
  -19.0093  -23.7246   24.8104 C   0  0  0  0  0  0  0  0  0  0  0  0
  -27.5945  -27.4529   20.3245 C   0  0  0  0  0  0  0  0  0  0  0  0
  -22.4796  -20.3294   18.9203 C   0  0  0  0  0  0  0  0  0  0  0  0
  -29.8591  -26.9662   20.7207 C   0  0  0  0  0  0  0  0  0  0  0  0
  -31.9928  -26.7946   22.5097 C   0  0  0  0  0  0  0  0  0  0  0  0
  -18.2673  -21.6767   25.8556 C   0  0  0  0  0  0  0  0  0  0  0  0
  -31.0041  -27.7361   20.5165 C   0  0  0  0  0  0  0  0  0  0  0  0
  -23.8505  -28.7014   21.8481 C   0  0  0  0  0  0  0  0  0  0  0  0
  -21.9084  -29.6882   22.1470 C   0  0  0  0  0  0  0  0  0  0  0  0
  -23.0990  -30.3973   20.0666 C   0  0  0  0  0  0  0  0  0  0  0  0
  -26.0790  -16.5304   20.3613 C   0  0  0  0  0  0  0  0  0  0  0  0
  -28.4311  -18.6915   19.7962 C   0  0  0  0  0  0  0  0  0  0  0  0
  -29.2922  -21.8571   18.8560 C   0  0  0  0  0  0  0  0  0  0  0  0
  -19.6770  -25.7905   26.0882 C   0  0  0  0  0  0  0  0  0  0  0  0
  -25.6923  -11.4620   20.8301 C   0  0  0  0  0  0  0  0  0  0  0  0
  -25.4653  -17.3514   18.0580 C   0  0  0  0  0  0  0  0  0  0  0  0
  -26.0748  -19.5879   19.8942 C   0  0  0  0  0  0  0  0  0  0  0  0
  -26.7971  -12.4959   21.0315 C   0  0  0  0  0  0  0  0  0  0  0  0
  -20.8298  -29.0886   26.7742 C   0  0  0  0  0  0  0  0  0  0  0  0
  -26.2911  -13.6601   21.8774 C   0  0  0  0  0  0  0  0  0  0  0  0
  -17.3108  -22.0022   21.1968 C   0  0  0  0  0  0  0  0  0  0  0  0
  -21.6500  -29.4512   25.5341 C   0  0  0  0  0  0  0  0  0  0  0  0
  -17.8810  -21.6979   19.8330 C   0  0  0  0  0  0  0  0  0  0  0  0
  -20.9881  -27.6160   27.1483 C   0  0  0  0  0  0  0  0  0  0  0  0
  -21.5405  -27.0294   24.8202 C   0  0  0  0  0  0  0  0  0  0  0  0
  -25.1299  -14.3824   21.1835 C   0  0  1  0  0  0  0  0  0  0  0  0
  -18.2333  -21.2011   22.1082 C   0  0  1  0  0  0  0  0  0  0  0  0
  -26.5504  -17.2418   19.1247 C   0  0  1  0  0  0  0  0  0  0  0  0
  -21.3620  -28.4874   24.3663 C   0  0  2  0  0  0  0  0  0  0  0  0
  -19.3710  -21.6844   20.1244 C   0  0  2  0  0  0  0  0  0  0  0  0
  -30.7832  -23.7737   18.2226 C   0  0  0  0  0  0  0  0  0  0  0  0
  -28.6817  -19.0222   22.8191 C   0  0  0  0  0  0  0  0  0  0  0  0
  -29.9618  -21.1349   22.4118 C   0  0  0  0  0  0  0  0  0  0  0  0
  -30.8602  -18.9567   21.5927 C   0  0  0  0  0  0  0  0  0  0  0  0
  -29.2800  -21.0748   16.0017 C   0  0  0  0  0  0  0  0  0  0  0  0
  -20.1715  -20.8585   19.1403 C   0  0  0  0  0  0  0  0  0  1  0  0
  -28.8656  -19.9897   20.4324 C   0  0  1  0  0  0  0  0  0  0  0  0
  -30.3233  -22.3686   17.8662 C   0  0  2  0  0  0  0  0  0  0  0  0
  -29.5661  -19.7726   21.8034 C   0  0  0  0  0  0  0  0  0  0  0  0
  -23.3890  -28.1919   22.9934 N   0  0  0  0  0  0  0  0  0  0  0  0
  -22.2067  -28.8117   23.1484 N   0  0  0  0  0  0  0  0  0  0  0  0
  -27.0583  -18.5475   19.5506 N   0  0  0  0  0  0  0  0  0  0  0  0
  -20.6952  -26.7627   25.9946 N   0  0  0  0  0  0  0  0  0  0  0  0
  -20.7585  -30.3956   22.1460 N   0  0  0  0  0  0  0  0  0  0  0  0
  -24.2532  -30.2253   19.2904 N   0  0  0  0  0  0  0  0  0  0  0  0
  -19.4664  -25.0615   24.9183 N   0  0  0  0  0  0  0  0  0  0  0  0
  -25.6267  -15.2448   20.1329 N   0  0  0  0  0  0  0  0  0  0  0  0
  -29.6897  -20.6740   19.4420 N   0  0  0  0  0  0  0  0  0  0  0  0
  -29.7515  -22.3962   16.4903 N   0  3  0  0  0  0  0  0  0  0  0  0
  -22.2246  -31.2158   19.6935 O   0  0  0  0  0  0  0  0  0  0  0  0
  -26.1237  -17.1048   21.4429 O   0  0  0  0  0  0  0  0  0  0  0  0
  -29.2795  -17.8395   19.5205 O   0  0  0  0  0  0  0  0  0  0  0  0
  -28.2411  -22.4500   19.0889 O   0  0  0  0  0  0  0  0  0  0  0  0
  -19.0203  -25.6360   27.1212 O   0  0  0  0  0  0  0  0  0  0  0  0
  -19.5139  -21.1395   21.4473 O   0  0  0  0  0  0  0  0  0  0  0  0
  -28.7988  -27.0508   19.8340 O   0  0  0  0  0  0  0  0  0  0  0  0
  -21.5362  -21.2729   19.1876 O   0  0  0  0  0  0  0  0  0  1  0  0
  -33.0165  -26.7132   23.3696 F   0  0  0  0  0  0  0  0  0  0  0  0
  -17.9866  -20.9738   26.9607 F   0  0  0  0  0  0  0  0  0  0  0  0
  -31.0846  -28.5609   19.4633 F   0  0  0  0  0  0  0  0  0  0  0  0
  1  2  1  0  0  0  0
  1  5  2  0  0  0  0
  2  6  2  0  0  0  0
  3  8  2  0  0  0  0
  3 18  1  0  0  0  0
  4  9  1  0  0  0  0
  4 18  2  0  0  0  0
  5 20  1  0  0  0  0
  6 22  1  0  0  0  0
  7 10  2  0  0  0  0
  7 21  1  0  0  0  0
  8 26  1  0  0  0  0
  9 26  2  0  0  0  0
 10 27  1  0  0  0  0
 11 12  2  0  0  0  0
 11 28  1  0  0  0  0
 12 29  1  0  0  0  0
 13 23  2  0  0  0  0
 13 25  1  0  0  0  0
 14 24  1  0  0  0  0
 14 27  2  0  0  0  0
 15 23  1  0  0  0  0
 15 30  2  0  0  0  0
 16 25  2  0  0  0  0
 16 30  1  0  0  0  0
 17 29  2  0  0  0  0
 17 31  1  0  0  0  0
 18 32  1  0  0  0  0
 19 32  1  0  0  0  0
 19 33  2  0  0  0  0
 19 34  1  0  0  0  0
 20 22  2  0  0  0  0
 20 39  1  0  0  0  0
 21 24  2  0  0  0  0
 21 40  1  0  0  0  0
 22 50  1  0  0  0  0
 23 51  1  0  0  0  0
 24 41  1  0  0  0  0
 25 70  1  0  0  0  0
 26 80  1  0  0  0  0
 27 81  1  0  0  0  0
 28 31  2  0  0  0  0
 28 80  1  0  0  0  0
 29 82  1  0  0  0  0
 30 83  1  0  0  0  0
 31 84  1  0  0  0  0
 32 64  2  0  0  0  0
 33 65  1  0  0  0  0
 33 68  1  0  0  0  0
 34 69  1  0  0  0  0
 34 74  2  0  0  0  0
 35 52  1  0  0  0  0
 35 71  1  0  0  0  0
 35 75  2  0  0  0  0
 36 61  1  0  0  0  0
 36 66  1  0  0  0  0
 36 76  2  0  0  0  0
 37 62  1  0  0  0  0
 37 72  1  0  0  0  0
 37 77  2  0  0  0  0
 38 67  1  0  0  0  0
 38 70  1  0  0  0  0
 38 78  2  0  0  0  0
 39 42  1  0  0  0  0
 40 52  1  0  0  0  0
 41 66  1  0  0  0  0
 42 44  1  0  0  0  0
 43 46  1  0  0  0  0
 43 48  1  0  0  0  0
 44 50  1  0  0  0  0
 45 47  1  0  0  0  0
 45 51  1  0  0  0  0
 46 53  1  0  0  0  0
 47 54  1  0  0  0  0
 48 67  1  0  0  0  0
 49 53  1  0  0  0  0
 49 67  1  0  0  0  0
 50 71  1  0  0  0  0
 51 79  1  0  0  0  0
 52 66  1  0  0  0  0
 53 65  1  0  0  0  0
 54 60  1  0  0  0  0
 54 79  1  0  0  0  0
 55 62  1  0  0  0  0
 56 63  1  0  0  0  0
 57 63  1  0  0  0  0
 58 63  1  0  0  0  0
 59 73  1  0  0  0  0
 60 81  1  0  0  0  0
 61 63  1  0  0  0  0
 61 72  1  0  0  0  0
 62 73  1  0  0  0  0
 64 65  1  0  0  0  0
M  CHG  1  73   1
M  ISO  4  38 100  60 101  70 100  81 101
M  END
> <Batch ID>
0142

> <Smiles>
CNC(C)C(=O)NC(C(=O)N1Cc2cc([101O:1][101CH2:1]C3CCC(c4cc(F)cc([100NH:0][100C:0](=O)N5CCCC(n6nc(-c7ccc(Oc8ccc(F)cc8F)cc7)c(C(N)=O)c6N)C5)c4)O3)ccc2CC1C(=O)NC1CCCc2ccccc21)C(C)(C)C

> <Shape>
0.206

> <Color>
0.086

> <Negative vol penalty>
0.000

$$$$

  -OEChem-04052302573D

 88 96  0     1  0  0  0  0  0999 V2000
  -29.7994  -23.8019   17.5517 C   0  0  0  0  0  0  0  0  0  0  0  0
  -28.6019  -23.8528   18.2580 C   0  0  0  0  0  0  0  0  0  0  0  0
  -26.2890  -13.6375   21.4829 C   0  0  0  0  0  0  0  0  0  0  0  0
  -24.3257  -13.6044   20.0752 C   0  0  0  0  0  0  0  0  0  0  0  0
  -30.8694  -24.6086   17.9366 C   0  0  0  0  0  0  0  0  0  0  0  0
  -28.4741  -24.7099   19.3505 C   0  0  0  0  0  0  0  0  0  0  0  0
  -24.0941  -27.2514   19.3238 C   0  0  0  0  0  0  0  0  0  0  0  0
  -25.8456  -12.4833   22.1285 C   0  0  0  0  0  0  0  0  0  0  0  0
  -23.8823  -12.4502   20.7209 C   0  0  0  0  0  0  0  0  0  0  0  0
  -22.9557  -26.5626   19.7402 C   0  0  0  0  0  0  0  0  0  0  0  0
  -24.5482   -9.1381   20.6350 C   0  0  0  0  0  0  0  0  0  0  0  0
  -24.0602   -8.1002   19.8412 C   0  0  0  0  0  0  0  0  0  0  0  0
  -23.1232  -27.6082   21.9077 C   0  0  0  0  0  0  0  0  0  0  0  0
  -18.6888  -21.9155   18.1809 C   0  0  0  0  0  0  0  0  0  0  0  0
  -20.5851  -20.4642   17.8139 C   0  0  0  0  0  0  0  0  0  0  0  0
  -20.7835  -22.3586   19.3002 C   0  0  0  0  0  0  0  0  0  0  0  0
  -21.9231   -8.2509   20.9579 C   0  0  0  0  0  0  0  0  0  0  0  0
  -25.5291  -14.1981   20.4563 C   0  0  0  0  0  0  0  0  0  0  0  0
  -26.8045  -15.4647   18.6461 C   0  0  0  0  0  0  0  0  0  0  0  0
  -30.7514  -25.4831   19.0285 C   0  0  0  0  0  0  0  0  0  0  0  0
  -24.7630  -28.1169   20.2013 C   0  0  0  0  0  0  0  0  0  0  0  0
  -29.5440  -25.5282   19.7513 C   0  0  0  0  0  0  0  0  0  0  0  0
  -24.2684  -28.3088   21.4992 C   0  0  0  0  0  0  0  0  0  0  0  0
  -19.2547  -20.8003   17.5632 C   0  0  0  0  0  0  0  0  0  0  0  0
  -19.4532  -22.6947   19.0494 C   0  0  0  0  0  0  0  0  0  0  0  0
  -21.3495  -21.2434   18.6825 C   0  0  0  0  0  0  0  0  0  0  0  0
  -24.6423  -11.8897   21.7475 C   0  0  0  0  0  0  0  0  0  0  0  0
  -22.4718  -26.7387   21.0332 C   0  0  0  0  0  0  0  0  0  0  0  0
  -23.7237   -9.7324   21.5903 C   0  0  0  0  0  0  0  0  0  0  0  0
  -22.7476   -7.6566   20.0026 C   0  0  0  0  0  0  0  0  0  0  0  0
  -22.4111   -9.2888   21.7518 C   0  0  0  0  0  0  0  0  0  0  0  0
  -25.9863  -15.3906   19.7893 C   0  0  0  0  0  0  0  0  0  0  0  0
  -26.9479  -16.8107   18.4131 C   0  0  0  0  0  0  0  0  0  0  0  0
  -27.3831  -14.4110   17.8647 C   0  0  0  0  0  0  0  0  0  0  0  0
  -27.6770  -28.2157   21.4673 C   0  0  0  0  0  0  0  0  0  0  0  0
  -18.5062  -25.8158   22.1493 C   0  0  0  0  0  0  0  0  0  0  0  0
  -26.6625  -31.0792   22.6044 C   0  0  0  0  0  0  0  0  0  0  0  0
  -24.0450  -33.0827   23.4885 C   0  0  0  0  0  0  0  0  0  0  0  0
  -23.5977  -21.5683   19.7717 C   0  0  0  0  0  0  0  0  0  0  0  0
  -31.9510  -26.3013   19.4361 C   0  0  0  0  0  0  0  0  0  0  0  0
  -25.9742  -28.8730   19.7282 C   0  0  0  0  0  0  0  0  0  0  0  0
  -24.9382  -29.2421   22.4732 C   0  0  0  0  0  0  0  0  0  0  0  0
  -31.6103  -27.4559   20.3747 C   0  0  0  0  0  0  0  0  0  0  0  0
  -26.9932  -21.0219   20.6930 C   0  0  0  0  0  0  0  0  0  0  0  0
  -30.6865  -26.9810   21.4918 C   0  0  0  0  0  0  0  0  0  0  0  0
  -27.1966  -19.5237   20.4560 C   0  0  0  0  0  0  0  0  0  0  0  0
  -25.5956  -21.3267   21.2293 C   0  0  0  0  0  0  0  0  0  0  0  0
  -24.6947  -19.2806   20.1944 C   0  0  0  0  0  0  0  0  0  0  0  0
  -29.3584  -26.4631   20.9267 C   0  0  1  0  0  0  0  0  0  0  0  0
  -26.8733  -29.3361   20.8704 C   0  0  1  0  0  0  0  0  0  0  0  0
  -26.0656  -18.9311   19.5927 C   0  0  2  0  0  0  0  0  0  0  0  0
  -17.7109  -18.8355   17.3565 C   0  0  0  0  0  0  0  0  0  0  0  0
  -23.5308  -35.3556   24.4196 C   0  0  0  0  0  0  0  0  0  0  0  0
  -16.4004  -25.2783   20.8760 C   0  0  0  0  0  0  0  0  0  0  0  0
  -16.8063  -24.1998   23.0777 C   0  0  0  0  0  0  0  0  0  0  0  0
  -27.4714  -30.1202   25.3857 C   0  0  0  0  0  0  0  0  0  0  0  0
  -26.0949  -31.9760   26.3498 C   0  0  0  0  0  0  0  0  0  0  0  0
  -28.0510  -32.5028   24.8942 C   0  0  0  0  0  0  0  0  0  0  0  0
  -22.5451  -33.8657   21.0603 C   0  0  0  0  0  0  0  0  0  0  0  0
  -18.4374  -19.9674   16.6345 C   0  0  0  0  0  0  0  0  0  0  0  0
  -18.8407  -23.9011   19.7178 C   0  0  0  0  0  0  0  0  0  0  0  0
  -19.6807  -25.4556   23.0579 C   0  0  0  0  0  0  0  0  0  0  0  0
  -18.2001  -23.5307   21.0629 C   0  0  0  0  0  0  0  0  0  0  0  0
  -20.9205  -26.2950   22.7804 C   0  0  0  0  0  0  0  0  0  1  0  0
  -25.9555  -31.5432   23.8549 C   0  0  1  0  0  0  0  0  0  0  0  0
  -23.7276  -34.5299   23.1578 C   0  0  2  0  0  0  0  0  0  0  0  0
  -17.4942  -24.7010   21.7926 C   0  0  0  0  0  0  0  0  0  0  0  0
  -26.8815  -31.5164   25.1037 C   0  0  0  0  0  0  0  0  0  0  0  0
  -25.6347  -16.5938   20.2506 N   0  0  0  0  0  0  0  0  0  0  0  0
  -26.2349  -17.4366   19.3929 N   0  0  0  0  0  0  0  0  0  0  0  0
  -26.1228  -29.9538   21.9656 N   0  0  0  0  0  0  0  0  0  0  0  0
  -24.5759  -20.7380   20.3585 N   0  0  0  0  0  0  0  0  0  0  0  0
  -27.6130  -17.5080   17.4678 N   0  0  0  0  0  0  0  0  0  0  0  0
  -27.1348  -13.0847   18.2434 N   0  0  0  0  0  0  0  0  0  0  0  0
  -22.7009  -20.9019   18.9373 N   0  0  0  0  0  0  0  0  0  0  0  0
  -28.4982  -27.5688   20.5636 N   0  0  0  0  0  0  0  0  0  0  0  0
  -25.4042  -32.8586   23.5480 N   0  0  0  0  0  0  0  0  0  0  0  0
  -22.4831  -34.6139   22.3423 N   0  3  0  0  0  0  0  0  0  0  0  0
  -28.1125  -14.6392   16.8700 O   0  0  0  0  0  0  0  0  0  0  0  0
  -27.5618  -27.9581   22.6598 O   0  0  0  0  0  0  0  0  0  0  0  0
  -18.3701  -26.9622   21.7152 O   0  0  0  0  0  0  0  0  0  0  0  0
  -27.6526  -31.6970   22.2048 O   0  0  0  0  0  0  0  0  0  0  0  0
  -23.1742  -32.2366   23.6791 O   0  0  0  0  0  0  0  0  0  0  0  0
  -23.5750  -22.7855   19.9716 O   0  0  0  0  0  0  0  0  0  0  0  0
  -24.2094  -10.7633   22.3771 O   0  0  0  0  0  0  0  0  0  0  0  0
  -21.3612  -26.0671   21.4424 O   0  0  0  0  0  0  0  0  0  1  0  0
  -22.2787   -6.6609   19.2391 F   0  0  0  0  0  0  0  0  0  0  0  0
  -21.6139   -9.8566   22.6671 F   0  0  0  0  0  0  0  0  0  0  0  0
  1  2  1  0  0  0  0
  1  5  2  0  0  0  0
  2  6  2  0  0  0  0
  3  8  2  0  0  0  0
  3 18  1  0  0  0  0
  4  9  1  0  0  0  0
  4 18  2  0  0  0  0
  5 20  1  0  0  0  0
  6 22  1  0  0  0  0
  7 10  2  0  0  0  0
  7 21  1  0  0  0  0
  8 27  1  0  0  0  0
  9 27  2  0  0  0  0
 10 28  1  0  0  0  0
 11 12  2  0  0  0  0
 11 29  1  0  0  0  0
 12 30  1  0  0  0  0
 13 23  1  0  0  0  0
 13 28  2  0  0  0  0
 14 24  1  0  0  0  0
 14 25  2  0  0  0  0
 15 24  2  0  0  0  0
 15 26  1  0  0  0  0
 16 25  1  0  0  0  0
 16 26  2  0  0  0  0
 17 30  2  0  0  0  0
 17 31  1  0  0  0  0
 18 32  1  0  0  0  0
 19 32  1  0  0  0  0
 19 33  2  0  0  0  0
 19 34  1  0  0  0  0
 20 22  2  0  0  0  0
 20 40  1  0  0  0  0
 21 23  2  0  0  0  0
 21 41  1  0  0  0  0
 22 49  1  0  0  0  0
 23 42  1  0  0  0  0
 24 60  1  0  0  0  0
 25 61  1  0  0  0  0
 26 75  1  0  0  0  0
 27 85  1  0  0  0  0
 28 86  1  0  0  0  0
 29 31  2  0  0  0  0
 29 85  1  0  0  0  0
 30 87  1  0  0  0  0
 31 88  1  0  0  0  0
 32 69  2  0  0  0  0
 33 70  1  0  0  0  0
 33 73  1  0  0  0  0
 34 74  1  0  0  0  0
 34 79  2  0  0  0  0
 35 50  1  0  0  0  0
 35 76  1  0  0  0  0
 35 80  2  0  0  0  0
 36 62  1  0  0  0  0
 36 67  1  0  0  0  0
 36 81  2  0  0  0  0
 37 65  1  0  0  0  0
 37 71  1  0  0  0  0
 37 82  2  0  0  0  0
 38 66  1  0  0  0  0
 38 77  1  0  0  0  0
 38 83  2  0  0  0  0
 39 72  1  0  0  0  0
 39 75  1  0  0  0  0
 39 84  2  0  0  0  0
 40 43  1  0  0  0  0
 41 50  1  0  0  0  0
 42 71  1  0  0  0  0
 43 45  1  0  0  0  0
 44 46  1  0  0  0  0
 44 47  1  0  0  0  0
 45 49  1  0  0  0  0
 46 51  1  0  0  0  0
 47 72  1  0  0  0  0
 48 51  1  0  0  0  0
 48 72  1  0  0  0  0
 49 76  1  0  0  0  0
 50 71  1  0  0  0  0
 51 70  1  0  0  0  0
 52 60  1  0  0  0  0
 53 66  1  0  0  0  0
 54 67  1  0  0  0  0
 55 67  1  0  0  0  0
 56 68  1  0  0  0  0
 57 68  1  0  0  0  0
 58 68  1  0  0  0  0
 59 78  1  0  0  0  0
 61 63  1  0  0  0  0
 62 64  1  0  0  0  0
 63 67  1  0  0  0  0
 64 86  1  0  0  0  0
 65 68  1  0  0  0  0
 65 77  1  0  0  0  0
 66 78  1  0  0  0  0
 69 70  1  0  0  0  0
M  CHG  1  78   1
M  ISO  4  39 100  64 101  75 100  86 101
M  END
> <Batch ID>
0142

> <Smiles>
CCc1cc(CCC(C)(C)C(=O)C[101CH2:1][101O:1]c2ccc3c(c2)CN(C(=O)C(NC(=O)C(C)NC)C(C)(C)C)C(C(=O)NC2CCCc4ccccc42)C3)cc([100NH:0][100C:0](=O)N2CCCC(n3nc(-c4ccc(Oc5ccc(F)cc5F)cc4)c(C(N)=O)c3N)C2)c1

> <Shape>
0.272

> <Color>
0.067

> <Negative vol penalty>
0.000

$$$$

  -OEChem-04052302573D

 86 95  0     1  0  0  0  0  0999 V2000
  -22.8767  -29.0673   16.4880 C   0  0  0  0  0  0  0  0  0  0  0  0
  -23.0641  -28.2150   17.5714 C   0  0  0  0  0  0  0  0  0  0  0  0
  -23.0797   -9.8115   19.9356 C   0  0  0  0  0  0  0  0  0  0  0  0
  -23.8329   -9.8260   22.2312 C   0  0  0  0  0  0  0  0  0  0  0  0
  -23.9801  -29.5925   15.8167 C   0  0  0  0  0  0  0  0  0  0  0  0
  -24.3551  -27.8865   17.9836 C   0  0  0  0  0  0  0  0  0  0  0  0
  -26.2467  -26.8943   23.7232 C   0  0  0  0  0  0  0  0  0  0  0  0
  -22.3443   -8.6527   20.1842 C   0  0  0  0  0  0  0  0  0  0  0  0
  -23.0973   -8.6672   22.4798 C   0  0  0  0  0  0  0  0  0  0  0  0
  -26.4585  -25.7249   24.4521 C   0  0  0  0  0  0  0  0  0  0  0  0
  -19.3982   -7.8339   21.6274 C   0  0  0  0  0  0  0  0  0  0  0  0
  -18.0931   -7.7770   21.1384 C   0  0  0  0  0  0  0  0  0  0  0  0
  -29.8136  -17.4570   23.1479 C   0  0  0  0  0  0  0  0  0  0  0  0
  -31.7768  -18.3753   24.2153 C   0  0  0  0  0  0  0  0  0  0  0  0
  -28.8023  -25.8040   23.8865 C   0  0  0  0  0  0  0  0  0  0  0  0
  -32.0059  -16.6254   22.5654 C   0  0  0  0  0  0  0  0  0  0  0  0
  -18.6719   -5.8375   19.8191 C   0  0  0  0  0  0  0  0  0  0  0  0
  -23.8241  -10.3981   20.9591 C   0  0  0  0  0  0  0  0  0  0  0  0
  -30.3916  -18.3464   24.0537 C   0  0  0  0  0  0  0  0  0  0  0  0
  -24.1464  -12.9258   20.8383 C   0  0  0  0  0  0  0  0  0  0  0  0
  -25.2853  -29.2780   16.2269 C   0  0  0  0  0  0  0  0  0  0  0  0
  -27.3110  -27.5225   23.0604 C   0  0  0  0  0  0  0  0  0  0  0  0
  -25.4770  -28.4069   17.3163 C   0  0  0  0  0  0  0  0  0  0  0  0
  -28.6018  -26.9827   23.1520 C   0  0  0  0  0  0  0  0  0  0  0  0
  -30.6207  -16.5964   22.4038 C   0  0  0  0  0  0  0  0  0  0  0  0
  -22.3530   -8.0805   21.4562 C   0  0  0  0  0  0  0  0  0  0  0  0
  -27.7359  -25.1779   24.5315 C   0  0  0  0  0  0  0  0  0  0  0  0
  -20.3402   -6.8926   21.2122 C   0  0  0  0  0  0  0  0  0  0  0  0
  -17.7300   -6.7789   20.2342 C   0  0  0  0  0  0  0  0  0  0  0  0
  -32.5839  -17.5148   23.4712 C   0  0  0  0  0  0  0  0  0  0  0  0
  -19.9770   -5.8944   20.3081 C   0  0  0  0  0  0  0  0  0  0  0  0
  -24.5845  -11.5949   20.7028 C   0  0  0  0  0  0  0  0  0  0  0  0
  -25.2337  -13.6836   20.4777 C   0  0  0  0  0  0  0  0  0  0  0  0
  -29.5304  -19.2633   24.8502 C   0  0  0  0  0  0  0  0  0  0  0  0
  -22.8707  -13.4319   21.2532 C   0  0  0  0  0  0  0  0  0  0  0  0
  -27.9794  -28.1967   20.0268 C   0  0  0  0  0  0  0  0  0  0  0  0
  -30.4991  -29.7639   21.3372 C   0  0  0  0  0  0  0  0  0  0  0  0
  -32.6464  -30.1092   23.9671 C   0  0  0  0  0  0  0  0  0  0  0  0
  -30.6909  -14.7724   20.6676 C   0  0  0  0  0  0  0  0  0  0  0  0
  -26.4468  -29.8324   15.4406 C   0  0  0  0  0  0  0  0  0  0  0  0
  -27.0709  -28.7981   22.3004 C   0  0  0  0  0  0  0  0  0  0  0  0
  -29.7818  -27.6297   22.4755 C   0  0  0  0  0  0  0  0  0  0  0  0
  -27.7818  -29.7327   16.1741 C   0  0  0  0  0  0  0  0  0  0  0  0
  -29.6025  -12.3483   18.2978 C   0  0  0  0  0  0  0  0  0  0  0  0
  -27.9571  -28.3426   16.7771 C   0  0  0  0  0  0  0  0  0  0  0  0
  -27.0671  -19.3385   25.1946 C   0  0  0  0  0  0  0  0  0  0  0  0
  -26.3361  -20.6350   25.5311 C   0  0  0  0  0  0  0  0  0  0  0  0
  -28.1639  -12.0457   18.7233 C   0  0  0  0  0  0  0  0  0  0  0  0
  -28.2012  -21.2664   24.1926 C   0  0  0  0  0  0  0  0  0  0  0  0
  -30.5122  -12.5851   19.5019 C   0  0  0  0  0  0  0  0  0  0  0  0
  -28.5956  -13.2954   20.8771 C   0  0  0  0  0  0  0  0  0  0  0  0
  -26.8618  -28.0467   17.8088 C   0  0  1  0  0  0  0  0  0  0  0  0
  -28.2295  -19.7386   24.2784 C   0  0  1  0  0  0  0  0  0  0  0  0
  -28.1329  -29.0705   21.2395 C   0  0  1  0  0  0  0  0  0  0  0  0
  -27.4187  -21.7033   25.4307 C   0  0  1  0  0  0  0  0  0  0  0  0
  -27.6276  -13.1137   19.6966 C   0  0  2  0  0  0  0  0  0  0  0  0
  -34.6240  -31.4511   24.7325 C   0  0  0  0  0  0  0  0  0  0  0  0
  -32.3054  -28.1609   19.4723 C   0  0  0  0  0  0  0  0  0  0  0  0
  -34.2503  -28.8166   20.9060 C   0  0  0  0  0  0  0  0  0  0  0  0
  -32.9329  -30.5695   19.7166 C   0  0  0  0  0  0  0  0  0  0  0  0
  -31.1715  -31.1653   26.3055 C   0  0  0  0  0  0  0  0  0  0  0  0
  -26.8610  -23.1117   25.3196 C   0  0  0  0  0  0  0  0  0  1  0  0
  -31.9142  -29.3913   21.7082 C   0  0  1  0  0  0  0  0  0  0  0  0
  -33.1078  -31.3337   24.7367 C   0  0  2  0  0  0  0  0  0  0  0  0
  -32.8283  -29.2211   20.4620 C   0  0  0  0  0  0  0  0  0  0  0  0
  -25.8513  -11.5087   20.2882 N   0  0  0  0  0  0  0  0  0  0  0  0
  -29.9044  -19.6633   26.0237 N   0  0  0  0  0  0  0  0  0  0  0  0
  -26.2185  -12.7951   20.1601 N   0  0  0  0  0  0  0  0  0  0  0  0
  -29.4949  -28.8719   21.7392 N   0  0  0  0  0  0  0  0  0  0  0  0
  -29.9426  -13.6121   20.3770 N   0  0  0  0  0  0  0  0  0  0  0  0
  -25.4338  -15.0167   20.4044 N   0  0  0  0  0  0  0  0  0  0  0  0
  -21.8650  -12.5150   21.5882 N   0  0  0  0  0  0  0  0  0  0  0  0
  -30.0339  -15.6928   21.4835 N   0  0  0  0  0  0  0  0  0  0  0  0
  -27.1472  -28.7219   19.0567 N   0  0  0  0  0  0  0  0  0  0  0  0
  -32.3706  -30.4081   22.6496 N   0  0  0  0  0  0  0  0  0  0  0  0
  -32.6461  -31.2604   26.1518 N   0  3  0  0  0  0  0  0  0  0  0  0
  -22.6246  -14.6606   21.3090 O   0  0  0  0  0  0  0  0  0  0  0  0
  -28.5731  -27.1260   19.9745 O   0  0  0  0  0  0  0  0  0  0  0  0
  -30.2917  -30.8115   20.7198 O   0  0  0  0  0  0  0  0  0  0  0  0
  -32.5447  -28.9980   24.4822 O   0  0  0  0  0  0  0  0  0  0  0  0
  -31.8200  -14.9497   20.2032 O   0  0  0  0  0  0  0  0  0  0  0  0
  -21.6352   -6.9499   21.6992 O   0  0  0  0  0  0  0  0  0  0  0  0
  -27.9452  -24.0362   25.2417 O   0  0  0  0  0  0  0  0  0  1  0  0
  -16.4763   -6.7235   19.7659 F   0  0  0  0  0  0  0  0  0  0  0  0
  -33.9138  -17.5405   23.6285 F   0  0  0  0  0  0  0  0  0  0  0  0
  -20.8773   -4.9867   19.9065 F   0  0  0  0  0  0  0  0  0  0  0  0
  1  2  1  0  0  0  0
  1  5  2  0  0  0  0
  2  6  2  0  0  0  0
  3  8  2  0  0  0  0
  3 18  1  0  0  0  0
  4  9  1  0  0  0  0
  4 18  2  0  0  0  0
  5 21  1  0  0  0  0
  6 23  1  0  0  0  0
  7 10  2  0  0  0  0
  7 22  1  0  0  0  0
  8 26  1  0  0  0  0
  9 26  2  0  0  0  0
 10 27  1  0  0  0  0
 11 12  2  0  0  0  0
 11 28  1  0  0  0  0
 12 29  1  0  0  0  0
 13 19  2  0  0  0  0
 13 25  1  0  0  0  0
 14 19  1  0  0  0  0
 14 30  2  0  0  0  0
 15 24  1  0  0  0  0
 15 27  2  0  0  0  0
 16 25  2  0  0  0  0
 16 30  1  0  0  0  0
 17 29  2  0  0  0  0
 17 31  1  0  0  0  0
 18 32  1  0  0  0  0
 19 34  1  0  0  0  0
 20 32  1  0  0  0  0
 20 33  2  0  0  0  0
 20 35  1  0  0  0  0
 21 23  2  0  0  0  0
 21 40  1  0  0  0  0
 22 24  2  0  0  0  0
 22 41  1  0  0  0  0
 23 52  1  0  0  0  0
 24 42  1  0  0  0  0
 25 73  1  0  0  0  0
 26 82  1  0  0  0  0
 27 83  1  0  0  0  0
 28 31  2  0  0  0  0
 28 82  1  0  0  0  0
 29 84  1  0  0  0  0
 30 85  1  0  0  0  0
 31 86  1  0  0  0  0
 32 66  2  0  0  0  0
 33 68  1  0  0  0  0
 33 71  1  0  0  0  0
 34 53  1  0  0  0  0
 34 67  2  0  0  0  0
 35 72  1  0  0  0  0
 35 77  2  0  0  0  0
 36 54  1  0  0  0  0
 36 74  1  0  0  0  0
 36 78  2  0  0  0  0
 37 63  1  0  0  0  0
 37 69  1  0  0  0  0
 37 79  2  0  0  0  0
 38 64  1  0  0  0  0
 38 75  1  0  0  0  0
 38 80  2  0  0  0  0
 39 70  1  0  0  0  0
 39 73  1  0  0  0  0
 39 81  2  0  0  0  0
 40 43  1  0  0  0  0
 41 54  1  0  0  0  0
 42 69  1  0  0  0  0
 43 45  1  0  0  0  0
 44 48  1  0  0  0  0
 44 50  1  0  0  0  0
 45 52  1  0  0  0  0
 46 47  1  0  0  0  0
 46 53  1  0  0  0  0
 47 55  1  0  0  0  0
 48 56  1  0  0  0  0
 49 53  1  0  0  0  0
 49 55  1  0  0  0  0
 50 70  1  0  0  0  0
 51 56  1  0  0  0  0
 51 70  1  0  0  0  0
 52 74  1  0  0  0  0
 54 69  1  0  0  0  0
 55 62  1  0  0  0  0
 56 68  1  0  0  0  0
 57 64  1  0  0  0  0
 58 65  1  0  0  0  0
 59 65  1  0  0  0  0
 60 65  1  0  0  0  0
 61 76  1  0  0  0  0
 62 83  1  0  0  0  0
 63 65  1  0  0  0  0
 63 75  1  0  0  0  0
 64 76  1  0  0  0  0
 66 68  1  0  0  0  0
M  CHG  1  76   1
M  ISO  4  39 100  62 101  73 100  83 101
M  END
> <Batch ID>
0142

> <Smiles>
CNC(C)C(=O)NC(C(=O)N1Cc2cc([101O:1][101CH2:1]C3CCC(C(=N)c4cc(F)cc([100NH:0][100C:0](=O)N5CCCC(n6nc(-c7ccc(Oc8ccc(F)cc8F)cc7)c(C(N)=O)c6N)C5)c4)C3)ccc2CC1C(=O)NC1CCCc2ccccc21)C(C)(C)C

> <Shape>
0.183

> <Color>
0.208

> <Negative vol penalty>
0.000

$$$$

  -OEChem-04052302573D

 89 98  0     1  0  0  0  0  0999 V2000
  -28.9347  -12.6460   19.9008 C   0  0  0  0  0  0  0  0  0  0  0  0
  -28.7259  -14.0213   19.8803 C   0  0  0  0  0  0  0  0  0  0  0  0
  -28.8237  -26.3467   18.7209 C   0  0  0  0  0  0  0  0  0  0  0  0
  -26.7736  -25.1518   18.2669 C   0  0  0  0  0  0  0  0  0  0  0  0
  -27.8685  -11.7839   20.1532 C   0  0  0  0  0  0  0  0  0  0  0  0
  -27.4503  -14.5352   20.1111 C   0  0  0  0  0  0  0  0  0  0  0  0
  -26.0506  -19.7597   22.9836 C   0  0  0  0  0  0  0  0  0  0  0  0
  -29.5271  -25.1423   18.7149 C   0  0  0  0  0  0  0  0  0  0  0  0
  -27.4770  -23.9472   18.2609 C   0  0  0  0  0  0  0  0  0  0  0  0
  -25.7267  -21.0314   22.5126 C   0  0  0  0  0  0  0  0  0  0  0  0
  -31.8042  -22.3447   19.1758 C   0  0  0  0  0  0  0  0  0  0  0  0
  -32.7335  -22.1296   20.1934 C   0  0  0  0  0  0  0  0  0  0  0  0
  -23.3818  -20.5031   22.7170 C   0  0  0  0  0  0  0  0  0  0  0  0
  -18.0120  -26.9054   23.2685 C   0  0  0  0  0  0  0  0  0  0  0  0
  -19.7767  -28.5307   23.7045 C   0  0  0  0  0  0  0  0  0  0  0  0
  -30.9774  -22.3337   21.8402 C   0  0  0  0  0  0  0  0  0  0  0  0
  -27.4469  -26.3515   18.4969 C   0  0  0  0  0  0  0  0  0  0  0  0
  -26.4702  -28.4401   17.4053 C   0  0  0  0  0  0  0  0  0  0  0  0
  -26.5811  -12.2879   20.3969 C   0  0  0  0  0  0  0  0  0  0  0  0
  -25.0409  -18.8449   23.3150 C   0  0  0  0  0  0  0  0  0  0  0  0
  -26.3656  -13.6789   20.3658 C   0  0  0  0  0  0  0  0  0  0  0  0
  -23.6956  -19.2214   23.1943 C   0  0  0  0  0  0  0  0  0  0  0  0
  -18.5659  -26.7298   22.0225 C   0  0  0  0  0  0  0  0  0  0  0  0
  -19.6836  -27.4195   21.6167 C   0  0  0  0  0  0  0  0  0  0  0  0
  -20.3155  -28.3303   22.4312 C   0  0  0  0  0  0  0  0  0  0  0  0
  -28.8538  -23.9425   18.4849 C   0  0  0  0  0  0  0  0  0  0  0  0
  -24.3921  -21.4022   22.3765 C   0  0  0  0  0  0  0  0  0  0  0  0
  -30.4615  -22.5544   19.4903 C   0  0  0  0  0  0  0  0  0  0  0  0
  -32.3202  -22.1241   21.5256 C   0  0  0  0  0  0  0  0  0  0  0  0
  -18.6324  -27.8229   24.1204 C   0  0  0  0  0  0  0  0  0  0  0  0
  -30.0481  -22.5489   20.8225 C   0  0  0  0  0  0  0  0  0  0  0  0
  -26.7196  -27.5953   18.5035 C   0  0  0  0  0  0  0  0  0  0  0  0
  -25.7456  -29.4817   17.9310 C   0  0  0  0  0  0  0  0  0  0  0  0
  -26.8587  -28.2960   16.0327 C   0  0  0  0  0  0  0  0  0  0  0  0
  -24.1707  -15.9802   22.2471 C   0  0  0  0  0  0  0  0  0  0  0  0
  -22.5138  -24.3709   21.2572 C   0  0  0  0  0  0  0  0  0  0  0  0
  -22.1041  -16.1080   24.7442 C   0  0  0  0  0  0  0  0  0  0  0  0
  -20.3413  -18.0236   26.9509 C   0  0  0  0  0  0  0  0  0  0  0  0
  -22.1964  -29.9826   22.7119 C   0  0  0  0  0  0  0  0  0  0  0  0
  -25.4504  -11.3147   20.6183 C   0  0  0  0  0  0  0  0  0  0  0  0
  -25.4069  -17.4864   23.8469 C   0  0  0  0  0  0  0  0  0  0  0  0
  -18.4368  -25.9792   20.7290 C   0  0  0  0  0  0  0  0  0  0  0  0
  -22.5741  -18.2834   23.5558 C   0  0  0  0  0  0  0  0  0  0  0  0
  -24.2046  -11.9561   21.2240 C   0  0  0  0  0  0  0  0  0  0  0  0
  -25.1017  -31.9154   22.0050 C   0  0  0  0  0  0  0  0  0  0  0  0
  -23.8660  -13.2543   20.4982 C   0  0  0  0  0  0  0  0  0  0  0  0
  -25.8206  -31.1069   20.9225 C   0  0  0  0  0  0  0  0  0  0  0  0
  -24.4347  -31.0108   23.0396 C   0  0  0  0  0  0  0  0  0  0  0  0
  -24.2588  -29.1787   21.4021 C   0  0  0  0  0  0  0  0  0  0  0  0
  -19.7086  -26.7743   20.2556 C   0  0  2  0  0  0  0  0  0  0  0  0
  -25.0015  -14.2757   20.6361 C   0  0  1  0  0  0  0  0  0  0  0  0
  -24.2970  -16.4553   23.6670 C   0  0  1  0  0  0  0  0  0  0  0  0
  -24.8912  -30.0458   20.3012 C   0  0  2  0  0  0  0  0  0  0  0  0
  -18.7096  -17.8448   28.8491 C   0  0  0  0  0  0  0  0  0  0  0  0
  -19.8651  -15.5087   22.7599 C   0  0  0  0  0  0  0  0  0  0  0  0
  -18.2232  -16.2733   24.4884 C   0  0  0  0  0  0  0  0  0  0  0  0
  -19.6783  -14.2982   24.9403 C   0  0  0  0  0  0  0  0  0  0  0  0
  -22.2535  -24.5662   18.1872 C   0  0  0  0  0  0  0  0  0  0  0  0
  -20.8258  -26.4955   17.4865 C   0  0  0  0  0  0  0  0  0  0  0  0
  -19.7586  -24.4074   18.2964 C   0  0  0  0  0  0  0  0  0  0  0  0
  -22.2154  -19.3230   28.8371 C   0  0  0  0  0  0  0  0  0  0  0  0
  -21.0854  -24.8557   21.0698 C   0  0  0  0  0  0  0  0  0  0  0  0
  -22.6967  -22.9664   21.7979 C   0  0  0  0  0  0  0  0  0  1  0  0
  -20.6952  -16.6129   24.9411 C   0  0  1  0  0  0  0  0  0  0  0  0
  -20.1764  -17.9313   28.4571 C   0  0  2  0  0  0  0  0  0  0  0  0
  -20.9672  -25.9328   19.9715 C   0  0  1  0  0  0  0  0  0  0  0  0
  -19.6363  -15.6905   24.2737 C   0  0  0  0  0  0  0  0  0  0  0  0
  -20.9660  -25.3464   18.5121 C   0  0  0  0  0  0  0  0  0  0  0  0
  -26.1962  -28.0602   19.6410 N   0  0  0  0  0  0  0  0  0  0  0  0
  -25.6107  -29.2084   19.2604 N   0  0  0  0  0  0  0  0  0  0  0  0
  -22.9829  -16.9640   24.0655 N   0  0  0  0  0  0  0  0  0  0  0  0
  -23.5664  -30.0342   22.3785 N   0  0  0  0  0  0  0  0  0  0  0  0
  -25.2172  -30.5957   17.3812 N   0  0  0  0  0  0  0  0  0  0  0  0
  -27.6003  -27.1655   15.6634 N   0  0  0  0  0  0  0  0  0  0  0  0
  -21.4638  -29.0368   21.9953 N   0  0  0  0  0  0  0  0  0  0  0  0
  -24.9691  -14.8938   21.9443 N   0  0  0  0  0  0  0  0  0  0  0  0
  -20.5192  -16.7813   26.3795 N   0  0  0  0  0  0  0  0  0  0  0  0
  -20.7696  -19.1285   29.1174 N   0  3  0  0  0  0  0  0  0  0  0  0
  -26.5712  -29.1528   15.1628 O   0  0  0  0  0  0  0  0  0  0  0  0
  -23.4045  -16.5557   21.4833 O   0  0  0  0  0  0  0  0  0  0  0  0
  -23.4708  -25.0944   20.9806 O   0  0  0  0  0  0  0  0  0  0  0  0
  -22.4155  -14.9979   25.1829 O   0  0  0  0  0  0  0  0  0  0  0  0
  -20.3112  -19.0906   26.3416 O   0  0  0  0  0  0  0  0  0  0  0  0
  -21.7035  -30.7414   23.5505 O   0  0  0  0  0  0  0  0  0  0  0  0
  -29.5399  -22.7670   18.4787 O   0  0  0  0  0  0  0  0  0  0  0  0
  -24.0700  -22.6551   21.9119 O   0  0  0  0  0  0  0  0  0  1  0  0
  -33.2124  -21.9160   22.5027 F   0  0  0  0  0  0  0  0  0  0  0  0
  -18.1344  -28.0331   25.3464 F   0  0  0  0  0  0  0  0  0  0  0  0
  -28.7593  -22.7486   21.1307 F   0  0  0  0  0  0  0  0  0  0  0  0
  1  2  1  0  0  0  0
  1  5  2  0  0  0  0
  2  6  2  0  0  0  0
  3  8  2  0  0  0  0
  3 17  1  0  0  0  0
  4  9  1  0  0  0  0
  4 17  2  0  0  0  0
  5 19  1  0  0  0  0
  6 21  1  0  0  0  0
  7 10  2  0  0  0  0
  7 20  1  0  0  0  0
  8 26  1  0  0  0  0
  9 26  2  0  0  0  0
 10 27  1  0  0  0  0
 11 12  2  0  0  0  0
 11 28  1  0  0  0  0
 12 29  1  0  0  0  0
 13 22  1  0  0  0  0
 13 27  2  0  0  0  0
 14 23  1  0  0  0  0
 14 30  2  0  0  0  0
 15 25  2  0  0  0  0
 15 30  1  0  0  0  0
 16 29  2  0  0  0  0
 16 31  1  0  0  0  0
 17 32  1  0  0  0  0
 18 32  1  0  0  0  0
 18 33  2  0  0  0  0
 18 34  1  0  0  0  0
 19 21  2  0  0  0  0
 19 40  1  0  0  0  0
 20 22  2  0  0  0  0
 20 41  1  0  0  0  0
 21 51  1  0  0  0  0
 22 43  1  0  0  0  0
 23 24  2  0  0  0  0
 23 42  1  0  0  0  0
 24 25  1  0  0  0  0
 24 50  1  0  0  0  0
 25 75  1  0  0  0  0
 26 85  1  0  0  0  0
 27 86  1  0  0  0  0
 28 31  2  0  0  0  0
 28 85  1  0  0  0  0
 29 87  1  0  0  0  0
 30 88  1  0  0  0  0
 31 89  1  0  0  0  0
 32 69  2  0  0  0  0
 33 70  1  0  0  0  0
 33 73  1  0  0  0  0
 34 74  1  0  0  0  0
 34 79  2  0  0  0  0
 35 52  1  0  0  0  0
 35 76  1  0  0  0  0
 35 80  2  0  0  0  0
 36 62  1  0  0  0  0
 36 63  1  0  0  0  0
 36 81  2  0  0  0  0
 37 64  1  0  0  0  0
 37 71  1  0  0  0  0
 37 82  2  0  0  0  0
 38 65  1  0  0  0  0
 38 77  1  0  0  0  0
 38 83  2  0  0  0  0
 39 72  1  0  0  0  0
 39 75  1  0  0  0  0
 39 84  2  0  0  0  0
 40 44  1  0  0  0  0
 41 52  1  0  0  0  0
 42 50  1  0  0  0  0
 43 71  1  0  0  0  0
 44 46  1  0  0  0  0
 45 47  1  0  0  0  0
 45 48  1  0  0  0  0
 46 51  1  0  0  0  0
 47 53  1  0  0  0  0
 48 72  1  0  0  0  0
 49 53  1  0  0  0  0
 49 72  1  0  0  0  0
 50 66  1  0  0  0  0
 51 76  1  0  0  0  0
 52 71  1  0  0  0  0
 53 70  1  0  0  0  0
 54 65  1  0  0  0  0
 55 67  1  0  0  0  0
 56 67  1  0  0  0  0
 57 67  1  0  0  0  0
 58 68  1  0  0  0  0
 59 68  1  0  0  0  0
 60 68  1  0  0  0  0
 61 78  1  0  0  0  0
 62 66  1  0  0  0  0
 63 86  1  0  0  0  0
 64 67  1  0  0  0  0
 64 77  1  0  0  0  0
 65 78  1  0  0  0  0
 66 68  1  0  0  0  0
 69 70  1  0  0  0  0
M  CHG  1  78   1
M  ISO  4  39 100  63 101  75 100  86 101
M  END
> <Batch ID>
0142

> <Smiles>
CNC(C)C(=O)NC(C(=O)N1Cc2cc([101O:1][101CH2:1]C(=O)CC(C3Cc4cc(F)cc([100NH:0][100C:0](=O)N5CCCC(n6nc(-c7ccc(Oc8ccc(F)cc8F)cc7)c(C(N)=O)c6N)C5)c43)C(C)(C)C)ccc2CC1C(=O)NC1CCCc2ccccc21)C(C)(C)C

> <Shape>
0.203

> <Color>
0.077

> <Negative vol penalty>
0.000

$$$$

  -OEChem-04052302573D

 85 94  0     1  0  0  0  0  0999 V2000
  -19.2524  -32.8421   16.1143 C   0  0  0  0  0  0  0  0  0  0  0  0
  -20.2549  -31.8779   16.0863 C   0  0  0  0  0  0  0  0  0  0  0  0
  -23.2672   -9.6456   20.3180 C   0  0  0  0  0  0  0  0  0  0  0  0
  -23.2325   -9.4474   22.7256 C   0  0  0  0  0  0  0  0  0  0  0  0
  -19.4168  -33.9948   16.8812 C   0  0  0  0  0  0  0  0  0  0  0  0
  -21.4228  -32.0663   16.8245 C   0  0  0  0  0  0  0  0  0  0  0  0
  -31.8365  -19.7509   21.3588 C   0  0  0  0  0  0  0  0  0  0  0  0
  -24.7487  -27.7492   19.6187 C   0  0  0  0  0  0  0  0  0  0  0  0
  -23.2727   -8.2554   20.2037 C   0  0  0  0  0  0  0  0  0  0  0  0
  -23.2379   -8.0573   22.6113 C   0  0  0  0  0  0  0  0  0  0  0  0
  -31.8079  -21.0639   20.8902 C   0  0  0  0  0  0  0  0  0  0  0  0
  -25.9115  -27.0750   19.2487 C   0  0  0  0  0  0  0  0  0  0  0  0
  -21.0125   -5.6069   21.9303 C   0  0  0  0  0  0  0  0  0  0  0  0
  -20.1280   -4.8885   22.7347 C   0  0  0  0  0  0  0  0  0  0  0  0
  -29.8614  -20.5452   19.5612 C   0  0  0  0  0  0  0  0  0  0  0  0
  -27.2226  -28.6510   20.5201 C   0  0  0  0  0  0  0  0  0  0  0  0
  -21.9910   -3.7367   23.7545 C   0  0  0  0  0  0  0  0  0  0  0  0
  -23.2471  -10.2416   21.5790 C   0  0  0  0  0  0  0  0  0  0  0  0
  -22.1170  -12.5221   21.7513 C   0  0  0  0  0  0  0  0  0  0  0  0
  -20.5832  -34.1930   17.6368 C   0  0  0  0  0  0  0  0  0  0  0  0
  -30.8818  -18.8198   20.9256 C   0  0  0  0  0  0  0  0  0  0  0  0
  -24.8150  -28.8878   20.4346 C   0  0  0  0  0  0  0  0  0  0  0  0
  -21.6035  -33.2233   17.6012 C   0  0  0  0  0  0  0  0  0  0  0  0
  -29.8746  -19.2240   20.0315 C   0  0  0  0  0  0  0  0  0  0  0  0
  -26.0589  -29.3364   20.9011 C   0  0  0  0  0  0  0  0  0  0  0  0
  -23.2580   -7.4613   21.3503 C   0  0  0  0  0  0  0  0  0  0  0  0
  -30.8226  -21.4601   19.9900 C   0  0  0  0  0  0  0  0  0  0  0  0
  -27.1490  -27.5275   19.6970 C   0  0  0  0  0  0  0  0  0  0  0  0
  -22.3863   -5.3902   22.0379 C   0  0  0  0  0  0  0  0  0  0  0  0
  -20.6172   -3.9534   23.6468 C   0  0  0  0  0  0  0  0  0  0  0  0
  -22.8755   -4.4551   22.9500 C   0  0  0  0  0  0  0  0  0  0  0  0
  -23.2420  -11.6775   21.6978 C   0  0  0  0  0  0  0  0  0  0  0  0
  -22.6418  -13.7864   21.8637 C   0  0  0  0  0  0  0  0  0  0  0  0
  -20.7222  -12.1932   21.7036 C   0  0  0  0  0  0  0  0  0  0  0  0
  -24.0198  -31.9457   20.0875 C   0  0  0  0  0  0  0  0  0  0  0  0
  -29.5030  -24.7808   19.4095 C   0  0  0  0  0  0  0  0  0  0  0  0
  -24.8159  -32.1056   23.2281 C   0  0  0  0  0  0  0  0  0  0  0  0
  -26.5807  -30.7975   25.8398 C   0  0  0  0  0  0  0  0  0  0  0  0
  -27.6276  -16.2167   20.2090 C   0  0  0  0  0  0  0  0  0  0  0  0
  -20.7358  -35.4769   18.4133 C   0  0  0  0  0  0  0  0  0  0  0  0
  -30.9171  -17.4138   21.4670 C   0  0  0  0  0  0  0  0  0  0  0  0
  -23.5493  -29.5881   20.8467 C   0  0  0  0  0  0  0  0  0  0  0  0
  -26.1827  -30.5418   21.7956 C   0  0  0  0  0  0  0  0  0  0  0  0
  -28.8314  -18.2571   19.5344 C   0  0  0  0  0  0  0  0  0  0  0  0
  -21.8434  -35.4262   19.4625 C   0  0  0  0  0  0  0  0  0  0  0  0
  -26.4582  -16.1305   23.5257 C   0  0  0  0  0  0  0  0  0  0  0  0
  -23.1128  -34.8227   18.8700 C   0  0  0  0  0  0  0  0  0  0  0  0
  -25.3824  -15.0486   23.4408 C   0  0  0  0  0  0  0  0  0  0  0  0
  -30.1113  -16.4403   20.6133 C   0  0  0  0  0  0  0  0  0  0  0  0
  -27.6969  -15.7732   22.7024 C   0  0  0  0  0  0  0  0  0  0  0  0
  -26.3271  -14.3593   21.2050 C   0  0  0  0  0  0  0  0  0  0  0  0
  -22.8742  -33.3801   18.4080 C   0  0  1  0  0  0  0  0  0  0  0  0
  -23.7766  -31.0388   21.2606 C   0  0  1  0  0  0  0  0  0  0  0  0
  -25.0471  -14.7179   21.9757 C   0  0  1  0  0  0  0  0  0  0  0  0
  -27.0605  -31.1676   28.2750 C   0  0  0  0  0  0  0  0  0  0  0  0
  -26.6905  -34.4027   22.5071 C   0  0  0  0  0  0  0  0  0  0  0  0
  -27.8100  -34.0929   24.7250 C   0  0  0  0  0  0  0  0  0  0  0  0
  -25.4012  -34.7335   24.6244 C   0  0  0  0  0  0  0  0  0  0  0  0
  -25.4314  -28.1738   26.5841 C   0  0  0  0  0  0  0  0  0  0  0  0
  -29.5247  -23.2828   19.1846 C   0  0  0  0  0  0  0  0  0  0  0  0
  -28.1935  -25.4763   19.0991 C   0  0  0  0  0  0  0  0  0  1  0  0
  -26.0857  -32.3821   23.9963 C   0  0  1  0  0  0  0  0  0  0  0  0
  -26.1730  -30.4604   27.2627 C   0  0  2  0  0  0  0  0  0  0  0  0
  -26.4950  -33.8812   23.9448 C   0  0  0  0  0  0  0  0  0  0  0  0
  -24.3945  -12.3487   21.7701 N   0  0  0  0  0  0  0  0  0  0  0  0
  -23.9965  -13.6284   21.8702 N   0  0  0  0  0  0  0  0  0  0  0  0
  -24.9169  -31.1962   22.1657 N   0  0  0  0  0  0  0  0  0  0  0  0
  -28.7961  -16.9950   20.2745 N   0  0  0  0  0  0  0  0  0  0  0  0
  -27.3256  -15.4239   21.3253 N   0  0  0  0  0  0  0  0  0  0  0  0
  -22.0720  -15.0067   21.9567 N   0  0  0  0  0  0  0  0  0  0  0  0
  -20.3573  -10.8451   21.5867 N   0  0  0  0  0  0  0  0  0  0  0  0
  -22.8686  -32.4807   19.5418 N   0  0  0  0  0  0  0  0  0  0  0  0
  -25.8673  -31.8684   25.3442 N   0  0  0  0  0  0  0  0  0  0  0  0
  -26.2722  -28.9917   27.4957 N   0  3  0  0  0  0  0  0  0  0  0  0
  -19.8264  -13.0702   21.7465 O   0  0  0  0  0  0  0  0  0  0  0  0
  -25.1672  -32.1465   19.7067 O   0  0  0  0  0  0  0  0  0  0  0  0
  -30.4878  -25.3942   19.8183 O   0  0  0  0  0  0  0  0  0  0  0  0
  -23.7715  -32.6701   23.5628 O   0  0  0  0  0  0  0  0  0  0  0  0
  -27.4482  -30.1757   25.2303 O   0  0  0  0  0  0  0  0  0  0  0  0
  -26.8996  -16.2304   19.2081 O   0  0  0  0  0  0  0  0  0  0  0  0
  -23.2632   -6.1048   21.2391 O   0  0  0  0  0  0  0  0  0  0  0  0
  -30.7990  -22.7395   19.5264 O   0  0  0  0  0  0  0  0  0  0  0  0
  -28.2974  -26.8649   19.3331 O   0  0  0  0  0  0  0  0  0  1  0  0
  -19.7678   -3.2647   24.4204 F   0  0  0  0  0  0  0  0  0  0  0  0
  -24.1943   -4.2434   23.0587 F   0  0  0  0  0  0  0  0  0  0  0  0
  1  2  1  0  0  0  0
  1  5  2  0  0  0  0
  2  6  2  0  0  0  0
  3  9  2  0  0  0  0
  3 18  1  0  0  0  0
  4 10  1  0  0  0  0
  4 18  2  0  0  0  0
  5 20  1  0  0  0  0
  6 23  1  0  0  0  0
  7 11  2  0  0  0  0
  7 21  1  0  0  0  0
  8 12  2  0  0  0  0
  8 22  1  0  0  0  0
  9 26  1  0  0  0  0
 10 26  2  0  0  0  0
 11 27  1  0  0  0  0
 12 28  1  0  0  0  0
 13 14  2  0  0  0  0
 13 29  1  0  0  0  0
 14 30  1  0  0  0  0
 15 24  1  0  0  0  0
 15 27  2  0  0  0  0
 16 25  1  0  0  0  0
 16 28  2  0  0  0  0
 17 30  2  0  0  0  0
 17 31  1  0  0  0  0
 18 32  1  0  0  0  0
 19 32  1  0  0  0  0
 19 33  2  0  0  0  0
 19 34  1  0  0  0  0
 20 23  2  0  0  0  0
 20 40  1  0  0  0  0
 21 24  2  0  0  0  0
 21 41  1  0  0  0  0
 22 25  2  0  0  0  0
 22 42  1  0  0  0  0
 23 52  1  0  0  0  0
 24 44  1  0  0  0  0
 25 43  1  0  0  0  0
 26 81  1  0  0  0  0
 27 82  1  0  0  0  0
 28 83  1  0  0  0  0
 29 31  2  0  0  0  0
 29 81  1  0  0  0  0
 30 84  1  0  0  0  0
 31 85  1  0  0  0  0
 32 65  2  0  0  0  0
 33 66  1  0  0  0  0
 33 70  1  0  0  0  0
 34 71  1  0  0  0  0
 34 75  2  0  0  0  0
 35 53  1  0  0  0  0
 35 72  1  0  0  0  0
 35 76  2  0  0  0  0
 36 60  1  0  0  0  0
 36 61  1  0  0  0  0
 36 77  2  0  0  0  0
 37 62  1  0  0  0  0
 37 67  1  0  0  0  0
 37 78  2  0  0  0  0
 38 63  1  0  0  0  0
 38 73  1  0  0  0  0
 38 79  2  0  0  0  0
 39 68  1  0  0  0  0
 39 69  1  0  0  0  0
 39 80  2  0  0  0  0
 40 45  1  0  0  0  0
 41 49  1  0  0  0  0
 42 53  1  0  0  0  0
 43 67  1  0  0  0  0
 44 68  1  0  0  0  0
 45 47  1  0  0  0  0
 46 48  1  0  0  0  0
 46 50  1  0  0  0  0
 47 52  1  0  0  0  0
 48 54  1  0  0  0  0
 49 68  1  0  0  0  0
 50 69  1  0  0  0  0
 51 54  1  0  0  0  0
 51 69  1  0  0  0  0
 52 72  1  0  0  0  0
 53 67  1  0  0  0  0
 54 66  1  0  0  0  0
 55 63  1  0  0  0  0
 56 64  1  0  0  0  0
 57 64  1  0  0  0  0
 58 64  1  0  0  0  0
 59 74  1  0  0  0  0
 60 82  1  0  0  0  0
 61 83  1  0  0  0  0
 62 64  1  0  0  0  0
 62 73  1  0  0  0  0
 63 74  1  0  0  0  0
 65 66  1  0  0  0  0
M  CHG  1  74   1
M  ISO  4  39 100  61 101  68 100  83 101
M  END
> <Batch ID>
0142

> <Smiles>
CNC(C)C(=O)NC(C(=O)N1Cc2cc([101O:1][101CH2:1]C(=O)COc3ccc4c(c3)C[100N:0]([100C:0](=O)N3CCCC(n5nc(-c6ccc(Oc7ccc(F)cc7F)cc6)c(C(N)=O)c5N)C3)CC4)ccc2CC1C(=O)NC1CCCc2ccccc21)C(C)(C)C

> <Shape>
0.304

> <Color>
0.108

> <Negative vol penalty>
0.000

$$$$

  -OEChem-04052302573D

 86 95  0     1  0  0  0  0  0999 V2000
  -31.0213  -26.3953   16.2409 C   0  0  0  0  0  0  0  0  0  0  0  0
  -30.6691  -25.7641   17.4296 C   0  0  0  0  0  0  0  0  0  0  0  0
  -23.2277   -9.6922   19.9542 C   0  0  0  0  0  0  0  0  0  0  0  0
  -23.8267   -9.8976   22.2858 C   0  0  0  0  0  0  0  0  0  0  0  0
  -31.0858  -27.7869   16.1844 C   0  0  0  0  0  0  0  0  0  0  0  0
  -30.3821  -26.5243   18.5628 C   0  0  0  0  0  0  0  0  0  0  0  0
  -26.2365  -24.9130   20.9842 C   0  0  0  0  0  0  0  0  0  0  0  0
  -32.1377  -18.0591   23.5275 C   0  0  0  0  0  0  0  0  0  0  0  0
  -31.6592  -17.0846   22.6518 C   0  0  0  0  0  0  0  0  0  0  0  0
  -22.5281   -8.5192   20.2372 C   0  0  0  0  0  0  0  0  0  0  0  0
  -23.1270   -8.7245   22.5688 C   0  0  0  0  0  0  0  0  0  0  0  0
  -26.3674  -23.7801   21.7861 C   0  0  0  0  0  0  0  0  0  0  0  0
  -19.9099   -7.7913   23.0157 C   0  0  0  0  0  0  0  0  0  0  0  0
  -19.0772   -7.7892   24.1347 C   0  0  0  0  0  0  0  0  0  0  0  0
  -26.5117  -25.1873   23.7401 C   0  0  0  0  0  0  0  0  0  0  0  0
  -29.3997  -17.8487   23.0362 C   0  0  0  0  0  0  0  0  0  0  0  0
  -20.3620   -5.9784   25.0873 C   0  0  0  0  0  0  0  0  0  0  0  0
  -23.8770  -10.3814   20.9785 C   0  0  0  0  0  0  0  0  0  0  0  0
  -24.0973  -12.9076   20.7003 C   0  0  0  0  0  0  0  0  0  0  0  0
  -30.7901  -28.5648   17.3149 C   0  0  0  0  0  0  0  0  0  0  0  0
  -26.2532  -26.1942   21.5540 C   0  0  0  0  0  0  0  0  0  0  0  0
  -30.4439  -27.9275   18.5218 C   0  0  0  0  0  0  0  0  0  0  0  0
  -26.3783  -26.3347   22.9435 C   0  0  0  0  0  0  0  0  0  0  0  0
  -31.2472  -18.9284   24.1576 C   0  0  0  0  0  0  0  0  0  0  0  0
  -29.8782  -18.8232   23.9120 C   0  0  0  0  0  0  0  0  0  0  0  0
  -30.2902  -16.9793   22.4061 C   0  0  0  0  0  0  0  0  0  0  0  0
  -22.4777   -8.0353   21.5445 C   0  0  0  0  0  0  0  0  0  0  0  0
  -26.5080  -23.9172   23.1640 C   0  0  0  0  0  0  0  0  0  0  0  0
  -20.9686   -6.8870   22.9324 C   0  0  0  0  0  0  0  0  0  0  0  0
  -19.3032   -6.8828   25.1705 C   0  0  0  0  0  0  0  0  0  0  0  0
  -21.1947   -5.9806   23.9682 C   0  0  0  0  0  0  0  0  0  0  0  0
  -24.6004  -11.5929   20.6866 C   0  0  0  0  0  0  0  0  0  0  0  0
  -25.1723  -13.6902   20.3561 C   0  0  0  0  0  0  0  0  0  0  0  0
  -22.7764  -13.3793   20.9976 C   0  0  0  0  0  0  0  0  0  0  0  0
  -28.1318  -28.7442   21.2858 C   0  0  0  0  0  0  0  0  0  0  0  0
  -25.8765  -30.1197   23.1683 C   0  0  0  0  0  0  0  0  0  0  0  0
  -23.3857  -29.7220   25.4671 C   0  0  0  0  0  0  0  0  0  0  0  0
  -30.5532  -15.0476   20.8107 C   0  0  0  0  0  0  0  0  0  0  0  0
  -30.9193  -30.0644   17.2183 C   0  0  0  0  0  0  0  0  0  0  0  0
  -26.0840  -27.4052   20.6781 C   0  0  0  0  0  0  0  0  0  0  0  0
  -26.3818  -27.6870   23.6067 C   0  0  0  0  0  0  0  0  0  0  0  0
  -30.2358  -30.8095   18.3619 C   0  0  0  0  0  0  0  0  0  0  0  0
  -29.7287  -12.4199   18.5540 C   0  0  0  0  0  0  0  0  0  0  0  0
  -30.5887  -30.1710   19.7015 C   0  0  0  0  0  0  0  0  0  0  0  0
  -28.2796  -12.0786   18.9088 C   0  0  0  0  0  0  0  0  0  0  0  0
  -27.0403  -20.4753   25.5872 C   0  0  0  0  0  0  0  0  0  0  0  0
  -30.5461  -12.7805   19.7931 C   0  0  0  0  0  0  0  0  0  0  0  0
  -27.9056  -19.2300   25.4063 C   0  0  0  0  0  0  0  0  0  0  0  0
  -28.9963  -21.1269   24.3721 C   0  0  0  0  0  0  0  0  0  0  0  0
  -28.5142  -13.4902   20.9919 C   0  0  0  0  0  0  0  0  0  0  0  0
  -30.1014  -28.7184   19.7657 C   0  0  1  0  0  0  0  0  0  0  0  0
  -26.6308  -28.6812   21.3106 C   0  0  1  0  0  0  0  0  0  0  0  0
  -28.0448  -21.6179   25.4690 C   0  0  1  0  0  0  0  0  0  0  0  0
  -27.6348  -13.1833   19.7688 C   0  0  2  0  0  0  0  0  0  0  0  0
  -31.7872  -19.9630   25.0905 C   0  0  0  0  0  0  0  0  0  0  0  0
  -21.7517  -31.0338   26.8480 C   0  0  0  0  0  0  0  0  0  0  0  0
  -26.4335  -23.3642   26.2590 C   0  0  0  0  0  0  0  0  0  0  0  0
  -28.4560  -24.0336   24.9285 C   0  0  0  0  0  0  0  0  0  0  0  0
  -28.1289  -30.9276   25.0616 C   0  0  0  0  0  0  0  0  0  0  0  0
  -26.4006  -31.3633   26.8198 C   0  0  0  0  0  0  0  0  0  0  0  0
  -26.3857  -32.6849   24.7042 C   0  0  0  0  0  0  0  0  0  0  0  0
  -21.0665  -28.4064   24.1828 C   0  0  0  0  0  0  0  0  0  0  0  0
  -25.6675  -30.2613   24.6567 C   0  0  1  0  0  0  0  0  0  0  0  0
  -21.9812  -30.2935   25.5395 C   0  0  2  0  0  0  0  0  0  0  0  0
  -27.3975  -22.9536   25.1480 C   0  0  0  0  0  0  0  0  0  1  0  0
  -26.6476  -31.2838   25.2982 C   0  0  0  0  0  0  0  0  0  0  0  0
  -25.8943  -11.5393   20.3595 N   0  0  0  0  0  0  0  0  0  0  0  0
  -26.2133  -12.8301   20.1643 N   0  0  0  0  0  0  0  0  0  0  0  0
  -28.9844  -19.6738   24.5271 N   0  0  3  0  0  0  0  0  0  0  0  0
  -26.2197  -28.8410   22.7069 N   0  0  0  0  0  0  0  0  0  0  0  0
  -29.8763  -13.8360   20.5562 N   0  0  0  0  0  0  0  0  0  0  0  0
  -25.3191  -15.0232   20.2017 N   0  0  0  0  0  0  0  0  0  0  0  0
  -21.7913  -12.4403   21.3326 N   0  0  0  0  0  0  0  0  0  0  0  0
  -29.8048  -15.9888   21.5168 N   0  0  0  0  0  0  0  0  0  0  0  0
  -28.6771  -28.6738   20.0181 N   0  0  0  0  0  0  0  0  0  0  0  0
  -24.2578  -30.5879   24.8417 N   0  0  0  0  0  0  0  0  0  0  0  0
  -20.9718  -29.2023   25.4336 N   0  3  0  0  0  0  0  0  0  0  0  0
  -22.4744  -14.5959   20.9511 O   0  0  0  0  0  0  0  0  0  0  0  0
  -28.7495  -28.8503   22.3389 O   0  0  0  0  0  0  0  0  0  0  0  0
  -25.7334  -31.1058   22.4411 O   0  0  0  0  0  0  0  0  0  0  0  0
  -23.6805  -28.6195   25.9232 O   0  0  0  0  0  0  0  0  0  0  0  0
  -31.7017  -15.2466   20.4066 O   0  0  0  0  0  0  0  0  0  0  0  0
  -21.7949   -6.8909   21.8211 O   0  0  0  0  0  0  0  0  0  0  0  0
  -26.6366  -22.8130   23.9489 O   0  0  0  0  0  0  0  0  0  1  0  0
  -18.5045   -6.8819   26.2457 F   0  0  0  0  0  0  0  0  0  0  0  0
  -22.2109   -5.1101   23.8944 F   0  0  0  0  0  0  0  0  0  0  0  0
  1  2  1  0  0  0  0
  1  5  2  0  0  0  0
  2  6  2  0  0  0  0
  3 10  2  0  0  0  0
  3 18  1  0  0  0  0
  4 11  1  0  0  0  0
  4 18  2  0  0  0  0
  5 20  1  0  0  0  0
  6 22  1  0  0  0  0
  7 12  2  0  0  0  0
  7 21  1  0  0  0  0
  8  9  2  0  0  0  0
  8 24  1  0  0  0  0
  9 26  1  0  0  0  0
 10 27  1  0  0  0  0
 11 27  2  0  0  0  0
 12 28  1  0  0  0  0
 13 14  2  0  0  0  0
 13 29  1  0  0  0  0
 14 30  1  0  0  0  0
 15 23  1  0  0  0  0
 15 28  2  0  0  0  0
 16 25  1  0  0  0  0
 16 26  2  0  0  0  0
 17 30  2  0  0  0  0
 17 31  1  0  0  0  0
 18 32  1  0  0  0  0
 19 32  1  0  0  0  0
 19 33  2  0  0  0  0
 19 34  1  0  0  0  0
 20 22  2  0  0  0  0
 20 39  1  0  0  0  0
 21 23  2  0  0  0  0
 21 40  1  0  0  0  0
 22 51  1  0  0  0  0
 23 41  1  0  0  0  0
 24 25  2  0  0  0  0
 24 55  1  0  0  0  0
 25 69  1  0  0  0  0
 26 74  1  0  0  0  0
 27 83  1  0  0  0  0
 28 84  1  0  0  0  0
 29 31  2  0  0  0  0
 29 83  1  0  0  0  0
 30 85  1  0  0  0  0
 31 86  1  0  0  0  0
 32 67  2  0  0  0  0
 33 68  1  0  0  0  0
 33 72  1  0  0  0  0
 34 73  1  0  0  0  0
 34 78  2  0  0  0  0
 35 52  1  0  0  0  0
 35 75  1  0  0  0  0
 35 79  2  0  0  0  0
 36 63  1  0  0  0  0
 36 70  1  0  0  0  0
 36 80  2  0  0  0  0
 37 64  1  0  0  0  0
 37 76  1  0  0  0  0
 37 81  2  0  0  0  0
 38 71  1  0  0  0  0
 38 74  1  0  0  0  0
 38 82  2  0  0  0  0
 39 42  1  0  0  0  0
 40 52  1  0  0  0  0
 41 70  1  0  0  0  0
 42 44  1  0  0  0  0
 43 45  1  0  0  0  0
 43 47  1  0  0  0  0
 44 51  1  0  0  0  0
 45 54  1  0  0  0  0
 46 48  1  0  0  0  0
 46 53  1  0  0  0  0
 47 71  1  0  0  0  0
 48 69  1  0  0  0  0
 49 53  1  0  0  0  0
 49 69  1  0  0  0  0
 50 54  1  0  0  0  0
 50 71  1  0  0  0  0
 51 75  1  0  0  0  0
 52 70  1  0  0  0  0
 53 65  1  0  0  0  0
 54 68  1  0  0  0  0
 56 64  1  0  0  0  0
 57 65  1  0  0  0  0
 58 65  1  0  0  0  0
 59 66  1  0  0  0  0
 60 66  1  0  0  0  0
 61 66  1  0  0  0  0
 62 77  1  0  0  0  0
 63 66  1  0  0  0  0
 63 76  1  0  0  0  0
 64 77  1  0  0  0  0
 65 84  1  0  0  0  0
 67 68  1  0  0  0  0
M  CHG  1  77   1
M  ISO  4  38 100  65 101  74 100  84 101
M  END
> <Batch ID>
0142

> <Smiles>
CNC(C)C(=O)NC(C(=O)N1Cc2cc([101O:1][101C:1](C)(C)C3CCN(c4cc([100NH:0][100C:0](=O)N5CCCC(n6nc(-c7ccc(Oc8ccc(F)cc8F)cc7)c(C(N)=O)c6N)C5)ccc4C)C3)ccc2CC1C(=O)NC1CCCc2ccccc21)C(C)(C)C

> <Shape>
0.275

> <Color>
0.204

> <Negative vol penalty>
0.000

$$$$

  -OEChem-04052302573D

 85 94  0     1  0  0  0  0  0999 V2000
  -22.2429   -7.9413   20.8106 C   0  0  0  0  0  0  0  0  0  0  0  0
  -22.4542   -9.1339   21.4951 C   0  0  0  0  0  0  0  0  0  0  0  0
  -24.8982  -31.9496   24.0093 C   0  0  0  0  0  0  0  0  0  0  0  0
  -26.2335  -29.9406   23.8745 C   0  0  0  0  0  0  0  0  0  0  0  0
  -23.3214   -7.2640   20.2434 C   0  0  0  0  0  0  0  0  0  0  0  0
  -23.7444   -9.6493   21.6136 C   0  0  0  0  0  0  0  0  0  0  0  0
  -23.9391  -14.6273   20.7043 C   0  0  0  0  0  0  0  0  0  0  0  0
  -25.8197  -32.5024   24.8986 C   0  0  0  0  0  0  0  0  0  0  0  0
  -27.1550  -30.4935   24.7638 C   0  0  0  0  0  0  0  0  0  0  0  0
  -23.5135  -15.4779   21.7237 C   0  0  0  0  0  0  0  0  0  0  0  0
  -28.8520  -33.9899   24.7388 C   0  0  0  0  0  0  0  0  0  0  0  0
  -29.2428  -35.3122   24.5285 C   0  0  0  0  0  0  0  0  0  0  0  0
  -20.6056  -22.3259   24.2754 C   0  0  0  0  0  0  0  0  0  0  0  0
  -25.8108  -15.8759   22.3426 C   0  0  0  0  0  0  0  0  0  0  0  0
  -22.8326  -22.5780   23.2868 C   0  0  0  0  0  0  0  0  0  0  0  0
  -28.3985  -35.9090   26.7122 C   0  0  0  0  0  0  0  0  0  0  0  0
  -25.1051  -30.6686   23.4973 C   0  0  0  0  0  0  0  0  0  0  0  0
  -24.1614  -30.1961   21.1748 C   0  0  0  0  0  0  0  0  0  0  0  0
  -24.6243   -7.7763   20.3467 C   0  0  0  0  0  0  0  0  0  0  0  0
  -25.3057  -14.3857   20.5030 C   0  0  0  0  0  0  0  0  0  0  0  0
  -24.8416   -8.9775   21.0483 C   0  0  0  0  0  0  0  0  0  0  0  0
  -21.0085  -21.0813   24.6787 C   0  0  0  0  0  0  0  0  0  0  0  0
  -26.2513  -15.0238   21.3183 C   0  0  0  0  0  0  0  0  0  0  0  0
  -23.2125  -21.3024   23.7138 C   0  0  0  0  0  0  0  0  0  0  0  0
  -22.2624  -20.5980   24.3856 C   0  0  0  0  0  0  0  0  0  0  0  0
  -21.5399  -23.0833   23.5596 C   0  0  0  0  0  0  0  0  0  0  0  0
  -26.9481  -31.7744   25.2758 C   0  0  0  0  0  0  0  0  0  0  0  0
  -24.4493  -16.1000   22.5449 C   0  0  0  0  0  0  0  0  0  0  0  0
  -28.2343  -33.6271   25.9358 C   0  0  0  0  0  0  0  0  0  0  0  0
  -29.0161  -36.2718   25.5152 C   0  0  0  0  0  0  0  0  0  0  0  0
  -28.0076  -34.5866   26.9224 C   0  0  0  0  0  0  0  0  0  0  0  0
  -24.1533  -30.0968   22.5791 C   0  0  0  0  0  0  0  0  0  0  0  0
  -23.0555  -29.4870   20.7741 C   0  0  0  0  0  0  0  0  0  0  0  0
  -25.0859  -30.8692   20.3100 C   0  0  0  0  0  0  0  0  0  0  0  0
  -27.1705  -11.8144   20.6234 C   0  0  0  0  0  0  0  0  0  0  0  0
  -29.4169  -13.8714   19.5074 C   0  0  0  0  0  0  0  0  0  0  0  0
  -30.4966  -17.0941   19.1995 C   0  0  0  0  0  0  0  0  0  0  0  0
  -19.9557  -25.0170   23.2470 C   0  0  0  0  0  0  0  0  0  0  0  0
  -25.7646   -6.9841   19.7577 C   0  0  0  0  0  0  0  0  0  0  0  0
  -25.7495  -13.4864   19.3820 C   0  0  0  0  0  0  0  0  0  0  0  0
  -20.7163  -19.8337   25.4422 C   0  0  0  0  0  0  0  0  0  0  0  0
  -27.7308  -14.8136   21.1306 C   0  0  0  0  0  0  0  0  0  0  0  0
  -27.0520   -7.7904   19.6061 C   0  0  0  0  0  0  0  0  0  0  0  0
  -18.6912  -28.1972   22.2652 C   0  0  0  0  0  0  0  0  0  0  0  0
  -27.3429   -8.5762   20.8807 C   0  0  0  0  0  0  0  0  0  0  0  0
  -19.9495  -29.0526   22.1006 C   0  0  0  0  0  0  0  0  0  0  0  0
  -18.8190  -27.2190   23.4316 C   0  0  0  0  0  0  0  0  0  0  0  0
  -21.2749  -27.2250   23.2365 C   0  0  0  0  0  0  0  0  0  0  0  0
  -26.2233   -9.5813   21.1769 C   0  0  1  0  0  0  0  0  0  0  0  0
  -27.1458  -12.9101   19.5954 C   0  0  1  0  0  0  0  0  0  0  0  0
  -21.2188  -28.1808   22.0336 C   0  0  2  0  0  0  0  0  0  0  0  0
  -24.5754  -20.7733   23.4631 C   0  0  0  0  0  0  0  0  0  0  0  0
  -32.3863  -18.4581   18.2690 C   0  0  0  0  0  0  0  0  0  0  0  0
  -31.1833  -13.0125   21.8423 C   0  0  0  0  0  0  0  0  0  0  0  0
  -32.5997  -15.0341   21.4237 C   0  0  0  0  0  0  0  0  0  0  0  0
  -32.3867  -13.2770   19.6659 C   0  0  0  0  0  0  0  0  0  0  0  0
  -23.8225  -16.4055   26.4065 C   0  0  0  0  0  0  0  0  0  0  0  0
  -21.3575  -16.7689   26.2057 C   0  0  0  0  0  0  0  0  0  0  0  0
  -28.6900  -18.5637   17.3731 C   0  0  0  0  0  0  0  0  0  0  0  0
  -22.9854  -18.6552   25.7181 C   0  0  0  0  0  0  0  0  0  0  0  0
  -22.7678  -16.6539   24.1329 C   0  0  0  0  0  0  0  0  0  1  0  0
  -30.4250  -14.7998   20.1404 C   0  0  1  0  0  0  0  0  0  0  0  0
  -31.0072  -17.8754   18.0023 C   0  0  2  0  0  0  0  0  0  0  0  0
  -31.6208  -14.0335   20.7731 C   0  0  0  0  0  0  0  0  0  0  0  0
  -22.7261  -17.1334   25.6012 C   0  0  0  0  0  0  0  0  0  0  0  0
  -23.1238  -29.3810   23.0394 N   0  0  0  0  0  0  0  0  0  0  0  0
  -22.4747  -29.0243   21.9180 N   0  0  0  0  0  0  0  0  0  0  0  0
  -22.0230  -19.4230   24.9806 N   0  0  2  0  0  0  0  0  0  0  0  0
  -28.1147  -13.9205   20.0250 N   0  0  0  0  0  0  0  0  0  0  0  0
  -20.0420  -26.4243   23.2986 N   0  0  0  0  0  0  0  0  0  0  0  0
  -22.5330  -29.2204   19.5582 N   0  0  0  0  0  0  0  0  0  0  0  0
  -26.1666  -31.5497   20.8873 N   0  0  0  0  0  0  0  0  0  0  0  0
  -21.1805  -24.3697   23.0867 N   0  0  0  0  0  0  0  0  0  0  0  0
  -26.3493  -10.7440   20.3245 N   0  0  0  0  0  0  0  0  0  0  0  0
  -30.8074  -15.7541   19.1052 N   0  0  0  0  0  0  0  0  0  0  0  0
  -30.0781  -18.9951   17.6800 N   0  3  0  0  0  0  0  0  0  0  0  0
  -24.9483  -30.8810   19.0632 O   0  0  0  0  0  0  0  0  0  0  0  0
  -27.8831  -11.9309   21.6135 O   0  0  0  0  0  0  0  0  0  0  0  0
  -29.7699  -13.1350   18.5828 O   0  0  0  0  0  0  0  0  0  0  0  0
  -29.8866  -17.6207   20.1275 O   0  0  0  0  0  0  0  0  0  0  0  0
  -18.8723  -24.4305   23.3111 O   0  0  0  0  0  0  0  0  0  0  0  0
  -27.8476  -32.3137   26.1434 O   0  0  0  0  0  0  0  0  0  0  0  0
  -24.0365  -16.9302   23.5410 O   0  0  0  0  0  0  0  0  0  1  0  0
  -29.3929  -37.5413   25.3137 F   0  0  0  0  0  0  0  0  0  0  0  0
  -27.4158  -34.2439   28.0748 F   0  0  0  0  0  0  0  0  0  0  0  0
  1  2  1  0  0  0  0
  1  5  2  0  0  0  0
  2  6  2  0  0  0  0
  3  8  2  0  0  0  0
  3 17  1  0  0  0  0
  4  9  1  0  0  0  0
  4 17  2  0  0  0  0
  5 19  1  0  0  0  0
  6 21  1  0  0  0  0
  7 10  2  0  0  0  0
  7 20  1  0  0  0  0
  8 27  1  0  0  0  0
  9 27  2  0  0  0  0
 10 28  1  0  0  0  0
 11 12  2  0  0  0  0
 11 29  1  0  0  0  0
 12 30  1  0  0  0  0
 13 22  1  0  0  0  0
 13 26  2  0  0  0  0
 14 23  1  0  0  0  0
 14 28  2  0  0  0  0
 15 24  2  0  0  0  0
 15 26  1  0  0  0  0
 16 30  2  0  0  0  0
 16 31  1  0  0  0  0
 17 32  1  0  0  0  0
 18 32  1  0  0  0  0
 18 33  2  0  0  0  0
 18 34  1  0  0  0  0
 19 21  2  0  0  0  0
 19 39  1  0  0  0  0
 20 23  2  0  0  0  0
 20 40  1  0  0  0  0
 21 49  1  0  0  0  0
 22 25  2  0  0  0  0
 22 41  1  0  0  0  0
 23 42  1  0  0  0  0
 24 25  1  0  0  0  0
 24 52  1  0  0  0  0
 25 68  1  0  0  0  0
 26 73  1  0  0  0  0
 27 82  1  0  0  0  0
 28 83  1  0  0  0  0
 29 31  2  0  0  0  0
 29 82  1  0  0  0  0
 30 84  1  0  0  0  0
 31 85  1  0  0  0  0
 32 66  2  0  0  0  0
 33 67  1  0  0  0  0
 33 71  1  0  0  0  0
 34 72  1  0  0  0  0
 34 77  2  0  0  0  0
 35 50  1  0  0  0  0
 35 74  1  0  0  0  0
 35 78  2  0  0  0  0
 36 62  1  0  0  0  0
 36 69  1  0  0  0  0
 36 79  2  0  0  0  0
 37 63  1  0  0  0  0
 37 75  1  0  0  0  0
 37 80  2  0  0  0  0
 38 70  1  0  0  0  0
 38 73  1  0  0  0  0
 38 81  2  0  0  0  0
 39 43  1  0  0  0  0
 40 50  1  0  0  0  0
 41 68  1  0  0  0  0
 42 69  1  0  0  0  0
 43 45  1  0  0  0  0
 44 46  1  0  0  0  0
 44 47  1  0  0  0  0
 45 49  1  0  0  0  0
 46 51  1  0  0  0  0
 47 70  1  0  0  0  0
 48 51  1  0  0  0  0
 48 70  1  0  0  0  0
 49 74  1  0  0  0  0
 50 69  1  0  0  0  0
 51 67  1  0  0  0  0
 53 63  1  0  0  0  0
 54 64  1  0  0  0  0
 55 64  1  0  0  0  0
 56 64  1  0  0  0  0
 57 65  1  0  0  0  0
 58 65  1  0  0  0  0
 59 76  1  0  0  0  0
 60 65  1  0  0  0  0
 60 68  1  0  0  0  0
 61 65  1  0  0  0  0
 61 83  1  0  0  0  0
 62 64  1  0  0  0  0
 62 75  1  0  0  0  0
 63 76  1  0  0  0  0
 66 67  1  0  0  0  0
M  CHG  1  76   1
M  ISO  4  38 100  61 101  73 100  83 101
M  END
> <Batch ID>
0142

> <Smiles>
CNC(C)C(=O)NC(C(=O)N1Cc2cc([101O:1][101CH2:1]C(C)(C)CN3Cc4cc([100NH:0][100C:0](=O)N5CCCC(n6nc(-c7ccc(Oc8ccc(F)cc8F)cc7)c(C(N)=O)c6N)C5)cc(C)c43)ccc2CC1C(=O)NC1CCCc2ccccc21)C(C)(C)C

> <Shape>
0.262

> <Color>
0.048

> <Negative vol penalty>
0.000

$$$$

  -OEChem-04052302573D

 84 93  0     1  0  0  0  0  0999 V2000
  -28.1495  -32.5473   27.0502 C   0  0  0  0  0  0  0  0  0  0  0  0
  -28.2179  -31.4241   26.2321 C   0  0  0  0  0  0  0  0  0  0  0  0
  -23.5152   -9.7614   22.0498 C   0  0  0  0  0  0  0  0  0  0  0  0
  -23.3042  -12.1651   22.1705 C   0  0  0  0  0  0  0  0  0  0  0  0
  -26.9121  -33.1152   27.3505 C   0  0  0  0  0  0  0  0  0  0  0  0
  -27.0487  -30.8676   25.7147 C   0  0  0  0  0  0  0  0  0  0  0  0
  -26.8141  -19.6852   18.8143 C   0  0  0  0  0  0  0  0  0  0  0  0
  -29.1175  -19.9201   19.5043 C   0  0  0  0  0  0  0  0  0  0  0  0
  -27.4600  -29.7011   20.8040 C   0  0  0  0  0  0  0  0  0  0  0  0
  -26.9769  -18.3018   18.7415 C   0  0  0  0  0  0  0  0  0  0  0  0
  -29.2803  -18.5367   19.4316 C   0  0  0  0  0  0  0  0  0  0  0  0
  -22.6361   -9.6302   23.1247 C   0  0  0  0  0  0  0  0  0  0  0  0
  -22.4251  -12.0339   23.2455 C   0  0  0  0  0  0  0  0  0  0  0  0
  -28.1497  -28.5329   20.4827 C   0  0  0  0  0  0  0  0  0  0  0  0
  -19.2973   -9.7614   23.6426 C   0  0  0  0  0  0  0  0  0  0  0  0
  -18.2900   -8.8018   23.5428 C   0  0  0  0  0  0  0  0  0  0  0  0
  -26.0506  -27.3781   20.2012 C   0  0  0  0  0  0  0  0  0  0  0  0
  -19.1559   -7.6890   25.5048 C   0  0  0  0  0  0  0  0  0  0  0  0
  -23.8493  -11.0288   21.5726 C   0  0  0  0  0  0  0  0  0  0  0  0
  -24.5935  -10.6522   19.1619 C   0  0  0  0  0  0  0  0  0  0  0  0
  -27.8844  -20.4944   19.1956 C   0  0  0  0  0  0  0  0  0  0  0  0
  -25.7279  -32.5711   26.8287 C   0  0  0  0  0  0  0  0  0  0  0  0
  -26.0581  -29.7138   20.8371 C   0  0  0  0  0  0  0  0  0  0  0  0
  -25.7942  -31.4279   26.0095 C   0  0  0  0  0  0  0  0  0  0  0  0
  -25.3454  -28.5485   20.5207 C   0  0  0  0  0  0  0  0  0  0  0  0
  -28.2100  -17.7275   19.0502 C   0  0  0  0  0  0  0  0  0  0  0  0
  -22.0910  -10.7665   23.7226 C   0  0  0  0  0  0  0  0  0  0  0  0
  -27.4451  -27.3704   20.1840 C   0  0  0  0  0  0  0  0  0  0  0  0
  -20.2340   -9.6849   24.6733 C   0  0  0  0  0  0  0  0  0  0  0  0
  -18.2193   -7.7656   24.4739 C   0  0  0  0  0  0  0  0  0  0  0  0
  -20.1633   -8.6487   25.6044 C   0  0  0  0  0  0  0  0  0  0  0  0
  -24.7577  -11.1650   20.4626 C   0  0  0  0  0  0  0  0  0  0  0  0
  -25.7229  -11.0519   18.4901 C   0  0  0  0  0  0  0  0  0  0  0  0
  -23.5164   -9.8834   18.6102 C   0  0  0  0  0  0  0  0  0  0  0  0
  -23.8721  -30.2524   23.0809 C   0  0  0  0  0  0  0  0  0  0  0  0
  -21.8155  -30.0198   20.5831 C   0  0  0  0  0  0  0  0  0  0  0  0
  -21.4356  -27.9234   17.6713 C   0  0  0  0  0  0  0  0  0  0  0  0
  -29.5322  -15.5925   19.2497 C   0  0  0  0  0  0  0  0  0  0  0  0
  -24.4100  -33.1915   27.2197 C   0  0  0  0  0  0  0  0  0  0  0  0
  -25.3286  -30.9891   21.1595 C   0  0  0  0  0  0  0  0  0  0  0  0
  -23.8396  -28.5148   20.5223 C   0  0  0  0  0  0  0  0  0  0  0  0
  -23.2473  -32.7648   26.3273 C   0  0  0  0  0  0  0  0  0  0  0  0
  -30.3329  -12.1233   19.2212 C   0  0  0  0  0  0  0  0  0  0  0  0
  -28.6395  -22.7950   18.3423 C   0  0  0  0  0  0  0  0  0  0  0  0
  -23.2635  -31.2543   26.1153 C   0  0  0  0  0  0  0  0  0  0  0  0
  -28.9783  -11.4371   19.4119 C   0  0  0  0  0  0  0  0  0  0  0  0
  -29.4580  -23.7092   19.2519 C   0  0  0  0  0  0  0  0  0  0  0  0
  -27.9566  -22.5460   20.6924 C   0  0  0  0  0  0  0  0  0  0  0  0
  -30.4342  -13.4135   20.0329 C   0  0  0  0  0  0  0  0  0  0  0  0
  -27.9855  -13.6831   20.0094 C   0  0  0  0  0  0  0  0  0  0  0  0
  -27.7077  -21.9944   19.2744 C   0  0  2  0  0  0  0  0  0  0  0  0
  -24.5501  -30.8101   25.4090 C   0  0  1  0  0  0  0  0  0  0  0  0
  -23.9086  -30.7536   21.6649 C   0  0  1  0  0  0  0  0  0  0  0  0
  -27.8119  -12.4128   19.1608 C   0  0  2  0  0  0  0  0  0  0  0  0
  -28.5725  -23.9385   20.4840 C   0  0  1  0  0  0  0  0  0  0  0  0
  -29.4011  -24.3748   21.6947 C   0  0  0  0  0  0  0  0  0  0  0  0
  -20.3648  -28.3936   15.4510 C   0  0  0  0  0  0  0  0  0  0  0  0
  -19.3337  -28.7677   21.8411 C   0  0  0  0  0  0  0  0  0  0  0  0
  -18.8434  -27.6915   19.6343 C   0  0  0  0  0  0  0  0  0  0  0  0
  -18.8830  -30.1784   19.8258 C   0  0  0  0  0  0  0  0  0  0  0  0
  -23.8943  -27.1853   16.1987 C   0  0  0  0  0  0  0  0  0  0  0  0
  -27.4877  -24.9927   20.2088 C   0  0  0  0  0  0  0  0  0  1  0  0
  -21.0579  -28.8929   19.9234 C   0  0  1  0  0  0  0  0  0  0  0  0
  -21.6714  -28.3239   16.2262 C   0  0  2  0  0  0  0  0  0  0  0  0
  -19.5544  -28.8782   20.3192 C   0  0  0  0  0  0  0  0  0  0  0  0
  -25.9014  -11.8389   20.6106 N   0  0  0  0  0  0  0  0  0  0  0  0
  -26.4661  -11.7523   19.3942 N   0  0  0  0  0  0  0  0  0  0  0  0
  -23.1719  -29.7854   20.8500 N   0  0  0  0  0  0  0  0  0  0  0  0
  -29.2983  -14.2904   19.7402 N   0  0  0  0  0  0  0  0  0  0  0  0
  -26.1428  -10.8691   17.2202 N   0  0  0  0  0  0  0  0  0  0  0  0
  -22.4457  -10.5645   18.0151 N   0  0  0  0  0  0  0  0  0  0  0  0
  -28.3757  -16.3222   18.9767 N   0  0  0  0  0  0  0  0  0  0  0  0
  -24.4744  -31.0981   23.9928 N   0  0  0  0  0  0  0  0  0  0  0  0
  -21.2973  -29.0241   18.4903 N   0  0  0  0  0  0  0  0  0  0  0  0
  -22.5644  -27.3378   15.5545 N   0  3  0  0  0  0  0  0  0  0  0  0
  -23.4960   -8.6301   18.6584 O   0  0  0  0  0  0  0  0  0  0  0  0
  -23.3358  -29.1786   23.3281 O   0  0  0  0  0  0  0  0  0  0  0  0
  -21.2274  -31.0719   20.8452 O   0  0  0  0  0  0  0  0  0  0  0  0
  -21.3760  -26.7514   18.0365 O   0  0  0  0  0  0  0  0  0  0  0  0
  -30.6741  -16.0185   19.0582 O   0  0  0  0  0  0  0  0  0  0  0  0
  -21.2330  -10.6388   24.7714 O   0  0  0  0  0  0  0  0  0  0  0  0
  -28.1159  -26.2286   19.8707 O   0  0  0  0  0  0  0  0  0  1  0  0
  -17.2510   -6.8450   24.3790 F   0  0  0  0  0  0  0  0  0  0  0  0
  -21.0596   -8.5705   26.5976 F   0  0  0  0  0  0  0  0  0  0  0  0
  1  2  1  0  0  0  0
  1  5  2  0  0  0  0
  2  6  2  0  0  0  0
  3 12  2  0  0  0  0
  3 19  1  0  0  0  0
  4 13  1  0  0  0  0
  4 19  2  0  0  0  0
  5 22  1  0  0  0  0
  6 24  1  0  0  0  0
  7 10  2  0  0  0  0
  7 21  1  0  0  0  0
  8 11  1  0  0  0  0
  8 21  2  0  0  0  0
  9 14  2  0  0  0  0
  9 23  1  0  0  0  0
 10 26  1  0  0  0  0
 11 26  2  0  0  0  0
 12 27  1  0  0  0  0
 13 27  2  0  0  0  0
 14 28  1  0  0  0  0
 15 16  2  0  0  0  0
 15 29  1  0  0  0  0
 16 30  1  0  0  0  0
 17 25  1  0  0  0  0
 17 28  2  0  0  0  0
 18 30  2  0  0  0  0
 18 31  1  0  0  0  0
 19 32  1  0  0  0  0
 20 32  1  0  0  0  0
 20 33  2  0  0  0  0
 20 34  1  0  0  0  0
 21 51  1  0  0  0  0
 22 24  2  0  0  0  0
 22 39  1  0  0  0  0
 23 25  2  0  0  0  0
 23 40  1  0  0  0  0
 24 52  1  0  0  0  0
 25 41  1  0  0  0  0
 26 72  1  0  0  0  0
 27 81  1  0  0  0  0
 28 82  1  0  0  0  0
 29 31  2  0  0  0  0
 29 81  1  0  0  0  0
 30 83  1  0  0  0  0
 31 84  1  0  0  0  0
 32 66  2  0  0  0  0
 33 67  1  0  0  0  0
 33 70  1  0  0  0  0
 34 71  1  0  0  0  0
 34 76  2  0  0  0  0
 35 53  1  0  0  0  0
 35 73  1  0  0  0  0
 35 77  2  0  0  0  0
 36 63  1  0  0  0  0
 36 68  1  0  0  0  0
 36 78  2  0  0  0  0
 37 64  1  0  0  0  0
 37 74  1  0  0  0  0
 37 79  2  0  0  0  0
 38 69  1  0  0  0  0
 38 72  1  0  0  0  0
 38 80  2  0  0  0  0
 39 42  1  0  0  0  0
 40 53  1  0  0  0  0
 41 68  1  0  0  0  0
 42 45  1  0  0  0  0
 43 46  1  0  0  0  0
 43 49  1  0  0  0  0
 44 47  1  0  0  0  0
 44 51  1  0  0  0  0
 45 52  1  0  0  0  0
 46 54  1  0  0  0  0
 47 55  1  0  0  0  0
 48 51  1  0  0  0  0
 48 55  1  0  0  0  0
 49 69  1  0  0  0  0
 50 54  1  0  0  0  0
 50 69  1  0  0  0  0
 52 73  1  0  0  0  0
 53 68  1  0  0  0  0
 54 67  1  0  0  0  0
 55 56  1  0  0  0  0
 55 62  1  0  0  0  0
 57 64  1  0  0  0  0
 58 65  1  0  0  0  0
 59 65  1  0  0  0  0
 60 65  1  0  0  0  0
 61 75  1  0  0  0  0
 62 82  1  0  0  0  0
 63 65  1  0  0  0  0
 63 74  1  0  0  0  0
 64 75  1  0  0  0  0
 66 67  1  0  0  0  0
M  CHG  1  75   1
M  ISO  4  38 100  62 101  72 100  82 101
M  END
> <Batch ID>
0142

> <Smiles>
CNC(C)C(=O)NC(C(=O)N1Cc2cc([101O:1][101CH2:1]C3(C)CCC(c4ccc([100NH:0][100C:0](=O)N5CCCC(n6nc(-c7ccc(Oc8ccc(F)cc8F)cc7)c(C(N)=O)c6N)C5)cc4)C3)ccc2CC1C(=O)NC1CCCc2ccccc21)C(C)(C)C

> <Shape>
0.274

> <Color>
0.099

> <Negative vol penalty>
0.000

$$$$

  -OEChem-04052302573D

 84 92  0     1  0  0  0  0  0999 V2000
  -30.0089  -24.2202   16.6587 C   0  0  0  0  0  0  0  0  0  0  0  0
  -28.9247  -23.6541   17.3217 C   0  0  0  0  0  0  0  0  0  0  0  0
  -27.5449  -16.9884   19.0205 C   0  0  0  0  0  0  0  0  0  0  0  0
  -27.6093  -17.1029   21.4330 C   0  0  0  0  0  0  0  0  0  0  0  0
  -30.5112  -25.4532   17.0726 C   0  0  0  0  0  0  0  0  0  0  0  0
  -28.3428  -24.3203   18.3997 C   0  0  0  0  0  0  0  0  0  0  0  0
  -23.2831  -24.3054   18.1908 C   0  0  0  0  0  0  0  0  0  0  0  0
  -28.1452  -18.2451   18.9448 C   0  0  0  0  0  0  0  0  0  0  0  0
  -28.2097  -18.3596   21.3573 C   0  0  0  0  0  0  0  0  0  0  0  0
  -22.6335  -23.1329   18.5741 C   0  0  0  0  0  0  0  0  0  0  0  0
  -29.4309  -21.7538   21.8022 C   0  0  0  0  0  0  0  0  0  0  0  0
  -28.9466  -22.7554   22.6435 C   0  0  0  0  0  0  0  0  0  0  0  0
  -22.1727  -24.1016   20.7347 C   0  0  0  0  0  0  0  0  0  0  0  0
  -26.7637  -22.5528   21.6282 C   0  0  0  0  0  0  0  0  0  0  0  0
  -27.2769  -16.4172   20.2646 C   0  0  0  0  0  0  0  0  0  0  0  0
  -27.3023  -13.8692   20.3858 C   0  0  0  0  0  0  0  0  0  0  0  0
  -29.9291  -26.1394   18.1500 C   0  0  0  0  0  0  0  0  0  0  0  0
  -23.3921  -25.3826   19.0819 C   0  0  0  0  0  0  0  0  0  0  0  0
  -28.8387  -25.5630   18.8292 C   0  0  0  0  0  0  0  0  0  0  0  0
  -22.8219  -25.2876   20.3594 C   0  0  0  0  0  0  0  0  0  0  0  0
  -28.4777  -18.9307   20.1132 C   0  0  0  0  0  0  0  0  0  0  0  0
  -22.0806  -23.0297   19.8472 C   0  0  0  0  0  0  0  0  0  0  0  0
  -28.5816  -21.1518   20.8738 C   0  0  0  0  0  0  0  0  0  0  0  0
  -27.6130  -23.1549   22.5566 C   0  0  0  0  0  0  0  0  0  0  0  0
  -27.2480  -21.5513   20.7868 C   0  0  0  0  0  0  0  0  0  0  0  0
  -26.6562  -15.1193   20.3435 C   0  0  0  0  0  0  0  0  0  0  0  0
  -26.2788  -12.9560   20.4573 C   0  0  0  0  0  0  0  0  0  0  0  0
  -21.1080  -15.2971   26.0440 C   0  0  0  0  0  0  0  0  0  0  0  0
  -20.8542  -13.9846   26.1053 C   0  0  0  0  0  0  0  0  0  0  0  0
  -20.9966  -15.2596   23.6331 C   0  0  0  0  0  0  0  0  0  0  0  0
  -21.1148  -15.9718   24.7662 C   0  0  0  0  0  0  0  0  0  0  0  0
  -28.7023  -13.5611   20.3626 C   0  0  0  0  0  0  0  0  0  0  0  0
  -25.8107  -26.9270   20.4490 C   0  0  0  0  0  0  0  0  0  0  0  0
  -21.4181  -20.0355   21.7868 C   0  0  0  0  0  0  0  0  0  0  0  0
  -23.4501  -28.8779   21.5186 C   0  0  0  0  0  0  0  0  0  0  0  0
  -20.1497  -29.2798   22.2881 C   0  0  0  0  0  0  0  0  0  0  0  0
  -20.7436  -13.1193   22.4272 C   0  0  0  0  0  0  0  0  0  0  0  0
  -30.5366  -27.4475   18.5910 C   0  0  0  0  0  0  0  0  0  0  0  0
  -24.0726  -26.6505   18.6439 C   0  0  0  0  0  0  0  0  0  0  0  0
  -22.8940  -26.4230   21.3464 C   0  0  0  0  0  0  0  0  0  0  0  0
  -20.5809  -13.1662   24.8816 C   0  0  0  0  0  0  0  0  0  0  0  0
  -29.6266  -28.2645   19.5045 C   0  0  0  0  0  0  0  0  0  0  0  0
  -21.7131  -12.3281   19.2020 C   0  0  0  0  0  0  0  0  0  0  0  0
  -29.0289  -27.3789   20.5933 C   0  0  0  0  0  0  0  0  0  0  0  0
  -23.1544  -12.8287   19.1185 C   0  0  0  0  0  0  0  0  0  0  0  0
  -20.8362  -13.3162   19.9622 C   0  0  0  0  0  0  0  0  0  0  0  0
  -22.7716  -14.1245   21.2747 C   0  0  0  0  0  0  0  0  0  0  0  0
  -28.1647  -26.2666   19.9871 C   0  0  1  0  0  0  0  0  0  0  0  0
  -24.5736  -27.4941   19.8121 C   0  0  1  0  0  0  0  0  0  0  0  0
  -23.7052  -13.1586   20.5169 C   0  0  2  0  0  0  0  0  0  0  0  0
  -18.5261  -30.9749   23.1758 C   0  0  0  0  0  0  0  0  0  0  0  0
  -20.1098  -18.0992   25.5700 C   0  0  0  0  0  0  0  0  0  0  0  0
  -22.5888  -17.8181   25.4967 C   0  0  0  0  0  0  0  0  0  0  0  0
  -24.5317  -28.4342   24.3370 C   0  0  0  0  0  0  0  0  0  0  0  0
  -22.3735  -29.3339   25.2318 C   0  0  0  0  0  0  0  0  0  0  0  0
  -23.8477  -30.7880   23.8407 C   0  0  0  0  0  0  0  0  0  0  0  0
  -18.5480  -29.2200   19.8001 C   0  0  0  0  0  0  0  0  0  0  0  0
  -21.4320  -19.5516   23.2291 C   0  0  0  0  0  0  0  0  0  0  0  0
  -21.4767  -21.5390   21.5990 C   0  0  0  0  0  0  0  0  0  1  0  0
  -21.3344  -18.0254   23.3335 C   0  0  0  0  0  0  0  0  0  0  0  0
  -22.5613  -28.9112   22.7384 C   0  0  1  0  0  0  0  0  0  0  0  0
  -19.1578  -30.3720   21.9307 C   0  0  2  0  0  0  0  0  0  0  0  0
  -21.2690  -17.4612   24.7801 C   0  0  0  0  0  0  0  0  0  0  0  0
  -23.3287  -29.3445   24.0193 C   0  0  0  0  0  0  0  0  0  0  0  0
  -25.3254  -15.0135   20.3845 N   0  0  0  0  0  0  0  0  0  0  0  0
  -25.1268  -13.6862   20.4532 N   0  0  0  0  0  0  0  0  0  0  0  0
  -20.8528  -13.8748   23.6153 N   0  0  0  0  0  0  0  0  0  0  0  0
  -23.5752  -27.6394   20.8734 N   0  0  0  0  0  0  0  0  0  0  0  0
  -21.3921  -13.6107   21.2831 N   0  0  0  0  0  0  0  0  0  0  0  0
  -26.2609  -11.6078   20.5224 N   0  0  0  0  0  0  0  0  0  0  0  0
  -29.6182  -14.6193   20.2872 N   0  0  0  0  0  0  0  0  0  0  0  0
  -26.8779  -26.7905   19.5819 N   0  0  0  0  0  0  0  0  0  0  0  0
  -21.4332  -29.7715   22.3980 N   0  0  0  0  0  0  0  0  0  0  0  0
  -18.0711  -29.8237   21.0709 N   0  3  0  0  0  0  0  0  0  0  0  0
  -29.1281  -12.3815   20.3909 O   0  0  0  0  0  0  0  0  0  0  0  0
  -25.7984  -26.6363   21.6394 O   0  0  0  0  0  0  0  0  0  0  0  0
  -21.3668  -19.2650   20.8295 O   0  0  0  0  0  0  0  0  0  0  0  0
  -24.0071  -29.9142   21.1477 O   0  0  0  0  0  0  0  0  0  0  0  0
  -19.8184  -28.1083   22.4568 O   0  0  0  0  0  0  0  0  0  0  0  0
  -20.1003  -12.0616   22.3984 O   0  0  0  0  0  0  0  0  0  0  0  0
  -29.0637  -20.1570   20.0397 O   0  0  0  0  0  0  0  0  0  0  0  0
  -21.4400  -21.8743   20.2280 O   0  0  0  0  0  0  0  0  0  1  0  0
  -27.1477  -24.1157   23.3656 F   0  0  0  0  0  0  0  0  0  0  0  0
  -26.4270  -20.9757   19.8977 F   0  0  0  0  0  0  0  0  0  0  0  0
  1  2  1  0  0  0  0
  1  5  2  0  0  0  0
  2  6  2  0  0  0  0
  3  8  2  0  0  0  0
  3 15  1  0  0  0  0
  4  9  1  0  0  0  0
  4 15  2  0  0  0  0
  5 17  1  0  0  0  0
  6 19  1  0  0  0  0
  7 10  2  0  0  0  0
  7 18  1  0  0  0  0
  8 21  1  0  0  0  0
  9 21  2  0  0  0  0
 10 22  1  0  0  0  0
 11 12  2  0  0  0  0
 11 23  1  0  0  0  0
 12 24  1  0  0  0  0
 13 20  1  0  0  0  0
 13 22  2  0  0  0  0
 14 24  2  0  0  0  0
 14 25  1  0  0  0  0
 15 26  1  0  0  0  0
 16 26  1  0  0  0  0
 16 27  2  0  0  0  0
 16 32  1  0  0  0  0
 17 19  2  0  0  0  0
 17 38  1  0  0  0  0
 18 20  2  0  0  0  0
 18 39  1  0  0  0  0
 19 48  1  0  0  0  0
 20 40  1  0  0  0  0
 21 81  1  0  0  0  0
 22 82  1  0  0  0  0
 23 25  2  0  0  0  0
 23 81  1  0  0  0  0
 24 83  1  0  0  0  0
 25 84  1  0  0  0  0
 26 65  2  0  0  0  0
 27 66  1  0  0  0  0
 27 70  1  0  0  0  0
 28 29  2  0  0  0  0
 28 31  1  0  0  0  0
 29 41  1  0  0  0  0
 30 31  2  0  0  0  0
 30 67  1  0  0  0  0
 31 63  1  0  0  0  0
 32 71  1  0  0  0  0
 32 75  2  0  0  0  0
 33 49  1  0  0  0  0
 33 72  1  0  0  0  0
 33 76  2  0  0  0  0
 34 58  1  0  0  0  0
 34 59  1  0  0  0  0
 34 77  2  0  0  0  0
 35 61  1  0  0  0  0
 35 68  1  0  0  0  0
 35 78  2  0  0  0  0
 36 62  1  0  0  0  0
 36 73  1  0  0  0  0
 36 79  2  0  0  0  0
 37 67  1  0  0  0  0
 37 69  1  0  0  0  0
 37 80  2  0  0  0  0
 38 42  1  0  0  0  0
 39 49  1  0  0  0  0
 40 68  1  0  0  0  0
 41 67  1  0  0  0  0
 42 44  1  0  0  0  0
 43 45  1  0  0  0  0
 43 46  1  0  0  0  0
 44 48  1  0  0  0  0
 45 50  1  0  0  0  0
 46 69  1  0  0  0  0
 47 50  1  0  0  0  0
 47 69  1  0  0  0  0
 48 72  1  0  0  0  0
 49 68  1  0  0  0  0
 50 66  1  0  0  0  0
 51 62  1  0  0  0  0
 52 63  1  0  0  0  0
 53 63  1  0  0  0  0
 54 64  1  0  0  0  0
 55 64  1  0  0  0  0
 56 64  1  0  0  0  0
 57 74  1  0  0  0  0
 58 60  1  0  0  0  0
 59 82  1  0  0  0  0
 60 63  1  0  0  0  0
 61 64  1  0  0  0  0
 61 73  1  0  0  0  0
 62 74  1  0  0  0  0
 65 66  1  0  0  0  0
M  CHG  1  74   1
M  ISO  4  37 100  59 101  67 100  82 101
M  END
> <Batch ID>
0142

> <Smiles>
CNC(C)C(=O)NC(C(=O)N1Cc2cc([101O:1][101CH2:1]C(=O)CCC(C)(C)C3=C[100N:0]([100C:0](=O)N4CCCC(n5nc(-c6ccc(Oc7ccc(F)cc7F)cc6)c(C(N)=O)c5N)C4)CC=C3)ccc2CC1C(=O)NC1CCCc2ccccc21)C(C)(C)C

> <Shape>
0.237

> <Color>
0.070

> <Negative vol penalty>
0.000

$$$$

  -OEChem-04052302573D

 88 97  0     1  0  0  0  0  0999 V2000
  -29.3475  -31.8014   26.1548 C   0  0  0  0  0  0  0  0  0  0  0  0
  -29.8715  -30.5692   25.7773 C   0  0  0  0  0  0  0  0  0  0  0  0
  -23.0843   -9.8000   20.0074 C   0  0  0  0  0  0  0  0  0  0  0  0
  -23.8014   -9.9206   22.3113 C   0  0  0  0  0  0  0  0  0  0  0  0
  -32.6153  -17.5718   23.2977 C   0  0  0  0  0  0  0  0  0  0  0  0
  -28.3197  -32.3782   25.4099 C   0  0  0  0  0  0  0  0  0  0  0  0
  -29.3672  -29.9125   24.6553 C   0  0  0  0  0  0  0  0  0  0  0  0
  -33.0229  -28.0255   21.7023 C   0  0  0  0  0  0  0  0  0  0  0  0
  -32.0232  -16.6524   22.4319 C   0  0  0  0  0  0  0  0  0  0  0  0
  -22.3360   -8.6598   20.2999 C   0  0  0  0  0  0  0  0  0  0  0  0
  -23.0531   -8.7804   22.6039 C   0  0  0  0  0  0  0  0  0  0  0  0
  -33.6269  -26.8390   22.1163 C   0  0  0  0  0  0  0  0  0  0  0  0
  -19.8143   -8.0101   23.1850 C   0  0  0  0  0  0  0  0  0  0  0  0
  -19.0357   -8.0271   24.3422 C   0  0  0  0  0  0  0  0  0  0  0  0
  -30.4378  -18.4734   23.8294 C   0  0  0  0  0  0  0  0  0  0  0  0
  -32.2493  -25.6046   20.5679 C   0  0  0  0  0  0  0  0  0  0  0  0
  -20.2634   -6.1294   25.1960 C   0  0  0  0  0  0  0  0  0  0  0  0
  -23.8171  -10.4304   21.0131 C   0  0  0  0  0  0  0  0  0  0  0  0
  -31.8226  -18.4823   23.9965 C   0  0  0  0  0  0  0  0  0  0  0  0
  -29.8457  -17.5539   22.9636 C   0  0  0  0  0  0  0  0  0  0  0  0
  -24.1609  -12.9469   20.7753 C   0  0  0  0  0  0  0  0  0  0  0  0
  -27.8091  -31.7328   24.2726 C   0  0  0  0  0  0  0  0  0  0  0  0
  -32.0182  -28.0091   20.7242 C   0  0  0  0  0  0  0  0  0  0  0  0
  -28.3307  -30.4806   23.8953 C   0  0  0  0  0  0  0  0  0  0  0  0
  -31.6360  -26.7924   20.1414 C   0  0  0  0  0  0  0  0  0  0  0  0
  -30.6384  -16.6434   22.2648 C   0  0  0  0  0  0  0  0  0  0  0  0
  -22.3203   -8.1500   21.5982 C   0  0  0  0  0  0  0  0  0  0  0  0
  -33.2381  -25.6280   21.5511 C   0  0  0  0  0  0  0  0  0  0  0  0
  -20.8174   -7.0527   23.0332 C   0  0  0  0  0  0  0  0  0  0  0  0
  -19.2603   -7.0868   25.3477 C   0  0  0  0  0  0  0  0  0  0  0  0
  -21.0419   -6.1124   24.0387 C   0  0  0  0  0  0  0  0  0  0  0  0
  -24.5907  -11.6079   20.7113 C   0  0  0  0  0  0  0  0  0  0  0  0
  -25.2596  -13.6786   20.3959 C   0  0  0  0  0  0  0  0  0  0  0  0
  -28.3961  -17.5708   22.8114 C   0  0  0  0  0  0  0  0  0  0  0  0
  -32.4487  -19.4536   24.9112 C   0  0  0  0  0  0  0  0  0  0  0  0
  -22.8829  -13.4814   21.1447 C   0  0  0  0  0  0  0  0  0  0  0  0
  -28.9480  -28.8286   20.6483 C   0  0  0  0  0  0  0  0  0  0  0  0
  -29.2524  -28.1704   17.4866 C   0  0  0  0  0  0  0  0  0  0  0  0
  -30.9234  -26.5026   15.0222 C   0  0  0  0  0  0  0  0  0  0  0  0
  -30.7216  -14.7369   20.6203 C   0  0  0  0  0  0  0  0  0  0  0  0
  -26.6656  -32.3733   23.5264 C   0  0  0  0  0  0  0  0  0  0  0  0
  -31.3954  -29.3005   20.2694 C   0  0  0  0  0  0  0  0  0  0  0  0
  -30.5765  -26.7230   19.0732 C   0  0  0  0  0  0  0  0  0  0  0  0
  -26.4431  -31.7882   22.1341 C   0  0  0  0  0  0  0  0  0  0  0  0
  -29.6515  -12.2084   18.3534 C   0  0  0  0  0  0  0  0  0  0  0  0
  -26.4663  -30.2639   22.1856 C   0  0  0  0  0  0  0  0  0  0  0  0
  -28.2041  -11.9369   18.7700 C   0  0  0  0  0  0  0  0  0  0  0  0
  -33.3811  -22.9004   24.3840 C   0  0  0  0  0  0  0  0  0  0  0  0
  -30.5441  -12.4969   19.5591 C   0  0  0  0  0  0  0  0  0  0  0  0
  -33.4565  -21.6687   25.2790 C   0  0  0  0  0  0  0  0  0  0  0  0
  -32.6511  -21.0477   23.0461 C   0  0  0  0  0  0  0  0  0  0  0  0
  -28.6118  -13.2866   20.8674 C   0  0  0  0  0  0  0  0  0  0  0  0
  -27.8271  -29.7490   22.6700 C   0  0  1  0  0  0  0  0  0  0  0  0
  -30.0211  -29.1102   19.6350 C   0  0  1  0  0  0  0  0  0  0  0  0
  -33.4965  -22.3218   22.9715 C   0  0  1  0  0  0  0  0  0  0  0  0
  -27.6610  -13.0547   19.6817 C   0  0  2  0  0  0  0  0  0  0  0  0
  -27.5836  -18.0174   23.9901 C   0  0  0  0  0  0  0  0  0  0  0  0
  -30.9171  -26.1329   12.5402 C   0  0  0  0  0  0  0  0  0  0  0  0
  -26.8614  -26.2969   17.7742 C   0  0  0  0  0  0  0  0  0  0  0  0
  -27.4907  -25.2698   15.5794 C   0  0  0  0  0  0  0  0  0  0  0  0
  -26.8581  -27.6802   15.6908 C   0  0  0  0  0  0  0  0  0  0  0  0
  -33.6362  -27.6485   14.7277 C   0  0  0  0  0  0  0  0  0  0  0  0
  -33.0332  -23.2833   21.8919 C   0  0  0  0  0  0  0  0  0  1  0  0
  -29.0851  -26.9386   16.6300 C   0  0  1  0  0  0  0  0  0  0  0  0
  -31.4714  -26.9667   13.6848 C   0  0  2  0  0  0  0  0  0  0  0  0
  -27.5925  -26.5471   16.4401 C   0  0  0  0  0  0  0  0  0  0  0  0
  -25.8632  -11.4928   20.3218 N   0  0  0  0  0  0  0  0  0  0  0  0
  -26.2423  -12.7688   20.1375 N   0  0  0  0  0  0  0  0  0  0  0  0
  -32.8238  -20.6320   24.4484 N   0  0  0  0  0  0  0  0  0  0  0  0
  -29.9927  -28.0120   18.6667 N   0  0  0  0  0  0  0  0  0  0  0  0
  -29.9688  -13.5691   20.3742 N   0  0  0  0  0  0  0  0  0  0  0  0
  -25.4713  -15.0051   20.2613 N   0  0  0  0  0  0  0  0  0  0  0  0
  -21.8649  -12.5890   21.5074 N   0  0  0  0  0  0  0  0  0  0  0  0
  -30.0590  -15.7004   21.3800 N   0  0  0  0  0  0  0  0  0  0  0  0
  -28.8023  -29.8171   21.6029 N   0  0  0  0  0  0  0  0  0  0  0  0
  -29.7954  -27.2080   15.3845 N   0  0  0  0  0  0  0  0  0  0  0  0
  -32.6244  -19.1287   26.1887 N   0  3  0  0  0  0  0  0  0  0  0  0
  -32.9577  -26.8585   13.6683 N   0  3  0  0  0  0  0  0  0  0  0  0
  -27.7924  -17.2415   21.7905 O   0  0  0  0  0  0  0  0  0  0  0  0
  -22.6455  -14.7132   21.1370 O   0  0  0  0  0  0  0  0  0  0  0  0
  -28.2992  -27.7921   20.5691 O   0  0  0  0  0  0  0  0  0  0  0  0
  -28.7510  -29.2356   17.1184 O   0  0  0  0  0  0  0  0  0  0  0  0
  -31.4419  -25.6017   15.6781 O   0  0  0  0  0  0  0  0  0  0  0  0
  -31.8591  -14.8835   20.1660 O   0  0  0  0  0  0  0  0  0  0  0  0
  -21.5900   -7.0376   21.8841 O   0  0  0  0  0  0  0  0  0  0  0  0
  -33.8256  -24.4685   21.9538 O   0  0  0  0  0  0  0  0  0  1  0  0
  -18.5135   -7.1042   26.4596 F   0  0  0  0  0  0  0  0  0  0  0  0
  -22.0049   -5.1910   23.8991 F   0  0  0  0  0  0  0  0  0  0  0  0
  1  2  1  0  0  0  0
  1  6  2  0  0  0  0
  2  7  2  0  0  0  0
  3 10  2  0  0  0  0
  3 18  1  0  0  0  0
  4 11  1  0  0  0  0
  4 18  2  0  0  0  0
  5  9  2  0  0  0  0
  5 19  1  0  0  0  0
  6 22  1  0  0  0  0
  7 24  1  0  0  0  0
  8 12  2  0  0  0  0
  8 23  1  0  0  0  0
  9 26  1  0  0  0  0
 10 27  1  0  0  0  0
 11 27  2  0  0  0  0
 12 28  1  0  0  0  0
 13 14  2  0  0  0  0
 13 29  1  0  0  0  0
 14 30  1  0  0  0  0
 15 19  2  0  0  0  0
 15 20  1  0  0  0  0
 16 25  1  0  0  0  0
 16 28  2  0  0  0  0
 17 30  2  0  0  0  0
 17 31  1  0  0  0  0
 18 32  1  0  0  0  0
 19 35  1  0  0  0  0
 20 26  2  0  0  0  0
 20 34  1  0  0  0  0
 21 32  1  0  0  0  0
 21 33  2  0  0  0  0
 21 36  1  0  0  0  0
 22 24  2  0  0  0  0
 22 41  1  0  0  0  0
 23 25  2  0  0  0  0
 23 42  1  0  0  0  0
 24 53  1  0  0  0  0
 25 43  1  0  0  0  0
 26 74  1  0  0  0  0
 27 85  1  0  0  0  0
 28 86  1  0  0  0  0
 29 31  2  0  0  0  0
 29 85  1  0  0  0  0
 30 87  1  0  0  0  0
 31 88  1  0  0  0  0
 32 67  2  0  0  0  0
 33 68  1  0  0  0  0
 33 72  1  0  0  0  0
 34 57  1  0  0  0  0
 34 79  2  0  0  0  0
 35 69  1  0  0  0  0
 35 77  2  0  0  0  0
 36 73  1  0  0  0  0
 36 80  2  0  0  0  0
 37 54  1  0  0  0  0
 37 75  1  0  0  0  0
 37 81  2  0  0  0  0
 38 64  1  0  0  0  0
 38 70  1  0  0  0  0
 38 82  2  0  0  0  0
 39 65  1  0  0  0  0
 39 76  1  0  0  0  0
 39 83  2  0  0  0  0
 40 71  1  0  0  0  0
 40 74  1  0  0  0  0
 40 84  2  0  0  0  0
 41 44  1  0  0  0  0
 42 54  1  0  0  0  0
 43 70  1  0  0  0  0
 44 46  1  0  0  0  0
 45 47  1  0  0  0  0
 45 49  1  0  0  0  0
 46 53  1  0  0  0  0
 47 56  1  0  0  0  0
 48 50  1  0  0  0  0
 48 55  1  0  0  0  0
 49 71  1  0  0  0  0
 50 69  1  0  0  0  0
 51 55  1  0  0  0  0
 51 69  1  0  0  0  0
 52 56  1  0  0  0  0
 52 71  1  0  0  0  0
 53 75  1  0  0  0  0
 54 70  1  0  0  0  0
 55 63  1  0  0  0  0
 56 68  1  0  0  0  0
 58 65  1  0  0  0  0
 59 66  1  0  0  0  0
 60 66  1  0  0  0  0
 61 66  1  0  0  0  0
 62 78  1  0  0  0  0
 63 86  1  0  0  0  0
 64 66  1  0  0  0  0
 64 76  1  0  0  0  0
 65 78  1  0  0  0  0
 67 68  1  0  0  0  0
M  CHG  2  77   1  78   1
M  ISO  4  40 100  63 101  74 100  86 101
M  END
> <Batch ID>
0142

> <Smiles>
CNC(C)C(=O)NC(C(=O)N1Cc2cc([101O:1][101CH2:1]C3CCN(C(=N)c4ccc([100NH:0][100C:0](=O)N5CCCC(n6nc(-c7ccc(Oc8ccc(F)cc8F)cc7)c(C(N)=O)c6N)C5)c(C(C)=O)c4)C3)ccc2CC1C(=O)NC1CCCc2ccccc21)C(C)(C)C

> <Shape>
0.255

> <Color>
0.187

> <Negative vol penalty>
0.000

$$$$

  -OEChem-04052302573D

 88 96  0     1  0  0  0  0  0999 V2000
  -22.4035  -31.2469   24.3723 C   0  0  0  0  0  0  0  0  0  0  0  0
  -22.0847  -29.9714   23.9173 C   0  0  0  0  0  0  0  0  0  0  0  0
  -28.5306  -20.3812   18.2595 C   0  0  0  0  0  0  0  0  0  0  0  0
  -23.2930  -10.2108   18.4859 C   0  0  0  0  0  0  0  0  0  0  0  0
  -23.0242   -9.7271   20.8377 C   0  0  0  0  0  0  0  0  0  0  0  0
  -29.4433  -19.4506   18.7558 C   0  0  0  0  0  0  0  0  0  0  0  0
  -23.2258  -32.0732   23.6075 C   0  0  0  0  0  0  0  0  0  0  0  0
  -22.5872  -29.5220   22.6967 C   0  0  0  0  0  0  0  0  0  0  0  0
  -24.2403  -23.7980   21.2792 C   0  0  0  0  0  0  0  0  0  0  0  0
  -27.4645  -19.9578   17.4659 C   0  0  0  0  0  0  0  0  0  0  0  0
  -22.4691   -9.1308   18.1696 C   0  0  0  0  0  0  0  0  0  0  0  0
  -22.2002   -8.6470   20.5213 C   0  0  0  0  0  0  0  0  0  0  0  0
  -23.5827  -22.7724   20.6014 C   0  0  0  0  0  0  0  0  0  0  0  0
  -18.9878   -8.1545   19.5949 C   0  0  0  0  0  0  0  0  0  0  0  0
  -17.8097   -8.0040   20.3264 C   0  0  0  0  0  0  0  0  0  0  0  0
  -28.2240  -17.6729   17.6647 C   0  0  0  0  0  0  0  0  0  0  0  0
  -24.7058  -23.4076   18.5631 C   0  0  0  0  0  0  0  0  0  0  0  0
  -18.5541   -5.8320   21.0783 C   0  0  0  0  0  0  0  0  0  0  0  0
  -23.5707  -10.5090   19.8200 C   0  0  0  0  0  0  0  0  0  0  0  0
  -29.2901  -18.0964   18.4584 C   0  0  0  0  0  0  0  0  0  0  0  0
  -24.0281  -12.9562   20.3765 C   0  0  0  0  0  0  0  0  0  0  0  0
  -23.7465  -31.6301   22.3815 C   0  0  0  0  0  0  0  0  0  0  0  0
  -25.1287  -24.6444   20.6006 C   0  0  0  0  0  0  0  0  0  0  0  0
  -23.4161  -30.3437   21.9142 C   0  0  0  0  0  0  0  0  0  0  0  0
  -25.3753  -24.4416   19.2352 C   0  0  0  0  0  0  0  0  0  0  0  0
  -27.3112  -18.6036   17.1685 C   0  0  0  0  0  0  0  0  0  0  0  0
  -21.9227   -8.3489   19.1872 C   0  0  0  0  0  0  0  0  0  0  0  0
  -23.8132  -22.5789   19.2425 C   0  0  0  0  0  0  0  0  0  0  0  0
  -19.9490   -7.1437   19.6050 C   0  0  0  0  0  0  0  0  0  0  0  0
  -17.5929   -6.8428   21.0681 C   0  0  0  0  0  0  0  0  0  0  0  0
  -19.7322   -5.9825   20.3467 C   0  0  0  0  0  0  0  0  0  0  0  0
  -24.4222  -11.6243   20.1474 C   0  0  0  0  0  0  0  0  0  0  0  0
  -25.2000  -13.6192   20.6477 C   0  0  0  0  0  0  0  0  0  0  0  0
  -30.2620  -17.1054   18.9877 C   0  0  0  0  0  0  0  0  0  0  0  0
  -22.7197  -13.5417   20.3469 C   0  0  0  0  0  0  0  0  0  0  0  0
  -25.2354  -27.7630   19.9950 C   0  0  0  0  0  0  0  0  0  0  0  0
  -28.1526  -27.0315   18.7796 C   0  0  0  0  0  0  0  0  0  0  0  0
  -30.2224  -24.6758   17.4330 C   0  0  0  0  0  0  0  0  0  0  0  0
  -30.5285  -14.7244   19.6069 C   0  0  0  0  0  0  0  0  0  0  0  0
  -24.5927  -32.5767   21.5675 C   0  0  0  0  0  0  0  0  0  0  0  0
  -25.8504  -25.7293   21.3520 C   0  0  0  0  0  0  0  0  0  0  0  0
  -26.3351  -25.3101   18.4652 C   0  0  0  0  0  0  0  0  0  0  0  0
  -25.3883  -31.8861   20.4629 C   0  0  0  0  0  0  0  0  0  0  0  0
  -29.8586  -11.8469   21.5480 C   0  0  0  0  0  0  0  0  0  0  0  0
  -24.4989  -30.9169   19.6905 C   0  0  0  0  0  0  0  0  0  0  0  0
  -28.3499  -11.6438   21.3839 C   0  0  0  0  0  0  0  0  0  0  0  0
  -30.5101  -12.3312   20.2534 C   0  0  0  0  0  0  0  0  0  0  0  0
  -28.3868  -13.3116   19.4862 C   0  0  0  0  0  0  0  0  0  0  0  0
  -23.9619  -29.8110   20.6070 C   0  0  1  0  0  0  0  0  0  0  0  0
  -26.3436  -26.8554   20.4487 C   0  0  1  0  0  0  0  0  0  0  0  0
  -27.6734  -12.8915   20.7815 C   0  0  1  0  0  0  0  0  0  0  0  0
  -32.3439  -23.6785   16.5372 C   0  0  0  0  0  0  0  0  0  0  0  0
  -27.2869  -28.4150   16.2015 C   0  0  0  0  0  0  0  0  0  0  0  0
  -29.1955  -27.2877   15.0377 C   0  0  0  0  0  0  0  0  0  0  0  0
  -29.6416  -28.8874   16.8990 C   0  0  0  0  0  0  0  0  0  0  0  0
  -23.7763  -17.3253   15.9853 C   0  0  0  0  0  0  0  0  0  0  0  0
  -25.1434  -16.5471   17.9232 C   0  0  0  0  0  0  0  0  0  0  0  0
  -22.4993  -17.9359   19.3431 C   0  0  0  0  0  0  0  0  0  0  0  0
  -21.7921  -19.3050   17.3640 C   0  0  0  0  0  0  0  0  0  0  0  0
  -31.0934  -23.8171   20.1280 C   0  0  0  0  0  0  0  0  0  0  0  0
  -26.1552  -18.1443   16.3077 C   0  0  0  0  0  0  0  0  0  0  0  0
  -24.3180  -18.9922   17.8681 C   0  0  0  0  0  0  0  0  0  0  0  0
  -22.8325  -20.4140   19.3286 C   0  0  0  0  0  0  0  0  0  1  0  0
  -28.6722  -26.6126   17.4255 C   0  0  1  0  0  0  0  0  0  0  0  0
  -31.6604  -24.3020   17.7443 C   0  0  2  0  0  0  0  0  0  0  0  0
  -28.6794  -27.7854   16.4047 C   0  0  0  0  0  0  0  0  0  0  0  0
  -24.8152  -17.7623   17.0379 C   0  0  0  0  0  0  0  0  0  0  0  0
  -22.8685  -19.1329   18.4429 C   0  0  0  0  0  0  0  0  0  0  0  0
  -25.7414  -11.4497   20.2629 N   0  0  0  0  0  0  0  0  0  0  0  0
  -26.1864  -12.6807   20.5674 N   0  0  0  0  0  0  0  0  0  0  0  0
  -27.0115  -26.3613   19.2429 N   0  0  0  0  0  0  0  0  0  0  0  0
  -29.8178  -13.5204   19.7535 N   0  0  0  0  0  0  0  0  0  0  0  0
  -25.4726  -14.9076   20.9446 N   0  0  0  0  0  0  0  0  0  0  0  0
  -21.6253  -12.7175   20.0515 N   0  0  0  0  0  0  0  0  0  0  0  0
  -29.7684  -15.8125   19.1636 N   0  0  0  0  0  0  0  0  0  0  0  0
  -24.9847  -28.8170   20.8526 N   0  0  0  0  0  0  0  0  0  0  0  0
  -29.9825  -26.0148   17.6581 N   0  0  0  0  0  0  0  0  0  0  0  0
  -31.7100  -23.3255   18.8689 N   0  3  0  0  0  0  0  0  0  0  0  0
  -31.4200  -17.4565   19.1970 O   0  0  0  0  0  0  0  0  0  0  0  0
  -22.5286  -14.7631   20.5595 O   0  0  0  0  0  0  0  0  0  0  0  0
  -24.6521  -27.5255   18.9438 O   0  0  0  0  0  0  0  0  0  0  0  0
  -28.7418  -27.9156   19.4063 O   0  0  0  0  0  0  0  0  0  0  0  0
  -29.3957  -23.8621   17.0268 O   0  0  0  0  0  0  0  0  0  0  0  0
  -31.7275  -14.8315   19.8831 O   0  0  0  0  0  0  0  0  0  0  0  0
  -21.1184   -7.2950   18.8789 O   0  0  0  0  0  0  0  0  0  0  0  0
  -23.1678  -21.5721   18.5738 O   0  0  0  0  0  0  0  0  0  1  0  0
  -16.4622   -6.6990   21.7718 F   0  0  0  0  0  0  0  0  0  0  0  0
  -20.6525   -5.0085   20.3613 F   0  0  0  0  0  0  0  0  0  0  0  0
  1  2  1  0  0  0  0
  1  7  2  0  0  0  0
  2  8  2  0  0  0  0
  3  6  1  0  0  0  0
  3 10  2  0  0  0  0
  4 11  2  0  0  0  0
  4 19  1  0  0  0  0
  5 12  1  0  0  0  0
  5 19  2  0  0  0  0
  6 20  2  0  0  0  0
  7 22  1  0  0  0  0
  8 24  1  0  0  0  0
  9 13  2  0  0  0  0
  9 23  1  0  0  0  0
 10 26  1  0  0  0  0
 11 27  1  0  0  0  0
 12 27  2  0  0  0  0
 13 28  1  0  0  0  0
 14 15  2  0  0  0  0
 14 29  1  0  0  0  0
 15 30  1  0  0  0  0
 16 20  1  0  0  0  0
 16 26  2  0  0  0  0
 17 25  1  0  0  0  0
 17 28  2  0  0  0  0
 18 30  2  0  0  0  0
 18 31  1  0  0  0  0
 19 32  1  0  0  0  0
 20 34  1  0  0  0  0
 21 32  1  0  0  0  0
 21 33  2  0  0  0  0
 21 35  1  0  0  0  0
 22 24  2  0  0  0  0
 22 40  1  0  0  0  0
 23 25  2  0  0  0  0
 23 41  1  0  0  0  0
 24 49  1  0  0  0  0
 25 42  1  0  0  0  0
 26 61  1  0  0  0  0
 27 85  1  0  0  0  0
 28 86  1  0  0  0  0
 29 31  2  0  0  0  0
 29 85  1  0  0  0  0
 30 87  1  0  0  0  0
 31 88  1  0  0  0  0
 32 69  2  0  0  0  0
 33 70  1  0  0  0  0
 33 73  1  0  0  0  0
 34 75  1  0  0  0  0
 34 79  2  0  0  0  0
 35 74  1  0  0  0  0
 35 80  2  0  0  0  0
 36 50  1  0  0  0  0
 36 76  1  0  0  0  0
 36 81  2  0  0  0  0
 37 64  1  0  0  0  0
 37 71  1  0  0  0  0
 37 82  2  0  0  0  0
 38 65  1  0  0  0  0
 38 77  1  0  0  0  0
 38 83  2  0  0  0  0
 39 72  1  0  0  0  0
 39 75  1  0  0  0  0
 39 84  2  0  0  0  0
 40 43  1  0  0  0  0
 41 50  1  0  0  0  0
 42 71  1  0  0  0  0
 43 45  1  0  0  0  0
 44 46  1  0  0  0  0
 44 47  1  0  0  0  0
 45 49  1  0  0  0  0
 46 51  1  0  0  0  0
 47 72  1  0  0  0  0
 48 51  1  0  0  0  0
 48 72  1  0  0  0  0
 49 76  1  0  0  0  0
 50 71  1  0  0  0  0
 51 70  1  0  0  0  0
 52 65  1  0  0  0  0
 53 66  1  0  0  0  0
 54 66  1  0  0  0  0
 55 66  1  0  0  0  0
 56 67  1  0  0  0  0
 57 67  1  0  0  0  0
 58 68  1  0  0  0  0
 59 68  1  0  0  0  0
 60 78  1  0  0  0  0
 61 67  1  0  0  0  0
 62 67  1  0  0  0  0
 62 68  1  0  0  0  0
 63 68  1  0  0  0  0
 63 86  1  0  0  0  0
 64 66  1  0  0  0  0
 64 77  1  0  0  0  0
 65 78  1  0  0  0  0
 69 70  1  0  0  0  0
M  CHG  1  78   1
M  ISO  4  39 100  63 101  75 100  86 101
M  END
> <Batch ID>
0142

> <Smiles>
CNC(C)C(=O)NC(C(=O)N1Cc2cc([101O:1][101CH2:1]C(C)(C)CC(C)(C)Cc3cccc(C(=O)[100NH:0][100C:0](=O)N4CCCC(n5nc(-c6ccc(Oc7ccc(F)cc7F)cc6)c(C(N)=O)c5N)C4)c3)ccc2CC1C(=O)NC1CCCc2ccccc21)C(C)(C)C

> <Shape>
0.232

> <Color>
0.115

> <Negative vol penalty>
0.000

$$$$

  -OEChem-04052302573D

 86 95  0     1  0  0  0  0  0999 V2000
  -21.2396  -32.6139   26.3180 C   0  0  0  0  0  0  0  0  0  0  0  0
  -22.4446  -32.1483   25.8016 C   0  0  0  0  0  0  0  0  0  0  0  0
  -26.4616  -13.2407   21.2595 C   0  0  0  0  0  0  0  0  0  0  0  0
  -24.5913  -13.1566   19.7324 C   0  0  0  0  0  0  0  0  0  0  0  0
  -20.0595  -31.9142   26.0699 C   0  0  0  0  0  0  0  0  0  0  0  0
  -22.4703  -30.9820   25.0377 C   0  0  0  0  0  0  0  0  0  0  0  0
  -26.1205  -29.7848   20.2681 C   0  0  0  0  0  0  0  0  0  0  0  0
  -27.9073  -25.0235   22.7331 C   0  0  0  0  0  0  0  0  0  0  0  0
  -27.0083  -23.9532   22.7576 C   0  0  0  0  0  0  0  0  0  0  0  0
  -26.4202  -11.8523   21.3866 C   0  0  0  0  0  0  0  0  0  0  0  0
  -24.5500  -11.7682   19.8594 C   0  0  0  0  0  0  0  0  0  0  0  0
  -27.3087  -29.0644   20.1539 C   0  0  0  0  0  0  0  0  0  0  0  0
  -23.4048   -9.5040   22.0939 C   0  0  0  0  0  0  0  0  0  0  0  0
  -22.1574   -8.9066   22.2747 C   0  0  0  0  0  0  0  0  0  0  0  0
  -29.5032  -23.7736   24.0708 C   0  0  0  0  0  0  0  0  0  0  0  0
  -26.0581  -27.1250   19.4511 C   0  0  0  0  0  0  0  0  0  0  0  0
  -22.4711   -7.6367   20.2434 C   0  0  0  0  0  0  0  0  0  0  0  0
  -25.5471  -13.8929   20.4324 C   0  0  0  0  0  0  0  0  0  0  0  0
  -26.3234  -16.0736   19.3604 C   0  0  0  0  0  0  0  0  0  0  0  0
  -20.0693  -30.7440   25.2945 C   0  0  0  0  0  0  0  0  0  0  0  0
  -24.8892  -29.1765   19.9848 C   0  0  0  0  0  0  0  0  0  0  0  0
  -21.2894  -30.2652   24.7801 C   0  0  0  0  0  0  0  0  0  0  0  0
  -28.6095  -22.7143   24.0836 C   0  0  0  0  0  0  0  0  0  0  0  0
  -24.8560  -27.8405   19.5601 C   0  0  0  0  0  0  0  0  0  0  0  0
  -29.1459  -24.9348   23.3849 C   0  0  0  0  0  0  0  0  0  0  0  0
  -27.3744  -22.8014   23.4387 C   0  0  0  0  0  0  0  0  0  0  0  0
  -25.4645  -11.1160   20.6866 C   0  0  0  0  0  0  0  0  0  0  0  0
  -27.2774  -27.7335   19.7481 C   0  0  0  0  0  0  0  0  0  0  0  0
  -24.1854   -9.1678   20.9878 C   0  0  0  0  0  0  0  0  0  0  0  0
  -21.6906   -7.9730   21.3495 C   0  0  0  0  0  0  0  0  0  0  0  0
  -23.7186   -8.2342   20.0626 C   0  0  0  0  0  0  0  0  0  0  0  0
  -25.5890  -15.3272   20.3012 C   0  0  0  0  0  0  0  0  0  0  0  0
  -26.0253  -17.3822   19.6522 C   0  0  0  0  0  0  0  0  0  0  0  0
  -27.1970  -15.6243   18.3160 C   0  0  0  0  0  0  0  0  0  0  0  0
  -22.2616  -28.5445   21.6581 C   0  0  0  0  0  0  0  0  0  0  0  0
  -30.3714  -26.1720   20.8116 C   0  0  0  0  0  0  0  0  0  0  0  0
  -21.1211  -27.5987   18.7725 C   0  0  0  0  0  0  0  0  0  0  0  0
  -21.7886  -26.4676   15.6226 C   0  0  0  0  0  0  0  0  0  0  0  0
  -25.2837  -21.4590   23.3698 C   0  0  0  0  0  0  0  0  0  0  0  0
  -18.7753  -29.9959   25.0928 C   0  0  0  0  0  0  0  0  0  0  0  0
  -23.6187  -29.9750   20.0871 C   0  0  0  0  0  0  0  0  0  0  0  0
  -28.7570  -21.4132   24.8043 C   0  0  0  0  0  0  0  0  0  0  0  0
  -23.5618  -27.1471   19.2244 C   0  0  0  0  0  0  0  0  0  0  0  0
  -18.8328  -28.9738   23.9604 C   0  0  0  0  0  0  0  0  0  0  0  0
  -22.5139  -19.3848   22.6627 C   0  0  0  0  0  0  0  0  0  0  0  0
  -20.1051  -28.1383   24.0595 C   0  0  0  0  0  0  0  0  0  0  0  0
  -23.1206  -18.1863   21.9380 C   0  0  0  0  0  0  0  0  0  0  0  0
  -27.5532  -20.6257   24.2712 C   0  0  0  0  0  0  0  0  0  0  0  0
  -23.4342  -19.8648   23.7768 C   0  0  0  0  0  0  0  0  0  0  0  0
  -25.4351  -19.0638   22.5457 C   0  0  0  0  0  0  0  0  0  0  0  0
  -21.3543  -29.0176   23.9261 C   0  0  1  0  0  0  0  0  0  0  0  0
  -22.3790  -29.1047   20.2688 C   0  0  1  0  0  0  0  0  0  0  0  0
  -24.5284  -18.5217   21.4215 C   0  0  1  0  0  0  0  0  0  0  0  0
  -20.6497  -25.7476   13.5055 C   0  0  0  0  0  0  0  0  0  0  0  0
  -32.0329  -27.3628   22.2822 C   0  0  0  0  0  0  0  0  0  0  0  0
  -32.0077  -24.8828   22.2326 C   0  0  0  0  0  0  0  0  0  0  0  0
  -20.3888  -24.9380   20.0742 C   0  0  0  0  0  0  0  0  0  0  0  0
  -20.1560  -23.9599   17.7813 C   0  0  0  0  0  0  0  0  0  0  0  0
  -18.6707  -25.8335   18.4927 C   0  0  0  0  0  0  0  0  0  0  0  0
  -23.0778  -28.6241   14.0586 C   0  0  0  0  0  0  0  0  0  0  0  0
  -30.0857  -26.0931   23.3476 C   0  0  0  0  0  0  0  0  0  0  0  0
  -29.5068  -27.3834   20.4986 C   0  0  0  0  0  0  0  0  0  1  0  0
  -21.1065  -26.3006   18.0019 C   0  0  1  0  0  0  0  0  0  0  0  0
  -21.2743  -26.9083   14.2640 C   0  0  2  0  0  0  0  0  0  0  0  0
  -31.1093  -26.1334   22.1694 C   0  0  0  0  0  0  0  0  0  0  0  0
  -20.1049  -25.2702   18.5957 C   0  0  0  0  0  0  0  0  0  0  0  0
  -24.8779  -16.0975   21.1288 N   0  0  0  0  0  0  0  0  0  0  0  0
  -25.1642  -17.3416   20.7091 N   0  0  0  0  0  0  0  0  0  0  0  0
  -26.6550  -21.5950   23.5961 N   0  0  0  0  0  0  0  0  0  0  0  0
  -22.3459  -27.9683   19.3460 N   0  0  0  0  0  0  0  0  0  0  0  0
  -24.7818  -20.1520   23.2833 N   0  0  0  0  0  0  0  0  0  0  0  0
  -26.4183  -18.5522   19.1052 N   0  0  0  0  0  0  0  0  0  0  0  0
  -27.3916  -14.2458   18.1547 N   0  0  0  0  0  0  0  0  0  0  0  0
  -21.5829  -29.3640   22.5397 N   0  0  0  0  0  0  0  0  0  0  0  0
  -20.8454  -26.6545   16.6109 N   0  0  0  0  0  0  0  0  0  0  0  0
  -22.3884  -27.4611   13.4429 N   0  3  0  0  0  0  0  0  0  0  0  0
  -27.8002  -16.4223   17.5591 O   0  0  0  0  0  0  0  0  0  0  0  0
  -22.7494  -27.4492   21.9111 O   0  0  0  0  0  0  0  0  0  0  0  0
  -30.4966  -25.2643   19.9858 O   0  0  0  0  0  0  0  0  0  0  0  0
  -20.0856  -28.2639   18.8562 O   0  0  0  0  0  0  0  0  0  0  0  0
  -22.9130  -26.0005   15.7897 O   0  0  0  0  0  0  0  0  0  0  0  0
  -24.5219  -22.4324   23.3163 O   0  0  0  0  0  0  0  0  0  0  0  0
  -25.4240   -9.7611   20.8102 O   0  0  0  0  0  0  0  0  0  0  0  0
  -28.4467  -27.0211   19.6353 O   0  0  0  0  0  0  0  0  0  1  0  0
  -20.4933   -7.3983   21.5240 F   0  0  0  0  0  0  0  0  0  0  0  0
  -24.4645   -7.9063   18.9987 F   0  0  0  0  0  0  0  0  0  0  0  0
  1  2  1  0  0  0  0
  1  5  2  0  0  0  0
  2  6  2  0  0  0  0
  3 10  2  0  0  0  0
  3 18  1  0  0  0  0
  4 11  1  0  0  0  0
  4 18  2  0  0  0  0
  5 20  1  0  0  0  0
  6 22  1  0  0  0  0
  7 12  2  0  0  0  0
  7 21  1  0  0  0  0
  8  9  2  0  0  0  0
  8 25  1  0  0  0  0
  9 26  1  0  0  0  0
 10 27  1  0  0  0  0
 11 27  2  0  0  0  0
 12 28  1  0  0  0  0
 13 14  2  0  0  0  0
 13 29  1  0  0  0  0
 14 30  1  0  0  0  0
 15 23  1  0  0  0  0
 15 25  2  0  0  0  0
 16 24  1  0  0  0  0
 16 28  2  0  0  0  0
 17 30  2  0  0  0  0
 17 31  1  0  0  0  0
 18 32  1  0  0  0  0
 19 32  1  0  0  0  0
 19 33  2  0  0  0  0
 19 34  1  0  0  0  0
 20 22  2  0  0  0  0
 20 40  1  0  0  0  0
 21 24  2  0  0  0  0
 21 41  1  0  0  0  0
 22 51  1  0  0  0  0
 23 26  2  0  0  0  0
 23 42  1  0  0  0  0
 24 43  1  0  0  0  0
 25 61  1  0  0  0  0
 26 69  1  0  0  0  0
 27 83  1  0  0  0  0
 28 84  1  0  0  0  0
 29 31  2  0  0  0  0
 29 83  1  0  0  0  0
 30 85  1  0  0  0  0
 31 86  1  0  0  0  0
 32 67  2  0  0  0  0
 33 68  1  0  0  0  0
 33 72  1  0  0  0  0
 34 73  1  0  0  0  0
 34 77  2  0  0  0  0
 35 52  1  0  0  0  0
 35 74  1  0  0  0  0
 35 78  2  0  0  0  0
 36 62  1  0  0  0  0
 36 65  1  0  0  0  0
 36 79  2  0  0  0  0
 37 63  1  0  0  0  0
 37 70  1  0  0  0  0
 37 80  2  0  0  0  0
 38 64  1  0  0  0  0
 38 75  1  0  0  0  0
 38 81  2  0  0  0  0
 39 69  1  0  0  0  0
 39 71  1  0  0  0  0
 39 82  2  0  0  0  0
 40 44  1  0  0  0  0
 41 52  1  0  0  0  0
 42 48  1  0  0  0  0
 43 70  1  0  0  0  0
 44 46  1  0  0  0  0
 45 47  1  0  0  0  0
 45 49  1  0  0  0  0
 46 51  1  0  0  0  0
 47 53  1  0  0  0  0
 48 69  1  0  0  0  0
 49 71  1  0  0  0  0
 50 53  1  0  0  0  0
 50 71  1  0  0  0  0
 51 74  1  0  0  0  0
 52 70  1  0  0  0  0
 53 68  1  0  0  0  0
 54 64  1  0  0  0  0
 55 65  1  0  0  0  0
 56 65  1  0  0  0  0
 57 66  1  0  0  0  0
 58 66  1  0  0  0  0
 59 66  1  0  0  0  0
 60 76  1  0  0  0  0
 61 65  1  0  0  0  0
 62 84  1  0  0  0  0
 63 66  1  0  0  0  0
 63 75  1  0  0  0  0
 64 76  1  0  0  0  0
 67 68  1  0  0  0  0
M  CHG  1  76   1
M  ISO  4  39 100  62 101  69 100  84 101
M  END
> <Batch ID>
0142

> <Smiles>
CNC(C)C(=O)NC(C(=O)N1Cc2cc([101O:1][101CH2:1]C(=O)C(C)(C)Cc3ccc4c(c3)CC[100N:0]4[100C:0](=O)N3CCCC(n4nc(-c5ccc(Oc6ccc(F)cc6F)cc5)c(C(N)=O)c4N)C3)ccc2CC1C(=O)NC1CCCc2ccccc21)C(C)(C)C

> <Shape>
0.180

> <Color>
0.100

> <Negative vol penalty>
0.000

$$$$

  -OEChem-04052302573D

 90 99  0     1  0  0  0  0  0999 V2000
  -22.7801  -23.3789   21.5867 C   0  0  0  0  0  0  0  0  0  0  0  0
  -23.9673  -22.6553   21.6342 C   0  0  0  0  0  0  0  0  0  0  0  0
  -22.5278  -30.1732   21.4230 C   0  0  0  0  0  0  0  0  0  0  0  0
  -23.6800  -29.1006   23.2558 C   0  0  0  0  0  0  0  0  0  0  0  0
  -21.5842  -22.7807   21.9814 C   0  0  0  0  0  0  0  0  0  0  0  0
  -23.9595  -21.3333   22.0775 C   0  0  0  0  0  0  0  0  0  0  0  0
  -26.7277  -18.2807   19.1341 C   0  0  0  0  0  0  0  0  0  0  0  0
  -21.4410  -30.4324   22.2579 C   0  0  0  0  0  0  0  0  0  0  0  0
  -22.5931  -29.3598   24.0908 C   0  0  0  0  0  0  0  0  0  0  0  0
  -28.1115  -18.3202   19.2991 C   0  0  0  0  0  0  0  0  0  0  0  0
  -18.2148  -31.0580   23.8149 C   0  0  0  0  0  0  0  0  0  0  0  0
  -16.9372  -30.8023   23.3171 C   0  0  0  0  0  0  0  0  0  0  0  0
  -33.4822  -25.4918   20.0469 C   0  0  0  0  0  0  0  0  0  0  0  0
  -28.0028  -16.3177   20.6398 C   0  0  0  0  0  0  0  0  0  0  0  0
  -31.7072  -23.6958   18.8611 C   0  0  0  0  0  0  0  0  0  0  0  0
  -17.5208  -28.4777   23.0130 C   0  0  0  0  0  0  0  0  0  0  0  0
  -23.6473  -29.5072   21.9219 C   0  0  0  0  0  0  0  0  0  0  0  0
  -25.8893  -30.0638   20.8395 C   0  0  0  0  0  0  0  0  0  0  0  0
  -21.5602  -21.4476   22.4207 C   0  0  0  0  0  0  0  0  0  0  0  0
  -25.9685  -17.2638   19.7308 C   0  0  0  0  0  0  0  0  0  0  0  0
  -22.7623  -20.7171   22.4798 C   0  0  0  0  0  0  0  0  0  0  0  0
  -33.8867  -24.1834   19.7824 C   0  0  0  0  0  0  0  0  0  0  0  0
  -26.6098  -16.2661   20.4787 C   0  0  0  0  0  0  0  0  0  0  0  0
  -32.1901  -25.9022   19.7186 C   0  0  0  0  0  0  0  0  0  0  0  0
  -31.3026  -25.0042   19.1257 C   0  0  0  0  0  0  0  0  0  0  0  0
  -21.4736  -30.0258   23.5918 C   0  0  0  0  0  0  0  0  0  0  0  0
  -28.7489  -17.3403   20.0544 C   0  0  0  0  0  0  0  0  0  0  0  0
  -19.1455  -30.0235   23.9117 C   0  0  0  0  0  0  0  0  0  0  0  0
  -32.9993  -23.2854   19.1895 C   0  0  0  0  0  0  0  0  0  0  0  0
  -16.5901  -29.5122   22.9161 C   0  0  0  0  0  0  0  0  0  0  0  0
  -18.7985  -28.7334   23.5108 C   0  0  0  0  0  0  0  0  0  0  0  0
  -24.7702  -29.2386   21.0598 C   0  0  0  0  0  0  0  0  0  0  0  0
  -26.6615  -29.3634   19.9453 C   0  0  0  0  0  0  0  0  0  0  0  0
  -26.2028  -31.3484   21.3937 C   0  0  0  0  0  0  0  0  0  0  0  0
  -23.6470  -17.1767   21.9003 C   0  0  0  0  0  0  0  0  0  0  0  0
  -23.5798  -14.0256   21.1331 C   0  0  0  0  0  0  0  0  0  0  0  0
  -25.2288  -11.3131   19.8801 C   0  0  0  0  0  0  0  0  0  0  0  0
  -28.9942  -24.6212   18.1924 C   0  0  0  0  0  0  0  0  0  0  0  0
  -20.2505  -20.8588   22.8820 C   0  0  0  0  0  0  0  0  0  0  0  0
  -24.4797  -17.2201   19.5211 C   0  0  0  0  0  0  0  0  0  0  0  0
  -25.8426  -15.1415   21.1232 C   0  0  0  0  0  0  0  0  0  0  0  0
  -20.2698  -19.3358   22.9842 C   0  0  0  0  0  0  0  0  0  0  0  0
  -25.6190  -25.2205   17.2303 C   0  0  0  0  0  0  0  0  0  0  0  0
  -36.4383  -24.5443   19.6002 C   0  0  0  0  0  0  0  0  0  0  0  0
  -36.1567  -23.1719   19.0734 C   0  0  0  0  0  0  0  0  0  0  0  0
  -21.5300  -18.8649   23.7032 C   0  0  0  0  0  0  0  0  0  0  0  0
  -25.1893  -26.3872   18.1227 C   0  0  0  0  0  0  0  0  0  0  0  0
  -26.5468  -24.2554   17.9661 C   0  0  0  0  0  0  0  0  0  0  0  0
  -27.2885  -26.0452   19.4879 C   0  0  0  0  0  0  0  0  0  0  0  0
  -35.2722  -23.7600   20.1407 C   0  0  0  0  0  0  0  0  0  0  0  0
  -22.7907  -19.2730   22.9314 C   0  0  1  0  0  0  0  0  0  0  0  0
  -23.7471  -16.4294   20.6006 C   0  0  1  0  0  0  0  0  0  0  0  0
  -26.4050  -27.0788   18.7703 C   0  0  2  0  0  0  0  0  0  0  0  0
  -31.7835  -27.3094   20.0145 C   0  0  0  0  0  0  0  0  0  0  0  0
  -24.9260   -8.8659   19.4140 C   0  0  0  0  0  0  0  0  0  0  0  0
  -23.8912  -13.4230   24.1080 C   0  0  0  0  0  0  0  0  0  0  0  0
  -24.5298  -11.0809   23.4955 C   0  0  0  0  0  0  0  0  0  0  0  0
  -22.2655  -11.9482   22.9094 C   0  0  0  0  0  0  0  0  0  0  0  0
  -32.4970  -18.5097   21.4373 C   0  0  0  0  0  0  0  0  0  0  0  0
  -32.8395  -16.9813   19.5104 C   0  0  0  0  0  0  0  0  0  0  0  0
  -32.9534  -19.4355   17.5920 C   0  0  0  0  0  0  0  0  0  0  0  0
  -34.6497  -19.4856   19.4052 C   0  0  0  0  0  0  0  0  0  0  0  0
  -25.6772  -11.6915   16.9793 C   0  0  0  0  0  0  0  0  0  0  0  0
  -30.8011  -18.4476   19.5870 C   0  0  0  0  0  0  0  0  0  1  0  0
  -32.6254  -20.9655   19.5553 C   0  0  0  0  0  0  0  0  0  0  0  0
  -24.2821  -12.7876   21.6362 C   0  0  1  0  0  0  0  0  0  0  0  0
  -24.8224  -10.2745   18.8501 C   0  0  2  0  0  0  0  0  0  0  0  0
  -23.7567  -12.3321   23.0269 C   0  0  0  0  0  0  0  0  0  0  0  0
  -32.3260  -18.3923   19.9004 C   0  0  0  0  0  0  0  0  0  0  0  0
  -33.1245  -19.5529   19.1289 C   0  0  0  0  0  0  0  0  0  0  0  0
  -24.8228  -28.1011   20.3617 N   0  0  0  0  0  0  0  0  0  0  0  0
  -25.9842  -28.2066   19.6939 N   0  0  0  0  0  0  0  0  0  0  0  0
  -24.3882  -15.1460   20.8943 N   0  0  0  0  0  0  0  0  0  0  0  0
  -27.6774  -24.9805   18.5498 N   0  0  0  0  0  0  0  0  0  0  0  0
  -27.8470  -29.6305   19.3573 N   0  0  0  0  0  0  0  0  0  0  0  0
  -25.2997  -31.9246   22.2975 N   0  0  0  0  0  0  0  0  0  0  0  0
  -29.9860  -25.4020   18.7852 N   0  0  0  0  0  0  0  0  0  0  0  0
  -22.9985  -18.3929   21.8015 N   0  0  0  0  0  0  0  0  0  0  0  0
  -24.1423  -11.7840   20.5866 N   0  0  0  0  0  0  0  0  0  0  0  0
  -25.6996  -10.3656   17.6488 N   0  3  0  0  0  0  0  0  0  0  0  0
  -27.2446  -31.9744   21.0835 O   0  0  0  0  0  0  0  0  0  0  0  0
  -24.1215  -16.6855   22.9178 O   0  0  0  0  0  0  0  0  0  0  0  0
  -22.3601  -13.9974   20.9516 O   0  0  0  0  0  0  0  0  0  0  0  0
  -26.3939  -11.6681   20.0442 O   0  0  0  0  0  0  0  0  0  0  0  0
  -29.2241  -23.7070   17.3965 O   0  0  0  0  0  0  0  0  0  0  0  0
  -20.4133  -30.2788   24.4069 O   0  0  0  0  0  0  0  0  0  0  0  0
  -30.0995  -17.3769   20.2176 O   0  0  0  0  0  0  0  0  0  1  0  0
  -33.3782  -21.9976   18.9226 O   0  0  0  0  0  0  0  0  0  0  0  0
  -15.3627  -29.2665   22.4395 F   0  0  0  0  0  0  0  0  0  0  0  0
  -19.6880  -27.7353   23.6025 F   0  0  0  0  0  0  0  0  0  0  0  0
  1  2  1  0  0  0  0
  1  5  2  0  0  0  0
  2  6  2  0  0  0  0
  3  8  2  0  0  0  0
  3 17  1  0  0  0  0
  4  9  1  0  0  0  0
  4 17  2  0  0  0  0
  5 19  1  0  0  0  0
  6 21  1  0  0  0  0
  7 10  2  0  0  0  0
  7 20  1  0  0  0  0
  8 26  1  0  0  0  0
  9 26  2  0  0  0  0
 10 27  1  0  0  0  0
 11 12  2  0  0  0  0
 11 28  1  0  0  0  0
 12 30  1  0  0  0  0
 13 22  1  0  0  0  0
 13 24  2  0  0  0  0
 14 23  1  0  0  0  0
 14 27  2  0  0  0  0
 15 25  2  0  0  0  0
 15 29  1  0  0  0  0
 16 30  2  0  0  0  0
 16 31  1  0  0  0  0
 17 32  1  0  0  0  0
 18 32  1  0  0  0  0
 18 33  2  0  0  0  0
 18 34  1  0  0  0  0
 19 21  2  0  0  0  0
 19 39  1  0  0  0  0
 20 23  2  0  0  0  0
 20 40  1  0  0  0  0
 21 51  1  0  0  0  0
 22 29  2  0  0  0  0
 22 50  1  0  0  0  0
 23 41  1  0  0  0  0
 24 25  1  0  0  0  0
 24 54  1  0  0  0  0
 25 77  1  0  0  0  0
 26 86  1  0  0  0  0
 27 87  1  0  0  0  0
 28 31  2  0  0  0  0
 28 86  1  0  0  0  0
 29 88  1  0  0  0  0
 30 89  1  0  0  0  0
 31 90  1  0  0  0  0
 32 71  2  0  0  0  0
 33 72  1  0  0  0  0
 33 75  1  0  0  0  0
 34 76  1  0  0  0  0
 34 81  2  0  0  0  0
 35 52  1  0  0  0  0
 35 78  1  0  0  0  0
 35 82  2  0  0  0  0
 36 66  1  0  0  0  0
 36 73  1  0  0  0  0
 36 83  2  0  0  0  0
 37 67  1  0  0  0  0
 37 79  1  0  0  0  0
 37 84  2  0  0  0  0
 38 74  1  0  0  0  0
 38 77  1  0  0  0  0
 38 85  2  0  0  0  0
 39 42  1  0  0  0  0
 40 52  1  0  0  0  0
 41 73  1  0  0  0  0
 42 46  1  0  0  0  0
 43 47  1  0  0  0  0
 43 48  1  0  0  0  0
 44 45  1  0  0  0  0
 44 50  1  0  0  0  0
 45 50  1  0  0  0  0
 46 51  1  0  0  0  0
 47 53  1  0  0  0  0
 48 74  1  0  0  0  0
 49 53  1  0  0  0  0
 49 74  1  0  0  0  0
 51 78  1  0  0  0  0
 52 73  1  0  0  0  0
 53 72  1  0  0  0  0
 55 67  1  0  0  0  0
 56 68  1  0  0  0  0
 57 68  1  0  0  0  0
 58 68  1  0  0  0  0
 59 69  1  0  0  0  0
 60 69  1  0  0  0  0
 61 70  1  0  0  0  0
 62 70  1  0  0  0  0
 63 80  1  0  0  0  0
 64 69  1  0  0  0  0
 64 87  1  0  0  0  0
 65 70  1  0  0  0  0
 65 88  1  0  0  0  0
 66 68  1  0  0  0  0
 66 79  1  0  0  0  0
 67 80  1  0  0  0  0
 69 70  1  0  0  0  0
 71 72  1  0  0  0  0
M  CHG  1  80   1
M  ISO  4  38 100  64 101  77 100  87 101
M  END
> <Batch ID>
0142

> <Smiles>
CNC(C)C(=O)NC(C(=O)N1Cc2cc([101O:1][101CH2:1]C(C)(C)C(C)(C)COc3cc([100NH:0][100C:0](=O)N4CCCC(n5nc(-c6ccc(Oc7ccc(F)cc7F)cc6)c(C(N)=O)c5N)C4)c(C)cc3C3CC3)ccc2CC1C(=O)NC1CCCc2ccccc21)C(C)(C)C

> <Shape>
0.234

> <Color>
0.066

> <Negative vol penalty>
0.000

$$$$

  -OEChem-04052302573D

 85 94  0     1  0  0  0  0  0999 V2000
  -29.9113  -34.8370   25.6264 C   0  0  0  0  0  0  0  0  0  0  0  0
  -29.5023  -33.5152   25.4823 C   0  0  0  0  0  0  0  0  0  0  0  0
  -23.7808   -9.5764   20.9242 C   0  0  0  0  0  0  0  0  0  0  0  0
  -24.2522  -10.4043   23.1444 C   0  0  0  0  0  0  0  0  0  0  0  0
  -28.9726  -35.8663   25.5687 C   0  0  0  0  0  0  0  0  0  0  0  0
  -28.1539  -33.2217   25.2816 C   0  0  0  0  0  0  0  0  0  0  0  0
  -27.4356  -29.7907   21.6268 C   0  0  0  0  0  0  0  0  0  0  0  0
  -23.2429   -8.4121   21.4726 C   0  0  0  0  0  0  0  0  0  0  0  0
  -23.7143   -9.2400   23.6928 C   0  0  0  0  0  0  0  0  0  0  0  0
  -27.6704  -28.4555   21.9519 C   0  0  0  0  0  0  0  0  0  0  0  0
  -20.3478   -7.4531   22.9326 C   0  0  0  0  0  0  0  0  0  0  0  0
  -19.1388   -6.9904   22.4131 C   0  0  0  0  0  0  0  0  0  0  0  0
  -30.4063  -20.5121   20.9904 C   0  0  0  0  0  0  0  0  0  0  0  0
  -30.6342  -19.1279   20.7410 C   0  0  0  0  0  0  0  0  0  0  0  0
  -25.2988  -28.1124   22.2296 C   0  0  0  0  0  0  0  0  0  0  0  0
  -20.2045   -4.9167   21.7798 C   0  0  0  0  0  0  0  0  0  0  0  0
  -24.2855  -10.5725   21.7601 C   0  0  0  0  0  0  0  0  0  0  0  0
  -24.1582  -12.9688   20.8945 C   0  0  0  0  0  0  0  0  0  0  0  0
  -27.6134  -35.5859   25.3575 C   0  0  0  0  0  0  0  0  0  0  0  0
  -26.1293  -30.3004   21.6113 C   0  0  0  0  0  0  0  0  0  0  0  0
  -27.1959  -34.2481   25.2224 C   0  0  0  0  0  0  0  0  0  0  0  0
  -25.0499  -29.4538   21.9015 C   0  0  0  0  0  0  0  0  0  0  0  0
  -23.2096   -8.2439   22.8569 C   0  0  0  0  0  0  0  0  0  0  0  0
  -26.6022  -27.6168   22.2562 C   0  0  0  0  0  0  0  0  0  0  0  0
  -21.4852   -6.6476   22.8755 C   0  0  0  0  0  0  0  0  0  0  0  0
  -19.0671   -5.7222   21.8368 C   0  0  0  0  0  0  0  0  0  0  0  0
  -21.4135   -5.3794   22.2992 C   0  0  0  0  0  0  0  0  0  0  0  0
  -24.8418  -11.7752   21.1943 C   0  0  0  0  0  0  0  0  0  0  0  0
  -25.1249  -13.7983   20.3808 C   0  0  0  0  0  0  0  0  0  0  0  0
  -29.1495  -20.7454   21.5036 C   0  0  0  0  0  0  0  0  0  0  0  0
  -29.5427  -18.3558   21.0735 C   0  0  0  0  0  0  0  0  0  0  0  0
  -22.7733  -13.2982   21.0652 C   0  0  0  0  0  0  0  0  0  0  0  0
  -24.5846  -32.5620   23.2245 C   0  0  0  0  0  0  0  0  0  0  0  0
  -22.2059  -31.8900   21.1240 C   0  0  0  0  0  0  0  0  0  0  0  0
  -20.7743  -29.6448   18.9894 C   0  0  0  0  0  0  0  0  0  0  0  0
  -30.2385  -15.9964   20.5299 C   0  0  0  0  0  0  0  0  0  0  0  0
  -26.6291  -36.7287   25.3499 C   0  0  0  0  0  0  0  0  0  0  0  0
  -25.8907  -31.7364   21.2324 C   0  0  0  0  0  0  0  0  0  0  0  0
  -23.6270  -29.9469   21.8791 C   0  0  0  0  0  0  0  0  0  0  0  0
  -25.2707  -36.3586   24.7598 C   0  0  0  0  0  0  0  0  0  0  0  0
  -29.8824  -12.8241   18.9530 C   0  0  0  0  0  0  0  0  0  0  0  0
  -24.7835  -35.0315   25.3327 C   0  0  0  0  0  0  0  0  0  0  0  0
  -28.4831  -12.3666   19.3709 C   0  0  0  0  0  0  0  0  0  0  0  0
  -27.4224  -23.5442   23.1933 C   0  0  0  0  0  0  0  0  0  0  0  0
  -30.5913  -13.5788   20.0762 C   0  0  0  0  0  0  0  0  0  0  0  0
  -27.6247  -22.0565   22.9369 C   0  0  0  0  0  0  0  0  0  0  0  0
  -28.4340  -14.2430   21.0631 C   0  0  0  0  0  0  0  0  0  0  0  0
  -25.7456  -33.8912   24.9784 C   0  0  1  0  0  0  0  0  0  0  0  0
  -24.5613  -32.2777   21.7493 C   0  0  1  0  0  0  0  0  0  0  0  0
  -27.6556  -13.5345   19.9425 C   0  0  2  0  0  0  0  0  0  0  0  0
  -27.6885  -24.1870   21.8236 C   0  0  1  0  0  0  0  0  0  0  0  0
  -28.9192  -23.3298   21.2974 C   0  0  0  0  0  0  0  0  0  0  0  0
  -26.4223  -24.0387   20.9439 C   0  0  0  0  0  0  0  0  0  0  0  0
  -30.2567  -23.8332   21.8828 C   0  0  0  0  0  0  0  0  0  0  0  0
  -28.9798  -23.3571   19.7609 C   0  0  0  0  0  0  0  0  0  0  0  0
  -18.8167  -29.3681   17.4439 C   0  0  0  0  0  0  0  0  0  0  0  0
  -20.3702  -31.4798   23.5265 C   0  0  0  0  0  0  0  0  0  0  0  0
  -18.7596  -30.3101   22.0080 C   0  0  0  0  0  0  0  0  0  0  0  0
  -19.3265  -32.7071   21.6137 C   0  0  0  0  0  0  0  0  0  0  0  0
  -22.5342  -29.2648   16.6405 C   0  0  0  0  0  0  0  0  0  0  0  0
  -27.9680  -25.6889   21.9842 C   0  0  0  0  0  0  0  0  0  1  0  0
  -21.0446  -30.9259   21.0966 C   0  0  1  0  0  0  0  0  0  0  0  0
  -20.2732  -29.7887   17.5637 C   0  0  2  0  0  0  0  0  0  0  0  0
  -19.9021  -31.3466   22.0636 C   0  0  0  0  0  0  0  0  0  0  0  0
  -26.1422  -11.8368   20.8957 N   0  0  0  0  0  0  0  0  0  0  0  0
  -26.2835  -13.0790   20.4029 N   0  0  0  0  0  0  0  0  0  0  0  0
  -28.6172  -21.9771   21.8528 N   0  0  3  0  0  0  0  0  0  0  0  0
  -23.4456  -31.3603   21.5089 N   0  0  0  0  0  0  0  0  0  0  0  0
  -29.7498  -14.6733   20.5651 N   0  0  0  0  0  0  0  0  0  0  0  0
  -25.0884  -15.0655   19.9168 N   0  0  0  0  0  0  0  0  0  0  0  0
  -21.9180  -12.3293   21.6074 N   0  0  0  0  0  0  0  0  0  0  0  0
  -29.3377  -16.9563   20.9900 N   0  0  0  0  0  0  0  0  0  0  0  0
  -25.5507  -33.4732   23.6067 N   0  0  0  0  0  0  0  0  0  0  0  0
  -20.6362  -30.8183   19.7002 N   0  0  0  0  0  0  0  0  0  0  0  0
  -21.0838  -28.9435   16.6420 N   0  3  0  0  0  0  0  0  0  0  0  0
  -22.3049  -14.4129   20.7313 O   0  0  0  0  0  0  0  0  0  0  0  0
  -23.7844  -31.9978   23.9613 O   0  0  0  0  0  0  0  0  0  0  0  0
  -22.0213  -33.0682   20.8084 O   0  0  0  0  0  0  0  0  0  0  0  0
  -21.2381  -28.5953   19.4297 O   0  0  0  0  0  0  0  0  0  0  0  0
  -31.3626  -16.2618   20.0962 O   0  0  0  0  0  0  0  0  0  0  0  0
  -22.6846   -7.1081   23.3923 O   0  0  0  0  0  0  0  0  0  0  0  0
  -26.8286  -26.3132   22.5745 O   0  0  0  0  0  0  0  0  0  1  0  0
  -17.9056   -5.2774   21.3394 F   0  0  0  0  0  0  0  0  0  0  0  0
  -22.5026   -4.6006   22.2426 F   0  0  0  0  0  0  0  0  0  0  0  0
  -28.2502  -19.2992   21.6832 S   0  0  0  0  0  0  0  0  0  0  0  0
  1  2  1  0  0  0  0
  1  5  2  0  0  0  0
  2  6  2  0  0  0  0
  3  8  2  0  0  0  0
  3 17  1  0  0  0  0
  4  9  1  0  0  0  0
  4 17  2  0  0  0  0
  5 19  1  0  0  0  0
  6 21  1  0  0  0  0
  7 10  2  0  0  0  0
  7 20  1  0  0  0  0
  8 23  1  0  0  0  0
  9 23  2  0  0  0  0
 10 24  1  0  0  0  0
 11 12  2  0  0  0  0
 11 25  1  0  0  0  0
 12 26  1  0  0  0  0
 13 14  1  0  0  0  0
 13 30  2  0  0  0  0
 14 31  2  0  0  0  0
 15 22  1  0  0  0  0
 15 24  2  0  0  0  0
 16 26  2  0  0  0  0
 16 27  1  0  0  0  0
 17 28  1  0  0  0  0
 18 28  1  0  0  0  0
 18 29  2  0  0  0  0
 18 32  1  0  0  0  0
 19 21  2  0  0  0  0
 19 37  1  0  0  0  0
 20 22  2  0  0  0  0
 20 38  1  0  0  0  0
 21 48  1  0  0  0  0
 22 39  1  0  0  0  0
 23 81  1  0  0  0  0
 24 82  1  0  0  0  0
 25 27  2  0  0  0  0
 25 81  1  0  0  0  0
 26 83  1  0  0  0  0
 27 84  1  0  0  0  0
 28 65  2  0  0  0  0
 29 66  1  0  0  0  0
 29 70  1  0  0  0  0
 30 67  1  0  0  0  0
 30 85  1  0  0  0  0
 31 72  1  0  0  0  0
 31 85  1  0  0  0  0
 32 71  1  0  0  0  0
 32 76  2  0  0  0  0
 33 49  1  0  0  0  0
 33 73  1  0  0  0  0
 33 77  2  0  0  0  0
 34 62  1  0  0  0  0
 34 68  1  0  0  0  0
 34 78  2  0  0  0  0
 35 63  1  0  0  0  0
 35 74  1  0  0  0  0
 35 79  2  0  0  0  0
 36 69  1  0  0  0  0
 36 72  1  0  0  0  0
 36 80  2  0  0  0  0
 37 40  1  0  0  0  0
 38 49  1  0  0  0  0
 39 68  1  0  0  0  0
 40 42  1  0  0  0  0
 41 43  1  0  0  0  0
 41 45  1  0  0  0  0
 42 48  1  0  0  0  0
 43 50  1  0  0  0  0
 44 46  1  0  0  0  0
 44 51  1  0  0  0  0
 45 69  1  0  0  0  0
 46 67  1  0  0  0  0
 47 50  1  0  0  0  0
 47 69  1  0  0  0  0
 48 73  1  0  0  0  0
 49 68  1  0  0  0  0
 50 66  1  0  0  0  0
 51 52  1  0  0  0  0
 51 53  1  0  0  0  0
 51 61  1  0  0  0  0
 52 54  1  0  0  0  0
 52 55  1  0  0  0  0
 52 67  1  0  0  0  0
 56 63  1  0  0  0  0
 57 64  1  0  0  0  0
 58 64  1  0  0  0  0
 59 64  1  0  0  0  0
 60 75  1  0  0  0  0
 61 82  1  0  0  0  0
 62 64  1  0  0  0  0
 62 74  1  0  0  0  0
 63 75  1  0  0  0  0
 65 66  1  0  0  0  0
M  CHG  1  75   1
M  ISO  4  36 100  61 101  72 100  82 101
M  END
> <Batch ID>
0142

> <Smiles>
CNC(C)C(=O)NC(C(=O)N1Cc2cc([101O:1][101CH2:1]C3(C)CCN(c4ccc([100NH:0][100C:0](=O)N5CCCC(n6nc(-c7ccc(Oc8ccc(F)cc8F)cc7)c(C(N)=O)c6N)C5)s4)C3(C)C)ccc2CC1C(=O)NC1CCCc2ccccc21)C(C)(C)C

> <Shape>
0.308

> <Color>
0.156

> <Negative vol penalty>
0.000

$$$$

  -OEChem-04052302573D

 87 95  0     1  0  0  0  0  0999 V2000
  -21.3480  -10.2720   24.0086 C   0  0  0  0  0  0  0  0  0  0  0  0
  -22.6437  -10.7280   24.2288 C   0  0  0  0  0  0  0  0  0  0  0  0
  -20.1560  -28.3200   23.4552 C   0  0  0  0  0  0  0  0  0  0  0  0
  -19.9502  -26.7835   21.6021 C   0  0  0  0  0  0  0  0  0  0  0  0
  -20.6912  -10.5887   22.8203 C   0  0  0  0  0  0  0  0  0  0  0  0
  -23.2839  -11.5003   23.2601 C   0  0  0  0  0  0  0  0  0  0  0  0
  -28.0093  -16.8444   22.6068 C   0  0  0  0  0  0  0  0  0  0  0  0
  -18.7922  -28.6011   23.3736 C   0  0  0  0  0  0  0  0  0  0  0  0
  -18.5864  -27.0646   21.5205 C   0  0  0  0  0  0  0  0  0  0  0  0
  -29.1947  -17.1589   21.9436 C   0  0  0  0  0  0  0  0  0  0  0  0
  -16.7492  -30.4886   21.4533 C   0  0  0  0  0  0  0  0  0  0  0  0
  -16.3584  -31.8256   21.5262 C   0  0  0  0  0  0  0  0  0  0  0  0
  -27.9330  -17.7103   19.9628 C   0  0  0  0  0  0  0  0  0  0  0  0
  -15.0433  -31.3339   23.4924 C   0  0  0  0  0  0  0  0  0  0  0  0
  -20.7350  -27.4112   22.5694 C   0  0  0  0  0  0  0  0  0  0  0  0
  -30.7343  -22.9961   19.8174 C   0  0  0  0  0  0  0  0  0  0  0  0
  -22.7602  -26.1135   23.4192 C   0  0  0  0  0  0  0  0  0  0  0  0
  -21.3200  -11.3734   21.8407 C   0  0  0  0  0  0  0  0  0  0  0  0
  -26.7757  -16.9502   21.9484 C   0  0  0  0  0  0  0  0  0  0  0  0
  -22.6353  -11.8267   22.0570 C   0  0  0  0  0  0  0  0  0  0  0  0
  -26.7333  -17.3990   20.6207 C   0  0  0  0  0  0  0  0  0  0  0  0
  -29.4247  -23.4057   20.1643 C   0  0  0  0  0  0  0  0  0  0  0  0
  -18.0074  -27.9734   22.4062 C   0  0  0  0  0  0  0  0  0  0  0  0
  -29.1569  -17.5892   20.6205 C   0  0  0  0  0  0  0  0  0  0  0  0
  -16.2870  -29.5742   22.3998 C   0  0  0  0  0  0  0  0  0  0  0  0
  -15.5055  -32.2483   22.5458 C   0  0  0  0  0  0  0  0  0  0  0  0
  -15.4341  -29.9969   23.4194 C   0  0  0  0  0  0  0  0  0  0  0  0
  -22.1438  -27.1208   22.6528 C   0  0  0  0  0  0  0  0  0  0  0  0
  -31.3585  -24.1083   19.3023 C   0  0  0  0  0  0  0  0  0  0  0  0
  -24.1008  -26.2523   23.1542 C   0  0  0  0  0  0  0  0  0  0  0  0
  -29.3421  -24.7391   19.8366 C   0  0  0  0  0  0  0  0  0  0  0  0
  -31.7981  -21.0087   18.8666 C   0  0  0  0  0  0  0  0  0  0  0  0
  -31.3484  -21.6522   19.9628 C   0  0  0  0  0  0  0  0  0  0  0  0
  -22.1736  -25.1395   24.2926 C   0  0  0  0  0  0  0  0  0  0  0  0
  -24.4685  -14.9087   21.1658 C   0  0  0  0  0  0  0  0  0  0  0  0
  -22.9349  -17.6075   20.2238 C   0  0  0  0  0  0  0  0  0  0  0  0
  -23.1528  -20.8507   19.1842 C   0  0  0  0  0  0  0  0  0  0  0  0
  -28.3064  -27.0220   19.5872 C   0  0  0  0  0  0  0  0  0  0  0  0
  -20.5873  -11.6502   20.5519 C   0  0  0  0  0  0  0  0  0  0  0  0
  -25.5040  -16.6327   22.6862 C   0  0  0  0  0  0  0  0  0  0  0  0
  -25.4331  -17.5489   19.8755 C   0  0  0  0  0  0  0  0  0  0  0  0
  -21.1975  -12.7874   19.7365 C   0  0  0  0  0  0  0  0  0  0  0  0
  -26.6214  -29.9312   20.7595 C   0  0  0  0  0  0  0  0  0  0  0  0
  -22.7122  -12.6288   19.6494 C   0  0  0  0  0  0  0  0  0  0  0  0
  -25.3570  -29.3765   21.4196 C   0  0  0  0  0  0  0  0  0  0  0  0
  -27.0047  -29.1373   19.5118 C   0  0  0  0  0  0  0  0  0  0  0  0
  -25.8592  -27.1326   20.3710 C   0  0  0  0  0  0  0  0  0  0  0  0
  -23.3540  -12.6876   21.0408 C   0  0  1  0  0  0  0  0  0  0  0  0
  -24.3452  -16.2845   21.7570 C   0  0  1  0  0  0  0  0  0  0  0  0
  -25.4702  -27.8597   21.6686 C   0  0  2  0  0  0  0  0  0  0  0  0
  -32.7054  -24.3601   18.7654 C   0  0  0  0  0  0  0  0  0  0  0  0
  -31.4118  -21.1030   21.3619 C   0  0  0  0  0  0  0  0  0  0  0  0
  -28.1707  -22.8297   22.2577 C   0  0  0  0  0  0  0  0  0  0  0  0
  -21.7306  -22.7848   18.4534 C   0  0  0  0  0  0  0  0  0  0  0  0
  -22.5260  -16.2775   17.5084 C   0  0  0  0  0  0  0  0  0  0  0  0
  -21.9818  -18.5315   16.5643 C   0  0  0  0  0  0  0  0  0  0  0  0
  -20.5474  -17.5516   18.3545 C   0  0  0  0  0  0  0  0  0  0  0  0
  -31.4107  -19.0322   16.5364 C   0  0  0  0  0  0  0  0  0  0  0  0
  -32.3937  -17.2617   18.0014 C   0  0  0  0  0  0  0  0  0  0  0  0
  -24.0919  -22.5386   21.4266 C   0  0  0  0  0  0  0  0  0  0  0  0
  -28.3569  -22.5761   20.7582 C   0  0  0  0  0  0  0  0  0  0  0  0
  -32.4136  -19.6342   18.8000 C   0  0  0  0  0  0  0  0  0  0  0  0
  -30.2000  -18.3308   18.6161 C   0  0  0  0  0  0  0  0  0  1  0  0
  -22.8557  -18.3997   18.9413 C   0  0  1  0  0  0  0  0  0  0  0  0
  -22.4159  -22.1020   19.6268 C   0  0  2  0  0  0  0  0  0  0  0  0
  -22.0025  -17.6855   17.8552 C   0  0  0  0  0  0  0  0  0  0  0  0
  -31.5941  -18.5821   17.9978 C   0  0  0  0  0  0  0  0  0  0  0  0
  -23.0208  -27.8460   21.9535 N   0  0  0  0  0  0  0  0  0  0  0  0
  -24.2019  -27.2939   22.2795 N   0  0  0  0  0  0  0  0  0  0  0  0
  -24.2173  -17.2202   20.6379 N   0  0  0  0  0  0  0  0  0  0  0  0
  -27.0975  -27.7096   19.8247 N   0  0  0  0  0  0  0  0  0  0  0  0
  -25.1911  -25.5839   23.5864 N   0  0  0  0  0  0  0  0  0  0  0  0
  -20.7810  -25.1366   24.4506 N   0  0  0  0  0  0  0  0  0  0  0  0
  -28.2862  -25.6767   19.9539 N   0  0  0  0  0  0  0  0  0  0  0  0
  -23.4341  -14.0567   21.5030 N   0  0  0  0  0  0  0  0  0  0  0  0
  -22.3673  -19.7243   19.3092 N   0  0  0  0  0  0  0  0  0  0  0  0
  -23.3648  -23.0705   20.2452 N   0  3  0  0  0  0  0  0  0  0  0  0
  -22.8652  -24.3073   24.9271 O   0  0  0  0  0  0  0  0  0  0  0  0
  -25.4300  -14.6404   20.4552 O   0  0  0  0  0  0  0  0  0  0  0  0
  -21.8980  -17.3480   20.8395 O   0  0  0  0  0  0  0  0  0  0  0  0
  -24.3082  -20.8710   18.7658 O   0  0  0  0  0  0  0  0  0  0  0  0
  -29.2961  -27.5916   19.1201 O   0  0  0  0  0  0  0  0  0  0  0  0
  -30.5167  -25.1750   19.3106 O   0  0  0  0  0  0  0  0  0  0  0  0
  -16.6766  -28.2474   22.3265 O   0  0  0  0  0  0  0  0  0  0  0  0
  -30.3124  -17.8963   19.9707 O   0  0  0  0  0  0  0  0  0  1  0  0
  -15.1315  -33.5325   22.6167 F   0  0  0  0  0  0  0  0  0  0  0  0
  -14.9878  -29.1233   24.3324 F   0  0  0  0  0  0  0  0  0  0  0  0
  1  2  1  0  0  0  0
  1  5  2  0  0  0  0
  2  6  2  0  0  0  0
  3  8  2  0  0  0  0
  3 15  1  0  0  0  0
  4  9  1  0  0  0  0
  4 15  2  0  0  0  0
  5 18  1  0  0  0  0
  6 20  1  0  0  0  0
  7 10  2  0  0  0  0
  7 19  1  0  0  0  0
  8 23  1  0  0  0  0
  9 23  2  0  0  0  0
 10 24  1  0  0  0  0
 11 12  2  0  0  0  0
 11 25  1  0  0  0  0
 12 26  1  0  0  0  0
 13 21  1  0  0  0  0
 13 24  2  0  0  0  0
 14 26  2  0  0  0  0
 14 27  1  0  0  0  0
 15 28  1  0  0  0  0
 16 22  1  0  0  0  0
 16 29  2  0  0  0  0
 16 33  1  0  0  0  0
 17 28  1  0  0  0  0
 17 30  2  0  0  0  0
 17 34  1  0  0  0  0
 18 20  2  0  0  0  0
 18 39  1  0  0  0  0
 19 21  2  0  0  0  0
 19 40  1  0  0  0  0
 20 48  1  0  0  0  0
 21 41  1  0  0  0  0
 22 31  2  0  0  0  0
 22 61  1  0  0  0  0
 23 84  1  0  0  0  0
 24 85  1  0  0  0  0
 25 27  2  0  0  0  0
 25 84  1  0  0  0  0
 26 86  1  0  0  0  0
 27 87  1  0  0  0  0
 28 68  2  0  0  0  0
 29 51  1  0  0  0  0
 29 83  1  0  0  0  0
 30 69  1  0  0  0  0
 30 72  1  0  0  0  0
 31 74  1  0  0  0  0
 31 83  1  0  0  0  0
 32 33  2  0  0  0  0
 32 62  1  0  0  0  0
 33 52  1  0  0  0  0
 34 73  1  0  0  0  0
 34 78  2  0  0  0  0
 35 49  1  0  0  0  0
 35 75  1  0  0  0  0
 35 79  2  0  0  0  0
 36 64  1  0  0  0  0
 36 70  1  0  0  0  0
 36 80  2  0  0  0  0
 37 65  1  0  0  0  0
 37 76  1  0  0  0  0
 37 81  2  0  0  0  0
 38 71  1  0  0  0  0
 38 74  1  0  0  0  0
 38 82  2  0  0  0  0
 39 42  1  0  0  0  0
 40 49  1  0  0  0  0
 41 70  1  0  0  0  0
 42 44  1  0  0  0  0
 43 45  1  0  0  0  0
 43 46  1  0  0  0  0
 44 48  1  0  0  0  0
 45 50  1  0  0  0  0
 46 71  1  0  0  0  0
 47 50  1  0  0  0  0
 47 71  1  0  0  0  0
 48 75  1  0  0  0  0
 49 70  1  0  0  0  0
 50 69  1  0  0  0  0
 53 61  1  0  0  0  0
 54 65  1  0  0  0  0
 55 66  1  0  0  0  0
 56 66  1  0  0  0  0
 57 66  1  0  0  0  0
 58 67  1  0  0  0  0
 59 67  1  0  0  0  0
 60 77  1  0  0  0  0
 62 67  1  0  0  0  0
 63 67  1  0  0  0  0
 63 85  1  0  0  0  0
 64 66  1  0  0  0  0
 64 76  1  0  0  0  0
 65 77  1  0  0  0  0
 68 69  1  0  0  0  0
M  CHG  1  77   1
M  ISO  4  38 100  63 101  74 100  85 101
M  END
> <Batch ID>
0142

> <Smiles>
CCc1c([100NH:0][100C:0](=O)N2CCCC(n3nc(-c4ccc(Oc5ccc(F)cc5F)cc4)c(C(N)=O)c3N)C2)oc(C)c1C(C)=CCC(C)(C)[101CH2:1][101O:1]c1ccc2c(c1)CN(C(=O)C(NC(=O)C(C)NC)C(C)(C)C)C(C(=O)NC1CCCc3ccccc31)C2

> <Shape>
0.204

> <Color>
0.084

> <Negative vol penalty>
0.000

$$$$

  -OEChem-04052302573D

 91 99  0     1  0  0  0  0  0999 V2000
  -23.6734  -27.1001   13.5005 C   0  0  0  0  0  0  0  0  0  0  0  0
  -23.9187  -27.4689   14.8193 C   0  0  0  0  0  0  0  0  0  0  0  0
  -23.6609  -13.9123   19.4799 C   0  0  0  0  0  0  0  0  0  0  0  0
  -25.0066  -14.3611   21.4356 C   0  0  0  0  0  0  0  0  0  0  0  0
  -23.8356  -25.7723   13.1075 C   0  0  0  0  0  0  0  0  0  0  0  0
  -24.3252  -26.5098   15.7462 C   0  0  0  0  0  0  0  0  0  0  0  0
  -28.1545  -28.1117   18.6470 C   0  0  0  0  0  0  0  0  0  0  0  0
  -24.5655  -12.9274   19.0834 C   0  0  0  0  0  0  0  0  0  0  0  0
  -25.9112  -13.3761   21.0391 C   0  0  0  0  0  0  0  0  0  0  0  0
  -27.8416  -28.9791   19.6927 C   0  0  0  0  0  0  0  0  0  0  0  0
  -28.7636  -11.2294   20.3568 C   0  0  0  0  0  0  0  0  0  0  0  0
  -30.1236  -11.5299   20.4327 C   0  0  0  0  0  0  0  0  0  0  0  0
  -27.9275  -27.1324   21.2423 C   0  0  0  0  0  0  0  0  0  0  0  0
  -20.4054  -27.5316   21.2977 C   0  0  0  0  0  0  0  0  0  0  0  0
  -22.0920  -26.7128   23.3635 C   0  0  0  0  0  0  0  0  0  0  0  0
  -29.8036  -13.3659   18.8952 C   0  0  0  0  0  0  0  0  0  0  0  0
  -23.8814  -14.6292   20.6559 C   0  0  0  0  0  0  0  0  0  0  0  0
  -21.8141  -15.4812   21.8840 C   0  0  0  0  0  0  0  0  0  0  0  0
  -24.2536  -24.7982   14.0278 C   0  0  0  0  0  0  0  0  0  0  0  0
  -28.3459  -26.7440   18.8899 C   0  0  0  0  0  0  0  0  0  0  0  0
  -24.4918  -25.1674   15.3655 C   0  0  0  0  0  0  0  0  0  0  0  0
  -28.2453  -26.2502   20.1984 C   0  0  0  0  0  0  0  0  0  0  0  0
  -20.3272  -26.2276   21.7865 C   0  0  0  0  0  0  0  0  0  0  0  0
  -21.3270  -28.4263   21.8418 C   0  0  0  0  0  0  0  0  0  0  0  0
  -21.1705  -25.8182   22.8194 C   0  0  0  0  0  0  0  0  0  0  0  0
  -25.6907  -12.6593   19.8630 C   0  0  0  0  0  0  0  0  0  0  0  0
  -27.7252  -28.4891   20.9901 C   0  0  0  0  0  0  0  0  0  0  0  0
  -27.9236  -11.9972   19.5502 C   0  0  0  0  0  0  0  0  0  0  0  0
  -22.1703  -28.0169   22.8747 C   0  0  0  0  0  0  0  0  0  0  0  0
  -30.6436  -12.5981   19.7019 C   0  0  0  0  0  0  0  0  0  0  0  0
  -28.4436  -13.0654   18.8194 C   0  0  0  0  0  0  0  0  0  0  0  0
  -22.9476  -15.6471   21.0657 C   0  0  0  0  0  0  0  0  0  0  0  0
  -21.2677  -16.7382   21.9726 C   0  0  0  0  0  0  0  0  0  0  0  0
  -21.3012  -14.2968   22.5082 C   0  0  0  0  0  0  0  0  0  0  0  0
  -26.9058  -24.0741   17.9404 C   0  0  0  0  0  0  0  0  0  0  0  0
  -25.8080  -29.8498   23.7445 C   0  0  0  0  0  0  0  0  0  0  0  0
  -29.3544  -22.6526   19.5234 C   0  0  0  0  0  0  0  0  0  0  0  0
  -31.7479  -22.8630   21.9470 C   0  0  0  0  0  0  0  0  0  0  0  0
  -21.8235  -22.1191   22.7992 C   0  0  0  0  0  0  0  0  0  0  0  0
  -24.3694  -23.3667   13.5673 C   0  0  0  0  0  0  0  0  0  0  0  0
  -28.7093  -25.8260   17.7552 C   0  0  0  0  0  0  0  0  0  0  0  0
  -28.4613  -24.7936   20.5151 C   0  0  0  0  0  0  0  0  0  0  0  0
  -25.1647  -22.4816   14.5236 C   0  0  0  0  0  0  0  0  0  0  0  0
  -22.3037  -20.9698   19.4013 C   0  0  0  0  0  0  0  0  0  0  0  0
  -24.7129  -22.7097   15.9626 C   0  0  0  0  0  0  0  0  0  0  0  0
  -22.4206  -19.4582   19.6052 C   0  0  0  0  0  0  0  0  0  0  0  0
  -22.9764  -21.7345   20.5375 C   0  0  0  0  0  0  0  0  0  0  0  0
  -22.5964  -19.8696   22.1031 C   0  0  0  0  0  0  0  0  0  0  0  0
  -24.9581  -24.1605   16.3945 C   0  0  1  0  0  0  0  0  0  0  0  0
  -28.3768  -24.3644   18.0390 C   0  0  1  0  0  0  0  0  0  0  0  0
  -21.9160  -19.0401   20.9990 C   0  0  2  0  0  0  0  0  0  0  0  0
  -19.3340  -25.2865   21.1877 C   0  0  0  0  0  0  0  0  0  0  0  0
  -33.5730  -21.5275   23.0344 C   0  0  0  0  0  0  0  0  0  0  0  0
  -20.3592  -30.0356   20.1628 C   0  0  0  0  0  0  0  0  0  0  0  0
  -22.8104  -30.1305   20.7274 C   0  0  0  0  0  0  0  0  0  0  0  0
  -21.1129  -30.9508   22.3482 C   0  0  0  0  0  0  0  0  0  0  0  0
  -25.7936  -28.8738   26.0632 C   0  0  0  0  0  0  0  0  0  0  0  0
  -24.1555  -30.6593   25.4806 C   0  0  0  0  0  0  0  0  0  0  0  0
  -27.2631  -21.0625   21.0751 C   0  0  0  0  0  0  0  0  0  0  0  0
  -29.0391  -20.4877   22.7434 C   0  0  0  0  0  0  0  0  0  0  0  0
  -29.2682  -19.7427   20.3738 C   0  0  0  0  0  0  0  0  0  0  0  0
  -33.8228  -24.8006   21.1109 C   0  0  0  0  0  0  0  0  0  0  0  0
  -21.1053  -24.4273   23.3594 C   0  0  0  0  0  0  0  0  0  0  0  0
  -26.6912  -28.7861   23.1111 C   0  0  0  0  0  0  0  0  0  1  0  0
  -23.8999  -28.3748   24.4672 C   0  0  0  0  0  0  0  0  0  0  0  0
  -29.5837  -22.1862   20.9408 C   0  0  1  0  0  0  0  0  0  0  0  0
  -33.2265  -22.5195   21.9351 C   0  0  2  0  0  0  0  0  0  0  0  0
  -21.3965  -29.8186   21.3070 C   0  0  0  0  0  0  0  0  0  0  0  0
  -24.9105  -29.4385   24.9337 C   0  0  0  0  0  0  0  0  0  0  0  0
  -28.7825  -20.8969   21.2773 C   0  0  0  0  0  0  0  0  0  0  0  0
  -23.1125  -16.9099   20.6631 N   0  0  0  0  0  0  0  0  0  0  0  0
  -22.0754  -17.5489   21.2306 N   0  0  0  0  0  0  0  0  0  0  0  0
  -28.8084  -23.9349   19.3708 N   0  0  0  0  0  0  0  0  0  0  0  0
  -22.4381  -21.3029   21.8352 N   0  0  0  0  0  0  0  0  0  0  0  0
  -20.1798  -17.2179   22.6119 N   0  0  0  0  0  0  0  0  0  0  0  0
  -21.9853  -13.0891   22.3137 N   0  0  0  0  0  0  0  0  0  0  0  0
  -26.3564  -24.3655   16.7064 N   0  0  0  0  0  0  0  0  0  0  0  0
  -31.0278  -22.0503   21.0973 N   0  0  0  0  0  0  0  0  0  0  0  0
  -21.7189  -23.4653   22.4711 N   0  0  0  0  0  0  0  0  0  0  0  0
  -34.0454  -23.7483   22.1356 N   0  3  0  0  0  0  0  0  0  0  0  0
  -20.2575  -14.3059   23.2041 O   0  0  0  0  0  0  0  0  0  0  0  0
  -26.3135  -23.6180   18.9114 O   0  0  0  0  0  0  0  0  0  0  0  0
  -25.8399  -31.0127   23.3345 O   0  0  0  0  0  0  0  0  0  0  0  0
  -29.6556  -21.9094   18.5861 O   0  0  0  0  0  0  0  0  0  0  0  0
  -31.2781  -23.7601   22.6436 O   0  0  0  0  0  0  0  0  0  0  0  0
  -21.3943  -21.6797   23.8716 O   0  0  0  0  0  0  0  0  0  0  0  0
  -26.5735  -11.6981   19.4766 O   0  0  0  0  0  0  0  0  0  0  0  0
  -27.4191  -29.3334   22.0125 O   0  0  0  0  0  0  0  0  0  1  0  0
  -23.0819  -28.8823   23.4193 O   0  0  0  0  0  0  0  0  0  0  0  0
  -31.9493  -12.8875   19.7760 F   0  0  0  0  0  0  0  0  0  0  0  0
  -27.6414  -13.8074   18.0436 F   0  0  0  0  0  0  0  0  0  0  0  0
  1  2  1  0  0  0  0
  1  5  2  0  0  0  0
  2  6  2  0  0  0  0
  3  8  2  0  0  0  0
  3 17  1  0  0  0  0
  4  9  1  0  0  0  0
  4 17  2  0  0  0  0
  5 19  1  0  0  0  0
  6 21  1  0  0  0  0
  7 10  2  0  0  0  0
  7 20  1  0  0  0  0
  8 26  1  0  0  0  0
  9 26  2  0  0  0  0
 10 27  1  0  0  0  0
 11 12  2  0  0  0  0
 11 28  1  0  0  0  0
 12 30  1  0  0  0  0
 13 22  1  0  0  0  0
 13 27  2  0  0  0  0
 14 23  2  0  0  0  0
 14 24  1  0  0  0  0
 15 25  2  0  0  0  0
 15 29  1  0  0  0  0
 16 30  2  0  0  0  0
 16 31  1  0  0  0  0
 17 32  1  0  0  0  0
 18 32  1  0  0  0  0
 18 33  2  0  0  0  0
 18 34  1  0  0  0  0
 19 21  2  0  0  0  0
 19 40  1  0  0  0  0
 20 22  2  0  0  0  0
 20 41  1  0  0  0  0
 21 49  1  0  0  0  0
 22 42  1  0  0  0  0
 23 25  1  0  0  0  0
 23 52  1  0  0  0  0
 24 29  2  0  0  0  0
 24 68  1  0  0  0  0
 25 63  1  0  0  0  0
 26 87  1  0  0  0  0
 27 88  1  0  0  0  0
 28 31  2  0  0  0  0
 28 87  1  0  0  0  0
 29 89  1  0  0  0  0
 30 90  1  0  0  0  0
 31 91  1  0  0  0  0
 32 71  2  0  0  0  0
 33 72  1  0  0  0  0
 33 75  1  0  0  0  0
 34 76  1  0  0  0  0
 34 81  2  0  0  0  0
 35 50  1  0  0  0  0
 35 77  1  0  0  0  0
 35 82  2  0  0  0  0
 36 64  1  0  0  0  0
 36 69  1  0  0  0  0
 36 83  2  0  0  0  0
 37 66  1  0  0  0  0
 37 73  1  0  0  0  0
 37 84  2  0  0  0  0
 38 67  1  0  0  0  0
 38 78  1  0  0  0  0
 38 85  2  0  0  0  0
 39 74  1  0  0  0  0
 39 79  1  0  0  0  0
 39 86  2  0  0  0  0
 40 43  1  0  0  0  0
 41 50  1  0  0  0  0
 42 73  1  0  0  0  0
 43 45  1  0  0  0  0
 44 46  1  0  0  0  0
 44 47  1  0  0  0  0
 45 49  1  0  0  0  0
 46 51  1  0  0  0  0
 47 74  1  0  0  0  0
 48 51  1  0  0  0  0
 48 74  1  0  0  0  0
 49 77  1  0  0  0  0
 50 73  1  0  0  0  0
 51 72  1  0  0  0  0
 53 67  1  0  0  0  0
 54 68  1  0  0  0  0
 55 68  1  0  0  0  0
 56 68  1  0  0  0  0
 57 69  1  0  0  0  0
 58 69  1  0  0  0  0
 59 70  1  0  0  0  0
 60 70  1  0  0  0  0
 61 70  1  0  0  0  0
 62 80  1  0  0  0  0
 63 79  1  0  0  0  0
 64 88  1  0  0  0  0
 65 69  1  0  0  0  0
 65 89  1  0  0  0  0
 66 70  1  0  0  0  0
 66 78  1  0  0  0  0
 67 80  1  0  0  0  0
 71 72  1  0  0  0  0
M  CHG  1  80   1
M  ISO  4  39 100  64 101  79 100  88 101
M  END
> <Batch ID>
0142

> <Smiles>
CNC(C)C(=O)NC(C(=O)N1Cc2cc([101O:1][101CH2:1]C(=O)C(C)(C)COc3cc(C[100NH:0][100C:0](=O)N4CCCC(n5nc(-c6ccc(Oc7ccc(F)cc7F)cc6)c(C(N)=O)c5N)C4)c(C)cc3C(C)(C)C)ccc2CC1C(=O)NC1CCCc2ccccc21)C(C)(C)C

> <Shape>
0.225

> <Color>
0.057

> <Negative vol penalty>
0.000

$$$$

  -OEChem-04052302573D

 84 92  0     1  0  0  0  0  0999 V2000
  -25.2569  -36.4119   21.7578 C   0  0  0  0  0  0  0  0  0  0  0  0
  -26.2941  -35.4858   21.8029 C   0  0  0  0  0  0  0  0  0  0  0  0
  -24.2196   -9.4737   21.2178 C   0  0  0  0  0  0  0  0  0  0  0  0
  -24.8341  -10.3869   23.3685 C   0  0  0  0  0  0  0  0  0  0  0  0
  -23.9451  -35.9994   21.9876 C   0  0  0  0  0  0  0  0  0  0  0  0
  -26.0201  -34.1467   22.0789 C   0  0  0  0  0  0  0  0  0  0  0  0
  -28.9013  -29.2515   19.7896 C   0  0  0  0  0  0  0  0  0  0  0  0
  -23.8436   -8.2794   21.8324 C   0  0  0  0  0  0  0  0  0  0  0  0
  -24.4581   -9.1926   23.9831 C   0  0  0  0  0  0  0  0  0  0  0  0
  -29.9103  -28.4344   20.2975 C   0  0  0  0  0  0  0  0  0  0  0  0
  -21.2037   -7.1050   23.5886 C   0  0  0  0  0  0  0  0  0  0  0  0
  -19.9947   -6.5284   23.1996 C   0  0  0  0  0  0  0  0  0  0  0  0
  -28.2455  -26.8677   21.0676 C   0  0  0  0  0  0  0  0  0  0  0  0
  -30.1407  -19.5877   20.2297 C   0  0  0  0  0  0  0  0  0  0  0  0
  -21.1711   -4.5415   22.4885 C   0  0  0  0  0  0  0  0  0  0  0  0
  -28.4639  -20.7220   21.1667 C   0  0  0  0  0  0  0  0  0  0  0  0
  -24.7149  -10.5275   21.9859 C   0  0  0  0  0  0  0  0  0  0  0  0
  -24.2913  -12.8846   21.1071 C   0  0  0  0  0  0  0  0  0  0  0  0
  -23.6537  -34.6528   22.2571 C   0  0  0  0  0  0  0  0  0  0  0  0
  -27.5541  -28.8876   19.9267 C   0  0  0  0  0  0  0  0  0  0  0  0
  -24.7032  -33.7160   22.3139 C   0  0  0  0  0  0  0  0  0  0  0  0
  -27.2215  -27.6807   20.5583 C   0  0  0  0  0  0  0  0  0  0  0  0
  -29.6820  -20.8879   20.5497 C   0  0  0  0  0  0  0  0  0  0  0  0
  -23.9629   -8.1388   23.2150 C   0  0  0  0  0  0  0  0  0  0  0  0
  -29.5824  -27.2437   20.9392 C   0  0  0  0  0  0  0  0  0  0  0  0
  -22.3965   -6.3999   23.4276 C   0  0  0  0  0  0  0  0  0  0  0  0
  -19.9784   -5.2466   22.6496 C   0  0  0  0  0  0  0  0  0  0  0  0
  -22.3802   -5.1182   22.8776 C   0  0  0  0  0  0  0  0  0  0  0  0
  -25.1039  -11.7614   21.3516 C   0  0  0  0  0  0  0  0  0  0  0  0
  -25.1252  -13.7835   20.4881 C   0  0  0  0  0  0  0  0  0  0  0  0
  -29.1704  -18.7201   20.6742 C   0  0  0  0  0  0  0  0  0  0  0  0
  -22.9066  -13.0966   21.4122 C   0  0  0  0  0  0  0  0  0  0  0  0
  -25.0233  -30.1578   21.3708 C   0  0  0  0  0  0  0  0  0  0  0  0
  -23.4537  -27.7282   19.9025 C   0  0  0  0  0  0  0  0  0  0  0  0
  -23.5884  -24.6176   18.5050 C   0  0  0  0  0  0  0  0  0  0  0  0
  -30.0144  -16.4186   20.0933 C   0  0  0  0  0  0  0  0  0  0  0  0
  -22.2257  -34.2628   22.5456 C   0  0  0  0  0  0  0  0  0  0  0  0
  -26.4788  -29.7669   19.3497 C   0  0  0  0  0  0  0  0  0  0  0  0
  -25.7913  -27.2347   20.7135 C   0  0  0  0  0  0  0  0  0  0  0  0
  -21.9761  -32.7592   22.4613 C   0  0  0  0  0  0  0  0  0  0  0  0
  -29.7849  -13.1942   18.6008 C   0  0  0  0  0  0  0  0  0  0  0  0
  -23.0649  -31.9946   23.2074 C   0  0  0  0  0  0  0  0  0  0  0  0
  -28.4798  -12.6264   19.1633 C   0  0  0  0  0  0  0  0  0  0  0  0
  -30.5324  -14.0314   19.6372 C   0  0  0  0  0  0  0  0  0  0  0  0
  -28.4335  -14.5274   20.8279 C   0  0  0  0  0  0  0  0  0  0  0  0
  -24.4432  -32.2502   22.5857 C   0  0  1  0  0  0  0  0  0  0  0  0
  -25.1160  -29.5493   20.0001 C   0  0  1  0  0  0  0  0  0  0  0  0
  -27.6133  -13.7304   19.8004 C   0  0  2  0  0  0  0  0  0  0  0  0
  -32.0614  -24.4054   23.9449 C   0  0  0  0  0  0  0  0  0  0  0  0
  -22.1369  -22.8789   17.4245 C   0  0  0  0  0  0  0  0  0  0  0  0
  -32.6136  -21.8123   21.4018 C   0  0  0  0  0  0  0  0  0  0  0  0
  -22.3432  -26.9587   22.6383 C   0  0  0  0  0  0  0  0  0  0  0  0
  -21.7095  -24.7350   21.6782 C   0  0  0  0  0  0  0  0  0  0  0  0
  -20.6913  -26.8214   20.7656 C   0  0  0  0  0  0  0  0  0  0  0  0
  -32.3185  -24.5953   20.0317 C   0  0  0  0  0  0  0  0  0  0  0  0
  -25.1198  -24.7441   15.9756 C   0  0  0  0  0  0  0  0  0  0  0  0
  -30.3865  -22.1968   20.2695 C   0  0  0  0  0  0  0  0  0  0  0  0
  -32.5658  -24.6811   22.5327 C   0  0  0  0  0  0  0  0  0  0  0  0
  -30.3058  -25.0418   21.4723 C   0  0  0  0  0  0  0  0  0  1  0  0
  -23.1141  -26.3022   20.2633 C   0  0  1  0  0  0  0  0  0  0  0  0
  -23.0442  -24.0775   17.1948 C   0  0  2  0  0  0  0  0  0  0  0  0
  -31.3311  -22.6691   21.4085 C   0  0  2  0  0  0  0  0  0  0  0  0
  -21.9915  -26.2134   21.3353 C   0  0  0  0  0  0  0  0  0  0  0  0
  -31.6242  -24.2251   21.3682 C   0  0  1  0  0  0  0  0  0  0  0  0
  -26.3578  -11.9289   20.9228 N   0  0  0  0  0  0  0  0  0  0  0  0
  -26.3393  -13.1678   20.4025 N   0  0  0  0  0  0  0  0  0  0  0  0
  -24.7756  -28.1318   20.1382 N   0  0  0  0  0  0  0  0  0  0  0  0
  -29.6503  -15.0592   20.1944 N   0  0  0  0  0  0  0  0  0  0  0  0
  -24.9311  -15.0325   20.0140 N   0  0  0  0  0  0  0  0  0  0  0  0
  -22.1981  -12.0692   22.0501 N   0  0  0  0  0  0  0  0  0  0  0  0
  -29.0824  -17.3065   20.6296 N   0  0  0  0  0  0  0  0  0  0  0  0
  -24.6032  -31.4742   21.3747 N   0  0  0  0  0  0  0  0  0  0  0  0
  -22.7971  -25.6281   19.0089 N   0  0  0  0  0  0  0  0  0  0  0  0
  -24.1622  -23.6568   16.3037 N   0  3  0  0  0  0  0  0  0  0  0  0
  -22.3108  -14.1592   21.1130 O   0  0  0  0  0  0  0  0  0  0  0  0
  -25.3100  -29.4824   22.3523 O   0  0  0  0  0  0  0  0  0  0  0  0
  -22.5802  -28.4549   19.4224 O   0  0  0  0  0  0  0  0  0  0  0  0
  -24.6110  -24.1837   19.0308 O   0  0  0  0  0  0  0  0  0  0  0  0
  -31.0620  -16.7708   19.5452 O   0  0  0  0  0  0  0  0  0  0  0  0
  -28.1449  -19.4035   21.2467 O   0  0  0  0  0  0  0  0  0  0  0  0
  -23.5959   -6.9735   23.8150 O   0  0  0  0  0  0  0  0  0  0  0  0
  -30.5652  -26.4445   21.4365 O   0  0  0  0  0  0  0  0  0  1  0  0
  -18.8171   -4.6924   22.2775 F   0  0  0  0  0  0  0  0  0  0  0  0
  -23.5227   -4.4355   22.7215 F   0  0  0  0  0  0  0  0  0  0  0  0
  1  2  1  0  0  0  0
  1  5  2  0  0  0  0
  2  6  2  0  0  0  0
  3  8  2  0  0  0  0
  3 17  1  0  0  0  0
  4  9  1  0  0  0  0
  4 17  2  0  0  0  0
  5 19  1  0  0  0  0
  6 21  1  0  0  0  0
  7 10  2  0  0  0  0
  7 20  1  0  0  0  0
  8 24  1  0  0  0  0
  9 24  2  0  0  0  0
 10 25  1  0  0  0  0
 11 12  2  0  0  0  0
 11 26  1  0  0  0  0
 12 27  1  0  0  0  0
 13 22  1  0  0  0  0
 13 25  2  0  0  0  0
 14 23  1  0  0  0  0
 14 31  2  0  0  0  0
 15 27  2  0  0  0  0
 15 28  1  0  0  0  0
 16 23  2  0  0  0  0
 16 80  1  0  0  0  0
 17 29  1  0  0  0  0
 18 29  1  0  0  0  0
 18 30  2  0  0  0  0
 18 32  1  0  0  0  0
 19 21  2  0  0  0  0
 19 37  1  0  0  0  0
 20 22  2  0  0  0  0
 20 38  1  0  0  0  0
 21 46  1  0  0  0  0
 22 39  1  0  0  0  0
 23 57  1  0  0  0  0
 24 81  1  0  0  0  0
 25 82  1  0  0  0  0
 26 28  2  0  0  0  0
 26 81  1  0  0  0  0
 27 83  1  0  0  0  0
 28 84  1  0  0  0  0
 29 65  2  0  0  0  0
 30 66  1  0  0  0  0
 30 69  1  0  0  0  0
 31 71  1  0  0  0  0
 31 80  1  0  0  0  0
 32 70  1  0  0  0  0
 32 75  2  0  0  0  0
 33 47  1  0  0  0  0
 33 72  1  0  0  0  0
 33 76  2  0  0  0  0
 34 60  1  0  0  0  0
 34 67  1  0  0  0  0
 34 77  2  0  0  0  0
 35 61  1  0  0  0  0
 35 73  1  0  0  0  0
 35 78  2  0  0  0  0
 36 68  1  0  0  0  0
 36 71  1  0  0  0  0
 36 79  2  0  0  0  0
 37 40  1  0  0  0  0
 38 47  1  0  0  0  0
 39 67  1  0  0  0  0
 40 42  1  0  0  0  0
 41 43  1  0  0  0  0
 41 44  1  0  0  0  0
 42 46  1  0  0  0  0
 43 48  1  0  0  0  0
 44 68  1  0  0  0  0
 45 48  1  0  0  0  0
 45 68  1  0  0  0  0
 46 72  1  0  0  0  0
 47 67  1  0  0  0  0
 48 66  1  0  0  0  0
 49 58  1  0  0  0  0
 50 61  1  0  0  0  0
 51 62  1  0  0  0  0
 52 63  1  0  0  0  0
 53 63  1  0  0  0  0
 54 63  1  0  0  0  0
 55 64  1  0  0  0  0
 56 74  1  0  0  0  0
 57 62  1  0  0  0  0
 58 64  1  0  0  0  0
 59 64  1  0  0  0  0
 59 82  1  0  0  0  0
 60 63  1  0  0  0  0
 60 73  1  0  0  0  0
 61 74  1  0  0  0  0
 62 64  1  0  0  0  0
 65 66  1  0  0  0  0
M  CHG  1  74   1
M  ISO  4  36 100  59 101  71 100  82 101
M  END
> <Batch ID>
0142

> <Smiles>
CCC(C)(C(C)Cc1coc([100NH:0][100C:0](=O)N2CCCC(n3nc(-c4ccc(Oc5ccc(F)cc5F)cc4)c(C(N)=O)c3N)C2)c1)[101CH2:1][101O:1]c1ccc2c(c1)CN(C(=O)C(NC(=O)C(C)NC)C(C)(C)C)C(C(=O)NC1CCCc3ccccc31)C2

> <Shape>
0.302

> <Color>
0.115

> <Negative vol penalty>
0.000

$$$$

  -OEChem-04052302573D

 92102  0     1  0  0  0  0  0999 V2000
  -24.7888  -38.3137   26.1767 C   0  0  0  0  0  0  0  0  0  0  0  0
  -24.1908  -37.8639   25.0039 C   0  0  0  0  0  0  0  0  0  0  0  0
  -23.6912   -8.7355   20.3255 C   0  0  0  0  0  0  0  0  0  0  0  0
  -23.3983  -10.7482   21.6294 C   0  0  0  0  0  0  0  0  0  0  0  0
  -25.9319  -37.6802   26.6624 C   0  0  0  0  0  0  0  0  0  0  0  0
  -24.7363  -36.7809   24.3155 C   0  0  0  0  0  0  0  0  0  0  0  0
  -20.8545  -30.8413   23.0725 C   0  0  0  0  0  0  0  0  0  0  0  0
  -28.7840  -19.6265   19.6505 C   0  0  0  0  0  0  0  0  0  0  0  0
  -29.0129  -18.2937   19.9922 C   0  0  0  0  0  0  0  0  0  0  0  0
  -22.8511   -8.0465   21.2001 C   0  0  0  0  0  0  0  0  0  0  0  0
  -22.5580  -10.0593   22.5041 C   0  0  0  0  0  0  0  0  0  0  0  0
  -20.1104  -29.7551   22.6116 C   0  0  0  0  0  0  0  0  0  0  0  0
  -19.5273   -7.7479   21.7445 C   0  0  0  0  0  0  0  0  0  0  0  0
  -18.5523   -6.9193   21.1891 C   0  0  0  0  0  0  0  0  0  0  0  0
  -21.5543  -23.4481   21.2377 C   0  0  0  0  0  0  0  0  0  0  0  0
  -22.0950  -28.8094   21.6040 C   0  0  0  0  0  0  0  0  0  0  0  0
  -26.7250  -18.0930   20.7421 C   0  0  0  0  0  0  0  0  0  0  0  0
  -19.5177   -5.0198   22.3281 C   0  0  0  0  0  0  0  0  0  0  0  0
  -19.4821  -22.7586   21.6927 C   0  0  0  0  0  0  0  0  0  0  0  0
  -23.9649  -10.0863   20.5402 C   0  0  0  0  0  0  0  0  0  0  0  0
  -20.2350  -23.8923   21.4932 C   0  0  0  0  0  0  0  0  0  0  0  0
  -24.6473  -10.9933   18.2556 C   0  0  0  0  0  0  0  0  0  0  0  0
  -26.4861  -36.5828   25.9848 C   0  0  0  0  0  0  0  0  0  0  0  0
  -22.2264  -30.9082   22.8138 C   0  0  0  0  0  0  0  0  0  0  0  0
  -25.8887  -36.1329   24.7918 C   0  0  0  0  0  0  0  0  0  0  0  0
  -22.8479  -29.8889   22.0738 C   0  0  0  0  0  0  0  0  0  0  0  0
  -27.5256  -20.1926   19.8546 C   0  0  0  0  0  0  0  0  0  0  0  0
  -26.4961  -19.4258   20.4004 C   0  0  0  0  0  0  0  0  0  0  0  0
  -27.9834  -17.5269   20.5380 C   0  0  0  0  0  0  0  0  0  0  0  0
  -22.2844   -8.7084   22.2894 C   0  0  0  0  0  0  0  0  0  0  0  0
  -20.7291  -28.7418   21.8790 C   0  0  0  0  0  0  0  0  0  0  0  0
  -20.4975   -7.2124   22.5917 C   0  0  0  0  0  0  0  0  0  0  0  0
  -18.5475   -5.5553   21.4809 C   0  0  0  0  0  0  0  0  0  0  0  0
  -20.4927   -5.8484   22.8835 C   0  0  0  0  0  0  0  0  0  0  0  0
  -24.8332  -10.7984   19.6374 C   0  0  0  0  0  0  0  0  0  0  0  0
  -21.5136  -22.0746   21.2995 C   0  0  0  0  0  0  0  0  0  0  0  0
  -25.7404  -11.7261   17.8621 C   0  0  0  0  0  0  0  0  0  0  0  0
  -19.7153  -25.2891   21.5464 C   0  0  0  0  0  0  0  0  0  0  0  0
  -23.5818  -10.5516   17.4039 C   0  0  0  0  0  0  0  0  0  0  0  0
  -25.4321  -32.8095   23.2428 C   0  0  0  0  0  0  0  0  0  0  0  0
  -26.1062  -29.8369   23.5881 C   0  0  0  0  0  0  0  0  0  0  0  0
  -27.4566  -26.8336   24.4792 C   0  0  0  0  0  0  0  0  0  0  0  0
  -29.4066  -15.4589   20.7482 C   0  0  0  0  0  0  0  0  0  0  0  0
  -27.7499  -35.9601   26.5229 C   0  0  0  0  0  0  0  0  0  0  0  0
  -23.0554  -32.0900   23.2379 C   0  0  0  0  0  0  0  0  0  0  0  0
  -24.3193  -30.0201   21.7898 C   0  0  0  0  0  0  0  0  0  0  0  0
  -28.0485  -34.5831   25.9354 C   0  0  0  0  0  0  0  0  0  0  0  0
  -30.3295  -12.5046   18.9883 C   0  0  0  0  0  0  0  0  0  0  0  0
  -27.8789  -34.6012   24.4196 C   0  0  0  0  0  0  0  0  0  0  0  0
  -29.0068  -11.7524   18.8239 C   0  0  0  0  0  0  0  0  0  0  0  0
  -23.6858  -21.1057   22.1704 C   0  0  0  0  0  0  0  0  0  0  0  0
  -23.1780  -21.0098   19.7152 C   0  0  0  0  0  0  0  0  0  0  0  0
  -30.4097  -13.2235   20.3338 C   0  0  0  0  0  0  0  0  0  0  0  0
  -24.7200  -19.9945   21.9920 C   0  0  0  0  0  0  0  0  0  0  0  0
  -24.2208  -19.9035   19.5482 C   0  0  0  0  0  0  0  0  0  0  0  0
  -27.9534  -13.3551   20.4697 C   0  0  0  0  0  0  0  0  0  0  0  0
  -26.4363  -34.9456   24.0300 C   0  0  1  0  0  0  0  0  0  0  0  0
  -22.5664  -20.9965   21.1240 C   0  0  0  0  0  0  0  0  0  0  0  0
  -24.4924  -31.7077   23.6354 C   0  0  1  0  0  0  0  0  0  0  0  0
  -27.7991  -12.6685   19.1028 C   0  0  2  0  0  0  0  0  0  0  0  0
  -27.3081  -21.6223   19.4793 C   0  0  0  0  0  0  0  0  0  0  0  0
  -29.6346  -25.5878   24.5206 C   0  0  0  0  0  0  0  0  0  0  0  0
  -25.8969  -29.3787   20.5798 C   0  0  0  0  0  0  0  0  0  0  0  0
  -27.4544  -27.4356   20.8390 C   0  0  0  0  0  0  0  0  0  0  0  0
  -28.2247  -29.7356   21.4216 C   0  0  0  0  0  0  0  0  0  0  0  0
  -27.3747  -26.5554   27.4245 C   0  0  0  0  0  0  0  0  0  0  0  0
  -20.6781  -26.4346   21.3028 C   0  0  0  0  0  0  0  0  0  1  0  0
  -26.5733  -28.5614   22.9336 C   0  0  1  0  0  0  0  0  0  0  0  0
  -28.6855  -26.4851   25.2995 C   0  0  2  0  0  0  0  0  0  0  0  0
  -27.0130  -28.7790   21.4582 C   0  0  0  0  0  0  0  0  0  0  0  0
  -25.9561  -11.3617   20.0911 N   0  0  0  0  0  0  0  0  0  0  0  0
  -26.4856  -11.9177   18.9881 N   0  0  0  0  0  0  0  0  0  0  0  0
  -25.2273  -19.9785   20.6129 N   0  0  0  0  0  0  0  0  0  0  0  0
  -25.0228  -30.4937   22.9921 N   0  0  0  0  0  0  0  0  0  0  0  0
  -29.2347  -14.0760   20.5270 N   0  0  0  0  0  0  0  0  0  0  0  0
  -26.1271  -12.2186   16.6662 N   0  0  0  0  0  0  0  0  0  0  0  0
  -22.4696  -11.3879   17.2369 N   0  0  0  0  0  0  0  0  0  0  0  0
  -28.2168  -16.1732   20.8854 N   0  0  0  0  0  0  0  0  0  0  0  0
  -25.5776  -33.7934   24.2020 N   0  0  0  0  0  0  0  0  0  0  0  0
  -27.6187  -28.0197   23.7950 N   0  0  0  0  0  0  0  0  0  0  0  0
  -28.2900  -25.7777   26.5501 N   0  3  0  0  0  0  0  0  0  0  0  0
  -18.5256  -25.4852   21.7839 O   0  0  0  0  0  0  0  0  0  0  0  0
  -23.6077   -9.4408   16.8217 O   0  0  0  0  0  0  0  0  0  0  0  0
  -25.9864  -32.7703   22.1506 O   0  0  0  0  0  0  0  0  0  0  0  0
  -26.6879  -30.2450   24.5972 O   0  0  0  0  0  0  0  0  0  0  0  0
  -26.4546  -26.1227   24.4457 O   0  0  0  0  0  0  0  0  0  0  0  0
  -30.5261  -15.9761   20.7842 O   0  0  0  0  0  0  0  0  0  0  0  0
  -20.2541  -21.6463   21.5765 O   0  0  0  0  0  0  0  0  0  0  0  0
  -21.4643   -8.0365   23.1430 O   0  0  0  0  0  0  0  0  0  0  0  0
  -19.9976  -27.6819   21.4359 O   0  0  0  0  0  0  0  0  0  1  0  0
  -17.6103   -4.7600   20.9487 F   0  0  0  0  0  0  0  0  0  0  0  0
  -21.4215   -5.3285   23.6976 F   0  0  0  0  0  0  0  0  0  0  0  0
  1  2  1  0  0  0  0
  1  5  2  0  0  0  0
  2  6  2  0  0  0  0
  3 10  2  0  0  0  0
  3 20  1  0  0  0  0
  4 11  1  0  0  0  0
  4 20  2  0  0  0  0
  5 23  1  0  0  0  0
  6 25  1  0  0  0  0
  7 12  2  0  0  0  0
  7 24  1  0  0  0  0
  8  9  2  0  0  0  0
  8 27  1  0  0  0  0
  9 29  1  0  0  0  0
 10 30  1  0  0  0  0
 11 30  2  0  0  0  0
 12 31  1  0  0  0  0
 13 14  2  0  0  0  0
 13 32  1  0  0  0  0
 14 33  1  0  0  0  0
 15 21  1  0  0  0  0
 15 36  2  0  0  0  0
 16 26  1  0  0  0  0
 16 31  2  0  0  0  0
 17 28  1  0  0  0  0
 17 29  2  0  0  0  0
 18 33  2  0  0  0  0
 18 34  1  0  0  0  0
 19 21  2  0  0  0  0
 19 88  1  0  0  0  0
 20 35  1  0  0  0  0
 21 38  1  0  0  0  0
 22 35  1  0  0  0  0
 22 37  2  0  0  0  0
 22 39  1  0  0  0  0
 23 25  2  0  0  0  0
 23 44  1  0  0  0  0
 24 26  2  0  0  0  0
 24 45  1  0  0  0  0
 25 57  1  0  0  0  0
 26 46  1  0  0  0  0
 27 28  2  0  0  0  0
 27 61  1  0  0  0  0
 28 73  1  0  0  0  0
 29 78  1  0  0  0  0
 30 89  1  0  0  0  0
 31 90  1  0  0  0  0
 32 34  2  0  0  0  0
 32 89  1  0  0  0  0
 33 91  1  0  0  0  0
 34 92  1  0  0  0  0
 35 71  2  0  0  0  0
 36 58  1  0  0  0  0
 36 88  1  0  0  0  0
 37 72  1  0  0  0  0
 37 76  1  0  0  0  0
 38 67  1  0  0  0  0
 38 82  2  0  0  0  0
 39 77  1  0  0  0  0
 39 83  2  0  0  0  0
 40 59  1  0  0  0  0
 40 79  1  0  0  0  0
 40 84  2  0  0  0  0
 41 68  1  0  0  0  0
 41 74  1  0  0  0  0
 41 85  2  0  0  0  0
 42 69  1  0  0  0  0
 42 80  1  0  0  0  0
 42 86  2  0  0  0  0
 43 75  1  0  0  0  0
 43 78  1  0  0  0  0
 43 87  2  0  0  0  0
 44 47  1  0  0  0  0
 45 59  1  0  0  0  0
 46 74  1  0  0  0  0
 47 49  1  0  0  0  0
 48 50  1  0  0  0  0
 48 53  1  0  0  0  0
 49 57  1  0  0  0  0
 50 60  1  0  0  0  0
 51 54  1  0  0  0  0
 51 58  1  0  0  0  0
 52 55  1  0  0  0  0
 52 58  1  0  0  0  0
 53 75  1  0  0  0  0
 54 73  1  0  0  0  0
 55 73  1  0  0  0  0
 56 60  1  0  0  0  0
 56 75  1  0  0  0  0
 57 79  1  0  0  0  0
 59 74  1  0  0  0  0
 60 72  1  0  0  0  0
 62 69  1  0  0  0  0
 63 70  1  0  0  0  0
 64 70  1  0  0  0  0
 65 70  1  0  0  0  0
 66 81  1  0  0  0  0
 67 90  1  0  0  0  0
 68 70  1  0  0  0  0
 68 80  1  0  0  0  0
 69 81  1  0  0  0  0
 71 72  1  0  0  0  0
M  CHG  1  81   1
M  ISO  4  43 100  67 101  78 100  90 101
M  END
> <Batch ID>
0142

> <Smiles>
CNC(C)C(=O)NC(C(=O)N1Cc2cc([101O:1][101CH2:1]C(=O)c3coc(C4CCN(c5cc([100NH:0][100C:0](=O)N6CCCC(n7nc(-c8ccc(Oc9ccc(F)cc9F)cc8)c(C(N)=O)c7N)C6)ccc5C)CC4)c3)ccc2CC1C(=O)NC1CCCc2ccccc21)C(C)(C)C

> <Shape>
0.287

> <Color>
0.067

> <Negative vol penalty>
0.000

$$$$

  -OEChem-04052302573D

 87 95  0     1  0  0  0  0  0999 V2000
  -24.0466  -19.9419   17.2935 C   0  0  0  0  0  0  0  0  0  0  0  0
  -25.0405  -20.2129   18.2285 C   0  0  0  0  0  0  0  0  0  0  0  0
  -23.0717   -9.8732   19.9412 C   0  0  0  0  0  0  0  0  0  0  0  0
  -23.8342   -9.8719   22.2338 C   0  0  0  0  0  0  0  0  0  0  0  0
  -24.0993  -20.5314   16.0311 C   0  0  0  0  0  0  0  0  0  0  0  0
  -26.0882  -21.0729   17.9013 C   0  0  0  0  0  0  0  0  0  0  0  0
  -27.1019  -24.3914   21.5897 C   0  0  0  0  0  0  0  0  0  0  0  0
  -32.6863  -17.4464   23.4469 C   0  0  0  0  0  0  0  0  0  0  0  0
  -32.0774  -16.5734   22.5454 C   0  0  0  0  0  0  0  0  0  0  0  0
  -22.3257   -8.7209   20.1886 C   0  0  0  0  0  0  0  0  0  0  0  0
  -23.0881   -8.7195   22.4812 C   0  0  0  0  0  0  0  0  0  0  0  0
  -27.8341  -23.9263   22.6812 C   0  0  0  0  0  0  0  0  0  0  0  0
  -19.8590   -7.9267   23.0850 C   0  0  0  0  0  0  0  0  0  0  0  0
  -19.1033   -7.8849   24.2566 C   0  0  0  0  0  0  0  0  0  0  0  0
  -29.8314  -24.9103   21.7528 C   0  0  0  0  0  0  0  0  0  0  0  0
  -30.5199  -18.3200   24.0640 C   0  0  0  0  0  0  0  0  0  0  0  0
  -20.3415   -5.9427   24.9860 C   0  0  0  0  0  0  0  0  0  0  0  0
  -23.8260  -10.4487   20.9638 C   0  0  0  0  0  0  0  0  0  0  0  0
  -24.1730  -12.9735   20.8508 C   0  0  0  0  0  0  0  0  0  0  0  0
  -25.1430  -21.4067   15.6916 C   0  0  0  0  0  0  0  0  0  0  0  0
  -27.7321  -25.1113   20.5645 C   0  0  0  0  0  0  0  0  0  0  0  0
  -26.1556  -21.6737   16.6327 C   0  0  0  0  0  0  0  0  0  0  0  0
  -29.1044  -25.3856   20.6507 C   0  0  0  0  0  0  0  0  0  0  0  0
  -31.9075  -18.3197   24.2063 C   0  0  0  0  0  0  0  0  0  0  0  0
  -29.9111  -17.4470   23.1625 C   0  0  0  0  0  0  0  0  0  0  0  0
  -30.6898  -16.5737   22.4031 C   0  0  0  0  0  0  0  0  0  0  0  0
  -22.3339   -8.1441   21.4586 C   0  0  0  0  0  0  0  0  0  0  0  0
  -29.1996  -24.1832   22.7614 C   0  0  0  0  0  0  0  0  0  0  0  0
  -20.8559   -6.9764   22.8638 C   0  0  0  0  0  0  0  0  0  0  0  0
  -19.3445   -6.8929   25.2071 C   0  0  0  0  0  0  0  0  0  0  0  0
  -21.0972   -5.9845   23.8143 C   0  0  0  0  0  0  0  0  0  0  0  0
  -24.5973  -11.6387   20.7087 C   0  0  0  0  0  0  0  0  0  0  0  0
  -25.2663  -13.7217   20.4885 C   0  0  0  0  0  0  0  0  0  0  0  0
  -22.9040  -13.4907   21.2727 C   0  0  0  0  0  0  0  0  0  0  0  0
  -28.1798  -24.6546   17.4509 C   0  0  0  0  0  0  0  0  0  0  0  0
  -31.7331  -21.4232   24.0931 C   0  0  0  0  0  0  0  0  0  0  0  0
  -29.4136  -27.6516   17.5851 C   0  0  0  0  0  0  0  0  0  0  0  0
  -30.8649  -30.1060   19.4604 C   0  0  0  0  0  0  0  0  0  0  0  0
  -30.7348  -14.7554   20.6601 C   0  0  0  0  0  0  0  0  0  0  0  0
  -25.1828  -21.9830   14.2984 C   0  0  0  0  0  0  0  0  0  0  0  0
  -26.9230  -25.6291   19.4071 C   0  0  0  0  0  0  0  0  0  0  0  0
  -29.8244  -26.1714   19.5865 C   0  0  0  0  0  0  0  0  0  0  0  0
  -26.1250  -23.1760   14.1595 C   0  0  0  0  0  0  0  0  0  0  0  0
  -29.6127  -12.3509   18.2860 C   0  0  0  0  0  0  0  0  0  0  0  0
  -27.4662  -22.8770   14.8216 C   0  0  0  0  0  0  0  0  0  0  0  0
  -28.1730  -12.0610   18.7164 C   0  0  0  0  0  0  0  0  0  0  0  0
  -30.5297  -12.5742   19.4873 C   0  0  0  0  0  0  0  0  0  0  0  0
  -28.6258  -13.2986   20.8728 C   0  0  0  0  0  0  0  0  0  0  0  0
  -27.2949  -22.6206   16.3238 C   0  0  1  0  0  0  0  0  0  0  0  0
  -27.7659  -25.9092   18.1667 C   0  0  1  0  0  0  0  0  0  0  0  0
  -27.6513  -13.1309   19.6956 C   0  0  2  0  0  0  0  0  0  0  0  0
  -27.9680  -18.1999   21.7680 C   0  0  0  0  0  0  0  0  0  0  0  0
  -31.7950  -32.4300   19.2838 C   0  0  0  0  0  0  0  0  0  0  0  0
  -33.6725  -21.5125   25.6982 C   0  0  0  0  0  0  0  0  0  0  0  0
  -33.9840  -20.4524   23.4789 C   0  0  0  0  0  0  0  0  0  0  0  0
  -31.9239  -26.5430   16.2511 C   0  0  0  0  0  0  0  0  0  0  0  0
  -33.1318  -28.6190   16.9577 C   0  0  0  0  0  0  0  0  0  0  0  0
  -31.1901  -28.7771   15.3997 C   0  0  0  0  0  0  0  0  0  0  0  0
  -28.8849  -31.1695   21.3859 C   0  0  0  0  0  0  0  0  0  0  0  0
  -32.5677  -19.2675   25.1815 C   0  0  0  0  0  0  0  0  0  0  0  0
  -28.4228  -17.4712   23.0285 C   0  0  0  0  0  0  0  0  0  0  0  0
  -30.6478  -21.8151   25.0949 C   0  0  0  0  0  0  0  0  0  0  0  0
  -29.4674  -22.5260   24.4461 C   0  0  0  0  0  0  0  0  0  1  0  0
  -30.7840  -28.2334   17.8352 C   0  0  1  0  0  0  0  0  0  0  0  0
  -30.5645  -31.5888   19.5853 C   0  0  2  0  0  0  0  0  0  0  0  0
  -32.9710  -20.6585   24.6224 C   0  0  0  0  0  0  0  0  0  0  0  0
  -31.7446  -28.0266   16.6302 C   0  0  0  0  0  0  0  0  0  0  0  0
  -25.8615  -11.5415   20.2887 N   0  0  0  0  0  0  0  0  0  0  0  0
  -26.2409  -12.8246   20.1637 N   0  0  0  0  0  0  0  0  0  0  0  0
  -28.9911  -26.6509   18.4716 N   0  0  0  0  0  0  0  0  0  0  0  0
  -29.9738  -13.6037   20.3683 N   0  0  0  0  0  0  0  0  0  0  0  0
  -25.4794  -15.0530   20.4192 N   0  0  0  0  0  0  0  0  0  0  0  0
  -21.8906  -12.5826   21.6084 N   0  0  0  0  0  0  0  0  0  0  0  0
  -30.0903  -15.6794   21.4820 N   0  0  0  0  0  0  0  0  0  0  0  0
  -27.1218  -23.8700   17.0333 N   0  0  0  0  0  0  0  0  0  0  0  0
  -30.5742  -29.6305   18.1992 N   0  0  0  0  0  0  0  0  0  0  0  0
  -30.1028  -31.9092   20.9656 N   0  3  0  0  0  0  0  0  0  0  0  0
  -22.6704  -14.7216   21.3339 O   0  0  0  0  0  0  0  0  0  0  0  0
  -29.3709  -24.4169   17.2881 O   0  0  0  0  0  0  0  0  0  0  0  0
  -31.6346  -21.7263   22.9015 O   0  0  0  0  0  0  0  0  0  0  0  0
  -28.7399  -28.0747   16.6424 O   0  0  0  0  0  0  0  0  0  0  0  0
  -31.3161  -29.4373   20.3877 O   0  0  0  0  0  0  0  0  0  0  0  0
  -31.8638  -14.9231   20.1917 O   0  0  0  0  0  0  0  0  0  0  0  0
  -21.6059   -7.0197   21.7005 O   0  0  0  0  0  0  0  0  0  0  0  0
  -29.9168  -23.7298   23.8253 O   0  0  0  0  0  0  0  0  0  1  0  0
  -18.6198   -6.8538   26.3329 F   0  0  0  0  0  0  0  0  0  0  0  0
  -22.0544   -5.0696   23.6079 F   0  0  0  0  0  0  0  0  0  0  0  0
  1  2  1  0  0  0  0
  1  5  2  0  0  0  0
  2  6  2  0  0  0  0
  3 10  2  0  0  0  0
  3 18  1  0  0  0  0
  4 11  1  0  0  0  0
  4 18  2  0  0  0  0
  5 20  1  0  0  0  0
  6 22  1  0  0  0  0
  7 12  2  0  0  0  0
  7 21  1  0  0  0  0
  8  9  2  0  0  0  0
  8 24  1  0  0  0  0
  9 26  1  0  0  0  0
 10 27  1  0  0  0  0
 11 27  2  0  0  0  0
 12 28  1  0  0  0  0
 13 14  2  0  0  0  0
 13 29  1  0  0  0  0
 14 30  1  0  0  0  0
 15 23  1  0  0  0  0
 15 28  2  0  0  0  0
 16 24  2  0  0  0  0
 16 25  1  0  0  0  0
 17 30  2  0  0  0  0
 17 31  1  0  0  0  0
 18 32  1  0  0  0  0
 19 32  1  0  0  0  0
 19 33  2  0  0  0  0
 19 34  1  0  0  0  0
 20 22  2  0  0  0  0
 20 40  1  0  0  0  0
 21 23  2  0  0  0  0
 21 41  1  0  0  0  0
 22 49  1  0  0  0  0
 23 42  1  0  0  0  0
 24 60  1  0  0  0  0
 25 26  2  0  0  0  0
 25 61  1  0  0  0  0
 26 74  1  0  0  0  0
 27 84  1  0  0  0  0
 28 85  1  0  0  0  0
 29 31  2  0  0  0  0
 29 84  1  0  0  0  0
 30 86  1  0  0  0  0
 31 87  1  0  0  0  0
 32 68  2  0  0  0  0
 33 69  1  0  0  0  0
 33 72  1  0  0  0  0
 34 73  1  0  0  0  0
 34 78  2  0  0  0  0
 35 50  1  0  0  0  0
 35 75  1  0  0  0  0
 35 79  2  0  0  0  0
 36 62  1  0  0  0  0
 36 66  1  0  0  0  0
 36 80  2  0  0  0  0
 37 64  1  0  0  0  0
 37 70  1  0  0  0  0
 37 81  2  0  0  0  0
 38 65  1  0  0  0  0
 38 76  1  0  0  0  0
 38 82  2  0  0  0  0
 39 71  1  0  0  0  0
 39 74  1  0  0  0  0
 39 83  2  0  0  0  0
 40 43  1  0  0  0  0
 41 50  1  0  0  0  0
 42 70  1  0  0  0  0
 43 45  1  0  0  0  0
 44 46  1  0  0  0  0
 44 47  1  0  0  0  0
 45 49  1  0  0  0  0
 46 51  1  0  0  0  0
 47 71  1  0  0  0  0
 48 51  1  0  0  0  0
 48 71  1  0  0  0  0
 49 75  1  0  0  0  0
 50 70  1  0  0  0  0
 51 69  1  0  0  0  0
 52 61  1  0  0  0  0
 53 65  1  0  0  0  0
 54 66  1  0  0  0  0
 55 66  1  0  0  0  0
 56 67  1  0  0  0  0
 57 67  1  0  0  0  0
 58 67  1  0  0  0  0
 59 77  1  0  0  0  0
 60 66  1  0  0  0  0
 62 63  1  0  0  0  0
 63 85  1  0  0  0  0
 64 67  1  0  0  0  0
 64 76  1  0  0  0  0
 65 77  1  0  0  0  0
 68 69  1  0  0  0  0
M  CHG  1  77   1
M  ISO  4  39 100  63 101  74 100  85 101
M  END
> <Batch ID>
0142

> <Smiles>
CCc1cc(CC(C)(C)C(=O)C[101CH2:1][101O:1]c2ccc3c(c2)CN(C(=O)C(NC(=O)C(C)NC)C(C)(C)C)C(C(=O)NC2CCCc4ccccc42)C3)ccc1[100NH:0][100C:0](=O)N1CCCC(n2nc(-c3ccc(Oc4ccc(F)cc4F)cc3)c(C(N)=O)c2N)C1

> <Shape>
0.210

> <Color>
0.188

> <Negative vol penalty>
0.000

$$$$

  -OEChem-04052302573D

 84 92  0     1  0  0  0  0  0999 V2000
  -30.2800  -35.5091   19.8743 C   0  0  0  0  0  0  0  0  0  0  0  0
  -30.5450  -34.2073   20.2871 C   0  0  0  0  0  0  0  0  0  0  0  0
  -23.9256   -9.5998   21.5415 C   0  0  0  0  0  0  0  0  0  0  0  0
  -24.4774  -10.7143   23.6127 C   0  0  0  0  0  0  0  0  0  0  0  0
  -28.9907  -36.0269   19.9898 C   0  0  0  0  0  0  0  0  0  0  0  0
  -29.5210  -33.4228   20.8166 C   0  0  0  0  0  0  0  0  0  0  0  0
  -28.8076  -27.3746   20.1715 C   0  0  0  0  0  0  0  0  0  0  0  0
  -23.4503   -8.5020   22.2588 C   0  0  0  0  0  0  0  0  0  0  0  0
  -24.0021   -9.6166   24.3301 C   0  0  0  0  0  0  0  0  0  0  0  0
  -29.1245  -26.2991   21.0001 C   0  0  0  0  0  0  0  0  0  0  0  0
  -20.6590   -7.6667   23.9745 C   0  0  0  0  0  0  0  0  0  0  0  0
  -19.4411   -7.1127   23.5802 C   0  0  0  0  0  0  0  0  0  0  0  0
  -26.8650  -26.2920   21.8450 C   0  0  0  0  0  0  0  0  0  0  0  0
  -20.5379   -5.0016   23.1587 C   0  0  0  0  0  0  0  0  0  0  0  0
  -31.8307  -19.1855   21.7753 C   0  0  0  0  0  0  0  0  0  0  0  0
  -24.4392  -10.7059   22.2184 C   0  0  0  0  0  0  0  0  0  0  0  0
  -24.1978  -12.9690   21.0660 C   0  0  0  0  0  0  0  0  0  0  0  0
  -27.9482  -35.2452   20.5121 C   0  0  0  0  0  0  0  0  0  0  0  0
  -27.5178  -27.9249   20.1814 C   0  0  0  0  0  0  0  0  0  0  0  0
  -28.2168  -33.9311   20.9404 C   0  0  0  0  0  0  0  0  0  0  0  0
  -26.5336  -27.3729   21.0137 C   0  0  0  0  0  0  0  0  0  0  0  0
  -30.5496  -17.7056   23.0286 C   0  0  0  0  0  0  0  0  0  0  0  0
  -23.4885   -8.5104   23.6531 C   0  0  0  0  0  0  0  0  0  0  0  0
  -28.1540  -25.7595   21.8391 C   0  0  0  0  0  0  0  0  0  0  0  0
  -21.8163   -6.8882   23.9609 C   0  0  0  0  0  0  0  0  0  0  0  0
  -30.7186  -19.0460   22.5761 C   0  0  0  0  0  0  0  0  0  0  0  0
  -19.3806   -5.7802   23.1723 C   0  0  0  0  0  0  0  0  0  0  0  0
  -21.7558   -5.5557   23.5530 C   0  0  0  0  0  0  0  0  0  0  0  0
  -24.9309  -11.8400   21.4780 C   0  0  0  0  0  0  0  0  0  0  0  0
  -31.5390  -16.8714   22.5560 C   0  0  0  0  0  0  0  0  0  0  0  0
  -25.1130  -13.7496   20.4031 C   0  0  0  0  0  0  0  0  0  0  0  0
  -22.8132  -13.2839   21.2649 C   0  0  0  0  0  0  0  0  0  0  0  0
  -26.2995  -30.7728   20.8947 C   0  0  0  0  0  0  0  0  0  0  0  0
  -29.2202  -22.4127   22.7299 C   0  0  0  0  0  0  0  0  0  0  0  0
  -23.5532  -29.4391   19.7987 C   0  0  0  0  0  0  0  0  0  0  0  0
  -21.7515  -26.6063   19.1855 C   0  0  0  0  0  0  0  0  0  0  0  0
  -31.0742  -14.2086   20.7260 C   0  0  0  0  0  0  0  0  0  0  0  0
  -26.5811  -35.8643   20.6613 C   0  0  0  0  0  0  0  0  0  0  0  0
  -27.1847  -29.0678   19.2621 C   0  0  0  0  0  0  0  0  0  0  0  0
  -25.1285  -27.9141   21.0470 C   0  0  0  0  0  0  0  0  0  0  0  0
  -25.4703  -34.8414   20.8855 C   0  0  0  0  0  0  0  0  0  0  0  0
  -29.1397  -13.4384   17.8379 C   0  0  0  0  0  0  0  0  0  0  0  0
  -25.8868  -33.8244   21.9433 C   0  0  0  0  0  0  0  0  0  0  0  0
  -27.7755  -13.0432   18.4062 C   0  0  0  0  0  0  0  0  0  0  0  0
  -30.2825  -12.9666   18.7343 C   0  0  0  0  0  0  0  0  0  0  0  0
  -28.8130  -12.9908   20.7126 C   0  0  0  0  0  0  0  0  0  0  0  0
  -27.1270  -33.0407   21.4970 C   0  0  1  0  0  0  0  0  0  0  0  0
  -25.9804  -29.8792   19.7297 C   0  0  1  0  0  0  0  0  0  0  0  0
  -27.6269  -13.4935   19.8719 C   0  0  2  0  0  0  0  0  0  0  0  0
  -29.6412  -17.6637   25.3652 C   0  0  0  0  0  0  0  0  0  0  0  0
  -19.5245  -25.8363   18.3226 C   0  0  0  0  0  0  0  0  0  0  0  0
  -22.2526  -30.2530   22.4361 C   0  0  0  0  0  0  0  0  0  0  0  0
  -20.3846  -28.6666   21.9242 C   0  0  0  0  0  0  0  0  0  0  0  0
  -20.8218  -30.6043   20.4152 C   0  0  0  0  0  0  0  0  0  0  0  0
  -23.0013  -25.1120   16.9575 C   0  0  0  0  0  0  0  0  0  0  0  0
  -29.4359  -17.2636   23.9032 C   0  0  0  0  0  0  0  0  0  0  0  0
  -31.7231  -15.4217   22.7915 C   0  0  0  0  0  0  0  0  0  0  0  0
  -29.4654  -23.8068   22.1899 C   0  0  0  0  0  0  0  0  0  1  0  0
  -30.2331  -21.3608   22.3270 C   0  0  0  0  0  0  0  0  0  0  0  0
  -22.4259  -28.6501   20.4195 C   0  0  1  0  0  0  0  0  0  0  0  0
  -20.9681  -26.1550   17.9661 C   0  0  2  0  0  0  0  0  0  0  0  0
  -21.4981  -29.5343   21.2998 C   0  0  0  0  0  0  0  0  0  0  0  0
  -26.2131  -11.8945   21.1076 N   0  0  0  0  0  0  0  0  0  0  0  0
  -26.2927  -13.0671   20.4559 N   0  0  0  0  0  0  0  0  0  0  0  0
  -24.8535  -29.0362   20.1343 N   0  0  0  0  0  0  0  0  0  0  0  0
  -30.0820  -13.4282   20.1100 N   0  0  0  0  0  0  0  0  0  0  0  0
  -25.0157  -14.9462   19.7859 N   0  0  0  0  0  0  0  0  0  0  0  0
  -22.0147  -12.3714   21.9678 N   0  0  0  0  0  0  0  0  0  0  0  0
  -26.7627  -32.0237   20.5339 N   0  0  0  0  0  0  0  0  0  0  0  0
  -21.7430  -27.9786   19.3189 N   0  0  0  0  0  0  0  0  0  0  0  0
  -30.8019  -14.6096   22.0282 N   0  0  0  0  0  0  0  0  0  0  0  0
  -21.5868  -24.9345   17.3755 N   0  3  0  0  0  0  0  0  0  0  0  0
  -22.2956  -14.3355   20.8179 O   0  0  0  0  0  0  0  0  0  0  0  0
  -26.1362  -30.3586   22.0364 O   0  0  0  0  0  0  0  0  0  0  0  0
  -28.2580  -22.1513   23.4504 O   0  0  0  0  0  0  0  0  0  0  0  0
  -23.2899  -30.3739   19.0381 O   0  0  0  0  0  0  0  0  0  0  0  0
  -22.3117  -25.8198   19.9460 O   0  0  0  0  0  0  0  0  0  0  0  0
  -32.1226  -14.5290   20.1557 O   0  0  0  0  0  0  0  0  0  0  0  0
  -23.0245   -7.4395   24.3534 O   0  0  0  0  0  0  0  0  0  0  0  0
  -28.4608  -24.7101   22.6494 O   0  0  0  0  0  0  0  0  0  1  0  0
  -29.8947  -20.1048   22.8765 O   0  0  0  0  0  0  0  0  0  0  0  0
  -18.2107   -5.2478   22.7952 F   0  0  0  0  0  0  0  0  0  0  0  0
  -22.8641   -4.8025   23.5390 F   0  0  0  0  0  0  0  0  0  0  0  0
  -32.6656  -17.7044   21.5715 S   0  0  0  0  0  0  0  0  0  0  0  0
  1  2  1  0  0  0  0
  1  5  2  0  0  0  0
  2  6  2  0  0  0  0
  3  8  2  0  0  0  0
  3 16  1  0  0  0  0
  4  9  1  0  0  0  0
  4 16  2  0  0  0  0
  5 18  1  0  0  0  0
  6 20  1  0  0  0  0
  7 10  2  0  0  0  0
  7 19  1  0  0  0  0
  8 23  1  0  0  0  0
  9 23  2  0  0  0  0
 10 24  1  0  0  0  0
 11 12  2  0  0  0  0
 11 25  1  0  0  0  0
 12 27  1  0  0  0  0
 13 21  1  0  0  0  0
 13 24  2  0  0  0  0
 14 27  2  0  0  0  0
 14 28  1  0  0  0  0
 15 26  2  0  0  0  0
 15 84  1  0  0  0  0
 16 29  1  0  0  0  0
 17 29  1  0  0  0  0
 17 31  2  0  0  0  0
 17 32  1  0  0  0  0
 18 20  2  0  0  0  0
 18 38  1  0  0  0  0
 19 21  2  0  0  0  0
 19 39  1  0  0  0  0
 20 47  1  0  0  0  0
 21 40  1  0  0  0  0
 22 26  1  0  0  0  0
 22 30  2  0  0  0  0
 22 56  1  0  0  0  0
 23 79  1  0  0  0  0
 24 80  1  0  0  0  0
 25 28  2  0  0  0  0
 25 79  1  0  0  0  0
 26 81  1  0  0  0  0
 27 82  1  0  0  0  0
 28 83  1  0  0  0  0
 29 63  2  0  0  0  0
 30 57  1  0  0  0  0
 30 84  1  0  0  0  0
 31 64  1  0  0  0  0
 31 67  1  0  0  0  0
 32 68  1  0  0  0  0
 32 73  2  0  0  0  0
 33 48  1  0  0  0  0
 33 69  1  0  0  0  0
 33 74  2  0  0  0  0
 34 58  1  0  0  0  0
 34 59  1  0  0  0  0
 34 75  2  0  0  0  0
 35 60  1  0  0  0  0
 35 65  1  0  0  0  0
 35 76  2  0  0  0  0
 36 61  1  0  0  0  0
 36 70  1  0  0  0  0
 36 77  2  0  0  0  0
 37 66  1  0  0  0  0
 37 71  1  0  0  0  0
 37 78  2  0  0  0  0
 38 41  1  0  0  0  0
 39 48  1  0  0  0  0
 40 65  1  0  0  0  0
 41 43  1  0  0  0  0
 42 44  1  0  0  0  0
 42 45  1  0  0  0  0
 43 47  1  0  0  0  0
 44 49  1  0  0  0  0
 45 66  1  0  0  0  0
 46 49  1  0  0  0  0
 46 66  1  0  0  0  0
 47 69  1  0  0  0  0
 48 65  1  0  0  0  0
 49 64  1  0  0  0  0
 50 56  1  0  0  0  0
 51 61  1  0  0  0  0
 52 62  1  0  0  0  0
 53 62  1  0  0  0  0
 54 62  1  0  0  0  0
 55 72  1  0  0  0  0
 57 71  1  0  0  0  0
 58 80  1  0  0  0  0
 59 81  1  0  0  0  0
 60 62  1  0  0  0  0
 60 70  1  0  0  0  0
 61 72  1  0  0  0  0
 63 64  1  0  0  0  0
M  CHG  1  72   1
M  ISO  4  37 100  58 101  71 100  80 101
M  END
> <Batch ID>
0142

> <Smiles>
CCc1c(OCC(=O)[101CH2:1][101O:1]c2ccc3c(c2)CN(C(=O)C(NC(=O)C(C)NC)C(C)(C)C)C(C(=O)NC2CCCc4ccccc42)C3)csc1C[100NH:0][100C:0](=O)N1CCCC(n2nc(-c3ccc(Oc4ccc(F)cc4F)cc3)c(C(N)=O)c2N)C1

> <Shape>
0.265

> <Color>
0.141

> <Negative vol penalty>
0.000

$$$$

  -OEChem-04052302573D

 88 98  0     1  0  0  0  0  0999 V2000
  -32.3945  -13.9499   20.8713 C   0  0  0  0  0  0  0  0  0  0  0  0
  -31.6639  -15.1141   21.0866 C   0  0  0  0  0  0  0  0  0  0  0  0
  -28.8119  -25.5779   19.6776 C   0  0  0  0  0  0  0  0  0  0  0  0
  -26.6874  -24.5761   20.2434 C   0  0  0  0  0  0  0  0  0  0  0  0
  -31.7787  -12.8379   20.2984 C   0  0  0  0  0  0  0  0  0  0  0  0
  -30.3174  -15.1673   20.7282 C   0  0  0  0  0  0  0  0  0  0  0  0
  -25.8548  -18.2041   23.6209 C   0  0  0  0  0  0  0  0  0  0  0  0
  -29.4258  -24.3289   19.7708 C   0  0  0  0  0  0  0  0  0  0  0  0
  -27.3013  -23.3270   20.3366 C   0  0  0  0  0  0  0  0  0  0  0  0
  -25.2553  -19.4404   23.3840 C   0  0  0  0  0  0  0  0  0  0  0  0
  -28.3807  -20.9201   18.2243 C   0  0  0  0  0  0  0  0  0  0  0  0
  -27.7382  -19.8374   17.6238 C   0  0  0  0  0  0  0  0  0  0  0  0
  -23.4777  -18.3407   22.1797 C   0  0  0  0  0  0  0  0  0  0  0  0
  -21.8685  -22.9086   20.3287 C   0  0  0  0  0  0  0  0  0  0  0  0
  -17.7160  -27.9740   22.1274 C   0  0  0  0  0  0  0  0  0  0  0  0
  -27.5978  -18.7317   19.7673 C   0  0  0  0  0  0  0  0  0  0  0  0
  -21.2039  -22.9216   22.4581 C   0  0  0  0  0  0  0  0  0  0  0  0
  -27.4427  -25.7016   19.9139 C   0  0  0  0  0  0  0  0  0  0  0  0
  -26.7501  -27.8287   18.6879 C   0  0  0  0  0  0  0  0  0  0  0  0
  -30.4215  -12.8742   19.9416 C   0  0  0  0  0  0  0  0  0  0  0  0
  -25.2750  -17.0259   23.1288 C   0  0  0  0  0  0  0  0  0  0  0  0
  -29.6833  -14.0551   20.1487 C   0  0  0  0  0  0  0  0  0  0  0  0
  -24.0705  -17.0906   22.4139 C   0  0  0  0  0  0  0  0  0  0  0  0
  -21.7949  -22.1251   21.5051 C   0  0  0  0  0  0  0  0  0  0  0  0
  -19.1041  -27.8096   21.8511 C   0  0  0  0  0  0  0  0  0  0  0  0
  -28.6705  -23.2035   20.1003 C   0  0  0  0  0  0  0  0  0  0  0  0
  -24.0681  -19.5091   22.6609 C   0  0  0  0  0  0  0  0  0  0  0  0
  -28.6319  -20.9085   19.5963 C   0  0  0  0  0  0  0  0  0  0  0  0
  -27.3467  -18.7433   18.3953 C   0  0  0  0  0  0  0  0  0  0  0  0
  -28.2404  -19.8144   20.3679 C   0  0  0  0  0  0  0  0  0  0  0  0
  -26.8081  -26.9916   19.8183 C   0  0  0  0  0  0  0  0  0  0  0  0
  -21.3171  -24.1280   20.6467 C   0  0  0  0  0  0  0  0  0  0  0  0
  -17.4880  -28.9558   23.0663 C   0  0  0  0  0  0  0  0  0  0  0  0
  -26.0425  -28.9275   19.1104 C   0  0  0  0  0  0  0  0  0  0  0  0
  -19.8843  -28.6723   22.5895 C   0  0  0  0  0  0  0  0  0  0  0  0
  -27.2877  -27.6308   17.3736 C   0  0  0  0  0  0  0  0  0  0  0  0
  -26.1807  -14.7624   21.0893 C   0  0  0  0  0  0  0  0  0  0  0  0
  -23.4323  -13.3365   22.0564 C   0  0  0  0  0  0  0  0  0  0  0  0
  -20.3101  -13.6703   23.3933 C   0  0  0  0  0  0  0  0  0  0  0  0
  -21.9948  -29.7644   23.4256 C   0  0  0  0  0  0  0  0  0  0  0  0
  -29.8117  -11.6629   19.2818 C   0  0  0  0  0  0  0  0  0  0  0  0
  -25.9201  -15.6978   23.4159 C   0  0  0  0  0  0  0  0  0  0  0  0
  -23.3970  -15.8531   21.8815 C   0  0  0  0  0  0  0  0  0  0  0  0
  -28.2852  -11.6768   19.2749 C   0  0  0  0  0  0  0  0  0  0  0  0
  -25.0908  -31.4817   23.0480 C   0  0  0  0  0  0  0  0  0  0  0  0
  -27.7658  -13.0403   18.8301 C   0  0  0  0  0  0  0  0  0  0  0  0
  -25.8750  -30.6045   22.0693 C   0  0  0  0  0  0  0  0  0  0  0  0
  -19.7325  -25.3921   19.1434 C   0  0  0  0  0  0  0  0  0  0  0  0
  -24.2446  -30.6455   24.0063 C   0  0  0  0  0  0  0  0  0  0  0  0
  -18.7694  -25.9824   20.1726 C   0  0  0  0  0  0  0  0  0  0  0  0
  -21.0199  -26.7156   20.6587 C   0  0  0  0  0  0  0  0  0  0  0  0
  -24.1371  -28.7965   22.3819 C   0  0  0  0  0  0  0  0  0  0  0  0
  -28.2143  -14.1435   19.7961 C   0  0  1  0  0  0  0  0  0  0  0  0
  -21.0885  -25.4041   19.8543 C   0  0  1  0  0  0  0  0  0  0  0  0
  -25.5134  -14.6098   22.4268 C   0  0  1  0  0  0  0  0  0  0  0  0
  -24.9543  -29.5962   21.3542 C   0  0  2  0  0  0  0  0  0  0  0  0
  -16.1964  -29.4222   23.6160 C   0  0  0  0  0  0  0  0  0  0  0  0
  -18.2853  -12.3305   24.0278 C   0  0  0  0  0  0  0  0  0  0  0  0
  -22.6552  -13.1219   19.1136 C   0  0  0  0  0  0  0  0  0  0  0  0
  -20.3008  -12.6775   19.8398 C   0  0  0  0  0  0  0  0  0  0  0  0
  -22.1218  -11.0988   20.4837 C   0  0  0  0  0  0  0  0  0  0  0  0
  -20.5398  -14.4538   26.2380 C   0  0  0  0  0  0  0  0  0  0  0  0
  -22.2659  -20.7113   21.6796 C   0  0  0  0  0  0  0  0  0  1  0  0
  -21.9944  -13.3648   21.5977 C   0  0  1  0  0  0  0  0  0  0  0  0
  -19.6049  -12.9160   24.5060 C   0  0  2  0  0  0  0  0  0  0  0  0
  -21.7815  -12.5895   20.2669 C   0  0  0  0  0  0  0  0  0  0  0  0
  -26.1871  -27.5139   20.8792 N   0  0  0  0  0  0  0  0  0  0  0  0
  -25.7321  -28.6911   20.4173 N   0  0  0  0  0  0  0  0  0  0  0  0
  -19.5979  -26.8962   20.9538 N   0  0  3  0  0  0  0  0  0  0  0  0
  -24.0699  -14.5788   22.1828 N   0  0  0  0  0  0  0  0  0  0  0  0
  -23.3949  -29.7166   23.2580 N   0  0  0  0  0  0  0  0  0  0  0  0
  -25.6618  -30.0633   18.4878 N   0  0  0  0  0  0  0  0  0  0  0  0
  -26.4880  -26.9962   16.4133 N   0  0  0  0  0  0  0  0  0  0  0  0
  -21.2884  -28.8560   22.6380 N   0  0  0  0  0  0  0  0  0  0  0  0
  -27.4036  -14.1260   20.9948 N   0  0  0  0  0  0  0  0  0  0  0  0
  -21.1997  -12.8648   22.7143 N   0  0  0  0  0  0  0  0  0  0  0  0
  -19.3271  -13.8257   25.6533 N   0  3  0  0  0  0  0  0  0  0  0  0
  -28.4489  -27.9909   17.0647 O   0  0  0  0  0  0  0  0  0  0  0  0
  -25.6265  -15.4084   20.2077 O   0  0  0  0  0  0  0  0  0  0  0  0
  -23.9679  -12.2525   22.3008 O   0  0  0  0  0  0  0  0  0  0  0  0
  -20.0909  -14.8546   23.1484 O   0  0  0  0  0  0  0  0  0  0  0  0
  -21.4599  -30.5718   24.1899 O   0  0  0  0  0  0  0  0  0  0  0  0
  -20.9094  -24.1440   21.9429 O   0  0  0  0  0  0  0  0  0  0  0  0
  -29.2691  -21.9845   20.1912 O   0  0  0  0  0  0  0  0  0  0  0  0
  -23.4811  -20.7145   22.4277 O   0  0  0  0  0  0  0  0  0  1  0  0
  -26.7283  -17.7043   17.8187 F   0  0  0  0  0  0  0  0  0  0  0  0
  -28.4779  -19.7981   21.6866 F   0  0  0  0  0  0  0  0  0  0  0  0
  -18.9438  -29.6747   23.6107 S   0  0  0  0  0  0  0  0  0  0  0  0
  1  2  1  0  0  0  0
  1  5  2  0  0  0  0
  2  6  2  0  0  0  0
  3  8  2  0  0  0  0
  3 18  1  0  0  0  0
  4  9  1  0  0  0  0
  4 18  2  0  0  0  0
  5 20  1  0  0  0  0
  6 22  1  0  0  0  0
  7 10  2  0  0  0  0
  7 21  1  0  0  0  0
  8 26  1  0  0  0  0
  9 26  2  0  0  0  0
 10 27  1  0  0  0  0
 11 12  2  0  0  0  0
 11 28  1  0  0  0  0
 12 29  1  0  0  0  0
 13 23  1  0  0  0  0
 13 27  2  0  0  0  0
 14 24  1  0  0  0  0
 14 32  2  0  0  0  0
 15 25  1  0  0  0  0
 15 33  2  0  0  0  0
 16 29  2  0  0  0  0
 16 30  1  0  0  0  0
 17 24  2  0  0  0  0
 17 83  1  0  0  0  0
 18 31  1  0  0  0  0
 19 31  1  0  0  0  0
 19 34  2  0  0  0  0
 19 36  1  0  0  0  0
 20 22  2  0  0  0  0
 20 41  1  0  0  0  0
 21 23  2  0  0  0  0
 21 42  1  0  0  0  0
 22 53  1  0  0  0  0
 23 43  1  0  0  0  0
 24 63  1  0  0  0  0
 25 35  2  0  0  0  0
 25 69  1  0  0  0  0
 26 84  1  0  0  0  0
 27 85  1  0  0  0  0
 28 30  2  0  0  0  0
 28 84  1  0  0  0  0
 29 86  1  0  0  0  0
 30 87  1  0  0  0  0
 31 67  2  0  0  0  0
 32 54  1  0  0  0  0
 32 83  1  0  0  0  0
 33 57  1  0  0  0  0
 33 88  1  0  0  0  0
 34 68  1  0  0  0  0
 34 72  1  0  0  0  0
 35 74  1  0  0  0  0
 35 88  1  0  0  0  0
 36 73  1  0  0  0  0
 36 78  2  0  0  0  0
 37 55  1  0  0  0  0
 37 75  1  0  0  0  0
 37 79  2  0  0  0  0
 38 64  1  0  0  0  0
 38 70  1  0  0  0  0
 38 80  2  0  0  0  0
 39 65  1  0  0  0  0
 39 76  1  0  0  0  0
 39 81  2  0  0  0  0
 40 71  1  0  0  0  0
 40 74  1  0  0  0  0
 40 82  2  0  0  0  0
 41 44  1  0  0  0  0
 42 55  1  0  0  0  0
 43 70  1  0  0  0  0
 44 46  1  0  0  0  0
 45 47  1  0  0  0  0
 45 49  1  0  0  0  0
 46 53  1  0  0  0  0
 47 56  1  0  0  0  0
 48 50  1  0  0  0  0
 48 54  1  0  0  0  0
 49 71  1  0  0  0  0
 50 69  1  0  0  0  0
 51 54  1  0  0  0  0
 51 69  1  0  0  0  0
 52 56  1  0  0  0  0
 52 71  1  0  0  0  0
 53 75  1  0  0  0  0
 55 70  1  0  0  0  0
 56 68  1  0  0  0  0
 58 65  1  0  0  0  0
 59 66  1  0  0  0  0
 60 66  1  0  0  0  0
 61 66  1  0  0  0  0
 62 77  1  0  0  0  0
 63 85  1  0  0  0  0
 64 66  1  0  0  0  0
 64 76  1  0  0  0  0
 65 77  1  0  0  0  0
 67 68  1  0  0  0  0
M  CHG  1  77   1
M  ISO  4  40 100  63 101  74 100  85 101
M  END
> <Batch ID>
0142

> <Smiles>
CNC(C)C(=O)NC(C(=O)N1Cc2cc([101O:1][101CH2:1]c3coc(C4CCN(c5cc(C)sc5[100NH:0][100C:0](=O)N5CCCC(n6nc(-c7ccc(Oc8ccc(F)cc8F)cc7)c(C(N)=O)c6N)C5)C4)c3)ccc2CC1C(=O)NC1CCCc2ccccc21)C(C)(C)C

> <Shape>
0.270

> <Color>
0.080

> <Negative vol penalty>
0.000

$$$$

  -OEChem-04052302573D

 87 96  0     1  0  0  0  0  0999 V2000
  -28.1600  -37.6789   20.6309 C   0  0  0  0  0  0  0  0  0  0  0  0
  -28.6262  -36.3954   20.3649 C   0  0  0  0  0  0  0  0  0  0  0  0
  -24.1865  -10.1334   23.0404 C   0  0  0  0  0  0  0  0  0  0  0  0
  -24.2770  -12.2066   24.2776 C   0  0  0  0  0  0  0  0  0  0  0  0
  -29.7348  -19.5471   22.1311 C   0  0  0  0  0  0  0  0  0  0  0  0
  -27.1875  -37.8771   21.6100 C   0  0  0  0  0  0  0  0  0  0  0  0
  -28.1207  -35.3094   21.0787 C   0  0  0  0  0  0  0  0  0  0  0  0
  -27.2005  -29.6304   18.9790 C   0  0  0  0  0  0  0  0  0  0  0  0
  -29.5987  -18.1594   22.1644 C   0  0  0  0  0  0  0  0  0  0  0  0
  -23.7701   -9.4646   24.1915 C   0  0  0  0  0  0  0  0  0  0  0  0
  -23.8605  -11.5379   25.4287 C   0  0  0  0  0  0  0  0  0  0  0  0
  -27.9538  -28.4612   19.0755 C   0  0  0  0  0  0  0  0  0  0  0  0
  -20.9050   -9.0669   25.9424 C   0  0  0  0  0  0  0  0  0  0  0  0
  -19.8445   -8.1688   25.8225 C   0  0  0  0  0  0  0  0  0  0  0  0
  -26.6362  -27.7764   20.9766 C   0  0  0  0  0  0  0  0  0  0  0  0
  -30.9959  -17.9754   20.2019 C   0  0  0  0  0  0  0  0  0  0  0  0
  -21.2718   -6.3801   26.5975 C   0  0  0  0  0  0  0  0  0  0  0  0
  -24.4400  -11.5044   23.0835 C   0  0  0  0  0  0  0  0  0  0  0  0
  -30.5013  -20.1491   21.1332 C   0  0  0  0  0  0  0  0  0  0  0  0
  -24.0549  -12.8097   20.9258 C   0  0  0  0  0  0  0  0  0  0  0  0
  -26.6629  -36.7918   22.3295 C   0  0  0  0  0  0  0  0  0  0  0  0
  -26.1648  -29.8870   19.8889 C   0  0  0  0  0  0  0  0  0  0  0  0
  -27.1412  -35.4934   22.0694 C   0  0  0  0  0  0  0  0  0  0  0  0
  -25.8696  -28.9485   20.8880 C   0  0  0  0  0  0  0  0  0  0  0  0
  -31.1319  -19.3632   20.1687 C   0  0  0  0  0  0  0  0  0  0  0  0
  -30.2293  -17.3735   21.1998 C   0  0  0  0  0  0  0  0  0  0  0  0
  -23.6071  -10.1669   25.3856 C   0  0  0  0  0  0  0  0  0  0  0  0
  -27.6735  -27.5353   20.0762 C   0  0  0  0  0  0  0  0  0  0  0  0
  -22.1489   -8.6217   26.3897 C   0  0  0  0  0  0  0  0  0  0  0  0
  -20.0279   -6.8254   26.1501 C   0  0  0  0  0  0  0  0  0  0  0  0
  -22.3323   -7.2783   26.7173 C   0  0  0  0  0  0  0  0  0  0  0  0
  -24.8708  -12.1956   21.8949 C   0  0  0  0  0  0  0  0  0  0  0  0
  -24.9386  -13.3205   20.0068 C   0  0  0  0  0  0  0  0  0  0  0  0
  -28.6221  -24.1211   19.5058 C   0  0  0  0  0  0  0  0  0  0  0  0
  -27.9803  -25.2936   19.4836 C   0  0  0  0  0  0  0  0  0  1  0  0
  -30.6326  -21.6170   21.1169 C   0  0  0  0  0  0  0  0  0  0  0  0
  -22.6260  -12.9095   20.8621 C   0  0  0  0  0  0  0  0  0  0  0  0
  -25.5899  -32.1399   22.0563 C   0  0  0  0  0  0  0  0  0  0  0  0
  -22.7370  -30.6175   22.3126 C   0  0  0  0  0  0  0  0  0  0  0  0
  -20.9402  -27.7439   21.9116 C   0  0  0  0  0  0  0  0  0  0  0  0
  -30.6511  -15.0384   20.3536 C   0  0  0  0  0  0  0  0  0  0  0  0
  -25.6471  -37.0611   23.4114 C   0  0  0  0  0  0  0  0  0  0  0  0
  -25.3443  -31.1404   19.7549 C   0  0  0  0  0  0  0  0  0  0  0  0
  -24.7550  -29.1671   21.8770 C   0  0  0  0  0  0  0  0  0  0  0  0
  -28.1932  -22.8873   18.7672 C   0  0  0  0  0  0  0  0  0  0  0  0
  -29.8087  -23.8089   20.3653 C   0  0  0  0  0  0  0  0  0  0  0  0
  -24.8922  -35.8132   23.8623 C   0  0  0  0  0  0  0  0  0  0  0  0
  -29.3007  -12.5608   18.1823 C   0  0  0  0  0  0  0  0  0  0  0  0
  -25.8612  -34.6587   24.0969 C   0  0  0  0  0  0  0  0  0  0  0  0
  -27.9347  -12.2462   18.7963 C   0  0  0  0  0  0  0  0  0  0  0  0
  -28.6336  -21.7570   19.6895 C   0  0  0  0  0  0  0  0  0  0  0  0
  -30.3558  -12.8298   19.2539 C   0  0  0  0  0  0  0  0  0  0  0  0
  -28.6239  -13.5375   20.8566 C   0  0  0  0  0  0  0  0  0  0  0  0
  -26.5996  -34.2871   22.8053 C   0  0  1  0  0  0  0  0  0  0  0  0
  -24.6473  -31.5399   21.0518 C   0  0  1  0  0  0  0  0  0  0  0  0
  -27.5133  -13.3232   19.8152 C   0  0  2  0  0  0  0  0  0  0  0  0
  -33.4556  -19.8466   19.3606 C   0  0  0  0  0  0  0  0  0  0  0  0
  -18.6402  -26.7964   22.2425 C   0  0  0  0  0  0  0  0  0  0  0  0
  -23.2498  -30.4276   25.3145 C   0  0  0  0  0  0  0  0  0  0  0  0
  -21.4520  -28.6897   25.4411 C   0  0  0  0  0  0  0  0  0  0  0  0
  -20.8970  -31.0036   24.6924 C   0  0  0  0  0  0  0  0  0  0  0  0
  -20.6335  -27.1738   19.0237 C   0  0  0  0  0  0  0  0  0  0  0  0
  -31.9601  -19.9843   19.0920 C   0  0  0  0  0  0  0  0  0  0  0  0
  -22.2027  -29.4823   23.1521 C   0  0  1  0  0  0  0  0  0  0  0  0
  -19.5889  -27.4819   21.2715 C   0  0  2  0  0  0  0  0  0  0  0  0
  -21.9727  -29.8973   24.6327 C   0  0  0  0  0  0  0  0  0  0  0  0
  -26.1727  -12.3051   21.6172 N   0  0  0  0  0  0  0  0  0  0  0  0
  -26.1816  -12.9938   20.4632 N   0  0  0  0  0  0  0  0  0  0  0  0
  -29.7583  -22.3393   20.4395 N   0  0  0  0  0  0  0  0  0  0  0  0
  -23.9854  -30.4109   21.7086 N   0  0  0  0  0  0  0  0  0  0  0  0
  -29.8892  -13.8636   20.1803 N   0  0  0  0  0  0  0  0  0  0  0  0
  -24.7658  -14.0127   18.8607 N   0  0  0  0  0  0  0  0  0  0  0  0
  -21.8693  -12.3288   21.8890 N   0  0  0  0  0  0  0  0  0  0  0  0
  -30.0919  -15.9636   21.2345 N   0  0  0  0  0  0  0  0  0  0  0  0
  -25.7411  -33.5083   21.9386 N   0  0  0  0  0  0  0  0  0  0  0  0
  -21.0041  -29.0016   22.4732 N   0  0  0  0  0  0  0  0  0  0  0  0
  -31.6281  -22.1914   21.7858 N   0  3  0  0  0  0  0  0  0  0  0  0
  -19.7439  -26.6111   20.0721 N   0  3  0  0  0  0  0  0  0  0  0  0
  -22.0371  -13.4819   19.9139 O   0  0  0  0  0  0  0  0  0  0  0  0
  -26.1383  -31.4151   22.8784 O   0  0  0  0  0  0  0  0  0  0  0  0
  -22.0681  -31.6468   22.1913 O   0  0  0  0  0  0  0  0  0  0  0  0
  -21.8470  -26.9143   21.9164 O   0  0  0  0  0  0  0  0  0  0  0  0
  -31.7073  -15.2229   19.7433 O   0  0  0  0  0  0  0  0  0  0  0  0
  -23.2005   -9.5147   26.5090 O   0  0  0  0  0  0  0  0  0  0  0  0
  -28.4076  -26.3936   20.1730 O   0  0  0  0  0  0  0  0  0  1  0  0
  -19.0091   -5.9633   26.0363 F   0  0  0  0  0  0  0  0  0  0  0  0
  -23.5247   -6.8449   27.1488 F   0  0  0  0  0  0  0  0  0  0  0  0
  1  2  1  0  0  0  0
  1  6  2  0  0  0  0
  2  7  2  0  0  0  0
  3 10  2  0  0  0  0
  3 18  1  0  0  0  0
  4 11  1  0  0  0  0
  4 18  2  0  0  0  0
  5  9  2  0  0  0  0
  5 19  1  0  0  0  0
  6 21  1  0  0  0  0
  7 23  1  0  0  0  0
  8 12  2  0  0  0  0
  8 22  1  0  0  0  0
  9 26  1  0  0  0  0
 10 27  1  0  0  0  0
 11 27  2  0  0  0  0
 12 28  1  0  0  0  0
 13 14  2  0  0  0  0
 13 29  1  0  0  0  0
 14 30  1  0  0  0  0
 15 24  1  0  0  0  0
 15 28  2  0  0  0  0
 16 25  1  0  0  0  0
 16 26  2  0  0  0  0
 17 30  2  0  0  0  0
 17 31  1  0  0  0  0
 18 32  1  0  0  0  0
 19 25  2  0  0  0  0
 19 36  1  0  0  0  0
 20 32  1  0  0  0  0
 20 33  2  0  0  0  0
 20 37  1  0  0  0  0
 21 23  2  0  0  0  0
 21 42  1  0  0  0  0
 22 24  2  0  0  0  0
 22 43  1  0  0  0  0
 23 54  1  0  0  0  0
 24 44  1  0  0  0  0
 25 63  1  0  0  0  0
 26 74  1  0  0  0  0
 27 84  1  0  0  0  0
 28 85  1  0  0  0  0
 29 31  2  0  0  0  0
 29 84  1  0  0  0  0
 30 86  1  0  0  0  0
 31 87  1  0  0  0  0
 32 67  2  0  0  0  0
 33 68  1  0  0  0  0
 33 72  1  0  0  0  0
 34 35  2  0  0  0  0
 34 45  1  0  0  0  0
 34 46  1  0  0  0  0
 35 85  1  0  0  0  0
 36 69  1  0  0  0  0
 36 77  2  0  0  0  0
 37 73  1  0  0  0  0
 37 79  2  0  0  0  0
 38 55  1  0  0  0  0
 38 75  1  0  0  0  0
 38 80  2  0  0  0  0
 39 64  1  0  0  0  0
 39 70  1  0  0  0  0
 39 81  2  0  0  0  0
 40 65  1  0  0  0  0
 40 76  1  0  0  0  0
 40 82  2  0  0  0  0
 41 71  1  0  0  0  0
 41 74  1  0  0  0  0
 41 83  2  0  0  0  0
 42 47  1  0  0  0  0
 43 55  1  0  0  0  0
 44 70  1  0  0  0  0
 45 51  1  0  0  0  0
 46 69  1  0  0  0  0
 47 49  1  0  0  0  0
 48 50  1  0  0  0  0
 48 52  1  0  0  0  0
 49 54  1  0  0  0  0
 50 56  1  0  0  0  0
 51 69  1  0  0  0  0
 52 71  1  0  0  0  0
 53 56  1  0  0  0  0
 53 71  1  0  0  0  0
 54 75  1  0  0  0  0
 55 70  1  0  0  0  0
 56 68  1  0  0  0  0
 57 63  1  0  0  0  0
 58 65  1  0  0  0  0
 59 66  1  0  0  0  0
 60 66  1  0  0  0  0
 61 66  1  0  0  0  0
 62 78  1  0  0  0  0
 64 66  1  0  0  0  0
 64 76  1  0  0  0  0
 65 78  1  0  0  0  0
 67 68  1  0  0  0  0
M  CHG  2  77   1  78   1
M  ISO  4  35 101  41 100  74 100  85 101
M  END
> <Batch ID>
0142

> <Smiles>
CCc1cc([100NH:0][100C:0](=O)N2CCCC(n3nc(-c4ccc(Oc5ccc(F)cc5F)cc4)c(C(N)=O)c3N)C2)ccc1C(=N)N1CCC(=[101CH:1][101O:1]c2ccc3c(c2)CN(C(=O)C(NC(=O)C(C)NC)C(C)(C)C)C(C(=O)NC2CCCc4ccccc42)C3)C1

> <Shape>
0.318

> <Color>
0.125

> <Negative vol penalty>
0.000

$$$$

  -OEChem-04052302573D

 89 97  0     1  0  0  0  0  0999 V2000
  -21.9517   -8.5383   28.3026 C   0  0  0  0  0  0  0  0  0  0  0  0
  -22.8079   -9.6268   28.1702 C   0  0  0  0  0  0  0  0  0  0  0  0
  -23.0754   -9.8685   19.9403 C   0  0  0  0  0  0  0  0  0  0  0  0
  -23.8351   -9.8746   22.2337 C   0  0  0  0  0  0  0  0  0  0  0  0
  -21.2627   -8.3362   29.4977 C   0  0  0  0  0  0  0  0  0  0  0  0
  -22.9748  -10.5144   29.2326 C   0  0  0  0  0  0  0  0  0  0  0  0
  -27.8322  -11.7096   30.0210 C   0  0  0  0  0  0  0  0  0  0  0  0
  -22.3312   -8.7155   20.1898 C   0  0  0  0  0  0  0  0  0  0  0  0
  -23.0908   -8.7216   22.4833 C   0  0  0  0  0  0  0  0  0  0  0  0
  -28.4059  -12.6439   29.1598 C   0  0  0  0  0  0  0  0  0  0  0  0
  -21.1050   -5.9846   23.8189 C   0  0  0  0  0  0  0  0  0  0  0  0
  -20.3486   -5.9409   24.9900 C   0  0  0  0  0  0  0  0  0  0  0  0
  -28.0972  -14.3606   30.8261 C   0  0  0  0  0  0  0  0  0  0  0  0
  -31.8533  -18.3572   24.2040 C   0  0  0  0  0  0  0  0  0  0  0  0
  -32.0642  -16.6069   22.5520 C   0  0  0  0  0  0  0  0  0  0  0  0
  -29.8801  -17.4556   23.1407 C   0  0  0  0  0  0  0  0  0  0  0  0
  -19.1046   -7.8787   24.2589 C   0  0  0  0  0  0  0  0  0  0  0  0
  -23.8274  -10.4480   20.9622 C   0  0  0  0  0  0  0  0  0  0  0  0
  -24.1700  -12.9731   20.8430 C   0  0  0  0  0  0  0  0  0  0  0  0
  -21.4286   -9.2163   30.5787 C   0  0  0  0  0  0  0  0  0  0  0  0
  -27.3760  -12.0967   31.2892 C   0  0  0  0  0  0  0  0  0  0  0  0
  -22.2863  -10.3246   30.4429 C   0  0  0  0  0  0  0  0  0  0  0  0
  -27.5204  -13.4288   31.7026 C   0  0  0  0  0  0  0  0  0  0  0  0
  -32.6516  -17.4909   23.4571 C   0  0  0  0  0  0  0  0  0  0  0  0
  -30.4675  -18.3395   24.0458 C   0  0  0  0  0  0  0  0  0  0  0  0
  -30.6784  -16.5893   22.3938 C   0  0  0  0  0  0  0  0  0  0  0  0
  -22.3389   -8.1420   21.4613 C   0  0  0  0  0  0  0  0  0  0  0  0
  -28.5359  -13.9702   29.5611 C   0  0  0  0  0  0  0  0  0  0  0  0
  -20.8613   -6.9754   22.8677 C   0  0  0  0  0  0  0  0  0  0  0  0
  -19.3484   -6.8879   25.2100 C   0  0  0  0  0  0  0  0  0  0  0  0
  -19.8611   -7.9225   23.0877 C   0  0  0  0  0  0  0  0  0  0  0  0
  -24.5969  -11.6388   20.7049 C   0  0  0  0  0  0  0  0  0  0  0  0
  -25.2623  -13.7224   20.4801 C   0  0  0  0  0  0  0  0  0  0  0  0
  -22.8996  -13.4892   21.2619 C   0  0  0  0  0  0  0  0  0  0  0  0
  -24.5517  -12.1162   32.7475 C   0  0  0  0  0  0  0  0  0  0  0  0
  -26.3186  -13.0262   35.3111 C   0  0  0  0  0  0  0  0  0  0  0  0
  -29.1745  -14.4709   36.4959 C   0  0  0  0  0  0  0  0  0  0  0  0
  -30.7288  -14.7665   20.6556 C   0  0  0  0  0  0  0  0  0  0  0  0
  -20.6263   -8.9833   31.8343 C   0  0  0  0  0  0  0  0  0  0  0  0
  -26.7838  -11.0713   32.2167 C   0  0  0  0  0  0  0  0  0  0  0  0
  -27.0651  -13.8912   33.0617 C   0  0  0  0  0  0  0  0  0  0  0  0
  -21.1455   -9.7597   33.0418 C   0  0  0  0  0  0  0  0  0  0  0  0
  -29.6140  -12.3537   18.2865 C   0  0  0  0  0  0  0  0  0  0  0  0
  -21.4287  -11.2098   32.6625 C   0  0  0  0  0  0  0  0  0  0  0  0
  -28.1742  -12.0624   18.7158 C   0  0  0  0  0  0  0  0  0  0  0  0
  -30.5290  -12.5819   19.4883 C   0  0  0  0  0  0  0  0  0  0  0  0
  -28.6221  -13.3064   20.8696 C   0  0  0  0  0  0  0  0  0  0  0  0
  -22.5127  -11.2956   31.5813 C   0  0  1  0  0  0  0  0  0  0  0  0
  -25.8851  -11.6823   33.2874 C   0  0  1  0  0  0  0  0  0  0  0  0
  -27.6494  -13.1338   19.6916 C   0  0  2  0  0  0  0  0  0  0  0  0
  -34.1333  -17.5097   23.6264 C   0  0  0  0  0  0  0  0  0  0  0  0
  -30.3180  -15.1080   38.6369 C   0  0  0  0  0  0  0  0  0  0  0  0
  -27.2122  -19.1609   25.9740 C   0  0  0  0  0  0  0  0  0  0  0  0
  -28.8093  -20.1930   23.8645 C   0  0  0  0  0  0  0  0  0  0  0  0
  -30.4064  -20.2755   25.7547 C   0  0  0  0  0  0  0  0  0  0  0  0
  -24.4379  -15.4111   35.6031 C   0  0  0  0  0  0  0  0  0  0  0  0
  -26.1393  -16.4812   37.0959 C   0  0  0  0  0  0  0  0  0  0  0  0
  -25.0828  -14.3210   37.7595 C   0  0  0  0  0  0  0  0  0  0  0  0
  -31.9359  -15.4477   28.1001 C   0  0  0  0  0  0  0  0  0  0  0  0
  -31.6291  -17.7076   29.1067 C   0  0  0  0  0  0  0  0  0  0  0  0
  -31.4776  -12.7011   35.9279 C   0  0  0  0  0  0  0  0  0  0  0  0
  -29.1817  -18.0806   27.1505 C   0  0  0  0  0  0  0  0  0  0  0  0
  -30.2908  -17.0190   27.0498 C   0  0  0  0  0  0  0  0  0  0  0  0
  -29.7923  -15.9752   29.3221 C   0  0  0  0  0  0  0  0  0  1  0  0
  -26.7743  -14.3479   35.8806 C   0  0  1  0  0  0  0  0  0  0  0  0
  -30.1523  -14.0349   37.5721 C   0  0  2  0  0  0  0  0  0  0  0  0
  -28.5710  -18.4657   25.7720 C   0  0  2  0  0  0  0  0  0  0  0  0
  -29.5809  -19.3020   24.8755 C   0  0  0  0  0  0  0  0  0  0  0  0
  -25.6155  -15.1323   36.5584 C   0  0  0  0  0  0  0  0  0  0  0  0
  -30.8961  -16.5481   28.4045 C   0  0  0  0  0  0  0  0  0  0  0  0
  -25.8617  -11.5427   20.2867 N   0  0  0  0  0  0  0  0  0  0  0  0
  -26.2390  -12.8262   20.1588 N   0  0  0  0  0  0  0  0  0  0  0  0
  -26.4868  -12.8524   33.9301 N   0  0  0  0  0  0  0  0  0  0  0  0
  -29.9702  -13.6126   20.3660 N   0  0  0  0  0  0  0  0  0  0  0  0
  -25.4731  -15.0539   20.4075 N   0  0  0  0  0  0  0  0  0  0  0  0
  -21.8874  -12.5802   21.5988 N   0  0  0  0  0  0  0  0  0  0  0  0
  -30.0816  -15.6915   21.4743 N   0  0  0  0  0  0  0  0  0  0  0  0
  -23.8232  -11.0980   32.1627 N   0  0  0  0  0  0  0  0  0  0  0  0
  -27.8914  -14.0461   36.7691 N   0  0  0  0  0  0  0  0  0  0  0  0
  -31.4887  -13.7548   36.9751 N   0  3  0  0  0  0  0  0  0  0  0  0
  -22.6636  -14.7198   21.3196 O   0  0  0  0  0  0  0  0  0  0  0  0
  -24.2086  -13.2877   32.8549 O   0  0  0  0  0  0  0  0  0  0  0  0
  -25.8379  -12.1763   36.0651 O   0  0  0  0  0  0  0  0  0  0  0  0
  -29.5142  -15.1261   35.5132 O   0  0  0  0  0  0  0  0  0  0  0  0
  -31.8580  -14.9350   20.1882 O   0  0  0  0  0  0  0  0  0  0  0  0
  -21.6126   -7.0170   21.7052 O   0  0  0  0  0  0  0  0  0  0  0  0
  -29.0986  -14.8904   28.7166 O   0  0  0  0  0  0  0  0  0  1  0  0
  -18.6211   -6.8448   26.3339 F   0  0  0  0  0  0  0  0  0  0  0  0
  -19.6216   -8.8760   22.1771 F   0  0  0  0  0  0  0  0  0  0  0  0
  1  2  1  0  0  0  0
  1  5  2  0  0  0  0
  2  6  2  0  0  0  0
  3  8  2  0  0  0  0
  3 18  1  0  0  0  0
  4  9  1  0  0  0  0
  4 18  2  0  0  0  0
  5 20  1  0  0  0  0
  6 22  1  0  0  0  0
  7 10  2  0  0  0  0
  7 21  1  0  0  0  0
  8 27  1  0  0  0  0
  9 27  2  0  0  0  0
 10 28  1  0  0  0  0
 11 12  2  0  0  0  0
 11 29  1  0  0  0  0
 12 30  1  0  0  0  0
 13 23  1  0  0  0  0
 13 28  2  0  0  0  0
 14 24  2  0  0  0  0
 14 25  1  0  0  0  0
 15 24  1  0  0  0  0
 15 26  2  0  0  0  0
 16 25  2  0  0  0  0
 16 26  1  0  0  0  0
 17 30  2  0  0  0  0
 17 31  1  0  0  0  0
 18 32  1  0  0  0  0
 19 32  1  0  0  0  0
 19 33  2  0  0  0  0
 19 34  1  0  0  0  0
 20 22  2  0  0  0  0
 20 39  1  0  0  0  0
 21 23  2  0  0  0  0
 21 40  1  0  0  0  0
 22 48  1  0  0  0  0
 23 41  1  0  0  0  0
 24 51  1  0  0  0  0
 25 68  1  0  0  0  0
 26 77  1  0  0  0  0
 27 86  1  0  0  0  0
 28 87  1  0  0  0  0
 29 31  2  0  0  0  0
 29 86  1  0  0  0  0
 30 88  1  0  0  0  0
 31 89  1  0  0  0  0
 32 71  2  0  0  0  0
 33 72  1  0  0  0  0
 33 75  1  0  0  0  0
 34 76  1  0  0  0  0
 34 81  2  0  0  0  0
 35 49  1  0  0  0  0
 35 78  1  0  0  0  0
 35 82  2  0  0  0  0
 36 65  1  0  0  0  0
 36 73  1  0  0  0  0
 36 83  2  0  0  0  0
 37 66  1  0  0  0  0
 37 79  1  0  0  0  0
 37 84  2  0  0  0  0
 38 74  1  0  0  0  0
 38 77  1  0  0  0  0
 38 85  2  0  0  0  0
 39 42  1  0  0  0  0
 40 49  1  0  0  0  0
 41 73  1  0  0  0  0
 42 44  1  0  0  0  0
 43 45  1  0  0  0  0
 43 46  1  0  0  0  0
 44 48  1  0  0  0  0
 45 50  1  0  0  0  0
 46 74  1  0  0  0  0
 47 50  1  0  0  0  0
 47 74  1  0  0  0  0
 48 78  1  0  0  0  0
 49 73  1  0  0  0  0
 50 72  1  0  0  0  0
 52 66  1  0  0  0  0
 53 67  1  0  0  0  0
 54 68  1  0  0  0  0
 55 68  1  0  0  0  0
 56 69  1  0  0  0  0
 57 69  1  0  0  0  0
 58 69  1  0  0  0  0
 59 70  1  0  0  0  0
 60 70  1  0  0  0  0
 61 80  1  0  0  0  0
 62 63  1  0  0  0  0
 62 67  1  0  0  0  0
 63 70  1  0  0  0  0
 64 70  1  0  0  0  0
 64 87  1  0  0  0  0
 65 69  1  0  0  0  0
 65 79  1  0  0  0  0
 66 80  1  0  0  0  0
 67 68  1  0  0  0  0
 71 72  1  0  0  0  0
M  CHG  1  80   1
M  ISO  4  38 100  64 101  77 100  87 101
M  END
> <Batch ID>
0142

> <Smiles>
CNC(C)C(=O)NC(C(=O)N1Cc2cc([101O:1][101CH2:1]C(C)(C)CCC(C)C(C)(C)c3cc(C)cc([100NH:0][100C:0](=O)N4CCCC(n5nc(-c6ccc(Oc7ccc(F)cc7F)cc6)c(C(N)=O)c5N)C4)c3)ccc2CC1C(=O)NC1CCCc2ccccc21)C(C)(C)C

> <Shape>
0.158

> <Color>
0.184

> <Negative vol penalty>
0.000

$$$$

  -OEChem-04052302573D

 86 95  0     1  0  0  0  0  0999 V2000
  -28.4702  -36.9383   19.7714 C   0  0  0  0  0  0  0  0  0  0  0  0
  -28.7898  -35.5975   19.5830 C   0  0  0  0  0  0  0  0  0  0  0  0
  -24.5863   -9.3035   21.2979 C   0  0  0  0  0  0  0  0  0  0  0  0
  -22.7354  -10.7190   20.6594 C   0  0  0  0  0  0  0  0  0  0  0  0
  -29.2433  -20.6111   18.2414 C   0  0  0  0  0  0  0  0  0  0  0  0
  -27.6057  -37.3098   20.8003 C   0  0  0  0  0  0  0  0  0  0  0  0
  -28.2459  -34.6274   20.4242 C   0  0  0  0  0  0  0  0  0  0  0  0
  -26.6241  -28.9223   18.8988 C   0  0  0  0  0  0  0  0  0  0  0  0
  -23.7022   -8.2479   21.5205 C   0  0  0  0  0  0  0  0  0  0  0  0
  -21.8513   -9.6633   20.8820 C   0  0  0  0  0  0  0  0  0  0  0  0
  -27.2695  -27.6944   19.0389 C   0  0  0  0  0  0  0  0  0  0  0  0
  -22.0190   -5.9754   19.6670 C   0  0  0  0  0  0  0  0  0  0  0  0
  -28.1662  -19.9055   17.7053 C   0  0  0  0  0  0  0  0  0  0  0  0
  -22.3692   -4.7205   19.1688 C   0  0  0  0  0  0  0  0  0  0  0  0
  -28.7150  -19.7502   20.4362 C   0  0  0  0  0  0  0  0  0  0  0  0
  -26.0566  -27.2974   21.0860 C   0  0  0  0  0  0  0  0  0  0  0  0
  -22.3218   -3.8177   21.4092 C   0  0  0  0  0  0  0  0  0  0  0  0
  -24.1029  -10.5391   20.8674 C   0  0  0  0  0  0  0  0  0  0  0  0
  -29.5178  -20.5334   19.6069 C   0  0  0  0  0  0  0  0  0  0  0  0
  -25.6740  -11.9490   19.4351 C   0  0  0  0  0  0  0  0  0  0  0  0
  -27.0433  -36.3428   21.6484 C   0  0  0  0  0  0  0  0  0  0  0  0
  -25.6966  -29.3525   19.8585 C   0  0  0  0  0  0  0  0  0  0  0  0
  -27.3741  -34.9864   21.4662 C   0  0  0  0  0  0  0  0  0  0  0  0
  -25.3989  -28.5300   20.9544 C   0  0  0  0  0  0  0  0  0  0  0  0
  -27.6377  -19.0447   19.9001 C   0  0  0  0  0  0  0  0  0  0  0  0
  -22.3347   -8.4277   21.3125 C   0  0  0  0  0  0  0  0  0  0  0  0
  -26.9880  -26.8831   20.1342 C   0  0  0  0  0  0  0  0  0  0  0  0
  -21.8202   -6.1515   21.0364 C   0  0  0  0  0  0  0  0  0  0  0  0
  -22.5206   -3.6417   20.0399 C   0  0  0  0  0  0  0  0  0  0  0  0
  -27.3633  -19.1223   18.5346 C   0  0  0  0  0  0  0  0  0  0  0  0
  -21.9716   -5.0726   21.9075 C   0  0  0  0  0  0  0  0  0  0  0  0
  -25.0155  -11.6302   20.6378 C   0  0  0  0  0  0  0  0  0  0  0  0
  -26.4201  -13.0620   19.7366 C   0  0  0  0  0  0  0  0  0  0  0  0
  -29.4991  -24.5334   21.1614 C   0  0  0  0  0  0  0  0  0  0  0  0
  -28.7965  -25.6533   20.9632 C   0  0  0  0  0  0  0  0  0  1  0  0
  -30.6563  -21.2788   20.1729 C   0  0  0  0  0  0  0  0  0  0  0  0
  -25.6163  -11.2973   18.1593 C   0  0  0  0  0  0  0  0  0  0  0  0
  -25.5189  -31.8153   21.8602 C   0  0  0  0  0  0  0  0  0  0  0  0
  -22.5669  -30.6125   22.4614 C   0  0  0  0  0  0  0  0  0  0  0  0
  -20.4808  -27.9116   22.4469 C   0  0  0  0  0  0  0  0  0  0  0  0
  -26.9595  -18.0653   22.1198 C   0  0  0  0  0  0  0  0  0  0  0  0
  -26.1512  -36.7971   22.7764 C   0  0  0  0  0  0  0  0  0  0  0  0
  -24.9892  -30.6677   19.6788 C   0  0  0  0  0  0  0  0  0  0  0  0
  -24.3962  -28.9368   22.0020 C   0  0  0  0  0  0  0  0  0  0  0  0
  -30.7968  -24.4486   21.9101 C   0  0  0  0  0  0  0  0  0  0  0  0
  -29.1700  -23.1979   20.5675 C   0  0  0  0  0  0  0  0  0  0  0  0
  -25.3227  -35.6709   23.3891 C   0  0  0  0  0  0  0  0  0  0  0  0
  -27.4664  -15.2173   24.1956 C   0  0  0  0  0  0  0  0  0  0  0  0
  -26.1950  -34.4469   23.6490 C   0  0  0  0  0  0  0  0  0  0  0  0
  -26.9282  -14.0564   23.3561 C   0  0  0  0  0  0  0  0  0  0  0  0
  -31.5461  -23.3367   21.1861 C   0  0  0  0  0  0  0  0  0  0  0  0
  -26.6345  -16.4850   24.0098 C   0  0  0  0  0  0  0  0  0  0  0  0
  -25.9071  -15.7437   21.7758 C   0  0  0  0  0  0  0  0  0  0  0  0
  -26.7848  -33.9024   22.3424 C   0  0  1  0  0  0  0  0  0  0  0  0
  -24.4435  -31.2360   20.9852 C   0  0  1  0  0  0  0  0  0  0  0  0
  -26.7511  -14.4630   21.8800 C   0  0  2  0  0  0  0  0  0  0  0  0
  -18.1376  -27.2293   23.0309 C   0  0  0  0  0  0  0  0  0  0  0  0
  -23.3083  -30.6089   25.4212 C   0  0  0  0  0  0  0  0  0  0  0  0
  -21.3720  -29.0760   25.8328 C   0  0  0  0  0  0  0  0  0  0  0  0
  -20.9763  -31.3679   24.9308 C   0  0  0  0  0  0  0  0  0  0  0  0
  -19.8820  -27.1497   19.6506 C   0  0  0  0  0  0  0  0  0  0  0  0
  -22.0001  -29.6064   23.4338 C   0  0  1  0  0  0  0  0  0  0  0  0
  -19.0622  -27.7373   21.9356 C   0  0  2  0  0  0  0  0  0  0  0  0
  -21.9346  -30.1577   24.8861 C   0  0  0  0  0  0  0  0  0  0  0  0
  -25.3169  -12.4726   21.6296 N   0  0  0  0  0  0  0  0  0  0  0  0
  -26.1730  -13.3316   21.0506 N   0  0  0  0  0  0  0  0  0  0  0  0
  -30.4716  -22.5111   20.6114 N   0  0  0  0  0  0  0  0  0  0  0  0
  -23.7355  -30.2345   21.7852 N   0  0  0  0  0  0  0  0  0  0  0  0
  -26.5131  -16.8111   22.5872 N   0  0  0  0  0  0  0  0  0  0  0  0
  -27.2568  -13.8266   19.0034 N   0  0  0  0  0  0  0  0  0  0  0  0
  -24.7996  -10.1665   18.0230 N   0  0  0  0  0  0  0  0  0  0  0  0
  -26.8233  -18.2498   20.7443 N   0  0  0  0  0  0  0  0  0  0  0  0
  -25.7877  -33.1481   21.6135 N   0  0  0  0  0  0  0  0  0  0  0  0
  -20.7093  -29.1968   22.8913 N   0  0  0  0  0  0  0  0  0  0  0  0
  -31.8511  -20.6985   20.2349 N   0  3  0  0  0  0  0  0  0  0  0  0
  -19.0341  -26.7637   20.8077 N   0  3  0  0  0  0  0  0  0  0  0  0
  -26.2824  -11.6959   17.1739 O   0  0  0  0  0  0  0  0  0  0  0  0
  -26.0634  -31.1061   22.6981 O   0  0  0  0  0  0  0  0  0  0  0  0
  -21.9899  -31.6911   22.3023 O   0  0  0  0  0  0  0  0  0  0  0  0
  -21.3029  -26.9980   22.4551 O   0  0  0  0  0  0  0  0  0  0  0  0
  -27.4531  -18.9027   22.8794 O   0  0  0  0  0  0  0  0  0  0  0  0
  -21.4718   -7.3977   21.5294 O   0  0  0  0  0  0  0  0  0  0  0  0
  -27.6170  -25.6845   20.2738 O   0  0  0  0  0  0  0  0  0  1  0  0
  -22.8554   -2.4363   19.5611 F   0  0  0  0  0  0  0  0  0  0  0  0
  -26.3304  -18.4488   18.0082 F   0  0  0  0  0  0  0  0  0  0  0  0
  -21.7808   -5.2353   23.2239 F   0  0  0  0  0  0  0  0  0  0  0  0
  1  2  1  0  0  0  0
  1  6  2  0  0  0  0
  2  7  2  0  0  0  0
  3  9  2  0  0  0  0
  3 18  1  0  0  0  0
  4 10  1  0  0  0  0
  4 18  2  0  0  0  0
  5 13  2  0  0  0  0
  5 19  1  0  0  0  0
  6 21  1  0  0  0  0
  7 23  1  0  0  0  0
  8 11  2  0  0  0  0
  8 22  1  0  0  0  0
  9 26  1  0  0  0  0
 10 26  2  0  0  0  0
 11 27  1  0  0  0  0
 12 14  2  0  0  0  0
 12 28  1  0  0  0  0
 13 30  1  0  0  0  0
 14 29  1  0  0  0  0
 15 19  2  0  0  0  0
 15 25  1  0  0  0  0
 16 24  1  0  0  0  0
 16 27  2  0  0  0  0
 17 29  2  0  0  0  0
 17 31  1  0  0  0  0
 18 32  1  0  0  0  0
 19 36  1  0  0  0  0
 20 32  1  0  0  0  0
 20 33  2  0  0  0  0
 20 37  1  0  0  0  0
 21 23  2  0  0  0  0
 21 42  1  0  0  0  0
 22 24  2  0  0  0  0
 22 43  1  0  0  0  0
 23 54  1  0  0  0  0
 24 44  1  0  0  0  0
 25 30  2  0  0  0  0
 25 72  1  0  0  0  0
 26 82  1  0  0  0  0
 27 83  1  0  0  0  0
 28 31  2  0  0  0  0
 28 82  1  0  0  0  0
 29 84  1  0  0  0  0
 30 85  1  0  0  0  0
 31 86  1  0  0  0  0
 32 65  2  0  0  0  0
 33 66  1  0  0  0  0
 33 70  1  0  0  0  0
 34 35  2  0  0  0  0
 34 45  1  0  0  0  0
 34 46  1  0  0  0  0
 35 83  1  0  0  0  0
 36 67  1  0  0  0  0
 36 75  2  0  0  0  0
 37 71  1  0  0  0  0
 37 77  2  0  0  0  0
 38 55  1  0  0  0  0
 38 73  1  0  0  0  0
 38 78  2  0  0  0  0
 39 62  1  0  0  0  0
 39 68  1  0  0  0  0
 39 79  2  0  0  0  0
 40 63  1  0  0  0  0
 40 74  1  0  0  0  0
 40 80  2  0  0  0  0
 41 69  1  0  0  0  0
 41 72  1  0  0  0  0
 41 81  2  0  0  0  0
 42 47  1  0  0  0  0
 43 55  1  0  0  0  0
 44 68  1  0  0  0  0
 45 51  1  0  0  0  0
 46 67  1  0  0  0  0
 47 49  1  0  0  0  0
 48 50  1  0  0  0  0
 48 52  1  0  0  0  0
 49 54  1  0  0  0  0
 50 56  1  0  0  0  0
 51 67  1  0  0  0  0
 52 69  1  0  0  0  0
 53 56  1  0  0  0  0
 53 69  1  0  0  0  0
 54 73  1  0  0  0  0
 55 68  1  0  0  0  0
 56 66  1  0  0  0  0
 57 63  1  0  0  0  0
 58 64  1  0  0  0  0
 59 64  1  0  0  0  0
 60 64  1  0  0  0  0
 61 76  1  0  0  0  0
 62 64  1  0  0  0  0
 62 74  1  0  0  0  0
 63 76  1  0  0  0  0
 65 66  1  0  0  0  0
M  CHG  2  75   1  76   1
M  ISO  4  35 101  41 100  72 100  83 101
M  END
> <Batch ID>
0142

> <Smiles>
CNC(C)C(=O)NC(C(=O)N1Cc2cc([101O:1][101CH:1]=C3CCN(C(=N)c4ccc(F)c([100NH:0][100C:0](=O)N5CCCC(n6nc(-c7ccc(Oc8ccc(F)cc8F)cc7)c(C(N)=O)c6N)C5)c4)C3)ccc2CC1C(=O)NC1CCCc2ccccc21)C(C)(C)C

> <Shape>
0.295

> <Color>
0.096

> <Negative vol penalty>
0.000

$$$$

  -OEChem-04052302573D

 85 94  0     1  0  0  0  0  0999 V2000
  -21.9860  -12.1719   19.2662 C   0  0  0  0  0  0  0  0  0  0  0  0
  -21.7875  -13.5387   19.4328 C   0  0  0  0  0  0  0  0  0  0  0  0
  -30.0655  -27.5297   20.2878 C   0  0  0  0  0  0  0  0  0  0  0  0
  -28.3081  -26.0884   21.1072 C   0  0  0  0  0  0  0  0  0  0  0  0
  -23.1714  -11.5824   19.7035 C   0  0  0  0  0  0  0  0  0  0  0  0
  -22.7740  -14.3167   20.0377 C   0  0  0  0  0  0  0  0  0  0  0  0
  -23.6114  -18.6575   17.5677 C   0  0  0  0  0  0  0  0  0  0  0  0
  -31.0227  -26.6521   20.7968 C   0  0  0  0  0  0  0  0  0  0  0  0
  -29.2653  -25.2107   21.6162 C   0  0  0  0  0  0  0  0  0  0  0  0
  -22.6914  -19.6873   17.7601 C   0  0  0  0  0  0  0  0  0  0  0  0
  -32.3972  -25.9350   23.8003 C   0  0  0  0  0  0  0  0  0  0  0  0
  -33.4727  -26.4840   24.4986 C   0  0  0  0  0  0  0  0  0  0  0  0
  -20.4234  -26.6579   21.7504 C   0  0  0  0  0  0  0  0  0  0  0  0
  -18.5794  -26.1914   23.2399 C   0  0  0  0  0  0  0  0  0  0  0  0
  -24.1923  -20.7253   19.3377 C   0  0  0  0  0  0  0  0  0  0  0  0
  -19.7188  -28.3186   23.3574 C   0  0  0  0  0  0  0  0  0  0  0  0
  -35.0040  -25.5220   22.8964 C   0  0  0  0  0  0  0  0  0  0  0  0
  -28.7082  -27.2480   20.4431 C   0  0  0  0  0  0  0  0  0  0  0  0
  -27.5472  -28.5406   18.5752 C   0  0  0  0  0  0  0  0  0  0  0  0
  -24.1770  -12.3552   20.3054 C   0  0  0  0  0  0  0  0  0  0  0  0
  -24.8261  -18.6482   18.2682 C   0  0  0  0  0  0  0  0  0  0  0  0
  -23.9734  -13.7368   20.4847 C   0  0  0  0  0  0  0  0  0  0  0  0
  -19.4290  -25.7933   22.2077 C   0  0  0  0  0  0  0  0  0  0  0  0
  -25.1271  -19.6956   19.1505 C   0  0  0  0  0  0  0  0  0  0  0  0
  -20.5684  -27.9205   22.3253 C   0  0  0  0  0  0  0  0  0  0  0  0
  -30.6226  -25.4925   21.4609 C   0  0  0  0  0  0  0  0  0  0  0  0
  -22.9806  -20.7199   18.6473 C   0  0  0  0  0  0  0  0  0  0  0  0
  -32.6252  -25.1795   22.6501 C   0  0  0  0  0  0  0  0  0  0  0  0
  -18.7243  -27.4540   23.8148 C   0  0  0  0  0  0  0  0  0  0  0  0
  -34.7761  -26.2776   24.0466 C   0  0  0  0  0  0  0  0  0  0  0  0
  -33.9285  -24.9730   22.1982 C   0  0  0  0  0  0  0  0  0  0  0  0
  -27.7190  -28.1545   19.9181 C   0  0  0  0  0  0  0  0  0  0  0  0
  -26.4827  -29.4081   18.6008 C   0  0  0  0  0  0  0  0  0  0  0  0
  -28.2841  -28.1499   17.4090 C   0  0  0  0  0  0  0  0  0  0  0  0
  -26.1859  -16.6941   20.3744 C   0  0  0  0  0  0  0  0  0  0  0  0
  -28.7166  -18.6897   20.0060 C   0  0  0  0  0  0  0  0  0  0  0  0
  -29.8629  -21.7860   19.1427 C   0  0  0  0  0  0  0  0  0  0  0  0
  -21.8571  -30.0852   22.3224 C   0  0  0  0  0  0  0  0  0  0  0  0
  -25.4217  -11.6654   20.8047 C   0  0  0  0  0  0  0  0  0  0  0  0
  -25.8194  -17.5442   18.0294 C   0  0  0  0  0  0  0  0  0  0  0  0
  -26.4259  -19.7428   19.9117 C   0  0  0  0  0  0  0  0  0  0  0  0
  -26.5735  -12.6236   21.0970 C   0  0  0  0  0  0  0  0  0  0  0  0
  -24.2801  -32.5497   21.4667 C   0  0  0  0  0  0  0  0  0  0  0  0
  -18.9868  -24.5268   20.0794 C   0  0  0  0  0  0  0  0  0  0  0  0
  -26.0796  -13.8229   21.8998 C   0  0  0  0  0  0  0  0  0  0  0  0
  -20.1881  -23.8849   19.3927 C   0  0  0  0  0  0  0  0  0  0  0  0
  -25.4187  -31.7380   20.8447 C   0  0  0  0  0  0  0  0  0  0  0  0
  -20.5667  -23.6169   21.7277 C   0  0  0  0  0  0  0  0  0  0  0  0
  -23.6228  -31.8067   22.6284 C   0  0  0  0  0  0  0  0  0  0  0  0
  -24.3103  -29.6324   21.6961 C   0  0  0  0  0  0  0  0  0  0  0  0
  -19.2739  -24.4431   21.5933 C   0  0  1  0  0  0  0  0  0  0  0  0
  -25.0303  -14.6184   21.1139 C   0  0  1  0  0  0  0  0  0  0  0  0
  -26.8038  -17.3667   19.1813 C   0  0  1  0  0  0  0  0  0  0  0  0
  -20.6724  -22.8554   20.4079 C   0  0  2  0  0  0  0  0  0  0  0  0
  -24.9607  -30.3122   20.4801 C   0  0  2  0  0  0  0  0  0  0  0  0
  -31.9764  -23.1292   18.9792 C   0  0  0  0  0  0  0  0  0  0  0  0
  -28.7408  -19.0164   23.0396 C   0  0  0  0  0  0  0  0  0  0  0  0
  -30.1893  -21.0365   22.7407 C   0  0  0  0  0  0  0  0  0  0  0  0
  -31.0030  -18.7991   21.9957 C   0  0  0  0  0  0  0  0  0  0  0  0
  -29.5243  -22.1803   16.2292 C   0  0  0  0  0  0  0  0  0  0  0  0
  -18.0992  -29.1461   25.3646 C   0  0  0  0  0  0  0  0  0  0  0  0
  -22.0698  -22.3491   20.1211 C   0  0  0  0  0  0  0  0  0  1  0  0
  -29.1840  -19.9586   20.6770 C   0  0  1  0  0  0  0  0  0  0  0  0
  -31.0036  -22.2226   18.2412 C   0  0  2  0  0  0  0  0  0  0  0  0
  -29.7539  -19.7011   22.1005 C   0  0  0  0  0  0  0  0  0  0  0  0
  -26.8345  -28.7297   20.7371 N   0  0  0  0  0  0  0  0  0  0  0  0
  -26.0967  -29.4861   19.9066 N   0  0  0  0  0  0  0  0  0  0  0  0
  -27.3619  -18.6372   19.6487 N   0  0  0  0  0  0  0  0  0  0  0  0
  -23.2109  -30.4656   22.2079 N   0  0  0  0  0  0  0  0  0  0  0  0
  -25.8485  -30.1041   17.6335 N   0  0  0  0  0  0  0  0  0  0  0  0
  -27.8543  -27.0242   16.6931 N   0  0  0  0  0  0  0  0  0  0  0  0
  -21.5786  -28.7990   21.8610 N   0  0  0  0  0  0  0  0  0  0  0  0
  -25.6683  -15.4408   20.1084 N   0  0  0  0  0  0  0  0  0  0  0  0
  -30.1306  -20.5815   19.7581 N   0  0  0  0  0  0  0  0  0  0  0  0
  -30.4762  -22.9620   17.0597 N   0  3  0  0  0  0  0  0  0  0  0  0
  -29.3034  -28.7707   17.0228 O   0  0  0  0  0  0  0  0  0  0  0  0
  -26.1806  -17.2690   21.4566 O   0  0  0  0  0  0  0  0  0  0  0  0
  -29.5254  -17.7814   19.7998 O   0  0  0  0  0  0  0  0  0  0  0  0
  -28.8386  -22.4492   19.2894 O   0  0  0  0  0  0  0  0  0  0  0  0
  -21.0024  -30.8543   22.7697 O   0  0  0  0  0  0  0  0  0  0  0  0
  -31.5564  -24.6357   21.9575 O   0  0  0  0  0  0  0  0  0  0  0  0
  -17.8956  -27.8422   24.8222 O   0  0  0  0  0  0  0  0  0  0  0  0
  -22.0841  -21.7259   18.8375 O   0  0  0  0  0  0  0  0  0  1  0  0
  -35.8086  -26.8061   24.7164 F   0  0  0  0  0  0  0  0  0  0  0  0
  -34.1537  -24.2491   21.0932 F   0  0  0  0  0  0  0  0  0  0  0  0
  1  2  1  0  0  0  0
  1  5  2  0  0  0  0
  2  6  2  0  0  0  0
  3  8  2  0  0  0  0
  3 18  1  0  0  0  0
  4  9  1  0  0  0  0
  4 18  2  0  0  0  0
  5 20  1  0  0  0  0
  6 22  1  0  0  0  0
  7 10  2  0  0  0  0
  7 21  1  0  0  0  0
  8 26  1  0  0  0  0
  9 26  2  0  0  0  0
 10 27  1  0  0  0  0
 11 12  2  0  0  0  0
 11 28  1  0  0  0  0
 12 30  1  0  0  0  0
 13 23  1  0  0  0  0
 13 25  2  0  0  0  0
 14 23  2  0  0  0  0
 14 29  1  0  0  0  0
 15 24  1  0  0  0  0
 15 27  2  0  0  0  0
 16 25  1  0  0  0  0
 16 29  2  0  0  0  0
 17 30  2  0  0  0  0
 17 31  1  0  0  0  0
 18 32  1  0  0  0  0
 19 32  1  0  0  0  0
 19 33  2  0  0  0  0
 19 34  1  0  0  0  0
 20 22  2  0  0  0  0
 20 39  1  0  0  0  0
 21 24  2  0  0  0  0
 21 40  1  0  0  0  0
 22 52  1  0  0  0  0
 23 51  1  0  0  0  0
 24 41  1  0  0  0  0
 25 72  1  0  0  0  0
 26 81  1  0  0  0  0
 27 83  1  0  0  0  0
 28 31  2  0  0  0  0
 28 81  1  0  0  0  0
 29 82  1  0  0  0  0
 30 84  1  0  0  0  0
 31 85  1  0  0  0  0
 32 66  2  0  0  0  0
 33 67  1  0  0  0  0
 33 70  1  0  0  0  0
 34 71  1  0  0  0  0
 34 76  2  0  0  0  0
 35 53  1  0  0  0  0
 35 73  1  0  0  0  0
 35 77  2  0  0  0  0
 36 63  1  0  0  0  0
 36 68  1  0  0  0  0
 36 78  2  0  0  0  0
 37 64  1  0  0  0  0
 37 74  1  0  0  0  0
 37 79  2  0  0  0  0
 38 69  1  0  0  0  0
 38 72  1  0  0  0  0
 38 80  2  0  0  0  0
 39 42  1  0  0  0  0
 40 53  1  0  0  0  0
 41 68  1  0  0  0  0
 42 45  1  0  0  0  0
 43 47  1  0  0  0  0
 43 49  1  0  0  0  0
 44 46  1  0  0  0  0
 44 51  1  0  0  0  0
 45 52  1  0  0  0  0
 46 54  1  0  0  0  0
 47 55  1  0  0  0  0
 48 51  1  0  0  0  0
 48 54  1  0  0  0  0
 49 69  1  0  0  0  0
 50 55  1  0  0  0  0
 50 69  1  0  0  0  0
 52 73  1  0  0  0  0
 53 68  1  0  0  0  0
 54 62  1  0  0  0  0
 55 67  1  0  0  0  0
 56 64  1  0  0  0  0
 57 65  1  0  0  0  0
 58 65  1  0  0  0  0
 59 65  1  0  0  0  0
 60 75  1  0  0  0  0
 61 82  1  0  0  0  0
 62 83  1  0  0  0  0
 63 65  1  0  0  0  0
 63 74  1  0  0  0  0
 64 75  1  0  0  0  0
 66 67  1  0  0  0  0
M  CHG  1  75   1
M  ISO  4  38 100  62 101  72 100  83 101
M  END
> <Batch ID>
0142

> <Smiles>
CNC(C)C(=O)NC(C(=O)N1Cc2cc([101O:1][101CH2:1]C3CCC(c4cc([100NH:0][100C:0](=O)N5CCCC(n6nc(-c7ccc(Oc8ccc(F)cc8F)cc7)c(C(N)=O)c6N)C5)cc(OC)c4)C3)ccc2CC1C(=O)NC1CCCc2ccccc21)C(C)(C)C

> <Shape>
0.231

> <Color>
0.083

> <Negative vol penalty>
0.000

$$$$

  -OEChem-04052302573D

 84 92  0     1  0  0  0  0  0999 V2000
  -32.1144  -24.5507   18.4059 C   0  0  0  0  0  0  0  0  0  0  0  0
  -30.7679  -24.8832   18.5021 C   0  0  0  0  0  0  0  0  0  0  0  0
  -28.2665  -22.4934   24.7925 C   0  0  0  0  0  0  0  0  0  0  0  0
  -24.2047  -13.8524   20.7353 C   0  0  0  0  0  0  0  0  0  0  0  0
  -26.6103  -13.6300   20.7613 C   0  0  0  0  0  0  0  0  0  0  0  0
  -28.9008  -22.1139   23.6097 C   0  0  0  0  0  0  0  0  0  0  0  0
  -33.0241  -25.0702   19.3245 C   0  0  0  0  0  0  0  0  0  0  0  0
  -30.3324  -25.7447   19.5096 C   0  0  0  0  0  0  0  0  0  0  0  0
  -25.6331  -27.1903   19.3374 C   0  0  0  0  0  0  0  0  0  0  0  0
  -26.9672  -22.9995   24.7558 C   0  0  0  0  0  0  0  0  0  0  0  0
  -24.0849  -12.5130   20.3651 C   0  0  0  0  0  0  0  0  0  0  0  0
  -26.4905  -12.2906   20.3911 C   0  0  0  0  0  0  0  0  0  0  0  0
  -24.5709  -26.3378   19.6353 C   0  0  0  0  0  0  0  0  0  0  0  0
  -23.1329   -9.0564   19.7644 C   0  0  0  0  0  0  0  0  0  0  0  0
  -22.1763   -8.2844   20.4236 C   0  0  0  0  0  0  0  0  0  0  0  0
  -26.9365  -22.7465   22.3533 C   0  0  0  0  0  0  0  0  0  0  0  0
  -24.3308  -27.3993   21.7882 C   0  0  0  0  0  0  0  0  0  0  0  0
  -23.2791   -8.7160   22.5294 C   0  0  0  0  0  0  0  0  0  0  0  0
  -25.4675  -14.4110   20.9334 C   0  0  0  0  0  0  0  0  0  0  0  0
  -28.2359  -22.2404   22.3901 C   0  0  0  0  0  0  0  0  0  0  0  0
  -25.6262  -16.3160   22.6226 C   0  0  0  0  0  0  0  0  0  0  0  0
  -32.5967  -25.9285   20.3510 C   0  0  0  0  0  0  0  0  0  0  0  0
  -26.0599  -28.1480   20.2685 C   0  0  0  0  0  0  0  0  0  0  0  0
  -31.2388  -26.2984   20.4318 C   0  0  0  0  0  0  0  0  0  0  0  0
  -25.3970  -28.2644   21.4986 C   0  0  0  0  0  0  0  0  0  0  0  0
  -26.3022  -23.1260   23.5362 C   0  0  0  0  0  0  0  0  0  0  0  0
  -25.2277  -11.7320   20.1929 C   0  0  0  0  0  0  0  0  0  0  0  0
  -23.9214  -26.4403   20.8620 C   0  0  0  0  0  0  0  0  0  0  0  0
  -24.1627   -9.6582   20.4877 C   0  0  0  0  0  0  0  0  0  0  0  0
  -22.2494   -8.1143   21.8061 C   0  0  0  0  0  0  0  0  0  0  0  0
  -24.2358   -9.4880   21.8702 C   0  0  0  0  0  0  0  0  0  0  0  0
  -25.5919  -15.7947   21.3154 C   0  0  0  0  0  0  0  0  0  0  0  0
  -25.7543  -17.6723   22.4482 C   0  0  0  0  0  0  0  0  0  0  0  0
  -24.0959  -22.8445   23.0086 C   0  0  0  0  0  0  0  0  0  0  0  0
  -28.8982  -21.8443   21.1574 C   0  0  0  0  0  0  0  0  0  0  0  0
  -25.5492  -15.6351   23.8820 C   0  0  0  0  0  0  0  0  0  0  0  0
  -28.2219  -21.9651   19.8455 C   0  0  0  0  0  0  0  0  0  0  0  0
  -28.7620  -28.6876   21.8532 C   0  0  0  0  0  0  0  0  0  0  0  0
  -27.2061  -31.3663   22.8155 C   0  0  0  0  0  0  0  0  0  0  0  0
  -24.2340  -32.9521   23.3616 C   0  0  0  0  0  0  0  0  0  0  0  0
  -33.6251  -26.4683   21.3135 C   0  0  0  0  0  0  0  0  0  0  0  0
  -27.1900  -29.0779   19.9213 C   0  0  0  0  0  0  0  0  0  0  0  0
  -25.8034  -29.2894   22.5246 C   0  0  0  0  0  0  0  0  0  0  0  0
  -33.0093  -27.0094   22.5996 C   0  0  0  0  0  0  0  0  0  0  0  0
  -25.3220  -20.5258   18.3043 C   0  0  0  0  0  0  0  0  0  0  0  0
  -31.8620  -27.9525   22.2699 C   0  0  0  0  0  0  0  0  0  0  0  0
  -25.1608  -19.1916   19.0321 C   0  0  0  0  0  0  0  0  0  0  0  0
  -26.7917  -20.9011   18.1452 C   0  0  0  0  0  0  0  0  0  0  0  0
  -27.3904  -19.5974   20.1677 C   0  0  0  0  0  0  0  0  0  0  0  0
  -30.7374  -27.2093   21.5378 C   0  0  1  0  0  0  0  0  0  0  0  0
  -27.8728  -29.6730   21.1488 C   0  0  1  0  0  0  0  0  0  0  0  0
  -25.9185  -19.1984   20.3717 C   0  0  2  0  0  0  0  0  0  0  0  0
  -23.2816  -35.1223   24.1866 C   0  0  0  0  0  0  0  0  0  0  0  0
  -22.1505  -21.9253   20.8148 C   0  0  0  0  0  0  0  0  0  0  0  0
  -27.8265  -30.5439   25.6875 C   0  0  0  0  0  0  0  0  0  0  0  0
  -26.0861  -32.1715   26.4558 C   0  0  0  0  0  0  0  0  0  0  0  0
  -28.0944  -32.9862   25.2207 C   0  0  0  0  0  0  0  0  0  0  0  0
  -22.9211  -33.4965   20.7656 C   0  0  0  0  0  0  0  0  0  0  0  0
  -22.6608  -23.2896   22.9008 C   0  0  0  0  0  0  0  0  0  0  0  0
  -22.9051  -24.3110   20.5631 C   0  0  0  0  0  0  0  0  0  1  0  0
  -26.2993  -31.7196   23.9695 C   0  0  1  0  0  0  0  0  0  0  0  0
  -23.7430  -34.3343   22.9705 C   0  0  2  0  0  0  0  0  0  0  0  0
  -22.1477  -23.3160   21.4507 C   0  0  1  0  0  0  0  0  0  0  0  0
  -27.0699  -31.8346   25.3150 C   0  0  0  0  0  0  0  0  0  0  0  0
  -25.6902  -16.7426   20.3795 N   0  0  0  0  0  0  0  0  0  0  0  0
  -30.1123  -21.3654   21.1182 N   0  0  0  0  0  0  0  0  0  0  0  0
  -24.9935  -23.6356   23.4994 N   0  0  0  0  0  0  0  0  0  0  0  0
  -25.7874  -17.8732   21.0996 N   0  0  0  0  0  0  0  0  0  0  0  0
  -27.4890  -20.8626   19.4291 N   0  0  0  0  0  0  0  0  0  0  0  0
  -26.9180  -30.1714   22.1408 N   0  0  0  0  0  0  0  0  0  0  0  0
  -25.8407  -18.7008   23.3183 N   0  0  0  0  0  0  0  0  0  0  0  0
  -25.4195  -14.2395   23.8802 N   0  0  0  0  0  0  0  0  0  0  0  0
  -29.7688  -28.1712   21.0599 N   0  0  0  0  0  0  0  0  0  0  0  0
  -25.5956  -32.9362   23.5781 N   0  0  0  0  0  0  0  0  0  0  0  0
  -22.6014  -34.2283   22.0184 N   0  3  0  0  0  0  0  0  0  0  0  0
  -25.5776  -16.2475   24.9764 O   0  0  0  0  0  0  0  0  0  0  0  0
  -28.3831  -23.0308   19.2652 O   0  0  0  0  0  0  0  0  0  0  0  0
  -28.5512  -28.4170   23.0296 O   0  0  0  0  0  0  0  0  0  0  0  0
  -28.1315  -32.1261   22.5189 O   0  0  0  0  0  0  0  0  0  0  0  0
  -23.4840  -31.9843   23.4682 O   0  0  0  0  0  0  0  0  0  0  0  0
  -25.1112  -10.4249   19.8319 O   0  0  0  0  0  0  0  0  0  0  0  0
  -22.8848  -25.6090   21.1557 O   0  0  0  0  0  0  0  0  0  1  0  0
  -21.3298   -7.3742   22.4392 F   0  0  0  0  0  0  0  0  0  0  0  0
  -25.2221  -10.0646   22.5706 F   0  0  0  0  0  0  0  0  0  0  0  0
  1  2  1  0  0  0  0
  1  7  2  0  0  0  0
  2  8  2  0  0  0  0
  3  6  1  0  0  0  0
  3 10  2  0  0  0  0
  4 11  2  0  0  0  0
  4 19  1  0  0  0  0
  5 12  1  0  0  0  0
  5 19  2  0  0  0  0
  6 20  2  0  0  0  0
  7 22  1  0  0  0  0
  8 24  1  0  0  0  0
  9 13  2  0  0  0  0
  9 23  1  0  0  0  0
 10 26  1  0  0  0  0
 11 27  1  0  0  0  0
 12 27  2  0  0  0  0
 13 28  1  0  0  0  0
 14 15  2  0  0  0  0
 14 29  1  0  0  0  0
 15 30  1  0  0  0  0
 16 20  1  0  0  0  0
 16 26  2  0  0  0  0
 17 25  1  0  0  0  0
 17 28  2  0  0  0  0
 18 30  2  0  0  0  0
 18 31  1  0  0  0  0
 19 32  1  0  0  0  0
 20 35  1  0  0  0  0
 21 32  1  0  0  0  0
 21 33  2  0  0  0  0
 21 36  1  0  0  0  0
 22 24  2  0  0  0  0
 22 41  1  0  0  0  0
 23 25  2  0  0  0  0
 23 42  1  0  0  0  0
 24 50  1  0  0  0  0
 25 43  1  0  0  0  0
 26 67  1  0  0  0  0
 27 81  1  0  0  0  0
 28 82  1  0  0  0  0
 29 31  2  0  0  0  0
 29 81  1  0  0  0  0
 30 83  1  0  0  0  0
 31 84  1  0  0  0  0
 32 65  2  0  0  0  0
 33 68  1  0  0  0  0
 33 71  1  0  0  0  0
 34 59  1  0  0  0  0
 34 67  2  0  0  0  0
 35 37  1  0  0  0  0
 35 66  2  0  0  0  0
 36 72  1  0  0  0  0
 36 76  2  0  0  0  0
 37 69  1  0  0  0  0
 37 77  2  0  0  0  0
 38 51  1  0  0  0  0
 38 73  1  0  0  0  0
 38 78  2  0  0  0  0
 39 61  1  0  0  0  0
 39 70  1  0  0  0  0
 39 79  2  0  0  0  0
 40 62  1  0  0  0  0
 40 74  1  0  0  0  0
 40 80  2  0  0  0  0
 41 44  1  0  0  0  0
 42 51  1  0  0  0  0
 43 70  1  0  0  0  0
 44 46  1  0  0  0  0
 45 47  1  0  0  0  0
 45 48  1  0  0  0  0
 46 50  1  0  0  0  0
 47 52  1  0  0  0  0
 48 69  1  0  0  0  0
 49 52  1  0  0  0  0
 49 69  1  0  0  0  0
 50 73  1  0  0  0  0
 51 70  1  0  0  0  0
 52 68  1  0  0  0  0
 53 62  1  0  0  0  0
 54 63  1  0  0  0  0
 55 64  1  0  0  0  0
 56 64  1  0  0  0  0
 57 64  1  0  0  0  0
 58 75  1  0  0  0  0
 59 63  1  0  0  0  0
 60 63  1  0  0  0  0
 60 82  1  0  0  0  0
 61 64  1  0  0  0  0
 61 74  1  0  0  0  0
 62 75  1  0  0  0  0
 65 68  1  0  0  0  0
M  CHG  1  75   1
M  ISO  4  35 100  37 100  60 101  82 101
M  END
> <Batch ID>
0142

> <Smiles>
CNC(C)C(=O)NC(C(=O)N1Cc2cc([101O:1][101CH2:1]C(C)C=CNc3cccc([100C:0](=N)[100C:0](=O)N4CCCC(n5nc(-c6ccc(Oc7ccc(F)cc7F)cc6)c(C(N)=O)c5N)C4)c3)ccc2CC1C(=O)NC1CCCc2ccccc21)C(C)(C)C

> <Shape>
0.247

> <Color>
0.083

> <Negative vol penalty>
0.000

$$$$

  -OEChem-04052302573D

 84 93  0     1  0  0  0  0  0999 V2000
  -29.0419   -8.5588   17.5274 C   0  0  0  0  0  0  0  0  0  0  0  0
  -28.0180   -9.2271   18.1911 C   0  0  0  0  0  0  0  0  0  0  0  0
  -24.8047  -30.3456   20.3573 C   0  0  0  0  0  0  0  0  0  0  0  0
  -24.1770  -28.6851   21.9960 C   0  0  0  0  0  0  0  0  0  0  0  0
  -30.3633   -8.9726   17.6906 C   0  0  0  0  0  0  0  0  0  0  0  0
  -28.3151  -10.3089   19.0192 C   0  0  0  0  0  0  0  0  0  0  0  0
  -25.1760  -14.2187   18.3089 C   0  0  0  0  0  0  0  0  0  0  0  0
  -22.4822  -19.0808   19.8390 C   0  0  0  0  0  0  0  0  0  0  0  0
  -22.8678  -20.2988   19.2717 C   0  0  0  0  0  0  0  0  0  0  0  0
  -24.4889  -31.3586   21.2627 C   0  0  0  0  0  0  0  0  0  0  0  0
  -23.8612  -29.6980   22.9015 C   0  0  0  0  0  0  0  0  0  0  0  0
  -23.9105  -14.1325   18.8876 C   0  0  0  0  0  0  0  0  0  0  0  0
  -25.9133  -32.8257   23.9555 C   0  0  0  0  0  0  0  0  0  0  0  0
  -26.8143  -33.8825   24.0861 C   0  0  0  0  0  0  0  0  0  0  0  0
  -20.9928  -20.2428   17.6964 C   0  0  0  0  0  0  0  0  0  0  0  0
  -24.6524  -15.5354   20.7044 C   0  0  0  0  0  0  0  0  0  0  0  0
  -25.0941  -35.4340   23.4001 C   0  0  0  0  0  0  0  0  0  0  0  0
  -24.6487  -29.0088   20.7239 C   0  0  0  0  0  0  0  0  0  0  0  0
  -26.2198  -27.3273   19.6231 C   0  0  0  0  0  0  0  0  0  0  0  0
  -30.6758  -10.0661   18.5135 C   0  0  0  0  0  0  0  0  0  0  0  0
  -26.1941  -14.9562   18.9302 C   0  0  0  0  0  0  0  0  0  0  0  0
  -29.6421  -10.7369   19.1946 C   0  0  0  0  0  0  0  0  0  0  0  0
  -20.6426  -19.0517   18.2730 C   0  0  0  0  0  0  0  0  0  0  0  0
  -25.9292  -15.6315   20.1302 C   0  0  0  0  0  0  0  0  0  0  0  0
  -21.3805  -18.4987   19.2935 C   0  0  0  0  0  0  0  0  0  0  0  0
  -22.1340  -20.8721   18.2067 C   0  0  0  0  0  0  0  0  0  0  0  0
  -24.0172  -31.0348   22.5348 C   0  0  0  0  0  0  0  0  0  0  0  0
  -23.6494  -14.7885   20.0870 C   0  0  0  0  0  0  0  0  0  0  0  0
  -24.6027  -33.0731   23.5471 C   0  0  0  0  0  0  0  0  0  0  0  0
  -26.4047  -35.1866   23.8085 C   0  0  0  0  0  0  0  0  0  0  0  0
  -24.1931  -34.3772   23.2695 C   0  0  0  0  0  0  0  0  0  0  0  0
  -24.9742  -27.9620   19.7889 C   0  0  0  0  0  0  0  0  0  0  0  0
  -26.0090  -26.4145   18.6187 C   0  0  0  0  0  0  0  0  0  0  0  0
  -27.4567  -27.5434   20.3153 C   0  0  0  0  0  0  0  0  0  0  0  0
  -29.0515  -14.2607   20.1365 C   0  0  0  0  0  0  0  0  0  0  0  0
  -29.2596  -17.4799   20.4766 C   0  0  0  0  0  0  0  0  0  0  0  0
  -27.6457  -20.4701   20.7931 C   0  0  0  0  0  0  0  0  0  0  0  0
  -21.9566  -22.8184   16.6171 C   0  0  0  0  0  0  0  0  0  0  0  0
  -32.1237  -10.4469   18.6961 C   0  0  0  0  0  0  0  0  0  0  0  0
  -27.5460  -15.0613   18.2794 C   0  0  0  0  0  0  0  0  0  0  0  0
  -19.6706  -17.9251   18.3781 C   0  0  0  0  0  0  0  0  0  0  0  0
  -26.9819  -16.4530   20.8269 C   0  0  0  0  0  0  0  0  0  0  0  0
  -32.3168  -11.8370   19.2967 C   0  0  0  0  0  0  0  0  0  0  0  0
  -22.6618  -25.9157   15.0089 C   0  0  0  0  0  0  0  0  0  0  0  0
  -31.3948  -12.0331   20.4960 C   0  0  0  0  0  0  0  0  0  0  0  0
  -23.4519  -26.6984   16.0602 C   0  0  0  0  0  0  0  0  0  0  0  0
  -21.5590  -25.0693   15.6423 C   0  0  0  0  0  0  0  0  0  0  0  0
  -22.7935  -24.9591   17.7714 C   0  0  0  0  0  0  0  0  0  0  0  0
  -29.9218  -11.9303   20.0820 C   0  0  1  0  0  0  0  0  0  0  0  0
  -28.6565  -15.4177   19.2629 C   0  0  1  0  0  0  0  0  0  0  0  0
  -23.9573  -25.7764   17.1872 C   0  0  2  0  0  0  0  0  0  0  0  0
  -28.0834  -22.9230   21.0917 C   0  0  0  0  0  0  0  0  0  0  0  0
  -29.9266  -17.0006   23.4152 C   0  0  0  0  0  0  0  0  0  0  0  0
  -29.4168  -19.4126   23.8522 C   0  0  0  0  0  0  0  0  0  0  0  0
  -31.2822  -18.7922   22.3166 C   0  0  0  0  0  0  0  0  0  0  0  0
  -19.6947  -14.5728   21.7094 C   0  0  0  0  0  0  0  0  0  0  0  0
  -18.8620  -14.9712   19.3863 C   0  0  0  0  0  0  0  0  0  0  0  0
  -26.3081  -21.1381   18.2389 C   0  0  0  0  0  0  0  0  0  0  0  0
  -20.2454  -16.7321   20.5825 C   0  0  0  0  0  0  0  0  0  0  0  0
  -21.3047  -14.5441   19.7728 C   0  0  0  0  0  0  0  0  0  1  0  0
  -28.8923  -18.4666   21.5585 C   0  0  1  0  0  0  0  0  0  0  0  0
  -27.8455  -21.8018   20.0922 C   0  0  2  0  0  0  0  0  0  0  0  0
  -29.8600  -18.4010   22.7737 C   0  0  0  0  0  0  0  0  0  0  0  0
  -20.0383  -15.2157   20.3495 C   0  0  0  0  0  0  0  0  0  0  0  0
  -24.0413  -27.4923   18.9563 N   0  0  0  0  0  0  0  0  0  0  0  0
  -24.7011  -26.5528   18.2577 N   0  0  0  0  0  0  0  0  0  0  0  0
  -20.5914  -17.4201   19.3714 N   0  0  2  0  0  0  0  0  0  0  0  0
  -28.2898  -16.5200   20.1544 N   0  0  0  0  0  0  0  0  0  0  0  0
  -22.1124  -24.2183   16.6980 N   0  0  0  0  0  0  0  0  0  0  0  0
  -26.8168  -25.5151   18.0178 N   0  0  0  0  0  0  0  0  0  0  0  0
  -27.4984  -28.5200   21.3197 N   0  0  0  0  0  0  0  0  0  0  0  0
  -22.5526  -22.1107   17.6605 N   0  0  0  0  0  0  0  0  0  0  0  0
  -29.4914  -13.1527   19.4377 N   0  0  0  0  0  0  0  0  0  0  0  0
  -28.8297  -19.7741   20.9144 N   0  0  0  0  0  0  0  0  0  0  0  0
  -26.6447  -22.1443   19.2787 N   0  3  0  0  0  0  0  0  0  0  0  0
  -28.4984  -26.9013   20.0396 O   0  0  0  0  0  0  0  0  0  0  0  0
  -28.9650  -14.3659   21.3543 O   0  0  0  0  0  0  0  0  0  0  0  0
  -30.3635  -17.5624   19.9323 O   0  0  0  0  0  0  0  0  0  0  0  0
  -26.5495  -20.0875   21.1962 O   0  0  0  0  0  0  0  0  0  0  0  0
  -21.3634  -22.2847   15.6762 O   0  0  0  0  0  0  0  0  0  0  0  0
  -23.7091  -32.0230   23.4186 O   0  0  0  0  0  0  0  0  0  0  0  0
  -22.4152  -14.7055   20.6543 O   0  0  0  0  0  0  0  0  0  1  0  0
  -27.2696  -36.2015   23.9355 F   0  0  0  0  0  0  0  0  0  0  0  0
  -22.9349  -34.6212   22.8779 F   0  0  0  0  0  0  0  0  0  0  0  0
  1  2  1  0  0  0  0
  1  5  2  0  0  0  0
  2  6  2  0  0  0  0
  3 10  2  0  0  0  0
  3 18  1  0  0  0  0
  4 11  1  0  0  0  0
  4 18  2  0  0  0  0
  5 20  1  0  0  0  0
  6 22  1  0  0  0  0
  7 12  2  0  0  0  0
  7 21  1  0  0  0  0
  8  9  2  0  0  0  0
  8 25  1  0  0  0  0
  9 26  1  0  0  0  0
 10 27  1  0  0  0  0
 11 27  2  0  0  0  0
 12 28  1  0  0  0  0
 13 14  2  0  0  0  0
 13 29  1  0  0  0  0
 14 30  1  0  0  0  0
 15 23  1  0  0  0  0
 15 26  2  0  0  0  0
 16 24  1  0  0  0  0
 16 28  2  0  0  0  0
 17 30  2  0  0  0  0
 17 31  1  0  0  0  0
 18 32  1  0  0  0  0
 19 32  1  0  0  0  0
 19 33  2  0  0  0  0
 19 34  1  0  0  0  0
 20 22  2  0  0  0  0
 20 39  1  0  0  0  0
 21 24  2  0  0  0  0
 21 40  1  0  0  0  0
 22 49  1  0  0  0  0
 23 25  2  0  0  0  0
 23 41  1  0  0  0  0
 24 42  1  0  0  0  0
 25 67  1  0  0  0  0
 26 72  1  0  0  0  0
 27 81  1  0  0  0  0
 28 82  1  0  0  0  0
 29 31  2  0  0  0  0
 29 81  1  0  0  0  0
 30 83  1  0  0  0  0
 31 84  1  0  0  0  0
 32 65  2  0  0  0  0
 33 66  1  0  0  0  0
 33 70  1  0  0  0  0
 34 71  1  0  0  0  0
 34 76  2  0  0  0  0
 35 50  1  0  0  0  0
 35 73  1  0  0  0  0
 35 77  2  0  0  0  0
 36 61  1  0  0  0  0
 36 68  1  0  0  0  0
 36 78  2  0  0  0  0
 37 62  1  0  0  0  0
 37 74  1  0  0  0  0
 37 79  2  0  0  0  0
 38 69  1  0  0  0  0
 38 72  1  0  0  0  0
 38 80  2  0  0  0  0
 39 43  1  0  0  0  0
 40 50  1  0  0  0  0
 41 67  1  0  0  0  0
 42 68  1  0  0  0  0
 43 45  1  0  0  0  0
 44 46  1  0  0  0  0
 44 47  1  0  0  0  0
 45 49  1  0  0  0  0
 46 51  1  0  0  0  0
 47 69  1  0  0  0  0
 48 51  1  0  0  0  0
 48 69  1  0  0  0  0
 49 73  1  0  0  0  0
 50 68  1  0  0  0  0
 51 66  1  0  0  0  0
 52 62  1  0  0  0  0
 53 63  1  0  0  0  0
 54 63  1  0  0  0  0
 55 63  1  0  0  0  0
 56 64  1  0  0  0  0
 57 64  1  0  0  0  0
 58 75  1  0  0  0  0
 59 64  1  0  0  0  0
 59 67  1  0  0  0  0
 60 64  1  0  0  0  0
 60 82  1  0  0  0  0
 61 63  1  0  0  0  0
 61 74  1  0  0  0  0
 62 75  1  0  0  0  0
 65 66  1  0  0  0  0
M  CHG  1  75   1
M  ISO  4  38 100  60 101  72 100  82 101
M  END
> <Batch ID>
0142

> <Smiles>
CNC(C)C(=O)NC(C(=O)N1Cc2cc([101O:1][101CH2:1]C(C)(C)CN3Cc4cc([100NH:0][100C:0](=O)N5CCCC(n6nc(-c7ccc(Oc8ccc(F)cc8F)cc7)c(C(N)=O)c6N)C5)ccc43)ccc2CC1C(=O)NC1CCCc2ccccc21)C(C)(C)C

> <Shape>
0.224

> <Color>
0.085

> <Negative vol penalty>
0.000

$$$$
