
  -OEChem-04052303003D

 90 99  0     1  0  0  0  0  0999 V2000
  -19.8867  -12.9060   23.1957 C   0  0  0  0  0  0  0  0  0  0  0  0
  -19.9616  -14.1964   23.7103 C   0  0  0  0  0  0  0  0  0  0  0  0
  -29.0207  -17.7585   19.1839 C   0  0  0  0  0  0  0  0  0  0  0  0
  -30.0283  -18.3087   21.3098 C   0  0  0  0  0  0  0  0  0  0  0  0
  -20.6370  -12.5601   22.0726 C   0  0  0  0  0  0  0  0  0  0  0  0
  -20.7878  -15.1412   23.1028 C   0  0  0  0  0  0  0  0  0  0  0  0
  -19.7479  -21.1548   22.5917 C   0  0  0  0  0  0  0  0  0  0  0  0
  -29.5929  -16.4877   19.2416 C   0  0  0  0  0  0  0  0  0  0  0  0
  -30.6005  -17.0379   21.3675 C   0  0  0  0  0  0  0  0  0  0  0  0
  -20.1964  -22.2502   23.3283 C   0  0  0  0  0  0  0  0  0  0  0  0
  -28.9831  -13.5497   20.8001 C   0  0  0  0  0  0  0  0  0  0  0  0
  -28.1759  -12.4599   20.4740 C   0  0  0  0  0  0  0  0  0  0  0  0
  -21.9591  -22.6028   21.7197 C   0  0  0  0  0  0  0  0  0  0  0  0
  -29.6832  -11.8816   18.6765 C   0  0  0  0  0  0  0  0  0  0  0  0
  -27.6761  -29.9791   22.2382 C   0  0  0  0  0  0  0  0  0  0  0  0
  -29.2384  -18.6690   20.2180 C   0  0  0  0  0  0  0  0  0  0  0  0
  -27.3895  -20.3714   20.6547 C   0  0  0  0  0  0  0  0  0  0  0  0
  -21.4654  -13.5039   21.4452 C   0  0  0  0  0  0  0  0  0  0  0  0
  -20.4094  -20.7679   21.4173 C   0  0  0  0  0  0  0  0  0  0  0  0
  -21.5509  -14.8072   21.9710 C   0  0  0  0  0  0  0  0  0  0  0  0
  -21.5154  -21.5037   20.9685 C   0  0  0  0  0  0  0  0  0  0  0  0
  -27.1808  -27.9232   22.9484 C   0  0  0  0  0  0  0  0  0  0  0  0
  -26.9387  -29.2985   23.1789 C   0  0  0  0  0  0  0  0  0  0  0  0
  -30.3828  -16.1274   20.3333 C   0  0  0  0  0  0  0  0  0  0  0  0
  -21.3039  -22.9726   22.8940 C   0  0  0  0  0  0  0  0  0  0  0  0
  -30.1403  -13.8055   20.0645 C   0  0  0  0  0  0  0  0  0  0  0  0
  -28.5260  -11.6258   19.4122 C   0  0  0  0  0  0  0  0  0  0  0  0
  -30.4904  -12.9714   19.0027 C   0  0  0  0  0  0  0  0  0  0  0  0
  -28.6481  -19.9821   20.1587 C   0  0  0  0  0  0  0  0  0  0  0  0
  -27.2997  -21.7082   20.3523 C   0  0  0  0  0  0  0  0  0  0  0  0
  -28.0487  -27.8615   21.8830 C   0  0  0  0  0  0  0  0  0  0  0  0
  -22.7458  -27.6090   22.9045 C   0  0  0  0  0  0  0  0  0  0  0  0
  -26.3907  -19.5942   21.3287 C   0  0  0  0  0  0  0  0  0  0  0  0
  -23.1554  -28.7104   23.5545 C   0  0  0  0  0  0  0  0  0  0  0  0
  -22.1316  -26.4266   23.5786 C   0  0  0  0  0  0  0  0  0  0  0  0
  -21.9605  -18.1595   20.4719 C   0  0  0  0  0  0  0  0  0  0  0  0
  -22.0545  -19.7188   17.6290 C   0  0  0  0  0  0  0  0  0  0  0  0
  -21.9535  -22.6871   15.9480 C   0  0  0  0  0  0  0  0  0  0  0  0
  -29.5173  -26.8106   20.1266 C   0  0  0  0  0  0  0  0  0  0  0  0
  -22.2937  -13.0700   20.2619 C   0  0  0  0  0  0  0  0  0  0  0  0
  -19.8969  -19.6002   20.6197 C   0  0  0  0  0  0  0  0  0  0  0  0
  -22.2483  -21.1416   19.7035 C   0  0  0  0  0  0  0  0  0  0  0  0
  -22.8581  -14.2354   19.4533 C   0  0  0  0  0  0  0  0  0  0  0  0
  -30.2070  -24.6209   17.4051 C   0  0  0  0  0  0  0  0  0  0  0  0
  -26.7899  -26.6879   25.2272 C   0  0  0  0  0  0  0  0  0  0  0  0
  -27.5420  -25.7369   24.3496 C   0  0  0  0  0  0  0  0  0  0  0  0
  -23.4718  -15.2803   20.3798 C   0  0  0  0  0  0  0  0  0  0  0  0
  -29.7594  -23.2508   17.9197 C   0  0  0  0  0  0  0  0  0  0  0  0
  -30.8401  -25.4630   18.5113 C   0  0  0  0  0  0  0  0  0  0  0  0
  -29.5761  -24.2416   20.2374 C   0  0  0  0  0  0  0  0  0  0  0  0
  -26.5996  -26.7493   23.7212 C   0  0  0  0  0  0  0  0  0  0  0  0
  -22.4166  -15.8671   21.3251 C   0  0  1  0  0  0  0  0  0  0  0  0
  -20.9583  -18.9833   19.7140 C   0  0  1  0  0  0  0  0  0  0  0  0
  -28.8733  -23.3819   19.1740 C   0  0  2  0  0  0  0  0  0  0  0  0
  -26.7742  -30.7422   25.3141 C   0  0  0  0  0  0  0  0  0  0  0  0
  -22.7241  -30.8129   22.2732 C   0  0  0  0  0  0  0  0  0  0  0  0
  -22.0934  -23.6457   13.6331 C   0  0  0  0  0  0  0  0  0  0  0  0
  -25.0761  -19.2949   17.6386 C   0  0  0  0  0  0  0  0  0  0  0  0
  -25.2575  -21.0471   15.8595 C   0  0  0  0  0  0  0  0  0  0  0  0
  -23.9813  -18.9499   15.4167 C   0  0  0  0  0  0  0  0  0  0  0  0
  -19.2274  -23.8248   16.1292 C   0  0  0  0  0  0  0  0  0  0  0  0
  -22.3773  -25.0948   22.9009 C   0  0  0  0  0  0  0  0  0  1  0  0
  -24.8193  -30.6762   23.6772 C   0  0  0  0  0  0  0  0  0  0  0  0
  -26.0456  -29.9128   24.2479 C   0  0  1  0  0  0  0  0  0  0  0  0
  -23.8054  -29.8720   22.8256 C   0  0  1  0  0  0  0  0  0  0  0  0
  -23.0072  -20.6885   16.9725 C   0  0  1  0  0  0  0  0  0  0  0  0
  -21.1702  -23.1253   14.7238 C   0  0  2  0  0  0  0  0  0  0  0  0
  -24.3181  -20.0010   16.4967 C   0  0  0  0  0  0  0  0  0  0  0  0
  -29.3103  -20.9899   19.5846 N   0  0  0  0  0  0  0  0  0  0  0  0
  -28.4646  -22.0258   19.7179 N   0  0  0  0  0  0  0  0  0  0  0  0
  -21.7128  -19.9880   18.9619 N   0  0  0  0  0  0  0  0  0  0  0  0
  -29.9423  -25.5467   19.6653 N   0  0  0  0  0  0  0  0  0  0  0  0
  -26.3389  -22.6311   20.5696 N   0  0  0  0  0  0  0  0  0  0  0  0
  -26.6446  -18.2353   21.5593 N   0  0  0  0  0  0  0  0  0  0  0  0
  -28.6397  -26.7640   21.2092 N   0  0  0  0  0  0  0  0  0  0  0  0
  -21.5970  -16.8356   20.6289 N   0  0  0  0  0  0  0  0  0  0  0  0
  -22.2547  -21.3422   15.9073 N   0  0  0  0  0  0  0  0  0  0  0  0
  -20.2103  -24.2072   15.0829 N   0  3  0  0  0  0  0  0  0  0  0  0
  -25.2985  -20.0864   21.7005 O   0  0  0  0  0  0  0  0  0  0  0  0
  -21.4783  -26.5234   24.6133 O   0  0  0  0  0  0  0  0  0  0  0  0
  -22.9883  -18.6856   20.8825 O   0  0  0  0  0  0  0  0  0  0  0  0
  -21.6235  -18.7619   16.9808 O   0  0  0  0  0  0  0  0  0  0  0  0
  -22.2701  -23.4614   16.8485 O   0  0  0  0  0  0  0  0  0  0  0  0
  -29.8821  -27.8562   19.5828 O   0  0  0  0  0  0  0  0  0  0  0  0
  -28.3555  -29.1105   21.4443 O   0  0  0  0  0  0  0  0  0  0  0  0
  -23.0065  -28.8397   24.9230 O   0  0  0  0  0  0  0  0  0  0  0  0
  -30.9411  -14.8874   20.3900 O   0  0  0  0  0  0  0  0  0  0  0  0
  -21.7485  -24.0525   23.6186 O   0  0  0  0  0  0  0  0  0  1  0  0
  -27.7516  -10.5785   19.1000 F   0  0  0  0  0  0  0  0  0  0  0  0
  -31.6015  -13.2114   18.2930 F   0  0  0  0  0  0  0  0  0  0  0  0
  1  2  1  0  0  0  0
  1  5  2  0  0  0  0
  2  6  2  0  0  0  0
  3  8  2  0  0  0  0
  3 16  1  0  0  0  0
  4  9  1  0  0  0  0
  4 16  2  0  0  0  0
  5 18  1  0  0  0  0
  6 20  1  0  0  0  0
  7 10  2  0  0  0  0
  7 19  1  0  0  0  0
  8 24  1  0  0  0  0
  9 24  2  0  0  0  0
 10 25  1  0  0  0  0
 11 12  2  0  0  0  0
 11 26  1  0  0  0  0
 12 27  1  0  0  0  0
 13 21  1  0  0  0  0
 13 25  2  0  0  0  0
 14 27  2  0  0  0  0
 14 28  1  0  0  0  0
 15 23  2  0  0  0  0
 15 85  1  0  0  0  0
 16 29  1  0  0  0  0
 17 29  1  0  0  0  0
 17 30  2  0  0  0  0
 17 33  1  0  0  0  0
 18 20  2  0  0  0  0
 18 40  1  0  0  0  0
 19 21  2  0  0  0  0
 19 41  1  0  0  0  0
 20 52  1  0  0  0  0
 21 42  1  0  0  0  0
 22 23  1  0  0  0  0
 22 31  2  0  0  0  0
 22 51  1  0  0  0  0
 23 64  1  0  0  0  0
 24 87  1  0  0  0  0
 25 88  1  0  0  0  0
 26 28  2  0  0  0  0
 26 87  1  0  0  0  0
 27 89  1  0  0  0  0
 28 90  1  0  0  0  0
 29 69  2  0  0  0  0
 30 70  1  0  0  0  0
 30 73  1  0  0  0  0
 31 75  1  0  0  0  0
 31 85  1  0  0  0  0
 32 34  2  0  0  0  0
 32 35  1  0  0  0  0
 33 74  1  0  0  0  0
 33 79  2  0  0  0  0
 34 65  1  0  0  0  0
 34 86  1  0  0  0  0
 35 62  1  0  0  0  0
 35 80  2  0  0  0  0
 36 53  1  0  0  0  0
 36 76  1  0  0  0  0
 36 81  2  0  0  0  0
 37 66  1  0  0  0  0
 37 71  1  0  0  0  0
 37 82  2  0  0  0  0
 38 67  1  0  0  0  0
 38 77  1  0  0  0  0
 38 83  2  0  0  0  0
 39 72  1  0  0  0  0
 39 75  1  0  0  0  0
 39 84  2  0  0  0  0
 40 43  1  0  0  0  0
 41 53  1  0  0  0  0
 42 71  1  0  0  0  0
 43 47  1  0  0  0  0
 44 48  1  0  0  0  0
 44 49  1  0  0  0  0
 45 46  1  0  0  0  0
 45 51  1  0  0  0  0
 46 51  1  0  0  0  0
 47 52  1  0  0  0  0
 48 54  1  0  0  0  0
 49 72  1  0  0  0  0
 50 54  1  0  0  0  0
 50 72  1  0  0  0  0
 52 76  1  0  0  0  0
 53 71  1  0  0  0  0
 54 70  1  0  0  0  0
 55 64  1  0  0  0  0
 56 65  1  0  0  0  0
 57 67  1  0  0  0  0
 58 68  1  0  0  0  0
 59 68  1  0  0  0  0
 60 68  1  0  0  0  0
 61 78  1  0  0  0  0
 62 88  1  0  0  0  0
 63 64  1  0  0  0  0
 63 65  1  0  0  0  0
 66 68  1  0  0  0  0
 66 77  1  0  0  0  0
 67 78  1  0  0  0  0
 69 70  1  0  0  0  0
M  CHG  1  78   1
M  ISO  4  39 100  62 101  75 100  88 101
M  END
> <Batch ID>
0143

> <Smiles>
CNC(C)C(=O)NC(C(=O)N1Cc2cc([101O:1][101CH2:1]C(=O)CC(=O)C(C)CC(C)c3coc([100NH:0][100C:0](=O)N4CCCC(n5nc(-c6ccc(Oc7ccc(F)cc7F)cc6)c(C(N)=O)c5N)C4)c3C3CC3)ccc2CC1C(=O)NC1CCCc2ccccc21)C(C)(C)C

> <Shape>
0.230

> <Color>
0.046

> <Negative vol penalty>
0.000

$$$$

  -OEChem-04052303003D

 90 99  0     1  0  0  0  0  0999 V2000
  -25.1809  -10.4058   17.7788 C   0  0  0  0  0  0  0  0  0  0  0  0
  -24.2822  -11.4233   17.4748 C   0  0  0  0  0  0  0  0  0  0  0  0
  -29.4395  -28.1305   18.8171 C   0  0  0  0  0  0  0  0  0  0  0  0
  -28.1907  -26.1836   19.5152 C   0  0  0  0  0  0  0  0  0  0  0  0
  -25.8603  -10.4181   18.9963 C   0  0  0  0  0  0  0  0  0  0  0  0
  -24.0616  -12.4532   18.3886 C   0  0  0  0  0  0  0  0  0  0  0  0
  -25.2702  -19.3244   16.5949 C   0  0  0  0  0  0  0  0  0  0  0  0
  -30.6247  -27.3996   18.8985 C   0  0  0  0  0  0  0  0  0  0  0  0
  -29.3759  -25.4526   19.5965 C   0  0  0  0  0  0  0  0  0  0  0  0
  -25.2765  -20.6788   16.2605 C   0  0  0  0  0  0  0  0  0  0  0  0
  -32.0346  -22.9731   19.6402 C   0  0  0  0  0  0  0  0  0  0  0  0
  -32.0436  -21.6883   19.0972 C   0  0  0  0  0  0  0  0  0  0  0  0
  -19.0303  -29.3845   23.4558 C   0  0  0  0  0  0  0  0  0  0  0  0
  -24.6906  -21.2541   18.5351 C   0  0  0  0  0  0  0  0  0  0  0  0
  -31.4976  -22.6013   16.9279 C   0  0  0  0  0  0  0  0  0  0  0  0
  -17.8086  -28.7484   23.4384 C   0  0  0  0  0  0  0  0  0  0  0  0
  -28.2225  -27.5226   19.1255 C   0  0  0  0  0  0  0  0  0  0  0  0
  -26.1580  -28.4136   17.9206 C   0  0  0  0  0  0  0  0  0  0  0  0
  -25.6550  -11.4538   19.9214 C   0  0  0  0  0  0  0  0  0  0  0  0
  -24.9889  -18.9301   17.9059 C   0  0  0  0  0  0  0  0  0  0  0  0
  -24.7378  -12.4787   19.6201 C   0  0  0  0  0  0  0  0  0  0  0  0
  -24.6951  -19.8996   18.8789 C   0  0  0  0  0  0  0  0  0  0  0  0
  -19.9877  -28.7276   22.6300 C   0  0  0  0  0  0  0  0  0  0  0  0
  -30.5929  -26.0606   19.2882 C   0  0  0  0  0  0  0  0  0  0  0  0
  -24.9871  -21.6411   17.2282 C   0  0  0  0  0  0  0  0  0  0  0  0
  -31.7570  -24.0720   18.8271 C   0  0  0  0  0  0  0  0  0  0  0  0
  -31.7751  -21.5024   17.7411 C   0  0  0  0  0  0  0  0  0  0  0  0
  -31.4886  -23.8861   17.4710 C   0  0  0  0  0  0  0  0  0  0  0  0
  -26.9979  -28.2773   19.0421 C   0  0  0  0  0  0  0  0  0  0  0  0
  -19.4612  -27.6140   22.0129 C   0  0  0  0  0  0  0  0  0  0  0  0
  -25.1362  -29.2231   18.3533 C   0  0  0  0  0  0  0  0  0  0  0  0
  -26.2897  -27.8582   16.6054 C   0  0  0  0  0  0  0  0  0  0  0  0
  -22.6364  -25.8788   20.6282 C   0  0  0  0  0  0  0  0  0  0  0  0
  -24.6063  -16.1005   20.3397 C   0  0  0  0  0  0  0  0  0  0  0  0
  -24.2736  -24.2429   19.5586 C   0  0  0  0  0  0  0  0  0  0  0  0
  -26.0703  -18.3551   21.8175 C   0  0  0  0  0  0  0  0  0  0  0  0
  -28.2554  -20.4885   22.5772 C   0  0  0  0  0  0  0  0  0  0  0  0
  -21.9361  -30.2692   23.0463 C   0  0  0  0  0  0  0  0  0  0  0  0
  -26.3770  -11.3991   21.2444 C   0  0  0  0  0  0  0  0  0  0  0  0
  -24.9106  -17.4793   18.2968 C   0  0  0  0  0  0  0  0  0  0  0  0
  -24.3642  -19.4272   20.2682 C   0  0  0  0  0  0  0  0  0  0  0  0
  -26.3666  -12.7258   21.9993 C   0  0  0  0  0  0  0  0  0  0  0  0
  -24.5772  -32.4464   22.0656 C   0  0  0  0  0  0  0  0  0  0  0  0
  -24.9649  -13.3275   22.0021 C   0  0  0  0  0  0  0  0  0  0  0  0
  -25.3896  -31.6080   21.0761 C   0  0  0  0  0  0  0  0  0  0  0  0
  -20.2753  -25.2090   21.3657 C   0  0  0  0  0  0  0  0  0  0  0  0
  -24.0294  -31.5979   23.2119 C   0  0  0  0  0  0  0  0  0  0  0  0
  -24.0808  -29.5739   21.8084 C   0  0  0  0  0  0  0  0  0  0  0  0
  -24.4900  -13.6263   20.5750 C   0  0  1  0  0  0  0  0  0  0  0  0
  -20.2330  -26.6860   21.0584 C   0  0  2  0  0  0  0  0  0  0  0  0
  -21.4926  -26.0417   21.5720 C   0  0  2  0  0  0  0  0  0  0  0  0
  -25.4076  -17.2125   19.7290 C   0  0  1  0  0  0  0  0  0  0  0  0
  -24.5988  -30.3731   20.6015 C   0  0  2  0  0  0  0  0  0  0  0  0
  -29.9589  -22.0371   23.5757 C   0  0  0  0  0  0  0  0  0  0  0  0
  -23.0029  -23.5689   21.5942 C   0  0  0  0  0  0  0  0  0  0  0  0
  -24.7479  -25.3368   21.7868 C   0  0  0  0  0  0  0  0  0  0  0  0
  -23.4494  -19.1464   23.1623 C   0  0  0  0  0  0  0  0  0  0  0  0
  -24.7556  -20.6881   24.6405 C   0  0  0  0  0  0  0  0  0  0  0  0
  -25.1841  -18.2318   24.7143 C   0  0  0  0  0  0  0  0  0  0  0  0
  -22.7368  -22.9913   16.1863 C   0  0  0  0  0  0  0  0  0  0  0  0
  -23.9658  -25.1278   16.6026 C   0  0  0  0  0  0  0  0  0  0  0  0
  -30.3868  -18.4425   22.4046 C   0  0  0  0  0  0  0  0  0  0  0  0
  -23.3301  -23.5912   18.5448 C   0  0  0  0  0  0  0  0  0  0  0  0
  -25.9566  -19.5651   22.7099 C   0  0  1  0  0  0  0  0  0  0  0  0
  -29.5468  -20.5879   23.3690 C   0  0  2  0  0  0  0  0  0  0  0  0
  -23.6506  -24.7630   20.8718 C   0  0  0  0  0  0  0  0  0  0  0  0
  -24.8379  -19.4103   23.7784 C   0  0  0  0  0  0  0  0  0  0  0  0
  -23.7766  -23.6841   17.0742 C   0  0  0  0  0  0  0  0  0  1  0  0
  -26.5487  -28.9466   20.1071 N   0  0  0  0  0  0  0  0  0  0  0  0
  -22.7126  -26.6784   19.6147 N   0  0  0  0  0  0  0  0  0  0  0  0
  -25.4155  -29.5114   19.6567 N   0  0  0  0  0  0  0  0  0  0  0  0
  -25.2795  -18.3447   20.6621 N   0  0  0  0  0  0  0  0  0  0  0  0
  -23.2885  -30.4490   22.6867 N   0  0  0  0  0  0  0  0  0  0  0  0
  -24.0351  -29.7093   17.7420 N   0  0  0  0  0  0  0  0  0  0  0  0
  -27.4000  -27.0483   16.3302 N   0  0  0  0  0  0  0  0  0  0  0  0
  -21.3260  -29.1607   22.4601 N   0  0  0  0  0  0  0  0  0  0  0  0
  -25.1065  -14.8387   20.0806 N   0  0  0  0  0  0  0  0  0  0  0  0
  -27.2869  -19.7889   23.2656 N   0  0  0  0  0  0  0  0  0  0  0  0
  -30.6483  -19.8835   22.6540 N   0  3  0  0  0  0  0  0  0  0  0  0
  -25.4563  -28.0870   15.6962 O   0  0  0  0  0  0  0  0  0  0  0  0
  -23.6082  -16.3665   20.9990 O   0  0  0  0  0  0  0  0  0  0  0  0
  -25.4875  -24.3029   19.3554 O   0  0  0  0  0  0  0  0  0  0  0  0
  -26.8345  -17.4400   22.1366 O   0  0  0  0  0  0  0  0  0  0  0  0
  -28.1182  -20.9851   21.4614 O   0  0  0  0  0  0  0  0  0  0  0  0
  -21.3537  -31.0571   23.7960 O   0  0  0  0  0  0  0  0  0  0  0  0
  -31.7492  -25.3470   19.3675 O   0  0  0  0  0  0  0  0  0  0  0  0
  -24.9995  -22.9683   16.8943 O   0  0  0  0  0  0  0  0  0  1  0  0
  -31.7853  -20.2688   17.2194 F   0  0  0  0  0  0  0  0  0  0  0  0
  -31.2224  -24.9381   16.6846 F   0  0  0  0  0  0  0  0  0  0  0  0
  -17.8190  -27.3648   22.4295 S   0  0  0  0  0  0  0  0  0  0  0  0
  1  2  1  0  0  0  0
  1  5  2  0  0  0  0
  2  6  2  0  0  0  0
  3  8  2  0  0  0  0
  3 17  1  0  0  0  0
  4  9  1  0  0  0  0
  4 17  2  0  0  0  0
  5 19  1  0  0  0  0
  6 21  1  0  0  0  0
  7 10  2  0  0  0  0
  7 20  1  0  0  0  0
  8 24  1  0  0  0  0
  9 24  2  0  0  0  0
 10 25  1  0  0  0  0
 11 12  2  0  0  0  0
 11 26  1  0  0  0  0
 12 27  1  0  0  0  0
 13 16  2  0  0  0  0
 13 23  1  0  0  0  0
 14 22  1  0  0  0  0
 14 25  2  0  0  0  0
 15 27  2  0  0  0  0
 15 28  1  0  0  0  0
 16 90  1  0  0  0  0
 17 29  1  0  0  0  0
 18 29  1  0  0  0  0
 18 31  2  0  0  0  0
 18 32  1  0  0  0  0
 19 21  2  0  0  0  0
 19 39  1  0  0  0  0
 20 22  2  0  0  0  0
 20 40  1  0  0  0  0
 21 49  1  0  0  0  0
 22 41  1  0  0  0  0
 23 30  2  0  0  0  0
 23 76  1  0  0  0  0
 24 86  1  0  0  0  0
 25 87  1  0  0  0  0
 26 28  2  0  0  0  0
 26 86  1  0  0  0  0
 27 88  1  0  0  0  0
 28 89  1  0  0  0  0
 29 69  2  0  0  0  0
 30 50  1  0  0  0  0
 30 90  1  0  0  0  0
 31 71  1  0  0  0  0
 31 74  1  0  0  0  0
 32 75  1  0  0  0  0
 32 80  2  0  0  0  0
 33 51  1  0  0  0  0
 33 66  1  0  0  0  0
 33 70  2  0  0  0  0
 34 52  1  0  0  0  0
 34 77  1  0  0  0  0
 34 81  2  0  0  0  0
 35 63  1  0  0  0  0
 35 66  1  0  0  0  0
 35 82  2  0  0  0  0
 36 64  1  0  0  0  0
 36 72  1  0  0  0  0
 36 83  2  0  0  0  0
 37 65  1  0  0  0  0
 37 78  1  0  0  0  0
 37 84  2  0  0  0  0
 38 73  1  0  0  0  0
 38 76  1  0  0  0  0
 38 85  2  0  0  0  0
 39 42  1  0  0  0  0
 40 52  1  0  0  0  0
 41 72  1  0  0  0  0
 42 44  1  0  0  0  0
 43 45  1  0  0  0  0
 43 47  1  0  0  0  0
 44 49  1  0  0  0  0
 45 53  1  0  0  0  0
 46 50  1  0  0  0  0
 46 51  1  0  0  0  0
 47 73  1  0  0  0  0
 48 53  1  0  0  0  0
 48 73  1  0  0  0  0
 49 77  1  0  0  0  0
 50 51  1  0  0  0  0
 52 72  1  0  0  0  0
 53 71  1  0  0  0  0
 54 65  1  0  0  0  0
 55 66  1  0  0  0  0
 56 66  1  0  0  0  0
 57 67  1  0  0  0  0
 58 67  1  0  0  0  0
 59 67  1  0  0  0  0
 60 68  1  0  0  0  0
 61 68  1  0  0  0  0
 62 79  1  0  0  0  0
 63 68  1  0  0  0  0
 64 67  1  0  0  0  0
 64 78  1  0  0  0  0
 65 79  1  0  0  0  0
 68 87  1  0  0  0  0
 69 71  1  0  0  0  0
M  CHG  1  79   1
M  ISO  4  38 100  68 101  76 100  87 101
M  END
> <Batch ID>
0143

> <Smiles>
CNC(C)C(=O)NC(C(=O)N1Cc2cc([101O:1][101C:1](C)(C)CC(=O)C(C)(C)C(=N)C3CC3c3sccc3[100NH:0][100C:0](=O)N3CCCC(n4nc(-c5ccc(Oc6ccc(F)cc6F)cc5)c(C(N)=O)c4N)C3)ccc2CC1C(=O)NC1CCCc2ccccc21)C(C)(C)C

> <Shape>
0.191

> <Color>
0.070

> <Negative vol penalty>
0.000

$$$$

  -OEChem-04052303003D

 83 92  0     1  0  0  0  0  0999 V2000
  -29.7919  -36.3278   24.8951 C   0  0  0  0  0  0  0  0  0  0  0  0
  -30.0774  -35.2918   24.0116 C   0  0  0  0  0  0  0  0  0  0  0  0
  -24.3102   -7.5962   19.7446 C   0  0  0  0  0  0  0  0  0  0  0  0
  -23.3057   -9.7256   20.2868 C   0  0  0  0  0  0  0  0  0  0  0  0
  -28.6879  -36.2362   25.7417 C   0  0  0  0  0  0  0  0  0  0  0  0
  -29.2595  -34.1629   23.9750 C   0  0  0  0  0  0  0  0  0  0  0  0
  -26.7552  -29.2287   19.4255 C   0  0  0  0  0  0  0  0  0  0  0  0
  -23.2919   -6.9398   20.4358 C   0  0  0  0  0  0  0  0  0  0  0  0
  -22.2873   -9.0692   20.9780 C   0  0  0  0  0  0  0  0  0  0  0  0
  -26.6610  -27.8451   19.2819 C   0  0  0  0  0  0  0  0  0  0  0  0
  -22.5036   -6.2560   23.6507 C   0  0  0  0  0  0  0  0  0  0  0  0
  -22.8682   -5.2189   24.5092 C   0  0  0  0  0  0  0  0  0  0  0  0
  -24.7355  -27.8315   20.7350 C   0  0  0  0  0  0  0  0  0  0  0  0
  -27.7330  -18.2903   19.7832 C   0  0  0  0  0  0  0  0  0  0  0  0
  -21.5195   -3.6808   23.2239 C   0  0  0  0  0  0  0  0  0  0  0  0
  -25.7426  -17.5395   19.1118 C   0  0  0  0  0  0  0  0  0  0  0  0
  -24.3171   -8.9891   19.6702 C   0  0  0  0  0  0  0  0  0  0  0  0
  -25.6966   -9.5329   17.5943 C   0  0  0  0  0  0  0  0  0  0  0  0
  -27.8505  -35.1099   25.7086 C   0  0  0  0  0  0  0  0  0  0  0  0
  -25.8452  -29.9239   20.2349 C   0  0  0  0  0  0  0  0  0  0  0  0
  -28.1440  -34.0556   24.8228 C   0  0  0  0  0  0  0  0  0  0  0  0
  -24.8187  -29.2242   20.8851 C   0  0  0  0  0  0  0  0  0  0  0  0
  -26.9676  -17.1182   19.5740 C   0  0  0  0  0  0  0  0  0  0  0  0
  -22.2805   -7.6763   21.0525 C   0  0  0  0  0  0  0  0  0  0  0  0
  -25.6529  -27.1459   19.9391 C   0  0  0  0  0  0  0  0  0  0  0  0
  -21.6469   -6.0055   22.5788 C   0  0  0  0  0  0  0  0  0  0  0  0
  -22.3762   -3.9313   24.2958 C   0  0  0  0  0  0  0  0  0  0  0  0
  -21.1549   -4.7179   22.3654 C   0  0  0  0  0  0  0  0  0  0  0  0
  -25.3691   -9.6678   18.9568 C   0  0  0  0  0  0  0  0  0  0  0  0
  -26.9211  -19.3441   19.4336 C   0  0  0  0  0  0  0  0  0  0  0  0
  -26.7601  -10.3825   17.4110 C   0  0  0  0  0  0  0  0  0  0  0  0
  -25.0933   -8.7130   16.5846 C   0  0  0  0  0  0  0  0  0  0  0  0
  -26.0811  -31.7013   22.8596 C   0  0  0  0  0  0  0  0  0  0  0  0
  -22.9246  -32.2206   22.3213 C   0  0  0  0  0  0  0  0  0  0  0  0
  -20.0109  -31.1431   20.9086 C   0  0  0  0  0  0  0  0  0  0  0  0
  -28.5851  -15.3108   20.2547 C   0  0  0  0  0  0  0  0  0  0  0  0
  -26.6959  -35.0351   26.6760 C   0  0  0  0  0  0  0  0  0  0  0  0
  -25.9441  -31.4197   20.3580 C   0  0  0  0  0  0  0  0  0  0  0  0
  -23.8045  -29.9262   21.7494 C   0  0  0  0  0  0  0  0  0  0  0  0
  -25.6639  -33.9710   26.3115 C   0  0  0  0  0  0  0  0  0  0  0  0
  -30.4539  -12.3201   19.7639 C   0  0  0  0  0  0  0  0  0  0  0  0
  -26.3537  -32.6576   25.9569 C   0  0  0  0  0  0  0  0  0  0  0  0
  -26.1552  -21.5620   20.3830 C   0  0  0  0  0  0  0  0  0  0  0  0
  -27.0090  -21.4291   18.0013 C   0  0  0  0  0  0  0  0  0  0  0  0
  -26.3723  -23.0749   20.3730 C   0  0  0  0  0  0  0  0  0  0  0  0
  -27.2240  -22.9423   17.9973 C   0  0  0  0  0  0  0  0  0  0  0  0
  -29.3926  -11.2897   19.3713 C   0  0  0  0  0  0  0  0  0  0  0  0
  -29.9325  -13.2992   20.8143 C   0  0  0  0  0  0  0  0  0  0  0  0
  -27.6103  -12.9373   20.0757 C   0  0  0  0  0  0  0  0  0  0  0  0
  -27.2663  -32.8259   24.7361 C   0  0  1  0  0  0  0  0  0  0  0  0
  -27.1203  -20.8489   19.4212 C   0  0  0  0  0  0  0  0  0  0  0  0
  -25.2757  -31.9611   21.6179 C   0  0  1  0  0  0  0  0  0  0  0  0
  -26.2615  -23.6545   18.9567 C   0  0  0  0  0  0  0  0  0  0  0  0
  -28.0678  -11.9692   18.9725 C   0  0  2  0  0  0  0  0  0  0  0  0
  -17.5902  -31.7607   20.6716 C   0  0  0  0  0  0  0  0  0  0  0  0
  -22.4139  -31.3091   25.1881 C   0  0  0  0  0  0  0  0  0  0  0  0
  -19.9965  -31.0361   24.5967 C   0  0  0  0  0  0  0  0  0  0  0  0
  -21.0642  -33.2868   24.4661 C   0  0  0  0  0  0  0  0  0  0  0  0
  -20.2248  -31.3207   17.9622 C   0  0  0  0  0  0  0  0  0  0  0  0
  -26.5270  -25.1588   18.9680 C   0  0  0  0  0  0  0  0  0  1  0  0
  -21.6432  -31.5379   22.7346 C   0  0  1  0  0  0  0  0  0  0  0  0
  -18.9781  -31.8605   20.0582 C   0  0  2  0  0  0  0  0  0  0  0  0
  -21.2996  -31.7787   24.2317 C   0  0  0  0  0  0  0  0  0  0  0  0
  -26.1606  -10.5348   19.5939 N   0  0  0  0  0  0  0  0  0  0  0  0
  -26.9960  -10.9522   18.6276 N   0  0  0  0  0  0  0  0  0  0  0  0
  -23.9469  -31.3885   21.8434 N   0  0  0  0  0  0  0  0  0  0  0  0
  -28.6779  -13.9073   20.3660 N   0  0  0  0  0  0  0  0  0  0  0  0
  -27.5071  -10.6903   16.3296 N   0  0  0  0  0  0  0  0  0  0  0  0
  -24.0342   -9.2450   15.8366 N   0  0  0  0  0  0  0  0  0  0  0  0
  -27.3547  -15.7720   19.7878 N   0  0  0  0  0  0  0  0  0  0  0  0
  -26.4836  -32.8470   23.5190 N   0  0  0  0  0  0  0  0  0  0  0  0
  -20.6174  -31.9978   21.8046 N   0  0  0  0  0  0  0  0  0  0  0  0
  -18.9314  -31.2687   18.6912 N   0  3  0  0  0  0  0  0  0  0  0  0
  -25.4711   -7.5374   16.3638 O   0  0  0  0  0  0  0  0  0  0  0  0
  -26.3184  -30.5469   23.1953 O   0  0  0  0  0  0  0  0  0  0  0  0
  -23.0127  -33.4476   22.4123 O   0  0  0  0  0  0  0  0  0  0  0  0
  -20.2524  -29.9436   20.7925 O   0  0  0  0  0  0  0  0  0  0  0  0
  -29.5368  -16.0476   20.5256 O   0  0  0  0  0  0  0  0  0  0  0  0
  -25.7061  -18.8949   19.0232 O   0  0  0  0  0  0  0  0  0  0  0  0
  -21.2865   -7.0361   21.7268 O   0  0  0  0  0  0  0  0  0  0  0  0
  -25.5591  -25.7954   19.8012 O   0  0  0  0  0  0  0  0  0  1  0  0
  -22.7276   -2.9352   25.1195 F   0  0  0  0  0  0  0  0  0  0  0  0
  -20.3324   -4.4709   21.3366 F   0  0  0  0  0  0  0  0  0  0  0  0
  1  2  1  0  0  0  0
  1  5  2  0  0  0  0
  2  6  2  0  0  0  0
  3  8  2  0  0  0  0
  3 17  1  0  0  0  0
  4  9  1  0  0  0  0
  4 17  2  0  0  0  0
  5 19  1  0  0  0  0
  6 21  1  0  0  0  0
  7 10  2  0  0  0  0
  7 20  1  0  0  0  0
  8 24  1  0  0  0  0
  9 24  2  0  0  0  0
 10 25  1  0  0  0  0
 11 12  2  0  0  0  0
 11 26  1  0  0  0  0
 12 27  1  0  0  0  0
 13 22  1  0  0  0  0
 13 25  2  0  0  0  0
 14 23  1  0  0  0  0
 14 30  2  0  0  0  0
 15 27  2  0  0  0  0
 15 28  1  0  0  0  0
 16 23  2  0  0  0  0
 16 79  1  0  0  0  0
 17 29  1  0  0  0  0
 18 29  1  0  0  0  0
 18 31  2  0  0  0  0
 18 32  1  0  0  0  0
 19 21  2  0  0  0  0
 19 37  1  0  0  0  0
 20 22  2  0  0  0  0
 20 38  1  0  0  0  0
 21 50  1  0  0  0  0
 22 39  1  0  0  0  0
 23 70  1  0  0  0  0
 24 80  1  0  0  0  0
 25 81  1  0  0  0  0
 26 28  2  0  0  0  0
 26 80  1  0  0  0  0
 27 82  1  0  0  0  0
 28 83  1  0  0  0  0
 29 64  2  0  0  0  0
 30 51  1  0  0  0  0
 30 79  1  0  0  0  0
 31 65  1  0  0  0  0
 31 68  1  0  0  0  0
 32 69  1  0  0  0  0
 32 74  2  0  0  0  0
 33 52  1  0  0  0  0
 33 71  1  0  0  0  0
 33 75  2  0  0  0  0
 34 61  1  0  0  0  0
 34 66  1  0  0  0  0
 34 76  2  0  0  0  0
 35 62  1  0  0  0  0
 35 72  1  0  0  0  0
 35 77  2  0  0  0  0
 36 67  1  0  0  0  0
 36 70  1  0  0  0  0
 36 78  2  0  0  0  0
 37 40  1  0  0  0  0
 38 52  1  0  0  0  0
 39 66  1  0  0  0  0
 40 42  1  0  0  0  0
 41 47  1  0  0  0  0
 41 48  1  0  0  0  0
 42 50  1  0  0  0  0
 43 45  1  0  0  0  0
 43 51  1  0  0  0  0
 44 46  1  0  0  0  0
 44 51  1  0  0  0  0
 45 53  1  0  0  0  0
 46 53  1  0  0  0  0
 47 54  1  0  0  0  0
 48 67  1  0  0  0  0
 49 54  1  0  0  0  0
 49 67  1  0  0  0  0
 50 71  1  0  0  0  0
 52 66  1  0  0  0  0
 53 60  1  0  0  0  0
 54 65  1  0  0  0  0
 55 62  1  0  0  0  0
 56 63  1  0  0  0  0
 57 63  1  0  0  0  0
 58 63  1  0  0  0  0
 59 73  1  0  0  0  0
 60 81  1  0  0  0  0
 61 63  1  0  0  0  0
 61 72  1  0  0  0  0
 62 73  1  0  0  0  0
 64 65  1  0  0  0  0
M  CHG  1  73   1
M  ISO  4  36 100  60 101  70 100  81 101
M  END
> <Batch ID>
0143

> <Smiles>
CNC(C)C(=O)NC(C(=O)N1Cc2cc([101O:1][101CH2:1]C3CCC(c4cc([100NH:0][100C:0](=O)N5CCCC(n6nc(-c7ccc(Oc8ccc(F)cc8F)cc7)c(C(N)=O)c6N)C5)co4)CC3)ccc2CC1C(=O)NC1CCCc2ccccc21)C(C)(C)C

> <Shape>
0.239

> <Color>
0.088

> <Negative vol penalty>
0.000

$$$$

  -OEChem-04052303003D

 86 95  0     1  0  0  0  0  0999 V2000
  -18.7573  -25.0173   21.6930 C   0  0  0  0  0  0  0  0  0  0  0  0
  -20.1426  -25.0578   21.5717 C   0  0  0  0  0  0  0  0  0  0  0  0
  -23.8372  -10.8552   23.3655 C   0  0  0  0  0  0  0  0  0  0  0  0
  -24.4240   -9.4398   21.4975 C   0  0  0  0  0  0  0  0  0  0  0  0
  -18.0177  -26.1971   21.6221 C   0  0  0  0  0  0  0  0  0  0  0  0
  -20.7890  -26.2781   21.3783 C   0  0  0  0  0  0  0  0  0  0  0  0
  -31.3447  -19.9120   21.5349 C   0  0  0  0  0  0  0  0  0  0  0  0
  -24.8958  -26.7852   24.2976 C   0  0  0  0  0  0  0  0  0  0  0  0
  -31.0013  -18.6503   21.0493 C   0  0  0  0  0  0  0  0  0  0  0  0
  -23.3379   -9.7465   24.0488 C   0  0  0  0  0  0  0  0  0  0  0  0
  -23.9247   -8.3310   22.1809 C   0  0  0  0  0  0  0  0  0  0  0  0
  -26.0509  -26.1174   23.8931 C   0  0  0  0  0  0  0  0  0  0  0  0
  -20.5342   -7.8588   24.0208 C   0  0  0  0  0  0  0  0  0  0  0  0
  -19.3022   -7.9936   24.6606 C   0  0  0  0  0  0  0  0  0  0  0  0
  -29.0039  -20.4446   21.8067 C   0  0  0  0  0  0  0  0  0  0  0  0
  -26.9086  -28.1737   22.9684 C   0  0  0  0  0  0  0  0  0  0  0  0
  -20.3459   -7.4807   26.7784 C   0  0  0  0  0  0  0  0  0  0  0  0
  -24.3802  -10.7019   22.0898 C   0  0  0  0  0  0  0  0  0  0  0  0
  -24.1871  -13.0044   21.0086 C   0  0  0  0  0  0  0  0  0  0  0  0
  -30.3460  -20.8091   21.9137 C   0  0  0  0  0  0  0  0  0  0  0  0
  -18.6562  -27.4336   21.4374 C   0  0  0  0  0  0  0  0  0  0  0  0
  -24.7334  -28.1522   24.0304 C   0  0  0  0  0  0  0  0  0  0  0  0
  -20.0571  -27.4754   21.3035 C   0  0  0  0  0  0  0  0  0  0  0  0
  -25.7517  -28.8571   23.3728 C   0  0  0  0  0  0  0  0  0  0  0  0
  -28.6604  -19.1829   21.3210 C   0  0  0  0  0  0  0  0  0  0  0  0
  -29.6592  -18.2858   20.9423 C   0  0  0  0  0  0  0  0  0  0  0  0
  -23.3817   -8.4843   23.4565 C   0  0  0  0  0  0  0  0  0  0  0  0
  -27.0563  -26.8110   23.2258 C   0  0  0  0  0  0  0  0  0  0  0  0
  -21.6721   -7.5348   24.7597 C   0  0  0  0  0  0  0  0  0  0  0  0
  -19.2080   -7.8045   26.0394 C   0  0  0  0  0  0  0  0  0  0  0  0
  -21.5779   -7.3458   26.1385 C   0  0  0  0  0  0  0  0  0  0  0  0
  -24.8956  -11.8470   21.3832 C   0  0  0  0  0  0  0  0  0  0  0  0
  -25.1182  -13.7843   20.3672 C   0  0  0  0  0  0  0  0  0  0  0  0
  -22.8106  -13.3441   21.2213 C   0  0  0  0  0  0  0  0  0  0  0  0
  -22.6655  -29.8776   22.3421 C   0  0  0  0  0  0  0  0  0  0  0  0
  -24.2698  -32.3716   23.6569 C   0  0  0  0  0  0  0  0  0  0  0  0
  -27.7068  -33.2165   24.3572 C   0  0  0  0  0  0  0  0  0  0  0  0
  -30.2140  -16.0033   20.0320 C   0  0  0  0  0  0  0  0  0  0  0  0
  -17.8105  -28.6769   21.3198 C   0  0  0  0  0  0  0  0  0  0  0  0
  -23.4931  -28.8638   24.4969 C   0  0  0  0  0  0  0  0  0  0  0  0
  -25.6350  -30.3298   23.0798 C   0  0  0  0  0  0  0  0  0  0  0  0
  -18.6030  -29.9707   21.4881 C   0  0  0  0  0  0  0  0  0  0  0  0
  -29.8012  -12.6938   18.7852 C   0  0  0  0  0  0  0  0  0  0  0  0
  -30.1947  -23.3055   21.5303 C   0  0  0  0  0  0  0  0  0  0  0  0
  -30.2616  -22.3813   23.8938 C   0  0  0  0  0  0  0  0  0  0  0  0
  -19.8824  -29.9248   20.6586 C   0  0  0  0  0  0  0  0  0  0  0  0
  -28.4298  -12.2737   19.3191 C   0  0  0  0  0  0  0  0  0  0  0  0
  -30.5775  -24.6871   22.0647 C   0  0  0  0  0  0  0  0  0  0  0  0
  -30.6434  -23.7665   24.4196 C   0  0  0  0  0  0  0  0  0  0  0  0
  -30.5623  -13.5546   19.7919 C   0  0  0  0  0  0  0  0  0  0  0  0
  -28.4550  -14.3027   20.8256 C   0  0  0  0  0  0  0  0  0  0  0  0
  -30.7198  -22.1831   22.4399 C   0  0  0  0  0  0  0  0  0  0  0  0
  -20.7968  -28.7825   21.1176 C   0  0  1  0  0  0  0  0  0  0  0  0
  -23.2097  -30.1440   23.7171 C   0  0  1  0  0  0  0  0  0  0  0  0
  -27.6241  -13.4881   19.8207 C   0  0  2  0  0  0  0  0  0  0  0  0
  -30.1397  -24.9233   23.5277 C   0  0  0  0  0  0  0  0  0  0  0  0
  -27.2145  -18.8204   21.2142 C   0  0  0  0  0  0  0  0  0  0  0  0
  -30.7561  -26.2439   24.0267 C   0  0  0  0  0  0  0  0  0  0  0  0
  -28.6930  -34.7238   26.1044 C   0  0  0  0  0  0  0  0  0  0  0  0
  -24.1659  -34.4955   21.4688 C   0  0  0  0  0  0  0  0  0  0  0  0
  -26.3648  -35.3583   22.2985 C   0  0  0  0  0  0  0  0  0  0  0  0
  -24.3669  -35.3999   23.7917 C   0  0  0  0  0  0  0  0  0  0  0  0
  -29.4504  -31.0629   25.3970 C   0  0  0  0  0  0  0  0  0  0  0  0
  -28.6068  -25.0514   23.6204 C   0  0  0  0  0  0  0  0  0  1  0  0
  -25.4777  -33.1897   23.2688 C   0  0  1  0  0  0  0  0  0  0  0  0
  -28.3647  -33.2886   25.7233 C   0  0  2  0  0  0  0  0  0  0  0  0
  -25.0910  -34.5837   22.6989 C   0  0  0  0  0  0  0  0  0  0  0  0
  -26.1777  -11.8840   21.0107 N   0  0  0  0  0  0  0  0  0  0  0  0
  -26.2823  -13.0742   20.3953 N   0  0  0  0  0  0  0  0  0  0  0  0
  -24.4006  -30.9797   23.5504 N   0  0  0  0  0  0  0  0  0  0  0  0
  -29.7389  -14.6879   20.2190 N   0  0  0  0  0  0  0  0  0  0  0  0
  -25.0465  -15.0014   19.7876 N   0  0  0  0  0  0  0  0  0  0  0  0
  -21.9933  -12.4285   21.8982 N   0  0  0  0  0  0  0  0  0  0  0  0
  -29.3308  -16.9996   20.4466 N   0  0  0  0  0  0  0  0  0  0  0  0
  -21.4916  -29.1487   22.3332 N   0  0  0  0  0  0  0  0  0  0  0  0
  -26.3314  -33.2432   24.4506 N   0  0  0  0  0  0  0  0  0  0  0  0
  -29.6288  -32.4993   25.7318 N   0  3  0  0  0  0  0  0  0  0  0  0
  -22.3158  -14.4204   20.8086 O   0  0  0  0  0  0  0  0  0  0  0  0
  -23.2654  -30.3032   21.3620 O   0  0  0  0  0  0  0  0  0  0  0  0
  -23.2503  -32.9460   24.0472 O   0  0  0  0  0  0  0  0  0  0  0  0
  -28.3489  -33.1474   23.3115 O   0  0  0  0  0  0  0  0  0  0  0  0
  -31.3112  -16.2297   19.5154 O   0  0  0  0  0  0  0  0  0  0  0  0
  -22.8948   -7.4021   24.1231 O   0  0  0  0  0  0  0  0  0  0  0  0
  -28.1845  -26.1615   22.8294 O   0  0  0  0  0  0  0  0  0  1  0  0
  -18.0250   -7.9355   26.6539 F   0  0  0  0  0  0  0  0  0  0  0  0
  -22.6678   -7.0357   26.8538 F   0  0  0  0  0  0  0  0  0  0  0  0
  1  2  1  0  0  0  0
  1  5  2  0  0  0  0
  2  6  2  0  0  0  0
  3 10  2  0  0  0  0
  3 18  1  0  0  0  0
  4 11  1  0  0  0  0
  4 18  2  0  0  0  0
  5 21  1  0  0  0  0
  6 23  1  0  0  0  0
  7  9  2  0  0  0  0
  7 20  1  0  0  0  0
  8 12  2  0  0  0  0
  8 22  1  0  0  0  0
  9 26  1  0  0  0  0
 10 27  1  0  0  0  0
 11 27  2  0  0  0  0
 12 28  1  0  0  0  0
 13 14  2  0  0  0  0
 13 29  1  0  0  0  0
 14 30  1  0  0  0  0
 15 20  2  0  0  0  0
 15 25  1  0  0  0  0
 16 24  1  0  0  0  0
 16 28  2  0  0  0  0
 17 30  2  0  0  0  0
 17 31  1  0  0  0  0
 18 32  1  0  0  0  0
 19 32  1  0  0  0  0
 19 33  2  0  0  0  0
 19 34  1  0  0  0  0
 20 52  1  0  0  0  0
 21 23  2  0  0  0  0
 21 39  1  0  0  0  0
 22 24  2  0  0  0  0
 22 40  1  0  0  0  0
 23 53  1  0  0  0  0
 24 41  1  0  0  0  0
 25 26  2  0  0  0  0
 25 57  1  0  0  0  0
 26 74  1  0  0  0  0
 27 83  1  0  0  0  0
 28 84  1  0  0  0  0
 29 31  2  0  0  0  0
 29 83  1  0  0  0  0
 30 85  1  0  0  0  0
 31 86  1  0  0  0  0
 32 68  2  0  0  0  0
 33 69  1  0  0  0  0
 33 72  1  0  0  0  0
 34 73  1  0  0  0  0
 34 78  2  0  0  0  0
 35 54  1  0  0  0  0
 35 75  1  0  0  0  0
 35 79  2  0  0  0  0
 36 65  1  0  0  0  0
 36 70  1  0  0  0  0
 36 80  2  0  0  0  0
 37 66  1  0  0  0  0
 37 76  1  0  0  0  0
 37 81  2  0  0  0  0
 38 71  1  0  0  0  0
 38 74  1  0  0  0  0
 38 82  2  0  0  0  0
 39 42  1  0  0  0  0
 40 54  1  0  0  0  0
 41 70  1  0  0  0  0
 42 46  1  0  0  0  0
 43 47  1  0  0  0  0
 43 50  1  0  0  0  0
 44 48  1  0  0  0  0
 44 52  1  0  0  0  0
 45 49  1  0  0  0  0
 45 52  1  0  0  0  0
 46 53  1  0  0  0  0
 47 55  1  0  0  0  0
 48 56  1  0  0  0  0
 49 56  1  0  0  0  0
 50 71  1  0  0  0  0
 51 55  1  0  0  0  0
 51 71  1  0  0  0  0
 53 75  1  0  0  0  0
 54 70  1  0  0  0  0
 55 69  1  0  0  0  0
 56 58  1  0  0  0  0
 56 64  1  0  0  0  0
 59 66  1  0  0  0  0
 60 67  1  0  0  0  0
 61 67  1  0  0  0  0
 62 67  1  0  0  0  0
 63 77  1  0  0  0  0
 64 84  1  0  0  0  0
 65 67  1  0  0  0  0
 65 76  1  0  0  0  0
 66 77  1  0  0  0  0
 68 69  1  0  0  0  0
M  CHG  1  77   1
M  ISO  4  38 100  64 101  74 100  84 101
M  END
> <Batch ID>
0143

> <Smiles>
CNC(C)C(=O)NC(C(=O)N1Cc2cc([101O:1][101CH2:1]C3(C)CCC(c4ccc([100NH:0][100C:0](=O)N5CCCC(n6nc(-c7ccc(Oc8ccc(F)cc8F)cc7)c(C(N)=O)c6N)C5)c(C)c4)CC3)ccc2CC1C(=O)NC1CCCc2ccccc21)C(C)(C)C

> <Shape>
0.289

> <Color>
0.151

> <Negative vol penalty>
0.000

$$$$

  -OEChem-04052303003D

 88 97  0     1  0  0  0  0  0999 V2000
  -27.0351  -29.5903   23.5186 C   0  0  0  0  0  0  0  0  0  0  0  0
  -25.9176  -28.8341   23.8573 C   0  0  0  0  0  0  0  0  0  0  0  0
  -30.9516  -19.5315   19.8812 C   0  0  0  0  0  0  0  0  0  0  0  0
  -28.6006  -19.1177   20.2538 C   0  0  0  0  0  0  0  0  0  0  0  0
  -27.3916  -29.7440   22.1795 C   0  0  0  0  0  0  0  0  0  0  0  0
  -25.1553  -28.2320   22.8569 C   0  0  0  0  0  0  0  0  0  0  0  0
  -24.1730  -21.0968   22.7306 C   0  0  0  0  0  0  0  0  0  0  0  0
  -30.6532  -20.8151   19.4242 C   0  0  0  0  0  0  0  0  0  0  0  0
  -28.3022  -20.4014   19.7968 C   0  0  0  0  0  0  0  0  0  0  0  0
  -23.7644  -19.7633   22.7572 C   0  0  0  0  0  0  0  0  0  0  0  0
  -29.8768  -23.8196   20.7670 C   0  0  0  0  0  0  0  0  0  0  0  0
  -30.6615  -24.8733   21.2356 C   0  0  0  0  0  0  0  0  0  0  0  0
  -22.1799  -11.6215   21.5929 C   0  0  0  0  0  0  0  0  0  0  0  0
  -24.2475  -12.7556   22.1176 C   0  0  0  0  0  0  0  0  0  0  0  0
  -22.5454  -20.0846   20.6935 C   0  0  0  0  0  0  0  0  0  0  0  0
  -24.1924  -11.0941   20.3645 C   0  0  0  0  0  0  0  0  0  0  0  0
  -31.3271  -25.3850   18.9702 C   0  0  0  0  0  0  0  0  0  0  0  0
  -29.9253  -18.6828   20.2960 C   0  0  0  0  0  0  0  0  0  0  0  0
  -22.8875  -12.5533   22.3522 C   0  0  0  0  0  0  0  0  0  0  0  0
  -31.0439  -17.0114   21.8654 C   0  0  0  0  0  0  0  0  0  0  0  0
  -26.6389  -29.1356   21.1627 C   0  0  0  0  0  0  0  0  0  0  0  0
  -23.7816  -21.9263   21.6760 C   0  0  0  0  0  0  0  0  0  0  0  0
  -25.5013  -28.3789   21.5028 C   0  0  0  0  0  0  0  0  0  0  0  0
  -22.9619  -21.4179   20.6550 C   0  0  0  0  0  0  0  0  0  0  0  0
  -22.8323  -10.8918   20.5991 C   0  0  0  0  0  0  0  0  0  0  0  0
  -24.9000  -12.0260   21.1238 C   0  0  0  0  0  0  0  0  0  0  0  0
  -29.3286  -21.2501   19.3820 C   0  0  0  0  0  0  0  0  0  0  0  0
  -22.9524  -19.2585   21.7412 C   0  0  0  0  0  0  0  0  0  0  0  0
  -29.8172  -23.5486   19.4000 C   0  0  0  0  0  0  0  0  0  0  0  0
  -31.3866  -25.6560   20.3372 C   0  0  0  0  0  0  0  0  0  0  0  0
  -30.5423  -24.3313   18.5016 C   0  0  0  0  0  0  0  0  0  0  0  0
  -30.2328  -17.3565   20.7677 C   0  0  0  0  0  0  0  0  0  0  0  0
  -31.0172  -15.6385   21.8938 C   0  0  0  0  0  0  0  0  0  0  0  0
  -21.6101  -15.2104   21.7675 C   0  0  0  0  0  0  0  0  0  0  0  0
  -22.1989  -13.3237   23.3993 C   0  0  0  0  0  0  0  0  0  0  0  0
  -31.7575  -17.8564   22.7778 C   0  0  0  0  0  0  0  0  0  0  0  0
  -23.9331  -25.3346   20.1151 C   0  0  0  0  0  0  0  0  0  0  0  0
  -24.1455  -23.2981   17.8308 C   0  0  0  0  0  0  0  0  0  0  0  0
  -24.8334  -21.6446   14.9273 C   0  0  0  0  0  0  0  0  0  0  0  0
  -27.0803  -11.5907   19.9392 C   0  0  0  0  0  0  0  0  0  0  0  0
  -27.0359  -29.3693   19.7266 C   0  0  0  0  0  0  0  0  0  0  0  0
  -24.1473  -23.3853   21.6386 C   0  0  0  0  0  0  0  0  0  0  0  0
  -22.5368  -22.3561   19.5586 C   0  0  0  0  0  0  0  0  0  0  0  0
  -26.3920  -28.3891   18.7494 C   0  0  0  0  0  0  0  0  0  0  0  0
  -30.5104  -11.8425   19.0184 C   0  0  0  0  0  0  0  0  0  0  0  0
  -24.9011  -28.2480   19.0394 C   0  0  0  0  0  0  0  0  0  0  0  0
  -30.9039  -13.2515   19.4679 C   0  0  0  0  0  0  0  0  0  0  0  0
  -20.6365  -16.6438   23.4089 C   0  0  0  0  0  0  0  0  0  0  0  0
  -29.0813  -11.7973   18.4804 C   0  0  0  0  0  0  0  0  0  0  0  0
  -20.7666  -15.2465   23.9741 C   0  0  0  0  0  0  0  0  0  0  0  0
  -28.4552  -13.7616   19.8289 C   0  0  0  0  0  0  0  0  0  0  0  0
  -24.6635  -27.6897   20.4477 C   0  0  1  0  0  0  0  0  0  0  0  0
  -24.3926  -23.9095   20.2123 C   0  0  1  0  0  0  0  0  0  0  0  0
  -29.8640  -13.8443   20.4388 C   0  0  2  0  0  0  0  0  0  0  0  0
  -20.7027  -16.4318   21.8920 C   0  0  2  0  0  0  0  0  0  0  0  0
  -19.3274  -16.0912   21.3073 C   0  0  0  0  0  0  0  0  0  0  0  0
  -25.0582  -21.2749   12.4554 C   0  0  0  0  0  0  0  0  0  0  0  0
  -21.1632  -22.6860   18.0195 C   0  0  0  0  0  0  0  0  0  0  0  0
  -21.2251  -21.9950   15.6139 C   0  0  0  0  0  0  0  0  0  0  0  0
  -21.7786  -24.3427   16.2500 C   0  0  0  0  0  0  0  0  0  0  0  0
  -27.5909  -22.7189   14.9000 C   0  0  0  0  0  0  0  0  0  0  0  0
  -21.3005  -17.6421   21.1791 C   0  0  0  0  0  0  0  0  0  1  0  0
  -23.4205  -22.4948   16.7808 C   0  0  1  0  0  0  0  0  0  0  0  0
  -25.5205  -22.0940   13.6504 C   0  0  2  0  0  0  0  0  0  0  0  0
  -21.9139  -22.8672   16.6851 C   0  0  0  0  0  0  0  0  0  0  0  0
  -29.7279  -16.2888   20.1439 N   0  0  0  0  0  0  0  0  0  0  0  0
  -30.2230  -15.2594   20.8518 N   0  0  0  0  0  0  0  0  0  0  0  0
  -21.6199  -14.5509   23.0308 N   0  0  0  0  0  0  0  0  0  0  0  0
  -23.6737  -23.1933   19.1449 N   0  0  0  0  0  0  0  0  0  0  0  0
  -28.1513  -12.3713   19.4552 N   0  0  0  0  0  0  0  0  0  0  0  0
  -22.1172   -9.9491   19.8316 N   0  0  0  0  0  0  0  0  0  0  0  0
  -31.5959  -14.7306   22.7082 N   0  0  0  0  0  0  0  0  0  0  0  0
  -31.1047  -18.2845   23.9418 N   0  0  0  0  0  0  0  0  0  0  0  0
  -26.2817  -12.2311   20.8861 N   0  0  0  0  0  0  0  0  0  0  0  0
  -24.8944  -26.2612   20.4708 N   0  0  0  0  0  0  0  0  0  0  0  0
  -24.1624  -22.6826   15.5387 N   0  0  0  0  0  0  0  0  0  0  0  0
  -26.9980  -21.9468   13.7779 N   0  3  0  0  0  0  0  0  0  0  0  0
  -22.1644  -14.8692   20.7317 O   0  0  0  0  0  0  0  0  0  0  0  0
  -22.1523  -12.8347   24.5267 O   0  0  0  0  0  0  0  0  0  0  0  0
  -32.9334  -18.2343   22.5591 O   0  0  0  0  0  0  0  0  0  0  0  0
  -22.7908  -25.5771   19.7432 O   0  0  0  0  0  0  0  0  0  0  0  0
  -25.1008  -24.0045   17.4968 O   0  0  0  0  0  0  0  0  0  0  0  0
  -24.8835  -20.4877   15.3390 O   0  0  0  0  0  0  0  0  0  0  0  0
  -26.9018  -10.4294   19.5629 O   0  0  0  0  0  0  0  0  0  0  0  0
  -29.0371  -22.5026   18.9363 O   0  0  0  0  0  0  0  0  0  0  0  0
  -22.5609  -17.9544   21.7709 O   0  0  0  0  0  0  0  0  0  1  0  0
  -32.1389  -26.6688   20.7872 F   0  0  0  0  0  0  0  0  0  0  0  0
  -30.4882  -24.0765   17.1871 F   0  0  0  0  0  0  0  0  0  0  0  0
  1  2  1  0  0  0  0
  1  5  2  0  0  0  0
  2  6  2  0  0  0  0
  3  8  2  0  0  0  0
  3 18  1  0  0  0  0
  4  9  1  0  0  0  0
  4 18  2  0  0  0  0
  5 21  1  0  0  0  0
  6 23  1  0  0  0  0
  7 10  2  0  0  0  0
  7 22  1  0  0  0  0
  8 27  1  0  0  0  0
  9 27  2  0  0  0  0
 10 28  1  0  0  0  0
 11 12  2  0  0  0  0
 11 29  1  0  0  0  0
 12 30  1  0  0  0  0
 13 19  1  0  0  0  0
 13 25  2  0  0  0  0
 14 19  2  0  0  0  0
 14 26  1  0  0  0  0
 15 24  1  0  0  0  0
 15 28  2  0  0  0  0
 16 25  1  0  0  0  0
 16 26  2  0  0  0  0
 17 30  2  0  0  0  0
 17 31  1  0  0  0  0
 18 32  1  0  0  0  0
 19 35  1  0  0  0  0
 20 32  1  0  0  0  0
 20 33  2  0  0  0  0
 20 36  1  0  0  0  0
 21 23  2  0  0  0  0
 21 41  1  0  0  0  0
 22 24  2  0  0  0  0
 22 42  1  0  0  0  0
 23 52  1  0  0  0  0
 24 43  1  0  0  0  0
 25 71  1  0  0  0  0
 26 74  1  0  0  0  0
 27 85  1  0  0  0  0
 28 86  1  0  0  0  0
 29 31  2  0  0  0  0
 29 85  1  0  0  0  0
 30 87  1  0  0  0  0
 31 88  1  0  0  0  0
 32 66  2  0  0  0  0
 33 67  1  0  0  0  0
 33 72  1  0  0  0  0
 34 55  1  0  0  0  0
 34 68  1  0  0  0  0
 34 78  2  0  0  0  0
 35 68  1  0  0  0  0
 35 79  2  0  0  0  0
 36 73  1  0  0  0  0
 36 80  2  0  0  0  0
 37 53  1  0  0  0  0
 37 75  1  0  0  0  0
 37 81  2  0  0  0  0
 38 63  1  0  0  0  0
 38 69  1  0  0  0  0
 38 82  2  0  0  0  0
 39 64  1  0  0  0  0
 39 76  1  0  0  0  0
 39 83  2  0  0  0  0
 40 70  1  0  0  0  0
 40 74  1  0  0  0  0
 40 84  2  0  0  0  0
 41 44  1  0  0  0  0
 42 53  1  0  0  0  0
 43 69  1  0  0  0  0
 44 46  1  0  0  0  0
 45 47  1  0  0  0  0
 45 49  1  0  0  0  0
 46 52  1  0  0  0  0
 47 54  1  0  0  0  0
 48 50  1  0  0  0  0
 48 55  1  0  0  0  0
 49 70  1  0  0  0  0
 50 68  1  0  0  0  0
 51 54  1  0  0  0  0
 51 70  1  0  0  0  0
 52 75  1  0  0  0  0
 53 69  1  0  0  0  0
 54 67  1  0  0  0  0
 55 56  1  0  0  0  0
 55 62  1  0  0  0  0
 57 64  1  0  0  0  0
 58 65  1  0  0  0  0
 59 65  1  0  0  0  0
 60 65  1  0  0  0  0
 61 77  1  0  0  0  0
 62 86  1  0  0  0  0
 63 65  1  0  0  0  0
 63 76  1  0  0  0  0
 64 77  1  0  0  0  0
 66 67  1  0  0  0  0
M  CHG  1  77   1
M  ISO  4  40 100  62 101  74 100  86 101
M  END
> <Batch ID>
0143

> <Smiles>
CNC(C)C(=O)NC(C(=O)N1Cc2cc([101O:1][101CH2:1]C3(C)CCN(C(=O)c4cc(N)cc([100NH:0][100C:0](=O)N5CCCC(n6nc(-c7ccc(Oc8ccc(F)cc8F)cc7)c(C(N)=O)c6N)C5)c4)C3=O)ccc2CC1C(=O)NC1CCCc2ccccc21)C(C)(C)C

> <Shape>
0.228

> <Color>
0.063

> <Negative vol penalty>
0.000

$$$$

  -OEChem-04052303003D

 84 93  0     1  0  0  0  0  0999 V2000
  -18.2803  -32.7520   24.2885 C   0  0  0  0  0  0  0  0  0  0  0  0
  -19.5347  -32.3266   24.7138 C   0  0  0  0  0  0  0  0  0  0  0  0
  -29.7517  -23.3705   22.9109 C   0  0  0  0  0  0  0  0  0  0  0  0
  -23.9233  -13.1358   21.2231 C   0  0  0  0  0  0  0  0  0  0  0  0
  -26.2497  -13.2283   20.5779 C   0  0  0  0  0  0  0  0  0  0  0  0
  -30.5628  -24.1723   22.1079 C   0  0  0  0  0  0  0  0  0  0  0  0
  -17.4213  -31.8577   23.6511 C   0  0  0  0  0  0  0  0  0  0  0  0
  -19.9304  -31.0062   24.5029 C   0  0  0  0  0  0  0  0  0  0  0  0
  -25.8456  -29.4719   20.6888 C   0  0  0  0  0  0  0  0  0  0  0  0
  -28.8235  -22.5095   22.3252 C   0  0  0  0  0  0  0  0  0  0  0  0
  -23.9509  -11.7448   21.1230 C   0  0  0  0  0  0  0  0  0  0  0  0
  -26.2773  -11.8373   20.4778 C   0  0  0  0  0  0  0  0  0  0  0  0
  -27.0785  -29.1035   20.1499 C   0  0  0  0  0  0  0  0  0  0  0  0
  -25.0348   -9.1348   22.9792 C   0  0  0  0  0  0  0  0  0  0  0  0
  -24.4436   -8.3991   24.0063 C   0  0  0  0  0  0  0  0  0  0  0  0
  -29.5174  -23.2524   20.1335 C   0  0  0  0  0  0  0  0  0  0  0  0
  -26.5219  -26.7687   20.4447 C   0  0  0  0  0  0  0  0  0  0  0  0
  -22.9159   -7.4093   22.4177 C   0  0  0  0  0  0  0  0  0  0  0  0
  -25.0727  -13.8776   20.9505 C   0  0  0  0  0  0  0  0  0  0  0  0
  -30.4456  -24.1133   20.7192 C   0  0  0  0  0  0  0  0  0  0  0  0
  -24.7492  -16.0794   22.1975 C   0  0  0  0  0  0  0  0  0  0  0  0
  -17.8105  -30.5282   23.4237 C   0  0  0  0  0  0  0  0  0  0  0  0
  -24.9388  -28.4886   21.0939 C   0  0  0  0  0  0  0  0  0  0  0  0
  -19.0753  -30.0929   23.8631 C   0  0  0  0  0  0  0  0  0  0  0  0
  -25.2803  -27.1315   20.9737 C   0  0  0  0  0  0  0  0  0  0  0  0
  -28.7064  -22.4506   20.9366 C   0  0  0  0  0  0  0  0  0  0  0  0
  -25.1278  -11.0956   20.7504 C   0  0  0  0  0  0  0  0  0  0  0  0
  -27.4159  -27.7553   20.0284 C   0  0  0  0  0  0  0  0  0  0  0  0
  -24.5666   -9.0078   21.6714 C   0  0  0  0  0  0  0  0  0  0  0  0
  -23.3841   -7.5363   23.7255 C   0  0  0  0  0  0  0  0  0  0  0  0
  -23.5071   -8.1450   21.3907 C   0  0  0  0  0  0  0  0  0  0  0  0
  -25.0447  -15.3145   21.0532 C   0  0  0  0  0  0  0  0  0  0  0  0
  -24.8564  -17.3824   21.7767 C   0  0  0  0  0  0  0  0  0  0  0  0
  -31.3025  -24.9598   19.8699 C   0  0  0  0  0  0  0  0  0  0  0  0
  -24.4085  -15.6504   23.5225 C   0  0  0  0  0  0  0  0  0  0  0  0
  -21.5696  -27.7056   22.5470 C   0  0  0  0  0  0  0  0  0  0  0  0
  -22.0646  -25.6760   20.3006 C   0  0  0  0  0  0  0  0  0  0  0  0
  -21.7755  -23.4418   17.7390 C   0  0  0  0  0  0  0  0  0  0  0  0
  -27.5191  -21.3949   18.9815 C   0  0  0  0  0  0  0  0  0  0  0  0
  -16.8291  -29.5857   22.7730 C   0  0  0  0  0  0  0  0  0  0  0  0
  -23.6246  -28.8401   21.7367 C   0  0  0  0  0  0  0  0  0  0  0  0
  -24.2876  -26.1087   21.4547 C   0  0  0  0  0  0  0  0  0  0  0  0
  -17.4709  -28.3021   22.2528 C   0  0  0  0  0  0  0  0  0  0  0  0
  -25.3111  -19.3128   17.1196 C   0  0  0  0  0  0  0  0  0  0  0  0
  -18.4055  -27.7091   23.3024 C   0  0  0  0  0  0  0  0  0  0  0  0
  -25.0206  -18.1499   18.0711 C   0  0  0  0  0  0  0  0  0  0  0  0
  -26.7553  -19.7963   17.2391 C   0  0  0  0  0  0  0  0  0  0  0  0
  -26.8975  -18.9656   19.5540 C   0  0  0  0  0  0  0  0  0  0  0  0
  -31.7999  -25.6143   17.5794 C   0  0  0  0  0  0  0  0  0  0  0  0
  -19.5504  -28.6751   23.6304 C   0  0  1  0  0  0  0  0  0  0  0  0
  -22.4947  -27.8591   21.3757 C   0  0  1  0  0  0  0  0  0  0  0  0
  -25.4370  -18.4868   19.5163 C   0  0  2  0  0  0  0  0  0  0  0  0
  -31.1310  -26.7457   18.2335 C   0  0  1  0  0  0  0  0  0  0  0  0
  -20.6300  -21.2981   17.1148 C   0  0  0  0  0  0  0  0  0  0  0  0
  -24.0213  -24.1248   22.0524 C   0  0  0  0  0  0  0  0  0  0  0  0
  -23.4969  -22.0808   20.7051 C   0  0  0  0  0  0  0  0  0  0  0  0
  -21.6965  -23.2038   22.0166 C   0  0  0  0  0  0  0  0  0  0  0  0
  -20.3618  -24.7210   15.4753 C   0  0  0  0  0  0  0  0  0  0  0  0
  -30.0386  -27.4889   17.5509 C   0  0  0  0  0  0  0  0  0  0  0  0
  -29.1843  -28.2849   18.5285 C   0  0  0  0  0  0  0  0  0  1  0  0
  -22.5768  -24.3098   19.9205 C   0  0  1  0  0  0  0  0  0  0  0  0
  -20.5593  -22.8168   17.0796 C   0  0  2  0  0  0  0  0  0  0  0  0
  -22.9576  -23.4534   21.1610 C   0  0  0  0  0  0  0  0  0  0  0  0
  -25.3189  -16.0687   19.9855 N   0  0  0  0  0  0  0  0  0  0  0  0
  -25.1960  -17.3212   20.4571 N   0  0  0  0  0  0  0  0  0  0  0  0
  -30.8514  -25.3702   18.6963 N   0  0  0  0  0  0  0  0  0  0  0  0
  -22.9294  -26.4928   21.0392 N   0  0  0  0  0  0  0  0  0  0  0  0
  -27.0770  -20.1005   18.6350 N   0  0  0  0  0  0  0  0  0  0  0  0
  -24.6922  -18.5631   22.4102 N   0  0  0  0  0  0  0  0  0  0  0  0
  -25.4428  -15.4517   24.4472 N   0  0  0  0  0  0  0  0  0  0  0  0
  -27.7632  -21.5757   20.3425 N   0  0  0  0  0  0  0  0  0  0  0  0
  -20.5540  -28.6418   22.5882 N   0  0  0  0  0  0  0  0  0  0  0  0
  -21.5517  -23.7109   19.0727 N   0  0  0  0  0  0  0  0  0  0  0  0
  -32.5151  -25.2991   20.2976 N   0  3  0  0  0  0  0  0  0  0  0  0
  -20.4615  -23.2499   15.6570 N   0  3  0  0  0  0  0  0  0  0  0  0
  -23.2232  -15.4334   23.8712 O   0  0  0  0  0  0  0  0  0  0  0  0
  -21.7610  -26.8035   23.3539 O   0  0  0  0  0  0  0  0  0  0  0  0
  -20.9270  -26.0104   19.9582 O   0  0  0  0  0  0  0  0  0  0  0  0
  -22.8209  -23.6653   17.1325 O   0  0  0  0  0  0  0  0  0  0  0  0
  -27.6438  -22.2857   18.1372 O   0  0  0  0  0  0  0  0  0  0  0  0
  -25.1552   -9.7383   20.6528 O   0  0  0  0  0  0  0  0  0  0  0  0
  -28.6193  -27.4026   19.4973 O   0  0  0  0  0  0  0  0  0  1  0  0
  -22.8174   -6.8287   24.7116 F   0  0  0  0  0  0  0  0  0  0  0  0
  -23.0537   -8.0179   20.1360 F   0  0  0  0  0  0  0  0  0  0  0  0
  1  2  1  0  0  0  0
  1  7  2  0  0  0  0
  2  8  2  0  0  0  0
  3  6  2  0  0  0  0
  3 10  1  0  0  0  0
  4 11  2  0  0  0  0
  4 19  1  0  0  0  0
  5 12  1  0  0  0  0
  5 19  2  0  0  0  0
  6 20  1  0  0  0  0
  7 22  1  0  0  0  0
  8 24  1  0  0  0  0
  9 13  2  0  0  0  0
  9 23  1  0  0  0  0
 10 26  2  0  0  0  0
 11 27  1  0  0  0  0
 12 27  2  0  0  0  0
 13 28  1  0  0  0  0
 14 15  2  0  0  0  0
 14 29  1  0  0  0  0
 15 30  1  0  0  0  0
 16 20  2  0  0  0  0
 16 26  1  0  0  0  0
 17 25  1  0  0  0  0
 17 28  2  0  0  0  0
 18 30  2  0  0  0  0
 18 31  1  0  0  0  0
 19 32  1  0  0  0  0
 20 34  1  0  0  0  0
 21 32  1  0  0  0  0
 21 33  2  0  0  0  0
 21 35  1  0  0  0  0
 22 24  2  0  0  0  0
 22 40  1  0  0  0  0
 23 25  2  0  0  0  0
 23 41  1  0  0  0  0
 24 50  1  0  0  0  0
 25 42  1  0  0  0  0
 26 71  1  0  0  0  0
 27 81  1  0  0  0  0
 28 82  1  0  0  0  0
 29 31  2  0  0  0  0
 29 81  1  0  0  0  0
 30 83  1  0  0  0  0
 31 84  1  0  0  0  0
 32 64  2  0  0  0  0
 33 65  1  0  0  0  0
 33 69  1  0  0  0  0
 34 66  1  0  0  0  0
 34 74  2  0  0  0  0
 35 70  1  0  0  0  0
 35 76  2  0  0  0  0
 36 51  1  0  0  0  0
 36 72  1  0  0  0  0
 36 77  2  0  0  0  0
 37 61  1  0  0  0  0
 37 67  1  0  0  0  0
 37 78  2  0  0  0  0
 38 62  1  0  0  0  0
 38 73  1  0  0  0  0
 38 79  2  0  0  0  0
 39 68  1  0  0  0  0
 39 71  1  0  0  0  0
 39 80  2  0  0  0  0
 40 43  1  0  0  0  0
 41 51  1  0  0  0  0
 42 67  1  0  0  0  0
 43 45  1  0  0  0  0
 44 46  1  0  0  0  0
 44 47  1  0  0  0  0
 45 50  1  0  0  0  0
 46 52  1  0  0  0  0
 47 68  1  0  0  0  0
 48 52  1  0  0  0  0
 48 68  1  0  0  0  0
 49 53  1  0  0  0  0
 49 66  1  0  0  0  0
 50 72  1  0  0  0  0
 51 67  1  0  0  0  0
 52 65  1  0  0  0  0
 53 59  1  0  0  0  0
 53 66  1  0  0  0  0
 54 62  1  0  0  0  0
 55 63  1  0  0  0  0
 56 63  1  0  0  0  0
 57 63  1  0  0  0  0
 58 75  1  0  0  0  0
 59 60  1  0  0  0  0
 60 82  1  0  0  0  0
 61 63  1  0  0  0  0
 61 73  1  0  0  0  0
 62 75  1  0  0  0  0
 64 65  1  0  0  0  0
M  CHG  2  74   1  75   1
M  ISO  4  39 100  60 101  71 100  82 101
M  END
> <Batch ID>
0143

> <Smiles>
CNC(C)C(=O)NC(C(=O)N1Cc2cc([101O:1][101CH2:1]CC3CN3C(=N)c3cccc([100NH:0][100C:0](=O)N4CCCC(n5nc(-c6ccc(Oc7ccc(F)cc7F)cc6)c(C(N)=O)c5N)C4)c3)ccc2CC1C(=O)NC1CCCc2ccccc21)C(C)(C)C

> <Shape>
0.232

> <Color>
0.072

> <Negative vol penalty>
0.000

$$$$

  -OEChem-04052303003D

 88 97  0     1  0  0  0  0  0999 V2000
  -16.5698  -29.8969   24.3244 C   0  0  0  0  0  0  0  0  0  0  0  0
  -17.4893  -29.0761   24.9695 C   0  0  0  0  0  0  0  0  0  0  0  0
  -33.2916  -16.7200   23.3364 C   0  0  0  0  0  0  0  0  0  0  0  0
  -22.8578  -10.2197   20.0124 C   0  0  0  0  0  0  0  0  0  0  0  0
  -23.7219  -10.0492   22.2621 C   0  0  0  0  0  0  0  0  0  0  0  0
  -32.6191  -17.6245   24.1581 C   0  0  0  0  0  0  0  0  0  0  0  0
  -16.5817  -29.9968   22.9338 C   0  0  0  0  0  0  0  0  0  0  0  0
  -18.4206  -28.3538   24.2242 C   0  0  0  0  0  0  0  0  0  0  0  0
  -25.1389  -25.8906   24.5609 C   0  0  0  0  0  0  0  0  0  0  0  0
  -32.5773  -15.9388   22.4279 C   0  0  0  0  0  0  0  0  0  0  0  0
  -22.0167   -9.1333   20.2531 C   0  0  0  0  0  0  0  0  0  0  0  0
  -22.8807   -8.9628   22.5029 C   0  0  0  0  0  0  0  0  0  0  0  0
  -25.8620  -24.7090   24.4037 C   0  0  0  0  0  0  0  0  0  0  0  0
  -19.6217   -8.4529   23.2373 C   0  0  0  0  0  0  0  0  0  0  0  0
  -18.9205   -8.4328   24.4429 C   0  0  0  0  0  0  0  0  0  0  0  0
  -30.5181  -16.9665   23.1630 C   0  0  0  0  0  0  0  0  0  0  0  0
  -25.8400  -25.0209   22.0117 C   0  0  0  0  0  0  0  0  0  0  0  0
  -19.9986   -6.3534   25.0353 C   0  0  0  0  0  0  0  0  0  0  0  0
  -23.7104  -10.6776   21.0169 C   0  0  0  0  0  0  0  0  0  0  0  0
  -31.2324  -17.7477   24.0714 C   0  0  0  0  0  0  0  0  0  0  0  0
  -24.2930  -13.1610   20.9822 C   0  0  0  0  0  0  0  0  0  0  0  0
  -17.5198  -29.2828   22.1717 C   0  0  0  0  0  0  0  0  0  0  0  0
  -24.7509  -26.6418   23.4421 C   0  0  0  0  0  0  0  0  0  0  0  0
  -18.4441  -28.4431   22.8220 C   0  0  0  0  0  0  0  0  0  0  0  0
  -25.1143  -26.2130   22.1576 C   0  0  0  0  0  0  0  0  0  0  0  0
  -31.1906  -16.0620   22.3412 C   0  0  0  0  0  0  0  0  0  0  0  0
  -22.0281   -8.5049   21.4983 C   0  0  0  0  0  0  0  0  0  0  0  0
  -26.2102  -24.2725   23.1288 C   0  0  0  0  0  0  0  0  0  0  0  0
  -20.5113   -7.4232   22.9306 C   0  0  0  0  0  0  0  0  0  0  0  0
  -19.1090   -7.3831   25.3419 C   0  0  0  0  0  0  0  0  0  0  0  0
  -20.6998   -6.3735   23.8296 C   0  0  0  0  0  0  0  0  0  0  0  0
  -24.5799  -11.7994   20.7687 C   0  0  0  0  0  0  0  0  0  0  0  0
  -25.4352  -13.8176   20.5942 C   0  0  0  0  0  0  0  0  0  0  0  0
  -30.5210  -18.7035   24.9389 C   0  0  0  0  0  0  0  0  0  0  0  0
  -23.1005  -13.7771   21.4864 C   0  0  0  0  0  0  0  0  0  0  0  0
  -21.9662  -27.5233   22.1882 C   0  0  0  0  0  0  0  0  0  0  0  0
  -23.8547  -29.2369   20.1833 C   0  0  0  0  0  0  0  0  0  0  0  0
  -26.9088  -29.6361   18.7137 C   0  0  0  0  0  0  0  0  0  0  0  0
  -30.9799  -14.3232   20.5306 C   0  0  0  0  0  0  0  0  0  0  0  0
  -17.4632  -29.3861   20.6681 C   0  0  0  0  0  0  0  0  0  0  0  0
  -23.9942  -27.9281   23.6302 C   0  0  0  0  0  0  0  0  0  0  0  0
  -24.7395  -26.9937   20.9253 C   0  0  0  0  0  0  0  0  0  0  0  0
  -18.7247  -28.8778   19.9747 C   0  0  0  0  0  0  0  0  0  0  0  0
  -29.5231  -12.1380   18.1264 C   0  0  0  0  0  0  0  0  0  0  0  0
  -19.1506  -27.5347   20.5590 C   0  0  0  0  0  0  0  0  0  0  0  0
  -28.0836  -11.9671   18.6171 C   0  0  0  0  0  0  0  0  0  0  0  0
  -29.3183  -21.5009   22.9877 C   0  0  0  0  0  0  0  0  0  0  0  0
  -30.5119  -12.2228   19.2878 C   0  0  0  0  0  0  0  0  0  0  0  0
  -30.1871  -20.2535   23.0838 C   0  0  0  0  0  0  0  0  0  0  0  0
  -28.7526  -13.0639   20.7934 C   0  0  0  0  0  0  0  0  0  0  0  0
  -19.4858  -27.6630   22.0499 C   0  0  1  0  0  0  0  0  0  0  0  0
  -23.2076  -28.3452   22.3914 C   0  0  1  0  0  0  0  0  0  0  0  0
  -27.7131  -13.0388   19.6610 C   0  0  2  0  0  0  0  0  0  0  0  0
  -28.0371  -21.1378   23.7691 C   0  0  2  0  0  0  0  0  0  0  0  0
  -28.6100  -20.3305   24.9948 C   0  0  0  0  0  0  0  0  0  0  0  0
  -27.1202  -20.2877   22.8606 C   0  0  0  0  0  0  0  0  0  0  0  0
  -27.6424  -19.2789   25.5470 C   0  0  0  0  0  0  0  0  0  0  0  0
  -29.1131  -21.2176   26.1464 C   0  0  0  0  0  0  0  0  0  0  0  0
  -28.1380  -31.1055   17.0928 C   0  0  0  0  0  0  0  0  0  0  0  0
  -22.3969  -27.8936   17.8638 C   0  0  0  0  0  0  0  0  0  0  0  0
  -24.2496  -28.6439   16.3562 C   0  0  0  0  0  0  0  0  0  0  0  0
  -22.8467  -30.3324   17.5409 C   0  0  0  0  0  0  0  0  0  0  0  0
  -28.8861  -30.4406   20.7635 C   0  0  0  0  0  0  0  0  0  0  0  0
  -27.2656  -22.4063   24.1580 C   0  0  0  0  0  0  0  0  0  1  0  0
  -24.5230  -28.9713   18.8560 C   0  0  1  0  0  0  0  0  0  0  0  0
  -27.7980  -30.8560   18.5540 C   0  0  2  0  0  0  0  0  0  0  0  0
  -23.5096  -28.9444   17.6771 C   0  0  0  0  0  0  0  0  0  0  0  0
  -25.8081  -11.6014   20.2825 N   0  0  0  0  0  0  0  0  0  0  0  0
  -26.3030  -12.8472   20.1873 N   0  0  0  0  0  0  0  0  0  0  0  0
  -29.8122  -19.6778   24.3894 N   0  0  0  0  0  0  0  0  0  0  0  0
  -23.9944  -28.2415   21.1608 N   0  0  0  0  0  0  0  0  0  0  0  0
  -30.0990  -13.2617   20.2339 N   0  0  0  0  0  0  0  0  0  0  0  0
  -25.7719  -15.1246   20.5647 N   0  0  0  0  0  0  0  0  0  0  0  0
  -22.0211  -12.9551   21.8379 N   0  0  0  0  0  0  0  0  0  0  0  0
  -30.4659  -15.2681   21.4181 N   0  0  0  0  0  0  0  0  0  0  0  0
  -20.7947  -28.2553   22.2244 N   0  0  0  0  0  0  0  0  0  0  0  0
  -25.5723  -29.9755   18.7191 N   0  0  0  0  0  0  0  0  0  0  0  0
  -30.6006  -18.5715   26.2597 N   0  3  0  0  0  0  0  0  0  0  0  0
  -29.0704  -30.6717   19.3077 N   0  3  0  0  0  0  0  0  0  0  0  0
  -22.9895  -15.0208   21.6058 O   0  0  0  0  0  0  0  0  0  0  0  0
  -22.0641  -26.3148   22.0103 O   0  0  0  0  0  0  0  0  0  0  0  0
  -23.2376  -30.2921   20.3492 O   0  0  0  0  0  0  0  0  0  0  0  0
  -27.3549  -28.4958   18.8191 O   0  0  0  0  0  0  0  0  0  0  0  0
  -32.0968  -14.4035   20.0129 O   0  0  0  0  0  0  0  0  0  0  0  0
  -21.2073   -7.4449   21.7336 O   0  0  0  0  0  0  0  0  0  0  0  0
  -26.9154  -23.1192   22.9725 O   0  0  0  0  0  0  0  0  0  1  0  0
  -18.4367   -7.3647   26.5003 F   0  0  0  0  0  0  0  0  0  0  0  0
  -21.5540   -5.3820   23.5411 F   0  0  0  0  0  0  0  0  0  0  0  0
  1  2  1  0  0  0  0
  1  7  2  0  0  0  0
  2  8  2  0  0  0  0
  3  6  2  0  0  0  0
  3 10  1  0  0  0  0
  4 11  2  0  0  0  0
  4 19  1  0  0  0  0
  5 12  1  0  0  0  0
  5 19  2  0  0  0  0
  6 20  1  0  0  0  0
  7 22  1  0  0  0  0
  8 24  1  0  0  0  0
  9 13  2  0  0  0  0
  9 23  1  0  0  0  0
 10 26  2  0  0  0  0
 11 27  1  0  0  0  0
 12 27  2  0  0  0  0
 13 28  1  0  0  0  0
 14 15  2  0  0  0  0
 14 29  1  0  0  0  0
 15 30  1  0  0  0  0
 16 20  2  0  0  0  0
 16 26  1  0  0  0  0
 17 25  1  0  0  0  0
 17 28  2  0  0  0  0
 18 30  2  0  0  0  0
 18 31  1  0  0  0  0
 19 32  1  0  0  0  0
 20 34  1  0  0  0  0
 21 32  1  0  0  0  0
 21 33  2  0  0  0  0
 21 35  1  0  0  0  0
 22 24  2  0  0  0  0
 22 40  1  0  0  0  0
 23 25  2  0  0  0  0
 23 41  1  0  0  0  0
 24 51  1  0  0  0  0
 25 42  1  0  0  0  0
 26 75  1  0  0  0  0
 27 85  1  0  0  0  0
 28 86  1  0  0  0  0
 29 31  2  0  0  0  0
 29 85  1  0  0  0  0
 30 87  1  0  0  0  0
 31 88  1  0  0  0  0
 32 68  2  0  0  0  0
 33 69  1  0  0  0  0
 33 73  1  0  0  0  0
 34 70  1  0  0  0  0
 34 78  2  0  0  0  0
 35 74  1  0  0  0  0
 35 80  2  0  0  0  0
 36 52  1  0  0  0  0
 36 76  1  0  0  0  0
 36 81  2  0  0  0  0
 37 65  1  0  0  0  0
 37 71  1  0  0  0  0
 37 82  2  0  0  0  0
 38 66  1  0  0  0  0
 38 77  1  0  0  0  0
 38 83  2  0  0  0  0
 39 72  1  0  0  0  0
 39 75  1  0  0  0  0
 39 84  2  0  0  0  0
 40 43  1  0  0  0  0
 41 52  1  0  0  0  0
 42 71  1  0  0  0  0
 43 45  1  0  0  0  0
 44 46  1  0  0  0  0
 44 48  1  0  0  0  0
 45 51  1  0  0  0  0
 46 53  1  0  0  0  0
 47 49  1  0  0  0  0
 47 54  1  0  0  0  0
 48 72  1  0  0  0  0
 49 70  1  0  0  0  0
 50 53  1  0  0  0  0
 50 72  1  0  0  0  0
 51 76  1  0  0  0  0
 52 71  1  0  0  0  0
 53 69  1  0  0  0  0
 54 55  1  0  0  0  0
 54 56  1  0  0  0  0
 54 64  1  0  0  0  0
 55 57  1  0  0  0  0
 55 58  1  0  0  0  0
 55 70  1  0  0  0  0
 59 66  1  0  0  0  0
 60 67  1  0  0  0  0
 61 67  1  0  0  0  0
 62 67  1  0  0  0  0
 63 79  1  0  0  0  0
 64 86  1  0  0  0  0
 65 67  1  0  0  0  0
 65 77  1  0  0  0  0
 66 79  1  0  0  0  0
 68 69  1  0  0  0  0
M  CHG  2  78   1  79   1
M  ISO  4  39 100  64 101  75 100  86 101
M  END
> <Batch ID>
0143

> <Smiles>
CNC(C)C(=O)NC(C(=O)N1Cc2cc([101O:1][101CH2:1]C3(C)CCN(C(=N)c4cccc([100NH:0][100C:0](=O)N5CCCC(n6nc(-c7ccc(Oc8ccc(F)cc8F)cc7)c(C(N)=O)c6N)C5)c4)C3(C)C)ccc2CC1C(=O)NC1CCCc2ccccc21)C(C)(C)C

> <Shape>
0.259

> <Color>
0.184

> <Negative vol penalty>
0.000

$$$$

  -OEChem-04052303003D

 84 93  0     1  0  0  0  0  0999 V2000
  -39.4948  -29.5589   26.5157 C   0  0  0  0  0  0  0  0  0  0  0  0
  -39.4328  -28.3108   25.9044 C   0  0  0  0  0  0  0  0  0  0  0  0
  -23.0003   -9.8921   19.9815 C   0  0  0  0  0  0  0  0  0  0  0  0
  -23.7257   -9.9448   22.2855 C   0  0  0  0  0  0  0  0  0  0  0  0
  -38.5188  -30.5166   26.2432 C   0  0  0  0  0  0  0  0  0  0  0  0
  -38.3941  -28.0192   25.0210 C   0  0  0  0  0  0  0  0  0  0  0  0
  -38.6998  -24.5162   20.0068 C   0  0  0  0  0  0  0  0  0  0  0  0
  -22.2343   -8.7575   20.2486 C   0  0  0  0  0  0  0  0  0  0  0  0
  -22.9596   -8.8101   22.5526 C   0  0  0  0  0  0  0  0  0  0  0  0
  -38.3533  -23.1870   19.7687 C   0  0  0  0  0  0  0  0  0  0  0  0
  -23.2052   -5.4710   22.0826 C   0  0  0  0  0  0  0  0  0  0  0  0
  -23.7932   -4.4545   22.8353 C   0  0  0  0  0  0  0  0  0  0  0  0
  -31.0288  -18.8951   22.7810 C   0  0  0  0  0  0  0  0  0  0  0  0
  -30.0402  -17.8875   22.6774 C   0  0  0  0  0  0  0  0  0  0  0  0
  -36.2135  -23.9038   18.9162 C   0  0  0  0  0  0  0  0  0  0  0  0
  -22.0694   -4.6977   24.5105 C   0  0  0  0  0  0  0  0  0  0  0  0
  -23.7461  -10.4857   21.0000 C   0  0  0  0  0  0  0  0  0  0  0  0
  -24.1303  -13.0014   20.8224 C   0  0  0  0  0  0  0  0  0  0  0  0
  -37.4729  -30.2399   25.3486 C   0  0  0  0  0  0  0  0  0  0  0  0
  -37.8000  -25.5503   19.7111 C   0  0  0  0  0  0  0  0  0  0  0  0
  -37.4024  -28.9736   24.7373 C   0  0  0  0  0  0  0  0  0  0  0  0
  -36.5521  -25.2456   19.1491 C   0  0  0  0  0  0  0  0  0  0  0  0
  -22.2139   -8.2165   21.5341 C   0  0  0  0  0  0  0  0  0  0  0  0
  -37.1088  -22.8804   19.2260 C   0  0  0  0  0  0  0  0  0  0  0  0
  -22.0493   -6.1009   22.5439 C   0  0  0  0  0  0  0  0  0  0  0  0
  -23.2253   -4.0678   24.0492 C   0  0  0  0  0  0  0  0  0  0  0  0
  -21.4814   -5.7143   23.7579 C   0  0  0  0  0  0  0  0  0  0  0  0
  -24.5380  -11.6575   20.7246 C   0  0  0  0  0  0  0  0  0  0  0  0
  -25.2398  -13.7242   20.4575 C   0  0  0  0  0  0  0  0  0  0  0  0
  -32.1143  -18.4398   22.0693 C   0  0  0  0  0  0  0  0  0  0  0  0
  -30.5920  -16.8885   21.9095 C   0  0  0  0  0  0  0  0  0  0  0  0
  -35.4550  -19.3882   20.9240 C   0  0  0  0  0  0  0  0  0  0  0  0
  -22.8622  -13.5475   21.2088 C   0  0  0  0  0  0  0  0  0  0  0  0
  -36.3965  -19.4325   19.9754 C   0  0  0  0  0  0  0  0  0  0  0  0
  -36.3111  -27.7836   21.4138 C   0  0  0  0  0  0  0  0  0  0  0  0
  -35.3491  -28.8164   18.4931 C   0  0  0  0  0  0  0  0  0  0  0  0
  -34.7388  -28.0821   15.2167 C   0  0  0  0  0  0  0  0  0  0  0  0
  -30.7189  -14.6876   20.6905 C   0  0  0  0  0  0  0  0  0  0  0  0
  -36.4147  -31.2903   25.1218 C   0  0  0  0  0  0  0  0  0  0  0  0
  -38.1994  -26.9808   19.9490 C   0  0  0  0  0  0  0  0  0  0  0  0
  -35.5581  -26.3203   18.7949 C   0  0  0  0  0  0  0  0  0  0  0  0
  -35.2344  -20.4377   21.9669 C   0  0  0  0  0  0  0  0  0  0  0  0
  -34.3888  -18.3395   21.0291 C   0  0  0  0  0  0  0  0  0  0  0  0
  -35.5559  -31.0329   23.8862 C   0  0  0  0  0  0  0  0  0  0  0  0
  -29.6013  -12.2330   18.3660 C   0  0  0  0  0  0  0  0  0  0  0  0
  -35.1035  -29.5768   23.8445 C   0  0  0  0  0  0  0  0  0  0  0  0
  -28.1509  -11.9750   18.7804 C   0  0  0  0  0  0  0  0  0  0  0  0
  -33.7330  -20.3490   22.2258 C   0  0  0  0  0  0  0  0  0  0  0  0
  -30.5019  -12.4774   19.5755 C   0  0  0  0  0  0  0  0  0  0  0  0
  -28.5864  -13.2662   20.9088 C   0  0  0  0  0  0  0  0  0  0  0  0
  -36.3050  -28.6282   23.7541 C   0  0  1  0  0  0  0  0  0  0  0  0
  -37.0049  -27.9195   20.0879 C   0  0  1  0  0  0  0  0  0  0  0  0
  -27.6286  -13.0789   19.7208 C   0  0  2  0  0  0  0  0  0  0  0  0
  -36.5472  -18.3315   18.9656 C   0  0  0  0  0  0  0  0  0  0  0  0
  -33.9238  -29.1225   13.0834 C   0  0  0  0  0  0  0  0  0  0  0  0
  -32.4835  -28.7015   19.5347 C   0  0  0  0  0  0  0  0  0  0  0  0
  -31.6906  -28.8140   17.1626 C   0  0  0  0  0  0  0  0  0  0  0  0
  -33.0027  -30.7031   18.1282 C   0  0  0  0  0  0  0  0  0  0  0  0
  -37.3017  -27.5427   13.8384 C   0  0  0  0  0  0  0  0  0  0  0  0
  -37.3371  -20.5979   19.8536 C   0  0  0  0  0  0  0  0  0  1  0  0
  -34.1737  -28.5278   17.5908 C   0  0  1  0  0  0  0  0  0  0  0  0
  -35.1393  -28.7891   13.9344 C   0  0  2  0  0  0  0  0  0  0  0  0
  -32.8554  -29.1660   18.1124 C   0  0  0  0  0  0  0  0  0  0  0  0
  -25.8073  -11.5313   20.3284 N   0  0  0  0  0  0  0  0  0  0  0  0
  -26.2068  -12.8051   20.1740 N   0  0  0  0  0  0  0  0  0  0  0  0
  -33.3546  -18.9960   21.8250 N   0  0  3  0  0  0  0  0  0  0  0  0
  -35.9926  -27.7032   19.0522 N   0  0  0  0  0  0  0  0  0  0  0  0
  -29.9465  -13.5386   20.4183 N   0  0  0  0  0  0  0  0  0  0  0  0
  -25.4727  -15.0499   20.3546 N   0  0  0  0  0  0  0  0  0  0  0  0
  -21.8308  -12.6631   21.5529 N   0  0  0  0  0  0  0  0  0  0  0  0
  -30.0743  -15.6429   21.4756 N   0  0  0  0  0  0  0  0  0  0  0  0
  -36.8253  -28.5987   22.4040 N   0  0  0  0  0  0  0  0  0  0  0  0
  -34.5649  -28.9704   16.2568 N   0  0  0  0  0  0  0  0  0  0  0  0
  -36.0530  -27.9279   13.1317 N   0  3  0  0  0  0  0  0  0  0  0  0
  -22.6450  -14.7827   21.2318 O   0  0  0  0  0  0  0  0  0  0  0  0
  -35.3773  -26.9984   21.5294 O   0  0  0  0  0  0  0  0  0  0  0  0
  -35.6883  -29.9861   18.6888 O   0  0  0  0  0  0  0  0  0  0  0  0
  -34.5911  -26.8640   15.2875 O   0  0  0  0  0  0  0  0  0  0  0  0
  -31.8575  -14.8267   20.2363 O   0  0  0  0  0  0  0  0  0  0  0  0
  -31.8561  -17.2175   21.5348 O   0  0  0  0  0  0  0  0  0  0  0  0
  -21.4663   -7.1094   21.7952 O   0  0  0  0  0  0  0  0  0  0  0  0
  -36.7678  -21.5837   18.9932 O   0  0  0  0  0  0  0  0  0  1  0  0
  -23.7893   -3.0906   24.7711 F   0  0  0  0  0  0  0  0  0  0  0  0
  -20.3703   -6.3149   24.2056 F   0  0  0  0  0  0  0  0  0  0  0  0
  1  2  1  0  0  0  0
  1  5  2  0  0  0  0
  2  6  2  0  0  0  0
  3  8  2  0  0  0  0
  3 17  1  0  0  0  0
  4  9  1  0  0  0  0
  4 17  2  0  0  0  0
  5 19  1  0  0  0  0
  6 21  1  0  0  0  0
  7 10  2  0  0  0  0
  7 20  1  0  0  0  0
  8 23  1  0  0  0  0
  9 23  2  0  0  0  0
 10 24  1  0  0  0  0
 11 12  2  0  0  0  0
 11 25  1  0  0  0  0
 12 26  1  0  0  0  0
 13 14  1  0  0  0  0
 13 30  2  0  0  0  0
 14 31  2  0  0  0  0
 15 22  1  0  0  0  0
 15 24  2  0  0  0  0
 16 26  2  0  0  0  0
 16 27  1  0  0  0  0
 17 28  1  0  0  0  0
 18 28  1  0  0  0  0
 18 29  2  0  0  0  0
 18 33  1  0  0  0  0
 19 21  2  0  0  0  0
 19 39  1  0  0  0  0
 20 22  2  0  0  0  0
 20 40  1  0  0  0  0
 21 51  1  0  0  0  0
 22 41  1  0  0  0  0
 23 81  1  0  0  0  0
 24 82  1  0  0  0  0
 25 27  2  0  0  0  0
 25 81  1  0  0  0  0
 26 83  1  0  0  0  0
 27 84  1  0  0  0  0
 28 64  2  0  0  0  0
 29 65  1  0  0  0  0
 29 69  1  0  0  0  0
 30 66  1  0  0  0  0
 30 80  1  0  0  0  0
 31 71  1  0  0  0  0
 31 80  1  0  0  0  0
 32 34  2  0  0  0  0
 32 42  1  0  0  0  0
 32 43  1  0  0  0  0
 33 70  1  0  0  0  0
 33 75  2  0  0  0  0
 34 54  1  0  0  0  0
 34 60  1  0  0  0  0
 35 52  1  0  0  0  0
 35 72  1  0  0  0  0
 35 76  2  0  0  0  0
 36 61  1  0  0  0  0
 36 67  1  0  0  0  0
 36 77  2  0  0  0  0
 37 62  1  0  0  0  0
 37 73  1  0  0  0  0
 37 78  2  0  0  0  0
 38 68  1  0  0  0  0
 38 71  1  0  0  0  0
 38 79  2  0  0  0  0
 39 44  1  0  0  0  0
 40 52  1  0  0  0  0
 41 67  1  0  0  0  0
 42 48  1  0  0  0  0
 43 66  1  0  0  0  0
 44 46  1  0  0  0  0
 45 47  1  0  0  0  0
 45 49  1  0  0  0  0
 46 51  1  0  0  0  0
 47 53  1  0  0  0  0
 48 66  1  0  0  0  0
 49 68  1  0  0  0  0
 50 53  1  0  0  0  0
 50 68  1  0  0  0  0
 51 72  1  0  0  0  0
 52 67  1  0  0  0  0
 53 65  1  0  0  0  0
 55 62  1  0  0  0  0
 56 63  1  0  0  0  0
 57 63  1  0  0  0  0
 58 63  1  0  0  0  0
 59 74  1  0  0  0  0
 60 82  1  0  0  0  0
 61 63  1  0  0  0  0
 61 73  1  0  0  0  0
 62 74  1  0  0  0  0
 64 65  1  0  0  0  0
M  CHG  1  74   1
M  ISO  4  38 100  60 101  71 100  82 101
M  END
> <Batch ID>
0143

> <Smiles>
CNC(C)C(=O)NC(C(=O)N1Cc2cc([101O:1][101CH2:1]C(C)=C3CCN(c4ccc([100NH:0][100C:0](=O)N5CCCC(n6nc(-c7ccc(Oc8ccc(F)cc8F)cc7)c(C(N)=O)c6N)C5)o4)C3)ccc2CC1C(=O)NC1CCCc2ccccc21)C(C)(C)C

> <Shape>
0.175

> <Color>
0.194

> <Negative vol penalty>
0.000

$$$$

  -OEChem-04052303003D

 84 92  0     1  0  0  0  0  0999 V2000
  -14.1700  -21.2462   22.2919 C   0  0  0  0  0  0  0  0  0  0  0  0
  -15.4939  -20.9323   22.0015 C   0  0  0  0  0  0  0  0  0  0  0  0
  -23.0757   -9.8674   19.9414 C   0  0  0  0  0  0  0  0  0  0  0  0
  -23.8333   -9.8767   22.2355 C   0  0  0  0  0  0  0  0  0  0  0  0
  -13.8589  -22.4676   22.8878 C   0  0  0  0  0  0  0  0  0  0  0  0
  -16.5074  -21.8404   22.3060 C   0  0  0  0  0  0  0  0  0  0  0  0
  -22.2010  -20.5244   24.1382 C   0  0  0  0  0  0  0  0  0  0  0  0
  -22.3313   -8.7147   20.1919 C   0  0  0  0  0  0  0  0  0  0  0  0
  -23.0888   -8.7241   22.4861 C   0  0  0  0  0  0  0  0  0  0  0  0
  -23.4140  -20.4549   23.4543 C   0  0  0  0  0  0  0  0  0  0  0  0
  -19.8599   -7.9278   23.0862 C   0  0  0  0  0  0  0  0  0  0  0  0
  -19.1017   -7.8894   24.2564 C   0  0  0  0  0  0  0  0  0  0  0  0
  -31.8840  -18.8123   22.3684 C   0  0  0  0  0  0  0  0  0  0  0  0
  -31.7968  -17.5524   21.7087 C   0  0  0  0  0  0  0  0  0  0  0  0
  -23.9154  -22.7169   24.1260 C   0  0  0  0  0  0  0  0  0  0  0  0
  -20.3418   -5.9525   24.9963 C   0  0  0  0  0  0  0  0  0  0  0  0
  -23.8268  -10.4484   20.9632 C   0  0  0  0  0  0  0  0  0  0  0  0
  -24.1694  -12.9733   20.8407 C   0  0  0  0  0  0  0  0  0  0  0  0
  -14.8701  -23.3870   23.2086 C   0  0  0  0  0  0  0  0  0  0  0  0
  -21.8306  -21.6965   24.8132 C   0  0  0  0  0  0  0  0  0  0  0  0
  -16.2094  -23.0758   22.9056 C   0  0  0  0  0  0  0  0  0  0  0  0
  -22.6984  -22.7978   24.8198 C   0  0  0  0  0  0  0  0  0  0  0  0
  -22.3378   -8.1431   21.4642 C   0  0  0  0  0  0  0  0  0  0  0  0
  -24.2701  -21.5522   23.4457 C   0  0  0  0  0  0  0  0  0  0  0  0
  -20.8590   -6.9785   22.8710 C   0  0  0  0  0  0  0  0  0  0  0  0
  -19.3427   -6.9018   25.2114 C   0  0  0  0  0  0  0  0  0  0  0  0
  -21.1000   -5.9909   23.8260 C   0  0  0  0  0  0  0  0  0  0  0  0
  -24.5965  -11.6388   20.7049 C   0  0  0  0  0  0  0  0  0  0  0  0
  -30.7356  -19.1105   23.0683 C   0  0  0  0  0  0  0  0  0  0  0  0
  -25.2622  -13.7221   20.4777 C   0  0  0  0  0  0  0  0  0  0  0  0
  -30.5851  -16.9354   21.9299 C   0  0  0  0  0  0  0  0  0  0  0  0
  -22.8987  -13.4899   21.2577 C   0  0  0  0  0  0  0  0  0  0  0  0
  -30.4283  -20.3043   23.8756 C   0  0  0  0  0  0  0  0  0  0  0  0
  -19.4440  -23.7790   24.5476 C   0  0  0  0  0  0  0  0  0  0  0  0
  -20.7507  -25.0275   27.2413 C   0  0  0  0  0  0  0  0  0  0  0  0
  -23.5081  -25.4094   29.2155 C   0  0  0  0  0  0  0  0  0  0  0  0
  -30.7285  -14.7663   20.6568 C   0  0  0  0  0  0  0  0  0  0  0  0
  -14.4804  -24.7146   23.8089 C   0  0  0  0  0  0  0  0  0  0  0  0
  -20.5309  -21.7462   25.5685 C   0  0  0  0  0  0  0  0  0  0  0  0
  -22.3566  -24.0723   25.5460 C   0  0  0  0  0  0  0  0  0  0  0  0
  -15.6502  -25.4637   24.4418 C   0  0  0  0  0  0  0  0  0  0  0  0
  -29.6158  -12.3502   18.2900 C   0  0  0  0  0  0  0  0  0  0  0  0
  -16.8570  -25.4554   23.5088 C   0  0  0  0  0  0  0  0  0  0  0  0
  -28.1756  -12.0595   18.7184 C   0  0  0  0  0  0  0  0  0  0  0  0
  -30.5297  -12.5801   19.4923 C   0  0  0  0  0  0  0  0  0  0  0  0
  -28.6216  -13.3066   20.8709 C   0  0  0  0  0  0  0  0  0  0  0  0
  -17.3393  -24.0242   23.2434 C   0  0  1  0  0  0  0  0  0  0  0  0
  -20.0235  -23.1675   25.7917 C   0  0  1  0  0  0  0  0  0  0  0  0
  -27.6499  -13.1323   19.6923 C   0  0  2  0  0  0  0  0  0  0  0  0
  -24.2769  -26.5148   31.3332 C   0  0  0  0  0  0  0  0  0  0  0  0
  -31.5003  -22.5432   23.9608 C   0  0  0  0  0  0  0  0  0  0  0  0
  -30.7426  -21.7061   21.7265 C   0  0  0  0  0  0  0  0  0  0  0  0
  -20.8345  -27.7175   25.8038 C   0  0  0  0  0  0  0  0  0  0  0  0
  -22.4354  -28.5232   27.5520 C   0  0  0  0  0  0  0  0  0  0  0  0
  -20.1262  -27.8365   28.1993 C   0  0  0  0  0  0  0  0  0  0  0  0
  -24.1906  -22.8125   30.4604 C   0  0  0  0  0  0  0  0  0  0  0  0
  -27.8471  -21.5825   22.9481 C   0  0  0  0  0  0  0  0  0  0  0  0
  -29.0466  -22.3706   23.4864 C   0  0  0  0  0  0  0  0  0  0  0  0
  -26.5315  -22.2714   23.2892 C   0  0  0  0  0  0  0  0  0  1  0  0
  -21.8054  -26.0668   27.5354 C   0  0  1  0  0  0  0  0  0  0  0  0
  -23.7053  -25.2497   30.7122 C   0  0  2  0  0  0  0  0  0  0  0  0
  -30.4316  -21.7068   23.2323 C   0  0  0  0  0  0  0  0  0  0  0  0
  -21.3063  -27.5128   27.2572 C   0  0  0  0  0  0  0  0  0  0  0  0
  -25.8617  -11.5421   20.2880 N   0  0  0  0  0  0  0  0  0  0  0  0
  -26.2391  -12.8254   20.1586 N   0  0  0  0  0  0  0  0  0  0  0  0
  -21.0717  -24.0741   26.2647 N   0  0  0  0  0  0  0  0  0  0  0  0
  -29.9702  -13.6120   20.3680 N   0  0  0  0  0  0  0  0  0  0  0  0
  -25.4730  -15.0534   20.4033 N   0  0  0  0  0  0  0  0  0  0  0  0
  -21.8862  -12.5814   21.5950 N   0  0  0  0  0  0  0  0  0  0  0  0
  -30.0806  -15.6924   21.4736 N   0  0  0  0  0  0  0  0  0  0  0  0
  -18.0964  -23.5284   24.3727 N   0  0  0  0  0  0  0  0  0  0  0  0
  -22.2329  -25.8365   28.9111 N   0  0  0  0  0  0  0  0  0  0  0  0
  -24.6402  -24.1239   30.9943 N   0  3  0  0  0  0  0  0  0  0  0  0
  -22.6627  -14.7207   21.3134 O   0  0  0  0  0  0  0  0  0  0  0  0
  -30.1865  -20.1196   25.0679 O   0  0  0  0  0  0  0  0  0  0  0  0
  -20.1657  -24.4312   23.8023 O   0  0  0  0  0  0  0  0  0  0  0  0
  -19.6842  -25.0561   27.8605 O   0  0  0  0  0  0  0  0  0  0  0  0
  -24.3976  -25.1818   28.3985 O   0  0  0  0  0  0  0  0  0  0  0  0
  -31.8581  -14.9342   20.1901 O   0  0  0  0  0  0  0  0  0  0  0  0
  -21.6113   -7.0184   21.7091 O   0  0  0  0  0  0  0  0  0  0  0  0
  -25.4543  -21.4872   22.7784 O   0  0  0  0  0  0  0  0  0  1  0  0
  -18.6156   -6.8659   26.3358 F   0  0  0  0  0  0  0  0  0  0  0  0
  -22.0592   -5.0769   23.6254 F   0  0  0  0  0  0  0  0  0  0  0  0
  -29.5589  -17.8742   22.9289 S   0  0  0  0  0  0  0  0  0  0  0  0
  1  2  1  0  0  0  0
  1  5  2  0  0  0  0
  2  6  2  0  0  0  0
  3  8  2  0  0  0  0
  3 17  1  0  0  0  0
  4  9  1  0  0  0  0
  4 17  2  0  0  0  0
  5 19  1  0  0  0  0
  6 21  1  0  0  0  0
  7 10  2  0  0  0  0
  7 20  1  0  0  0  0
  8 23  1  0  0  0  0
  9 23  2  0  0  0  0
 10 24  1  0  0  0  0
 11 12  2  0  0  0  0
 11 25  1  0  0  0  0
 12 26  1  0  0  0  0
 13 14  1  0  0  0  0
 13 29  2  0  0  0  0
 14 31  2  0  0  0  0
 15 22  1  0  0  0  0
 15 24  2  0  0  0  0
 16 26  2  0  0  0  0
 16 27  1  0  0  0  0
 17 28  1  0  0  0  0
 18 28  1  0  0  0  0
 18 30  2  0  0  0  0
 18 32  1  0  0  0  0
 19 21  2  0  0  0  0
 19 38  1  0  0  0  0
 20 22  2  0  0  0  0
 20 39  1  0  0  0  0
 21 47  1  0  0  0  0
 22 40  1  0  0  0  0
 23 80  1  0  0  0  0
 24 81  1  0  0  0  0
 25 27  2  0  0  0  0
 25 80  1  0  0  0  0
 26 82  1  0  0  0  0
 27 83  1  0  0  0  0
 28 64  2  0  0  0  0
 29 33  1  0  0  0  0
 29 84  1  0  0  0  0
 30 65  1  0  0  0  0
 30 68  1  0  0  0  0
 31 70  1  0  0  0  0
 31 84  1  0  0  0  0
 32 69  1  0  0  0  0
 32 74  2  0  0  0  0
 33 62  1  0  0  0  0
 33 75  2  0  0  0  0
 34 48  1  0  0  0  0
 34 71  1  0  0  0  0
 34 76  2  0  0  0  0
 35 60  1  0  0  0  0
 35 66  1  0  0  0  0
 35 77  2  0  0  0  0
 36 61  1  0  0  0  0
 36 72  1  0  0  0  0
 36 78  2  0  0  0  0
 37 67  1  0  0  0  0
 37 70  1  0  0  0  0
 37 79  2  0  0  0  0
 38 41  1  0  0  0  0
 39 48  1  0  0  0  0
 40 66  1  0  0  0  0
 41 43  1  0  0  0  0
 42 44  1  0  0  0  0
 42 45  1  0  0  0  0
 43 47  1  0  0  0  0
 44 49  1  0  0  0  0
 45 67  1  0  0  0  0
 46 49  1  0  0  0  0
 46 67  1  0  0  0  0
 47 71  1  0  0  0  0
 48 66  1  0  0  0  0
 49 65  1  0  0  0  0
 50 61  1  0  0  0  0
 51 62  1  0  0  0  0
 52 62  1  0  0  0  0
 53 63  1  0  0  0  0
 54 63  1  0  0  0  0
 55 63  1  0  0  0  0
 56 73  1  0  0  0  0
 57 58  1  0  0  0  0
 57 59  1  0  0  0  0
 58 62  1  0  0  0  0
 59 81  1  0  0  0  0
 60 63  1  0  0  0  0
 60 72  1  0  0  0  0
 61 73  1  0  0  0  0
 64 65  1  0  0  0  0
M  CHG  1  73   1
M  ISO  4  37 100  59 101  70 100  81 101
M  END
> <Batch ID>
0143

> <Smiles>
CNC(C)C(=O)NC(C(=O)N1Cc2cc([101O:1][101CH2:1]CCC(C)(C)C(=O)c3ccc([100NH:0][100C:0](=O)N4CCCC(n5nc(-c6ccc(Oc7ccc(F)cc7F)cc6)c(C(N)=O)c5N)C4)s3)ccc2CC1C(=O)NC1CCCc2ccccc21)C(C)(C)C

> <Shape>
0.175

> <Color>
0.192

> <Negative vol penalty>
0.000

$$$$

  -OEChem-04052303003D

 89 97  0     1  0  0  0  0  0999 V2000
  -25.0237  -26.3790   18.9056 C   0  0  0  0  0  0  0  0  0  0  0  0
  -25.3397  -25.8441   20.1503 C   0  0  0  0  0  0  0  0  0  0  0  0
  -22.9358  -10.0076   20.0267 C   0  0  0  0  0  0  0  0  0  0  0  0
  -23.6492  -10.0871   22.3336 C   0  0  0  0  0  0  0  0  0  0  0  0
  -24.7054  -27.7314   18.7897 C   0  0  0  0  0  0  0  0  0  0  0  0
  -25.3387  -26.6617   21.2799 C   0  0  0  0  0  0  0  0  0  0  0  0
  -23.0354  -24.5023   25.2392 C   0  0  0  0  0  0  0  0  0  0  0  0
  -22.1386   -8.8990   20.3114 C   0  0  0  0  0  0  0  0  0  0  0  0
  -22.8520   -8.9785   22.6183 C   0  0  0  0  0  0  0  0  0  0  0  0
  -23.7538  -23.5389   25.9461 C   0  0  0  0  0  0  0  0  0  0  0  0
  -23.0122   -5.6254   22.2160 C   0  0  0  0  0  0  0  0  0  0  0  0
  -23.5690   -4.6090   22.9923 C   0  0  0  0  0  0  0  0  0  0  0  0
  -24.2924  -25.1829   27.6273 C   0  0  0  0  0  0  0  0  0  0  0  0
  -29.9907  -17.4451   23.0314 C   0  0  0  0  0  0  0  0  0  0  0  0
  -31.9791  -18.3109   24.0962 C   0  0  0  0  0  0  0  0  0  0  0  0
  -32.1479  -16.4801   22.5287 C   0  0  0  0  0  0  0  0  0  0  0  0
  -21.8427   -4.9307   24.6517 C   0  0  0  0  0  0  0  0  0  0  0  0
  -23.6911  -10.6016   21.0378 C   0  0  0  0  0  0  0  0  0  0  0  0
  -24.1426  -13.1023   20.8129 C   0  0  0  0  0  0  0  0  0  0  0  0
  -24.6911  -28.5640   19.9199 C   0  0  0  0  0  0  0  0  0  0  0  0
  -22.9491  -25.8181   25.7163 C   0  0  0  0  0  0  0  0  0  0  0  0
  -25.0212  -28.0269   21.1788 C   0  0  0  0  0  0  0  0  0  0  0  0
  -23.5702  -26.1604   26.9259 C   0  0  0  0  0  0  0  0  0  0  0  0
  -30.5972  -18.3439   23.9088 C   0  0  0  0  0  0  0  0  0  0  0  0
  -30.7660  -16.5131   22.3414 C   0  0  0  0  0  0  0  0  0  0  0  0
  -22.0967   -8.3844   21.6072 C   0  0  0  0  0  0  0  0  0  0  0  0
  -24.3849  -23.8798   27.1388 C   0  0  0  0  0  0  0  0  0  0  0  0
  -21.8707   -6.2945   22.6576 C   0  0  0  0  0  0  0  0  0  0  0  0
  -22.9842   -4.2616   24.2101 C   0  0  0  0  0  0  0  0  0  0  0  0
  -32.7544  -17.3790   23.4061 C   0  0  0  0  0  0  0  0  0  0  0  0
  -21.2859   -5.9471   23.8754 C   0  0  0  0  0  0  0  0  0  0  0  0
  -24.5153  -11.7465   20.7441 C   0  0  0  0  0  0  0  0  0  0  0  0
  -25.2727  -13.7883   20.4406 C   0  0  0  0  0  0  0  0  0  0  0  0
  -22.8871  -13.6891   21.1804 C   0  0  0  0  0  0  0  0  0  0  0  0
  -23.8571  -28.6630   24.6275 C   0  0  0  0  0  0  0  0  0  0  0  0
  -22.2548  -29.7385   27.2348 C   0  0  0  0  0  0  0  0  0  0  0  0
  -28.4323  -19.4521   24.5519 C   0  0  0  0  0  0  0  0  0  0  0  0
  -21.0579  -29.1012   30.3666 C   0  0  0  0  0  0  0  0  0  0  0  0
  -30.7739  -14.6122   20.6883 C   0  0  0  0  0  0  0  0  0  0  0  0
  -24.3868  -30.0299   19.7378 C   0  0  0  0  0  0  0  0  0  0  0  0
  -22.1480  -26.8389   24.9557 C   0  0  0  0  0  0  0  0  0  0  0  0
  -23.4909  -27.5541   27.4915 C   0  0  0  0  0  0  0  0  0  0  0  0
  -24.0432  -30.7471   21.0408 C   0  0  0  0  0  0  0  0  0  0  0  0
  -29.6053  -12.1418   18.4061 C   0  0  0  0  0  0  0  0  0  0  0  0
  -25.0437  -30.3799   22.1322 C   0  0  0  0  0  0  0  0  0  0  0  0
  -28.1462  -11.9302   18.8166 C   0  0  0  0  0  0  0  0  0  0  0  0
  -30.5051  -12.3866   19.6161 C   0  0  0  0  0  0  0  0  0  0  0  0
  -28.6034  -13.2519   20.9216 C   0  0  0  0  0  0  0  0  0  0  0  0
  -25.0068  -28.8763   22.4312 C   0  0  1  0  0  0  0  0  0  0  0  0
  -22.5562  -28.2746   25.2712 C   0  0  1  0  0  0  0  0  0  0  0  0
  -27.6479  -13.0660   19.7316 C   0  0  2  0  0  0  0  0  0  0  0  0
  -19.8238  -30.1873   32.2626 C   0  0  0  0  0  0  0  0  0  0  0  0
  -24.7847  -31.2596   28.0069 C   0  0  0  0  0  0  0  0  0  0  0  0
  -23.8378  -31.5265   30.3092 C   0  0  0  0  0  0  0  0  0  0  0  0
  -22.6577  -32.5287   28.3533 C   0  0  0  0  0  0  0  0  0  0  0  0
  -27.9668  -22.5265   27.9497 C   0  0  0  0  0  0  0  0  0  0  0  0
  -26.5743  -20.8906   29.1973 C   0  0  0  0  0  0  0  0  0  0  0  0
  -28.9146  -19.5959   27.5946 C   0  0  0  0  0  0  0  0  0  0  0  0
  -18.8372  -27.1528   30.1903 C   0  0  0  0  0  0  0  0  0  0  0  0
  -27.9489  -20.5841   25.4563 C   0  0  0  0  0  0  0  0  0  0  0  0
  -25.6992  -21.8991   27.0683 C   0  0  0  0  0  0  0  0  0  1  0  0
  -22.6193  -30.0209   28.6723 C   0  0  1  0  0  0  0  0  0  0  0  0
  -19.7001  -29.3537   30.9967 C   0  0  2  0  0  0  0  0  0  0  0  0
  -23.4782  -31.3081   28.8241 C   0  0  0  0  0  0  0  0  0  0  0  0
  -26.9765  -21.3469   27.7690 C   0  0  0  0  0  0  0  0  0  0  0  0
  -27.6483  -20.1671   26.9238 C   0  0  2  0  0  0  0  0  0  0  0  0
  -25.7830  -11.5791   20.3584 N   0  0  0  0  0  0  0  0  0  0  0  0
  -26.2167  -12.8387   20.1813 N   0  0  0  0  0  0  0  0  0  0  0  0
  -22.7012  -28.5183   26.7078 N   0  0  0  0  0  0  0  0  0  0  0  0
  -29.9731  -13.4787   20.4342 N   0  0  0  0  0  0  0  0  0  0  0  0
  -25.5410  -15.1052   20.3129 N   0  0  0  0  0  0  0  0  0  0  0  0
  -21.8308  -12.8391   21.5356 N   0  0  0  0  0  0  0  0  0  0  0  0
  -29.8111  -19.2894   24.6094 N   0  0  0  0  0  0  0  0  0  0  0  0
  -30.1502  -15.5996   21.4503 N   0  0  0  0  0  0  0  0  0  0  0  0
  -23.8585  -28.5519   23.2501 N   0  0  0  0  0  0  0  0  0  0  0  0
  -21.3631  -30.0500   29.4138 N   0  0  0  0  0  0  0  0  0  0  0  0
  -26.6745  -19.0114   26.8494 N   0  3  0  0  0  0  0  0  0  0  0  0
  -19.0432  -28.0625   31.3465 N   0  3  0  0  0  0  0  0  0  0  0  0
  -22.7023  -14.9298   21.1777 O   0  0  0  0  0  0  0  0  0  0  0  0
  -24.7900  -29.0372   25.3284 O   0  0  0  0  0  0  0  0  0  0  0  0
  -21.5923  -30.5667   26.6050 O   0  0  0  0  0  0  0  0  0  0  0  0
  -27.6294  -18.7989   23.8910 O   0  0  0  0  0  0  0  0  0  0  0  0
  -21.7775  -28.1588   30.6901 O   0  0  0  0  0  0  0  0  0  0  0  0
  -31.9183  -14.7123   20.2385 O   0  0  0  0  0  0  0  0  0  0  0  0
  -21.3187   -7.3028   21.8854 O   0  0  0  0  0  0  0  0  0  0  0  0
  -25.0913  -22.9362   27.8345 O   0  0  0  0  0  0  0  0  0  1  0  0
  -23.5181   -3.2845   24.9547 F   0  0  0  0  0  0  0  0  0  0  0  0
  -34.0813  -17.3466   23.5864 F   0  0  0  0  0  0  0  0  0  0  0  0
  -20.1885   -6.5855   24.3043 F   0  0  0  0  0  0  0  0  0  0  0  0
  1  2  1  0  0  0  0
  1  5  2  0  0  0  0
  2  6  2  0  0  0  0
  3  8  2  0  0  0  0
  3 18  1  0  0  0  0
  4  9  1  0  0  0  0
  4 18  2  0  0  0  0
  5 20  1  0  0  0  0
  6 22  1  0  0  0  0
  7 10  2  0  0  0  0
  7 21  1  0  0  0  0
  8 26  1  0  0  0  0
  9 26  2  0  0  0  0
 10 27  1  0  0  0  0
 11 12  2  0  0  0  0
 11 28  1  0  0  0  0
 12 29  1  0  0  0  0
 13 23  1  0  0  0  0
 13 27  2  0  0  0  0
 14 24  2  0  0  0  0
 14 25  1  0  0  0  0
 15 24  1  0  0  0  0
 15 30  2  0  0  0  0
 16 25  2  0  0  0  0
 16 30  1  0  0  0  0
 17 29  2  0  0  0  0
 17 31  1  0  0  0  0
 18 32  1  0  0  0  0
 19 32  1  0  0  0  0
 19 33  2  0  0  0  0
 19 34  1  0  0  0  0
 20 22  2  0  0  0  0
 20 40  1  0  0  0  0
 21 23  2  0  0  0  0
 21 41  1  0  0  0  0
 22 49  1  0  0  0  0
 23 42  1  0  0  0  0
 24 73  1  0  0  0  0
 25 74  1  0  0  0  0
 26 85  1  0  0  0  0
 27 86  1  0  0  0  0
 28 31  2  0  0  0  0
 28 85  1  0  0  0  0
 29 87  1  0  0  0  0
 30 88  1  0  0  0  0
 31 89  1  0  0  0  0
 32 67  2  0  0  0  0
 33 68  1  0  0  0  0
 33 71  1  0  0  0  0
 34 72  1  0  0  0  0
 34 79  2  0  0  0  0
 35 50  1  0  0  0  0
 35 75  1  0  0  0  0
 35 80  2  0  0  0  0
 36 62  1  0  0  0  0
 36 69  1  0  0  0  0
 36 81  2  0  0  0  0
 37 60  1  0  0  0  0
 37 73  1  0  0  0  0
 37 82  2  0  0  0  0
 38 63  1  0  0  0  0
 38 76  1  0  0  0  0
 38 83  2  0  0  0  0
 39 70  1  0  0  0  0
 39 74  1  0  0  0  0
 39 84  2  0  0  0  0
 40 43  1  0  0  0  0
 41 50  1  0  0  0  0
 42 69  1  0  0  0  0
 43 45  1  0  0  0  0
 44 46  1  0  0  0  0
 44 47  1  0  0  0  0
 45 49  1  0  0  0  0
 46 51  1  0  0  0  0
 47 70  1  0  0  0  0
 48 51  1  0  0  0  0
 48 70  1  0  0  0  0
 49 75  1  0  0  0  0
 50 69  1  0  0  0  0
 51 68  1  0  0  0  0
 52 63  1  0  0  0  0
 53 64  1  0  0  0  0
 54 64  1  0  0  0  0
 55 64  1  0  0  0  0
 56 65  1  0  0  0  0
 57 65  1  0  0  0  0
 58 66  1  0  0  0  0
 59 78  1  0  0  0  0
 60 66  1  0  0  0  0
 61 65  1  0  0  0  0
 61 86  1  0  0  0  0
 62 64  1  0  0  0  0
 62 76  1  0  0  0  0
 63 78  1  0  0  0  0
 65 66  1  0  0  0  0
 66 77  1  0  0  0  0
 67 68  1  0  0  0  0
M  CHG  2  77   1  78   1
M  ISO  4  39 100  61 101  74 100  86 101
M  END
> <Batch ID>
0143

> <Smiles>
CNC(C)C(=O)NC(C(=O)N1Cc2cc([101O:1][101CH2:1]C(C)(C)C(C)(N)CC(=O)Nc3cc(F)cc([100NH:0][100C:0](=O)N4CCCC(n5nc(-c6ccc(Oc7ccc(F)cc7F)cc6)c(C(N)=O)c5N)C4)c3)ccc2CC1C(=O)NC1CCCc2ccccc21)C(C)(C)C

> <Shape>
0.228

> <Color>
0.201

> <Negative vol penalty>
0.000

$$$$

  -OEChem-04052303003D

 87 96  0     1  0  0  0  0  0999 V2000
  -29.0481  -24.7822   16.9111 C   0  0  0  0  0  0  0  0  0  0  0  0
  -27.8246  -25.3099   17.3082 C   0  0  0  0  0  0  0  0  0  0  0  0
  -23.7207  -23.9489   22.7398 C   0  0  0  0  0  0  0  0  0  0  0  0
  -26.2944  -13.5635   18.2447 C   0  0  0  0  0  0  0  0  0  0  0  0
  -24.2832  -14.1339   19.4559 C   0  0  0  0  0  0  0  0  0  0  0  0
  -22.4658  -23.4917   23.1419 C   0  0  0  0  0  0  0  0  0  0  0  0
  -30.1947  -25.0556   17.6539 C   0  0  0  0  0  0  0  0  0  0  0  0
  -27.7494  -26.1207   18.4412 C   0  0  0  0  0  0  0  0  0  0  0  0
  -23.4308  -28.2946   19.3509 C   0  0  0  0  0  0  0  0  0  0  0  0
  -24.3685  -23.3489   21.6599 C   0  0  0  0  0  0  0  0  0  0  0  0
  -26.4219  -12.4004   19.0039 C   0  0  0  0  0  0  0  0  0  0  0  0
  -24.4106  -12.9707   20.2151 C   0  0  0  0  0  0  0  0  0  0  0  0
  -22.3144  -27.5930   19.8039 C   0  0  0  0  0  0  0  0  0  0  0  0
  -23.7838   -9.6713   19.8388 C   0  0  0  0  0  0  0  0  0  0  0  0
  -22.6379   -8.9020   20.0403 C   0  0  0  0  0  0  0  0  0  0  0  0
  -22.5063  -21.8344   21.3844 C   0  0  0  0  0  0  0  0  0  0  0  0
  -22.6845  -28.4519   22.0276 C   0  0  0  0  0  0  0  0  0  0  0  0
  -22.8580   -9.1995   22.4278 C   0  0  0  0  0  0  0  0  0  0  0  0
  -25.2251  -14.4303   18.4707 C   0  0  0  0  0  0  0  0  0  0  0  0
  -21.8586  -22.4345   22.4643 C   0  0  0  0  0  0  0  0  0  0  0  0
  -24.4023  -15.7819   16.4697 C   0  0  0  0  0  0  0  0  0  0  0  0
  -30.1305  -25.8601   18.8035 C   0  0  0  0  0  0  0  0  0  0  0  0
  -24.1901  -29.0728   20.2366 C   0  0  0  0  0  0  0  0  0  0  0  0
  -28.8995  -26.4278   19.1905 C   0  0  0  0  0  0  0  0  0  0  0  0
  -23.8085  -29.1645   21.5828 C   0  0  0  0  0  0  0  0  0  0  0  0
  -23.7613  -22.2917   20.9822 C   0  0  0  0  0  0  0  0  0  0  0  0
  -25.4800  -12.1040   19.9892 C   0  0  0  0  0  0  0  0  0  0  0  0
  -21.9428  -27.6693   21.1430 C   0  0  0  0  0  0  0  0  0  0  0  0
  -24.4669  -10.2047   20.9318 C   0  0  0  0  0  0  0  0  0  0  0  0
  -22.1750   -8.6661   21.3347 C   0  0  0  0  0  0  0  0  0  0  0  0
  -24.0039   -9.9688   22.2263 C   0  0  0  0  0  0  0  0  0  0  0  0
  -25.0932  -15.6323   17.6871 C   0  0  0  0  0  0  0  0  0  0  0  0
  -24.5754  -17.1031   16.1367 C   0  0  0  0  0  0  0  0  0  0  0  0
  -20.5324  -21.9511   22.8881 C   0  0  0  0  0  0  0  0  0  0  0  0
  -23.6694  -14.8131   15.7080 C   0  0  0  0  0  0  0  0  0  0  0  0
  -19.8410  -24.8043   21.8570 C   0  0  0  0  0  0  0  0  0  0  0  0
  -27.1998  -29.0166   21.2575 C   0  0  0  0  0  0  0  0  0  0  0  0
  -26.3507  -31.7926   22.7048 C   0  0  0  0  0  0  0  0  0  0  0  0
  -23.8632  -33.7598   23.9656 C   0  0  0  0  0  0  0  0  0  0  0  0
  -25.6675  -22.0155   19.3585 C   0  0  0  0  0  0  0  0  0  0  0  0
  -31.4038  -26.1302   19.5657 C   0  0  0  0  0  0  0  0  0  0  0  0
  -25.3759  -29.8449   19.7267 C   0  0  0  0  0  0  0  0  0  0  0  0
  -24.5782  -30.0022   22.5698 C   0  0  0  0  0  0  0  0  0  0  0  0
  -31.1526  -26.6260   20.9861 C   0  0  0  0  0  0  0  0  0  0  0  0
  -17.1824  -23.1332   22.0306 C   0  0  0  0  0  0  0  0  0  0  0  0
  -27.6490  -20.7333   16.6926 C   0  0  0  0  0  0  0  0  0  0  0  0
  -30.1453  -27.7660   20.9681 C   0  0  0  0  0  0  0  0  0  0  0  0
  -17.9823  -23.5323   20.7971 C   0  0  0  0  0  0  0  0  0  0  0  0
  -27.1513  -19.2952   16.5303 C   0  0  0  0  0  0  0  0  0  0  0  0
  -18.0697  -22.0896   22.6983 C   0  0  0  0  0  0  0  0  0  0  0  0
  -27.6698  -21.1642   18.1581 C   0  0  0  0  0  0  0  0  0  0  0  0
  -25.9070  -19.5364   18.7167 C   0  0  0  0  0  0  0  0  0  0  0  0
  -28.7883  -27.2874   20.4368 C   0  0  1  0  0  0  0  0  0  0  0  0
  -19.4308  -23.4729   21.2696 C   0  0  2  0  0  0  0  0  0  0  0  0
  -26.3766  -30.1962   20.8233 C   0  0  1  0  0  0  0  0  0  0  0  0
  -25.8068  -19.0792   17.2523 C   0  0  2  0  0  0  0  0  0  0  0  0
  -23.4817  -35.9560   25.1183 C   0  0  0  0  0  0  0  0  0  0  0  0
  -27.3625  -30.5923   25.3212 C   0  0  0  0  0  0  0  0  0  0  0  0
  -26.1145  -32.3847   26.5452 C   0  0  0  0  0  0  0  0  0  0  0  0
  -27.9564  -32.9973   24.9783 C   0  0  0  0  0  0  0  0  0  0  0  0
  -22.1878  -34.7672   21.7436 C   0  0  0  0  0  0  0  0  0  0  0  0
  -20.5327  -25.7677   20.9161 C   0  0  0  0  0  0  0  0  0  1  0  0
  -25.7602  -32.1631   24.0439 C   0  0  1  0  0  0  0  0  0  0  0  0
  -23.5543  -35.2347   23.7815 C   0  0  2  0  0  0  0  0  0  0  0  0
  -26.7848  -32.0169   25.2042 C   0  0  0  0  0  0  0  0  0  0  0  0
  -25.6630  -16.7677   18.0995 N   0  0  0  0  0  0  0  0  0  0  0  0
  -25.3304  -17.6434   17.1358 N   0  0  0  0  0  0  0  0  0  0  0  0
  -19.4243  -22.4968   22.3469 N   0  0  0  0  0  0  0  0  0  0  0  0
  -25.7337  -30.7334   22.0242 N   0  0  0  0  0  0  0  0  0  0  0  0
  -26.3619  -20.9344   18.7756 N   0  0  0  0  0  0  0  0  0  0  0  0
  -24.1540  -17.8437   15.0897 N   0  0  0  0  0  0  0  0  0  0  0  0
  -23.5911  -13.5010   16.1943 N   0  0  0  0  0  0  0  0  0  0  0  0
  -24.4200  -21.6828   19.8854 N   0  0  0  0  0  0  0  0  0  0  0  0
  -27.9282  -28.4332   20.2384 N   0  0  0  0  0  0  0  0  0  0  0  0
  -25.2170  -33.5086   23.8923 N   0  0  0  0  0  0  0  0  0  0  0  0
  -20.4493  -20.9831   23.7961 N   0  3  0  0  0  0  0  0  0  0  0  0
  -22.2493  -35.4072   23.0828 N   0  3  0  0  0  0  0  0  0  0  0  0
  -23.1146  -15.0986   14.6198 O   0  0  0  0  0  0  0  0  0  0  0  0
  -19.6198  -25.0782   23.0356 O   0  0  0  0  0  0  0  0  0  0  0  0
  -27.1769  -28.6628   22.4305 O   0  0  0  0  0  0  0  0  0  0  0  0
  -27.3190  -32.4245   22.2752 O   0  0  0  0  0  0  0  0  0  0  0  0
  -22.9911  -32.9157   24.1590 O   0  0  0  0  0  0  0  0  0  0  0  0
  -26.1326  -23.1582   19.3639 O   0  0  0  0  0  0  0  0  0  0  0  0
  -25.6039  -10.9690   20.7301 O   0  0  0  0  0  0  0  0  0  0  0  0
  -20.8539  -26.9850   21.5880 O   0  0  0  0  0  0  0  0  0  1  0  0
  -21.0737   -7.9285   21.5280 F   0  0  0  0  0  0  0  0  0  0  0  0
  -24.6552  -10.4796   23.2802 F   0  0  0  0  0  0  0  0  0  0  0  0
  1  2  1  0  0  0  0
  1  7  2  0  0  0  0
  2  8  2  0  0  0  0
  3  6  2  0  0  0  0
  3 10  1  0  0  0  0
  4 11  2  0  0  0  0
  4 19  1  0  0  0  0
  5 12  1  0  0  0  0
  5 19  2  0  0  0  0
  6 20  1  0  0  0  0
  7 22  1  0  0  0  0
  8 24  1  0  0  0  0
  9 13  2  0  0  0  0
  9 23  1  0  0  0  0
 10 26  2  0  0  0  0
 11 27  1  0  0  0  0
 12 27  2  0  0  0  0
 13 28  1  0  0  0  0
 14 15  2  0  0  0  0
 14 29  1  0  0  0  0
 15 30  1  0  0  0  0
 16 20  2  0  0  0  0
 16 26  1  0  0  0  0
 17 25  1  0  0  0  0
 17 28  2  0  0  0  0
 18 30  2  0  0  0  0
 18 31  1  0  0  0  0
 19 32  1  0  0  0  0
 20 34  1  0  0  0  0
 21 32  1  0  0  0  0
 21 33  2  0  0  0  0
 21 35  1  0  0  0  0
 22 24  2  0  0  0  0
 22 41  1  0  0  0  0
 23 25  2  0  0  0  0
 23 42  1  0  0  0  0
 24 53  1  0  0  0  0
 25 43  1  0  0  0  0
 26 73  1  0  0  0  0
 27 84  1  0  0  0  0
 28 85  1  0  0  0  0
 29 31  2  0  0  0  0
 29 84  1  0  0  0  0
 30 86  1  0  0  0  0
 31 87  1  0  0  0  0
 32 66  2  0  0  0  0
 33 67  1  0  0  0  0
 33 71  1  0  0  0  0
 34 68  1  0  0  0  0
 34 76  2  0  0  0  0
 35 72  1  0  0  0  0
 35 78  2  0  0  0  0
 36 54  1  0  0  0  0
 36 62  1  0  0  0  0
 36 79  2  0  0  0  0
 37 55  1  0  0  0  0
 37 74  1  0  0  0  0
 37 80  2  0  0  0  0
 38 63  1  0  0  0  0
 38 69  1  0  0  0  0
 38 81  2  0  0  0  0
 39 64  1  0  0  0  0
 39 75  1  0  0  0  0
 39 82  2  0  0  0  0
 40 70  1  0  0  0  0
 40 73  1  0  0  0  0
 40 83  2  0  0  0  0
 41 44  1  0  0  0  0
 42 55  1  0  0  0  0
 43 69  1  0  0  0  0
 44 47  1  0  0  0  0
 45 48  1  0  0  0  0
 45 50  1  0  0  0  0
 46 49  1  0  0  0  0
 46 51  1  0  0  0  0
 47 53  1  0  0  0  0
 48 54  1  0  0  0  0
 49 56  1  0  0  0  0
 50 68  1  0  0  0  0
 51 70  1  0  0  0  0
 52 56  1  0  0  0  0
 52 70  1  0  0  0  0
 53 74  1  0  0  0  0
 54 68  1  0  0  0  0
 55 69  1  0  0  0  0
 56 67  1  0  0  0  0
 57 64  1  0  0  0  0
 58 65  1  0  0  0  0
 59 65  1  0  0  0  0
 60 65  1  0  0  0  0
 61 77  1  0  0  0  0
 62 85  1  0  0  0  0
 63 65  1  0  0  0  0
 63 75  1  0  0  0  0
 64 77  1  0  0  0  0
 66 67  1  0  0  0  0
M  CHG  2  76   1  77   1
M  ISO  4  40 100  62 101  73 100  85 101
M  END
> <Batch ID>
0143

> <Smiles>
CNC(C)C(=O)NC(C(=O)N1Cc2cc([101O:1][101CH2:1]C(=O)C3CCCN3C(=N)c3cccc([100NH:0][100C:0](=O)N4CCCC(n5nc(-c6ccc(Oc7ccc(F)cc7F)cc6)c(C(N)=O)c5N)C4)c3)ccc2CC1C(=O)NC1CCCc2ccccc21)C(C)(C)C

> <Shape>
0.240

> <Color>
0.075

> <Negative vol penalty>
0.000

$$$$

  -OEChem-04052303003D

 90 99  0     1  0  0  0  0  0999 V2000
  -26.5741  -38.8476   23.2808 C   0  0  0  0  0  0  0  0  0  0  0  0
  -27.5492  -37.8886   23.5355 C   0  0  0  0  0  0  0  0  0  0  0  0
  -23.3623   -9.2233   20.5046 C   0  0  0  0  0  0  0  0  0  0  0  0
  -23.1370  -10.7954   22.3253 C   0  0  0  0  0  0  0  0  0  0  0  0
  -28.2734  -20.1225   18.8548 C   0  0  0  0  0  0  0  0  0  0  0  0
  -25.2421  -38.5875   23.6004 C   0  0  0  0  0  0  0  0  0  0  0  0
  -27.1931  -36.6694   24.1110 C   0  0  0  0  0  0  0  0  0  0  0  0
  -28.5629  -30.4442   20.7552 C   0  0  0  0  0  0  0  0  0  0  0  0
  -28.0521  -18.7891   19.1994 C   0  0  0  0  0  0  0  0  0  0  0  0
  -22.6306   -8.2812   21.2275 C   0  0  0  0  0  0  0  0  0  0  0  0
  -22.4053   -9.8532   23.0482 C   0  0  0  0  0  0  0  0  0  0  0  0
  -28.9797  -29.2029   20.2739 C   0  0  0  0  0  0  0  0  0  0  0  0
  -21.1287   -5.3359   22.7419 C   0  0  0  0  0  0  0  0  0  0  0  0
  -21.6070   -4.0260   22.7731 C   0  0  0  0  0  0  0  0  0  0  0  0
  -30.4356  -18.3936   19.1994 C   0  0  0  0  0  0  0  0  0  0  0  0
  -27.8487  -28.1009   22.1053 C   0  0  0  0  0  0  0  0  0  0  0  0
  -23.6568   -4.7987   23.7923 C   0  0  0  0  0  0  0  0  0  0  0  0
  -23.6156  -10.4804   21.0535 C   0  0  0  0  0  0  0  0  0  0  0  0
  -29.5757  -20.5914   18.6824 C   0  0  0  0  0  0  0  0  0  0  0  0
  -23.8686  -12.4177   19.4133 C   0  0  0  0  0  0  0  0  0  0  0  0
  -24.8680  -37.3608   24.1712 C   0  0  0  0  0  0  0  0  0  0  0  0
  -27.7736  -30.5176   21.9063 C   0  0  0  0  0  0  0  0  0  0  0  0
  -25.8551  -36.3933   24.4397 C   0  0  0  0  0  0  0  0  0  0  0  0
  -30.6568  -19.7270   18.8547 C   0  0  0  0  0  0  0  0  0  0  0  0
  -27.4178  -29.3406   22.5852 C   0  0  0  0  0  0  0  0  0  0  0  0
  -29.1332  -17.9247   19.3717 C   0  0  0  0  0  0  0  0  0  0  0  0
  -22.1521   -8.5961   22.4993 C   0  0  0  0  0  0  0  0  0  0  0  0
  -28.6237  -28.0342   20.9474 C   0  0  0  0  0  0  0  0  0  0  0  0
  -21.9145   -6.3773   23.2359 C   0  0  0  0  0  0  0  0  0  0  0  0
  -22.8710   -3.7574   23.2983 C   0  0  0  0  0  0  0  0  0  0  0  0
  -23.1785   -6.1086   23.7611 C   0  0  0  0  0  0  0  0  0  0  0  0
  -24.3718  -11.4539   20.3075 C   0  0  0  0  0  0  0  0  0  0  0  0
  -24.9817  -13.0903   18.9714 C   0  0  0  0  0  0  0  0  0  0  0  0
  -29.7807  -22.0205   18.3130 C   0  0  0  0  0  0  0  0  0  0  0  0
  -22.5160  -12.6816   19.0175 C   0  0  0  0  0  0  0  0  0  0  0  0
  -25.9269  -32.7004   24.3354 C   0  0  0  0  0  0  0  0  0  0  0  0
  -24.1720  -30.2331   23.8424 C   0  0  0  0  0  0  0  0  0  0  0  0
  -22.3601  -27.5749   22.7075 C   0  0  0  0  0  0  0  0  0  0  0  0
  -29.8683  -15.5809   19.9310 C   0  0  0  0  0  0  0  0  0  0  0  0
  -23.4226  -37.1437   24.5429 C   0  0  0  0  0  0  0  0  0  0  0  0
  -27.3534  -31.8367   22.4954 C   0  0  0  0  0  0  0  0  0  0  0  0
  -26.5965  -29.4700   23.8389 C   0  0  0  0  0  0  0  0  0  0  0  0
  -23.0741  -35.6808   24.8051 C   0  0  0  0  0  0  0  0  0  0  0  0
  -29.9020  -12.0430   19.5325 C   0  0  0  0  0  0  0  0  0  0  0  0
  -32.4462  -20.8592   17.3748 C   0  0  0  0  0  0  0  0  0  0  0  0
  -32.9552  -19.4891   17.6975 C   0  0  0  0  0  0  0  0  0  0  0  0
  -24.1229  -35.0353   25.7052 C   0  0  0  0  0  0  0  0  0  0  0  0
  -28.4249  -11.6536   19.6250 C   0  0  0  0  0  0  0  0  0  0  0  0
  -30.2474  -13.1879   20.4830 C   0  0  0  0  0  0  0  0  0  0  0  0
  -27.9174  -13.9875   20.4511 C   0  0  0  0  0  0  0  0  0  0  0  0
  -32.0605  -20.2044   18.6739 C   0  0  0  0  0  0  0  0  0  0  0  0
  -25.5046  -35.0491   25.0400 C   0  0  1  0  0  0  0  0  0  0  0  0
  -25.9573  -31.7916   23.1419 C   0  0  1  0  0  0  0  0  0  0  0  0
  -27.5073  -12.8816   19.4649 C   0  0  2  0  0  0  0  0  0  0  0  0
  -20.1452  -26.4320   22.9999 C   0  0  0  0  0  0  0  0  0  0  0  0
  -25.1371  -29.0459   26.4811 C   0  0  0  0  0  0  0  0  0  0  0  0
  -23.3943  -27.2653   26.2358 C   0  0  0  0  0  0  0  0  0  0  0  0
  -22.7123  -29.6564   26.4363 C   0  0  0  0  0  0  0  0  0  0  0  0
  -30.6404  -24.7100   21.0752 C   0  0  0  0  0  0  0  0  0  0  0  0
  -28.9825  -22.8672   21.1885 C   0  0  0  0  0  0  0  0  0  0  0  0
  -27.1657  -25.6035   21.3641 C   0  0  0  0  0  0  0  0  0  0  0  0
  -27.1176  -26.5860   19.0699 C   0  0  0  0  0  0  0  0  0  0  0  0
  -21.6229  -28.0257   19.8769 C   0  0  0  0  0  0  0  0  0  0  0  0
  -30.5837  -22.9580   19.2159 C   0  0  0  0  0  0  0  0  0  0  0  0
  -28.6471  -24.6414   19.4705 C   0  0  0  0  0  0  0  0  0  0  0  0
  -23.7816  -28.8482   24.2926 C   0  0  1  0  0  0  0  0  0  0  0  0
  -20.9294  -27.4691   22.2110 C   0  0  2  0  0  0  0  0  0  0  0  0
  -23.7758  -28.7081   25.8411 C   0  0  0  0  0  0  0  0  0  0  0  0
  -29.7451  -23.7995   20.2121 C   0  0  0  0  0  0  0  0  0  0  0  0
  -28.0018  -25.8924   20.1197 C   0  0  0  0  0  0  0  0  0  1  0  0
  -25.7010  -11.5061   20.4275 N   0  0  0  0  0  0  0  0  0  0  0  0
  -29.2596  -22.4768   17.2170 N   0  0  0  0  0  0  0  0  0  0  0  0
  -26.0426  -12.5108   19.6029 N   0  0  0  0  0  0  0  0  0  0  0  0
  -25.5373  -30.4724   23.6443 N   0  0  0  0  0  0  0  0  0  0  0  0
  -29.3398  -14.3177   20.2711 N   0  0  0  0  0  0  0  0  0  0  0  0
  -25.1466  -14.1149   18.1081 N   0  0  0  0  0  0  0  0  0  0  0  0
  -21.4937  -11.8965   19.5678 N   0  0  0  0  0  0  0  0  0  0  0  0
  -28.9080  -16.5703   19.7221 N   0  0  0  0  0  0  0  0  0  0  0  0
  -25.5937  -34.0082   24.0385 N   0  0  0  0  0  0  0  0  0  0  0  0
  -22.4979  -28.5606   23.6618 N   0  0  0  0  0  0  0  0  0  0  0  0
  -20.9078  -27.0804   20.7725 N   0  3  0  0  0  0  0  0  0  0  0  0
  -22.2243  -13.5758   18.1877 O   0  0  0  0  0  0  0  0  0  0  0  0
  -26.1851  -32.2492   25.4451 O   0  0  0  0  0  0  0  0  0  0  0  0
  -23.2930  -31.0833   23.6755 O   0  0  0  0  0  0  0  0  0  0  0  0
  -23.2641  -26.8527   22.2931 O   0  0  0  0  0  0  0  0  0  0  0  0
  -31.0818  -15.7644   19.8056 O   0  0  0  0  0  0  0  0  0  0  0  0
  -21.4379   -7.6771   23.2049 O   0  0  0  0  0  0  0  0  0  0  0  0
  -29.0321  -26.8199   20.4673 O   0  0  0  0  0  0  0  0  0  1  0  0
  -23.3295   -2.4992   23.3296 F   0  0  0  0  0  0  0  0  0  0  0  0
  -23.9374   -7.1047   24.2381 F   0  0  0  0  0  0  0  0  0  0  0  0
  1  2  1  0  0  0  0
  1  6  2  0  0  0  0
  2  7  2  0  0  0  0
  3 10  2  0  0  0  0
  3 18  1  0  0  0  0
  4 11  1  0  0  0  0
  4 18  2  0  0  0  0
  5  9  2  0  0  0  0
  5 19  1  0  0  0  0
  6 21  1  0  0  0  0
  7 23  1  0  0  0  0
  8 12  2  0  0  0  0
  8 22  1  0  0  0  0
  9 26  1  0  0  0  0
 10 27  1  0  0  0  0
 11 27  2  0  0  0  0
 12 28  1  0  0  0  0
 13 14  2  0  0  0  0
 13 29  1  0  0  0  0
 14 30  1  0  0  0  0
 15 24  1  0  0  0  0
 15 26  2  0  0  0  0
 16 25  1  0  0  0  0
 16 28  2  0  0  0  0
 17 30  2  0  0  0  0
 17 31  1  0  0  0  0
 18 32  1  0  0  0  0
 19 24  2  0  0  0  0
 19 34  1  0  0  0  0
 20 32  1  0  0  0  0
 20 33  2  0  0  0  0
 20 35  1  0  0  0  0
 21 23  2  0  0  0  0
 21 40  1  0  0  0  0
 22 25  2  0  0  0  0
 22 41  1  0  0  0  0
 23 52  1  0  0  0  0
 24 51  1  0  0  0  0
 25 42  1  0  0  0  0
 26 78  1  0  0  0  0
 27 87  1  0  0  0  0
 28 88  1  0  0  0  0
 29 31  2  0  0  0  0
 29 87  1  0  0  0  0
 30 89  1  0  0  0  0
 31 90  1  0  0  0  0
 32 71  2  0  0  0  0
 33 73  1  0  0  0  0
 33 76  1  0  0  0  0
 34 64  1  0  0  0  0
 34 72  2  0  0  0  0
 35 77  1  0  0  0  0
 35 82  2  0  0  0  0
 36 53  1  0  0  0  0
 36 79  1  0  0  0  0
 36 83  2  0  0  0  0
 37 66  1  0  0  0  0
 37 74  1  0  0  0  0
 37 84  2  0  0  0  0
 38 67  1  0  0  0  0
 38 80  1  0  0  0  0
 38 85  2  0  0  0  0
 39 75  1  0  0  0  0
 39 78  1  0  0  0  0
 39 86  2  0  0  0  0
 40 43  1  0  0  0  0
 41 53  1  0  0  0  0
 42 74  1  0  0  0  0
 43 47  1  0  0  0  0
 44 48  1  0  0  0  0
 44 49  1  0  0  0  0
 45 46  1  0  0  0  0
 45 51  1  0  0  0  0
 46 51  1  0  0  0  0
 47 52  1  0  0  0  0
 48 54  1  0  0  0  0
 49 75  1  0  0  0  0
 50 54  1  0  0  0  0
 50 75  1  0  0  0  0
 52 79  1  0  0  0  0
 53 74  1  0  0  0  0
 54 73  1  0  0  0  0
 55 67  1  0  0  0  0
 56 68  1  0  0  0  0
 57 68  1  0  0  0  0
 58 68  1  0  0  0  0
 59 69  1  0  0  0  0
 60 69  1  0  0  0  0
 61 70  1  0  0  0  0
 62 70  1  0  0  0  0
 63 81  1  0  0  0  0
 64 69  1  0  0  0  0
 65 69  1  0  0  0  0
 65 70  1  0  0  0  0
 66 68  1  0  0  0  0
 66 80  1  0  0  0  0
 67 81  1  0  0  0  0
 70 88  1  0  0  0  0
 71 73  1  0  0  0  0
M  CHG  1  81   1
M  ISO  4  39 100  70 101  78 100  88 101
M  END
> <Batch ID>
0143

> <Smiles>
CNC(C)C(=O)NC(C(=O)N1Cc2cc([101O:1][101C:1](C)(C)CC(C)(C)CC(=N)c3ccc([100NH:0][100C:0](=O)N4CCCC(n5nc(-c6ccc(Oc7ccc(F)cc7F)cc6)c(C(N)=O)c5N)C4)cc3C3CC3)ccc2CC1C(=O)NC1CCCc2ccccc21)C(C)(C)C

> <Shape>
0.358

> <Color>
0.099

> <Negative vol penalty>
0.000

$$$$

  -OEChem-04052303003D

 82 90  0     1  0  0  0  0  0999 V2000
  -28.4211  -37.7672   21.1928 C   0  0  0  0  0  0  0  0  0  0  0  0
  -28.8703  -36.4779   20.9258 C   0  0  0  0  0  0  0  0  0  0  0  0
  -24.5343   -8.6728   21.2503 C   0  0  0  0  0  0  0  0  0  0  0  0
  -22.8458  -10.3915   21.4280 C   0  0  0  0  0  0  0  0  0  0  0  0
  -27.3767  -37.9675   22.0945 C   0  0  0  0  0  0  0  0  0  0  0  0
  -28.2761  -35.3881   21.5611 C   0  0  0  0  0  0  0  0  0  0  0  0
  -27.3694  -29.8042   19.2152 C   0  0  0  0  0  0  0  0  0  0  0  0
  -23.9256   -7.9673   22.2883 C   0  0  0  0  0  0  0  0  0  0  0  0
  -22.2369   -9.6861   22.4660 C   0  0  0  0  0  0  0  0  0  0  0  0
  -28.0777  -28.6095   19.3364 C   0  0  0  0  0  0  0  0  0  0  0  0
  -22.6097   -5.5362   24.6490 C   0  0  0  0  0  0  0  0  0  0  0  0
  -22.4436   -4.1607   24.4883 C   0  0  0  0  0  0  0  0  0  0  0  0
  -26.5874  -27.9118   21.1003 C   0  0  0  0  0  0  0  0  0  0  0  0
  -26.8134  -19.3043   19.6949 C   0  0  0  0  0  0  0  0  0  0  0  0
  -21.0902   -4.5534   22.5259 C   0  0  0  0  0  0  0  0  0  0  0  0
  -24.6697  -18.4309   19.9048 C   0  0  0  0  0  0  0  0  0  0  0  0
  -23.9945   -9.8849   20.8202 C   0  0  0  0  0  0  0  0  0  0  0  0
  -24.3587  -10.4972   18.3707 C   0  0  0  0  0  0  0  0  0  0  0  0
  -26.7629  -36.8789   22.7339 C   0  0  0  0  0  0  0  0  0  0  0  0
  -26.2694  -30.0668   20.0445 C   0  0  0  0  0  0  0  0  0  0  0  0
  -27.2233  -35.5742   22.4732 C   0  0  0  0  0  0  0  0  0  0  0  0
  -25.8652  -29.1095   20.9859 C   0  0  0  0  0  0  0  0  0  0  0  0
  -26.0106  -18.1321   19.8029 C   0  0  0  0  0  0  0  0  0  0  0  0
  -22.7769   -8.4740   22.8961 C   0  0  0  0  0  0  0  0  0  0  0  0
  -27.6886  -27.6643   20.2810 C   0  0  0  0  0  0  0  0  0  0  0  0
  -22.0160   -6.4204   23.7483 C   0  0  0  0  0  0  0  0  0  0  0  0
  -21.6839   -3.6693   23.4267 C   0  0  0  0  0  0  0  0  0  0  0  0
  -21.2562   -5.9290   22.6867 C   0  0  0  0  0  0  0  0  0  0  0  0
  -24.6232  -10.6143   19.7484 C   0  0  0  0  0  0  0  0  0  0  0  0
  -25.2114  -11.3972   17.7796 C   0  0  0  0  0  0  0  0  0  0  0  0
  -26.0554  -20.4544   19.7180 C   0  0  0  0  0  0  0  0  0  0  0  0
  -23.4256   -9.6506   17.6864 C   0  0  0  0  0  0  0  0  0  0  0  0
  -25.5819  -32.2729   22.2271 C   0  0  0  0  0  0  0  0  0  0  0  0
  -22.6747  -30.8344   22.2000 C   0  0  0  0  0  0  0  0  0  0  0  0
  -27.7215  -22.3316   19.5108 C   0  0  0  0  0  0  0  0  0  0  0  0
  -20.8349  -28.0316   21.5623 C   0  0  0  0  0  0  0  0  0  0  0  0
  -27.8409  -16.4036   19.7102 C   0  0  0  0  0  0  0  0  0  0  0  0
  -25.6689  -37.1486   23.7364 C   0  0  0  0  0  0  0  0  0  0  0  0
  -25.4996  -31.3488   19.8829 C   0  0  0  0  0  0  0  0  0  0  0  0
  -24.6790  -29.3344   21.8863 C   0  0  0  0  0  0  0  0  0  0  0  0
  -24.8433  -35.9126   24.0843 C   0  0  0  0  0  0  0  0  0  0  0  0
  -29.4623  -13.5069   18.4228 C   0  0  0  0  0  0  0  0  0  0  0  0
  -25.7556  -34.7219   24.3613 C   0  0  0  0  0  0  0  0  0  0  0  0
  -28.3795  -12.4273   18.4856 C   0  0  0  0  0  0  0  0  0  0  0  0
  -29.3843  -14.4584   19.6155 C   0  0  0  0  0  0  0  0  0  0  0  0
  -26.9835  -13.9863   19.9026 C   0  0  0  0  0  0  0  0  0  0  0  0
  -26.5876  -34.3647   23.1237 C   0  0  1  0  0  0  0  0  0  0  0  0
  -24.7090  -31.7323   21.1301 C   0  0  1  0  0  0  0  0  0  0  0  0
  -26.9811  -13.0428   18.6888 C   0  0  2  0  0  0  0  0  0  0  0  0
  -18.4888  -27.1478   21.6730 C   0  0  0  0  0  0  0  0  0  0  0  0
  -22.9304  -30.5415   25.2263 C   0  0  0  0  0  0  0  0  0  0  0  0
  -21.0787  -28.8582   25.1499 C   0  0  0  0  0  0  0  0  0  0  0  0
  -20.6551  -31.2092   24.4314 C   0  0  0  0  0  0  0  0  0  0  0  0
  -20.7529  -27.5553   18.6425 C   0  0  0  0  0  0  0  0  0  0  0  0
  -27.6837  -23.8527   19.4600 C   0  0  0  0  0  0  0  0  0  0  0  0
  -29.0707  -24.4705   19.3211 C   0  0  0  0  0  0  0  0  0  0  0  0
  -29.0034  -25.9877   19.2247 C   0  0  0  0  0  0  0  0  0  1  0  0
  -22.0397  -29.6927   22.9565 C   0  0  1  0  0  0  0  0  0  0  0  0
  -19.5344  -27.8310   20.8054 C   0  0  2  0  0  0  0  0  0  0  0  0
  -21.6995  -30.0717   24.4255 C   0  0  0  0  0  0  0  0  0  0  0  0
  -25.5700  -11.5175   20.0168 N   0  0  0  0  0  0  0  0  0  0  0  0
  -25.9079  -11.9759   18.7995 N   0  0  0  0  0  0  0  0  0  0  0  0
  -23.9624  -30.6061   21.6944 N   0  0  0  0  0  0  0  0  0  0  0  0
  -28.0320  -15.0060   19.7430 N   0  0  0  0  0  0  0  0  0  0  0  0
  -25.4259  -11.7421   16.4922 N   0  0  0  0  0  0  0  0  0  0  0  0
  -22.6263   -8.7857   18.4464 N   0  0  0  0  0  0  0  0  0  0  0  0
  -26.5092  -16.8058   19.8075 N   0  0  0  0  0  0  0  0  0  0  0  0
  -26.4349  -21.8154   19.6377 N   0  0  0  0  0  0  0  0  0  0  0  0
  -25.7820  -33.6388   22.1653 N   0  0  0  0  0  0  0  0  0  0  0  0
  -20.8883  -29.2699   22.1666 N   0  0  0  0  0  0  0  0  0  0  0  0
  -19.7633  -26.9908   19.5960 N   0  3  0  0  0  0  0  0  0  0  0  0
  -23.3158   -9.6490   16.4368 O   0  0  0  0  0  0  0  0  0  0  0  0
  -26.0388  -31.5078   23.0682 O   0  0  0  0  0  0  0  0  0  0  0  0
  -22.0483  -31.8873   22.0565 O   0  0  0  0  0  0  0  0  0  0  0  0
  -28.7731  -21.7039   19.4448 O   0  0  0  0  0  0  0  0  0  0  0  0
  -21.7137  -27.1741   21.6156 O   0  0  0  0  0  0  0  0  0  0  0  0
  -28.7861  -17.1849   19.5762 O   0  0  0  0  0  0  0  0  0  0  0  0
  -22.1824   -7.7858   23.9088 O   0  0  0  0  0  0  0  0  0  0  0  0
  -28.3786  -26.4977   20.4019 O   0  0  0  0  0  0  0  0  0  1  0  0
  -21.5258   -2.3482   23.2715 F   0  0  0  0  0  0  0  0  0  0  0  0
  -20.6844   -6.7735   21.8174 F   0  0  0  0  0  0  0  0  0  0  0  0
  -24.3831  -20.1188   19.8698 S   0  0  0  0  0  0  0  0  0  0  0  0
  1  2  1  0  0  0  0
  1  5  2  0  0  0  0
  2  6  2  0  0  0  0
  3  8  2  0  0  0  0
  3 17  1  0  0  0  0
  4  9  1  0  0  0  0
  4 17  2  0  0  0  0
  5 19  1  0  0  0  0
  6 21  1  0  0  0  0
  7 10  2  0  0  0  0
  7 20  1  0  0  0  0
  8 24  1  0  0  0  0
  9 24  2  0  0  0  0
 10 25  1  0  0  0  0
 11 12  2  0  0  0  0
 11 26  1  0  0  0  0
 12 27  1  0  0  0  0
 13 22  1  0  0  0  0
 13 25  2  0  0  0  0
 14 23  1  0  0  0  0
 14 31  2  0  0  0  0
 15 27  2  0  0  0  0
 15 28  1  0  0  0  0
 16 23  2  0  0  0  0
 16 82  1  0  0  0  0
 17 29  1  0  0  0  0
 18 29  1  0  0  0  0
 18 30  2  0  0  0  0
 18 32  1  0  0  0  0
 19 21  2  0  0  0  0
 19 38  1  0  0  0  0
 20 22  2  0  0  0  0
 20 39  1  0  0  0  0
 21 47  1  0  0  0  0
 22 40  1  0  0  0  0
 23 67  1  0  0  0  0
 24 78  1  0  0  0  0
 25 79  1  0  0  0  0
 26 28  2  0  0  0  0
 26 78  1  0  0  0  0
 27 80  1  0  0  0  0
 28 81  1  0  0  0  0
 29 61  2  0  0  0  0
 30 62  1  0  0  0  0
 30 65  1  0  0  0  0
 31 68  1  0  0  0  0
 31 82  1  0  0  0  0
 32 66  1  0  0  0  0
 32 72  2  0  0  0  0
 33 48  1  0  0  0  0
 33 69  1  0  0  0  0
 33 73  2  0  0  0  0
 34 58  1  0  0  0  0
 34 63  1  0  0  0  0
 34 74  2  0  0  0  0
 35 55  1  0  0  0  0
 35 68  1  0  0  0  0
 35 75  2  0  0  0  0
 36 59  1  0  0  0  0
 36 70  1  0  0  0  0
 36 76  2  0  0  0  0
 37 64  1  0  0  0  0
 37 67  1  0  0  0  0
 37 77  2  0  0  0  0
 38 41  1  0  0  0  0
 39 48  1  0  0  0  0
 40 63  1  0  0  0  0
 41 43  1  0  0  0  0
 42 44  1  0  0  0  0
 42 45  1  0  0  0  0
 43 47  1  0  0  0  0
 44 49  1  0  0  0  0
 45 64  1  0  0  0  0
 46 49  1  0  0  0  0
 46 64  1  0  0  0  0
 47 69  1  0  0  0  0
 48 63  1  0  0  0  0
 49 62  1  0  0  0  0
 50 59  1  0  0  0  0
 51 60  1  0  0  0  0
 52 60  1  0  0  0  0
 53 60  1  0  0  0  0
 54 71  1  0  0  0  0
 55 56  1  0  0  0  0
 56 57  1  0  0  0  0
 57 79  1  0  0  0  0
 58 60  1  0  0  0  0
 58 70  1  0  0  0  0
 59 71  1  0  0  0  0
 61 62  1  0  0  0  0
M  CHG  1  71   1
M  ISO  4  37 100  57 101  67 100  79 101
M  END
> <Batch ID>
0143

> <Smiles>
CNC(C)C(=O)NC(C(=O)N1Cc2cc([101O:1][101CH2:1]CCC(=O)Nc3cc([100NH:0][100C:0](=O)N4CCCC(n5nc(-c6ccc(Oc7ccc(F)cc7F)cc6)c(C(N)=O)c5N)C4)cs3)ccc2CC1C(=O)NC1CCCc2ccccc21)C(C)(C)C

> <Shape>
0.303

> <Color>
0.104

> <Negative vol penalty>
0.000

$$$$

  -OEChem-04052303003D

 86 95  0     1  0  0  0  0  0999 V2000
  -27.0072  -34.6122   20.9611 C   0  0  0  0  0  0  0  0  0  0  0  0
  -27.9198  -33.5950   21.2219 C   0  0  0  0  0  0  0  0  0  0  0  0
  -23.0612   -9.8795   19.9292 C   0  0  0  0  0  0  0  0  0  0  0  0
  -23.8486   -9.8426   22.2130 C   0  0  0  0  0  0  0  0  0  0  0  0
  -25.7256  -34.2986   20.5105 C   0  0  0  0  0  0  0  0  0  0  0  0
  -27.5509  -32.2636   21.0332 C   0  0  0  0  0  0  0  0  0  0  0  0
  -31.1342  -27.6892   19.0991 C   0  0  0  0  0  0  0  0  0  0  0  0
  -22.3177   -8.7234   20.1668 C   0  0  0  0  0  0  0  0  0  0  0  0
  -23.1051   -8.6866   22.4507 C   0  0  0  0  0  0  0  0  0  0  0  0
  -31.8201  -26.6834   19.7786 C   0  0  0  0  0  0  0  0  0  0  0  0
  -19.3853   -7.9063   21.6387 C   0  0  0  0  0  0  0  0  0  0  0  0
  -18.0726   -7.8717   21.1685 C   0  0  0  0  0  0  0  0  0  0  0  0
  -29.9837  -25.1706   19.3807 C   0  0  0  0  0  0  0  0  0  0  0  0
  -31.8962  -17.4180   21.6387 C   0  0  0  0  0  0  0  0  0  0  0  0
  -18.6119   -5.9522   19.8040 C   0  0  0  0  0  0  0  0  0  0  0  0
  -29.9019  -17.7317   22.7904 C   0  0  0  0  0  0  0  0  0  0  0  0
  -23.8267  -10.4390   20.9523 C   0  0  0  0  0  0  0  0  0  0  0  0
  -24.1728  -12.9652   20.8747 C   0  0  0  0  0  0  0  0  0  0  0  0
  -25.3439  -32.9631   20.3070 C   0  0  0  0  0  0  0  0  0  0  0  0
  -29.8611  -27.4461   18.5639 C   0  0  0  0  0  0  0  0  0  0  0  0
  -26.2625  -31.9318   20.5808 C   0  0  0  0  0  0  0  0  0  0  0  0
  -29.2848  -26.1743   18.6926 C   0  0  0  0  0  0  0  0  0  0  0  0
  -30.6099  -16.8943   21.9567 C   0  0  0  0  0  0  0  0  0  0  0  0
  -22.3396   -8.1270   21.4276 C   0  0  0  0  0  0  0  0  0  0  0  0
  -31.2436  -25.4247   19.9220 C   0  0  0  0  0  0  0  0  0  0  0  0
  -20.3114   -6.9639   21.1915 C   0  0  0  0  0  0  0  0  0  0  0  0
  -17.6859   -6.8947   20.2511 C   0  0  0  0  0  0  0  0  0  0  0  0
  -19.9247   -5.9868   20.2742 C   0  0  0  0  0  0  0  0  0  0  0  0
  -24.5953  -11.6328   20.7072 C   0  0  0  0  0  0  0  0  0  0  0  0
  -32.1224  -18.6360   22.2414 C   0  0  0  0  0  0  0  0  0  0  0  0
  -25.2622  -13.7190   20.5121 C   0  0  0  0  0  0  0  0  0  0  0  0
  -34.7929  -19.5863   20.0973 C   0  0  0  0  0  0  0  0  0  0  0  0
  -22.9086  -13.4759   21.3183 C   0  0  0  0  0  0  0  0  0  0  0  0
  -32.8726  -22.2270   20.4283 C   0  0  0  0  0  0  0  0  0  0  0  0
  -26.9559  -28.6386   19.0554 C   0  0  0  0  0  0  0  0  0  0  0  0
  -26.1787  -26.7487   16.5361 C   0  0  0  0  0  0  0  0  0  0  0  0
  -26.9039  -24.0056   14.6397 C   0  0  0  0  0  0  0  0  0  0  0  0
  -30.7324  -14.7501   20.6400 C   0  0  0  0  0  0  0  0  0  0  0  0
  -23.9321  -32.6710   19.8640 C   0  0  0  0  0  0  0  0  0  0  0  0
  -29.1457  -28.5337   17.8105 C   0  0  0  0  0  0  0  0  0  0  0  0
  -27.9291  -25.8561   18.1188 C   0  0  0  0  0  0  0  0  0  0  0  0
  -34.6994  -20.2618   18.7504 C   0  0  0  0  0  0  0  0  0  0  0  0
  -23.7419  -31.2530   19.3316 C   0  0  0  0  0  0  0  0  0  0  0  0
  -33.2146  -20.5937   18.6189 C   0  0  0  0  0  0  0  0  0  0  0  0
  -29.5842  -12.3824   18.2415 C   0  0  0  0  0  0  0  0  0  0  0  0
  -24.3960  -30.2399   20.2656 C   0  0  0  0  0  0  0  0  0  0  0  0
  -28.1492  -12.0860   18.6829 C   0  0  0  0  0  0  0  0  0  0  0  0
  -30.5142  -12.5873   19.4360 C   0  0  0  0  0  0  0  0  0  0  0  0
  -28.6256  -13.2901   20.8532 C   0  0  0  0  0  0  0  0  0  0  0  0
  -25.9079  -30.4766   20.3646 C   0  0  1  0  0  0  0  0  0  0  0  0
  -32.7393  -20.7654   20.0519 C   0  0  1  0  0  0  0  0  0  0  0  0
  -27.6354  -28.3263   17.7521 C   0  0  1  0  0  0  0  0  0  0  0  0
  -27.6383  -13.1405   19.6842 C   0  0  2  0  0  0  0  0  0  0  0  0
  -26.0651  -22.6935   12.6720 C   0  0  0  0  0  0  0  0  0  0  0  0
  -23.9865  -25.5394   18.2801 C   0  0  0  0  0  0  0  0  0  0  0  0
  -23.8308  -23.6457   16.6498 C   0  0  0  0  0  0  0  0  0  0  0  0
  -23.3148  -25.9715   15.9102 C   0  0  0  0  0  0  0  0  0  0  0  0
  -29.3841  -24.5029   13.1035 C   0  0  0  0  0  0  0  0  0  0  0  0
  -33.3422  -19.5074   22.1590 C   0  0  0  0  0  0  0  0  0  0  0  0
  -31.6594  -23.0971   20.1777 C   0  0  0  0  0  0  0  0  0  1  0  0
  -25.7138  -25.3217   16.3734 C   0  0  1  0  0  0  0  0  0  0  0  0
  -26.9838  -23.8131   13.1361 C   0  0  2  0  0  0  0  0  0  0  0  0
  -24.2362  -25.1258   16.8160 C   0  0  0  0  0  0  0  0  0  0  0  0
  -25.8548  -11.5421   20.2720 N   0  0  0  0  0  0  0  0  0  0  0  0
  -26.2331  -12.8271   20.1628 N   0  0  0  0  0  0  0  0  0  0  0  0
  -33.6321  -19.9063   20.7976 N   0  0  0  0  0  0  0  0  0  0  0  0
  -27.2667  -26.9546   17.3963 N   0  0  0  0  0  0  0  0  0  0  0  0
  -29.9681  -13.6029   20.3388 N   0  0  0  0  0  0  0  0  0  0  0  0
  -25.4748  -15.0512   20.4611 N   0  0  0  0  0  0  0  0  0  0  0  0
  -21.8988  -12.5627   21.6510 N   0  0  0  0  0  0  0  0  0  0  0  0
  -30.0970  -15.6613   21.4830 N   0  0  0  0  0  0  0  0  0  0  0  0
  -26.5781  -29.9609   19.1902 N   0  0  0  0  0  0  0  0  0  0  0  0
  -25.9737  -24.9637   14.9833 N   0  0  0  0  0  0  0  0  0  0  0  0
  -28.3776  -23.4760   12.7303 N   0  3  0  0  0  0  0  0  0  0  0  0
  -35.7467  -18.9234   20.4768 O   0  0  0  0  0  0  0  0  0  0  0  0
  -22.6759  -14.7057   21.4011 O   0  0  0  0  0  0  0  0  0  0  0  0
  -33.9140  -22.6706   20.9098 O   0  0  0  0  0  0  0  0  0  0  0  0
  -26.7856  -27.7456   19.8771 O   0  0  0  0  0  0  0  0  0  0  0  0
  -25.6026  -27.6468   15.9170 O   0  0  0  0  0  0  0  0  0  0  0  0
  -27.5948  -23.3671   15.4307 O   0  0  0  0  0  0  0  0  0  0  0  0
  -31.8562  -14.9250   20.1620 O   0  0  0  0  0  0  0  0  0  0  0  0
  -21.6141   -6.9991   21.6599 O   0  0  0  0  0  0  0  0  0  0  0  0
  -31.9106  -24.4414   20.5854 O   0  0  0  0  0  0  0  0  0  1  0  0
  -16.4248   -6.8606   19.8009 F   0  0  0  0  0  0  0  0  0  0  0  0
  -20.8096   -5.0781   19.8419 F   0  0  0  0  0  0  0  0  0  0  0  0
  -30.7873  -19.1429   23.1863 S   0  0  0  0  0  0  0  0  0  0  0  0
  1  2  1  0  0  0  0
  1  5  2  0  0  0  0
  2  6  2  0  0  0  0
  3  8  2  0  0  0  0
  3 17  1  0  0  0  0
  4  9  1  0  0  0  0
  4 17  2  0  0  0  0
  5 19  1  0  0  0  0
  6 21  1  0  0  0  0
  7 10  2  0  0  0  0
  7 20  1  0  0  0  0
  8 24  1  0  0  0  0
  9 24  2  0  0  0  0
 10 25  1  0  0  0  0
 11 12  2  0  0  0  0
 11 26  1  0  0  0  0
 12 27  1  0  0  0  0
 13 22  1  0  0  0  0
 13 25  2  0  0  0  0
 14 23  1  0  0  0  0
 14 30  2  0  0  0  0
 15 27  2  0  0  0  0
 15 28  1  0  0  0  0
 16 23  2  0  0  0  0
 16 86  1  0  0  0  0
 17 29  1  0  0  0  0
 18 29  1  0  0  0  0
 18 31  2  0  0  0  0
 18 33  1  0  0  0  0
 19 21  2  0  0  0  0
 19 39  1  0  0  0  0
 20 22  2  0  0  0  0
 20 40  1  0  0  0  0
 21 50  1  0  0  0  0
 22 41  1  0  0  0  0
 23 71  1  0  0  0  0
 24 82  1  0  0  0  0
 25 83  1  0  0  0  0
 26 28  2  0  0  0  0
 26 82  1  0  0  0  0
 27 84  1  0  0  0  0
 28 85  1  0  0  0  0
 29 64  2  0  0  0  0
 30 59  1  0  0  0  0
 30 86  1  0  0  0  0
 31 65  1  0  0  0  0
 31 69  1  0  0  0  0
 32 42  1  0  0  0  0
 32 66  1  0  0  0  0
 32 75  2  0  0  0  0
 33 70  1  0  0  0  0
 33 76  2  0  0  0  0
 34 51  1  0  0  0  0
 34 60  1  0  0  0  0
 34 77  2  0  0  0  0
 35 52  1  0  0  0  0
 35 72  1  0  0  0  0
 35 78  2  0  0  0  0
 36 61  1  0  0  0  0
 36 67  1  0  0  0  0
 36 79  2  0  0  0  0
 37 62  1  0  0  0  0
 37 73  1  0  0  0  0
 37 80  2  0  0  0  0
 38 68  1  0  0  0  0
 38 71  1  0  0  0  0
 38 81  2  0  0  0  0
 39 43  1  0  0  0  0
 40 52  1  0  0  0  0
 41 67  1  0  0  0  0
 42 44  1  0  0  0  0
 43 46  1  0  0  0  0
 44 51  1  0  0  0  0
 45 47  1  0  0  0  0
 45 48  1  0  0  0  0
 46 50  1  0  0  0  0
 47 53  1  0  0  0  0
 48 68  1  0  0  0  0
 49 53  1  0  0  0  0
 49 68  1  0  0  0  0
 50 72  1  0  0  0  0
 51 66  1  0  0  0  0
 52 67  1  0  0  0  0
 53 65  1  0  0  0  0
 54 62  1  0  0  0  0
 55 63  1  0  0  0  0
 56 63  1  0  0  0  0
 57 63  1  0  0  0  0
 58 74  1  0  0  0  0
 59 66  1  0  0  0  0
 60 83  1  0  0  0  0
 61 63  1  0  0  0  0
 61 73  1  0  0  0  0
 62 74  1  0  0  0  0
 64 65  1  0  0  0  0
M  CHG  1  74   1
M  ISO  4  38 100  60 101  71 100  83 101
M  END
> <Batch ID>
0143

> <Smiles>
CNC(C)C(=O)NC(C(=O)N1Cc2cc([101O:1][101CH2:1]C(=O)C3CCC(=O)N3Cc3cc([100NH:0][100C:0](=O)N4CCCC(n5nc(-c6ccc(Oc7ccc(F)cc7F)cc6)c(C(N)=O)c5N)C4)cs3)ccc2CC1C(=O)NC1CCCc2ccccc21)C(C)(C)C

> <Shape>
0.227

> <Color>
0.190

> <Negative vol penalty>
0.000

$$$$

  -OEChem-04052303003D

 90 98  0     1  0  0  0  0  0999 V2000
  -23.3943  -39.2579   17.8722 C   0  0  0  0  0  0  0  0  0  0  0  0
  -23.7830  -37.9241   17.7996 C   0  0  0  0  0  0  0  0  0  0  0  0
  -24.7543   -8.4255   21.4727 C   0  0  0  0  0  0  0  0  0  0  0  0
  -23.1366  -10.0722   20.7597 C   0  0  0  0  0  0  0  0  0  0  0  0
  -24.7349  -18.8956   18.9236 C   0  0  0  0  0  0  0  0  0  0  0  0
  -26.7223  -19.7658   19.9867 C   0  0  0  0  0  0  0  0  0  0  0  0
  -23.7659  -40.0323   18.9705 C   0  0  0  0  0  0  0  0  0  0  0  0
  -24.5446  -37.3642   18.8247 C   0  0  0  0  0  0  0  0  0  0  0  0
  -24.2646  -31.6078   20.8962 C   0  0  0  0  0  0  0  0  0  0  0  0
  -25.3479  -17.6491   18.7978 C   0  0  0  0  0  0  0  0  0  0  0  0
  -27.3354  -18.5192   19.8610 C   0  0  0  0  0  0  0  0  0  0  0  0
  -23.8306   -7.9121   22.3830 C   0  0  0  0  0  0  0  0  0  0  0  0
  -22.2128   -9.5588   21.6700 C   0  0  0  0  0  0  0  0  0  0  0  0
  -25.0409  -30.4790   20.6375 C   0  0  0  0  0  0  0  0  0  0  0  0
  -21.1270   -5.8827   22.3119 C   0  0  0  0  0  0  0  0  0  0  0  0
  -20.9873   -4.4966   22.3817 C   0  0  0  0  0  0  0  0  0  0  0  0
  -26.3492  -30.9334   22.6126 C   0  0  0  0  0  0  0  0  0  0  0  0
  -21.6347   -4.5487   24.7088 C   0  0  0  0  0  0  0  0  0  0  0  0
  -24.4074   -9.5056   20.6610 C   0  0  0  0  0  0  0  0  0  0  0  0
  -25.4221  -19.9540   19.5180 C   0  0  0  0  0  0  0  0  0  0  0  0
  -25.5474   -9.6404   18.3829 C   0  0  0  0  0  0  0  0  0  0  0  0
  -24.5242  -39.4790   20.0142 C   0  0  0  0  0  0  0  0  0  0  0  0
  -24.5321  -32.4154   22.0110 C   0  0  0  0  0  0  0  0  0  0  0  0
  -24.9278  -38.1323   19.9373 C   0  0  0  0  0  0  0  0  0  0  0  0
  -25.5732  -32.0705   22.8847 C   0  0  0  0  0  0  0  0  0  0  0  0
  -26.6481  -17.4608   19.2665 C   0  0  0  0  0  0  0  0  0  0  0  0
  -22.5598   -8.4787   22.4817 C   0  0  0  0  0  0  0  0  0  0  0  0
  -26.0852  -30.1433   21.4941 C   0  0  0  0  0  0  0  0  0  0  0  0
  -21.5206   -6.6018   23.4405 C   0  0  0  0  0  0  0  0  0  0  0  0
  -21.2411   -3.8296   23.5802 C   0  0  0  0  0  0  0  0  0  0  0  0
  -21.7744   -5.9348   24.6389 C   0  0  0  0  0  0  0  0  0  0  0  0
  -25.3614  -10.0367   19.7209 C   0  0  0  0  0  0  0  0  0  0  0  0
  -26.5642  -10.4424   17.9254 C   0  0  0  0  0  0  0  0  0  0  0  0
  -24.7710  -21.2782   19.6514 C   0  0  0  0  0  0  0  0  0  0  0  0
  -24.8622   -8.6370   17.6216 C   0  0  0  0  0  0  0  0  0  0  0  0
  -25.3962  -35.4454   22.4302 C   0  0  0  0  0  0  0  0  0  0  0  0
  -24.9569  -34.7299   25.5635 C   0  0  0  0  0  0  0  0  0  0  0  0
  -24.8360  -32.3446   28.0012 C   0  0  0  0  0  0  0  0  0  0  0  0
  -28.5537  -15.8376   19.5501 C   0  0  0  0  0  0  0  0  0  0  0  0
  -24.9421  -40.3682   21.1584 C   0  0  0  0  0  0  0  0  0  0  0  0
  -23.6686  -33.6147   22.2909 C   0  0  0  0  0  0  0  0  0  0  0  0
  -25.8886  -32.8931   24.1063 C   0  0  0  0  0  0  0  0  0  0  0  0
  -25.4319  -39.5973   22.3816 C   0  0  0  0  0  0  0  0  0  0  0  0
  -30.4348  -12.8163   19.4476 C   0  0  0  0  0  0  0  0  0  0  0  0
  -26.4087  -38.5018   21.9662 C   0  0  0  0  0  0  0  0  0  0  0  0
  -29.3643  -11.7249   19.3781 C   0  0  0  0  0  0  0  0  0  0  0  0
  -30.0023  -13.9790   20.3391 C   0  0  0  0  0  0  0  0  0  0  0  0
  -27.6252  -13.4706   19.9391 C   0  0  0  0  0  0  0  0  0  0  0  0
  -25.7333  -37.4821   21.0413 C   0  0  1  0  0  0  0  0  0  0  0  0
  -24.3562  -34.6537   23.1713 C   0  0  1  0  0  0  0  0  0  0  0  0
  -27.9885  -12.3082   19.0008 C   0  0  2  0  0  0  0  0  0  0  0  0
  -24.4950  -32.0687   30.4720 C   0  0  0  0  0  0  0  0  0  0  0  0
  -28.1900  -29.4464   19.3152 C   0  0  0  0  0  0  0  0  0  0  0  0
  -27.7835  -35.7631   26.0666 C   0  0  0  0  0  0  0  0  0  0  0  0
  -27.7350  -34.6091   28.2879 C   0  0  0  0  0  0  0  0  0  0  0  0
  -26.1050  -36.4322   27.7956 C   0  0  0  0  0  0  0  0  0  0  0  0
  -25.2814  -26.4056   21.2230 C   0  0  0  0  0  0  0  0  0  0  0  0
  -24.9583  -26.6258   18.7778 C   0  0  0  0  0  0  0  0  0  0  0  0
  -27.1442  -24.4230   18.3228 C   0  0  0  0  0  0  0  0  0  0  0  0
  -27.4427  -24.2166   20.7819 C   0  0  0  0  0  0  0  0  0  0  0  0
  -22.4422  -30.6515   27.5991 C   0  0  0  0  0  0  0  0  0  0  0  0
  -27.2368  -27.1453   19.7452 C   0  0  0  0  0  0  0  0  0  0  0  0
  -25.2486  -23.6444   19.7241 C   0  0  0  0  0  0  0  0  0  0  0  0
  -25.8299  -34.1859   26.6684 C   0  0  1  0  0  0  0  0  0  0  0  0
  -23.8278  -32.0831   29.1055 C   0  0  2  0  0  0  0  0  0  0  0  0
  -27.0056  -28.6639   19.8754 C   0  0  1  0  0  0  0  0  0  1  0  0
  -26.8589  -35.2329   27.1807 C   0  0  0  0  0  0  0  0  0  0  0  0
  -25.9859  -26.1974   19.8584 C   0  0  0  0  0  0  0  0  0  0  0  0
  -26.4357  -24.6517   19.6854 C   0  0  0  0  0  0  0  0  0  0  0  0
  -26.1934  -11.0144   20.0895 N   0  0  0  0  0  0  0  0  0  0  0  0
  -23.4957  -21.4294   19.7860 N   0  0  0  0  0  0  0  0  0  0  0  0
  -26.9121  -11.2391   18.9763 N   0  0  0  0  0  0  0  0  0  0  0  0
  -25.0197  -34.0597   24.3336 N   0  0  0  0  0  0  0  0  0  0  0  0
  -28.6927  -14.4830   19.9198 N   0  0  0  0  0  0  0  0  0  0  0  0
  -27.1857  -10.5368   16.7308 N   0  0  0  0  0  0  0  0  0  0  0  0
  -23.8430   -7.9048   18.2456 N   0  0  0  0  0  0  0  0  0  0  0  0
  -27.2699  -16.1940   19.1384 N   0  0  0  0  0  0  0  0  0  0  0  0
  -24.9041  -36.5765   21.8073 N   0  0  0  0  0  0  0  0  0  0  0  0
  -24.9233  -33.6866   27.6966 N   0  0  0  0  0  0  0  0  0  0  0  0
  -23.1587  -30.7682   28.8953 N   0  3  0  0  0  0  0  0  0  0  0  0
  -25.1565   -8.3856   16.4284 O   0  0  0  0  0  0  0  0  0  0  0  0
  -26.5593  -35.0596   22.4253 O   0  0  0  0  0  0  0  0  0  0  0  0
  -24.2402  -35.7090   25.7856 O   0  0  0  0  0  0  0  0  0  0  0  0
  -25.4843  -31.4485   27.4653 O   0  0  0  0  0  0  0  0  0  0  0  0
  -29.5098  -16.6169   19.5695 O   0  0  0  0  0  0  0  0  0  0  0  0
  -21.6581   -7.9779   23.3697 O   0  0  0  0  0  0  0  0  0  0  0  0
  -26.8495  -29.0357   21.2420 O   0  0  0  0  0  0  0  0  0  1  0  0
  -25.6783  -22.2978   19.6119 O   0  0  0  0  0  0  0  0  0  0  0  0
  -21.1054   -2.4987   23.6475 F   0  0  0  0  0  0  0  0  0  0  0  0
  -22.1516   -6.6203   25.7268 F   0  0  0  0  0  0  0  0  0  0  0  0
  1  2  1  0  0  0  0
  1  7  2  0  0  0  0
  2  8  2  0  0  0  0
  3 12  2  0  0  0  0
  3 19  1  0  0  0  0
  4 13  1  0  0  0  0
  4 19  2  0  0  0  0
  5 10  2  0  0  0  0
  5 20  1  0  0  0  0
  6 11  1  0  0  0  0
  6 20  2  0  0  0  0
  7 22  1  0  0  0  0
  8 24  1  0  0  0  0
  9 14  2  0  0  0  0
  9 23  1  0  0  0  0
 10 26  1  0  0  0  0
 11 26  2  0  0  0  0
 12 27  1  0  0  0  0
 13 27  2  0  0  0  0
 14 28  1  0  0  0  0
 15 16  2  0  0  0  0
 15 29  1  0  0  0  0
 16 30  1  0  0  0  0
 17 25  1  0  0  0  0
 17 28  2  0  0  0  0
 18 30  2  0  0  0  0
 18 31  1  0  0  0  0
 19 32  1  0  0  0  0
 20 34  1  0  0  0  0
 21 32  1  0  0  0  0
 21 33  2  0  0  0  0
 21 35  1  0  0  0  0
 22 24  2  0  0  0  0
 22 40  1  0  0  0  0
 23 25  2  0  0  0  0
 23 41  1  0  0  0  0
 24 49  1  0  0  0  0
 25 42  1  0  0  0  0
 26 77  1  0  0  0  0
 27 86  1  0  0  0  0
 28 87  1  0  0  0  0
 29 31  2  0  0  0  0
 29 86  1  0  0  0  0
 30 89  1  0  0  0  0
 31 90  1  0  0  0  0
 32 70  2  0  0  0  0
 33 72  1  0  0  0  0
 33 75  1  0  0  0  0
 34 71  2  0  0  0  0
 34 88  1  0  0  0  0
 35 76  1  0  0  0  0
 35 81  2  0  0  0  0
 36 50  1  0  0  0  0
 36 78  1  0  0  0  0
 36 82  2  0  0  0  0
 37 64  1  0  0  0  0
 37 73  1  0  0  0  0
 37 83  2  0  0  0  0
 38 65  1  0  0  0  0
 38 79  1  0  0  0  0
 38 84  2  0  0  0  0
 39 74  1  0  0  0  0
 39 77  1  0  0  0  0
 39 85  2  0  0  0  0
 40 43  1  0  0  0  0
 41 50  1  0  0  0  0
 42 73  1  0  0  0  0
 43 45  1  0  0  0  0
 44 46  1  0  0  0  0
 44 47  1  0  0  0  0
 45 49  1  0  0  0  0
 46 51  1  0  0  0  0
 47 74  1  0  0  0  0
 48 51  1  0  0  0  0
 48 74  1  0  0  0  0
 49 78  1  0  0  0  0
 50 73  1  0  0  0  0
 51 72  1  0  0  0  0
 52 65  1  0  0  0  0
 53 66  1  0  0  0  0
 54 67  1  0  0  0  0
 55 67  1  0  0  0  0
 56 67  1  0  0  0  0
 57 68  1  0  0  0  0
 58 68  1  0  0  0  0
 59 69  1  0  0  0  0
 60 69  1  0  0  0  0
 61 80  1  0  0  0  0
 62 66  1  0  0  0  0
 62 68  1  0  0  0  0
 63 69  1  0  0  0  0
 63 88  1  0  0  0  0
 64 67  1  0  0  0  0
 64 79  1  0  0  0  0
 65 80  1  0  0  0  0
 66 87  1  0  0  0  0
 68 69  1  0  0  0  0
 70 72  1  0  0  0  0
M  CHG  1  80   1
M  ISO  4  39 100  66 101  77 100  87 101
M  END
> <Batch ID>
0143

> <Smiles>
CNC(C)C(=O)NC(C(=O)N1Cc2cc([101O:1][101CH:1](C)CC(C)(C)C(C)(C)COC(=N)c3ccc([100NH:0][100C:0](=O)N4CCCC(n5nc(-c6ccc(Oc7ccc(F)cc7F)cc6)c(C(N)=O)c5N)C4)cc3)ccc2CC1C(=O)NC1CCCc2ccccc21)C(C)(C)C

> <Shape>
0.237

> <Color>
0.080

> <Negative vol penalty>
0.000

$$$$

  -OEChem-04052303003D

 85 94  0     1  0  0  0  0  0999 V2000
  -20.1171  -20.5908   19.2044 C   0  0  0  0  0  0  0  0  0  0  0  0
  -21.4642  -20.7455   19.5153 C   0  0  0  0  0  0  0  0  0  0  0  0
  -19.6490  -27.9986   23.9485 C   0  0  0  0  0  0  0  0  0  0  0  0
  -20.8022  -27.2848   21.9492 C   0  0  0  0  0  0  0  0  0  0  0  0
  -19.4376  -19.4415   19.6059 C   0  0  0  0  0  0  0  0  0  0  0  0
  -22.1325  -19.7512   20.2289 C   0  0  0  0  0  0  0  0  0  0  0  0
  -26.6812  -18.6825   18.2764 C   0  0  0  0  0  0  0  0  0  0  0  0
  -31.4010  -28.2055   19.9441 C   0  0  0  0  0  0  0  0  0  0  0  0
  -30.3887  -28.9189   20.5858 C   0  0  0  0  0  0  0  0  0  0  0  0
  -18.4279  -27.6614   23.3647 C   0  0  0  0  0  0  0  0  0  0  0  0
  -19.5812  -26.9475   21.3653 C   0  0  0  0  0  0  0  0  0  0  0  0
  -27.7188  -19.5706   18.5562 C   0  0  0  0  0  0  0  0  0  0  0  0
  -17.3607  -24.4053   21.5307 C   0  0  0  0  0  0  0  0  0  0  0  0
  -17.2784  -23.1826   20.8645 C   0  0  0  0  0  0  0  0  0  0  0  0
  -29.6752  -26.9001   21.7049 C   0  0  0  0  0  0  0  0  0  0  0  0
  -28.5191  -18.0836   20.2789 C   0  0  0  0  0  0  0  0  0  0  0  0
  -16.7145  -24.3358   18.8177 C   0  0  0  0  0  0  0  0  0  0  0  0
  -20.8362  -27.8104   23.2408 C   0  0  0  0  0  0  0  0  0  0  0  0
  -22.6490  -27.6327   25.0268 C   0  0  0  0  0  0  0  0  0  0  0  0
  -20.1003  -18.4283   20.3165 C   0  0  0  0  0  0  0  0  0  0  0  0
  -26.5481  -17.4913   19.0044 C   0  0  0  0  0  0  0  0  0  0  0  0
  -21.4610  -18.5878   20.6415 C   0  0  0  0  0  0  0  0  0  0  0  0
  -30.6875  -26.1866   21.0632 C   0  0  0  0  0  0  0  0  0  0  0  0
  -27.4804  -17.1808   20.0046 C   0  0  0  0  0  0  0  0  0  0  0  0
  -31.5503  -26.8393   20.1828 C   0  0  0  0  0  0  0  0  0  0  0  0
  -29.5258  -28.2663   21.4662 C   0  0  0  0  0  0  0  0  0  0  0  0
  -18.3940  -27.1358   22.0730 C   0  0  0  0  0  0  0  0  0  0  0  0
  -28.6363  -19.2726   19.5595 C   0  0  0  0  0  0  0  0  0  0  0  0
  -17.1199  -25.5933   20.8404 C   0  0  0  0  0  0  0  0  0  0  0  0
  -16.9553  -23.1479   19.5080 C   0  0  0  0  0  0  0  0  0  0  0  0
  -16.7968  -25.5585   19.4840 C   0  0  0  0  0  0  0  0  0  0  0  0
  -22.0978  -28.1590   23.8432 C   0  0  0  0  0  0  0  0  0  0  0  0
  -23.8498  -28.2846   25.1658 C   0  0  0  0  0  0  0  0  0  0  0  0
  -22.1226  -26.6428   25.9205 C   0  0  0  0  0  0  0  0  0  0  0  0
  -24.3242  -16.2687   20.9183 C   0  0  0  0  0  0  0  0  0  0  0  0
  -26.2479  -13.6580   20.8411 C   0  0  0  0  0  0  0  0  0  0  0  0
  -29.3730  -12.3754   20.3561 C   0  0  0  0  0  0  0  0  0  0  0  0
  -28.2140  -30.3507   21.9964 C   0  0  0  0  0  0  0  0  0  0  0  0
  -19.3121  -17.2252   20.7703 C   0  0  0  0  0  0  0  0  0  0  0  0
  -25.4389  -16.5312   18.6723 C   0  0  0  0  0  0  0  0  0  0  0  0
  -27.3935  -15.9056   20.8013 C   0  0  0  0  0  0  0  0  0  0  0  0
  -20.1870  -16.0496   21.1977 C   0  0  0  0  0  0  0  0  0  0  0  0
  -30.5889  -22.8516   23.0523 C   0  0  0  0  0  0  0  0  0  0  0  0
  -25.7506  -32.5005   23.4060 C   0  0  0  0  0  0  0  0  0  0  0  0
  -30.4293  -24.3459   22.7814 C   0  0  0  0  0  0  0  0  0  0  0  0
  -21.3098  -16.5252   22.1142 C   0  0  0  0  0  0  0  0  0  0  0  0
  -29.8162  -22.0097   22.0401 C   0  0  0  0  0  0  0  0  0  0  0  0
  -24.6105  -31.5501   23.7788 C   0  0  0  0  0  0  0  0  0  0  0  0
  -30.0494  -23.8508   20.3228 C   0  0  0  0  0  0  0  0  0  0  0  0
  -26.4353  -32.0824   22.1059 C   0  0  0  0  0  0  0  0  0  0  0  0
  -25.7557  -29.7381   22.4399 C   0  0  0  0  0  0  0  0  0  0  0  0
  -30.8321  -24.7011   21.3402 C   0  0  1  0  0  0  0  0  0  0  0  0
  -22.2267  -17.5203   21.3926 C   0  0  1  0  0  0  0  0  0  0  0  0
  -25.0984  -15.5902   19.8238 C   0  0  1  0  0  0  0  0  0  0  0  0
  -30.2168  -22.3487   20.5981 C   0  0  2  0  0  0  0  0  0  0  0  0
  -25.0777  -30.0813   23.7765 C   0  0  2  0  0  0  0  0  0  0  0  0
  -32.6411  -26.0964   19.4835 C   0  0  0  0  0  0  0  0  0  0  0  0
  -30.6427  -10.2112   20.3992 C   0  0  0  0  0  0  0  0  0  0  0  0
  -26.2401  -13.7170   23.8917 C   0  0  0  0  0  0  0  0  0  0  0  0
  -28.2228  -12.1886   23.8569 C   0  0  0  0  0  0  0  0  0  0  0  0
  -26.0503  -11.4325   22.8920 C   0  0  0  0  0  0  0  0  0  0  0  0
  -30.0960  -12.6085   17.4957 C   0  0  0  0  0  0  0  0  0  0  0  0
  -29.4010  -21.5241   19.6038 C   0  0  0  0  0  0  0  0  0  1  0  0
  -27.4168  -13.1668   21.6604 C   0  0  1  0  0  0  0  0  0  0  0  0
  -29.8607  -11.1922   19.5395 C   0  0  2  0  0  0  0  0  0  0  0  0
  -26.9833  -12.6512   23.0617 C   0  0  0  0  0  0  0  0  0  0  0  0
  -22.8838  -29.0750   23.2711 N   0  0  0  0  0  0  0  0  0  0  0  0
  -23.9412  -29.1293   24.0988 N   0  0  0  0  0  0  0  0  0  0  0  0
  -26.2876  -15.0020   20.4435 N   0  0  0  0  0  0  0  0  0  0  0  0
  -26.8544  -30.6810   22.1783 N   0  0  0  0  0  0  0  0  0  0  0  0
  -24.8259  -28.2122   26.0955 N   0  0  0  0  0  0  0  0  0  0  0  0
  -22.4334  -25.2967   25.6845 N   0  0  0  0  0  0  0  0  0  0  0  0
  -28.4985  -28.9911   22.1198 N   0  0  0  0  0  0  0  0  0  0  0  0
  -23.1285  -16.8222   20.5017 N   0  0  0  0  0  0  0  0  0  0  0  0
  -28.0990  -12.1703   20.8419 N   0  0  0  0  0  0  0  0  0  0  0  0
  -30.7447  -11.6557   18.4329 N   0  3  0  0  0  0  0  0  0  0  0  0
  -21.3847  -26.9417   26.8899 O   0  0  0  0  0  0  0  0  0  0  0  0
  -24.7772  -16.2873   22.0567 O   0  0  0  0  0  0  0  0  0  0  0  0
  -25.3368  -12.8762   20.5580 O   0  0  0  0  0  0  0  0  0  0  0  0
  -30.0556  -13.3794   20.5472 O   0  0  0  0  0  0  0  0  0  0  0  0
  -29.0677  -31.2137   21.7762 O   0  0  0  0  0  0  0  0  0  0  0  0
  -17.2027  -26.8064   21.5031 O   0  0  0  0  0  0  0  0  0  0  0  0
  -29.6496  -20.1381   19.8351 O   0  0  0  0  0  0  0  0  0  1  0  0
  -16.8778  -21.9737   18.8680 F   0  0  0  0  0  0  0  0  0  0  0  0
  -16.5655  -26.6966   18.8152 F   0  0  0  0  0  0  0  0  0  0  0  0
  1  2  1  0  0  0  0
  1  5  2  0  0  0  0
  2  6  2  0  0  0  0
  3 10  2  0  0  0  0
  3 18  1  0  0  0  0
  4 11  1  0  0  0  0
  4 18  2  0  0  0  0
  5 20  1  0  0  0  0
  6 22  1  0  0  0  0
  7 12  2  0  0  0  0
  7 21  1  0  0  0  0
  8  9  2  0  0  0  0
  8 25  1  0  0  0  0
  9 26  1  0  0  0  0
 10 27  1  0  0  0  0
 11 27  2  0  0  0  0
 12 28  1  0  0  0  0
 13 14  2  0  0  0  0
 13 29  1  0  0  0  0
 14 30  1  0  0  0  0
 15 23  1  0  0  0  0
 15 26  2  0  0  0  0
 16 24  1  0  0  0  0
 16 28  2  0  0  0  0
 17 30  2  0  0  0  0
 17 31  1  0  0  0  0
 18 32  1  0  0  0  0
 19 32  1  0  0  0  0
 19 33  2  0  0  0  0
 19 34  1  0  0  0  0
 20 22  2  0  0  0  0
 20 39  1  0  0  0  0
 21 24  2  0  0  0  0
 21 40  1  0  0  0  0
 22 53  1  0  0  0  0
 23 25  2  0  0  0  0
 23 52  1  0  0  0  0
 24 41  1  0  0  0  0
 25 57  1  0  0  0  0
 26 73  1  0  0  0  0
 27 82  1  0  0  0  0
 28 83  1  0  0  0  0
 29 31  2  0  0  0  0
 29 82  1  0  0  0  0
 30 84  1  0  0  0  0
 31 85  1  0  0  0  0
 32 67  2  0  0  0  0
 33 68  1  0  0  0  0
 33 71  1  0  0  0  0
 34 72  1  0  0  0  0
 34 77  2  0  0  0  0
 35 54  1  0  0  0  0
 35 74  1  0  0  0  0
 35 78  2  0  0  0  0
 36 64  1  0  0  0  0
 36 69  1  0  0  0  0
 36 79  2  0  0  0  0
 37 65  1  0  0  0  0
 37 75  1  0  0  0  0
 37 80  2  0  0  0  0
 38 70  1  0  0  0  0
 38 73  1  0  0  0  0
 38 81  2  0  0  0  0
 39 42  1  0  0  0  0
 40 54  1  0  0  0  0
 41 69  1  0  0  0  0
 42 46  1  0  0  0  0
 43 45  1  0  0  0  0
 43 47  1  0  0  0  0
 44 48  1  0  0  0  0
 44 50  1  0  0  0  0
 45 52  1  0  0  0  0
 46 53  1  0  0  0  0
 47 55  1  0  0  0  0
 48 56  1  0  0  0  0
 49 52  1  0  0  0  0
 49 55  1  0  0  0  0
 50 70  1  0  0  0  0
 51 56  1  0  0  0  0
 51 70  1  0  0  0  0
 53 74  1  0  0  0  0
 54 69  1  0  0  0  0
 55 63  1  0  0  0  0
 56 68  1  0  0  0  0
 58 65  1  0  0  0  0
 59 66  1  0  0  0  0
 60 66  1  0  0  0  0
 61 66  1  0  0  0  0
 62 76  1  0  0  0  0
 63 83  1  0  0  0  0
 64 66  1  0  0  0  0
 64 75  1  0  0  0  0
 65 76  1  0  0  0  0
 67 68  1  0  0  0  0
M  CHG  1  76   1
M  ISO  4  38 100  63 101  73 100  83 101
M  END
> <Batch ID>
0143

> <Smiles>
CNC(C)C(=O)NC(C(=O)N1Cc2cc([101O:1][101CH2:1]C3CCCC(c4cc([100NH:0][100C:0](=O)N5CCCC(n6nc(-c7ccc(Oc8ccc(F)cc8F)cc7)c(C(N)=O)c6N)C5)ccc4C)C3)ccc2CC1C(=O)NC1CCCc2ccccc21)C(C)(C)C

> <Shape>
0.236

> <Color>
0.050

> <Negative vol penalty>
0.000

$$$$

  -OEChem-04052303003D

 87 95  0     1  0  0  0  0  0999 V2000
  -24.2760  -31.5106   29.2692 C   0  0  0  0  0  0  0  0  0  0  0  0
  -25.2084  -31.0107   28.3657 C   0  0  0  0  0  0  0  0  0  0  0  0
  -23.1879   -9.9757   22.2416 C   0  0  0  0  0  0  0  0  0  0  0  0
  -24.0427   -9.2778   20.0924 C   0  0  0  0  0  0  0  0  0  0  0  0
  -31.6628  -17.1098   18.3272 C   0  0  0  0  0  0  0  0  0  0  0  0
  -22.9136  -31.3286   29.0356 C   0  0  0  0  0  0  0  0  0  0  0  0
  -24.7788  -30.3273   27.2287 C   0  0  0  0  0  0  0  0  0  0  0  0
  -27.3993  -30.3776   21.6937 C   0  0  0  0  0  0  0  0  0  0  0  0
  -30.4431  -16.4645   18.1237 C   0  0  0  0  0  0  0  0  0  0  0  0
  -22.3685   -8.8477   22.2821 C   0  0  0  0  0  0  0  0  0  0  0  0
  -23.2233   -8.1497   20.1328 C   0  0  0  0  0  0  0  0  0  0  0  0
  -28.2654  -29.4892   21.0579 C   0  0  0  0  0  0  0  0  0  0  0  0
  -22.6955   -5.5549   22.9777 C   0  0  0  0  0  0  0  0  0  0  0  0
  -22.6430   -4.8343   24.1709 C   0  0  0  0  0  0  0  0  0  0  0  0
  -26.3853  -28.4528   19.9579 C   0  0  0  0  0  0  0  0  0  0  0  0
  -29.2940  -18.5829   18.2941 C   0  0  0  0  0  0  0  0  0  0  0  0
  -20.2658   -5.2420   24.3124 C   0  0  0  0  0  0  0  0  0  0  0  0
  -24.0250  -10.1908   21.1467 C   0  0  0  0  0  0  0  0  0  0  0  0
  -31.6982  -18.4917   18.5143 C   0  0  0  0  0  0  0  0  0  0  0  0
  -26.1874  -11.4693   21.5906 C   0  0  0  0  0  0  0  0  0  0  0  0
  -22.4668  -30.6511   27.8902 C   0  0  0  0  0  0  0  0  0  0  0  0
  -26.0162  -30.3031   21.4744 C   0  0  0  0  0  0  0  0  0  0  0  0
  -23.4091  -30.1348   26.9802 C   0  0  0  0  0  0  0  0  0  0  0  0
  -25.5039  -29.3430   20.5901 C   0  0  0  0  0  0  0  0  0  0  0  0
  -29.2587  -17.2011   18.1071 C   0  0  0  0  0  0  0  0  0  0  0  0
  -30.5138  -19.2282   18.4977 C   0  0  0  0  0  0  0  0  0  0  0  0
  -22.3862   -7.9346   21.2277 C   0  0  0  0  0  0  0  0  0  0  0  0
  -27.7582  -28.5247   20.1920 C   0  0  0  0  0  0  0  0  0  0  0  0
  -21.5332   -6.1192   22.4520 C   0  0  0  0  0  0  0  0  0  0  0  0
  -21.4282   -4.6778   24.8382 C   0  0  0  0  0  0  0  0  0  0  0  0
  -20.3184   -5.9626   23.1193 C   0  0  0  0  0  0  0  0  0  0  0  0
  -24.8712  -11.3562   21.1041 C   0  0  0  0  0  0  0  0  0  0  0  0
  -26.5464  -12.7653   21.3116 C   0  0  0  0  0  0  0  0  0  0  0  0
  -32.9892  -19.1348   18.7248 C   0  0  0  0  0  0  0  0  0  0  0  0
  -27.0118  -10.4903   22.2369 C   0  0  0  0  0  0  0  0  0  0  0  0
  -23.4818  -29.7373   23.3074 C   0  0  0  0  0  0  0  0  0  0  0  0
  -21.8486  -30.4687   20.6018 C   0  0  0  0  0  0  0  0  0  0  0  0
  -29.4338  -21.4945   18.6986 C   0  0  0  0  0  0  0  0  0  0  0  0
  -21.8290  -30.6726   17.1953 C   0  0  0  0  0  0  0  0  0  0  0  0
  -26.7532  -17.1259   17.8554 C   0  0  0  0  0  0  0  0  0  0  0  0
  -20.9854  -30.4376   27.7046 C   0  0  0  0  0  0  0  0  0  0  0  0
  -25.0978  -31.2860   22.1473 C   0  0  0  0  0  0  0  0  0  0  0  0
  -24.0290  -29.2345   20.3051 C   0  0  0  0  0  0  0  0  0  0  0  0
  -20.6020  -30.0289   26.2847 C   0  0  0  0  0  0  0  0  0  0  0  0
  -23.7623  -16.6884   19.7369 C   0  0  0  0  0  0  0  0  0  0  0  0
  -21.5272  -28.9268   25.7782 C   0  0  0  0  0  0  0  0  0  0  0  0
  -23.8924  -15.2714   20.3004 C   0  0  0  0  0  0  0  0  0  0  0  0
  -24.3359  -16.7921   18.3249 C   0  0  0  0  0  0  0  0  0  0  0  0
  -25.8438  -14.8888   18.7406 C   0  0  0  0  0  0  0  0  0  0  0  0
  -22.9816  -29.4097   25.7227 C   0  0  1  0  0  0  0  0  0  0  0  0
  -23.6594  -30.7875   22.2477 C   0  0  1  0  0  0  0  0  0  0  0  0
  -25.3383  -14.7501   20.1859 C   0  0  2  0  0  0  0  0  0  0  0  0
  -34.0606  -18.3284   19.3961 C   0  0  0  0  0  0  0  0  0  0  0  0
  -20.3385  -31.2673   15.2660 C   0  0  0  0  0  0  0  0  0  0  0  0
  -20.3867  -27.8089   20.9147 C   0  0  0  0  0  0  0  0  0  0  0  0
  -19.6461  -28.0153   18.5320 C   0  0  0  0  0  0  0  0  0  0  0  0
  -18.9360  -29.7199   20.2091 C   0  0  0  0  0  0  0  0  0  0  0  0
  -23.6237  -32.8625   16.3333 C   0  0  0  0  0  0  0  0  0  0  0  0
  -29.8891  -22.9297   18.9327 C   0  0  0  0  0  0  0  0  0  0  0  0
  -28.7469  -23.9445   18.9609 C   0  0  0  0  0  0  0  0  0  0  0  0
  -29.2337  -25.3603   19.2721 C   0  0  0  0  0  0  0  0  0  0  0  0
  -28.0869  -26.3617   19.2598 C   0  0  0  0  0  0  0  0  0  1  0  0
  -21.3368  -29.6853   19.4172 C   0  0  1  0  0  0  0  0  0  0  0  0
  -21.3765  -31.7749   16.2547 C   0  0  2  0  0  0  0  0  0  0  0  0
  -20.1041  -28.8079   19.7749 C   0  0  0  0  0  0  0  0  0  0  0  0
  -24.4243  -12.4900   20.5576 N   0  0  0  0  0  0  0  0  0  0  0  0
  -25.4655  -13.3279   20.6991 N   0  0  0  0  0  0  0  0  0  0  0  0
  -23.1710  -30.2140   20.9920 N   0  0  0  0  0  0  0  0  0  0  0  0
  -25.7092  -16.2842   18.2940 N   0  0  0  0  0  0  0  0  0  0  0  0
  -27.6781  -13.4672   21.5330 N   0  0  0  0  0  0  0  0  0  0  0  0
  -26.4869   -9.2076   22.4455 N   0  0  0  0  0  0  0  0  0  0  0  0
  -30.5255  -20.6309   18.6858 N   0  0  0  0  0  0  0  0  0  0  0  0
  -28.0200  -16.5447   17.9006 N   0  0  0  0  0  0  0  0  0  0  0  0
  -23.1927  -30.2449   24.5597 N   0  0  0  0  0  0  0  0  0  0  0  0
  -21.0903  -30.6593   18.3594 N   0  0  0  0  0  0  0  0  0  0  0  0
  -22.5363  -32.3086   15.4860 N   0  3  0  0  0  0  0  0  0  0  0  0
  -33.2613  -20.2896   18.3969 O   0  0  0  0  0  0  0  0  0  0  0  0
  -28.1733  -10.7502   22.6328 O   0  0  0  0  0  0  0  0  0  0  0  0
  -23.5969  -28.5539   23.0106 O   0  0  0  0  0  0  0  0  0  0  0  0
  -21.1049  -31.2820   21.1560 O   0  0  0  0  0  0  0  0  0  0  0  0
  -28.2504  -21.1991   18.5691 O   0  0  0  0  0  0  0  0  0  0  0  0
  -22.7438  -29.8983   16.9227 O   0  0  0  0  0  0  0  0  0  0  0  0
  -26.5427  -18.2866   17.4940 O   0  0  0  0  0  0  0  0  0  0  0  0
  -21.5869   -6.8336   21.2669 O   0  0  0  0  0  0  0  0  0  0  0  0
  -28.6014  -27.6559   19.5706 O   0  0  0  0  0  0  0  0  0  1  0  0
  -21.3776   -3.9845   25.9831 F   0  0  0  0  0  0  0  0  0  0  0  0
  -19.1982   -6.5013   22.6184 F   0  0  0  0  0  0  0  0  0  0  0  0
  1  2  1  0  0  0  0
  1  6  2  0  0  0  0
  2  7  2  0  0  0  0
  3 10  2  0  0  0  0
  3 18  1  0  0  0  0
  4 11  1  0  0  0  0
  4 18  2  0  0  0  0
  5  9  2  0  0  0  0
  5 19  1  0  0  0  0
  6 21  1  0  0  0  0
  7 23  1  0  0  0  0
  8 12  2  0  0  0  0
  8 22  1  0  0  0  0
  9 25  1  0  0  0  0
 10 27  1  0  0  0  0
 11 27  2  0  0  0  0
 12 28  1  0  0  0  0
 13 14  2  0  0  0  0
 13 29  1  0  0  0  0
 14 30  1  0  0  0  0
 15 24  1  0  0  0  0
 15 28  2  0  0  0  0
 16 25  2  0  0  0  0
 16 26  1  0  0  0  0
 17 30  2  0  0  0  0
 17 31  1  0  0  0  0
 18 32  1  0  0  0  0
 19 26  2  0  0  0  0
 19 34  1  0  0  0  0
 20 32  1  0  0  0  0
 20 33  2  0  0  0  0
 20 35  1  0  0  0  0
 21 23  2  0  0  0  0
 21 41  1  0  0  0  0
 22 24  2  0  0  0  0
 22 42  1  0  0  0  0
 23 50  1  0  0  0  0
 24 43  1  0  0  0  0
 25 73  1  0  0  0  0
 26 72  1  0  0  0  0
 27 84  1  0  0  0  0
 28 85  1  0  0  0  0
 29 31  2  0  0  0  0
 29 84  1  0  0  0  0
 30 86  1  0  0  0  0
 31 87  1  0  0  0  0
 32 66  2  0  0  0  0
 33 67  1  0  0  0  0
 33 70  1  0  0  0  0
 34 53  1  0  0  0  0
 34 77  2  0  0  0  0
 35 71  1  0  0  0  0
 35 78  2  0  0  0  0
 36 51  1  0  0  0  0
 36 74  1  0  0  0  0
 36 79  2  0  0  0  0
 37 63  1  0  0  0  0
 37 68  1  0  0  0  0
 37 80  2  0  0  0  0
 38 59  1  0  0  0  0
 38 72  1  0  0  0  0
 38 81  2  0  0  0  0
 39 64  1  0  0  0  0
 39 75  1  0  0  0  0
 39 82  2  0  0  0  0
 40 69  1  0  0  0  0
 40 73  1  0  0  0  0
 40 83  2  0  0  0  0
 41 44  1  0  0  0  0
 42 51  1  0  0  0  0
 43 68  1  0  0  0  0
 44 46  1  0  0  0  0
 45 47  1  0  0  0  0
 45 48  1  0  0  0  0
 46 50  1  0  0  0  0
 47 52  1  0  0  0  0
 48 69  1  0  0  0  0
 49 52  1  0  0  0  0
 49 69  1  0  0  0  0
 50 74  1  0  0  0  0
 51 68  1  0  0  0  0
 52 67  1  0  0  0  0
 54 64  1  0  0  0  0
 55 65  1  0  0  0  0
 56 65  1  0  0  0  0
 57 65  1  0  0  0  0
 58 76  1  0  0  0  0
 59 60  1  0  0  0  0
 60 61  1  0  0  0  0
 61 62  1  0  0  0  0
 62 85  1  0  0  0  0
 63 65  1  0  0  0  0
 63 75  1  0  0  0  0
 64 76  1  0  0  0  0
 66 67  1  0  0  0  0
M  CHG  1  76   1
M  ISO  4  40 100  62 101  73 100  85 101
M  END
> <Batch ID>
0143

> <Smiles>
CNC(C)C(=O)NC(C(=O)N1Cc2cc([101O:1][101CH2:1]CCCC(=O)Nc3cc([100NH:0][100C:0](=O)N4CCCC(n5nc(-c6ccc(Oc7ccc(F)cc7F)cc6)c(C(N)=O)c5N)C4)ccc3C(C)=O)ccc2CC1C(=O)NC1CCCc2ccccc21)C(C)(C)C

> <Shape>
0.240

> <Color>
0.114

> <Negative vol penalty>
0.000

$$$$

  -OEChem-04052303003D

 86 95  0     1  0  0  0  0  0999 V2000
  -30.5905  -32.6416   15.2617 C   0  0  0  0  0  0  0  0  0  0  0  0
  -30.6263  -31.8398   16.3980 C   0  0  0  0  0  0  0  0  0  0  0  0
  -23.7774   -9.4829   19.9057 C   0  0  0  0  0  0  0  0  0  0  0  0
  -24.4385   -9.6717   22.2218 C   0  0  0  0  0  0  0  0  0  0  0  0
  -29.6544  -33.6703   15.1649 C   0  0  0  0  0  0  0  0  0  0  0  0
  -29.7264  -32.0669   17.4387 C   0  0  0  0  0  0  0  0  0  0  0  0
  -27.6684  -27.7866   19.1962 C   0  0  0  0  0  0  0  0  0  0  0  0
  -23.2962   -8.1963   20.1479 C   0  0  0  0  0  0  0  0  0  0  0  0
  -23.9573   -8.3851   22.4641 C   0  0  0  0  0  0  0  0  0  0  0  0
  -28.4488  -27.0088   20.0504 C   0  0  0  0  0  0  0  0  0  0  0  0
  -20.9638   -6.9022   22.9745 C   0  0  0  0  0  0  0  0  0  0  0  0
  -20.1945   -6.7049   24.1211 C   0  0  0  0  0  0  0  0  0  0  0  0
  -29.9227  -18.8909   20.7009 C   0  0  0  0  0  0  0  0  0  0  0  0
  -27.2691  -27.9190   21.9474 C   0  0  0  0  0  0  0  0  0  0  0  0
  -28.2019  -18.7299   22.4462 C   0  0  0  0  0  0  0  0  0  0  0  0
  -21.8044   -5.0921   24.9237 C   0  0  0  0  0  0  0  0  0  0  0  0
  -24.3486  -10.2206   20.9426 C   0  0  0  0  0  0  0  0  0  0  0  0
  -24.1327  -12.7584   20.7983 C   0  0  0  0  0  0  0  0  0  0  0  0
  -28.7363  -33.9039   16.2008 C   0  0  0  0  0  0  0  0  0  0  0  0
  -26.6882  -28.6461   19.7128 C   0  0  0  0  0  0  0  0  0  0  0  0
  -28.7780  -33.1005   17.3563 C   0  0  0  0  0  0  0  0  0  0  0  0
  -29.7397  -20.2466   20.7416 C   0  0  0  0  0  0  0  0  0  0  0  0
  -26.4758  -28.7048   21.0976 C   0  0  0  0  0  0  0  0  0  0  0  0
  -28.0305  -20.1159   22.4715 C   0  0  0  0  0  0  0  0  0  0  0  0
  -28.8228  -20.8091   21.6024 C   0  0  0  0  0  0  0  0  0  0  0  0
  -29.1366  -18.1234   21.5715 C   0  0  0  0  0  0  0  0  0  0  0  0
  -23.3861   -7.6474   21.4271 C   0  0  0  0  0  0  0  0  0  0  0  0
  -28.2513  -27.0770   21.4264 C   0  0  0  0  0  0  0  0  0  0  0  0
  -22.1534   -6.1944   22.8024 C   0  0  0  0  0  0  0  0  0  0  0  0
  -20.6148   -5.7999   25.0958 C   0  0  0  0  0  0  0  0  0  0  0  0
  -22.5737   -5.2894   23.7771 C   0  0  0  0  0  0  0  0  0  0  0  0
  -24.8464  -11.5495   20.6929 C   0  0  0  0  0  0  0  0  0  0  0  0
  -25.0458  -13.7269   20.4596 C   0  0  0  0  0  0  0  0  0  0  0  0
  -22.7665  -12.9855   21.1693 C   0  0  0  0  0  0  0  0  0  0  0  0
  -26.2094  -31.7881   19.6656 C   0  0  0  0  0  0  0  0  0  0  0  0
  -28.6691  -23.3346   21.4876 C   0  0  0  0  0  0  0  0  0  0  0  0
  -23.4089  -30.9901   21.0949 C   0  0  0  0  0  0  0  0  0  0  0  0
  -21.6464  -28.7412   22.9612 C   0  0  0  0  0  0  0  0  0  0  0  0
  -30.1407  -15.9478   20.7937 C   0  0  0  0  0  0  0  0  0  0  0  0
  -27.7738  -35.0578   16.0713 C   0  0  0  0  0  0  0  0  0  0  0  0
  -25.8365  -29.4587   18.7765 C   0  0  0  0  0  0  0  0  0  0  0  0
  -30.1193  -21.6002   20.2163 C   0  0  0  0  0  0  0  0  0  0  0  0
  -25.4227  -29.5964   21.7013 C   0  0  0  0  0  0  0  0  0  0  0  0
  -26.6099  -34.9937   17.0569 C   0  0  0  0  0  0  0  0  0  0  0  0
  -29.6639  -13.3326   18.4251 C   0  0  0  0  0  0  0  0  0  0  0  0
  -27.1152  -34.6702   18.4593 C   0  0  0  0  0  0  0  0  0  0  0  0
  -28.3094  -12.7350   18.8126 C   0  0  0  0  0  0  0  0  0  0  0  0
  -30.4651  -13.7647   19.6520 C   0  0  0  0  0  0  0  0  0  0  0  0
  -28.3997  -14.0621   20.9615 C   0  0  0  0  0  0  0  0  0  0  0  0
  -27.8022  -33.2998   18.4957 C   0  0  1  0  0  0  0  0  0  0  0  0
  -25.2162  -30.6828   19.4430 C   0  0  1  0  0  0  0  0  0  0  0  0
  -27.5293  -13.6717   19.7559 C   0  0  2  0  0  0  0  0  0  0  0  0
  -27.0533  -20.7559   23.3860 C   0  0  0  0  0  0  0  0  0  0  0  0
  -19.3911  -28.3829   24.0017 C   0  0  0  0  0  0  0  0  0  0  0  0
  -24.1162  -32.9718   23.3045 C   0  0  0  0  0  0  0  0  0  0  0  0
  -22.3644  -31.8965   24.7338 C   0  0  0  0  0  0  0  0  0  0  0  0
  -21.7177  -33.0101   22.5974 C   0  0  0  0  0  0  0  0  0  0  0  0
  -30.7185  -24.7290   22.7861 C   0  0  0  0  0  0  0  0  0  0  0  0
  -30.9855  -26.3733   20.9171 C   0  0  0  0  0  0  0  0  0  0  0  0
  -21.1667  -26.2992   21.3594 C   0  0  0  0  0  0  0  0  0  0  0  0
  -29.3022  -24.4707   20.7297 C   0  0  0  0  0  0  0  0  0  0  0  0
  -22.9515  -30.8047   22.5215 C   0  0  1  0  0  0  0  0  0  0  0  0
  -20.2622  -28.1454   22.7780 C   0  0  2  0  0  0  0  0  0  0  0  0
  -22.8087  -32.1553   23.2784 C   0  0  0  0  0  0  0  0  0  0  0  0
  -29.9945  -25.4765   21.6616 C   0  0  0  0  0  0  0  0  0  1  0  0
  -26.1150  -11.7309   20.3165 N   0  0  0  0  0  0  0  0  0  0  0  0
  -26.2056  -13.0650   20.1824 N   0  0  0  0  0  0  0  0  0  0  0  0
  -29.1100  -22.0825   21.1787 N   0  0  0  0  0  0  0  0  0  0  0  0
  -24.6198  -30.3761   20.7448 N   0  0  0  0  0  0  0  0  0  0  0  0
  -29.6642  -14.6535   20.4966 N   0  0  0  0  0  0  0  0  0  0  0  0
  -24.9617  -15.0715   20.3747 N   0  0  0  0  0  0  0  0  0  0  0  0
  -21.9675  -11.8787   21.4868 N   0  0  0  0  0  0  0  0  0  0  0  0
  -29.2788  -16.7136   21.5781 N   0  0  0  0  0  0  0  0  0  0  0  0
  -26.8163  -32.2404   18.5095 N   0  0  0  0  0  0  0  0  0  0  0  0
  -21.7216  -30.0226   22.4575 N   0  0  0  0  0  0  0  0  0  0  0  0
  -20.3572  -26.6762   22.5466 N   0  3  0  0  0  0  0  0  0  0  0  0
  -22.2645  -14.1346   21.2019 O   0  0  0  0  0  0  0  0  0  0  0  0
  -26.4091  -32.2012   20.8019 O   0  0  0  0  0  0  0  0  0  0  0  0
  -27.8021  -23.5544   22.3353 O   0  0  0  0  0  0  0  0  0  0  0  0
  -22.7137  -31.6492   20.3178 O   0  0  0  0  0  0  0  0  0  0  0  0
  -22.5676  -28.1323   23.5007 O   0  0  0  0  0  0  0  0  0  0  0  0
  -31.2207  -16.3572   20.3600 O   0  0  0  0  0  0  0  0  0  0  0  0
  -22.9165   -6.3920   21.6639 O   0  0  0  0  0  0  0  0  0  0  0  0
  -29.0121  -26.3193   22.2624 O   0  0  0  0  0  0  0  0  0  1  0  0
  -19.8766   -5.6116   26.1976 F   0  0  0  0  0  0  0  0  0  0  0  0
  -23.7162   -4.6074   23.6179 F   0  0  0  0  0  0  0  0  0  0  0  0
  1  2  1  0  0  0  0
  1  5  2  0  0  0  0
  2  6  2  0  0  0  0
  3  8  2  0  0  0  0
  3 17  1  0  0  0  0
  4  9  1  0  0  0  0
  4 17  2  0  0  0  0
  5 19  1  0  0  0  0
  6 21  1  0  0  0  0
  7 10  2  0  0  0  0
  7 20  1  0  0  0  0
  8 27  1  0  0  0  0
  9 27  2  0  0  0  0
 10 28  1  0  0  0  0
 11 12  2  0  0  0  0
 11 29  1  0  0  0  0
 12 30  1  0  0  0  0
 13 22  1  0  0  0  0
 13 26  2  0  0  0  0
 14 23  1  0  0  0  0
 14 28  2  0  0  0  0
 15 24  2  0  0  0  0
 15 26  1  0  0  0  0
 16 30  2  0  0  0  0
 16 31  1  0  0  0  0
 17 32  1  0  0  0  0
 18 32  1  0  0  0  0
 18 33  2  0  0  0  0
 18 34  1  0  0  0  0
 19 21  2  0  0  0  0
 19 40  1  0  0  0  0
 20 23  2  0  0  0  0
 20 41  1  0  0  0  0
 21 50  1  0  0  0  0
 22 25  2  0  0  0  0
 22 42  1  0  0  0  0
 23 43  1  0  0  0  0
 24 25  1  0  0  0  0
 24 53  1  0  0  0  0
 25 68  1  0  0  0  0
 26 73  1  0  0  0  0
 27 83  1  0  0  0  0
 28 84  1  0  0  0  0
 29 31  2  0  0  0  0
 29 83  1  0  0  0  0
 30 85  1  0  0  0  0
 31 86  1  0  0  0  0
 32 66  2  0  0  0  0
 33 67  1  0  0  0  0
 33 71  1  0  0  0  0
 34 72  1  0  0  0  0
 34 77  2  0  0  0  0
 35 51  1  0  0  0  0
 35 74  1  0  0  0  0
 35 78  2  0  0  0  0
 36 61  1  0  0  0  0
 36 68  1  0  0  0  0
 36 79  2  0  0  0  0
 37 62  1  0  0  0  0
 37 69  1  0  0  0  0
 37 80  2  0  0  0  0
 38 63  1  0  0  0  0
 38 75  1  0  0  0  0
 38 81  2  0  0  0  0
 39 70  1  0  0  0  0
 39 73  1  0  0  0  0
 39 82  2  0  0  0  0
 40 44  1  0  0  0  0
 41 51  1  0  0  0  0
 42 68  1  0  0  0  0
 43 69  1  0  0  0  0
 44 46  1  0  0  0  0
 45 47  1  0  0  0  0
 45 48  1  0  0  0  0
 46 50  1  0  0  0  0
 47 52  1  0  0  0  0
 48 70  1  0  0  0  0
 49 52  1  0  0  0  0
 49 70  1  0  0  0  0
 50 74  1  0  0  0  0
 51 69  1  0  0  0  0
 52 67  1  0  0  0  0
 54 63  1  0  0  0  0
 55 64  1  0  0  0  0
 56 64  1  0  0  0  0
 57 64  1  0  0  0  0
 58 65  1  0  0  0  0
 59 65  1  0  0  0  0
 60 76  1  0  0  0  0
 61 65  1  0  0  0  0
 62 64  1  0  0  0  0
 62 75  1  0  0  0  0
 63 76  1  0  0  0  0
 65 84  1  0  0  0  0
 66 67  1  0  0  0  0
M  CHG  1  76   1
M  ISO  4  39 100  65 101  73 100  84 101
M  END
> <Batch ID>
0143

> <Smiles>
CNC(C)C(=O)NC(C(=O)N1Cc2cc([101O:1][101C:1](C)(C)CC(=O)N3Cc4cc([100NH:0][100C:0](=O)N5CCCC(n6nc(-c7ccc(Oc8ccc(F)cc8F)cc7)c(C(N)=O)c6N)C5)cc(C)c43)ccc2CC1C(=O)NC1CCCc2ccccc21)C(C)(C)C

> <Shape>
0.342

> <Color>
0.148

> <Negative vol penalty>
0.000

$$$$

  -OEChem-04052303003D

 85 94  0     1  0  0  0  0  0999 V2000
  -28.2829  -37.9708   25.7068 C   0  0  0  0  0  0  0  0  0  0  0  0
  -28.6587  -36.6659   25.4087 C   0  0  0  0  0  0  0  0  0  0  0  0
  -22.9206  -10.2744   20.5301 C   0  0  0  0  0  0  0  0  0  0  0  0
  -24.6364   -8.7830   21.3477 C   0  0  0  0  0  0  0  0  0  0  0  0
  -26.9321  -38.2973   25.8071 C   0  0  0  0  0  0  0  0  0  0  0  0
  -27.6839  -35.6898   25.1991 C   0  0  0  0  0  0  0  0  0  0  0  0
  -28.4987  -29.7966   21.5699 C   0  0  0  0  0  0  0  0  0  0  0  0
  -22.0198   -9.7445   21.4539 C   0  0  0  0  0  0  0  0  0  0  0  0
  -23.7356   -8.2531   22.2715 C   0  0  0  0  0  0  0  0  0  0  0  0
  -28.6673  -28.5551   20.9564 C   0  0  0  0  0  0  0  0  0  0  0  0
  -21.1809   -6.0385   22.2718 C   0  0  0  0  0  0  0  0  0  0  0  0
  -21.1367   -4.6514   22.4115 C   0  0  0  0  0  0  0  0  0  0  0  0
  -26.3699  -27.9860   21.4523 C   0  0  0  0  0  0  0  0  0  0  0  0
  -29.5635  -18.1152   20.2088 C   0  0  0  0  0  0  0  0  0  0  0  0
  -21.7422   -4.8666   24.7405 C   0  0  0  0  0  0  0  0  0  0  0  0
  -27.6327  -19.4087   20.1756 C   0  0  0  0  0  0  0  0  0  0  0  0
  -24.2289   -9.7936   20.4770 C   0  0  0  0  0  0  0  0  0  0  0  0
  -25.0381  -10.3393   18.1201 C   0  0  0  0  0  0  0  0  0  0  0  0
  -25.9412  -37.3214   25.6108 C   0  0  0  0  0  0  0  0  0  0  0  0
  -27.2591  -30.1440   22.1140 C   0  0  0  0  0  0  0  0  0  0  0  0
  -26.3150  -36.0049   25.2724 C   0  0  0  0  0  0  0  0  0  0  0  0
  -26.1915  -29.2331   22.0570 C   0  0  0  0  0  0  0  0  0  0  0  0
  -29.0095  -19.4279   20.2153 C   0  0  0  0  0  0  0  0  0  0  0  0
  -22.4273   -8.7339   22.3246 C   0  0  0  0  0  0  0  0  0  0  0  0
  -27.6056  -27.6520   20.8980 C   0  0  0  0  0  0  0  0  0  0  0  0
  -21.5059   -6.8397   23.3664 C   0  0  0  0  0  0  0  0  0  0  0  0
  -21.4172   -4.0654   23.6459 C   0  0  0  0  0  0  0  0  0  0  0  0
  -21.7865   -6.2538   24.6008 C   0  0  0  0  0  0  0  0  0  0  0  0
  -25.1597  -10.3402   19.5226 C   0  0  0  0  0  0  0  0  0  0  0  0
  -26.1732  -10.9728   17.6766 C   0  0  0  0  0  0  0  0  0  0  0  0
  -28.5889  -17.1426   20.1648 C   0  0  0  0  0  0  0  0  0  0  0  0
  -23.9924   -9.8131   17.2922 C   0  0  0  0  0  0  0  0  0  0  0  0
  -29.0151  -24.3656   20.3040 C   0  0  0  0  0  0  0  0  0  0  0  0
  -25.2034  -32.7309   23.8912 C   0  0  0  0  0  0  0  0  0  0  0  0
  -23.3988  -31.4738   21.7525 C   0  0  0  0  0  0  0  0  0  0  0  0
  -21.0324  -30.8375   19.3793 C   0  0  0  0  0  0  0  0  0  0  0  0
  -29.8567  -14.9657   20.1654 C   0  0  0  0  0  0  0  0  0  0  0  0
  -24.4940  -37.7314   25.7236 C   0  0  0  0  0  0  0  0  0  0  0  0
  -27.0494  -31.4458   22.8387 C   0  0  0  0  0  0  0  0  0  0  0  0
  -24.8859  -29.6360   22.6863 C   0  0  0  0  0  0  0  0  0  0  0  0
  -23.5543  -36.5468   25.9240 C   0  0  0  0  0  0  0  0  0  0  0  0
  -30.7385  -11.7607   18.8896 C   0  0  0  0  0  0  0  0  0  0  0  0
  -29.5641  -21.5145   21.5329 C   0  0  0  0  0  0  0  0  0  0  0  0
  -29.6371  -21.5590   19.0047 C   0  0  0  0  0  0  0  0  0  0  0  0
  -23.8512  -35.4678   24.8933 C   0  0  0  0  0  0  0  0  0  0  0  0
  -30.4262  -22.7768   21.5898 C   0  0  0  0  0  0  0  0  0  0  0  0
  -30.4987  -22.8224   19.0423 C   0  0  0  0  0  0  0  0  0  0  0  0
  -29.3962  -11.0347   18.7737 C   0  0  0  0  0  0  0  0  0  0  0  0
  -30.7907  -12.6634   20.1209 C   0  0  0  0  0  0  0  0  0  0  0  0
  -28.3376  -12.8905   20.1237 C   0  0  0  0  0  0  0  0  0  0  0  0
  -29.8402  -20.6978   20.2610 C   0  0  0  0  0  0  0  0  0  0  0  0
  -25.2729  -34.9198   25.0704 C   0  0  1  0  0  0  0  0  0  0  0  0
  -30.3449  -23.6293   20.3275 C   0  0  0  0  0  0  0  0  0  0  0  0
  -25.6380  -32.0269   22.6394 C   0  0  1  0  0  0  0  0  0  0  0  0
  -28.2136  -12.0191   18.8632 C   0  0  2  0  0  0  0  0  0  0  0  0
  -18.5535  -30.9200   18.9976 C   0  0  0  0  0  0  0  0  0  0  0  0
  -23.0594  -28.9527   23.4357 C   0  0  0  0  0  0  0  0  0  0  0  0
  -20.8755  -28.5584   22.2767 C   0  0  0  0  0  0  0  0  0  0  0  0
  -21.2011  -30.6120   23.6550 C   0  0  0  0  0  0  0  0  0  0  0  0
  -21.3215  -32.7743   17.1603 C   0  0  0  0  0  0  0  0  0  0  0  0
  -29.0852  -25.8775   20.3326 C   0  0  0  0  0  0  0  0  0  1  0  0
  -22.3738  -30.4181   21.4236 C   0  0  1  0  0  0  0  0  0  0  0  0
  -19.8705  -31.6691   18.8667 C   0  0  2  0  0  0  0  0  0  0  0  0
  -21.9015  -29.6378   22.6828 C   0  0  0  0  0  0  0  0  0  0  0  0
  -26.2836  -10.9274   19.9423 N   0  0  0  0  0  0  0  0  0  0  0  0
  -26.8785  -11.3014   18.7967 N   0  0  0  0  0  0  0  0  0  0  0  0
  -24.5827  -31.0383   22.3603 N   0  0  0  0  0  0  0  0  0  0  0  0
  -29.6418  -13.5715   20.1363 N   0  0  0  0  0  0  0  0  0  0  0  0
  -26.6270  -11.2751   16.4416 N   0  0  0  0  0  0  0  0  0  0  0  0
  -24.0900   -8.4846   16.8563 N   0  0  0  0  0  0  0  0  0  0  0  0
  -28.6901  -15.7294   20.1444 N   0  0  0  0  0  0  0  0  0  0  0  0
  -25.5885  -34.0565   23.9538 N   0  0  0  0  0  0  0  0  0  0  0  0
  -21.3019  -31.0995   20.7060 N   0  0  0  0  0  0  0  0  0  0  0  0
  -20.0741  -32.0144   17.4313 N   0  3  0  0  0  0  0  0  0  0  0  0
  -23.0092  -10.5056   16.9356 O   0  0  0  0  0  0  0  0  0  0  0  0
  -27.9476  -23.7557   20.2641 O   0  0  0  0  0  0  0  0  0  0  0  0
  -24.5641  -32.1180   24.7381 O   0  0  0  0  0  0  0  0  0  0  0  0
  -23.1567  -32.6539   21.4842 O   0  0  0  0  0  0  0  0  0  0  0  0
  -21.6378  -30.0330   18.6745 O   0  0  0  0  0  0  0  0  0  0  0  0
  -30.9925  -15.4471   20.1785 O   0  0  0  0  0  0  0  0  0  0  0  0
  -21.5487   -8.2167   23.2263 O   0  0  0  0  0  0  0  0  0  0  0  0
  -27.7758  -26.4435   20.2936 O   0  0  0  0  0  0  0  0  0  1  0  0
  -21.3732   -2.7334   23.7802 F   0  0  0  0  0  0  0  0  0  0  0  0
  -22.0981   -7.0184   25.6563 F   0  0  0  0  0  0  0  0  0  0  0  0
  -27.0134  -17.8128   20.1310 S   0  0  0  0  0  0  0  0  0  0  0  0
  1  2  1  0  0  0  0
  1  5  2  0  0  0  0
  2  6  2  0  0  0  0
  3  8  2  0  0  0  0
  3 17  1  0  0  0  0
  4  9  1  0  0  0  0
  4 17  2  0  0  0  0
  5 19  1  0  0  0  0
  6 21  1  0  0  0  0
  7 10  2  0  0  0  0
  7 20  1  0  0  0  0
  8 24  1  0  0  0  0
  9 24  2  0  0  0  0
 10 25  1  0  0  0  0
 11 12  2  0  0  0  0
 11 26  1  0  0  0  0
 12 27  1  0  0  0  0
 13 22  1  0  0  0  0
 13 25  2  0  0  0  0
 14 23  1  0  0  0  0
 14 31  2  0  0  0  0
 15 27  2  0  0  0  0
 15 28  1  0  0  0  0
 16 23  2  0  0  0  0
 16 85  1  0  0  0  0
 17 29  1  0  0  0  0
 18 29  1  0  0  0  0
 18 30  2  0  0  0  0
 18 32  1  0  0  0  0
 19 21  2  0  0  0  0
 19 38  1  0  0  0  0
 20 22  2  0  0  0  0
 20 39  1  0  0  0  0
 21 52  1  0  0  0  0
 22 40  1  0  0  0  0
 23 51  1  0  0  0  0
 24 81  1  0  0  0  0
 25 82  1  0  0  0  0
 26 28  2  0  0  0  0
 26 81  1  0  0  0  0
 27 83  1  0  0  0  0
 28 84  1  0  0  0  0
 29 65  2  0  0  0  0
 30 66  1  0  0  0  0
 30 69  1  0  0  0  0
 31 71  1  0  0  0  0
 31 85  1  0  0  0  0
 32 70  1  0  0  0  0
 32 75  2  0  0  0  0
 33 53  1  0  0  0  0
 33 61  1  0  0  0  0
 33 76  2  0  0  0  0
 34 54  1  0  0  0  0
 34 72  1  0  0  0  0
 34 77  2  0  0  0  0
 35 62  1  0  0  0  0
 35 67  1  0  0  0  0
 35 78  2  0  0  0  0
 36 63  1  0  0  0  0
 36 73  1  0  0  0  0
 36 79  2  0  0  0  0
 37 68  1  0  0  0  0
 37 71  1  0  0  0  0
 37 80  2  0  0  0  0
 38 41  1  0  0  0  0
 39 54  1  0  0  0  0
 40 67  1  0  0  0  0
 41 45  1  0  0  0  0
 42 48  1  0  0  0  0
 42 49  1  0  0  0  0
 43 46  1  0  0  0  0
 43 51  1  0  0  0  0
 44 47  1  0  0  0  0
 44 51  1  0  0  0  0
 45 52  1  0  0  0  0
 46 53  1  0  0  0  0
 47 53  1  0  0  0  0
 48 55  1  0  0  0  0
 49 68  1  0  0  0  0
 50 55  1  0  0  0  0
 50 68  1  0  0  0  0
 52 72  1  0  0  0  0
 54 67  1  0  0  0  0
 55 66  1  0  0  0  0
 56 63  1  0  0  0  0
 57 64  1  0  0  0  0
 58 64  1  0  0  0  0
 59 64  1  0  0  0  0
 60 74  1  0  0  0  0
 61 82  1  0  0  0  0
 62 64  1  0  0  0  0
 62 73  1  0  0  0  0
 63 74  1  0  0  0  0
 65 66  1  0  0  0  0
M  CHG  1  74   1
M  ISO  4  37 100  61 101  71 100  82 101
M  END
> <Batch ID>
0143

> <Smiles>
CNC(C)C(=O)NC(C(=O)N1Cc2cc([101O:1][101CH2:1]C(=O)C3CCC(c4csc([100NH:0][100C:0](=O)N5CCCC(n6nc(-c7ccc(Oc8ccc(F)cc8F)cc7)c(C(N)=O)c6N)C5)c4)CC3)ccc2CC1C(=O)NC1CCCc2ccccc21)C(C)(C)C

> <Shape>
0.350

> <Color>
0.094

> <Negative vol penalty>
0.000

$$$$

  -OEChem-04052303003D

 88 96  0     1  0  0  0  0  0999 V2000
  -17.9262  -28.5637   22.9447 C   0  0  0  0  0  0  0  0  0  0  0  0
  -19.2774  -28.7972   23.1796 C   0  0  0  0  0  0  0  0  0  0  0  0
  -26.8497  -12.9318   20.6750 C   0  0  0  0  0  0  0  0  0  0  0  0
  -25.7455  -13.9982   18.8094 C   0  0  0  0  0  0  0  0  0  0  0  0
  -17.5274  -27.4208   22.2530 C   0  0  0  0  0  0  0  0  0  0  0  0
  -20.2306  -27.8872   22.7237 C   0  0  0  0  0  0  0  0  0  0  0  0
  -25.8566  -29.1672   20.6705 C   0  0  0  0  0  0  0  0  0  0  0  0
  -26.0679  -11.7922   20.4863 C   0  0  0  0  0  0  0  0  0  0  0  0
  -24.9637  -12.8585   18.6207 C   0  0  0  0  0  0  0  0  0  0  0  0
  -27.1100  -29.1223   21.2793 C   0  0  0  0  0  0  0  0  0  0  0  0
  -22.9202  -10.7860   21.1960 C   0  0  0  0  0  0  0  0  0  0  0  0
  -22.3525  -10.1962   22.3253 C   0  0  0  0  0  0  0  0  0  0  0  0
  -27.4718  -26.9222   20.3587 C   0  0  0  0  0  0  0  0  0  0  0  0
  -30.1506  -23.7045   20.7533 C   0  0  0  0  0  0  0  0  0  0  0  0
  -31.8951  -24.3914   19.2297 C   0  0  0  0  0  0  0  0  0  0  0  0
  -30.3103  -22.6933   18.5650 C   0  0  0  0  0  0  0  0  0  0  0  0
  -23.5419   -8.1469   21.8529 C   0  0  0  0  0  0  0  0  0  0  0  0
  -26.6885  -14.0349   19.8365 C   0  0  0  0  0  0  0  0  0  0  0  0
  -28.7467  -15.4915   19.4498 C   0  0  0  0  0  0  0  0  0  0  0  0
  -18.4767  -26.5012   21.7800 C   0  0  0  0  0  0  0  0  0  0  0  0
  -25.3960  -28.0835   19.9089 C   0  0  0  0  0  0  0  0  0  0  0  0
  -19.8440  -26.7301   22.0262 C   0  0  0  0  0  0  0  0  0  0  0  0
  -26.2132  -26.9568   19.7392 C   0  0  0  0  0  0  0  0  0  0  0  0
  -31.2603  -24.4995   20.4670 C   0  0  0  0  0  0  0  0  0  0  0  0
  -29.6756  -22.8013   19.8023 C   0  0  0  0  0  0  0  0  0  0  0  0
  -25.1250  -11.7555   19.4592 C   0  0  0  0  0  0  0  0  0  0  0  0
  -27.9166  -27.9986   21.1259 C   0  0  0  0  0  0  0  0  0  0  0  0
  -23.7987  -10.0563   20.3950 C   0  0  0  0  0  0  0  0  0  0  0  0
  -31.4201  -23.4883   18.2786 C   0  0  0  0  0  0  0  0  0  0  0  0
  -22.6633   -8.8767   22.6538 C   0  0  0  0  0  0  0  0  0  0  0  0
  -24.1095   -8.7368   20.7236 C   0  0  0  0  0  0  0  0  0  0  0  0
  -27.4954  -15.2126   20.0313 C   0  0  0  0  0  0  0  0  0  0  0  0
  -29.0906  -16.7237   19.9495 C   0  0  0  0  0  0  0  0  0  0  0  0
  -29.5283  -14.7068   18.5392 C   0  0  0  0  0  0  0  0  0  0  0  0
  -22.9412  -26.0753   20.1206 C   0  0  0  0  0  0  0  0  0  0  0  0
  -31.8012  -27.9867   22.9274 C   0  0  0  0  0  0  0  0  0  0  0  0
  -24.0295  -25.0559   17.2398 C   0  0  0  0  0  0  0  0  0  0  0  0
  -26.6451  -24.7717   15.0662 C   0  0  0  0  0  0  0  0  0  0  0  0
  -32.8283  -26.2799   21.3183 C   0  0  0  0  0  0  0  0  0  0  0  0
  -27.8015  -21.9770   21.2702 C   0  0  0  0  0  0  0  0  0  0  0  0
  -17.9946  -25.2561   21.0785 C   0  0  0  0  0  0  0  0  0  0  0  0
  -24.0526  -28.1584   19.2366 C   0  0  0  0  0  0  0  0  0  0  0  0
  -25.7736  -25.7753   18.9149 C   0  0  0  0  0  0  0  0  0  0  0  0
  -19.0909  -24.5312   20.3021 C   0  0  0  0  0  0  0  0  0  0  0  0
  -27.0224  -19.4639   23.6691 C   0  0  0  0  0  0  0  0  0  0  0  0
  -20.3504  -24.4007   21.1527 C   0  0  0  0  0  0  0  0  0  0  0  0
  -27.1789  -18.1568   22.8887 C   0  0  0  0  0  0  0  0  0  0  0  0
  -26.4352  -20.5757   22.8014 C   0  0  0  0  0  0  0  0  0  0  0  0
  -27.2983  -19.5076   20.7561 C   0  0  0  0  0  0  0  0  0  0  0  0
  -20.9094  -25.7790   21.5259 C   0  0  1  0  0  0  0  0  0  0  0  0
  -23.4716  -26.7866   18.9080 C   0  0  1  0  0  0  0  0  0  0  0  0
  -27.9466  -18.3761   21.5703 C   0  0  2  0  0  0  0  0  0  0  0  0
  -27.2374  -23.8567   12.8058 C   0  0  0  0  0  0  0  0  0  0  0  0
  -33.3233  -26.2138   23.7987 C   0  0  0  0  0  0  0  0  0  0  0  0
  -34.2698  -28.0272   22.3780 C   0  0  0  0  0  0  0  0  0  0  0  0
  -24.0820  -22.2338   18.3987 C   0  0  0  0  0  0  0  0  0  0  0  0
  -25.5392  -21.5487   16.4816 C   0  0  0  0  0  0  0  0  0  0  0  0
  -23.2276  -22.3826   16.0530 C   0  0  0  0  0  0  0  0  0  0  0  0
  -27.3643  -27.4532   14.0408 C   0  0  0  0  0  0  0  0  0  0  0  0
  -31.3273  -28.9764   21.8665 C   0  0  0  0  0  0  0  0  0  0  0  0
  -29.8211  -29.1926   21.9025 C   0  0  0  0  0  0  0  0  0  1  0  0
  -25.0186  -24.0128   16.7788 C   0  0  1  0  0  0  0  0  0  0  0  0
  -26.7594  -25.0734   13.5828 C   0  0  2  0  0  0  0  0  0  0  0  0
  -33.0388  -27.1266   22.5936 C   0  0  0  0  0  0  0  0  0  0  0  0
  -24.4746  -22.5658   16.9452 C   0  0  0  0  0  0  0  0  0  0  0  0
  -27.0730  -16.1891   20.8388 N   0  0  0  0  0  0  0  0  0  0  0  0
  -28.0645  -17.0935   20.7684 N   0  0  0  0  0  0  0  0  0  0  0  0
  -24.4493  -25.8937   18.2827 N   0  0  0  0  0  0  0  0  0  0  0  0
  -27.2163  -20.7292   21.5721 N   0  0  0  0  0  0  0  0  0  0  0  0
  -30.1677  -17.5162   19.7641 N   0  0  0  0  0  0  0  0  0  0  0  0
  -29.0268  -13.4647   18.1270 N   0  0  0  0  0  0  0  0  0  0  0  0
  -31.7426  -25.4151   21.4321 N   0  0  0  0  0  0  0  0  0  0  0  0
  -28.5478  -21.9940   20.0924 N   0  0  0  0  0  0  0  0  0  0  0  0
  -21.6186  -26.3572   20.4046 N   0  0  0  0  0  0  0  0  0  0  0  0
  -25.3729  -24.3640   15.4079 N   0  0  0  0  0  0  0  0  0  0  0  0
  -27.7238  -26.1862   13.3534 N   0  3  0  0  0  0  0  0  0  0  0  0
  -30.6461  -15.0883   18.1168 O   0  0  0  0  0  0  0  0  0  0  0  0
  -23.6770  -25.3251   20.7510 O   0  0  0  0  0  0  0  0  0  0  0  0
  -31.1960  -27.8606   23.9936 O   0  0  0  0  0  0  0  0  0  0  0  0
  -22.9277  -25.1295   16.6899 O   0  0  0  0  0  0  0  0  0  0  0  0
  -27.5907  -24.8827   15.8433 O   0  0  0  0  0  0  0  0  0  0  0  0
  -33.5594  -26.4093   20.3393 O   0  0  0  0  0  0  0  0  0  0  0  0
  -27.6743  -22.9510   22.0166 O   0  0  0  0  0  0  0  0  0  0  0  0
  -32.0393  -23.3827   17.0712 O   0  0  0  0  0  0  0  0  0  0  0  0
  -24.3621  -10.6435   19.2746 O   0  0  0  0  0  0  0  0  0  0  0  0
  -29.1402  -27.9519   21.7196 O   0  0  0  0  0  0  0  0  0  1  0  0
  -22.1193   -8.3109   23.7392 F   0  0  0  0  0  0  0  0  0  0  0  0
  -24.9537   -8.0311   19.9586 F   0  0  0  0  0  0  0  0  0  0  0  0
  1  2  1  0  0  0  0
  1  5  2  0  0  0  0
  2  6  2  0  0  0  0
  3  8  2  0  0  0  0
  3 18  1  0  0  0  0
  4  9  1  0  0  0  0
  4 18  2  0  0  0  0
  5 20  1  0  0  0  0
  6 22  1  0  0  0  0
  7 10  2  0  0  0  0
  7 21  1  0  0  0  0
  8 26  1  0  0  0  0
  9 26  2  0  0  0  0
 10 27  1  0  0  0  0
 11 12  2  0  0  0  0
 11 28  1  0  0  0  0
 12 30  1  0  0  0  0
 13 23  1  0  0  0  0
 13 27  2  0  0  0  0
 14 24  2  0  0  0  0
 14 25  1  0  0  0  0
 15 24  1  0  0  0  0
 15 29  2  0  0  0  0
 16 25  2  0  0  0  0
 16 29  1  0  0  0  0
 17 30  2  0  0  0  0
 17 31  1  0  0  0  0
 18 32  1  0  0  0  0
 19 32  1  0  0  0  0
 19 33  2  0  0  0  0
 19 34  1  0  0  0  0
 20 22  2  0  0  0  0
 20 41  1  0  0  0  0
 21 23  2  0  0  0  0
 21 42  1  0  0  0  0
 22 50  1  0  0  0  0
 23 43  1  0  0  0  0
 24 72  1  0  0  0  0
 25 73  1  0  0  0  0
 26 85  1  0  0  0  0
 27 86  1  0  0  0  0
 28 31  2  0  0  0  0
 28 85  1  0  0  0  0
 29 84  1  0  0  0  0
 30 87  1  0  0  0  0
 31 88  1  0  0  0  0
 32 66  2  0  0  0  0
 33 67  1  0  0  0  0
 33 70  1  0  0  0  0
 34 71  1  0  0  0  0
 34 77  2  0  0  0  0
 35 51  1  0  0  0  0
 35 74  1  0  0  0  0
 35 78  2  0  0  0  0
 36 60  1  0  0  0  0
 36 64  1  0  0  0  0
 36 79  2  0  0  0  0
 37 62  1  0  0  0  0
 37 68  1  0  0  0  0
 37 80  2  0  0  0  0
 38 63  1  0  0  0  0
 38 75  1  0  0  0  0
 38 81  2  0  0  0  0
 39 64  1  0  0  0  0
 39 72  1  0  0  0  0
 39 82  2  0  0  0  0
 40 69  1  0  0  0  0
 40 73  1  0  0  0  0
 40 83  2  0  0  0  0
 41 44  1  0  0  0  0
 42 51  1  0  0  0  0
 43 68  1  0  0  0  0
 44 46  1  0  0  0  0
 45 47  1  0  0  0  0
 45 48  1  0  0  0  0
 46 50  1  0  0  0  0
 47 52  1  0  0  0  0
 48 69  1  0  0  0  0
 49 52  1  0  0  0  0
 49 69  1  0  0  0  0
 50 74  1  0  0  0  0
 51 68  1  0  0  0  0
 52 67  1  0  0  0  0
 53 63  1  0  0  0  0
 54 64  1  0  0  0  0
 55 64  1  0  0  0  0
 56 65  1  0  0  0  0
 57 65  1  0  0  0  0
 58 65  1  0  0  0  0
 59 76  1  0  0  0  0
 60 61  1  0  0  0  0
 61 86  1  0  0  0  0
 62 65  1  0  0  0  0
 62 75  1  0  0  0  0
 63 76  1  0  0  0  0
 66 67  1  0  0  0  0
M  CHG  1  76   1
M  ISO  4  40 100  61 101  73 100  86 101
M  END
> <Batch ID>
0143

> <Smiles>
CNC(C)C(=O)NC(C(=O)N1Cc2cc([101O:1][101CH2:1]CC(=O)C(C)(C)C(=O)Nc3cc(O)cc([100NH:0][100C:0](=O)N4CCCC(n5nc(-c6ccc(Oc7ccc(F)cc7F)cc6)c(C(N)=O)c5N)C4)c3)ccc2CC1C(=O)NC1CCCc2ccccc21)C(C)(C)C

> <Shape>
0.233

> <Color>
0.060

> <Negative vol penalty>
0.000

$$$$

  -OEChem-04052303003D

 86 95  0     1  0  0  0  0  0999 V2000
  -16.6709  -27.4109   22.1975 C   0  0  0  0  0  0  0  0  0  0  0  0
  -17.8002  -26.8044   21.6569 C   0  0  0  0  0  0  0  0  0  0  0  0
  -28.1734  -18.9365   15.2118 C   0  0  0  0  0  0  0  0  0  0  0  0
  -21.7629  -14.0466   22.3619 C   0  0  0  0  0  0  0  0  0  0  0  0
  -21.6781  -14.6395   20.0214 C   0  0  0  0  0  0  0  0  0  0  0  0
  -28.9965  -20.0506   15.3758 C   0  0  0  0  0  0  0  0  0  0  0  0
  -16.6428  -28.7929   22.3792 C   0  0  0  0  0  0  0  0  0  0  0  0
  -18.9017  -27.5798   21.2967 C   0  0  0  0  0  0  0  0  0  0  0  0
  -24.8046  -25.9947   21.6833 C   0  0  0  0  0  0  0  0  0  0  0  0
  -28.0452  -18.0062   16.2432 C   0  0  0  0  0  0  0  0  0  0  0  0
  -20.4318  -14.4366   22.5090 C   0  0  0  0  0  0  0  0  0  0  0  0
  -20.3469  -15.0294   20.1684 C   0  0  0  0  0  0  0  0  0  0  0  0
  -25.7087  -25.5077   20.7404 C   0  0  0  0  0  0  0  0  0  0  0  0
  -17.3736  -13.1616   21.8345 C   0  0  0  0  0  0  0  0  0  0  0  0
  -16.5261  -12.3168   22.5511 C   0  0  0  0  0  0  0  0  0  0  0  0
  -29.5634  -19.3041   17.6025 C   0  0  0  0  0  0  0  0  0  0  0  0
  -26.5225  -27.7485   20.3723 C   0  0  0  0  0  0  0  0  0  0  0  0
  -16.0983  -14.0900   24.1354 C   0  0  0  0  0  0  0  0  0  0  0  0
  -22.3861  -14.1481   21.1181 C   0  0  0  0  0  0  0  0  0  0  0  0
  -29.6915  -20.2344   16.5711 C   0  0  0  0  0  0  0  0  0  0  0  0
  -24.2401  -12.4670   20.6242 C   0  0  0  0  0  0  0  0  0  0  0  0
  -17.7482  -29.5846   22.0300 C   0  0  0  0  0  0  0  0  0  0  0  0
  -24.7450  -27.3660   21.9704 C   0  0  0  0  0  0  0  0  0  0  0  0
  -18.8878  -28.9739   21.4726 C   0  0  0  0  0  0  0  0  0  0  0  0
  -25.6185  -28.2501   21.3212 C   0  0  0  0  0  0  0  0  0  0  0  0
  -28.7403  -18.1900   17.4386 C   0  0  0  0  0  0  0  0  0  0  0  0
  -19.7238  -14.9279   21.4123 C   0  0  0  0  0  0  0  0  0  0  0  0
  -26.5659  -26.3850   20.0826 C   0  0  0  0  0  0  0  0  0  0  0  0
  -17.5836  -14.4706   22.2683 C   0  0  0  0  0  0  0  0  0  0  0  0
  -15.8884  -12.7810   23.7016 C   0  0  0  0  0  0  0  0  0  0  0  0
  -16.9459  -14.9347   23.4188 C   0  0  0  0  0  0  0  0  0  0  0  0
  -23.7613  -13.7460   20.9657 C   0  0  0  0  0  0  0  0  0  0  0  0
  -25.6066  -12.6049   20.6087 C   0  0  0  0  0  0  0  0  0  0  0  0
  -30.5610  -21.4116   16.7455 C   0  0  0  0  0  0  0  0  0  0  0  0
  -23.5146  -11.2621   20.3457 C   0  0  0  0  0  0  0  0  0  0  0  0
  -22.5188  -29.6190   21.7031 C   0  0  0  0  0  0  0  0  0  0  0  0
  -24.7228  -31.4320   23.2451 C   0  0  0  0  0  0  0  0  0  0  0  0
  -28.0018  -31.9640   24.0275 C   0  0  0  0  0  0  0  0  0  0  0  0
  -29.2287  -17.2763   19.7349 C   0  0  0  0  0  0  0  0  0  0  0  0
  -17.6531  -31.0800   22.2010 C   0  0  0  0  0  0  0  0  0  0  0  0
  -23.7825  -27.8720   23.0096 C   0  0  0  0  0  0  0  0  0  0  0  0
  -25.6083  -29.7286   21.6082 C   0  0  0  0  0  0  0  0  0  0  0  0
  -19.0047  -31.7871   22.1414 C   0  0  0  0  0  0  0  0  0  0  0  0
  -29.1354  -15.1602   22.5967 C   0  0  0  0  0  0  0  0  0  0  0  0
  -19.8217  -31.2781   20.9581 C   0  0  0  0  0  0  0  0  0  0  0  0
  -27.7930  -14.4365   22.4689 C   0  0  0  0  0  0  0  0  0  0  0  0
  -29.8990  -24.6104   18.2906 C   0  0  0  0  0  0  0  0  0  0  0  0
  -29.0460  -16.6093   22.1217 C   0  0  0  0  0  0  0  0  0  0  0  0
  -30.8418  -23.7471   17.4589 C   0  0  0  0  0  0  0  0  0  0  0  0
  -27.1509  -16.0638   20.6451 C   0  0  0  0  0  0  0  0  0  0  0  0
  -28.6437  -22.6628   17.6516 C   0  0  0  0  0  0  0  0  0  0  0  0
  -20.1120  -29.7784   21.0925 C   0  0  1  0  0  0  0  0  0  0  0  0
  -23.4538  -29.3530   22.8489 C   0  0  1  0  0  0  0  0  0  0  0  0
  -27.2071  -14.5820   21.0508 C   0  0  2  0  0  0  0  0  0  0  0  0
  -28.4870  -24.1818   17.8483 C   0  0  2  0  0  0  0  0  0  0  0  0
  -28.0936  -24.8619   16.5271 C   0  0  0  0  0  0  0  0  0  0  0  0
  -29.4979  -33.5478   25.2727 C   0  0  0  0  0  0  0  0  0  0  0  0
  -24.4512  -33.4624   20.9839 C   0  0  0  0  0  0  0  0  0  0  0  0
  -26.5886  -34.5094   21.7608 C   0  0  0  0  0  0  0  0  0  0  0  0
  -24.6037  -34.4624   23.2711 C   0  0  0  0  0  0  0  0  0  0  0  0
  -28.9327  -29.8307   25.8554 C   0  0  0  0  0  0  0  0  0  0  0  0
  -27.4432  -24.5063   18.9178 C   0  0  0  0  0  0  0  0  0  1  0  0
  -25.8661  -32.3196   22.8163 C   0  0  1  0  0  0  0  0  0  0  0  0
  -28.6862  -32.2641   25.3489 C   0  0  2  0  0  0  0  0  0  0  0  0
  -25.3765  -33.6609   22.2010 C   0  0  0  0  0  0  0  0  0  0  0  0
  -24.7437  -14.6312   21.1538 N   0  0  0  0  0  0  0  0  0  0  0  0
  -25.8536  -13.9072   20.9297 N   0  0  0  0  0  0  0  0  0  0  0  0
  -30.0550  -22.5232   17.2477 N   0  0  0  0  0  0  0  0  0  0  0  0
  -24.6449  -30.1756   22.6277 N   0  0  0  0  0  0  0  0  0  0  0  0
  -28.4863  -16.6688   20.7696 N   0  0  0  0  0  0  0  0  0  0  0  0
  -26.6090  -11.7379   20.3520 N   0  0  0  0  0  0  0  0  0  0  0  0
  -22.1148  -11.2961   20.4059 N   0  0  0  0  0  0  0  0  0  0  0  0
  -28.6095  -17.2445   18.4858 N   0  0  0  0  0  0  0  0  0  0  0  0
  -21.1808  -29.5536   22.0421 N   0  0  0  0  0  0  0  0  0  0  0  0
  -26.7224  -32.4766   23.9870 N   0  0  0  0  0  0  0  0  0  0  0  0
  -31.8418  -21.3354   16.3960 N   0  3  0  0  0  0  0  0  0  0  0  0
  -29.6028  -31.1499   25.7222 N   0  3  0  0  0  0  0  0  0  0  0  0
  -24.0912  -10.1832   20.0684 O   0  0  0  0  0  0  0  0  0  0  0  0
  -22.9773  -29.8668   20.5941 O   0  0  0  0  0  0  0  0  0  0  0  0
  -23.9323  -31.8356   24.1017 O   0  0  0  0  0  0  0  0  0  0  0  0
  -28.5489  -31.3407   23.1205 O   0  0  0  0  0  0  0  0  0  0  0  0
  -30.3443  -17.7630   19.9361 O   0  0  0  0  0  0  0  0  0  0  0  0
  -18.4248  -15.3083   21.5553 O   0  0  0  0  0  0  0  0  0  0  0  0
  -27.4489  -25.9124   19.1613 O   0  0  0  0  0  0  0  0  0  1  0  0
  -15.0733  -11.9701   24.3888 F   0  0  0  0  0  0  0  0  0  0  0  0
  -17.1428  -16.1916   23.8398 F   0  0  0  0  0  0  0  0  0  0  0  0
  1  2  1  0  0  0  0
  1  7  2  0  0  0  0
  2  8  2  0  0  0  0
  3  6  2  0  0  0  0
  3 10  1  0  0  0  0
  4 11  2  0  0  0  0
  4 19  1  0  0  0  0
  5 12  1  0  0  0  0
  5 19  2  0  0  0  0
  6 20  1  0  0  0  0
  7 22  1  0  0  0  0
  8 24  1  0  0  0  0
  9 13  2  0  0  0  0
  9 23  1  0  0  0  0
 10 26  2  0  0  0  0
 11 27  1  0  0  0  0
 12 27  2  0  0  0  0
 13 28  1  0  0  0  0
 14 15  2  0  0  0  0
 14 29  1  0  0  0  0
 15 30  1  0  0  0  0
 16 20  2  0  0  0  0
 16 26  1  0  0  0  0
 17 25  1  0  0  0  0
 17 28  2  0  0  0  0
 18 30  2  0  0  0  0
 18 31  1  0  0  0  0
 19 32  1  0  0  0  0
 20 34  1  0  0  0  0
 21 32  1  0  0  0  0
 21 33  2  0  0  0  0
 21 35  1  0  0  0  0
 22 24  2  0  0  0  0
 22 40  1  0  0  0  0
 23 25  2  0  0  0  0
 23 41  1  0  0  0  0
 24 52  1  0  0  0  0
 25 42  1  0  0  0  0
 26 73  1  0  0  0  0
 27 83  1  0  0  0  0
 28 84  1  0  0  0  0
 29 31  2  0  0  0  0
 29 83  1  0  0  0  0
 30 85  1  0  0  0  0
 31 86  1  0  0  0  0
 32 66  2  0  0  0  0
 33 67  1  0  0  0  0
 33 71  1  0  0  0  0
 34 68  1  0  0  0  0
 34 76  2  0  0  0  0
 35 72  1  0  0  0  0
 35 78  2  0  0  0  0
 36 53  1  0  0  0  0
 36 74  1  0  0  0  0
 36 79  2  0  0  0  0
 37 63  1  0  0  0  0
 37 69  1  0  0  0  0
 37 80  2  0  0  0  0
 38 64  1  0  0  0  0
 38 75  1  0  0  0  0
 38 81  2  0  0  0  0
 39 70  1  0  0  0  0
 39 73  1  0  0  0  0
 39 82  2  0  0  0  0
 40 43  1  0  0  0  0
 41 53  1  0  0  0  0
 42 69  1  0  0  0  0
 43 45  1  0  0  0  0
 44 46  1  0  0  0  0
 44 48  1  0  0  0  0
 45 52  1  0  0  0  0
 46 54  1  0  0  0  0
 47 49  1  0  0  0  0
 47 55  1  0  0  0  0
 48 70  1  0  0  0  0
 49 68  1  0  0  0  0
 50 54  1  0  0  0  0
 50 70  1  0  0  0  0
 51 55  1  0  0  0  0
 51 68  1  0  0  0  0
 52 74  1  0  0  0  0
 53 69  1  0  0  0  0
 54 67  1  0  0  0  0
 55 56  1  0  0  0  0
 55 62  1  0  0  0  0
 57 64  1  0  0  0  0
 58 65  1  0  0  0  0
 59 65  1  0  0  0  0
 60 65  1  0  0  0  0
 61 77  1  0  0  0  0
 62 84  1  0  0  0  0
 63 65  1  0  0  0  0
 63 75  1  0  0  0  0
 64 77  1  0  0  0  0
 66 67  1  0  0  0  0
M  CHG  2  76   1  77   1
M  ISO  4  39 100  62 101  73 100  84 101
M  END
> <Batch ID>
0143

> <Smiles>
CNC(C)C(=O)NC(C(=O)N1Cc2cc([101O:1][101CH2:1]C3(C)CCN(C(=N)c4cccc([100NH:0][100C:0](=O)N5CCCC(n6nc(-c7ccc(Oc8ccc(F)cc8F)cc7)c(C(N)=O)c6N)C5)c4)C3)ccc2CC1C(=O)NC1CCCc2ccccc21)C(C)(C)C

> <Shape>
0.257

> <Color>
0.077

> <Negative vol penalty>
0.000

$$$$

  -OEChem-04052303003D

 88 96  0     1  0  0  0  0  0999 V2000
  -16.9985  -14.7184   19.0102 C   0  0  0  0  0  0  0  0  0  0  0  0
  -17.8468  -15.1397   20.0292 C   0  0  0  0  0  0  0  0  0  0  0  0
  -22.9989   -9.8951   19.9816 C   0  0  0  0  0  0  0  0  0  0  0  0
  -23.7278   -9.9432   22.2846 C   0  0  0  0  0  0  0  0  0  0  0  0
  -16.8780  -15.4770   17.8467 C   0  0  0  0  0  0  0  0  0  0  0  0
  -18.5759  -16.3195   19.8848 C   0  0  0  0  0  0  0  0  0  0  0  0
  -20.0409  -20.3056   24.2973 C   0  0  0  0  0  0  0  0  0  0  0  0
  -22.2327   -8.7603   20.2478 C   0  0  0  0  0  0  0  0  0  0  0  0
  -22.9615   -8.8084   22.5508 C   0  0  0  0  0  0  0  0  0  0  0  0
  -21.2024  -20.4914   25.0457 C   0  0  0  0  0  0  0  0  0  0  0  0
  -23.2049   -5.4701   22.0744 C   0  0  0  0  0  0  0  0  0  0  0  0
  -23.7936   -4.4519   22.8243 C   0  0  0  0  0  0  0  0  0  0  0  0
  -30.0473  -17.8826   22.6813 C   0  0  0  0  0  0  0  0  0  0  0  0
  -21.9104  -22.2107   23.5089 C   0  0  0  0  0  0  0  0  0  0  0  0
  -22.0724   -4.6929   24.5026 C   0  0  0  0  0  0  0  0  0  0  0  0
  -32.1206  -18.4342   22.0702 C   0  0  0  0  0  0  0  0  0  0  0  0
  -23.7465  -10.4865   21.0000 C   0  0  0  0  0  0  0  0  0  0  0  0
  -31.0369  -18.8892   22.7847 C   0  0  0  0  0  0  0  0  0  0  0  0
  -24.1317  -13.0023   20.8264 C   0  0  0  0  0  0  0  0  0  0  0  0
  -17.5987  -16.6717   17.6919 C   0  0  0  0  0  0  0  0  0  0  0  0
  -19.8102  -21.0647   23.1410 C   0  0  0  0  0  0  0  0  0  0  0  0
  -18.4660  -17.0942   18.7175 C   0  0  0  0  0  0  0  0  0  0  0  0
  -20.7440  -22.0344   22.7490 C   0  0  0  0  0  0  0  0  0  0  0  0
  -22.2140   -8.2170   21.5323 C   0  0  0  0  0  0  0  0  0  0  0  0
  -22.1388  -21.4420   24.6500 C   0  0  0  0  0  0  0  0  0  0  0  0
  -22.0500   -6.0997   22.5386 C   0  0  0  0  0  0  0  0  0  0  0  0
  -23.2273   -4.0633   24.0384 C   0  0  0  0  0  0  0  0  0  0  0  0
  -21.4837   -5.7111   23.7526 C   0  0  0  0  0  0  0  0  0  0  0  0
  -24.5386  -11.6584   20.7255 C   0  0  0  0  0  0  0  0  0  0  0  0
  -25.2409  -13.7253   20.4612 C   0  0  0  0  0  0  0  0  0  0  0  0
  -30.5968  -16.8844   21.9108 C   0  0  0  0  0  0  0  0  0  0  0  0
  -30.9689  -20.1901   23.5058 C   0  0  0  0  0  0  0  0  0  0  0  0
  -22.8644  -13.5483   21.2157 C   0  0  0  0  0  0  0  0  0  0  0  0
  -19.4449  -20.3966   20.0549 C   0  0  0  0  0  0  0  0  0  0  0  0
  -25.6950  -21.5448   25.3646 C   0  0  0  0  0  0  0  0  0  0  0  0
  -18.7752  -23.5638   19.8484 C   0  0  0  0  0  0  0  0  0  0  0  0
  -19.1139  -26.6893   21.1764 C   0  0  0  0  0  0  0  0  0  0  0  0
  -30.7208  -14.6856   20.6876 C   0  0  0  0  0  0  0  0  0  0  0  0
  -17.4717  -17.4335   16.3965 C   0  0  0  0  0  0  0  0  0  0  0  0
  -18.5396  -20.8709   22.3596 C   0  0  0  0  0  0  0  0  0  0  0  0
  -20.5340  -22.8893   21.5269 C   0  0  0  0  0  0  0  0  0  0  0  0
  -17.9941  -18.8655   16.4782 C   0  0  0  0  0  0  0  0  0  0  0  0
  -29.5986  -12.2358   18.3603 C   0  0  0  0  0  0  0  0  0  0  0  0
  -19.3539  -18.8991   17.1685 C   0  0  0  0  0  0  0  0  0  0  0  0
  -28.1486  -11.9777   18.7765 C   0  0  0  0  0  0  0  0  0  0  0  0
  -30.5011  -12.4776   19.5690 C   0  0  0  0  0  0  0  0  0  0  0  0
  -28.5879  -13.2649   20.9066 C   0  0  0  0  0  0  0  0  0  0  0  0
  -19.2547  -18.3811   18.6084 C   0  0  1  0  0  0  0  0  0  0  0  0
  -18.6506  -21.3408   20.9125 C   0  0  1  0  0  0  0  0  0  0  0  0
  -27.6283  -13.0801   19.7197 C   0  0  2  0  0  0  0  0  0  0  0  0
  -18.4871  -29.0838   20.7630 C   0  0  0  0  0  0  0  0  0  0  0  0
  -28.0449  -23.3121   26.5524 C   0  0  0  0  0  0  0  0  0  0  0  0
  -20.9152  -23.7473   17.6812 C   0  0  0  0  0  0  0  0  0  0  0  0
  -20.9141  -26.2320   17.9883 C   0  0  0  0  0  0  0  0  0  0  0  0
  -18.8448  -25.0714   17.2177 C   0  0  0  0  0  0  0  0  0  0  0  0
  -30.7401  -21.9873   26.0376 C   0  0  0  0  0  0  0  0  0  0  0  0
  -29.8142  -23.0726   23.9702 C   0  0  0  0  0  0  0  0  0  0  0  0
  -17.5915  -26.8492   23.7093 C   0  0  0  0  0  0  0  0  0  0  0  0
  -29.6812  -20.5383   24.2525 C   0  0  0  0  0  0  0  0  0  0  0  0
  -27.0083  -21.9590   24.7105 C   0  0  0  0  0  0  0  0  0  0  0  0
  -24.4366  -22.0539   24.6888 C   0  0  0  0  0  0  0  0  0  1  0  0
  -19.5876  -24.8157   19.6208 C   0  0  1  0  0  0  0  0  0  0  0  0
  -18.0976  -27.7835   21.4488 C   0  0  2  0  0  0  0  0  0  0  0  0
  -28.2005  -22.0405   25.6942 C   0  0  1  0  0  0  0  0  0  0  0  0
  -20.0706  -24.9493   18.1490 C   0  0  0  0  0  0  0  0  0  0  0  0
  -29.6153  -21.9218   24.9783 C   0  0  0  0  0  0  0  0  0  0  0  0
  -25.8072  -11.5323   20.3272 N   0  0  0  0  0  0  0  0  0  0  0  0
  -26.2070  -12.8063   20.1745 N   0  0  0  0  0  0  0  0  0  0  0  0
  -19.2791  -22.6579   20.7925 N   0  0  0  0  0  0  0  0  0  0  0  0
  -29.9475  -13.5375   20.4145 N   0  0  0  0  0  0  0  0  0  0  0  0
  -25.4743  -15.0511   20.3603 N   0  0  0  0  0  0  0  0  0  0  0  0
  -21.8331  -12.6638   21.5598 N   0  0  0  0  0  0  0  0  0  0  0  0
  -30.0779  -15.6398   21.4754 N   0  0  0  0  0  0  0  0  0  0  0  0
  -18.6908  -19.3956   19.4728 N   0  0  0  0  0  0  0  0  0  0  0  0
  -18.7628  -25.9270   20.0823 N   0  0  0  0  0  0  0  0  0  0  0  0
  -17.9908  -28.0383   22.9133 N   0  3  0  0  0  0  0  0  0  0  0  0
  -31.9365  -20.9426   23.4430 O   0  0  0  0  0  0  0  0  0  0  0  0
  -22.6478  -14.7836   21.2413 O   0  0  0  0  0  0  0  0  0  0  0  0
  -20.6522  -20.5646   19.9295 O   0  0  0  0  0  0  0  0  0  0  0  0
  -25.6469  -20.8158   26.3542 O   0  0  0  0  0  0  0  0  0  0  0  0
  -17.7283  -23.3992   19.2172 O   0  0  0  0  0  0  0  0  0  0  0  0
  -20.1206  -26.5292   21.8630 O   0  0  0  0  0  0  0  0  0  0  0  0
  -31.8588  -14.8250   20.2319 O   0  0  0  0  0  0  0  0  0  0  0  0
  -31.8605  -17.2129   21.5342 O   0  0  0  0  0  0  0  0  0  0  0  0
  -21.4663   -7.1099   21.7925 O   0  0  0  0  0  0  0  0  0  0  0  0
  -23.2854  -21.6268   25.3858 O   0  0  0  0  0  0  0  0  0  1  0  0
  -23.7919   -3.0845   24.7577 F   0  0  0  0  0  0  0  0  0  0  0  0
  -20.3736   -6.3115   24.2032 F   0  0  0  0  0  0  0  0  0  0  0  0
  1  2  1  0  0  0  0
  1  5  2  0  0  0  0
  2  6  2  0  0  0  0
  3  8  2  0  0  0  0
  3 17  1  0  0  0  0
  4  9  1  0  0  0  0
  4 17  2  0  0  0  0
  5 20  1  0  0  0  0
  6 22  1  0  0  0  0
  7 10  2  0  0  0  0
  7 21  1  0  0  0  0
  8 24  1  0  0  0  0
  9 24  2  0  0  0  0
 10 25  1  0  0  0  0
 11 12  2  0  0  0  0
 11 26  1  0  0  0  0
 12 27  1  0  0  0  0
 13 18  1  0  0  0  0
 13 31  2  0  0  0  0
 14 23  1  0  0  0  0
 14 25  2  0  0  0  0
 15 27  2  0  0  0  0
 15 28  1  0  0  0  0
 16 18  2  0  0  0  0
 16 84  1  0  0  0  0
 17 29  1  0  0  0  0
 18 32  1  0  0  0  0
 19 29  1  0  0  0  0
 19 30  2  0  0  0  0
 19 33  1  0  0  0  0
 20 22  2  0  0  0  0
 20 39  1  0  0  0  0
 21 23  2  0  0  0  0
 21 40  1  0  0  0  0
 22 48  1  0  0  0  0
 23 41  1  0  0  0  0
 24 85  1  0  0  0  0
 25 86  1  0  0  0  0
 26 28  2  0  0  0  0
 26 85  1  0  0  0  0
 27 87  1  0  0  0  0
 28 88  1  0  0  0  0
 29 67  2  0  0  0  0
 30 68  1  0  0  0  0
 30 71  1  0  0  0  0
 31 73  1  0  0  0  0
 31 84  1  0  0  0  0
 32 59  1  0  0  0  0
 32 77  2  0  0  0  0
 33 72  1  0  0  0  0
 33 78  2  0  0  0  0
 34 49  1  0  0  0  0
 34 74  1  0  0  0  0
 34 79  2  0  0  0  0
 35 60  1  0  0  0  0
 35 61  1  0  0  0  0
 35 80  2  0  0  0  0
 36 62  1  0  0  0  0
 36 69  1  0  0  0  0
 36 81  2  0  0  0  0
 37 63  1  0  0  0  0
 37 75  1  0  0  0  0
 37 82  2  0  0  0  0
 38 70  1  0  0  0  0
 38 73  1  0  0  0  0
 38 83  2  0  0  0  0
 39 42  1  0  0  0  0
 40 49  1  0  0  0  0
 41 69  1  0  0  0  0
 42 44  1  0  0  0  0
 43 45  1  0  0  0  0
 43 46  1  0  0  0  0
 44 48  1  0  0  0  0
 45 50  1  0  0  0  0
 46 70  1  0  0  0  0
 47 50  1  0  0  0  0
 47 70  1  0  0  0  0
 48 74  1  0  0  0  0
 49 69  1  0  0  0  0
 50 68  1  0  0  0  0
 51 63  1  0  0  0  0
 52 64  1  0  0  0  0
 53 65  1  0  0  0  0
 54 65  1  0  0  0  0
 55 65  1  0  0  0  0
 56 66  1  0  0  0  0
 57 66  1  0  0  0  0
 58 76  1  0  0  0  0
 59 66  1  0  0  0  0
 60 64  1  0  0  0  0
 61 86  1  0  0  0  0
 62 65  1  0  0  0  0
 62 75  1  0  0  0  0
 63 76  1  0  0  0  0
 64 66  1  0  0  0  0
 67 68  1  0  0  0  0
M  CHG  1  76   1
M  ISO  4  38 100  61 101  73 100  86 101
M  END
> <Batch ID>
0143

> <Smiles>
CNC(C)C(=O)NC(C(=O)N1Cc2cc([101O:1][101CH2:1]C(=O)CC(C)C(C)(C)CC(=O)c3coc([100NH:0][100C:0](=O)N4CCCC(n5nc(-c6ccc(Oc7ccc(F)cc7F)cc6)c(C(N)=O)c5N)C4)c3)ccc2CC1C(=O)NC1CCCc2ccccc21)C(C)(C)C

> <Shape>
0.209

> <Color>
0.182

> <Negative vol penalty>
0.000

$$$$

  -OEChem-04052303003D

 90 98  0     1  0  0  0  0  0999 V2000
  -36.6520  -27.8975   23.0391 C   0  0  0  0  0  0  0  0  0  0  0  0
  -35.6414  -27.3228   22.2750 C   0  0  0  0  0  0  0  0  0  0  0  0
  -23.0544   -9.8808   19.9560 C   0  0  0  0  0  0  0  0  0  0  0  0
  -23.8644   -9.8751   22.2322 C   0  0  0  0  0  0  0  0  0  0  0  0
  -37.8799  -27.2499   23.1693 C   0  0  0  0  0  0  0  0  0  0  0  0
  -35.8585  -26.1006   21.6397 C   0  0  0  0  0  0  0  0  0  0  0  0
  -31.7506  -21.6553   20.7072 C   0  0  0  0  0  0  0  0  0  0  0  0
  -22.3157   -8.7265   20.2160 C   0  0  0  0  0  0  0  0  0  0  0  0
  -23.1257   -8.7208   22.4922 C   0  0  0  0  0  0  0  0  0  0  0  0
  -30.9774  -21.3098   19.5997 C   0  0  0  0  0  0  0  0  0  0  0  0
  -19.9329   -5.9861   20.3818 C   0  0  0  0  0  0  0  0  0  0  0  0
  -18.6168   -5.9411   19.9219 C   0  0  0  0  0  0  0  0  0  0  0  0
  -29.2568  -17.0005   19.8034 C   0  0  0  0  0  0  0  0  0  0  0  0
  -28.8618  -17.6459   22.0978 C   0  0  0  0  0  0  0  0  0  0  0  0
  -32.6277  -19.6679   18.9673 C   0  0  0  0  0  0  0  0  0  0  0  0
  -27.9878  -18.9966   20.2954 C   0  0  0  0  0  0  0  0  0  0  0  0
  -18.0814   -7.8770   21.2648 C   0  0  0  0  0  0  0  0  0  0  0  0
  -23.8288  -10.4551   20.9641 C   0  0  0  0  0  0  0  0  0  0  0  0
  -29.4165  -16.7654   21.1690 C   0  0  0  0  0  0  0  0  0  0  0  0
  -24.1689  -12.9807   20.8503 C   0  0  0  0  0  0  0  0  0  0  0  0
  -38.1088  -26.0145   22.5432 C   0  0  0  0  0  0  0  0  0  0  0  0
  -32.9754  -21.0161   20.9475 C   0  0  0  0  0  0  0  0  0  0  0  0
  -37.0910  -25.4366   21.7605 C   0  0  0  0  0  0  0  0  0  0  0  0
  -33.4133  -20.0053   20.0801 C   0  0  0  0  0  0  0  0  0  0  0  0
  -28.5425  -18.1162   19.3666 C   0  0  0  0  0  0  0  0  0  0  0  0
  -22.3513   -8.1465   21.4840 C   0  0  0  0  0  0  0  0  0  0  0  0
  -31.4173  -20.3180   18.7279 C   0  0  0  0  0  0  0  0  0  0  0  0
  -20.3233   -6.9765   21.2832 C   0  0  0  0  0  0  0  0  0  0  0  0
  -17.6911   -6.8866   20.3634 C   0  0  0  0  0  0  0  0  0  0  0  0
  -28.1474  -18.7616   21.6610 C   0  0  0  0  0  0  0  0  0  0  0  0
  -19.3976   -7.9219   21.7246 C   0  0  0  0  0  0  0  0  0  0  0  0
  -24.5925  -11.6471   20.6960 C   0  0  0  0  0  0  0  0  0  0  0  0
  -25.2531  -13.7319   20.4673 C   0  0  0  0  0  0  0  0  0  0  0  0
  -30.1634  -15.6039   21.6249 C   0  0  0  0  0  0  0  0  0  0  0  0
  -22.9081  -13.4946   21.2998 C   0  0  0  0  0  0  0  0  0  0  0  0
  -30.7674  -14.6505   20.6660 C   0  0  0  0  0  0  0  0  0  0  0  0
  -36.0047  -21.9639   21.1178 C   0  0  0  0  0  0  0  0  0  0  0  0
  -36.5063  -18.8934   22.0360 C   0  0  0  0  0  0  0  0  0  0  0  0
  -35.4385  -15.6521   22.0156 C   0  0  0  0  0  0  0  0  0  0  0  0
  -28.8576  -17.5875   16.9225 C   0  0  0  0  0  0  0  0  0  0  0  0
  -39.4685  -25.3752   22.6742 C   0  0  0  0  0  0  0  0  0  0  0  0
  -33.7848  -21.3816   22.1615 C   0  0  0  0  0  0  0  0  0  0  0  0
  -34.7110  -19.2747   20.3047 C   0  0  0  0  0  0  0  0  0  0  0  0
  -39.4897  -23.9017   22.2757 C   0  0  0  0  0  0  0  0  0  0  0  0
  -29.5415  -12.4038   18.1549 C   0  0  0  0  0  0  0  0  0  0  0  0
  -38.7539  -23.6951   20.9556 C   0  0  0  0  0  0  0  0  0  0  0  0
  -28.1231  -12.0863   18.6272 C   0  0  0  0  0  0  0  0  0  0  0  0
  -30.4916  -12.5979   19.3321 C   0  0  0  0  0  0  0  0  0  0  0  0
  -28.6169  -13.3228   20.7842 C   0  0  0  0  0  0  0  0  0  0  0  0
  -37.2798  -24.1000   21.0763 C   0  0  1  0  0  0  0  0  0  0  0  0
  -35.2616  -21.0242   22.0247 C   0  0  1  0  0  0  0  0  0  0  0  0
  -27.6224  -13.1473   19.6234 C   0  0  2  0  0  0  0  0  0  0  0  0
  -35.3969  -13.2105   22.5939 C   0  0  0  0  0  0  0  0  0  0  0  0
  -26.9413  -18.2233   15.4429 C   0  0  0  0  0  0  0  0  0  0  0  0
  -28.9475  -17.1723   14.4345 C   0  0  0  0  0  0  0  0  0  0  0  0
  -38.5988  -18.7053   19.8233 C   0  0  0  0  0  0  0  0  0  0  0  0
  -38.5055  -16.2130   20.0427 C   0  0  0  0  0  0  0  0  0  0  0  0
  -39.2517  -17.6061   21.9727 C   0  0  0  0  0  0  0  0  0  0  0  0
  -30.8316  -21.2962   14.8137 C   0  0  0  0  0  0  0  0  0  0  0  0
  -33.7628  -16.1285   24.4081 C   0  0  0  0  0  0  0  0  0  0  0  0
  -29.0491  -19.5941   15.2900 C   0  0  0  0  0  0  0  0  0  0  0  0
  -31.3535  -19.5095   16.4923 C   0  0  0  0  0  0  0  0  0  1  0  0
  -36.8092  -17.5993   21.3200 C   0  0  1  0  0  0  0  0  0  0  0  0
  -35.2991  -14.6304   23.1297 C   0  0  2  0  0  0  0  0  0  0  0  0
  -28.4861  -18.1562   15.5266 C   0  0  0  0  0  0  0  0  0  0  0  0
  -38.2677  -17.5459   20.7841 C   0  0  0  0  0  0  0  0  0  0  0  0
  -30.5834  -19.8284   15.2067 C   0  0  2  0  0  0  0  0  0  0  0  0
  -25.8478  -11.5532   20.2496 N   0  0  0  0  0  0  0  0  0  0  0  0
  -30.3536  -15.3239   22.8860 N   0  0  0  0  0  0  0  0  0  0  0  0
  -26.2223  -12.8373   20.1200 N   0  0  0  0  0  0  0  0  0  0  0  0
  -29.9694  -13.5842   20.2758 N   0  0  0  0  0  0  0  0  0  0  0  0
  -35.4699  -19.6723   21.5020 N   0  0  0  0  0  0  0  0  0  0  0  0
  -25.4624  -15.0637   20.3969 N   0  0  0  0  0  0  0  0  0  0  0  0
  -21.9035  -12.5839   21.6542 N   0  0  0  0  0  0  0  0  0  0  0  0
  -28.3800  -18.3551   17.9802 N   0  0  0  0  0  0  0  0  0  0  0  0
  -36.5273  -23.0701   21.7601 N   0  0  0  0  0  0  0  0  0  0  0  0
  -36.4759  -16.5287   22.2533 N   0  0  0  0  0  0  0  0  0  0  0  0
  -33.9838  -14.7853   23.8130 N   0  3  0  0  0  0  0  0  0  0  0  0
  -22.6736  -14.7250   21.3690 O   0  0  0  0  0  0  0  0  0  0  0  0
  -31.9129  -14.9064   20.3186 O   0  0  0  0  0  0  0  0  0  0  0  0
  -36.0983  -21.7037   19.9240 O   0  0  0  0  0  0  0  0  0  0  0  0
  -37.1602  -19.1984   23.0364 O   0  0  0  0  0  0  0  0  0  0  0  0
  -34.7031  -15.6684   21.0309 O   0  0  0  0  0  0  0  0  0  0  0  0
  -29.5028  -16.5452   17.0263 O   0  0  0  0  0  0  0  0  0  0  0  0
  -31.1478  -19.0256   14.1673 O   0  0  0  0  0  0  0  0  0  0  0  0
  -21.6305   -7.0203   21.7381 O   0  0  0  0  0  0  0  0  0  0  0  0
  -30.6587  -19.9766   17.6368 O   0  0  0  0  0  0  0  0  0  1  0  0
  -16.4276   -6.8442   19.9206 F   0  0  0  0  0  0  0  0  0  0  0  0
  -27.6173  -19.6087   22.5528 F   0  0  0  0  0  0  0  0  0  0  0  0
  -19.7670   -8.8765   22.5896 F   0  0  0  0  0  0  0  0  0  0  0  0
  1  2  1  0  0  0  0
  1  5  2  0  0  0  0
  2  6  2  0  0  0  0
  3  8  2  0  0  0  0
  3 18  1  0  0  0  0
  4  9  1  0  0  0  0
  4 18  2  0  0  0  0
  5 21  1  0  0  0  0
  6 23  1  0  0  0  0
  7 10  2  0  0  0  0
  7 22  1  0  0  0  0
  8 26  1  0  0  0  0
  9 26  2  0  0  0  0
 10 27  1  0  0  0  0
 11 12  2  0  0  0  0
 11 28  1  0  0  0  0
 12 29  1  0  0  0  0
 13 19  1  0  0  0  0
 13 25  2  0  0  0  0
 14 19  2  0  0  0  0
 14 30  1  0  0  0  0
 15 24  1  0  0  0  0
 15 27  2  0  0  0  0
 16 25  1  0  0  0  0
 16 30  2  0  0  0  0
 17 29  2  0  0  0  0
 17 31  1  0  0  0  0
 18 32  1  0  0  0  0
 19 34  1  0  0  0  0
 20 32  1  0  0  0  0
 20 33  2  0  0  0  0
 20 35  1  0  0  0  0
 21 23  2  0  0  0  0
 21 41  1  0  0  0  0
 22 24  2  0  0  0  0
 22 42  1  0  0  0  0
 23 50  1  0  0  0  0
 24 43  1  0  0  0  0
 25 75  1  0  0  0  0
 26 86  1  0  0  0  0
 27 87  1  0  0  0  0
 28 31  2  0  0  0  0
 28 86  1  0  0  0  0
 29 88  1  0  0  0  0
 30 89  1  0  0  0  0
 31 90  1  0  0  0  0
 32 68  2  0  0  0  0
 33 70  1  0  0  0  0
 33 73  1  0  0  0  0
 34 36  1  0  0  0  0
 34 69  2  0  0  0  0
 35 74  1  0  0  0  0
 35 79  2  0  0  0  0
 36 71  1  0  0  0  0
 36 80  2  0  0  0  0
 37 51  1  0  0  0  0
 37 76  1  0  0  0  0
 37 81  2  0  0  0  0
 38 63  1  0  0  0  0
 38 72  1  0  0  0  0
 38 82  2  0  0  0  0
 39 64  1  0  0  0  0
 39 77  1  0  0  0  0
 39 83  2  0  0  0  0
 40 65  1  0  0  0  0
 40 75  1  0  0  0  0
 40 84  2  0  0  0  0
 41 44  1  0  0  0  0
 42 51  1  0  0  0  0
 43 72  1  0  0  0  0
 44 46  1  0  0  0  0
 45 47  1  0  0  0  0
 45 48  1  0  0  0  0
 46 50  1  0  0  0  0
 47 52  1  0  0  0  0
 48 71  1  0  0  0  0
 49 52  1  0  0  0  0
 49 71  1  0  0  0  0
 50 76  1  0  0  0  0
 51 72  1  0  0  0  0
 52 70  1  0  0  0  0
 53 64  1  0  0  0  0
 54 65  1  0  0  0  0
 55 65  1  0  0  0  0
 56 66  1  0  0  0  0
 57 66  1  0  0  0  0
 58 66  1  0  0  0  0
 59 67  1  0  0  0  0
 60 78  1  0  0  0  0
 61 65  1  0  0  0  0
 61 67  1  0  0  0  0
 62 67  1  0  0  0  0
 62 87  1  0  0  0  0
 63 66  1  0  0  0  0
 63 77  1  0  0  0  0
 64 78  1  0  0  0  0
 67 85  1  0  0  0  0
 68 70  1  0  0  0  0
M  CHG  1  78   1
M  ISO  4  34 100  36 100  62 101  87 101
M  END
> <Batch ID>
0143

> <Smiles>
CNC(C)C(=O)NC(C(=O)N1Cc2cc([101O:1][101CH2:1]C(C)(O)CC(C)(C)C(=O)Nc3cc(F)cc([100C:0](=N)[100C:0](=O)N4CCCC(n5nc(-c6ccc(Oc7ccc(F)cc7F)cc6)c(C(N)=O)c5N)C4)c3)ccc2CC1C(=O)NC1CCCc2ccccc21)C(C)(C)C

> <Shape>
0.175

> <Color>
0.174

> <Negative vol penalty>
0.000

$$$$

  -OEChem-04052303003D

 85 94  0     1  0  0  0  0  0999 V2000
  -27.2256  -31.5622   28.1392 C   0  0  0  0  0  0  0  0  0  0  0  0
  -27.3527  -31.1258   26.8244 C   0  0  0  0  0  0  0  0  0  0  0  0
  -23.6267   -9.9705   22.4400 C   0  0  0  0  0  0  0  0  0  0  0  0
  -23.4211   -9.9244   20.0332 C   0  0  0  0  0  0  0  0  0  0  0  0
  -26.1986  -31.0659   28.9411 C   0  0  0  0  0  0  0  0  0  0  0  0
  -26.4534  -30.1920   26.3109 C   0  0  0  0  0  0  0  0  0  0  0  0
  -24.8209  -31.4121   21.6751 C   0  0  0  0  0  0  0  0  0  0  0  0
  -22.7462   -8.8930   22.5359 C   0  0  0  0  0  0  0  0  0  0  0  0
  -22.5406   -8.8468   20.1291 C   0  0  0  0  0  0  0  0  0  0  0  0
  -25.6826  -31.1576   20.6091 C   0  0  0  0  0  0  0  0  0  0  0  0
  -22.8641   -5.5370   22.1404 C   0  0  0  0  0  0  0  0  0  0  0  0
  -23.2035   -4.4976   23.0064 C   0  0  0  0  0  0  0  0  0  0  0  0
  -24.4571  -29.1413   20.1075 C   0  0  0  0  0  0  0  0  0  0  0  0
  -27.7860  -23.1179   18.9685 C   0  0  0  0  0  0  0  0  0  0  0  0
  -21.1748   -4.8808   24.2613 C   0  0  0  0  0  0  0  0  0  0  0  0
  -23.9641  -10.4863   21.1886 C   0  0  0  0  0  0  0  0  0  0  0  0
  -26.2749  -11.5448   20.9700 C   0  0  0  0  0  0  0  0  0  0  0  0
  -25.2805  -30.1327   28.4342 C   0  0  0  0  0  0  0  0  0  0  0  0
  -23.7756  -30.5259   21.9725 C   0  0  0  0  0  0  0  0  0  0  0  0
  -25.4140  -29.6817   27.1071 C   0  0  0  0  0  0  0  0  0  0  0  0
  -23.5819  -29.3881   21.1762 C   0  0  0  0  0  0  0  0  0  0  0  0
  -27.5365  -21.8242   18.5589 C   0  0  0  0  0  0  0  0  0  0  0  0
  -22.2032   -8.3311   21.3804 C   0  0  0  0  0  0  0  0  0  0  0  0
  -25.5026  -30.0206   19.8269 C   0  0  0  0  0  0  0  0  0  0  0  0
  -21.6801   -6.2484   22.3348 C   0  0  0  0  0  0  0  0  0  0  0  0
  -22.3588   -4.1695   24.0669 C   0  0  0  0  0  0  0  0  0  0  0  0
  -20.8354   -5.9202   23.3952 C   0  0  0  0  0  0  0  0  0  0  0  0
  -24.8732  -11.5997   21.0889 C   0  0  0  0  0  0  0  0  0  0  0  0
  -26.2896  -21.5985   18.1283 C   0  0  0  0  0  0  0  0  0  0  0  0
  -26.6662  -12.8600   20.9106 C   0  0  0  0  0  0  0  0  0  0  0  0
  -26.6120  -23.8552   18.8046 C   0  0  0  0  0  0  0  0  0  0  0  0
  -27.1453  -10.4066   20.9179 C   0  0  0  0  0  0  0  0  0  0  0  0
  -23.0136  -28.7135   24.4702 C   0  0  0  0  0  0  0  0  0  0  0  0
  -20.3210  -28.1552   22.7495 C   0  0  0  0  0  0  0  0  0  0  0  0
  -27.1894  -26.1792   19.5732 C   0  0  0  0  0  0  0  0  0  0  0  0
  -18.8007  -28.0671   19.6954 C   0  0  0  0  0  0  0  0  0  0  0  0
  -25.9919  -17.8665   18.6959 C   0  0  0  0  0  0  0  0  0  0  0  0
  -24.2155  -29.5892   29.3534 C   0  0  0  0  0  0  0  0  0  0  0  0
  -22.8384  -30.8286   23.1093 C   0  0  0  0  0  0  0  0  0  0  0  0
  -27.9980  -20.4224   18.3427 C   0  0  0  0  0  0  0  0  0  0  0  0
  -22.4626  -28.4158   21.4413 C   0  0  0  0  0  0  0  0  0  0  0  0
  -23.0787  -28.8836   28.6185 C   0  0  0  0  0  0  0  0  0  0  0  0
  -24.1116  -17.1128   21.7902 C   0  0  0  0  0  0  0  0  0  0  0  0
  -23.6345  -27.9299   27.5657 C   0  0  0  0  0  0  0  0  0  0  0  0
  -24.2142  -15.5915   21.8302 C   0  0  0  0  0  0  0  0  0  0  0  0
  -24.0522  -17.6484   20.3601 C   0  0  0  0  0  0  0  0  0  0  0  0
  -25.2828  -15.6544   19.5448 C   0  0  0  0  0  0  0  0  0  0  0  0
  -24.4433  -28.6882   26.5064 C   0  0  1  0  0  0  0  0  0  0  0  0
  -26.5450  -20.1540   17.8175 C   0  0  1  0  0  0  0  0  0  0  0  0
  -22.1210  -29.5904   23.6382 C   0  0  1  0  0  0  0  0  0  0  0  0
  -25.3947  -15.1067   20.9755 C   0  0  2  0  0  0  0  0  0  0  0  0
  -16.6047  -27.5369   18.6026 C   0  0  0  0  0  0  0  0  0  0  0  0
  -20.8827  -25.1736   23.0730 C   0  0  0  0  0  0  0  0  0  0  0  0
  -19.2594  -24.7375   21.2175 C   0  0  0  0  0  0  0  0  0  0  0  0
  -18.4791  -25.8160   23.3271 C   0  0  0  0  0  0  0  0  0  0  0  0
  -25.5137  -27.9961   17.4190 C   0  0  0  0  0  0  0  0  0  0  0  0
  -27.9645  -28.3041   17.8237 C   0  0  0  0  0  0  0  0  0  0  0  0
  -18.5175  -30.8254   18.6607 C   0  0  0  0  0  0  0  0  0  0  0  0
  -26.5099  -27.5346   19.7205 C   0  0  0  0  0  0  0  0  0  0  0  0
  -19.9061  -27.1390   21.7131 C   0  0  1  0  0  0  0  0  0  0  0  0
  -17.4733  -28.6250   19.2145 C   0  0  2  0  0  0  0  0  0  0  0  0
  -19.6542  -25.7336   22.3286 C   0  0  0  0  0  0  0  0  0  0  0  0
  -26.5688  -28.4013   18.4495 C   0  0  0  0  0  0  0  0  0  1  0  0
  -24.4057  -12.8508   21.1044 N   0  0  0  0  0  0  0  0  0  0  0  0
  -25.5199  -13.5942   20.9945 N   0  0  0  0  0  0  0  0  0  0  0  0
  -21.5766  -28.7523   22.5680 N   0  0  0  0  0  0  0  0  0  0  0  0
  -25.1468  -17.1162   19.5330 N   0  0  0  0  0  0  0  0  0  0  0  0
  -27.8757  -13.4485   20.7953 N   0  0  0  0  0  0  0  0  0  0  0  0
  -26.5775   -9.1274   20.9917 N   0  0  0  0  0  0  0  0  0  0  0  0
  -26.3265  -25.2152   19.0697 N   0  0  0  0  0  0  0  0  0  0  0  0
  -23.5578  -29.3476   25.5707 N   0  0  0  0  0  0  0  0  0  0  0  0
  -18.7512  -27.7058   21.0251 N   0  0  0  0  0  0  0  0  0  0  0  0
  -25.7474  -19.2357   18.6557 N   0  0  0  0  0  0  0  0  0  0  0  0
  -17.6970  -29.6811   18.1871 N   0  3  0  0  0  0  0  0  0  0  0  0
  -28.3910  -10.5210   20.8257 O   0  0  0  0  0  0  0  0  0  0  0  0
  -23.1939  -27.5475   24.1390 O   0  0  0  0  0  0  0  0  0  0  0  0
  -19.5562  -28.4150   23.6818 O   0  0  0  0  0  0  0  0  0  0  0  0
  -28.3700  -26.0412   19.8820 O   0  0  0  0  0  0  0  0  0  0  0  0
  -19.7821  -27.9590   18.9635 O   0  0  0  0  0  0  0  0  0  0  0  0
  -26.8963  -17.3584   18.0242 O   0  0  0  0  0  0  0  0  0  0  0  0
  -21.3441   -7.2795   21.4736 O   0  0  0  0  0  0  0  0  0  0  0  0
  -26.3428  -29.7695   18.7862 O   0  0  0  0  0  0  0  0  0  1  0  0
  -22.6841   -3.1703   24.8975 F   0  0  0  0  0  0  0  0  0  0  0  0
  -19.6960   -6.5992   23.5863 F   0  0  0  0  0  0  0  0  0  0  0  0
  -25.2914  -22.8927   18.1554 S   0  0  0  0  0  0  0  0  0  0  0  0
  1  2  1  0  0  0  0
  1  5  2  0  0  0  0
  2  6  2  0  0  0  0
  3  8  2  0  0  0  0
  3 16  1  0  0  0  0
  4  9  1  0  0  0  0
  4 16  2  0  0  0  0
  5 18  1  0  0  0  0
  6 20  1  0  0  0  0
  7 10  2  0  0  0  0
  7 19  1  0  0  0  0
  8 23  1  0  0  0  0
  9 23  2  0  0  0  0
 10 24  1  0  0  0  0
 11 12  2  0  0  0  0
 11 25  1  0  0  0  0
 12 26  1  0  0  0  0
 13 21  1  0  0  0  0
 13 24  2  0  0  0  0
 14 22  1  0  0  0  0
 14 31  2  0  0  0  0
 15 26  2  0  0  0  0
 15 27  1  0  0  0  0
 16 28  1  0  0  0  0
 17 28  1  0  0  0  0
 17 30  2  0  0  0  0
 17 32  1  0  0  0  0
 18 20  2  0  0  0  0
 18 38  1  0  0  0  0
 19 21  2  0  0  0  0
 19 39  1  0  0  0  0
 20 48  1  0  0  0  0
 21 41  1  0  0  0  0
 22 29  2  0  0  0  0
 22 40  1  0  0  0  0
 23 81  1  0  0  0  0
 24 82  1  0  0  0  0
 25 27  2  0  0  0  0
 25 81  1  0  0  0  0
 26 83  1  0  0  0  0
 27 84  1  0  0  0  0
 28 64  2  0  0  0  0
 29 49  1  0  0  0  0
 29 85  1  0  0  0  0
 30 65  1  0  0  0  0
 30 68  1  0  0  0  0
 31 70  1  0  0  0  0
 31 85  1  0  0  0  0
 32 69  1  0  0  0  0
 32 75  2  0  0  0  0
 33 50  1  0  0  0  0
 33 71  1  0  0  0  0
 33 76  2  0  0  0  0
 34 60  1  0  0  0  0
 34 66  1  0  0  0  0
 34 77  2  0  0  0  0
 35 59  1  0  0  0  0
 35 70  1  0  0  0  0
 35 78  2  0  0  0  0
 36 61  1  0  0  0  0
 36 72  1  0  0  0  0
 36 79  2  0  0  0  0
 37 67  1  0  0  0  0
 37 73  1  0  0  0  0
 37 80  2  0  0  0  0
 38 42  1  0  0  0  0
 39 50  1  0  0  0  0
 40 49  1  0  0  0  0
 41 66  1  0  0  0  0
 42 44  1  0  0  0  0
 43 45  1  0  0  0  0
 43 46  1  0  0  0  0
 44 48  1  0  0  0  0
 45 51  1  0  0  0  0
 46 67  1  0  0  0  0
 47 51  1  0  0  0  0
 47 67  1  0  0  0  0
 48 71  1  0  0  0  0
 49 73  1  0  0  0  0
 50 66  1  0  0  0  0
 51 65  1  0  0  0  0
 52 61  1  0  0  0  0
 53 62  1  0  0  0  0
 54 62  1  0  0  0  0
 55 62  1  0  0  0  0
 56 63  1  0  0  0  0
 57 63  1  0  0  0  0
 58 74  1  0  0  0  0
 59 63  1  0  0  0  0
 60 62  1  0  0  0  0
 60 72  1  0  0  0  0
 61 74  1  0  0  0  0
 63 82  1  0  0  0  0
 64 65  1  0  0  0  0
M  CHG  1  74   1
M  ISO  4  37 100  63 101  73 100  82 101
M  END
> <Batch ID>
0143

> <Smiles>
CNC(C)C(=O)NC(C(=O)N1Cc2cc([101O:1][101C:1](C)(C)CC(=O)Nc3cc4c(s3)C([100NH:0][100C:0](=O)N3CCCC(n5nc(-c6ccc(Oc7ccc(F)cc7F)cc6)c(C(N)=O)c5N)C3)C4)ccc2CC1C(=O)NC1CCCc2ccccc21)C(C)(C)C

> <Shape>
0.261

> <Color>
0.088

> <Negative vol penalty>
0.000

$$$$

  -OEChem-04052303003D

 87 96  0     1  0  0  0  0  0999 V2000
  -18.8709  -24.5852   21.8313 C   0  0  0  0  0  0  0  0  0  0  0  0
  -20.1471  -24.7977   21.3198 C   0  0  0  0  0  0  0  0  0  0  0  0
  -28.4600  -20.6987   13.9743 C   0  0  0  0  0  0  0  0  0  0  0  0
  -26.3600  -13.0449   21.2640 C   0  0  0  0  0  0  0  0  0  0  0  0
  -26.2520  -13.2811   18.8619 C   0  0  0  0  0  0  0  0  0  0  0  0
  -28.2155  -22.0707   14.0340 C   0  0  0  0  0  0  0  0  0  0  0  0
  -18.0753  -25.6724   22.1905 C   0  0  0  0  0  0  0  0  0  0  0  0
  -20.6280  -26.0975   21.1663 C   0  0  0  0  0  0  0  0  0  0  0  0
  -25.3937  -26.6112   22.8001 C   0  0  0  0  0  0  0  0  0  0  0  0
  -28.8657  -20.0121   15.1187 C   0  0  0  0  0  0  0  0  0  0  0  0
  -25.1426  -12.3642   21.2518 C   0  0  0  0  0  0  0  0  0  0  0  0
  -25.0346  -12.6003   18.8497 C   0  0  0  0  0  0  0  0  0  0  0  0
  -26.4072  -26.1452   21.9639 C   0  0  0  0  0  0  0  0  0  0  0  0
  -24.0384   -9.2476   20.5443 C   0  0  0  0  0  0  0  0  0  0  0  0
  -23.9368   -8.0872   21.3117 C   0  0  0  0  0  0  0  0  0  0  0  0
  -28.7826  -22.0695   16.3825 C   0  0  0  0  0  0  0  0  0  0  0  0
  -26.8140  -28.4003   21.2101 C   0  0  0  0  0  0  0  0  0  0  0  0
  -22.1395   -9.0843   22.5815 C   0  0  0  0  0  0  0  0  0  0  0  0
  -26.9147  -13.5034   20.0690 C   0  0  0  0  0  0  0  0  0  0  0  0
  -28.3769  -22.7561   15.2381 C   0  0  0  0  0  0  0  0  0  0  0  0
  -29.4595  -13.6494   19.9682 C   0  0  0  0  0  0  0  0  0  0  0  0
  -18.5503  -26.9859   22.0503 C   0  0  0  0  0  0  0  0  0  0  0  0
  -25.0749  -27.9762   22.8396 C   0  0  0  0  0  0  0  0  0  0  0  0
  -19.8375  -27.2033   21.5228 C   0  0  0  0  0  0  0  0  0  0  0  0
  -25.7978  -28.8815   22.0496 C   0  0  0  0  0  0  0  0  0  0  0  0
  -29.0271  -20.6975   16.3228 C   0  0  0  0  0  0  0  0  0  0  0  0
  -24.4799  -12.1418   20.0447 C   0  0  0  0  0  0  0  0  0  0  0  0
  -27.1156  -27.0394   21.1666 C   0  0  0  0  0  0  0  0  0  0  0  0
  -23.1906  -10.3264   20.7956 C   0  0  0  0  0  0  0  0  0  0  0  0
  -22.9874   -8.0056   22.3303 C   0  0  0  0  0  0  0  0  0  0  0  0
  -22.2411  -10.2447   21.8141 C   0  0  0  0  0  0  0  0  0  0  0  0
  -28.1719  -14.2072   20.0811 C   0  0  0  0  0  0  0  0  0  0  0  0
  -30.3078  -14.7275   20.0352 C   0  0  0  0  0  0  0  0  0  0  0  0
  -28.8927  -26.4006   18.0868 C   0  0  0  0  0  0  0  0  0  0  0  0
  -28.1562  -25.7008   17.1877 C   0  0  0  0  0  0  0  0  0  0  0  0
  -28.1183  -24.2056   15.3023 C   0  0  0  0  0  0  0  0  0  0  0  0
  -29.8535  -12.2793   19.8162 C   0  0  0  0  0  0  0  0  0  0  0  0
  -22.4884  -29.6961   22.1641 C   0  0  0  0  0  0  0  0  0  0  0  0
  -24.2648  -32.1254   23.3746 C   0  0  0  0  0  0  0  0  0  0  0  0
  -27.3596  -33.3841   24.0708 C   0  0  0  0  0  0  0  0  0  0  0  0
  -29.6471  -20.5274   18.7585 C   0  0  0  0  0  0  0  0  0  0  0  0
  -17.6359  -28.1306   22.4080 C   0  0  0  0  0  0  0  0  0  0  0  0
  -23.9968  -28.4665   23.7669 C   0  0  0  0  0  0  0  0  0  0  0  0
  -25.5080  -30.3593   22.0704 C   0  0  0  0  0  0  0  0  0  0  0  0
  -30.4034  -26.3165   18.1158 C   0  0  0  0  0  0  0  0  0  0  0  0
  -18.3620  -29.4642   22.5647 C   0  0  0  0  0  0  0  0  0  0  0  0
  -30.9365  -25.1140   17.3530 C   0  0  0  0  0  0  0  0  0  0  0  0
  -30.6255  -19.1333   21.8853 C   0  0  0  0  0  0  0  0  0  0  0  0
  -19.3256  -29.6871   21.4035 C   0  0  0  0  0  0  0  0  0  0  0  0
  -30.2301  -17.6598   21.7648 C   0  0  0  0  0  0  0  0  0  0  0  0
  -30.2658  -25.0278   15.9987 C   0  0  0  0  0  0  0  0  0  0  0  0
  -29.6154  -20.0497   21.1969 C   0  0  0  0  0  0  0  0  0  0  0  0
  -28.9255  -18.2365   19.6785 C   0  0  0  0  0  0  0  0  0  0  0  0
  -20.4040  -28.5976   21.3645 C   0  0  1  0  0  0  0  0  0  0  0  0
  -23.4110  -29.8103   23.3446 C   0  0  1  0  0  0  0  0  0  0  0  0
  -29.9467  -17.2702   20.3008 C   0  0  2  0  0  0  0  0  0  0  0  0
  -26.6467  -25.6816   17.2134 C   0  0  0  0  0  0  0  0  0  0  0  0
  -28.4936  -35.4090   25.0253 C   0  0  0  0  0  0  0  0  0  0  0  0
  -23.7169  -33.6484   20.7881 C   0  0  0  0  0  0  0  0  0  0  0  0
  -25.5967  -35.1922   21.3808 C   0  0  0  0  0  0  0  0  0  0  0  0
  -23.5962  -35.0391   22.8632 C   0  0  0  0  0  0  0  0  0  0  0  0
  -28.5909  -31.8091   26.2531 C   0  0  0  0  0  0  0  0  0  0  0  0
  -28.3384  -27.3182   19.1459 C   0  0  0  0  0  0  0  0  0  1  0  0
  -25.2436  -33.1222   22.8026 C   0  0  1  0  0  0  0  0  0  0  0  0
  -27.9262  -34.0297   25.3225 C   0  0  2  0  0  0  0  0  0  0  0  0
  -24.5427  -34.2225   21.9566 C   0  0  0  0  0  0  0  0  0  0  0  0
  -28.1953  -15.5364   20.2102 N   0  0  0  0  0  0  0  0  0  0  0  0
  -29.5080  -15.8229   20.1789 N   0  0  0  0  0  0  0  0  0  0  0  0
  -28.7940  -24.9526   16.1730 N   0  0  0  0  0  0  0  0  0  0  0  0
  -24.4405  -30.7889   22.9888 N   0  0  0  0  0  0  0  0  0  0  0  0
  -29.4004  -19.6226   19.8127 N   0  0  0  0  0  0  0  0  0  0  0  0
  -31.6525  -14.8360   19.9847 N   0  0  0  0  0  0  0  0  0  0  0  0
  -28.8538  -11.2983   19.7654 N   0  0  0  0  0  0  0  0  0  0  0  0
  -29.4393  -19.9993   17.4848 N   0  0  0  0  0  0  0  0  0  0  0  0
  -21.4147  -28.8507   22.3690 N   0  0  0  0  0  0  0  0  0  0  0  0
  -26.0109  -33.6353   23.9324 N   0  0  0  0  0  0  0  0  0  0  0  0
  -27.2156  -24.7449   14.4883 N   0  3  0  0  0  0  0  0  0  0  0  0
  -29.0148  -33.1866   25.8928 N   0  3  0  0  0  0  0  0  0  0  0  0
  -31.0571  -11.9334   19.7446 O   0  0  0  0  0  0  0  0  0  0  0  0
  -22.7319  -30.3292   21.1436 O   0  0  0  0  0  0  0  0  0  0  0  0
  -23.3814  -32.5170   24.1413 O   0  0  0  0  0  0  0  0  0  0  0  0
  -28.0456  -32.7261   23.2918 O   0  0  0  0  0  0  0  0  0  0  0  0
  -30.0417  -21.6771   18.9692 O   0  0  0  0  0  0  0  0  0  0  0  0
  -23.2921  -11.4774   20.0323 O   0  0  0  0  0  0  0  0  0  0  0  0
  -28.1049  -26.5870   20.3490 O   0  0  0  0  0  0  0  0  0  1  0  0
  -22.8889   -6.8907   23.0661 F   0  0  0  0  0  0  0  0  0  0  0  0
  -21.4230  -11.2774   22.0594 F   0  0  0  0  0  0  0  0  0  0  0  0
  1  2  1  0  0  0  0
  1  7  2  0  0  0  0
  2  8  2  0  0  0  0
  3  6  2  0  0  0  0
  3 10  1  0  0  0  0
  4 11  2  0  0  0  0
  4 19  1  0  0  0  0
  5 12  1  0  0  0  0
  5 19  2  0  0  0  0
  6 20  1  0  0  0  0
  7 22  1  0  0  0  0
  8 24  1  0  0  0  0
  9 13  2  0  0  0  0
  9 23  1  0  0  0  0
 10 26  2  0  0  0  0
 11 27  1  0  0  0  0
 12 27  2  0  0  0  0
 13 28  1  0  0  0  0
 14 15  2  0  0  0  0
 14 29  1  0  0  0  0
 15 30  1  0  0  0  0
 16 20  2  0  0  0  0
 16 26  1  0  0  0  0
 17 25  1  0  0  0  0
 17 28  2  0  0  0  0
 18 30  2  0  0  0  0
 18 31  1  0  0  0  0
 19 32  1  0  0  0  0
 20 36  1  0  0  0  0
 21 32  1  0  0  0  0
 21 33  2  0  0  0  0
 21 37  1  0  0  0  0
 22 24  2  0  0  0  0
 22 42  1  0  0  0  0
 23 25  2  0  0  0  0
 23 43  1  0  0  0  0
 24 54  1  0  0  0  0
 25 44  1  0  0  0  0
 26 74  1  0  0  0  0
 27 84  1  0  0  0  0
 28 85  1  0  0  0  0
 29 31  2  0  0  0  0
 29 84  1  0  0  0  0
 30 86  1  0  0  0  0
 31 87  1  0  0  0  0
 32 67  2  0  0  0  0
 33 68  1  0  0  0  0
 33 72  1  0  0  0  0
 34 35  2  0  0  0  0
 34 45  1  0  0  0  0
 34 63  1  0  0  0  0
 35 57  1  0  0  0  0
 35 69  1  0  0  0  0
 36 69  1  0  0  0  0
 36 77  2  0  0  0  0
 37 73  1  0  0  0  0
 37 79  2  0  0  0  0
 38 55  1  0  0  0  0
 38 75  1  0  0  0  0
 38 80  2  0  0  0  0
 39 64  1  0  0  0  0
 39 70  1  0  0  0  0
 39 81  2  0  0  0  0
 40 65  1  0  0  0  0
 40 76  1  0  0  0  0
 40 82  2  0  0  0  0
 41 71  1  0  0  0  0
 41 74  1  0  0  0  0
 41 83  2  0  0  0  0
 42 46  1  0  0  0  0
 43 55  1  0  0  0  0
 44 70  1  0  0  0  0
 45 47  1  0  0  0  0
 46 49  1  0  0  0  0
 47 51  1  0  0  0  0
 48 50  1  0  0  0  0
 48 52  1  0  0  0  0
 49 54  1  0  0  0  0
 50 56  1  0  0  0  0
 51 69  1  0  0  0  0
 52 71  1  0  0  0  0
 53 56  1  0  0  0  0
 53 71  1  0  0  0  0
 54 75  1  0  0  0  0
 55 70  1  0  0  0  0
 56 68  1  0  0  0  0
 58 65  1  0  0  0  0
 59 66  1  0  0  0  0
 60 66  1  0  0  0  0
 61 66  1  0  0  0  0
 62 78  1  0  0  0  0
 63 85  1  0  0  0  0
 64 66  1  0  0  0  0
 64 76  1  0  0  0  0
 65 78  1  0  0  0  0
 67 68  1  0  0  0  0
M  CHG  2  77   1  78   1
M  ISO  4  41 100  63 101  74 100  85 101
M  END
> <Batch ID>
0143

> <Smiles>
CNC(C)C(=O)NC(C(=O)N1Cc2cc([101O:1][101CH2:1]C3=C(C)N(C(=N)c4cccc([100NH:0][100C:0](=O)N5CCCC(n6nc(-c7ccc(Oc8ccc(F)cc8F)cc7)c(C(N)=O)c6N)C5)c4)CCC3)ccc2CC1C(=O)NC1CCCc2ccccc21)C(C)(C)C

> <Shape>
0.331

> <Color>
0.116

> <Negative vol penalty>
0.000

$$$$

  -OEChem-04052303003D

 84 93  0     1  0  0  0  0  0999 V2000
  -18.5144  -26.2627   23.4616 C   0  0  0  0  0  0  0  0  0  0  0  0
  -19.7328  -25.9186   22.8848 C   0  0  0  0  0  0  0  0  0  0  0  0
  -24.7103   -8.8672   21.4441 C   0  0  0  0  0  0  0  0  0  0  0  0
  -23.0448  -10.6111   21.2965 C   0  0  0  0  0  0  0  0  0  0  0  0
  -17.9647  -27.5224   23.2276 C   0  0  0  0  0  0  0  0  0  0  0  0
  -20.4016  -26.8339   22.0727 C   0  0  0  0  0  0  0  0  0  0  0  0
  -25.3542  -27.0854   23.0989 C   0  0  0  0  0  0  0  0  0  0  0  0
  -23.9463   -8.2196   22.4149 C   0  0  0  0  0  0  0  0  0  0  0  0
  -22.2807   -9.9635   22.2673 C   0  0  0  0  0  0  0  0  0  0  0  0
  -26.1606  -26.0637   22.5993 C   0  0  0  0  0  0  0  0  0  0  0  0
  -22.2617   -5.9203   24.6711 C   0  0  0  0  0  0  0  0  0  0  0  0
  -22.0958   -4.5405   24.5519 C   0  0  0  0  0  0  0  0  0  0  0  0
  -25.4253  -20.1427   19.5642 C   0  0  0  0  0  0  0  0  0  0  0  0
  -25.2769  -18.7392   19.6706 C   0  0  0  0  0  0  0  0  0  0  0  0
  -26.8410  -27.4974   20.7824 C   0  0  0  0  0  0  0  0  0  0  0  0
  -21.0454   -4.8528   22.3987 C   0  0  0  0  0  0  0  0  0  0  0  0
  -24.2596  -10.0630   20.8850 C   0  0  0  0  0  0  0  0  0  0  0  0
  -24.9828  -10.5520   18.4880 C   0  0  0  0  0  0  0  0  0  0  0  0
  -18.6317  -28.4570   22.4200 C   0  0  0  0  0  0  0  0  0  0  0  0
  -25.2765  -28.3191   22.4368 C   0  0  0  0  0  0  0  0  0  0  0  0
  -19.8595  -28.1068   21.8265 C   0  0  0  0  0  0  0  0  0  0  0  0
  -26.0348  -28.5340   21.2771 C   0  0  0  0  0  0  0  0  0  0  0  0
  -22.7315   -8.7678   22.8265 C   0  0  0  0  0  0  0  0  0  0  0  0
  -26.9020  -26.2686   21.4393 C   0  0  0  0  0  0  0  0  0  0  0  0
  -21.8194   -6.7664   23.6541 C   0  0  0  0  0  0  0  0  0  0  0  0
  -21.4877   -4.0068   23.4157 C   0  0  0  0  0  0  0  0  0  0  0  0
  -21.2113   -6.2327   22.5179 C   0  0  0  0  0  0  0  0  0  0  0  0
  -25.0487  -10.7327   19.8825 C   0  0  0  0  0  0  0  0  0  0  0  0
  -25.9275  -11.4128   17.9851 C   0  0  0  0  0  0  0  0  0  0  0  0
  -26.7771  -20.3896   19.6255 C   0  0  0  0  0  0  0  0  0  0  0  0
  -26.5485  -18.2285   19.7892 C   0  0  0  0  0  0  0  0  0  0  0  0
  -24.1426   -9.6836   17.7161 C   0  0  0  0  0  0  0  0  0  0  0  0
  -22.9508  -29.9681   21.0313 C   0  0  0  0  0  0  0  0  0  0  0  0
  -25.2487  -32.2434   20.7764 C   0  0  0  0  0  0  0  0  0  0  0  0
  -28.5738  -33.0019   20.6537 C   0  0  0  0  0  0  0  0  0  0  0  0
  -28.3419  -16.4773   20.0412 C   0  0  0  0  0  0  0  0  0  0  0  0
  -17.9752  -29.7892   22.1576 C   0  0  0  0  0  0  0  0  0  0  0  0
  -24.4226  -29.4201   23.0035 C   0  0  0  0  0  0  0  0  0  0  0  0
  -26.0021  -29.8471   20.5402 C   0  0  0  0  0  0  0  0  0  0  0  0
  -18.9287  -30.8366   21.5884 C   0  0  0  0  0  0  0  0  0  0  0  0
  -30.0791  -13.5040   19.1363 C   0  0  0  0  0  0  0  0  0  0  0  0
  -19.7607  -30.2420   20.4565 C   0  0  0  0  0  0  0  0  0  0  0  0
  -28.9793  -12.4407   19.0921 C   0  0  0  0  0  0  0  0  0  0  0  0
  -29.2503  -23.1141   19.8478 C   0  0  0  0  0  0  0  0  0  0  0  0
  -29.8478  -14.5128   20.2600 C   0  0  0  0  0  0  0  0  0  0  0  0
  -28.9579  -21.6276   19.6553 C   0  0  0  0  0  0  0  0  0  0  0  0
  -26.9039  -22.8884   19.4359 C   0  0  0  0  0  0  0  0  0  0  0  0
  -27.4226  -14.0817   20.2195 C   0  0  0  0  0  0  0  0  0  0  0  0
  -20.6272  -29.0812   20.9597 C   0  0  1  0  0  0  0  0  0  0  0  0
  -24.0218  -30.4611   21.9628 C   0  0  1  0  0  0  0  0  0  0  0  0
  -28.0980  -23.7939   19.1140 C   0  0  1  0  0  0  0  0  0  0  0  0
  -27.5775  -13.0808   19.0628 C   0  0  2  0  0  0  0  0  0  0  0  0
  -30.1434  -34.9438   20.4024 C   0  0  0  0  0  0  0  0  0  0  0  0
  -29.1262  -26.0744   19.2244 C   0  0  0  0  0  0  0  0  0  0  0  0
  -26.6535  -25.8296   18.8572 C   0  0  0  0  0  0  0  0  0  0  0  0
  -24.6402  -32.3455   17.7882 C   0  0  0  0  0  0  0  0  0  0  0  0
  -26.8122  -33.5461   17.4577 C   0  0  0  0  0  0  0  0  0  0  0  0
  -25.0190  -34.5767   18.8525 C   0  0  0  0  0  0  0  0  0  0  0  0
  -29.7904  -32.5113   23.3066 C   0  0  0  0  0  0  0  0  0  0  0  0
  -26.3002  -32.5906   19.7503 C   0  0  1  0  0  0  0  0  0  0  0  0
  -29.3950  -34.0516   21.3805 C   0  0  2  0  0  0  0  0  0  0  0  0
  -27.8876  -25.2374   19.5364 C   0  0  0  0  0  0  0  0  0  1  0  0
  -25.6922  -33.2392   18.4748 C   0  0  0  0  0  0  0  0  0  0  0  0
  -25.9632  -11.6372   20.2425 N   0  0  0  0  0  0  0  0  0  0  0  0
  -26.4806  -12.0325   19.0669 N   0  0  0  0  0  0  0  0  0  0  0  0
  -27.5011  -21.5617   19.5727 N   0  0  3  0  0  0  0  0  0  0  0  0
  -25.1473  -30.8905   21.1302 N   0  0  0  0  0  0  0  0  0  0  0  0
  -28.5013  -15.0809   20.1658 N   0  0  0  0  0  0  0  0  0  0  0  0
  -26.3308  -11.6926   16.7275 N   0  0  0  0  0  0  0  0  0  0  0  0
  -23.2271   -8.8655   18.3920 N   0  0  0  0  0  0  0  0  0  0  0  0
  -27.0175  -16.8985   19.9269 N   0  0  0  0  0  0  0  0  0  0  0  0
  -21.7853  -29.5845   21.6668 N   0  0  0  0  0  0  0  0  0  0  0  0
  -27.2799  -33.4260   20.4365 N   0  0  0  0  0  0  0  0  0  0  0  0
  -30.3902  -33.4003   22.2786 N   0  3  0  0  0  0  0  0  0  0  0  0
  -24.2133   -9.6227   16.4652 O   0  0  0  0  0  0  0  0  0  0  0  0
  -23.1655  -29.9393   19.8251 O   0  0  0  0  0  0  0  0  0  0  0  0
  -24.5481  -33.1405   21.2518 O   0  0  0  0  0  0  0  0  0  0  0  0
  -29.0352  -31.9160   20.3095 O   0  0  0  0  0  0  0  0  0  0  0  0
  -29.3105  -17.2407   20.0090 O   0  0  0  0  0  0  0  0  0  0  0  0
  -27.4688  -19.2280   19.7625 O   0  0  0  0  0  0  0  0  0  0  0  0
  -21.9855   -8.1360   23.7736 O   0  0  0  0  0  0  0  0  0  0  0  0
  -27.6894  -25.2729   20.9491 O   0  0  0  0  0  0  0  0  0  1  0  0
  -21.3299   -2.6816   23.3007 F   0  0  0  0  0  0  0  0  0  0  0  0
  -20.7854   -7.0404   21.5371 F   0  0  0  0  0  0  0  0  0  0  0  0
  1  2  1  0  0  0  0
  1  5  2  0  0  0  0
  2  6  2  0  0  0  0
  3  8  2  0  0  0  0
  3 17  1  0  0  0  0
  4  9  1  0  0  0  0
  4 17  2  0  0  0  0
  5 19  1  0  0  0  0
  6 21  1  0  0  0  0
  7 10  2  0  0  0  0
  7 20  1  0  0  0  0
  8 23  1  0  0  0  0
  9 23  2  0  0  0  0
 10 24  1  0  0  0  0
 11 12  2  0  0  0  0
 11 25  1  0  0  0  0
 12 26  1  0  0  0  0
 13 14  1  0  0  0  0
 13 30  2  0  0  0  0
 14 31  2  0  0  0  0
 15 22  1  0  0  0  0
 15 24  2  0  0  0  0
 16 26  2  0  0  0  0
 16 27  1  0  0  0  0
 17 28  1  0  0  0  0
 18 28  1  0  0  0  0
 18 29  2  0  0  0  0
 18 32  1  0  0  0  0
 19 21  2  0  0  0  0
 19 37  1  0  0  0  0
 20 22  2  0  0  0  0
 20 38  1  0  0  0  0
 21 49  1  0  0  0  0
 22 39  1  0  0  0  0
 23 81  1  0  0  0  0
 24 82  1  0  0  0  0
 25 27  2  0  0  0  0
 25 81  1  0  0  0  0
 26 83  1  0  0  0  0
 27 84  1  0  0  0  0
 28 64  2  0  0  0  0
 29 65  1  0  0  0  0
 29 69  1  0  0  0  0
 30 66  1  0  0  0  0
 30 80  1  0  0  0  0
 31 71  1  0  0  0  0
 31 80  1  0  0  0  0
 32 70  1  0  0  0  0
 32 75  2  0  0  0  0
 33 50  1  0  0  0  0
 33 72  1  0  0  0  0
 33 76  2  0  0  0  0
 34 60  1  0  0  0  0
 34 67  1  0  0  0  0
 34 77  2  0  0  0  0
 35 61  1  0  0  0  0
 35 73  1  0  0  0  0
 35 78  2  0  0  0  0
 36 68  1  0  0  0  0
 36 71  1  0  0  0  0
 36 79  2  0  0  0  0
 37 40  1  0  0  0  0
 38 50  1  0  0  0  0
 39 67  1  0  0  0  0
 40 42  1  0  0  0  0
 41 43  1  0  0  0  0
 41 45  1  0  0  0  0
 42 49  1  0  0  0  0
 43 52  1  0  0  0  0
 44 46  1  0  0  0  0
 44 51  1  0  0  0  0
 45 68  1  0  0  0  0
 46 66  1  0  0  0  0
 47 51  1  0  0  0  0
 47 66  1  0  0  0  0
 48 52  1  0  0  0  0
 48 68  1  0  0  0  0
 49 72  1  0  0  0  0
 50 67  1  0  0  0  0
 51 62  1  0  0  0  0
 52 65  1  0  0  0  0
 53 61  1  0  0  0  0
 54 62  1  0  0  0  0
 55 62  1  0  0  0  0
 56 63  1  0  0  0  0
 57 63  1  0  0  0  0
 58 63  1  0  0  0  0
 59 74  1  0  0  0  0
 60 63  1  0  0  0  0
 60 73  1  0  0  0  0
 61 74  1  0  0  0  0
 62 82  1  0  0  0  0
 64 65  1  0  0  0  0
M  CHG  1  74   1
M  ISO  4  36 100  62 101  71 100  82 101
M  END
> <Batch ID>
0143

> <Smiles>
CNC(C)C(=O)NC(C(=O)N1Cc2cc([101O:1][101C:1](C)(C)C3CCN(c4ccc([100NH:0][100C:0](=O)N5CCCC(n6nc(-c7ccc(Oc8ccc(F)cc8F)cc7)c(C(N)=O)c6N)C5)o4)C3)ccc2CC1C(=O)NC1CCCc2ccccc21)C(C)(C)C

> <Shape>
0.274

> <Color>
0.091

> <Negative vol penalty>
0.000

$$$$

  -OEChem-04052303003D

 87 96  0     1  0  0  0  0  0999 V2000
  -30.0842  -27.0512   30.1217 C   0  0  0  0  0  0  0  0  0  0  0  0
  -29.5302  -25.7991   29.8753 C   0  0  0  0  0  0  0  0  0  0  0  0
  -33.6427  -13.7801   24.7248 C   0  0  0  0  0  0  0  0  0  0  0  0
  -22.8460  -10.1119   20.1170 C   0  0  0  0  0  0  0  0  0  0  0  0
  -24.2810   -9.5584   21.9802 C   0  0  0  0  0  0  0  0  0  0  0  0
  -30.2801  -27.9448   29.0696 C   0  0  0  0  0  0  0  0  0  0  0  0
  -29.1708  -25.4403   28.5766 C   0  0  0  0  0  0  0  0  0  0  0  0
  -30.6460  -20.7461   27.3794 C   0  0  0  0  0  0  0  0  0  0  0  0
  -33.0897  -13.6585   25.9996 C   0  0  0  0  0  0  0  0  0  0  0  0
  -32.8575  -13.5368   23.5979 C   0  0  0  0  0  0  0  0  0  0  0  0
  -22.1367   -8.9267   20.3111 C   0  0  0  0  0  0  0  0  0  0  0  0
  -23.5717   -8.3731   22.1744 C   0  0  0  0  0  0  0  0  0  0  0  0
  -29.8797  -19.6920   27.8750 C   0  0  0  0  0  0  0  0  0  0  0  0
  -20.6436   -7.4246   23.5698 C   0  0  0  0  0  0  0  0  0  0  0  0
  -20.2883   -7.0904   24.8766 C   0  0  0  0  0  0  0  0  0  0  0  0
  -28.7800  -19.4942   25.7370 C   0  0  0  0  0  0  0  0  0  0  0  0
  -30.9664  -13.0501   25.0205 C   0  0  0  0  0  0  0  0  0  0  0  0
  -21.5558   -5.0414   24.6972 C   0  0  0  0  0  0  0  0  0  0  0  0
  -23.9182  -10.4278   20.9515 C   0  0  0  0  0  0  0  0  0  0  0  0
  -24.1455  -12.9643   20.8036 C   0  0  0  0  0  0  0  0  0  0  0  0
  -29.9319  -27.5931   27.7559 C   0  0  0  0  0  0  0  0  0  0  0  0
  -30.4770  -21.1900   26.0600 C   0  0  0  0  0  0  0  0  0  0  0  0
  -29.3611  -26.3306   27.5061 C   0  0  0  0  0  0  0  0  0  0  0  0
  -29.5472  -20.5524   25.2264 C   0  0  0  0  0  0  0  0  0  0  0  0
  -31.7516  -13.2935   26.1475 C   0  0  0  0  0  0  0  0  0  0  0  0
  -31.5194  -13.1717   23.7457 C   0  0  0  0  0  0  0  0  0  0  0  0
  -22.4995   -8.0573   21.3398 C   0  0  0  0  0  0  0  0  0  0  0  0
  -28.9445  -19.0678   27.0547 C   0  0  0  0  0  0  0  0  0  0  0  0
  -21.4550   -6.5672   22.8267 C   0  0  0  0  0  0  0  0  0  0  0  0
  -20.7444   -5.8989   25.4403 C   0  0  0  0  0  0  0  0  0  0  0  0
  -21.9110   -5.3756   23.3904 C   0  0  0  0  0  0  0  0  0  0  0  0
  -24.6516  -11.6517   20.7511 C   0  0  0  0  0  0  0  0  0  0  0  0
  -25.2336  -13.7623   20.5469 C   0  0  0  0  0  0  0  0  0  0  0  0
  -29.4940  -13.7603   29.0709 C   0  0  0  0  0  0  0  0  0  0  0  0
  -28.8158  -14.8516   29.4558 C   0  0  0  0  0  0  0  0  0  0  0  0
  -22.8113  -13.4214   21.0613 C   0  0  0  0  0  0  0  0  0  0  0  0
  -28.2672  -15.8047   28.4521 C   0  0  0  0  0  0  0  0  0  0  0  0
  -29.5748  -23.9232   24.7112 C   0  0  0  0  0  0  0  0  0  0  0  0
  -30.3714  -22.3819   21.9703 C   0  0  0  0  0  0  0  0  0  0  0  0
  -29.9639  -19.0703   20.5976 C   0  0  0  0  0  0  0  0  0  0  0  0
  -31.1163  -12.9985   21.2650 C   0  0  0  0  0  0  0  0  0  0  0  0
  -30.1188  -28.6105   26.6583 C   0  0  0  0  0  0  0  0  0  0  0  0
  -31.3302  -22.3108   25.5324 C   0  0  0  0  0  0  0  0  0  0  0  0
  -29.3419  -20.9778   23.7962 C   0  0  0  0  0  0  0  0  0  0  0  0
  -30.0596  -12.7800   30.0614 C   0  0  0  0  0  0  0  0  0  0  0  0
  -29.7649  -13.4477   27.6200 C   0  0  0  0  0  0  0  0  0  0  0  0
  -30.0576  -28.0112   25.2556 C   0  0  0  0  0  0  0  0  0  0  0  0
  -31.5511  -12.5984   29.7983 C   0  0  0  0  0  0  0  0  0  0  0  0
  -29.4220  -13.7501   18.2250 C   0  0  0  0  0  0  0  0  0  0  0  0
  -28.8640  -27.0700   25.1287 C   0  0  0  0  0  0  0  0  0  0  0  0
  -27.9595  -13.4225   18.5345 C   0  0  0  0  0  0  0  0  0  0  0  0
  -31.8172  -12.2029   28.3453 C   0  0  0  0  0  0  0  0  0  0  0  0
  -30.3784  -12.7707   18.9031 C   0  0  0  0  0  0  0  0  0  0  0  0
  -28.7203  -12.2856   20.6595 C   0  0  0  0  0  0  0  0  0  0  0  0
  -28.9813  -25.8953   26.1074 C   0  0  1  0  0  0  0  0  0  0  0  0
  -30.7117  -23.0176   24.3303 C   0  0  1  0  0  0  0  0  0  0  0  0
  -27.7218  -13.2838   20.0510 C   0  0  2  0  0  0  0  0  0  0  0  0
  -31.3431  -17.8209   18.9140 C   0  0  0  0  0  0  0  0  0  0  0  0
  -28.3811  -23.4957   19.9434 C   0  0  0  0  0  0  0  0  0  0  0  0
  -28.4900  -21.3046   18.7370 C   0  0  0  0  0  0  0  0  0  0  0  0
  -30.5409  -22.7071   18.9597 C   0  0  0  0  0  0  0  0  0  0  0  0
  -30.3442  -16.7818   22.4352 C   0  0  0  0  0  0  0  0  0  0  0  0
  -28.7840  -17.2245   28.5488 C   0  0  0  0  0  0  0  0  0  1  0  0
  -29.6395  -21.4984   20.9891 C   0  0  1  0  0  0  0  0  0  0  0  0
  -31.0517  -18.0317   20.3917 C   0  0  2  0  0  0  0  0  0  0  0  0
  -29.2555  -22.2525   19.6848 C   0  0  0  0  0  0  0  0  0  0  0  0
  -25.9594  -11.6136   20.4821 N   0  0  0  0  0  0  0  0  0  0  0  0
  -26.2842  -12.9123   20.3631 N   0  0  0  0  0  0  0  0  0  0  0  0
  -31.1963  -13.1720   27.4280 N   0  0  1  0  0  0  0  0  0  0  0  0
  -30.1956  -22.0824   23.3287 N   0  0  0  0  0  0  0  0  0  0  0  0
  -30.0967  -12.6944   20.3383 N   0  0  0  0  0  0  0  0  0  0  0  0
  -25.3845  -15.1012   20.4627 N   0  0  0  0  0  0  0  0  0  0  0  0
  -21.8138  -12.4676   21.3056 N   0  0  0  0  0  0  0  0  0  0  0  0
  -30.7225  -12.9235   22.6007 N   0  0  0  0  0  0  0  0  0  0  0  0
  -29.9217  -24.9144   25.6092 N   0  0  0  0  0  0  0  0  0  0  0  0
  -30.4899  -20.3322   20.7768 N   0  0  0  0  0  0  0  0  0  0  0  0
  -30.6394  -16.7261   20.9803 N   0  3  0  0  0  0  0  0  0  0  0  0
  -22.5091  -14.6389   21.0585 O   0  0  0  0  0  0  0  0  0  0  0  0
  -27.4493  -15.4572   27.6045 O   0  0  0  0  0  0  0  0  0  0  0  0
  -28.4654  -23.7373   24.2250 O   0  0  0  0  0  0  0  0  0  0  0  0
  -31.0789  -23.2994   21.5469 O   0  0  0  0  0  0  0  0  0  0  0  0
  -28.7671  -18.7908   20.5956 O   0  0  0  0  0  0  0  0  0  0  0  0
  -32.2473  -13.3296   20.9001 O   0  0  0  0  0  0  0  0  0  0  0  0
  -21.8075   -6.9007   21.5297 O   0  0  0  0  0  0  0  0  0  0  0  0
  -28.1949  -18.0392   27.5361 O   0  0  0  0  0  0  0  0  0  1  0  0
  -20.4043   -5.5788   26.6957 F   0  0  0  0  0  0  0  0  0  0  0  0
  -22.6917   -4.5484   22.6818 F   0  0  0  0  0  0  0  0  0  0  0  0
  1  2  1  0  0  0  0
  1  6  2  0  0  0  0
  2  7  2  0  0  0  0
  3  9  2  0  0  0  0
  3 10  1  0  0  0  0
  4 11  2  0  0  0  0
  4 19  1  0  0  0  0
  5 12  1  0  0  0  0
  5 19  2  0  0  0  0
  6 21  1  0  0  0  0
  7 23  1  0  0  0  0
  8 13  2  0  0  0  0
  8 22  1  0  0  0  0
  9 25  1  0  0  0  0
 10 26  2  0  0  0  0
 11 27  1  0  0  0  0
 12 27  2  0  0  0  0
 13 28  1  0  0  0  0
 14 15  2  0  0  0  0
 14 29  1  0  0  0  0
 15 30  1  0  0  0  0
 16 24  1  0  0  0  0
 16 28  2  0  0  0  0
 17 25  2  0  0  0  0
 17 26  1  0  0  0  0
 18 30  2  0  0  0  0
 18 31  1  0  0  0  0
 19 32  1  0  0  0  0
 20 32  1  0  0  0  0
 20 33  2  0  0  0  0
 20 36  1  0  0  0  0
 21 23  2  0  0  0  0
 21 42  1  0  0  0  0
 22 24  2  0  0  0  0
 22 43  1  0  0  0  0
 23 55  1  0  0  0  0
 24 44  1  0  0  0  0
 25 69  1  0  0  0  0
 26 74  1  0  0  0  0
 27 84  1  0  0  0  0
 28 85  1  0  0  0  0
 29 31  2  0  0  0  0
 29 84  1  0  0  0  0
 30 86  1  0  0  0  0
 31 87  1  0  0  0  0
 32 67  2  0  0  0  0
 33 68  1  0  0  0  0
 33 72  1  0  0  0  0
 34 35  2  0  0  0  0
 34 45  1  0  0  0  0
 34 46  1  0  0  0  0
 35 37  1  0  0  0  0
 36 73  1  0  0  0  0
 36 78  2  0  0  0  0
 37 63  1  0  0  0  0
 37 79  2  0  0  0  0
 38 56  1  0  0  0  0
 38 75  1  0  0  0  0
 38 80  2  0  0  0  0
 39 64  1  0  0  0  0
 39 70  1  0  0  0  0
 39 81  2  0  0  0  0
 40 65  1  0  0  0  0
 40 76  1  0  0  0  0
 40 82  2  0  0  0  0
 41 71  1  0  0  0  0
 41 74  1  0  0  0  0
 41 83  2  0  0  0  0
 42 47  1  0  0  0  0
 43 56  1  0  0  0  0
 44 70  1  0  0  0  0
 45 48  1  0  0  0  0
 46 69  1  0  0  0  0
 47 50  1  0  0  0  0
 48 52  1  0  0  0  0
 49 51  1  0  0  0  0
 49 53  1  0  0  0  0
 50 55  1  0  0  0  0
 51 57  1  0  0  0  0
 52 69  1  0  0  0  0
 53 71  1  0  0  0  0
 54 57  1  0  0  0  0
 54 71  1  0  0  0  0
 55 75  1  0  0  0  0
 56 70  1  0  0  0  0
 57 68  1  0  0  0  0
 58 65  1  0  0  0  0
 59 66  1  0  0  0  0
 60 66  1  0  0  0  0
 61 66  1  0  0  0  0
 62 77  1  0  0  0  0
 63 85  1  0  0  0  0
 64 66  1  0  0  0  0
 64 76  1  0  0  0  0
 65 77  1  0  0  0  0
 67 68  1  0  0  0  0
M  CHG  1  77   1
M  ISO  4  41 100  63 101  74 100  85 101
M  END
> <Batch ID>
0143

> <Smiles>
CNC(C)C(=O)NC(C(=O)N1Cc2cc([101O:1][101CH2:1]C(=O)C=C3CCCN(c4cccc([100NH:0][100C:0](=O)N5CCCC(n6nc(-c7ccc(Oc8ccc(F)cc8F)cc7)c(C(N)=O)c6N)C5)c4)C3)ccc2CC1C(=O)NC1CCCc2ccccc21)C(C)(C)C

> <Shape>
0.217

> <Color>
0.179

> <Negative vol penalty>
0.000

$$$$

  -OEChem-04052303003D

 90 99  0     1  0  0  0  0  0999 V2000
  -25.2499  -16.7217   24.8436 C   0  0  0  0  0  0  0  0  0  0  0  0
  -26.0048  -17.8151   24.4314 C   0  0  0  0  0  0  0  0  0  0  0  0
  -22.6315  -10.2500   20.2397 C   0  0  0  0  0  0  0  0  0  0  0  0
  -24.3016   -9.4612   21.7972 C   0  0  0  0  0  0  0  0  0  0  0  0
  -23.8913  -16.6585   24.5367 C   0  0  0  0  0  0  0  0  0  0  0  0
  -25.4017  -18.8456   23.7110 C   0  0  0  0  0  0  0  0  0  0  0  0
  -26.7607  -23.4319   25.3734 C   0  0  0  0  0  0  0  0  0  0  0  0
  -29.7411  -19.1554   22.7488 C   0  0  0  0  0  0  0  0  0  0  0  0
  -29.5730  -17.7745   22.6465 C   0  0  0  0  0  0  0  0  0  0  0  0
  -21.8982   -9.0793   20.4331 C   0  0  0  0  0  0  0  0  0  0  0  0
  -23.5682   -8.2905   21.9906 C   0  0  0  0  0  0  0  0  0  0  0  0
  -28.0139  -23.9041   24.9857 C   0  0  0  0  0  0  0  0  0  0  0  0
  -19.7867   -7.8173   22.7530 C   0  0  0  0  0  0  0  0  0  0  0  0
  -18.4096   -7.9382   22.9385 C   0  0  0  0  0  0  0  0  0  0  0  0
  -26.9724  -25.2416   23.2695 C   0  0  0  0  0  0  0  0  0  0  0  0
  -31.1351  -17.7209   20.8042 C   0  0  0  0  0  0  0  0  0  0  0  0
  -18.0261   -6.5786   20.9785 C   0  0  0  0  0  0  0  0  0  0  0  0
  -23.8332  -10.4409   20.9217 C   0  0  0  0  0  0  0  0  0  0  0  0
  -24.1695  -12.9691   20.9726 C   0  0  0  0  0  0  0  0  0  0  0  0
  -23.2691  -17.6933   23.8206 C   0  0  0  0  0  0  0  0  0  0  0  0
  -25.6030  -23.8534   24.7038 C   0  0  0  0  0  0  0  0  0  0  0  0
  -24.0338  -18.7956   23.3931 C   0  0  0  0  0  0  0  0  0  0  0  0
  -25.7055  -24.7753   23.6522 C   0  0  0  0  0  0  0  0  0  0  0  0
  -31.3031  -19.1018   20.9065 C   0  0  0  0  0  0  0  0  0  0  0  0
  -30.6061  -19.8191   21.8788 C   0  0  0  0  0  0  0  0  0  0  0  0
  -30.2700  -17.0572   21.6743 C   0  0  0  0  0  0  0  0  0  0  0  0
  -22.3665   -8.0996   21.3085 C   0  0  0  0  0  0  0  0  0  0  0  0
  -28.1202  -24.8069   23.9318 C   0  0  0  0  0  0  0  0  0  0  0  0
  -20.2836   -7.0771   21.6801 C   0  0  0  0  0  0  0  0  0  0  0  0
  -17.5293   -7.3189   22.0513 C   0  0  0  0  0  0  0  0  0  0  0  0
  -19.4033   -6.4577   20.7929 C   0  0  0  0  0  0  0  0  0  0  0  0
  -24.5915  -11.6497   20.7219 C   0  0  0  0  0  0  0  0  0  0  0  0
  -25.2467  -13.7463   20.6231 C   0  0  0  0  0  0  0  0  0  0  0  0
  -22.9160  -13.4492   21.4764 C   0  0  0  0  0  0  0  0  0  0  0  0
  -23.3423  -22.4042   23.0029 C   0  0  0  0  0  0  0  0  0  0  0  0
  -21.9726  -25.3444   23.0439 C   0  0  0  0  0  0  0  0  0  0  0  0
  -22.3668  -28.7201   23.3538 C   0  0  0  0  0  0  0  0  0  0  0  0
  -30.7153  -14.7932   20.6632 C   0  0  0  0  0  0  0  0  0  0  0  0
  -21.8081  -17.5582   23.4715 C   0  0  0  0  0  0  0  0  0  0  0  0
  -24.2562  -23.3552   25.1515 C   0  0  0  0  0  0  0  0  0  0  0  0
  -24.4913  -25.2745   22.9140 C   0  0  0  0  0  0  0  0  0  0  0  0
  -21.1639  -18.8693   23.0288 C   0  0  0  0  0  0  0  0  0  0  0  0
  -29.5110  -12.5545   18.1702 C   0  0  0  0  0  0  0  0  0  0  0  0
  -22.0522  -19.5855   22.0165 C   0  0  0  0  0  0  0  0  0  0  0  0
  -28.0891  -12.2281   18.6324 C   0  0  0  0  0  0  0  0  0  0  0  0
  -32.2535  -23.1076   22.5026 C   0  0  0  0  0  0  0  0  0  0  0  0
  -30.0312  -23.4901   21.4144 C   0  0  0  0  0  0  0  0  0  0  0  0
  -30.4717  -12.6982   19.3492 C   0  0  0  0  0  0  0  0  0  0  0  0
  -31.8193  -21.6936   22.8900 C   0  0  0  0  0  0  0  0  0  0  0  0
  -29.5976  -22.0756   21.8024 C   0  0  0  0  0  0  0  0  0  0  0  0
  -28.6192  -13.3145   20.8518 C   0  0  0  0  0  0  0  0  0  0  0  0
  -23.4103  -19.9449   22.6313 C   0  0  1  0  0  0  0  0  0  0  0  0
  -23.1902  -23.4563   24.0648 C   0  0  1  0  0  0  0  0  0  0  0  0
  -27.6018  -13.2243   19.7027 C   0  0  2  0  0  0  0  0  0  0  0  0
  -31.0781  -24.0957   22.3693 C   0  0  0  0  0  0  0  0  0  0  0  0
  -31.5955  -25.4201   21.7790 C   0  0  0  0  0  0  0  0  0  0  0  0
  -21.0694  -30.8676   23.3043 C   0  0  0  0  0  0  0  0  0  0  0  0
  -31.4566  -25.0602   24.6792 C   0  0  0  0  0  0  0  0  0  0  0  0
  -21.8120  -25.1745   20.0016 C   0  0  0  0  0  0  0  0  0  0  0  0
  -21.4166  -27.6463   19.9541 C   0  0  0  0  0  0  0  0  0  0  0  0
  -19.7865  -26.1460   21.1006 C   0  0  0  0  0  0  0  0  0  0  0  0
  -23.1107  -29.3688   26.1439 C   0  0  0  0  0  0  0  0  0  0  0  0
  -22.0415  -26.5683   22.1628 C   0  0  1  0  0  0  0  0  0  0  0  0
  -21.6168  -29.7503   24.1788 C   0  0  2  0  0  0  0  0  0  0  0  0
  -30.4555  -24.3974   23.7453 C   0  0  1  0  0  0  0  0  0  1  0  0
  -32.2348  -19.7878   19.9611 C   0  0  0  0  0  0  0  0  0  0  0  0
  -21.2874  -26.3731   20.8172 C   0  0  0  0  0  0  0  0  0  0  0  0
  -25.8393  -11.5884   20.2494 N   0  0  0  0  0  0  0  0  0  0  0  0
  -26.2107  -12.8790   20.2004 N   0  0  0  0  0  0  0  0  0  0  0  0
  -30.7621  -21.2068   21.9954 N   0  0  0  0  0  0  0  0  0  0  0  0
  -23.1974  -24.7533   23.3849 N   0  0  0  0  0  0  0  0  0  0  0  0
  -29.9467  -13.6608   20.3201 N   0  0  0  0  0  0  0  0  0  0  0  0
  -25.4538  -15.0802   20.6391 N   0  0  0  0  0  0  0  0  0  0  0  0
  -21.9181  -12.5148   21.7853 N   0  0  0  0  0  0  0  0  0  0  0  0
  -30.0997  -15.6544   21.5710 N   0  0  0  0  0  0  0  0  0  0  0  0
  -23.2878  -21.1093   23.4820 N   0  0  0  0  0  0  0  0  0  0  0  0
  -21.5479  -27.6797   22.9687 N   0  0  0  0  0  0  0  0  0  0  0  0
  -22.5193  -30.3524   25.2005 N   0  3  0  0  0  0  0  0  0  0  0  0
  -22.6818  -14.6717   21.6322 O   0  0  0  0  0  0  0  0  0  0  0  0
  -23.4962  -22.7422   21.8351 O   0  0  0  0  0  0  0  0  0  0  0  0
  -20.8730  -24.9324   23.4217 O   0  0  0  0  0  0  0  0  0  0  0  0
  -23.5589  -28.8294   23.0754 O   0  0  0  0  0  0  0  0  0  0  0  0
  -31.8254  -14.9990   20.1660 O   0  0  0  0  0  0  0  0  0  0  0  0
  -21.6511   -6.9573   21.4977 O   0  0  0  0  0  0  0  0  0  0  0  0
  -29.3423  -25.2688   23.5510 O   0  0  0  0  0  0  0  0  0  1  0  0
  -16.2068   -7.4338   22.2306 F   0  0  0  0  0  0  0  0  0  0  0  0
  -19.8747   -5.7443   19.7611 F   0  0  0  0  0  0  0  0  0  0  0  0
  -32.8331  -18.9399   19.0745 F   0  0  0  0  0  0  0  0  0  0  0  0
  -31.6278  -20.7391   19.1934 F   0  0  0  0  0  0  0  0  0  0  0  0
  -33.2536  -20.4276   20.6037 F   0  0  0  0  0  0  0  0  0  0  0  0
  1  2  1  0  0  0  0
  1  5  2  0  0  0  0
  2  6  2  0  0  0  0
  3 10  2  0  0  0  0
  3 18  1  0  0  0  0
  4 11  1  0  0  0  0
  4 18  2  0  0  0  0
  5 20  1  0  0  0  0
  6 22  1  0  0  0  0
  7 12  2  0  0  0  0
  7 21  1  0  0  0  0
  8  9  2  0  0  0  0
  8 25  1  0  0  0  0
  9 26  1  0  0  0  0
 10 27  1  0  0  0  0
 11 27  2  0  0  0  0
 12 28  1  0  0  0  0
 13 14  2  0  0  0  0
 13 29  1  0  0  0  0
 14 30  1  0  0  0  0
 15 23  1  0  0  0  0
 15 28  2  0  0  0  0
 16 24  1  0  0  0  0
 16 26  2  0  0  0  0
 17 30  2  0  0  0  0
 17 31  1  0  0  0  0
 18 32  1  0  0  0  0
 19 32  1  0  0  0  0
 19 33  2  0  0  0  0
 19 34  1  0  0  0  0
 20 22  2  0  0  0  0
 20 39  1  0  0  0  0
 21 23  2  0  0  0  0
 21 40  1  0  0  0  0
 22 52  1  0  0  0  0
 23 41  1  0  0  0  0
 24 25  2  0  0  0  0
 24 66  1  0  0  0  0
 25 70  1  0  0  0  0
 26 75  1  0  0  0  0
 27 84  1  0  0  0  0
 28 85  1  0  0  0  0
 29 31  2  0  0  0  0
 29 84  1  0  0  0  0
 30 86  1  0  0  0  0
 31 87  1  0  0  0  0
 32 68  2  0  0  0  0
 33 69  1  0  0  0  0
 33 73  1  0  0  0  0
 34 74  1  0  0  0  0
 34 79  2  0  0  0  0
 35 53  1  0  0  0  0
 35 76  1  0  0  0  0
 35 80  2  0  0  0  0
 36 63  1  0  0  0  0
 36 71  1  0  0  0  0
 36 81  2  0  0  0  0
 37 64  1  0  0  0  0
 37 77  1  0  0  0  0
 37 82  2  0  0  0  0
 38 72  1  0  0  0  0
 38 75  1  0  0  0  0
 38 83  2  0  0  0  0
 39 42  1  0  0  0  0
 40 53  1  0  0  0  0
 41 71  1  0  0  0  0
 42 44  1  0  0  0  0
 43 45  1  0  0  0  0
 43 48  1  0  0  0  0
 44 52  1  0  0  0  0
 45 54  1  0  0  0  0
 46 49  1  0  0  0  0
 46 55  1  0  0  0  0
 47 50  1  0  0  0  0
 47 55  1  0  0  0  0
 48 72  1  0  0  0  0
 49 70  1  0  0  0  0
 50 70  1  0  0  0  0
 51 54  1  0  0  0  0
 51 72  1  0  0  0  0
 52 76  1  0  0  0  0
 53 71  1  0  0  0  0
 54 69  1  0  0  0  0
 55 56  1  0  0  0  0
 55 65  1  0  0  0  0
 57 64  1  0  0  0  0
 58 65  1  0  0  0  0
 59 67  1  0  0  0  0
 60 67  1  0  0  0  0
 61 67  1  0  0  0  0
 62 78  1  0  0  0  0
 63 67  1  0  0  0  0
 63 77  1  0  0  0  0
 64 78  1  0  0  0  0
 65 85  1  0  0  0  0
 66 88  1  0  0  0  0
 66 89  1  0  0  0  0
 66 90  1  0  0  0  0
 68 69  1  0  0  0  0
M  CHG  1  78   1
M  ISO  4  38 100  65 101  75 100  85 101
M  END
> <Batch ID>
0143

> <Smiles>
CNC(C)C(=O)NC(C(=O)N1Cc2cc([101O:1][101CH:1](C)C3(C)CCN(c4ccc([100NH:0][100C:0](=O)N5CCCC(n6nc(-c7ccc(Oc8ccc(F)cc8F)cc7)c(C(N)=O)c6N)C5)cc4C(F)(F)F)CC3)ccc2CC1C(=O)NC1CCCc2ccccc21)C(C)(C)C

> <Shape>
0.207

> <Color>
0.216

> <Negative vol penalty>
0.000

$$$$

  -OEChem-04052303003D

 86 95  0     1  0  0  0  0  0999 V2000
  -18.5535  -25.2505   21.4238 C   0  0  0  0  0  0  0  0  0  0  0  0
  -19.8133  -25.4578   20.8713 C   0  0  0  0  0  0  0  0  0  0  0  0
  -23.7782  -11.3742   19.0114 C   0  0  0  0  0  0  0  0  0  0  0  0
  -25.4675  -11.5960   20.7243 C   0  0  0  0  0  0  0  0  0  0  0  0
  -17.8251  -26.3305   21.9208 C   0  0  0  0  0  0  0  0  0  0  0  0
  -20.3450  -26.7456   20.8144 C   0  0  0  0  0  0  0  0  0  0  0  0
  -25.1988  -26.9083   22.2495 C   0  0  0  0  0  0  0  0  0  0  0  0
  -24.1331  -10.0369   18.8345 C   0  0  0  0  0  0  0  0  0  0  0  0
  -25.8224  -10.2587   20.5474 C   0  0  0  0  0  0  0  0  0  0  0  0
  -26.1509  -26.4821   21.3244 C   0  0  0  0  0  0  0  0  0  0  0  0
  -24.3509   -6.4668   18.1847 C   0  0  0  0  0  0  0  0  0  0  0  0
  -23.3220   -5.5301   18.0876 C   0  0  0  0  0  0  0  0  0  0  0  0
  -30.6339  -20.0231   22.0760 C   0  0  0  0  0  0  0  0  0  0  0  0
  -29.7210  -18.9724   21.8194 C   0  0  0  0  0  0  0  0  0  0  0  0
  -26.6245  -28.7797   20.7623 C   0  0  0  0  0  0  0  0  0  0  0  0
  -22.5513   -6.1481   20.2924 C   0  0  0  0  0  0  0  0  0  0  0  0
  -24.4454  -12.1538   19.9563 C   0  0  0  0  0  0  0  0  0  0  0  0
  -23.1138  -14.0489   21.0253 C   0  0  0  0  0  0  0  0  0  0  0  0
  -18.3523  -27.6309   21.8788 C   0  0  0  0  0  0  0  0  0  0  0  0
  -24.9442  -28.2754   22.4304 C   0  0  0  0  0  0  0  0  0  0  0  0
  -19.6225  -27.8443   21.3101 C   0  0  0  0  0  0  0  0  0  0  0  0
  -25.6705  -29.2207   21.6921 C   0  0  0  0  0  0  0  0  0  0  0  0
  -25.1552   -9.4792   19.6025 C   0  0  0  0  0  0  0  0  0  0  0  0
  -26.8618  -27.4177   20.5786 C   0  0  0  0  0  0  0  0  0  0  0  0
  -24.4801   -7.2441   19.3357 C   0  0  0  0  0  0  0  0  0  0  0  0
  -22.4221   -5.3708   19.1414 C   0  0  0  0  0  0  0  0  0  0  0  0
  -23.5803   -7.0848   20.3895 C   0  0  0  0  0  0  0  0  0  0  0  0
  -24.0795  -13.5354   20.1391 C   0  0  0  0  0  0  0  0  0  0  0  0
  -30.4390  -20.9504   21.0790 C   0  0  0  0  0  0  0  0  0  0  0  0
  -23.1459  -15.4065   20.8190 C   0  0  0  0  0  0  0  0  0  0  0  0
  -29.0331  -19.3327   20.6841 C   0  0  0  0  0  0  0  0  0  0  0  0
  -22.2637  -13.3604   21.9522 C   0  0  0  0  0  0  0  0  0  0  0  0
  -22.4101  -30.1553   22.0457 C   0  0  0  0  0  0  0  0  0  0  0  0
  -24.3482  -32.3853   23.3849 C   0  0  0  0  0  0  0  0  0  0  0  0
  -27.5254  -33.4454   24.0393 C   0  0  0  0  0  0  0  0  0  0  0  0
  -27.3635  -19.1313   18.8084 C   0  0  0  0  0  0  0  0  0  0  0  0
  -17.5079  -28.7732   22.3854 C   0  0  0  0  0  0  0  0  0  0  0  0
  -23.9330  -28.7197   23.4513 C   0  0  0  0  0  0  0  0  0  0  0  0
  -25.4492  -30.7007   21.8633 C   0  0  0  0  0  0  0  0  0  0  0  0
  -18.3001  -30.0553   22.6281 C   0  0  0  0  0  0  0  0  0  0  0  0
  -24.1111  -18.6588   17.4389 C   0  0  0  0  0  0  0  0  0  0  0  0
  -19.2187  -30.3471   21.4458 C   0  0  0  0  0  0  0  0  0  0  0  0
  -31.7240  -22.2690   19.3795 C   0  0  0  0  0  0  0  0  0  0  0  0
  -30.9448  -23.2931   18.5604 C   0  0  0  0  0  0  0  0  0  0  0  0
  -23.6436  -17.3411   18.0613 C   0  0  0  0  0  0  0  0  0  0  0  0
  -30.0208  -23.3893   20.7523 C   0  0  0  0  0  0  0  0  0  0  0  0
  -25.6055  -18.6379   17.1228 C   0  0  0  0  0  0  0  0  0  0  0  0
  -26.0054  -16.9479   18.8701 C   0  0  0  0  0  0  0  0  0  0  0  0
  -20.2437  -29.2230   21.2530 C   0  0  1  0  0  0  0  0  0  0  0  0
  -31.0646  -22.2570   20.7746 C   0  0  1  0  0  0  0  0  0  0  0  0
  -23.3899  -30.1201   23.1843 C   0  0  1  0  0  0  0  0  0  0  0  0
  -30.4636  -24.2946   19.6046 C   0  0  2  0  0  0  0  0  0  0  0  0
  -24.5197  -16.9446   19.2657 C   0  0  2  0  0  0  0  0  0  0  0  0
  -28.7923  -35.3235   25.1187 C   0  0  0  0  0  0  0  0  0  0  0  0
  -29.9637  -27.2088   20.6459 C   0  0  0  0  0  0  0  0  0  0  0  0
  -28.1570  -24.3453   18.6268 C   0  0  0  0  0  0  0  0  0  0  0  0
  -29.8801  -25.9841   17.8639 C   0  0  0  0  0  0  0  0  0  0  0  0
  -23.7520  -34.1662   20.9802 C   0  0  0  0  0  0  0  0  0  0  0  0
  -25.7249  -35.5693   21.6183 C   0  0  0  0  0  0  0  0  0  0  0  0
  -23.7895  -35.3590   23.1780 C   0  0  0  0  0  0  0  0  0  0  0  0
  -28.7826  -31.6230   26.0032 C   0  0  0  0  0  0  0  0  0  0  0  0
  -25.3439  -33.3908   22.8592 C   0  0  1  0  0  0  0  0  0  0  0  0
  -28.1773  -33.9466   25.3153 C   0  0  2  0  0  0  0  0  0  0  0  0
  -28.8854  -26.2360   20.1731 C   0  0  2  0  0  0  0  0  0  1  0  0
  -29.3405  -25.2144   19.0892 C   0  0  0  0  0  0  0  0  0  0  0  0
  -24.6556  -34.5935   22.1541 C   0  0  0  0  0  0  0  0  0  0  0  0
  -24.6811  -14.4889   19.4230 N   0  0  0  0  0  0  0  0  0  0  0  0
  -24.0918  -15.6153   19.8589 N   0  0  0  0  0  0  0  0  0  0  0  0
  -24.4454  -31.0850   22.8694 N   0  0  0  0  0  0  0  0  0  0  0  0
  -26.3726  -18.2585   18.3113 N   0  0  0  0  0  0  0  0  0  0  0  0
  -22.4569  -16.4299   21.3669 N   0  0  0  0  0  0  0  0  0  0  0  0
  -22.3598  -11.9648   22.0371 N   0  0  0  0  0  0  0  0  0  0  0  0
  -28.0044  -18.6791   19.9614 N   0  0  0  0  0  0  0  0  0  0  0  0
  -21.3097  -29.3389   22.2250 N   0  0  0  0  0  0  0  0  0  0  0  0
  -26.1845  -33.7634   23.9918 N   0  0  0  0  0  0  0  0  0  0  0  0
  -29.2515  -33.0099   25.7507 N   0  3  0  0  0  0  0  0  0  0  0  0
  -21.4317  -13.9635   22.6716 O   0  0  0  0  0  0  0  0  0  0  0  0
  -22.6351  -30.8713   21.0770 O   0  0  0  0  0  0  0  0  0  0  0  0
  -23.5194  -32.7386   24.2275 O   0  0  0  0  0  0  0  0  0  0  0  0
  -28.1446  -32.8363   23.1698 O   0  0  0  0  0  0  0  0  0  0  0  0
  -27.6055  -20.2135   18.2678 O   0  0  0  0  0  0  0  0  0  0  0  0
  -29.4648  -20.5372   20.2265 O   0  0  0  0  0  0  0  0  0  0  0  0
  -25.5017   -8.1742   19.4303 O   0  0  0  0  0  0  0  0  0  0  0  0
  -27.7912  -27.0044   19.6746 O   0  0  0  0  0  0  0  0  0  1  0  0
  -21.4331   -4.4723   19.0473 F   0  0  0  0  0  0  0  0  0  0  0  0
  -23.6986   -7.8295   21.4973 F   0  0  0  0  0  0  0  0  0  0  0  0
  1  2  1  0  0  0  0
  1  5  2  0  0  0  0
  2  6  2  0  0  0  0
  3  8  2  0  0  0  0
  3 17  1  0  0  0  0
  4  9  1  0  0  0  0
  4 17  2  0  0  0  0
  5 19  1  0  0  0  0
  6 21  1  0  0  0  0
  7 10  2  0  0  0  0
  7 20  1  0  0  0  0
  8 23  1  0  0  0  0
  9 23  2  0  0  0  0
 10 24  1  0  0  0  0
 11 12  2  0  0  0  0
 11 25  1  0  0  0  0
 12 26  1  0  0  0  0
 13 14  1  0  0  0  0
 13 29  2  0  0  0  0
 14 31  2  0  0  0  0
 15 22  1  0  0  0  0
 15 24  2  0  0  0  0
 16 26  2  0  0  0  0
 16 27  1  0  0  0  0
 17 28  1  0  0  0  0
 18 28  1  0  0  0  0
 18 30  2  0  0  0  0
 18 32  1  0  0  0  0
 19 21  2  0  0  0  0
 19 37  1  0  0  0  0
 20 22  2  0  0  0  0
 20 38  1  0  0  0  0
 21 49  1  0  0  0  0
 22 39  1  0  0  0  0
 23 83  1  0  0  0  0
 24 84  1  0  0  0  0
 25 27  2  0  0  0  0
 25 83  1  0  0  0  0
 26 85  1  0  0  0  0
 27 86  1  0  0  0  0
 28 67  2  0  0  0  0
 29 50  1  0  0  0  0
 29 82  1  0  0  0  0
 30 68  1  0  0  0  0
 30 71  1  0  0  0  0
 31 73  1  0  0  0  0
 31 82  1  0  0  0  0
 32 72  1  0  0  0  0
 32 77  2  0  0  0  0
 33 51  1  0  0  0  0
 33 74  1  0  0  0  0
 33 78  2  0  0  0  0
 34 62  1  0  0  0  0
 34 69  1  0  0  0  0
 34 79  2  0  0  0  0
 35 63  1  0  0  0  0
 35 75  1  0  0  0  0
 35 80  2  0  0  0  0
 36 70  1  0  0  0  0
 36 73  1  0  0  0  0
 36 81  2  0  0  0  0
 37 40  1  0  0  0  0
 38 51  1  0  0  0  0
 39 69  1  0  0  0  0
 40 42  1  0  0  0  0
 41 45  1  0  0  0  0
 41 47  1  0  0  0  0
 42 49  1  0  0  0  0
 43 44  1  0  0  0  0
 43 50  1  0  0  0  0
 44 52  1  0  0  0  0
 45 53  1  0  0  0  0
 46 50  1  0  0  0  0
 46 52  1  0  0  0  0
 47 70  1  0  0  0  0
 48 53  1  0  0  0  0
 48 70  1  0  0  0  0
 49 74  1  0  0  0  0
 51 69  1  0  0  0  0
 52 65  1  0  0  0  0
 53 68  1  0  0  0  0
 54 63  1  0  0  0  0
 55 64  1  0  0  0  0
 56 65  1  0  0  0  0
 57 65  1  0  0  0  0
 58 66  1  0  0  0  0
 59 66  1  0  0  0  0
 60 66  1  0  0  0  0
 61 76  1  0  0  0  0
 62 66  1  0  0  0  0
 62 75  1  0  0  0  0
 63 76  1  0  0  0  0
 64 65  1  0  0  0  0
 64 84  1  0  0  0  0
 67 68  1  0  0  0  0
M  CHG  1  76   1
M  ISO  4  36 100  64 101  73 100  84 101
M  END
> <Batch ID>
0143

> <Smiles>
CNC(C)C(=O)NC(C(=O)N1Cc2cc([101O:1][101CH:1](C)C(C)(C)C3CCC(c4ccc([100NH:0][100C:0](=O)N5CCCC(n6nc(-c7ccc(Oc8ccc(F)cc8F)cc7)c(C(N)=O)c6N)C5)o4)C3)ccc2CC1C(=O)NC1CCCc2ccccc21)C(C)(C)C

> <Shape>
0.295

> <Color>
0.089

> <Negative vol penalty>
0.000

$$$$

  -OEChem-04052303003D

 88 97  0     1  0  0  0  0  0999 V2000
  -16.9295  -29.6982   24.4459 C   0  0  0  0  0  0  0  0  0  0  0  0
  -18.1424  -30.0641   25.0206 C   0  0  0  0  0  0  0  0  0  0  0  0
  -32.9767  -22.8353   18.0103 C   0  0  0  0  0  0  0  0  0  0  0  0
  -28.1080  -13.2973   20.8674 C   0  0  0  0  0  0  0  0  0  0  0  0
  -29.9488  -13.9572   19.4486 C   0  0  0  0  0  0  0  0  0  0  0  0
  -16.9087  -28.8143   23.3678 C   0  0  0  0  0  0  0  0  0  0  0  0
  -19.3353  -29.5453   24.5182 C   0  0  0  0  0  0  0  0  0  0  0  0
  -32.7214  -24.2050   18.0750 C   0  0  0  0  0  0  0  0  0  0  0  0
  -26.2105  -31.3007   23.5350 C   0  0  0  0  0  0  0  0  0  0  0  0
  -32.1293  -21.9364   18.6581 C   0  0  0  0  0  0  0  0  0  0  0  0
  -27.8074  -12.2538   19.9920 C   0  0  0  0  0  0  0  0  0  0  0  0
  -29.6483  -12.9137   18.5732 C   0  0  0  0  0  0  0  0  0  0  0  0
  -27.4929  -30.8226   23.8010 C   0  0  0  0  0  0  0  0  0  0  0  0
  -29.5885  -10.2033   16.1508 C   0  0  0  0  0  0  0  0  0  0  0  0
  -30.6470   -9.4288   15.6760 C   0  0  0  0  0  0  0  0  0  0  0  0
  -30.7712  -23.7772   19.4354 C   0  0  0  0  0  0  0  0  0  0  0  0
  -27.3405  -29.3654   21.8846 C   0  0  0  0  0  0  0  0  0  0  0  0
  -31.2013   -8.7977   17.9413 C   0  0  0  0  0  0  0  0  0  0  0  0
  -29.1787  -14.1491   20.5957 C   0  0  0  0  0  0  0  0  0  0  0  0
  -30.3579  -15.1855   22.6064 C   0  0  0  0  0  0  0  0  0  0  0  0
  -31.6186  -24.6760   18.7876 C   0  0  0  0  0  0  0  0  0  0  0  0
  -18.1026  -28.2920   22.8458 C   0  0  0  0  0  0  0  0  0  0  0  0
  -25.4780  -30.8060   22.4463 C   0  0  0  0  0  0  0  0  0  0  0  0
  -19.3304  -28.6526   23.4330 C   0  0  0  0  0  0  0  0  0  0  0  0
  -26.0501  -29.8407   21.6054 C   0  0  0  0  0  0  0  0  0  0  0  0
  -31.0265  -22.4074   19.3707 C   0  0  0  0  0  0  0  0  0  0  0  0
  -28.5775  -12.0620   18.8449 C   0  0  0  0  0  0  0  0  0  0  0  0
  -28.0569  -29.8527   22.9774 C   0  0  0  0  0  0  0  0  0  0  0  0
  -29.3364  -10.2750   17.5208 C   0  0  0  0  0  0  0  0  0  0  0  0
  -31.4533   -8.7260   16.5712 C   0  0  0  0  0  0  0  0  0  0  0  0
  -30.1428   -9.5722   18.4161 C   0  0  0  0  0  0  0  0  0  0  0  0
  -29.4893  -15.2275   21.4993 C   0  0  0  0  0  0  0  0  0  0  0  0
  -30.3080  -16.4541   23.1303 C   0  0  0  0  0  0  0  0  0  0  0  0
  -31.1400  -14.0970   23.1156 C   0  0  0  0  0  0  0  0  0  0  0  0
  -32.4076  -28.6771   21.1686 C   0  0  0  0  0  0  0  0  0  0  0  0
  -22.7330  -29.2377   22.1166 C   0  0  0  0  0  0  0  0  0  0  0  0
  -23.2947  -29.7059   18.9562 C   0  0  0  0  0  0  0  0  0  0  0  0
  -25.5608  -30.2854   16.4711 C   0  0  0  0  0  0  0  0  0  0  0  0
  -29.0279  -21.7952   20.7768 C   0  0  0  0  0  0  0  0  0  0  0  0
  -18.0267  -27.3030   21.7097 C   0  0  0  0  0  0  0  0  0  0  0  0
  -24.1064  -31.3515   22.1572 C   0  0  0  0  0  0  0  0  0  0  0  0
  -25.3133  -29.2918   20.4120 C   0  0  0  0  0  0  0  0  0  0  0  0
  -19.3599  -27.0904   20.9972 C   0  0  0  0  0  0  0  0  0  0  0  0
  -27.3899  -20.2309   23.5240 C   0  0  0  0  0  0  0  0  0  0  0  0
  -20.4817  -26.8919   22.0116 C   0  0  0  0  0  0  0  0  0  0  0  0
  -27.8263  -18.7677   23.4208 C   0  0  0  0  0  0  0  0  0  0  0  0
  -30.8026  -26.8395   20.1912 C   0  0  0  0  0  0  0  0  0  0  0  0
  -32.5276  -27.2152   18.9873 C   0  0  0  0  0  0  0  0  0  0  0  0
  -27.1788  -20.8582   22.1471 C   0  0  0  0  0  0  0  0  0  0  0  0
  -28.7491  -19.2615   21.1205 C   0  0  0  0  0  0  0  0  0  0  0  0
  -31.3295  -26.2339   18.8609 C   0  0  0  0  0  0  0  0  0  0  0  0
  -20.6472  -28.1305   22.9004 C   0  0  1  0  0  0  0  0  0  0  0  0
  -23.2502  -30.4039   21.3227 C   0  0  1  0  0  0  0  0  0  0  0  0
  -29.0370  -18.6056   22.4809 C   0  0  2  0  0  0  0  0  0  0  0  0
  -31.6640  -28.1116   19.9260 C   0  0  0  0  0  0  0  0  0  0  0  0
  -30.9095  -29.2219   19.1910 C   0  0  0  0  0  0  0  0  0  0  0  0
  -25.7249  -30.5817   13.9846 C   0  0  0  0  0  0  0  0  0  0  0  0
  -31.9949  -28.3224   23.6343 C   0  0  0  0  0  0  0  0  0  0  0  0
  -31.8860  -30.6195   22.6645 C   0  0  0  0  0  0  0  0  0  0  0  0
  -22.9518  -26.6977   18.5776 C   0  0  0  0  0  0  0  0  0  0  0  0
  -24.0404  -26.9263   16.3347 C   0  0  0  0  0  0  0  0  0  0  0  0
  -21.8895  -28.1006   16.8006 C   0  0  0  0  0  0  0  0  0  0  0  0
  -26.6461  -33.0244   16.7524 C   0  0  0  0  0  0  0  0  0  0  0  0
  -30.0819  -28.9491   22.1177 C   0  0  0  0  0  0  0  0  0  1  0  0
  -24.0184  -28.9413   17.8743 C   0  0  1  0  0  0  0  0  0  0  0  0
  -25.5668  -31.2815   15.3256 C   0  0  2  0  0  0  0  0  0  0  0  0
  -31.5847  -29.1382   22.3932 C   0  0  0  0  0  0  0  0  0  0  0  0
  -23.2384  -27.6752   17.4203 C   0  0  0  0  0  0  0  0  0  0  0  0
  -28.9286  -16.4278   21.3291 N   0  0  0  0  0  0  0  0  0  0  0  0
  -29.4459  -17.1517   22.3363 N   0  0  0  0  0  0  0  0  0  0  0  0
  -23.9727  -29.8522   20.1748 N   0  0  0  0  0  0  0  0  0  0  0  0
  -28.3679  -20.6695   21.3133 N   0  0  0  0  0  0  0  0  0  0  0  0
  -30.9178  -17.0299   24.1882 N   0  0  0  0  0  0  0  0  0  0  0  0
  -31.0743  -12.8616   22.4569 N   0  0  0  0  0  0  0  0  0  0  0  0
  -30.1649  -21.4943   20.0276 N   0  0  0  0  0  0  0  0  0  0  0  0
  -21.3545  -29.1730   22.1880 N   0  0  0  0  0  0  0  0  0  0  0  0
  -24.2802  -29.8976   16.8040 N   0  0  0  0  0  0  0  0  0  0  0  0
  -26.6890  -32.2488   15.4861 N   0  3  0  0  0  0  0  0  0  0  0  0
  -31.8626  -14.2119   24.1345 O   0  0  0  0  0  0  0  0  0  0  0  0
  -33.6450  -28.7614   21.1764 O   0  0  0  0  0  0  0  0  0  0  0  0
  -23.5257  -28.4539   22.6252 O   0  0  0  0  0  0  0  0  0  0  0  0
  -22.1722  -30.1629   18.7263 O   0  0  0  0  0  0  0  0  0  0  0  0
  -26.5895  -29.8881   17.0137 O   0  0  0  0  0  0  0  0  0  0  0  0
  -28.6304  -22.9434   20.9904 O   0  0  0  0  0  0  0  0  0  0  0  0
  -28.2847  -11.0437   17.9906 O   0  0  0  0  0  0  0  0  0  0  0  0
  -29.3082  -29.3838   23.2352 O   0  0  0  0  0  0  0  0  0  1  0  0
  -32.4688   -7.9811   16.1150 F   0  0  0  0  0  0  0  0  0  0  0  0
  -29.9048   -9.6362   19.7333 F   0  0  0  0  0  0  0  0  0  0  0  0
  1  2  1  0  0  0  0
  1  6  2  0  0  0  0
  2  7  2  0  0  0  0
  3  8  2  0  0  0  0
  3 10  1  0  0  0  0
  4 11  2  0  0  0  0
  4 19  1  0  0  0  0
  5 12  1  0  0  0  0
  5 19  2  0  0  0  0
  6 22  1  0  0  0  0
  7 24  1  0  0  0  0
  8 21  1  0  0  0  0
  9 13  2  0  0  0  0
  9 23  1  0  0  0  0
 10 26  2  0  0  0  0
 11 27  1  0  0  0  0
 12 27  2  0  0  0  0
 13 28  1  0  0  0  0
 14 15  2  0  0  0  0
 14 29  1  0  0  0  0
 15 30  1  0  0  0  0
 16 21  2  0  0  0  0
 16 26  1  0  0  0  0
 17 25  1  0  0  0  0
 17 28  2  0  0  0  0
 18 30  2  0  0  0  0
 18 31  1  0  0  0  0
 19 32  1  0  0  0  0
 20 32  1  0  0  0  0
 20 33  2  0  0  0  0
 20 34  1  0  0  0  0
 21 51  1  0  0  0  0
 22 24  2  0  0  0  0
 22 40  1  0  0  0  0
 23 25  2  0  0  0  0
 23 41  1  0  0  0  0
 24 52  1  0  0  0  0
 25 42  1  0  0  0  0
 26 75  1  0  0  0  0
 27 85  1  0  0  0  0
 28 86  1  0  0  0  0
 29 31  2  0  0  0  0
 29 85  1  0  0  0  0
 30 87  1  0  0  0  0
 31 88  1  0  0  0  0
 32 69  2  0  0  0  0
 33 70  1  0  0  0  0
 33 73  1  0  0  0  0
 34 74  1  0  0  0  0
 34 79  2  0  0  0  0
 35 55  1  0  0  0  0
 35 67  1  0  0  0  0
 35 80  2  0  0  0  0
 36 53  1  0  0  0  0
 36 76  1  0  0  0  0
 36 81  2  0  0  0  0
 37 65  1  0  0  0  0
 37 71  1  0  0  0  0
 37 82  2  0  0  0  0
 38 66  1  0  0  0  0
 38 77  1  0  0  0  0
 38 83  2  0  0  0  0
 39 72  1  0  0  0  0
 39 75  1  0  0  0  0
 39 84  2  0  0  0  0
 40 43  1  0  0  0  0
 41 53  1  0  0  0  0
 42 71  1  0  0  0  0
 43 45  1  0  0  0  0
 44 46  1  0  0  0  0
 44 49  1  0  0  0  0
 45 52  1  0  0  0  0
 46 54  1  0  0  0  0
 47 51  1  0  0  0  0
 47 55  1  0  0  0  0
 48 51  1  0  0  0  0
 48 55  1  0  0  0  0
 49 72  1  0  0  0  0
 50 54  1  0  0  0  0
 50 72  1  0  0  0  0
 52 76  1  0  0  0  0
 53 71  1  0  0  0  0
 54 70  1  0  0  0  0
 55 56  1  0  0  0  0
 57 66  1  0  0  0  0
 58 67  1  0  0  0  0
 59 67  1  0  0  0  0
 60 68  1  0  0  0  0
 61 68  1  0  0  0  0
 62 68  1  0  0  0  0
 63 78  1  0  0  0  0
 64 67  1  0  0  0  0
 64 86  1  0  0  0  0
 65 68  1  0  0  0  0
 65 77  1  0  0  0  0
 66 78  1  0  0  0  0
 69 70  1  0  0  0  0
M  CHG  1  78   1
M  ISO  4  39 100  64 101  75 100  86 101
M  END
> <Batch ID>
0143

> <Smiles>
CNC(C)C(=O)NC(C(=O)N1Cc2cc([101O:1][101CH2:1]C(C)(C)C(=O)C3(C)CC(c4cccc([100NH:0][100C:0](=O)N5CCCC(n6nc(-c7ccc(Oc8ccc(F)cc8F)cc7)c(C(N)=O)c6N)C5)c4)C3)ccc2CC1C(=O)NC1CCCc2ccccc21)C(C)(C)C

> <Shape>
0.277

> <Color>
0.093

> <Negative vol penalty>
0.000

$$$$

  -OEChem-04052303003D

 90 99  0     1  0  0  0  0  0999 V2000
  -17.1840  -33.6652   19.2916 C   0  0  0  0  0  0  0  0  0  0  0  0
  -17.9050  -32.8059   20.1145 C   0  0  0  0  0  0  0  0  0  0  0  0
  -22.9950   -9.8985   19.9841 C   0  0  0  0  0  0  0  0  0  0  0  0
  -23.7222   -9.9498   22.2875 C   0  0  0  0  0  0  0  0  0  0  0  0
  -16.9917  -33.3443   17.9485 C   0  0  0  0  0  0  0  0  0  0  0  0
  -18.4333  -31.6246   19.5950 C   0  0  0  0  0  0  0  0  0  0  0  0
  -23.6997  -28.9342   21.1864 C   0  0  0  0  0  0  0  0  0  0  0  0
  -22.2267   -8.7655   20.2519 C   0  0  0  0  0  0  0  0  0  0  0  0
  -22.9540   -8.8168   22.5553 C   0  0  0  0  0  0  0  0  0  0  0  0
  -23.9898  -27.8752   22.0455 C   0  0  0  0  0  0  0  0  0  0  0  0
  -23.1922   -5.4771   22.0855 C   0  0  0  0  0  0  0  0  0  0  0  0
  -23.7786   -4.4595   22.8378 C   0  0  0  0  0  0  0  0  0  0  0  0
  -23.9944  -26.3610   20.1676 C   0  0  0  0  0  0  0  0  0  0  0  0
  -28.2052  -21.5100   23.8856 C   0  0  0  0  0  0  0  0  0  0  0  0
  -22.0566   -4.7065   24.5144 C   0  0  0  0  0  0  0  0  0  0  0  0
  -31.8573  -18.6545   22.1999 C   0  0  0  0  0  0  0  0  0  0  0  0
  -27.8059  -22.4306   21.7891 C   0  0  0  0  0  0  0  0  0  0  0  0
  -23.7428  -10.4906   21.0019 C   0  0  0  0  0  0  0  0  0  0  0  0
  -24.1323  -13.0054   20.8238 C   0  0  0  0  0  0  0  0  0  0  0  0
  -17.5262  -32.1632   17.4099 C   0  0  0  0  0  0  0  0  0  0  0  0
  -23.5437  -28.7124   19.8106 C   0  0  0  0  0  0  0  0  0  0  0  0
  -18.2469  -31.2870   18.2437 C   0  0  0  0  0  0  0  0  0  0  0  0
  -23.7048  -27.4193   19.2928 C   0  0  0  0  0  0  0  0  0  0  0  0
  -27.3114  -22.2542   23.0626 C   0  0  0  0  0  0  0  0  0  0  0  0
  -22.2062   -8.2247   21.5375 C   0  0  0  0  0  0  0  0  0  0  0  0
  -24.1344  -26.5879   21.5365 C   0  0  0  0  0  0  0  0  0  0  0  0
  -22.0379   -6.1096   22.5477 C   0  0  0  0  0  0  0  0  0  0  0  0
  -23.2108   -4.0741   24.0522 C   0  0  0  0  0  0  0  0  0  0  0  0
  -21.4702   -5.7242   23.7620 C   0  0  0  0  0  0  0  0  0  0  0  0
  -24.5370  -11.6607   20.7258 C   0  0  0  0  0  0  0  0  0  0  0  0
  -29.3489  -21.1456   23.2095 C   0  0  0  0  0  0  0  0  0  0  0  0
  -30.7522  -19.0597   22.9187 C   0  0  0  0  0  0  0  0  0  0  0  0
  -25.2429  -13.7259   20.4580 C   0  0  0  0  0  0  0  0  0  0  0  0
  -30.5918  -16.8919   21.8806 C   0  0  0  0  0  0  0  0  0  0  0  0
  -26.0921  -23.9324   24.0226 C   0  0  0  0  0  0  0  0  0  0  0  0
  -22.8656  -13.5543   21.2111 C   0  0  0  0  0  0  0  0  0  0  0  0
  -21.1633  -29.0758   17.7356 C   0  0  0  0  0  0  0  0  0  0  0  0
  -23.4437  -28.2715   15.5734 C   0  0  0  0  0  0  0  0  0  0  0  0
  -26.4109  -26.7101   14.9371 C   0  0  0  0  0  0  0  0  0  0  0  0
  -30.7243  -14.6776   20.6866 C   0  0  0  0  0  0  0  0  0  0  0  0
  -17.2519  -31.8359   15.9634 C   0  0  0  0  0  0  0  0  0  0  0  0
  -23.2572  -29.8699   18.8937 C   0  0  0  0  0  0  0  0  0  0  0  0
  -23.5673  -27.1317   17.8208 C   0  0  0  0  0  0  0  0  0  0  0  0
  -18.1636  -30.7481   15.4016 C   0  0  0  0  0  0  0  0  0  0  0  0
  -29.5997  -12.2252   18.3632 C   0  0  0  0  0  0  0  0  0  0  0  0
  -18.2528  -29.5733   16.3705 C   0  0  0  0  0  0  0  0  0  0  0  0
  -28.1491  -11.9703   18.7788 C   0  0  0  0  0  0  0  0  0  0  0  0
  -30.5017  -12.4678   19.5720 C   0  0  0  0  0  0  0  0  0  0  0  0
  -28.5889  -13.2608   20.9068 C   0  0  0  0  0  0  0  0  0  0  0  0
  -18.8567  -30.0085   17.7112 C   0  0  1  0  0  0  0  0  0  0  0  0
  -22.6114  -29.4447   17.5785 C   0  0  1  0  0  0  0  0  0  0  0  0
  -27.6299  -13.0754   19.7195 C   0  0  2  0  0  0  0  0  0  0  0  0
  -24.9811  -24.8427   26.0238 C   0  0  0  0  0  0  0  0  0  0  0  0
  -28.0011  -26.1886   13.0673 C   0  0  0  0  0  0  0  0  0  0  0  0
  -30.3970  -20.1386   25.2480 C   0  0  0  0  0  0  0  0  0  0  0  0
  -21.5522  -26.0956   14.5749 C   0  0  0  0  0  0  0  0  0  0  0  0
  -23.4989  -25.0341   13.4122 C   0  0  0  0  0  0  0  0  0  0  0  0
  -22.7663  -27.3308   12.7709 C   0  0  0  0  0  0  0  0  0  0  0  0
  -28.6076  -28.2133   16.2310 C   0  0  0  0  0  0  0  0  0  0  0  0
  -31.5415  -22.4711   23.9413 C   0  0  0  0  0  0  0  0  0  0  0  0
  -24.5519  -25.8564   23.7606 C   0  0  0  0  0  0  0  0  0  1  0  0
  -24.8185  -24.5676   24.5340 C   0  0  1  0  0  0  0  0  0  0  0  0
  -23.9448  -26.9773   14.9795 C   0  0  1  0  0  0  0  0  0  0  0  0
  -27.6454  -27.1635   14.1789 C   0  0  2  0  0  0  0  0  0  0  0  0
  -30.5073  -20.3737   23.7092 C   0  0  2  0  0  0  0  0  0  0  0  0
  -22.9413  -26.3642   13.9624 C   0  0  0  0  0  0  0  0  0  0  0  0
  -31.7673  -17.4115   21.6043 N   0  0  0  0  0  0  0  0  0  0  0  0
  -25.8057  -11.5317   20.3286 N   0  0  0  0  0  0  0  0  0  0  0  0
  -26.0731  -22.7461   23.5080 N   0  0  0  0  0  0  0  0  0  0  0  0
  -26.2078  -12.8047   20.1738 N   0  0  0  0  0  0  0  0  0  0  0  0
  -23.2807  -28.2954   16.9658 N   0  0  0  0  0  0  0  0  0  0  0  0
  -29.9493  -13.5302   20.4152 N   0  0  0  0  0  0  0  0  0  0  0  0
  -25.4786  -15.0511   20.3548 N   0  0  0  0  0  0  0  0  0  0  0  0
  -21.8326  -12.6721   21.5561 N   0  0  0  0  0  0  0  0  0  0  0  0
  -30.0824  -15.6344   21.4721 N   0  0  0  0  0  0  0  0  0  0  0  0
  -20.2935  -30.1408   17.5991 N   0  0  0  0  0  0  0  0  0  0  0  0
  -25.2605  -27.2674   14.4199 N   0  0  0  0  0  0  0  0  0  0  0  0
  -28.8105  -27.2691   15.1021 N   0  3  0  0  0  0  0  0  0  0  0  0
  -22.6510  -14.7900   21.2342 O   0  0  0  0  0  0  0  0  0  0  0  0
  -20.8577  -27.9110   17.9624 O   0  0  0  0  0  0  0  0  0  0  0  0
  -23.2125  -29.2285   14.8301 O   0  0  0  0  0  0  0  0  0  0  0  0
  -26.4615  -25.9360   15.8903 O   0  0  0  0  0  0  0  0  0  0  0  0
  -31.8628  -14.8142   20.2315 O   0  0  0  0  0  0  0  0  0  0  0  0
  -21.4565   -7.1192   21.7992 O   0  0  0  0  0  0  0  0  0  0  0  0
  -24.4169  -25.5523   22.3729 O   0  0  0  0  0  0  0  0  0  1  0  0
  -31.7557  -21.1227   23.5998 O   0  0  0  0  0  0  0  0  0  0  0  0
  -23.7732   -3.0957   24.7738 F   0  0  0  0  0  0  0  0  0  0  0  0
  -20.3607   -6.3273   24.2106 F   0  0  0  0  0  0  0  0  0  0  0  0
  -29.3419  -21.7005   21.5895 S   0  0  0  0  0  0  0  0  0  0  0  0
  -29.5446  -17.8437   22.8512 S   0  0  0  0  0  0  0  0  0  0  0  0
  1  2  1  0  0  0  0
  1  5  2  0  0  0  0
  2  6  2  0  0  0  0
  3  8  2  0  0  0  0
  3 18  1  0  0  0  0
  4  9  1  0  0  0  0
  4 18  2  0  0  0  0
  5 20  1  0  0  0  0
  6 22  1  0  0  0  0
  7 10  2  0  0  0  0
  7 21  1  0  0  0  0
  8 25  1  0  0  0  0
  9 25  2  0  0  0  0
 10 26  1  0  0  0  0
 11 12  2  0  0  0  0
 11 27  1  0  0  0  0
 12 28  1  0  0  0  0
 13 23  1  0  0  0  0
 13 26  2  0  0  0  0
 14 24  1  0  0  0  0
 14 31  2  0  0  0  0
 15 28  2  0  0  0  0
 15 29  1  0  0  0  0
 16 32  2  0  0  0  0
 16 67  1  0  0  0  0
 17 24  2  0  0  0  0
 17 89  1  0  0  0  0
 18 30  1  0  0  0  0
 19 30  1  0  0  0  0
 19 33  2  0  0  0  0
 19 36  1  0  0  0  0
 20 22  2  0  0  0  0
 20 41  1  0  0  0  0
 21 23  2  0  0  0  0
 21 42  1  0  0  0  0
 22 50  1  0  0  0  0
 23 43  1  0  0  0  0
 24 69  1  0  0  0  0
 25 84  1  0  0  0  0
 26 85  1  0  0  0  0
 27 29  2  0  0  0  0
 27 84  1  0  0  0  0
 28 87  1  0  0  0  0
 29 88  1  0  0  0  0
 30 68  2  0  0  0  0
 31 65  1  0  0  0  0
 31 89  1  0  0  0  0
 32 65  1  0  0  0  0
 32 90  1  0  0  0  0
 33 70  1  0  0  0  0
 33 73  1  0  0  0  0
 34 67  2  0  0  0  0
 34 75  1  0  0  0  0
 34 90  1  0  0  0  0
 35 62  1  0  0  0  0
 35 69  2  0  0  0  0
 36 74  1  0  0  0  0
 36 79  2  0  0  0  0
 37 51  1  0  0  0  0
 37 76  1  0  0  0  0
 37 80  2  0  0  0  0
 38 63  1  0  0  0  0
 38 71  1  0  0  0  0
 38 81  2  0  0  0  0
 39 64  1  0  0  0  0
 39 77  1  0  0  0  0
 39 82  2  0  0  0  0
 40 72  1  0  0  0  0
 40 75  1  0  0  0  0
 40 83  2  0  0  0  0
 41 44  1  0  0  0  0
 42 51  1  0  0  0  0
 43 71  1  0  0  0  0
 44 46  1  0  0  0  0
 45 47  1  0  0  0  0
 45 48  1  0  0  0  0
 46 50  1  0  0  0  0
 47 52  1  0  0  0  0
 48 72  1  0  0  0  0
 49 52  1  0  0  0  0
 49 72  1  0  0  0  0
 50 76  1  0  0  0  0
 51 71  1  0  0  0  0
 52 70  1  0  0  0  0
 53 62  1  0  0  0  0
 54 64  1  0  0  0  0
 55 65  1  0  0  0  0
 56 66  1  0  0  0  0
 57 66  1  0  0  0  0
 58 66  1  0  0  0  0
 59 78  1  0  0  0  0
 60 86  1  0  0  0  0
 61 62  1  0  0  0  0
 61 85  1  0  0  0  0
 63 66  1  0  0  0  0
 63 77  1  0  0  0  0
 64 78  1  0  0  0  0
 65 86  1  0  0  0  0
 68 70  1  0  0  0  0
M  CHG  1  78   1
M  ISO  4  40 100  61 101  75 100  85 101
M  END
> <Batch ID>
0143

> <Smiles>
CNC(C)C(=O)NC(C(=O)N1Cc2cc([101O:1][101CH2:1]C(C)=CNc3csc(C(C)(OC)c4cnc([100NH:0][100C:0](=O)N5CCCC(n6nc(-c7ccc(Oc8ccc(F)cc8F)cc7)c(C(N)=O)c6N)C5)s4)c3)ccc2CC1C(=O)NC1CCCc2ccccc21)C(C)(C)C

> <Shape>
0.208

> <Color>
0.186

> <Negative vol penalty>
0.000

$$$$

  -OEChem-04052303003D

 93103  0     1  0  0  0  0  0999 V2000
  -19.9440  -24.6910   24.0917 C   0  0  0  0  0  0  0  0  0  0  0  0
  -21.2542  -24.8525   23.6527 C   0  0  0  0  0  0  0  0  0  0  0  0
  -23.8002   -9.8920   22.6005 C   0  0  0  0  0  0  0  0  0  0  0  0
  -23.3255  -10.1822   20.2494 C   0  0  0  0  0  0  0  0  0  0  0  0
  -18.9758  -25.6361   23.7552 C   0  0  0  0  0  0  0  0  0  0  0  0
  -21.5967  -25.9587   22.8760 C   0  0  0  0  0  0  0  0  0  0  0  0
  -32.0433  -24.0905   15.8357 C   0  0  0  0  0  0  0  0  0  0  0  0
  -26.9080  -29.0068   22.9502 C   0  0  0  0  0  0  0  0  0  0  0  0
  -31.9040  -25.4560   16.1033 C   0  0  0  0  0  0  0  0  0  0  0  0
  -22.8889   -8.8374   22.6543 C   0  0  0  0  0  0  0  0  0  0  0  0
  -22.4143   -9.1275   20.3032 C   0  0  0  0  0  0  0  0  0  0  0  0
  -28.0344  -28.9486   22.1307 C   0  0  0  0  0  0  0  0  0  0  0  0
  -22.8129   -5.5653   21.8053 C   0  0  0  0  0  0  0  0  0  0  0  0
  -23.2004   -4.4077   22.4801 C   0  0  0  0  0  0  0  0  0  0  0  0
  -30.0240  -25.0287   17.5908 C   0  0  0  0  0  0  0  0  0  0  0  0
  -27.1920  -30.8117   20.8507 C   0  0  0  0  0  0  0  0  0  0  0  0
  -28.3975  -19.8371   18.3350 C   0  0  0  0  0  0  0  0  0  0  0  0
  -21.3433   -4.6735   24.0025 C   0  0  0  0  0  0  0  0  0  0  0  0
  -24.0185  -10.5645   21.3980 C   0  0  0  0  0  0  0  0  0  0  0  0
  -30.1838  -23.6850   17.3088 C   0  0  0  0  0  0  0  0  0  0  0  0
  -26.3351  -11.5759   21.0543 C   0  0  0  0  0  0  0  0  0  0  0  0
  -31.1698  -23.2123   16.4502 C   0  0  0  0  0  0  0  0  0  0  0  0
  -19.3087  -26.7595   22.9821 C   0  0  0  0  0  0  0  0  0  0  0  0
  -25.9082  -29.9625   22.7190 C   0  0  0  0  0  0  0  0  0  0  0  0
  -20.6318  -26.9191   22.5277 C   0  0  0  0  0  0  0  0  0  0  0  0
  -26.0551  -30.8816   21.6703 C   0  0  0  0  0  0  0  0  0  0  0  0
  -29.4936  -20.1282   17.4725 C   0  0  0  0  0  0  0  0  0  0  0  0
  -30.9022  -25.9210   16.9740 C   0  0  0  0  0  0  0  0  0  0  0  0
  -22.1960   -8.4551   21.5057 C   0  0  0  0  0  0  0  0  0  0  0  0
  -28.1752  -29.8492   21.0789 C   0  0  0  0  0  0  0  0  0  0  0  0
  -21.6907   -6.2771   22.2292 C   0  0  0  0  0  0  0  0  0  0  0  0
  -22.4655   -3.9617   23.5786 C   0  0  0  0  0  0  0  0  0  0  0  0
  -20.9559   -5.8312   23.3277 C   0  0  0  0  0  0  0  0  0  0  0  0
  -24.9592  -11.6544   21.3420 C   0  0  0  0  0  0  0  0  0  0  0  0
  -30.0259  -18.9892   16.9097 C   0  0  0  0  0  0  0  0  0  0  0  0
  -26.7753  -12.8750   21.1249 C   0  0  0  0  0  0  0  0  0  0  0  0
  -28.1337  -18.4864   18.3984 C   0  0  0  0  0  0  0  0  0  0  0  0
  -29.4144  -22.5404   17.8087 C   0  0  0  0  0  0  0  0  0  0  0  0
  -27.1429  -10.4310   20.7504 C   0  0  0  0  0  0  0  0  0  0  0  0
  -22.8210  -29.8433   21.9717 C   0  0  0  0  0  0  0  0  0  0  0  0
  -22.9931  -33.0541   22.4001 C   0  0  0  0  0  0  0  0  0  0  0  0
  -29.8629  -27.9465   18.0517 C   0  0  0  0  0  0  0  0  0  0  0  0
  -24.9177  -35.8721   22.4439 C   0  0  0  0  0  0  0  0  0  0  0  0
  -26.1776  -18.2898   19.9737 C   0  0  0  0  0  0  0  0  0  0  0  0
  -18.2177  -27.7297   22.6040 C   0  0  0  0  0  0  0  0  0  0  0  0
  -24.7121  -30.0293   23.6285 C   0  0  0  0  0  0  0  0  0  0  0  0
  -31.0958  -21.7290   16.3442 C   0  0  0  0  0  0  0  0  0  0  0  0
  -25.0200  -31.9398   21.3924 C   0  0  0  0  0  0  0  0  0  0  0  0
  -18.7434  -29.0683   22.0919 C   0  0  0  0  0  0  0  0  0  0  0  0
  -24.4743  -17.0440   22.8414 C   0  0  0  0  0  0  0  0  0  0  0  0
  -19.8569  -28.8497   21.0724 C   0  0  0  0  0  0  0  0  0  0  0  0
  -24.5618  -15.5243   22.6833 C   0  0  0  0  0  0  0  0  0  0  0  0
  -24.2910  -17.7446   21.4963 C   0  0  0  0  0  0  0  0  0  0  0  0
  -25.3699  -15.8717   20.3141 C   0  0  0  0  0  0  0  0  0  0  0  0
  -21.0476  -28.1187   21.7042 C   0  0  1  0  0  0  0  0  0  0  0  0
  -23.5097  -30.7131   22.9851 C   0  0  1  0  0  0  0  0  0  0  0  0
  -25.6199  -15.1267   21.6355 C   0  0  2  0  0  0  0  0  0  0  0  0
  -24.7696  -38.3535   22.7873 C   0  0  0  0  0  0  0  0  0  0  0  0
  -21.7814  -33.3645   19.6170 C   0  0  0  0  0  0  0  0  0  0  0  0
  -22.5296  -35.7536   19.6338 C   0  0  0  0  0  0  0  0  0  0  0  0
  -20.8841  -34.9520   21.3285 C   0  0  0  0  0  0  0  0  0  0  0  0
  -26.7446  -35.7761   24.7703 C   0  0  0  0  0  0  0  0  0  0  0  0
  -31.1611  -18.8569   15.9678 C   0  0  0  0  0  0  0  0  0  0  0  0
  -30.0882  -29.4542   18.0381 C   0  0  0  0  0  0  0  0  0  0  0  0
  -29.1101  -30.2125   18.9226 C   0  0  0  0  0  0  0  0  0  1  0  0
  -23.3018  -34.2360   21.5130 C   0  0  1  0  0  0  0  0  0  0  0  0
  -25.0199  -37.0065   23.4474 C   0  0  2  0  0  0  0  0  0  0  0  0
  -22.1430  -34.5555   20.5269 C   0  0  0  0  0  0  0  0  0  0  0  0
  -24.5523  -12.9045   21.5779 N   0  0  0  0  0  0  0  0  0  0  0  0
  -25.6792  -13.6235   21.4387 N   0  0  0  0  0  0  0  0  0  0  0  0
  -29.9732  -21.3926   17.2232 N   0  0  0  0  0  0  0  0  0  0  0  0
  -23.8655  -31.9605   22.3057 N   0  0  0  0  0  0  0  0  0  0  0  0
  -25.3313  -17.3225   20.5559 N   0  0  0  0  0  0  0  0  0  0  0  0
  -27.9892  -13.4386   20.9487 N   0  0  0  0  0  0  0  0  0  0  0  0
  -26.5307   -9.1706   20.7192 N   0  0  0  0  0  0  0  0  0  0  0  0
  -30.7852  -27.3086   17.2264 N   0  0  0  0  0  0  0  0  0  0  0  0
  -27.1495  -17.7674   19.1211 N   0  0  0  0  0  0  0  0  0  0  0  0
  -21.8360  -29.0327   22.5027 N   0  0  0  0  0  0  0  0  0  0  0  0
  -23.6474  -35.3370   22.4056 N   0  0  0  0  0  0  0  0  0  0  0  0
  -32.4833  -18.6845   16.6399 N   0  3  0  0  0  0  0  0  0  0  0  0
  -26.3757  -37.0308   24.0655 N   0  3  0  0  0  0  0  0  0  0  0  0
  -28.4795  -22.6404   18.5836 O   0  0  0  0  0  0  0  0  0  0  0  0
  -28.3744  -10.5210   20.5296 O   0  0  0  0  0  0  0  0  0  0  0  0
  -23.1574  -29.9043   20.7949 O   0  0  0  0  0  0  0  0  0  0  0  0
  -22.0182  -33.1023   23.1543 O   0  0  0  0  0  0  0  0  0  0  0  0
  -28.9746  -27.4251   18.7175 O   0  0  0  0  0  0  0  0  0  0  0  0
  -25.8685  -35.5004   21.7596 O   0  0  0  0  0  0  0  0  0  0  0  0
  -26.0670  -19.4905   20.2350 O   0  0  0  0  0  0  0  0  0  0  0  0
  -21.3069   -7.4258   21.5577 O   0  0  0  0  0  0  0  0  0  0  0  0
  -29.2733  -29.7942   20.2771 O   0  0  0  0  0  0  0  0  0  1  0  0
  -22.8368   -2.8492   24.2256 F   0  0  0  0  0  0  0  0  0  0  0  0
  -19.8761   -6.5102   23.7388 F   0  0  0  0  0  0  0  0  0  0  0  0
  -29.2051  -17.5760   17.4210 S   0  0  0  0  0  0  0  0  0  0  0  0
  1  2  1  0  0  0  0
  1  5  2  0  0  0  0
  2  6  2  0  0  0  0
  3 10  2  0  0  0  0
  3 19  1  0  0  0  0
  4 11  1  0  0  0  0
  4 19  2  0  0  0  0
  5 23  1  0  0  0  0
  6 25  1  0  0  0  0
  7  9  2  0  0  0  0
  7 22  1  0  0  0  0
  8 12  2  0  0  0  0
  8 24  1  0  0  0  0
  9 28  1  0  0  0  0
 10 29  1  0  0  0  0
 11 29  2  0  0  0  0
 12 30  1  0  0  0  0
 13 14  2  0  0  0  0
 13 31  1  0  0  0  0
 14 32  1  0  0  0  0
 15 20  1  0  0  0  0
 15 28  2  0  0  0  0
 16 26  1  0  0  0  0
 16 30  2  0  0  0  0
 17 27  1  0  0  0  0
 17 37  2  0  0  0  0
 18 32  2  0  0  0  0
 18 33  1  0  0  0  0
 19 34  1  0  0  0  0
 20 22  2  0  0  0  0
 20 38  1  0  0  0  0
 21 34  1  0  0  0  0
 21 36  2  0  0  0  0
 21 39  1  0  0  0  0
 22 47  1  0  0  0  0
 23 25  2  0  0  0  0
 23 45  1  0  0  0  0
 24 26  2  0  0  0  0
 24 46  1  0  0  0  0
 25 55  1  0  0  0  0
 26 48  1  0  0  0  0
 27 35  2  0  0  0  0
 27 71  1  0  0  0  0
 28 76  1  0  0  0  0
 29 89  1  0  0  0  0
 30 90  1  0  0  0  0
 31 33  2  0  0  0  0
 31 89  1  0  0  0  0
 32 91  1  0  0  0  0
 33 92  1  0  0  0  0
 34 69  2  0  0  0  0
 35 63  1  0  0  0  0
 35 93  1  0  0  0  0
 36 70  1  0  0  0  0
 36 74  1  0  0  0  0
 37 77  1  0  0  0  0
 37 93  1  0  0  0  0
 38 71  1  0  0  0  0
 38 82  2  0  0  0  0
 39 75  1  0  0  0  0
 39 83  2  0  0  0  0
 40 56  1  0  0  0  0
 40 78  1  0  0  0  0
 40 84  2  0  0  0  0
 41 66  1  0  0  0  0
 41 72  1  0  0  0  0
 41 85  2  0  0  0  0
 42 64  1  0  0  0  0
 42 76  1  0  0  0  0
 42 86  2  0  0  0  0
 43 67  1  0  0  0  0
 43 79  1  0  0  0  0
 43 87  2  0  0  0  0
 44 73  1  0  0  0  0
 44 77  1  0  0  0  0
 44 88  2  0  0  0  0
 45 49  1  0  0  0  0
 46 56  1  0  0  0  0
 47 71  1  0  0  0  0
 48 72  1  0  0  0  0
 49 51  1  0  0  0  0
 50 52  1  0  0  0  0
 50 53  1  0  0  0  0
 51 55  1  0  0  0  0
 52 57  1  0  0  0  0
 53 73  1  0  0  0  0
 54 57  1  0  0  0  0
 54 73  1  0  0  0  0
 55 78  1  0  0  0  0
 56 72  1  0  0  0  0
 57 70  1  0  0  0  0
 58 67  1  0  0  0  0
 59 68  1  0  0  0  0
 60 68  1  0  0  0  0
 61 68  1  0  0  0  0
 62 81  1  0  0  0  0
 63 80  1  0  0  0  0
 64 65  1  0  0  0  0
 65 90  1  0  0  0  0
 66 68  1  0  0  0  0
 66 79  1  0  0  0  0
 67 81  1  0  0  0  0
 69 70  1  0  0  0  0
M  CHG  2  80   1  81   1
M  ISO  4  44 100  65 101  77 100  90 101
M  END
> <Batch ID>
0143

> <Smiles>
CNC(C)C(=O)NC(C(=O)N1Cc2cc([101O:1][101CH2:1]CC(=O)Nc3ccc4c(c3)C(=O)N(c3cc([100NH:0][100C:0](=O)N5CCCC(n6nc(-c7ccc(Oc8ccc(F)cc8F)cc7)c(C(N)=O)c6N)C5)sc3CN)C4)ccc2CC1C(=O)NC1CCCc2ccccc21)C(C)(C)C

> <Shape>
0.305

> <Color>
0.127

> <Negative vol penalty>
0.000

$$$$

  -OEChem-04052303003D

 86 95  0     1  0  0  0  0  0999 V2000
  -29.2612  -12.8715   12.3589 C   0  0  0  0  0  0  0  0  0  0  0  0
  -29.5186  -13.3931   13.6227 C   0  0  0  0  0  0  0  0  0  0  0  0
  -23.0754  -30.6323   20.5853 C   0  0  0  0  0  0  0  0  0  0  0  0
  -23.0287  -29.1601   22.5004 C   0  0  0  0  0  0  0  0  0  0  0  0
  -27.9456  -12.7269   11.9205 C   0  0  0  0  0  0  0  0  0  0  0  0
  -28.4605  -13.7715   14.4483 C   0  0  0  0  0  0  0  0  0  0  0  0
  -29.0562  -12.1839   19.2201 C   0  0  0  0  0  0  0  0  0  0  0  0
  -21.8588  -31.1873   20.9822 C   0  0  0  0  0  0  0  0  0  0  0  0
  -21.8121  -29.7152   22.8974 C   0  0  0  0  0  0  0  0  0  0  0  0
  -29.9344  -12.9065   20.0266 C   0  0  0  0  0  0  0  0  0  0  0  0
  -18.5522  -29.4416   22.0434 C   0  0  0  0  0  0  0  0  0  0  0  0
  -17.5426  -28.5682   22.4476 C   0  0  0  0  0  0  0  0  0  0  0  0
  -28.0623  -14.0488   21.0314 C   0  0  0  0  0  0  0  0  0  0  0  0
  -31.9873  -21.4255   22.3412 C   0  0  0  0  0  0  0  0  0  0  0  0
  -30.9917  -23.5856   21.9172 C   0  0  0  0  0  0  0  0  0  0  0  0
  -30.3399  -21.6739   20.5915 C   0  0  0  0  0  0  0  0  0  0  0  0
  -17.5051  -29.6184   24.6231 C   0  0  0  0  0  0  0  0  0  0  0  0
  -23.6603  -29.6187   21.3444 C   0  0  0  0  0  0  0  0  0  0  0  0
  -26.2068  -29.4754   21.2975 C   0  0  0  0  0  0  0  0  0  0  0  0
  -26.8706  -13.0946   12.7450 C   0  0  0  0  0  0  0  0  0  0  0  0
  -27.6727  -12.3966   19.3056 C   0  0  0  0  0  0  0  0  0  0  0  0
  -27.1293  -13.6329   14.0200 C   0  0  0  0  0  0  0  0  0  0  0  0
  -27.1685  -13.3258   20.2267 C   0  0  0  0  0  0  0  0  0  0  0  0
  -31.8727  -22.7827   22.6418 C   0  0  0  0  0  0  0  0  0  0  0  0
  -31.2209  -20.8711   21.3160 C   0  0  0  0  0  0  0  0  0  0  0  0
  -30.2253  -23.0311   20.8921 C   0  0  0  0  0  0  0  0  0  0  0  0
  -21.2272  -30.7288   22.1383 C   0  0  0  0  0  0  0  0  0  0  0  0
  -29.4377  -13.8411   20.9304 C   0  0  0  0  0  0  0  0  0  0  0  0
  -19.0383  -30.4034   22.9291 C   0  0  0  0  0  0  0  0  0  0  0  0
  -17.0190  -28.6566   23.7375 C   0  0  0  0  0  0  0  0  0  0  0  0
  -18.5148  -30.4918   24.2189 C   0  0  0  0  0  0  0  0  0  0  0  0
  -24.9167  -29.0446   20.9345 C   0  0  0  0  0  0  0  0  0  0  0  0
  -27.0530  -28.6073   20.6518 C   0  0  0  0  0  0  0  0  0  0  0  0
  -31.8778  -17.2772   21.1599 C   0  0  0  0  0  0  0  0  0  0  0  0
  -26.6048  -30.5630   22.1427 C   0  0  0  0  0  0  0  0  0  0  0  0
  -32.1110  -16.1047   21.7591 C   0  0  0  0  0  0  0  0  0  0  0  0
  -25.4307  -13.4115   17.2939 C   0  0  0  0  0  0  0  0  0  0  0  0
  -23.4396  -12.6325   19.7334 C   0  0  0  0  0  0  0  0  0  0  0  0
  -23.0204  -12.1274   23.0824 C   0  0  0  0  0  0  0  0  0  0  0  0
  -28.4971  -23.4558   19.1090 C   0  0  0  0  0  0  0  0  0  0  0  0
  -25.4669  -12.9639   12.2091 C   0  0  0  0  0  0  0  0  0  0  0  0
  -26.7371  -11.5899   18.4476 C   0  0  0  0  0  0  0  0  0  0  0  0
  -25.6905  -13.5769   20.3715 C   0  0  0  0  0  0  0  0  0  0  0  0
  -31.1211  -17.4549   19.8817 C   0  0  0  0  0  0  0  0  0  0  0  0
  -32.2320  -18.6186   21.7280 C   0  0  0  0  0  0  0  0  0  0  0  0
  -24.3924  -13.0394   13.2908 C   0  0  0  0  0  0  0  0  0  0  0  0
  -26.1235  -25.1540   17.0695 C   0  0  0  0  0  0  0  0  0  0  0  0
  -24.6655  -14.2068   14.2339 C   0  0  0  0  0  0  0  0  0  0  0  0
  -25.7041  -26.3530   17.9231 C   0  0  0  0  0  0  0  0  0  0  0  0
  -30.4887  -18.8335   20.0503 C   0  0  0  0  0  0  0  0  0  0  0  0
  -26.3622  -23.9079   17.9204 C   0  0  0  0  0  0  0  0  0  0  0  0
  -26.8736  -25.2895   19.8949 C   0  0  0  0  0  0  0  0  0  0  0  0
  -26.0077  -14.0316   14.9544 C   0  0  1  0  0  0  0  0  0  0  0  0
  -25.3788  -12.2570   18.2542 C   0  0  1  0  0  0  0  0  0  0  0  0
  -26.6848  -26.5852   19.0893 C   0  0  2  0  0  0  0  0  0  0  0  0
  -32.6922  -23.3754   23.7378 C   0  0  0  0  0  0  0  0  0  0  0  0
  -32.8823  -16.0185   23.0445 C   0  0  0  0  0  0  0  0  0  0  0  0
  -21.2709  -11.5370   24.7818 C   0  0  0  0  0  0  0  0  0  0  0  0
  -22.3075  -15.4598   19.5465 C   0  0  0  0  0  0  0  0  0  0  0  0
  -21.2893  -15.1267   21.8093 C   0  0  0  0  0  0  0  0  0  0  0  0
  -20.5957  -13.6722   19.9052 C   0  0  0  0  0  0  0  0  0  0  0  0
  -24.4694   -9.6778   23.8939 C   0  0  0  0  0  0  0  0  0  0  0  0
  -31.5922  -14.8138   21.1916 C   0  0  0  0  0  0  0  0  0  1  0  0
  -22.8840  -13.3600   20.9338 C   0  0  1  0  0  0  0  0  0  0  0  0
  -22.3535  -11.0044   23.8560 C   0  0  2  0  0  0  0  0  0  0  0  0
  -21.7972  -14.4016   20.5448 C   0  0  0  0  0  0  0  0  0  0  0  0
  -24.9366  -27.9852   20.1213 N   0  0  0  0  0  0  0  0  0  0  0  0
  -26.2495  -27.7431   19.9678 N   0  0  0  0  0  0  0  0  0  0  0  0
  -31.3347  -19.5272   21.0186 N   0  0  3  0  0  0  0  0  0  0  0  0
  -24.8165  -12.7678   19.5060 N   0  0  0  0  0  0  0  0  0  0  0  0
  -27.3044  -24.2022   19.0022 N   0  0  0  0  0  0  0  0  0  0  0  0
  -28.3985  -28.5065   20.6081 N   0  0  0  0  0  0  0  0  0  0  0  0
  -25.6069  -31.3553   22.7264 N   0  0  0  0  0  0  0  0  0  0  0  0
  -29.3302  -23.8470   20.1566 N   0  0  0  0  0  0  0  0  0  0  0  0
  -25.8816  -13.0740   16.0321 N   0  0  0  0  0  0  0  0  0  0  0  0
  -22.4211  -12.3298   21.8573 N   0  0  0  0  0  0  0  0  0  0  0  0
  -23.3586  -10.2744   24.6794 N   0  3  0  0  0  0  0  0  0  0  0  0
  -27.8099  -30.8347   22.3603 O   0  0  0  0  0  0  0  0  0  0  0  0
  -25.0858  -14.5258   17.6696 O   0  0  0  0  0  0  0  0  0  0  0  0
  -22.6812  -11.9629   19.0277 O   0  0  0  0  0  0  0  0  0  0  0  0
  -23.9751  -12.7641   23.5226 O   0  0  0  0  0  0  0  0  0  0  0  0
  -28.7726  -22.5553   18.3121 O   0  0  0  0  0  0  0  0  0  0  0  0
  -20.0402  -31.2703   22.5260 O   0  0  0  0  0  0  0  0  0  0  0  0
  -30.2928  -14.5482   21.7183 O   0  0  0  0  0  0  0  0  0  1  0  0
  -16.0484  -27.8188   24.1250 F   0  0  0  0  0  0  0  0  0  0  0  0
  -18.9769  -31.4145   25.0738 F   0  0  0  0  0  0  0  0  0  0  0  0
  1  2  1  0  0  0  0
  1  5  2  0  0  0  0
  2  6  2  0  0  0  0
  3  8  2  0  0  0  0
  3 18  1  0  0  0  0
  4  9  1  0  0  0  0
  4 18  2  0  0  0  0
  5 20  1  0  0  0  0
  6 22  1  0  0  0  0
  7 10  2  0  0  0  0
  7 21  1  0  0  0  0
  8 27  1  0  0  0  0
  9 27  2  0  0  0  0
 10 28  1  0  0  0  0
 11 12  2  0  0  0  0
 11 29  1  0  0  0  0
 12 30  1  0  0  0  0
 13 23  1  0  0  0  0
 13 28  2  0  0  0  0
 14 24  2  0  0  0  0
 14 25  1  0  0  0  0
 15 24  1  0  0  0  0
 15 26  2  0  0  0  0
 16 25  2  0  0  0  0
 16 26  1  0  0  0  0
 17 30  2  0  0  0  0
 17 31  1  0  0  0  0
 18 32  1  0  0  0  0
 19 32  1  0  0  0  0
 19 33  2  0  0  0  0
 19 35  1  0  0  0  0
 20 22  2  0  0  0  0
 20 41  1  0  0  0  0
 21 23  2  0  0  0  0
 21 42  1  0  0  0  0
 22 53  1  0  0  0  0
 23 43  1  0  0  0  0
 24 56  1  0  0  0  0
 25 69  1  0  0  0  0
 26 74  1  0  0  0  0
 27 83  1  0  0  0  0
 28 84  1  0  0  0  0
 29 31  2  0  0  0  0
 29 83  1  0  0  0  0
 30 85  1  0  0  0  0
 31 86  1  0  0  0  0
 32 67  2  0  0  0  0
 33 68  1  0  0  0  0
 33 72  1  0  0  0  0
 34 36  2  0  0  0  0
 34 44  1  0  0  0  0
 34 45  1  0  0  0  0
 35 73  1  0  0  0  0
 35 78  2  0  0  0  0
 36 57  1  0  0  0  0
 36 63  1  0  0  0  0
 37 54  1  0  0  0  0
 37 75  1  0  0  0  0
 37 79  2  0  0  0  0
 38 64  1  0  0  0  0
 38 70  1  0  0  0  0
 38 80  2  0  0  0  0
 39 65  1  0  0  0  0
 39 76  1  0  0  0  0
 39 81  2  0  0  0  0
 40 71  1  0  0  0  0
 40 74  1  0  0  0  0
 40 82  2  0  0  0  0
 41 46  1  0  0  0  0
 42 54  1  0  0  0  0
 43 70  1  0  0  0  0
 44 50  1  0  0  0  0
 45 69  1  0  0  0  0
 46 48  1  0  0  0  0
 47 49  1  0  0  0  0
 47 51  1  0  0  0  0
 48 53  1  0  0  0  0
 49 55  1  0  0  0  0
 50 69  1  0  0  0  0
 51 71  1  0  0  0  0
 52 55  1  0  0  0  0
 52 71  1  0  0  0  0
 53 75  1  0  0  0  0
 54 70  1  0  0  0  0
 55 68  1  0  0  0  0
 58 65  1  0  0  0  0
 59 66  1  0  0  0  0
 60 66  1  0  0  0  0
 61 66  1  0  0  0  0
 62 77  1  0  0  0  0
 63 84  1  0  0  0  0
 64 66  1  0  0  0  0
 64 76  1  0  0  0  0
 65 77  1  0  0  0  0
 67 68  1  0  0  0  0
M  CHG  1  77   1
M  ISO  4  40 100  63 101  74 100  84 101
M  END
> <Batch ID>
0143

> <Smiles>
CNC(C)C(=O)NC(C(=O)N1Cc2cc([101O:1][101CH2:1]C(C)=C3CCN(c4cc(C)cc([100NH:0][100C:0](=O)N5CCCC(n6nc(-c7ccc(Oc8ccc(F)cc8F)cc7)c(C(N)=O)c6N)C5)c4)C3)ccc2CC1C(=O)NC1CCCc2ccccc21)C(C)(C)C

> <Shape>
0.260

> <Color>
0.068

> <Negative vol penalty>
0.000

$$$$

  -OEChem-04052303003D

 87 95  0     1  0  0  0  0  0999 V2000
  -19.4253  -25.0251   24.1943 C   0  0  0  0  0  0  0  0  0  0  0  0
  -20.6606  -25.3122   23.6225 C   0  0  0  0  0  0  0  0  0  0  0  0
  -24.7852   -8.9177   21.4535 C   0  0  0  0  0  0  0  0  0  0  0  0
  -23.1229  -10.6678   21.3479 C   0  0  0  0  0  0  0  0  0  0  0  0
  -18.3671  -25.9217   24.0518 C   0  0  0  0  0  0  0  0  0  0  0  0
  -20.8382  -26.4958   22.9069 C   0  0  0  0  0  0  0  0  0  0  0  0
  -25.1700  -28.8428   24.0780 C   0  0  0  0  0  0  0  0  0  0  0  0
  -23.9687   -8.1946   22.3230 C   0  0  0  0  0  0  0  0  0  0  0  0
  -22.3064   -9.9446   22.2174 C   0  0  0  0  0  0  0  0  0  0  0  0
  -26.3410  -28.3358   23.5161 C   0  0  0  0  0  0  0  0  0  0  0  0
  -21.2406   -6.2088   22.1057 C   0  0  0  0  0  0  0  0  0  0  0  0
  -21.0858   -4.8437   21.8649 C   0  0  0  0  0  0  0  0  0  0  0  0
  -27.3370  -19.5834   20.7379 C   0  0  0  0  0  0  0  0  0  0  0  0
  -26.2829  -30.0727   21.8431 C   0  0  0  0  0  0  0  0  0  0  0  0
  -22.0091   -4.3547   24.0433 C   0  0  0  0  0  0  0  0  0  0  0  0
  -25.1486  -19.9279   20.4762 C   0  0  0  0  0  0  0  0  0  0  0  0
  -24.3623  -10.1543   20.9660 C   0  0  0  0  0  0  0  0  0  0  0  0
  -26.3471  -20.5878   20.6178 C   0  0  0  0  0  0  0  0  0  0  0  0
  -25.2223  -10.8332   18.6623 C   0  0  0  0  0  0  0  0  0  0  0  0
  -18.5346  -27.1214   23.3423 C   0  0  0  0  0  0  0  0  0  0  0  0
  -24.5398  -29.9638   23.5191 C   0  0  0  0  0  0  0  0  0  0  0  0
  -19.7809  -27.4087   22.7536 C   0  0  0  0  0  0  0  0  0  0  0  0
  -25.1055  -30.5934   22.4013 C   0  0  0  0  0  0  0  0  0  0  0  0
  -22.7293   -8.7080   22.7049 C   0  0  0  0  0  0  0  0  0  0  0  0
  -26.8960  -28.9490   22.3967 C   0  0  0  0  0  0  0  0  0  0  0  0
  -21.7798   -6.6469   23.3153 C   0  0  0  0  0  0  0  0  0  0  0  0
  -21.4699   -3.9166   22.8337 C   0  0  0  0  0  0  0  0  0  0  0  0
  -22.1639   -5.7199   24.2841 C   0  0  0  0  0  0  0  0  0  0  0  0
  -25.2056  -10.9020   20.0683 C   0  0  0  0  0  0  0  0  0  0  0  0
  -26.1908  -11.7316   18.2860 C   0  0  0  0  0  0  0  0  0  0  0  0
  -26.6728  -18.3813   20.6613 C   0  0  0  0  0  0  0  0  0  0  0  0
  -26.5162  -22.0711   20.6350 C   0  0  0  0  0  0  0  0  0  0  0  0
  -24.4329  -10.0293   17.7756 C   0  0  0  0  0  0  0  0  0  0  0  0
  -21.7026  -30.5150   22.1961 C   0  0  0  0  0  0  0  0  0  0  0  0
  -22.7373  -33.5893   22.1907 C   0  0  0  0  0  0  0  0  0  0  0  0
  -25.3706  -35.7600   22.2175 C   0  0  0  0  0  0  0  0  0  0  0  0
  -28.4566  -16.6156   20.8778 C   0  0  0  0  0  0  0  0  0  0  0  0
  -17.3481  -28.0374   23.1748 C   0  0  0  0  0  0  0  0  0  0  0  0
  -23.2919  -30.5145   24.1532 C   0  0  0  0  0  0  0  0  0  0  0  0
  -24.4789  -31.8118   21.7756 C   0  0  0  0  0  0  0  0  0  0  0  0
  -17.7248  -29.4449   22.7195 C   0  0  0  0  0  0  0  0  0  0  0  0
  -30.2579  -13.7242   19.8423 C   0  0  0  0  0  0  0  0  0  0  0  0
  -18.7187  -29.3841   21.5639 C   0  0  0  0  0  0  0  0  0  0  0  0
  -29.1676  -12.6678   19.6489 C   0  0  0  0  0  0  0  0  0  0  0  0
  -29.9564  -14.6400   21.0273 C   0  0  0  0  0  0  0  0  0  0  0  0
  -27.5398  -14.2134   20.8102 C   0  0  0  0  0  0  0  0  0  0  0  0
  -20.0197  -28.6938   21.9910 C   0  0  1  0  0  0  0  0  0  0  0  0
  -22.4533  -31.3522   23.1927 C   0  0  1  0  0  0  0  0  0  0  0  0
  -27.7669  -13.3081   19.5885 C   0  0  2  0  0  0  0  0  0  0  0  0
  -25.9029  -38.2119   22.1693 C   0  0  0  0  0  0  0  0  0  0  0  0
  -22.1050  -33.6654   19.2067 C   0  0  0  0  0  0  0  0  0  0  0  0
  -23.5064  -35.7329   19.0335 C   0  0  0  0  0  0  0  0  0  0  0  0
  -21.4617  -35.7303   20.4624 C   0  0  0  0  0  0  0  0  0  0  0  0
  -30.0012  -24.5004   22.2329 C   0  0  0  0  0  0  0  0  0  0  0  0
  -30.1973  -24.3554   19.7582 C   0  0  0  0  0  0  0  0  0  0  0  0
  -30.4989  -27.2345   20.8496 C   0  0  0  0  0  0  0  0  0  0  0  0
  -28.4643  -26.9154   19.4668 C   0  0  0  0  0  0  0  0  0  0  0  0
  -26.7156  -35.6381   24.8509 C   0  0  0  0  0  0  0  0  0  0  0  0
  -27.9180  -22.6455   20.8009 C   0  0  0  0  0  0  0  0  0  0  0  0
  -27.9099  -24.1833   20.8226 C   0  0  0  0  0  0  0  0  0  0  0  0
  -28.2635  -27.0501   21.9723 C   0  0  0  0  0  0  0  0  0  1  0  0
  -23.5081  -34.4563   21.2247 C   0  0  1  0  0  0  0  0  0  0  0  0
  -25.6462  -36.9991   23.0501 C   0  0  2  0  0  0  0  0  0  0  0  0
  -22.6563  -34.8721   19.9922 C   0  0  0  0  0  0  0  0  0  0  0  0
  -29.3059  -24.8960   20.9063 C   0  0  0  0  0  0  0  0  0  0  0  0
  -29.1330  -26.4981   20.8026 C   0  0  0  0  0  0  0  0  0  0  0  0
  -26.0931  -11.7749   20.5524 N   0  0  0  0  0  0  0  0  0  0  0  0
  -26.6766  -12.2628   19.4444 N   0  0  0  0  0  0  0  0  0  0  0  0
  -23.2563  -32.3087   22.4281 N   0  0  0  0  0  0  0  0  0  0  0  0
  -28.6150  -15.2138   20.8998 N   0  0  0  0  0  0  0  0  0  0  0  0
  -26.6657  -12.1109   17.0807 N   0  0  0  0  0  0  0  0  0  0  0  0
  -23.4833   -9.1597   18.3291 N   0  0  0  0  0  0  0  0  0  0  0  0
  -27.1392  -17.0445   20.7198 N   0  0  0  0  0  0  0  0  0  0  0  0
  -20.8406  -29.5984   22.7672 N   0  0  0  0  0  0  0  0  0  0  0  0
  -24.0206  -35.5787   22.0030 N   0  0  0  0  0  0  0  0  0  0  0  0
  -26.8401  -36.7861   23.9162 N   0  3  0  0  0  0  0  0  0  0  0  0
  -25.5253  -22.7884   20.5168 O   0  0  0  0  0  0  0  0  0  0  0  0
  -24.5771  -10.0685   16.5301 O   0  0  0  0  0  0  0  0  0  0  0  0
  -21.8904  -30.6888   20.9977 O   0  0  0  0  0  0  0  0  0  0  0  0
  -21.7164  -34.0347   22.7209 O   0  0  0  0  0  0  0  0  0  0  0  0
  -26.2637  -35.0284   21.7962 O   0  0  0  0  0  0  0  0  0  0  0  0
  -29.4218  -17.3792   20.9636 O   0  0  0  0  0  0  0  0  0  0  0  0
  -25.3384  -18.5826   20.5018 O   0  0  0  0  0  0  0  0  0  0  0  0
  -21.9321   -8.0026   23.5532 O   0  0  0  0  0  0  0  0  0  0  0  0
  -28.0451  -28.4530   21.8427 O   0  0  0  0  0  0  0  0  0  1  0  0
  -21.3198   -2.6057   22.6029 F   0  0  0  0  0  0  0  0  0  0  0  0
  -22.6814   -6.1348   25.4485 F   0  0  0  0  0  0  0  0  0  0  0  0
  1  2  1  0  0  0  0
  1  5  2  0  0  0  0
  2  6  2  0  0  0  0
  3  8  2  0  0  0  0
  3 17  1  0  0  0  0
  4  9  1  0  0  0  0
  4 17  2  0  0  0  0
  5 20  1  0  0  0  0
  6 22  1  0  0  0  0
  7 10  2  0  0  0  0
  7 21  1  0  0  0  0
  8 24  1  0  0  0  0
  9 24  2  0  0  0  0
 10 25  1  0  0  0  0
 11 12  2  0  0  0  0
 11 26  1  0  0  0  0
 12 27  1  0  0  0  0
 13 18  1  0  0  0  0
 13 31  2  0  0  0  0
 14 23  1  0  0  0  0
 14 25  2  0  0  0  0
 15 27  2  0  0  0  0
 15 28  1  0  0  0  0
 16 18  2  0  0  0  0
 16 83  1  0  0  0  0
 17 29  1  0  0  0  0
 18 32  1  0  0  0  0
 19 29  1  0  0  0  0
 19 30  2  0  0  0  0
 19 33  1  0  0  0  0
 20 22  2  0  0  0  0
 20 38  1  0  0  0  0
 21 23  2  0  0  0  0
 21 39  1  0  0  0  0
 22 47  1  0  0  0  0
 23 40  1  0  0  0  0
 24 84  1  0  0  0  0
 25 85  1  0  0  0  0
 26 28  2  0  0  0  0
 26 84  1  0  0  0  0
 27 86  1  0  0  0  0
 28 87  1  0  0  0  0
 29 67  2  0  0  0  0
 30 68  1  0  0  0  0
 30 71  1  0  0  0  0
 31 73  1  0  0  0  0
 31 83  1  0  0  0  0
 32 59  1  0  0  0  0
 32 77  2  0  0  0  0
 33 72  1  0  0  0  0
 33 78  2  0  0  0  0
 34 48  1  0  0  0  0
 34 74  1  0  0  0  0
 34 79  2  0  0  0  0
 35 62  1  0  0  0  0
 35 69  1  0  0  0  0
 35 80  2  0  0  0  0
 36 63  1  0  0  0  0
 36 75  1  0  0  0  0
 36 81  2  0  0  0  0
 37 70  1  0  0  0  0
 37 73  1  0  0  0  0
 37 82  2  0  0  0  0
 38 41  1  0  0  0  0
 39 48  1  0  0  0  0
 40 69  1  0  0  0  0
 41 43  1  0  0  0  0
 42 44  1  0  0  0  0
 42 45  1  0  0  0  0
 43 47  1  0  0  0  0
 44 49  1  0  0  0  0
 45 70  1  0  0  0  0
 46 49  1  0  0  0  0
 46 70  1  0  0  0  0
 47 74  1  0  0  0  0
 48 69  1  0  0  0  0
 49 68  1  0  0  0  0
 50 63  1  0  0  0  0
 51 64  1  0  0  0  0
 52 64  1  0  0  0  0
 53 64  1  0  0  0  0
 54 65  1  0  0  0  0
 55 65  1  0  0  0  0
 56 66  1  0  0  0  0
 57 66  1  0  0  0  0
 58 76  1  0  0  0  0
 59 60  1  0  0  0  0
 60 65  1  0  0  0  0
 61 66  1  0  0  0  0
 61 85  1  0  0  0  0
 62 64  1  0  0  0  0
 62 75  1  0  0  0  0
 63 76  1  0  0  0  0
 65 66  1  0  0  0  0
 67 68  1  0  0  0  0
M  CHG  1  76   1
M  ISO  4  37 100  61 101  73 100  85 101
M  END
> <Batch ID>
0143

> <Smiles>
CNC(C)C(=O)NC(C(=O)N1Cc2cc([101O:1][101CH2:1]C(C)(C)C(C)(C)CCC(=O)c3coc([100NH:0][100C:0](=O)N4CCCC(n5nc(-c6ccc(Oc7ccc(F)cc7F)cc6)c(C(N)=O)c5N)C4)c3)ccc2CC1C(=O)NC1CCCc2ccccc21)C(C)(C)C

> <Shape>
0.310

> <Color>
0.102

> <Negative vol penalty>
0.000

$$$$

  -OEChem-04052303003D

 86 95  0     1  0  0  0  0  0999 V2000
  -19.3450  -35.1952   20.4212 C   0  0  0  0  0  0  0  0  0  0  0  0
  -19.7932  -34.1594   19.6079 C   0  0  0  0  0  0  0  0  0  0  0  0
  -24.6329   -9.6813   21.5473 C   0  0  0  0  0  0  0  0  0  0  0  0
  -24.7678  -10.8209   23.6734 C   0  0  0  0  0  0  0  0  0  0  0  0
  -20.1947  -35.7443   21.3807 C   0  0  0  0  0  0  0  0  0  0  0  0
  -21.0919  -33.6727   19.7528 C   0  0  0  0  0  0  0  0  0  0  0  0
  -24.8777  -27.6160   19.2047 C   0  0  0  0  0  0  0  0  0  0  0  0
  -24.3461   -8.4859   22.2062 C   0  0  0  0  0  0  0  0  0  0  0  0
  -24.4809   -9.6254   24.3323 C   0  0  0  0  0  0  0  0  0  0  0  0
  -26.0242  -27.1144   18.5902 C   0  0  0  0  0  0  0  0  0  0  0  0
  -21.6681   -7.0272   23.6670 C   0  0  0  0  0  0  0  0  0  0  0  0
  -20.6314   -6.2419   23.1630 C   0  0  0  0  0  0  0  0  0  0  0  0
  -27.3772  -28.0864   20.3348 C   0  0  0  0  0  0  0  0  0  0  0  0
  -29.0990  -20.5081   20.5095 C   0  0  0  0  0  0  0  0  0  0  0  0
  -22.1821   -4.4237   22.8065 C   0  0  0  0  0  0  0  0  0  0  0  0
  -24.8439  -10.8488   22.2809 C   0  0  0  0  0  0  0  0  0  0  0  0
  -24.2197  -13.0456   21.1440 C   0  0  0  0  0  0  0  0  0  0  0  0
  -21.5012  -35.2576   21.5439 C   0  0  0  0  0  0  0  0  0  0  0  0
  -24.9734  -28.3671   20.3850 C   0  0  0  0  0  0  0  0  0  0  0  0
  -21.9603  -34.2167   20.7144 C   0  0  0  0  0  0  0  0  0  0  0  0
  -26.2302  -28.5942   20.9637 C   0  0  0  0  0  0  0  0  0  0  0  0
  -28.5423  -21.8172   20.5896 C   0  0  0  0  0  0  0  0  0  0  0  0
  -24.2700   -8.4579   23.5987 C   0  0  0  0  0  0  0  0  0  0  0  0
  -27.2745  -27.3520   19.1537 C   0  0  0  0  0  0  0  0  0  0  0  0
  -22.9619   -6.5109   23.7406 C   0  0  0  0  0  0  0  0  0  0  0  0
  -20.8884   -4.9401   22.7328 C   0  0  0  0  0  0  0  0  0  0  0  0
  -23.2188   -5.2091   23.3104 C   0  0  0  0  0  0  0  0  0  0  0  0
  -25.1408  -12.0839   21.6008 C   0  0  0  0  0  0  0  0  0  0  0  0
  -27.2367  -21.7984   21.0284 C   0  0  0  0  0  0  0  0  0  0  0  0
  -24.9981  -14.0221   20.5722 C   0  0  0  0  0  0  0  0  0  0  0  0
  -28.1975  -19.5384   20.8905 C   0  0  0  0  0  0  0  0  0  0  0  0
  -22.7885  -13.0553   21.2291 C   0  0  0  0  0  0  0  0  0  0  0  0
  -24.2284  -31.3433   21.2165 C   0  0  0  0  0  0  0  0  0  0  0  0
  -25.0627  -30.3105   24.1762 C   0  0  0  0  0  0  0  0  0  0  0  0
  -26.8336  -28.1013   26.0814 C   0  0  0  0  0  0  0  0  0  0  0  0
  -29.4494  -17.3663   20.6431 C   0  0  0  0  0  0  0  0  0  0  0  0
  -22.3987  -35.9147   22.5625 C   0  0  0  0  0  0  0  0  0  0  0  0
  -23.7249  -28.8785   21.0500 C   0  0  0  0  0  0  0  0  0  0  0  0
  -26.3853  -29.3774   22.2409 C   0  0  0  0  0  0  0  0  0  0  0  0
  -23.6364  -35.0898   22.9061 C   0  0  0  0  0  0  0  0  0  0  0  0
  -29.9284  -14.0545   19.4268 C   0  0  0  0  0  0  0  0  0  0  0  0
  -24.2999  -34.5684   21.6354 C   0  0  0  0  0  0  0  0  0  0  0  0
  -28.6498  -13.3257   19.8464 C   0  0  0  0  0  0  0  0  0  0  0  0
  -30.9257  -24.6049   20.1964 C   0  0  0  0  0  0  0  0  0  0  0  0
  -30.3761  -15.0664   20.4800 C   0  0  0  0  0  0  0  0  0  0  0  0
  -30.6800  -23.1113   20.4079 C   0  0  0  0  0  0  0  0  0  0  0  0
  -28.0689  -15.3015   21.3112 C   0  0  0  0  0  0  0  0  0  0  0  0
  -28.6060  -24.1873   19.7631 C   0  0  0  0  0  0  0  0  0  0  0  0
  -23.3541  -33.6450   20.8581 C   0  0  1  0  0  0  0  0  0  0  0  0
  -23.9825  -30.0673   21.9709 C   0  0  1  0  0  0  0  0  0  0  0  0
  -27.5429  -14.3183   20.2528 C   0  0  2  0  0  0  0  0  0  0  0  0
  -29.7867  -25.0464   19.2658 C   0  0  2  0  0  0  0  0  0  0  0  0
  -30.1175  -24.7250   17.7985 C   0  0  0  0  0  0  0  0  0  0  0  0
  -26.6024  -23.6940   22.5419 C   0  0  0  0  0  0  0  0  0  0  0  0
  -27.3474  -27.5305   28.4705 C   0  0  0  0  0  0  0  0  0  0  0  0
  -30.6997  -27.3842   19.0089 C   0  0  0  0  0  0  0  0  0  0  0  0
  -26.9692  -32.6877   24.3316 C   0  0  0  0  0  0  0  0  0  0  0  0
  -28.1082  -31.5595   26.2547 C   0  0  0  0  0  0  0  0  0  0  0  0
  -25.7101  -32.2206   26.4413 C   0  0  0  0  0  0  0  0  0  0  0  0
  -25.6466  -25.4035   25.8135 C   0  0  0  0  0  0  0  0  0  0  0  0
  -26.3099  -22.9329   21.2467 C   0  0  0  0  0  0  0  0  0  0  0  0
  -26.3458  -30.2650   24.9703 C   0  0  1  0  0  0  0  0  0  0  0  0
  -26.4361  -27.2627   27.2828 C   0  0  2  0  0  0  0  0  0  0  0  0
  -29.4964  -26.5419   19.4041 C   0  0  1  0  0  0  0  0  0  1  0  0
  -26.7809  -31.6701   25.4743 C   0  0  0  0  0  0  0  0  0  0  0  0
  -26.4074  -12.4191   21.3414 N   0  0  0  0  0  0  0  0  0  0  0  0
  -26.2878  -13.6022   20.7154 N   0  0  0  0  0  0  0  0  0  0  0  0
  -29.2347  -22.9647   20.2637 N   0  0  3  0  0  0  0  0  0  0  0  0
  -25.1355  -29.8619   22.8498 N   0  0  0  0  0  0  0  0  0  0  0  0
  -29.2775  -15.9761   20.8122 N   0  0  0  0  0  0  0  0  0  0  0  0
  -24.6982  -15.1904   19.9659 N   0  0  0  0  0  0  0  0  0  0  0  0
  -22.1486  -11.9732   21.8488 N   0  0  0  0  0  0  0  0  0  0  0  0
  -28.3258  -18.1290   20.9601 N   0  0  0  0  0  0  0  0  0  0  0  0
  -23.3040  -32.3371   21.4757 N   0  0  0  0  0  0  0  0  0  0  0  0
  -26.1337  -29.2883   26.0330 N   0  0  0  0  0  0  0  0  0  0  0  0
  -26.5120  -25.8121   26.9498 N   0  3  0  0  0  0  0  0  0  0  0  0
  -22.0966  -13.9879   20.7546 O   0  0  0  0  0  0  0  0  0  0  0  0
  -25.1868  -31.4209   20.4567 O   0  0  0  0  0  0  0  0  0  0  0  0
  -24.0322  -30.7220   24.7150 O   0  0  0  0  0  0  0  0  0  0  0  0
  -27.6830  -27.7411   25.2694 O   0  0  0  0  0  0  0  0  0  0  0  0
  -30.5059  -17.8429   20.2203 O   0  0  0  0  0  0  0  0  0  0  0  0
  -23.9899   -7.2916   24.2420 O   0  0  0  0  0  0  0  0  0  0  0  0
  -28.3952  -26.8640   18.5556 O   0  0  0  0  0  0  0  0  0  1  0  0
  -19.8924   -4.1855   22.2502 F   0  0  0  0  0  0  0  0  0  0  0  0
  -24.4594   -4.7072   23.3799 F   0  0  0  0  0  0  0  0  0  0  0  0
  -26.6872  -20.2071   21.3419 S   0  0  0  0  0  0  0  0  0  0  0  0
  1  2  1  0  0  0  0
  1  5  2  0  0  0  0
  2  6  2  0  0  0  0
  3  8  2  0  0  0  0
  3 16  1  0  0  0  0
  4  9  1  0  0  0  0
  4 16  2  0  0  0  0
  5 18  1  0  0  0  0
  6 20  1  0  0  0  0
  7 10  2  0  0  0  0
  7 19  1  0  0  0  0
  8 23  1  0  0  0  0
  9 23  2  0  0  0  0
 10 24  1  0  0  0  0
 11 12  2  0  0  0  0
 11 25  1  0  0  0  0
 12 26  1  0  0  0  0
 13 21  1  0  0  0  0
 13 24  2  0  0  0  0
 14 22  1  0  0  0  0
 14 31  2  0  0  0  0
 15 26  2  0  0  0  0
 15 27  1  0  0  0  0
 16 28  1  0  0  0  0
 17 28  1  0  0  0  0
 17 30  2  0  0  0  0
 17 32  1  0  0  0  0
 18 20  2  0  0  0  0
 18 37  1  0  0  0  0
 19 21  2  0  0  0  0
 19 38  1  0  0  0  0
 20 49  1  0  0  0  0
 21 39  1  0  0  0  0
 22 29  2  0  0  0  0
 22 68  1  0  0  0  0
 23 82  1  0  0  0  0
 24 83  1  0  0  0  0
 25 27  2  0  0  0  0
 25 82  1  0  0  0  0
 26 84  1  0  0  0  0
 27 85  1  0  0  0  0
 28 66  2  0  0  0  0
 29 61  1  0  0  0  0
 29 86  1  0  0  0  0
 30 67  1  0  0  0  0
 30 71  1  0  0  0  0
 31 73  1  0  0  0  0
 31 86  1  0  0  0  0
 32 72  1  0  0  0  0
 32 77  2  0  0  0  0
 33 50  1  0  0  0  0
 33 74  1  0  0  0  0
 33 78  2  0  0  0  0
 34 62  1  0  0  0  0
 34 69  1  0  0  0  0
 34 79  2  0  0  0  0
 35 63  1  0  0  0  0
 35 75  1  0  0  0  0
 35 80  2  0  0  0  0
 36 70  1  0  0  0  0
 36 73  1  0  0  0  0
 36 81  2  0  0  0  0
 37 40  1  0  0  0  0
 38 50  1  0  0  0  0
 39 69  1  0  0  0  0
 40 42  1  0  0  0  0
 41 43  1  0  0  0  0
 41 45  1  0  0  0  0
 42 49  1  0  0  0  0
 43 51  1  0  0  0  0
 44 46  1  0  0  0  0
 44 52  1  0  0  0  0
 45 70  1  0  0  0  0
 46 68  1  0  0  0  0
 47 51  1  0  0  0  0
 47 70  1  0  0  0  0
 48 52  1  0  0  0  0
 48 68  1  0  0  0  0
 49 74  1  0  0  0  0
 50 69  1  0  0  0  0
 51 67  1  0  0  0  0
 52 53  1  0  0  0  0
 52 64  1  0  0  0  0
 54 61  1  0  0  0  0
 55 63  1  0  0  0  0
 56 64  1  0  0  0  0
 57 65  1  0  0  0  0
 58 65  1  0  0  0  0
 59 65  1  0  0  0  0
 60 76  1  0  0  0  0
 62 65  1  0  0  0  0
 62 75  1  0  0  0  0
 63 76  1  0  0  0  0
 64 83  1  0  0  0  0
 66 67  1  0  0  0  0
M  CHG  1  76   1
M  ISO  4  36 100  64 101  73 100  83 101
M  END
> <Batch ID>
0143

> <Smiles>
CCc1sc([100NH:0][100C:0](=O)N2CCCC(n3nc(-c4ccc(Oc5ccc(F)cc5F)cc4)c(C(N)=O)c3N)C2)cc1N1CCC(C)([101CH:1](C)[101O:1]c2ccc3c(c2)CN(C(=O)C(NC(=O)C(C)NC)C(C)(C)C)C(C(=O)NC2CCCc4ccccc42)C3)C1

> <Shape>
0.335

> <Color>
0.129

> <Negative vol penalty>
0.000

$$$$

  -OEChem-04052303003D

 91100  0     1  0  0  0  0  0999 V2000
  -15.6138  -30.9013   24.3572 C   0  0  0  0  0  0  0  0  0  0  0  0
  -16.5544  -30.3802   23.4745 C   0  0  0  0  0  0  0  0  0  0  0  0
  -26.3652  -12.6273   21.4082 C   0  0  0  0  0  0  0  0  0  0  0  0
  -26.1451  -13.1996   19.0713 C   0  0  0  0  0  0  0  0  0  0  0  0
  -25.5376  -21.6317   16.8774 C   0  0  0  0  0  0  0  0  0  0  0  0
  -16.0101  -31.8033   25.3438 C   0  0  0  0  0  0  0  0  0  0  0  0
  -17.8917  -30.7617   23.5772 C   0  0  0  0  0  0  0  0  0  0  0  0
  -21.0662  -26.8332   23.2118 C   0  0  0  0  0  0  0  0  0  0  0  0
  -26.2595  -20.6963   17.6186 C   0  0  0  0  0  0  0  0  0  0  0  0
  -25.1131  -12.0136   21.3759 C   0  0  0  0  0  0  0  0  0  0  0  0
  -24.8930  -12.5858   19.0390 C   0  0  0  0  0  0  0  0  0  0  0  0
  -21.3148  -26.3320   21.9348 C   0  0  0  0  0  0  0  0  0  0  0  0
  -23.8026   -9.0816   20.3181 C   0  0  0  0  0  0  0  0  0  0  0  0
  -23.6773   -7.8321   20.9252 C   0  0  0  0  0  0  0  0  0  0  0  0
  -23.3980  -27.5465   21.8702 C   0  0  0  0  0  0  0  0  0  0  0  0
  -27.6644  -22.4631   18.4799 C   0  0  0  0  0  0  0  0  0  0  0  0
  -22.0066   -8.7277   22.4233 C   0  0  0  0  0  0  0  0  0  0  0  0
  -26.8813  -13.2204   20.2560 C   0  0  0  0  0  0  0  0  0  0  0  0
  -25.8791  -22.9828   16.9373 C   0  0  0  0  0  0  0  0  0  0  0  0
  -29.4215  -13.2576   20.0249 C   0  0  0  0  0  0  0  0  0  0  0  0
  -17.3545  -32.1886   25.4647 C   0  0  0  0  0  0  0  0  0  0  0  0
  -21.9781  -27.7049   23.8242 C   0  0  0  0  0  0  0  0  0  0  0  0
  -18.3061  -31.6708   24.5655 C   0  0  0  0  0  0  0  0  0  0  0  0
  -23.1600  -28.0553   23.1561 C   0  0  0  0  0  0  0  0  0  0  0  0
  -27.3229  -21.1120   18.4199 C   0  0  0  0  0  0  0  0  0  0  0  0
  -24.3770  -11.9928   20.1913 C   0  0  0  0  0  0  0  0  0  0  0  0
  -22.4794  -26.6909   21.2626 C   0  0  0  0  0  0  0  0  0  0  0  0
  -23.0301  -10.1542   20.7636 C   0  0  0  0  0  0  0  0  0  0  0  0
  -26.9424  -23.3985   17.7386 C   0  0  0  0  0  0  0  0  0  0  0  0
  -22.7793   -7.6551   21.9778 C   0  0  0  0  0  0  0  0  0  0  0  0
  -22.1321   -9.9772   21.8162 C   0  0  0  0  0  0  0  0  0  0  0  0
  -28.1744  -13.8550   20.2889 C   0  0  0  0  0  0  0  0  0  0  0  0
  -30.3306  -14.2743   20.1874 C   0  0  0  0  0  0  0  0  0  0  0  0
  -25.1062  -23.9583   16.1478 C   0  0  0  0  0  0  0  0  0  0  0  0
  -29.7306  -11.9046   19.6650 C   0  0  0  0  0  0  0  0  0  0  0  0
  -21.8609  -30.7073   24.8612 C   0  0  0  0  0  0  0  0  0  0  0  0
  -24.8305  -30.0273   25.9754 C   0  0  0  0  0  0  0  0  0  0  0  0
  -27.6499  -28.1198   25.7317 C   0  0  0  0  0  0  0  0  0  0  0  0
  -29.1413  -20.3966   20.0204 C   0  0  0  0  0  0  0  0  0  0  0  0
  -17.7271  -33.2028   26.5170 C   0  0  0  0  0  0  0  0  0  0  0  0
  -21.7081  -28.2156   25.2130 C   0  0  0  0  0  0  0  0  0  0  0  0
  -24.1806  -28.9718   23.7779 C   0  0  0  0  0  0  0  0  0  0  0  0
  -19.2265  -33.2679   26.7963 C   0  0  0  0  0  0  0  0  0  0  0  0
  -30.6520  -18.3879   22.7299 C   0  0  0  0  0  0  0  0  0  0  0  0
  -20.0117  -33.3088   25.4892 C   0  0  0  0  0  0  0  0  0  0  0  0
  -30.5313  -16.9273   22.2924 C   0  0  0  0  0  0  0  0  0  0  0  0
  -22.3568  -26.0915   17.1061 C   0  0  0  0  0  0  0  0  0  0  0  0
  -30.7868  -19.3484   21.5563 C   0  0  0  0  0  0  0  0  0  0  0  0
  -23.2076  -25.5155   15.9800 C   0  0  0  0  0  0  0  0  0  0  0  0
  -23.5730  -24.2524   18.0515 C   0  0  0  0  0  0  0  0  0  0  0  0
  -29.1446  -17.8693   20.3788 C   0  0  0  0  0  0  0  0  0  0  0  0
  -19.7702  -32.0413   24.6606 C   0  0  1  0  0  0  0  0  0  0  0  0
  -22.4600  -29.5039   25.5326 C   0  0  1  0  0  0  0  0  0  0  0  0
  -22.1914  -24.9113   18.0669 C   0  0  1  0  0  0  0  0  0  0  0  0
  -30.1254  -16.7706   20.8174 C   0  0  2  0  0  0  0  0  0  0  0  0
  -29.9224  -27.8237   26.7543 C   0  0  0  0  0  0  0  0  0  0  0  0
  -27.6220  -27.4522   20.4113 C   0  0  0  0  0  0  0  0  0  0  0  0
  -26.7647  -27.5676   18.0587 C   0  0  0  0  0  0  0  0  0  0  0  0
  -29.1361  -26.8864   18.5008 C   0  0  0  0  0  0  0  0  0  0  0  0
  -25.8180  -32.5044   24.4925 C   0  0  0  0  0  0  0  0  0  0  0  0
  -28.1538  -31.6395   24.7461 C   0  0  0  0  0  0  0  0  0  0  0  0
  -26.8029  -32.1900   26.7696 C   0  0  0  0  0  0  0  0  0  0  0  0
  -27.0366  -25.3504   26.5762 C   0  0  0  0  0  0  0  0  0  0  0  0
  -21.7448  -25.3295   19.4562 C   0  0  0  0  0  0  0  0  0  1  0  0
  -27.2325  -25.3328   19.0914 C   0  0  0  0  0  0  0  0  0  0  0  0
  -26.2304  -30.1303   25.4198 C   0  0  1  0  0  0  0  0  0  0  0  0
  -28.4654  -27.3887   26.7829 C   0  0  2  0  0  0  0  0  0  0  0  0
  -27.6902  -26.8033   19.0185 C   0  0  0  0  0  0  0  0  0  0  0  0
  -26.7313  -31.6003   25.3442 C   0  0  0  0  0  0  0  0  0  0  0  0
  -28.2781  -15.1507   20.5959 N   0  0  0  0  0  0  0  0  0  0  0  0
  -29.6011  -15.3759   20.5260 N   0  0  0  0  0  0  0  0  0  0  0  0
  -24.0441  -24.5309   16.6842 N   0  0  0  0  0  0  0  0  0  0  0  0
  -23.8682  -29.4500   25.1349 N   0  0  0  0  0  0  0  0  0  0  0  0
  -29.6570  -19.2272   20.6304 N   0  0  0  0  0  0  0  0  0  0  0  0
  -31.6747  -14.3245   20.0724 N   0  0  0  0  0  0  0  0  0  0  0  0
  -28.6768  -10.9889   19.5407 N   0  0  0  0  0  0  0  0  0  0  0  0
  -28.0562  -20.1611   19.1723 N   0  0  0  0  0  0  0  0  0  0  0  0
  -20.5389  -30.9362   25.1919 N   0  0  0  0  0  0  0  0  0  0  0  0
  -27.0612  -29.2575   26.2421 N   0  0  0  0  0  0  0  0  0  0  0  0
  -25.4916  -24.2478   14.9085 N   0  3  0  0  0  0  0  0  0  0  0  0
  -28.4095  -25.9176   26.5511 N   0  3  0  0  0  0  0  0  0  0  0  0
  -30.9079  -11.5151   19.4756 O   0  0  0  0  0  0  0  0  0  0  0  0
  -22.5477  -31.3793   24.1007 O   0  0  0  0  0  0  0  0  0  0  0  0
  -24.6009  -30.4372   27.1160 O   0  0  0  0  0  0  0  0  0  0  0  0
  -27.5486  -27.7235   24.5728 O   0  0  0  0  0  0  0  0  0  0  0  0
  -29.6183  -21.5104   20.2488 O   0  0  0  0  0  0  0  0  0  0  0  0
  -23.1552  -11.3939   20.1593 O   0  0  0  0  0  0  0  0  0  0  0  0
  -22.7241  -26.2037   20.0157 O   0  0  0  0  0  0  0  0  0  1  0  0
  -27.2899  -24.7143   17.8077 O   0  0  0  0  0  0  0  0  0  0  0  0
  -22.6578   -6.4548   22.5597 F   0  0  0  0  0  0  0  0  0  0  0  0
  -21.3863  -11.0036   22.2477 F   0  0  0  0  0  0  0  0  0  0  0  0
  1  2  1  0  0  0  0
  1  6  2  0  0  0  0
  2  7  2  0  0  0  0
  3 10  2  0  0  0  0
  3 18  1  0  0  0  0
  4 11  1  0  0  0  0
  4 18  2  0  0  0  0
  5  9  2  0  0  0  0
  5 19  1  0  0  0  0
  6 21  1  0  0  0  0
  7 23  1  0  0  0  0
  8 12  2  0  0  0  0
  8 22  1  0  0  0  0
  9 25  1  0  0  0  0
 10 26  1  0  0  0  0
 11 26  2  0  0  0  0
 12 27  1  0  0  0  0
 13 14  2  0  0  0  0
 13 28  1  0  0  0  0
 14 30  1  0  0  0  0
 15 24  1  0  0  0  0
 15 27  2  0  0  0  0
 16 25  2  0  0  0  0
 16 29  1  0  0  0  0
 17 30  2  0  0  0  0
 17 31  1  0  0  0  0
 18 32  1  0  0  0  0
 19 29  2  0  0  0  0
 19 34  1  0  0  0  0
 20 32  1  0  0  0  0
 20 33  2  0  0  0  0
 20 35  1  0  0  0  0
 21 23  2  0  0  0  0
 21 40  1  0  0  0  0
 22 24  2  0  0  0  0
 22 41  1  0  0  0  0
 23 52  1  0  0  0  0
 24 42  1  0  0  0  0
 25 77  1  0  0  0  0
 26 87  1  0  0  0  0
 27 88  1  0  0  0  0
 28 31  2  0  0  0  0
 28 87  1  0  0  0  0
 29 89  1  0  0  0  0
 30 90  1  0  0  0  0
 31 91  1  0  0  0  0
 32 70  2  0  0  0  0
 33 71  1  0  0  0  0
 33 75  1  0  0  0  0
 34 72  1  0  0  0  0
 34 80  2  0  0  0  0
 35 76  1  0  0  0  0
 35 82  2  0  0  0  0
 36 53  1  0  0  0  0
 36 78  1  0  0  0  0
 36 83  2  0  0  0  0
 37 66  1  0  0  0  0
 37 73  1  0  0  0  0
 37 84  2  0  0  0  0
 38 67  1  0  0  0  0
 38 79  1  0  0  0  0
 38 85  2  0  0  0  0
 39 74  1  0  0  0  0
 39 77  1  0  0  0  0
 39 86  2  0  0  0  0
 40 43  1  0  0  0  0
 41 53  1  0  0  0  0
 42 73  1  0  0  0  0
 43 45  1  0  0  0  0
 44 46  1  0  0  0  0
 44 48  1  0  0  0  0
 45 52  1  0  0  0  0
 46 55  1  0  0  0  0
 47 49  1  0  0  0  0
 47 54  1  0  0  0  0
 48 74  1  0  0  0  0
 49 72  1  0  0  0  0
 50 54  1  0  0  0  0
 50 72  1  0  0  0  0
 51 55  1  0  0  0  0
 51 74  1  0  0  0  0
 52 78  1  0  0  0  0
 53 73  1  0  0  0  0
 54 64  1  0  0  0  0
 55 71  1  0  0  0  0
 56 67  1  0  0  0  0
 57 68  1  0  0  0  0
 58 68  1  0  0  0  0
 59 68  1  0  0  0  0
 60 69  1  0  0  0  0
 61 69  1  0  0  0  0
 62 69  1  0  0  0  0
 63 81  1  0  0  0  0
 64 88  1  0  0  0  0
 65 68  1  0  0  0  0
 65 89  1  0  0  0  0
 66 69  1  0  0  0  0
 66 79  1  0  0  0  0
 67 81  1  0  0  0  0
 70 71  1  0  0  0  0
M  CHG  2  80   1  81   1
M  ISO  4  39 100  64 101  77 100  88 101
M  END
> <Batch ID>
0143

> <Smiles>
CNC(C)C(=O)NC(C(=O)N1Cc2cc([101O:1][101CH2:1]C3CCN(C(=N)c4ccc([100NH:0][100C:0](=O)N5CCCC(n6nc(-c7ccc(Oc8ccc(F)cc8F)cc7)c(C(N)=O)c6N)C5)cc4OCC(C)(C)C)C3)ccc2CC1C(=O)NC1CCCc2ccccc21)C(C)(C)C

> <Shape>
0.273

> <Color>
0.065

> <Negative vol penalty>
0.000

$$$$

  -OEChem-04052303003D

 88 97  0     1  0  0  0  0  0999 V2000
  -27.6529  -37.2249   24.2163 C   0  0  0  0  0  0  0  0  0  0  0  0
  -28.2592  -36.2288   23.4576 C   0  0  0  0  0  0  0  0  0  0  0  0
  -32.5541  -18.7117   21.2581 C   0  0  0  0  0  0  0  0  0  0  0  0
  -23.5292  -11.3610   23.6226 C   0  0  0  0  0  0  0  0  0  0  0  0
  -24.5870  -13.4119   24.3382 C   0  0  0  0  0  0  0  0  0  0  0  0
  -31.7417  -19.7864   21.6194 C   0  0  0  0  0  0  0  0  0  0  0  0
  -26.5898  -36.9069   25.0605 C   0  0  0  0  0  0  0  0  0  0  0  0
  -27.8033  -34.9138   23.5434 C   0  0  0  0  0  0  0  0  0  0  0  0
  -27.0066  -29.0104   19.5645 C   0  0  0  0  0  0  0  0  0  0  0  0
  -31.9787  -17.5165   20.8268 C   0  0  0  0  0  0  0  0  0  0  0  0
  -23.0215  -11.1743   24.9083 C   0  0  0  0  0  0  0  0  0  0  0  0
  -24.0793  -13.2252   25.6239 C   0  0  0  0  0  0  0  0  0  0  0  0
  -27.3207  -27.6521   19.5778 C   0  0  0  0  0  0  0  0  0  0  0  0
  -20.4678  -12.3677   26.7756 C   0  0  0  0  0  0  0  0  0  0  0  0
  -19.1309  -11.9883   26.8959 C   0  0  0  0  0  0  0  0  0  0  0  0
  -29.7784  -18.4706   21.1183 C   0  0  0  0  0  0  0  0  0  0  0  0
  -25.4254  -27.2339   21.0102 C   0  0  0  0  0  0  0  0  0  0  0  0
  -19.8072   -9.9656   28.0310 C   0  0  0  0  0  0  0  0  0  0  0  0
  -24.3120  -12.4798   23.3375 C   0  0  0  0  0  0  0  0  0  0  0  0
  -30.3538  -19.6658   21.5495 C   0  0  0  0  0  0  0  0  0  0  0  0
  -24.1028  -12.8075   20.8163 C   0  0  0  0  0  0  0  0  0  0  0  0
  -26.1144  -35.5891   25.1494 C   0  0  0  0  0  0  0  0  0  0  0  0
  -25.9040  -29.4930   20.2841 C   0  0  0  0  0  0  0  0  0  0  0  0
  -26.7337  -34.5777   24.3905 C   0  0  0  0  0  0  0  0  0  0  0  0
  -25.0979  -28.5984   21.0024 C   0  0  0  0  0  0  0  0  0  0  0  0
  -30.5909  -17.3959   20.7569 C   0  0  0  0  0  0  0  0  0  0  0  0
  -23.2965  -12.1064   25.9089 C   0  0  0  0  0  0  0  0  0  0  0  0
  -26.5318  -26.7641   20.3030 C   0  0  0  0  0  0  0  0  0  0  0  0
  -21.4744  -11.5461   27.2830 C   0  0  0  0  0  0  0  0  0  0  0  0
  -18.8006  -10.7872   27.5236 C   0  0  0  0  0  0  0  0  0  0  0  0
  -21.1441  -10.3450   27.9107 C   0  0  0  0  0  0  0  0  0  0  0  0
  -24.8372  -12.6730   22.0098 C   0  0  0  0  0  0  0  0  0  0  0  0
  -25.0574  -12.9679   19.8419 C   0  0  0  0  0  0  0  0  0  0  0  0
  -29.4979  -20.8004   21.9310 C   0  0  0  0  0  0  0  0  0  0  0  0
  -22.6845  -12.7893   20.6072 C   0  0  0  0  0  0  0  0  0  0  0  0
  -25.5149  -31.5307   22.6925 C   0  0  0  0  0  0  0  0  0  0  0  0
  -22.3663  -31.0499   22.0780 C   0  0  0  0  0  0  0  0  0  0  0  0
  -19.9440  -29.0282   20.7770 C   0  0  0  0  0  0  0  0  0  0  0  0
  -30.6688  -15.0200   19.9231 C   0  0  0  0  0  0  0  0  0  0  0  0
  -24.9933  -35.2852   26.1114 C   0  0  0  0  0  0  0  0  0  0  0  0
  -25.5629  -30.9572   20.2379 C   0  0  0  0  0  0  0  0  0  0  0  0
  -23.8914  -29.0630   21.7751 C   0  0  0  0  0  0  0  0  0  0  0  0
  -24.3266  -33.9346   25.8628 C   0  0  0  0  0  0  0  0  0  0  0  0
  -29.5900  -11.8132   18.8140 C   0  0  0  0  0  0  0  0  0  0  0  0
  -25.3790  -32.8485   25.6635 C   0  0  0  0  0  0  0  0  0  0  0  0
  -28.1796  -11.6846   19.3940 C   0  0  0  0  0  0  0  0  0  0  0  0
  -29.2996  -22.9655   18.9237 C   0  0  0  0  0  0  0  0  0  0  0  0
  -30.5318  -12.5435   19.7698 C   0  0  0  0  0  0  0  0  0  0  0  0
  -29.5711  -21.5997   19.5333 C   0  0  0  0  0  0  0  0  0  0  0  0
  -28.6391  -13.7196   20.8203 C   0  0  0  0  0  0  0  0  0  0  0  0
  -26.2515  -33.1440   24.4376 C   0  0  1  0  0  0  0  0  0  0  0  0
  -24.7181  -31.4116   21.4241 C   0  0  1  0  0  0  0  0  0  0  0  0
  -27.6379  -13.0481   19.8662 C   0  0  2  0  0  0  0  0  0  0  0  0
  -28.0869  -23.4870   19.7208 C   0  0  2  0  0  0  0  0  0  0  0  0
  -28.4152  -22.9797   21.1806 C   0  0  0  0  0  0  0  0  0  0  0  0
  -26.7979  -22.8606   19.1369 C   0  0  0  0  0  0  0  0  0  0  0  0
  -27.1445  -22.7688   22.0239 C   0  0  0  0  0  0  0  0  0  0  0  0
  -29.3490  -23.9416   21.9486 C   0  0  0  0  0  0  0  0  0  0  0  0
  -17.4593  -28.8868   20.4557 C   0  0  0  0  0  0  0  0  0  0  0  0
  -22.0279  -30.3394   25.0260 C   0  0  0  0  0  0  0  0  0  0  0  0
  -19.8167  -29.3144   24.4534 C   0  0  0  0  0  0  0  0  0  0  0  0
  -20.1950  -31.7510   24.0762 C   0  0  0  0  0  0  0  0  0  0  0  0
  -20.2130  -28.9461   17.8309 C   0  0  0  0  0  0  0  0  0  0  0  0
  -27.9670  -25.0112   19.5796 C   0  0  0  0  0  0  0  0  0  1  0  0
  -21.3206  -30.0722   22.5574 C   0  0  1  0  0  0  0  0  0  0  0  0
  -18.7826  -29.3199   19.8441 C   0  0  2  0  0  0  0  0  0  0  0  0
  -20.8639  -30.3604   24.0154 C   0  0  0  0  0  0  0  0  0  0  0  0
  -26.1566  -12.7417   21.8138 N   0  0  0  0  0  0  0  0  0  0  0  0
  -26.2588  -12.9211   20.4859 N   0  0  0  0  0  0  0  0  0  0  0  0
  -29.1471  -21.7059   20.9308 N   0  0  0  0  0  0  0  0  0  0  0  0
  -23.6028  -30.5050   21.7040 N   0  0  0  0  0  0  0  0  0  0  0  0
  -29.9549  -13.8285   20.1710 N   0  0  0  0  0  0  0  0  0  0  0  0
  -24.9780  -13.1428   18.5057 N   0  0  0  0  0  0  0  0  0  0  0  0
  -21.8476  -12.6148   21.7178 N   0  0  0  0  0  0  0  0  0  0  0  0
  -30.0066  -16.1818   20.3184 N   0  0  0  0  0  0  0  0  0  0  0  0
  -25.5442  -32.8072   23.2208 N   0  0  0  0  0  0  0  0  0  0  0  0
  -20.2431  -30.1125   21.5746 N   0  0  0  0  0  0  0  0  0  0  0  0
  -18.9619  -28.5983   18.5525 N   0  3  0  0  0  0  0  0  0  0  0  0
  -29.1616  -20.8571   23.1116 O   0  0  0  0  0  0  0  0  0  0  0  0
  -22.1749  -12.9073   19.4671 O   0  0  0  0  0  0  0  0  0  0  0  0
  -26.0613  -30.5376   23.1581 O   0  0  0  0  0  0  0  0  0  0  0  0
  -22.0935  -32.2519   22.0303 O   0  0  0  0  0  0  0  0  0  0  0  0
  -20.5253  -27.9456   20.7989 O   0  0  0  0  0  0  0  0  0  0  0  0
  -31.7735  -15.0123   19.3739 O   0  0  0  0  0  0  0  0  0  0  0  0
  -22.8010  -11.9246   27.1635 O   0  0  0  0  0  0  0  0  0  0  0  0
  -26.8400  -25.4229   20.3184 O   0  0  0  0  0  0  0  0  0  1  0  0
  -17.5167  -10.4237   27.6404 F   0  0  0  0  0  0  0  0  0  0  0  0
  -22.1066   -9.5521   28.4011 F   0  0  0  0  0  0  0  0  0  0  0  0
  1  2  1  0  0  0  0
  1  7  2  0  0  0  0
  2  8  2  0  0  0  0
  3  6  2  0  0  0  0
  3 10  1  0  0  0  0
  4 11  2  0  0  0  0
  4 19  1  0  0  0  0
  5 12  1  0  0  0  0
  5 19  2  0  0  0  0
  6 20  1  0  0  0  0
  7 22  1  0  0  0  0
  8 24  1  0  0  0  0
  9 13  2  0  0  0  0
  9 23  1  0  0  0  0
 10 26  2  0  0  0  0
 11 27  1  0  0  0  0
 12 27  2  0  0  0  0
 13 28  1  0  0  0  0
 14 15  2  0  0  0  0
 14 29  1  0  0  0  0
 15 30  1  0  0  0  0
 16 20  2  0  0  0  0
 16 26  1  0  0  0  0
 17 25  1  0  0  0  0
 17 28  2  0  0  0  0
 18 30  2  0  0  0  0
 18 31  1  0  0  0  0
 19 32  1  0  0  0  0
 20 34  1  0  0  0  0
 21 32  1  0  0  0  0
 21 33  2  0  0  0  0
 21 35  1  0  0  0  0
 22 24  2  0  0  0  0
 22 40  1  0  0  0  0
 23 25  2  0  0  0  0
 23 41  1  0  0  0  0
 24 51  1  0  0  0  0
 25 42  1  0  0  0  0
 26 75  1  0  0  0  0
 27 85  1  0  0  0  0
 28 86  1  0  0  0  0
 29 31  2  0  0  0  0
 29 85  1  0  0  0  0
 30 87  1  0  0  0  0
 31 88  1  0  0  0  0
 32 68  2  0  0  0  0
 33 69  1  0  0  0  0
 33 73  1  0  0  0  0
 34 70  1  0  0  0  0
 34 79  2  0  0  0  0
 35 74  1  0  0  0  0
 35 80  2  0  0  0  0
 36 52  1  0  0  0  0
 36 76  1  0  0  0  0
 36 81  2  0  0  0  0
 37 65  1  0  0  0  0
 37 71  1  0  0  0  0
 37 82  2  0  0  0  0
 38 66  1  0  0  0  0
 38 77  1  0  0  0  0
 38 83  2  0  0  0  0
 39 72  1  0  0  0  0
 39 75  1  0  0  0  0
 39 84  2  0  0  0  0
 40 43  1  0  0  0  0
 41 52  1  0  0  0  0
 42 71  1  0  0  0  0
 43 45  1  0  0  0  0
 44 46  1  0  0  0  0
 44 48  1  0  0  0  0
 45 51  1  0  0  0  0
 46 53  1  0  0  0  0
 47 49  1  0  0  0  0
 47 54  1  0  0  0  0
 48 72  1  0  0  0  0
 49 70  1  0  0  0  0
 50 53  1  0  0  0  0
 50 72  1  0  0  0  0
 51 76  1  0  0  0  0
 52 71  1  0  0  0  0
 53 69  1  0  0  0  0
 54 55  1  0  0  0  0
 54 56  1  0  0  0  0
 54 64  1  0  0  0  0
 55 57  1  0  0  0  0
 55 58  1  0  0  0  0
 55 70  1  0  0  0  0
 59 66  1  0  0  0  0
 60 67  1  0  0  0  0
 61 67  1  0  0  0  0
 62 67  1  0  0  0  0
 63 78  1  0  0  0  0
 64 86  1  0  0  0  0
 65 67  1  0  0  0  0
 65 77  1  0  0  0  0
 66 78  1  0  0  0  0
 68 69  1  0  0  0  0
M  CHG  1  78   1
M  ISO  4  39 100  64 101  75 100  86 101
M  END
> <Batch ID>
0143

> <Smiles>
CNC(C)C(=O)NC(C(=O)N1Cc2cc([101O:1][101CH2:1]C3(C)CCN(C(=O)c4cccc([100NH:0][100C:0](=O)N5CCCC(n6nc(-c7ccc(Oc8ccc(F)cc8F)cc7)c(C(N)=O)c6N)C5)c4)C3(C)C)ccc2CC1C(=O)NC1CCCc2ccccc21)C(C)(C)C

> <Shape>
0.293

> <Color>
0.106

> <Negative vol penalty>
0.000

$$$$

  -OEChem-04052303003D

 86 94  0     1  0  0  0  0  0999 V2000
  -28.4200  -24.0454   17.2938 C   0  0  0  0  0  0  0  0  0  0  0  0
  -27.1875  -24.3285   17.8736 C   0  0  0  0  0  0  0  0  0  0  0  0
  -28.0908  -13.6533   19.7999 C   0  0  0  0  0  0  0  0  0  0  0  0
  -28.0139  -15.4667   21.3946 C   0  0  0  0  0  0  0  0  0  0  0  0
  -29.5913  -24.5223   17.8808 C   0  0  0  0  0  0  0  0  0  0  0  0
  -27.1256  -25.0877   19.0415 C   0  0  0  0  0  0  0  0  0  0  0  0
  -23.5116  -28.6307   18.8662 C   0  0  0  0  0  0  0  0  0  0  0  0
  -29.4580  -13.8662   19.6237 C   0  0  0  0  0  0  0  0  0  0  0  0
  -29.3811  -15.6795   21.2184 C   0  0  0  0  0  0  0  0  0  0  0  0
  -22.1986  -28.2120   19.0774 C   0  0  0  0  0  0  0  0  0  0  0  0
  -32.7788  -16.9352   20.9205 C   0  0  0  0  0  0  0  0  0  0  0  0
  -33.2160  -18.2512   20.7703 C   0  0  0  0  0  0  0  0  0  0  0  0
  -22.3266  -28.9821   21.3599 C   0  0  0  0  0  0  0  0  0  0  0  0
  -21.3028  -20.2778   22.0928 C   0  0  0  0  0  0  0  0  0  0  0  0
  -31.8372  -18.4842   18.8000 C   0  0  0  0  0  0  0  0  0  0  0  0
  -18.9695  -21.3703   21.1214 C   0  0  0  0  0  0  0  0  0  0  0  0
  -27.3687  -14.4536   20.6853 C   0  0  0  0  0  0  0  0  0  0  0  0
  -25.3419  -13.3836   21.8056 C   0  0  0  0  0  0  0  0  0  0  0  0
  -29.5431  -25.2960   19.0512 C   0  0  0  0  0  0  0  0  0  0  0  0
  -24.2468  -29.2194   19.9051 C   0  0  0  0  0  0  0  0  0  0  0  0
  -28.2974  -25.5743   19.6456 C   0  0  0  0  0  0  0  0  0  0  0  0
  -23.6478  -29.4098   21.1585 C   0  0  0  0  0  0  0  0  0  0  0  0
  -20.7490  -21.3899   22.7198 C   0  0  0  0  0  0  0  0  0  0  0  0
  -19.5700  -21.9455   22.2324 C   0  0  0  0  0  0  0  0  0  0  0  0
  -30.1031  -14.8793   20.3330 C   0  0  0  0  0  0  0  0  0  0  0  0
  -21.6069  -28.3850   20.3252 C   0  0  0  0  0  0  0  0  0  0  0  0
  -31.8709  -16.3936   20.0105 C   0  0  0  0  0  0  0  0  0  0  0  0
  -32.7452  -19.0257   19.7100 C   0  0  0  0  0  0  0  0  0  0  0  0
  -31.4001  -17.1681   18.9502 C   0  0  0  0  0  0  0  0  0  0  0  0
  -25.9563  -14.2345   20.8673 C   0  0  0  0  0  0  0  0  0  0  0  0
  -23.9963  -13.5315   21.5738 C   0  0  0  0  0  0  0  0  0  0  0  0
  -20.6584  -19.7448   20.9855 C   0  0  0  0  0  0  0  0  0  0  0  0
  -25.9347  -12.5354   22.7981 C   0  0  0  0  0  0  0  0  0  0  0  0
  -26.9126  -28.4749   21.4681 C   0  0  0  0  0  0  0  0  0  0  0  0
  -26.4651  -31.3857   22.8281 C   0  0  0  0  0  0  0  0  0  0  0  0
  -24.3034  -33.8887   23.6701 C   0  0  0  0  0  0  0  0  0  0  0  0
  -20.7188  -17.9422   19.2267 C   0  0  0  0  0  0  0  0  0  0  0  0
  -30.8389  -25.7496   19.6755 C   0  0  0  0  0  0  0  0  0  0  0  0
  -25.6530  -29.6900   19.6534 C   0  0  0  0  0  0  0  0  0  0  0  0
  -24.3874  -30.0549   22.3011 C   0  0  0  0  0  0  0  0  0  0  0  0
  -30.6623  -26.8627   20.7050 C   0  0  0  0  0  0  0  0  0  0  0  0
  -20.8905  -14.5753   18.0812 C   0  0  0  0  0  0  0  0  0  0  0  0
  -29.5159  -26.5334   21.6559 C   0  0  0  0  0  0  0  0  0  0  0  0
  -22.1497  -14.0266   18.7559 C   0  0  0  0  0  0  0  0  0  0  0  0
  -21.0590  -16.0365   17.6685 C   0  0  0  0  0  0  0  0  0  0  0  0
  -22.7600  -16.3887   19.4155 C   0  0  0  0  0  0  0  0  0  0  0  0
  -28.1876  -26.4156   20.8987 C   0  0  1  0  0  0  0  0  0  0  0  0
  -26.4805  -29.8094   20.9295 C   0  0  1  0  0  0  0  0  0  0  0  0
  -22.6154  -14.9393   19.9073 C   0  0  2  0  0  0  0  0  0  0  0  0
  -24.2250  -36.1240   24.8078 C   0  0  0  0  0  0  0  0  0  0  0  0
  -26.6577  -30.0076   25.5436 C   0  0  0  0  0  0  0  0  0  0  0  0
  -25.6459  -32.0523   26.5750 C   0  0  0  0  0  0  0  0  0  0  0  0
  -27.8425  -32.2055   25.4028 C   0  0  0  0  0  0  0  0  0  0  0  0
  -17.1587  -24.5019   24.6680 C   0  0  0  0  0  0  0  0  0  0  0  0
  -16.0483  -25.4600   22.6535 C   0  0  0  0  0  0  0  0  0  0  0  0
  -23.3582  -35.2370   21.2109 C   0  0  0  0  0  0  0  0  0  0  0  0
  -18.8728  -26.5198   21.7728 C   0  0  0  0  0  0  0  0  0  0  0  0
  -18.4734  -26.0204   23.1642 C   0  0  0  0  0  0  0  0  0  0  0  0
  -17.7671  -23.6657   22.3600 C   0  0  0  0  0  0  0  0  0  0  0  0
  -19.9845  -27.5592   21.8556 C   0  0  0  0  0  0  0  0  0  1  0  0
  -25.7322  -31.8957   24.0454 C   0  0  1  0  0  0  0  0  0  0  0  0
  -24.3826  -35.3932   23.4835 C   0  0  2  0  0  0  0  0  0  0  0  0
  -26.4560  -31.5263   25.3709 C   0  0  0  0  0  0  0  0  0  0  0  0
  -17.3838  -24.9106   23.1955 C   0  0  0  0  0  0  0  0  0  0  0  0
  -25.0733  -14.8753   20.0968 N   0  0  0  0  0  0  0  0  0  0  0  0
  -23.8905  -14.4268   20.5504 N   0  0  0  0  0  0  0  0  0  0  0  0
  -19.5241  -20.2996   20.5369 N   0  3  0  0  0  0  0  0  0  0  0  0
  -25.7621  -30.4925   22.0072 N   0  0  0  0  0  0  0  0  0  0  0  0
  -21.4974  -16.8414   18.8108 N   0  0  0  0  0  0  0  0  0  0  0  0
  -21.3985  -21.9388   23.8477 N   0  0  0  0  0  0  0  0  0  0  0  0
  -22.9050  -12.9816   22.1476 N   0  0  0  0  0  0  0  0  0  0  0  0
  -27.3321  -12.5031   22.9011 N   0  0  0  0  0  0  0  0  0  0  0  0
  -18.9887  -23.0524   22.8285 N   0  0  0  0  0  0  0  0  0  0  0  0
  -21.2177  -18.6123   20.3432 N   0  0  0  0  0  0  0  0  0  0  0  0
  -27.6674  -27.7287   20.5833 N   0  0  0  0  0  0  0  0  0  0  0  0
  -25.5518  -33.3291   23.8425 N   0  0  0  0  0  0  0  0  0  0  0  0
  -23.3094  -35.8577   22.5597 N   0  3  0  0  0  0  0  0  0  0  0  0
  -25.2462  -11.8148   23.5597 O   0  0  0  0  0  0  0  0  0  0  0  0
  -26.5865  -28.1471   22.6030 O   0  0  0  0  0  0  0  0  0  0  0  0
  -27.6163  -31.7712   22.6098 O   0  0  0  0  0  0  0  0  0  0  0  0
  -23.2403  -33.2721   23.6671 O   0  0  0  0  0  0  0  0  0  0  0  0
  -19.6711  -18.2498   18.6525 O   0  0  0  0  0  0  0  0  0  0  0  0
  -31.4373  -15.0871   20.1615 O   0  0  0  0  0  0  0  0  0  0  0  0
  -20.3258  -27.9766   20.5343 O   0  0  0  0  0  0  0  0  0  1  0  0
  -33.1639  -20.2900   19.5668 F   0  0  0  0  0  0  0  0  0  0  0  0
  -30.5269  -16.6537   18.0735 F   0  0  0  0  0  0  0  0  0  0  0  0
  1  2  1  0  0  0  0
  1  5  2  0  0  0  0
  2  6  2  0  0  0  0
  3  8  2  0  0  0  0
  3 17  1  0  0  0  0
  4  9  1  0  0  0  0
  4 17  2  0  0  0  0
  5 19  1  0  0  0  0
  6 21  1  0  0  0  0
  7 10  2  0  0  0  0
  7 20  1  0  0  0  0
  8 25  1  0  0  0  0
  9 25  2  0  0  0  0
 10 26  1  0  0  0  0
 11 12  2  0  0  0  0
 11 27  1  0  0  0  0
 12 28  1  0  0  0  0
 13 22  1  0  0  0  0
 13 26  2  0  0  0  0
 14 23  1  0  0  0  0
 14 32  2  0  0  0  0
 15 28  2  0  0  0  0
 15 29  1  0  0  0  0
 16 24  1  0  0  0  0
 16 67  2  0  0  0  0
 17 30  1  0  0  0  0
 18 30  1  0  0  0  0
 18 31  2  0  0  0  0
 18 33  1  0  0  0  0
 19 21  2  0  0  0  0
 19 38  1  0  0  0  0
 20 22  2  0  0  0  0
 20 39  1  0  0  0  0
 21 47  1  0  0  0  0
 22 40  1  0  0  0  0
 23 24  2  0  0  0  0
 23 70  1  0  0  0  0
 24 73  1  0  0  0  0
 25 83  1  0  0  0  0
 26 84  1  0  0  0  0
 27 29  2  0  0  0  0
 27 83  1  0  0  0  0
 28 85  1  0  0  0  0
 29 86  1  0  0  0  0
 30 65  2  0  0  0  0
 31 66  1  0  0  0  0
 31 71  1  0  0  0  0
 32 67  1  0  0  0  0
 32 74  1  0  0  0  0
 33 72  1  0  0  0  0
 33 78  2  0  0  0  0
 34 48  1  0  0  0  0
 34 75  1  0  0  0  0
 34 79  2  0  0  0  0
 35 61  1  0  0  0  0
 35 68  1  0  0  0  0
 35 80  2  0  0  0  0
 36 62  1  0  0  0  0
 36 76  1  0  0  0  0
 36 81  2  0  0  0  0
 37 69  1  0  0  0  0
 37 74  1  0  0  0  0
 37 82  2  0  0  0  0
 38 41  1  0  0  0  0
 39 48  1  0  0  0  0
 40 68  1  0  0  0  0
 41 43  1  0  0  0  0
 42 44  1  0  0  0  0
 42 45  1  0  0  0  0
 43 47  1  0  0  0  0
 44 49  1  0  0  0  0
 45 69  1  0  0  0  0
 46 49  1  0  0  0  0
 46 69  1  0  0  0  0
 47 75  1  0  0  0  0
 48 68  1  0  0  0  0
 49 66  1  0  0  0  0
 50 62  1  0  0  0  0
 51 63  1  0  0  0  0
 52 63  1  0  0  0  0
 53 63  1  0  0  0  0
 54 64  1  0  0  0  0
 55 64  1  0  0  0  0
 56 77  1  0  0  0  0
 57 58  1  0  0  0  0
 57 60  1  0  0  0  0
 58 64  1  0  0  0  0
 59 64  1  0  0  0  0
 59 73  1  0  0  0  0
 60 84  1  0  0  0  0
 61 63  1  0  0  0  0
 61 76  1  0  0  0  0
 62 77  1  0  0  0  0
 65 66  1  0  0  0  0
M  CHG  2  67   1  77   1
M  ISO  4  37 100  60 101  74 100  84 101
M  END
> <Batch ID>
0143

> <Smiles>
CNC(C)C(=O)NC(C(=O)N1Cc2cc([101O:1][101CH2:1]CCC(C)(C)CNc3cnc([100NH:0][100C:0](=O)N4CCCC(n5nc(-c6ccc(Oc7ccc(F)cc7F)cc6)c(C(N)=O)c5N)C4)cc3N)ccc2CC1C(=O)NC1CCCc2ccccc21)C(C)(C)C

> <Shape>
0.272

> <Color>
0.086

> <Negative vol penalty>
0.000

$$$$

  -OEChem-04052303003D

 85 93  0     1  0  0  0  0  0999 V2000
  -30.3800  -33.5122   20.6603 C   0  0  0  0  0  0  0  0  0  0  0  0
  -31.3298  -32.5616   21.0203 C   0  0  0  0  0  0  0  0  0  0  0  0
  -23.0759   -9.8627   19.9632 C   0  0  0  0  0  0  0  0  0  0  0  0
  -23.8267   -9.9041   22.2592 C   0  0  0  0  0  0  0  0  0  0  0  0
  -29.0308  -33.2841   20.9279 C   0  0  0  0  0  0  0  0  0  0  0  0
  -30.9310  -31.3826   21.6492 C   0  0  0  0  0  0  0  0  0  0  0  0
  -33.4344  -25.8320   20.9941 C   0  0  0  0  0  0  0  0  0  0  0  0
  -22.3276   -8.7158   20.2286 C   0  0  0  0  0  0  0  0  0  0  0  0
  -23.0784   -8.7572   22.5246 C   0  0  0  0  0  0  0  0  0  0  0  0
  -34.3524  -25.1201   21.7650 C   0  0  0  0  0  0  0  0  0  0  0  0
  -19.8455   -7.9785   23.1268 C   0  0  0  0  0  0  0  0  0  0  0  0
  -19.0838   -7.9595   24.2952 C   0  0  0  0  0  0  0  0  0  0  0  0
  -32.5345  -23.9714   22.8582 C   0  0  0  0  0  0  0  0  0  0  0  0
  -31.8898  -17.4520   21.5535 C   0  0  0  0  0  0  0  0  0  0  0  0
  -20.3166   -6.0304   25.0674 C   0  0  0  0  0  0  0  0  0  0  0  0
  -29.8780  -17.8054   22.6626 C   0  0  0  0  0  0  0  0  0  0  0  0
  -23.8255  -10.4568   20.9785 C   0  0  0  0  0  0  0  0  0  0  0  0
  -24.1752  -12.9787   20.8196 C   0  0  0  0  0  0  0  0  0  0  0  0
  -28.6143  -32.0975   21.5517 C   0  0  0  0  0  0  0  0  0  0  0  0
  -32.0569  -25.6264   21.1574 C   0  0  0  0  0  0  0  0  0  0  0  0
  -29.5751  -31.1390   21.9266 C   0  0  0  0  0  0  0  0  0  0  0  0
  -31.6012  -24.6801   22.0863 C   0  0  0  0  0  0  0  0  0  0  0  0
  -30.5980  -16.9400   21.8687 C   0  0  0  0  0  0  0  0  0  0  0  0
  -22.3288   -8.1631   21.5092 C   0  0  0  0  0  0  0  0  0  0  0  0
  -33.9024  -24.1918   22.6992 C   0  0  0  0  0  0  0  0  0  0  0  0
  -20.8427   -7.0235   22.9287 C   0  0  0  0  0  0  0  0  0  0  0  0
  -19.3194   -6.9855   25.2655 C   0  0  0  0  0  0  0  0  0  0  0  0
  -21.0783   -6.0495   23.8990 C   0  0  0  0  0  0  0  0  0  0  0  0
  -24.5991  -11.6412   20.7049 C   0  0  0  0  0  0  0  0  0  0  0  0
  -25.2710  -13.7191   20.4488 C   0  0  0  0  0  0  0  0  0  0  0  0
  -32.1078  -18.6894   22.1184 C   0  0  0  0  0  0  0  0  0  0  0  0
  -22.9046  -13.5048   21.2252 C   0  0  0  0  0  0  0  0  0  0  0  0
  -29.6073  -27.4462   22.0473 C   0  0  0  0  0  0  0  0  0  0  0  0
  -27.8727  -24.8248   21.2461 C   0  0  0  0  0  0  0  0  0  0  0  0
  -34.4314  -19.3290   21.3977 C   0  0  0  0  0  0  0  0  0  0  0  0
  -27.7729  -21.4435   20.7952 C   0  0  0  0  0  0  0  0  0  0  0  0
  -30.7395  -14.7517   20.6286 C   0  0  0  0  0  0  0  0  0  0  0  0
  -27.1497  -31.9165   21.8631 C   0  0  0  0  0  0  0  0  0  0  0  0
  -31.0803  -26.3830   20.2992 C   0  0  0  0  0  0  0  0  0  0  0  0
  -30.1333  -24.4076   22.2857 C   0  0  0  0  0  0  0  0  0  0  0  0
  -26.7711  -30.4753   22.1948 C   0  0  0  0  0  0  0  0  0  0  0  0
  -29.6275  -12.3034   18.2949 C   0  0  0  0  0  0  0  0  0  0  0  0
  -27.7664  -29.8758   23.1831 C   0  0  0  0  0  0  0  0  0  0  0  0
  -28.1853  -12.0229   18.7233 C   0  0  0  0  0  0  0  0  0  0  0  0
  -30.5384  -12.5488   19.4964 C   0  0  0  0  0  0  0  0  0  0  0  0
  -28.6281  -13.3008   20.8582 C   0  0  0  0  0  0  0  0  0  0  0  0
  -29.1792  -29.8368   22.5881 C   0  0  1  0  0  0  0  0  0  0  0  0
  -29.6855  -26.4653   20.9118 C   0  0  1  0  0  0  0  0  0  0  0  0
  -27.6595  -13.1115   19.6794 C   0  0  2  0  0  0  0  0  0  0  0  0
  -26.2055  -19.5841   20.1760 C   0  0  0  0  0  0  0  0  0  0  0  0
  -26.6204  -24.9583   24.0253 C   0  0  0  0  0  0  0  0  0  0  0  0
  -25.8211  -22.6078   23.7018 C   0  0  0  0  0  0  0  0  0  0  0  0
  -25.0174  -24.4167   22.1836 C   0  0  0  0  0  0  0  0  0  0  0  0
  -36.8021  -21.9675   24.9189 C   0  0  0  0  0  0  0  0  0  0  0  0
  -38.0434  -21.6882   22.7697 C   0  0  0  0  0  0  0  0  0  0  0  0
  -29.3817  -20.7230   18.4178 C   0  0  0  0  0  0  0  0  0  0  0  0
  -35.3965  -20.4887   21.5786 C   0  0  0  0  0  0  0  0  0  0  0  0
  -35.7173  -20.6930   23.0614 C   0  0  0  0  0  0  0  0  0  0  0  0
  -36.0714  -23.2315   22.8700 C   0  0  0  0  0  0  0  0  0  1  0  0
  -27.3985  -23.5922   21.9773 C   0  0  1  0  0  0  0  0  0  0  0  0
  -27.2212  -20.5939   19.6646 C   0  0  2  0  0  0  0  0  0  0  0  0
  -26.2420  -23.9000   22.9698 C   0  0  0  0  0  0  0  0  0  0  0  0
  -36.6477  -21.8948   23.3844 C   0  0  0  0  0  0  0  0  0  0  0  0
  -25.8653  -11.5350   20.2933 N   0  0  0  0  0  0  0  0  0  0  0  0
  -26.2465  -12.8153   20.1460 N   0  0  0  0  0  0  0  0  0  0  0  0
  -29.2176  -25.1771   21.4273 N   0  0  0  0  0  0  0  0  0  0  0  0
  -29.9790  -13.5952   20.3549 N   0  0  0  0  0  0  0  0  0  0  0  0
  -25.4857  -15.0486   20.3554 N   0  0  0  0  0  0  0  0  0  0  0  0
  -21.8887  -12.6041   21.5728 N   0  0  0  0  0  0  0  0  0  0  0  0
  -30.0916  -15.6916   21.4295 N   0  0  0  0  0  0  0  0  0  0  0  0
  -33.2320  -19.5470   22.0642 N   0  0  0  0  0  0  0  0  0  0  0  0
  -29.3050  -28.7366   21.6564 N   0  0  0  0  0  0  0  0  0  0  0  0
  -27.0596  -22.6133   20.9500 N   0  0  0  0  0  0  0  0  0  0  0  0
  -28.3229  -19.8515   18.9893 N   0  3  0  0  0  0  0  0  0  0  0  0
  -22.6718  -14.7369   21.2619 O   0  0  0  0  0  0  0  0  0  0  0  0
  -29.8051  -27.0604   23.1936 O   0  0  0  0  0  0  0  0  0  0  0  0
  -27.0808  -25.4480   20.5345 O   0  0  0  0  0  0  0  0  0  0  0  0
  -34.7572  -18.3465   20.7375 O   0  0  0  0  0  0  0  0  0  0  0  0
  -28.7377  -21.1017   21.4755 O   0  0  0  0  0  0  0  0  0  0  0  0
  -31.8709  -14.9097   20.1629 O   0  0  0  0  0  0  0  0  0  0  0  0
  -21.5986   -7.0442   21.7686 O   0  0  0  0  0  0  0  0  0  0  0  0
  -34.7963  -23.4961   23.4534 O   0  0  0  0  0  0  0  0  0  1  0  0
  -18.5889   -6.9682   26.3881 F   0  0  0  0  0  0  0  0  0  0  0  0
  -22.0357   -5.1301   23.7148 F   0  0  0  0  0  0  0  0  0  0  0  0
  -30.7586  -19.2286   23.0247 S   0  0  0  0  0  0  0  0  0  0  0  0
  1  2  1  0  0  0  0
  1  5  2  0  0  0  0
  2  6  2  0  0  0  0
  3  8  2  0  0  0  0
  3 17  1  0  0  0  0
  4  9  1  0  0  0  0
  4 17  2  0  0  0  0
  5 19  1  0  0  0  0
  6 21  1  0  0  0  0
  7 10  2  0  0  0  0
  7 20  1  0  0  0  0
  8 24  1  0  0  0  0
  9 24  2  0  0  0  0
 10 25  1  0  0  0  0
 11 12  2  0  0  0  0
 11 26  1  0  0  0  0
 12 27  1  0  0  0  0
 13 22  1  0  0  0  0
 13 25  2  0  0  0  0
 14 23  1  0  0  0  0
 14 31  2  0  0  0  0
 15 27  2  0  0  0  0
 15 28  1  0  0  0  0
 16 23  2  0  0  0  0
 16 85  1  0  0  0  0
 17 29  1  0  0  0  0
 18 29  1  0  0  0  0
 18 30  2  0  0  0  0
 18 32  1  0  0  0  0
 19 21  2  0  0  0  0
 19 38  1  0  0  0  0
 20 22  2  0  0  0  0
 20 39  1  0  0  0  0
 21 47  1  0  0  0  0
 22 40  1  0  0  0  0
 23 70  1  0  0  0  0
 24 81  1  0  0  0  0
 25 82  1  0  0  0  0
 26 28  2  0  0  0  0
 26 81  1  0  0  0  0
 27 83  1  0  0  0  0
 28 84  1  0  0  0  0
 29 64  2  0  0  0  0
 30 65  1  0  0  0  0
 30 68  1  0  0  0  0
 31 71  1  0  0  0  0
 31 85  1  0  0  0  0
 32 69  1  0  0  0  0
 32 75  2  0  0  0  0
 33 48  1  0  0  0  0
 33 72  1  0  0  0  0
 33 76  2  0  0  0  0
 34 60  1  0  0  0  0
 34 66  1  0  0  0  0
 34 77  2  0  0  0  0
 35 57  1  0  0  0  0
 35 71  1  0  0  0  0
 35 78  2  0  0  0  0
 36 61  1  0  0  0  0
 36 73  1  0  0  0  0
 36 79  2  0  0  0  0
 37 67  1  0  0  0  0
 37 70  1  0  0  0  0
 37 80  2  0  0  0  0
 38 41  1  0  0  0  0
 39 48  1  0  0  0  0
 40 66  1  0  0  0  0
 41 43  1  0  0  0  0
 42 44  1  0  0  0  0
 42 45  1  0  0  0  0
 43 47  1  0  0  0  0
 44 49  1  0  0  0  0
 45 67  1  0  0  0  0
 46 49  1  0  0  0  0
 46 67  1  0  0  0  0
 47 72  1  0  0  0  0
 48 66  1  0  0  0  0
 49 65  1  0  0  0  0
 50 61  1  0  0  0  0
 51 62  1  0  0  0  0
 52 62  1  0  0  0  0
 53 62  1  0  0  0  0
 54 63  1  0  0  0  0
 55 63  1  0  0  0  0
 56 74  1  0  0  0  0
 57 58  1  0  0  0  0
 58 63  1  0  0  0  0
 59 63  1  0  0  0  0
 59 82  1  0  0  0  0
 60 62  1  0  0  0  0
 60 73  1  0  0  0  0
 61 74  1  0  0  0  0
 64 65  1  0  0  0  0
M  CHG  1  74   1
M  ISO  4  37 100  59 101  70 100  82 101
M  END
> <Batch ID>
0143

> <Smiles>
CNC(C)C(=O)NC(C(=O)N1Cc2cc([101O:1][101CH2:1]C(C)(C)CCC(=O)Nc3cc([100NH:0][100C:0](=O)N4CCCC(n5nc(-c6ccc(Oc7ccc(F)cc7F)cc6)c(C(N)=O)c5N)C4)cs3)ccc2CC1C(=O)NC1CCCc2ccccc21)C(C)(C)C

> <Shape>
0.249

> <Color>
0.189

> <Negative vol penalty>
0.000

$$$$

  -OEChem-04052303003D

 86 94  0     1  0  0  0  0  0999 V2000
  -27.9380  -23.7289   17.7977 C   0  0  0  0  0  0  0  0  0  0  0  0
  -26.7582  -24.0453   18.4636 C   0  0  0  0  0  0  0  0  0  0  0  0
  -26.2021  -12.7595   21.2460 C   0  0  0  0  0  0  0  0  0  0  0  0
  -24.4760  -12.8684   19.5591 C   0  0  0  0  0  0  0  0  0  0  0  0
  -29.1474  -24.2730   18.2280 C   0  0  0  0  0  0  0  0  0  0  0  0
  -26.7873  -24.9052   19.5609 C   0  0  0  0  0  0  0  0  0  0  0  0
  -23.0938  -28.3667   19.4152 C   0  0  0  0  0  0  0  0  0  0  0  0
  -25.7211  -11.5167   21.6580 C   0  0  0  0  0  0  0  0  0  0  0  0
  -23.9950  -11.6255   19.9710 C   0  0  0  0  0  0  0  0  0  0  0  0
  -21.8157  -27.9500   19.7848 C   0  0  0  0  0  0  0  0  0  0  0  0
  -24.8200   -8.3748   19.5554 C   0  0  0  0  0  0  0  0  0  0  0  0
  -24.5056   -7.4430   18.5662 C   0  0  0  0  0  0  0  0  0  0  0  0
  -22.1365  -28.9232   21.9686 C   0  0  0  0  0  0  0  0  0  0  0  0
  -20.8015  -19.8732   17.6656 C   0  0  0  0  0  0  0  0  0  0  0  0
  -20.6852  -21.5513   19.3999 C   0  0  0  0  0  0  0  0  0  0  0  0
  -22.2205   -7.3838   19.3483 C   0  0  0  0  0  0  0  0  0  0  0  0
  -25.5795  -13.4354   20.1966 C   0  0  0  0  0  0  0  0  0  0  0  0
  -27.0516  -14.9705   18.7881 C   0  0  0  0  0  0  0  0  0  0  0  0
  -29.1900  -25.1476   19.3252 C   0  0  0  0  0  0  0  0  0  0  0  0
  -23.9084  -29.0564   20.3247 C   0  0  0  0  0  0  0  0  0  0  0  0
  -27.9986  -25.4604   20.0071 C   0  0  0  0  0  0  0  0  0  0  0  0
  -23.4236  -29.3498   21.6073 C   0  0  0  0  0  0  0  0  0  0  0  0
  -19.5098  -20.2054   17.2575 C   0  0  0  0  0  0  0  0  0  0  0  0
  -21.3893  -20.5461   18.7368 C   0  0  0  0  0  0  0  0  0  0  0  0
  -19.3935  -21.8835   18.9918 C   0  0  0  0  0  0  0  0  0  0  0  0
  -24.6176  -10.9497   21.0205 C   0  0  0  0  0  0  0  0  0  0  0  0
  -21.3380  -28.2257   21.0626 C   0  0  0  0  0  0  0  0  0  0  0  0
  -23.8347   -8.8111   20.4411 C   0  0  0  0  0  0  0  0  0  0  0  0
  -18.8057  -21.2106   17.9206 C   0  0  0  0  0  0  0  0  0  0  0  0
  -23.2059   -6.9475   18.4626 C   0  0  0  0  0  0  0  0  0  0  0  0
  -22.5349   -8.3156   20.3375 C   0  0  0  0  0  0  0  0  0  0  0  0
  -26.0755  -14.7195   19.7710 C   0  0  0  0  0  0  0  0  0  0  0  0
  -27.1653  -16.3390   18.7589 C   0  0  0  0  0  0  0  0  0  0  0  0
  -27.7895  -14.0491   17.9743 C   0  0  0  0  0  0  0  0  0  0  0  0
  -26.7231  -28.4927   21.6898 C   0  0  0  0  0  0  0  0  0  0  0  0
  -26.3378  -31.5069   22.8249 C   0  0  0  0  0  0  0  0  0  0  0  0
  -19.1388  -23.6652   20.7533 C   0  0  0  0  0  0  0  0  0  0  0  0
  -24.2074  -34.0444   23.6429 C   0  0  0  0  0  0  0  0  0  0  0  0
  -23.4309  -20.7773   20.1945 C   0  0  0  0  0  0  0  0  0  0  0  0
  -30.5275  -25.6736   19.7827 C   0  0  0  0  0  0  0  0  0  0  0  0
  -25.2745  -29.5224   19.9017 C   0  0  0  0  0  0  0  0  0  0  0  0
  -24.2508  -30.1050   22.6142 C   0  0  0  0  0  0  0  0  0  0  0  0
  -30.4216  -26.8719   20.7225 C   0  0  0  0  0  0  0  0  0  0  0  0
  -26.6715  -20.1983   21.5511 C   0  0  0  0  0  0  0  0  0  0  0  0
  -29.3755  -26.6128   21.8021 C   0  0  0  0  0  0  0  0  0  0  0  0
  -26.9778  -18.7524   21.1539 C   0  0  0  0  0  0  0  0  0  0  0  0
  -25.1966  -20.3904   21.8996 C   0  0  0  0  0  0  0  0  0  0  0  0
  -24.5576  -18.4825   20.4780 C   0  0  0  0  0  0  0  0  0  0  0  0
  -27.9860  -26.4089   21.1863 C   0  0  1  0  0  0  0  0  0  0  0  0
  -26.2133  -29.7673   21.0790 C   0  0  1  0  0  0  0  0  0  0  0  0
  -26.0181  -18.2544   20.0555 C   0  0  2  0  0  0  0  0  0  0  0  0
  -18.8978  -19.4737   16.1086 C   0  0  0  0  0  0  0  0  0  0  0  0
  -24.1841  -36.3713   24.5823 C   0  0  0  0  0  0  0  0  0  0  0  0
  -26.8111  -30.3804   25.6208 C   0  0  0  0  0  0  0  0  0  0  0  0
  -25.8531  -32.4947   26.5590 C   0  0  0  0  0  0  0  0  0  0  0  0
  -27.9282  -32.5734   25.1768 C   0  0  0  0  0  0  0  0  0  0  0  0
  -23.0092  -35.1535   21.1745 C   0  0  0  0  0  0  0  0  0  0  0  0
  -16.4684  -20.8246   18.1297 C   0  0  0  0  0  0  0  0  0  0  0  0
  -18.0687  -24.6581   21.1855 C   0  0  0  0  0  0  0  0  0  0  0  0
  -18.6562  -25.9306   21.7861 C   0  0  0  0  0  0  0  0  0  0  0  0
  -19.5891  -26.6338   20.8109 C   0  0  0  0  0  0  0  0  0  1  0  0
  -25.7091  -32.1134   24.0561 C   0  0  1  0  0  0  0  0  0  0  0  0
  -24.2352  -35.5271   23.3184 C   0  0  2  0  0  0  0  0  0  0  0  0
  -26.5603  -31.8745   25.3351 C   0  0  0  0  0  0  0  0  0  0  0  0
  -25.6029  -15.8386   20.3261 N   0  0  0  0  0  0  0  0  0  0  0  0
  -26.2850  -16.8062   19.6899 N   0  0  0  0  0  0  0  0  0  0  0  0
  -25.5823  -30.5340   22.1552 N   0  0  0  0  0  0  0  0  0  0  0  0
  -24.3477  -19.9001   20.8116 N   0  0  0  0  0  0  0  0  0  0  0  0
  -27.9316  -17.1762   18.0279 N   0  0  0  0  0  0  0  0  0  0  0  0
  -27.5493  -12.6774   18.1326 N   0  0  0  0  0  0  0  0  0  0  0  0
  -18.6933  -22.9061   19.6749 N   0  0  0  0  0  0  0  0  0  0  0  0
  -22.7016  -20.2082   19.1510 N   0  0  0  0  0  0  0  0  0  0  0  0
  -27.4096  -27.6810   20.8070 N   0  0  0  0  0  0  0  0  0  0  0  0
  -25.4786  -33.5202   23.7458 N   0  0  0  0  0  0  0  0  0  0  0  0
  -23.0712  -35.8918   22.4622 N   0  3  0  0  0  0  0  0  0  0  0  0
  -28.6484  -14.4302   17.1434 O   0  0  0  0  0  0  0  0  0  0  0  0
  -26.5106  -28.2632   22.8747 O   0  0  0  0  0  0  0  0  0  0  0  0
  -27.4550  -31.8876   22.4663 O   0  0  0  0  0  0  0  0  0  0  0  0
  -20.2251  -23.5917   21.3181 O   0  0  0  0  0  0  0  0  0  0  0  0
  -23.1626  -33.4151   23.7940 O   0  0  0  0  0  0  0  0  0  0  0  0
  -23.3217  -21.9546   20.5464 O   0  0  0  0  0  0  0  0  0  0  0  0
  -24.1482   -9.7369   21.4220 O   0  0  0  0  0  0  0  0  0  0  0  0
  -17.5426  -21.5341   17.5182 O   0  0  0  0  0  0  0  0  0  0  0  0
  -20.0911  -27.8195   21.4261 O   0  0  0  0  0  0  0  0  0  1  0  0
  -22.9038   -6.0538   17.5117 F   0  0  0  0  0  0  0  0  0  0  0  0
  -21.5837   -8.7319   21.1847 F   0  0  0  0  0  0  0  0  0  0  0  0
  1  2  1  0  0  0  0
  1  5  2  0  0  0  0
  2  6  2  0  0  0  0
  3  8  2  0  0  0  0
  3 17  1  0  0  0  0
  4  9  1  0  0  0  0
  4 17  2  0  0  0  0
  5 19  1  0  0  0  0
  6 21  1  0  0  0  0
  7 10  2  0  0  0  0
  7 20  1  0  0  0  0
  8 26  1  0  0  0  0
  9 26  2  0  0  0  0
 10 27  1  0  0  0  0
 11 12  2  0  0  0  0
 11 28  1  0  0  0  0
 12 30  1  0  0  0  0
 13 22  1  0  0  0  0
 13 27  2  0  0  0  0
 14 23  2  0  0  0  0
 14 24  1  0  0  0  0
 15 24  2  0  0  0  0
 15 25  1  0  0  0  0
 16 30  2  0  0  0  0
 16 31  1  0  0  0  0
 17 32  1  0  0  0  0
 18 32  1  0  0  0  0
 18 33  2  0  0  0  0
 18 34  1  0  0  0  0
 19 21  2  0  0  0  0
 19 40  1  0  0  0  0
 20 22  2  0  0  0  0
 20 41  1  0  0  0  0
 21 49  1  0  0  0  0
 22 42  1  0  0  0  0
 23 29  1  0  0  0  0
 23 52  1  0  0  0  0
 24 72  1  0  0  0  0
 25 29  2  0  0  0  0
 25 71  1  0  0  0  0
 26 82  1  0  0  0  0
 27 84  1  0  0  0  0
 28 31  2  0  0  0  0
 28 82  1  0  0  0  0
 29 83  1  0  0  0  0
 30 85  1  0  0  0  0
 31 86  1  0  0  0  0
 32 65  2  0  0  0  0
 33 66  1  0  0  0  0
 33 69  1  0  0  0  0
 34 70  1  0  0  0  0
 34 76  2  0  0  0  0
 35 50  1  0  0  0  0
 35 73  1  0  0  0  0
 35 77  2  0  0  0  0
 36 62  1  0  0  0  0
 36 67  1  0  0  0  0
 36 78  2  0  0  0  0
 37 59  1  0  0  0  0
 37 71  1  0  0  0  0
 37 79  2  0  0  0  0
 38 63  1  0  0  0  0
 38 74  1  0  0  0  0
 38 80  2  0  0  0  0
 39 68  1  0  0  0  0
 39 72  1  0  0  0  0
 39 81  2  0  0  0  0
 40 43  1  0  0  0  0
 41 50  1  0  0  0  0
 42 67  1  0  0  0  0
 43 45  1  0  0  0  0
 44 46  1  0  0  0  0
 44 47  1  0  0  0  0
 45 49  1  0  0  0  0
 46 51  1  0  0  0  0
 47 68  1  0  0  0  0
 48 51  1  0  0  0  0
 48 68  1  0  0  0  0
 49 73  1  0  0  0  0
 50 67  1  0  0  0  0
 51 66  1  0  0  0  0
 53 63  1  0  0  0  0
 54 64  1  0  0  0  0
 55 64  1  0  0  0  0
 56 64  1  0  0  0  0
 57 75  1  0  0  0  0
 58 83  1  0  0  0  0
 59 60  1  0  0  0  0
 60 61  1  0  0  0  0
 61 84  1  0  0  0  0
 62 64  1  0  0  0  0
 62 74  1  0  0  0  0
 63 75  1  0  0  0  0
 65 66  1  0  0  0  0
M  CHG  1  75   1
M  ISO  4  39 100  61 101  72 100  84 101
M  END
> <Batch ID>
0143

> <Smiles>
CNC(C)C(=O)NC(C(=O)N1Cc2cc([101O:1][101CH2:1]CCC(=O)Nc3cc([100NH:0][100C:0](=O)N4CCCC(n5nc(-c6ccc(Oc7ccc(F)cc7F)cc6)c(C(N)=O)c5N)C4)cc(C)c3OC)ccc2CC1C(=O)NC1CCCc2ccccc21)C(C)(C)C

> <Shape>
0.265

> <Color>
0.072

> <Negative vol penalty>
0.000

$$$$

  -OEChem-04052303003D

 95105  0     1  0  0  0  0  0999 V2000
  -28.5777  -31.3082   26.8936 C   0  0  0  0  0  0  0  0  0  0  0  0
  -28.4803  -30.0565   26.2942 C   0  0  0  0  0  0  0  0  0  0  0  0
  -24.0216   -9.7359   22.1325 C   0  0  0  0  0  0  0  0  0  0  0  0
  -22.9202  -10.0321   20.0027 C   0  0  0  0  0  0  0  0  0  0  0  0
  -28.9793  -24.4009   14.3481 C   0  0  0  0  0  0  0  0  0  0  0  0
  -24.5460  -20.9938   16.2047 C   0  0  0  0  0  0  0  0  0  0  0  0
  -27.5485  -32.2359   26.7388 C   0  0  0  0  0  0  0  0  0  0  0  0
  -27.3530  -29.7314   25.5405 C   0  0  0  0  0  0  0  0  0  0  0  0
  -28.5269  -27.4527   21.1731 C   0  0  0  0  0  0  0  0  0  0  0  0
  -29.4787  -24.1727   15.6366 C   0  0  0  0  0  0  0  0  0  0  0  0
  -24.3997  -20.2273   17.3609 C   0  0  0  0  0  0  0  0  0  0  0  0
  -23.3526   -8.5250   22.3101 C   0  0  0  0  0  0  0  0  0  0  0  0
  -22.2512   -8.8211   20.1803 C   0  0  0  0  0  0  0  0  0  0  0  0
  -28.8686  -26.1023   21.2312 C   0  0  0  0  0  0  0  0  0  0  0  0
  -22.2081   -5.1805   23.1587 C   0  0  0  0  0  0  0  0  0  0  0  0
  -22.9495   -4.0909   23.6155 C   0  0  0  0  0  0  0  0  0  0  0  0
  -26.0886  -19.3600   15.3168 C   0  0  0  0  0  0  0  0  0  0  0  0
  -26.6422  -25.5142   20.5124 C   0  0  0  0  0  0  0  0  0  0  0  0
  -27.8398  -22.3843   16.0795 C   0  0  0  0  0  0  0  0  0  0  0  0
  -24.3771   -4.2477   21.6727 C   0  0  0  0  0  0  0  0  0  0  0  0
  -23.8054  -10.4895   20.9788 C   0  0  0  0  0  0  0  0  0  0  0  0
  -27.9342  -23.6047   13.9969 C   0  0  0  0  0  0  0  0  0  0  0  0
  -25.3904  -20.5601   15.1826 C   0  0  0  0  0  0  0  0  0  0  0  0
  -25.7447  -11.9398   20.1766 C   0  0  0  0  0  0  0  0  0  0  0  0
  -26.4124  -31.9255   25.9749 C   0  0  0  0  0  0  0  0  0  0  0  0
  -27.2349  -27.8443   20.7941 C   0  0  0  0  0  0  0  0  0  0  0  0
  -26.3070  -30.6553   25.3765 C   0  0  0  0  0  0  0  0  0  0  0  0
  -26.2874  -26.8703   20.4478 C   0  0  0  0  0  0  0  0  0  0  0  0
  -27.3882  -22.6419   14.8198 C   0  0  0  0  0  0  0  0  0  0  0  0
  -28.9175  -23.1795   16.4895 C   0  0  0  0  0  0  0  0  0  0  0  0
  -25.0979  -19.0272   17.4950 C   0  0  0  0  0  0  0  0  0  0  0  0
  -22.4674   -8.0675   21.3340 C   0  0  0  0  0  0  0  0  0  0  0  0
  -27.9254  -25.1327   20.9037 C   0  0  0  0  0  0  0  0  0  0  0  0
  -22.5511   -5.8037   21.9588 C   0  0  0  0  0  0  0  0  0  0  0  0
  -24.0340   -3.6245   22.8726 C   0  0  0  0  0  0  0  0  0  0  0  0
  -25.9423  -18.5935   16.4730 C   0  0  0  0  0  0  0  0  0  0  0  0
  -23.6356   -5.3373   21.2158 C   0  0  0  0  0  0  0  0  0  0  0  0
  -24.4958  -11.7408   20.7950 C   0  0  0  0  0  0  0  0  0  0  0  0
  -25.9548  -13.2948   20.2554 C   0  0  0  0  0  0  0  0  0  0  0  0
  -26.9745  -23.2392   13.0013 C   0  0  0  0  0  0  0  0  0  0  0  0
  -25.5455  -21.3692   13.9606 C   0  0  0  0  0  0  0  0  0  0  0  0
  -26.6352  -10.9851   19.5838 C   0  0  0  0  0  0  0  0  0  0  0  0
  -24.8641  -29.4217   22.2065 C   0  0  0  0  0  0  0  0  0  0  0  0
  -23.4928  -29.2033   19.2749 C   0  0  0  0  0  0  0  0  0  0  0  0
  -23.2850  -27.5649   16.2884 C   0  0  0  0  0  0  0  0  0  0  0  0
  -24.1486  -18.5400   19.7771 C   0  0  0  0  0  0  0  0  0  0  0  0
  -25.3042  -32.9437   25.8752 C   0  0  0  0  0  0  0  0  0  0  0  0
  -26.8901  -29.3060   20.7106 C   0  0  0  0  0  0  0  0  0  0  0  0
  -24.8928  -27.2392   20.0151 C   0  0  0  0  0  0  0  0  0  0  0  0
  -24.3127  -32.6567   24.7505 C   0  0  0  0  0  0  0  0  0  0  0  0
  -23.4768  -16.8672   22.8476 C   0  0  0  0  0  0  0  0  0  0  0  0
  -23.9016  -31.1878   24.7632 C   0  0  0  0  0  0  0  0  0  0  0  0
  -23.7848  -15.4007   22.5364 C   0  0  0  0  0  0  0  0  0  0  0  0
  -22.8374  -17.5777   21.6559 C   0  0  0  0  0  0  0  0  0  0  0  0
  -23.8888  -15.9995   20.0833 C   0  0  0  0  0  0  0  0  0  0  0  0
  -25.1112  -30.2744   24.5309 C   0  0  1  0  0  0  0  0  0  0  0  0
  -25.3912  -29.5728   20.8076 C   0  0  1  0  0  0  0  0  0  0  0  0
  -24.5934  -15.2592   21.2319 C   0  0  2  0  0  0  0  0  0  0  0  0
  -22.0460  -27.5964   14.1063 C   0  0  0  0  0  0  0  0  0  0  0  0
  -21.0554  -27.9807   20.6441 C   0  0  0  0  0  0  0  0  0  0  0  0
  -20.2850  -27.1782   18.4012 C   0  0  0  0  0  0  0  0  0  0  0  0
  -20.5215  -29.6232   18.8354 C   0  0  0  0  0  0  0  0  0  0  0  0
  -29.1153  -21.0222   20.9827 C   0  0  0  0  0  0  0  0  0  0  0  0
  -31.2163  -21.7451   19.8373 C   0  0  0  0  0  0  0  0  0  0  0  0
  -25.7730  -28.0119   14.7492 C   0  0  0  0  0  0  0  0  0  0  0  0
  -28.9636  -22.0224   18.6996 C   0  0  0  0  0  0  0  0  0  0  0  0
  -29.6187  -23.4745   20.7065 C   0  0  0  0  0  0  0  0  0  1  0  0
  -22.5976  -28.2023   18.5853 C   0  0  1  0  0  0  0  0  0  0  0  0
  -23.2784  -28.0743   14.8584 C   0  0  2  0  0  0  0  0  0  0  0  0
  -21.1405  -28.2387   19.1265 C   0  0  0  0  0  0  0  0  0  0  0  0
  -29.7282  -22.0827   20.0444 C   0  0  0  0  0  0  0  0  0  0  0  0
  -23.9509  -12.8784   21.2344 N   0  0  0  0  0  0  0  0  0  0  0  0
  -24.8618  -13.8052   20.8917 N   0  0  0  0  0  0  0  0  0  0  0  0
  -26.4769  -22.2764   13.9084 N   0  0  0  0  0  0  0  0  0  0  0  0
  -24.6020  -28.6812   19.9553 N   0  0  0  0  0  0  0  0  0  0  0  0
  -23.6608  -17.4041   20.4572 N   0  0  0  0  0  0  0  0  0  0  0  0
  -26.9662  -14.0876   19.8418 N   0  0  0  0  0  0  0  0  0  0  0  0
  -26.2648   -9.6334   19.5882 N   0  0  0  0  0  0  0  0  0  0  0  0
  -24.9468  -18.2510   18.6708 N   0  0  0  0  0  0  0  0  0  0  0  0
  -29.4536  -22.9989   17.7537 N   0  0  0  0  0  0  0  0  0  0  0  0
  -25.4681  -30.2551   23.1285 N   0  0  0  0  0  0  0  0  0  0  0  0
  -22.7110  -28.4702   17.1557 N   0  0  0  0  0  0  0  0  0  0  0  0
  -24.7323  -21.1583   12.9298 N   0  3  0  0  0  0  0  0  0  0  0  0
  -24.4879  -27.5943   14.1319 N   0  3  0  0  0  0  0  0  0  0  0  0
  -26.6307  -23.5194   11.8860 O   0  0  0  0  0  0  0  0  0  0  0  0
  -27.7345  -11.3188   19.0802 O   0  0  0  0  0  0  0  0  0  0  0  0
  -23.9742  -28.6100   22.4325 O   0  0  0  0  0  0  0  0  0  0  0  0
  -23.2219  -30.4048   19.2063 O   0  0  0  0  0  0  0  0  0  0  0  0
  -23.7494  -26.4716   16.6039 O   0  0  0  0  0  0  0  0  0  0  0  0
  -23.9006  -19.6847   20.1647 O   0  0  0  0  0  0  0  0  0  0  0  0
  -21.8146   -6.8858   21.5069 O   0  0  0  0  0  0  0  0  0  0  0  0
  -28.2561  -23.8139   20.9602 O   0  0  0  0  0  0  0  0  0  1  0  0
  -24.7468   -2.5792   23.3122 F   0  0  0  0  0  0  0  0  0  0  0  0
  -26.6192  -17.4424   16.5918 F   0  0  0  0  0  0  0  0  0  0  0  0
  -23.9707   -5.9326   20.0629 F   0  0  0  0  0  0  0  0  0  0  0  0
  1  2  1  0  0  0  0
  1  7  2  0  0  0  0
  2  8  2  0  0  0  0
  3 12  2  0  0  0  0
  3 21  1  0  0  0  0
  4 13  1  0  0  0  0
  4 21  2  0  0  0  0
  5 10  2  0  0  0  0
  5 22  1  0  0  0  0
  6 11  2  0  0  0  0
  6 23  1  0  0  0  0
  7 25  1  0  0  0  0
  8 27  1  0  0  0  0
  9 14  2  0  0  0  0
  9 26  1  0  0  0  0
 10 30  1  0  0  0  0
 11 31  1  0  0  0  0
 12 32  1  0  0  0  0
 13 32  2  0  0  0  0
 14 33  1  0  0  0  0
 15 16  2  0  0  0  0
 15 34  1  0  0  0  0
 16 35  1  0  0  0  0
 17 23  2  0  0  0  0
 17 36  1  0  0  0  0
 18 28  1  0  0  0  0
 18 33  2  0  0  0  0
 19 29  1  0  0  0  0
 19 30  2  0  0  0  0
 20 35  2  0  0  0  0
 20 37  1  0  0  0  0
 21 38  1  0  0  0  0
 22 29  2  0  0  0  0
 22 40  1  0  0  0  0
 23 41  1  0  0  0  0
 24 38  1  0  0  0  0
 24 39  2  0  0  0  0
 24 42  1  0  0  0  0
 25 27  2  0  0  0  0
 25 47  1  0  0  0  0
 26 28  2  0  0  0  0
 26 48  1  0  0  0  0
 27 56  1  0  0  0  0
 28 49  1  0  0  0  0
 29 74  1  0  0  0  0
 30 80  1  0  0  0  0
 31 36  2  0  0  0  0
 31 79  1  0  0  0  0
 32 91  1  0  0  0  0
 33 92  1  0  0  0  0
 34 37  2  0  0  0  0
 34 91  1  0  0  0  0
 35 93  1  0  0  0  0
 36 94  1  0  0  0  0
 37 95  1  0  0  0  0
 38 72  2  0  0  0  0
 39 73  1  0  0  0  0
 39 77  1  0  0  0  0
 40 74  1  0  0  0  0
 40 85  2  0  0  0  0
 41 74  1  0  0  0  0
 41 83  2  0  0  0  0
 42 78  1  0  0  0  0
 42 86  2  0  0  0  0
 43 57  1  0  0  0  0
 43 81  1  0  0  0  0
 43 87  2  0  0  0  0
 44 68  1  0  0  0  0
 44 75  1  0  0  0  0
 44 88  2  0  0  0  0
 45 69  1  0  0  0  0
 45 82  1  0  0  0  0
 45 89  2  0  0  0  0
 46 76  1  0  0  0  0
 46 79  1  0  0  0  0
 46 90  2  0  0  0  0
 47 50  1  0  0  0  0
 48 57  1  0  0  0  0
 49 75  1  0  0  0  0
 50 52  1  0  0  0  0
 51 53  1  0  0  0  0
 51 54  1  0  0  0  0
 52 56  1  0  0  0  0
 53 58  1  0  0  0  0
 54 76  1  0  0  0  0
 55 58  1  0  0  0  0
 55 76  1  0  0  0  0
 56 81  1  0  0  0  0
 57 75  1  0  0  0  0
 58 73  1  0  0  0  0
 59 69  1  0  0  0  0
 60 70  1  0  0  0  0
 61 70  1  0  0  0  0
 62 70  1  0  0  0  0
 63 71  1  0  0  0  0
 64 71  1  0  0  0  0
 65 84  1  0  0  0  0
 66 71  1  0  0  0  0
 66 80  1  0  0  0  0
 67 71  1  0  0  0  0
 67 92  1  0  0  0  0
 68 70  1  0  0  0  0
 68 82  1  0  0  0  0
 69 84  1  0  0  0  0
 72 73  1  0  0  0  0
M  CHG  2  83   1  84   1
M  ISO  4  46 100  67 101  79 100  92 101
M  END
> <Batch ID>
0143

> <Smiles>
CNC(C)C(=O)NC(C(=O)N1Cc2cc([101O:1][101CH2:1]C(C)(C)CNc3ccc4c(c3)N(C(=N)c3ccc([100NH:0][100C:0](=O)N5CCCC(n6nc(-c7ccc(Oc8ccc(F)cc8F)cc7)c(C(N)=O)c6N)C5)c(F)c3)C4=O)ccc2CC1C(=O)NC1CCCc2ccccc21)C(C)(C)C

> <Shape>
0.249

> <Color>
0.075

> <Negative vol penalty>
0.000

$$$$

  -OEChem-04052303003D

 86 94  0     1  0  0  0  0  0999 V2000
  -35.1573  -30.8091   24.2010 C   0  0  0  0  0  0  0  0  0  0  0  0
  -34.1490  -29.8870   24.4624 C   0  0  0  0  0  0  0  0  0  0  0  0
  -23.0722   -9.8717   19.9396 C   0  0  0  0  0  0  0  0  0  0  0  0
  -23.8334   -9.8738   22.2326 C   0  0  0  0  0  0  0  0  0  0  0  0
  -34.9198  -31.8722   23.3307 C   0  0  0  0  0  0  0  0  0  0  0  0
  -32.9020  -30.0281   23.8544 C   0  0  0  0  0  0  0  0  0  0  0  0
  -31.1221  -25.6506   22.0338 C   0  0  0  0  0  0  0  0  0  0  0  0
  -22.3275   -8.7187   20.1879 C   0  0  0  0  0  0  0  0  0  0  0  0
  -23.0886   -8.7209   22.4809 C   0  0  0  0  0  0  0  0  0  0  0  0
  -30.5663  -24.7588   22.9502 C   0  0  0  0  0  0  0  0  0  0  0  0
  -19.3794   -7.9221   21.6395 C   0  0  0  0  0  0  0  0  0  0  0  0
  -18.0722   -7.8779   21.1549 C   0  0  0  0  0  0  0  0  0  0  0  0
  -32.0621  -16.6023   22.5565 C   0  0  0  0  0  0  0  0  0  0  0  0
  -28.3577  -25.4940   22.3171 C   0  0  0  0  0  0  0  0  0  0  0  0
  -29.8896  -17.4498   23.1449 C   0  0  0  0  0  0  0  0  0  0  0  0
  -18.6294   -5.9367   19.8288 C   0  0  0  0  0  0  0  0  0  0  0  0
  -32.5987  -17.4980   23.4674 C   0  0  0  0  0  0  0  0  0  0  0  0
  -23.8252  -10.4492   20.9619 C   0  0  0  0  0  0  0  0  0  0  0  0
  -24.1692  -12.9743   20.8463 C   0  0  0  0  0  0  0  0  0  0  0  0
  -33.6723  -32.0209   22.7042 C   0  0  0  0  0  0  0  0  0  0  0  0
  -30.2988  -26.4799   21.2587 C   0  0  0  0  0  0  0  0  0  0  0  0
  -32.6471  -31.0948   22.9759 C   0  0  0  0  0  0  0  0  0  0  0  0
  -28.9054  -26.3935   21.3897 C   0  0  0  0  0  0  0  0  0  0  0  0
  -30.6809  -16.5841   22.3981 C   0  0  0  0  0  0  0  0  0  0  0  0
  -22.3356   -8.1433   21.4585 C   0  0  0  0  0  0  0  0  0  0  0  0
  -29.1841  -24.6825   23.0940 C   0  0  0  0  0  0  0  0  0  0  0  0
  -20.3116   -6.9737   21.2187 C   0  0  0  0  0  0  0  0  0  0  0  0
  -17.6971   -6.8852   20.2496 C   0  0  0  0  0  0  0  0  0  0  0  0
  -19.9366   -5.9810   20.3134 C   0  0  0  0  0  0  0  0  0  0  0  0
  -24.5952  -11.6399   20.7059 C   0  0  0  0  0  0  0  0  0  0  0  0
  -30.5234  -18.3074   24.0296 C   0  0  0  0  0  0  0  0  0  0  0  0
  -25.2618  -13.7234   20.4838 C   0  0  0  0  0  0  0  0  0  0  0  0
  -22.8994  -13.4904   21.2669 C   0  0  0  0  0  0  0  0  0  0  0  0
  -29.7261  -19.2585   24.8567 C   0  0  0  0  0  0  0  0  0  0  0  0
  -29.9182  -29.6221   20.9667 C   0  0  0  0  0  0  0  0  0  0  0  0
  -28.7744  -22.1190   25.7104 C   0  0  0  0  0  0  0  0  0  0  0  0
  -27.9306  -28.7642   18.5510 C   0  0  0  0  0  0  0  0  0  0  0  0
  -25.9188  -26.3832   17.1615 C   0  0  0  0  0  0  0  0  0  0  0  0
  -30.7290  -14.7639   20.6572 C   0  0  0  0  0  0  0  0  0  0  0  0
  -33.4477  -33.2128   21.8078 C   0  0  0  0  0  0  0  0  0  0  0  0
  -30.9129  -27.4174   20.2555 C   0  0  0  0  0  0  0  0  0  0  0  0
  -27.9771  -27.2476   20.5667 C   0  0  0  0  0  0  0  0  0  0  0  0
  -32.2176  -33.0792   20.9137 C   0  0  0  0  0  0  0  0  0  0  0  0
  -29.6111  -12.3554   18.2852 C   0  0  0  0  0  0  0  0  0  0  0  0
  -31.0209  -32.5878   21.7220 C   0  0  0  0  0  0  0  0  0  0  0  0
  -28.1715  -12.0643   18.7150 C   0  0  0  0  0  0  0  0  0  0  0  0
  -30.5271  -12.5812   19.4867 C   0  0  0  0  0  0  0  0  0  0  0  0
  -28.6216  -13.3048   20.8704 C   0  0  0  0  0  0  0  0  0  0  0  0
  -31.2891  -31.2000   22.3164 C   0  0  1  0  0  0  0  0  0  0  0  0
  -29.9975  -28.5807   19.8865 C   0  0  1  0  0  0  0  0  0  0  0  0
  -27.6480  -13.1346   19.6928 C   0  0  2  0  0  0  0  0  0  0  0  0
  -24.3967  -25.9869   15.2061 C   0  0  0  0  0  0  0  0  0  0  0  0
  -28.6212  -20.3816   27.5409 C   0  0  0  0  0  0  0  0  0  0  0  0
  -30.4841  -22.0309   27.5208 C   0  0  0  0  0  0  0  0  0  0  0  0
  -25.7787  -30.4680   19.8838 C   0  0  0  0  0  0  0  0  0  0  0  0
  -24.0757  -29.3004   18.4679 C   0  0  0  0  0  0  0  0  0  0  0  0
  -25.8679  -30.6617   17.3920 C   0  0  0  0  0  0  0  0  0  0  0  0
  -27.5855  -24.1482   16.1687 C   0  0  0  0  0  0  0  0  0  0  0  0
  -30.4667  -20.1853   25.8184 C   0  0  0  0  0  0  0  0  0  0  0  0
  -29.5424  -23.0098   24.7462 C   0  0  0  0  0  0  0  0  0  1  0  0
  -26.4606  -28.4387   18.4405 C   0  0  1  0  0  0  0  0  0  0  0  0
  -25.8141  -25.8565   15.7416 C   0  0  2  0  0  0  0  0  0  0  0  0
  -29.5796  -21.1660   26.6221 C   0  0  0  0  0  0  0  0  0  0  0  0
  -25.5630  -29.7024   18.5631 C   0  0  0  0  0  0  0  0  0  0  0  0
  -31.8623  -18.3541   24.2106 N   0  0  0  0  0  0  0  0  0  0  0  0
  -25.8598  -11.5437   20.2867 N   0  0  0  0  0  0  0  0  0  0  0  0
  -26.2377  -12.8271   20.1605 N   0  0  0  0  0  0  0  0  0  0  0  0
  -28.6258  -28.1531   19.6041 N   0  0  0  0  0  0  0  0  0  0  0  0
  -29.9696  -13.6109   20.3663 N   0  0  0  0  0  0  0  0  0  0  0  0
  -25.4734  -15.0548   20.4130 N   0  0  0  0  0  0  0  0  0  0  0  0
  -21.8869  -12.5815   21.6031 N   0  0  0  0  0  0  0  0  0  0  0  0
  -30.0830  -15.6880   21.4776 N   0  0  0  0  0  0  0  0  0  0  0  0
  -31.1377  -30.1781   21.3028 N   0  0  0  0  0  0  0  0  0  0  0  0
  -26.2971  -27.7089   17.1879 N   0  0  0  0  0  0  0  0  0  0  0  0
  -26.2048  -24.4192   15.6922 N   0  3  0  0  0  0  0  0  0  0  0  0
  -22.6643  -14.7212   21.3266 O   0  0  0  0  0  0  0  0  0  0  0  0
  -28.5054  -19.2778   24.7229 O   0  0  0  0  0  0  0  0  0  0  0  0
  -28.8308  -29.9016   21.4578 O   0  0  0  0  0  0  0  0  0  0  0  0
  -27.5441  -22.1808   25.7739 O   0  0  0  0  0  0  0  0  0  0  0  0
  -28.4446  -29.5267   17.7288 O   0  0  0  0  0  0  0  0  0  0  0  0
  -25.6845  -25.6892   18.1484 O   0  0  0  0  0  0  0  0  0  0  0  0
  -31.8580  -14.9325   20.1892 O   0  0  0  0  0  0  0  0  0  0  0  0
  -21.6088   -7.0184   21.7013 O   0  0  0  0  0  0  0  0  0  0  0  0
  -28.6391  -23.8134   23.9882 O   0  0  0  0  0  0  0  0  0  1  0  0
  -16.4414   -6.8420   19.7855 F   0  0  0  0  0  0  0  0  0  0  0  0
  -20.8275   -5.0664   19.9063 F   0  0  0  0  0  0  0  0  0  0  0  0
  1  2  1  0  0  0  0
  1  5  2  0  0  0  0
  2  6  2  0  0  0  0
  3  8  2  0  0  0  0
  3 18  1  0  0  0  0
  4  9  1  0  0  0  0
  4 18  2  0  0  0  0
  5 20  1  0  0  0  0
  6 22  1  0  0  0  0
  7 10  2  0  0  0  0
  7 21  1  0  0  0  0
  8 25  1  0  0  0  0
  9 25  2  0  0  0  0
 10 26  1  0  0  0  0
 11 12  2  0  0  0  0
 11 27  1  0  0  0  0
 12 28  1  0  0  0  0
 13 17  2  0  0  0  0
 13 24  1  0  0  0  0
 14 23  1  0  0  0  0
 14 26  2  0  0  0  0
 15 24  2  0  0  0  0
 15 31  1  0  0  0  0
 16 28  2  0  0  0  0
 16 29  1  0  0  0  0
 17 65  1  0  0  0  0
 18 30  1  0  0  0  0
 19 30  1  0  0  0  0
 19 32  2  0  0  0  0
 19 33  1  0  0  0  0
 20 22  2  0  0  0  0
 20 40  1  0  0  0  0
 21 23  2  0  0  0  0
 21 41  1  0  0  0  0
 22 49  1  0  0  0  0
 23 42  1  0  0  0  0
 24 72  1  0  0  0  0
 25 83  1  0  0  0  0
 26 84  1  0  0  0  0
 27 29  2  0  0  0  0
 27 83  1  0  0  0  0
 28 85  1  0  0  0  0
 29 86  1  0  0  0  0
 30 66  2  0  0  0  0
 31 34  1  0  0  0  0
 31 65  2  0  0  0  0
 32 67  1  0  0  0  0
 32 70  1  0  0  0  0
 33 71  1  0  0  0  0
 33 76  2  0  0  0  0
 34 59  1  0  0  0  0
 34 77  2  0  0  0  0
 35 50  1  0  0  0  0
 35 73  1  0  0  0  0
 35 78  2  0  0  0  0
 36 60  1  0  0  0  0
 36 63  1  0  0  0  0
 36 79  2  0  0  0  0
 37 61  1  0  0  0  0
 37 68  1  0  0  0  0
 37 80  2  0  0  0  0
 38 62  1  0  0  0  0
 38 74  1  0  0  0  0
 38 81  2  0  0  0  0
 39 69  1  0  0  0  0
 39 72  1  0  0  0  0
 39 82  2  0  0  0  0
 40 43  1  0  0  0  0
 41 50  1  0  0  0  0
 42 68  1  0  0  0  0
 43 45  1  0  0  0  0
 44 46  1  0  0  0  0
 44 47  1  0  0  0  0
 45 49  1  0  0  0  0
 46 51  1  0  0  0  0
 47 69  1  0  0  0  0
 48 51  1  0  0  0  0
 48 69  1  0  0  0  0
 49 73  1  0  0  0  0
 50 68  1  0  0  0  0
 51 67  1  0  0  0  0
 52 62  1  0  0  0  0
 53 63  1  0  0  0  0
 54 63  1  0  0  0  0
 55 64  1  0  0  0  0
 56 64  1  0  0  0  0
 57 64  1  0  0  0  0
 58 75  1  0  0  0  0
 59 63  1  0  0  0  0
 60 84  1  0  0  0  0
 61 64  1  0  0  0  0
 61 74  1  0  0  0  0
 62 75  1  0  0  0  0
 66 67  1  0  0  0  0
M  CHG  1  75   1
M  ISO  4  39 100  60 101  72 100  84 101
M  END
> <Batch ID>
0143

> <Smiles>
CNC(C)C(=O)NC(C(=O)N1Cc2cc([101O:1][101CH2:1]C(=O)C(C)(C)CC(=O)c3cc([100NH:0][100C:0](=O)N4CCCC(n5nc(-c6ccc(Oc7ccc(F)cc7F)cc6)c(C(N)=O)c5N)C4)ccn3)ccc2CC1C(=O)NC1CCCc2ccccc21)C(C)(C)C

> <Shape>
0.200

> <Color>
0.184

> <Negative vol penalty>
0.000

$$$$

  -OEChem-04052303003D

 86 95  0     1  0  0  0  0  0999 V2000
  -31.5043  -34.4062   20.7115 C   0  0  0  0  0  0  0  0  0  0  0  0
  -31.5109  -33.1275   21.2594 C   0  0  0  0  0  0  0  0  0  0  0  0
  -23.0742   -9.8677   19.9404 C   0  0  0  0  0  0  0  0  0  0  0  0
  -23.8327   -9.8747   22.2342 C   0  0  0  0  0  0  0  0  0  0  0  0
  -30.8231  -34.6492   19.5195 C   0  0  0  0  0  0  0  0  0  0  0  0
  -30.8353  -32.0911   20.6161 C   0  0  0  0  0  0  0  0  0  0  0  0
  -32.4928  -26.1999   20.3865 C   0  0  0  0  0  0  0  0  0  0  0  0
  -32.0601  -16.6084   22.5537 C   0  0  0  0  0  0  0  0  0  0  0  0
  -22.3302   -8.7146   20.1899 C   0  0  0  0  0  0  0  0  0  0  0  0
  -23.0886   -8.7216   22.4838 C   0  0  0  0  0  0  0  0  0  0  0  0
  -32.0910  -25.0833   21.1183 C   0  0  0  0  0  0  0  0  0  0  0  0
  -32.6478  -17.4928   23.4581 C   0  0  0  0  0  0  0  0  0  0  0  0
  -19.3810   -7.9181   21.6394 C   0  0  0  0  0  0  0  0  0  0  0  0
  -18.0744   -7.8719   21.1534 C   0  0  0  0  0  0  0  0  0  0  0  0
  -29.8763  -17.4581   23.1418 C   0  0  0  0  0  0  0  0  0  0  0  0
  -30.5152  -24.5193   19.3810 C   0  0  0  0  0  0  0  0  0  0  0  0
  -18.6349   -5.9288   19.8315 C   0  0  0  0  0  0  0  0  0  0  0  0
  -23.8256  -10.4477   20.9625 C   0  0  0  0  0  0  0  0  0  0  0  0
  -30.4640  -18.3426   24.0463 C   0  0  0  0  0  0  0  0  0  0  0  0
  -24.1676  -12.9729   20.8426 C   0  0  0  0  0  0  0  0  0  0  0  0
  -30.1469  -33.6131   18.8562 C   0  0  0  0  0  0  0  0  0  0  0  0
  -31.9001  -26.4912   19.1495 C   0  0  0  0  0  0  0  0  0  0  0  0
  -30.1433  -32.3207   19.4148 C   0  0  0  0  0  0  0  0  0  0  0  0
  -30.9130  -25.6388   18.6343 C   0  0  0  0  0  0  0  0  0  0  0  0
  -30.6743  -16.5911   22.3955 C   0  0  0  0  0  0  0  0  0  0  0  0
  -22.3373   -8.1415   21.4616 C   0  0  0  0  0  0  0  0  0  0  0  0
  -31.1000  -24.2444   20.6169 C   0  0  0  0  0  0  0  0  0  0  0  0
  -31.8498  -18.3599   24.2044 C   0  0  0  0  0  0  0  0  0  0  0  0
  -20.3146   -6.9697   21.2215 C   0  0  0  0  0  0  0  0  0  0  0  0
  -17.7013   -6.8773   20.2494 C   0  0  0  0  0  0  0  0  0  0  0  0
  -19.9415   -5.9750   20.3175 C   0  0  0  0  0  0  0  0  0  0  0  0
  -24.5948  -11.6386   20.7052 C   0  0  0  0  0  0  0  0  0  0  0  0
  -25.2600  -13.7223   20.4800 C   0  0  0  0  0  0  0  0  0  0  0  0
  -29.2084  -22.3024   22.9690 C   0  0  0  0  0  0  0  0  0  0  0  0
  -29.6775  -23.3034   22.2174 C   0  0  0  0  0  0  0  0  0  1  0  0
  -29.6068  -19.2528   24.8265 C   0  0  0  0  0  0  0  0  0  0  0  0
  -22.8968  -13.4887   21.2607 C   0  0  0  0  0  0  0  0  0  0  0  0
  -30.1903  -28.9095   17.9953 C   0  0  0  0  0  0  0  0  0  0  0  0
  -30.4919  -27.2813   15.2060 C   0  0  0  0  0  0  0  0  0  0  0  0
  -31.0237  -24.2984   13.6354 C   0  0  0  0  0  0  0  0  0  0  0  0
  -30.7261  -14.7677   20.6580 C   0  0  0  0  0  0  0  0  0  0  0  0
  -29.3850  -33.9343   17.5949 C   0  0  0  0  0  0  0  0  0  0  0  0
  -32.3635  -27.6847   18.3600 C   0  0  0  0  0  0  0  0  0  0  0  0
  -30.2597  -25.8961   17.3019 C   0  0  0  0  0  0  0  0  0  0  0  0
  -28.0840  -22.4165   23.9561 C   0  0  0  0  0  0  0  0  0  0  0  0
  -29.8047  -20.9297   23.0385 C   0  0  0  0  0  0  0  0  0  0  0  0
  -29.0076  -32.6998   16.7802 C   0  0  0  0  0  0  0  0  0  0  0  0
  -29.6130  -12.3538   18.2891 C   0  0  0  0  0  0  0  0  0  0  0  0
  -28.4208  -31.6215   17.6856 C   0  0  0  0  0  0  0  0  0  0  0  0
  -28.1731  -12.0623   18.7178 C   0  0  0  0  0  0  0  0  0  0  0  0
  -28.4739  -21.4258   25.0462 C   0  0  0  0  0  0  0  0  0  0  0  0
  -30.5274  -12.5827   19.4913 C   0  0  0  0  0  0  0  0  0  0  0  0
  -28.6196  -13.3072   20.8714 C   0  0  0  0  0  0  0  0  0  0  0  0
  -29.4429  -31.1650   18.7337 C   0  0  1  0  0  0  0  0  0  0  0  0
  -31.3289  -28.1714   17.3500 C   0  0  1  0  0  0  0  0  0  0  0  0
  -27.6475  -13.1340   19.6930 C   0  0  2  0  0  0  0  0  0  0  0  0
  -31.1764  -23.2758   11.3489 C   0  0  0  0  0  0  0  0  0  0  0  0
  -27.4538  -27.4034   14.9512 C   0  0  0  0  0  0  0  0  0  0  0  0
  -27.5962  -25.5999   13.2204 C   0  0  0  0  0  0  0  0  0  0  0  0
  -28.6965  -27.8022   12.8179 C   0  0  0  0  0  0  0  0  0  0  0  0
  -33.8216  -23.4415   14.0786 C   0  0  0  0  0  0  0  0  0  0  0  0
  -29.6974  -26.2065   14.5042 C   0  0  1  0  0  0  0  0  0  0  0  0
  -31.9479  -23.9111   12.4951 C   0  0  2  0  0  0  0  0  0  0  0  0
  -28.3717  -26.7490   13.8995 C   0  0  0  0  0  0  0  0  0  0  0  0
  -25.8599  -11.5427   20.2877 N   0  0  0  0  0  0  0  0  0  0  0  0
  -26.2370  -12.8262   20.1596 N   0  0  0  0  0  0  0  0  0  0  0  0
  -29.3148  -20.4458   24.3399 N   0  0  0  0  0  0  0  0  0  0  0  0
  -30.7426  -27.0791   16.5706 N   0  0  0  0  0  0  0  0  0  0  0  0
  -29.9679  -13.6135   20.3683 N   0  0  0  0  0  0  0  0  0  0  0  0
  -25.4705  -15.0538   20.4071 N   0  0  0  0  0  0  0  0  0  0  0  0
  -21.8847  -12.5796   21.5974 N   0  0  0  0  0  0  0  0  0  0  0  0
  -30.0782  -15.6928   21.4760 N   0  0  0  0  0  0  0  0  0  0  0  0
  -30.4091  -30.2663   18.1393 N   0  0  0  0  0  0  0  0  0  0  0  0
  -30.5983  -25.6055   13.5266 N   0  0  0  0  0  0  0  0  0  0  0  0
  -29.1392  -18.8583   26.0072 N   0  3  0  0  0  0  0  0  0  0  0  0
  -32.9737  -22.9386   12.9673 N   0  3  0  0  0  0  0  0  0  0  0  0
  -22.6606  -14.7194   21.3179 O   0  0  0  0  0  0  0  0  0  0  0  0
  -29.1869  -28.2940   18.3359 O   0  0  0  0  0  0  0  0  0  0  0  0
  -30.8822  -28.2605   14.5654 O   0  0  0  0  0  0  0  0  0  0  0  0
  -30.7076  -23.5183   14.5310 O   0  0  0  0  0  0  0  0  0  0  0  0
  -31.8555  -14.9364   20.1911 O   0  0  0  0  0  0  0  0  0  0  0  0
  -32.4398  -19.2176   25.0835 O   0  0  0  0  0  0  0  0  0  0  0  0
  -21.6112   -7.0165   21.7055 O   0  0  0  0  0  0  0  0  0  0  0  0
  -30.7055  -23.1542   21.3294 O   0  0  0  0  0  0  0  0  0  1  0  0
  -16.4461   -6.8321   19.7840 F   0  0  0  0  0  0  0  0  0  0  0  0
  -20.8336   -5.0605   19.9133 F   0  0  0  0  0  0  0  0  0  0  0  0
  1  2  1  0  0  0  0
  1  5  2  0  0  0  0
  2  6  2  0  0  0  0
  3  9  2  0  0  0  0
  3 18  1  0  0  0  0
  4 10  1  0  0  0  0
  4 18  2  0  0  0  0
  5 21  1  0  0  0  0
  6 23  1  0  0  0  0
  7 11  2  0  0  0  0
  7 22  1  0  0  0  0
  8 12  2  0  0  0  0
  8 25  1  0  0  0  0
  9 26  1  0  0  0  0
 10 26  2  0  0  0  0
 11 27  1  0  0  0  0
 12 28  1  0  0  0  0
 13 14  2  0  0  0  0
 13 29  1  0  0  0  0
 14 30  1  0  0  0  0
 15 19  1  0  0  0  0
 15 25  2  0  0  0  0
 16 24  1  0  0  0  0
 16 27  2  0  0  0  0
 17 30  2  0  0  0  0
 17 31  1  0  0  0  0
 18 32  1  0  0  0  0
 19 28  2  0  0  0  0
 19 36  1  0  0  0  0
 20 32  1  0  0  0  0
 20 33  2  0  0  0  0
 20 37  1  0  0  0  0
 21 23  2  0  0  0  0
 21 42  1  0  0  0  0
 22 24  2  0  0  0  0
 22 43  1  0  0  0  0
 23 54  1  0  0  0  0
 24 44  1  0  0  0  0
 25 72  1  0  0  0  0
 26 83  1  0  0  0  0
 27 84  1  0  0  0  0
 28 82  1  0  0  0  0
 29 31  2  0  0  0  0
 29 83  1  0  0  0  0
 30 85  1  0  0  0  0
 31 86  1  0  0  0  0
 32 65  2  0  0  0  0
 33 66  1  0  0  0  0
 33 70  1  0  0  0  0
 34 35  2  0  0  0  0
 34 45  1  0  0  0  0
 34 46  1  0  0  0  0
 35 84  1  0  0  0  0
 36 67  1  0  0  0  0
 36 75  2  0  0  0  0
 37 71  1  0  0  0  0
 37 77  2  0  0  0  0
 38 55  1  0  0  0  0
 38 73  1  0  0  0  0
 38 78  2  0  0  0  0
 39 62  1  0  0  0  0
 39 68  1  0  0  0  0
 39 79  2  0  0  0  0
 40 63  1  0  0  0  0
 40 74  1  0  0  0  0
 40 80  2  0  0  0  0
 41 69  1  0  0  0  0
 41 72  1  0  0  0  0
 41 81  2  0  0  0  0
 42 47  1  0  0  0  0
 43 55  1  0  0  0  0
 44 68  1  0  0  0  0
 45 51  1  0  0  0  0
 46 67  1  0  0  0  0
 47 49  1  0  0  0  0
 48 50  1  0  0  0  0
 48 52  1  0  0  0  0
 49 54  1  0  0  0  0
 50 56  1  0  0  0  0
 51 67  1  0  0  0  0
 52 69  1  0  0  0  0
 53 56  1  0  0  0  0
 53 69  1  0  0  0  0
 54 73  1  0  0  0  0
 55 68  1  0  0  0  0
 56 66  1  0  0  0  0
 57 63  1  0  0  0  0
 58 64  1  0  0  0  0
 59 64  1  0  0  0  0
 60 64  1  0  0  0  0
 61 76  1  0  0  0  0
 62 64  1  0  0  0  0
 62 74  1  0  0  0  0
 63 76  1  0  0  0  0
 65 66  1  0  0  0  0
M  CHG  2  75   1  76   1
M  ISO  4  35 101  41 100  72 100  84 101
M  END
> <Batch ID>
0143

> <Smiles>
CNC(C)C(=O)NC(C(=O)N1Cc2cc([101O:1][101CH:1]=C3CCN(C(=N)c4cc([100NH:0][100C:0](=O)N5CCCC(n6nc(-c7ccc(Oc8ccc(F)cc8F)cc7)c(C(N)=O)c6N)C5)ccc4O)C3)ccc2CC1C(=O)NC1CCCc2ccccc21)C(C)(C)C

> <Shape>
0.185

> <Color>
0.180

> <Negative vol penalty>
0.000

$$$$

  -OEChem-04052303003D

 90 98  0     1  0  0  0  0  0999 V2000
  -17.8367  -25.0656   24.2440 C   0  0  0  0  0  0  0  0  0  0  0  0
  -19.0327  -25.1123   23.5349 C   0  0  0  0  0  0  0  0  0  0  0  0
  -23.1226   -9.8126   20.8359 C   0  0  0  0  0  0  0  0  0  0  0  0
  -23.2916  -11.2965   22.7350 C   0  0  0  0  0  0  0  0  0  0  0  0
  -17.1455  -26.2443   24.5212 C   0  0  0  0  0  0  0  0  0  0  0  0
  -19.5376  -26.3377   23.1016 C   0  0  0  0  0  0  0  0  0  0  0  0
  -24.5065  -26.8045   23.9604 C   0  0  0  0  0  0  0  0  0  0  0  0
  -22.2704   -8.9805   21.5619 C   0  0  0  0  0  0  0  0  0  0  0  0
  -22.4393  -10.4644   23.4610 C   0  0  0  0  0  0  0  0  0  0  0  0
  -25.3687  -26.1474   23.0836 C   0  0  0  0  0  0  0  0  0  0  0  0
  -22.5474   -6.6113   23.9566 C   0  0  0  0  0  0  0  0  0  0  0  0
  -22.7804   -5.2373   23.8990 C   0  0  0  0  0  0  0  0  0  0  0  0
  -25.7513  -28.2224   21.9144 C   0  0  0  0  0  0  0  0  0  0  0  0
  -20.5714   -4.9013   22.9798 C   0  0  0  0  0  0  0  0  0  0  0  0
  -31.5759  -17.6494   20.7288 C   0  0  0  0  0  0  0  0  0  0  0  0
  -31.1765  -19.9079   20.8623 C   0  0  0  0  0  0  0  0  0  0  0  0
  -23.6332  -10.9705   21.4225 C   0  0  0  0  0  0  0  0  0  0  0  0
  -24.1491  -12.9172   19.8566 C   0  0  0  0  0  0  0  0  0  0  0  0
  -17.6472  -27.4857   24.0995 C   0  0  0  0  0  0  0  0  0  0  0  0
  -24.2514  -28.1756   23.8138 C   0  0  0  0  0  0  0  0  0  0  0  0
  -18.8518  -27.5340   23.3723 C   0  0  0  0  0  0  0  0  0  0  0  0
  -24.8875  -28.8950   22.7921 C   0  0  0  0  0  0  0  0  0  0  0  0
  -29.4174  -18.4700   20.1592 C   0  0  0  0  0  0  0  0  0  0  0  0
  -30.2830  -17.3913   20.3026 C   0  0  0  0  0  0  0  0  0  0  0  0
  -29.8649  -19.7557   20.4422 C   0  0  0  0  0  0  0  0  0  0  0  0
  -21.9287   -9.3064   22.8744 C   0  0  0  0  0  0  0  0  0  0  0  0
  -25.9890  -26.8557   22.0587 C   0  0  0  0  0  0  0  0  0  0  0  0
  -21.3264   -7.1304   23.5259 C   0  0  0  0  0  0  0  0  0  0  0  0
  -21.7924   -4.3823   23.4105 C   0  0  0  0  0  0  0  0  0  0  0  0
  -20.3385   -6.2754   23.0375 C   0  0  0  0  0  0  0  0  0  0  0  0
  -24.5140  -11.8302   20.6733 C   0  0  0  0  0  0  0  0  0  0  0  0
  -25.3412  -13.3998   19.3745 C   0  0  0  0  0  0  0  0  0  0  0  0
  -22.8488  -13.4437   19.5604 C   0  0  0  0  0  0  0  0  0  0  0  0
  -21.6649  -29.9249   23.2191 C   0  0  0  0  0  0  0  0  0  0  0  0
  -28.8766  -24.9410   20.9748 C   0  0  0  0  0  0  0  0  0  0  0  0
  -23.6933  -32.3996   23.7516 C   0  0  0  0  0  0  0  0  0  0  0  0
  -26.9040  -33.5555   23.7981 C   0  0  0  0  0  0  0  0  0  0  0  0
  -30.6487  -14.9049   20.1282 C   0  0  0  0  0  0  0  0  0  0  0  0
  -16.8405  -28.7285   24.3817 C   0  0  0  0  0  0  0  0  0  0  0  0
  -23.3396  -28.8751   24.7842 C   0  0  0  0  0  0  0  0  0  0  0  0
  -24.6629  -30.3725   22.6044 C   0  0  0  0  0  0  0  0  0  0  0  0
  -17.6343  -30.0213   24.2123 C   0  0  0  0  0  0  0  0  0  0  0  0
  -30.0070  -11.4471   19.5724 C   0  0  0  0  0  0  0  0  0  0  0  0
  -18.4274  -29.9940   22.9096 C   0  0  0  0  0  0  0  0  0  0  0  0
  -28.4907  -11.3279   19.7421 C   0  0  0  0  0  0  0  0  0  0  0  0
  -30.6093  -12.4561   20.5485 C   0  0  0  0  0  0  0  0  0  0  0  0
  -28.4688  -13.6660   20.7013 C   0  0  0  0  0  0  0  0  0  0  0  0
  -19.4445  -28.8464   22.9069 C   0  0  1  0  0  0  0  0  0  0  0  0
  -22.7527  -30.1682   24.2266 C   0  0  1  0  0  0  0  0  0  0  0  0
  -27.8081  -12.7091   19.6955 C   0  0  2  0  0  0  0  0  0  0  0  0
  -27.9270  -17.9994   18.1986 C   0  0  0  0  0  0  0  0  0  0  0  0
  -28.2442  -35.6315   24.2360 C   0  0  0  0  0  0  0  0  0  0  0  0
  -29.1803  -22.8592   22.4453 C   0  0  0  0  0  0  0  0  0  0  0  0
  -31.0458  -24.4499   22.0121 C   0  0  0  0  0  0  0  0  0  0  0  0
  -22.8372  -33.5201   21.0458 C   0  0  0  0  0  0  0  0  0  0  0  0
  -24.8430  -35.0171   21.1093 C   0  0  0  0  0  0  0  0  0  0  0  0
  -23.0742  -35.2301   22.8553 C   0  0  0  0  0  0  0  0  0  0  0  0
  -28.0064  -22.5857   18.9571 C   0  0  0  0  0  0  0  0  0  0  0  0
  -30.0536  -21.3829   18.1996 C   0  0  0  0  0  0  0  0  0  0  0  0
  -28.3751  -32.2759   26.0246 C   0  0  0  0  0  0  0  0  0  0  0  0
  -28.0103  -18.2481   19.7004 C   0  0  0  0  0  0  0  0  0  0  0  0
  -27.5499  -25.0979   21.6987 C   0  0  0  0  0  0  0  0  0  1  0  0
  -30.2831  -22.9752   20.1294 C   0  0  0  0  0  0  0  0  0  0  0  0
  -24.6178  -33.2281   22.8925 C   0  0  1  0  0  0  0  0  0  0  0  0
  -27.6714  -34.3562   24.8346 C   0  0  2  0  0  0  0  0  0  0  0  0
  -29.8051  -23.7750   21.3842 C   0  0  0  0  0  0  0  0  0  0  0  0
  -23.8460  -34.2206   21.9778 C   0  0  0  0  0  0  0  0  0  0  0  0
  -29.3276  -21.9700   19.4254 C   0  0  0  0  0  0  0  0  0  0  0  0
  -32.0466  -18.8844   21.0133 N   0  0  0  0  0  0  0  0  0  0  0  0
  -25.8346  -11.6334   20.7101 N   0  0  0  0  0  0  0  0  0  0  0  0
  -26.3099  -12.6033   19.9105 N   0  0  0  0  0  0  0  0  0  0  0  0
  -23.7579  -31.0102   23.5748 N   0  0  0  0  0  0  0  0  0  0  0  0
  -29.9157  -13.7418   20.4453 N   0  0  0  0  0  0  0  0  0  0  0  0
  -25.6448  -14.4235   18.5485 N   0  0  0  0  0  0  0  0  0  0  0  0
  -21.7309  -12.8282   20.1398 N   0  0  0  0  0  0  0  0  0  0  0  0
  -29.8776  -16.0622   20.0252 N   0  0  0  0  0  0  0  0  0  0  0  0
  -29.0426  -20.8576   20.3154 N   0  0  0  0  0  0  0  0  0  0  0  0
  -20.5994  -29.1928   23.7072 N   0  0  0  0  0  0  0  0  0  0  0  0
  -25.5606  -33.8660   23.8049 N   0  0  0  0  0  0  0  0  0  0  0  0
  -28.7967  -33.5483   25.3842 N   0  3  0  0  0  0  0  0  0  0  0  0
  -22.6821  -14.4204   18.7912 O   0  0  0  0  0  0  0  0  0  0  0  0
  -21.7828  -30.3697   22.0833 O   0  0  0  0  0  0  0  0  0  0  0  0
  -29.2273  -25.7704   20.1312 O   0  0  0  0  0  0  0  0  0  0  0  0
  -22.9468  -32.9640   24.5551 O   0  0  0  0  0  0  0  0  0  0  0  0
  -27.4431  -32.7392   23.0541 O   0  0  0  0  0  0  0  0  0  0  0  0
  -31.8665  -14.8716   19.9335 O   0  0  0  0  0  0  0  0  0  0  0  0
  -21.0970   -8.4949   23.5830 O   0  0  0  0  0  0  0  0  0  0  0  0
  -26.8386  -26.2105   21.1929 O   0  0  0  0  0  0  0  0  0  1  0  0
  -22.0168   -3.0630   23.3538 F   0  0  0  0  0  0  0  0  0  0  0  0
  -19.1640   -6.7683   22.6211 F   0  0  0  0  0  0  0  0  0  0  0  0
  1  2  1  0  0  0  0
  1  5  2  0  0  0  0
  2  6  2  0  0  0  0
  3  8  2  0  0  0  0
  3 17  1  0  0  0  0
  4  9  1  0  0  0  0
  4 17  2  0  0  0  0
  5 19  1  0  0  0  0
  6 21  1  0  0  0  0
  7 10  2  0  0  0  0
  7 20  1  0  0  0  0
  8 26  1  0  0  0  0
  9 26  2  0  0  0  0
 10 27  1  0  0  0  0
 11 12  2  0  0  0  0
 11 28  1  0  0  0  0
 12 29  1  0  0  0  0
 13 22  1  0  0  0  0
 13 27  2  0  0  0  0
 14 29  2  0  0  0  0
 14 30  1  0  0  0  0
 15 24  1  0  0  0  0
 15 69  2  0  0  0  0
 16 25  2  0  0  0  0
 16 69  1  0  0  0  0
 17 31  1  0  0  0  0
 18 31  1  0  0  0  0
 18 32  2  0  0  0  0
 18 33  1  0  0  0  0
 19 21  2  0  0  0  0
 19 39  1  0  0  0  0
 20 22  2  0  0  0  0
 20 40  1  0  0  0  0
 21 48  1  0  0  0  0
 22 41  1  0  0  0  0
 23 24  2  0  0  0  0
 23 25  1  0  0  0  0
 23 61  1  0  0  0  0
 24 76  1  0  0  0  0
 25 77  1  0  0  0  0
 26 87  1  0  0  0  0
 27 88  1  0  0  0  0
 28 30  2  0  0  0  0
 28 87  1  0  0  0  0
 29 89  1  0  0  0  0
 30 90  1  0  0  0  0
 31 70  2  0  0  0  0
 32 71  1  0  0  0  0
 32 74  1  0  0  0  0
 33 75  1  0  0  0  0
 33 81  2  0  0  0  0
 34 49  1  0  0  0  0
 34 78  1  0  0  0  0
 34 82  2  0  0  0  0
 35 62  1  0  0  0  0
 35 66  1  0  0  0  0
 35 83  2  0  0  0  0
 36 64  1  0  0  0  0
 36 72  1  0  0  0  0
 36 84  2  0  0  0  0
 37 65  1  0  0  0  0
 37 79  1  0  0  0  0
 37 85  2  0  0  0  0
 38 73  1  0  0  0  0
 38 76  1  0  0  0  0
 38 86  2  0  0  0  0
 39 42  1  0  0  0  0
 40 49  1  0  0  0  0
 41 72  1  0  0  0  0
 42 44  1  0  0  0  0
 43 45  1  0  0  0  0
 43 46  1  0  0  0  0
 44 48  1  0  0  0  0
 45 50  1  0  0  0  0
 46 73  1  0  0  0  0
 47 50  1  0  0  0  0
 47 73  1  0  0  0  0
 48 78  1  0  0  0  0
 49 72  1  0  0  0  0
 50 71  1  0  0  0  0
 51 61  1  0  0  0  0
 52 65  1  0  0  0  0
 53 66  1  0  0  0  0
 54 66  1  0  0  0  0
 55 67  1  0  0  0  0
 56 67  1  0  0  0  0
 57 67  1  0  0  0  0
 58 68  1  0  0  0  0
 59 68  1  0  0  0  0
 60 80  1  0  0  0  0
 62 88  1  0  0  0  0
 63 66  1  0  0  0  0
 63 68  1  0  0  0  0
 64 67  1  0  0  0  0
 64 79  1  0  0  0  0
 65 80  1  0  0  0  0
 68 77  1  0  0  0  0
 70 71  1  0  0  0  0
M  CHG  1  80   1
M  ISO  4  38 100  62 101  76 100  88 101
M  END
> <Batch ID>
0143

> <Smiles>
CCc1c(NC(C)(C)CC(C)(C)C(=O)[101CH2:1][101O:1]c2ccc3c(c2)CN(C(=O)C(NC(=O)C(C)NC)C(C)(C)C)C(C(=O)NC2CCCc4ccccc42)C3)cncc1[100NH:0][100C:0](=O)N1CCCC(n2nc(-c3ccc(Oc4ccc(F)cc4F)cc3)c(C(N)=O)c2N)C1

> <Shape>
0.332

> <Color>
0.117

> <Negative vol penalty>
0.000

$$$$

  -OEChem-04052303003D

 86 94  0     1  0  0  0  0  0999 V2000
  -24.0816  -23.0499   15.9509 C   0  0  0  0  0  0  0  0  0  0  0  0
  -25.0857  -22.4725   16.7214 C   0  0  0  0  0  0  0  0  0  0  0  0
  -20.4813  -27.1827   23.4968 C   0  0  0  0  0  0  0  0  0  0  0  0
  -19.2952  -27.9981   21.5563 C   0  0  0  0  0  0  0  0  0  0  0  0
  -28.3968  -23.1284   20.0857 C   0  0  0  0  0  0  0  0  0  0  0  0
  -22.7472  -22.7227   16.1880 C   0  0  0  0  0  0  0  0  0  0  0  0
  -24.7558  -21.5682   17.7303 C   0  0  0  0  0  0  0  0  0  0  0  0
  -27.7411  -17.4776   17.7248 C   0  0  0  0  0  0  0  0  0  0  0  0
  -28.4009  -21.7560   20.3347 C   0  0  0  0  0  0  0  0  0  0  0  0
  -19.4254  -27.5887   24.3128 C   0  0  0  0  0  0  0  0  0  0  0  0
  -18.2393  -28.4040   22.3723 C   0  0  0  0  0  0  0  0  0  0  0  0
  -29.0140  -17.6175   18.2763 C   0  0  0  0  0  0  0  0  0  0  0  0
  -15.3883  -29.9806   23.9835 C   0  0  0  0  0  0  0  0  0  0  0  0
  -14.8440  -31.2450   23.7584 C   0  0  0  0  0  0  0  0  0  0  0  0
  -28.2364  -16.5912   20.3162 C   0  0  0  0  0  0  0  0  0  0  0  0
  -30.1538  -22.0579   21.9697 C   0  0  0  0  0  0  0  0  0  0  0  0
  -16.9927  -32.2511   24.2145 C   0  0  0  0  0  0  0  0  0  0  0  0
  -20.4163  -27.3875   22.1185 C   0  0  0  0  0  0  0  0  0  0  0  0
  -29.2712  -23.9656   20.7786 C   0  0  0  0  0  0  0  0  0  0  0  0
  -21.6670  -25.7171   20.6511 C   0  0  0  0  0  0  0  0  0  0  0  0
  -22.4015  -21.8066   17.1939 C   0  0  0  0  0  0  0  0  0  0  0  0
  -26.7018  -16.9024   18.4701 C   0  0  0  0  0  0  0  0  0  0  0  0
  -23.4155  -21.2294   17.9820 C   0  0  0  0  0  0  0  0  0  0  0  0
  -26.9519  -16.4428   19.7710 C   0  0  0  0  0  0  0  0  0  0  0  0
  -30.1497  -23.4304   21.7206 C   0  0  0  0  0  0  0  0  0  0  0  0
  -29.2794  -21.2207   21.2768 C   0  0  0  0  0  0  0  0  0  0  0  0
  -18.3044  -28.1993   23.7505 C   0  0  0  0  0  0  0  0  0  0  0  0
  -29.2610  -17.1769   19.5732 C   0  0  0  0  0  0  0  0  0  0  0  0
  -16.7347  -29.8514   24.3241 C   0  0  0  0  0  0  0  0  0  0  0  0
  -15.6462  -32.3802   23.8739 C   0  0  0  0  0  0  0  0  0  0  0  0
  -17.5369  -30.9866   24.4396 C   0  0  0  0  0  0  0  0  0  0  0  0
  -21.5069  -26.9688   21.2751 C   0  0  0  0  0  0  0  0  0  0  0  0
  -22.8543  -25.8229   19.9688 C   0  0  0  0  0  0  0  0  0  0  0  0
  -29.2458  -25.4115   20.4949 C   0  0  0  0  0  0  0  0  0  0  0  0
  -20.8183  -24.5620   20.6851 C   0  0  0  0  0  0  0  0  0  0  0  0
  -23.8829  -17.9107   19.5379 C   0  0  0  0  0  0  0  0  0  0  0  0
  -23.5582  -14.8144   20.4489 C   0  0  0  0  0  0  0  0  0  0  0  0
  -30.0792  -19.1327   22.4282 C   0  0  0  0  0  0  0  0  0  0  0  0
  -25.0626  -11.8695   21.2922 C   0  0  0  0  0  0  0  0  0  0  0  0
  -28.2163  -27.3692   19.8635 C   0  0  0  0  0  0  0  0  0  0  0  0
  -20.9421  -21.5200   17.4444 C   0  0  0  0  0  0  0  0  0  0  0  0
  -25.3413  -16.7343   17.8512 C   0  0  0  0  0  0  0  0  0  0  0  0
  -25.8755  -15.7998   20.6055 C   0  0  0  0  0  0  0  0  0  0  0  0
  -20.7027  -20.2680   18.2844 C   0  0  0  0  0  0  0  0  0  0  0  0
  -25.7472  -29.8421   18.9728 C   0  0  0  0  0  0  0  0  0  0  0  0
  -21.6272  -20.2543   19.4976 C   0  0  0  0  0  0  0  0  0  0  0  0
  -24.4416  -29.2251   19.4741 C   0  0  0  0  0  0  0  0  0  0  0  0
  -26.9171  -29.4988   19.8898 C   0  0  0  0  0  0  0  0  0  0  0  0
  -25.7932  -27.4106   20.6145 C   0  0  0  0  0  0  0  0  0  0  0  0
  -23.0993  -20.2253   19.0691 C   0  0  1  0  0  0  0  0  0  0  0  0
  -24.2269  -16.6020   18.8847 C   0  0  1  0  0  0  0  0  0  0  0  0
  -24.5957  -27.7100   19.6965 C   0  0  1  0  0  0  0  0  0  0  0  0
  -31.0973  -24.3044   22.4756 C   0  0  0  0  0  0  0  0  0  0  0  0
  -25.2529   -9.4411   21.8952 C   0  0  0  0  0  0  0  0  0  0  0  0
  -22.9352  -15.8362   23.2557 C   0  0  0  0  0  0  0  0  0  0  0  0
  -23.3588  -13.5235   24.1162 C   0  0  0  0  0  0  0  0  0  0  0  0
  -21.5044  -13.9301   22.4979 C   0  0  0  0  0  0  0  0  0  0  0  0
  -30.3648  -15.3441   21.4581 C   0  0  0  0  0  0  0  0  0  0  0  0
  -32.1570  -17.0542   21.8168 C   0  0  0  0  0  0  0  0  0  0  0  0
  -25.1904  -11.0543   18.4500 C   0  0  0  0  0  0  0  0  0  0  0  0
  -29.7882  -17.6375   22.4120 C   0  0  0  0  0  0  0  0  0  0  0  0
  -23.8980  -14.0237   21.6892 C   0  0  1  0  0  0  0  0  0  0  0  0
  -24.8073  -10.4427   20.8412 C   0  0  2  0  0  0  0  0  0  0  0  0
  -22.9441  -14.3422   22.8750 C   0  0  0  0  0  0  0  0  0  0  0  0
  -30.6849  -16.8397   21.4479 C   0  0  0  0  0  0  0  0  0  1  0  0
  -22.5123  -27.8081   21.0127 N   0  0  0  0  0  0  0  0  0  0  0  0
  -28.1660  -26.0111   20.1129 N   0  0  0  0  0  0  0  0  0  0  0  0
  -23.3155  -27.0824   20.2163 N   0  0  0  0  0  0  0  0  0  0  0  0
  -24.5602  -15.6636   19.9583 N   0  0  0  0  0  0  0  0  0  0  0  0
  -27.0111  -28.0541   20.1043 N   0  0  0  0  0  0  0  0  0  0  0  0
  -23.5385  -24.9606   19.1874 N   0  0  0  0  0  0  0  0  0  0  0  0
  -19.6357  -24.6237   21.4348 N   0  0  0  0  0  0  0  0  0  0  0  0
  -29.2828  -19.8286   21.5287 N   0  0  0  0  0  0  0  0  0  0  0  0
  -23.4783  -18.8920   18.6531 N   0  0  0  0  0  0  0  0  0  0  0  0
  -23.9064  -12.6207   21.2893 N   0  0  0  0  0  0  0  0  0  0  0  0
  -25.5476  -10.1579   19.5795 N   0  3  0  0  0  0  0  0  0  0  0  0
  -21.1084  -23.5009   20.0822 O   0  0  0  0  0  0  0  0  0  0  0  0
  -23.9760  -18.0215   20.7548 O   0  0  0  0  0  0  0  0  0  0  0  0
  -22.4473  -14.6782   19.9304 O   0  0  0  0  0  0  0  0  0  0  0  0
  -30.9323  -19.5897   23.1841 O   0  0  0  0  0  0  0  0  0  0  0  0
  -26.1757  -12.2760   21.6182 O   0  0  0  0  0  0  0  0  0  0  0  0
  -29.2246  -27.9585   19.4671 O   0  0  0  0  0  0  0  0  0  0  0  0
  -17.2738  -28.5954   24.5465 O   0  0  0  0  0  0  0  0  0  0  0  0
  -30.5023  -17.3129   20.1141 O   0  0  0  0  0  0  0  0  0  1  0  0
  -15.1238  -33.5942   23.6562 F   0  0  0  0  0  0  0  0  0  0  0  0
  -18.8315  -30.8687   24.7654 F   0  0  0  0  0  0  0  0  0  0  0  0
  1  2  1  0  0  0  0
  1  6  2  0  0  0  0
  2  7  2  0  0  0  0
  3 10  2  0  0  0  0
  3 18  1  0  0  0  0
  4 11  1  0  0  0  0
  4 18  2  0  0  0  0
  5  9  2  0  0  0  0
  5 19  1  0  0  0  0
  6 21  1  0  0  0  0
  7 23  1  0  0  0  0
  8 12  2  0  0  0  0
  8 22  1  0  0  0  0
  9 26  1  0  0  0  0
 10 27  1  0  0  0  0
 11 27  2  0  0  0  0
 12 28  1  0  0  0  0
 13 14  2  0  0  0  0
 13 29  1  0  0  0  0
 14 30  1  0  0  0  0
 15 24  1  0  0  0  0
 15 28  2  0  0  0  0
 16 25  1  0  0  0  0
 16 26  2  0  0  0  0
 17 30  2  0  0  0  0
 17 31  1  0  0  0  0
 18 32  1  0  0  0  0
 19 25  2  0  0  0  0
 19 34  1  0  0  0  0
 20 32  1  0  0  0  0
 20 33  2  0  0  0  0
 20 35  1  0  0  0  0
 21 23  2  0  0  0  0
 21 41  1  0  0  0  0
 22 24  2  0  0  0  0
 22 42  1  0  0  0  0
 23 50  1  0  0  0  0
 24 43  1  0  0  0  0
 25 53  1  0  0  0  0
 26 73  1  0  0  0  0
 27 83  1  0  0  0  0
 28 84  1  0  0  0  0
 29 31  2  0  0  0  0
 29 83  1  0  0  0  0
 30 85  1  0  0  0  0
 31 86  1  0  0  0  0
 32 66  2  0  0  0  0
 33 68  1  0  0  0  0
 33 71  1  0  0  0  0
 34 67  2  0  0  0  0
 35 72  1  0  0  0  0
 35 77  2  0  0  0  0
 36 51  1  0  0  0  0
 36 74  1  0  0  0  0
 36 78  2  0  0  0  0
 37 62  1  0  0  0  0
 37 69  1  0  0  0  0
 37 79  2  0  0  0  0
 38 61  1  0  0  0  0
 38 73  1  0  0  0  0
 38 80  2  0  0  0  0
 39 63  1  0  0  0  0
 39 75  1  0  0  0  0
 39 81  2  0  0  0  0
 40 67  1  0  0  0  0
 40 70  1  0  0  0  0
 40 82  2  0  0  0  0
 41 44  1  0  0  0  0
 42 51  1  0  0  0  0
 43 69  1  0  0  0  0
 44 46  1  0  0  0  0
 45 47  1  0  0  0  0
 45 48  1  0  0  0  0
 46 50  1  0  0  0  0
 47 52  1  0  0  0  0
 48 70  1  0  0  0  0
 49 52  1  0  0  0  0
 49 70  1  0  0  0  0
 50 74  1  0  0  0  0
 51 69  1  0  0  0  0
 52 68  1  0  0  0  0
 54 63  1  0  0  0  0
 55 64  1  0  0  0  0
 56 64  1  0  0  0  0
 57 64  1  0  0  0  0
 58 65  1  0  0  0  0
 59 65  1  0  0  0  0
 60 76  1  0  0  0  0
 61 65  1  0  0  0  0
 62 64  1  0  0  0  0
 62 75  1  0  0  0  0
 63 76  1  0  0  0  0
 65 84  1  0  0  0  0
 66 68  1  0  0  0  0
M  CHG  1  76   1
M  ISO  4  40 100  65 101  67 100  84 101
M  END
> <Batch ID>
0143

> <Smiles>
CNC(C)C(=O)NC(C(=O)N1Cc2cc([101O:1][101C:1](C)(C)CC(=O)Nc3ccc(C=[100N:0][100C:0](=O)N4CCCC(n5nc(-c6ccc(Oc7ccc(F)cc7F)cc6)c(C(N)=O)c5N)C4)c(C)c3)ccc2CC1C(=O)NC1CCCc2ccccc21)C(C)(C)C

> <Shape>
0.240

> <Color>
0.072

> <Negative vol penalty>
0.000

$$$$

  -OEChem-04052303003D

 85 94  0     1  0  0  0  0  0999 V2000
  -17.9342  -30.1136   25.2024 C   0  0  0  0  0  0  0  0  0  0  0  0
  -19.2825  -30.1302   25.5448 C   0  0  0  0  0  0  0  0  0  0  0  0
  -22.4897  -10.0094   21.4016 C   0  0  0  0  0  0  0  0  0  0  0  0
  -24.6397  -10.2589   22.4752 C   0  0  0  0  0  0  0  0  0  0  0  0
  -17.5038  -29.3676   24.1060 C   0  0  0  0  0  0  0  0  0  0  0  0
  -20.2011  -29.3999   24.7916 C   0  0  0  0  0  0  0  0  0  0  0  0
  -28.9342  -19.3487   19.2917 C   0  0  0  0  0  0  0  0  0  0  0  0
  -27.0066  -29.5973   22.5641 C   0  0  0  0  0  0  0  0  0  0  0  0
  -29.1357  -20.6852   19.6455 C   0  0  0  0  0  0  0  0  0  0  0  0
  -22.5718   -8.6259   21.5586 C   0  0  0  0  0  0  0  0  0  0  0  0
  -24.7218   -8.8753   22.6322 C   0  0  0  0  0  0  0  0  0  0  0  0
  -28.1578  -28.8109   22.5476 C   0  0  0  0  0  0  0  0  0  0  0  0
  -22.1029   -6.3672   24.0308 C   0  0  0  0  0  0  0  0  0  0  0  0
  -20.9695   -5.6990   24.4938 C   0  0  0  0  0  0  0  0  0  0  0  0
  -28.9910  -21.3767   17.3118 C   0  0  0  0  0  0  0  0  0  0  0  0
  -27.3108  -27.6220   20.6271 C   0  0  0  0  0  0  0  0  0  0  0  0
  -20.9153   -4.3860   22.4664 C   0  0  0  0  0  0  0  0  0  0  0  0
  -23.5237  -10.8259   21.8599 C   0  0  0  0  0  0  0  0  0  0  0  0
  -22.8823  -13.1818   22.5988 C   0  0  0  0  0  0  0  0  0  0  0  0
  -18.4189  -28.6355   23.3331 C   0  0  0  0  0  0  0  0  0  0  0  0
  -25.9923  -29.3943   21.6173 C   0  0  0  0  0  0  0  0  0  0  0  0
  -19.7823  -28.6423   23.6846 C   0  0  0  0  0  0  0  0  0  0  0  0
  -28.7661  -19.0698   17.9553 C   0  0  0  0  0  0  0  0  0  0  0  0
  -28.7944  -20.0530   16.9959 C   0  0  0  0  0  0  0  0  0  0  0  0
  -26.1489  -28.4088   20.6322 C   0  0  0  0  0  0  0  0  0  0  0  0
  -29.1642  -21.6927   18.6617 C   0  0  0  0  0  0  0  0  0  0  0  0
  -23.6878   -8.0588   22.1739 C   0  0  0  0  0  0  0  0  0  0  0  0
  -28.3087  -27.8211   21.5808 C   0  0  0  0  0  0  0  0  0  0  0  0
  -22.6425   -6.0450   22.7855 C   0  0  0  0  0  0  0  0  0  0  0  0
  -20.3757   -4.7084   23.7117 C   0  0  0  0  0  0  0  0  0  0  0  0
  -22.0487   -5.0544   22.0033 C   0  0  0  0  0  0  0  0  0  0  0  0
  -23.4397  -12.2551   21.6975 C   0  0  0  0  0  0  0  0  0  0  0  0
  -23.0481  -14.3996   21.9856 C   0  0  0  0  0  0  0  0  0  0  0  0
  -22.2695  -12.9615   23.8762 C   0  0  0  0  0  0  0  0  0  0  0  0
  -22.9321  -28.5461   21.7553 C   0  0  0  0  0  0  0  0  0  0  0  0
  -29.7385  -24.9398   20.4527 C   0  0  0  0  0  0  0  0  0  0  0  0
  -23.0175  -29.1754   18.5742 C   0  0  0  0  0  0  0  0  0  0  0  0
  -24.8745  -29.4511   15.7243 C   0  0  0  0  0  0  0  0  0  0  0  0
  -26.9851  -16.3074   18.0324 C   0  0  0  0  0  0  0  0  0  0  0  0
  -17.8997  -27.8062   22.1853 C   0  0  0  0  0  0  0  0  0  0  0  0
  -24.7687  -30.2688   21.6322 C   0  0  0  0  0  0  0  0  0  0  0  0
  -28.5548  -19.0940   15.8669 C   0  0  0  0  0  0  0  0  0  0  0  0
  -25.0984  -28.1645   19.5809 C   0  0  0  0  0  0  0  0  0  0  0  0
  -18.9897  -27.3600   21.2143 C   0  0  0  0  0  0  0  0  0  0  0  0
  -23.3885  -16.3925   17.6480 C   0  0  0  0  0  0  0  0  0  0  0  0
  -20.1907  -26.8089   21.9765 C   0  0  0  0  0  0  0  0  0  0  0  0
  -22.9446  -15.4199   18.7420 C   0  0  0  0  0  0  0  0  0  0  0  0
  -24.6743  -15.9200   16.9753 C   0  0  0  0  0  0  0  0  0  0  0  0
  -25.3651  -14.7075   19.0053 C   0  0  0  0  0  0  0  0  0  0  0  0
  -28.5385  -17.9640   16.9603 C   0  0  2  0  0  0  0  0  0  0  0  0
  -20.8126  -27.8829   22.8772 C   0  0  1  0  0  0  0  0  0  0  0  0
  -23.5703  -29.6316   20.9355 C   0  0  1  0  0  0  0  0  0  0  0  0
  -24.0840  -15.1421   19.7400 C   0  0  2  0  0  0  0  0  0  0  0  0
  -30.0079  -25.1776   22.9515 C   0  0  0  0  0  0  0  0  0  0  0  0
  -24.6593  -29.9411   13.2725 C   0  0  0  0  0  0  0  0  0  0  0  0
  -21.8816  -26.3805   18.1179 C   0  0  0  0  0  0  0  0  0  0  0  0
  -22.5739  -26.5666   15.7191 C   0  0  0  0  0  0  0  0  0  0  0  0
  -20.8979  -28.1575   16.6587 C   0  0  0  0  0  0  0  0  0  0  0  0
  -26.6338  -31.8225   15.9254 C   0  0  0  0  0  0  0  0  0  0  0  0
  -29.5525  -23.4361   20.4040 C   0  0  0  0  0  0  0  0  0  0  0  0
  -29.2558  -25.6439   21.7169 C   0  0  1  0  0  0  0  0  0  1  0  0
  -23.3249  -28.3724   17.3334 C   0  0  1  0  0  0  0  0  0  0  0  0
  -24.9210  -30.5249   14.6522 C   0  0  2  0  0  0  0  0  0  0  0  0
  -22.1887  -27.3723   16.9781 C   0  0  0  0  0  0  0  0  0  0  0  0
  -23.9233  -12.8346   20.5955 N   0  0  0  0  0  0  0  0  0  0  0  0
  -23.6702  -14.1384   20.8003 N   0  0  0  0  0  0  0  0  0  0  0  0
  -23.9172  -29.0413   19.6412 N   0  0  0  0  0  0  0  0  0  0  0  0
  -25.7242  -15.6922   17.9787 N   0  0  0  0  0  0  0  0  0  0  0  0
  -22.7210  -15.6576   22.3501 N   0  0  0  0  0  0  0  0  0  0  0  0
  -22.1809  -11.6481   24.3571 N   0  0  0  0  0  0  0  0  0  0  0  0
  -29.3655  -23.0123   19.0393 N   0  0  0  0  0  0  0  0  0  0  0  0
  -21.6159  -28.7966   22.0934 N   0  0  0  0  0  0  0  0  0  0  0  0
  -23.6187  -29.3409   16.2827 N   0  0  0  0  0  0  0  0  0  0  0  0
  -27.2567  -17.2323   17.0298 N   0  0  0  0  0  0  0  0  0  0  0  0
  -26.2571  -31.1849   14.6376 N   0  3  0  0  0  0  0  0  0  0  0  0
  -21.7992  -13.8998   24.5631 O   0  0  0  0  0  0  0  0  0  0  0  0
  -23.5849  -27.5540   22.0572 O   0  0  0  0  0  0  0  0  0  0  0  0
  -30.2449  -25.5683   19.5224 O   0  0  0  0  0  0  0  0  0  0  0  0
  -22.0199  -29.9007   18.5934 O   0  0  0  0  0  0  0  0  0  0  0  0
  -25.8535  -28.7750   16.0327 O   0  0  0  0  0  0  0  0  0  0  0  0
  -27.8151  -16.0592   18.9139 O   0  0  0  0  0  0  0  0  0  0  0  0
  -23.7682   -6.7088   22.3275 O   0  0  0  0  0  0  0  0  0  0  0  0
  -29.4310  -27.0517   21.5629 O   0  0  0  0  0  0  0  0  0  1  0  0
  -19.2883   -4.0656   24.1572 F   0  0  0  0  0  0  0  0  0  0  0  0
  -22.5632   -4.7396   20.8067 F   0  0  0  0  0  0  0  0  0  0  0  0
  1  2  1  0  0  0  0
  1  5  2  0  0  0  0
  2  6  2  0  0  0  0
  3 10  2  0  0  0  0
  3 18  1  0  0  0  0
  4 11  1  0  0  0  0
  4 18  2  0  0  0  0
  5 20  1  0  0  0  0
  6 22  1  0  0  0  0
  7  9  2  0  0  0  0
  7 23  1  0  0  0  0
  8 12  2  0  0  0  0
  8 21  1  0  0  0  0
  9 26  1  0  0  0  0
 10 27  1  0  0  0  0
 11 27  2  0  0  0  0
 12 28  1  0  0  0  0
 13 14  2  0  0  0  0
 13 29  1  0  0  0  0
 14 30  1  0  0  0  0
 15 24  1  0  0  0  0
 15 26  2  0  0  0  0
 16 25  1  0  0  0  0
 16 28  2  0  0  0  0
 17 30  2  0  0  0  0
 17 31  1  0  0  0  0
 18 32  1  0  0  0  0
 19 32  1  0  0  0  0
 19 33  2  0  0  0  0
 19 34  1  0  0  0  0
 20 22  2  0  0  0  0
 20 40  1  0  0  0  0
 21 25  2  0  0  0  0
 21 41  1  0  0  0  0
 22 51  1  0  0  0  0
 23 24  2  0  0  0  0
 23 50  1  0  0  0  0
 24 42  1  0  0  0  0
 25 43  1  0  0  0  0
 26 71  1  0  0  0  0
 27 82  1  0  0  0  0
 28 83  1  0  0  0  0
 29 31  2  0  0  0  0
 29 82  1  0  0  0  0
 30 84  1  0  0  0  0
 31 85  1  0  0  0  0
 32 65  2  0  0  0  0
 33 66  1  0  0  0  0
 33 69  1  0  0  0  0
 34 70  1  0  0  0  0
 34 76  2  0  0  0  0
 35 52  1  0  0  0  0
 35 72  1  0  0  0  0
 35 77  2  0  0  0  0
 36 60  1  0  0  0  0
 36 61  1  0  0  0  0
 36 78  2  0  0  0  0
 37 62  1  0  0  0  0
 37 67  1  0  0  0  0
 37 79  2  0  0  0  0
 38 63  1  0  0  0  0
 38 73  1  0  0  0  0
 38 80  2  0  0  0  0
 39 68  1  0  0  0  0
 39 74  1  0  0  0  0
 39 81  2  0  0  0  0
 40 44  1  0  0  0  0
 41 52  1  0  0  0  0
 42 50  1  0  0  0  0
 43 67  1  0  0  0  0
 44 46  1  0  0  0  0
 45 47  1  0  0  0  0
 45 48  1  0  0  0  0
 46 51  1  0  0  0  0
 47 53  1  0  0  0  0
 48 68  1  0  0  0  0
 49 53  1  0  0  0  0
 49 68  1  0  0  0  0
 50 74  1  0  0  0  0
 51 72  1  0  0  0  0
 52 67  1  0  0  0  0
 53 66  1  0  0  0  0
 54 61  1  0  0  0  0
 55 63  1  0  0  0  0
 56 64  1  0  0  0  0
 57 64  1  0  0  0  0
 58 64  1  0  0  0  0
 59 75  1  0  0  0  0
 60 71  1  0  0  0  0
 61 83  1  0  0  0  0
 62 64  1  0  0  0  0
 62 73  1  0  0  0  0
 63 75  1  0  0  0  0
 65 66  1  0  0  0  0
M  CHG  1  75   1
M  ISO  4  39 100  61 101  74 100  83 101
M  END
> <Batch ID>
0143

> <Smiles>
CNC(C)C(=O)NC(C(=O)N1Cc2cc([101O:1][101CH:1](C)C(=O)CNc3ccc4c(c3)CC4[100NH:0][100C:0](=O)N3CCCC(n4nc(-c5ccc(Oc6ccc(F)cc6F)cc5)c(C(N)=O)c4N)C3)ccc2CC1C(=O)NC1CCCc2ccccc21)C(C)(C)C

> <Shape>
0.274

> <Color>
0.081

> <Negative vol penalty>
0.000

$$$$

  -OEChem-04052303003D

 87 96  0     1  0  0  0  0  0999 V2000
  -19.3918  -33.7387   24.8960 C   0  0  0  0  0  0  0  0  0  0  0  0
  -20.7032  -33.6910   24.4340 C   0  0  0  0  0  0  0  0  0  0  0  0
  -24.1628  -14.1990   18.3611 C   0  0  0  0  0  0  0  0  0  0  0  0
  -25.6063  -15.3886   19.8903 C   0  0  0  0  0  0  0  0  0  0  0  0
  -18.6910  -32.5552   25.1245 C   0  0  0  0  0  0  0  0  0  0  0  0
  -21.3149  -32.4598   24.2011 C   0  0  0  0  0  0  0  0  0  0  0  0
  -26.0980  -29.3300   19.8833 C   0  0  0  0  0  0  0  0  0  0  0  0
  -24.5324  -12.9908   18.9521 C   0  0  0  0  0  0  0  0  0  0  0  0
  -25.9759  -14.1804   20.4813 C   0  0  0  0  0  0  0  0  0  0  0  0
  -27.2595  -28.5610   19.9405 C   0  0  0  0  0  0  0  0  0  0  0  0
  -23.7631  -11.2454   21.7440 C   0  0  0  0  0  0  0  0  0  0  0  0
  -22.7519  -10.3294   22.0338 C   0  0  0  0  0  0  0  0  0  0  0  0
  -29.8416  -21.9247   17.5434 C   0  0  0  0  0  0  0  0  0  0  0  0
  -32.0111  -22.7723   16.9019 C   0  0  0  0  0  0  0  0  0  0  0  0
  -25.9250  -26.5828   20.2947 C   0  0  0  0  0  0  0  0  0  0  0  0
  -30.4445  -22.0565   15.2076 C   0  0  0  0  0  0  0  0  0  0  0  0
  -23.8062   -8.7075   20.5864 C   0  0  0  0  0  0  0  0  0  0  0  0
  -24.6998  -15.3979   18.8302 C   0  0  0  0  0  0  0  0  0  0  0  0
  -31.0870  -22.4458   17.8943 C   0  0  0  0  0  0  0  0  0  0  0  0
  -23.2446  -17.4789   18.5863 C   0  0  0  0  0  0  0  0  0  0  0  0
  -19.2912  -31.3090   24.8851 C   0  0  0  0  0  0  0  0  0  0  0  0
  -24.8397  -28.7319   20.0426 C   0  0  0  0  0  0  0  0  0  0  0  0
  -20.6219  -31.2585   24.4278 C   0  0  0  0  0  0  0  0  0  0  0  0
  -24.7490  -27.3461   20.2366 C   0  0  0  0  0  0  0  0  0  0  0  0
  -29.5204  -21.7300   16.2001 C   0  0  0  0  0  0  0  0  0  0  0  0
  -25.4389  -12.9815   20.0122 C   0  0  0  0  0  0  0  0  0  0  0  0
  -27.1733  -27.1876   20.1491 C   0  0  0  0  0  0  0  0  0  0  0  0
  -24.7959  -10.8925   20.8754 C   0  0  0  0  0  0  0  0  0  0  0  0
  -22.7734   -9.0605   21.4550 C   0  0  0  0  0  0  0  0  0  0  0  0
  -31.6899  -22.5777   15.5585 C   0  0  0  0  0  0  0  0  0  0  0  0
  -24.8175   -9.6236   20.2966 C   0  0  0  0  0  0  0  0  0  0  0  0
  -24.3189  -16.6462   18.2197 C   0  0  0  0  0  0  0  0  0  0  0  0
  -23.3104  -18.5316   17.7066 C   0  0  0  0  0  0  0  0  0  0  0  0
  -31.4274  -22.6505   19.3136 C   0  0  0  0  0  0  0  0  0  0  0  0
  -22.2741  -17.3155   19.6289 C   0  0  0  0  0  0  0  0  0  0  0  0
  -22.4675  -29.0213   22.1384 C   0  0  0  0  0  0  0  0  0  0  0  0
  -20.9413  -27.0122   20.0996 C   0  0  0  0  0  0  0  0  0  0  0  0
  -21.1698  -24.6184   17.6780 C   0  0  0  0  0  0  0  0  0  0  0  0
  -27.7777  -20.9472   14.5580 C   0  0  0  0  0  0  0  0  0  0  0  0
  -18.5097  -30.0560   25.1917 C   0  0  0  0  0  0  0  0  0  0  0  0
  -23.5950  -29.5714   19.9516 C   0  0  0  0  0  0  0  0  0  0  0  0
  -23.4212  -26.6525   20.3931 C   0  0  0  0  0  0  0  0  0  0  0  0
  -19.1041  -28.7983   24.5632 C   0  0  0  0  0  0  0  0  0  0  0  0
  -24.7380  -19.6174   13.2661 C   0  0  0  0  0  0  0  0  0  0  0  0
  -20.6108  -28.7464   24.7953 C   0  0  0  0  0  0  0  0  0  0  0  0
  -24.1847  -18.7852   14.4253 C   0  0  0  0  0  0  0  0  0  0  0  0
  -30.6945  -25.4098   21.5288 C   0  0  0  0  0  0  0  0  0  0  0  0
  -26.2613  -19.5356   13.1857 C   0  0  0  0  0  0  0  0  0  0  0  0
  -31.4465  -24.1035   21.2962 C   0  0  0  0  0  0  0  0  0  0  0  0
  -26.4138  -19.0269   15.5913 C   0  0  0  0  0  0  0  0  0  0  0  0
  -30.4999  -24.9275   19.1822 C   0  0  0  0  0  0  0  0  0  0  0  0
  -21.3115  -29.9426   24.1398 C   0  0  1  0  0  0  0  0  0  0  0  0
  -22.3924  -28.9335   20.6403 C   0  0  1  0  0  0  0  0  0  0  0  0
  -24.8884  -19.1299   15.7526 C   0  0  2  0  0  0  0  0  0  0  0  0
  -30.6900  -26.1060   20.1547 C   0  0  2  0  0  0  0  0  0  0  0  0
  -32.0282  -26.8152   19.8920 C   0  0  0  0  0  0  0  0  0  0  0  0
  -19.7509  -23.1384   16.2309 C   0  0  0  0  0  0  0  0  0  0  0  0
  -20.3962  -25.1992   22.4925 C   0  0  0  0  0  0  0  0  0  0  0  0
  -19.8508  -23.3587   20.8853 C   0  0  0  0  0  0  0  0  0  0  0  0
  -18.4766  -25.4405   20.9078 C   0  0  0  0  0  0  0  0  0  0  0  0
  -22.2307  -25.8320   15.1959 C   0  0  0  0  0  0  0  0  0  0  0  0
  -29.5481  -27.1172   20.0438 C   0  0  0  0  0  0  0  0  0  1  0  0
  -20.8215  -25.5133   19.9654 C   0  0  1  0  0  0  0  0  0  0  0  0
  -20.4734  -24.4724   16.3370 C   0  0  2  0  0  0  0  0  0  0  0  0
  -19.9115  -24.8910   21.0618 C   0  0  0  0  0  0  0  0  0  0  0  0
  -25.0160  -17.1283   17.1874 N   0  0  0  0  0  0  0  0  0  0  0  0
  -24.3783  -18.2753   16.8978 N   0  0  0  0  0  0  0  0  0  0  0  0
  -31.1458  -23.8057   19.8882 N   0  0  0  0  0  0  0  0  0  0  0  0
  -22.2333  -27.5175   20.3030 N   0  0  0  0  0  0  0  0  0  0  0  0
  -26.8591  -19.8792   14.4778 N   0  0  0  0  0  0  0  0  0  0  0  0
  -22.5584  -19.6422   17.5536 N   0  0  0  0  0  0  0  0  0  0  0  0
  -22.3516  -16.1759   20.4412 N   0  0  0  0  0  0  0  0  0  0  0  0
  -28.2548  -21.2020   15.8433 N   0  0  0  0  0  0  0  0  0  0  0  0
  -21.4340  -29.7366   22.7126 N   0  0  0  0  0  0  0  0  0  0  0  0
  -20.3714  -25.2603   18.6009 N   0  0  0  0  0  0  0  0  0  0  0  0
  -32.0112  -21.6682   19.9937 N   0  3  0  0  0  0  0  0  0  0  0  0
  -21.4637  -24.5601   15.2268 N   0  3  0  0  0  0  0  0  0  0  0  0
  -21.3553  -18.1469   19.8237 O   0  0  0  0  0  0  0  0  0  0  0  0
  -23.3937  -28.4788   22.7297 O   0  0  0  0  0  0  0  0  0  0  0  0
  -19.9270  -27.7095   20.0196 O   0  0  0  0  0  0  0  0  0  0  0  0
  -22.3067  -24.2010   17.8870 O   0  0  0  0  0  0  0  0  0  0  0  0
  -28.0953  -21.6060   13.5644 O   0  0  0  0  0  0  0  0  0  0  0  0
  -25.7996  -11.8027   20.5893 O   0  0  0  0  0  0  0  0  0  0  0  0
  -28.3054  -26.4347   20.2059 O   0  0  0  0  0  0  0  0  0  1  0  0
  -21.8031   -8.1805   21.7345 F   0  0  0  0  0  0  0  0  0  0  0  0
  -32.5774  -22.8911   14.6055 F   0  0  0  0  0  0  0  0  0  0  0  0
  -25.8077   -9.2784   19.4623 F   0  0  0  0  0  0  0  0  0  0  0  0
  1  2  1  0  0  0  0
  1  5  2  0  0  0  0
  2  6  2  0  0  0  0
  3  8  2  0  0  0  0
  3 18  1  0  0  0  0
  4  9  1  0  0  0  0
  4 18  2  0  0  0  0
  5 21  1  0  0  0  0
  6 23  1  0  0  0  0
  7 10  2  0  0  0  0
  7 22  1  0  0  0  0
  8 26  1  0  0  0  0
  9 26  2  0  0  0  0
 10 27  1  0  0  0  0
 11 12  2  0  0  0  0
 11 28  1  0  0  0  0
 12 29  1  0  0  0  0
 13 19  2  0  0  0  0
 13 25  1  0  0  0  0
 14 19  1  0  0  0  0
 14 30  2  0  0  0  0
 15 24  1  0  0  0  0
 15 27  2  0  0  0  0
 16 25  2  0  0  0  0
 16 30  1  0  0  0  0
 17 29  2  0  0  0  0
 17 31  1  0  0  0  0
 18 32  1  0  0  0  0
 19 34  1  0  0  0  0
 20 32  1  0  0  0  0
 20 33  2  0  0  0  0
 20 35  1  0  0  0  0
 21 23  2  0  0  0  0
 21 40  1  0  0  0  0
 22 24  2  0  0  0  0
 22 41  1  0  0  0  0
 23 52  1  0  0  0  0
 24 42  1  0  0  0  0
 25 73  1  0  0  0  0
 26 83  1  0  0  0  0
 27 84  1  0  0  0  0
 28 31  2  0  0  0  0
 28 83  1  0  0  0  0
 29 85  1  0  0  0  0
 30 86  1  0  0  0  0
 31 87  1  0  0  0  0
 32 66  2  0  0  0  0
 33 67  1  0  0  0  0
 33 71  1  0  0  0  0
 34 68  1  0  0  0  0
 34 76  2  0  0  0  0
 35 72  1  0  0  0  0
 35 78  2  0  0  0  0
 36 53  1  0  0  0  0
 36 74  1  0  0  0  0
 36 79  2  0  0  0  0
 37 63  1  0  0  0  0
 37 69  1  0  0  0  0
 37 80  2  0  0  0  0
 38 64  1  0  0  0  0
 38 75  1  0  0  0  0
 38 81  2  0  0  0  0
 39 70  1  0  0  0  0
 39 73  1  0  0  0  0
 39 82  2  0  0  0  0
 40 43  1  0  0  0  0
 41 53  1  0  0  0  0
 42 69  1  0  0  0  0
 43 45  1  0  0  0  0
 44 46  1  0  0  0  0
 44 48  1  0  0  0  0
 45 52  1  0  0  0  0
 46 54  1  0  0  0  0
 47 49  1  0  0  0  0
 47 55  1  0  0  0  0
 48 70  1  0  0  0  0
 49 68  1  0  0  0  0
 50 54  1  0  0  0  0
 50 70  1  0  0  0  0
 51 55  1  0  0  0  0
 51 68  1  0  0  0  0
 52 74  1  0  0  0  0
 53 69  1  0  0  0  0
 54 67  1  0  0  0  0
 55 56  1  0  0  0  0
 55 62  1  0  0  0  0
 57 64  1  0  0  0  0
 58 65  1  0  0  0  0
 59 65  1  0  0  0  0
 60 65  1  0  0  0  0
 61 77  1  0  0  0  0
 62 84  1  0  0  0  0
 63 65  1  0  0  0  0
 63 75  1  0  0  0  0
 64 77  1  0  0  0  0
 66 67  1  0  0  0  0
M  CHG  2  76   1  77   1
M  ISO  4  39 100  62 101  73 100  84 101
M  END
> <Batch ID>
0143

> <Smiles>
CNC(C)C(=O)NC(C(=O)N1Cc2cc([101O:1][101CH2:1]C3(C)CCN(C(=N)c4cc(F)cc([100NH:0][100C:0](=O)N5CCCC(n6nc(-c7ccc(Oc8ccc(F)cc8F)cc7)c(C(N)=O)c6N)C5)c4)C3)ccc2CC1C(=O)NC1CCCc2ccccc21)C(C)(C)C

> <Shape>
0.188

> <Color>
0.087

> <Negative vol penalty>
0.000

$$$$

  -OEChem-04052303003D

 91100  0     1  0  0  0  0  0999 V2000
  -16.8475  -30.1753   24.0912 C   0  0  0  0  0  0  0  0  0  0  0  0
  -17.8628  -29.6812   24.9039 C   0  0  0  0  0  0  0  0  0  0  0  0
  -25.2233  -11.1289   20.9427 C   0  0  0  0  0  0  0  0  0  0  0  0
  -25.4260  -12.0651   23.1607 C   0  0  0  0  0  0  0  0  0  0  0  0
  -16.8983  -29.9720   22.7128 C   0  0  0  0  0  0  0  0  0  0  0  0
  -18.9290  -28.9826   24.3387 C   0  0  0  0  0  0  0  0  0  0  0  0
  -24.7614  -29.0250   26.2063 C   0  0  0  0  0  0  0  0  0  0  0  0
  -25.2446   -9.8433   21.4834 C   0  0  0  0  0  0  0  0  0  0  0  0
  -25.4473  -10.7795   23.7014 C   0  0  0  0  0  0  0  0  0  0  0  0
  -25.5003  -28.1438   26.9945 C   0  0  0  0  0  0  0  0  0  0  0  0
  -23.0863   -7.7625   23.0469 C   0  0  0  0  0  0  0  0  0  0  0  0
  -22.1514   -6.8434   22.5707 C   0  0  0  0  0  0  0  0  0  0  0  0
  -26.6380  -23.8369   22.8886 C   0  0  0  0  0  0  0  0  0  0  0  0
  -28.0993  -22.2671   21.7763 C   0  0  0  0  0  0  0  0  0  0  0  0
  -26.3364  -27.0719   25.0018 C   0  0  0  0  0  0  0  0  0  0  0  0
  -25.7615  -21.7369   22.0770 C   0  0  0  0  0  0  0  0  0  0  0  0
  -23.9444   -5.4014   21.8339 C   0  0  0  0  0  0  0  0  0  0  0  0
  -25.3140  -12.2399   21.7814 C   0  0  0  0  0  0  0  0  0  0  0  0
  -24.1620  -14.3729   20.9873 C   0  0  0  0  0  0  0  0  0  0  0  0
  -17.9706  -29.2789   22.1293 C   0  0  0  0  0  0  0  0  0  0  0  0
  -24.7960  -28.9291   24.8077 C   0  0  0  0  0  0  0  0  0  0  0  0
  -18.9936  -28.7687   22.9513 C   0  0  0  0  0  0  0  0  0  0  0  0
  -27.9043  -23.4904   22.4176 C   0  0  0  0  0  0  0  0  0  0  0  0
  -25.5990  -27.9547   24.1980 C   0  0  0  0  0  0  0  0  0  0  0  0
  -25.5665  -22.9601   22.7183 C   0  0  0  0  0  0  0  0  0  0  0  0
  -27.0279  -21.3904   21.6060 C   0  0  0  0  0  0  0  0  0  0  0  0
  -25.3566   -9.6686   22.8627 C   0  0  0  0  0  0  0  0  0  0  0  0
  -26.2857  -27.1652   26.3924 C   0  0  0  0  0  0  0  0  0  0  0  0
  -24.4503   -7.5011   22.9166 C   0  0  0  0  0  0  0  0  0  0  0  0
  -22.5804   -5.6628   21.9642 C   0  0  0  0  0  0  0  0  0  0  0  0
  -24.8793   -6.3205   22.3101 C   0  0  0  0  0  0  0  0  0  0  0  0
  -25.2926  -13.5681   21.2234 C   0  0  0  0  0  0  0  0  0  0  0  0
  -24.6706  -15.5313   20.4528 C   0  0  0  0  0  0  0  0  0  0  0  0
  -22.7758  -14.0979   21.2296 C   0  0  0  0  0  0  0  0  0  0  0  0
  -22.6414  -28.3423   22.5456 C   0  0  0  0  0  0  0  0  0  0  0  0
  -23.9349  -22.9915   24.4012 C   0  0  0  0  0  0  0  0  0  0  0  0
  -25.1126  -29.0284   20.5595 C   0  0  0  0  0  0  0  0  0  0  0  0
  -28.4881  -29.2043   20.0883 C   0  0  0  0  0  0  0  0  0  0  0  0
  -28.4175  -19.6500   20.4286 C   0  0  0  0  0  0  0  0  0  0  0  0
  -17.9580  -29.0430   20.6398 C   0  0  0  0  0  0  0  0  0  0  0  0
  -24.0140  -29.9043   23.9711 C   0  0  0  0  0  0  0  0  0  0  0  0
  -25.6865  -27.8228   22.7002 C   0  0  0  0  0  0  0  0  0  0  0  0
  -19.3124  -28.6172   20.0790 C   0  0  0  0  0  0  0  0  0  0  0  0
  -31.1968  -24.9412   22.3363 C   0  0  0  0  0  0  0  0  0  0  0  0
  -29.3231  -16.6243   18.7848 C   0  0  0  0  0  0  0  0  0  0  0  0
  -30.4423  -23.9486   23.2411 C   0  0  0  0  0  0  0  0  0  0  0  0
  -29.9951  -24.8580   21.3755 C   0  0  0  0  0  0  0  0  0  0  0  0
  -19.9295  -27.5244   20.9460 C   0  0  0  0  0  0  0  0  0  0  0  0
  -28.2622  -15.6256   19.2532 C   0  0  0  0  0  0  0  0  0  0  0  0
  -29.7142  -17.5985   19.8945 C   0  0  0  0  0  0  0  0  0  0  0  0
  -27.5304  -17.3034   20.9958 C   0  0  0  0  0  0  0  0  0  0  0  0
  -29.1214  -24.4854   22.6113 C   0  0  0  0  0  0  0  0  0  0  0  0
  -20.1793  -28.0274   22.3729 C   0  0  1  0  0  0  0  0  0  0  0  0
  -23.7218  -29.3863   22.5662 C   0  0  1  0  0  0  0  0  0  0  0  0
  -27.0570  -16.3424   19.8930 C   0  0  2  0  0  0  0  0  0  0  0  0
  -22.5914  -23.3135   25.0204 C   0  0  0  0  0  0  0  0  0  0  0  0
  -24.3201  -20.8299   25.5714 C   0  0  0  0  0  0  0  0  0  0  0  0
  -30.2077  -29.7619   18.3478 C   0  0  0  0  0  0  0  0  0  0  0  0
  -24.5933  -26.3507   19.1919 C   0  0  0  0  0  0  0  0  0  0  0  0
  -26.8588  -26.5272   18.1409 C   0  0  0  0  0  0  0  0  0  0  0  0
  -25.1133  -28.2352   17.6322 C   0  0  0  0  0  0  0  0  0  0  0  0
  -27.3468  -24.2824   28.3926 C   0  0  0  0  0  0  0  0  0  0  0  0
  -25.1365  -25.4559   28.3918 C   0  0  0  0  0  0  0  0  0  0  0  0
  -29.5926  -31.4122   21.7204 C   0  0  0  0  0  0  0  0  0  0  0  0
  -25.2801  -22.9483   26.5608 C   0  0  0  0  0  0  0  0  0  0  0  0
  -25.9104  -24.3229   26.2822 C   0  0  0  0  0  0  0  0  0  0  0  0
  -24.9212  -22.2005   25.2648 C   0  0  2  0  0  0  0  0  0  0  0  0
  -26.2145  -28.2282   19.9080 C   0  0  1  0  0  0  0  0  0  0  0  0
  -29.3675  -30.2923   19.4992 C   0  0  2  0  0  0  0  0  0  0  0  0
  -25.6920  -27.3363   18.7465 C   0  0  0  0  0  0  0  0  0  0  0  0
  -26.3594  -25.0866   27.5457 C   0  0  0  0  0  0  0  0  0  1  0  0
  -26.4335  -14.1648   20.8679 N   0  0  0  0  0  0  0  0  0  0  0  0
  -24.2936  -23.3089   23.1918 N   0  0  0  0  0  0  0  0  0  0  0  0
  -26.0224  -15.3567   20.4028 N   0  0  0  0  0  0  0  0  0  0  0  0
  -24.8985  -28.7957   21.9254 N   0  0  0  0  0  0  0  0  0  0  0  0
  -28.5224  -18.2431   20.4503 N   0  0  0  0  0  0  0  0  0  0  0  0
  -24.0890  -16.6721   20.0252 N   0  0  0  0  0  0  0  0  0  0  0  0
  -22.4275  -12.8586   21.7837 N   0  0  0  0  0  0  0  0  0  0  0  0
  -27.2258  -20.1476   20.9548 N   0  0  0  0  0  0  0  0  0  0  0  0
  -21.3651  -28.8559   22.4164 N   0  0  0  0  0  0  0  0  0  0  0  0
  -27.2366  -29.1899   19.5096 N   0  0  0  0  0  0  0  0  0  0  0  0
  -30.2857  -30.8361   20.5394 N   0  3  0  0  0  0  0  0  0  0  0  0
  -21.8716  -14.9202   20.9473 O   0  0  0  0  0  0  0  0  0  0  0  0
  -22.9435  -27.1583   22.6385 O   0  0  0  0  0  0  0  0  0  0  0  0
  -24.4703  -29.8356   19.8830 O   0  0  0  0  0  0  0  0  0  0  0  0
  -28.8740  -28.4408   20.9708 O   0  0  0  0  0  0  0  0  0  0  0  0
  -29.3068  -20.3597   19.9516 O   0  0  0  0  0  0  0  0  0  0  0  0
  -25.3772   -8.4142   23.3907 O   0  0  0  0  0  0  0  0  0  0  0  0
  -27.0108  -26.2993   27.1630 O   0  0  0  0  0  0  0  0  0  1  0  0
  -21.6826   -4.7796   21.5083 F   0  0  0  0  0  0  0  0  0  0  0  0
  -26.1883   -6.0633   22.1832 F   0  0  0  0  0  0  0  0  0  0  0  0
  1  2  1  0  0  0  0
  1  5  2  0  0  0  0
  2  6  2  0  0  0  0
  3  8  2  0  0  0  0
  3 18  1  0  0  0  0
  4  9  1  0  0  0  0
  4 18  2  0  0  0  0
  5 20  1  0  0  0  0
  6 22  1  0  0  0  0
  7 10  2  0  0  0  0
  7 21  1  0  0  0  0
  8 27  1  0  0  0  0
  9 27  2  0  0  0  0
 10 28  1  0  0  0  0
 11 12  2  0  0  0  0
 11 29  1  0  0  0  0
 12 30  1  0  0  0  0
 13 23  1  0  0  0  0
 13 25  2  0  0  0  0
 14 23  2  0  0  0  0
 14 26  1  0  0  0  0
 15 24  1  0  0  0  0
 15 28  2  0  0  0  0
 16 25  1  0  0  0  0
 16 26  2  0  0  0  0
 17 30  2  0  0  0  0
 17 31  1  0  0  0  0
 18 32  1  0  0  0  0
 19 32  1  0  0  0  0
 19 33  2  0  0  0  0
 19 34  1  0  0  0  0
 20 22  2  0  0  0  0
 20 40  1  0  0  0  0
 21 24  2  0  0  0  0
 21 41  1  0  0  0  0
 22 53  1  0  0  0  0
 23 52  1  0  0  0  0
 24 42  1  0  0  0  0
 25 73  1  0  0  0  0
 26 79  1  0  0  0  0
 27 88  1  0  0  0  0
 28 89  1  0  0  0  0
 29 31  2  0  0  0  0
 29 88  1  0  0  0  0
 30 90  1  0  0  0  0
 31 91  1  0  0  0  0
 32 72  2  0  0  0  0
 33 74  1  0  0  0  0
 33 77  1  0  0  0  0
 34 78  1  0  0  0  0
 34 83  2  0  0  0  0
 35 54  1  0  0  0  0
 35 80  1  0  0  0  0
 35 84  2  0  0  0  0
 36 56  1  0  0  0  0
 36 67  1  0  0  0  0
 36 73  2  0  0  0  0
 37 68  1  0  0  0  0
 37 75  1  0  0  0  0
 37 85  2  0  0  0  0
 38 69  1  0  0  0  0
 38 81  1  0  0  0  0
 38 86  2  0  0  0  0
 39 76  1  0  0  0  0
 39 79  1  0  0  0  0
 39 87  2  0  0  0  0
 40 43  1  0  0  0  0
 41 54  1  0  0  0  0
 42 75  1  0  0  0  0
 43 48  1  0  0  0  0
 44 46  1  0  0  0  0
 44 47  1  0  0  0  0
 45 49  1  0  0  0  0
 45 50  1  0  0  0  0
 46 52  1  0  0  0  0
 47 52  1  0  0  0  0
 48 53  1  0  0  0  0
 49 55  1  0  0  0  0
 50 76  1  0  0  0  0
 51 55  1  0  0  0  0
 51 76  1  0  0  0  0
 53 80  1  0  0  0  0
 54 75  1  0  0  0  0
 55 74  1  0  0  0  0
 57 67  1  0  0  0  0
 58 69  1  0  0  0  0
 59 70  1  0  0  0  0
 60 70  1  0  0  0  0
 61 70  1  0  0  0  0
 62 71  1  0  0  0  0
 63 71  1  0  0  0  0
 64 82  1  0  0  0  0
 65 66  1  0  0  0  0
 65 67  1  0  0  0  0
 66 71  1  0  0  0  0
 68 70  1  0  0  0  0
 68 81  1  0  0  0  0
 69 82  1  0  0  0  0
 71 89  1  0  0  0  0
 72 74  1  0  0  0  0
M  CHG  1  82   1
M  ISO  4  39 100  71 101  79 100  89 101
M  END
> <Batch ID>
0143

> <Smiles>
CNC(C)C(=O)NC(C(=O)N1Cc2cc([101O:1][101C:1](C)(C)CCC(C)=C(C)Nc3cc([100NH:0][100C:0](=O)N4CCCC(n5nc(-c6ccc(Oc7ccc(F)cc7F)cc6)c(C(N)=O)c5N)C4)cc(C4CCC4)c3)ccc2CC1C(=O)NC1CCCc2ccccc21)C(C)(C)C

> <Shape>
0.235

> <Color>
0.085

> <Negative vol penalty>
0.000

$$$$

  -OEChem-04052303003D

 85 93  0     1  0  0  0  0  0999 V2000
  -29.4658  -21.6124   25.8669 C   0  0  0  0  0  0  0  0  0  0  0  0
  -29.6041  -22.8031   25.1626 C   0  0  0  0  0  0  0  0  0  0  0  0
  -26.5777  -12.6889   21.7699 C   0  0  0  0  0  0  0  0  0  0  0  0
  -25.8803  -14.0799   19.9216 C   0  0  0  0  0  0  0  0  0  0  0  0
  -28.2852  -20.8796   25.7644 C   0  0  0  0  0  0  0  0  0  0  0  0
  -28.5576  -23.2674   24.3651 C   0  0  0  0  0  0  0  0  0  0  0  0
  -28.2395  -28.0977   20.6645 C   0  0  0  0  0  0  0  0  0  0  0  0
  -25.3139  -12.0996   21.8033 C   0  0  0  0  0  0  0  0  0  0  0  0
  -24.6165  -13.4905   19.9550 C   0  0  0  0  0  0  0  0  0  0  0  0
  -28.4717  -28.3805   19.3192 C   0  0  0  0  0  0  0  0  0  0  0  0
  -23.6215   -9.7355   20.0771 C   0  0  0  0  0  0  0  0  0  0  0  0
  -23.5565   -8.3473   20.1965 C   0  0  0  0  0  0  0  0  0  0  0  0
  -29.9538  -23.0646   20.4795 C   0  0  0  0  0  0  0  0  0  0  0  0
  -29.6518  -23.9740   19.4250 C   0  0  0  0  0  0  0  0  0  0  0  0
  -26.1199  -28.1014   18.8608 C   0  0  0  0  0  0  0  0  0  0  0  0
  -22.3192   -8.5826   22.2583 C   0  0  0  0  0  0  0  0  0  0  0  0
  -26.8609  -13.6791   20.8291 C   0  0  0  0  0  0  0  0  0  0  0  0
  -29.2837  -13.8629   20.0520 C   0  0  0  0  0  0  0  0  0  0  0  0
  -27.2290  -21.3295   24.9552 C   0  0  0  0  0  0  0  0  0  0  0  0
  -26.9452  -27.8035   21.1169 C   0  0  0  0  0  0  0  0  0  0  0  0
  -27.3491  -22.5543   24.2675 C   0  0  0  0  0  0  0  0  0  0  0  0
  -25.8735  -27.8178   20.2128 C   0  0  0  0  0  0  0  0  0  0  0  0
  -24.3333  -12.5003   20.8958 C   0  0  0  0  0  0  0  0  0  0  0  0
  -27.4123  -28.3795   18.4166 C   0  0  0  0  0  0  0  0  0  0  0  0
  -23.0354  -10.5473   21.0483 C   0  0  0  0  0  0  0  0  0  0  0  0
  -22.9054   -7.7708   21.2871 C   0  0  0  0  0  0  0  0  0  0  0  0
  -22.3843   -9.9708   22.1389 C   0  0  0  0  0  0  0  0  0  0  0  0
  -28.1660  -14.2887   20.7945 C   0  0  0  0  0  0  0  0  0  0  0  0
  -30.2676  -14.7697   20.3621 C   0  0  0  0  0  0  0  0  0  0  0  0
  -29.4673  -21.8007   20.2280 C   0  0  0  0  0  0  0  0  0  0  0  0
  -28.9461  -23.3702   18.4074 C   0  0  0  0  0  0  0  0  0  0  0  0
  -29.4203  -12.7474   19.1616 C   0  0  0  0  0  0  0  0  0  0  0  0
  -25.5618  -25.2834   22.4729 C   0  0  0  0  0  0  0  0  0  0  0  0
  -28.5702  -25.5842   15.4320 C   0  0  0  0  0  0  0  0  0  0  0  0
  -23.0276  -27.2938   22.7138 C   0  0  0  0  0  0  0  0  0  0  0  0
  -21.4060  -30.0634   21.5532 C   0  0  0  0  0  0  0  0  0  0  0  0
  -30.1473  -20.4419   22.2374 C   0  0  0  0  0  0  0  0  0  0  0  0
  -25.9705  -20.5008   24.8868 C   0  0  0  0  0  0  0  0  0  0  0  0
  -26.7073  -27.5269   22.5761 C   0  0  0  0  0  0  0  0  0  0  0  0
  -24.4621  -27.5283   20.6516 C   0  0  0  0  0  0  0  0  0  0  0  0
  -25.0998  -20.8405   23.6815 C   0  0  0  0  0  0  0  0  0  0  0  0
  -31.6965  -17.6886   23.8795 C   0  0  0  0  0  0  0  0  0  0  0  0
  -24.8986  -22.3459   23.5934 C   0  0  0  0  0  0  0  0  0  0  0  0
  -31.0731  -16.4655   23.2030 C   0  0  0  0  0  0  0  0  0  0  0  0
  -30.6860  -18.8225   24.0436 C   0  0  0  0  0  0  0  0  0  0  0  0
  -29.3662  -17.9934   22.1358 C   0  0  0  0  0  0  0  0  0  0  0  0
  -26.2359  -23.0634   23.3698 C   0  0  1  0  0  0  0  0  0  0  0  0
  -25.4284  -26.7359   22.8335 C   0  0  1  0  0  0  0  0  0  0  0  0
  -30.3627  -16.8487   21.8900 C   0  0  2  0  0  0  0  0  0  0  0  0
  -19.3386  -31.4363   21.9254 C   0  0  0  0  0  0  0  0  0  0  0  0
  -21.3600  -25.1588   21.3099 C   0  0  0  0  0  0  0  0  0  0  0  0
  -19.6238  -26.9069   20.8646 C   0  0  0  0  0  0  0  0  0  0  0  0
  -20.2061  -26.2996   23.2130 C   0  0  0  0  0  0  0  0  0  0  0  0
  -26.4927  -27.1945   13.8088 C   0  0  0  0  0  0  0  0  0  0  0  0
  -27.8764  -29.2270   14.2318 C   0  0  0  0  0  0  0  0  0  0  0  0
  -22.9871  -32.4757   22.2164 C   0  0  0  0  0  0  0  0  0  0  0  0
  -28.7714  -27.0070   14.9305 C   0  0  0  0  0  0  0  0  0  0  0  0
  -28.7208  -25.3632   16.9233 C   0  0  0  0  0  0  0  0  0  0  0  0
  -26.7675  -28.0385   16.1530 C   0  0  0  0  0  0  0  0  0  1  0  0
  -21.8494  -27.6388   21.8353 C   0  0  1  0  0  0  0  0  0  0  0  0
  -20.8076  -31.2569   22.2756 C   0  0  2  0  0  0  0  0  0  0  0  0
  -20.7866  -26.5046   21.7967 C   0  0  0  0  0  0  0  0  0  0  0  0
  -27.4773  -27.8461   14.7963 C   0  0  0  0  0  0  0  0  0  0  0  0
  -28.4156  -15.3809   21.5216 N   0  0  0  0  0  0  0  0  0  0  0  0
  -29.7015  -15.6490   21.2376 N   0  0  0  0  0  0  0  0  0  0  0  0
  -24.2814  -27.2574   22.0874 N   0  0  0  0  0  0  0  0  0  0  0  0
  -30.0562  -19.1339   22.7586 N   0  0  0  0  0  0  0  0  0  0  0  0
  -31.5530  -14.8926   19.9686 N   0  0  0  0  0  0  0  0  0  0  0  0
  -28.3104  -11.9166   18.9562 N   0  0  0  0  0  0  0  0  0  0  0  0
  -29.5386  -20.6109   20.9942 N   0  0  0  0  0  0  0  0  0  0  0  0
  -28.5002  -23.9749   17.2414 N   0  0  0  0  0  0  0  0  0  0  0  0
  -26.0340  -24.4896   23.5007 N   0  0  0  0  0  0  0  0  0  0  0  0
  -21.3408  -28.9181   22.3183 N   0  0  0  0  0  0  0  0  0  0  0  0
  -21.5346  -32.5041   21.9055 N   0  3  0  0  0  0  0  0  0  0  0  0
  -30.4996  -12.4854   18.5785 O   0  0  0  0  0  0  0  0  0  0  0  0
  -25.2574  -24.9101   21.3461 O   0  0  0  0  0  0  0  0  0  0  0  0
  -28.3126  -24.6680   14.6510 O   0  0  0  0  0  0  0  0  0  0  0  0
  -22.8432  -27.0720   23.9131 O   0  0  0  0  0  0  0  0  0  0  0  0
  -21.8802  -30.1386   20.4218 O   0  0  0  0  0  0  0  0  0  0  0  0
  -30.7464  -21.3388   22.8363 O   0  0  0  0  0  0  0  0  0  0  0  0
  -23.1000  -11.9253   20.9279 O   0  0  0  0  0  0  0  0  0  0  0  0
  -27.6363  -28.6545   17.1028 O   0  0  0  0  0  0  0  0  0  1  0  0
  -22.8417   -6.4377   21.4009 F   0  0  0  0  0  0  0  0  0  0  0  0
  -21.8183  -10.7455   23.0745 F   0  0  0  0  0  0  0  0  0  0  0  0
  -28.6503  -21.7138   18.7256 S   0  0  0  0  0  0  0  0  0  0  0  0
  1  2  1  0  0  0  0
  1  5  2  0  0  0  0
  2  6  2  0  0  0  0
  3  8  2  0  0  0  0
  3 17  1  0  0  0  0
  4  9  1  0  0  0  0
  4 17  2  0  0  0  0
  5 19  1  0  0  0  0
  6 21  1  0  0  0  0
  7 10  2  0  0  0  0
  7 20  1  0  0  0  0
  8 23  1  0  0  0  0
  9 23  2  0  0  0  0
 10 24  1  0  0  0  0
 11 12  2  0  0  0  0
 11 25  1  0  0  0  0
 12 26  1  0  0  0  0
 13 14  1  0  0  0  0
 13 30  2  0  0  0  0
 14 31  2  0  0  0  0
 15 22  1  0  0  0  0
 15 24  2  0  0  0  0
 16 26  2  0  0  0  0
 16 27  1  0  0  0  0
 17 28  1  0  0  0  0
 18 28  1  0  0  0  0
 18 29  2  0  0  0  0
 18 32  1  0  0  0  0
 19 21  2  0  0  0  0
 19 38  1  0  0  0  0
 20 22  2  0  0  0  0
 20 39  1  0  0  0  0
 21 47  1  0  0  0  0
 22 40  1  0  0  0  0
 23 81  1  0  0  0  0
 24 82  1  0  0  0  0
 25 27  2  0  0  0  0
 25 81  1  0  0  0  0
 26 83  1  0  0  0  0
 27 84  1  0  0  0  0
 28 64  2  0  0  0  0
 29 65  1  0  0  0  0
 29 68  1  0  0  0  0
 30 70  1  0  0  0  0
 30 85  1  0  0  0  0
 31 71  1  0  0  0  0
 31 85  1  0  0  0  0
 32 69  1  0  0  0  0
 32 75  2  0  0  0  0
 33 48  1  0  0  0  0
 33 72  1  0  0  0  0
 33 76  2  0  0  0  0
 34 57  1  0  0  0  0
 34 58  1  0  0  0  0
 34 77  2  0  0  0  0
 35 60  1  0  0  0  0
 35 66  1  0  0  0  0
 35 78  2  0  0  0  0
 36 61  1  0  0  0  0
 36 73  1  0  0  0  0
 36 79  2  0  0  0  0
 37 67  1  0  0  0  0
 37 70  1  0  0  0  0
 37 80  2  0  0  0  0
 38 41  1  0  0  0  0
 39 48  1  0  0  0  0
 40 66  1  0  0  0  0
 41 43  1  0  0  0  0
 42 44  1  0  0  0  0
 42 45  1  0  0  0  0
 43 47  1  0  0  0  0
 44 49  1  0  0  0  0
 45 67  1  0  0  0  0
 46 49  1  0  0  0  0
 46 67  1  0  0  0  0
 47 72  1  0  0  0  0
 48 66  1  0  0  0  0
 49 65  1  0  0  0  0
 50 61  1  0  0  0  0
 51 62  1  0  0  0  0
 52 62  1  0  0  0  0
 53 62  1  0  0  0  0
 54 63  1  0  0  0  0
 55 63  1  0  0  0  0
 56 74  1  0  0  0  0
 57 63  1  0  0  0  0
 58 71  1  0  0  0  0
 59 63  1  0  0  0  0
 59 82  1  0  0  0  0
 60 62  1  0  0  0  0
 60 73  1  0  0  0  0
 61 74  1  0  0  0  0
 64 65  1  0  0  0  0
M  CHG  1  74   1
M  ISO  4  37 100  59 101  70 100  82 101
M  END
> <Batch ID>
0143

> <Smiles>
CNC(C)C(=O)NC(C(=O)N1Cc2cc([101O:1][101CH2:1]C(C)(C)CC(=O)CNc3ccc([100NH:0][100C:0](=O)N4CCCC(n5nc(-c6ccc(Oc7ccc(F)cc7F)cc6)c(C(N)=O)c5N)C4)s3)ccc2CC1C(=O)NC1CCCc2ccccc21)C(C)(C)C

> <Shape>
0.248

> <Color>
0.069

> <Negative vol penalty>
0.000

$$$$

  -OEChem-04052303003D

 91 99  0     1  0  0  0  0  0999 V2000
  -19.5901  -14.6342   14.7066 C   0  0  0  0  0  0  0  0  0  0  0  0
  -20.0659  -15.6718   15.5019 C   0  0  0  0  0  0  0  0  0  0  0  0
  -23.4096  -29.7180   19.6690 C   0  0  0  0  0  0  0  0  0  0  0  0
  -23.8834  -28.5013   21.7018 C   0  0  0  0  0  0  0  0  0  0  0  0
  -19.5847  -13.3286   15.1959 C   0  0  0  0  0  0  0  0  0  0  0  0
  -20.5357  -15.4045   16.7873 C   0  0  0  0  0  0  0  0  0  0  0  0
  -25.1355  -18.2231   19.6861 C   0  0  0  0  0  0  0  0  0  0  0  0
  -22.0815  -29.8677   20.0681 C   0  0  0  0  0  0  0  0  0  0  0  0
  -22.5552  -28.6510   22.1010 C   0  0  0  0  0  0  0  0  0  0  0  0
  -25.1606  -19.2446   20.6346 C   0  0  0  0  0  0  0  0  0  0  0  0
  -19.5700  -27.2220   21.4099 C   0  0  0  0  0  0  0  0  0  0  0  0
  -18.9190  -26.1026   21.9282 C   0  0  0  0  0  0  0  0  0  0  0  0
  -29.2435  -20.9376   19.7409 C   0  0  0  0  0  0  0  0  0  0  0  0
  -25.3011  -17.5998   22.3936 C   0  0  0  0  0  0  0  0  0  0  0  0
  -29.0111  -22.1883   21.7949 C   0  0  0  0  0  0  0  0  0  0  0  0
  -18.5527  -27.2780   24.0070 C   0  0  0  0  0  0  0  0  0  0  0  0
  -24.3106  -29.0348   20.4859 C   0  0  0  0  0  0  0  0  0  0  0  0
  -29.2983  -19.7499   20.4703 C   0  0  0  0  0  0  0  0  0  0  0  0
  -26.7553  -29.7496   20.3450 C   0  0  0  0  0  0  0  0  0  0  0  0
  -20.0635  -13.0438   16.4844 C   0  0  0  0  0  0  0  0  0  0  0  0
  -25.1821  -16.8797   20.0855 C   0  0  0  0  0  0  0  0  0  0  0  0
  -20.5354  -14.0941   17.2947 C   0  0  0  0  0  0  0  0  0  0  0  0
  -25.2790  -16.5632   21.4481 C   0  0  0  0  0  0  0  0  0  0  0  0
  -29.0999  -22.1568   20.4032 C   0  0  0  0  0  0  0  0  0  0  0  0
  -21.6543  -29.3342   21.2841 C   0  0  0  0  0  0  0  0  0  0  0  0
  -25.2405  -18.9330   21.9887 C   0  0  0  0  0  0  0  0  0  0  0  0
  -19.7125  -28.3695   22.1902 C   0  0  0  0  0  0  0  0  0  0  0  0
  -29.0659  -21.0006   22.5243 C   0  0  0  0  0  0  0  0  0  0  0  0
  -29.2095  -19.7814   21.8620 C   0  0  0  0  0  0  0  0  0  0  0  0
  -18.4103  -26.1306   23.2267 C   0  0  0  0  0  0  0  0  0  0  0  0
  -19.2038  -28.3975   23.4887 C   0  0  0  0  0  0  0  0  0  0  0  0
  -25.6825  -28.8793   20.0739 C   0  0  0  0  0  0  0  0  0  0  0  0
  -27.8378  -29.1590   19.7402 C   0  0  0  0  0  0  0  0  0  0  0  0
  -26.2863  -21.5954   26.0044 C   0  0  0  0  0  0  0  0  0  0  0  0
  -29.4487  -18.4881   19.7584 C   0  0  0  0  0  0  0  0  0  0  0  0
  -26.7718  -30.9817   21.0781 C   0  0  0  0  0  0  0  0  0  0  0  0
  -27.6077  -21.6563   25.7496 C   0  0  0  0  0  0  0  0  0  0  0  0
  -23.2282  -14.3879   19.8078 C   0  0  0  0  0  0  0  0  0  0  0  0
  -25.7256  -12.7796   21.1110 C   0  0  0  0  0  0  0  0  0  0  0  0
  -28.5621  -12.8765   23.0062 C   0  0  0  0  0  0  0  0  0  0  0  0
  -29.1169  -23.5084   18.2774 C   0  0  0  0  0  0  0  0  0  0  0  0
  -19.9938  -11.6237   16.9873 C   0  0  0  0  0  0  0  0  0  0  0  0
  -25.1810  -15.7901   19.0486 C   0  0  0  0  0  0  0  0  0  0  0  0
  -25.3520  -15.1373   21.9277 C   0  0  0  0  0  0  0  0  0  0  0  0
  -20.8568  -11.3713   18.2209 C   0  0  0  0  0  0  0  0  0  0  0  0
  -28.9798  -26.3001   16.0718 C   0  0  0  0  0  0  0  0  0  0  0  0
  -20.6540  -12.4789   19.2499 C   0  0  0  0  0  0  0  0  0  0  0  0
  -28.2216  -27.3596   16.8748 C   0  0  0  0  0  0  0  0  0  0  0  0
  -28.4370  -24.8959   16.3312 C   0  0  0  0  0  0  0  0  0  0  0  0
  -27.6038  -25.5704   18.5493 C   0  0  0  0  0  0  0  0  0  0  0  0
  -21.0762  -13.8406   18.6852 C   0  0  1  0  0  0  0  0  0  0  0  0
  -24.7147  -14.4447   19.5961 C   0  0  1  0  0  0  0  0  0  0  0  0
  -28.1569  -26.9937   18.3706 C   0  0  2  0  0  0  0  0  0  0  0  0
  -28.8895  -18.3197   18.3471 C   0  0  0  0  0  0  0  0  0  0  0  0
  -28.5999  -21.2202   26.7971 C   0  0  0  0  0  0  0  0  0  0  0  0
  -30.3672  -11.3966   23.9275 C   0  0  0  0  0  0  0  0  0  0  0  0
  -23.7897  -11.7405   23.2282 C   0  0  0  0  0  0  0  0  0  0  0  0
  -25.7682  -11.0810   24.6136 C   0  0  0  0  0  0  0  0  0  0  0  0
  -25.4130  -10.0402   22.3745 C   0  0  0  0  0  0  0  0  0  0  0  0
  -22.9737  -21.4297   23.9105 C   0  0  0  0  0  0  0  0  0  0  0  0
  -23.4481  -20.5212   26.1898 C   0  0  0  0  0  0  0  0  0  0  0  0
  -30.6733  -14.3415   21.5379 C   0  0  0  0  0  0  0  0  0  0  0  0
  -25.1482  -22.0055   25.1066 C   0  0  0  0  0  0  0  0  0  0  0  0
  -28.2157  -22.1082   24.4495 C   0  0  0  0  0  0  0  0  0  0  0  0
  -24.7042  -19.6385   24.1957 C   0  0  0  0  0  0  0  0  0  1  0  0
  -26.1681  -12.4489   22.5160 C   0  0  1  0  0  0  0  0  0  0  0  0
  -29.9469  -12.2981   22.7771 C   0  0  2  0  0  0  0  0  0  0  0  0
  -25.2815  -11.3546   23.1745 C   0  0  0  0  0  0  0  0  0  0  0  0
  -24.0855  -20.9015   24.8362 C   0  0  0  0  0  0  0  0  0  0  0  0
  -26.0500  -27.8168   19.3529 N   0  0  0  0  0  0  0  0  0  0  0  0
  -30.0494  -17.4564   20.3019 N   0  0  0  0  0  0  0  0  0  0  0  0
  -27.3659  -28.0156   19.1657 N   0  0  0  0  0  0  0  0  0  0  0  0
  -25.3414  -14.1073   20.8758 N   0  0  0  0  0  0  0  0  0  0  0  0
  -28.4089  -24.6179   17.7688 N   0  0  0  0  0  0  0  0  0  0  0  0
  -29.1378  -29.5114   19.6490 N   0  0  0  0  0  0  0  0  0  0  0  0
  -25.5714  -31.4446   21.6340 N   0  0  0  0  0  0  0  0  0  0  0  0
  -29.0439  -23.3633   19.6624 N   0  0  0  0  0  0  0  0  0  0  0  0
  -22.5177  -13.9687   18.6993 N   0  0  0  0  0  0  0  0  0  0  0  0
  -27.5817  -12.0991   22.4270 N   0  0  0  0  0  0  0  0  0  0  0  0
  -30.9502  -13.3923   22.6467 N   0  3  0  0  0  0  0  0  0  0  0  0
  -27.8168  -31.6606   21.2215 O   0  0  0  0  0  0  0  0  0  0  0  0
  -22.7606  -14.6999   20.8967 O   0  0  0  0  0  0  0  0  0  0  0  0
  -25.7279  -11.8942   20.2521 O   0  0  0  0  0  0  0  0  0  0  0  0
  -28.3692  -13.9123   23.6390 O   0  0  0  0  0  0  0  0  0  0  0  0
  -29.7644  -22.7591   17.5417 O   0  0  0  0  0  0  0  0  0  0  0  0
  -29.2627  -18.6239   22.5819 O   0  0  0  0  0  0  0  0  0  0  0  0
  -20.3584  -29.4803   21.6739 O   0  0  0  0  0  0  0  0  0  0  0  0
  -28.9776  -21.0457   23.8912 O   0  0  0  0  0  0  0  0  0  0  0  0
  -25.2648  -19.9352   22.9231 O   0  0  0  0  0  0  0  0  0  1  0  0
  -17.7838  -25.0561   23.7237 F   0  0  0  0  0  0  0  0  0  0  0  0
  -19.3366  -29.4974   24.2426 F   0  0  0  0  0  0  0  0  0  0  0  0
  1  2  1  0  0  0  0
  1  5  2  0  0  0  0
  2  6  2  0  0  0  0
  3  8  2  0  0  0  0
  3 17  1  0  0  0  0
  4  9  1  0  0  0  0
  4 17  2  0  0  0  0
  5 20  1  0  0  0  0
  6 22  1  0  0  0  0
  7 10  2  0  0  0  0
  7 21  1  0  0  0  0
  8 25  1  0  0  0  0
  9 25  2  0  0  0  0
 10 26  1  0  0  0  0
 11 12  2  0  0  0  0
 11 27  1  0  0  0  0
 12 30  1  0  0  0  0
 13 18  2  0  0  0  0
 13 24  1  0  0  0  0
 14 23  1  0  0  0  0
 14 26  2  0  0  0  0
 15 24  2  0  0  0  0
 15 28  1  0  0  0  0
 16 30  2  0  0  0  0
 16 31  1  0  0  0  0
 17 32  1  0  0  0  0
 18 29  1  0  0  0  0
 18 35  1  0  0  0  0
 19 32  1  0  0  0  0
 19 33  2  0  0  0  0
 19 36  1  0  0  0  0
 20 22  2  0  0  0  0
 20 42  1  0  0  0  0
 21 23  2  0  0  0  0
 21 43  1  0  0  0  0
 22 51  1  0  0  0  0
 23 44  1  0  0  0  0
 24 77  1  0  0  0  0
 25 87  1  0  0  0  0
 26 89  1  0  0  0  0
 27 31  2  0  0  0  0
 27 87  1  0  0  0  0
 28 29  2  0  0  0  0
 28 88  1  0  0  0  0
 29 86  1  0  0  0  0
 30 90  1  0  0  0  0
 31 91  1  0  0  0  0
 32 70  2  0  0  0  0
 33 72  1  0  0  0  0
 33 75  1  0  0  0  0
 34 37  2  0  0  0  0
 34 63  1  0  0  0  0
 35 54  1  0  0  0  0
 35 71  2  0  0  0  0
 36 76  1  0  0  0  0
 36 81  2  0  0  0  0
 37 55  1  0  0  0  0
 37 64  1  0  0  0  0
 38 52  1  0  0  0  0
 38 78  1  0  0  0  0
 38 82  2  0  0  0  0
 39 66  1  0  0  0  0
 39 73  1  0  0  0  0
 39 83  2  0  0  0  0
 40 67  1  0  0  0  0
 40 79  1  0  0  0  0
 40 84  2  0  0  0  0
 41 74  1  0  0  0  0
 41 77  1  0  0  0  0
 41 85  2  0  0  0  0
 42 45  1  0  0  0  0
 43 52  1  0  0  0  0
 44 73  1  0  0  0  0
 45 47  1  0  0  0  0
 46 48  1  0  0  0  0
 46 49  1  0  0  0  0
 47 51  1  0  0  0  0
 48 53  1  0  0  0  0
 49 74  1  0  0  0  0
 50 53  1  0  0  0  0
 50 74  1  0  0  0  0
 51 78  1  0  0  0  0
 52 73  1  0  0  0  0
 53 72  1  0  0  0  0
 56 67  1  0  0  0  0
 57 68  1  0  0  0  0
 58 68  1  0  0  0  0
 59 68  1  0  0  0  0
 60 69  1  0  0  0  0
 61 69  1  0  0  0  0
 62 80  1  0  0  0  0
 63 69  1  0  0  0  0
 64 88  1  0  0  0  0
 65 69  1  0  0  0  0
 65 89  1  0  0  0  0
 66 68  1  0  0  0  0
 66 79  1  0  0  0  0
 67 80  1  0  0  0  0
 70 72  1  0  0  0  0
M  CHG  1  80   1
M  ISO  4  41 100  65 101  77 100  89 101
M  END
> <Batch ID>
0143

> <Smiles>
CNC(C)C(=O)NC(C(=O)N1Cc2cc([101O:1][101CH2:1]C(C)(C)CC=C(C)COc3cc([100NH:0][100C:0](=O)N4CCCC(n5nc(-c6ccc(Oc7ccc(F)cc7F)cc6)c(C(N)=O)c5N)C4)cc(C(C)=N)c3O)ccc2CC1C(=O)NC1CCCc2ccccc21)C(C)(C)C

> <Shape>
0.237

> <Color>
0.065

> <Negative vol penalty>
0.000

$$$$

  -OEChem-04052303003D

 87 95  0     1  0  0  0  0  0999 V2000
  -38.5729  -27.3255   16.8328 C   0  0  0  0  0  0  0  0  0  0  0  0
  -38.5232  -26.6360   18.0401 C   0  0  0  0  0  0  0  0  0  0  0  0
  -22.9877  -10.0728   19.8528 C   0  0  0  0  0  0  0  0  0  0  0  0
  -23.8379   -9.7936   22.0969 C   0  0  0  0  0  0  0  0  0  0  0  0
  -37.5035  -28.1330   16.4480 C   0  0  0  0  0  0  0  0  0  0  0  0
  -37.4044  -26.7545   18.8638 C   0  0  0  0  0  0  0  0  0  0  0  0
  -34.9758  -22.4027   22.4232 C   0  0  0  0  0  0  0  0  0  0  0  0
  -22.2014   -8.9313   20.0086 C   0  0  0  0  0  0  0  0  0  0  0  0
  -23.0516   -8.6520   22.2528 C   0  0  0  0  0  0  0  0  0  0  0  0
  -35.0938  -22.1311   23.7856 C   0  0  0  0  0  0  0  0  0  0  0  0
  -19.8163   -7.9284   22.9086 C   0  0  0  0  0  0  0  0  0  0  0  0
  -19.1056   -7.7907   24.1008 C   0  0  0  0  0  0  0  0  0  0  0  0
  -30.9636  -17.7183   24.5238 C   0  0  0  0  0  0  0  0  0  0  0  0
  -33.0552  -23.3524   24.1995 C   0  0  0  0  0  0  0  0  0  0  0  0
  -32.3765  -16.0852   22.7576 C   0  0  0  0  0  0  0  0  0  0  0  0
  -20.2837   -5.7332   24.5655 C   0  0  0  0  0  0  0  0  0  0  0  0
  -23.8060  -10.5039   20.8969 C   0  0  0  0  0  0  0  0  0  0  0  0
  -30.2794  -16.9750   23.5621 C   0  0  0  0  0  0  0  0  0  0  0  0
  -24.2600  -13.0102   21.0377 C   0  0  0  0  0  0  0  0  0  0  0  0
  -36.3668  -28.2539   17.2629 C   0  0  0  0  0  0  0  0  0  0  0  0
  -33.9006  -23.1617   21.9393 C   0  0  0  0  0  0  0  0  0  0  0  0
  -36.3192  -27.5655   18.4901 C   0  0  0  0  0  0  0  0  0  0  0  0
  -32.9244  -23.6301   22.8302 C   0  0  0  0  0  0  0  0  0  0  0  0
  -32.3544  -17.6452   24.6024 C   0  0  0  0  0  0  0  0  0  0  0  0
  -30.9858  -16.1585   22.6791 C   0  0  0  0  0  0  0  0  0  0  0  0
  -22.2333   -8.2209   21.2086 C   0  0  0  0  0  0  0  0  0  0  0  0
  -34.1350  -22.6084   24.6743 C   0  0  0  0  0  0  0  0  0  0  0  0
  -20.7607   -6.9685   22.5447 C   0  0  0  0  0  0  0  0  0  0  0  0
  -19.3393   -6.6931   24.9293 C   0  0  0  0  0  0  0  0  0  0  0  0
  -33.0608  -16.8286   23.7193 C   0  0  0  0  0  0  0  0  0  0  0  0
  -20.9944   -5.8709   23.3731 C   0  0  0  0  0  0  0  0  0  0  0  0
  -24.6188  -11.6827   20.7364 C   0  0  0  0  0  0  0  0  0  0  0  0
  -25.3706  -13.7489   20.7097 C   0  0  0  0  0  0  0  0  0  0  0  0
  -28.8263  -17.0753   23.5053 C   0  0  0  0  0  0  0  0  0  0  0  0
  -23.0327  -13.5293   21.5667 C   0  0  0  0  0  0  0  0  0  0  0  0
  -33.6199  -25.9393   20.4194 C   0  0  0  0  0  0  0  0  0  0  0  0
  -30.4909  -25.0972   20.2701 C   0  0  0  0  0  0  0  0  0  0  0  0
  -32.5035  -19.2592   26.5299 C   0  0  0  0  0  0  0  0  0  0  0  0
  -27.9144  -23.2793   21.5755 C   0  0  0  0  0  0  0  0  0  0  0  0
  -30.8822  -14.5385   20.7526 C   0  0  0  0  0  0  0  0  0  0  0  0
  -35.2557  -29.1758   16.8269 C   0  0  0  0  0  0  0  0  0  0  0  0
  -33.7733  -23.4232   20.4635 C   0  0  0  0  0  0  0  0  0  0  0  0
  -31.7401  -24.4324   22.3589 C   0  0  0  0  0  0  0  0  0  0  0  0
  -33.9475  -28.9524   17.5812 C   0  0  0  0  0  0  0  0  0  0  0  0
  -29.5630  -12.4510   18.1876 C   0  0  0  0  0  0  0  0  0  0  0  0
  -34.2075  -28.8452   19.0805 C   0  0  0  0  0  0  0  0  0  0  0  0
  -28.1296  -12.1743   18.6468 C   0  0  0  0  0  0  0  0  0  0  0  0
  -30.5349  -12.5066   19.3648 C   0  0  0  0  0  0  0  0  0  0  0  0
  -28.7204  -13.1528   20.9008 C   0  0  0  0  0  0  0  0  0  0  0  0
  -35.1124  -27.6489   19.3993 C   0  0  1  0  0  0  0  0  0  0  0  0
  -32.9130  -24.6422   20.1448 C   0  0  1  0  0  0  0  0  0  0  0  0
  -27.6944  -13.1522   19.7558 C   0  0  2  0  0  0  0  0  0  0  0  0
  -28.1034  -17.3594   24.7881 C   0  0  0  0  0  0  0  0  0  0  0  0
  -25.4661  -22.8263   21.2623 C   0  0  0  0  0  0  0  0  0  0  0  0
  -29.8329  -27.7995   21.5249 C   0  0  0  0  0  0  0  0  0  0  0  0
  -27.5495  -26.9196   22.0539 C   0  0  0  0  0  0  0  0  0  0  0  0
  -28.2943  -27.1035   19.6802 C   0  0  0  0  0  0  0  0  0  0  0  0
  -28.3922  -20.4017   21.0757 C   0  0  0  0  0  0  0  0  0  0  0  0
  -33.6033  -19.8721   27.3857 C   0  0  0  0  0  0  0  0  0  0  0  0
  -33.2439  -21.2633   27.8960 C   0  0  0  0  0  0  0  0  0  0  0  0
  -33.0369  -22.2456   26.7524 C   0  0  0  0  0  0  0  0  0  1  0  0
  -29.2848  -25.3039   21.1542 C   0  0  1  0  0  0  0  0  0  0  0  0
  -26.8798  -22.3832   20.9189 C   0  0  2  0  0  0  0  0  0  0  0  0
  -28.7636  -26.7682   21.1127 C   0  0  0  0  0  0  0  0  0  0  0  0
  -25.8601  -11.5809   20.2539 N   0  0  0  0  0  0  0  0  0  0  0  0
  -26.2911  -12.8538   20.2495 N   0  0  0  0  0  0  0  0  0  0  0  0
  -31.6633  -24.6671   20.9075 N   0  0  0  0  0  0  0  0  0  0  0  0
  -30.0600  -13.4563   20.3735 N   0  0  0  0  0  0  0  0  0  0  0  0
  -25.6398  -15.0703   20.7729 N   0  0  0  0  0  0  0  0  0  0  0  0
  -21.9938  -12.6315   21.8478 N   0  0  0  0  0  0  0  0  0  0  0  0
  -33.0468  -18.4005   25.5784 N   0  0  0  0  0  0  0  0  0  0  0  0
  -30.3118  -15.3935   21.6951 N   0  0  0  0  0  0  0  0  0  0  0  0
  -34.3559  -26.4161   19.3515 N   0  0  0  0  0  0  0  0  0  0  0  0
  -28.3015  -24.3078   20.7426 N   0  0  0  0  0  0  0  0  0  0  0  0
  -27.0534  -20.9739   21.3710 N   0  3  0  0  0  0  0  0  0  0  0  0
  -28.1514  -16.9394   22.4849 O   0  0  0  0  0  0  0  0  0  0  0  0
  -22.8565  -14.7547   21.7684 O   0  0  0  0  0  0  0  0  0  0  0  0
  -33.5049  -26.4692   21.5184 O   0  0  0  0  0  0  0  0  0  0  0  0
  -30.3943  -25.3026   19.0577 O   0  0  0  0  0  0  0  0  0  0  0  0
  -31.3188  -19.5252   26.7034 O   0  0  0  0  0  0  0  0  0  0  0  0
  -28.3342  -23.0883   22.7146 O   0  0  0  0  0  0  0  0  0  0  0  0
  -31.9984  -14.7105   20.2561 O   0  0  0  0  0  0  0  0  0  0  0  0
  -21.4660   -7.1071   21.3611 O   0  0  0  0  0  0  0  0  0  0  0  0
  -34.2482  -22.3453   26.0047 O   0  0  0  0  0  0  0  0  0  1  0  0
  -18.6579   -6.5618   26.0750 F   0  0  0  0  0  0  0  0  0  0  0  0
  -34.3976  -16.7506   23.7853 F   0  0  0  0  0  0  0  0  0  0  0  0
  -21.9013   -4.9461   23.0294 F   0  0  0  0  0  0  0  0  0  0  0  0
  1  2  1  0  0  0  0
  1  5  2  0  0  0  0
  2  6  2  0  0  0  0
  3  8  2  0  0  0  0
  3 17  1  0  0  0  0
  4  9  1  0  0  0  0
  4 17  2  0  0  0  0
  5 20  1  0  0  0  0
  6 22  1  0  0  0  0
  7 10  2  0  0  0  0
  7 21  1  0  0  0  0
  8 26  1  0  0  0  0
  9 26  2  0  0  0  0
 10 27  1  0  0  0  0
 11 12  2  0  0  0  0
 11 28  1  0  0  0  0
 12 29  1  0  0  0  0
 13 18  2  0  0  0  0
 13 24  1  0  0  0  0
 14 23  1  0  0  0  0
 14 27  2  0  0  0  0
 15 25  2  0  0  0  0
 15 30  1  0  0  0  0
 16 29  2  0  0  0  0
 16 31  1  0  0  0  0
 17 32  1  0  0  0  0
 18 25  1  0  0  0  0
 18 34  1  0  0  0  0
 19 32  1  0  0  0  0
 19 33  2  0  0  0  0
 19 35  1  0  0  0  0
 20 22  2  0  0  0  0
 20 41  1  0  0  0  0
 21 23  2  0  0  0  0
 21 42  1  0  0  0  0
 22 50  1  0  0  0  0
 23 43  1  0  0  0  0
 24 30  2  0  0  0  0
 24 71  1  0  0  0  0
 25 72  1  0  0  0  0
 26 83  1  0  0  0  0
 27 84  1  0  0  0  0
 28 31  2  0  0  0  0
 28 83  1  0  0  0  0
 29 85  1  0  0  0  0
 30 86  1  0  0  0  0
 31 87  1  0  0  0  0
 32 65  2  0  0  0  0
 33 66  1  0  0  0  0
 33 69  1  0  0  0  0
 34 53  1  0  0  0  0
 34 76  2  0  0  0  0
 35 70  1  0  0  0  0
 35 77  2  0  0  0  0
 36 51  1  0  0  0  0
 36 73  1  0  0  0  0
 36 78  2  0  0  0  0
 37 62  1  0  0  0  0
 37 67  1  0  0  0  0
 37 79  2  0  0  0  0
 38 59  1  0  0  0  0
 38 71  1  0  0  0  0
 38 80  2  0  0  0  0
 39 63  1  0  0  0  0
 39 74  1  0  0  0  0
 39 81  2  0  0  0  0
 40 68  1  0  0  0  0
 40 72  1  0  0  0  0
 40 82  2  0  0  0  0
 41 44  1  0  0  0  0
 42 51  1  0  0  0  0
 43 67  1  0  0  0  0
 44 46  1  0  0  0  0
 45 47  1  0  0  0  0
 45 48  1  0  0  0  0
 46 50  1  0  0  0  0
 47 52  1  0  0  0  0
 48 68  1  0  0  0  0
 49 52  1  0  0  0  0
 49 68  1  0  0  0  0
 50 73  1  0  0  0  0
 51 67  1  0  0  0  0
 52 66  1  0  0  0  0
 54 63  1  0  0  0  0
 55 64  1  0  0  0  0
 56 64  1  0  0  0  0
 57 64  1  0  0  0  0
 58 75  1  0  0  0  0
 59 60  1  0  0  0  0
 60 61  1  0  0  0  0
 61 84  1  0  0  0  0
 62 64  1  0  0  0  0
 62 74  1  0  0  0  0
 63 75  1  0  0  0  0
 65 66  1  0  0  0  0
M  CHG  1  75   1
M  ISO  4  40 100  61 101  72 100  84 101
M  END
> <Batch ID>
0143

> <Smiles>
CNC(C)C(=O)NC(C(=O)N1Cc2cc([101O:1][101CH2:1]CCC(=O)Nc3cc(C(C)=O)c([100NH:0][100C:0](=O)N4CCCC(n5nc(-c6ccc(Oc7ccc(F)cc7F)cc6)c(C(N)=O)c5N)C4)cc3F)ccc2CC1C(=O)NC1CCCc2ccccc21)C(C)(C)C

> <Shape>
0.217

> <Color>
0.193

> <Negative vol penalty>
0.000

$$$$

  -OEChem-04052303003D

 86 95  0     1  0  0  0  0  0999 V2000
  -18.3226  -10.2723   19.4494 C   0  0  0  0  0  0  0  0  0  0  0  0
  -18.5738  -11.5832   19.0572 C   0  0  0  0  0  0  0  0  0  0  0  0
  -24.8073  -28.8867   24.3508 C   0  0  0  0  0  0  0  0  0  0  0  0
  -24.3721  -28.3380   22.0385 C   0  0  0  0  0  0  0  0  0  0  0  0
  -19.0048   -9.7283   20.5368 C   0  0  0  0  0  0  0  0  0  0  0  0
  -19.5067  -12.3513   19.7530 C   0  0  0  0  0  0  0  0  0  0  0  0
  -24.3386  -17.5407   18.7340 C   0  0  0  0  0  0  0  0  0  0  0  0
  -23.4668  -29.2325   24.5211 C   0  0  0  0  0  0  0  0  0  0  0  0
  -23.0315  -28.6838   22.2088 C   0  0  0  0  0  0  0  0  0  0  0  0
  -24.6978  -18.7913   19.2346 C   0  0  0  0  0  0  0  0  0  0  0  0
  -20.2498  -27.2907   23.5287 C   0  0  0  0  0  0  0  0  0  0  0  0
  -19.2879  -26.4290   23.0019 C   0  0  0  0  0  0  0  0  0  0  0  0
  -25.8740  -17.7207   21.0483 C   0  0  0  0  0  0  0  0  0  0  0  0
  -18.4554  -28.2138   21.6025 C   0  0  0  0  0  0  0  0  0  0  0  0
  -30.8630  -26.2513   18.7852 C   0  0  0  0  0  0  0  0  0  0  0  0
  -25.2600  -28.4395   23.1094 C   0  0  0  0  0  0  0  0  0  0  0  0
  -27.3599  -27.0843   23.6210 C   0  0  0  0  0  0  0  0  0  0  0  0
  -19.9536  -10.4869   21.2403 C   0  0  0  0  0  0  0  0  0  0  0  0
  -24.7359  -16.3689   19.3939 C   0  0  0  0  0  0  0  0  0  0  0  0
  -20.2014  -11.8173   20.8517 C   0  0  0  0  0  0  0  0  0  0  0  0
  -25.5207  -16.4564   20.5526 C   0  0  0  0  0  0  0  0  0  0  0  0
  -22.5789  -29.1310   23.4501 C   0  0  0  0  0  0  0  0  0  0  0  0
  -25.4632  -18.8816   20.3936 C   0  0  0  0  0  0  0  0  0  0  0  0
  -20.3146  -28.6141   23.0925 C   0  0  0  0  0  0  0  0  0  0  0  0
  -18.3907  -26.8905   22.0387 C   0  0  0  0  0  0  0  0  0  0  0  0
  -19.4174  -29.0756   22.1294 C   0  0  0  0  0  0  0  0  0  0  0  0
  -26.6447  -28.0827   22.9327 C   0  0  0  0  0  0  0  0  0  0  0  0
  -29.8293  -26.7961   18.0525 C   0  0  0  0  0  0  0  0  0  0  0  0
  -28.6259  -27.1421   23.0916 C   0  0  0  0  0  0  0  0  0  0  0  0
  -29.3227  -24.7529   19.2234 C   0  0  0  0  0  0  0  0  0  0  0  0
  -26.9191  -26.1852   24.6471 C   0  0  0  0  0  0  0  0  0  0  0  0
  -26.5055  -22.7033   21.7854 C   0  0  0  0  0  0  0  0  0  0  0  0
  -23.2119  -13.9590   20.7987 C   0  0  0  0  0  0  0  0  0  0  0  0
  -30.6750  -29.1106   17.7965 C   0  0  0  0  0  0  0  0  0  0  0  0
  -26.2017  -12.7255   21.0476 C   0  0  0  0  0  0  0  0  0  0  0  0
  -29.5661  -13.2852   21.1659 C   0  0  0  0  0  0  0  0  0  0  0  0
  -20.6316   -9.8711   22.4386 C   0  0  0  0  0  0  0  0  0  0  0  0
  -24.3628  -15.0270   18.8261 C   0  0  0  0  0  0  0  0  0  0  0  0
  -25.9899  -15.2281   21.2872 C   0  0  0  0  0  0  0  0  0  0  0  0
  -21.8773  -10.6294   22.8901 C   0  0  0  0  0  0  0  0  0  0  0  0
  -31.7085  -30.1727   21.0590 C   0  0  0  0  0  0  0  0  0  0  0  0
  -21.5980  -12.1278   22.9490 C   0  0  0  0  0  0  0  0  0  0  0  0
  -30.5783  -29.6913   21.9680 C   0  0  0  0  0  0  0  0  0  0  0  0
  -28.3791  -21.5003   20.6923 C   0  0  0  0  0  0  0  0  0  0  0  0
  -31.1810  -30.6104   19.6962 C   0  0  0  0  0  0  0  0  0  0  0  0
  -29.3591  -22.6717   20.6181 C   0  0  0  0  0  0  0  0  0  0  0  0
  -29.2444  -29.0839   19.8999 C   0  0  0  0  0  0  0  0  0  0  0  0
  -27.3052  -23.2814   19.4819 C   0  0  0  0  0  0  0  0  0  0  0  0
  -21.2241  -12.6742   21.5659 C   0  0  1  0  0  0  0  0  0  0  0  0
  -24.3884  -13.9104   19.8654 C   0  0  1  0  0  0  0  0  0  0  0  0
  -29.7378  -28.6035   21.2762 C   0  0  2  0  0  0  0  0  0  0  0  0
  -27.0095  -22.1472   20.4763 C   0  0  2  0  0  0  0  0  0  0  0  0
  -25.1609  -23.3784   21.7609 C   0  0  0  0  0  0  0  0  0  0  0  0
  -30.1863  -27.7969   15.7584 C   0  0  0  0  0  0  0  0  0  0  0  0
  -31.7555  -12.0838   21.4124 C   0  0  0  0  0  0  0  0  0  0  0  0
  -25.6818  -12.3963   24.0361 C   0  0  0  0  0  0  0  0  0  0  0  0
  -28.1474  -12.1092   24.3625 C   0  0  0  0  0  0  0  0  0  0  0  0
  -26.8774  -10.4771   22.9675 C   0  0  0  0  0  0  0  0  0  0  0  0
  -30.5016  -14.2042   18.5128 C   0  0  0  0  0  0  0  0  0  0  0  0
  -25.9782  -21.1588   19.9411 C   0  0  0  0  0  0  0  0  0  1  0  0
  -29.7965  -28.0224   17.2324 C   0  0  1  0  0  0  0  0  0  0  0  0
  -27.3078  -12.8019   22.0720 C   0  0  1  0  0  0  0  0  0  0  0  0
  -30.7231  -12.6266   20.4365 C   0  0  2  0  0  0  0  0  0  0  0  0
  -26.9933  -11.9695   23.3470 C   0  0  0  0  0  0  0  0  0  0  0  0
  -30.5742  -25.0799   19.4576 N   0  0  0  0  0  0  0  0  0  0  0  0
  -27.3942  -28.7275   22.0347 N   0  0  0  0  0  0  0  0  0  0  0  0
  -28.5935  -28.1331   22.1551 N   0  0  0  0  0  0  0  0  0  0  0  0
  -28.7016  -23.6353   19.7414 N   0  0  3  0  0  0  0  0  0  0  0  0
  -25.5939  -13.9391   20.6961 N   0  0  0  0  0  0  0  0  0  0  0  0
  -30.3693  -29.5582   19.0819 N   0  0  0  0  0  0  0  0  0  0  0  0
  -29.7526  -26.4413   23.3405 N   0  0  0  0  0  0  0  0  0  0  0  0
  -25.5863  -26.2604   25.0741 N   0  0  0  0  0  0  0  0  0  0  0  0
  -22.4080  -12.8361   20.7495 N   0  0  0  0  0  0  0  0  0  0  0  0
  -28.5302  -12.4016   21.3835 N   0  0  0  0  0  0  0  0  0  0  0  0
  -31.3954  -13.6079   19.5387 N   0  3  0  0  0  0  0  0  0  0  0  0
  -27.6888  -25.3511   25.1814 O   0  0  0  0  0  0  0  0  0  0  0  0
  -27.1607  -22.6076   22.8220 O   0  0  0  0  0  0  0  0  0  0  0  0
  -23.0465  -14.9418   21.5117 O   0  0  0  0  0  0  0  0  0  0  0  0
  -31.6063  -29.5464   17.1147 O   0  0  0  0  0  0  0  0  0  0  0  0
  -25.8932  -11.6302   20.5712 O   0  0  0  0  0  0  0  0  0  0  0  0
  -29.5814  -14.4645   21.5116 O   0  0  0  0  0  0  0  0  0  0  0  0
  -21.2707  -29.4681   23.6160 O   0  0  0  0  0  0  0  0  0  0  0  0
  -25.8147  -20.1010   20.8848 O   0  0  0  0  0  0  0  0  0  1  0  0
  -17.4680  -26.0624   21.5317 F   0  0  0  0  0  0  0  0  0  0  0  0
  -19.4755  -30.3456   21.7055 F   0  0  0  0  0  0  0  0  0  0  0  0
  -28.4349  -25.8090   18.2029 S   0  0  0  0  0  0  0  0  0  0  0  0
  1  2  1  0  0  0  0
  1  5  2  0  0  0  0
  2  6  2  0  0  0  0
  3  8  2  0  0  0  0
  3 16  1  0  0  0  0
  4  9  1  0  0  0  0
  4 16  2  0  0  0  0
  5 18  1  0  0  0  0
  6 20  1  0  0  0  0
  7 10  2  0  0  0  0
  7 19  1  0  0  0  0
  8 22  1  0  0  0  0
  9 22  2  0  0  0  0
 10 23  1  0  0  0  0
 11 12  2  0  0  0  0
 11 24  1  0  0  0  0
 12 25  1  0  0  0  0
 13 21  1  0  0  0  0
 13 23  2  0  0  0  0
 14 25  2  0  0  0  0
 14 26  1  0  0  0  0
 15 28  2  0  0  0  0
 15 65  1  0  0  0  0
 16 27  1  0  0  0  0
 17 27  1  0  0  0  0
 17 29  2  0  0  0  0
 17 31  1  0  0  0  0
 18 20  2  0  0  0  0
 18 37  1  0  0  0  0
 19 21  2  0  0  0  0
 19 38  1  0  0  0  0
 20 49  1  0  0  0  0
 21 39  1  0  0  0  0
 22 82  1  0  0  0  0
 23 83  1  0  0  0  0
 24 26  2  0  0  0  0
 24 82  1  0  0  0  0
 25 84  1  0  0  0  0
 26 85  1  0  0  0  0
 27 66  2  0  0  0  0
 28 61  1  0  0  0  0
 28 86  1  0  0  0  0
 29 67  1  0  0  0  0
 29 71  1  0  0  0  0
 30 65  2  0  0  0  0
 30 68  1  0  0  0  0
 30 86  1  0  0  0  0
 31 72  1  0  0  0  0
 31 76  2  0  0  0  0
 32 52  1  0  0  0  0
 32 53  1  0  0  0  0
 32 77  2  0  0  0  0
 33 50  1  0  0  0  0
 33 73  1  0  0  0  0
 33 78  2  0  0  0  0
 34 61  1  0  0  0  0
 34 70  1  0  0  0  0
 34 79  2  0  0  0  0
 35 62  1  0  0  0  0
 35 69  1  0  0  0  0
 35 80  2  0  0  0  0
 36 63  1  0  0  0  0
 36 74  1  0  0  0  0
 36 81  2  0  0  0  0
 37 40  1  0  0  0  0
 38 50  1  0  0  0  0
 39 69  1  0  0  0  0
 40 42  1  0  0  0  0
 41 43  1  0  0  0  0
 41 45  1  0  0  0  0
 42 49  1  0  0  0  0
 43 51  1  0  0  0  0
 44 46  1  0  0  0  0
 44 52  1  0  0  0  0
 45 70  1  0  0  0  0
 46 68  1  0  0  0  0
 47 51  1  0  0  0  0
 47 70  1  0  0  0  0
 48 52  1  0  0  0  0
 48 68  1  0  0  0  0
 49 73  1  0  0  0  0
 50 69  1  0  0  0  0
 51 67  1  0  0  0  0
 52 60  1  0  0  0  0
 54 61  1  0  0  0  0
 55 63  1  0  0  0  0
 56 64  1  0  0  0  0
 57 64  1  0  0  0  0
 58 64  1  0  0  0  0
 59 75  1  0  0  0  0
 60 83  1  0  0  0  0
 62 64  1  0  0  0  0
 62 74  1  0  0  0  0
 63 75  1  0  0  0  0
 66 67  1  0  0  0  0
M  CHG  1  75   1
M  ISO  4  34 100  60 101  61 100  83 101
M  END
> <Batch ID>
0143

> <Smiles>
CNC(C)C(=O)NC(C(=O)N1Cc2cc([101O:1][101CH2:1]C3(C(C)=O)CCN(c4ncc([100CH:0](C)[100C:0](=O)N5CCCC(n6nc(-c7ccc(Oc8ccc(F)cc8F)cc7)c(C(N)=O)c6N)C5)s4)C3)ccc2CC1C(=O)NC1CCCc2ccccc21)C(C)(C)C

> <Shape>
0.213

> <Color>
0.063

> <Negative vol penalty>
0.000

$$$$

  -OEChem-04052303003D

 87 95  0     1  0  0  0  0  0999 V2000
  -28.1394  -25.0570   14.2947 C   0  0  0  0  0  0  0  0  0  0  0  0
  -27.5184  -24.1434   15.1404 C   0  0  0  0  0  0  0  0  0  0  0  0
  -30.7290  -19.5069   19.4885 C   0  0  0  0  0  0  0  0  0  0  0  0
  -28.6223  -19.5603   20.6699 C   0  0  0  0  0  0  0  0  0  0  0  0
  -28.4284  -26.3425   14.7507 C   0  0  0  0  0  0  0  0  0  0  0  0
  -27.1871  -24.5145   16.4431 C   0  0  0  0  0  0  0  0  0  0  0  0
  -22.3066  -22.6911   19.6620 C   0  0  0  0  0  0  0  0  0  0  0  0
  -30.4941  -20.7963   19.0112 C   0  0  0  0  0  0  0  0  0  0  0  0
  -28.3873  -20.8497   20.1927 C   0  0  0  0  0  0  0  0  0  0  0  0
  -22.1391  -21.7069   20.6352 C   0  0  0  0  0  0  0  0  0  0  0  0
  -30.7143  -23.9626   20.1771 C   0  0  0  0  0  0  0  0  0  0  0  0
  -31.7673  -24.8757   20.2310 C   0  0  0  0  0  0  0  0  0  0  0  0
  -22.4270  -23.3703   22.3584 C   0  0  0  0  0  0  0  0  0  0  0  0
  -21.9406  -11.8311   20.4948 C   0  0  0  0  0  0  0  0  0  0  0  0
  -24.0981  -11.3116   19.5397 C   0  0  0  0  0  0  0  0  0  0  0  0
  -23.9215  -12.9534   21.3033 C   0  0  0  0  0  0  0  0  0  0  0  0
  -31.6713  -25.1280   17.8301 C   0  0  0  0  0  0  0  0  0  0  0  0
  -29.7931  -18.8889   20.3178 C   0  0  0  0  0  0  0  0  0  0  0  0
  -30.6936  -17.1975   22.0019 C   0  0  0  0  0  0  0  0  0  0  0  0
  -28.0918  -26.7326   16.0565 C   0  0  0  0  0  0  0  0  0  0  0  0
  -22.5468  -24.0227   20.0304 C   0  0  0  0  0  0  0  0  0  0  0  0
  -27.4732  -25.8060   16.9174 C   0  0  0  0  0  0  0  0  0  0  0  0
  -22.5946  -24.3700   21.3880 C   0  0  0  0  0  0  0  0  0  0  0  0
  -22.7186  -11.1108   19.5885 C   0  0  0  0  0  0  0  0  0  0  0  0
  -22.5420  -12.7525   21.3522 C   0  0  0  0  0  0  0  0  0  0  0  0
  -24.6995  -12.2330   20.3971 C   0  0  0  0  0  0  0  0  0  0  0  0
  -29.3232  -21.4678   19.3634 C   0  0  0  0  0  0  0  0  0  0  0  0
  -22.2022  -22.0459   21.9836 C   0  0  0  0  0  0  0  0  0  0  0  0
  -30.1397  -23.6322   18.9498 C   0  0  0  0  0  0  0  0  0  0  0  0
  -32.2458  -25.4584   19.0575 C   0  0  0  0  0  0  0  0  0  0  0  0
  -30.6182  -24.2149   17.7763 C   0  0  0  0  0  0  0  0  0  0  0  0
  -30.0350  -17.5567   20.8107 C   0  0  0  0  0  0  0  0  0  0  0  0
  -30.6628  -15.8244   22.0107 C   0  0  0  0  0  0  0  0  0  0  0  0
  -31.2808  -18.0306   23.0103 C   0  0  0  0  0  0  0  0  0  0  0  0
  -24.9290  -26.0790   19.5831 C   0  0  0  0  0  0  0  0  0  0  0  0
  -22.8752  -28.1629   20.9837 C   0  0  0  0  0  0  0  0  0  0  0  0
  -22.1829  -14.4342   23.1921 C   0  0  0  0  0  0  0  0  0  0  0  0
  -20.1921  -28.6490   23.0359 C   0  0  0  0  0  0  0  0  0  0  0  0
  -27.0171  -11.8069   19.5061 C   0  0  0  0  0  0  0  0  0  0  0  0
  -28.4669  -28.1180   16.5198 C   0  0  0  0  0  0  0  0  0  0  0  0
  -22.6986  -25.0772   18.9686 C   0  0  0  0  0  0  0  0  0  0  0  0
  -22.8297  -25.7886   21.8359 C   0  0  0  0  0  0  0  0  0  0  0  0
  -27.7446  -28.5509   17.7931 C   0  0  0  0  0  0  0  0  0  0  0  0
  -30.5389  -12.0625   19.0498 C   0  0  0  0  0  0  0  0  0  0  0  0
  -27.7883  -27.4386   18.8360 C   0  0  0  0  0  0  0  0  0  0  0  0
  -30.8702  -13.4654   19.5636 C   0  0  0  0  0  0  0  0  0  0  0  0
  -29.1935  -12.0262   18.3271 C   0  0  0  0  0  0  0  0  0  0  0  0
  -28.3954  -13.9762   19.6036 C   0  0  0  0  0  0  0  0  0  0  0  0
  -27.0758  -26.1788   18.3293 C   0  0  1  0  0  0  0  0  0  0  0  0
  -23.4501  -26.3121   19.4561 C   0  0  1  0  0  0  0  0  0  0  0  0
  -29.7113  -14.0492   20.3953 C   0  0  2  0  0  0  0  0  0  0  0  0
  -22.0748  -10.1266   18.6709 C   0  0  0  0  0  0  0  0  0  0  0  0
  -18.7683  -30.4662   24.0198 C   0  0  0  0  0  0  0  0  0  0  0  0
  -25.0990  -28.8299   22.9636 C   0  0  0  0  0  0  0  0  0  0  0  0
  -23.3731  -29.8826   24.4405 C   0  0  0  0  0  0  0  0  0  0  0  0
  -23.7907  -30.8041   22.1603 C   0  0  0  0  0  0  0  0  0  0  0  0
  -17.7523  -27.6075   21.7239 C   0  0  0  0  0  0  0  0  0  0  0  0
  -21.0048  -14.9785   23.9881 C   0  0  0  0  0  0  0  0  0  0  0  0
  -21.2162  -16.4232   24.4376 C   0  0  0  0  0  0  0  0  0  0  0  0
  -21.3663  -17.3634   23.2365 C   0  0  0  0  0  0  0  0  0  0  0  0
  -21.8080  -19.7541   22.4817 C   0  0  0  0  0  0  0  0  0  1  0  0
  -22.5900  -28.5923   22.4026 C   0  0  1  0  0  0  0  0  0  0  0  0
  -18.9356  -29.4847   22.8702 C   0  0  2  0  0  0  0  0  0  0  0  0
  -21.6177  -18.8125   23.6698 C   0  0  2  0  0  0  0  0  0  0  0  0
  -23.7107  -29.5001   22.9836 C   0  0  0  0  0  0  0  0  0  0  0  0
  -29.6165  -16.4972   20.1133 N   0  0  0  0  0  0  0  0  0  0  0  0
  -30.0132  -15.4588   20.8685 N   0  0  0  0  0  0  0  0  0  0  0  0
  -22.9785  -26.7826   20.7601 N   0  0  0  0  0  0  0  0  0  0  0  0
  -28.1430  -12.5909   19.1770 N   0  0  0  0  0  0  0  0  0  0  0  0
  -31.1284  -14.9061   22.8838 N   0  0  0  0  0  0  0  0  0  0  0  0
  -31.2239  -19.4212   22.8446 N   0  0  0  0  0  0  0  0  0  0  0  0
  -21.7521  -13.4833   22.2713 N   0  0  0  0  0  0  0  0  0  0  0  0
  -26.1006  -12.4381   20.3466 N   0  0  0  0  0  0  0  0  0  0  0  0
  -25.6405  -26.3362   18.4268 N   0  0  0  0  0  0  0  0  0  0  0  0
  -21.2692  -29.2115   22.3840 N   0  0  0  0  0  0  0  0  0  0  0  0
  -17.7322  -28.6070   22.8228 N   0  3  0  0  0  0  0  0  0  0  0  0
  -31.8537  -17.5556   24.0201 O   0  0  0  0  0  0  0  0  0  0  0  0
  -25.3907  -25.6957   20.6516 O   0  0  0  0  0  0  0  0  0  0  0  0
  -22.9947  -29.0202   20.1049 O   0  0  0  0  0  0  0  0  0  0  0  0
  -23.3314  -14.8203   23.3826 O   0  0  0  0  0  0  0  0  0  0  0  0
  -20.2166  -27.6039   23.6822 O   0  0  0  0  0  0  0  0  0  0  0  0
  -26.8894  -10.6503   19.0962 O   0  0  0  0  0  0  0  0  0  0  0  0
  -22.7861  -18.8522   24.4874 O   0  0  0  0  0  0  0  0  0  0  0  0
  -29.0937  -22.7261   18.8981 O   0  0  0  0  0  0  0  0  0  0  0  0
  -22.0397  -21.0870   22.9355 O   0  0  0  0  0  0  0  0  0  1  0  0
  -33.2561  -26.3364   19.1095 F   0  0  0  0  0  0  0  0  0  0  0  0
  -30.0695  -23.9023   16.5943 F   0  0  0  0  0  0  0  0  0  0  0  0
  1  2  1  0  0  0  0
  1  5  2  0  0  0  0
  2  6  2  0  0  0  0
  3  8  2  0  0  0  0
  3 18  1  0  0  0  0
  4  9  1  0  0  0  0
  4 18  2  0  0  0  0
  5 20  1  0  0  0  0
  6 22  1  0  0  0  0
  7 10  2  0  0  0  0
  7 21  1  0  0  0  0
  8 27  1  0  0  0  0
  9 27  2  0  0  0  0
 10 28  1  0  0  0  0
 11 12  2  0  0  0  0
 11 29  1  0  0  0  0
 12 30  1  0  0  0  0
 13 23  1  0  0  0  0
 13 28  2  0  0  0  0
 14 24  2  0  0  0  0
 14 25  1  0  0  0  0
 15 24  1  0  0  0  0
 15 26  2  0  0  0  0
 16 25  2  0  0  0  0
 16 26  1  0  0  0  0
 17 30  2  0  0  0  0
 17 31  1  0  0  0  0
 18 32  1  0  0  0  0
 19 32  1  0  0  0  0
 19 33  2  0  0  0  0
 19 34  1  0  0  0  0
 20 22  2  0  0  0  0
 20 40  1  0  0  0  0
 21 23  2  0  0  0  0
 21 41  1  0  0  0  0
 22 49  1  0  0  0  0
 23 42  1  0  0  0  0
 24 52  1  0  0  0  0
 25 72  1  0  0  0  0
 26 73  1  0  0  0  0
 27 84  1  0  0  0  0
 28 85  1  0  0  0  0
 29 31  2  0  0  0  0
 29 84  1  0  0  0  0
 30 86  1  0  0  0  0
 31 87  1  0  0  0  0
 32 66  2  0  0  0  0
 33 67  1  0  0  0  0
 33 70  1  0  0  0  0
 34 71  1  0  0  0  0
 34 77  2  0  0  0  0
 35 50  1  0  0  0  0
 35 74  1  0  0  0  0
 35 78  2  0  0  0  0
 36 62  1  0  0  0  0
 36 68  1  0  0  0  0
 36 79  2  0  0  0  0
 37 58  1  0  0  0  0
 37 72  1  0  0  0  0
 37 80  2  0  0  0  0
 38 63  1  0  0  0  0
 38 75  1  0  0  0  0
 38 81  2  0  0  0  0
 39 69  1  0  0  0  0
 39 73  1  0  0  0  0
 39 82  2  0  0  0  0
 40 43  1  0  0  0  0
 41 50  1  0  0  0  0
 42 68  1  0  0  0  0
 43 45  1  0  0  0  0
 44 46  1  0  0  0  0
 44 47  1  0  0  0  0
 45 49  1  0  0  0  0
 46 51  1  0  0  0  0
 47 69  1  0  0  0  0
 48 51  1  0  0  0  0
 48 69  1  0  0  0  0
 49 74  1  0  0  0  0
 50 68  1  0  0  0  0
 51 67  1  0  0  0  0
 53 63  1  0  0  0  0
 54 65  1  0  0  0  0
 55 65  1  0  0  0  0
 56 65  1  0  0  0  0
 57 76  1  0  0  0  0
 58 59  1  0  0  0  0
 59 60  1  0  0  0  0
 60 64  1  0  0  0  0
 61 64  1  0  0  0  0
 61 85  1  0  0  0  0
 62 65  1  0  0  0  0
 62 75  1  0  0  0  0
 63 76  1  0  0  0  0
 64 83  1  0  0  0  0
 66 67  1  0  0  0  0
M  CHG  1  76   1
M  ISO  4  39 100  61 101  73 100  85 101
M  END
> <Batch ID>
0143

> <Smiles>
CNC(C)C(=O)NC(C(=O)N1Cc2cc([101O:1][101CH2:1]C(O)CCCC(=O)Nc3cc(C)cc([100NH:0][100C:0](=O)N4CCCC(n5nc(-c6ccc(Oc7ccc(F)cc7F)cc6)c(C(N)=O)c5N)C4)c3)ccc2CC1C(=O)NC1CCCc2ccccc21)C(C)(C)C

> <Shape>
0.276

> <Color>
0.060

> <Negative vol penalty>
0.000

$$$$

  -OEChem-04052303003D

 89 98  0     1  0  0  0  0  0999 V2000
  -16.2286  -26.4362   20.6625 C   0  0  0  0  0  0  0  0  0  0  0  0
  -16.7316  -25.5990   19.6717 C   0  0  0  0  0  0  0  0  0  0  0  0
  -27.3631  -27.6071   19.1621 C   0  0  0  0  0  0  0  0  0  0  0  0
  -25.6353  -26.6491   20.5529 C   0  0  0  0  0  0  0  0  0  0  0  0
  -16.9898  -26.7044   21.7994 C   0  0  0  0  0  0  0  0  0  0  0  0
  -17.9965  -25.0304   19.8168 C   0  0  0  0  0  0  0  0  0  0  0  0
  -20.1527  -17.5234   19.6680 C   0  0  0  0  0  0  0  0  0  0  0  0
  -26.9325  -28.8876   19.5092 C   0  0  0  0  0  0  0  0  0  0  0  0
  -25.2047  -27.9297   20.9000 C   0  0  0  0  0  0  0  0  0  0  0  0
  -20.6333  -16.2224   19.8187 C   0  0  0  0  0  0  0  0  0  0  0  0
  -26.1609  -30.3909   23.0090 C   0  0  0  0  0  0  0  0  0  0  0  0
  -25.8853  -30.6380   24.3539 C   0  0  0  0  0  0  0  0  0  0  0  0
  -22.4374  -17.0382   21.2071 C   0  0  0  0  0  0  0  0  0  0  0  0
  -26.9585  -15.7927   19.2777 C   0  0  0  0  0  0  0  0  0  0  0  0
  -23.6038  -31.1924   23.7844 C   0  0  0  0  0  0  0  0  0  0  0  0
  -28.5960  -15.8162   20.7925 C   0  0  0  0  0  0  0  0  0  0  0  0
  -26.7145  -26.4879   19.6839 C   0  0  0  0  0  0  0  0  0  0  0  0
  -28.4313  -24.6060   19.5474 C   0  0  0  0  0  0  0  0  0  0  0  0
  -18.2607  -26.1311   21.9630 C   0  0  0  0  0  0  0  0  0  0  0  0
  -20.8045  -18.5861   20.2997 C   0  0  0  0  0  0  0  0  0  0  0  0
  -18.7759  -25.2923   20.9564 C   0  0  0  0  0  0  0  0  0  0  0  0
  -21.9533  -18.3420   21.0700 C   0  0  0  0  0  0  0  0  0  0  0  0
  -27.8482  -14.9692   20.0080 C   0  0  0  0  0  0  0  0  0  0  0  0
  -25.8533  -29.0489   20.3781 C   0  0  0  0  0  0  0  0  0  0  0  0
  -21.7730  -15.9805   20.5861 C   0  0  0  0  0  0  0  0  0  0  0  0
  -25.1580  -30.5447   22.0518 C   0  0  0  0  0  0  0  0  0  0  0  0
  -24.6068  -31.0387   24.7416 C   0  0  0  0  0  0  0  0  0  0  0  0
  -23.8794  -30.9454   22.4395 C   0  0  0  0  0  0  0  0  0  0  0  0
  -27.1585  -25.1648   19.3253 C   0  0  0  0  0  0  0  0  0  0  0  0
  -28.3449  -23.3376   19.0275 C   0  0  0  0  0  0  0  0  0  0  0  0
  -27.2258  -17.0843   19.6681 C   0  0  0  0  0  0  0  0  0  0  0  0
  -29.5884  -25.1819   20.1681 C   0  0  0  0  0  0  0  0  0  0  0  0
  -20.9101  -22.2760   20.9704 C   0  0  0  0  0  0  0  0  0  0  0  0
  -23.7637  -13.0537   21.6164 C   0  0  0  0  0  0  0  0  0  0  0  0
  -21.6271  -20.8713   23.6015 C   0  0  0  0  0  0  0  0  0  0  0  0
  -21.9577  -18.9412   26.3949 C   0  0  0  0  0  0  0  0  0  0  0  0
  -25.6287  -18.5237   18.3553 C   0  0  0  0  0  0  0  0  0  0  0  0
  -19.0660  -26.4881   23.1873 C   0  0  0  0  0  0  0  0  0  0  0  0
  -20.3580  -20.0110   20.1149 C   0  0  0  0  0  0  0  0  0  0  0  0
  -22.6421  -19.5202   21.7029 C   0  0  0  0  0  0  0  0  0  0  0  0
  -20.2418  -25.5476   23.4385 C   0  0  0  0  0  0  0  0  0  0  0  0
  -29.8281  -13.1536   18.4047 C   0  0  0  0  0  0  0  0  0  0  0  0
  -30.3659  -13.0111   19.8271 C   0  0  0  0  0  0  0  0  0  0  0  0
  -24.7706  -21.1905   16.1577 C   0  0  0  0  0  0  0  0  0  0  0  0
  -21.0179  -25.3066   22.1477 C   0  0  0  0  0  0  0  0  0  0  0  0
  -25.4201  -22.4162   16.8041 C   0  0  0  0  0  0  0  0  0  0  0  0
  -28.3161  -12.9605   18.5119 C   0  0  0  0  0  0  0  0  0  0  0  0
  -29.1394  -12.8074   20.7158 C   0  0  0  0  0  0  0  0  0  0  0  0
  -24.2247  -20.2200   17.2036 C   0  0  0  0  0  0  0  0  0  0  0  0
  -25.8387  -21.0334   18.8777 C   0  0  0  0  0  0  0  0  0  0  0  0
  -20.1335  -24.6368   21.0890 C   0  0  1  0  0  0  0  0  0  0  0  0
  -20.5582  -20.8742   21.3735 C   0  0  1  0  0  0  0  0  0  0  0  0
  -26.4611  -22.0087   17.8652 C   0  0  2  0  0  0  0  0  0  0  0  0
  -27.9592  -13.4380   19.9392 C   0  0  0  0  0  0  0  0  0  0  0  0
  -22.3655  -19.1053   28.8655 C   0  0  0  0  0  0  0  0  0  0  0  0
  -24.8219  -13.0936   23.9049 C   0  0  0  0  0  0  0  0  0  0  0  0
  -25.1323  -11.1178   22.4258 C   0  0  0  0  0  0  0  0  0  0  0  0
  -24.5779  -21.4347   23.0733 C   0  0  0  0  0  0  0  0  0  0  0  0
  -25.0704  -20.6549   25.4009 C   0  0  0  0  0  0  0  0  0  0  0  0
  -23.6186  -22.6504   25.0370 C   0  0  0  0  0  0  0  0  0  0  0  0
  -19.3590  -17.6732   27.0255 C   0  0  0  0  0  0  0  0  0  0  0  0
  -23.4040  -14.5294   21.5303 C   0  0  0  0  0  0  0  0  0  1  0  0
  -26.6360  -12.8199   20.4211 C   0  0  0  0  0  0  0  0  0  0  0  0
  -26.3011  -13.2686   21.8487 C   0  0  0  0  0  0  0  0  0  0  0  0
  -22.7198  -20.3492   24.4998 C   0  0  1  0  0  0  0  0  0  0  0  0
  -21.3159  -19.0367   27.7672 C   0  0  2  0  0  0  0  0  0  0  0  0
  -25.0089  -12.6523   22.4400 C   0  0  0  0  0  0  0  0  0  0  0  0
  -23.9832  -21.2553   24.4844 C   0  0  0  0  0  0  0  0  0  0  0  0
  -26.3246  -24.3207   18.7120 N   0  0  0  0  0  0  0  0  0  0  0  0
  -27.0751  -23.2186   18.5442 N   0  0  0  0  0  0  0  0  0  0  0  0
  -21.6439  -20.4408   22.2693 N   0  0  0  0  0  0  0  0  0  0  0  0
  -25.2674  -19.8753   18.1725 N   0  0  0  0  0  0  0  0  0  0  0  0
  -29.2320  -22.3237   18.9412 N   0  0  0  0  0  0  0  0  0  0  0  0
  -29.7510  -25.0273   21.5516 N   0  0  0  0  0  0  0  0  0  0  0  0
  -26.6540  -18.3207   19.2784 N   0  0  0  0  0  0  0  0  0  0  0  0
  -19.9889  -23.2248   21.3711 N   0  0  0  0  0  0  0  0  0  0  0  0
  -22.1193  -20.1836   25.8191 N   0  0  0  0  0  0  0  0  0  0  0  0
  -20.4502  -17.8498   28.0179 N   0  3  0  0  0  0  0  0  0  0  0  0
  -30.4440  -25.8288   19.5179 O   0  0  0  0  0  0  0  0  0  0  0  0
  -21.9422  -22.4832   20.3431 O   0  0  0  0  0  0  0  0  0  0  0  0
  -23.0773  -12.2097   21.0349 O   0  0  0  0  0  0  0  0  0  0  0  0
  -20.7836  -21.6443   24.0644 O   0  0  0  0  0  0  0  0  0  0  0  0
  -22.2865  -17.8718   25.8862 O   0  0  0  0  0  0  0  0  0  0  0  0
  -25.0885  -17.6157   17.7183 O   0  0  0  0  0  0  0  0  0  0  0  0
  -28.2227  -17.1072   20.5913 O   0  0  0  0  0  0  0  0  0  0  0  0
  -25.4330  -30.2983   20.7172 O   0  0  0  0  0  0  0  0  0  0  0  0
  -22.2341  -14.7075   20.7327 O   0  0  0  0  0  0  0  0  0  1  0  0
  -24.3418  -31.2744   26.0332 F   0  0  0  0  0  0  0  0  0  0  0  0
  -22.9115  -31.0937   21.5247 F   0  0  0  0  0  0  0  0  0  0  0  0
  1  2  1  0  0  0  0
  1  5  2  0  0  0  0
  2  6  2  0  0  0  0
  3  8  2  0  0  0  0
  3 17  1  0  0  0  0
  4  9  1  0  0  0  0
  4 17  2  0  0  0  0
  5 19  1  0  0  0  0
  6 21  1  0  0  0  0
  7 10  2  0  0  0  0
  7 20  1  0  0  0  0
  8 24  1  0  0  0  0
  9 24  2  0  0  0  0
 10 25  1  0  0  0  0
 11 12  2  0  0  0  0
 11 26  1  0  0  0  0
 12 27  1  0  0  0  0
 13 22  1  0  0  0  0
 13 25  2  0  0  0  0
 14 23  1  0  0  0  0
 14 31  2  0  0  0  0
 15 27  2  0  0  0  0
 15 28  1  0  0  0  0
 16 23  2  0  0  0  0
 16 85  1  0  0  0  0
 17 29  1  0  0  0  0
 18 29  1  0  0  0  0
 18 30  2  0  0  0  0
 18 32  1  0  0  0  0
 19 21  2  0  0  0  0
 19 38  1  0  0  0  0
 20 22  2  0  0  0  0
 20 39  1  0  0  0  0
 21 51  1  0  0  0  0
 22 40  1  0  0  0  0
 23 54  1  0  0  0  0
 24 86  1  0  0  0  0
 25 87  1  0  0  0  0
 26 28  2  0  0  0  0
 26 86  1  0  0  0  0
 27 88  1  0  0  0  0
 28 89  1  0  0  0  0
 29 69  2  0  0  0  0
 30 70  1  0  0  0  0
 30 73  1  0  0  0  0
 31 75  1  0  0  0  0
 31 85  1  0  0  0  0
 32 74  1  0  0  0  0
 32 79  2  0  0  0  0
 33 52  1  0  0  0  0
 33 76  1  0  0  0  0
 33 80  2  0  0  0  0
 34 62  1  0  0  0  0
 34 67  1  0  0  0  0
 34 81  2  0  0  0  0
 35 65  1  0  0  0  0
 35 71  1  0  0  0  0
 35 82  2  0  0  0  0
 36 66  1  0  0  0  0
 36 77  1  0  0  0  0
 36 83  2  0  0  0  0
 37 72  1  0  0  0  0
 37 75  1  0  0  0  0
 37 84  2  0  0  0  0
 38 41  1  0  0  0  0
 39 52  1  0  0  0  0
 40 71  1  0  0  0  0
 41 45  1  0  0  0  0
 42 43  1  0  0  0  0
 42 47  1  0  0  0  0
 43 48  1  0  0  0  0
 44 46  1  0  0  0  0
 44 49  1  0  0  0  0
 45 51  1  0  0  0  0
 46 53  1  0  0  0  0
 47 54  1  0  0  0  0
 48 54  1  0  0  0  0
 49 72  1  0  0  0  0
 50 53  1  0  0  0  0
 50 72  1  0  0  0  0
 51 76  1  0  0  0  0
 52 71  1  0  0  0  0
 53 70  1  0  0  0  0
 54 63  1  0  0  0  0
 55 66  1  0  0  0  0
 56 67  1  0  0  0  0
 57 67  1  0  0  0  0
 58 68  1  0  0  0  0
 59 68  1  0  0  0  0
 60 68  1  0  0  0  0
 61 78  1  0  0  0  0
 62 87  1  0  0  0  0
 63 64  1  0  0  0  0
 64 67  1  0  0  0  0
 65 68  1  0  0  0  0
 65 77  1  0  0  0  0
 66 78  1  0  0  0  0
 69 70  1  0  0  0  0
M  CHG  1  78   1
M  ISO  4  37 100  62 101  75 100  87 101
M  END
> <Batch ID>
0143

> <Smiles>
CNC(C)C(=O)NC(C(=O)N1Cc2cc([101O:1][101CH2:1]C(=O)C(C)(C)CCC3(c4coc([100NH:0][100C:0](=O)N5CCCC(n6nc(-c7ccc(Oc8ccc(F)cc8F)cc7)c(C(N)=O)c6N)C5)c4)CCCC3)ccc2CC1C(=O)NC1CCCc2ccccc21)C(C)(C)C

> <Shape>
0.207

> <Color>
0.072

> <Negative vol penalty>
0.000

$$$$

  -OEChem-04052303003D

 87 96  0     1  0  0  0  0  0999 V2000
  -16.8725  -28.6531   23.7656 C   0  0  0  0  0  0  0  0  0  0  0  0
  -17.8672  -27.6873   23.8814 C   0  0  0  0  0  0  0  0  0  0  0  0
  -31.5873  -18.4706   24.1436 C   0  0  0  0  0  0  0  0  0  0  0  0
  -23.3897   -9.7273   19.8398 C   0  0  0  0  0  0  0  0  0  0  0  0
  -23.8991   -9.8485   22.1984 C   0  0  0  0  0  0  0  0  0  0  0  0
  -30.6199  -19.2443   24.7849 C   0  0  0  0  0  0  0  0  0  0  0  0
  -17.1892  -29.9247   23.2894 C   0  0  0  0  0  0  0  0  0  0  0  0
  -19.1790  -27.9924   23.5201 C   0  0  0  0  0  0  0  0  0  0  0  0
  -22.5615  -26.3367   26.9058 C   0  0  0  0  0  0  0  0  0  0  0  0
  -31.2045  -17.5136   23.2037 C   0  0  0  0  0  0  0  0  0  0  0  0
  -22.7636   -8.4968   20.0382 C   0  0  0  0  0  0  0  0  0  0  0  0
  -23.2729   -8.6180   22.3968 C   0  0  0  0  0  0  0  0  0  0  0  0
  -22.8774  -24.9791   26.8787 C   0  0  0  0  0  0  0  0  0  0  0  0
  -20.1149   -7.4493   22.6823 C   0  0  0  0  0  0  0  0  0  0  0  0
  -19.2493   -7.3322   23.7698 C   0  0  0  0  0  0  0  0  0  0  0  0
  -28.8870  -18.1041   23.5463 C   0  0  0  0  0  0  0  0  0  0  0  0
  -24.8965  -25.4794   25.6572 C   0  0  0  0  0  0  0  0  0  0  0  0
  -20.6245   -5.5635   24.6739 C   0  0  0  0  0  0  0  0  0  0  0  0
  -23.9575  -10.4032   20.9199 C   0  0  0  0  0  0  0  0  0  0  0  0
  -29.2698  -19.0610   24.4862 C   0  0  0  0  0  0  0  0  0  0  0  0
  -24.0126  -12.9497   20.7781 C   0  0  0  0  0  0  0  0  0  0  0  0
  -18.5073  -30.2484   22.9312 C   0  0  0  0  0  0  0  0  0  0  0  0
  -23.4067  -27.2764   26.2983 C   0  0  0  0  0  0  0  0  0  0  0  0
  -19.5133  -29.2691   23.0375 C   0  0  0  0  0  0  0  0  0  0  0  0
  -24.5904  -26.8487   25.6802 C   0  0  0  0  0  0  0  0  0  0  0  0
  -29.8544  -17.3304   22.9051 C   0  0  0  0  0  0  0  0  0  0  0  0
  -22.7052   -7.9421   21.3167 C   0  0  0  0  0  0  0  0  0  0  0  0
  -24.0435  -24.5499   26.2518 C   0  0  0  0  0  0  0  0  0  0  0  0
  -21.2353   -6.6235   22.5906 C   0  0  0  0  0  0  0  0  0  0  0  0
  -19.5041   -6.3893   24.7656 C   0  0  0  0  0  0  0  0  0  0  0  0
  -21.4901   -5.6806   23.5864 C   0  0  0  0  0  0  0  0  0  0  0  0
  -24.6049  -11.6741   20.7155 C   0  0  0  0  0  0  0  0  0  0  0  0
  -25.0417  -13.8195   20.5120 C   0  0  0  0  0  0  0  0  0  0  0  0
  -28.2469  -19.8784   25.1629 C   0  0  0  0  0  0  0  0  0  0  0  0
  -22.6537  -13.3155   21.0523 C   0  0  0  0  0  0  0  0  0  0  0  0
  -23.1014  -29.3581   23.9156 C   0  0  0  0  0  0  0  0  0  0  0  0
  -26.0637  -30.2819   24.8610 C   0  0  0  0  0  0  0  0  0  0  0  0
  -28.9838  -29.4804   26.4349 C   0  0  0  0  0  0  0  0  0  0  0  0
  -30.2996  -15.5078   21.2239 C   0  0  0  0  0  0  0  0  0  0  0  0
  -18.7925  -31.6218   22.3770 C   0  0  0  0  0  0  0  0  0  0  0  0
  -23.0652  -28.7400   26.3595 C   0  0  0  0  0  0  0  0  0  0  0  0
  -25.5416  -27.8194   25.0310 C   0  0  0  0  0  0  0  0  0  0  0  0
  -20.2765  -31.9794   22.3694 C   0  0  0  0  0  0  0  0  0  0  0  0
  -29.7293  -12.9541   18.8093 C   0  0  0  0  0  0  0  0  0  0  0  0
  -21.1012  -30.8243   21.8105 C   0  0  0  0  0  0  0  0  0  0  0  0
  -28.2965  -12.4983   19.0951 C   0  0  0  0  0  0  0  0  0  0  0  0
  -27.3207  -22.8084   23.7637 C   0  0  0  0  0  0  0  0  0  0  0  0
  -30.4804  -13.3024   20.0932 C   0  0  0  0  0  0  0  0  0  0  0  0
  -28.3019  -21.6793   23.4266 C   0  0  0  0  0  0  0  0  0  0  0  0
  -28.3677  -13.8101   21.2541 C   0  0  0  0  0  0  0  0  0  0  0  0
  -20.9526  -29.5694   22.6791 C   0  0  1  0  0  0  0  0  0  0  0  0
  -23.7390  -29.5572   25.2615 C   0  0  1  0  0  0  0  0  0  0  0  0
  -27.5506  -13.5103   19.9868 C   0  0  2  0  0  0  0  0  0  0  0  0
  -26.9233  -22.0234   25.0358 C   0  0  1  0  0  0  0  0  0  0  0  0
  -27.3263  -22.6778   26.3478 C   0  0  0  0  0  0  0  0  0  0  0  0
  -31.2336  -30.4287   27.0151 C   0  0  0  0  0  0  0  0  0  0  0  0
  -23.1179  -22.1018   24.5054 C   0  0  0  0  0  0  0  0  0  0  0  0
  -26.9709  -29.8893   21.9744 C   0  0  0  0  0  0  0  0  0  0  0  0
  -29.3384  -29.9156   22.7882 C   0  0  0  0  0  0  0  0  0  0  0  0
  -27.8951  -31.9276   23.0903 C   0  0  0  0  0  0  0  0  0  0  0  0
  -28.4861  -29.1909   29.3379 C   0  0  0  0  0  0  0  0  0  0  0  0
  -25.4983  -21.4755   25.0384 C   0  0  0  0  0  0  0  0  0  0  0  0
  -27.4739  -29.8762   24.5067 C   0  0  1  0  0  0  0  0  0  0  0  0
  -29.8007  -30.2191   27.4796 C   0  0  2  0  0  0  0  0  0  0  0  0
  -24.4840  -22.6161   24.9394 C   0  0  2  0  0  0  0  0  0  1  0  0
  -27.9009  -30.3834   23.1004 C   0  0  0  0  0  0  0  0  0  0  0  0
  -25.9091  -11.7245   20.4318 N   0  0  0  0  0  0  0  0  0  0  0  0
  -26.1448  -13.0423   20.3137 N   0  0  0  0  0  0  0  0  0  0  0  0
  -27.8786  -21.0129   24.6324 N   0  0  0  0  0  0  0  0  0  0  0  0
  -25.1605  -29.2391   25.1118 N   0  0  0  0  0  0  0  0  0  0  0  0
  -29.7160  -14.2688   20.8847 N   0  0  0  0  0  0  0  0  0  0  0  0
  -25.1016  -15.1657   20.4307 N   0  0  0  0  0  0  0  0  0  0  0  0
  -21.7252  -12.2964   21.3044 N   0  0  0  0  0  0  0  0  0  0  0  0
  -29.4664  -16.3581   21.9501 N   0  0  0  0  0  0  0  0  0  0  0  0
  -21.7592  -29.6842   23.8752 N   0  0  0  0  0  0  0  0  0  0  0  0
  -28.3210  -30.3507   25.5956 N   0  0  0  0  0  0  0  0  0  0  0  0
  -27.7141  -19.4466   26.3021 N   0  3  0  0  0  0  0  0  0  0  0  0
  -29.8281  -29.4492   28.7553 N   0  3  0  0  0  0  0  0  0  0  0  0
  -22.2706  -14.5100   21.0570 O   0  0  0  0  0  0  0  0  0  0  0  0
  -23.7774  -28.9410   22.9825 O   0  0  0  0  0  0  0  0  0  0  0  0
  -25.7758  -31.4799   24.9204 O   0  0  0  0  0  0  0  0  0  0  0  0
  -28.9412  -28.2539   26.3677 O   0  0  0  0  0  0  0  0  0  0  0  0
  -31.4440  -15.8043   20.8712 O   0  0  0  0  0  0  0  0  0  0  0  0
  -22.0941   -6.7415   21.5107 O   0  0  0  0  0  0  0  0  0  0  0  0
  -24.3539  -23.2253   26.2233 O   0  0  0  0  0  0  0  0  0  1  0  0
  -18.6736   -6.2780   25.8106 F   0  0  0  0  0  0  0  0  0  0  0  0
  -22.5655   -4.8853   23.5044 F   0  0  0  0  0  0  0  0  0  0  0  0
  1  2  1  0  0  0  0
  1  7  2  0  0  0  0
  2  8  2  0  0  0  0
  3  6  2  0  0  0  0
  3 10  1  0  0  0  0
  4 11  2  0  0  0  0
  4 19  1  0  0  0  0
  5 12  1  0  0  0  0
  5 19  2  0  0  0  0
  6 20  1  0  0  0  0
  7 22  1  0  0  0  0
  8 24  1  0  0  0  0
  9 13  2  0  0  0  0
  9 23  1  0  0  0  0
 10 26  2  0  0  0  0
 11 27  1  0  0  0  0
 12 27  2  0  0  0  0
 13 28  1  0  0  0  0
 14 15  2  0  0  0  0
 14 29  1  0  0  0  0
 15 30  1  0  0  0  0
 16 20  2  0  0  0  0
 16 26  1  0  0  0  0
 17 25  1  0  0  0  0
 17 28  2  0  0  0  0
 18 30  2  0  0  0  0
 18 31  1  0  0  0  0
 19 32  1  0  0  0  0
 20 34  1  0  0  0  0
 21 32  1  0  0  0  0
 21 33  2  0  0  0  0
 21 35  1  0  0  0  0
 22 24  2  0  0  0  0
 22 40  1  0  0  0  0
 23 25  2  0  0  0  0
 23 41  1  0  0  0  0
 24 51  1  0  0  0  0
 25 42  1  0  0  0  0
 26 74  1  0  0  0  0
 27 84  1  0  0  0  0
 28 85  1  0  0  0  0
 29 31  2  0  0  0  0
 29 84  1  0  0  0  0
 30 86  1  0  0  0  0
 31 87  1  0  0  0  0
 32 67  2  0  0  0  0
 33 68  1  0  0  0  0
 33 72  1  0  0  0  0
 34 69  1  0  0  0  0
 34 77  2  0  0  0  0
 35 73  1  0  0  0  0
 35 79  2  0  0  0  0
 36 52  1  0  0  0  0
 36 75  1  0  0  0  0
 36 80  2  0  0  0  0
 37 63  1  0  0  0  0
 37 70  1  0  0  0  0
 37 81  2  0  0  0  0
 38 64  1  0  0  0  0
 38 76  1  0  0  0  0
 38 82  2  0  0  0  0
 39 71  1  0  0  0  0
 39 74  1  0  0  0  0
 39 83  2  0  0  0  0
 40 43  1  0  0  0  0
 41 52  1  0  0  0  0
 42 70  1  0  0  0  0
 43 45  1  0  0  0  0
 44 46  1  0  0  0  0
 44 48  1  0  0  0  0
 45 51  1  0  0  0  0
 46 53  1  0  0  0  0
 47 49  1  0  0  0  0
 47 54  1  0  0  0  0
 48 71  1  0  0  0  0
 49 69  1  0  0  0  0
 50 53  1  0  0  0  0
 50 71  1  0  0  0  0
 51 75  1  0  0  0  0
 52 70  1  0  0  0  0
 53 68  1  0  0  0  0
 54 55  1  0  0  0  0
 54 62  1  0  0  0  0
 54 69  1  0  0  0  0
 56 64  1  0  0  0  0
 57 65  1  0  0  0  0
 58 66  1  0  0  0  0
 59 66  1  0  0  0  0
 60 66  1  0  0  0  0
 61 78  1  0  0  0  0
 62 65  1  0  0  0  0
 63 66  1  0  0  0  0
 63 76  1  0  0  0  0
 64 78  1  0  0  0  0
 65 85  1  0  0  0  0
 67 68  1  0  0  0  0
M  CHG  2  77   1  78   1
M  ISO  4  39 100  65 101  74 100  85 101
M  END
> <Batch ID>
0143

> <Smiles>
CNC(C)C(=O)NC(C(=O)N1Cc2cc([101O:1][101CH:1](C)CC3(C)CCN3C(=N)c3cccc([100NH:0][100C:0](=O)N4CCCC(n5nc(-c6ccc(Oc7ccc(F)cc7F)cc6)c(C(N)=O)c5N)C4)c3)ccc2CC1C(=O)NC1CCCc2ccccc21)C(C)(C)C

> <Shape>
0.265

> <Color>
0.191

> <Negative vol penalty>
0.000

$$$$

  -OEChem-04052303003D

 89 98  0     1  0  0  0  0  0999 V2000
  -24.5101  -37.1299   22.7028 C   0  0  0  0  0  0  0  0  0  0  0  0
  -25.3540  -36.1864   22.1257 C   0  0  0  0  0  0  0  0  0  0  0  0
  -23.9259   -9.5068   20.6180 C   0  0  0  0  0  0  0  0  0  0  0  0
  -24.3970  -10.1812   22.8896 C   0  0  0  0  0  0  0  0  0  0  0  0
  -23.6950  -36.7708   23.7755 C   0  0  0  0  0  0  0  0  0  0  0  0
  -25.3841  -34.8835   22.6216 C   0  0  0  0  0  0  0  0  0  0  0  0
  -26.2250  -29.7391   19.4070 C   0  0  0  0  0  0  0  0  0  0  0  0
  -29.4519  -20.5433   19.6505 C   0  0  0  0  0  0  0  0  0  0  0  0
  -29.6417  -19.1933   19.9455 C   0  0  0  0  0  0  0  0  0  0  0  0
  -23.4732   -8.2706   21.0788 C   0  0  0  0  0  0  0  0  0  0  0  0
  -23.9443   -8.9449   23.3505 C   0  0  0  0  0  0  0  0  0  0  0  0
  -27.3493  -28.9452   19.1846 C   0  0  0  0  0  0  0  0  0  0  0  0
  -20.6769   -7.0166   22.5074 C   0  0  0  0  0  0  0  0  0  0  0  0
  -19.4868   -6.5221   21.9738 C   0  0  0  0  0  0  0  0  0  0  0  0
  -26.6724  -27.4923   20.9875 C   0  0  0  0  0  0  0  0  0  0  0  0
  -27.8263  -19.2858   21.5370 C   0  0  0  0  0  0  0  0  0  0  0  0
  -20.6627   -4.5774   21.1536 C   0  0  0  0  0  0  0  0  0  0  0  0
  -24.3879  -10.4621   21.5234 C   0  0  0  0  0  0  0  0  0  0  0  0
  -24.0940  -12.9076   20.8593 C   0  0  0  0  0  0  0  0  0  0  0  0
  -23.7081  -35.4604   24.2786 C   0  0  0  0  0  0  0  0  0  0  0  0
  -25.3202  -29.4212   20.4301 C   0  0  0  0  0  0  0  0  0  0  0  0
  -24.5694  -34.5069   23.7029 C   0  0  0  0  0  0  0  0  0  0  0  0
  -25.5361  -28.2824   21.2191 C   0  0  0  0  0  0  0  0  0  0  0  0
  -28.4493  -21.2647   20.2988 C   0  0  0  0  0  0  0  0  0  0  0  0
  -27.6365  -20.6359   21.2420 C   0  0  0  0  0  0  0  0  0  0  0  0
  -28.8289  -18.5646   20.8887 C   0  0  0  0  0  0  0  0  0  0  0  0
  -23.4824   -7.9896   22.4450 C   0  0  0  0  0  0  0  0  0  0  0  0
  -27.5747  -27.8232   19.9768 C   0  0  0  0  0  0  0  0  0  0  0  0
  -21.8599   -6.2916   22.3641 C   0  0  0  0  0  0  0  0  0  0  0  0
  -19.4797   -5.3025   21.2969 C   0  0  0  0  0  0  0  0  0  0  0  0
  -21.8528   -5.0720   21.6872 C   0  0  0  0  0  0  0  0  0  0  0  0
  -24.8562  -11.7391   21.0479 C   0  0  0  0  0  0  0  0  0  0  0  0
  -24.9959  -13.8351   20.3979 C   0  0  0  0  0  0  0  0  0  0  0  0
  -22.6958  -13.1344   21.0815 C   0  0  0  0  0  0  0  0  0  0  0  0
  -24.3271  -30.8733   23.0775 C   0  0  0  0  0  0  0  0  0  0  0  0
  -22.2767  -28.3637   23.2187 C   0  0  0  0  0  0  0  0  0  0  0  0
  -21.5775  -25.1408   22.3407 C   0  0  0  0  0  0  0  0  0  0  0  0
  -29.9672  -16.3317   20.6339 C   0  0  0  0  0  0  0  0  0  0  0  0
  -22.8438  -35.1316   25.4701 C   0  0  0  0  0  0  0  0  0  0  0  0
  -24.0981  -30.2727   20.6397 C   0  0  0  0  0  0  0  0  0  0  0  0
  -24.5842  -27.8863   22.3171 C   0  0  0  0  0  0  0  0  0  0  0  0
  -22.6606  -33.6328   25.6947 C   0  0  0  0  0  0  0  0  0  0  0  0
  -29.7699  -13.2806   18.8094 C   0  0  0  0  0  0  0  0  0  0  0  0
  -31.4089  -24.5741   20.5297 C   0  0  0  0  0  0  0  0  0  0  0  0
  -24.0000  -32.9101   25.5928 C   0  0  0  0  0  0  0  0  0  0  0  0
  -28.4112  -12.7037   19.2136 C   0  0  0  0  0  0  0  0  0  0  0  0
  -30.9342  -25.2752   19.2682 C   0  0  0  0  0  0  0  0  0  0  0  0
  -30.4569  -13.9855   19.9776 C   0  0  0  0  0  0  0  0  0  0  0  0
  -28.2863  -14.4308   21.0544 C   0  0  0  0  0  0  0  0  0  0  0  0
  -30.6617  -23.2504   20.5619 C   0  0  0  0  0  0  0  0  0  0  0  0
  -24.6122  -33.0771   24.1968 C   0  0  1  0  0  0  0  0  0  0  0  0
  -23.5150  -30.1456   22.0437 C   0  0  1  0  0  0  0  0  0  0  0  0
  -27.5271  -13.7673   19.8937 C   0  0  2  0  0  0  0  0  0  0  0  0
  -29.4665  -24.8585   19.1350 C   0  0  2  0  0  0  0  0  0  0  0  0
  -28.9823  -24.9588   17.6886 C   0  0  0  0  0  0  0  0  0  0  0  0
  -19.8445  -23.3502   22.6367 C   0  0  0  0  0  0  0  0  0  0  0  0
  -25.7890  -20.4678   22.9462 C   0  0  0  0  0  0  0  0  0  0  0  0
  -25.5138  -21.9578   20.9362 C   0  0  0  0  0  0  0  0  0  0  0  0
  -27.0340  -22.6143   22.7907 C   0  0  0  0  0  0  0  0  0  0  0  0
  -23.2825  -27.8627   26.0555 C   0  0  0  0  0  0  0  0  0  0  0  0
  -22.2613  -25.5797   25.9397 C   0  0  0  0  0  0  0  0  0  0  0  0
  -20.8124  -27.6027   25.7633 C   0  0  0  0  0  0  0  0  0  0  0  0
  -21.0490  -25.0093   19.4316 C   0  0  0  0  0  0  0  0  0  0  0  0
  -28.2648  -22.7158   19.9654 C   0  0  0  0  0  0  0  0  0  0  0  0
  -28.5564  -25.6593   20.0747 C   0  0  0  0  0  0  0  0  0  1  0  0
  -22.3171  -26.9832   23.8283 C   0  0  1  0  0  0  0  0  0  0  0  0
  -20.3252  -24.5019   21.7678 C   0  0  2  0  0  0  0  0  0  0  0  0
  -26.5555  -21.3876   21.9470 C   0  0  0  0  0  0  0  0  0  0  0  0
  -22.1875  -27.0154   25.3773 C   0  0  0  0  0  0  0  0  0  0  0  0
  -26.1431  -11.9063   20.7319 N   0  0  0  0  0  0  0  0  0  0  0  0
  -26.1966  -13.1907   20.3400 N   0  0  0  0  0  0  0  0  0  0  0  0
  -23.4072  -28.7543   22.4871 N   0  0  0  0  0  0  0  0  0  0  0  0
  -29.5615  -14.9819   20.5695 N   0  0  0  0  0  0  0  0  0  0  0  0
  -24.8710  -15.1307   20.0399 N   0  0  0  0  0  0  0  0  0  0  0  0
  -21.9142  -12.0730   21.5579 N   0  0  0  0  0  0  0  0  0  0  0  0
  -29.0200  -17.1927   21.1873 N   0  0  0  0  0  0  0  0  0  0  0  0
  -23.9627  -32.1949   23.2512 N   0  0  0  0  0  0  0  0  0  0  0  0
  -21.2773  -26.2102   23.1576 N   0  0  0  0  0  0  0  0  0  0  0  0
  -29.5369  -23.3891   19.5510 N   0  3  2  0  0  0  0  0  0  0  0  0
  -20.5911  -23.9781   20.3981 N   0  3  0  0  0  0  0  0  0  0  0  0
  -22.1524  -14.2407   20.8485 O   0  0  0  0  0  0  0  0  0  0  0  0
  -25.2173  -30.2794   23.6744 O   0  0  0  0  0  0  0  0  0  0  0  0
  -21.2760  -29.0667   23.3795 O   0  0  0  0  0  0  0  0  0  0  0  0
  -22.7087  -24.7298   22.0915 O   0  0  0  0  0  0  0  0  0  0  0  0
  -31.0625  -16.7014   20.2031 O   0  0  0  0  0  0  0  0  0  0  0  0
  -23.0405   -6.7835   22.8951 O   0  0  0  0  0  0  0  0  0  0  0  0
  -28.6716  -27.0470   19.7623 O   0  0  0  0  0  0  0  0  0  1  0  0
  -18.3365   -4.8270   20.7859 F   0  0  0  0  0  0  0  0  0  0  0  0
  -22.9859   -4.3704   21.5473 F   0  0  0  0  0  0  0  0  0  0  0  0
  1  2  1  0  0  0  0
  1  5  2  0  0  0  0
  2  6  2  0  0  0  0
  3 10  2  0  0  0  0
  3 18  1  0  0  0  0
  4 11  1  0  0  0  0
  4 18  2  0  0  0  0
  5 20  1  0  0  0  0
  6 22  1  0  0  0  0
  7 12  2  0  0  0  0
  7 21  1  0  0  0  0
  8  9  2  0  0  0  0
  8 24  1  0  0  0  0
  9 26  1  0  0  0  0
 10 27  1  0  0  0  0
 11 27  2  0  0  0  0
 12 28  1  0  0  0  0
 13 14  2  0  0  0  0
 13 29  1  0  0  0  0
 14 30  1  0  0  0  0
 15 23  1  0  0  0  0
 15 28  2  0  0  0  0
 16 25  1  0  0  0  0
 16 26  2  0  0  0  0
 17 30  2  0  0  0  0
 17 31  1  0  0  0  0
 18 32  1  0  0  0  0
 19 32  1  0  0  0  0
 19 33  2  0  0  0  0
 19 34  1  0  0  0  0
 20 22  2  0  0  0  0
 20 39  1  0  0  0  0
 21 23  2  0  0  0  0
 21 40  1  0  0  0  0
 22 51  1  0  0  0  0
 23 41  1  0  0  0  0
 24 25  2  0  0  0  0
 24 64  1  0  0  0  0
 25 68  1  0  0  0  0
 26 76  1  0  0  0  0
 27 86  1  0  0  0  0
 28 87  1  0  0  0  0
 29 31  2  0  0  0  0
 29 86  1  0  0  0  0
 30 88  1  0  0  0  0
 31 89  1  0  0  0  0
 32 70  2  0  0  0  0
 33 71  1  0  0  0  0
 33 74  1  0  0  0  0
 34 75  1  0  0  0  0
 34 81  2  0  0  0  0
 35 52  1  0  0  0  0
 35 77  1  0  0  0  0
 35 82  2  0  0  0  0
 36 66  1  0  0  0  0
 36 72  1  0  0  0  0
 36 83  2  0  0  0  0
 37 67  1  0  0  0  0
 37 78  1  0  0  0  0
 37 84  2  0  0  0  0
 38 73  1  0  0  0  0
 38 76  1  0  0  0  0
 38 85  2  0  0  0  0
 39 42  1  0  0  0  0
 40 52  1  0  0  0  0
 41 72  1  0  0  0  0
 42 45  1  0  0  0  0
 43 46  1  0  0  0  0
 43 48  1  0  0  0  0
 44 47  1  0  0  0  0
 44 50  1  0  0  0  0
 45 51  1  0  0  0  0
 46 53  1  0  0  0  0
 47 54  1  0  0  0  0
 48 73  1  0  0  0  0
 49 53  1  0  0  0  0
 49 73  1  0  0  0  0
 50 79  1  0  0  0  0
 51 77  1  0  0  0  0
 52 72  1  0  0  0  0
 53 71  1  0  0  0  0
 54 55  1  0  0  0  0
 54 65  1  0  0  0  0
 54 79  1  0  0  0  0
 56 67  1  0  0  0  0
 57 68  1  0  0  0  0
 58 68  1  0  0  0  0
 59 68  1  0  0  0  0
 60 69  1  0  0  0  0
 61 69  1  0  0  0  0
 62 69  1  0  0  0  0
 63 80  1  0  0  0  0
 64 79  1  0  0  0  0
 65 87  1  0  0  0  0
 66 69  1  0  0  0  0
 66 78  1  0  0  0  0
 67 80  1  0  0  0  0
 70 71  1  0  0  0  0
M  CHG  2  79   1  80   1
M  ISO  4  38 100  65 101  76 100  87 101
M  END
> <Batch ID>
0143

> <Smiles>
CNC(C)C(=O)NC(C(=O)N1Cc2cc([101O:1][101CH2:1]C3(C)CCCN3Cc3ccc([100NH:0][100C:0](=O)N4CCCC(n5nc(-c6ccc(Oc7ccc(F)cc7F)cc6)c(C(N)=O)c5N)C4)cc3C(C)(C)C)ccc2CC1C(=O)NC1CCCc2ccccc21)C(C)(C)C

> <Shape>
0.366

> <Color>
0.140

> <Negative vol penalty>
0.000

$$$$

  -OEChem-04052303003D

 87 95  0     1  0  0  0  0  0999 V2000
  -31.6101  -17.4160   23.2613 C   0  0  0  0  0  0  0  0  0  0  0  0
  -30.3527  -17.9901   23.1043 C   0  0  0  0  0  0  0  0  0  0  0  0
  -28.6585  -24.5746   19.1407 C   0  0  0  0  0  0  0  0  0  0  0  0
  -26.5787  -23.3669   19.3708 C   0  0  0  0  0  0  0  0  0  0  0  0
  -31.9706  -16.3092   22.4938 C   0  0  0  0  0  0  0  0  0  0  0  0
  -29.4553  -17.4584   22.1788 C   0  0  0  0  0  0  0  0  0  0  0  0
  -23.3603  -17.1747   22.7045 C   0  0  0  0  0  0  0  0  0  0  0  0
  -29.3664  -23.4178   19.4668 C   0  0  0  0  0  0  0  0  0  0  0  0
  -27.2866  -22.2100   19.6969 C   0  0  0  0  0  0  0  0  0  0  0  0
  -22.3371  -17.9766   22.2009 C   0  0  0  0  0  0  0  0  0  0  0  0
  -31.7070  -20.8718   20.5906 C   0  0  0  0  0  0  0  0  0  0  0  0
  -32.7557  -20.9869   21.5030 C   0  0  0  0  0  0  0  0  0  0  0  0
  -22.0660  -16.4563   20.3477 C   0  0  0  0  0  0  0  0  0  0  0  0
  -19.7087  -27.1165   22.1630 C   0  0  0  0  0  0  0  0  0  0  0  0
  -17.7021  -27.9479   23.2208 C   0  0  0  0  0  0  0  0  0  0  0  0
  -19.7036  -29.3008   23.1954 C   0  0  0  0  0  0  0  0  0  0  0  0
  -31.2126  -21.8025   23.1737 C   0  0  0  0  0  0  0  0  0  0  0  0
  -27.2647  -24.5492   19.0928 C   0  0  0  0  0  0  0  0  0  0  0  0
  -26.1436  -26.1693   17.4722 C   0  0  0  0  0  0  0  0  0  0  0  0
  -31.0737  -15.7578   21.5653 C   0  0  0  0  0  0  0  0  0  0  0  0
  -23.7521  -16.0114   22.0266 C   0  0  0  0  0  0  0  0  0  0  0  0
  -29.8046  -16.3441   21.3972 C   0  0  0  0  0  0  0  0  0  0  0  0
  -23.0928  -15.6400   20.8462 C   0  0  0  0  0  0  0  0  0  0  0  0
  -18.3727  -26.9427   22.5241 C   0  0  0  0  0  0  0  0  0  0  0  0
  -20.3742  -28.2956   22.4987 C   0  0  0  0  0  0  0  0  0  0  0  0
  -28.6804  -22.2355   19.7449 C   0  0  0  0  0  0  0  0  0  0  0  0
  -21.6917  -17.6190   21.0208 C   0  0  0  0  0  0  0  0  0  0  0  0
  -30.4111  -21.2221   20.9697 C   0  0  0  0  0  0  0  0  0  0  0  0
  -32.5085  -21.4522   22.7946 C   0  0  0  0  0  0  0  0  0  0  0  0
  -18.3675  -29.1270   23.5565 C   0  0  0  0  0  0  0  0  0  0  0  0
  -30.1639  -21.6874   22.2612 C   0  0  0  0  0  0  0  0  0  0  0  0
  -26.5329  -25.7440   18.7565 C   0  0  0  0  0  0  0  0  0  0  0  0
  -25.4798  -27.3520   17.6888 C   0  0  0  0  0  0  0  0  0  0  0  0
  -26.3624  -25.5505   16.1975 C   0  0  0  0  0  0  0  0  0  0  0  0
  -26.4391  -15.0130   20.6527 C   0  0  0  0  0  0  0  0  0  0  0  0
  -19.2260  -20.3271   20.5993 C   0  0  0  0  0  0  0  0  0  0  0  0
  -24.7774  -12.2483   20.3101 C   0  0  0  0  0  0  0  0  0  0  0  0
  -18.2094  -24.6478   21.4997 C   0  0  0  0  0  0  0  0  0  0  0  0
  -21.7443  -10.6984   20.0974 C   0  0  0  0  0  0  0  0  0  0  0  0
  -22.5380  -29.5809   22.3880 C   0  0  0  0  0  0  0  0  0  0  0  0
  -31.5257  -14.5900   20.7246 C   0  0  0  0  0  0  0  0  0  0  0  0
  -24.8396  -15.1429   22.5972 C   0  0  0  0  0  0  0  0  0  0  0  0
  -23.4620  -14.3901   20.0911 C   0  0  0  0  0  0  0  0  0  0  0  0
  -30.3789  -13.8571   20.0333 C   0  0  0  0  0  0  0  0  0  0  0  0
  -25.3181  -31.0546   20.7218 C   0  0  0  0  0  0  0  0  0  0  0  0
  -29.4274  -14.8528   19.3774 C   0  0  0  0  0  0  0  0  0  0  0  0
  -25.9060  -29.9002   19.9071 C   0  0  0  0  0  0  0  0  0  0  0  0
  -24.7906  -30.5825   22.0755 C   0  0  0  0  0  0  0  0  0  0  0  0
  -24.4315  -28.3073   21.2015 C   0  0  0  0  0  0  0  0  0  0  0  0
  -28.7945  -15.7808   20.4213 C   0  0  1  0  0  0  0  0  0  0  0  0
  -25.5045  -14.2534   21.5512 C   0  0  1  0  0  0  0  0  0  0  0  0
  -24.9169  -28.7227   19.8031 C   0  0  2  0  0  0  0  0  0  0  0  0
  -20.7062   -8.4358   19.7805 C   0  0  0  0  0  0  0  0  0  0  0  0
  -25.4503  -12.3587   17.3360 C   0  0  0  0  0  0  0  0  0  0  0  0
  -23.6475  -10.6680   16.9366 C   0  0  0  0  0  0  0  0  0  0  0  0
  -25.6117  -10.0820   18.3583 C   0  0  0  0  0  0  0  0  0  0  0  0
  -20.3930  -10.8219   22.7275 C   0  0  0  0  0  0  0  0  0  0  0  0
  -18.7662  -21.5906   21.3109 C   0  0  0  0  0  0  0  0  0  0  0  0
  -20.3577  -19.5722   21.2685 C   0  0  0  0  0  0  0  0  0  1  0  0
  -17.1434  -23.5696   21.3434 C   0  0  0  0  0  0  0  0  0  0  0  0
  -17.6270  -22.3229   20.5990 C   0  0  0  0  0  0  0  0  0  0  0  0
  -23.8638  -11.6739   19.2544 C   0  0  1  0  0  0  0  0  0  0  0  0
  -21.1928   -9.4648   20.7891 C   0  0  2  0  0  0  0  0  0  0  0  0
  -24.6374  -11.2203   17.9843 C   0  0  0  0  0  0  0  0  0  0  0  0
  -26.1485  -26.5879   19.7177 N   0  0  0  0  0  0  0  0  0  0  0  0
  -25.5109  -27.5555   19.0371 N   0  0  0  0  0  0  0  0  0  0  0  0
  -24.5358  -13.5773   20.6860 N   0  0  0  0  0  0  0  0  0  0  0  0
  -23.8564  -29.4686   21.8982 N   0  0  0  0  0  0  0  0  0  0  0  0
  -24.8784  -28.2275   16.8555 N   0  0  0  0  0  0  0  0  0  0  0  0
  -27.0631  -24.3374   16.1551 N   0  0  0  0  0  0  0  0  0  0  0  0
  -17.6972  -25.7465   22.1841 N   0  0  0  0  0  0  0  0  0  0  0  0
  -21.7315  -28.4724   22.1323 N   0  0  0  0  0  0  0  0  0  0  0  0
  -27.7336  -15.0965   21.1289 N   0  0  0  0  0  0  0  0  0  0  0  0
  -23.1068  -10.6098   19.9048 N   0  0  0  0  0  0  0  0  0  0  0  0
  -20.0507   -9.8335   21.6726 N   0  3  0  0  0  0  0  0  0  0  0  0
  -25.9632  -26.0666   15.1262 O   0  0  0  0  0  0  0  0  0  0  0  0
  -26.0173  -15.4870   19.6044 O   0  0  0  0  0  0  0  0  0  0  0  0
  -18.7033  -19.9225   19.5621 O   0  0  0  0  0  0  0  0  0  0  0  0
  -25.6678  -11.5416   20.7888 O   0  0  0  0  0  0  0  0  0  0  0  0
  -19.3522  -24.5006   21.0795 O   0  0  0  0  0  0  0  0  0  0  0  0
  -21.0366  -11.6443   19.7582 O   0  0  0  0  0  0  0  0  0  0  0  0
  -22.1448  -30.5975   22.9661 O   0  0  0  0  0  0  0  0  0  0  0  0
  -29.3708  -21.1065   20.0629 O   0  0  0  0  0  0  0  0  0  0  0  0
  -20.6930  -18.4003   20.5266 O   0  0  0  0  0  0  0  0  0  1  0  0
  -33.5154  -21.5612   23.6712 F   0  0  0  0  0  0  0  0  0  0  0  0
  -17.7239  -30.0922   24.2262 F   0  0  0  0  0  0  0  0  0  0  0  0
  -28.9209  -22.0243   22.6315 F   0  0  0  0  0  0  0  0  0  0  0  0
  1  2  1  0  0  0  0
  1  5  2  0  0  0  0
  2  6  2  0  0  0  0
  3  8  2  0  0  0  0
  3 18  1  0  0  0  0
  4  9  1  0  0  0  0
  4 18  2  0  0  0  0
  5 20  1  0  0  0  0
  6 22  1  0  0  0  0
  7 10  2  0  0  0  0
  7 21  1  0  0  0  0
  8 26  1  0  0  0  0
  9 26  2  0  0  0  0
 10 27  1  0  0  0  0
 11 12  2  0  0  0  0
 11 28  1  0  0  0  0
 12 29  1  0  0  0  0
 13 23  1  0  0  0  0
 13 27  2  0  0  0  0
 14 24  2  0  0  0  0
 14 25  1  0  0  0  0
 15 24  1  0  0  0  0
 15 30  2  0  0  0  0
 16 25  2  0  0  0  0
 16 30  1  0  0  0  0
 17 29  2  0  0  0  0
 17 31  1  0  0  0  0
 18 32  1  0  0  0  0
 19 32  1  0  0  0  0
 19 33  2  0  0  0  0
 19 34  1  0  0  0  0
 20 22  2  0  0  0  0
 20 41  1  0  0  0  0
 21 23  2  0  0  0  0
 21 42  1  0  0  0  0
 22 50  1  0  0  0  0
 23 43  1  0  0  0  0
 24 71  1  0  0  0  0
 25 72  1  0  0  0  0
 26 83  1  0  0  0  0
 27 84  1  0  0  0  0
 28 31  2  0  0  0  0
 28 83  1  0  0  0  0
 29 85  1  0  0  0  0
 30 86  1  0  0  0  0
 31 87  1  0  0  0  0
 32 65  2  0  0  0  0
 33 66  1  0  0  0  0
 33 69  1  0  0  0  0
 34 70  1  0  0  0  0
 34 76  2  0  0  0  0
 35 51  1  0  0  0  0
 35 73  1  0  0  0  0
 35 77  2  0  0  0  0
 36 58  1  0  0  0  0
 36 59  1  0  0  0  0
 36 78  2  0  0  0  0
 37 62  1  0  0  0  0
 37 67  1  0  0  0  0
 37 79  2  0  0  0  0
 38 60  1  0  0  0  0
 38 71  1  0  0  0  0
 38 80  2  0  0  0  0
 39 63  1  0  0  0  0
 39 74  1  0  0  0  0
 39 81  2  0  0  0  0
 40 68  1  0  0  0  0
 40 72  1  0  0  0  0
 40 82  2  0  0  0  0
 41 44  1  0  0  0  0
 42 51  1  0  0  0  0
 43 67  1  0  0  0  0
 44 46  1  0  0  0  0
 45 47  1  0  0  0  0
 45 48  1  0  0  0  0
 46 50  1  0  0  0  0
 47 52  1  0  0  0  0
 48 68  1  0  0  0  0
 49 52  1  0  0  0  0
 49 68  1  0  0  0  0
 50 73  1  0  0  0  0
 51 67  1  0  0  0  0
 52 66  1  0  0  0  0
 53 63  1  0  0  0  0
 54 64  1  0  0  0  0
 55 64  1  0  0  0  0
 56 64  1  0  0  0  0
 57 75  1  0  0  0  0
 58 61  1  0  0  0  0
 59 84  1  0  0  0  0
 60 61  1  0  0  0  0
 62 64  1  0  0  0  0
 62 74  1  0  0  0  0
 63 75  1  0  0  0  0
 65 66  1  0  0  0  0
M  CHG  1  75   1
M  ISO  4  40 100  59 101  72 100  84 101
M  END
> <Batch ID>
0143

> <Smiles>
CNC(C)C(=O)NC(C(=O)N1Cc2cc([101O:1][101CH2:1]C(=O)CCCC(=O)Nc3cc(F)cc([100NH:0][100C:0](=O)N4CCCC(n5nc(-c6ccc(Oc7ccc(F)cc7F)cc6)c(C(N)=O)c5N)C4)c3)ccc2CC1C(=O)NC1CCCc2ccccc21)C(C)(C)C

> <Shape>
0.252

> <Color>
0.071

> <Negative vol penalty>
0.000

$$$$

  -OEChem-04052303003D

 84 93  0     1  0  0  0  0  0999 V2000
  -18.2888  -25.5084   22.4924 C   0  0  0  0  0  0  0  0  0  0  0  0
  -19.6771  -25.4210   22.4713 C   0  0  0  0  0  0  0  0  0  0  0  0
  -24.0300   -9.5099   21.5915 C   0  0  0  0  0  0  0  0  0  0  0  0
  -24.5505  -10.7335   23.6086 C   0  0  0  0  0  0  0  0  0  0  0  0
  -17.6623  -26.7118   22.1711 C   0  0  0  0  0  0  0  0  0  0  0  0
  -20.4397  -26.5368   22.1279 C   0  0  0  0  0  0  0  0  0  0  0  0
  -31.0452  -20.1369   20.9642 C   0  0  0  0  0  0  0  0  0  0  0  0
  -24.3874  -27.2202   25.2252 C   0  0  0  0  0  0  0  0  0  0  0  0
  -30.7590  -18.8259   20.5769 C   0  0  0  0  0  0  0  0  0  0  0  0
  -23.5817   -8.4351   22.3591 C   0  0  0  0  0  0  0  0  0  0  0  0
  -24.1022   -9.6586   24.3763 C   0  0  0  0  0  0  0  0  0  0  0  0
  -25.5016  -26.4062   25.0257 C   0  0  0  0  0  0  0  0  0  0  0  0
  -20.8101   -7.6100   24.1114 C   0  0  0  0  0  0  0  0  0  0  0  0
  -19.6073   -7.0074   23.7431 C   0  0  0  0  0  0  0  0  0  0  0  0
  -28.3681  -19.2314   20.7938 C   0  0  0  0  0  0  0  0  0  0  0  0
  -26.5933  -28.2015   23.8406 C   0  0  0  0  0  0  0  0  0  0  0  0
  -20.7579   -4.9076   23.4208 C   0  0  0  0  0  0  0  0  0  0  0  0
  -24.5145  -10.6591   22.2162 C   0  0  0  0  0  0  0  0  0  0  0  0
  -24.2173  -12.8591   20.9595 C   0  0  0  0  0  0  0  0  0  0  0  0
  -18.4179  -27.8455   21.8329 C   0  0  0  0  0  0  0  0  0  0  0  0
  -24.3634  -28.5295   24.7236 C   0  0  0  0  0  0  0  0  0  0  0  0
  -29.9859  -20.9760   21.2607 C   0  0  0  0  0  0  0  0  0  0  0  0
  -19.8226  -27.7561   21.8004 C   0  0  0  0  0  0  0  0  0  0  0  0
  -28.6616  -20.5281   21.1763 C   0  0  0  0  0  0  0  0  0  0  0  0
  -25.4786  -29.0309   24.0373 C   0  0  0  0  0  0  0  0  0  0  0  0
  -29.4308  -18.3765   20.4925 C   0  0  0  0  0  0  0  0  0  0  0  0
  -23.6178   -8.5094   23.7516 C   0  0  0  0  0  0  0  0  0  0  0  0
  -26.6036  -26.8959   24.3308 C   0  0  0  0  0  0  0  0  0  0  0  0
  -21.9869   -6.8614   24.1343 C   0  0  0  0  0  0  0  0  0  0  0  0
  -19.5811   -5.6562   23.3979 C   0  0  0  0  0  0  0  0  0  0  0  0
  -21.9608   -5.5102   23.7891 C   0  0  0  0  0  0  0  0  0  0  0  0
  -24.9783  -11.7696   21.4238 C   0  0  0  0  0  0  0  0  0  0  0  0
  -25.1133  -13.6310   20.2611 C   0  0  0  0  0  0  0  0  0  0  0  0
  -22.8249  -13.1477   21.1432 C   0  0  0  0  0  0  0  0  0  0  0  0
  -22.5643  -30.0934   22.6210 C   0  0  0  0  0  0  0  0  0  0  0  0
  -28.1041  -23.9831   22.2488 C   0  0  0  0  0  0  0  0  0  0  0  0
  -24.2988  -32.6453   23.6219 C   0  0  0  0  0  0  0  0  0  0  0  0
  -27.1752  -33.8188   25.0347 C   0  0  0  0  0  0  0  0  0  0  0  0
  -30.0988  -16.0598   19.7627 C   0  0  0  0  0  0  0  0  0  0  0  0
  -17.6944  -29.1114   21.4471 C   0  0  0  0  0  0  0  0  0  0  0  0
  -23.1645  -29.4037   24.9705 C   0  0  0  0  0  0  0  0  0  0  0  0
  -30.0247  -22.4044   21.6933 C   0  0  0  0  0  0  0  0  0  0  0  0
  -27.7186  -21.6240   21.5454 C   0  0  0  0  0  0  0  0  0  0  0  0
  -25.5109  -30.4361   23.4963 C   0  0  0  0  0  0  0  0  0  0  0  0
  -18.5864  -30.3502   21.4581 C   0  0  0  0  0  0  0  0  0  0  0  0
  -29.8513  -12.6478   18.7755 C   0  0  0  0  0  0  0  0  0  0  0  0
  -19.9054  -30.0647   20.7471 C   0  0  0  0  0  0  0  0  0  0  0  0
  -28.4988  -12.2048   19.3383 C   0  0  0  0  0  0  0  0  0  0  0  0
  -30.5652  -13.6195   19.7136 C   0  0  0  0  0  0  0  0  0  0  0  0
  -28.4190  -14.3431   20.6830 C   0  0  0  0  0  0  0  0  0  0  0  0
  -20.6851  -28.9513   21.4570 C   0  0  1  0  0  0  0  0  0  0  0  0
  -23.0441  -30.5491   23.9700 C   0  0  1  0  0  0  0  0  0  0  0  0
  -27.6334  -13.4142   19.7430 C   0  0  2  0  0  0  0  0  0  0  0  0
  -28.3201  -35.9540   25.6885 C   0  0  0  0  0  0  0  0  0  0  0  0
  -24.9702  -33.1790   20.6937 C   0  0  0  0  0  0  0  0  0  0  0  0
  -26.8221  -34.6775   21.4638 C   0  0  0  0  0  0  0  0  0  0  0  0
  -24.4568  -35.2257   22.0361 C   0  0  0  0  0  0  0  0  0  0  0  0
  -27.2563  -33.0375   27.8881 C   0  0  0  0  0  0  0  0  0  0  0  0
  -29.1383  -25.0426   22.5327 C   0  0  0  0  0  0  0  0  0  0  0  0
  -28.4584  -26.3338   22.9526 C   0  0  0  0  0  0  0  0  0  1  0  0
  -25.5960  -33.2896   23.1961 C   0  0  1  0  0  0  0  0  0  0  0  0
  -27.4138  -34.8226   26.1482 C   0  0  2  0  0  0  0  0  0  0  0  0
  -25.4602  -34.0658   21.8558 C   0  0  0  0  0  0  0  0  0  0  0  0
  -26.2591  -11.8393   21.0516 N   0  0  0  0  0  0  0  0  0  0  0  0
  -26.3099  -12.9819   20.3459 N   0  0  0  0  0  0  0  0  0  0  0  0
  -28.6038  -22.7536   21.8546 N   0  0  0  0  0  0  0  0  0  0  0  0
  -24.3122  -31.2499   23.7579 N   0  0  0  0  0  0  0  0  0  0  0  0
  -29.6862  -14.7415   20.0503 N   0  0  0  0  0  0  0  0  0  0  0  0
  -24.9865  -14.7947   19.5887 N   0  0  0  0  0  0  0  0  0  0  0  0
  -22.0488  -12.2490   21.8877 N   0  0  0  0  0  0  0  0  0  0  0  0
  -29.1669  -17.0416   20.0974 N   0  0  0  0  0  0  0  0  0  0  0  0
  -21.3333  -29.4660   22.6441 N   0  0  0  0  0  0  0  0  0  0  0  0
  -26.0323  -34.1104   24.3205 N   0  0  0  0  0  0  0  0  0  0  0  0
  -28.0512  -34.1560   27.3188 N   0  3  0  0  0  0  0  0  0  0  0  0
  -22.2814  -14.1638   20.6475 O   0  0  0  0  0  0  0  0  0  0  0  0
  -23.2587  -30.2973   21.6322 O   0  0  0  0  0  0  0  0  0  0  0  0
  -26.9037  -24.2319   22.3710 O   0  0  0  0  0  0  0  0  0  0  0  0
  -23.3120  -33.3547   23.8332 O   0  0  0  0  0  0  0  0  0  0  0  0
  -27.9293  -32.8729   24.8177 O   0  0  0  0  0  0  0  0  0  0  0  0
  -31.1866  -16.2980   19.2317 O   0  0  0  0  0  0  0  0  0  0  0  0
  -23.1802   -7.4609   24.5010 O   0  0  0  0  0  0  0  0  0  0  0  0
  -27.6922  -26.1033   24.1341 O   0  0  0  0  0  0  0  0  0  1  0  0
  -18.4257   -5.0774   23.0457 F   0  0  0  0  0  0  0  0  0  0  0  0
  -23.0878   -4.7856   23.8104 F   0  0  0  0  0  0  0  0  0  0  0  0
  1  2  1  0  0  0  0
  1  5  2  0  0  0  0
  2  6  2  0  0  0  0
  3 10  2  0  0  0  0
  3 18  1  0  0  0  0
  4 11  1  0  0  0  0
  4 18  2  0  0  0  0
  5 20  1  0  0  0  0
  6 23  1  0  0  0  0
  7  9  2  0  0  0  0
  7 22  1  0  0  0  0
  8 12  2  0  0  0  0
  8 21  1  0  0  0  0
  9 26  1  0  0  0  0
 10 27  1  0  0  0  0
 11 27  2  0  0  0  0
 12 28  1  0  0  0  0
 13 14  2  0  0  0  0
 13 29  1  0  0  0  0
 14 30  1  0  0  0  0
 15 24  1  0  0  0  0
 15 26  2  0  0  0  0
 16 25  1  0  0  0  0
 16 28  2  0  0  0  0
 17 30  2  0  0  0  0
 17 31  1  0  0  0  0
 18 32  1  0  0  0  0
 19 32  1  0  0  0  0
 19 33  2  0  0  0  0
 19 34  1  0  0  0  0
 20 23  2  0  0  0  0
 20 40  1  0  0  0  0
 21 25  2  0  0  0  0
 21 41  1  0  0  0  0
 22 24  2  0  0  0  0
 22 42  1  0  0  0  0
 23 51  1  0  0  0  0
 24 43  1  0  0  0  0
 25 44  1  0  0  0  0
 26 71  1  0  0  0  0
 27 81  1  0  0  0  0
 28 82  1  0  0  0  0
 29 31  2  0  0  0  0
 29 81  1  0  0  0  0
 30 83  1  0  0  0  0
 31 84  1  0  0  0  0
 32 64  2  0  0  0  0
 33 65  1  0  0  0  0
 33 69  1  0  0  0  0
 34 70  1  0  0  0  0
 34 75  2  0  0  0  0
 35 52  1  0  0  0  0
 35 72  1  0  0  0  0
 35 76  2  0  0  0  0
 36 59  1  0  0  0  0
 36 66  1  0  0  0  0
 36 77  2  0  0  0  0
 37 61  1  0  0  0  0
 37 67  1  0  0  0  0
 37 78  2  0  0  0  0
 38 62  1  0  0  0  0
 38 73  1  0  0  0  0
 38 79  2  0  0  0  0
 39 68  1  0  0  0  0
 39 71  1  0  0  0  0
 39 80  2  0  0  0  0
 40 45  1  0  0  0  0
 41 52  1  0  0  0  0
 42 66  1  0  0  0  0
 43 66  1  0  0  0  0
 44 67  1  0  0  0  0
 45 47  1  0  0  0  0
 46 48  1  0  0  0  0
 46 49  1  0  0  0  0
 47 51  1  0  0  0  0
 48 53  1  0  0  0  0
 49 68  1  0  0  0  0
 50 53  1  0  0  0  0
 50 68  1  0  0  0  0
 51 72  1  0  0  0  0
 52 67  1  0  0  0  0
 53 65  1  0  0  0  0
 54 62  1  0  0  0  0
 55 63  1  0  0  0  0
 56 63  1  0  0  0  0
 57 63  1  0  0  0  0
 58 74  1  0  0  0  0
 59 60  1  0  0  0  0
 60 82  1  0  0  0  0
 61 63  1  0  0  0  0
 61 73  1  0  0  0  0
 62 74  1  0  0  0  0
 64 65  1  0  0  0  0
M  CHG  1  74   1
M  ISO  4  39 100  60 101  71 100  82 101
M  END
> <Batch ID>
0143

> <Smiles>
CNC(C)C(=O)NC(C(=O)N1Cc2cc([101O:1][101CH2:1]CC(=O)N3Cc4ccc([100NH:0][100C:0](=O)N5CCCC(n6nc(-c7ccc(Oc8ccc(F)cc8F)cc7)c(C(N)=O)c6N)C5)cc4C3)ccc2CC1C(=O)NC1CCCc2ccccc21)C(C)(C)C

> <Shape>
0.314

> <Color>
0.143

> <Negative vol penalty>
0.000

$$$$

  -OEChem-04052303003D

 89 98  0     1  0  0  0  0  0999 V2000
  -29.2442  -15.3977   14.7687 C   0  0  0  0  0  0  0  0  0  0  0  0
  -28.3654  -15.5065   15.8416 C   0  0  0  0  0  0  0  0  0  0  0  0
  -23.7257   -9.8292   21.8221 C   0  0  0  0  0  0  0  0  0  0  0  0
  -24.3468  -11.0826   23.7919 C   0  0  0  0  0  0  0  0  0  0  0  0
  -30.4025  -16.1731   14.7364 C   0  0  0  0  0  0  0  0  0  0  0  0
  -28.6450  -16.3900   16.8836 C   0  0  0  0  0  0  0  0  0  0  0  0
  -25.3708  -20.6592   21.6133 C   0  0  0  0  0  0  0  0  0  0  0  0
  -33.0203  -17.7916   22.9409 C   0  0  0  0  0  0  0  0  0  0  0  0
  -32.3261  -16.8871   22.1332 C   0  0  0  0  0  0  0  0  0  0  0  0
  -23.1852   -8.8283   22.6293 C   0  0  0  0  0  0  0  0  0  0  0  0
  -23.8063  -10.0818   24.5992 C   0  0  0  0  0  0  0  0  0  0  0  0
  -25.3299  -20.9181   22.9826 C   0  0  0  0  0  0  0  0  0  0  0  0
  -20.3501   -8.3155   24.3991 C   0  0  0  0  0  0  0  0  0  0  0  0
  -19.1003   -7.8046   24.0489 C   0  0  0  0  0  0  0  0  0  0  0  0
  -27.3210  -22.2650   22.7813 C   0  0  0  0  0  0  0  0  0  0  0  0
  -30.1940  -17.7625   22.9085 C   0  0  0  0  0  0  0  0  0  0  0  0
  -20.0659   -5.6023   23.8155 C   0  0  0  0  0  0  0  0  0  0  0  0
  -24.3066  -10.9563   22.4033 C   0  0  0  0  0  0  0  0  0  0  0  0
  -24.2022  -13.1220   21.0592 C   0  0  0  0  0  0  0  0  0  0  0  0
  -30.6915  -17.0737   15.7738 C   0  0  0  0  0  0  0  0  0  0  0  0
  -26.3951  -21.1933   20.8182 C   0  0  0  0  0  0  0  0  0  0  0  0
  -29.8089  -17.1772   16.8658 C   0  0  0  0  0  0  0  0  0  0  0  0
  -27.3712  -22.0135   21.4017 C   0  0  0  0  0  0  0  0  0  0  0  0
  -32.2976  -18.6741   23.7284 C   0  0  0  0  0  0  0  0  0  0  0  0
  -30.8977  -18.6547   23.7013 C   0  0  0  0  0  0  0  0  0  0  0  0
  -30.9242  -16.8719   22.1191 C   0  0  0  0  0  0  0  0  0  0  0  0
  -23.2254   -8.9546   24.0179 C   0  0  0  0  0  0  0  0  0  0  0  0
  -26.3068  -21.7187   23.5673 C   0  0  0  0  0  0  0  0  0  0  0  0
  -21.4579   -7.4698   24.4574 C   0  0  0  0  0  0  0  0  0  0  0  0
  -18.9582   -6.4480   23.7572 C   0  0  0  0  0  0  0  0  0  0  0  0
  -21.3158   -6.1132   24.1656 C   0  0  0  0  0  0  0  0  0  0  0  0
  -24.8657  -11.9903   21.5700 C   0  0  0  0  0  0  0  0  0  0  0  0
  -25.1626  -13.7854   20.3353 C   0  0  0  0  0  0  0  0  0  0  0  0
  -22.8397  -13.5366   21.2245 C   0  0  0  0  0  0  0  0  0  0  0  0
  -28.7204  -19.9653   19.0326 C   0  0  0  0  0  0  0  0  0  0  0  0
  -29.1023  -19.9689   24.8265 C   0  0  0  0  0  0  0  0  0  0  0  0
  -29.1953  -23.0667   18.2092 C   0  0  0  0  0  0  0  0  0  0  0  0
  -28.8399  -26.3645   19.0122 C   0  0  0  0  0  0  0  0  0  0  0  0
  -30.8095  -14.9944   20.4433 C   0  0  0  0  0  0  0  0  0  0  0  0
  -31.9796  -17.8563   15.7179 C   0  0  0  0  0  0  0  0  0  0  0  0
  -26.4098  -20.9265   19.3380 C   0  0  0  0  0  0  0  0  0  0  0  0
  -28.4804  -22.6275   20.5886 C   0  0  0  0  0  0  0  0  0  0  0  0
  -32.0143  -19.0416   16.6791 C   0  0  0  0  0  0  0  0  0  0  0  0
  -29.4750  -12.5072   18.2730 C   0  0  0  0  0  0  0  0  0  0  0  0
  -31.5198  -18.6236   18.0602 C   0  0  0  0  0  0  0  0  0  0  0  0
  -28.0852  -12.2299   18.8507 C   0  0  0  0  0  0  0  0  0  0  0  0
  -30.5028  -12.7736   19.3713 C   0  0  0  0  0  0  0  0  0  0  0  0
  -28.7385  -13.5421   20.9094 C   0  0  0  0  0  0  0  0  0  0  0  0
  -31.6172  -20.3541   25.1268 C   0  0  0  0  0  0  0  0  0  0  0  0
  -30.0649  -18.1423   18.0030 C   0  0  1  0  0  0  0  0  0  0  0  0
  -27.7905  -21.1014   18.7131 C   0  0  1  0  0  0  0  0  0  0  0  0
  -27.6554  -13.3320   19.8387 C   0  0  2  0  0  0  0  0  0  0  0  0
  -29.3602  -28.6667   18.1597 C   0  0  0  0  0  0  0  0  0  0  0  0
  -25.0265  -20.7634   26.5469 C   0  0  0  0  0  0  0  0  0  0  0  0
  -32.1143  -22.7047   19.0204 C   0  0  0  0  0  0  0  0  0  0  0  0
  -32.3400  -25.1979   19.0598 C   0  0  0  0  0  0  0  0  0  0  0  0
  -31.7697  -24.0324   16.9293 C   0  0  0  0  0  0  0  0  0  0  0  0
  -27.5607  -22.2116   27.5749 C   0  0  0  0  0  0  0  0  0  0  0  0
  -27.7768  -19.7217   27.5666 C   0  0  0  0  0  0  0  0  0  0  0  0
  -34.1212  -20.1105   24.6941 C   0  0  0  0  0  0  0  0  0  0  0  0
  -25.9747  -27.0975   18.9027 C   0  0  0  0  0  0  0  0  0  0  0  0
  -28.8946  -21.1203   25.7810 C   0  0  0  0  0  0  0  0  0  0  0  0
  -30.0279  -24.2020   18.7540 C   0  0  1  0  0  0  0  0  0  0  0  0
  -28.3314  -27.5478   18.2086 C   0  0  2  0  0  0  0  0  0  0  0  0
  -26.3453  -20.8491   25.7805 C   0  0  2  0  0  0  0  0  0  1  0  0
  -31.5433  -24.0213   18.4568 C   0  0  0  0  0  0  0  0  0  0  0  0
  -27.6265  -20.9642   26.6652 C   0  0  0  0  0  0  0  0  0  0  0  0
  -26.1483  -11.9346   21.2016 N   0  0  0  0  0  0  0  0  0  0  0  0
  -26.2986  -13.0396   20.4516 N   0  0  0  0  0  0  0  0  0  0  0  0
  -30.4288  -19.6647   24.5674 N   0  0  0  0  0  0  0  0  0  0  0  0
  -32.7688  -19.6318   24.6080 N   0  0  2  0  0  0  0  0  0  0  0  0
  -28.4553  -22.3321   19.1465 N   0  0  0  0  0  0  0  0  0  0  0  0
  -30.0297  -13.8319   20.2663 N   0  0  0  0  0  0  0  0  0  0  0  0
  -25.1377  -14.9281   19.6169 N   0  0  0  0  0  0  0  0  0  0  0  0
  -21.9878  -12.7384   22.0001 N   0  0  0  0  0  0  0  0  0  0  0  0
  -30.2429  -15.9452   21.2916 N   0  0  0  0  0  0  0  0  0  0  0  0
  -29.1622  -19.2706   17.9227 N   0  0  0  0  0  0  0  0  0  0  0  0
  -29.4540  -25.4274   18.2085 N   0  0  0  0  0  0  0  0  0  0  0  0
  -27.0803  -28.0857   18.8139 N   0  3  0  0  0  0  0  0  0  0  0  0
  -22.3867  -14.5752   20.6864 O   0  0  0  0  0  0  0  0  0  0  0  0
  -29.0164  -19.7367   20.1996 O   0  0  0  0  0  0  0  0  0  0  0  0
  -28.1248  -19.3880   24.3549 O   0  0  0  0  0  0  0  0  0  0  0  0
  -29.1957  -22.8445   16.9958 O   0  0  0  0  0  0  0  0  0  0  0  0
  -28.7090  -26.2817   20.2314 O   0  0  0  0  0  0  0  0  0  0  0  0
  -31.8868  -15.1479   19.8621 O   0  0  0  0  0  0  0  0  0  0  0  0
  -22.6979   -7.9783   24.8059 O   0  0  0  0  0  0  0  0  0  0  0  0
  -26.2696  -21.9724   24.9038 O   0  0  0  0  0  0  0  0  0  1  0  0
  -17.7577   -5.9573   23.4224 F   0  0  0  0  0  0  0  0  0  0  0  0
  -22.3761   -5.2956   24.2210 F   0  0  0  0  0  0  0  0  0  0  0  0
  1  2  1  0  0  0  0
  1  5  2  0  0  0  0
  2  6  2  0  0  0  0
  3 10  2  0  0  0  0
  3 18  1  0  0  0  0
  4 11  1  0  0  0  0
  4 18  2  0  0  0  0
  5 20  1  0  0  0  0
  6 22  1  0  0  0  0
  7 12  2  0  0  0  0
  7 21  1  0  0  0  0
  8  9  2  0  0  0  0
  8 24  1  0  0  0  0
  9 26  1  0  0  0  0
 10 27  1  0  0  0  0
 11 27  2  0  0  0  0
 12 28  1  0  0  0  0
 13 14  2  0  0  0  0
 13 29  1  0  0  0  0
 14 30  1  0  0  0  0
 15 23  1  0  0  0  0
 15 28  2  0  0  0  0
 16 25  1  0  0  0  0
 16 26  2  0  0  0  0
 17 30  2  0  0  0  0
 17 31  1  0  0  0  0
 18 32  1  0  0  0  0
 19 32  1  0  0  0  0
 19 33  2  0  0  0  0
 19 34  1  0  0  0  0
 20 22  2  0  0  0  0
 20 40  1  0  0  0  0
 21 23  2  0  0  0  0
 21 41  1  0  0  0  0
 22 50  1  0  0  0  0
 23 42  1  0  0  0  0
 24 25  2  0  0  0  0
 24 71  1  0  0  0  0
 25 70  1  0  0  0  0
 26 76  1  0  0  0  0
 27 86  1  0  0  0  0
 28 87  1  0  0  0  0
 29 31  2  0  0  0  0
 29 86  1  0  0  0  0
 30 88  1  0  0  0  0
 31 89  1  0  0  0  0
 32 68  2  0  0  0  0
 33 69  1  0  0  0  0
 33 74  1  0  0  0  0
 34 75  1  0  0  0  0
 34 80  2  0  0  0  0
 35 51  1  0  0  0  0
 35 77  1  0  0  0  0
 35 81  2  0  0  0  0
 36 62  1  0  0  0  0
 36 70  1  0  0  0  0
 36 82  2  0  0  0  0
 37 63  1  0  0  0  0
 37 72  1  0  0  0  0
 37 83  2  0  0  0  0
 38 64  1  0  0  0  0
 38 78  1  0  0  0  0
 38 84  2  0  0  0  0
 39 73  1  0  0  0  0
 39 76  1  0  0  0  0
 39 85  2  0  0  0  0
 40 43  1  0  0  0  0
 41 51  1  0  0  0  0
 42 72  1  0  0  0  0
 43 45  1  0  0  0  0
 44 46  1  0  0  0  0
 44 47  1  0  0  0  0
 45 50  1  0  0  0  0
 46 52  1  0  0  0  0
 47 73  1  0  0  0  0
 48 52  1  0  0  0  0
 48 73  1  0  0  0  0
 49 70  1  0  0  0  0
 49 71  1  0  0  0  0
 50 77  1  0  0  0  0
 51 72  1  0  0  0  0
 52 69  1  0  0  0  0
 53 64  1  0  0  0  0
 54 65  1  0  0  0  0
 55 66  1  0  0  0  0
 56 66  1  0  0  0  0
 57 66  1  0  0  0  0
 58 67  1  0  0  0  0
 59 67  1  0  0  0  0
 60 71  1  0  0  0  0
 61 79  1  0  0  0  0
 62 67  1  0  0  0  0
 63 66  1  0  0  0  0
 63 78  1  0  0  0  0
 64 79  1  0  0  0  0
 65 67  1  0  0  0  0
 65 87  1  0  0  0  0
 68 69  1  0  0  0  0
M  CHG  1  79   1
M  ISO  4  39 100  65 101  76 100  87 101
M  END
> <Batch ID>
0143

> <Smiles>
CNC(C)C(=O)NC(C(=O)N1Cc2cc([101O:1][101CH:1](C)C(C)(C)CC(=O)N3CN(C)c4ccc([100NH:0][100C:0](=O)N5CCCC(n6nc(-c7ccc(Oc8ccc(F)cc8F)cc7)c(C(N)=O)c6N)C5)cc43)ccc2CC1C(=O)NC1CCCc2ccccc21)C(C)(C)C

> <Shape>
0.237

> <Color>
0.149

> <Negative vol penalty>
0.000

$$$$

  -OEChem-04052303003D

 90 98  0     1  0  0  0  0  0999 V2000
  -24.5936  -21.2109   15.5587 C   0  0  0  0  0  0  0  0  0  0  0  0
  -24.8889  -21.5284   16.8806 C   0  0  0  0  0  0  0  0  0  0  0  0
  -23.0882   -9.8452   19.9428 C   0  0  0  0  0  0  0  0  0  0  0  0
  -23.8442   -9.8648   22.2374 C   0  0  0  0  0  0  0  0  0  0  0  0
  -25.6250  -21.0509   14.6344 C   0  0  0  0  0  0  0  0  0  0  0  0
  -26.2160  -21.6850   17.2792 C   0  0  0  0  0  0  0  0  0  0  0  0
  -26.8993  -25.7668   20.1975 C   0  0  0  0  0  0  0  0  0  0  0  0
  -22.3564   -8.6846   20.1939 C   0  0  0  0  0  0  0  0  0  0  0  0
  -23.1124   -8.7042   22.4885 C   0  0  0  0  0  0  0  0  0  0  0  0
  -26.5173  -25.6648   21.5345 C   0  0  0  0  0  0  0  0  0  0  0  0
  -22.9639   -5.3730   20.4923 C   0  0  0  0  0  0  0  0  0  0  0  0
  -23.0433   -4.3424   19.5558 C   0  0  0  0  0  0  0  0  0  0  0  0
  -28.8179  -25.2918   22.1569 C   0  0  0  0  0  0  0  0  0  0  0  0
  -31.0771  -17.7634   20.5970 C   0  0  0  0  0  0  0  0  0  0  0  0
  -29.4405  -17.9371   22.3657 C   0  0  0  0  0  0  0  0  0  0  0  0
  -20.6577   -4.4818   19.2000 C   0  0  0  0  0  0  0  0  0  0  0  0
  -23.8322  -10.4353   20.9646 C   0  0  0  0  0  0  0  0  0  0  0  0
  -24.1470  -12.9637   20.8401 C   0  0  0  0  0  0  0  0  0  0  0  0
  -26.9649  -21.2151   15.0196 C   0  0  0  0  0  0  0  0  0  0  0  0
  -28.2442  -25.6210   19.8284 C   0  0  0  0  0  0  0  0  0  0  0  0
  -27.2663  -21.5257   16.3594 C   0  0  0  0  0  0  0  0  0  0  0  0
  -29.2146  -25.3949   20.8149 C   0  0  0  0  0  0  0  0  0  0  0  0
  -31.2292  -19.1499   20.6015 C   0  0  0  0  0  0  0  0  0  0  0  0
  -30.4870  -19.9300   21.4881 C   0  0  0  0  0  0  0  0  0  0  0  0
  -30.1827  -17.1569   21.4790 C   0  0  0  0  0  0  0  0  0  0  0  0
  -29.5926  -19.3236   22.3702 C   0  0  0  0  0  0  0  0  0  0  0  0
  -22.3684   -8.1141   21.4667 C   0  0  0  0  0  0  0  0  0  0  0  0
  -27.4763  -25.4244   22.5141 C   0  0  0  0  0  0  0  0  0  0  0  0
  -21.7313   -5.9581   20.7827 C   0  0  0  0  0  0  0  0  0  0  0  0
  -21.8903   -3.8968   18.9097 C   0  0  0  0  0  0  0  0  0  0  0  0
  -20.5783   -5.5125   20.1365 C   0  0  0  0  0  0  0  0  0  0  0  0
  -24.5888  -11.6339   20.7057 C   0  0  0  0  0  0  0  0  0  0  0  0
  -25.2316  -13.7242   20.4771 C   0  0  0  0  0  0  0  0  0  0  0  0
  -22.8704  -13.4667   21.2560 C   0  0  0  0  0  0  0  0  0  0  0  0
  -29.8596  -23.5864   17.9969 C   0  0  0  0  0  0  0  0  0  0  0  0
  -27.0386  -23.8639   25.7509 C   0  0  0  0  0  0  0  0  0  0  0  0
  -32.3238  -25.6086   18.5977 C   0  0  0  0  0  0  0  0  0  0  0  0
  -28.3660  -19.7176   24.5344 C   0  0  0  0  0  0  0  0  0  0  0  0
  -33.7052  -27.9647   20.6440 C   0  0  0  0  0  0  0  0  0  0  0  0
  -30.6859  -14.8289   20.6584 C   0  0  0  0  0  0  0  0  0  0  0  0
  -28.0480  -20.9855   13.9955 C   0  0  0  0  0  0  0  0  0  0  0  0
  -28.6434  -25.7604   18.3849 C   0  0  0  0  0  0  0  0  0  0  0  0
  -30.6744  -25.2510   20.4731 C   0  0  0  0  0  0  0  0  0  0  0  0
  -29.4086  -21.5371   14.4137 C   0  0  0  0  0  0  0  0  0  0  0  0
  -29.6014  -12.3986   18.2932 C   0  0  0  0  0  0  0  0  0  0  0  0
  -29.7247  -21.1434   15.8531 C   0  0  0  0  0  0  0  0  0  0  0  0
  -28.1643  -12.0924   18.7210 C   0  0  0  0  0  0  0  0  0  0  0  0
  -30.5121  -12.6396   19.4958 C   0  0  0  0  0  0  0  0  0  0  0  0
  -28.5952  -13.3462   20.8726 C   0  0  0  0  0  0  0  0  0  0  0  0
  -28.6921  -21.7281   16.8245 C   0  0  1  0  0  0  0  0  0  0  0  0
  -29.9724  -25.0832   18.0645 C   0  0  1  0  0  0  0  0  0  0  0  0
  -27.6262  -13.1602   19.6936 C   0  0  2  0  0  0  0  0  0  0  0  0
  -32.1942  -19.7742   19.6470 C   0  0  0  0  0  0  0  0  0  0  0  0
  -30.6542  -21.4175   21.4889 C   0  0  0  0  0  0  0  0  0  0  0  0
  -35.7442  -29.4061   20.8931 C   0  0  0  0  0  0  0  0  0  0  0  0
  -26.7084  -22.3192   27.7552 C   0  0  0  0  0  0  0  0  0  0  0  0
  -28.7515  -23.7512   27.5377 C   0  0  0  0  0  0  0  0  0  0  0  0
  -33.9193  -23.1844   19.5400 C   0  0  0  0  0  0  0  0  0  0  0  0
  -35.5293  -24.7575   20.6361 C   0  0  0  0  0  0  0  0  0  0  0  0
  -35.2189  -24.8171   18.1617 C   0  0  0  0  0  0  0  0  0  0  0  0
  -32.1077  -30.4516   20.4948 C   0  0  0  0  0  0  0  0  0  0  0  0
  -27.8951  -24.4774   24.6551 C   0  0  0  0  0  0  0  0  0  1  0  0
  -27.5816  -20.8538   25.1793 C   0  0  0  0  0  0  0  0  0  0  0  0
  -28.4731  -21.7806   26.0138 C   0  0  0  0  0  0  0  0  0  0  0  0
  -33.3896  -25.7084   19.6621 C   0  0  1  0  0  0  0  0  0  0  0  0
  -34.3279  -29.3169   20.3466 C   0  0  2  0  0  0  0  0  0  0  0  0
  -27.7182  -22.9139   26.7624 C   0  0  0  0  0  0  0  0  0  0  0  0
  -34.4866  -24.6176   19.5065 C   0  0  0  0  0  0  0  0  0  0  0  0
  -25.8553  -11.5508   20.2896 N   0  0  0  0  0  0  0  0  0  0  0  0
  -26.2186  -12.8381   20.1594 N   0  0  0  0  0  0  0  0  0  0  0  0
  -31.0140  -25.3889   19.0472 N   0  0  0  0  0  0  0  0  0  0  0  0
  -29.9406  -13.6661   20.3703 N   0  0  0  0  0  0  0  0  0  0  0  0
  -25.4278  -15.0577   20.4018 N   0  0  0  0  0  0  0  0  0  0  0  0
  -21.8678  -12.5473   21.5934 N   0  0  0  0  0  0  0  0  0  0  0  0
  -28.8288  -20.0962   23.2771 N   0  0  0  0  0  0  0  0  0  0  0  0
  -30.0273  -15.7486   21.4740 N   0  0  0  0  0  0  0  0  0  0  0  0
  -28.9548  -23.1322   17.0563 N   0  0  0  0  0  0  0  0  0  0  0  0
  -33.8948  -27.0760   19.6069 N   0  0  0  0  0  0  0  0  0  0  0  0
  -33.5176  -30.4065   20.9607 N   0  3  0  0  0  0  0  0  0  0  0  0
  -22.6208  -14.6948   21.3105 O   0  0  0  0  0  0  0  0  0  0  0  0
  -30.5440  -22.8947   18.7418 O   0  0  0  0  0  0  0  0  0  0  0  0
  -25.8244  -24.0786   25.7880 O   0  0  0  0  0  0  0  0  0  0  0  0
  -32.6406  -25.7284   17.4116 O   0  0  0  0  0  0  0  0  0  0  0  0
  -28.5285  -18.6380   25.0934 O   0  0  0  0  0  0  0  0  0  0  0  0
  -33.1133  -27.7201   21.6929 O   0  0  0  0  0  0  0  0  0  0  0  0
  -31.8139  -15.0089   20.1923 O   0  0  0  0  0  0  0  0  0  0  0  0
  -21.6542   -6.9817   21.7121 O   0  0  0  0  0  0  0  0  0  0  0  0
  -27.1062  -25.3237   23.8198 O   0  0  0  0  0  0  0  0  0  1  0  0
  -21.9669   -2.9081   18.0092 F   0  0  0  0  0  0  0  0  0  0  0  0
  -19.3915   -6.0714   20.4105 F   0  0  0  0  0  0  0  0  0  0  0  0
  1  2  1  0  0  0  0
  1  5  2  0  0  0  0
  2  6  2  0  0  0  0
  3  8  2  0  0  0  0
  3 17  1  0  0  0  0
  4  9  1  0  0  0  0
  4 17  2  0  0  0  0
  5 19  1  0  0  0  0
  6 21  1  0  0  0  0
  7 10  2  0  0  0  0
  7 20  1  0  0  0  0
  8 27  1  0  0  0  0
  9 27  2  0  0  0  0
 10 28  1  0  0  0  0
 11 12  2  0  0  0  0
 11 29  1  0  0  0  0
 12 30  1  0  0  0  0
 13 22  1  0  0  0  0
 13 28  2  0  0  0  0
 14 23  2  0  0  0  0
 14 25  1  0  0  0  0
 15 25  2  0  0  0  0
 15 26  1  0  0  0  0
 16 30  2  0  0  0  0
 16 31  1  0  0  0  0
 17 32  1  0  0  0  0
 18 32  1  0  0  0  0
 18 33  2  0  0  0  0
 18 34  1  0  0  0  0
 19 21  2  0  0  0  0
 19 41  1  0  0  0  0
 20 22  2  0  0  0  0
 20 42  1  0  0  0  0
 21 50  1  0  0  0  0
 22 43  1  0  0  0  0
 23 24  1  0  0  0  0
 23 53  1  0  0  0  0
 24 26  2  0  0  0  0
 24 54  1  0  0  0  0
 25 76  1  0  0  0  0
 26 75  1  0  0  0  0
 27 87  1  0  0  0  0
 28 88  1  0  0  0  0
 29 31  2  0  0  0  0
 29 87  1  0  0  0  0
 30 89  1  0  0  0  0
 31 90  1  0  0  0  0
 32 69  2  0  0  0  0
 33 70  1  0  0  0  0
 33 73  1  0  0  0  0
 34 74  1  0  0  0  0
 34 80  2  0  0  0  0
 35 51  1  0  0  0  0
 35 77  1  0  0  0  0
 35 81  2  0  0  0  0
 36 62  1  0  0  0  0
 36 67  1  0  0  0  0
 36 82  2  0  0  0  0
 37 65  1  0  0  0  0
 37 71  1  0  0  0  0
 37 83  2  0  0  0  0
 38 63  1  0  0  0  0
 38 75  1  0  0  0  0
 38 84  2  0  0  0  0
 39 66  1  0  0  0  0
 39 78  1  0  0  0  0
 39 85  2  0  0  0  0
 40 72  1  0  0  0  0
 40 76  1  0  0  0  0
 40 86  2  0  0  0  0
 41 44  1  0  0  0  0
 42 51  1  0  0  0  0
 43 71  1  0  0  0  0
 44 46  1  0  0  0  0
 45 47  1  0  0  0  0
 45 48  1  0  0  0  0
 46 50  1  0  0  0  0
 47 52  1  0  0  0  0
 48 72  1  0  0  0  0
 49 52  1  0  0  0  0
 49 72  1  0  0  0  0
 50 77  1  0  0  0  0
 51 71  1  0  0  0  0
 52 70  1  0  0  0  0
 55 66  1  0  0  0  0
 56 67  1  0  0  0  0
 57 67  1  0  0  0  0
 58 68  1  0  0  0  0
 59 68  1  0  0  0  0
 60 68  1  0  0  0  0
 61 79  1  0  0  0  0
 62 88  1  0  0  0  0
 63 64  1  0  0  0  0
 64 67  1  0  0  0  0
 65 68  1  0  0  0  0
 65 78  1  0  0  0  0
 66 79  1  0  0  0  0
 69 70  1  0  0  0  0
M  CHG  1  79   1
M  ISO  4  40 100  62 101  76 100  88 101
M  END
> <Batch ID>
0143

> <Smiles>
CNC(C)C(=O)NC(C(=O)N1Cc2cc([101O:1][101CH2:1]C(=O)C(C)(C)CCC(=O)Nc3cc([100NH:0][100C:0](=O)N4CCCC(n5nc(-c6ccc(Oc7ccc(F)cc7F)cc6)c(C(N)=O)c5N)C4)cc(C)c3C)ccc2CC1C(=O)NC1CCCc2ccccc21)C(C)(C)C

> <Shape>
0.216

> <Color>
0.185

> <Negative vol penalty>
0.000

$$$$

  -OEChem-04052303003D

 88 96  0     1  0  0  0  0  0999 V2000
  -29.0360  -37.2652   21.7999 C   0  0  0  0  0  0  0  0  0  0  0  0
  -29.3594  -35.9799   21.3771 C   0  0  0  0  0  0  0  0  0  0  0  0
  -28.0286  -18.0515   14.7137 C   0  0  0  0  0  0  0  0  0  0  0  0
  -24.2212   -9.5912   22.3151 C   0  0  0  0  0  0  0  0  0  0  0  0
  -22.5979  -10.4142   20.7261 C   0  0  0  0  0  0  0  0  0  0  0  0
  -28.0701  -37.4504   22.7881 C   0  0  0  0  0  0  0  0  0  0  0  0
  -28.7178  -34.8789   21.9432 C   0  0  0  0  0  0  0  0  0  0  0  0
  -27.2072  -29.6516   19.1326 C   0  0  0  0  0  0  0  0  0  0  0  0
  -23.2749   -8.6995   22.8200 C   0  0  0  0  0  0  0  0  0  0  0  0
  -21.6516   -9.5224   21.2310 C   0  0  0  0  0  0  0  0  0  0  0  0
  -27.8204  -28.4004   19.0863 C   0  0  0  0  0  0  0  0  0  0  0  0
  -21.9502   -5.7139   21.9457 C   0  0  0  0  0  0  0  0  0  0  0  0
  -22.3562   -4.3994   22.1758 C   0  0  0  0  0  0  0  0  0  0  0  0
  -27.4653  -17.3939   15.8015 C   0  0  0  0  0  0  0  0  0  0  0  0
  -28.5037  -19.3497   14.8630 C   0  0  0  0  0  0  0  0  0  0  0  0
  -26.3905  -27.6400   20.8742 C   0  0  0  0  0  0  0  0  0  0  0  0
  -21.8014   -4.6375   24.5151 C   0  0  0  0  0  0  0  0  0  0  0  0
  -23.8827  -10.4486   21.2681 C   0  0  0  0  0  0  0  0  0  0  0  0
  -25.7699  -11.1408   19.6975 C   0  0  0  0  0  0  0  0  0  0  0  0
  -27.4094  -36.3516   23.3598 C   0  0  0  0  0  0  0  0  0  0  0  0
  -26.1868  -29.9102   20.0590 C   0  0  0  0  0  0  0  0  0  0  0  0
  -27.7431  -35.0494   22.9410 C   0  0  0  0  0  0  0  0  0  0  0  0
  -25.7642  -28.8946   20.9285 C   0  0  0  0  0  0  0  0  0  0  0  0
  -21.9901   -8.6650   22.2779 C   0  0  0  0  0  0  0  0  0  0  0  0
  -27.4141  -27.3952   19.9591 C   0  0  0  0  0  0  0  0  0  0  0  0
  -21.4699   -6.4902   23.0004 C   0  0  0  0  0  0  0  0  0  0  0  0
  -22.2817   -3.8612   23.4605 C   0  0  0  0  0  0  0  0  0  0  0  0
  -21.3955   -5.9521   24.2850 C   0  0  0  0  0  0  0  0  0  0  0  0
  -24.8596  -11.3704   20.7465 C   0  0  0  0  0  0  0  0  0  0  0  0
  -27.4011  -18.0728   17.0077 C   0  0  0  0  0  0  0  0  0  0  0  0
  -28.3929  -19.9411   16.1111 C   0  0  0  0  0  0  0  0  0  0  0  0
  -26.4715  -12.3165   19.5883 C   0  0  0  0  0  0  0  0  0  0  0  0
  -25.9638   -9.9697   18.8935 C   0  0  0  0  0  0  0  0  0  0  0  0
  -25.8219  -31.9256   22.4898 C   0  0  0  0  0  0  0  0  0  0  0  0
  -28.4670  -24.2154   18.5690 C   0  0  0  0  0  0  0  0  0  0  0  0
  -22.8095  -30.7229   22.5272 C   0  0  0  0  0  0  0  0  0  0  0  0
  -20.7078  -28.1489   21.7499 C   0  0  0  0  0  0  0  0  0  0  0  0
  -26.6585  -17.8785   19.4071 C   0  0  0  0  0  0  0  0  0  0  0  0
  -26.4062  -36.5990   24.4585 C   0  0  0  0  0  0  0  0  0  0  0  0
  -25.5171  -31.2569   20.0782 C   0  0  0  0  0  0  0  0  0  0  0  0
  -24.6592  -29.1151   21.9279 C   0  0  0  0  0  0  0  0  0  0  0  0
  -25.5045  -35.4001   24.7412 C   0  0  0  0  0  0  0  0  0  0  0  0
  -26.6146  -16.3615   22.6280 C   0  0  0  0  0  0  0  0  0  0  0  0
  -26.3306  -34.1213   24.8355 C   0  0  0  0  0  0  0  0  0  0  0  0
  -26.2290  -14.9089   22.3393 C   0  0  0  0  0  0  0  0  0  0  0  0
  -25.8848  -17.3361   21.7054 C   0  0  0  0  0  0  0  0  0  0  0  0
  -25.6260  -15.5941   19.9826 C   0  0  0  0  0  0  0  0  0  0  0  0
  -27.0513  -33.8313   23.5134 C   0  0  1  0  0  0  0  0  0  0  0  0
  -24.8404  -31.5688   21.4095 C   0  0  1  0  0  0  0  0  0  0  0  0
  -26.3848  -14.5710   20.8436 C   0  0  2  0  0  0  0  0  0  0  0  0
  -26.6838  -23.7332   16.1230 C   0  0  0  0  0  0  0  0  0  0  0  0
  -18.3081  -27.4394   21.9388 C   0  0  0  0  0  0  0  0  0  0  0  0
  -31.3946  -23.5837   18.3400 C   0  0  0  0  0  0  0  0  0  0  0  0
  -31.2411  -23.4169   15.8587 C   0  0  0  0  0  0  0  0  0  0  0  0
  -23.2286  -30.1012   25.4848 C   0  0  0  0  0  0  0  0  0  0  0  0
  -21.2428  -28.5805   25.3750 C   0  0  0  0  0  0  0  0  0  0  0  0
  -20.9713  -31.0183   24.9213 C   0  0  0  0  0  0  0  0  0  0  0  0
  -20.4045  -27.9835   18.8106 C   0  0  0  0  0  0  0  0  0  0  0  0
  -28.5180  -25.7353   18.6621 C   0  0  0  0  0  0  0  0  0  1  0  0
  -28.1820  -24.0226   16.0595 C   0  0  0  0  0  0  0  0  0  0  0  0
  -28.8268  -21.9836   17.4771 C   0  0  0  0  0  0  0  0  0  0  0  0
  -22.1307  -29.5609   23.2114 C   0  0  1  0  0  0  0  0  0  0  0  0
  -19.3505  -28.1268   21.0705 C   0  0  2  0  0  0  0  0  0  0  0  0
  -30.5321  -23.9371   17.1175 C   0  0  0  0  0  0  0  0  0  0  0  0
  -29.0160  -23.5188   17.2796 C   0  0  2  0  0  0  0  0  0  0  0  0
  -21.9155  -29.8114   24.7307 C   0  0  0  0  0  0  0  0  0  0  0  0
  -24.9707  -12.5955   21.2668 N   0  0  0  0  0  0  0  0  0  0  0  0
  -27.8520  -19.3340   17.1912 N   0  0  0  0  0  0  0  0  0  0  0  0
  -25.9591  -13.1463   20.5417 N   0  0  0  0  0  0  0  0  0  0  0  0
  -24.0398  -30.4506   21.9123 N   0  0  0  0  0  0  0  0  0  0  0  0
  -26.0807  -16.9559   20.3047 N   0  0  0  0  0  0  0  0  0  0  0  0
  -27.4707  -12.7111   18.7708 N   0  0  0  0  0  0  0  0  0  0  0  0
  -25.1572   -8.8499   19.1386 N   0  0  0  0  0  0  0  0  0  0  0  0
  -26.8253  -17.3940   18.1101 N   0  0  0  0  0  0  0  0  0  0  0  0
  -28.8710  -21.2358   16.2446 N   0  0  0  0  0  0  0  0  0  0  0  0
  -26.1301  -33.2714   22.5478 N   0  0  0  0  0  0  0  0  0  0  0  0
  -20.9012  -29.3106   22.4670 N   0  0  0  0  0  0  0  0  0  0  0  0
  -19.4330  -27.4007   19.7717 N   0  3  0  0  0  0  0  0  0  0  0  0
  -26.8378   -9.9120   17.9955 O   0  0  0  0  0  0  0  0  0  0  0  0
  -26.2655  -31.0453   23.2178 O   0  0  0  0  0  0  0  0  0  0  0  0
  -28.0089  -23.5595   19.5094 O   0  0  0  0  0  0  0  0  0  0  0  0
  -22.2647  -31.8296   22.5318 O   0  0  0  0  0  0  0  0  0  0  0  0
  -21.5143  -27.2261   21.6570 O   0  0  0  0  0  0  0  0  0  0  0  0
  -27.0067  -19.0053   19.7692 O   0  0  0  0  0  0  0  0  0  0  0  0
  -21.0666   -7.7948   22.7702 O   0  0  0  0  0  0  0  0  0  0  0  0
  -28.0167  -26.1624   19.9160 O   0  0  0  0  0  0  0  0  0  1  0  0
  -22.6701   -2.5984   23.6809 F   0  0  0  0  0  0  0  0  0  0  0  0
  -20.9338   -6.6926   25.3020 F   0  0  0  0  0  0  0  0  0  0  0  0
  1  2  1  0  0  0  0
  1  6  2  0  0  0  0
  2  7  2  0  0  0  0
  3 14  1  0  0  0  0
  3 15  2  0  0  0  0
  4  9  2  0  0  0  0
  4 18  1  0  0  0  0
  5 10  1  0  0  0  0
  5 18  2  0  0  0  0
  6 20  1  0  0  0  0
  7 22  1  0  0  0  0
  8 11  2  0  0  0  0
  8 21  1  0  0  0  0
  9 24  1  0  0  0  0
 10 24  2  0  0  0  0
 11 25  1  0  0  0  0
 12 13  2  0  0  0  0
 12 26  1  0  0  0  0
 13 27  1  0  0  0  0
 14 30  2  0  0  0  0
 15 31  1  0  0  0  0
 16 23  1  0  0  0  0
 16 25  2  0  0  0  0
 17 27  2  0  0  0  0
 17 28  1  0  0  0  0
 18 29  1  0  0  0  0
 19 29  1  0  0  0  0
 19 32  2  0  0  0  0
 19 33  1  0  0  0  0
 20 22  2  0  0  0  0
 20 39  1  0  0  0  0
 21 23  2  0  0  0  0
 21 40  1  0  0  0  0
 22 48  1  0  0  0  0
 23 41  1  0  0  0  0
 24 85  1  0  0  0  0
 25 86  1  0  0  0  0
 26 28  2  0  0  0  0
 26 85  1  0  0  0  0
 27 87  1  0  0  0  0
 28 88  1  0  0  0  0
 29 67  2  0  0  0  0
 30 68  1  0  0  0  0
 30 74  1  0  0  0  0
 31 68  2  0  0  0  0
 31 75  1  0  0  0  0
 32 69  1  0  0  0  0
 32 72  1  0  0  0  0
 33 73  1  0  0  0  0
 33 79  2  0  0  0  0
 34 49  1  0  0  0  0
 34 76  1  0  0  0  0
 34 80  2  0  0  0  0
 35 59  1  0  0  0  0
 35 65  1  0  0  0  0
 35 81  2  0  0  0  0
 36 62  1  0  0  0  0
 36 70  1  0  0  0  0
 36 82  2  0  0  0  0
 37 63  1  0  0  0  0
 37 77  1  0  0  0  0
 37 83  2  0  0  0  0
 38 71  1  0  0  0  0
 38 74  1  0  0  0  0
 38 84  2  0  0  0  0
 39 42  1  0  0  0  0
 40 49  1  0  0  0  0
 41 70  1  0  0  0  0
 42 44  1  0  0  0  0
 43 45  1  0  0  0  0
 43 46  1  0  0  0  0
 44 48  1  0  0  0  0
 45 50  1  0  0  0  0
 46 71  1  0  0  0  0
 47 50  1  0  0  0  0
 47 71  1  0  0  0  0
 48 76  1  0  0  0  0
 49 70  1  0  0  0  0
 50 69  1  0  0  0  0
 51 60  1  0  0  0  0
 52 63  1  0  0  0  0
 53 64  1  0  0  0  0
 54 64  1  0  0  0  0
 55 66  1  0  0  0  0
 56 66  1  0  0  0  0
 57 66  1  0  0  0  0
 58 78  1  0  0  0  0
 59 86  1  0  0  0  0
 60 65  1  0  0  0  0
 61 65  1  0  0  0  0
 61 75  1  0  0  0  0
 62 66  1  0  0  0  0
 62 77  1  0  0  0  0
 63 78  1  0  0  0  0
 64 65  1  0  0  0  0
 67 69  1  0  0  0  0
M  CHG  1  78   1
M  ISO  4  38 100  59 101  74 100  86 101
M  END
> <Batch ID>
0143

> <Smiles>
CCC(CNc1cccc([100NH:0][100C:0](=O)N2CCCC(n3nc(-c4ccc(Oc5ccc(F)cc5F)cc4)c(C(N)=O)c3N)C2)n1)(C(=O)[101CH2:1][101O:1]c1ccc2c(c1)CN(C(=O)C(NC(=O)C(C)NC)C(C)(C)C)C(C(=O)NC1CCCc3ccccc31)C2)C(C)C

> <Shape>
0.310

> <Color>
0.095

> <Negative vol penalty>
0.000

$$$$

  -OEChem-04052303003D

 84 93  0     1  0  0  0  0  0999 V2000
  -25.9594  -38.4418   22.8847 C   0  0  0  0  0  0  0  0  0  0  0  0
  -26.4112  -37.2909   23.5225 C   0  0  0  0  0  0  0  0  0  0  0  0
  -23.0591  -12.6667   23.1540 C   0  0  0  0  0  0  0  0  0  0  0  0
  -24.4605  -10.7194   23.4388 C   0  0  0  0  0  0  0  0  0  0  0  0
  -24.7058  -38.4528   22.2745 C   0  0  0  0  0  0  0  0  0  0  0  0
  -25.6092  -36.1506   23.5514 C   0  0  0  0  0  0  0  0  0  0  0  0
  -27.9237  -29.9178   20.7790 C   0  0  0  0  0  0  0  0  0  0  0  0
  -22.4468  -12.4054   24.3797 C   0  0  0  0  0  0  0  0  0  0  0  0
  -23.8482  -10.4581   24.6646 C   0  0  0  0  0  0  0  0  0  0  0  0
  -28.3762  -28.6375   20.4594 C   0  0  0  0  0  0  0  0  0  0  0  0
  -20.9572   -9.0932   25.7645 C   0  0  0  0  0  0  0  0  0  0  0  0
  -20.5785   -7.7777   26.0323 C   0  0  0  0  0  0  0  0  0  0  0  0
  -30.9256  -19.6296   19.8983 C   0  0  0  0  0  0  0  0  0  0  0  0
  -31.0458  -18.2124   19.8122 C   0  0  0  0  0  0  0  0  0  0  0  0
  -26.2053  -27.7224   21.0053 C   0  0  0  0  0  0  0  0  0  0  0  0
  -22.0250   -7.7553   27.9673 C   0  0  0  0  0  0  0  0  0  0  0  0
  -24.0659  -11.8237   22.6835 C   0  0  0  0  0  0  0  0  0  0  0  0
  -24.0793  -12.1579   20.1545 C   0  0  0  0  0  0  0  0  0  0  0  0
  -23.8920  -37.3090   22.2876 C   0  0  0  0  0  0  0  0  0  0  0  0
  -26.6042  -30.1076   21.1987 C   0  0  0  0  0  0  0  0  0  0  0  0
  -24.3430  -36.1467   22.9420 C   0  0  0  0  0  0  0  0  0  0  0  0
  -25.7428  -29.0043   21.3148 C   0  0  0  0  0  0  0  0  0  0  0  0
  -22.8414  -11.3011   25.1350 C   0  0  0  0  0  0  0  0  0  0  0  0
  -27.5192  -27.5425   20.5725 C   0  0  0  0  0  0  0  0  0  0  0  0
  -21.8699   -9.7397   26.5980 C   0  0  0  0  0  0  0  0  0  0  0  0
  -21.1123   -7.1088   27.1337 C   0  0  0  0  0  0  0  0  0  0  0  0
  -22.4037   -9.0707   27.6995 C   0  0  0  0  0  0  0  0  0  0  0  0
  -24.6984  -12.0928   21.4171 C   0  0  0  0  0  0  0  0  0  0  0  0
  -25.1037  -12.4390   19.2839 C   0  0  0  0  0  0  0  0  0  0  0  0
  -29.6834  -20.0171   20.3503 C   0  0  0  0  0  0  0  0  0  0  0  0
  -29.8907  -17.5707   20.2020 C   0  0  0  0  0  0  0  0  0  0  0  0
  -22.7013  -11.9804   19.8004 C   0  0  0  0  0  0  0  0  0  0  0  0
  -23.9588  -32.5275   22.3040 C   0  0  0  0  0  0  0  0  0  0  0  0
  -22.5944  -30.5029   20.4467 C   0  0  0  0  0  0  0  0  0  0  0  0
  -20.5756  -28.9057   18.2082 C   0  0  0  0  0  0  0  0  0  0  0  0
  -30.4039  -15.1177   19.9452 C   0  0  0  0  0  0  0  0  0  0  0  0
  -22.5248  -37.3835   21.6554 C   0  0  0  0  0  0  0  0  0  0  0  0
  -26.0917  -31.4605   21.6122 C   0  0  0  0  0  0  0  0  0  0  0  0
  -24.3417  -29.2513   21.8035 C   0  0  0  0  0  0  0  0  0  0  0  0
  -21.8932  -36.0162   21.4069 C   0  0  0  0  0  0  0  0  0  0  0  0
  -29.8202  -11.8234   18.7271 C   0  0  0  0  0  0  0  0  0  0  0  0
  -22.0362  -35.1300   22.6402 C   0  0  0  0  0  0  0  0  0  0  0  0
  -28.3821  -11.5269   19.1585 C   0  0  0  0  0  0  0  0  0  0  0  0
  -28.8230  -23.5938   19.6577 C   0  0  0  0  0  0  0  0  0  0  0  0
  -27.8405  -22.8867   21.8528 C   0  0  0  0  0  0  0  0  0  0  0  0
  -30.5691  -12.6441   19.7757 C   0  0  0  0  0  0  0  0  0  0  0  0
  -29.7852  -22.4043   19.7087 C   0  0  0  0  0  0  0  0  0  0  0  0
  -28.8088  -21.7033   21.9000 C   0  0  0  0  0  0  0  0  0  0  0  0
  -28.4562  -13.5824   20.6270 C   0  0  0  0  0  0  0  0  0  0  0  0
  -23.5124  -34.8820   22.9732 C   0  0  1  0  0  0  0  0  0  0  0  0
  -24.6120  -31.6816   21.2509 C   0  0  1  0  0  0  0  0  0  0  0  0
  -27.6418  -12.8133   19.5740 C   0  0  2  0  0  0  0  0  0  0  0  0
  -28.4039  -24.0676   21.0532 C   0  0  0  0  0  0  0  0  0  0  0  0
  -18.1627  -28.3911   17.7496 C   0  0  0  0  0  0  0  0  0  0  0  0
  -22.6356  -28.3781   22.6347 C   0  0  0  0  0  0  0  0  0  0  0  0
  -20.6606  -27.3053   21.5316 C   0  0  0  0  0  0  0  0  0  0  0  0
  -20.4772  -29.6248   22.4312 C   0  0  0  0  0  0  0  0  0  0  0  0
  -20.6384  -30.3492   15.6253 C   0  0  0  0  0  0  0  0  0  0  0  0
  -27.3803  -25.1989   20.9545 C   0  0  0  0  0  0  0  0  0  1  0  0
  -21.8226  -29.2128   20.3307 C   0  0  1  0  0  0  0  0  0  0  0  0
  -19.3132  -29.3519   17.4929 C   0  0  2  0  0  0  0  0  0  0  0  0
  -21.4231  -28.6345   21.7176 C   0  0  0  0  0  0  0  0  0  0  0  0
  -26.0142  -12.3145   21.3583 N   0  0  0  0  0  0  0  0  0  0  0  0
  -26.2303  -12.5215   20.0481 N   0  0  0  0  0  0  0  0  0  0  0  0
  -29.2416  -21.3316   20.5469 N   0  0  0  0  0  0  0  0  0  0  0  0
  -23.7938  -30.4598   21.1679 N   0  0  0  0  0  0  0  0  0  0  0  0
  -29.8102  -13.8493   20.1168 N   0  0  0  0  0  0  0  0  0  0  0  0
  -25.1417  -12.6210   17.9468 N   0  0  0  0  0  0  0  0  0  0  0  0
  -22.2553  -10.6916   19.4769 N   0  0  0  0  0  0  0  0  0  0  0  0
  -29.5756  -16.1910   20.2715 N   0  0  0  0  0  0  0  0  0  0  0  0
  -24.0711  -33.8870   22.0832 N   0  0  0  0  0  0  0  0  0  0  0  0
  -20.6924  -29.4910   19.4512 N   0  0  0  0  0  0  0  0  0  0  0  0
  -19.5479  -29.4219   16.0229 N   0  3  0  0  0  0  0  0  0  0  0  0
  -21.8934  -12.9389   19.7556 O   0  0  0  0  0  0  0  0  0  0  0  0
  -23.3928  -31.9878   23.2474 O   0  0  0  0  0  0  0  0  0  0  0  0
  -22.1455  -31.5238   19.9180 O   0  0  0  0  0  0  0  0  0  0  0  0
  -21.3761  -28.1141   17.7152 O   0  0  0  0  0  0  0  0  0  0  0  0
  -31.5525  -15.2435   19.5128 O   0  0  0  0  0  0  0  0  0  0  0  0
  -29.5617  -24.5788   21.7179 O   0  0  0  0  0  0  0  0  0  0  0  0
  -22.2443  -11.0459   26.3312 O   0  0  0  0  0  0  0  0  0  0  0  0
  -27.9660  -26.2959   20.2546 O   0  0  0  0  0  0  0  0  0  1  0  0
  -20.7474   -5.8461   27.3917 F   0  0  0  0  0  0  0  0  0  0  0  0
  -23.2800   -9.6870   28.5045 F   0  0  0  0  0  0  0  0  0  0  0  0
  -28.6683  -18.6752   20.6688 S   0  0  0  0  0  0  0  0  0  0  0  0
  1  2  1  0  0  0  0
  1  5  2  0  0  0  0
  2  6  2  0  0  0  0
  3  8  2  0  0  0  0
  3 17  1  0  0  0  0
  4  9  1  0  0  0  0
  4 17  2  0  0  0  0
  5 19  1  0  0  0  0
  6 21  1  0  0  0  0
  7 10  2  0  0  0  0
  7 20  1  0  0  0  0
  8 23  1  0  0  0  0
  9 23  2  0  0  0  0
 10 24  1  0  0  0  0
 11 12  2  0  0  0  0
 11 25  1  0  0  0  0
 12 26  1  0  0  0  0
 13 14  1  0  0  0  0
 13 30  2  0  0  0  0
 14 31  2  0  0  0  0
 15 22  1  0  0  0  0
 15 24  2  0  0  0  0
 16 26  2  0  0  0  0
 16 27  1  0  0  0  0
 17 28  1  0  0  0  0
 18 28  1  0  0  0  0
 18 29  2  0  0  0  0
 18 32  1  0  0  0  0
 19 21  2  0  0  0  0
 19 37  1  0  0  0  0
 20 22  2  0  0  0  0
 20 38  1  0  0  0  0
 21 50  1  0  0  0  0
 22 39  1  0  0  0  0
 23 80  1  0  0  0  0
 24 81  1  0  0  0  0
 25 27  2  0  0  0  0
 25 80  1  0  0  0  0
 26 82  1  0  0  0  0
 27 83  1  0  0  0  0
 28 63  2  0  0  0  0
 29 64  1  0  0  0  0
 29 68  1  0  0  0  0
 30 65  1  0  0  0  0
 30 84  1  0  0  0  0
 31 70  1  0  0  0  0
 31 84  1  0  0  0  0
 32 69  1  0  0  0  0
 32 74  2  0  0  0  0
 33 51  1  0  0  0  0
 33 71  1  0  0  0  0
 33 75  2  0  0  0  0
 34 60  1  0  0  0  0
 34 66  1  0  0  0  0
 34 76  2  0  0  0  0
 35 61  1  0  0  0  0
 35 72  1  0  0  0  0
 35 77  2  0  0  0  0
 36 67  1  0  0  0  0
 36 70  1  0  0  0  0
 36 78  2  0  0  0  0
 37 40  1  0  0  0  0
 38 51  1  0  0  0  0
 39 66  1  0  0  0  0
 40 42  1  0  0  0  0
 41 43  1  0  0  0  0
 41 46  1  0  0  0  0
 42 50  1  0  0  0  0
 43 52  1  0  0  0  0
 44 47  1  0  0  0  0
 44 53  1  0  0  0  0
 45 48  1  0  0  0  0
 45 53  1  0  0  0  0
 46 67  1  0  0  0  0
 47 65  1  0  0  0  0
 48 65  1  0  0  0  0
 49 52  1  0  0  0  0
 49 67  1  0  0  0  0
 50 71  1  0  0  0  0
 51 66  1  0  0  0  0
 52 64  1  0  0  0  0
 53 59  1  0  0  0  0
 53 79  1  0  0  0  0
 54 61  1  0  0  0  0
 55 62  1  0  0  0  0
 56 62  1  0  0  0  0
 57 62  1  0  0  0  0
 58 73  1  0  0  0  0
 59 81  1  0  0  0  0
 60 62  1  0  0  0  0
 60 72  1  0  0  0  0
 61 73  1  0  0  0  0
 63 64  1  0  0  0  0
M  CHG  1  73   1
M  ISO  4  36 100  59 101  70 100  81 101
M  END
> <Batch ID>
0143

> <Smiles>
CNC(C)C(=O)NC(C(=O)N1Cc2cc([101O:1][101CH2:1]C3(O)CCN(c4ccc([100NH:0][100C:0](=O)N5CCCC(n6nc(-c7ccc(Oc8ccc(F)cc8F)cc7)c(C(N)=O)c6N)C5)s4)CC3)ccc2CC1C(=O)NC1CCCc2ccccc21)C(C)(C)C

> <Shape>
0.283

> <Color>
0.094

> <Negative vol penalty>
0.000

$$$$

  -OEChem-04052303003D

 88 97  0     1  0  0  0  0  0999 V2000
  -20.6182  -11.5271   20.6021 C   0  0  0  0  0  0  0  0  0  0  0  0
  -20.5730  -12.4369   19.5505 C   0  0  0  0  0  0  0  0  0  0  0  0
  -26.7906  -23.2412   18.6548 C   0  0  0  0  0  0  0  0  0  0  0  0
  -28.4581  -24.4746   19.8939 C   0  0  0  0  0  0  0  0  0  0  0  0
  -20.8349  -11.9779   21.9035 C   0  0  0  0  0  0  0  0  0  0  0  0
  -20.7433  -13.7982   19.8001 C   0  0  0  0  0  0  0  0  0  0  0  0
  -24.2158  -21.4350   20.0721 C   0  0  0  0  0  0  0  0  0  0  0  0
  -27.4028  -22.0433   19.0233 C   0  0  0  0  0  0  0  0  0  0  0  0
  -29.0703  -23.2766   20.2625 C   0  0  0  0  0  0  0  0  0  0  0  0
  -24.3041  -22.4324   21.0422 C   0  0  0  0  0  0  0  0  0  0  0  0
  -30.0935  -20.2283   18.0798 C   0  0  0  0  0  0  0  0  0  0  0  0
  -30.2782  -19.2641   17.0890 C   0  0  0  0  0  0  0  0  0  0  0  0
  -19.4467  -29.3076   22.6718 C   0  0  0  0  0  0  0  0  0  0  0  0
  -24.8889  -20.7699   22.6895 C   0  0  0  0  0  0  0  0  0  0  0  0
  -28.9221  -17.7106   18.3479 C   0  0  0  0  0  0  0  0  0  0  0  0
  -18.1853  -28.8624   23.0005 C   0  0  0  0  0  0  0  0  0  0  0  0
  -27.3183  -24.4569   19.0900 C   0  0  0  0  0  0  0  0  0  0  0  0
  -26.4862  -26.1800   17.4030 C   0  0  0  0  0  0  0  0  0  0  0  0
  -21.0175  -13.3444   22.1678 C   0  0  0  0  0  0  0  0  0  0  0  0
  -24.4532  -20.0940   20.4063 C   0  0  0  0  0  0  0  0  0  0  0  0
  -20.9612  -14.2678   21.1065 C   0  0  0  0  0  0  0  0  0  0  0  0
  -24.8055  -19.7578   21.7212 C   0  0  0  0  0  0  0  0  0  0  0  0
  -20.3681  -28.2330   22.5090 C   0  0  0  0  0  0  0  0  0  0  0  0
  -28.5426  -22.0610   19.8272 C   0  0  0  0  0  0  0  0  0  0  0  0
  -24.6379  -22.0996   22.3518 C   0  0  0  0  0  0  0  0  0  0  0  0
  -29.3232  -19.9337   19.2048 C   0  0  0  0  0  0  0  0  0  0  0  0
  -29.6925  -18.0053   17.2230 C   0  0  0  0  0  0  0  0  0  0  0  0
  -28.7374  -18.6748   19.3388 C   0  0  0  0  0  0  0  0  0  0  0  0
  -26.6867  -25.6946   18.7092 C   0  0  0  0  0  0  0  0  0  0  0  0
  -19.7757  -27.0072   22.7198 C   0  0  0  0  0  0  0  0  0  0  0  0
  -25.8493  -27.3842   17.5783 C   0  0  0  0  0  0  0  0  0  0  0  0
  -26.8436  -25.5946   16.1440 C   0  0  0  0  0  0  0  0  0  0  0  0
  -22.3032  -25.7358   24.3688 C   0  0  0  0  0  0  0  0  0  0  0  0
  -22.7205  -17.4295   20.3572 C   0  0  0  0  0  0  0  0  0  0  0  0
  -25.5392  -16.0448   21.1696 C   0  0  0  0  0  0  0  0  0  0  0  0
  -28.2918  -16.7782   23.3839 C   0  0  0  0  0  0  0  0  0  0  0  0
  -22.4144  -29.5887   21.9425 C   0  0  0  0  0  0  0  0  0  0  0  0
  -21.2017  -13.7890   23.5972 C   0  0  0  0  0  0  0  0  0  0  0  0
  -24.3801  -19.0333   19.3423 C   0  0  0  0  0  0  0  0  0  0  0  0
  -25.0899  -18.3355   22.1270 C   0  0  0  0  0  0  0  0  0  0  0  0
  -21.7461  -15.2092   23.7280 C   0  0  0  0  0  0  0  0  0  0  0  0
  -20.2812  -23.2384   22.4872 C   0  0  0  0  0  0  0  0  0  0  0  0
  -25.4469  -30.9872   20.7074 C   0  0  0  0  0  0  0  0  0  0  0  0
  -20.9917  -16.1576   22.8016 C   0  0  0  0  0  0  0  0  0  0  0  0
  -19.4651  -24.4911   22.1975 C   0  0  0  0  0  0  0  0  0  0  0  0
  -26.0878  -29.8347   19.9308 C   0  0  0  0  0  0  0  0  0  0  0  0
  -21.1413  -23.5680   23.7124 C   0  0  0  0  0  0  0  0  0  0  0  0
  -24.7281  -30.4951   21.9623 C   0  0  0  0  0  0  0  0  0  0  0  0
  -24.3922  -28.2693   20.9612 C   0  0  0  0  0  0  0  0  0  0  0  0
  -21.1662  -15.7499   21.3337 C   0  0  1  0  0  0  0  0  0  0  0  0
  -20.3918  -25.6262   22.6515 C   0  0  2  0  0  0  0  0  0  0  0  0
  -24.1389  -17.6366   19.9067 C   0  0  1  0  0  0  0  0  0  0  0  0
  -25.0728  -28.7082   19.6543 C   0  0  2  0  0  0  0  0  0  0  0  0
  -20.9901  -25.0795   23.9614 C   0  0  2  0  0  0  0  0  0  0  0  0
  -20.0470  -25.2299   25.1570 C   0  0  0  0  0  0  0  0  0  0  0  0
  -30.7066  -16.1064   23.2629 C   0  0  0  0  0  0  0  0  0  0  0  0
  -23.2990  -23.7537   25.5521 C   0  0  0  0  0  0  0  0  0  0  0  0
  -24.7558  -25.6923   24.9741 C   0  0  0  0  0  0  0  0  0  0  0  0
  -24.6837  -13.7256   22.9583 C   0  0  0  0  0  0  0  0  0  0  0  0
  -26.8498  -13.9681   24.1903 C   0  0  0  0  0  0  0  0  0  0  0  0
  -26.8547  -13.3781   21.7665 C   0  0  0  0  0  0  0  0  0  0  0  0
  -29.2018  -19.5903   23.5348 C   0  0  0  0  0  0  0  0  0  0  0  0
  -23.8854  -24.2141   23.1383 C   0  0  0  0  0  0  0  0  0  1  0  0
  -26.2391  -15.7275   22.4690 C   0  0  1  0  0  0  0  0  0  0  0  0
  -29.6924  -17.2043   22.9824 C   0  0  2  0  0  0  0  0  0  0  0  0
  -23.5606  -24.8503   24.5021 C   0  0  0  0  0  0  0  0  0  0  0  0
  -26.1389  -14.2218   22.8438 C   0  0  0  0  0  0  0  0  0  0  0  0
  -26.2155  -26.5230   19.6451 N   0  0  0  0  0  0  0  0  0  0  0  0
  -25.7127  -27.5410   18.9262 N   0  0  0  0  0  0  0  0  0  0  0  0
  -24.9993  -17.3334   21.0521 N   0  0  0  0  0  0  0  0  0  0  0  0
  -23.7797  -29.4320   21.6227 N   0  0  0  0  0  0  0  0  0  0  0  0
  -25.3985  -28.3138   16.7093 N   0  0  0  0  0  0  0  0  0  0  0  0
  -28.1012  -25.8923   15.6017 N   0  0  0  0  0  0  0  0  0  0  0  0
  -21.7350  -28.3927   22.1715 N   0  0  0  0  0  0  0  0  0  0  0  0
  -22.4646  -16.1624   20.8455 N   0  0  0  0  0  0  0  0  0  0  0  0
  -27.6056  -16.2182   22.3271 N   0  0  0  0  0  0  0  0  0  0  0  0
  -30.0990  -18.4236   23.7367 N   0  3  0  0  0  0  0  0  0  0  0  0
  -26.0641  -24.8433   15.5104 O   0  0  0  0  0  0  0  0  0  0  0  0
  -22.3326  -26.9468   24.6010 O   0  0  0  0  0  0  0  0  0  0  0  0
  -21.9181  -18.3516   20.2697 O   0  0  0  0  0  0  0  0  0  0  0  0
  -25.4801  -15.1836   20.2885 O   0  0  0  0  0  0  0  0  0  0  0  0
  -27.8518  -16.9238   24.5222 O   0  0  0  0  0  0  0  0  0  0  0  0
  -21.8805  -30.7002   21.9818 O   0  0  0  0  0  0  0  0  0  0  0  0
  -29.1401  -20.8922   20.1872 O   0  0  0  0  0  0  0  0  0  0  0  0
  -24.7241  -23.0711   23.3008 O   0  0  0  0  0  0  0  0  0  1  0  0
  -29.8687  -17.0800   16.2707 F   0  0  0  0  0  0  0  0  0  0  0  0
  -27.9953  -18.3863   20.4167 F   0  0  0  0  0  0  0  0  0  0  0  0
  -18.1153  -27.1550   23.1118 S   0  0  0  0  0  0  0  0  0  0  0  0
  1  2  1  0  0  0  0
  1  5  2  0  0  0  0
  2  6  2  0  0  0  0
  3  8  2  0  0  0  0
  3 17  1  0  0  0  0
  4  9  1  0  0  0  0
  4 17  2  0  0  0  0
  5 19  1  0  0  0  0
  6 21  1  0  0  0  0
  7 10  2  0  0  0  0
  7 20  1  0  0  0  0
  8 24  1  0  0  0  0
  9 24  2  0  0  0  0
 10 25  1  0  0  0  0
 11 12  2  0  0  0  0
 11 26  1  0  0  0  0
 12 27  1  0  0  0  0
 13 16  2  0  0  0  0
 13 23  1  0  0  0  0
 14 22  1  0  0  0  0
 14 25  2  0  0  0  0
 15 27  2  0  0  0  0
 15 28  1  0  0  0  0
 16 88  1  0  0  0  0
 17 29  1  0  0  0  0
 18 29  1  0  0  0  0
 18 31  2  0  0  0  0
 18 32  1  0  0  0  0
 19 21  2  0  0  0  0
 19 38  1  0  0  0  0
 20 22  2  0  0  0  0
 20 39  1  0  0  0  0
 21 50  1  0  0  0  0
 22 40  1  0  0  0  0
 23 30  2  0  0  0  0
 23 74  1  0  0  0  0
 24 84  1  0  0  0  0
 25 85  1  0  0  0  0
 26 28  2  0  0  0  0
 26 84  1  0  0  0  0
 27 86  1  0  0  0  0
 28 87  1  0  0  0  0
 29 68  2  0  0  0  0
 30 51  1  0  0  0  0
 30 88  1  0  0  0  0
 31 69  1  0  0  0  0
 31 72  1  0  0  0  0
 32 73  1  0  0  0  0
 32 78  2  0  0  0  0
 33 54  1  0  0  0  0
 33 66  1  0  0  0  0
 33 79  2  0  0  0  0
 34 52  1  0  0  0  0
 34 75  1  0  0  0  0
 34 80  2  0  0  0  0
 35 64  1  0  0  0  0
 35 70  1  0  0  0  0
 35 81  2  0  0  0  0
 36 65  1  0  0  0  0
 36 76  1  0  0  0  0
 36 82  2  0  0  0  0
 37 71  1  0  0  0  0
 37 74  1  0  0  0  0
 37 83  2  0  0  0  0
 38 41  1  0  0  0  0
 39 52  1  0  0  0  0
 40 70  1  0  0  0  0
 41 44  1  0  0  0  0
 42 45  1  0  0  0  0
 42 47  1  0  0  0  0
 43 46  1  0  0  0  0
 43 48  1  0  0  0  0
 44 50  1  0  0  0  0
 45 51  1  0  0  0  0
 46 53  1  0  0  0  0
 47 54  1  0  0  0  0
 48 71  1  0  0  0  0
 49 53  1  0  0  0  0
 49 71  1  0  0  0  0
 50 75  1  0  0  0  0
 51 54  1  0  0  0  0
 52 70  1  0  0  0  0
 53 69  1  0  0  0  0
 54 55  1  0  0  0  0
 56 65  1  0  0  0  0
 57 66  1  0  0  0  0
 58 66  1  0  0  0  0
 59 67  1  0  0  0  0
 60 67  1  0  0  0  0
 61 67  1  0  0  0  0
 62 77  1  0  0  0  0
 63 66  1  0  0  0  0
 63 85  1  0  0  0  0
 64 67  1  0  0  0  0
 64 76  1  0  0  0  0
 65 77  1  0  0  0  0
 68 69  1  0  0  0  0
M  CHG  1  77   1
M  ISO  4  37 100  63 101  74 100  85 101
M  END
> <Batch ID>
0143

> <Smiles>
CNC(C)C(=O)NC(C(=O)N1Cc2cc([101O:1][101CH2:1]C(C)(C)C(=O)C3(C)CCCC3c3sccc3[100NH:0][100C:0](=O)N3CCCC(n4nc(-c5ccc(Oc6ccc(F)cc6F)cc5)c(C(N)=O)c4N)C3)ccc2CC1C(=O)NC1CCCc2ccccc21)C(C)(C)C

> <Shape>
0.189

> <Color>
0.067

> <Negative vol penalty>
0.000

$$$$

  -OEChem-04052303003D

 85 93  0     1  0  0  0  0  0999 V2000
  -18.6411  -31.5514   26.1597 C   0  0  0  0  0  0  0  0  0  0  0  0
  -20.0100  -31.3036   26.1419 C   0  0  0  0  0  0  0  0  0  0  0  0
  -22.4746  -10.8240   22.0152 C   0  0  0  0  0  0  0  0  0  0  0  0
  -24.5648  -10.0779   21.0605 C   0  0  0  0  0  0  0  0  0  0  0  0
  -17.8015  -30.8843   25.2687 C   0  0  0  0  0  0  0  0  0  0  0  0
  -20.5398  -30.3878   25.2337 C   0  0  0  0  0  0  0  0  0  0  0  0
  -26.4161  -29.1651   21.3233 C   0  0  0  0  0  0  0  0  0  0  0  0
  -21.9414   -9.5463   21.8465 C   0  0  0  0  0  0  0  0  0  0  0  0
  -24.0316   -8.8000   20.8918 C   0  0  0  0  0  0  0  0  0  0  0  0
  -27.3516  -28.1631   21.0694 C   0  0  0  0  0  0  0  0  0  0  0  0
  -22.1046   -6.5526   23.4099 C   0  0  0  0  0  0  0  0  0  0  0  0
  -21.3866   -6.0043   24.4726 C   0  0  0  0  0  0  0  0  0  0  0  0
  -25.8151  -27.1287   19.5239 C   0  0  0  0  0  0  0  0  0  0  0  0
  -19.4303   -5.8375   23.0647 C   0  0  0  0  0  0  0  0  0  0  0  0
  -31.3410  -19.3977   21.2446 C   0  0  0  0  0  0  0  0  0  0  0  0
  -23.7863  -11.0899   21.6222 C   0  0  0  0  0  0  0  0  0  0  0  0
  -25.0270  -12.9021   22.9200 C   0  0  0  0  0  0  0  0  0  0  0  0
  -18.3225  -29.9670   24.3426 C   0  0  0  0  0  0  0  0  0  0  0  0
  -25.1668  -29.1504   20.6867 C   0  0  0  0  0  0  0  0  0  0  0  0
  -19.7061  -29.7068   24.3303 C   0  0  0  0  0  0  0  0  0  0  0  0
  -24.8665  -28.1331   19.7696 C   0  0  0  0  0  0  0  0  0  0  0  0
  -22.7198   -8.5342   21.2848 C   0  0  0  0  0  0  0  0  0  0  0  0
  -27.0501  -27.1430   20.1717 C   0  0  0  0  0  0  0  0  0  0  0  0
  -21.4855   -6.7434   22.1746 C   0  0  0  0  0  0  0  0  0  0  0  0
  -20.0494   -5.6467   24.3000 C   0  0  0  0  0  0  0  0  0  0  0  0
  -20.1483   -6.3859   22.0020 C   0  0  0  0  0  0  0  0  0  0  0  0
  -24.3375  -12.4098   21.7957 C   0  0  0  0  0  0  0  0  0  0  0  0
  -30.7778  -20.2149   20.2869 C   0  0  0  0  0  0  0  0  0  0  0  0
  -25.3401  -14.1982   22.5904 C   0  0  0  0  0  0  0  0  0  0  0  0
  -29.3244  -18.5740   20.2164 C   0  0  0  0  0  0  0  0  0  0  0  0
  -31.3215  -21.5179   19.8710 C   0  0  0  0  0  0  0  0  0  0  0  0
  -30.7867  -22.3091   18.9277 C   0  0  0  0  0  0  0  0  0  0  0  0
  -25.3552  -12.2464   24.1521 C   0  0  0  0  0  0  0  0  0  0  0  0
  -22.1511  -28.9383   21.6686 C   0  0  0  0  0  0  0  0  0  0  0  0
  -21.5026  -29.4704   18.5352 C   0  0  0  0  0  0  0  0  0  0  0  0
  -22.5502  -29.3068   15.2913 C   0  0  0  0  0  0  0  0  0  0  0  0
  -27.2186  -17.9844   18.9656 C   0  0  0  0  0  0  0  0  0  0  0  0
  -17.3695  -29.2351   23.4311 C   0  0  0  0  0  0  0  0  0  0  0  0
  -24.1789  -30.2534   20.9513 C   0  0  0  0  0  0  0  0  0  0  0  0
  -23.5473  -28.0830   19.0446 C   0  0  0  0  0  0  0  0  0  0  0  0
  -18.0570  -28.5584   22.2480 C   0  0  0  0  0  0  0  0  0  0  0  0
  -23.7811  -17.0854   18.7362 C   0  0  0  0  0  0  0  0  0  0  0  0
  -19.2915  -27.7932   22.7142 C   0  0  0  0  0  0  0  0  0  0  0  0
  -23.6761  -15.8294   19.6042 C   0  0  0  0  0  0  0  0  0  0  0  0
  -25.1034  -17.1385   17.9730 C   0  0  0  0  0  0  0  0  0  0  0  0
  -26.2006  -15.7299   19.6704 C   0  0  0  0  0  0  0  0  0  0  0  0
  -20.3217  -28.7388   23.3433 C   0  0  1  0  0  0  0  0  0  0  0  0
  -22.7404  -29.8557   20.6349 C   0  0  1  0  0  0  0  0  0  0  0  0
  -24.9133  -15.6642   20.5085 C   0  0  2  0  0  0  0  0  0  0  0  0
  -21.7856  -29.7783   12.9481 C   0  0  0  0  0  0  0  0  0  0  0  0
  -19.7806  -26.9522   18.5929 C   0  0  0  0  0  0  0  0  0  0  0  0
  -19.8306  -26.9446   16.0898 C   0  0  0  0  0  0  0  0  0  0  0  0
  -18.7967  -28.8596   17.3091 C   0  0  0  0  0  0  0  0  0  0  0  0
  -29.8875  -27.5608   20.2428 C   0  0  0  0  0  0  0  0  0  0  0  0
  -28.8973  -26.2237   22.1180 C   0  0  0  0  0  0  0  0  0  0  0  0
  -24.7136  -31.2795   14.8585 C   0  0  0  0  0  0  0  0  0  0  0  0
  -31.3796  -23.6324   18.5230 C   0  0  0  0  0  0  0  0  0  0  0  0
  -30.0636  -25.0063   20.2552 C   0  0  0  0  0  0  0  0  0  0  0  0
  -21.3111  -28.5960   17.3196 C   0  0  1  0  0  0  0  0  0  0  0  0
  -22.5107  -30.3265   14.1674 C   0  0  2  0  0  0  0  0  0  0  0  0
  -30.4826  -24.8572   18.7799 C   0  0  2  0  0  0  0  0  0  0  0  0
  -19.9540  -27.8377   17.3428 C   0  0  0  0  0  0  0  0  0  0  0  0
  -29.2060  -26.2425   20.6157 C   0  0  0  0  0  0  0  0  0  1  0  0
  -24.2191  -13.3191   20.8245 N   0  0  0  0  0  0  0  0  0  0  0  0
  -29.6216  -19.7440   19.6959 N   0  0  0  0  0  0  0  0  0  0  0  0
  -24.8384  -14.3958   21.3377 N   0  0  0  0  0  0  0  0  0  0  0  0
  -22.6121  -29.1805   19.3419 N   0  0  0  0  0  0  0  0  0  0  0  0
  -26.2305  -16.9797   18.8945 N   0  0  0  0  0  0  0  0  0  0  0  0
  -25.9928  -15.1766   23.2529 N   0  0  0  0  0  0  0  0  0  0  0  0
  -24.9580  -10.9136   24.3261 N   0  0  0  0  0  0  0  0  0  0  0  0
  -28.2239  -17.7392   19.9005 N   0  0  0  0  0  0  0  0  0  0  0  0
  -21.0443  -29.4556   22.3144 N   0  0  0  0  0  0  0  0  0  0  0  0
  -21.4912  -29.4633   16.1604 N   0  0  0  0  0  0  0  0  0  0  0  0
  -29.2776  -24.7721   17.9089 N   0  3  0  0  0  0  0  0  0  0  0  0
  -23.8941  -30.7037   13.7613 N   0  3  0  0  0  0  0  0  0  0  0  0
  -25.9676  -12.8303   25.0780 O   0  0  0  0  0  0  0  0  0  0  0  0
  -22.6617  -27.8417   21.8648 O   0  0  0  0  0  0  0  0  0  0  0  0
  -20.7014  -30.3818   18.7568 O   0  0  0  0  0  0  0  0  0  0  0  0
  -23.4303  -28.4543   15.3866 O   0  0  0  0  0  0  0  0  0  0  0  0
  -27.1615  -19.0012   18.2693 O   0  0  0  0  0  0  0  0  0  0  0  0
  -22.1999   -7.2872   21.1202 O   0  0  0  0  0  0  0  0  0  0  0  0
  -27.9612  -26.1634   19.9225 O   0  0  0  0  0  0  0  0  0  1  0  0
  -19.3604   -5.1188   25.3202 F   0  0  0  0  0  0  0  0  0  0  0  0
  -19.5484   -6.5658   20.8172 F   0  0  0  0  0  0  0  0  0  0  0  0
  -30.3917  -17.9804   21.4219 S   0  0  0  0  0  0  0  0  0  0  0  0
  1  2  1  0  0  0  0
  1  5  2  0  0  0  0
  2  6  2  0  0  0  0
  3  8  2  0  0  0  0
  3 16  1  0  0  0  0
  4  9  1  0  0  0  0
  4 16  2  0  0  0  0
  5 18  1  0  0  0  0
  6 20  1  0  0  0  0
  7 10  2  0  0  0  0
  7 19  1  0  0  0  0
  8 22  1  0  0  0  0
  9 22  2  0  0  0  0
 10 23  1  0  0  0  0
 11 12  2  0  0  0  0
 11 24  1  0  0  0  0
 12 25  1  0  0  0  0
 13 21  1  0  0  0  0
 13 23  2  0  0  0  0
 14 25  2  0  0  0  0
 14 26  1  0  0  0  0
 15 28  2  0  0  0  0
 15 85  1  0  0  0  0
 16 27  1  0  0  0  0
 17 27  1  0  0  0  0
 17 29  2  0  0  0  0
 17 33  1  0  0  0  0
 18 20  2  0  0  0  0
 18 38  1  0  0  0  0
 19 21  2  0  0  0  0
 19 39  1  0  0  0  0
 20 47  1  0  0  0  0
 21 40  1  0  0  0  0
 22 81  1  0  0  0  0
 23 82  1  0  0  0  0
 24 26  2  0  0  0  0
 24 81  1  0  0  0  0
 25 83  1  0  0  0  0
 26 84  1  0  0  0  0
 27 64  2  0  0  0  0
 28 31  1  0  0  0  0
 28 65  1  0  0  0  0
 29 66  1  0  0  0  0
 29 69  1  0  0  0  0
 30 65  2  0  0  0  0
 30 71  1  0  0  0  0
 30 85  1  0  0  0  0
 31 32  2  0  0  0  0
 32 57  1  0  0  0  0
 33 70  1  0  0  0  0
 33 76  2  0  0  0  0
 34 48  1  0  0  0  0
 34 72  1  0  0  0  0
 34 77  2  0  0  0  0
 35 59  1  0  0  0  0
 35 67  1  0  0  0  0
 35 78  2  0  0  0  0
 36 60  1  0  0  0  0
 36 73  1  0  0  0  0
 36 79  2  0  0  0  0
 37 68  1  0  0  0  0
 37 71  1  0  0  0  0
 37 80  2  0  0  0  0
 38 41  1  0  0  0  0
 39 48  1  0  0  0  0
 40 67  1  0  0  0  0
 41 43  1  0  0  0  0
 42 44  1  0  0  0  0
 42 45  1  0  0  0  0
 43 47  1  0  0  0  0
 44 49  1  0  0  0  0
 45 68  1  0  0  0  0
 46 49  1  0  0  0  0
 46 68  1  0  0  0  0
 47 72  1  0  0  0  0
 48 67  1  0  0  0  0
 49 66  1  0  0  0  0
 50 60  1  0  0  0  0
 51 62  1  0  0  0  0
 52 62  1  0  0  0  0
 53 62  1  0  0  0  0
 54 63  1  0  0  0  0
 55 63  1  0  0  0  0
 56 75  1  0  0  0  0
 57 61  1  0  0  0  0
 58 61  1  0  0  0  0
 58 63  1  0  0  0  0
 59 62  1  0  0  0  0
 59 73  1  0  0  0  0
 60 75  1  0  0  0  0
 61 74  1  0  0  0  0
 63 82  1  0  0  0  0
 64 66  1  0  0  0  0
M  CHG  2  74   1  75   1
M  ISO  4  37 100  63 101  71 100  82 101
M  END
> <Batch ID>
0143

> <Smiles>
CNC(C)C(=O)NC(C(=O)N1Cc2cc([101O:1][101C:1](C)(C)CC(N)CC=Cc3csc([100NH:0][100C:0](=O)N4CCCC(n5nc(-c6ccc(Oc7ccc(F)cc7F)cc6)c(C(N)=O)c5N)C4)n3)ccc2CC1C(=O)NC1CCCc2ccccc21)C(C)(C)C

> <Shape>
0.276

> <Color>
0.092

> <Negative vol penalty>
0.000

$$$$

  -OEChem-04052303003D

 89 98  0     1  0  0  0  0  0999 V2000
  -16.7939  -29.5716   23.2065 C   0  0  0  0  0  0  0  0  0  0  0  0
  -17.4009  -28.7099   22.2984 C   0  0  0  0  0  0  0  0  0  0  0  0
  -23.1229   -9.8190   19.9893 C   0  0  0  0  0  0  0  0  0  0  0  0
  -23.7787   -9.9808   22.3089 C   0  0  0  0  0  0  0  0  0  0  0  0
  -17.4359  -29.8857   24.4037 C   0  0  0  0  0  0  0  0  0  0  0  0
  -18.6507  -28.1627   22.5865 C   0  0  0  0  0  0  0  0  0  0  0  0
  -31.1891  -19.1955   20.4565 C   0  0  0  0  0  0  0  0  0  0  0  0
  -22.5230  -22.2280   21.5374 C   0  0  0  0  0  0  0  0  0  0  0  0
  -31.0396  -17.8125   20.5143 C   0  0  0  0  0  0  0  0  0  0  0  0
  -22.3856   -8.6707   20.2778 C   0  0  0  0  0  0  0  0  0  0  0  0
  -23.0414   -8.8324   22.5975 C   0  0  0  0  0  0  0  0  0  0  0  0
  -23.7715  -21.8261   21.0647 C   0  0  0  0  0  0  0  0  0  0  0  0
  -19.8015   -8.0170   23.1061 C   0  0  0  0  0  0  0  0  0  0  0  0
  -18.9933   -8.0362   24.2428 C   0  0  0  0  0  0  0  0  0  0  0  0
  -29.3333  -18.0841   22.1960 C   0  0  0  0  0  0  0  0  0  0  0  0
  -24.7506  -22.3776   23.1992 C   0  0  0  0  0  0  0  0  0  0  0  0
  -20.2288   -6.1699   25.1526 C   0  0  0  0  0  0  0  0  0  0  0  0
  -23.8195  -10.4741   21.0049 C   0  0  0  0  0  0  0  0  0  0  0  0
  -24.1292  -12.9926   20.7426 C   0  0  0  0  0  0  0  0  0  0  0  0
  -18.6898  -29.3345   24.7109 C   0  0  0  0  0  0  0  0  0  0  0  0
  -30.4173  -20.0405   21.2739 C   0  0  0  0  0  0  0  0  0  0  0  0
  -22.3806  -22.7188   22.8433 C   0  0  0  0  0  0  0  0  0  0  0  0
  -19.3106  -28.4708   23.7883 C   0  0  0  0  0  0  0  0  0  0  0  0
  -29.4548  -19.4871   22.1455 C   0  0  0  0  0  0  0  0  0  0  0  0
  -23.4987  -22.7827   23.6870 C   0  0  0  0  0  0  0  0  0  0  0  0
  -30.1145  -17.2565   21.3879 C   0  0  0  0  0  0  0  0  0  0  0  0
  -22.3448   -8.1774   21.5819 C   0  0  0  0  0  0  0  0  0  0  0  0
  -24.8860  -21.9036   21.8946 C   0  0  0  0  0  0  0  0  0  0  0  0
  -20.8233   -7.0742   22.9926 C   0  0  0  0  0  0  0  0  0  0  0  0
  -19.2070   -7.1126   25.2661 C   0  0  0  0  0  0  0  0  0  0  0  0
  -21.0369   -6.1507   24.0159 C   0  0  0  0  0  0  0  0  0  0  0  0
  -24.5818  -11.6601   20.7073 C   0  0  0  0  0  0  0  0  0  0  0  0
  -25.2254  -13.7372   20.3816 C   0  0  0  0  0  0  0  0  0  0  0  0
  -22.8337  -13.5110   21.0722 C   0  0  0  0  0  0  0  0  0  0  0  0
  -21.4623  -25.4845   24.1125 C   0  0  0  0  0  0  0  0  0  0  0  0
  -21.7135  -23.8430   26.8990 C   0  0  0  0  0  0  0  0  0  0  0  0
  -23.0987  -21.2359   28.6109 C   0  0  0  0  0  0  0  0  0  0  0  0
  -30.6622  -14.8870   20.7308 C   0  0  0  0  0  0  0  0  0  0  0  0
  -19.3661  -29.7407   25.9964 C   0  0  0  0  0  0  0  0  0  0  0  0
  -30.6228  -21.5281   21.1397 C   0  0  0  0  0  0  0  0  0  0  0  0
  -21.0222  -23.1231   23.3469 C   0  0  0  0  0  0  0  0  0  0  0  0
  -23.3955  -23.2831   25.1038 C   0  0  0  0  0  0  0  0  0  0  0  0
  -20.5203  -28.8240   26.3934 C   0  0  0  0  0  0  0  0  0  0  0  0
  -30.0790  -22.3170   22.3220 C   0  0  0  0  0  0  0  0  0  0  0  0
  -29.6911  -12.3126   18.4711 C   0  0  0  0  0  0  0  0  0  0  0  0
  -21.4230  -28.5522   25.1943 C   0  0  0  0  0  0  0  0  0  0  0  0
  -28.2380  -12.0229   18.8544 C   0  0  0  0  0  0  0  0  0  0  0  0
  -28.6603  -21.8637   22.6338 C   0  0  0  0  0  0  0  0  0  0  0  0
  -30.5478  -12.6310   19.6952 C   0  0  0  0  0  0  0  0  0  0  0  0
  -28.5702  -13.4059   20.9434 C   0  0  0  0  0  0  0  0  0  0  0  0
  -20.6546  -27.8377   24.0760 C   0  0  1  0  0  0  0  0  0  0  0  0
  -21.0853  -24.0899   24.5254 C   0  0  1  0  0  0  0  0  0  0  0  0
  -27.6540  -13.1433   19.7371 C   0  0  2  0  0  0  0  0  0  0  0  0
  -28.5950  -20.3726   23.0564 C   0  0  1  0  0  0  0  0  0  0  0  0
  -23.1426  -20.1730   30.8838 C   0  0  0  0  0  0  0  0  0  0  0  0
  -30.5989  -19.9196   24.4937 C   0  0  0  0  0  0  0  0  0  0  0  0
  -28.3424  -19.0738   25.1859 C   0  0  0  0  0  0  0  0  0  0  0  0
  -28.8395  -21.5299   25.2670 C   0  0  0  0  0  0  0  0  0  0  0  0
  -23.5326  -26.0763   27.9056 C   0  0  0  0  0  0  0  0  0  0  0  0
  -24.2852  -24.5433   29.7364 C   0  0  0  0  0  0  0  0  0  0  0  0
  -21.8910  -25.2286   29.5910 C   0  0  0  0  0  0  0  0  0  0  0  0
  -27.3857  -19.7310   20.4859 C   0  0  0  0  0  0  0  0  0  0  0  0
  -25.1687  -19.3136   21.5711 C   0  0  0  0  0  0  0  0  0  0  0  0
  -22.0099  -18.6889   27.5686 C   0  0  0  0  0  0  0  0  0  0  0  0
  -27.1057  -19.9612   23.0095 C   0  0  0  0  0  0  0  0  0  0  0  0
  -22.8178  -23.5954   27.8981 C   0  0  1  0  0  0  0  0  0  0  0  0
  -22.4823  -20.1827   29.5139 C   0  0  2  0  0  0  0  0  0  0  0  0
  -29.0969  -20.2231   24.5092 C   0  0  0  0  0  0  0  0  0  0  0  0
  -23.1343  -24.8532   28.7555 C   0  0  0  0  0  0  0  0  0  0  0  0
  -26.4583  -20.1387   21.6316 C   0  0  0  0  0  0  0  0  0  1  0  0
  -25.8654  -11.5607   20.3519 N   0  0  0  0  0  0  0  0  0  0  0  0
  -26.2288  -12.8403   20.1604 N   0  0  0  0  0  0  0  0  0  0  0  0
  -22.0470  -23.6727   25.5479 N   0  0  0  0  0  0  0  0  0  0  0  0
  -29.9348  -13.7041   20.4811 N   0  0  0  0  0  0  0  0  0  0  0  0
  -25.4193  -15.0651   20.2349 N   0  0  0  0  0  0  0  0  0  0  0  0
  -21.8211  -12.6068   21.4208 N   0  0  0  0  0  0  0  0  0  0  0  0
  -29.9652  -15.8493   21.4606 N   0  0  0  0  0  0  0  0  0  0  0  0
  -20.4966  -26.4335   24.3887 N   0  0  0  0  0  0  0  0  0  0  0  0
  -22.4113  -22.4294   28.6751 N   0  0  0  0  0  0  0  0  0  0  0  0
  -22.6340  -18.8290   28.9094 N   0  3  0  0  0  0  0  0  0  0  0  0
  -22.5770  -14.7385   21.0422 O   0  0  0  0  0  0  0  0  0  0  0  0
  -22.5495  -25.6851   23.5838 O   0  0  0  0  0  0  0  0  0  0  0  0
  -20.5943  -24.1684   27.3029 O   0  0  0  0  0  0  0  0  0  0  0  0
  -24.0930  -21.0223   27.9207 O   0  0  0  0  0  0  0  0  0  0  0  0
  -31.8086  -15.0463   20.3037 O   0  0  0  0  0  0  0  0  0  0  0  0
  -21.6252   -7.0570   21.8638 O   0  0  0  0  0  0  0  0  0  0  0  0
  -26.1117  -21.5108   21.4333 O   0  0  0  0  0  0  0  0  0  1  0  0
  -18.4318   -7.1322   26.3583 F   0  0  0  0  0  0  0  0  0  0  0  0
  -22.0177   -5.2433   23.9130 F   0  0  0  0  0  0  0  0  0  0  0  0
  1  2  1  0  0  0  0
  1  5  2  0  0  0  0
  2  6  2  0  0  0  0
  3 10  2  0  0  0  0
  3 18  1  0  0  0  0
  4 11  1  0  0  0  0
  4 18  2  0  0  0  0
  5 20  1  0  0  0  0
  6 23  1  0  0  0  0
  7  9  2  0  0  0  0
  7 21  1  0  0  0  0
  8 12  2  0  0  0  0
  8 22  1  0  0  0  0
  9 26  1  0  0  0  0
 10 27  1  0  0  0  0
 11 27  2  0  0  0  0
 12 28  1  0  0  0  0
 13 14  2  0  0  0  0
 13 29  1  0  0  0  0
 14 30  1  0  0  0  0
 15 24  1  0  0  0  0
 15 26  2  0  0  0  0
 16 25  1  0  0  0  0
 16 28  2  0  0  0  0
 17 30  2  0  0  0  0
 17 31  1  0  0  0  0
 18 32  1  0  0  0  0
 19 32  1  0  0  0  0
 19 33  2  0  0  0  0
 19 34  1  0  0  0  0
 20 23  2  0  0  0  0
 20 39  1  0  0  0  0
 21 24  2  0  0  0  0
 21 40  1  0  0  0  0
 22 25  2  0  0  0  0
 22 41  1  0  0  0  0
 23 51  1  0  0  0  0
 24 54  1  0  0  0  0
 25 42  1  0  0  0  0
 26 77  1  0  0  0  0
 27 86  1  0  0  0  0
 28 87  1  0  0  0  0
 29 31  2  0  0  0  0
 29 86  1  0  0  0  0
 30 88  1  0  0  0  0
 31 89  1  0  0  0  0
 32 71  2  0  0  0  0
 33 72  1  0  0  0  0
 33 75  1  0  0  0  0
 34 76  1  0  0  0  0
 34 81  2  0  0  0  0
 35 52  1  0  0  0  0
 35 78  1  0  0  0  0
 35 82  2  0  0  0  0
 36 66  1  0  0  0  0
 36 73  1  0  0  0  0
 36 83  2  0  0  0  0
 37 67  1  0  0  0  0
 37 79  1  0  0  0  0
 37 84  2  0  0  0  0
 38 74  1  0  0  0  0
 38 77  1  0  0  0  0
 38 85  2  0  0  0  0
 39 43  1  0  0  0  0
 40 44  1  0  0  0  0
 41 52  1  0  0  0  0
 42 73  1  0  0  0  0
 43 46  1  0  0  0  0
 44 48  1  0  0  0  0
 45 47  1  0  0  0  0
 45 49  1  0  0  0  0
 46 51  1  0  0  0  0
 47 53  1  0  0  0  0
 48 54  1  0  0  0  0
 49 74  1  0  0  0  0
 50 53  1  0  0  0  0
 50 74  1  0  0  0  0
 51 78  1  0  0  0  0
 52 73  1  0  0  0  0
 53 72  1  0  0  0  0
 54 65  1  0  0  0  0
 54 68  1  0  0  0  0
 55 67  1  0  0  0  0
 56 68  1  0  0  0  0
 57 68  1  0  0  0  0
 58 68  1  0  0  0  0
 59 69  1  0  0  0  0
 60 69  1  0  0  0  0
 61 69  1  0  0  0  0
 62 70  1  0  0  0  0
 63 70  1  0  0  0  0
 64 80  1  0  0  0  0
 65 70  1  0  0  0  0
 66 69  1  0  0  0  0
 66 79  1  0  0  0  0
 67 80  1  0  0  0  0
 70 87  1  0  0  0  0
 71 72  1  0  0  0  0
M  CHG  1  80   1
M  ISO  4  38 100  70 101  77 100  87 101
M  END
> <Batch ID>
0143

> <Smiles>
CNC(C)C(=O)NC(C(=O)N1Cc2cc([101O:1][101C:1](C)(C)CC3(C(C)(C)C)CCCc4ccc([100NH:0][100C:0](=O)N5CCCC(n6nc(-c7ccc(Oc8ccc(F)cc8F)cc7)c(C(N)=O)c6N)C5)cc43)ccc2CC1C(=O)NC1CCCc2ccccc21)C(C)(C)C

> <Shape>
0.232

> <Color>
0.205

> <Negative vol penalty>
0.000

$$$$

  -OEChem-04052303003D

 94103  0     1  0  0  0  0  0999 V2000
  -20.2934  -33.0757   18.6564 C   0  0  0  0  0  0  0  0  0  0  0  0
  -21.6140  -32.7174   18.9073 C   0  0  0  0  0  0  0  0  0  0  0  0
  -22.7537  -15.7800   22.3805 C   0  0  0  0  0  0  0  0  0  0  0  0
  -21.9012  -15.2661   20.1790 C   0  0  0  0  0  0  0  0  0  0  0  0
  -31.0331  -22.6466   20.7761 C   0  0  0  0  0  0  0  0  0  0  0  0
  -19.2970  -32.7487   19.5752 C   0  0  0  0  0  0  0  0  0  0  0  0
  -21.9392  -32.0328   20.0778 C   0  0  0  0  0  0  0  0  0  0  0  0
  -25.1023  -28.1654   19.2513 C   0  0  0  0  0  0  0  0  0  0  0  0
  -31.0228  -23.9868   20.3898 C   0  0  0  0  0  0  0  0  0  0  0  0
  -21.6076  -16.5280   22.6497 C   0  0  0  0  0  0  0  0  0  0  0  0
  -20.7550  -16.0141   20.4483 C   0  0  0  0  0  0  0  0  0  0  0  0
  -26.4494  -28.4731   19.0656 C   0  0  0  0  0  0  0  0  0  0  0  0
  -20.4068  -19.5991   21.9077 C   0  0  0  0  0  0  0  0  0  0  0  0
  -20.5743  -20.8461   22.5098 C   0  0  0  0  0  0  0  0  0  0  0  0
  -26.8974  -27.8674   21.3573 C   0  0  0  0  0  0  0  0  0  0  0  0
  -29.1972  -18.7953   23.6933 C   0  0  0  0  0  0  0  0  0  0  0  0
  -29.6058  -16.4166   23.8025 C   0  0  0  0  0  0  0  0  0  0  0  0
  -29.6465  -23.4270   18.4846 C   0  0  0  0  0  0  0  0  0  0  0  0
  -30.2548  -17.6649   21.8384 C   0  0  0  0  0  0  0  0  0  0  0  0
  -19.2369  -20.1198   24.3862 C   0  0  0  0  0  0  0  0  0  0  0  0
  -22.9005  -15.1491   21.1451 C   0  0  0  0  0  0  0  0  0  0  0  0
  -30.3503  -21.6965   20.0166 C   0  0  0  0  0  0  0  0  0  0  0  0
  -24.2812  -13.0043   21.1101 C   0  0  0  0  0  0  0  0  0  0  0  0
  -19.6087  -32.0512   20.7530 C   0  0  0  0  0  0  0  0  0  0  0  0
  -24.6400  -27.7160   20.4966 C   0  0  0  0  0  0  0  0  0  0  0  0
  -20.9463  -31.6973   21.0138 C   0  0  0  0  0  0  0  0  0  0  0  0
  -25.5445  -27.5522   21.5555 C   0  0  0  0  0  0  0  0  0  0  0  0
  -29.1171  -17.5863   24.3844 C   0  0  0  0  0  0  0  0  0  0  0  0
  -29.6569  -22.0868   18.8709 C   0  0  0  0  0  0  0  0  0  0  0  0
  -30.3295  -24.3771   19.2441 C   0  0  0  0  0  0  0  0  0  0  0  0
  -29.7660  -18.8346   22.4203 C   0  0  0  0  0  0  0  0  0  0  0  0
  -30.1747  -16.4559   22.5294 C   0  0  0  0  0  0  0  0  0  0  0  0
  -20.6082  -16.6450   21.6836 C   0  0  0  0  0  0  0  0  0  0  0  0
  -27.3466  -28.3269   20.1195 C   0  0  0  0  0  0  0  0  0  0  0  0
  -19.6543  -18.6124   22.5448 C   0  0  0  0  0  0  0  0  0  0  0  0
  -19.9894  -21.1064   23.7491 C   0  0  0  0  0  0  0  0  0  0  0  0
  -19.0694  -18.8727   23.7841 C   0  0  0  0  0  0  0  0  0  0  0  0
  -24.0845  -14.3767   20.8661 C   0  0  0  0  0  0  0  0  0  0  0  0
  -25.5593  -12.7574   20.6719 C   0  0  0  0  0  0  0  0  0  0  0  0
  -30.3783  -20.3037   20.4428 C   0  0  0  0  0  0  0  0  0  0  0  0
  -23.3884  -12.0389   21.6817 C   0  0  0  0  0  0  0  0  0  0  0  0
  -22.5659  -28.8046   22.6453 C   0  0  0  0  0  0  0  0  0  0  0  0
  -23.1589  -25.9589   24.0851 C   0  0  0  0  0  0  0  0  0  0  0  0
  -30.9422  -26.8078   19.4887 C   0  0  0  0  0  0  0  0  0  0  0  0
  -25.2830  -23.3255   24.5328 C   0  0  0  0  0  0  0  0  0  0  0  0
  -30.6749  -15.0676   20.5260 C   0  0  0  0  0  0  0  0  0  0  0  0
  -18.5047  -31.7614   21.7388 C   0  0  0  0  0  0  0  0  0  0  0  0
  -23.1886  -27.3629   20.6731 C   0  0  0  0  0  0  0  0  0  0  0  0
  -25.1023  -27.0539   22.9063 C   0  0  0  0  0  0  0  0  0  0  0  0
  -18.8766  -30.7055   22.7767 C   0  0  0  0  0  0  0  0  0  0  0  0
  -28.6864  -14.9966   17.5792 C   0  0  0  0  0  0  0  0  0  0  0  0
  -20.2604  -30.9877   23.3530 C   0  0  0  0  0  0  0  0  0  0  0  0
  -27.3015  -14.7023   18.1547 C   0  0  0  0  0  0  0  0  0  0  0  0
  -29.4800  -15.9606   18.4618 C   0  0  0  0  0  0  0  0  0  0  0  0
  -28.1986  -15.2389   20.4522 C   0  0  0  0  0  0  0  0  0  0  0  0
  -21.3349  -30.9324   22.2604 C   0  0  1  0  0  0  0  0  0  0  0  0
  -22.7365  -27.4037   22.1296 C   0  0  1  0  0  0  0  0  0  0  0  0
  -27.4000  -14.2275   19.6152 C   0  0  1  0  0  0  0  0  0  0  0  0
  -28.5075  -17.5445   25.7451 C   0  0  0  0  0  0  0  0  0  0  0  0
  -28.9185  -21.0894   18.0390 C   0  0  0  0  0  0  0  0  0  0  0  0
  -25.5098  -21.1709   25.7990 C   0  0  0  0  0  0  0  0  0  0  0  0
  -23.8182  -27.5217   26.6215 C   0  0  0  0  0  0  0  0  0  0  0  0
  -24.9245  -25.4628   27.5189 C   0  0  0  0  0  0  0  0  0  0  0  0
  -22.4855  -25.4389   26.9961 C   0  0  0  0  0  0  0  0  0  0  0  0
  -31.4208  -14.3000   22.7688 C   0  0  0  0  0  0  0  0  0  0  0  0
  -25.4180  -21.7390   22.0380 C   0  0  0  0  0  0  0  0  0  0  0  0
  -30.6768  -28.1048   18.7328 C   0  0  0  0  0  0  0  0  0  0  0  0
  -29.1977  -28.4453   18.6311 C   0  0  0  0  0  0  0  0  0  1  0  0
  -24.1590  -25.4628   25.1013 C   0  0  1  0  0  0  0  0  0  0  0  0
  -25.0479  -21.8260   24.5067 C   0  0  2  0  0  0  0  0  0  0  0  0
  -23.8551  -25.9828   26.5347 C   0  0  0  0  0  0  0  0  0  0  0  0
  -25.1521  -14.9608   20.3158 N   0  0  0  0  0  0  0  0  0  0  0  0
  -26.0321  -13.9505   20.2104 N   0  0  0  0  0  0  0  0  0  0  0  0
  -23.6721  -26.7279   23.0309 N   0  0  0  0  0  0  0  0  0  0  0  0
  -29.5121  -15.4871   19.8528 N   0  0  0  0  0  0  0  0  0  0  0  0
  -26.3136  -11.6382   20.6402 N   0  0  0  0  0  0  0  0  0  0  0  0
  -22.1122  -12.4614   22.0780 N   0  0  0  0  0  0  0  0  0  0  0  0
  -29.8470  -20.0636   21.7183 N   0  0  0  0  0  0  0  0  0  0  0  0
  -30.3195  -25.7371   18.8529 N   0  0  0  0  0  0  0  0  0  0  0  0
  -21.6529  -29.5589   21.9334 N   0  0  0  0  0  0  0  0  0  0  0  0
  -24.1734  -24.0087   24.9837 N   0  0  0  0  0  0  0  0  0  0  0  0
  -30.6795  -15.2448   21.9264 N   0  0  0  0  0  0  0  0  0  0  0  0
  -25.7901  -21.2050   23.3734 N   0  3  0  0  0  0  0  0  0  0  0  0
  -30.8706  -19.4177   19.7326 O   0  0  0  0  0  0  0  0  0  0  0  0
  -23.7186  -10.8407   21.8514 O   0  0  0  0  0  0  0  0  0  0  0  0
  -23.2134  -29.1734   23.6181 O   0  0  0  0  0  0  0  0  0  0  0  0
  -21.9674  -25.6687   24.2177 O   0  0  0  0  0  0  0  0  0  0  0  0
  -31.6186  -26.7750   20.5114 O   0  0  0  0  0  0  0  0  0  0  0  0
  -26.3460  -23.8391   24.1912 O   0  0  0  0  0  0  0  0  0  0  0  0
  -31.6251  -14.5506   19.9262 O   0  0  0  0  0  0  0  0  0  0  0  0
  -19.4896  -17.3747   21.9461 O   0  0  0  0  0  0  0  0  0  0  0  0
  -28.6619  -28.6271   19.9411 O   0  0  0  0  0  0  0  0  0  1  0  0
  -20.1516  -22.3035   24.3279 F   0  0  0  0  0  0  0  0  0  0  0  0
  -18.3464  -17.9284   24.4015 F   0  0  0  0  0  0  0  0  0  0  0  0
  1  2  1  0  0  0  0
  1  6  2  0  0  0  0
  2  7  2  0  0  0  0
  3 10  2  0  0  0  0
  3 21  1  0  0  0  0
  4 11  1  0  0  0  0
  4 21  2  0  0  0  0
  5  9  2  0  0  0  0
  5 22  1  0  0  0  0
  6 24  1  0  0  0  0
  7 26  1  0  0  0  0
  8 12  2  0  0  0  0
  8 25  1  0  0  0  0
  9 30  1  0  0  0  0
 10 33  1  0  0  0  0
 11 33  2  0  0  0  0
 12 34  1  0  0  0  0
 13 14  2  0  0  0  0
 13 35  1  0  0  0  0
 14 36  1  0  0  0  0
 15 27  1  0  0  0  0
 15 34  2  0  0  0  0
 16 28  2  0  0  0  0
 16 31  1  0  0  0  0
 17 28  1  0  0  0  0
 17 32  2  0  0  0  0
 18 29  1  0  0  0  0
 18 30  2  0  0  0  0
 19 31  2  0  0  0  0
 19 32  1  0  0  0  0
 20 36  2  0  0  0  0
 20 37  1  0  0  0  0
 21 38  1  0  0  0  0
 22 29  2  0  0  0  0
 22 40  1  0  0  0  0
 23 38  1  0  0  0  0
 23 39  2  0  0  0  0
 23 41  1  0  0  0  0
 24 26  2  0  0  0  0
 24 47  1  0  0  0  0
 25 27  2  0  0  0  0
 25 48  1  0  0  0  0
 26 56  1  0  0  0  0
 27 49  1  0  0  0  0
 28 59  1  0  0  0  0
 29 60  1  0  0  0  0
 30 79  1  0  0  0  0
 31 78  1  0  0  0  0
 32 82  1  0  0  0  0
 33 91  1  0  0  0  0
 34 92  1  0  0  0  0
 35 37  2  0  0  0  0
 35 91  1  0  0  0  0
 36 93  1  0  0  0  0
 37 94  1  0  0  0  0
 38 72  2  0  0  0  0
 39 73  1  0  0  0  0
 39 76  1  0  0  0  0
 40 78  1  0  0  0  0
 40 84  2  0  0  0  0
 41 77  1  0  0  0  0
 41 85  2  0  0  0  0
 42 57  1  0  0  0  0
 42 80  1  0  0  0  0
 42 86  2  0  0  0  0
 43 69  1  0  0  0  0
 43 74  1  0  0  0  0
 43 87  2  0  0  0  0
 44 67  1  0  0  0  0
 44 79  1  0  0  0  0
 44 88  2  0  0  0  0
 45 70  1  0  0  0  0
 45 81  1  0  0  0  0
 45 89  2  0  0  0  0
 46 75  1  0  0  0  0
 46 82  1  0  0  0  0
 46 90  2  0  0  0  0
 47 50  1  0  0  0  0
 48 57  1  0  0  0  0
 49 74  1  0  0  0  0
 50 52  1  0  0  0  0
 51 53  1  0  0  0  0
 51 54  1  0  0  0  0
 52 56  1  0  0  0  0
 53 58  1  0  0  0  0
 54 75  1  0  0  0  0
 55 58  1  0  0  0  0
 55 75  1  0  0  0  0
 56 80  1  0  0  0  0
 57 74  1  0  0  0  0
 58 73  1  0  0  0  0
 61 70  1  0  0  0  0
 62 71  1  0  0  0  0
 63 71  1  0  0  0  0
 64 71  1  0  0  0  0
 65 82  1  0  0  0  0
 66 83  1  0  0  0  0
 67 68  1  0  0  0  0
 68 92  1  0  0  0  0
 69 71  1  0  0  0  0
 69 81  1  0  0  0  0
 70 83  1  0  0  0  0
 72 73  1  0  0  0  0
M  CHG  1  83   1
M  ISO  4  46 100  68 101  82 100  92 101
M  END
> <Batch ID>
0143

> <Smiles>
CNC(C)C(=O)NC(C(=O)N1Cc2cc([101O:1][101CH2:1]CC(=O)Nc3ccc(C(=O)Nc4cc(C)cc([100N:0](C)[100C:0](=O)N5CCCC(n6nc(-c7ccc(Oc8ccc(F)cc8F)cc7)c(C(N)=O)c6N)C5)c4)c(C)c3)ccc2CC1C(=O)NC1CCCc2ccccc21)C(C)(C)C

> <Shape>
0.212

> <Color>
0.123

> <Negative vol penalty>
0.000

$$$$

  -OEChem-04052303003D

 88 96  0     1  0  0  0  0  0999 V2000
  -27.1051  -37.0951   26.5292 C   0  0  0  0  0  0  0  0  0  0  0  0
  -27.9305  -36.3254   25.7157 C   0  0  0  0  0  0  0  0  0  0  0  0
  -26.4715  -12.8246   21.5297 C   0  0  0  0  0  0  0  0  0  0  0  0
  -26.2246  -13.5297   19.2321 C   0  0  0  0  0  0  0  0  0  0  0  0
  -25.9186  -36.5565   27.0252 C   0  0  0  0  0  0  0  0  0  0  0  0
  -27.5702  -35.0162   25.3985 C   0  0  0  0  0  0  0  0  0  0  0  0
  -28.0734  -30.2135   20.1072 C   0  0  0  0  0  0  0  0  0  0  0  0
  -25.2140  -12.2232   21.4803 C   0  0  0  0  0  0  0  0  0  0  0  0
  -24.9670  -12.9282   19.1827 C   0  0  0  0  0  0  0  0  0  0  0  0
  -28.4826  -28.9003   19.8799 C   0  0  0  0  0  0  0  0  0  0  0  0
  -23.8650   -9.3656   20.2772 C   0  0  0  0  0  0  0  0  0  0  0  0
  -23.7375   -8.0848   20.8146 C   0  0  0  0  0  0  0  0  0  0  0  0
  -30.3324  -22.3945   17.7568 C   0  0  0  0  0  0  0  0  0  0  0  0
  -26.3706  -28.1017   20.7291 C   0  0  0  0  0  0  0  0  0  0  0  0
  -22.0949   -8.9068   22.3840 C   0  0  0  0  0  0  0  0  0  0  0  0
  -29.8007  -21.9861   15.5313 C   0  0  0  0  0  0  0  0  0  0  0  0
  -26.9768  -13.4780   20.4056 C   0  0  0  0  0  0  0  0  0  0  0  0
  -30.2885  -22.9099   16.4291 C   0  0  0  0  0  0  0  0  0  0  0  0
  -29.5139  -13.5090   20.1415 C   0  0  0  0  0  0  0  0  0  0  0  0
  -25.5389  -35.2432   26.7060 C   0  0  0  0  0  0  0  0  0  0  0  0
  -26.8119  -30.4808   20.6582 C   0  0  0  0  0  0  0  0  0  0  0  0
  -26.3782  -34.4590   25.8917 C   0  0  0  0  0  0  0  0  0  0  0  0
  -25.9468  -29.4194   20.9600 C   0  0  0  0  0  0  0  0  0  0  0  0
  -24.4618  -12.2750   20.3068 C   0  0  0  0  0  0  0  0  0  0  0  0
  -27.6323  -27.8440   20.1936 C   0  0  0  0  0  0  0  0  0  0  0  0
  -23.1075  -10.4171   20.7933 C   0  0  0  0  0  0  0  0  0  0  0  0
  -22.8524   -7.8553   21.8680 C   0  0  0  0  0  0  0  0  0  0  0  0
  -22.2224  -10.1876   21.8467 C   0  0  0  0  0  0  0  0  0  0  0  0
  -28.2755  -14.0999   20.4562 C   0  0  0  0  0  0  0  0  0  0  0  0
  -30.4335  -14.5081   20.3484 C   0  0  0  0  0  0  0  0  0  0  0  0
  -29.8761  -21.0963   17.8230 C   0  0  0  0  0  0  0  0  0  0  0  0
  -30.7108  -24.2790   16.0186 C   0  0  0  0  0  0  0  0  0  0  0  0
  -29.8068  -12.1763   19.7015 C   0  0  0  0  0  0  0  0  0  0  0  0
  -25.7767  -31.8738   23.3212 C   0  0  0  0  0  0  0  0  0  0  0  0
  -30.2474  -25.7047   18.1443 C   0  0  0  0  0  0  0  0  0  0  0  0
  -22.8699  -31.4693   21.9394 C   0  0  0  0  0  0  0  0  0  0  0  0
  -20.9331  -29.7523   19.7151 C   0  0  0  0  0  0  0  0  0  0  0  0
  -30.0724  -20.4718   20.2557 C   0  0  0  0  0  0  0  0  0  0  0  0
  -24.2704  -34.6886   27.3043 C   0  0  0  0  0  0  0  0  0  0  0  0
  -26.3750  -31.9041   20.8723 C   0  0  0  0  0  0  0  0  0  0  0  0
  -24.5744  -29.6537   21.5345 C   0  0  0  0  0  0  0  0  0  0  0  0
  -23.7764  -33.4190   26.6155 C   0  0  0  0  0  0  0  0  0  0  0  0
  -31.1574  -18.4462   22.9754 C   0  0  0  0  0  0  0  0  0  0  0  0
  -24.9283  -32.4404   26.4101 C   0  0  0  0  0  0  0  0  0  0  0  0
  -30.6595  -17.0469   22.6065 C   0  0  0  0  0  0  0  0  0  0  0  0
  -30.1671  -19.5301   22.5534 C   0  0  0  0  0  0  0  0  0  0  0  0
  -29.2635  -18.0859   20.7738 C   0  0  0  0  0  0  0  0  0  0  0  0
  -26.0095  -33.0432   25.5051 C   0  0  1  0  0  0  0  0  0  0  0  0
  -25.2707  -32.0395   21.9162 C   0  0  1  0  0  0  0  0  0  0  0  0
  -30.2573  -16.9654   21.1208 C   0  0  2  0  0  0  0  0  0  0  0  0
  -32.2232  -27.7217   17.1802 C   0  0  0  0  0  0  0  0  0  0  0  0
  -18.5869  -29.6251   18.8339 C   0  0  0  0  0  0  0  0  0  0  0  0
  -32.5526  -24.6889   17.6106 C   0  0  0  0  0  0  0  0  0  0  0  0
  -21.9864  -30.0671   24.5013 C   0  0  0  0  0  0  0  0  0  0  0  0
  -20.0275  -29.1494   23.2407 C   0  0  0  0  0  0  0  0  0  0  0  0
  -20.2851  -31.6149   23.5193 C   0  0  0  0  0  0  0  0  0  0  0  0
  -27.5343  -24.4909   18.8791 C   0  0  0  0  0  0  0  0  0  0  0  0
  -26.4080  -26.6167   18.2067 C   0  0  0  0  0  0  0  0  0  0  0  0
  -21.8102  -30.3828   16.9597 C   0  0  0  0  0  0  0  0  0  0  0  0
  -28.8869  -26.2568   17.7148 C   0  0  0  0  0  0  0  0  0  0  0  0
  -31.6629  -26.6106   16.2956 C   0  0  0  0  0  0  0  0  0  0  0  0
  -21.8270  -30.3778   21.9432 C   0  0  1  0  0  0  0  0  0  0  0  0
  -19.9703  -30.2269   18.6417 C   0  0  2  0  0  0  0  0  0  0  0  0
  -31.2567  -25.3030   17.0422 C   0  0  1  0  0  0  0  0  0  0  0  0
  -21.0580  -30.2975   23.2921 C   0  0  0  0  0  0  0  0  0  0  0  0
  -27.7230  -26.0017   18.6924 C   0  0  0  0  0  0  0  0  0  1  0  0
  -28.3941  -15.3755   20.8344 N   0  0  0  0  0  0  0  0  0  0  0  0
  -29.7179  -15.5942   20.7588 N   0  0  0  0  0  0  0  0  0  0  0  0
  -24.1956  -31.0627   21.7315 N   0  0  0  0  0  0  0  0  0  0  0  0
  -29.8357  -19.3928   21.1334 N   0  0  0  0  0  0  0  0  0  0  0  0
  -31.7763  -14.5546   20.2176 N   0  0  0  0  0  0  0  0  0  0  0  0
  -28.7439  -11.2770   19.5406 N   0  0  0  0  0  0  0  0  0  0  0  0
  -29.7487  -20.2136   18.9241 N   0  0  0  0  0  0  0  0  0  0  0  0
  -25.5970  -32.9877   24.1190 N   0  0  0  0  0  0  0  0  0  0  0  0
  -20.9759  -30.6226   20.7838 N   0  0  0  0  0  0  0  0  0  0  0  0
  -20.4679  -29.8395   17.2915 N   0  3  0  0  0  0  0  0  0  0  0  0
  -30.6456  -24.5454   14.8169 O   0  0  0  0  0  0  0  0  0  0  0  0
  -30.9782  -11.7893   19.4740 O   0  0  0  0  0  0  0  0  0  0  0  0
  -26.2907  -30.8132   23.6572 O   0  0  0  0  0  0  0  0  0  0  0  0
  -30.5086  -25.4991   19.3325 O   0  0  0  0  0  0  0  0  0  0  0  0
  -22.5204  -32.6403   22.1075 O   0  0  0  0  0  0  0  0  0  0  0  0
  -21.5796  -28.7117   19.6171 O   0  0  0  0  0  0  0  0  0  0  0  0
  -30.5542  -21.5364   20.6512 O   0  0  0  0  0  0  0  0  0  0  0  0
  -23.2347  -11.6880   20.2582 O   0  0  0  0  0  0  0  0  0  0  0  0
  -28.0314  -26.5547   19.9723 O   0  0  0  0  0  0  0  0  0  1  0  0
  -22.7289   -6.6250   22.3829 F   0  0  0  0  0  0  0  0  0  0  0  0
  -21.4912  -11.1936   22.3458 F   0  0  0  0  0  0  0  0  0  0  0  0
  -29.3979  -20.5043   16.2890 S   0  0  0  0  0  0  0  0  0  0  0  0
  1  2  1  0  0  0  0
  1  5  2  0  0  0  0
  2  6  2  0  0  0  0
  3  8  2  0  0  0  0
  3 17  1  0  0  0  0
  4  9  1  0  0  0  0
  4 17  2  0  0  0  0
  5 20  1  0  0  0  0
  6 22  1  0  0  0  0
  7 10  2  0  0  0  0
  7 21  1  0  0  0  0
  8 24  1  0  0  0  0
  9 24  2  0  0  0  0
 10 25  1  0  0  0  0
 11 12  2  0  0  0  0
 11 26  1  0  0  0  0
 12 27  1  0  0  0  0
 13 18  1  0  0  0  0
 13 31  2  0  0  0  0
 14 23  1  0  0  0  0
 14 25  2  0  0  0  0
 15 27  2  0  0  0  0
 15 28  1  0  0  0  0
 16 18  2  0  0  0  0
 16 88  1  0  0  0  0
 17 29  1  0  0  0  0
 18 32  1  0  0  0  0
 19 29  1  0  0  0  0
 19 30  2  0  0  0  0
 19 33  1  0  0  0  0
 20 22  2  0  0  0  0
 20 39  1  0  0  0  0
 21 23  2  0  0  0  0
 21 40  1  0  0  0  0
 22 48  1  0  0  0  0
 23 41  1  0  0  0  0
 24 84  1  0  0  0  0
 25 85  1  0  0  0  0
 26 28  2  0  0  0  0
 26 84  1  0  0  0  0
 27 86  1  0  0  0  0
 28 87  1  0  0  0  0
 29 67  2  0  0  0  0
 30 68  1  0  0  0  0
 30 71  1  0  0  0  0
 31 73  1  0  0  0  0
 31 88  1  0  0  0  0
 32 64  1  0  0  0  0
 32 77  2  0  0  0  0
 33 72  1  0  0  0  0
 33 78  2  0  0  0  0
 34 49  1  0  0  0  0
 34 74  1  0  0  0  0
 34 79  2  0  0  0  0
 35 60  1  0  0  0  0
 35 64  1  0  0  0  0
 35 80  2  0  0  0  0
 36 62  1  0  0  0  0
 36 69  1  0  0  0  0
 36 81  2  0  0  0  0
 37 63  1  0  0  0  0
 37 75  1  0  0  0  0
 37 82  2  0  0  0  0
 38 70  1  0  0  0  0
 38 73  1  0  0  0  0
 38 83  2  0  0  0  0
 39 42  1  0  0  0  0
 40 49  1  0  0  0  0
 41 69  1  0  0  0  0
 42 44  1  0  0  0  0
 43 45  1  0  0  0  0
 43 46  1  0  0  0  0
 44 48  1  0  0  0  0
 45 50  1  0  0  0  0
 46 70  1  0  0  0  0
 47 50  1  0  0  0  0
 47 70  1  0  0  0  0
 48 74  1  0  0  0  0
 49 69  1  0  0  0  0
 50 68  1  0  0  0  0
 51 61  1  0  0  0  0
 52 63  1  0  0  0  0
 53 64  1  0  0  0  0
 54 65  1  0  0  0  0
 55 65  1  0  0  0  0
 56 65  1  0  0  0  0
 57 66  1  0  0  0  0
 58 66  1  0  0  0  0
 59 76  1  0  0  0  0
 60 66  1  0  0  0  0
 61 64  1  0  0  0  0
 62 65  1  0  0  0  0
 62 75  1  0  0  0  0
 63 76  1  0  0  0  0
 66 85  1  0  0  0  0
 67 68  1  0  0  0  0
M  CHG  1  76   1
M  ISO  4  38 100  66 101  73 100  85 101
M  END
> <Batch ID>
0143

> <Smiles>
CCC(C)(C(=O)C[101C:1](C)(C)[101O:1]c1ccc2c(c1)CN(C(=O)C(NC(=O)C(C)NC)C(C)(C)C)C(C(=O)NC1CCCc3ccccc31)C2)C(=O)c1csc([100NH:0][100C:0](=O)N2CCCC(n3nc(-c4ccc(Oc5ccc(F)cc5F)cc4)c(C(N)=O)c3N)C2)c1

> <Shape>
0.336

> <Color>
0.098

> <Negative vol penalty>
0.000

$$$$

  -OEChem-04052303003D

 86 95  0     1  0  0  0  0  0999 V2000
  -35.3835  -27.2155   11.8683 C   0  0  0  0  0  0  0  0  0  0  0  0
  -34.6209  -26.4007   12.6989 C   0  0  0  0  0  0  0  0  0  0  0  0
  -23.0779   -9.8642   19.9422 C   0  0  0  0  0  0  0  0  0  0  0  0
  -23.8357   -9.8757   22.2363 C   0  0  0  0  0  0  0  0  0  0  0  0
  -36.4343  -27.9621   12.3997 C   0  0  0  0  0  0  0  0  0  0  0  0
  -34.9094  -26.3312   14.0614 C   0  0  0  0  0  0  0  0  0  0  0  0
  -30.9031  -25.6462   18.6425 C   0  0  0  0  0  0  0  0  0  0  0  0
  -22.3349   -8.7107   20.1934 C   0  0  0  0  0  0  0  0  0  0  0  0
  -23.0926   -8.7222   22.4875 C   0  0  0  0  0  0  0  0  0  0  0  0
  -30.4971  -24.5314   19.3747 C   0  0  0  0  0  0  0  0  0  0  0  0
  -19.8647   -7.9224   23.0884 C   0  0  0  0  0  0  0  0  0  0  0  0
  -19.1067   -7.8837   24.2586 C   0  0  0  0  0  0  0  0  0  0  0  0
  -29.8709  -17.4658   23.1336 C   0  0  0  0  0  0  0  0  0  0  0  0
  -31.8426  -18.3734   24.1945 C   0  0  0  0  0  0  0  0  0  0  0  0
  -32.0930  -25.0882   21.0958 C   0  0  0  0  0  0  0  0  0  0  0  0
  -32.0564  -16.6194   22.5468 C   0  0  0  0  0  0  0  0  0  0  0  0
  -20.3492   -5.9486   24.9994 C   0  0  0  0  0  0  0  0  0  0  0  0
  -23.8284  -10.4466   20.9637 C   0  0  0  0  0  0  0  0  0  0  0  0
  -30.4569  -18.3530   24.0365 C   0  0  0  0  0  0  0  0  0  0  0  0
  -24.1679  -12.9719   20.8398 C   0  0  0  0  0  0  0  0  0  0  0  0
  -36.7296  -27.9091   13.7710 C   0  0  0  0  0  0  0  0  0  0  0  0
  -31.9164  -26.4857   19.1271 C   0  0  0  0  0  0  0  0  0  0  0  0
  -35.9659  -27.0768   14.6115 C   0  0  0  0  0  0  0  0  0  0  0  0
  -32.5083  -26.2144   20.3690 C   0  0  0  0  0  0  0  0  0  0  0  0
  -30.6707  -16.5990   22.3888 C   0  0  0  0  0  0  0  0  0  0  0  0
  -22.3422   -8.1398   21.4660 C   0  0  0  0  0  0  0  0  0  0  0  0
  -31.0941  -24.2506   20.6002 C   0  0  0  0  0  0  0  0  0  0  0  0
  -20.8649   -6.9742   22.8736 C   0  0  0  0  0  0  0  0  0  0  0  0
  -19.3489   -6.8969   25.2142 C   0  0  0  0  0  0  0  0  0  0  0  0
  -32.6424  -17.5066   23.4497 C   0  0  0  0  0  0  0  0  0  0  0  0
  -21.1072   -5.9873   23.8291 C   0  0  0  0  0  0  0  0  0  0  0  0
  -24.5966  -11.6378   20.7047 C   0  0  0  0  0  0  0  0  0  0  0  0
  -25.2597  -13.7218   20.4763 C   0  0  0  0  0  0  0  0  0  0  0  0
  -29.2138  -22.3197   22.9704 C   0  0  0  0  0  0  0  0  0  0  0  0
  -29.6814  -23.3180   22.2143 C   0  0  0  0  0  0  0  0  0  1  0  0
  -29.6123  -19.2682   24.8247 C   0  0  0  0  0  0  0  0  0  0  0  0
  -22.8966  -13.4872   21.2566 C   0  0  0  0  0  0  0  0  0  0  0  0
  -34.8078  -27.3291   18.1112 C   0  0  0  0  0  0  0  0  0  0  0  0
  -34.6828  -29.3485   20.6466 C   0  0  0  0  0  0  0  0  0  0  0  0
  -33.3648  -30.0751   23.7096 C   0  0  0  0  0  0  0  0  0  0  0  0
  -30.7248  -14.7728   20.6543 C   0  0  0  0  0  0  0  0  0  0  0  0
  -37.9051  -28.6979   14.2914 C   0  0  0  0  0  0  0  0  0  0  0  0
  -32.3243  -27.6993   18.3378 C   0  0  0  0  0  0  0  0  0  0  0  0
  -33.5863  -27.0957   20.9431 C   0  0  0  0  0  0  0  0  0  0  0  0
  -28.0994  -22.4404   23.9681 C   0  0  0  0  0  0  0  0  0  0  0  0
  -29.8028  -20.9437   23.0346 C   0  0  0  0  0  0  0  0  0  0  0  0
  -37.9083  -28.8562   15.8097 C   0  0  0  0  0  0  0  0  0  0  0  0
  -29.6148  -12.3540   18.2890 C   0  0  0  0  0  0  0  0  0  0  0  0
  -37.6195  -27.5199   16.4863 C   0  0  0  0  0  0  0  0  0  0  0  0
  -28.1751  -12.0618   18.7177 C   0  0  0  0  0  0  0  0  0  0  0  0
  -28.4940  -21.4476   25.0547 C   0  0  0  0  0  0  0  0  0  0  0  0
  -30.5286  -12.5857   19.4911 C   0  0  0  0  0  0  0  0  0  0  0  0
  -28.6197  -13.3106   20.8694 C   0  0  0  0  0  0  0  0  0  0  0  0
  -36.2322  -26.9938   16.0988 C   0  0  1  0  0  0  0  0  0  0  0  0
  -33.7239  -28.1962   18.6865 C   0  0  1  0  0  0  0  0  0  0  0  0
  -27.6481  -13.1345   19.6910 C   0  0  2  0  0  0  0  0  0  0  0  0
  -33.4840  -31.7739   25.5528 C   0  0  0  0  0  0  0  0  0  0  0  0
  -37.3464  -28.1708   21.5565 C   0  0  0  0  0  0  0  0  0  0  0  0
  -36.9428  -29.1801   23.8119 C   0  0  0  0  0  0  0  0  0  0  0  0
  -37.1620  -30.6519   21.8098 C   0  0  0  0  0  0  0  0  0  0  0  0
  -30.5055  -30.7761   23.4059 C   0  0  0  0  0  0  0  0  0  0  0  0
  -35.0709  -29.2614   22.1029 C   0  0  1  0  0  0  0  0  0  0  0  0
  -32.7748  -31.3546   24.2745 C   0  0  2  0  0  0  0  0  0  0  0  0
  -36.6116  -29.2982   22.3088 C   0  0  0  0  0  0  0  0  0  0  0  0
  -25.8619  -11.5424   20.2877 N   0  0  0  0  0  0  0  0  0  0  0  0
  -26.2377  -12.8261   20.1576 N   0  0  0  0  0  0  0  0  0  0  0  0
  -29.3226  -20.4627   24.3406 N   0  0  0  0  0  0  0  0  0  0  0  0
  -33.9551  -28.2668   20.1307 N   0  0  0  0  0  0  0  0  0  0  0  0
  -29.9679  -13.6174   20.3663 N   0  0  0  0  0  0  0  0  0  0  0  0
  -25.4690  -15.0533   20.4012 N   0  0  0  0  0  0  0  0  0  0  0  0
  -21.8852  -12.5776   21.5945 N   0  0  0  0  0  0  0  0  0  0  0  0
  -30.0758  -15.6986   21.4706 N   0  0  0  0  0  0  0  0  0  0  0  0
  -35.2023  -27.6923   16.8376 N   0  0  0  0  0  0  0  0  0  0  0  0
  -34.3516  -30.3338   22.7819 N   0  0  0  0  0  0  0  0  0  0  0  0
  -29.1537  -18.8765   26.0098 N   0  3  0  0  0  0  0  0  0  0  0  0
  -31.3281  -31.1675   24.5794 N   0  3  0  0  0  0  0  0  0  0  0  0
  -22.6591  -14.7177   21.3117 O   0  0  0  0  0  0  0  0  0  0  0  0
  -35.2542  -26.4003   18.7742 O   0  0  0  0  0  0  0  0  0  0  0  0
  -35.0070  -30.3431   19.9928 O   0  0  0  0  0  0  0  0  0  0  0  0
  -32.9905  -28.9579   24.0592 O   0  0  0  0  0  0  0  0  0  0  0  0
  -31.8541  -14.9418   20.1875 O   0  0  0  0  0  0  0  0  0  0  0  0
  -21.6171   -7.0144   21.7116 O   0  0  0  0  0  0  0  0  0  0  0  0
  -30.7001  -23.1627   21.3166 O   0  0  0  0  0  0  0  0  0  1  0  0
  -18.6220   -6.8608   26.3386 F   0  0  0  0  0  0  0  0  0  0  0  0
  -33.9731  -17.5262   23.6015 F   0  0  0  0  0  0  0  0  0  0  0  0
  -22.0675   -5.0744   23.6289 F   0  0  0  0  0  0  0  0  0  0  0  0
  1  2  1  0  0  0  0
  1  5  2  0  0  0  0
  2  6  2  0  0  0  0
  3  8  2  0  0  0  0
  3 18  1  0  0  0  0
  4  9  1  0  0  0  0
  4 18  2  0  0  0  0
  5 21  1  0  0  0  0
  6 23  1  0  0  0  0
  7 10  2  0  0  0  0
  7 22  1  0  0  0  0
  8 26  1  0  0  0  0
  9 26  2  0  0  0  0
 10 27  1  0  0  0  0
 11 12  2  0  0  0  0
 11 28  1  0  0  0  0
 12 29  1  0  0  0  0
 13 19  2  0  0  0  0
 13 25  1  0  0  0  0
 14 19  1  0  0  0  0
 14 30  2  0  0  0  0
 15 24  1  0  0  0  0
 15 27  2  0  0  0  0
 16 25  2  0  0  0  0
 16 30  1  0  0  0  0
 17 29  2  0  0  0  0
 17 31  1  0  0  0  0
 18 32  1  0  0  0  0
 19 36  1  0  0  0  0
 20 32  1  0  0  0  0
 20 33  2  0  0  0  0
 20 37  1  0  0  0  0
 21 23  2  0  0  0  0
 21 42  1  0  0  0  0
 22 24  2  0  0  0  0
 22 43  1  0  0  0  0
 23 54  1  0  0  0  0
 24 44  1  0  0  0  0
 25 72  1  0  0  0  0
 26 82  1  0  0  0  0
 27 83  1  0  0  0  0
 28 31  2  0  0  0  0
 28 82  1  0  0  0  0
 29 84  1  0  0  0  0
 30 85  1  0  0  0  0
 31 86  1  0  0  0  0
 32 65  2  0  0  0  0
 33 66  1  0  0  0  0
 33 70  1  0  0  0  0
 34 35  2  0  0  0  0
 34 45  1  0  0  0  0
 34 46  1  0  0  0  0
 35 83  1  0  0  0  0
 36 67  1  0  0  0  0
 36 75  2  0  0  0  0
 37 71  1  0  0  0  0
 37 77  2  0  0  0  0
 38 55  1  0  0  0  0
 38 73  1  0  0  0  0
 38 78  2  0  0  0  0
 39 62  1  0  0  0  0
 39 68  1  0  0  0  0
 39 79  2  0  0  0  0
 40 63  1  0  0  0  0
 40 74  1  0  0  0  0
 40 80  2  0  0  0  0
 41 69  1  0  0  0  0
 41 72  1  0  0  0  0
 41 81  2  0  0  0  0
 42 47  1  0  0  0  0
 43 55  1  0  0  0  0
 44 68  1  0  0  0  0
 45 51  1  0  0  0  0
 46 67  1  0  0  0  0
 47 49  1  0  0  0  0
 48 50  1  0  0  0  0
 48 52  1  0  0  0  0
 49 54  1  0  0  0  0
 50 56  1  0  0  0  0
 51 67  1  0  0  0  0
 52 69  1  0  0  0  0
 53 56  1  0  0  0  0
 53 69  1  0  0  0  0
 54 73  1  0  0  0  0
 55 68  1  0  0  0  0
 56 66  1  0  0  0  0
 57 63  1  0  0  0  0
 58 64  1  0  0  0  0
 59 64  1  0  0  0  0
 60 64  1  0  0  0  0
 61 76  1  0  0  0  0
 62 64  1  0  0  0  0
 62 74  1  0  0  0  0
 63 76  1  0  0  0  0
 65 66  1  0  0  0  0
M  CHG  2  75   1  76   1
M  ISO  4  35 101  41 100  72 100  83 101
M  END
> <Batch ID>
0143

> <Smiles>
CNC(C)C(=O)NC(C(=O)N1Cc2cc([101O:1][101CH:1]=C3CCN(C(=N)c4cc(F)cc([100NH:0][100C:0](=O)N5CCCC(n6nc(-c7ccc(Oc8ccc(F)cc8F)cc7)c(C(N)=O)c6N)C5)c4)C3)ccc2CC1C(=O)NC1CCCc2ccccc21)C(C)(C)C

> <Shape>
0.197

> <Color>
0.188

> <Negative vol penalty>
0.000

$$$$

  -OEChem-04052303003D

 87 95  0     1  0  0  0  0  0999 V2000
  -29.0087  -13.1280   19.6555 C   0  0  0  0  0  0  0  0  0  0  0  0
  -28.5648  -14.4107   19.3502 C   0  0  0  0  0  0  0  0  0  0  0  0
  -18.8840  -27.8894   24.2032 C   0  0  0  0  0  0  0  0  0  0  0  0
  -28.8604  -25.9491   18.0568 C   0  0  0  0  0  0  0  0  0  0  0  0
  -27.0155  -24.8320   19.1456 C   0  0  0  0  0  0  0  0  0  0  0  0
  -18.3085  -26.7878   23.5701 C   0  0  0  0  0  0  0  0  0  0  0  0
  -28.1040  -12.1669   20.1045 C   0  0  0  0  0  0  0  0  0  0  0  0
  -27.2155  -14.7326   19.4928 C   0  0  0  0  0  0  0  0  0  0  0  0
  -24.8801  -20.1213   21.2288 C   0  0  0  0  0  0  0  0  0  0  0  0
  -19.9419  -28.5677   23.5979 C   0  0  0  0  0  0  0  0  0  0  0  0
  -29.6537  -24.8163   18.2386 C   0  0  0  0  0  0  0  0  0  0  0  0
  -27.8088  -23.6991   19.3274 C   0  0  0  0  0  0  0  0  0  0  0  0
  -24.3487  -21.1894   20.5074 C   0  0  0  0  0  0  0  0  0  0  0  0
  -28.8793  -21.0859   17.4711 C   0  0  0  0  0  0  0  0  0  0  0  0
  -28.3127  -19.8458   17.1765 C   0  0  0  0  0  0  0  0  0  0  0  0
  -19.8490  -27.0426   21.7264 C   0  0  0  0  0  0  0  0  0  0  0  0
  -22.1279  -20.3178   20.8642 C   0  0  0  0  0  0  0  0  0  0  0  0
  -28.6676  -19.1413   19.4601 C   0  0  0  0  0  0  0  0  0  0  0  0
  -27.5414  -25.9570   18.5103 C   0  0  0  0  0  0  0  0  0  0  0  0
  -18.7910  -26.3644   22.3317 C   0  0  0  0  0  0  0  0  0  0  0  0
  -26.3691  -27.7317   17.1019 C   0  0  0  0  0  0  0  0  0  0  0  0
  -26.7446  -12.4800   20.2619 C   0  0  0  0  0  0  0  0  0  0  0  0
  -24.0387  -19.1359   21.7650 C   0  0  0  0  0  0  0  0  0  0  0  0
  -26.2916  -13.7744   19.9431 C   0  0  0  0  0  0  0  0  0  0  0  0
  -22.6509  -19.2396   21.5943 C   0  0  0  0  0  0  0  0  0  0  0  0
  -20.4244  -28.1443   22.3595 C   0  0  0  0  0  0  0  0  0  0  0  0
  -29.1279  -23.6913   18.8738 C   0  0  0  0  0  0  0  0  0  0  0  0
  -22.9727  -21.2863   20.3225 C   0  0  0  0  0  0  0  0  0  0  0  0
  -29.3401  -21.3537   18.7601 C   0  0  0  0  0  0  0  0  0  0  0  0
  -28.2069  -18.8735   18.1710 C   0  0  0  0  0  0  0  0  0  0  0  0
  -29.2342  -20.3814   19.7546 C   0  0  0  0  0  0  0  0  0  0  0  0
  -26.7216  -27.1271   18.3233 C   0  0  0  0  0  0  0  0  0  0  0  0
  -25.5860  -28.8012   17.4616 C   0  0  0  0  0  0  0  0  0  0  0  0
  -18.1787  -25.1940   21.6604 C   0  0  0  0  0  0  0  0  0  0  0  0
  -26.7181  -27.3597   15.7619 C   0  0  0  0  0  0  0  0  0  0  0  0
  -23.6979  -16.0042   21.3410 C   0  0  0  0  0  0  0  0  0  0  0  0
  -20.6180  -23.5767   18.6487 C   0  0  0  0  0  0  0  0  0  0  0  0
  -21.5969  -16.2946   23.7953 C   0  0  0  0  0  0  0  0  0  0  0  0
  -19.4898  -18.2967   25.5838 C   0  0  0  0  0  0  0  0  0  0  0  0
  -22.1819  -29.9450   22.2375 C   0  0  0  0  0  0  0  0  0  0  0  0
  -25.7962  -11.3944   20.7053 C   0  0  0  0  0  0  0  0  0  0  0  0
  -24.6255  -18.0043   22.5635 C   0  0  0  0  0  0  0  0  0  0  0  0
  -21.7030  -18.2188   22.1669 C   0  0  0  0  0  0  0  0  0  0  0  0
  -24.4475  -11.9230   21.1867 C   0  0  0  0  0  0  0  0  0  0  0  0
  -24.9035  -31.9058   21.0435 C   0  0  0  0  0  0  0  0  0  0  0  0
  -23.9016  -12.9606   20.2109 C   0  0  0  0  0  0  0  0  0  0  0  0
  -25.6430  -30.9599   20.0946 C   0  0  0  0  0  0  0  0  0  0  0  0
  -24.3452  -31.1677   22.2589 C   0  0  0  0  0  0  0  0  0  0  0  0
  -24.2518  -29.0532   20.9981 C   0  0  0  0  0  0  0  0  0  0  0  0
  -24.8400  -14.1691   20.1086 C   0  0  1  0  0  0  0  0  0  0  0  0
  -23.7147  -16.7821   22.6263 C   0  0  1  0  0  0  0  0  0  0  0  0
  -24.7762  -29.7398   19.7264 C   0  0  2  0  0  0  0  0  0  0  0  0
  -17.8807  -18.2415   27.5087 C   0  0  0  0  0  0  0  0  0  0  0  0
  -18.9242  -25.0770   17.5490 C   0  0  0  0  0  0  0  0  0  0  0  0
  -18.5869  -22.6085   17.4923 C   0  0  0  0  0  0  0  0  0  0  0  0
  -19.5310  -14.9122   22.0257 C   0  0  0  0  0  0  0  0  0  0  0  0
  -17.7512  -15.7271   23.5866 C   0  0  0  0  0  0  0  0  0  0  0  0
  -19.5189  -14.1742   24.4152 C   0  0  0  0  0  0  0  0  0  0  0  0
  -21.0765  -20.2688   27.1173 C   0  0  0  0  0  0  0  0  0  0  0  0
  -21.0329  -22.3643   19.4674 C   0  0  0  0  0  0  0  0  0  1  0  0
  -18.3309  -23.8371   19.6685 C   0  0  0  0  0  0  0  0  0  0  0  0
  -20.1184  -16.5777   23.9092 C   0  0  1  0  0  0  0  0  0  0  0  0
  -19.3170  -18.4964   27.0787 C   0  0  2  0  0  0  0  0  0  0  0  0
  -19.1150  -23.7717   18.3452 C   0  0  0  0  0  0  0  0  0  0  0  0
  -19.2476  -15.3662   23.4716 C   0  0  0  0  0  0  0  0  0  0  0  0
  -26.2050  -27.7600   19.3800 N   0  0  0  0  0  0  0  0  0  0  0  0
  -17.1980  -24.5221   22.1646 N   0  0  0  0  0  0  0  0  0  0  0  0
  -25.5200  -28.7735   18.8236 N   0  0  0  0  0  0  0  0  0  0  0  0
  -22.3256  -17.1276   22.9346 N   0  0  0  0  0  0  0  0  0  0  0  0
  -23.5312  -30.0272   21.8330 N   0  0  0  0  0  0  0  0  0  0  0  0
  -24.9545  -29.7534   16.7426 N   0  0  0  0  0  0  0  0  0  0  0  0
  -25.8779  -26.4736   15.0741 N   0  0  0  0  0  0  0  0  0  0  0  0
  -21.4989  -28.8337   21.7446 N   0  0  0  0  0  0  0  0  0  0  0  0
  -24.6779  -15.0335   21.2578 N   0  0  0  0  0  0  0  0  0  0  0  0
  -19.8906  -17.0121   25.2832 N   0  0  0  0  0  0  0  0  0  0  0  0
  -19.6816  -19.8901   27.4606 N   0  3  0  0  0  0  0  0  0  0  0  0
  -27.7535  -27.7873   15.1973 O   0  0  0  0  0  0  0  0  0  0  0  0
  -22.8569  -16.2642   20.4883 O   0  0  0  0  0  0  0  0  0  0  0  0
  -21.4618  -24.3933   18.2711 O   0  0  0  0  0  0  0  0  0  0  0  0
  -22.0884  -15.3730   24.4515 O   0  0  0  0  0  0  0  0  0  0  0  0
  -19.2857  -19.1897   24.7644 O   0  0  0  0  0  0  0  0  0  0  0  0
  -21.6626  -30.8120   22.9450 O   0  0  0  0  0  0  0  0  0  0  0  0
  -29.9016  -22.5856   19.0512 O   0  0  0  0  0  0  0  0  0  0  0  0
  -22.4514  -22.3275   19.6182 O   0  0  0  0  0  0  0  0  0  1  0  0
  -18.7787  -24.9271   20.4662 O   0  0  0  0  0  0  0  0  0  0  0  0
  -27.6614  -17.6833   17.8883 F   0  0  0  0  0  0  0  0  0  0  0  0
  -29.6740  -20.6332   20.9952 F   0  0  0  0  0  0  0  0  0  0  0  0
  1  2  1  0  0  0  0
  1  7  2  0  0  0  0
  2  8  2  0  0  0  0
  3  6  2  0  0  0  0
  3 10  1  0  0  0  0
  4 11  2  0  0  0  0
  4 19  1  0  0  0  0
  5 12  1  0  0  0  0
  5 19  2  0  0  0  0
  6 20  1  0  0  0  0
  7 22  1  0  0  0  0
  8 24  1  0  0  0  0
  9 13  2  0  0  0  0
  9 23  1  0  0  0  0
 10 26  2  0  0  0  0
 11 27  1  0  0  0  0
 12 27  2  0  0  0  0
 13 28  1  0  0  0  0
 14 15  2  0  0  0  0
 14 29  1  0  0  0  0
 15 30  1  0  0  0  0
 16 20  2  0  0  0  0
 16 26  1  0  0  0  0
 17 25  1  0  0  0  0
 17 28  2  0  0  0  0
 18 30  2  0  0  0  0
 18 31  1  0  0  0  0
 19 32  1  0  0  0  0
 20 34  1  0  0  0  0
 21 32  1  0  0  0  0
 21 33  2  0  0  0  0
 21 35  1  0  0  0  0
 22 24  2  0  0  0  0
 22 41  1  0  0  0  0
 23 25  2  0  0  0  0
 23 42  1  0  0  0  0
 24 50  1  0  0  0  0
 25 43  1  0  0  0  0
 26 73  1  0  0  0  0
 27 83  1  0  0  0  0
 28 84  1  0  0  0  0
 29 31  2  0  0  0  0
 29 83  1  0  0  0  0
 30 86  1  0  0  0  0
 31 87  1  0  0  0  0
 32 66  2  0  0  0  0
 33 68  1  0  0  0  0
 33 71  1  0  0  0  0
 34 67  2  0  0  0  0
 34 85  1  0  0  0  0
 35 72  1  0  0  0  0
 35 77  2  0  0  0  0
 36 51  1  0  0  0  0
 36 74  1  0  0  0  0
 36 78  2  0  0  0  0
 37 60  1  0  0  0  0
 37 64  1  0  0  0  0
 37 79  2  0  0  0  0
 38 62  1  0  0  0  0
 38 69  1  0  0  0  0
 38 80  2  0  0  0  0
 39 63  1  0  0  0  0
 39 75  1  0  0  0  0
 39 81  2  0  0  0  0
 40 70  1  0  0  0  0
 40 73  1  0  0  0  0
 40 82  2  0  0  0  0
 41 44  1  0  0  0  0
 42 51  1  0  0  0  0
 43 69  1  0  0  0  0
 44 46  1  0  0  0  0
 45 47  1  0  0  0  0
 45 48  1  0  0  0  0
 46 50  1  0  0  0  0
 47 52  1  0  0  0  0
 48 70  1  0  0  0  0
 49 52  1  0  0  0  0
 49 70  1  0  0  0  0
 50 74  1  0  0  0  0
 51 69  1  0  0  0  0
 52 68  1  0  0  0  0
 53 63  1  0  0  0  0
 54 64  1  0  0  0  0
 55 64  1  0  0  0  0
 56 65  1  0  0  0  0
 57 65  1  0  0  0  0
 58 65  1  0  0  0  0
 59 76  1  0  0  0  0
 60 84  1  0  0  0  0
 61 64  1  0  0  0  0
 61 85  1  0  0  0  0
 62 65  1  0  0  0  0
 62 75  1  0  0  0  0
 63 76  1  0  0  0  0
 66 68  1  0  0  0  0
M  CHG  1  76   1
M  ISO  4  40 100  60 101  73 100  84 101
M  END
> <Batch ID>
0143

> <Smiles>
CNC(C)C(=O)NC(C(=O)N1Cc2cc([101O:1][101CH2:1]C(=O)C(C)(C)COC(=N)c3cccc([100NH:0][100C:0](=O)N4CCCC(n5nc(-c6ccc(Oc7ccc(F)cc7F)cc6)c(C(N)=O)c5N)C4)c3)ccc2CC1C(=O)NC1CCCc2ccccc21)C(C)(C)C

> <Shape>
0.210

> <Color>
0.074

> <Negative vol penalty>
0.000

$$$$

  -OEChem-04052303003D

 86 95  0     1  0  0  0  0  0999 V2000
  -30.1593  -34.5734   23.5811 C   0  0  0  0  0  0  0  0  0  0  0  0
  -30.0287  -33.4733   22.7396 C   0  0  0  0  0  0  0  0  0  0  0  0
  -26.1663  -23.7542   17.8262 C   0  0  0  0  0  0  0  0  0  0  0  0
  -23.2558  -12.6589   20.3740 C   0  0  0  0  0  0  0  0  0  0  0  0
  -22.6339  -14.1893   22.1369 C   0  0  0  0  0  0  0  0  0  0  0  0
  -29.4032  -34.6491   24.7501 C   0  0  0  0  0  0  0  0  0  0  0  0
  -29.1427  -32.4476   23.0673 C   0  0  0  0  0  0  0  0  0  0  0  0
  -26.3699  -30.9368   19.1082 C   0  0  0  0  0  0  0  0  0  0  0  0
  -27.3135  -24.1444   17.1353 C   0  0  0  0  0  0  0  0  0  0  0  0
  -26.2135  -22.6666   18.6984 C   0  0  0  0  0  0  0  0  0  0  0  0
  -22.6551  -11.6111   21.0717 C   0  0  0  0  0  0  0  0  0  0  0  0
  -22.0332  -13.1415   22.8346 C   0  0  0  0  0  0  0  0  0  0  0  0
  -26.9872  -30.0977   18.1816 C   0  0  0  0  0  0  0  0  0  0  0  0
  -23.4064   -9.6075   23.6881 C   0  0  0  0  0  0  0  0  0  0  0  0
  -24.1087   -8.4060   23.7825 C   0  0  0  0  0  0  0  0  0  0  0  0
  -25.9059  -28.1939   19.1942 C   0  0  0  0  0  0  0  0  0  0  0  0
  -28.5550  -22.3594   18.1887 C   0  0  0  0  0  0  0  0  0  0  0  0
  -22.3042   -7.2626   22.6540 C   0  0  0  0  0  0  0  0  0  0  0  0
  -23.2452  -13.9480   20.9066 C   0  0  0  0  0  0  0  0  0  0  0  0
  -23.2620  -15.8779   19.2383 C   0  0  0  0  0  0  0  0  0  0  0  0
  -28.5004  -33.6284   25.0874 C   0  0  0  0  0  0  0  0  0  0  0  0
  -25.5230  -30.4086   20.0933 C   0  0  0  0  0  0  0  0  0  0  0  0
  -28.3748  -32.5090   24.2426 C   0  0  0  0  0  0  0  0  0  0  0  0
  -25.2770  -29.0287   20.1305 C   0  0  0  0  0  0  0  0  0  0  0  0
  -28.5078  -23.4471   17.3166 C   0  0  0  0  0  0  0  0  0  0  0  0
  -27.4078  -21.9692   18.8796 C   0  0  0  0  0  0  0  0  0  0  0  0
  -22.0438  -11.8524   22.3020 C   0  0  0  0  0  0  0  0  0  0  0  0
  -26.7576  -28.7258   18.2263 C   0  0  0  0  0  0  0  0  0  0  0  0
  -22.1529   -9.6365   23.0767 C   0  0  0  0  0  0  0  0  0  0  0  0
  -23.5576   -7.2336   23.2655 C   0  0  0  0  0  0  0  0  0  0  0  0
  -21.6019   -8.4640   22.5596 C   0  0  0  0  0  0  0  0  0  0  0  0
  -23.8661  -15.0307   20.1866 C   0  0  0  0  0  0  0  0  0  0  0  0
  -24.2658  -16.7320   18.8521 C   0  0  0  0  0  0  0  0  0  0  0  0
  -21.9139  -15.8915   18.7503 C   0  0  0  0  0  0  0  0  0  0  0  0
  -29.7349  -26.1778   17.6615 C   0  0  0  0  0  0  0  0  0  0  0  0
  -25.5543  -30.3288   23.2707 C   0  0  0  0  0  0  0  0  0  0  0  0
  -22.6165  -29.0108   22.8782 C   0  0  0  0  0  0  0  0  0  0  0  0
  -20.4563  -27.2934   20.8705 C   0  0  0  0  0  0  0  0  0  0  0  0
  -28.5592  -20.0651   20.0606 C   0  0  0  0  0  0  0  0  0  0  0  0
  -27.7395  -33.7319   26.3855 C   0  0  0  0  0  0  0  0  0  0  0  0
  -24.8437  -31.3301   21.0688 C   0  0  0  0  0  0  0  0  0  0  0  0
  -24.3604  -28.4140   21.1555 C   0  0  0  0  0  0  0  0  0  0  0  0
  -26.5483  -32.7812   26.4707 C   0  0  0  0  0  0  0  0  0  0  0  0
  -32.5218  -24.0494   17.7342 C   0  0  0  0  0  0  0  0  0  0  0  0
  -29.2446  -16.5847   19.7531 C   0  0  0  0  0  0  0  0  0  0  0  0
  -26.9486  -31.3816   26.0148 C   0  0  0  0  0  0  0  0  0  0  0  0
  -27.8567  -15.9399   19.7604 C   0  0  0  0  0  0  0  0  0  0  0  0
  -31.9836  -25.1322   16.7833 C   0  0  0  0  0  0  0  0  0  0  0  0
  -31.2771  -24.2694   18.6109 C   0  0  0  0  0  0  0  0  0  0  0  0
  -29.3172  -17.7852   20.6951 C   0  0  0  0  0  0  0  0  0  0  0  0
  -26.8901  -18.1567   20.4941 C   0  0  0  0  0  0  0  0  0  0  0  0
  -27.4062  -31.3880   24.5512 C   0  0  1  0  0  0  0  0  0  0  0  0
  -24.4053  -30.6264   22.3495 C   0  0  1  0  0  0  0  0  0  0  0  0
  -26.7495  -16.9827   19.5115 C   0  0  2  0  0  0  0  0  0  0  0  0
  -30.5491  -24.9019   17.3740 C   0  0  0  0  0  0  0  0  0  0  0  0
  -18.1395  -26.3296   20.8392 C   0  0  0  0  0  0  0  0  0  0  0  0
  -23.5577  -26.6975   24.6311 C   0  0  0  0  0  0  0  0  0  0  0  0
  -21.6101  -25.3640   23.7963 C   0  0  0  0  0  0  0  0  0  0  0  0
  -21.2209  -27.4652   25.0832 C   0  0  0  0  0  0  0  0  0  0  0  0
  -19.6459  -29.0141   18.6030 C   0  0  0  0  0  0  0  0  0  0  0  0
  -29.7413  -23.8672   16.5734 C   0  0  0  0  0  0  0  0  0  0  0  0
  -29.4529  -27.0814   16.4672 C   0  0  0  0  0  0  0  0  0  0  0  0
  -28.6321  -28.3115   16.8225 C   0  0  0  0  0  0  0  0  0  1  0  0
  -22.0883  -27.6063   22.7126 C   0  0  1  0  0  0  0  0  0  0  0  0
  -19.0016  -27.5393   20.5131 C   0  0  2  0  0  0  0  0  0  0  0  0
  -22.1381  -26.7943   24.0375 C   0  0  0  0  0  0  0  0  0  0  0  0
  -25.1540  -15.3203   20.3902 N   0  0  0  0  0  0  0  0  0  0  0  0
  -25.3674  -16.3589   19.5645 N   0  0  0  0  0  0  0  0  0  0  0  0
  -23.7246  -29.3558   22.0916 N   0  0  0  0  0  0  0  0  0  0  0  0
  -28.2407  -18.7325   20.3975 N   0  0  0  0  0  0  0  0  0  0  0  0
  -24.3049  -17.7583   17.9759 N   0  0  0  0  0  0  0  0  0  0  0  0
  -21.0116  -14.9443   19.2533 N   0  0  0  0  0  0  0  0  0  0  0  0
  -27.4555  -20.8649   19.7662 N   0  0  0  0  0  0  0  0  0  0  0  0
  -26.2638  -31.4473   23.6647 N   0  0  0  0  0  0  0  0  0  0  0  0
  -20.7520  -27.7374   22.1420 N   0  0  0  0  0  0  0  0  0  0  0  0
  -18.8681  -27.8331   19.0582 N   0  3  0  0  0  0  0  0  0  0  0  0
  -21.5253  -16.7086   17.8815 O   0  0  0  0  0  0  0  0  0  0  0  0
  -29.3289  -26.4606   18.7943 O   0  0  0  0  0  0  0  0  0  0  0  0
  -25.7797  -29.1704   23.6009 O   0  0  0  0  0  0  0  0  0  0  0  0
  -22.0617  -29.7760   23.6709 O   0  0  0  0  0  0  0  0  0  0  0  0
  -21.2500  -26.7573   20.1003 O   0  0  0  0  0  0  0  0  0  0  0  0
  -29.7268  -20.4600   20.0087 O   0  0  0  0  0  0  0  0  0  0  0  0
  -21.4573  -10.8302   22.9830 O   0  0  0  0  0  0  0  0  0  0  0  0
  -27.3594  -27.9044   17.3234 O   0  0  0  0  0  0  0  0  0  1  0  0
  -24.2328   -6.0802   23.3549 F   0  0  0  0  0  0  0  0  0  0  0  0
  -20.3987   -8.4858   21.9700 F   0  0  0  0  0  0  0  0  0  0  0  0
  1  2  1  0  0  0  0
  1  6  2  0  0  0  0
  2  7  2  0  0  0  0
  3  9  2  0  0  0  0
  3 10  1  0  0  0  0
  4 11  2  0  0  0  0
  4 19  1  0  0  0  0
  5 12  1  0  0  0  0
  5 19  2  0  0  0  0
  6 21  1  0  0  0  0
  7 23  1  0  0  0  0
  8 13  2  0  0  0  0
  8 22  1  0  0  0  0
  9 25  1  0  0  0  0
 10 26  2  0  0  0  0
 11 27  1  0  0  0  0
 12 27  2  0  0  0  0
 13 28  1  0  0  0  0
 14 15  2  0  0  0  0
 14 29  1  0  0  0  0
 15 30  1  0  0  0  0
 16 24  1  0  0  0  0
 16 28  2  0  0  0  0
 17 25  2  0  0  0  0
 17 26  1  0  0  0  0
 18 30  2  0  0  0  0
 18 31  1  0  0  0  0
 19 32  1  0  0  0  0
 20 32  1  0  0  0  0
 20 33  2  0  0  0  0
 20 34  1  0  0  0  0
 21 23  2  0  0  0  0
 21 40  1  0  0  0  0
 22 24  2  0  0  0  0
 22 41  1  0  0  0  0
 23 52  1  0  0  0  0
 24 42  1  0  0  0  0
 25 61  1  0  0  0  0
 26 73  1  0  0  0  0
 27 83  1  0  0  0  0
 28 84  1  0  0  0  0
 29 31  2  0  0  0  0
 29 83  1  0  0  0  0
 30 85  1  0  0  0  0
 31 86  1  0  0  0  0
 32 67  2  0  0  0  0
 33 68  1  0  0  0  0
 33 71  1  0  0  0  0
 34 72  1  0  0  0  0
 34 77  2  0  0  0  0
 35 55  1  0  0  0  0
 35 62  1  0  0  0  0
 35 78  2  0  0  0  0
 36 53  1  0  0  0  0
 36 74  1  0  0  0  0
 36 79  2  0  0  0  0
 37 64  1  0  0  0  0
 37 69  1  0  0  0  0
 37 80  2  0  0  0  0
 38 65  1  0  0  0  0
 38 75  1  0  0  0  0
 38 81  2  0  0  0  0
 39 70  1  0  0  0  0
 39 73  1  0  0  0  0
 39 82  2  0  0  0  0
 40 43  1  0  0  0  0
 41 53  1  0  0  0  0
 42 69  1  0  0  0  0
 43 46  1  0  0  0  0
 44 48  1  0  0  0  0
 44 49  1  0  0  0  0
 45 47  1  0  0  0  0
 45 50  1  0  0  0  0
 46 52  1  0  0  0  0
 47 54  1  0  0  0  0
 48 55  1  0  0  0  0
 49 55  1  0  0  0  0
 50 70  1  0  0  0  0
 51 54  1  0  0  0  0
 51 70  1  0  0  0  0
 52 74  1  0  0  0  0
 53 69  1  0  0  0  0
 54 68  1  0  0  0  0
 55 61  1  0  0  0  0
 56 65  1  0  0  0  0
 57 66  1  0  0  0  0
 58 66  1  0  0  0  0
 59 66  1  0  0  0  0
 60 76  1  0  0  0  0
 62 63  1  0  0  0  0
 63 84  1  0  0  0  0
 64 66  1  0  0  0  0
 64 75  1  0  0  0  0
 65 76  1  0  0  0  0
 67 68  1  0  0  0  0
M  CHG  1  76   1
M  ISO  4  39 100  63 101  73 100  84 101
M  END
> <Batch ID>
0143

> <Smiles>
CNC(C)C(=O)NC(C(=O)N1Cc2cc([101O:1][101CH2:1]CC(=O)C3(Cc4cccc([100NH:0][100C:0](=O)N5CCCC(n6nc(-c7ccc(Oc8ccc(F)cc8F)cc7)c(C(N)=O)c6N)C5)c4)CCC3)ccc2CC1C(=O)NC1CCCc2ccccc21)C(C)(C)C

> <Shape>
0.261

> <Color>
0.057

> <Negative vol penalty>
0.000

$$$$

  -OEChem-04052303003D

 91 99  0     1  0  0  0  0  0999 V2000
  -22.9137  -15.8176   15.3723 C   0  0  0  0  0  0  0  0  0  0  0  0
  -21.8269  -16.5382   15.8573 C   0  0  0  0  0  0  0  0  0  0  0  0
  -29.7144  -17.3436   18.9989 C   0  0  0  0  0  0  0  0  0  0  0  0
  -27.8407  -18.0443   20.3536 C   0  0  0  0  0  0  0  0  0  0  0  0
  -23.8112  -15.2288   16.2621 C   0  0  0  0  0  0  0  0  0  0  0  0
  -21.6365  -16.6694   17.2324 C   0  0  0  0  0  0  0  0  0  0  0  0
  -21.3933  -23.1639   20.3394 C   0  0  0  0  0  0  0  0  0  0  0  0
  -26.7132  -29.5134   20.4423 C   0  0  0  0  0  0  0  0  0  0  0  0
  -27.6015  -28.4446   20.3236 C   0  0  0  0  0  0  0  0  0  0  0  0
  -29.7335  -16.1157   19.6603 C   0  0  0  0  0  0  0  0  0  0  0  0
  -27.8596  -16.8163   21.0149 C   0  0  0  0  0  0  0  0  0  0  0  0
  -21.1246  -24.3749   20.9777 C   0  0  0  0  0  0  0  0  0  0  0  0
  -28.0048  -13.2111   19.5706 C   0  0  0  0  0  0  0  0  0  0  0  0
  -28.1376  -12.0592   18.7952 C   0  0  0  0  0  0  0  0  0  0  0  0
  -20.9209  -23.2255   23.0956 C   0  0  0  0  0  0  0  0  0  0  0  0
  -24.8510  -27.9909   20.2158 C   0  0  0  0  0  0  0  0  0  0  0  0
  -30.1765  -11.5055   19.9673 C   0  0  0  0  0  0  0  0  0  0  0  0
  -28.7681  -18.3079   19.3456 C   0  0  0  0  0  0  0  0  0  0  0  0
  -28.0286  -19.9046   17.4986 C   0  0  0  0  0  0  0  0  0  0  0  0
  -23.6370  -15.3610   17.6487 C   0  0  0  0  0  0  0  0  0  0  0  0
  -21.4420  -21.9798   21.0802 C   0  0  0  0  0  0  0  0  0  0  0  0
  -22.5318  -16.0807   18.1415 C   0  0  0  0  0  0  0  0  0  0  0  0
  -21.2019  -22.0112   22.4637 C   0  0  0  0  0  0  0  0  0  0  0  0
  -25.3379  -29.2865   20.3885 C   0  0  0  0  0  0  0  0  0  0  0  0
  -25.7393  -26.9220   20.0970 C   0  0  0  0  0  0  0  0  0  0  0  0
  -27.1146  -27.1489   20.1509 C   0  0  0  0  0  0  0  0  0  0  0  0
  -28.8060  -15.8520   20.6683 C   0  0  0  0  0  0  0  0  0  0  0  0
  -20.8888  -24.4056   22.3524 C   0  0  0  0  0  0  0  0  0  0  0  0
  -28.9578  -13.5102   20.5442 C   0  0  0  0  0  0  0  0  0  0  0  0
  -29.2234  -11.2064   18.9936 C   0  0  0  0  0  0  0  0  0  0  0  0
  -30.0436  -12.6574   20.7426 C   0  0  0  0  0  0  0  0  0  0  0  0
  -28.7483  -19.5768   18.6632 C   0  0  0  0  0  0  0  0  0  0  0  0
  -28.3452  -21.2192   17.2579 C   0  0  0  0  0  0  0  0  0  0  0  0
  -27.1523  -19.0932   16.7052 C   0  0  0  0  0  0  0  0  0  0  0  0
  -21.9904  -18.2683   21.0697 C   0  0  0  0  0  0  0  0  0  0  0  0
  -22.7851  -29.8416   22.4242 C   0  0  0  0  0  0  0  0  0  0  0  0
  -20.3087  -27.9913   23.0053 C   0  0  0  0  0  0  0  0  0  0  0  0
  -23.3543  -19.3634   23.5898 C   0  0  0  0  0  0  0  0  0  0  0  0
  -25.2921  -20.9979   25.4543 C   0  0  0  0  0  0  0  0  0  0  0  0
  -29.4254  -26.1490   20.0669 C   0  0  0  0  0  0  0  0  0  0  0  0
  -24.6071  -14.6669   18.5716 C   0  0  0  0  0  0  0  0  0  0  0  0
  -21.6670  -20.6444   20.4245 C   0  0  0  0  0  0  0  0  0  0  0  0
  -21.2302  -20.7080   23.2145 C   0  0  0  0  0  0  0  0  0  0  0  0
  -24.5429  -15.1687   20.0119 C   0  0  0  0  0  0  0  0  0  0  0  0
  -32.0400  -24.2185   18.6130 C   0  0  0  0  0  0  0  0  0  0  0  0
  -23.0942  -15.2657   20.4793 C   0  0  0  0  0  0  0  0  0  0  0  0
  -31.3889  -22.8562   18.3631 C   0  0  0  0  0  0  0  0  0  0  0  0
  -31.5416  -24.8562   19.9086 C   0  0  0  0  0  0  0  0  0  0  0  0
  -29.4304  -23.5930   19.7804 C   0  0  0  0  0  0  0  0  0  0  0  0
  -22.3051  -16.2662   19.6262 C   0  0  1  0  0  0  0  0  0  0  0  0
  -22.4736  -19.6698   21.3013 C   0  0  1  0  0  0  0  0  0  0  0  0
  -29.8526  -22.9408   18.4537 C   0  0  2  0  0  0  0  0  0  0  0  0
  -25.1897  -25.5450   19.9098 C   0  0  0  0  0  0  0  0  0  0  0  0
  -26.6975  -21.3319   27.5062 C   0  0  0  0  0  0  0  0  0  0  0  0
  -25.0803  -30.7337   22.9550 C   0  0  0  0  0  0  0  0  0  0  0  0
  -23.3993  -32.2539   21.9562 C   0  0  0  0  0  0  0  0  0  0  0  0
  -19.9258  -30.4299   23.3594 C   0  0  0  0  0  0  0  0  0  0  0  0
  -19.0289  -29.3568   21.3064 C   0  0  0  0  0  0  0  0  0  0  0  0
  -20.9629  -18.4567   25.2520 C   0  0  0  0  0  0  0  0  0  0  0  0
  -22.2837  -18.9868   27.3118 C   0  0  0  0  0  0  0  0  0  0  0  0
  -23.0909  -17.2336   25.7314 C   0  0  0  0  0  0  0  0  0  0  0  0
  -27.7443  -21.4092   23.8491 C   0  0  0  0  0  0  0  0  0  0  0  0
  -24.3755  -30.4452   20.5147 C   0  0  0  0  0  0  0  0  0  0  0  0
  -21.5265  -29.7276   21.5559 C   0  0  0  0  0  0  0  0  0  0  0  0
  -20.6165  -26.7617   22.1644 C   0  0  0  0  0  0  0  0  0  1  0  0
  -23.2354  -19.6673   25.0618 C   0  0  1  0  0  0  0  0  0  0  0  0
  -26.6840  -20.8916   26.0506 C   0  0  2  0  0  0  0  0  0  0  0  0
  -23.9094  -30.7992   21.9525 C   0  0  0  0  0  0  0  0  0  0  0  0
  -20.2153  -29.3584   22.2904 C   0  0  0  0  0  0  0  0  0  0  0  0
  -22.3886  -18.6060   25.8195 C   0  0  0  0  0  0  0  0  0  0  0  0
  -29.4680  -20.6007   19.1299 N   0  0  0  0  0  0  0  0  0  0  0  0
  -29.2021  -21.5847   18.2540 N   0  0  0  0  0  0  0  0  0  0  0  0
  -22.3609  -19.8872   22.7536 N   0  0  0  0  0  0  0  0  0  0  0  0
  -30.0780  -24.9065   19.9218 N   0  0  0  0  0  0  0  0  0  0  0  0
  -27.9713  -22.0867   16.2935 N   0  0  0  0  0  0  0  0  0  0  0  0
  -26.9375  -17.7640   17.0944 N   0  0  0  0  0  0  0  0  0  0  0  0
  -28.0332  -26.0766   20.0322 N   0  0  0  0  0  0  0  0  0  0  0  0
  -22.6171  -17.6233   20.0206 N   0  0  0  0  0  0  0  0  0  0  0  0
  -24.5989  -19.8106   25.5604 N   0  0  0  0  0  0  0  0  0  0  0  0
  -27.6394  -21.7475   25.2919 N   0  3  0  0  0  0  0  0  0  0  0  0
  -26.5895  -19.5291   15.6723 O   0  0  0  0  0  0  0  0  0  0  0  0
  -21.1144  -17.8044   21.7902 O   0  0  0  0  0  0  0  0  0  0  0  0
  -22.9153  -29.1794   23.4560 O   0  0  0  0  0  0  0  0  0  0  0  0
  -20.1602  -27.8933   24.2258 O   0  0  0  0  0  0  0  0  0  0  0  0
  -24.2981  -18.6758   23.1902 O   0  0  0  0  0  0  0  0  0  0  0  0
  -24.8613  -22.0318   24.9484 O   0  0  0  0  0  0  0  0  0  0  0  0
  -30.0554  -27.2032   20.1840 O   0  0  0  0  0  0  0  0  0  0  0  0
  -28.8241  -14.6538   21.3137 O   0  0  0  0  0  0  0  0  0  0  0  0
  -20.6291  -25.6030   22.9758 O   0  0  0  0  0  0  0  0  0  1  0  0
  -29.3501  -10.0995   18.2500 F   0  0  0  0  0  0  0  0  0  0  0  0
  -30.9618  -12.9389   21.6772 F   0  0  0  0  0  0  0  0  0  0  0  0
  1  2  1  0  0  0  0
  1  5  2  0  0  0  0
  2  6  2  0  0  0  0
  3 10  2  0  0  0  0
  3 18  1  0  0  0  0
  4 11  1  0  0  0  0
  4 18  2  0  0  0  0
  5 20  1  0  0  0  0
  6 22  1  0  0  0  0
  7 12  2  0  0  0  0
  7 21  1  0  0  0  0
  8  9  2  0  0  0  0
  8 24  1  0  0  0  0
  9 26  1  0  0  0  0
 10 27  1  0  0  0  0
 11 27  2  0  0  0  0
 12 28  1  0  0  0  0
 13 14  2  0  0  0  0
 13 29  1  0  0  0  0
 14 30  1  0  0  0  0
 15 23  1  0  0  0  0
 15 28  2  0  0  0  0
 16 24  2  0  0  0  0
 16 25  1  0  0  0  0
 17 30  2  0  0  0  0
 17 31  1  0  0  0  0
 18 32  1  0  0  0  0
 19 32  1  0  0  0  0
 19 33  2  0  0  0  0
 19 34  1  0  0  0  0
 20 22  2  0  0  0  0
 20 41  1  0  0  0  0
 21 23  2  0  0  0  0
 21 42  1  0  0  0  0
 22 50  1  0  0  0  0
 23 43  1  0  0  0  0
 24 63  1  0  0  0  0
 25 26  2  0  0  0  0
 25 53  1  0  0  0  0
 26 77  1  0  0  0  0
 27 88  1  0  0  0  0
 28 89  1  0  0  0  0
 29 31  2  0  0  0  0
 29 88  1  0  0  0  0
 30 90  1  0  0  0  0
 31 91  1  0  0  0  0
 32 71  2  0  0  0  0
 33 72  1  0  0  0  0
 33 75  1  0  0  0  0
 34 76  1  0  0  0  0
 34 81  2  0  0  0  0
 35 51  1  0  0  0  0
 35 78  1  0  0  0  0
 35 82  2  0  0  0  0
 36 64  1  0  0  0  0
 36 68  1  0  0  0  0
 36 83  2  0  0  0  0
 37 65  1  0  0  0  0
 37 69  1  0  0  0  0
 37 84  2  0  0  0  0
 38 66  1  0  0  0  0
 38 73  1  0  0  0  0
 38 85  2  0  0  0  0
 39 67  1  0  0  0  0
 39 79  1  0  0  0  0
 39 86  2  0  0  0  0
 40 74  1  0  0  0  0
 40 77  1  0  0  0  0
 40 87  2  0  0  0  0
 41 44  1  0  0  0  0
 42 51  1  0  0  0  0
 43 73  1  0  0  0  0
 44 46  1  0  0  0  0
 45 47  1  0  0  0  0
 45 48  1  0  0  0  0
 46 50  1  0  0  0  0
 47 52  1  0  0  0  0
 48 74  1  0  0  0  0
 49 52  1  0  0  0  0
 49 74  1  0  0  0  0
 50 78  1  0  0  0  0
 51 73  1  0  0  0  0
 52 72  1  0  0  0  0
 54 67  1  0  0  0  0
 55 68  1  0  0  0  0
 56 68  1  0  0  0  0
 57 69  1  0  0  0  0
 58 69  1  0  0  0  0
 59 70  1  0  0  0  0
 60 70  1  0  0  0  0
 61 70  1  0  0  0  0
 62 80  1  0  0  0  0
 63 68  1  0  0  0  0
 64 69  1  0  0  0  0
 65 89  1  0  0  0  0
 66 70  1  0  0  0  0
 66 79  1  0  0  0  0
 67 80  1  0  0  0  0
 71 72  1  0  0  0  0
M  CHG  1  80   1
M  ISO  4  40 100  65 101  77 100  89 101
M  END
> <Batch ID>
0143

> <Smiles>
CNC(C)C(=O)NC(C(=O)N1Cc2cc([101O:1][101CH2:1]C(=O)C(C)(C)CC(=O)C(C)(C)Cc3ccc([100NH:0][100C:0](=O)N4CCCC(n5nc(-c6ccc(Oc7ccc(F)cc7F)cc6)c(C(N)=O)c5N)C4)c(C)c3)ccc2CC1C(=O)NC1CCCc2ccccc21)C(C)(C)C

> <Shape>
0.238

> <Color>
0.054

> <Negative vol penalty>
0.000

$$$$

  -OEChem-04052303003D

 86 95  0     1  0  0  0  0  0999 V2000
  -19.9776  -23.5030   23.1418 C   0  0  0  0  0  0  0  0  0  0  0  0
  -21.2662  -23.7643   22.6869 C   0  0  0  0  0  0  0  0  0  0  0  0
  -23.7300  -10.4947   22.4885 C   0  0  0  0  0  0  0  0  0  0  0  0
  -22.5441  -12.1778   21.2244 C   0  0  0  0  0  0  0  0  0  0  0  0
  -19.0399  -24.5328   23.2055 C   0  0  0  0  0  0  0  0  0  0  0  0
  -21.6174  -25.0554   22.2946 C   0  0  0  0  0  0  0  0  0  0  0  0
  -26.1258  -26.4785   24.1095 C   0  0  0  0  0  0  0  0  0  0  0  0
  -26.1014  -19.7129   17.4350 C   0  0  0  0  0  0  0  0  0  0  0  0
  -26.4356  -18.3825   17.6874 C   0  0  0  0  0  0  0  0  0  0  0  0
  -22.6727  -10.4312   23.3960 C   0  0  0  0  0  0  0  0  0  0  0  0
  -21.4867  -12.1143   22.1319 C   0  0  0  0  0  0  0  0  0  0  0  0
  -27.2575  -25.9823   23.4640 C   0  0  0  0  0  0  0  0  0  0  0  0
  -19.6016   -9.0246   23.5480 C   0  0  0  0  0  0  0  0  0  0  0  0
  -19.1625   -7.7615   23.9443 C   0  0  0  0  0  0  0  0  0  0  0  0
  -27.4895  -28.0703   22.2784 C   0  0  0  0  0  0  0  0  0  0  0  0
  -28.5086  -19.0958   18.7029 C   0  0  0  0  0  0  0  0  0  0  0  0
  -19.6880   -8.2991   26.2404 C   0  0  0  0  0  0  0  0  0  0  0  0
  -23.6657  -11.3680   21.4027 C   0  0  0  0  0  0  0  0  0  0  0  0
  -24.9208  -10.6701   19.2943 C   0  0  0  0  0  0  0  0  0  0  0  0
  -19.3827  -25.8393   22.8229 C   0  0  0  0  0  0  0  0  0  0  0  0
  -25.6604  -27.7727   23.8358 C   0  0  0  0  0  0  0  0  0  0  0  0
  -20.6830  -26.1034   22.3520 C   0  0  0  0  0  0  0  0  0  0  0  0
  -26.3532  -28.5816   22.9237 C   0  0  0  0  0  0  0  0  0  0  0  0
  -26.9709  -20.7349   17.8164 C   0  0  0  0  0  0  0  0  0  0  0  0
  -28.1744  -20.4263   18.4503 C   0  0  0  0  0  0  0  0  0  0  0  0
  -27.6392  -18.0739   18.3214 C   0  0  0  0  0  0  0  0  0  0  0  0
  -21.5510  -11.2410   23.2177 C   0  0  0  0  0  0  0  0  0  0  0  0
  -27.9379  -26.7771   22.5461 C   0  0  0  0  0  0  0  0  0  0  0  0
  -20.0840   -9.9251   24.4979 C   0  0  0  0  0  0  0  0  0  0  0  0
  -19.2057   -7.3987   25.2905 C   0  0  0  0  0  0  0  0  0  0  0  0
  -20.1272   -9.5623   25.8440 C   0  0  0  0  0  0  0  0  0  0  0  0
  -24.7579  -11.4345   20.4652 C   0  0  0  0  0  0  0  0  0  0  0  0
  -26.1086  -11.1078   18.7611 C   0  0  0  0  0  0  0  0  0  0  0  0
  -24.0742   -9.6554   18.7382 C   0  0  0  0  0  0  0  0  0  0  0  0
  -29.9125  -24.5767   20.4498 C   0  0  0  0  0  0  0  0  0  0  0  0
  -22.9796  -28.9844   22.6319 C   0  0  0  0  0  0  0  0  0  0  0  0
  -24.3639  -31.8104   23.4192 C   0  0  0  0  0  0  0  0  0  0  0  0
  -27.2269  -33.5591   24.0456 C   0  0  0  0  0  0  0  0  0  0  0  0
  -29.1323  -16.2432   19.1962 C   0  0  0  0  0  0  0  0  0  0  0  0
  -18.3213  -26.9100   22.8646 C   0  0  0  0  0  0  0  0  0  0  0  0
  -24.4536  -28.3029   24.5604 C   0  0  0  0  0  0  0  0  0  0  0  0
  -25.9062  -29.9851   22.6097 C   0  0  0  0  0  0  0  0  0  0  0  0
  -18.8825  -28.3273   22.7845 C   0  0  0  0  0  0  0  0  0  0  0  0
  -30.3192  -12.9949   20.0431 C   0  0  0  0  0  0  0  0  0  0  0  0
  -19.9216  -28.4281   21.6724 C   0  0  0  0  0  0  0  0  0  0  0  0
  -29.0431  -12.1552   20.1349 C   0  0  0  0  0  0  0  0  0  0  0  0
  -30.8505  -22.9309   18.8150 C   0  0  0  0  0  0  0  0  0  0  0  0
  -30.1039  -14.4132   20.5682 C   0  0  0  0  0  0  0  0  0  0  0  0
  -30.4173  -21.5440   18.3490 C   0  0  0  0  0  0  0  0  0  0  0  0
  -28.7171  -22.4711   19.7980 C   0  0  0  0  0  0  0  0  0  0  0  0
  -27.6962  -14.2923   20.0606 C   0  0  0  0  0  0  0  0  0  0  0  0
  -21.1093  -27.4961   21.9410 C   0  0  1  0  0  0  0  0  0  0  0  0
  -30.0638  -23.1312   20.1023 C   0  0  2  0  0  0  0  0  0  0  0  0
  -23.7696  -29.4496   23.8224 C   0  0  1  0  0  0  0  0  0  0  0  0
  -27.8464  -12.8754   19.4831 C   0  0  2  0  0  0  0  0  0  0  0  0
  -26.5876  -22.1511   17.5339 C   0  0  0  0  0  0  0  0  0  0  0  0
  -28.0427  -35.8605   24.6246 C   0  0  0  0  0  0  0  0  0  0  0  0
  -23.9016  -32.6969   20.5364 C   0  0  0  0  0  0  0  0  0  0  0  0
  -25.5412  -34.5503   20.9168 C   0  0  0  0  0  0  0  0  0  0  0  0
  -23.4382  -34.4536   22.2550 C   0  0  0  0  0  0  0  0  0  0  0  0
  -28.4091  -32.6252   26.5930 C   0  0  0  0  0  0  0  0  0  0  0  0
  -29.0986  -24.8871   21.6880 C   0  0  0  0  0  0  0  0  0  1  0  0
  -25.2798  -32.7843   22.7179 C   0  0  1  0  0  0  0  0  0  0  0  0
  -27.6009  -34.5105   25.1678 C   0  0  2  0  0  0  0  0  0  0  0  0
  -24.5477  -33.5942   21.6108 C   0  0  0  0  0  0  0  0  0  0  0  0
  -25.7619  -12.2925   20.6648 N   0  0  0  0  0  0  0  0  0  0  0  0
  -26.5672  -12.0699   19.6121 N   0  0  0  0  0  0  0  0  0  0  0  0
  -29.0455  -21.4242   18.8330 N   0  0  3  0  0  0  0  0  0  0  0  0
  -24.7172  -30.4560   23.3393 N   0  0  0  0  0  0  0  0  0  0  0  0
  -28.9568  -15.0345   19.9026 N   0  0  0  0  0  0  0  0  0  0  0  0
  -26.7950  -10.7595   17.6521 N   0  0  0  0  0  0  0  0  0  0  0  0
  -22.8909   -9.3282   19.4143 N   0  0  0  0  0  0  0  0  0  0  0  0
  -27.9782  -16.7221   18.5771 N   0  0  0  0  0  0  0  0  0  0  0  0
  -21.9881  -28.0714   22.9365 N   0  0  0  0  0  0  0  0  0  0  0  0
  -25.8781  -33.6073   23.7634 N   0  0  0  0  0  0  0  0  0  0  0  0
  -28.7150  -33.9428   25.9786 N   0  3  0  0  0  0  0  0  0  0  0  0
  -24.3668   -9.0449   17.6822 O   0  0  0  0  0  0  0  0  0  0  0  0
  -30.4253  -25.4568   19.7601 O   0  0  0  0  0  0  0  0  0  0  0  0
  -23.2488  -29.4226   21.5196 O   0  0  0  0  0  0  0  0  0  0  0  0
  -23.3755  -32.2365   24.0218 O   0  0  0  0  0  0  0  0  0  0  0  0
  -28.0496  -32.8472   23.4739 O   0  0  0  0  0  0  0  0  0  0  0  0
  -30.2320  -16.7973   19.1215 O   0  0  0  0  0  0  0  0  0  0  0  0
  -20.5189  -11.1791   24.1029 O   0  0  0  0  0  0  0  0  0  0  0  0
  -29.0424  -26.2949   21.9142 O   0  0  0  0  0  0  0  0  0  1  0  0
  -18.7825   -6.1862   25.6711 F   0  0  0  0  0  0  0  0  0  0  0  0
  -20.5886  -10.4235   26.7613 F   0  0  0  0  0  0  0  0  0  0  0  0
  1  2  1  0  0  0  0
  1  5  2  0  0  0  0
  2  6  2  0  0  0  0
  3 10  2  0  0  0  0
  3 18  1  0  0  0  0
  4 11  1  0  0  0  0
  4 18  2  0  0  0  0
  5 20  1  0  0  0  0
  6 22  1  0  0  0  0
  7 12  2  0  0  0  0
  7 21  1  0  0  0  0
  8  9  2  0  0  0  0
  8 24  1  0  0  0  0
  9 26  1  0  0  0  0
 10 27  1  0  0  0  0
 11 27  2  0  0  0  0
 12 28  1  0  0  0  0
 13 14  2  0  0  0  0
 13 29  1  0  0  0  0
 14 30  1  0  0  0  0
 15 23  1  0  0  0  0
 15 28  2  0  0  0  0
 16 25  1  0  0  0  0
 16 26  2  0  0  0  0
 17 30  2  0  0  0  0
 17 31  1  0  0  0  0
 18 32  1  0  0  0  0
 19 32  1  0  0  0  0
 19 33  2  0  0  0  0
 19 34  1  0  0  0  0
 20 22  2  0  0  0  0
 20 40  1  0  0  0  0
 21 23  2  0  0  0  0
 21 41  1  0  0  0  0
 22 52  1  0  0  0  0
 23 42  1  0  0  0  0
 24 25  2  0  0  0  0
 24 56  1  0  0  0  0
 25 68  1  0  0  0  0
 26 73  1  0  0  0  0
 27 83  1  0  0  0  0
 28 84  1  0  0  0  0
 29 31  2  0  0  0  0
 29 83  1  0  0  0  0
 30 85  1  0  0  0  0
 31 86  1  0  0  0  0
 32 66  2  0  0  0  0
 33 67  1  0  0  0  0
 33 71  1  0  0  0  0
 34 72  1  0  0  0  0
 34 77  2  0  0  0  0
 35 53  1  0  0  0  0
 35 62  1  0  0  0  0
 35 78  2  0  0  0  0
 36 54  1  0  0  0  0
 36 74  1  0  0  0  0
 36 79  2  0  0  0  0
 37 63  1  0  0  0  0
 37 69  1  0  0  0  0
 37 80  2  0  0  0  0
 38 64  1  0  0  0  0
 38 75  1  0  0  0  0
 38 81  2  0  0  0  0
 39 70  1  0  0  0  0
 39 73  1  0  0  0  0
 39 82  2  0  0  0  0
 40 43  1  0  0  0  0
 41 54  1  0  0  0  0
 42 69  1  0  0  0  0
 43 45  1  0  0  0  0
 44 46  1  0  0  0  0
 44 48  1  0  0  0  0
 45 52  1  0  0  0  0
 46 55  1  0  0  0  0
 47 49  1  0  0  0  0
 47 53  1  0  0  0  0
 48 70  1  0  0  0  0
 49 68  1  0  0  0  0
 50 53  1  0  0  0  0
 50 68  1  0  0  0  0
 51 55  1  0  0  0  0
 51 70  1  0  0  0  0
 52 74  1  0  0  0  0
 54 69  1  0  0  0  0
 55 67  1  0  0  0  0
 57 64  1  0  0  0  0
 58 65  1  0  0  0  0
 59 65  1  0  0  0  0
 60 65  1  0  0  0  0
 61 76  1  0  0  0  0
 62 84  1  0  0  0  0
 63 65  1  0  0  0  0
 63 75  1  0  0  0  0
 64 76  1  0  0  0  0
 66 67  1  0  0  0  0
M  CHG  1  76   1
M  ISO  4  39 100  62 101  73 100  84 101
M  END
> <Batch ID>
0143

> <Smiles>
CNC(C)C(=O)NC(C(=O)N1Cc2cc([101O:1][101CH2:1]C(=O)C3CCN(c4cc([100NH:0][100C:0](=O)N5CCCC(n6nc(-c7ccc(Oc8ccc(F)cc8F)cc7)c(C(N)=O)c6N)C5)ccc4C)C3)ccc2CC1C(=O)NC1CCCc2ccccc21)C(C)(C)C

> <Shape>
0.261

> <Color>
0.090

> <Negative vol penalty>
0.000

$$$$

  -OEChem-04052303003D

 91 99  0     1  0  0  0  0  0999 V2000
  -29.0568  -36.9643   21.5287 C   0  0  0  0  0  0  0  0  0  0  0  0
  -29.3583  -35.6328   21.2611 C   0  0  0  0  0  0  0  0  0  0  0  0
  -24.6668   -8.7451   21.4074 C   0  0  0  0  0  0  0  0  0  0  0  0
  -22.9215  -10.3962   21.1530 C   0  0  0  0  0  0  0  0  0  0  0  0
  -28.0034  -37.2806   22.3856 C   0  0  0  0  0  0  0  0  0  0  0  0
  -28.6073  -34.6168   21.8512 C   0  0  0  0  0  0  0  0  0  0  0  0
  -27.1409  -29.2104   19.3760 C   0  0  0  0  0  0  0  0  0  0  0  0
  -23.9135   -8.0999   22.3880 C   0  0  0  0  0  0  0  0  0  0  0  0
  -22.1681   -9.7509   22.1336 C   0  0  0  0  0  0  0  0  0  0  0  0
  -27.6928  -27.9371   19.5094 C   0  0  0  0  0  0  0  0  0  0  0  0
  -21.2765   -5.9873   22.5153 C   0  0  0  0  0  0  0  0  0  0  0  0
  -21.1785   -4.5976   22.4475 C   0  0  0  0  0  0  0  0  0  0  0  0
  -24.5141  -19.7842   20.3704 C   0  0  0  0  0  0  0  0  0  0  0  0
  -26.0482  -27.4073   21.1929 C   0  0  0  0  0  0  0  0  0  0  0  0
  -22.1930   -4.4196   24.6330 C   0  0  0  0  0  0  0  0  0  0  0  0
  -24.1708   -9.8934   20.7899 C   0  0  0  0  0  0  0  0  0  0  0  0
  -24.6888  -18.4656   19.8597 C   0  0  0  0  0  0  0  0  0  0  0  0
  -24.9237  -10.3208   18.3902 C   0  0  0  0  0  0  0  0  0  0  0  0
  -27.2330  -36.2681   22.9789 C   0  0  0  0  0  0  0  0  0  0  0  0
  -26.0434  -29.5962   20.1591 C   0  0  0  0  0  0  0  0  0  0  0  0
  -27.5435  -34.9199   22.7179 C   0  0  0  0  0  0  0  0  0  0  0  0
  -25.4826  -28.6852   21.0656 C   0  0  0  0  0  0  0  0  0  0  0  0
  -22.6642   -8.6027   22.7511 C   0  0  0  0  0  0  0  0  0  0  0  0
  -27.1483  -27.0363   20.4200 C   0  0  0  0  0  0  0  0  0  0  0  0
  -21.8328   -6.5932   23.6418 C   0  0  0  0  0  0  0  0  0  0  0  0
  -21.6367   -3.8137   23.5064 C   0  0  0  0  0  0  0  0  0  0  0  0
  -22.2910   -5.8094   24.7007 C   0  0  0  0  0  0  0  0  0  0  0  0
  -24.9488  -10.5607   19.7772 C   0  0  0  0  0  0  0  0  0  0  0  0
  -25.6902  -20.3103   20.8580 C   0  0  0  0  0  0  0  0  0  0  0  0
  -25.8363  -11.2068   17.8719 C   0  0  0  0  0  0  0  0  0  0  0  0
  -25.9920  -18.0341   19.9761 C   0  0  0  0  0  0  0  0  0  0  0  0
  -23.6434  -17.6583   19.2849 C   0  0  0  0  0  0  0  0  0  0  0  0
  -24.1451   -9.3810   17.6377 C   0  0  0  0  0  0  0  0  0  0  0  0
  -25.5274  -31.8461   22.3444 C   0  0  0  0  0  0  0  0  0  0  0  0
  -28.2713  -23.8089   21.8099 C   0  0  0  0  0  0  0  0  0  0  0  0
  -22.4716  -30.7728   22.1630 C   0  0  0  0  0  0  0  0  0  0  0  0
  -20.3374  -28.2221   21.3975 C   0  0  0  0  0  0  0  0  0  0  0  0
  -27.9512  -16.4645   19.7663 C   0  0  0  0  0  0  0  0  0  0  0  0
  -26.1342  -36.6583   23.9355 C   0  0  0  0  0  0  0  0  0  0  0  0
  -25.4430  -30.9641   19.9841 C   0  0  0  0  0  0  0  0  0  0  0  0
  -24.2917  -29.0433   21.9153 C   0  0  0  0  0  0  0  0  0  0  0  0
  -25.1496  -35.5284   24.2256 C   0  0  0  0  0  0  0  0  0  0  0  0
  -29.8527  -13.5478   19.0218 C   0  0  0  0  0  0  0  0  0  0  0  0
  -25.8968  -34.2325   24.5239 C   0  0  0  0  0  0  0  0  0  0  0  0
  -28.8077  -12.4299   18.9988 C   0  0  0  0  0  0  0  0  0  0  0  0
  -29.5465  -14.5883   20.0976 C   0  0  0  0  0  0  0  0  0  0  0  0
  -27.1469  -14.0351   20.0245 C   0  0  0  0  0  0  0  0  0  0  0  0
  -26.7363  -33.7900   23.3193 C   0  0  1  0  0  0  0  0  0  0  0  0
  -24.6475  -31.4276   21.2005 C   0  0  1  0  0  0  0  0  0  0  0  0
  -27.3772  -12.9973   18.9138 C   0  0  2  0  0  0  0  0  0  0  0  0
  -22.2559  -18.2437   19.2137 C   0  0  0  0  0  0  0  0  0  0  0  0
  -25.1074  -22.7649   20.7591 C   0  0  0  0  0  0  0  0  0  0  0  0
  -17.8989  -27.6296   21.3881 C   0  0  0  0  0  0  0  0  0  0  0  0
  -29.0301  -21.6509   22.8730 C   0  0  0  0  0  0  0  0  0  0  0  0
  -29.0885  -23.7592   24.1614 C   0  0  0  0  0  0  0  0  0  0  0  0
  -22.5485  -30.4185   25.1926 C   0  0  0  0  0  0  0  0  0  0  0  0
  -20.5120  -28.9743   25.0055 C   0  0  0  0  0  0  0  0  0  0  0  0
  -20.4105  -31.3669   24.3071 C   0  0  0  0  0  0  0  0  0  0  0  0
  -24.3700  -22.1236   23.4440 C   0  0  0  0  0  0  0  0  0  0  0  0
  -26.0418  -20.2919   23.6143 C   0  0  0  0  0  0  0  0  0  0  0  0
  -20.3345  -27.7907   18.4696 C   0  0  0  0  0  0  0  0  0  0  0  0
  -27.5908  -25.1705   21.8267 C   0  0  0  0  0  0  0  0  0  1  0  0
  -26.8417  -22.7480   23.6888 C   0  0  0  0  0  0  0  0  0  0  0  0
  -25.9311  -21.6831   21.4861 C   0  0  1  0  0  0  0  0  0  0  0  0
  -21.6683  -29.7089   22.8714 C   0  0  1  0  0  0  0  0  0  0  0  0
  -19.0589  -28.1896   20.5797 C   0  0  2  0  0  0  0  0  0  0  0  0
  -28.2735  -22.9680   23.1095 C   0  0  0  0  0  0  0  0  0  0  0  0
  -21.3085  -30.1108   24.3297 C   0  0  0  0  0  0  0  0  0  0  0  0
  -25.8226  -21.7222   23.0788 C   0  0  0  0  0  0  0  0  0  0  0  0
  -25.8092  -11.5236   20.1184 N   0  0  0  0  0  0  0  0  0  0  0  0
  -26.3334  -11.8965   18.9384 N   0  0  0  0  0  0  0  0  0  0  0  0
  -23.7443  -30.3948   21.7122 N   0  0  0  0  0  0  0  0  0  0  0  0
  -28.1762  -15.0840   19.9519 N   0  0  0  0  0  0  0  0  0  0  0  0
  -26.2540  -11.4554   16.6125 N   0  0  0  0  0  0  0  0  0  0  0  0
  -23.2557   -8.5460   18.3277 N   0  0  0  0  0  0  0  0  0  0  0  0
  -26.6107  -16.8140   19.6070 N   0  0  0  0  0  0  0  0  0  0  0  0
  -25.8942  -33.1780   22.3140 N   0  0  0  0  0  0  0  0  0  0  0  0
  -20.5123  -29.4381   22.0237 N   0  0  0  0  0  0  0  0  0  0  0  0
  -19.2404  -27.3408   19.3682 N   0  3  0  0  0  0  0  0  0  0  0  0
  -23.7830  -16.5078   18.8417 O   0  0  0  0  0  0  0  0  0  0  0  0
  -24.2473   -9.2733   16.3921 O   0  0  0  0  0  0  0  0  0  0  0  0
  -25.8484  -31.0219   23.1926 O   0  0  0  0  0  0  0  0  0  0  0  0
  -28.8207  -23.4036   20.7820 O   0  0  0  0  0  0  0  0  0  0  0  0
  -21.9849  -31.8957   22.0087 O   0  0  0  0  0  0  0  0  0  0  0  0
  -21.1024  -27.2634   21.4762 O   0  0  0  0  0  0  0  0  0  0  0  0
  -28.8816  -17.2735   19.7227 O   0  0  0  0  0  0  0  0  0  0  0  0
  -21.9287   -7.9731   23.7079 O   0  0  0  0  0  0  0  0  0  0  0  0
  -27.6904  -25.7816   20.5540 O   0  0  0  0  0  0  0  0  0  1  0  0
  -21.5412   -2.4792   23.4419 F   0  0  0  0  0  0  0  0  0  0  0  0
  -22.8254   -6.3858   25.7861 F   0  0  0  0  0  0  0  0  0  0  0  0
  -26.9980  -19.2163   20.6990 S   0  0  0  0  0  0  0  0  0  0  0  0
  1  2  1  0  0  0  0
  1  5  2  0  0  0  0
  2  6  2  0  0  0  0
  3  8  2  0  0  0  0
  3 16  1  0  0  0  0
  4  9  1  0  0  0  0
  4 16  2  0  0  0  0
  5 19  1  0  0  0  0
  6 21  1  0  0  0  0
  7 10  2  0  0  0  0
  7 20  1  0  0  0  0
  8 23  1  0  0  0  0
  9 23  2  0  0  0  0
 10 24  1  0  0  0  0
 11 12  2  0  0  0  0
 11 25  1  0  0  0  0
 12 26  1  0  0  0  0
 13 17  1  0  0  0  0
 13 29  2  0  0  0  0
 14 22  1  0  0  0  0
 14 24  2  0  0  0  0
 15 26  2  0  0  0  0
 15 27  1  0  0  0  0
 16 28  1  0  0  0  0
 17 31  2  0  0  0  0
 17 32  1  0  0  0  0
 18 28  1  0  0  0  0
 18 30  2  0  0  0  0
 18 33  1  0  0  0  0
 19 21  2  0  0  0  0
 19 39  1  0  0  0  0
 20 22  2  0  0  0  0
 20 40  1  0  0  0  0
 21 48  1  0  0  0  0
 22 41  1  0  0  0  0
 23 87  1  0  0  0  0
 24 88  1  0  0  0  0
 25 27  2  0  0  0  0
 25 87  1  0  0  0  0
 26 89  1  0  0  0  0
 27 90  1  0  0  0  0
 28 70  2  0  0  0  0
 29 64  1  0  0  0  0
 29 91  1  0  0  0  0
 30 71  1  0  0  0  0
 30 74  1  0  0  0  0
 31 76  1  0  0  0  0
 31 91  1  0  0  0  0
 32 51  1  0  0  0  0
 32 80  2  0  0  0  0
 33 75  1  0  0  0  0
 33 81  2  0  0  0  0
 34 49  1  0  0  0  0
 34 77  1  0  0  0  0
 34 82  2  0  0  0  0
 35 62  1  0  0  0  0
 35 67  1  0  0  0  0
 35 83  2  0  0  0  0
 36 65  1  0  0  0  0
 36 72  1  0  0  0  0
 36 84  2  0  0  0  0
 37 66  1  0  0  0  0
 37 78  1  0  0  0  0
 37 85  2  0  0  0  0
 38 73  1  0  0  0  0
 38 76  1  0  0  0  0
 38 86  2  0  0  0  0
 39 42  1  0  0  0  0
 40 49  1  0  0  0  0
 41 72  1  0  0  0  0
 42 44  1  0  0  0  0
 43 45  1  0  0  0  0
 43 46  1  0  0  0  0
 44 48  1  0  0  0  0
 45 50  1  0  0  0  0
 46 73  1  0  0  0  0
 47 50  1  0  0  0  0
 47 73  1  0  0  0  0
 48 77  1  0  0  0  0
 49 72  1  0  0  0  0
 50 71  1  0  0  0  0
 52 64  1  0  0  0  0
 53 66  1  0  0  0  0
 54 67  1  0  0  0  0
 55 67  1  0  0  0  0
 56 68  1  0  0  0  0
 57 68  1  0  0  0  0
 58 68  1  0  0  0  0
 59 69  1  0  0  0  0
 60 69  1  0  0  0  0
 61 79  1  0  0  0  0
 62 88  1  0  0  0  0
 63 67  1  0  0  0  0
 63 69  1  0  0  0  0
 64 69  1  0  0  0  0
 65 68  1  0  0  0  0
 65 78  1  0  0  0  0
 66 79  1  0  0  0  0
 70 71  1  0  0  0  0
M  CHG  1  79   1
M  ISO  4  38 100  62 101  76 100  88 101
M  END
> <Batch ID>
0143

> <Smiles>
CNC(C)C(=O)NC(C(=O)N1Cc2cc([101O:1][101CH2:1]C(=O)C(C)(C)CC(C)(C)C(C)c3cc(C(C)=O)c([100NH:0][100C:0](=O)N4CCCC(n5nc(-c6ccc(Oc7ccc(F)cc7F)cc6)c(C(N)=O)c5N)C4)s3)ccc2CC1C(=O)NC1CCCc2ccccc21)C(C)(C)C

> <Shape>
0.280

> <Color>
0.092

> <Negative vol penalty>
0.000

$$$$

  -OEChem-04052303003D

 82 91  0     1  0  0  0  0  0999 V2000
  -17.5067  -29.3644   27.5154 C   0  0  0  0  0  0  0  0  0  0  0  0
  -18.1222  -28.1188   27.4440 C   0  0  0  0  0  0  0  0  0  0  0  0
  -23.1870   -9.6983   19.9751 C   0  0  0  0  0  0  0  0  0  0  0  0
  -23.6430  -10.0431   22.3225 C   0  0  0  0  0  0  0  0  0  0  0  0
  -17.5381  -30.2203   26.4152 C   0  0  0  0  0  0  0  0  0  0  0  0
  -18.7687  -27.7280   26.2720 C   0  0  0  0  0  0  0  0  0  0  0  0
  -23.8196  -24.2939   25.8232 C   0  0  0  0  0  0  0  0  0  0  0  0
  -22.4492   -8.5561   20.2862 C   0  0  0  0  0  0  0  0  0  0  0  0
  -22.9052   -8.9009   22.6336 C   0  0  0  0  0  0  0  0  0  0  0  0
  -24.0117  -22.9376   25.5641 C   0  0  0  0  0  0  0  0  0  0  0  0
  -23.3577   -5.5508   22.5775 C   0  0  0  0  0  0  0  0  0  0  0  0
  -23.9032   -4.6584   23.5003 C   0  0  0  0  0  0  0  0  0  0  0  0
  -31.4834  -17.8212   21.6739 C   0  0  0  0  0  0  0  0  0  0  0  0
  -24.3653  -23.4394   23.2312 C   0  0  0  0  0  0  0  0  0  0  0  0
  -21.9910   -4.9797   24.9415 C   0  0  0  0  0  0  0  0  0  0  0  0
  -31.5987  -19.1248   22.1039 C   0  0  0  0  0  0  0  0  0  0  0  0
  -23.7839  -10.4417   20.9933 C   0  0  0  0  0  0  0  0  0  0  0  0
  -24.0684  -12.9415   20.5718 C   0  0  0  0  0  0  0  0  0  0  0  0
  -18.1936  -29.8436   25.2323 C   0  0  0  0  0  0  0  0  0  0  0  0
  -23.8882  -25.2336   24.7846 C   0  0  0  0  0  0  0  0  0  0  0  0
  -18.8078  -28.5791   25.1545 C   0  0  0  0  0  0  0  0  0  0  0  0
  -24.1762  -24.8074   23.4802 C   0  0  0  0  0  0  0  0  0  0  0  0
  -30.1768  -17.2980   21.8955 C   0  0  0  0  0  0  0  0  0  0  0  0
  -22.3083   -8.1574   21.6154 C   0  0  0  0  0  0  0  0  0  0  0  0
  -24.2817  -22.5098   24.2675 C   0  0  0  0  0  0  0  0  0  0  0  0
  -22.1289   -6.1579   22.8368 C   0  0  0  0  0  0  0  0  0  0  0  0
  -23.2198   -4.3728   24.6823 C   0  0  0  0  0  0  0  0  0  0  0  0
  -21.4455   -5.8723   24.0188 C   0  0  0  0  0  0  0  0  0  0  0  0
  -24.5466  -11.6214   20.6726 C   0  0  0  0  0  0  0  0  0  0  0  0
  -29.3431  -18.2217   22.4868 C   0  0  0  0  0  0  0  0  0  0  0  0
  -25.1772  -13.6847   20.2481 C   0  0  0  0  0  0  0  0  0  0  0  0
  -22.7406  -13.4506   20.7545 C   0  0  0  0  0  0  0  0  0  0  0  0
  -21.8482  -27.2991   23.4900 C   0  0  0  0  0  0  0  0  0  0  0  0
  -24.4660  -28.2420   21.8225 C   0  0  0  0  0  0  0  0  0  0  0  0
  -27.5522  -27.4634   20.5913 C   0  0  0  0  0  0  0  0  0  0  0  0
  -30.5436  -14.9890   20.9572 C   0  0  0  0  0  0  0  0  0  0  0  0
  -18.1604  -30.7834   24.0532 C   0  0  0  0  0  0  0  0  0  0  0  0
  -23.7051  -26.6960   25.0851 C   0  0  0  0  0  0  0  0  0  0  0  0
  -24.2805  -25.7783   22.3335 C   0  0  0  0  0  0  0  0  0  0  0  0
  -19.1884  -30.4461   22.9763 C   0  0  0  0  0  0  0  0  0  0  0  0
  -29.8126  -12.2350   18.8222 C   0  0  0  0  0  0  0  0  0  0  0  0
  -19.1693  -28.9520   22.6693 C   0  0  0  0  0  0  0  0  0  0  0  0
  -27.7218  -18.3131   24.3950 C   0  0  0  0  0  0  0  0  0  0  0  0
  -26.8517  -19.5609   24.5083 C   0  0  0  0  0  0  0  0  0  0  0  0
  -28.3381  -11.9385   19.1050 C   0  0  0  0  0  0  0  0  0  0  0  0
  -27.0340  -19.1169   22.1765 C   0  0  0  0  0  0  0  0  0  0  0  0
  -30.5577  -12.6620   20.0857 C   0  0  0  0  0  0  0  0  0  0  0  0
  -28.4686  -13.4765   21.1061 C   0  0  0  0  0  0  0  0  0  0  0  0
  -19.5404  -28.1293   23.9090 C   0  0  1  0  0  0  0  0  0  0  0  0
  -27.9242  -18.0778   22.8834 C   0  0  1  0  0  0  0  0  0  0  0  0
  -23.2883  -27.5094   23.8636 C   0  0  1  0  0  0  0  0  0  0  0  0
  -26.0130  -19.5287   23.2353 C   0  0  2  0  0  0  0  0  0  0  0  0
  -27.6617  -13.1051   19.8512 C   0  0  2  0  0  0  0  0  0  0  0  0
  -29.4327  -28.4254   19.2364 C   0  0  0  0  0  0  0  0  0  0  0  0
  -22.8356  -27.8356   19.2757 C   0  0  0  0  0  0  0  0  0  0  0  0
  -24.9779  -27.8775   17.9807 C   0  0  0  0  0  0  0  0  0  0  0  0
  -24.2690  -29.8849   19.2809 C   0  0  0  0  0  0  0  0  0  0  0  0
  -29.4629  -27.1898   22.8348 C   0  0  0  0  0  0  0  0  0  0  0  0
  -25.3399  -20.8503   22.9325 C   0  0  0  0  0  0  0  0  0  1  0  0
  -25.1015  -27.8405   20.5134 C   0  0  1  0  0  0  0  0  0  0  0  0
  -28.8720  -28.2123   20.6339 C   0  0  2  0  0  0  0  0  0  0  0  0
  -24.2922  -28.3409   19.2837 C   0  0  0  0  0  0  0  0  0  0  0  0
  -25.8572  -11.5279   20.4322 N   0  0  0  0  0  0  0  0  0  0  0  0
  -26.2119  -12.7989   20.1771 N   0  0  0  0  0  0  0  0  0  0  0  0
  -24.0873  -27.1968   22.6769 N   0  0  0  0  0  0  0  0  0  0  0  0
  -29.8615  -13.7738   20.7368 N   0  0  0  0  0  0  0  0  0  0  0  0
  -25.3583  -15.0028   20.0200 N   0  0  0  0  0  0  0  0  0  0  0  0
  -21.7190  -12.5496   21.0845 N   0  0  0  0  0  0  0  0  0  0  0  0
  -29.7703  -15.9843   21.5539 N   0  0  0  0  0  0  0  0  0  0  0  0
  -20.9711  -28.1577   24.1248 N   0  0  0  0  0  0  0  0  0  0  0  0
  -26.4765  -28.3255   20.5613 N   0  0  0  0  0  0  0  0  0  0  0  0
  -29.8743  -27.4505   21.4313 N   0  3  0  0  0  0  0  0  0  0  0  0
  -22.4649  -14.6661   20.6127 O   0  0  0  0  0  0  0  0  0  0  0  0
  -21.5547  -26.4237   22.6843 O   0  0  0  0  0  0  0  0  0  0  0  0
  -24.3178  -29.4391   22.0808 O   0  0  0  0  0  0  0  0  0  0  0  0
  -27.4826  -26.2364   20.5816 O   0  0  0  0  0  0  0  0  0  0  0  0
  -31.7187  -15.1449   20.6152 O   0  0  0  0  0  0  0  0  0  0  0  0
  -21.5883   -7.0431   21.9193 O   0  0  0  0  0  0  0  0  0  0  0  0
  -24.4690  -21.1864   24.0118 O   0  0  0  0  0  0  0  0  0  1  0  0
  -23.7431   -3.5145   25.5676 F   0  0  0  0  0  0  0  0  0  0  0  0
  -20.2640   -6.4514   24.2728 F   0  0  0  0  0  0  0  0  0  0  0  0
  -30.1356  -19.7127   22.7719 S   0  0  0  0  0  0  0  0  0  0  0  0
  1  2  1  0  0  0  0
  1  5  2  0  0  0  0
  2  6  2  0  0  0  0
  3  8  2  0  0  0  0
  3 17  1  0  0  0  0
  4  9  1  0  0  0  0
  4 17  2  0  0  0  0
  5 19  1  0  0  0  0
  6 21  1  0  0  0  0
  7 10  2  0  0  0  0
  7 20  1  0  0  0  0
  8 24  1  0  0  0  0
  9 24  2  0  0  0  0
 10 25  1  0  0  0  0
 11 12  2  0  0  0  0
 11 26  1  0  0  0  0
 12 27  1  0  0  0  0
 13 16  2  0  0  0  0
 13 23  1  0  0  0  0
 14 22  1  0  0  0  0
 14 25  2  0  0  0  0
 15 27  2  0  0  0  0
 15 28  1  0  0  0  0
 16 82  1  0  0  0  0
 17 29  1  0  0  0  0
 18 29  1  0  0  0  0
 18 31  2  0  0  0  0
 18 32  1  0  0  0  0
 19 21  2  0  0  0  0
 19 37  1  0  0  0  0
 20 22  2  0  0  0  0
 20 38  1  0  0  0  0
 21 49  1  0  0  0  0
 22 39  1  0  0  0  0
 23 30  2  0  0  0  0
 23 69  1  0  0  0  0
 24 78  1  0  0  0  0
 25 79  1  0  0  0  0
 26 28  2  0  0  0  0
 26 78  1  0  0  0  0
 27 80  1  0  0  0  0
 28 81  1  0  0  0  0
 29 63  2  0  0  0  0
 30 50  1  0  0  0  0
 30 82  1  0  0  0  0
 31 64  1  0  0  0  0
 31 67  1  0  0  0  0
 32 68  1  0  0  0  0
 32 73  2  0  0  0  0
 33 51  1  0  0  0  0
 33 70  1  0  0  0  0
 33 74  2  0  0  0  0
 34 60  1  0  0  0  0
 34 65  1  0  0  0  0
 34 75  2  0  0  0  0
 35 61  1  0  0  0  0
 35 71  1  0  0  0  0
 35 76  2  0  0  0  0
 36 66  1  0  0  0  0
 36 69  1  0  0  0  0
 36 77  2  0  0  0  0
 37 40  1  0  0  0  0
 38 51  1  0  0  0  0
 39 65  1  0  0  0  0
 40 42  1  0  0  0  0
 41 45  1  0  0  0  0
 41 47  1  0  0  0  0
 42 49  1  0  0  0  0
 43 44  1  0  0  0  0
 43 50  1  0  0  0  0
 44 52  1  0  0  0  0
 45 53  1  0  0  0  0
 46 50  1  0  0  0  0
 46 52  1  0  0  0  0
 47 66  1  0  0  0  0
 48 53  1  0  0  0  0
 48 66  1  0  0  0  0
 49 70  1  0  0  0  0
 51 65  1  0  0  0  0
 52 59  1  0  0  0  0
 53 64  1  0  0  0  0
 54 61  1  0  0  0  0
 55 62  1  0  0  0  0
 56 62  1  0  0  0  0
 57 62  1  0  0  0  0
 58 72  1  0  0  0  0
 59 79  1  0  0  0  0
 60 62  1  0  0  0  0
 60 71  1  0  0  0  0
 61 72  1  0  0  0  0
 63 64  1  0  0  0  0
M  CHG  1  72   1
M  ISO  4  36 100  59 101  69 100  79 101
M  END
> <Batch ID>
0143

> <Smiles>
CNC(C)C(=O)NC(C(=O)N1Cc2cc([101O:1][101CH2:1]C3CCC(c4sccc4[100NH:0][100C:0](=O)N4CCCC(n5nc(-c6ccc(Oc7ccc(F)cc7F)cc6)c(C(N)=O)c5N)C4)C3)ccc2CC1C(=O)NC1CCCc2ccccc21)C(C)(C)C

> <Shape>
0.288

> <Color>
0.195

> <Negative vol penalty>
0.000

$$$$

  -OEChem-04052303003D

 88 96  0     1  0  0  0  0  0999 V2000
  -29.8020  -31.6800   16.1454 C   0  0  0  0  0  0  0  0  0  0  0  0
  -29.3606  -30.5180   16.7701 C   0  0  0  0  0  0  0  0  0  0  0  0
  -23.3234   -9.6041   20.7598 C   0  0  0  0  0  0  0  0  0  0  0  0
  -23.8985  -10.3038   22.9997 C   0  0  0  0  0  0  0  0  0  0  0  0
  -29.8752  -32.8721   16.8648 C   0  0  0  0  0  0  0  0  0  0  0  0
  -28.9932  -30.5471   18.1149 C   0  0  0  0  0  0  0  0  0  0  0  0
  -24.6745  -28.0564   19.0034 C   0  0  0  0  0  0  0  0  0  0  0  0
  -22.6601   -8.4917   21.2776 C   0  0  0  0  0  0  0  0  0  0  0  0
  -23.2351   -9.1914   23.5175 C   0  0  0  0  0  0  0  0  0  0  0  0
  -24.7418  -26.6650   19.0594 C   0  0  0  0  0  0  0  0  0  0  0  0
  -23.4801   -5.4488   22.4993 C   0  0  0  0  0  0  0  0  0  0  0  0
  -23.7050   -4.2170   21.8848 C   0  0  0  0  0  0  0  0  0  0  0  0
  -29.0122  -18.7582   21.0555 C   0  0  0  0  0  0  0  0  0  0  0  0
  -24.7461  -26.7682   21.4695 C   0  0  0  0  0  0  0  0  0  0  0  0
  -21.3497   -4.0409   21.3759 C   0  0  0  0  0  0  0  0  0  0  0  0
  -30.4948  -19.3766   19.5077 C   0  0  0  0  0  0  0  0  0  0  0  0
  -23.9426  -10.5102   21.6209 C   0  0  0  0  0  0  0  0  0  0  0  0
  -29.5059  -19.8674   20.3281 C   0  0  0  0  0  0  0  0  0  0  0  0
  -24.0830  -12.9312   20.8295 C   0  0  0  0  0  0  0  0  0  0  0  0
  -29.4994  -32.9180   18.2165 C   0  0  0  0  0  0  0  0  0  0  0  0
  -24.6533  -28.8160   20.1819 C   0  0  0  0  0  0  0  0  0  0  0  0
  -29.0628  -31.7406   18.8534 C   0  0  0  0  0  0  0  0  0  0  0  0
  -24.6758  -28.1690   21.4257 C   0  0  0  0  0  0  0  0  0  0  0  0
  -22.6159   -8.2853   22.6564 C   0  0  0  0  0  0  0  0  0  0  0  0
  -24.7806  -26.0208   20.2926 C   0  0  0  0  0  0  0  0  0  0  0  0
  -22.1900   -5.9766   22.5523 C   0  0  0  0  0  0  0  0  0  0  0  0
  -22.6398   -3.5130   21.3230 C   0  0  0  0  0  0  0  0  0  0  0  0
  -21.1248   -5.2727   21.9905 C   0  0  0  0  0  0  0  0  0  0  0  0
  -24.6285  -11.6592   21.0866 C   0  0  0  0  0  0  0  0  0  0  0  0
  -25.1346  -13.6616   20.3322 C   0  0  0  0  0  0  0  0  0  0  0  0
  -29.7344  -17.6686   20.6276 C   0  0  0  0  0  0  0  0  0  0  0  0
  -29.0771  -21.2937   20.3991 C   0  0  0  0  0  0  0  0  0  0  0  0
  -22.7454  -13.4099   21.0229 C   0  0  0  0  0  0  0  0  0  0  0  0
  -26.5554  -31.0140   21.4684 C   0  0  0  0  0  0  0  0  0  0  0  0
  -24.1718  -31.2339   23.6575 C   0  0  0  0  0  0  0  0  0  0  0  0
  -21.5164  -29.7535   25.2080 C   0  0  0  0  0  0  0  0  0  0  0  0
  -30.4653  -15.2611   20.5005 C   0  0  0  0  0  0  0  0  0  0  0  0
  -29.6405  -34.2195   18.9655 C   0  0  0  0  0  0  0  0  0  0  0  0
  -24.5535  -30.3148   20.1046 C   0  0  0  0  0  0  0  0  0  0  0  0
  -24.6349  -28.9377   22.7203 C   0  0  0  0  0  0  0  0  0  0  0  0
  -28.8769  -34.2477   20.2870 C   0  0  0  0  0  0  0  0  0  0  0  0
  -29.7426  -12.2001   18.8316 C   0  0  0  0  0  0  0  0  0  0  0  0
  -29.1276  -32.9664   21.0758 C   0  0  0  0  0  0  0  0  0  0  0  0
  -28.3028  -11.8912   19.2483 C   0  0  0  0  0  0  0  0  0  0  0  0
  -30.5389  -12.8344   19.9706 C   0  0  0  0  0  0  0  0  0  0  0  0
  -28.4766  -13.7074   20.9971 C   0  0  0  0  0  0  0  0  0  0  0  0
  -28.6319  -31.7375   20.3041 C   0  0  1  0  0  0  0  0  0  0  0  0
  -25.0565  -31.0129   21.3645 C   0  0  1  0  0  0  0  0  0  0  0  0
  -27.6164  -13.1269   19.8627 C   0  0  2  0  0  0  0  0  0  0  0  0
  -19.7893  -30.1671   26.9810 C   0  0  0  0  0  0  0  0  0  0  0  0
  -26.6853  -21.2964   24.1965 C   0  0  0  0  0  0  0  0  0  0  0  0
  -28.4824  -22.7733   25.1131 C   0  0  0  0  0  0  0  0  0  0  0  0
  -26.2807  -30.7777   25.8149 C   0  0  0  0  0  0  0  0  0  0  0  0
  -24.4287  -30.2565   27.4169 C   0  0  0  0  0  0  0  0  0  0  0  0
  -24.5748  -32.5184   26.3752 C   0  0  0  0  0  0  0  0  0  0  0  0
  -24.9951  -21.7141   20.2260 C   0  0  0  0  0  0  0  0  0  0  0  0
  -26.7418  -21.9618   18.4550 C   0  0  0  0  0  0  0  0  0  0  0  0
  -19.2941  -29.4553   23.2764 C   0  0  0  0  0  0  0  0  0  0  0  0
  -28.6300  -22.0408   22.7149 C   0  0  0  0  0  0  0  0  0  0  0  0
  -27.1665  -22.9148   20.8069 C   0  0  0  0  0  0  0  0  0  0  0  0
  -25.5084  -23.9980   19.2754 C   0  0  0  0  0  0  0  0  0  1  0  0
  -27.9559  -21.7026   21.3641 C   0  0  1  0  0  0  0  0  0  0  0  0
  -23.8538  -30.5483   24.9643 C   0  0  1  0  0  0  0  0  0  0  0  0
  -20.1124  -30.2529   25.4974 C   0  0  2  0  0  0  0  0  0  0  0  0
  -27.6704  -22.4180   23.8634 C   0  0  0  0  0  0  0  0  0  0  0  0
  -24.7872  -31.0105   26.1186 C   0  0  0  0  0  0  0  0  0  0  0  0
  -26.1138  -22.6297   19.6895 C   0  0  0  0  0  0  0  0  0  0  0  0
  -25.9258  -11.5825   20.7780 N   0  0  0  0  0  0  0  0  0  0  0  0
  -26.2042  -12.8155   20.3218 N   0  0  0  0  0  0  0  0  0  0  0  0
  -24.5438  -30.4016   22.5923 N   0  0  0  0  0  0  0  0  0  0  0  0
  -29.8299  -14.0013   20.5001 N   0  0  0  0  0  0  0  0  0  0  0  0
  -25.2393  -14.9387   19.9072 N   0  0  0  0  0  0  0  0  0  0  0  0
  -21.7888  -12.5276   21.5433 N   0  0  0  0  0  0  0  0  0  0  0  0
  -29.6817  -16.3019   20.9979 N   0  0  0  0  0  0  0  0  0  0  0  0
  -27.1927  -31.6241   20.4048 N   0  0  0  0  0  0  0  0  0  0  0  0
  -22.4353  -30.7815   25.2131 N   0  0  0  0  0  0  0  0  0  0  0  0
  -19.1099  -29.4417   24.7504 N   0  3  0  0  0  0  0  0  0  0  0  0
  -29.6508  -22.1160   19.6863 O   0  0  0  0  0  0  0  0  0  0  0  0
  -22.4045  -14.5803   20.7272 O   0  0  0  0  0  0  0  0  0  0  0  0
  -27.0939  -30.5006   22.4421 O   0  0  0  0  0  0  0  0  0  0  0  0
  -24.0862  -32.4622   23.5826 O   0  0  0  0  0  0  0  0  0  0  0  0
  -21.7730  -28.5693   25.0020 O   0  0  0  0  0  0  0  0  0  0  0  0
  -31.6097  -15.4109   20.0647 O   0  0  0  0  0  0  0  0  0  0  0  0
  -30.6402  -18.0371   19.6840 O   0  0  0  0  0  0  0  0  0  0  0  0
  -21.9685   -7.2001   23.1620 O   0  0  0  0  0  0  0  0  0  0  0  0
  -24.8475  -24.6533   20.3505 O   0  0  0  0  0  0  0  0  0  1  0  0
  -22.8561   -2.3309   20.7316 F   0  0  0  0  0  0  0  0  0  0  0  0
  -19.8834   -5.7753   22.0373 F   0  0  0  0  0  0  0  0  0  0  0  0
  1  2  1  0  0  0  0
  1  5  2  0  0  0  0
  2  6  2  0  0  0  0
  3  8  2  0  0  0  0
  3 17  1  0  0  0  0
  4  9  1  0  0  0  0
  4 17  2  0  0  0  0
  5 20  1  0  0  0  0
  6 22  1  0  0  0  0
  7 10  2  0  0  0  0
  7 21  1  0  0  0  0
  8 24  1  0  0  0  0
  9 24  2  0  0  0  0
 10 25  1  0  0  0  0
 11 12  2  0  0  0  0
 11 26  1  0  0  0  0
 12 27  1  0  0  0  0
 13 18  1  0  0  0  0
 13 31  2  0  0  0  0
 14 23  1  0  0  0  0
 14 25  2  0  0  0  0
 15 27  2  0  0  0  0
 15 28  1  0  0  0  0
 16 18  2  0  0  0  0
 16 84  1  0  0  0  0
 17 29  1  0  0  0  0
 18 32  1  0  0  0  0
 19 29  1  0  0  0  0
 19 30  2  0  0  0  0
 19 33  1  0  0  0  0
 20 22  2  0  0  0  0
 20 38  1  0  0  0  0
 21 23  2  0  0  0  0
 21 39  1  0  0  0  0
 22 47  1  0  0  0  0
 23 40  1  0  0  0  0
 24 85  1  0  0  0  0
 25 86  1  0  0  0  0
 26 28  2  0  0  0  0
 26 85  1  0  0  0  0
 27 87  1  0  0  0  0
 28 88  1  0  0  0  0
 29 68  2  0  0  0  0
 30 69  1  0  0  0  0
 30 72  1  0  0  0  0
 31 74  1  0  0  0  0
 31 84  1  0  0  0  0
 32 62  1  0  0  0  0
 32 78  2  0  0  0  0
 33 73  1  0  0  0  0
 33 79  2  0  0  0  0
 34 48  1  0  0  0  0
 34 75  1  0  0  0  0
 34 80  2  0  0  0  0
 35 63  1  0  0  0  0
 35 70  1  0  0  0  0
 35 81  2  0  0  0  0
 36 64  1  0  0  0  0
 36 76  1  0  0  0  0
 36 82  2  0  0  0  0
 37 71  1  0  0  0  0
 37 74  1  0  0  0  0
 37 83  2  0  0  0  0
 38 41  1  0  0  0  0
 39 48  1  0  0  0  0
 40 70  1  0  0  0  0
 41 43  1  0  0  0  0
 42 44  1  0  0  0  0
 42 45  1  0  0  0  0
 43 47  1  0  0  0  0
 44 49  1  0  0  0  0
 45 71  1  0  0  0  0
 46 49  1  0  0  0  0
 46 71  1  0  0  0  0
 47 75  1  0  0  0  0
 48 70  1  0  0  0  0
 49 69  1  0  0  0  0
 50 64  1  0  0  0  0
 51 65  1  0  0  0  0
 52 65  1  0  0  0  0
 53 66  1  0  0  0  0
 54 66  1  0  0  0  0
 55 66  1  0  0  0  0
 56 67  1  0  0  0  0
 57 67  1  0  0  0  0
 58 77  1  0  0  0  0
 59 62  1  0  0  0  0
 59 65  1  0  0  0  0
 60 62  1  0  0  0  0
 60 67  1  0  0  0  0
 61 67  1  0  0  0  0
 61 86  1  0  0  0  0
 63 66  1  0  0  0  0
 63 76  1  0  0  0  0
 64 77  1  0  0  0  0
 68 69  1  0  0  0  0
M  CHG  1  77   1
M  ISO  4  37 100  61 101  74 100  86 101
M  END
> <Batch ID>
0143

> <Smiles>
CNC(C)C(=O)NC(C(=O)N1Cc2cc([101O:1][101CH2:1]C(C)(C)CC(CC(C)C)C(=O)c3coc([100NH:0][100C:0](=O)N4CCCC(n5nc(-c6ccc(Oc7ccc(F)cc7F)cc6)c(C(N)=O)c5N)C4)c3)ccc2CC1C(=O)NC1CCCc2ccccc21)C(C)(C)C

> <Shape>
0.315

> <Color>
0.187

> <Negative vol penalty>
0.000

$$$$

  -OEChem-04052303003D

 86 94  0     1  0  0  0  0  0999 V2000
  -34.8309  -28.9354   16.8008 C   0  0  0  0  0  0  0  0  0  0  0  0
  -33.9004  -28.0792   16.2206 C   0  0  0  0  0  0  0  0  0  0  0  0
  -23.2798   -9.8202   19.9068 C   0  0  0  0  0  0  0  0  0  0  0  0
  -23.7160   -9.9484   22.2797 C   0  0  0  0  0  0  0  0  0  0  0  0
  -35.7680  -28.4357   17.7041 C   0  0  0  0  0  0  0  0  0  0  0  0
  -33.9072  -26.7225   16.5427 C   0  0  0  0  0  0  0  0  0  0  0  0
  -29.2617  -24.9135   17.4321 C   0  0  0  0  0  0  0  0  0  0  0  0
  -22.5298   -8.6613   20.1073 C   0  0  0  0  0  0  0  0  0  0  0  0
  -22.9660   -8.7895   22.4802 C   0  0  0  0  0  0  0  0  0  0  0  0
  -28.4623  -24.6389   16.3233 C   0  0  0  0  0  0  0  0  0  0  0  0
  -20.2004   -5.8714   20.0385 C   0  0  0  0  0  0  0  0  0  0  0  0
  -18.9756   -5.7693   19.3789 C   0  0  0  0  0  0  0  0  0  0  0  0
  -29.0094  -22.2974   16.5163 C   0  0  0  0  0  0  0  0  0  0  0  0
  -26.9033  -17.3922   15.8599 C   0  0  0  0  0  0  0  0  0  0  0  0
  -18.1983   -7.7547   20.5153 C   0  0  0  0  0  0  0  0  0  0  0  0
  -27.6120  -19.1070   14.6215 C   0  0  0  0  0  0  0  0  0  0  0  0
  -23.8729  -10.4637   20.9930 C   0  0  0  0  0  0  0  0  0  0  0  0
  -24.1817  -12.9887   20.8007 C   0  0  0  0  0  0  0  0  0  0  0  0
  -35.7802  -27.0739   18.0447 C   0  0  0  0  0  0  0  0  0  0  0  0
  -29.9508  -23.8818   18.0857 C   0  0  0  0  0  0  0  0  0  0  0  0
  -34.8463  -26.2039   17.4504 C   0  0  0  0  0  0  0  0  0  0  0  0
  -29.8149  -22.5612   17.6347 C   0  0  0  0  0  0  0  0  0  0  0  0
  -26.4718  -18.5109   15.1078 C   0  0  0  0  0  0  0  0  0  0  0  0
  -22.3729   -8.1460   21.3940 C   0  0  0  0  0  0  0  0  0  0  0  0
  -28.3383  -23.3311   15.8635 C   0  0  0  0  0  0  0  0  0  0  0  0
  -20.4241   -6.9150   20.9365 C   0  0  0  0  0  0  0  0  0  0  0  0
  -17.9745   -6.7110   19.6173 C   0  0  0  0  0  0  0  0  0  0  0  0
  -19.4231   -7.8567   21.1749 C   0  0  0  0  0  0  0  0  0  0  0  0
  -24.6482  -11.6605   20.7865 C   0  0  0  0  0  0  0  0  0  0  0  0
  -28.2764  -17.3844   15.7794 C   0  0  0  0  0  0  0  0  0  0  0  0
  -25.2996  -13.7479   20.5550 C   0  0  0  0  0  0  0  0  0  0  0  0
  -29.2821  -16.4726   16.3531 C   0  0  0  0  0  0  0  0  0  0  0  0
  -22.8564  -13.4911   21.0168 C   0  0  0  0  0  0  0  0  0  0  0  0
  -33.0127  -23.2169   18.6205 C   0  0  0  0  0  0  0  0  0  0  0  0
  -25.3055  -21.2632   15.9582 C   0  0  0  0  0  0  0  0  0  0  0  0
  -31.7747  -20.8171   20.4178 C   0  0  0  0  0  0  0  0  0  0  0  0
  -29.4002  -18.1784   21.0628 C   0  0  0  0  0  0  0  0  0  0  0  0
  -29.9419  -14.6492   17.5904 C   0  0  0  0  0  0  0  0  0  0  0  0
  -36.8426  -26.5716   18.9900 C   0  0  0  0  0  0  0  0  0  0  0  0
  -30.7878  -24.1909   19.2966 C   0  0  0  0  0  0  0  0  0  0  0  0
  -30.5177  -21.4150   18.3136 C   0  0  0  0  0  0  0  0  0  0  0  0
  -36.5432  -25.1888   19.5634 C   0  0  0  0  0  0  0  0  0  0  0  0
  -30.1925  -12.4962   20.4726 C   0  0  0  0  0  0  0  0  0  0  0  0
  -36.0972  -24.2375   18.4575 C   0  0  0  0  0  0  0  0  0  0  0  0
  -28.7334  -12.1688   20.7891 C   0  0  0  0  0  0  0  0  0  0  0  0
  -30.4238  -12.6274   18.9703 C   0  0  0  0  0  0  0  0  0  0  0  0
  -28.0609  -13.2934   18.6205 C   0  0  0  0  0  0  0  0  0  0  0  0
  -34.8060  -24.7305   17.7933 C   0  0  1  0  0  0  0  0  0  0  0  0
  -31.8530  -23.1341   19.5722 C   0  0  1  0  0  0  0  0  0  0  0  0
  -27.7832  -13.1843   20.1296 C   0  0  1  0  0  0  0  0  0  0  0  0
  -29.1367  -16.6708   23.0515 C   0  0  0  0  0  0  0  0  0  0  0  0
  -25.8522  -24.4214   13.7961 C   0  0  0  0  0  0  0  0  0  0  0  0
  -23.0013  -20.3055   15.6086 C   0  0  0  0  0  0  0  0  0  0  0  0
  -24.4937  -19.2951   17.3127 C   0  0  0  0  0  0  0  0  0  0  0  0
  -33.5234  -18.8901   18.8245 C   0  0  0  0  0  0  0  0  0  0  0  0
  -32.1131  -17.0089   19.6849 C   0  0  0  0  0  0  0  0  0  0  0  0
  -33.4175  -18.4172   21.2780 C   0  0  0  0  0  0  0  0  0  0  0  0
  -26.5681  -18.9578   21.4243 C   0  0  0  0  0  0  0  0  0  0  0  0
  -25.0460  -18.9608   14.8828 C   0  0  0  0  0  0  0  0  0  0  0  0
  -25.3480  -22.1231   14.6948 C   0  0  0  0  0  0  0  0  0  0  0  0
  -31.3688  -19.3866   20.1576 C   0  0  1  0  0  0  0  0  0  0  0  0
  -28.6455  -17.9311   22.3565 C   0  0  2  0  0  0  0  0  0  0  0  0
  -26.1758  -23.3973   14.8761 C   0  0  1  0  0  0  0  0  0  1  0  0
  -24.4713  -19.9603   15.9226 C   0  0  0  0  0  0  0  0  0  0  0  0
  -32.5939  -18.4473   19.9721 C   0  0  0  0  0  0  0  0  0  0  0  0
  -25.9602  -11.5774   20.5503 N   0  0  0  0  0  0  0  0  0  0  0  0
  -28.9450  -15.4613   17.0844 N   0  0  0  0  0  0  0  0  0  0  0  0
  -26.3276  -12.8628   20.4138 N   0  0  0  0  0  0  0  0  0  0  0  0
  -31.3295  -21.7690   19.4896 N   0  0  0  0  0  0  0  0  0  0  0  0
  -29.4813  -13.5750   18.3738 N   0  0  0  0  0  0  0  0  0  0  0  0
  -25.4936  -15.0796   20.4481 N   0  0  0  0  0  0  0  0  0  0  0  0
  -21.8244  -12.5732   21.2553 N   0  0  0  0  0  0  0  0  0  0  0  0
  -33.6628  -24.4363   18.6305 N   0  0  0  0  0  0  0  0  0  0  0  0
  -30.4855  -19.0069   21.2549 N   0  0  0  0  0  0  0  0  0  0  0  0
  -27.1879  -17.7805   22.0852 N   0  3  0  0  0  0  0  0  0  0  0  0
  -22.5919  -14.7169   20.9825 O   0  0  0  0  0  0  0  0  0  0  0  0
  -33.2977  -22.2459   17.9294 O   0  0  0  0  0  0  0  0  0  0  0  0
  -25.9113  -21.6035   16.9772 O   0  0  0  0  0  0  0  0  0  0  0  0
  -32.4554  -21.0813   21.4120 O   0  0  0  0  0  0  0  0  0  0  0  0
  -29.0630  -17.6829   19.9898 O   0  0  0  0  0  0  0  0  0  0  0  0
  -31.1445  -14.8262   17.3824 O   0  0  0  0  0  0  0  0  0  0  0  0
  -28.7163  -18.4263   15.0262 O   0  0  0  0  0  0  0  0  0  0  0  0
  -21.6409   -7.0154   21.5900 O   0  0  0  0  0  0  0  0  0  0  0  0
  -27.5592  -23.0603   14.7811 O   0  0  0  0  0  0  0  0  0  1  0  0
  -16.7990   -6.6138   18.9827 F   0  0  0  0  0  0  0  0  0  0  0  0
  -19.6327   -8.8622   22.0356 F   0  0  0  0  0  0  0  0  0  0  0  0
  1  2  1  0  0  0  0
  1  5  2  0  0  0  0
  2  6  2  0  0  0  0
  3  8  2  0  0  0  0
  3 17  1  0  0  0  0
  4  9  1  0  0  0  0
  4 17  2  0  0  0  0
  5 19  1  0  0  0  0
  6 21  1  0  0  0  0
  7 10  2  0  0  0  0
  7 20  1  0  0  0  0
  8 24  1  0  0  0  0
  9 24  2  0  0  0  0
 10 25  1  0  0  0  0
 11 12  2  0  0  0  0
 11 26  1  0  0  0  0
 12 27  1  0  0  0  0
 13 22  1  0  0  0  0
 13 25  2  0  0  0  0
 14 23  1  0  0  0  0
 14 30  2  0  0  0  0
 15 27  2  0  0  0  0
 15 28  1  0  0  0  0
 16 23  2  0  0  0  0
 16 82  1  0  0  0  0
 17 29  1  0  0  0  0
 18 29  1  0  0  0  0
 18 31  2  0  0  0  0
 18 33  1  0  0  0  0
 19 21  2  0  0  0  0
 19 39  1  0  0  0  0
 20 22  2  0  0  0  0
 20 40  1  0  0  0  0
 21 48  1  0  0  0  0
 22 41  1  0  0  0  0
 23 59  1  0  0  0  0
 24 83  1  0  0  0  0
 25 84  1  0  0  0  0
 26 28  2  0  0  0  0
 26 83  1  0  0  0  0
 27 85  1  0  0  0  0
 28 86  1  0  0  0  0
 29 66  2  0  0  0  0
 30 32  1  0  0  0  0
 30 82  1  0  0  0  0
 31 68  1  0  0  0  0
 31 71  1  0  0  0  0
 32 67  2  0  0  0  0
 33 72  1  0  0  0  0
 33 76  2  0  0  0  0
 34 49  1  0  0  0  0
 34 73  1  0  0  0  0
 34 77  2  0  0  0  0
 35 60  1  0  0  0  0
 35 64  1  0  0  0  0
 35 78  2  0  0  0  0
 36 61  1  0  0  0  0
 36 69  1  0  0  0  0
 36 79  2  0  0  0  0
 37 62  1  0  0  0  0
 37 74  1  0  0  0  0
 37 80  2  0  0  0  0
 38 67  1  0  0  0  0
 38 70  1  0  0  0  0
 38 81  2  0  0  0  0
 39 42  1  0  0  0  0
 40 49  1  0  0  0  0
 41 69  1  0  0  0  0
 42 44  1  0  0  0  0
 43 45  1  0  0  0  0
 43 46  1  0  0  0  0
 44 48  1  0  0  0  0
 45 50  1  0  0  0  0
 46 70  1  0  0  0  0
 47 50  1  0  0  0  0
 47 70  1  0  0  0  0
 48 73  1  0  0  0  0
 49 69  1  0  0  0  0
 50 68  1  0  0  0  0
 51 62  1  0  0  0  0
 52 63  1  0  0  0  0
 53 64  1  0  0  0  0
 54 64  1  0  0  0  0
 55 65  1  0  0  0  0
 56 65  1  0  0  0  0
 57 65  1  0  0  0  0
 58 75  1  0  0  0  0
 59 64  1  0  0  0  0
 60 63  1  0  0  0  0
 61 65  1  0  0  0  0
 61 74  1  0  0  0  0
 62 75  1  0  0  0  0
 63 84  1  0  0  0  0
 66 68  1  0  0  0  0
M  CHG  1  75   1
M  ISO  4  38 100  63 101  67 100  84 101
M  END
> <Batch ID>
0143

> <Smiles>
CNC(C)C(=O)NC(C(=O)N1Cc2cc([101O:1][101CH:1](C)CC(=O)C(C)(C)Cc3coc(C=[100N:0][100C:0](=O)N4CCCC(n5nc(-c6ccc(Oc7ccc(F)cc7F)cc6)c(C(N)=O)c5N)C4)c3)ccc2CC1C(=O)NC1CCCc2ccccc21)C(C)(C)C

> <Shape>
0.175

> <Color>
0.170

> <Negative vol penalty>
0.000

$$$$

  -OEChem-04052303003D

 87 96  0     1  0  0  0  0  0999 V2000
  -22.1904  -23.3775   17.5410 C   0  0  0  0  0  0  0  0  0  0  0  0
  -23.4953  -22.8953   17.5522 C   0  0  0  0  0  0  0  0  0  0  0  0
  -26.1900  -29.2732   19.6779 C   0  0  0  0  0  0  0  0  0  0  0  0
  -26.0851  -28.4780   21.9568 C   0  0  0  0  0  0  0  0  0  0  0  0
  -21.2566  -22.8792   18.4486 C   0  0  0  0  0  0  0  0  0  0  0  0
  -23.8675  -21.9152   18.4717 C   0  0  0  0  0  0  0  0  0  0  0  0
  -28.9291  -19.9907   25.0470 C   0  0  0  0  0  0  0  0  0  0  0  0
  -27.8825  -17.3754   17.5911 C   0  0  0  0  0  0  0  0  0  0  0  0
  -28.7995  -20.9075   24.0045 C   0  0  0  0  0  0  0  0  0  0  0  0
  -25.0159  -29.9995   19.8772 C   0  0  0  0  0  0  0  0  0  0  0  0
  -24.9111  -29.2044   22.1562 C   0  0  0  0  0  0  0  0  0  0  0  0
  -29.2257  -17.2312   17.9357 C   0  0  0  0  0  0  0  0  0  0  0  0
  -24.0420  -32.4132   22.7634 C   0  0  0  0  0  0  0  0  0  0  0  0
  -23.9306  -33.1514   23.9416 C   0  0  0  0  0  0  0  0  0  0  0  0
  -28.5801  -16.0299   19.9255 C   0  0  0  0  0  0  0  0  0  0  0  0
  -29.3429  -19.1848   22.3716 C   0  0  0  0  0  0  0  0  0  0  0  0
  -21.9727  -31.8760   24.5556 C   0  0  0  0  0  0  0  0  0  0  0  0
  -26.7245  -28.5124   20.7176 C   0  0  0  0  0  0  0  0  0  0  0  0
  -29.2566  -28.2022   20.7268 C   0  0  0  0  0  0  0  0  0  0  0  0
  -21.6149  -21.8857   19.3733 C   0  0  0  0  0  0  0  0  0  0  0  0
  -26.8759  -16.8566   18.4182 C   0  0  0  0  0  0  0  0  0  0  0  0
  -22.9379  -21.4042   19.3933 C   0  0  0  0  0  0  0  0  0  0  0  0
  -29.2554  -18.6835   24.7278 C   0  0  0  0  0  0  0  0  0  0  0  0
  -27.2249  -16.1666   19.5879 C   0  0  0  0  0  0  0  0  0  0  0  0
  -29.4664  -18.2701   23.4061 C   0  0  0  0  0  0  0  0  0  0  0  0
  -29.0048  -20.5074   22.6761 C   0  0  0  0  0  0  0  0  0  0  0  0
  -24.3765  -29.9651   21.1164 C   0  0  0  0  0  0  0  0  0  0  0  0
  -29.5746  -16.5609   19.1044 C   0  0  0  0  0  0  0  0  0  0  0  0
  -23.1187  -31.4064   22.4812 C   0  0  0  0  0  0  0  0  0  0  0  0
  -22.8960  -32.8828   24.8378 C   0  0  0  0  0  0  0  0  0  0  0  0
  -22.0840  -31.1378   23.3773 C   0  0  0  0  0  0  0  0  0  0  0  0
  -27.9369  -27.7615   20.5121 C   0  0  0  0  0  0  0  0  0  0  0  0
  -30.0379  -27.1247   20.3877 C   0  0  0  0  0  0  0  0  0  0  0  0
  -29.7335  -29.4720   21.1914 C   0  0  0  0  0  0  0  0  0  0  0  0
  -24.4599  -18.1048   20.0641 C   0  0  0  0  0  0  0  0  0  0  0  0
  -23.7306  -14.9907   20.6054 C   0  0  0  0  0  0  0  0  0  0  0  0
  -24.7998  -11.7553   20.7945 C   0  0  0  0  0  0  0  0  0  0  0  0
  -29.0379  -21.2349   20.2644 C   0  0  0  0  0  0  0  0  0  0  0  0
  -20.5832  -21.4119   20.3661 C   0  0  0  0  0  0  0  0  0  0  0  0
  -25.4326  -16.9972   18.0188 C   0  0  0  0  0  0  0  0  0  0  0  0
  -29.4821  -17.5306   25.6518 C   0  0  0  0  0  0  0  0  0  0  0  0
  -26.1831  -15.5734   20.4995 C   0  0  0  0  0  0  0  0  0  0  0  0
  -20.9603  -20.1054   21.0598 C   0  0  0  0  0  0  0  0  0  0  0  0
  -30.0763  -23.2760   17.5381 C   0  0  0  0  0  0  0  0  0  0  0  0
  -22.4079  -20.1536   21.5383 C   0  0  0  0  0  0  0  0  0  0  0  0
  -29.7713  -24.6984   18.0133 C   0  0  0  0  0  0  0  0  0  0  0  0
  -29.5217  -16.3524   24.6575 C   0  0  0  0  0  0  0  0  0  0  0  0
  -29.0178  -22.2809   18.0105 C   0  0  0  0  0  0  0  0  0  0  0  0
  -28.4492  -23.7163   19.9303 C   0  0  0  0  0  0  0  0  0  0  0  0
  -23.3733  -20.3236   20.3591 C   0  0  1  0  0  0  0  0  0  0  0  0
  -24.4719  -16.8771   19.1978 C   0  0  1  0  0  0  0  0  0  0  0  0
  -29.5223  -24.7433   19.5337 C   0  0  2  0  0  0  0  0  0  0  0  0
  -23.9814   -9.4362   21.2942 C   0  0  0  0  0  0  0  0  0  0  0  0
  -23.7048  -15.6446   23.5856 C   0  0  0  0  0  0  0  0  0  0  0  0
  -23.8346  -13.1887   24.0545 C   0  0  0  0  0  0  0  0  0  0  0  0
  -21.8682  -14.1217   22.8357 C   0  0  0  0  0  0  0  0  0  0  0  0
  -31.4760  -14.3283   22.5891 C   0  0  0  0  0  0  0  0  0  0  0  0
  -32.2515  -16.6437   22.1103 C   0  0  0  0  0  0  0  0  0  0  0  0
  -30.2360  -14.1774   19.7571 C   0  0  0  0  0  0  0  0  0  0  0  0
  -32.6368  -14.8258   19.7130 C   0  0  0  0  0  0  0  0  0  0  0  0
  -25.5085  -10.7964   18.0858 C   0  0  0  0  0  0  0  0  0  0  0  0
  -29.7679  -16.1402   22.1338 C   0  0  0  0  0  0  0  0  0  0  0  0
  -24.1003  -13.9734   21.6577 C   0  0  1  0  0  0  0  0  0  0  0  0
  -24.2361  -10.4724   20.2106 C   0  0  2  0  0  0  0  0  0  0  0  0
  -23.3968  -14.2448   23.0174 C   0  0  0  0  0  0  0  0  0  0  0  0
  -31.1714  -15.5928   21.7442 C   0  0  0  0  0  0  0  0  0  0  0  0
  -31.2400  -15.2581   20.1930 C   0  0  0  0  0  0  0  0  0  1  0  0
  -27.8793  -26.5022   20.0706 N   0  0  0  0  0  0  0  0  0  0  0  0
  -29.1725  -26.1425   20.0050 N   0  0  0  0  0  0  0  0  0  0  0  0
  -29.7997  -16.9246   23.3420 N   0  0  1  0  0  0  0  0  0  0  0  0
  -24.7854  -15.7428   20.0690 N   0  0  0  0  0  0  0  0  0  0  0  0
  -28.8387  -22.3774   19.4608 N   0  0  0  0  0  0  0  0  0  0  0  0
  -31.3739  -26.9311   20.3824 N   0  0  0  0  0  0  0  0  0  0  0  0
  -28.7951  -30.4678   21.4949 N   0  0  0  0  0  0  0  0  0  0  0  0
  -28.8714  -21.4552   21.6313 N   0  0  0  0  0  0  0  0  0  0  0  0
  -23.5505  -19.0657   19.6656 N   0  0  0  0  0  0  0  0  0  0  0  0
  -23.8050  -12.6655   21.0827 N   0  0  0  0  0  0  0  0  0  0  0  0
  -25.1868   -9.8926   19.2201 N   0  3  0  0  0  0  0  0  0  0  0  0
  -30.9563  -29.7218   21.3175 O   0  0  0  0  0  0  0  0  0  0  0  0
  -25.2186  -18.1743   21.0239 O   0  0  0  0  0  0  0  0  0  0  0  0
  -22.5504  -15.1086   20.2664 O   0  0  0  0  0  0  0  0  0  0  0  0
  -26.0020  -11.9308   20.9801 O   0  0  0  0  0  0  0  0  0  0  0  0
  -29.3611  -20.1480   19.7785 O   0  0  0  0  0  0  0  0  0  0  0  0
  -23.2310  -30.6739   21.3114 O   0  0  0  0  0  0  0  0  0  0  0  0
  -30.8849  -16.4193   19.4434 O   0  0  0  0  0  0  0  0  0  1  0  0
  -22.7901  -33.5907   25.9699 F   0  0  0  0  0  0  0  0  0  0  0  0
  -21.1947  -30.1711   23.1123 F   0  0  0  0  0  0  0  0  0  0  0  0
  1  2  1  0  0  0  0
  1  5  2  0  0  0  0
  2  6  2  0  0  0  0
  3 10  2  0  0  0  0
  3 18  1  0  0  0  0
  4 11  1  0  0  0  0
  4 18  2  0  0  0  0
  5 20  1  0  0  0  0
  6 22  1  0  0  0  0
  7  9  2  0  0  0  0
  7 23  1  0  0  0  0
  8 12  2  0  0  0  0
  8 21  1  0  0  0  0
  9 26  1  0  0  0  0
 10 27  1  0  0  0  0
 11 27  2  0  0  0  0
 12 28  1  0  0  0  0
 13 14  2  0  0  0  0
 13 29  1  0  0  0  0
 14 30  1  0  0  0  0
 15 24  1  0  0  0  0
 15 28  2  0  0  0  0
 16 25  1  0  0  0  0
 16 26  2  0  0  0  0
 17 30  2  0  0  0  0
 17 31  1  0  0  0  0
 18 32  1  0  0  0  0
 19 32  1  0  0  0  0
 19 33  2  0  0  0  0
 19 34  1  0  0  0  0
 20 22  2  0  0  0  0
 20 39  1  0  0  0  0
 21 24  2  0  0  0  0
 21 40  1  0  0  0  0
 22 50  1  0  0  0  0
 23 25  2  0  0  0  0
 23 41  1  0  0  0  0
 24 42  1  0  0  0  0
 25 70  1  0  0  0  0
 26 75  1  0  0  0  0
 27 84  1  0  0  0  0
 28 85  1  0  0  0  0
 29 31  2  0  0  0  0
 29 84  1  0  0  0  0
 30 86  1  0  0  0  0
 31 87  1  0  0  0  0
 32 68  2  0  0  0  0
 33 69  1  0  0  0  0
 33 73  1  0  0  0  0
 34 74  1  0  0  0  0
 34 79  2  0  0  0  0
 35 51  1  0  0  0  0
 35 76  1  0  0  0  0
 35 80  2  0  0  0  0
 36 63  1  0  0  0  0
 36 71  1  0  0  0  0
 36 81  2  0  0  0  0
 37 64  1  0  0  0  0
 37 77  1  0  0  0  0
 37 82  2  0  0  0  0
 38 72  1  0  0  0  0
 38 75  1  0  0  0  0
 38 83  2  0  0  0  0
 39 43  1  0  0  0  0
 40 51  1  0  0  0  0
 41 47  1  0  0  0  0
 42 71  1  0  0  0  0
 43 45  1  0  0  0  0
 44 46  1  0  0  0  0
 44 48  1  0  0  0  0
 45 50  1  0  0  0  0
 46 52  1  0  0  0  0
 47 70  1  0  0  0  0
 48 72  1  0  0  0  0
 49 52  1  0  0  0  0
 49 72  1  0  0  0  0
 50 76  1  0  0  0  0
 51 71  1  0  0  0  0
 52 69  1  0  0  0  0
 53 64  1  0  0  0  0
 54 65  1  0  0  0  0
 55 65  1  0  0  0  0
 56 65  1  0  0  0  0
 57 66  1  0  0  0  0
 58 66  1  0  0  0  0
 59 67  1  0  0  0  0
 60 67  1  0  0  0  0
 61 78  1  0  0  0  0
 62 66  1  0  0  0  0
 62 70  1  0  0  0  0
 63 65  1  0  0  0  0
 63 77  1  0  0  0  0
 64 78  1  0  0  0  0
 66 67  1  0  0  0  0
 67 85  1  0  0  0  0
 68 69  1  0  0  0  0
M  CHG  1  78   1
M  ISO  4  38 100  67 101  75 100  85 101
M  END
> <Batch ID>
0143

> <Smiles>
CNC(C)C(=O)NC(C(=O)N1Cc2cc([101O:1][101C:1](C)(C)C(C)(C)CN3CCc4ccc([100NH:0][100C:0](=O)N5CCCC(n6nc(-c7ccc(Oc8ccc(F)cc8F)cc7)c(C(N)=O)c6N)C5)cc43)ccc2CC1C(=O)NC1CCCc2ccccc21)C(C)(C)C

> <Shape>
0.246

> <Color>
0.067

> <Negative vol penalty>
0.000

$$$$

  -OEChem-04052303003D

 84 93  0     1  0  0  0  0  0999 V2000
  -23.1036  -38.0738   22.6952 C   0  0  0  0  0  0  0  0  0  0  0  0
  -23.8770  -37.4052   21.7516 C   0  0  0  0  0  0  0  0  0  0  0  0
  -27.0379  -11.4682   20.3465 C   0  0  0  0  0  0  0  0  0  0  0  0
  -26.0265  -13.6547   20.1628 C   0  0  0  0  0  0  0  0  0  0  0  0
  -22.8584  -37.4871   23.9360 C   0  0  0  0  0  0  0  0  0  0  0  0
  -24.4066  -36.1500   22.0487 C   0  0  0  0  0  0  0  0  0  0  0  0
  -26.1086  -29.9286   18.9320 C   0  0  0  0  0  0  0  0  0  0  0  0
  -25.7926  -10.8748   20.1399 C   0  0  0  0  0  0  0  0  0  0  0  0
  -24.7812  -13.0613   19.9562 C   0  0  0  0  0  0  0  0  0  0  0  0
  -27.1771  -29.0411   18.8115 C   0  0  0  0  0  0  0  0  0  0  0  0
  -22.8178   -8.7868   20.0187 C   0  0  0  0  0  0  0  0  0  0  0  0
  -22.4580   -7.7250   20.8484 C   0  0  0  0  0  0  0  0  0  0  0  0
  -26.6216  -28.0905   20.9579 C   0  0  0  0  0  0  0  0  0  0  0  0
  -29.9647  -21.9360   23.0874 C   0  0  0  0  0  0  0  0  0  0  0  0
  -22.6477   -9.1678   22.7770 C   0  0  0  0  0  0  0  0  0  0  0  0
  -27.1548  -12.8582   20.3580 C   0  0  0  0  0  0  0  0  0  0  0  0
  -29.5968  -13.3204   19.7829 C   0  0  0  0  0  0  0  0  0  0  0  0
  -23.3772  -36.2197   24.2449 C   0  0  0  0  0  0  0  0  0  0  0  0
  -25.2939  -29.9110   20.0732 C   0  0  0  0  0  0  0  0  0  0  0  0
  -24.1692  -35.5463   23.2953 C   0  0  0  0  0  0  0  0  0  0  0  0
  -25.5419  -28.9771   21.0893 C   0  0  0  0  0  0  0  0  0  0  0  0
  -29.6779  -23.1378   22.3614 C   0  0  0  0  0  0  0  0  0  0  0  0
  -24.6642  -11.6713   19.9447 C   0  0  0  0  0  0  0  0  0  0  0  0
  -27.4355  -28.1238   19.8258 C   0  0  0  0  0  0  0  0  0  0  0  0
  -23.0926  -10.0392   20.5680 C   0  0  0  0  0  0  0  0  0  0  0  0
  -22.3729   -7.9155   22.2276 C   0  0  0  0  0  0  0  0  0  0  0  0
  -23.0075  -10.2297   21.9472 C   0  0  0  0  0  0  0  0  0  0  0  0
  -28.4409  -13.4717   20.5720 C   0  0  0  0  0  0  0  0  0  0  0  0
  -29.0265  -22.8592   21.1737 C   0  0  0  0  0  0  0  0  0  0  0  0
  -30.5405  -14.1024   20.4028 C   0  0  0  0  0  0  0  0  0  0  0  0
  -29.5281  -20.8058   22.4357 C   0  0  0  0  0  0  0  0  0  0  0  0
  -29.7993  -12.5426   18.5956 C   0  0  0  0  0  0  0  0  0  0  0  0
  -24.6098  -31.9955   22.3733 C   0  0  0  0  0  0  0  0  0  0  0  0
  -22.4919  -29.7108   23.2773 C   0  0  0  0  0  0  0  0  0  0  0  0
  -21.5956  -26.4180   23.2515 C   0  0  0  0  0  0  0  0  0  0  0  0
  -30.1783  -18.8988   23.9480 C   0  0  0  0  0  0  0  0  0  0  0  0
  -23.1245  -35.6466   25.6169 C   0  0  0  0  0  0  0  0  0  0  0  0
  -24.1291  -30.8570   20.1759 C   0  0  0  0  0  0  0  0  0  0  0  0
  -30.0355  -24.5129   22.8296 C   0  0  0  0  0  0  0  0  0  0  0  0
  -24.6847  -28.9038   22.3255 C   0  0  0  0  0  0  0  0  0  0  0  0
  -28.5582  -23.8358   20.1411 C   0  0  0  0  0  0  0  0  0  0  0  0
  -23.4103  -34.1502   25.7140 C   0  0  0  0  0  0  0  0  0  0  0  0
  -30.9127  -25.2835   21.8387 C   0  0  0  0  0  0  0  0  0  0  0  0
  -29.6944  -24.7193   19.6164 C   0  0  0  0  0  0  0  0  0  0  0  0
  -31.7529  -15.7987   24.7141 C   0  0  0  0  0  0  0  0  0  0  0  0
  -24.7497  -33.8193   25.0634 C   0  0  0  0  0  0  0  0  0  0  0  0
  -31.1921  -14.8378   23.6632 C   0  0  0  0  0  0  0  0  0  0  0  0
  -30.7026  -16.8054   25.1800 C   0  0  0  0  0  0  0  0  0  0  0  0
  -29.4775  -16.5914   23.0534 C   0  0  0  0  0  0  0  0  0  0  0  0
  -24.7404  -34.1724   23.5711 C   0  0  1  0  0  0  0  0  0  0  0  0
  -23.6774  -31.0949   21.6135 C   0  0  1  0  0  0  0  0  0  0  0  0
  -30.5171  -15.5998   22.5060 C   0  0  2  0  0  0  0  0  0  0  0  0
  -30.2241  -25.8355   20.5595 C   0  0  2  0  0  0  0  0  0  0  0  0
  -31.3001  -26.6225   19.7702 C   0  0  0  0  0  0  0  0  0  0  0  0
  -19.8343  -24.8490   24.1081 C   0  0  0  0  0  0  0  0  0  0  0  0
  -29.6534  -28.0452   21.6564 C   0  0  0  0  0  0  0  0  0  0  0  0
  -23.7432  -29.8281   26.0577 C   0  0  0  0  0  0  0  0  0  0  0  0
  -22.6330  -27.6440   26.5733 C   0  0  0  0  0  0  0  0  0  0  0  0
  -21.2487  -29.6503   26.0430 C   0  0  0  0  0  0  0  0  0  0  0  0
  -20.7893  -25.6423   20.5116 C   0  0  0  0  0  0  0  0  0  0  0  0
  -22.5395  -28.5106   24.1918 C   0  0  1  0  0  0  0  0  0  0  0  0
  -20.2723  -25.7365   22.9535 C   0  0  2  0  0  0  0  0  0  0  0  0
  -29.1057  -26.8320   20.9202 C   0  0  1  0  0  0  0  0  0  1  0  0
  -22.5586  -28.9107   25.6942 C   0  0  0  0  0  0  0  0  0  0  0  0
  -28.6307  -14.2857   21.6138 N   0  0  0  0  0  0  0  0  0  0  0  0
  -29.9169  -14.6529   21.4837 N   0  0  0  0  0  0  0  0  0  0  0  0
  -23.5615  -29.8540   22.3822 N   0  0  0  0  0  0  0  0  0  0  0  0
  -30.1094  -17.4920   24.0304 N   0  0  0  0  0  0  0  0  0  0  0  0
  -31.8347  -14.3659   20.1234 N   0  0  0  0  0  0  0  0  0  0  0  0
  -29.5494  -13.1419   17.3535 N   0  0  0  0  0  0  0  0  0  0  0  0
  -29.6091  -19.4374   22.7946 N   0  0  0  0  0  0  0  0  0  0  0  0
  -24.0241  -33.1654   22.8179 N   0  0  0  0  0  0  0  0  0  0  0  0
  -21.4134  -27.6640   23.8132 N   0  0  0  0  0  0  0  0  0  0  0  0
  -20.3878  -24.8933   21.7301 N   0  3  0  0  0  0  0  0  0  0  0  0
  -30.1746  -11.3463   18.6356 O   0  0  0  0  0  0  0  0  0  0  0  0
  -25.7740  -31.6535   22.5449 O   0  0  0  0  0  0  0  0  0  0  0  0
  -21.5372  -30.4886   23.3495 O   0  0  0  0  0  0  0  0  0  0  0  0
  -22.6823  -25.8955   23.0136 O   0  0  0  0  0  0  0  0  0  0  0  0
  -30.7277  -19.5740   24.8223 O   0  0  0  0  0  0  0  0  0  0  0  0
  -23.4490  -11.0926   19.7428 O   0  0  0  0  0  0  0  0  0  0  0  0
  -28.4781  -27.2568   19.7111 O   0  0  0  0  0  0  0  0  0  1  0  0
  -22.0259   -6.8961   23.0242 F   0  0  0  0  0  0  0  0  0  0  0  0
  -23.2693  -11.4308   22.4807 F   0  0  0  0  0  0  0  0  0  0  0  0
  -28.7713  -21.1804   20.9532 S   0  0  0  0  0  0  0  0  0  0  0  0
  1  2  1  0  0  0  0
  1  5  2  0  0  0  0
  2  6  2  0  0  0  0
  3  8  2  0  0  0  0
  3 16  1  0  0  0  0
  4  9  1  0  0  0  0
  4 16  2  0  0  0  0
  5 18  1  0  0  0  0
  6 20  1  0  0  0  0
  7 10  2  0  0  0  0
  7 19  1  0  0  0  0
  8 23  1  0  0  0  0
  9 23  2  0  0  0  0
 10 24  1  0  0  0  0
 11 12  2  0  0  0  0
 11 25  1  0  0  0  0
 12 26  1  0  0  0  0
 13 21  1  0  0  0  0
 13 24  2  0  0  0  0
 14 22  1  0  0  0  0
 14 31  2  0  0  0  0
 15 26  2  0  0  0  0
 15 27  1  0  0  0  0
 16 28  1  0  0  0  0
 17 28  1  0  0  0  0
 17 30  2  0  0  0  0
 17 32  1  0  0  0  0
 18 20  2  0  0  0  0
 18 37  1  0  0  0  0
 19 21  2  0  0  0  0
 19 38  1  0  0  0  0
 20 50  1  0  0  0  0
 21 40  1  0  0  0  0
 22 29  2  0  0  0  0
 22 39  1  0  0  0  0
 23 80  1  0  0  0  0
 24 81  1  0  0  0  0
 25 27  2  0  0  0  0
 25 80  1  0  0  0  0
 26 82  1  0  0  0  0
 27 83  1  0  0  0  0
 28 65  2  0  0  0  0
 29 41  1  0  0  0  0
 29 84  1  0  0  0  0
 30 66  1  0  0  0  0
 30 69  1  0  0  0  0
 31 71  1  0  0  0  0
 31 84  1  0  0  0  0
 32 70  1  0  0  0  0
 32 75  2  0  0  0  0
 33 51  1  0  0  0  0
 33 72  1  0  0  0  0
 33 76  2  0  0  0  0
 34 61  1  0  0  0  0
 34 67  1  0  0  0  0
 34 77  2  0  0  0  0
 35 62  1  0  0  0  0
 35 73  1  0  0  0  0
 35 78  2  0  0  0  0
 36 68  1  0  0  0  0
 36 71  1  0  0  0  0
 36 79  2  0  0  0  0
 37 42  1  0  0  0  0
 38 51  1  0  0  0  0
 39 43  1  0  0  0  0
 40 67  1  0  0  0  0
 41 44  1  0  0  0  0
 42 46  1  0  0  0  0
 43 53  1  0  0  0  0
 44 53  1  0  0  0  0
 45 47  1  0  0  0  0
 45 48  1  0  0  0  0
 46 50  1  0  0  0  0
 47 52  1  0  0  0  0
 48 68  1  0  0  0  0
 49 52  1  0  0  0  0
 49 68  1  0  0  0  0
 50 72  1  0  0  0  0
 51 67  1  0  0  0  0
 52 66  1  0  0  0  0
 53 54  1  0  0  0  0
 53 63  1  0  0  0  0
 55 62  1  0  0  0  0
 56 63  1  0  0  0  0
 57 64  1  0  0  0  0
 58 64  1  0  0  0  0
 59 64  1  0  0  0  0
 60 74  1  0  0  0  0
 61 64  1  0  0  0  0
 61 73  1  0  0  0  0
 62 74  1  0  0  0  0
 63 81  1  0  0  0  0
 65 66  1  0  0  0  0
M  CHG  1  74   1
M  ISO  4  36 100  63 101  71 100  81 101
M  END
> <Batch ID>
0143

> <Smiles>
CNC(C)C(=O)NC(C(=O)N1Cc2cc([101O:1][101CH:1](C)C3(C)CCc4cc([100NH:0][100C:0](=O)N5CCCC(n6nc(-c7ccc(Oc8ccc(F)cc8F)cc7)c(C(N)=O)c6N)C5)sc4CC3)ccc2CC1C(=O)NC1CCCc2ccccc21)C(C)(C)C

> <Shape>
0.332

> <Color>
0.082

> <Negative vol penalty>
0.000

$$$$

  -OEChem-04052303003D

 87 95  0     1  0  0  0  0  0999 V2000
  -16.5442  -29.3782   20.7078 C   0  0  0  0  0  0  0  0  0  0  0  0
  -17.3720  -30.4587   20.9952 C   0  0  0  0  0  0  0  0  0  0  0  0
  -25.0199  -13.6686   19.8919 C   0  0  0  0  0  0  0  0  0  0  0  0
  -27.0740  -13.2553   21.0948 C   0  0  0  0  0  0  0  0  0  0  0  0
  -16.8895  -28.1007   21.1467 C   0  0  0  0  0  0  0  0  0  0  0  0
  -18.5453  -30.2624   21.7227 C   0  0  0  0  0  0  0  0  0  0  0  0
  -25.9254  -32.0519   19.8899 C   0  0  0  0  0  0  0  0  0  0  0  0
  -24.7081  -12.3107   19.9579 C   0  0  0  0  0  0  0  0  0  0  0  0
  -26.7622  -11.8974   21.1609 C   0  0  0  0  0  0  0  0  0  0  0  0
  -27.2865  -32.1768   19.6108 C   0  0  0  0  0  0  0  0  0  0  0  0
  -23.4634  -10.1488   22.2404 C   0  0  0  0  0  0  0  0  0  0  0  0
  -22.1603   -9.7994   22.5946 C   0  0  0  0  0  0  0  0  0  0  0  0
  -30.8385  -22.3110   21.6732 C   0  0  0  0  0  0  0  0  0  0  0  0
  -30.9286  -24.7051   21.3619 C   0  0  0  0  0  0  0  0  0  0  0  0
  -27.7727  -30.3406   21.1075 C   0  0  0  0  0  0  0  0  0  0  0  0
  -30.9546  -23.2358   19.4442 C   0  0  0  0  0  0  0  0  0  0  0  0
  -21.8921   -8.6583   20.4820 C   0  0  0  0  0  0  0  0  0  0  0  0
  -26.2030  -14.1409   20.4604 C   0  0  0  0  0  0  0  0  0  0  0  0
  -30.8599  -23.5988   22.2086 C   0  0  0  0  0  0  0  0  0  0  0  0
  -26.1816  -16.5415   21.3233 C   0  0  0  0  0  0  0  0  0  0  0  0
  -18.0725  -27.8872   21.8716 C   0  0  0  0  0  0  0  0  0  0  0  0
  -25.4807  -31.0597   20.7680 C   0  0  0  0  0  0  0  0  0  0  0  0
  -18.9062  -28.9811   22.1729 C   0  0  0  0  0  0  0  0  0  0  0  0
  -26.4093  -30.2027   21.3812 C   0  0  0  0  0  0  0  0  0  0  0  0
  -30.8859  -22.1295   20.2910 C   0  0  0  0  0  0  0  0  0  0  0  0
  -25.5792  -11.4251   20.5924 C   0  0  0  0  0  0  0  0  0  0  0  0
  -28.2079  -31.3234   20.2183 C   0  0  0  0  0  0  0  0  0  0  0  0
  -23.9809   -9.7530   21.0070 C   0  0  0  0  0  0  0  0  0  0  0  0
  -30.9759  -24.5236   19.9797 C   0  0  0  0  0  0  0  0  0  0  0  0
  -21.3747   -9.0542   21.7154 C   0  0  0  0  0  0  0  0  0  0  0  0
  -23.1952   -9.0077   20.1278 C   0  0  0  0  0  0  0  0  0  0  0  0
  -26.5260  -15.5435   20.3920 C   0  0  0  0  0  0  0  0  0  0  0  0
  -26.7182  -17.6947   20.8049 C   0  0  0  0  0  0  0  0  0  0  0  0
  -30.8116  -23.7877   23.6411 C   0  0  0  0  0  0  0  0  0  0  0  0
  -25.4429  -16.4356   22.5475 C   0  0  0  0  0  0  0  0  0  0  0  0
  -22.5636  -29.4191   22.4635 C   0  0  0  0  0  0  0  0  0  0  0  0
  -31.7027  -27.8678   18.5996 C   0  0  0  0  0  0  0  0  0  0  0  0
  -24.4852  -27.1781   21.6293 C   0  0  0  0  0  0  0  0  0  0  0  0
  -26.6584  -24.9879   20.1742 C   0  0  0  0  0  0  0  0  0  0  0  0
  -30.9055  -20.4662   18.3990 C   0  0  0  0  0  0  0  0  0  0  0  0
  -18.3800  -26.4957   22.3656 C   0  0  0  0  0  0  0  0  0  0  0  0
  -24.0301  -30.9284   21.1452 C   0  0  0  0  0  0  0  0  0  0  0  0
  -25.8886  -29.1724   22.3458 C   0  0  0  0  0  0  0  0  0  0  0  0
  -19.8295  -26.3130   22.8083 C   0  0  0  0  0  0  0  0  0  0  0  0
  -28.7280  -18.6378   16.2559 C   0  0  0  0  0  0  0  0  0  0  0  0
  -20.2667  -27.4734   23.6967 C   0  0  0  0  0  0  0  0  0  0  0  0
  -27.9327  -17.7519   17.2175 C   0  0  0  0  0  0  0  0  0  0  0  0
  -30.1794  -18.8007   16.7038 C   0  0  0  0  0  0  0  0  0  0  0  0
  -29.5590  -18.3734   19.0494 C   0  0  0  0  0  0  0  0  0  0  0  0
  -20.1997  -28.8045   22.9382 C   0  0  1  0  0  0  0  0  0  0  0  0
  -23.5962  -29.4698   21.3760 C   0  0  1  0  0  0  0  0  0  0  0  0
  -28.0745  -18.2330   18.6749 C   0  0  2  0  0  0  0  0  0  0  0  0
  -27.0869  -22.5312   19.8939 C   0  0  0  0  0  0  0  0  0  0  0  0
  -25.5298  -27.0375   24.4917 C   0  0  0  0  0  0  0  0  0  0  0  0
  -26.7686  -24.9550   23.8620 C   0  0  0  0  0  0  0  0  0  0  0  0
  -24.2778  -25.0084   23.7369 C   0  0  0  0  0  0  0  0  0  0  0  0
  -26.4033  -25.1610   17.2307 C   0  0  0  0  0  0  0  0  0  0  0  0
  -32.3878  -29.1602   19.0156 C   0  0  0  0  0  0  0  0  0  0  0  0
  -31.6908  -26.7665   19.6416 C   0  0  0  0  0  0  0  0  0  0  0  0
  -31.4678  -30.3768   19.0031 C   0  0  0  0  0  0  0  0  0  0  0  0
  -30.3260  -30.2623   20.0063 C   0  0  0  0  0  0  0  0  0  1  0  0
  -25.6325  -26.2832   22.0246 C   0  0  1  0  0  0  0  0  0  0  0  0
  -26.4258  -23.7667   19.3029 C   0  0  2  0  0  0  0  0  0  0  0  0
  -25.5564  -25.8453   23.5145 C   0  0  0  0  0  0  0  0  0  0  0  0
  -27.2269  -16.0209   19.3601 N   0  0  0  0  0  0  0  0  0  0  0  0
  -27.3273  -17.3315   19.6398 N   0  0  0  0  0  0  0  0  0  0  0  0
  -24.6657  -28.5548   21.8095 N   0  0  0  0  0  0  0  0  0  0  0  0
  -30.2356  -19.2629   18.0923 N   0  0  0  0  0  0  0  0  0  0  0  0
  -26.7236  -18.9738   21.2365 N   0  0  0  0  0  0  0  0  0  0  0  0
  -30.7459  -22.7290   24.4662 N   0  0  0  0  0  0  0  0  0  0  0  0
  -24.9635  -15.1759   22.9318 N   0  0  0  0  0  0  0  0  0  0  0  0
  -30.8649  -20.8213   19.7469 N   0  0  0  0  0  0  0  0  0  0  0  0
  -21.3354  -28.9384   22.0512 N   0  0  0  0  0  0  0  0  0  0  0  0
  -25.6318  -25.1753   21.0754 N   0  0  0  0  0  0  0  0  0  0  0  0
  -30.8336  -25.0243   24.1665 N   0  3  0  0  0  0  0  0  0  0  0  0
  -26.9821  -23.9902   17.9386 N   0  3  0  0  0  0  0  0  0  0  0  0
  -25.2005  -17.4314   23.2707 O   0  0  0  0  0  0  0  0  0  0  0  0
  -22.8587  -29.7872   23.5945 O   0  0  0  0  0  0  0  0  0  0  0  0
  -31.2104  -27.7081   17.4840 O   0  0  0  0  0  0  0  0  0  0  0  0
  -23.4536  -26.6725   21.1782 O   0  0  0  0  0  0  0  0  0  0  0  0
  -27.6532  -25.7018   20.0685 O   0  0  0  0  0  0  0  0  0  0  0  0
  -31.4499  -21.1466   17.5257 O   0  0  0  0  0  0  0  0  0  0  0  0
  -25.2750  -10.1000   20.6572 O   0  0  0  0  0  0  0  0  0  0  0  0
  -31.0436  -25.6142   19.1451 O   0  0  0  0  0  0  0  0  0  0  0  0
  -29.5348  -31.4478   19.9380 O   0  0  0  0  0  0  0  0  0  1  0  0
  -20.1238   -8.7174   22.0563 F   0  0  0  0  0  0  0  0  0  0  0  0
  -23.6872   -8.6236   18.9420 F   0  0  0  0  0  0  0  0  0  0  0  0
  1  2  1  0  0  0  0
  1  5  2  0  0  0  0
  2  6  2  0  0  0  0
  3  8  2  0  0  0  0
  3 18  1  0  0  0  0
  4  9  1  0  0  0  0
  4 18  2  0  0  0  0
  5 21  1  0  0  0  0
  6 23  1  0  0  0  0
  7 10  2  0  0  0  0
  7 22  1  0  0  0  0
  8 26  1  0  0  0  0
  9 26  2  0  0  0  0
 10 27  1  0  0  0  0
 11 12  2  0  0  0  0
 11 28  1  0  0  0  0
 12 30  1  0  0  0  0
 13 19  2  0  0  0  0
 13 25  1  0  0  0  0
 14 19  1  0  0  0  0
 14 29  2  0  0  0  0
 15 24  1  0  0  0  0
 15 27  2  0  0  0  0
 16 25  2  0  0  0  0
 16 29  1  0  0  0  0
 17 30  2  0  0  0  0
 17 31  1  0  0  0  0
 18 32  1  0  0  0  0
 19 34  1  0  0  0  0
 20 32  1  0  0  0  0
 20 33  2  0  0  0  0
 20 35  1  0  0  0  0
 21 23  2  0  0  0  0
 21 41  1  0  0  0  0
 22 24  2  0  0  0  0
 22 42  1  0  0  0  0
 23 50  1  0  0  0  0
 24 43  1  0  0  0  0
 25 72  1  0  0  0  0
 26 83  1  0  0  0  0
 27 85  1  0  0  0  0
 28 31  2  0  0  0  0
 28 83  1  0  0  0  0
 29 84  1  0  0  0  0
 30 86  1  0  0  0  0
 31 87  1  0  0  0  0
 32 65  2  0  0  0  0
 33 66  1  0  0  0  0
 33 69  1  0  0  0  0
 34 70  1  0  0  0  0
 34 75  2  0  0  0  0
 35 71  1  0  0  0  0
 35 77  2  0  0  0  0
 36 51  1  0  0  0  0
 36 73  1  0  0  0  0
 36 78  2  0  0  0  0
 37 58  1  0  0  0  0
 37 59  1  0  0  0  0
 37 79  2  0  0  0  0
 38 62  1  0  0  0  0
 38 67  1  0  0  0  0
 38 80  2  0  0  0  0
 39 63  1  0  0  0  0
 39 74  1  0  0  0  0
 39 81  2  0  0  0  0
 40 68  1  0  0  0  0
 40 72  1  0  0  0  0
 40 82  2  0  0  0  0
 41 44  1  0  0  0  0
 42 51  1  0  0  0  0
 43 67  1  0  0  0  0
 44 46  1  0  0  0  0
 45 47  1  0  0  0  0
 45 48  1  0  0  0  0
 46 50  1  0  0  0  0
 47 52  1  0  0  0  0
 48 68  1  0  0  0  0
 49 52  1  0  0  0  0
 49 68  1  0  0  0  0
 50 73  1  0  0  0  0
 51 67  1  0  0  0  0
 52 66  1  0  0  0  0
 53 63  1  0  0  0  0
 54 64  1  0  0  0  0
 55 64  1  0  0  0  0
 56 64  1  0  0  0  0
 57 76  1  0  0  0  0
 58 60  1  0  0  0  0
 59 84  1  0  0  0  0
 60 61  1  0  0  0  0
 61 85  1  0  0  0  0
 62 64  1  0  0  0  0
 62 74  1  0  0  0  0
 63 76  1  0  0  0  0
 65 66  1  0  0  0  0
M  CHG  2  75   1  76   1
M  ISO  4  40 100  61 101  72 100  85 101
M  END
> <Batch ID>
0143

> <Smiles>
CNC(C)C(=O)NC(C(=O)N1Cc2cc([101O:1][101CH2:1]CCC(=O)COc3cc([100NH:0][100C:0](=O)N4CCCC(n5nc(-c6ccc(Oc7ccc(F)cc7F)cc6)c(C(N)=O)c5N)C4)cc(C(=N)N)c3)ccc2CC1C(=O)NC1CCCc2ccccc21)C(C)(C)C

> <Shape>
0.224

> <Color>
0.096

> <Negative vol penalty>
0.000

$$$$

  -OEChem-04052303003D

 87 95  0     1  0  0  0  0  0999 V2000
  -25.9930  -35.6008   22.3314 C   0  0  0  0  0  0  0  0  0  0  0  0
  -26.5508  -34.3276   22.2756 C   0  0  0  0  0  0  0  0  0  0  0  0
  -23.8769  -12.7811   20.0783 C   0  0  0  0  0  0  0  0  0  0  0  0
  -25.6032  -14.3613   20.6780 C   0  0  0  0  0  0  0  0  0  0  0  0
  -24.6838  -35.7680   22.7810 C   0  0  0  0  0  0  0  0  0  0  0  0
  -25.8001  -33.2208   22.6705 C   0  0  0  0  0  0  0  0  0  0  0  0
  -26.2179  -29.3389   19.4454 C   0  0  0  0  0  0  0  0  0  0  0  0
  -24.7757  -11.7301   20.2602 C   0  0  0  0  0  0  0  0  0  0  0  0
  -26.5021  -13.3103   20.8600 C   0  0  0  0  0  0  0  0  0  0  0  0
  -27.3784  -28.5699   19.5216 C   0  0  0  0  0  0  0  0  0  0  0  0
  -28.3985  -11.2904   18.9223 C   0  0  0  0  0  0  0  0  0  0  0  0
  -29.6775  -11.4309   18.3839 C   0  0  0  0  0  0  0  0  0  0  0  0
  -26.1838  -26.9041   20.7933 C   0  0  0  0  0  0  0  0  0  0  0  0
  -27.4190  -22.9059   15.3764 C   0  0  0  0  0  0  0  0  0  0  0  0
  -25.3923  -21.7500   14.7495 C   0  0  0  0  0  0  0  0  0  0  0  0
  -26.2192  -21.5965   17.0143 C   0  0  0  0  0  0  0  0  0  0  0  0
  -30.6316  -11.2096   20.5924 C   0  0  0  0  0  0  0  0  0  0  0  0
  -24.2907  -14.0967   20.2872 C   0  0  0  0  0  0  0  0  0  0  0  0
  -22.5093  -15.7489   21.0647 C   0  0  0  0  0  0  0  0  0  0  0  0
  -23.9134  -34.6617   23.1725 C   0  0  0  0  0  0  0  0  0  0  0  0
  -25.0325  -28.9007   20.0530 C   0  0  0  0  0  0  0  0  0  0  0  0
  -24.4798  -33.3735   23.1271 C   0  0  0  0  0  0  0  0  0  0  0  0
  -25.0090  -27.6682   20.7212 C   0  0  0  0  0  0  0  0  0  0  0  0
  -26.4678  -22.5718   14.4125 C   0  0  0  0  0  0  0  0  0  0  0  0
  -27.2948  -22.4182   16.6773 C   0  0  0  0  0  0  0  0  0  0  0  0
  -25.2679  -21.2623   16.0504 C   0  0  0  0  0  0  0  0  0  0  0  0
  -26.0883  -11.9947   20.6511 C   0  0  0  0  0  0  0  0  0  0  0  0
  -27.3622  -27.3537   20.1981 C   0  0  0  0  0  0  0  0  0  0  0  0
  -28.2360  -11.1095   20.2959 C   0  0  0  0  0  0  0  0  0  0  0  0
  -30.7941  -11.3905   19.2189 C   0  0  0  0  0  0  0  0  0  0  0  0
  -29.3526  -11.0691   21.1309 C   0  0  0  0  0  0  0  0  0  0  0  0
  -23.3628  -15.1829   20.0989 C   0  0  0  0  0  0  0  0  0  0  0  0
  -21.8376  -16.7397   20.3911 C   0  0  0  0  0  0  0  0  0  0  0  0
  -22.3389  -15.4096   22.4473 C   0  0  0  0  0  0  0  0  0  0  0  0
  -23.1532  -30.0104   22.3639 C   0  0  0  0  0  0  0  0  0  0  0  0
  -29.5260  -24.4782   19.7401 C   0  0  0  0  0  0  0  0  0  0  0  0
  -21.2651  -27.5219   21.4894 C   0  0  0  0  0  0  0  0  0  0  0  0
  -21.0171  -24.4446   20.0349 C   0  0  0  0  0  0  0  0  0  0  0  0
  -28.3024  -22.3522   18.9868 C   0  0  0  0  0  0  0  0  0  0  0  0
  -23.1457  -19.9981   15.5562 C   0  0  0  0  0  0  0  0  0  0  0  0
  -22.5188  -34.8971   23.6962 C   0  0  0  0  0  0  0  0  0  0  0  0
  -23.7824  -29.7293   19.9388 C   0  0  0  0  0  0  0  0  0  0  0  0
  -23.7568  -27.1433   21.3730 C   0  0  0  0  0  0  0  0  0  0  0  0
  -21.6639  -33.6333   23.7419 C   0  0  0  0  0  0  0  0  0  0  0  0
  -20.2988  -17.9084   16.0092 C   0  0  0  0  0  0  0  0  0  0  0  0
  -22.4483  -32.4803   24.3601 C   0  0  0  0  0  0  0  0  0  0  0  0
  -20.6814  -17.0280   17.2012 C   0  0  0  0  0  0  0  0  0  0  0  0
  -21.4979  -18.1932   15.1066 C   0  0  0  0  0  0  0  0  0  0  0  0
  -23.0576  -17.8609   16.9844 C   0  0  0  0  0  0  0  0  0  0  0  0
  -23.6890  -32.1457   23.5234 C   0  0  1  0  0  0  0  0  0  0  0  0
  -22.7641  -29.4286   21.0344 C   0  0  1  0  0  0  0  0  0  0  0  0
  -21.8962  -17.6003   17.9576 C   0  0  2  0  0  0  0  0  0  0  0  0
  -26.6018  -23.0925   13.0211 C   0  0  0  0  0  0  0  0  0  0  0  0
  -19.3499  -22.6466   19.5014 C   0  0  0  0  0  0  0  0  0  0  0  0
  -29.4953  -22.4060   21.1878 C   0  0  0  0  0  0  0  0  0  0  0  0
  -30.8265  -22.4571   19.0853 C   0  0  0  0  0  0  0  0  0  0  0  0
  -21.2706  -26.6524   24.4141 C   0  0  0  0  0  0  0  0  0  0  0  0
  -20.4292  -24.4124   23.6773 C   0  0  0  0  0  0  0  0  0  0  0  0
  -19.0550  -26.4543   23.2710 C   0  0  0  0  0  0  0  0  0  0  0  0
  -21.5071  -24.6918   17.1267 C   0  0  0  0  0  0  0  0  0  0  0  0
  -28.3285  -25.1863   20.3552 C   0  0  0  0  0  0  0  0  0  1  0  0
  -21.1456  -26.0744   21.9009 C   0  0  1  0  0  0  0  0  0  0  0  0
  -20.0552  -23.8958   18.9967 C   0  0  2  0  0  0  0  0  0  0  0  0
  -29.5187  -22.9351   19.7405 C   0  0  0  0  0  0  0  0  0  0  0  0
  -20.4994  -25.9089   23.3053 C   0  0  0  0  0  0  0  0  0  0  0  0
  -23.2459  -15.7654   18.9026 N   0  0  0  0  0  0  0  0  0  0  0  0
  -22.3110  -16.7078   19.1123 N   0  0  0  0  0  0  0  0  0  0  0  0
  -22.5618  -27.9929   21.2393 N   0  0  0  0  0  0  0  0  0  0  0  0
  -22.6086  -18.7371   15.8911 N   0  0  0  0  0  0  0  0  0  0  0  0
  -20.8942  -17.6262   20.7737 N   0  0  0  0  0  0  0  0  0  0  0  0
  -23.1086  -14.3659   22.9789 N   0  0  0  0  0  0  0  0  0  0  0  0
  -28.2604  -22.7574   17.6550 N   0  0  0  0  0  0  0  0  0  0  0  0
  -24.1761  -20.4265   16.3924 N   0  0  0  0  0  0  0  0  0  0  0  0
  -23.3174  -31.3824   22.3513 N   0  0  0  0  0  0  0  0  0  0  0  0
  -20.4213  -25.4032   20.8270 N   0  0  0  0  0  0  0  0  0  0  0  0
  -20.7862  -23.5495   17.7450 N   0  3  0  0  0  0  0  0  0  0  0  0
  -21.5163  -16.0032   23.1852 O   0  0  0  0  0  0  0  0  0  0  0  0
  -23.2927  -29.2696   23.3301 O   0  0  0  0  0  0  0  0  0  0  0  0
  -30.4538  -25.1212   19.2452 O   0  0  0  0  0  0  0  0  0  0  0  0
  -20.2448  -28.2076   21.3865 O   0  0  0  0  0  0  0  0  0  0  0  0
  -22.1796  -24.0587   20.1358 O   0  0  0  0  0  0  0  0  0  0  0  0
  -27.4882  -21.6278   19.5544 O   0  0  0  0  0  0  0  0  0  0  0  0
  -22.7045  -20.6621   14.6147 O   0  0  0  0  0  0  0  0  0  0  0  0
  -26.9656  -10.9694   20.8289 O   0  0  0  0  0  0  0  0  0  0  0  0
  -28.4936  -26.6015   20.2745 O   0  0  0  0  0  0  0  0  0  1  0  0
  -32.0223  -11.5239   18.7014 F   0  0  0  0  0  0  0  0  0  0  0  0
  -29.2029  -10.8944   22.4511 F   0  0  0  0  0  0  0  0  0  0  0  0
  1  2  1  0  0  0  0
  1  5  2  0  0  0  0
  2  6  2  0  0  0  0
  3  8  2  0  0  0  0
  3 18  1  0  0  0  0
  4  9  1  0  0  0  0
  4 18  2  0  0  0  0
  5 20  1  0  0  0  0
  6 22  1  0  0  0  0
  7 10  2  0  0  0  0
  7 21  1  0  0  0  0
  8 27  1  0  0  0  0
  9 27  2  0  0  0  0
 10 28  1  0  0  0  0
 11 12  2  0  0  0  0
 11 29  1  0  0  0  0
 12 30  1  0  0  0  0
 13 23  1  0  0  0  0
 13 28  2  0  0  0  0
 14 24  2  0  0  0  0
 14 25  1  0  0  0  0
 15 24  1  0  0  0  0
 15 26  2  0  0  0  0
 16 25  2  0  0  0  0
 16 26  1  0  0  0  0
 17 30  2  0  0  0  0
 17 31  1  0  0  0  0
 18 32  1  0  0  0  0
 19 32  1  0  0  0  0
 19 33  2  0  0  0  0
 19 34  1  0  0  0  0
 20 22  2  0  0  0  0
 20 41  1  0  0  0  0
 21 23  2  0  0  0  0
 21 42  1  0  0  0  0
 22 50  1  0  0  0  0
 23 43  1  0  0  0  0
 24 53  1  0  0  0  0
 25 72  1  0  0  0  0
 26 73  1  0  0  0  0
 27 84  1  0  0  0  0
 28 85  1  0  0  0  0
 29 31  2  0  0  0  0
 29 84  1  0  0  0  0
 30 86  1  0  0  0  0
 31 87  1  0  0  0  0
 32 66  2  0  0  0  0
 33 67  1  0  0  0  0
 33 70  1  0  0  0  0
 34 71  1  0  0  0  0
 34 77  2  0  0  0  0
 35 51  1  0  0  0  0
 35 74  1  0  0  0  0
 35 78  2  0  0  0  0
 36 61  1  0  0  0  0
 36 64  1  0  0  0  0
 36 79  2  0  0  0  0
 37 62  1  0  0  0  0
 37 68  1  0  0  0  0
 37 80  2  0  0  0  0
 38 63  1  0  0  0  0
 38 75  1  0  0  0  0
 38 81  2  0  0  0  0
 39 64  1  0  0  0  0
 39 72  1  0  0  0  0
 39 82  2  0  0  0  0
 40 69  1  0  0  0  0
 40 73  1  0  0  0  0
 40 83  2  0  0  0  0
 41 44  1  0  0  0  0
 42 51  1  0  0  0  0
 43 68  1  0  0  0  0
 44 46  1  0  0  0  0
 45 47  1  0  0  0  0
 45 48  1  0  0  0  0
 46 50  1  0  0  0  0
 47 52  1  0  0  0  0
 48 69  1  0  0  0  0
 49 52  1  0  0  0  0
 49 69  1  0  0  0  0
 50 74  1  0  0  0  0
 51 68  1  0  0  0  0
 52 67  1  0  0  0  0
 54 63  1  0  0  0  0
 55 64  1  0  0  0  0
 56 64  1  0  0  0  0
 57 65  1  0  0  0  0
 58 65  1  0  0  0  0
 59 65  1  0  0  0  0
 60 76  1  0  0  0  0
 61 85  1  0  0  0  0
 62 65  1  0  0  0  0
 62 75  1  0  0  0  0
 63 76  1  0  0  0  0
 66 67  1  0  0  0  0
M  CHG  1  76   1
M  ISO  4  40 100  61 101  73 100  85 101
M  END
> <Batch ID>
0143

> <Smiles>
CNC(C)C(=O)NC(C(=O)N1Cc2cc([101O:1][101CH2:1]C(=O)C(C)(C)C(=O)Nc3cc(C)cc([100NH:0][100C:0](=O)N4CCCC(n5nc(-c6ccc(Oc7ccc(F)cc7F)cc6)c(C(N)=O)c5N)C4)c3)ccc2CC1C(=O)NC1CCCc2ccccc21)C(C)(C)C

> <Shape>
0.229

> <Color>
0.087

> <Negative vol penalty>
0.000

$$$$

  -OEChem-04052303003D

 86 94  0     1  0  0  0  0  0999 V2000
  -29.1665  -36.7376   21.2106 C   0  0  0  0  0  0  0  0  0  0  0  0
  -29.4248  -35.4041   20.9098 C   0  0  0  0  0  0  0  0  0  0  0  0
  -26.2587   -7.7278   21.1215 C   0  0  0  0  0  0  0  0  0  0  0  0
  -24.2982   -9.0852   21.5098 C   0  0  0  0  0  0  0  0  0  0  0  0
  -28.1994  -37.0619   22.1611 C   0  0  0  0  0  0  0  0  0  0  0  0
  -28.7167  -34.3941   21.5601 C   0  0  0  0  0  0  0  0  0  0  0  0
  -26.9599  -29.0232   19.1994 C   0  0  0  0  0  0  0  0  0  0  0  0
  -25.8378   -6.8372   22.1090 C   0  0  0  0  0  0  0  0  0  0  0  0
  -23.8771   -8.1945   22.4973 C   0  0  0  0  0  0  0  0  0  0  0  0
  -27.5045  -27.7420   19.2756 C   0  0  0  0  0  0  0  0  0  0  0  0
  -22.1035   -6.0869   24.8701 C   0  0  0  0  0  0  0  0  0  0  0  0
  -20.7621   -5.7046   24.8705 C   0  0  0  0  0  0  0  0  0  0  0  0
  -26.0121  -27.2225   21.0982 C   0  0  0  0  0  0  0  0  0  0  0  0
  -26.3531  -18.6970   20.4979 C   0  0  0  0  0  0  0  0  0  0  0  0
  -21.0216   -4.7922   22.6484 C   0  0  0  0  0  0  0  0  0  0  0  0
  -24.0622  -18.9558   20.7933 C   0  0  0  0  0  0  0  0  0  0  0  0
  -25.4890   -8.8518   20.8219 C   0  0  0  0  0  0  0  0  0  0  0  0
  -25.6189   -9.7256   18.4287 C   0  0  0  0  0  0  0  0  0  0  0  0
  -27.4723  -36.0556   22.8164 C   0  0  0  0  0  0  0  0  0  0  0  0
  -25.9431  -29.4179   20.0807 C   0  0  0  0  0  0  0  0  0  0  0  0
  -27.7399  -34.7052   22.5212 C   0  0  0  0  0  0  0  0  0  0  0  0
  -25.4545  -28.5084   21.0295 C   0  0  0  0  0  0  0  0  0  0  0  0
  -25.2695  -19.6068   20.6656 C   0  0  0  0  0  0  0  0  0  0  0  0
  -24.6470   -7.0705   22.7969 C   0  0  0  0  0  0  0  0  0  0  0  0
  -27.0326  -26.8424   20.2270 C   0  0  0  0  0  0  0  0  0  0  0  0
  -22.9039   -5.8220   23.7589 C   0  0  0  0  0  0  0  0  0  0  0  0
  -20.2211   -5.0572   23.7596 C   0  0  0  0  0  0  0  0  0  0  0  0
  -22.3630   -5.1747   22.6481 C   0  0  0  0  0  0  0  0  0  0  0  0
  -25.9236   -9.7725   19.8023 C   0  0  0  0  0  0  0  0  0  0  0  0
  -26.2658  -10.8138   17.8962 C   0  0  0  0  0  0  0  0  0  0  0  0
  -25.9328  -17.3850   20.5041 C   0  0  0  0  0  0  0  0  0  0  0  0
  -24.8222   -8.7827   17.6995 C   0  0  0  0  0  0  0  0  0  0  0  0
  -25.6572  -31.6600   22.3156 C   0  0  0  0  0  0  0  0  0  0  0  0
  -26.3982  -23.1092   19.2700 C   0  0  0  0  0  0  0  0  0  0  0  0
  -22.5834  -30.6274   22.4061 C   0  0  0  0  0  0  0  0  0  0  0  0
  -20.3547  -28.1094   21.8237 C   0  0  0  0  0  0  0  0  0  0  0  0
  -28.0383  -16.0370   20.1945 C   0  0  0  0  0  0  0  0  0  0  0  0
  -26.4700  -36.4537   23.8707 C   0  0  0  0  0  0  0  0  0  0  0  0
  -25.3477  -30.7946   19.9681 C   0  0  0  0  0  0  0  0  0  0  0  0
  -24.3503  -28.8762   21.9855 C   0  0  0  0  0  0  0  0  0  0  0  0
  -25.5006  -35.3347   24.2428 C   0  0  0  0  0  0  0  0  0  0  0  0
  -30.0920  -13.6077   18.5952 C   0  0  0  0  0  0  0  0  0  0  0  0
  -26.2544  -34.0274   24.4653 C   0  0  0  0  0  0  0  0  0  0  0  0
  -29.2261  -12.3458   18.5928 C   0  0  0  0  0  0  0  0  0  0  0  0
  -29.9010  -14.4241   19.8722 C   0  0  0  0  0  0  0  0  0  0  0  0
  -27.6415  -13.4957   20.1909 C   0  0  0  0  0  0  0  0  0  0  0  0
  -26.9753  -33.5819   23.1873 C   0  0  1  0  0  0  0  0  0  0  0  0
  -24.6718  -31.2603   21.2540 C   0  0  1  0  0  0  0  0  0  0  0  0
  -27.7510  -12.6740   18.8961 C   0  0  2  0  0  0  0  0  0  0  0  0
  -25.8658  -21.1434   23.2900 C   0  0  0  0  0  0  0  0  0  0  0  0
  -25.3508  -21.2100   18.0739 C   0  0  0  0  0  0  0  0  0  0  0  0
  -17.9177  -27.5484   22.0321 C   0  0  0  0  0  0  0  0  0  0  0  0
  -24.0788  -21.8843   20.8956 C   0  0  0  0  0  0  0  0  0  0  0  0
  -22.9295  -30.2526   25.4144 C   0  0  0  0  0  0  0  0  0  0  0  0
  -20.8652  -28.8359   25.4049 C   0  0  0  0  0  0  0  0  0  0  0  0
  -20.7330  -31.2341   24.7313 C   0  0  0  0  0  0  0  0  0  0  0  0
  -20.0811  -27.6970   18.9058 C   0  0  0  0  0  0  0  0  0  0  0  0
  -27.8606  -23.5131   19.1189 C   0  0  0  0  0  0  0  0  0  0  0  0
  -26.3589  -21.5513   21.9026 C   0  0  0  0  0  0  0  0  0  0  0  0
  -28.0607  -25.0207   19.0954 C   0  0  0  0  0  0  0  0  0  1  0  0
  -26.1155  -21.6013   19.3470 C   0  0  2  0  0  0  0  0  0  0  0  0
  -21.8334  -29.5694   23.1788 C   0  0  1  0  0  0  0  0  0  0  0  0
  -19.0071  -28.0986   21.1249 C   0  0  2  0  0  0  0  0  0  0  0  0
  -25.4317  -21.1489   20.7007 C   0  0  1  0  0  0  0  0  0  0  0  0
  -21.6124  -29.9664   24.6658 C   0  0  0  0  0  0  0  0  0  0  0  0
  -26.7036  -10.8084   20.1224 N   0  0  0  0  0  0  0  0  0  0  0  0
  -26.8945  -11.4225   18.9423 N   0  0  0  0  0  0  0  0  0  0  0  0
  -23.8049  -30.2360   21.8400 N   0  0  0  0  0  0  0  0  0  0  0  0
  -28.4799  -14.7008   20.0925 N   0  0  0  0  0  0  0  0  0  0  0  0
  -26.3526  -11.2999   16.6397 N   0  0  0  0  0  0  0  0  0  0  0  0
  -24.2295   -7.7244   18.4017 N   0  0  0  0  0  0  0  0  0  0  0  0
  -26.6621  -16.1776   20.3708 N   0  0  0  0  0  0  0  0  0  0  0  0
  -26.0376  -32.9873   22.2592 N   0  0  0  0  0  0  0  0  0  0  0  0
  -20.6018  -29.3189   22.4379 N   0  0  0  0  0  0  0  0  0  0  0  0
  -19.0669  -27.2554   19.8975 N   0  3  0  0  0  0  0  0  0  0  0  0
  -24.6547   -8.8665   16.4591 O   0  0  0  0  0  0  0  0  0  0  0  0
  -26.0426  -30.8264   23.1269 O   0  0  0  0  0  0  0  0  0  0  0  0
  -25.4903  -23.9399   19.2960 O   0  0  0  0  0  0  0  0  0  0  0  0
  -22.0998  -31.7574   22.3025 O   0  0  0  0  0  0  0  0  0  0  0  0
  -21.1108  -27.1404   21.8277 O   0  0  0  0  0  0  0  0  0  0  0  0
  -28.8195  -16.9874   20.1030 O   0  0  0  0  0  0  0  0  0  0  0  0
  -24.2357   -6.2016   23.7604 O   0  0  0  0  0  0  0  0  0  0  0  0
  -27.5666  -25.5827   20.3044 O   0  0  0  0  0  0  0  0  0  1  0  0
  -18.9333   -4.6887   23.7607 F   0  0  0  0  0  0  0  0  0  0  0  0
  -23.1273   -4.9164   21.5781 F   0  0  0  0  0  0  0  0  0  0  0  0
  -24.2380  -17.2544   20.7110 S   0  0  0  0  0  0  0  0  0  0  0  0
  1  2  1  0  0  0  0
  1  5  2  0  0  0  0
  2  6  2  0  0  0  0
  3  8  2  0  0  0  0
  3 17  1  0  0  0  0
  4  9  1  0  0  0  0
  4 17  2  0  0  0  0
  5 19  1  0  0  0  0
  6 21  1  0  0  0  0
  7 10  2  0  0  0  0
  7 20  1  0  0  0  0
  8 24  1  0  0  0  0
  9 24  2  0  0  0  0
 10 25  1  0  0  0  0
 11 12  2  0  0  0  0
 11 26  1  0  0  0  0
 12 27  1  0  0  0  0
 13 22  1  0  0  0  0
 13 25  2  0  0  0  0
 14 23  1  0  0  0  0
 14 31  2  0  0  0  0
 15 27  2  0  0  0  0
 15 28  1  0  0  0  0
 16 23  2  0  0  0  0
 16 86  1  0  0  0  0
 17 29  1  0  0  0  0
 18 29  1  0  0  0  0
 18 30  2  0  0  0  0
 18 32  1  0  0  0  0
 19 21  2  0  0  0  0
 19 38  1  0  0  0  0
 20 22  2  0  0  0  0
 20 39  1  0  0  0  0
 21 47  1  0  0  0  0
 22 40  1  0  0  0  0
 23 64  1  0  0  0  0
 24 82  1  0  0  0  0
 25 83  1  0  0  0  0
 26 28  2  0  0  0  0
 26 82  1  0  0  0  0
 27 84  1  0  0  0  0
 28 85  1  0  0  0  0
 29 66  2  0  0  0  0
 30 67  1  0  0  0  0
 30 70  1  0  0  0  0
 31 72  1  0  0  0  0
 31 86  1  0  0  0  0
 32 71  1  0  0  0  0
 32 76  2  0  0  0  0
 33 48  1  0  0  0  0
 33 73  1  0  0  0  0
 33 77  2  0  0  0  0
 34 58  1  0  0  0  0
 34 61  1  0  0  0  0
 34 78  2  0  0  0  0
 35 62  1  0  0  0  0
 35 68  1  0  0  0  0
 35 79  2  0  0  0  0
 36 63  1  0  0  0  0
 36 74  1  0  0  0  0
 36 80  2  0  0  0  0
 37 69  1  0  0  0  0
 37 72  1  0  0  0  0
 37 81  2  0  0  0  0
 38 41  1  0  0  0  0
 39 48  1  0  0  0  0
 40 68  1  0  0  0  0
 41 43  1  0  0  0  0
 42 44  1  0  0  0  0
 42 45  1  0  0  0  0
 43 47  1  0  0  0  0
 44 49  1  0  0  0  0
 45 69  1  0  0  0  0
 46 49  1  0  0  0  0
 46 69  1  0  0  0  0
 47 73  1  0  0  0  0
 48 68  1  0  0  0  0
 49 67  1  0  0  0  0
 50 59  1  0  0  0  0
 51 61  1  0  0  0  0
 52 63  1  0  0  0  0
 53 64  1  0  0  0  0
 54 65  1  0  0  0  0
 55 65  1  0  0  0  0
 56 65  1  0  0  0  0
 57 75  1  0  0  0  0
 58 60  1  0  0  0  0
 59 64  1  0  0  0  0
 60 83  1  0  0  0  0
 61 64  1  0  0  0  0
 62 65  1  0  0  0  0
 62 74  1  0  0  0  0
 63 75  1  0  0  0  0
 66 67  1  0  0  0  0
M  CHG  1  75   1
M  ISO  4  37 100  60 101  72 100  83 101
M  END
> <Batch ID>
0143

> <Smiles>
CCC(C)(c1csc([100NH:0][100C:0](=O)N2CCCC(n3nc(-c4ccc(Oc5ccc(F)cc5F)cc4)c(C(N)=O)c3N)C2)c1)C(C)C(=O)C[101CH2:1][101O:1]c1ccc2c(c1)CN(C(=O)C(NC(=O)C(C)NC)C(C)(C)C)C(C(=O)NC1CCCc3ccccc31)C2

> <Shape>
0.254

> <Color>
0.077

> <Negative vol penalty>
0.000

$$$$

  -OEChem-04052303003D

 92101  0     1  0  0  0  0  0999 V2000
  -16.7377  -30.9935   20.0372 C   0  0  0  0  0  0  0  0  0  0  0  0
  -18.0198  -31.4589   19.7636 C   0  0  0  0  0  0  0  0  0  0  0  0
  -26.1142  -11.8335   20.2916 C   0  0  0  0  0  0  0  0  0  0  0  0
  -27.7755  -11.0471   21.8596 C   0  0  0  0  0  0  0  0  0  0  0  0
  -16.4594  -30.4047   21.2700 C   0  0  0  0  0  0  0  0  0  0  0  0
  -19.0242  -31.3369   20.7232 C   0  0  0  0  0  0  0  0  0  0  0  0
  -25.0769  -27.6942   19.3133 C   0  0  0  0  0  0  0  0  0  0  0  0
  -25.1392  -11.0823   20.9479 C   0  0  0  0  0  0  0  0  0  0  0  0
  -26.8005  -10.2960   22.5159 C   0  0  0  0  0  0  0  0  0  0  0  0
  -26.3519  -27.1936   19.0488 C   0  0  0  0  0  0  0  0  0  0  0  0
  -24.1456   -7.8540   21.0697 C   0  0  0  0  0  0  0  0  0  0  0  0
  -23.2646   -7.1099   20.2850 C   0  0  0  0  0  0  0  0  0  0  0  0
  -27.0091  -27.6300   21.3347 C   0  0  0  0  0  0  0  0  0  0  0  0
  -28.2298  -22.7255   20.1469 C   0  0  0  0  0  0  0  0  0  0  0  0
  -27.9608  -20.3249   20.1066 C   0  0  0  0  0  0  0  0  0  0  0  0
  -30.0149  -21.2967   20.9272 C   0  0  0  0  0  0  0  0  0  0  0  0
  -21.4024   -8.3426   21.2070 C   0  0  0  0  0  0  0  0  0  0  0  0
  -27.4324  -11.8158   20.7474 C   0  0  0  0  0  0  0  0  0  0  0  0
  -28.8397  -12.4756   18.7246 C   0  0  0  0  0  0  0  0  0  0  0  0
  -17.4632  -30.2666   22.2415 C   0  0  0  0  0  0  0  0  0  0  0  0
  -24.7580  -28.1509   20.5951 C   0  0  0  0  0  0  0  0  0  0  0  0
  -18.7587  -30.7469   21.9706 C   0  0  0  0  0  0  0  0  0  0  0  0
  -25.7298  -28.1210   21.6089 C   0  0  0  0  0  0  0  0  0  0  0  0
  -27.4554  -21.6014   19.8599 C   0  0  0  0  0  0  0  0  0  0  0  0
  -29.5095  -22.5732   20.6805 C   0  0  0  0  0  0  0  0  0  0  0  0
  -29.2405  -20.1725   20.6402 C   0  0  0  0  0  0  0  0  0  0  0  0
  -25.4823  -10.3136   22.0601 C   0  0  0  0  0  0  0  0  0  0  0  0
  -27.3156  -27.1619   20.0570 C   0  0  0  0  0  0  0  0  0  0  0  0
  -23.6551   -8.8423   21.9231 C   0  0  0  0  0  0  0  0  0  0  0  0
  -21.8930   -7.3542   20.3536 C   0  0  0  0  0  0  0  0  0  0  0  0
  -22.2835   -9.0867   21.9917 C   0  0  0  0  0  0  0  0  0  0  0  0
  -28.4401  -12.5911   20.0695 C   0  0  0  0  0  0  0  0  0  0  0  0
  -29.8180  -13.4279   18.5741 C   0  0  0  0  0  0  0  0  0  0  0  0
  -28.3687  -11.5871   17.7027 C   0  0  0  0  0  0  0  0  0  0  0  0
  -22.1583  -29.6131   22.8709 C   0  0  0  0  0  0  0  0  0  0  0  0
  -26.1177  -22.5160   17.9165 C   0  0  0  0  0  0  0  0  0  0  0  0
  -23.6829  -27.5059   24.4975 C   0  0  0  0  0  0  0  0  0  0  0  0
  -25.3232  -24.8172   25.8080 C   0  0  0  0  0  0  0  0  0  0  0  0
  -31.0024  -18.5483   21.4173 C   0  0  0  0  0  0  0  0  0  0  0  0
  -17.1030  -29.6662   23.5774 C   0  0  0  0  0  0  0  0  0  0  0  0
  -23.4165  -28.7553   20.9093 C   0  0  0  0  0  0  0  0  0  0  0  0
  -25.3526  -28.6549   22.9637 C   0  0  0  0  0  0  0  0  0  0  0  0
  -18.3157  -29.2358   24.3986 C   0  0  0  0  0  0  0  0  0  0  0  0
  -33.1867  -15.7602   21.0533 C   0  0  0  0  0  0  0  0  0  0  0  0
  -31.5326  -25.0486   22.6078 C   0  0  0  0  0  0  0  0  0  0  0  0
  -19.3771  -30.3314   24.3977 C   0  0  0  0  0  0  0  0  0  0  0  0
  -32.2546  -14.6221   20.6314 C   0  0  0  0  0  0  0  0  0  0  0  0
  -31.8763  -26.0408   21.5010 C   0  0  0  0  0  0  0  0  0  0  0  0
  -31.2596  -23.6492   22.0619 C   0  0  0  0  0  0  0  0  0  0  0  0
  -32.5221  -16.6920   22.0651 C   0  0  0  0  0  0  0  0  0  0  0  0
  -30.2840  -16.0855   21.2332 C   0  0  0  0  0  0  0  0  0  0  0  0
  -30.5909  -24.6181   19.8596 C   0  0  0  0  0  0  0  0  0  0  0  0
  -19.8811  -30.6101   22.9765 C   0  0  1  0  0  0  0  0  0  0  0  0
  -22.9343  -28.4448   22.3377 C   0  0  1  0  0  0  0  0  0  0  0  0
  -30.8864  -15.1575   20.1657 C   0  0  2  0  0  0  0  0  0  0  0  0
  -30.8229  -26.0564   20.3735 C   0  0  2  0  0  0  0  0  0  0  0  0
  -31.3459  -26.9269   19.2160 C   0  0  0  0  0  0  0  0  0  0  0  0
  -27.5180  -22.8996   15.8473 C   0  0  0  0  0  0  0  0  0  0  0  0
  -25.4966  -23.4441   27.9013 C   0  0  0  0  0  0  0  0  0  0  0  0
  -25.2046  -22.5922   20.2735 C   0  0  0  0  0  0  0  0  0  0  0  0
  -25.2903  -20.4469   19.0268 C   0  0  0  0  0  0  0  0  0  0  0  0
  -25.3039  -29.7279   25.8163 C   0  0  0  0  0  0  0  0  0  0  0  0
  -26.2194  -28.0213   27.4030 C   0  0  0  0  0  0  0  0  0  0  0  0
  -23.7709  -28.4965   27.3616 C   0  0  0  0  0  0  0  0  0  0  0  0
  -24.4562  -22.3592   24.4061 C   0  0  0  0  0  0  0  0  0  0  0  0
  -26.9190  -21.8700   16.7898 C   0  0  0  0  0  0  0  0  0  0  0  0
  -29.4954  -26.6639   20.8681 C   0  0  0  0  0  0  0  0  0  1  0  0
  -24.8181  -27.2191   25.4475 C   0  0  1  0  0  0  0  0  0  0  0  0
  -24.8184  -23.5917   26.5482 C   0  0  2  0  0  0  0  0  0  0  0  0
  -26.0872  -21.7645   19.2893 C   0  0  0  0  0  0  0  0  0  0  0  0
  -25.0310  -28.3629   26.4790 C   0  0  0  0  0  0  0  0  0  0  0  0
  -29.1099  -13.5417   20.7266 N   0  0  0  0  0  0  0  0  0  0  0  0
  -29.9403  -14.0321   19.7907 N   0  0  0  0  0  0  0  0  0  0  0  0
  -30.2860  -23.7009   20.9682 N   0  0  1  0  0  0  0  0  0  0  0  0
  -24.0004  -28.2007   23.3241 N   0  0  0  0  0  0  0  0  0  0  0  0
  -31.2330  -17.1631   21.5542 N   0  0  0  0  0  0  0  0  0  0  0  0
  -30.5769  -13.7989   17.5211 N   0  0  0  0  0  0  0  0  0  0  0  0
  -27.3590  -10.6709   18.0273 N   0  0  0  0  0  0  0  0  0  0  0  0
  -29.7532  -18.8756   20.8911 N   0  0  0  0  0  0  0  0  0  0  0  0
  -20.8122  -29.5834   22.5601 N   0  0  0  0  0  0  0  0  0  0  0  0
  -24.5309  -25.9202   26.0464 N   0  0  0  0  0  0  0  0  0  0  0  0
  -25.0842  -22.3600   25.7524 N   0  3  0  0  0  0  0  0  0  0  0  0
  -28.8411  -11.5939   16.5406 O   0  0  0  0  0  0  0  0  0  0  0  0
  -22.7368  -30.4779   23.5183 O   0  0  0  0  0  0  0  0  0  0  0  0
  -25.5340  -23.5884   17.7436 O   0  0  0  0  0  0  0  0  0  0  0  0
  -22.5437  -27.1304   24.7881 O   0  0  0  0  0  0  0  0  0  0  0  0
  -26.3227  -24.7988   25.0931 O   0  0  0  0  0  0  0  0  0  0  0  0
  -31.8609  -19.3819   21.7176 O   0  0  0  0  0  0  0  0  0  0  0  0
  -24.5312   -9.5807   22.7009 O   0  0  0  0  0  0  0  0  0  0  0  0
  -28.5570  -26.6677   19.7931 O   0  0  0  0  0  0  0  0  0  1  0  0
  -21.0472   -6.6407   19.5989 F   0  0  0  0  0  0  0  0  0  0  0  0
  -21.8064  -10.0357   22.8088 F   0  0  0  0  0  0  0  0  0  0  0  0
  1  2  1  0  0  0  0
  1  5  2  0  0  0  0
  2  6  2  0  0  0  0
  3  8  2  0  0  0  0
  3 18  1  0  0  0  0
  4  9  1  0  0  0  0
  4 18  2  0  0  0  0
  5 20  1  0  0  0  0
  6 22  1  0  0  0  0
  7 10  2  0  0  0  0
  7 21  1  0  0  0  0
  8 27  1  0  0  0  0
  9 27  2  0  0  0  0
 10 28  1  0  0  0  0
 11 12  2  0  0  0  0
 11 29  1  0  0  0  0
 12 30  1  0  0  0  0
 13 23  1  0  0  0  0
 13 28  2  0  0  0  0
 14 24  2  0  0  0  0
 14 25  1  0  0  0  0
 15 24  1  0  0  0  0
 15 26  2  0  0  0  0
 16 25  2  0  0  0  0
 16 26  1  0  0  0  0
 17 30  2  0  0  0  0
 17 31  1  0  0  0  0
 18 32  1  0  0  0  0
 19 32  1  0  0  0  0
 19 33  2  0  0  0  0
 19 34  1  0  0  0  0
 20 22  2  0  0  0  0
 20 40  1  0  0  0  0
 21 23  2  0  0  0  0
 21 41  1  0  0  0  0
 22 53  1  0  0  0  0
 23 42  1  0  0  0  0
 24 70  1  0  0  0  0
 25 74  1  0  0  0  0
 26 79  1  0  0  0  0
 27 89  1  0  0  0  0
 28 90  1  0  0  0  0
 29 31  2  0  0  0  0
 29 89  1  0  0  0  0
 30 91  1  0  0  0  0
 31 92  1  0  0  0  0
 32 72  2  0  0  0  0
 33 73  1  0  0  0  0
 33 77  1  0  0  0  0
 34 78  1  0  0  0  0
 34 83  2  0  0  0  0
 35 54  1  0  0  0  0
 35 80  1  0  0  0  0
 35 84  2  0  0  0  0
 36 66  1  0  0  0  0
 36 70  1  0  0  0  0
 36 85  2  0  0  0  0
 37 68  1  0  0  0  0
 37 75  1  0  0  0  0
 37 86  2  0  0  0  0
 38 69  1  0  0  0  0
 38 81  1  0  0  0  0
 38 87  2  0  0  0  0
 39 76  1  0  0  0  0
 39 79  1  0  0  0  0
 39 88  2  0  0  0  0
 40 43  1  0  0  0  0
 41 54  1  0  0  0  0
 42 75  1  0  0  0  0
 43 46  1  0  0  0  0
 44 47  1  0  0  0  0
 44 50  1  0  0  0  0
 45 48  1  0  0  0  0
 45 49  1  0  0  0  0
 46 53  1  0  0  0  0
 47 55  1  0  0  0  0
 48 56  1  0  0  0  0
 49 74  1  0  0  0  0
 50 76  1  0  0  0  0
 51 55  1  0  0  0  0
 51 76  1  0  0  0  0
 52 56  1  0  0  0  0
 52 74  1  0  0  0  0
 53 80  1  0  0  0  0
 54 75  1  0  0  0  0
 55 73  1  0  0  0  0
 56 57  1  0  0  0  0
 56 67  1  0  0  0  0
 58 66  1  0  0  0  0
 59 69  1  0  0  0  0
 60 70  1  0  0  0  0
 61 70  1  0  0  0  0
 62 71  1  0  0  0  0
 63 71  1  0  0  0  0
 64 71  1  0  0  0  0
 65 82  1  0  0  0  0
 67 90  1  0  0  0  0
 68 71  1  0  0  0  0
 68 81  1  0  0  0  0
 69 82  1  0  0  0  0
 72 73  1  0  0  0  0
M  CHG  1  82   1
M  ISO  4  39 100  67 101  79 100  90 101
M  END
> <Batch ID>
0143

> <Smiles>
CCC(=O)C(C)(C)c1cc([100NH:0][100C:0](=O)N2CCCC(n3nc(-c4ccc(Oc5ccc(F)cc5F)cc4)c(C(N)=O)c3N)C2)cc(N2CCCC(C)([101CH2:1][101O:1]c3ccc4c(c3)CN(C(=O)C(NC(=O)C(C)NC)C(C)(C)C)C(C(=O)NC3CCCc5ccccc53)C4)C2)c1

> <Shape>
0.277

> <Color>
0.069

> <Negative vol penalty>
0.000

$$$$

  -OEChem-04052303003D

 88 97  0     1  0  0  0  0  0999 V2000
  -30.2365  -36.6559   26.4033 C   0  0  0  0  0  0  0  0  0  0  0  0
  -30.5539  -35.7213   25.4229 C   0  0  0  0  0  0  0  0  0  0  0  0
  -23.2027   -9.5983   20.6951 C   0  0  0  0  0  0  0  0  0  0  0  0
  -23.7780  -10.2751   22.9419 C   0  0  0  0  0  0  0  0  0  0  0  0
  -29.2641  -19.6632   20.8638 C   0  0  0  0  0  0  0  0  0  0  0  0
  -31.0359  -19.0884   19.3252 C   0  0  0  0  0  0  0  0  0  0  0  0
  -29.2023  -36.3979   27.3021 C   0  0  0  0  0  0  0  0  0  0  0  0
  -29.8379  -34.5275   25.3414 C   0  0  0  0  0  0  0  0  0  0  0  0
  -28.3980  -31.4385   20.2531 C   0  0  0  0  0  0  0  0  0  0  0  0
  -29.1463  -18.3222   21.2292 C   0  0  0  0  0  0  0  0  0  0  0  0
  -30.9182  -17.7474   19.6906 C   0  0  0  0  0  0  0  0  0  0  0  0
  -22.4826   -8.5180   21.2049 C   0  0  0  0  0  0  0  0  0  0  0  0
  -23.0579   -9.1947   23.4517 C   0  0  0  0  0  0  0  0  0  0  0  0
  -28.9759  -30.3319   19.6325 C   0  0  0  0  0  0  0  0  0  0  0  0
  -19.8224   -8.4133   24.0363 C   0  0  0  0  0  0  0  0  0  0  0  0
  -18.9771   -8.6531   25.1195 C   0  0  0  0  0  0  0  0  0  0  0  0
  -27.3890  -28.8905   20.7386 C   0  0  0  0  0  0  0  0  0  0  0  0
  -20.2241   -7.0636   26.4445 C   0  0  0  0  0  0  0  0  0  0  0  0
  -23.8504  -10.4769   21.5636 C   0  0  0  0  0  0  0  0  0  0  0  0
  -30.2089  -20.0463   19.9118 C   0  0  0  0  0  0  0  0  0  0  0  0
  -24.1111  -12.8878   20.7717 C   0  0  0  0  0  0  0  0  0  0  0  0
  -28.4669  -35.2046   27.2254 C   0  0  0  0  0  0  0  0  0  0  0  0
  -27.3165  -31.2781   21.1311 C   0  0  0  0  0  0  0  0  0  0  0  0
  -28.7938  -34.2527   26.2408 C   0  0  0  0  0  0  0  0  0  0  0  0
  -26.7976  -29.9970   21.3671 C   0  0  0  0  0  0  0  0  0  0  0  0
  -29.9733  -17.3643   20.6426 C   0  0  0  0  0  0  0  0  0  0  0  0
  -22.4102   -8.3161   22.5832 C   0  0  0  0  0  0  0  0  0  0  0  0
  -28.4732  -29.0573   19.8774 C   0  0  0  0  0  0  0  0  0  0  0  0
  -20.8686   -7.4986   24.1571 C   0  0  0  0  0  0  0  0  0  0  0  0
  -19.1779   -7.9783   26.3236 C   0  0  0  0  0  0  0  0  0  0  0  0
  -21.0694   -6.8238   25.3612 C   0  0  0  0  0  0  0  0  0  0  0  0
  -24.5949  -11.5928   21.0377 C   0  0  0  0  0  0  0  0  0  0  0  0
  -25.2014  -13.5690   20.2882 C   0  0  0  0  0  0  0  0  0  0  0  0
  -30.3334  -21.4631   19.5255 C   0  0  0  0  0  0  0  0  0  0  0  0
  -22.7940  -13.4268   20.9461 C   0  0  0  0  0  0  0  0  0  0  0  0
  -26.8225  -31.8737   24.2141 C   0  0  0  0  0  0  0  0  0  0  0  0
  -30.1640  -25.8586   19.6149 C   0  0  0  0  0  0  0  0  0  0  0  0
  -23.7823  -31.0002   23.4955 C   0  0  0  0  0  0  0  0  0  0  0  0
  -21.6727  -29.2705   21.4449 C   0  0  0  0  0  0  0  0  0  0  0  0
  -30.5962  -14.9260   20.5285 C   0  0  0  0  0  0  0  0  0  0  0  0
  -27.3888  -34.9493   28.2487 C   0  0  0  0  0  0  0  0  0  0  0  0
  -26.6873  -32.4847   21.7719 C   0  0  0  0  0  0  0  0  0  0  0  0
  -25.6250  -29.7731   22.2854 C   0  0  0  0  0  0  0  0  0  0  0  0
  -26.4328  -33.8249   27.8587 C   0  0  0  0  0  0  0  0  0  0  0  0
  -29.7588  -11.8979   18.8532 C   0  0  0  0  0  0  0  0  0  0  0  0
  -32.5796  -23.0583   21.8754 C   0  0  0  0  0  0  0  0  0  0  0  0
  -27.2110  -32.6121   27.3583 C   0  0  0  0  0  0  0  0  0  0  0  0
  -28.3009  -11.6551   19.2503 C   0  0  0  0  0  0  0  0  0  0  0  0
  -32.6754  -23.9723   20.6582 C   0  0  0  0  0  0  0  0  0  0  0  0
  -31.9877  -21.7710   21.3156 C   0  0  0  0  0  0  0  0  0  0  0  0
  -30.5673  -12.4976   20.0023 C   0  0  0  0  0  0  0  0  0  0  0  0
  -28.5326  -13.4647   20.9992 C   0  0  0  0  0  0  0  0  0  0  0  0
  -28.0239  -32.9570   26.1046 C   0  0  1  0  0  0  0  0  0  0  0  0
  -25.9183  -32.1515   23.0467 C   0  0  1  0  0  0  0  0  0  0  0  0
  -27.6627  -12.9217   19.8537 C   0  0  2  0  0  0  0  0  0  0  0  0
  -31.4048  -23.6666   19.8595 C   0  0  2  0  0  0  0  0  0  0  0  0
  -19.2458  -28.7138   21.1327 C   0  0  0  0  0  0  0  0  0  0  0  0
  -23.9507  -28.9920   25.7865 C   0  0  0  0  0  0  0  0  0  0  0  0
  -21.9356  -27.8475   24.8390 C   0  0  0  0  0  0  0  0  0  0  0  0
  -21.7722  -30.2095   25.6245 C   0  0  0  0  0  0  0  0  0  0  0  0
  -21.5950  -30.5768   18.7904 C   0  0  0  0  0  0  0  0  0  0  0  0
  -30.2105  -24.5019   20.2960 C   0  0  0  0  0  0  0  0  0  0  0  0
  -28.9831  -26.7367   19.9799 C   0  0  0  0  0  0  0  0  0  1  0  0
  -23.0182  -29.6983   23.4848 C   0  0  1  0  0  0  0  0  0  0  0  0
  -20.3725  -29.6687   20.7702 C   0  0  2  0  0  0  0  0  0  0  0  0
  -22.6925  -29.1905   24.9178 C   0  0  0  0  0  0  0  0  0  0  0  0
  -25.8915  -11.4569   20.7471 N   0  0  0  0  0  0  0  0  0  0  0  0
  -26.2317  -12.6753   20.2935 N   0  0  0  0  0  0  0  0  0  0  0  0
  -31.1648  -22.2467   20.1901 N   0  0  0  0  0  0  0  0  0  0  0  0
  -25.0482  -30.9838   22.8931 N   0  0  0  0  0  0  0  0  0  0  0  0
  -29.9045  -13.6963   20.5207 N   0  0  0  0  0  0  0  0  0  0  0  0
  -25.3697  -14.8393   19.8633 N   0  0  0  0  0  0  0  0  0  0  0  0
  -21.7914  -12.5896   21.4542 N   0  0  0  0  0  0  0  0  0  0  0  0
  -29.8538  -16.0021   21.0137 N   0  0  0  0  0  0  0  0  0  0  0  0
  -27.1647  -32.9981   24.9407 N   0  0  0  0  0  0  0  0  0  0  0  0
  -21.8437  -29.9211   22.6486 N   0  0  0  0  0  0  0  0  0  0  0  0
  -29.6087  -21.9305   18.5133 N   0  3  0  0  0  0  0  0  0  0  0  0
  -20.5348  -29.6632   19.2888 N   0  3  0  0  0  0  0  0  0  0  0  0
  -22.5106  -14.6109   20.6444 O   0  0  0  0  0  0  0  0  0  0  0  0
  -27.1818  -30.7241   24.4399 O   0  0  0  0  0  0  0  0  0  0  0  0
  -31.0250  -26.2283   18.8181 O   0  0  0  0  0  0  0  0  0  0  0  0
  -23.2716  -31.9969   24.0126 O   0  0  0  0  0  0  0  0  0  0  0  0
  -22.4564  -28.4603   20.9551 O   0  0  0  0  0  0  0  0  0  0  0  0
  -31.7521  -15.0231   20.1083 O   0  0  0  0  0  0  0  0  0  0  0  0
  -21.7074   -7.2621   23.0809 O   0  0  0  0  0  0  0  0  0  0  0  0
  -29.0358  -27.9754   19.2734 O   0  0  0  0  0  0  0  0  0  1  0  0
  -18.3670   -8.2099   27.3643 F   0  0  0  0  0  0  0  0  0  0  0  0
  -22.0735   -5.9447   25.4837 F   0  0  0  0  0  0  0  0  0  0  0  0
  1  2  1  0  0  0  0
  1  7  2  0  0  0  0
  2  8  2  0  0  0  0
  3 12  2  0  0  0  0
  3 19  1  0  0  0  0
  4 13  1  0  0  0  0
  4 19  2  0  0  0  0
  5 10  2  0  0  0  0
  5 20  1  0  0  0  0
  6 11  1  0  0  0  0
  6 20  2  0  0  0  0
  7 22  1  0  0  0  0
  8 24  1  0  0  0  0
  9 14  2  0  0  0  0
  9 23  1  0  0  0  0
 10 26  1  0  0  0  0
 11 26  2  0  0  0  0
 12 27  1  0  0  0  0
 13 27  2  0  0  0  0
 14 28  1  0  0  0  0
 15 16  2  0  0  0  0
 15 29  1  0  0  0  0
 16 30  1  0  0  0  0
 17 25  1  0  0  0  0
 17 28  2  0  0  0  0
 18 30  2  0  0  0  0
 18 31  1  0  0  0  0
 19 32  1  0  0  0  0
 20 34  1  0  0  0  0
 21 32  1  0  0  0  0
 21 33  2  0  0  0  0
 21 35  1  0  0  0  0
 22 24  2  0  0  0  0
 22 41  1  0  0  0  0
 23 25  2  0  0  0  0
 23 42  1  0  0  0  0
 24 53  1  0  0  0  0
 25 43  1  0  0  0  0
 26 74  1  0  0  0  0
 27 85  1  0  0  0  0
 28 86  1  0  0  0  0
 29 31  2  0  0  0  0
 29 85  1  0  0  0  0
 30 87  1  0  0  0  0
 31 88  1  0  0  0  0
 32 67  2  0  0  0  0
 33 68  1  0  0  0  0
 33 72  1  0  0  0  0
 34 69  1  0  0  0  0
 34 77  2  0  0  0  0
 35 73  1  0  0  0  0
 35 79  2  0  0  0  0
 36 54  1  0  0  0  0
 36 75  1  0  0  0  0
 36 80  2  0  0  0  0
 37 62  1  0  0  0  0
 37 63  1  0  0  0  0
 37 81  2  0  0  0  0
 38 64  1  0  0  0  0
 38 70  1  0  0  0  0
 38 82  2  0  0  0  0
 39 65  1  0  0  0  0
 39 76  1  0  0  0  0
 39 83  2  0  0  0  0
 40 71  1  0  0  0  0
 40 74  1  0  0  0  0
 40 84  2  0  0  0  0
 41 44  1  0  0  0  0
 42 54  1  0  0  0  0
 43 70  1  0  0  0  0
 44 47  1  0  0  0  0
 45 48  1  0  0  0  0
 45 51  1  0  0  0  0
 46 49  1  0  0  0  0
 46 50  1  0  0  0  0
 47 53  1  0  0  0  0
 48 55  1  0  0  0  0
 49 56  1  0  0  0  0
 50 69  1  0  0  0  0
 51 71  1  0  0  0  0
 52 55  1  0  0  0  0
 52 71  1  0  0  0  0
 53 75  1  0  0  0  0
 54 70  1  0  0  0  0
 55 68  1  0  0  0  0
 56 62  1  0  0  0  0
 56 69  1  0  0  0  0
 57 65  1  0  0  0  0
 58 66  1  0  0  0  0
 59 66  1  0  0  0  0
 60 66  1  0  0  0  0
 61 78  1  0  0  0  0
 63 86  1  0  0  0  0
 64 66  1  0  0  0  0
 64 76  1  0  0  0  0
 65 78  1  0  0  0  0
 67 68  1  0  0  0  0
M  CHG  2  77   1  78   1
M  ISO  4  40 100  63 101  74 100  86 101
M  END
> <Batch ID>
0143

> <Smiles>
CNC(C)C(=O)NC(C(=O)N1Cc2cc([101O:1][101CH2:1]C(=O)CC3CCCN3C(=N)c3ccc([100NH:0][100C:0](=O)N4CCCC(n5nc(-c6ccc(Oc7ccc(F)cc7F)cc6)c(C(N)=O)c5N)C4)cc3)ccc2CC1C(=O)NC1CCCc2ccccc21)C(C)(C)C

> <Shape>
0.340

> <Color>
0.182

> <Negative vol penalty>
0.000

$$$$

  -OEChem-04052303003D

 82 90  0     1  0  0  0  0  0999 V2000
  -23.4178   -7.6583   21.6041 C   0  0  0  0  0  0  0  0  0  0  0  0
  -24.1989   -8.6883   21.0899 C   0  0  0  0  0  0  0  0  0  0  0  0
  -23.6871  -30.6373   20.0419 C   0  0  0  0  0  0  0  0  0  0  0  0
  -23.5536  -29.4484   22.1409 C   0  0  0  0  0  0  0  0  0  0  0  0
  -22.0730   -7.8834   21.8950 C   0  0  0  0  0  0  0  0  0  0  0  0
  -23.6353   -9.9438   20.8652 C   0  0  0  0  0  0  0  0  0  0  0  0
  -26.5882  -13.7196   22.4989 C   0  0  0  0  0  0  0  0  0  0  0  0
  -22.6292  -31.4556   20.4380 C   0  0  0  0  0  0  0  0  0  0  0  0
  -22.4957  -30.2667   22.5371 C   0  0  0  0  0  0  0  0  0  0  0  0
  -27.6735  -14.0714   21.6976 C   0  0  0  0  0  0  0  0  0  0  0  0
  -19.1753  -30.5064   21.9469 C   0  0  0  0  0  0  0  0  0  0  0  0
  -18.0676  -29.8948   22.5339 C   0  0  0  0  0  0  0  0  0  0  0  0
  -30.7515  -22.3257   21.3760 C   0  0  0  0  0  0  0  0  0  0  0  0
  -31.6417  -21.2287   21.2913 C   0  0  0  0  0  0  0  0  0  0  0  0
  -26.4137  -15.9313   20.8184 C   0  0  0  0  0  0  0  0  0  0  0  0
  -18.4139  -31.1942   24.5411 C   0  0  0  0  0  0  0  0  0  0  0  0
  -24.1493  -29.6337   20.8933 C   0  0  0  0  0  0  0  0  0  0  0  0
  -26.6153  -29.0104   20.6981 C   0  0  0  0  0  0  0  0  0  0  0  0
  -21.4950   -9.1450   21.6828 C   0  0  0  0  0  0  0  0  0  0  0  0
  -25.4016  -14.4657   22.4578 C   0  0  0  0  0  0  0  0  0  0  0  0
  -22.2811  -10.1856   21.1523 C   0  0  0  0  0  0  0  0  0  0  0  0
  -25.3157  -15.5883   21.6220 C   0  0  0  0  0  0  0  0  0  0  0  0
  -22.0335  -31.2703   21.6856 C   0  0  0  0  0  0  0  0  0  0  0  0
  -27.5854  -15.1757   20.8550 C   0  0  0  0  0  0  0  0  0  0  0  0
  -19.9024  -31.4618   22.6570 C   0  0  0  0  0  0  0  0  0  0  0  0
  -17.6869  -30.2387   23.8310 C   0  0  0  0  0  0  0  0  0  0  0  0
  -19.5216  -31.8057   23.9541 C   0  0  0  0  0  0  0  0  0  0  0  0
  -25.2417  -28.7878   20.4844 C   0  0  0  0  0  0  0  0  0  0  0  0
  -27.2322  -27.9258   20.1240 C   0  0  0  0  0  0  0  0  0  0  0  0
  -29.7365  -22.0636   20.4855 C   0  0  0  0  0  0  0  0  0  0  0  0
  -31.1070  -20.3742   20.3554 C   0  0  0  0  0  0  0  0  0  0  0  0
  -27.2746  -30.1000   21.3567 C   0  0  0  0  0  0  0  0  0  0  0  0
  -22.3865  -13.8430   21.6673 C   0  0  0  0  0  0  0  0  0  0  0  0
  -21.8892  -16.8607   22.7483 C   0  0  0  0  0  0  0  0  0  0  0  0
  -23.5580  -20.0508   22.5124 C   0  0  0  0  0  0  0  0  0  0  0  0
  -27.5944  -22.4443   19.2156 C   0  0  0  0  0  0  0  0  0  0  0  0
  -20.0252   -9.3273   21.9680 C   0  0  0  0  0  0  0  0  0  0  0  0
  -24.2494  -14.0889   23.3481 C   0  0  0  0  0  0  0  0  0  0  0  0
  -24.0714  -16.4344   21.5560 C   0  0  0  0  0  0  0  0  0  0  0  0
  -19.5982  -10.7904   22.0529 C   0  0  0  0  0  0  0  0  0  0  0  0
  -25.3851  -24.2924   17.1226 C   0  0  0  0  0  0  0  0  0  0  0  0
  -20.1791  -11.5845   20.8872 C   0  0  0  0  0  0  0  0  0  0  0  0
  -25.2638  -25.6450   17.8282 C   0  0  0  0  0  0  0  0  0  0  0  0
  -25.4749  -23.1386   18.1197 C   0  0  0  0  0  0  0  0  0  0  0  0
  -26.3996  -24.6329   19.8463 C   0  0  0  0  0  0  0  0  0  0  0  0
  -21.7121  -11.5682   20.9181 C   0  0  1  0  0  0  0  0  0  0  0  0
  -22.9088  -14.6156   22.8455 C   0  0  1  0  0  0  0  0  0  0  0  0
  -26.3715  -25.8313   18.8836 C   0  0  2  0  0  0  0  0  0  0  0  0
  -23.5359  -22.0223   24.0649 C   0  0  0  0  0  0  0  0  0  0  0  0
  -19.6365  -17.8771   20.9588 C   0  0  0  0  0  0  0  0  0  0  0  0
  -20.5731  -20.1854   21.2091 C   0  0  0  0  0  0  0  0  0  0  0  0
  -19.7440  -18.9536   23.2136 C   0  0  0  0  0  0  0  0  0  0  0  0
  -26.5095  -20.0593   22.7306 C   0  0  0  0  0  0  0  0  0  0  0  0
  -30.9345  -16.2275   20.0155 C   0  0  0  0  0  0  0  0  0  0  0  0
  -29.9455  -15.2107   20.5648 C   0  0  0  0  0  0  0  0  0  1  0  0
  -30.5687  -17.6431   20.4264 C   0  0  0  0  0  0  0  0  0  0  0  0
  -21.9110  -18.2362   22.1265 C   0  0  1  0  0  0  0  0  0  0  0  0
  -24.2909  -20.7775   23.6256 C   0  0  2  0  0  0  0  0  0  0  0  0
  -20.4823  -18.7919   21.8669 C   0  0  0  0  0  0  0  0  0  0  0  0
  -24.9998  -27.6513   19.8259 N   0  0  0  0  0  0  0  0  0  0  0  0
  -26.2297  -27.1500   19.6206 N   0  0  0  0  0  0  0  0  0  0  0  0
  -22.9696  -16.0216   22.4410 N   0  0  0  0  0  0  0  0  0  0  0  0
  -26.5483  -23.3822   19.0858 N   0  0  0  0  0  0  0  0  0  0  0  0
  -28.5289  -27.5697   20.0055 N   0  0  0  0  0  0  0  0  0  0  0  0
  -26.4899  -31.1315   21.8901 N   0  0  0  0  0  0  0  0  0  0  0  0
  -28.5749  -22.7986   20.1416 N   0  0  0  0  0  0  0  0  0  0  0  0
  -22.2075  -12.4950   21.9131 N   0  0  0  0  0  0  0  0  0  0  0  0
  -22.7253  -19.0686   23.0054 N   0  0  0  0  0  0  0  0  0  0  0  0
  -25.6491  -21.1880   23.1698 N   0  3  0  0  0  0  0  0  0  0  0  0
  -28.5234  -30.1654   21.4543 O   0  0  0  0  0  0  0  0  0  0  0  0
  -22.1612  -14.4269   20.6137 O   0  0  0  0  0  0  0  0  0  0  0  0
  -20.9518  -16.5450   23.4853 O   0  0  0  0  0  0  0  0  0  0  0  0
  -23.7063  -20.3294   21.3246 O   0  0  0  0  0  0  0  0  0  0  0  0
  -27.6327  -21.4165   18.5342 O   0  0  0  0  0  0  0  0  0  0  0  0
  -31.5764  -18.8349   18.3195 O   0  0  0  0  0  0  0  0  0  0  0  0
  -33.0016  -18.5775   20.3807 O   0  0  0  0  0  0  0  0  0  0  0  0
  -29.9456  -20.8758   19.8594 O   0  0  0  0  0  0  0  0  0  0  0  0
  -21.0014  -32.0687   22.0726 O   0  0  0  0  0  0  0  0  0  0  0  0
  -28.6430  -15.5210   20.0714 O   0  0  0  0  0  0  0  0  0  1  0  0
  -16.6222  -29.6524   24.3940 F   0  0  0  0  0  0  0  0  0  0  0  0
  -20.2155  -32.7238   24.6408 F   0  0  0  0  0  0  0  0  0  0  0  0
  -31.7071  -18.8187   19.7664 S   0  0  0  0  0  0  0  0  0  0  0  0
  1  2  1  0  0  0  0
  1  5  2  0  0  0  0
  2  6  2  0  0  0  0
  3  8  2  0  0  0  0
  3 17  1  0  0  0  0
  4  9  1  0  0  0  0
  4 17  2  0  0  0  0
  5 19  1  0  0  0  0
  6 21  1  0  0  0  0
  7 10  2  0  0  0  0
  7 20  1  0  0  0  0
  8 23  1  0  0  0  0
  9 23  2  0  0  0  0
 10 24  1  0  0  0  0
 11 12  2  0  0  0  0
 11 25  1  0  0  0  0
 12 26  1  0  0  0  0
 13 14  1  0  0  0  0
 13 30  2  0  0  0  0
 14 31  2  0  0  0  0
 15 22  1  0  0  0  0
 15 24  2  0  0  0  0
 16 26  2  0  0  0  0
 16 27  1  0  0  0  0
 17 28  1  0  0  0  0
 18 28  1  0  0  0  0
 18 29  2  0  0  0  0
 18 32  1  0  0  0  0
 19 21  2  0  0  0  0
 19 37  1  0  0  0  0
 20 22  2  0  0  0  0
 20 38  1  0  0  0  0
 21 46  1  0  0  0  0
 22 39  1  0  0  0  0
 23 78  1  0  0  0  0
 24 79  1  0  0  0  0
 25 27  2  0  0  0  0
 25 78  1  0  0  0  0
 26 80  1  0  0  0  0
 27 81  1  0  0  0  0
 28 60  2  0  0  0  0
 29 61  1  0  0  0  0
 29 64  1  0  0  0  0
 30 66  1  0  0  0  0
 30 77  1  0  0  0  0
 31 77  1  0  0  0  0
 31 82  1  0  0  0  0
 32 65  1  0  0  0  0
 32 70  2  0  0  0  0
 33 47  1  0  0  0  0
 33 67  1  0  0  0  0
 33 71  2  0  0  0  0
 34 57  1  0  0  0  0
 34 62  1  0  0  0  0
 34 72  2  0  0  0  0
 35 58  1  0  0  0  0
 35 68  1  0  0  0  0
 35 73  2  0  0  0  0
 36 63  1  0  0  0  0
 36 66  1  0  0  0  0
 36 74  2  0  0  0  0
 37 40  1  0  0  0  0
 38 47  1  0  0  0  0
 39 62  1  0  0  0  0
 40 42  1  0  0  0  0
 41 43  1  0  0  0  0
 41 44  1  0  0  0  0
 42 46  1  0  0  0  0
 43 48  1  0  0  0  0
 44 63  1  0  0  0  0
 45 48  1  0  0  0  0
 45 63  1  0  0  0  0
 46 67  1  0  0  0  0
 47 62  1  0  0  0  0
 48 61  1  0  0  0  0
 49 58  1  0  0  0  0
 50 59  1  0  0  0  0
 51 59  1  0  0  0  0
 52 59  1  0  0  0  0
 53 69  1  0  0  0  0
 54 55  1  0  0  0  0
 54 56  1  0  0  0  0
 55 79  1  0  0  0  0
 56 82  1  0  0  0  0
 57 59  1  0  0  0  0
 57 68  1  0  0  0  0
 58 69  1  0  0  0  0
 60 61  1  0  0  0  0
 75 82  2  0  0  0  0
 76 82  2  0  0  0  0
M  CHG  1  69   1
M  ISO  4  36 100  55 101  66 100  79 101
M  END
> <Batch ID>
0143

> <Smiles>
CNC(C)C(=O)NC(C(=O)N1Cc2cc([101O:1][101CH2:1]CCS(=O)(=O)c3ccc([100NH:0][100C:0](=O)N4CCCC(n5nc(-c6ccc(Oc7ccc(F)cc7F)cc6)c(C(N)=O)c5N)C4)o3)ccc2CC1C(=O)NC1CCCc2ccccc21)C(C)(C)C

> <Shape>
0.220

> <Color>
0.092

> <Negative vol penalty>
0.000

$$$$

  -OEChem-04052303003D

 88 97  0     1  0  0  0  0  0999 V2000
  -28.9423  -19.9169   24.0548 C   0  0  0  0  0  0  0  0  0  0  0  0
  -28.1552  -20.6922   24.5258 C   0  0  0  0  0  0  0  0  0  0  0  0
  -35.9636  -34.3958   31.2979 C   0  0  0  0  0  0  0  0  0  0  0  0
  -36.0091  -33.1162   30.7539 C   0  0  0  0  0  0  0  0  0  0  0  0
  -23.2277   -9.6282   20.1179 C   0  0  0  0  0  0  0  0  0  0  0  0
  -23.8022   -9.9957   22.4357 C   0  0  0  0  0  0  0  0  0  0  0  0
  -32.1384  -18.1915   23.1889 C   0  0  0  0  0  0  0  0  0  0  0  0
  -34.7517  -35.0821   31.3620 C   0  0  0  0  0  0  0  0  0  0  0  0
  -34.8423  -32.5217   30.2746 C   0  0  0  0  0  0  0  0  0  0  0  0
  -34.3364  -28.7442   25.4808 C   0  0  0  0  0  0  0  0  0  0  0  0
  -31.6641  -17.1593   22.3795 C   0  0  0  0  0  0  0  0  0  0  0  0
  -22.5196   -8.4809   20.4754 C   0  0  0  0  0  0  0  0  0  0  0  0
  -23.0940   -8.8484   22.7931 C   0  0  0  0  0  0  0  0  0  0  0  0
  -34.2624  -27.3553   25.3848 C   0  0  0  0  0  0  0  0  0  0  0  0
  -19.8679   -7.9618   23.2689 C   0  0  0  0  0  0  0  0  0  0  0  0
  -19.0231   -8.0421   24.3758 C   0  0  0  0  0  0  0  0  0  0  0  0
  -29.4047  -17.9587   22.6841 C   0  0  0  0  0  0  0  0  0  0  0  0
  -31.8558  -27.4955   25.2969 C   0  0  0  0  0  0  0  0  0  0  0  0
  -20.2890   -6.2983   25.4684 C   0  0  0  0  0  0  0  0  0  0  0  0
  -29.8790  -18.9909   23.4936 C   0  0  0  0  0  0  0  0  0  0  0  0
  -23.8691  -10.3856   21.0981 C   0  0  0  0  0  0  0  0  0  0  0  0
  -31.2459  -19.1073   23.7460 C   0  0  0  0  0  0  0  0  0  0  0  0
  -24.1042  -12.8849   20.6444 C   0  0  0  0  0  0  0  0  0  0  0  0
  -33.5712  -34.4996   30.8744 C   0  0  0  0  0  0  0  0  0  0  0  0
  -33.1682  -29.5198   25.4966 C   0  0  0  0  0  0  0  0  0  0  0  0
  -33.6132  -33.2004   30.3334 C   0  0  0  0  0  0  0  0  0  0  0  0
  -31.9177  -28.8943   25.3906 C   0  0  0  0  0  0  0  0  0  0  0  0
  -30.2973  -17.0429   22.1270 C   0  0  0  0  0  0  0  0  0  0  0  0
  -22.4527   -8.0910   21.8130 C   0  0  0  0  0  0  0  0  0  0  0  0
  -33.0219  -26.7305   25.2957 C   0  0  0  0  0  0  0  0  0  0  0  0
  -20.9232   -7.0496   23.2616 C   0  0  0  0  0  0  0  0  0  0  0  0
  -19.2336   -7.2104   25.4756 C   0  0  0  0  0  0  0  0  0  0  0  0
  -21.1338   -6.2179   24.3614 C   0  0  0  0  0  0  0  0  0  0  0  0
  -24.6013  -11.5706   20.7294 C   0  0  0  0  0  0  0  0  0  0  0  0
  -25.1866  -13.6370   20.2577 C   0  0  0  0  0  0  0  0  0  0  0  0
  -32.8885  -23.4958   23.7464 C   0  0  0  0  0  0  0  0  0  0  0  0
  -32.9574  -24.8142   23.9563 C   0  0  0  0  0  0  0  0  0  1  0  0
  -31.7801  -20.1856   24.5969 C   0  0  0  0  0  0  0  0  0  0  0  0
  -22.7824  -13.3816   20.8928 C   0  0  0  0  0  0  0  0  0  0  0  0
  -31.8217  -31.5050   27.5822 C   0  0  0  0  0  0  0  0  0  0  0  0
  -29.7438  -32.0317   25.1477 C   0  0  0  0  0  0  0  0  0  0  0  0
  -28.2977  -30.8905   22.2748 C   0  0  0  0  0  0  0  0  0  0  0  0
  -30.5685  -15.0021   20.6752 C   0  0  0  0  0  0  0  0  0  0  0  0
  -32.2766  -35.2617   31.0084 C   0  0  0  0  0  0  0  0  0  0  0  0
  -33.2660  -31.0187   25.5738 C   0  0  0  0  0  0  0  0  0  0  0  0
  -30.6346  -29.6830   25.3828 C   0  0  0  0  0  0  0  0  0  0  0  0
  -32.8966  -22.8336   22.3998 C   0  0  0  0  0  0  0  0  0  0  0  0
  -32.6714  -22.4674   24.8141 C   0  0  0  0  0  0  0  0  0  0  0  0
  -31.1517  -34.7094   30.1366 C   0  0  0  0  0  0  0  0  0  0  0  0
  -29.7563  -12.2245   18.6010 C   0  0  0  0  0  0  0  0  0  0  0  0
  -31.0754  -33.1911   30.2622 C   0  0  0  0  0  0  0  0  0  0  0  0
  -28.3018  -11.9149   18.9628 C   0  0  0  0  0  0  0  0  0  0  0  0
  -32.0089  -21.6123   22.6055 C   0  0  0  0  0  0  0  0  0  0  0  0
  -30.5618  -12.6687   19.8206 C   0  0  0  0  0  0  0  0  0  0  0  0
  -28.5204  -13.4694   20.9434 C   0  0  0  0  0  0  0  0  0  0  0  0
  -32.3734  -32.5317   29.7805 C   0  0  1  0  0  0  0  0  0  0  0  0
  -31.9925  -31.6744   26.0990 C   0  0  1  0  0  0  0  0  0  0  0  0
  -27.6529  -13.0802   19.7353 C   0  0  2  0  0  0  0  0  0  0  0  0
  -27.1962  -21.6353   25.0991 C   0  0  0  0  0  0  0  0  0  0  0  0
  -26.6083  -31.5276   20.5320 C   0  0  0  0  0  0  0  0  0  0  0  0
  -27.4895  -31.3707   27.0948 C   0  0  0  0  0  0  0  0  0  0  0  0
  -25.9664  -31.0909   25.1276 C   0  0  0  0  0  0  0  0  0  0  0  0
  -27.0248  -33.3043   25.5784 C   0  0  0  0  0  0  0  0  0  0  0  0
  -30.3234  -30.8187   20.1184 C   0  0  0  0  0  0  0  0  0  0  0  0
  -28.4452  -31.4078   24.6966 C   0  0  1  0  0  0  0  0  0  0  0  0
  -28.0768  -31.5523   20.9266 C   0  0  2  0  0  0  0  0  0  0  0  0
  -27.2554  -31.7782   25.6264 C   0  0  0  0  0  0  0  0  0  0  0  0
  -25.8984  -11.4889   20.4213 N   0  0  0  0  0  0  0  0  0  0  0  0
  -26.2255  -12.7614   20.1389 N   0  0  0  0  0  0  0  0  0  0  0  0
  -32.1291  -21.3344   24.0459 N   0  0  0  0  0  0  0  0  0  0  0  0
  -30.7823  -31.1454   25.4668 N   0  0  0  0  0  0  0  0  0  0  0  0
  -29.8888  -13.7782   20.4995 N   0  0  0  0  0  0  0  0  0  0  0  0
  -25.3413  -14.9551   20.0110 N   0  0  0  0  0  0  0  0  0  0  0  0
  -21.7893  -12.4726   21.2823 N   0  0  0  0  0  0  0  0  0  0  0  0
  -29.8169  -15.9938   21.3046 N   0  0  0  0  0  0  0  0  0  0  0  0
  -32.4174  -32.4995   28.3343 N   0  0  0  0  0  0  0  0  0  0  0  0
  -28.2626  -31.8063   23.3051 N   0  0  0  0  0  0  0  0  0  0  0  0
  -31.9007  -19.9859   25.9060 N   0  3  0  0  0  0  0  0  0  0  0  0
  -28.8590  -30.8498   19.8704 N   0  3  0  0  0  0  0  0  0  0  0  0
  -22.4867  -14.5931   20.7570 O   0  0  0  0  0  0  0  0  0  0  0  0
  -31.1947  -30.5441   28.0124 O   0  0  0  0  0  0  0  0  0  0  0  0
  -29.8357  -33.2604   25.2076 O   0  0  0  0  0  0  0  0  0  0  0  0
  -28.4793  -29.6816   22.4017 O   0  0  0  0  0  0  0  0  0  0  0  0
  -31.7223  -15.1675   20.2710 O   0  0  0  0  0  0  0  0  0  0  0  0
  -21.7616   -6.9717   22.1622 O   0  0  0  0  0  0  0  0  0  0  0  0
  -32.9469  -25.3750   25.2025 O   0  0  0  0  0  0  0  0  0  1  0  0
  -18.4232   -7.2887   26.5393 F   0  0  0  0  0  0  0  0  0  0  0  0
  -22.1467   -5.3405   24.3607 F   0  0  0  0  0  0  0  0  0  0  0  0
  1  2  3  0  0  0  0
  1 20  1  0  0  0  0
  2 59  1  0  0  0  0
  3  4  1  0  0  0  0
  3  8  2  0  0  0  0
  4  9  2  0  0  0  0
  5 12  2  0  0  0  0
  5 21  1  0  0  0  0
  6 13  1  0  0  0  0
  6 21  2  0  0  0  0
  7 11  2  0  0  0  0
  7 22  1  0  0  0  0
  8 24  1  0  0  0  0
  9 26  1  0  0  0  0
 10 14  2  0  0  0  0
 10 25  1  0  0  0  0
 11 28  1  0  0  0  0
 12 29  1  0  0  0  0
 13 29  2  0  0  0  0
 14 30  1  0  0  0  0
 15 16  2  0  0  0  0
 15 31  1  0  0  0  0
 16 32  1  0  0  0  0
 17 20  1  0  0  0  0
 17 28  2  0  0  0  0
 18 27  1  0  0  0  0
 18 30  2  0  0  0  0
 19 32  2  0  0  0  0
 19 33  1  0  0  0  0
 20 22  2  0  0  0  0
 21 34  1  0  0  0  0
 22 38  1  0  0  0  0
 23 34  1  0  0  0  0
 23 35  2  0  0  0  0
 23 39  1  0  0  0  0
 24 26  2  0  0  0  0
 24 44  1  0  0  0  0
 25 27  2  0  0  0  0
 25 45  1  0  0  0  0
 26 56  1  0  0  0  0
 27 46  1  0  0  0  0
 28 75  1  0  0  0  0
 29 85  1  0  0  0  0
 30 86  1  0  0  0  0
 31 33  2  0  0  0  0
 31 85  1  0  0  0  0
 32 87  1  0  0  0  0
 33 88  1  0  0  0  0
 34 68  2  0  0  0  0
 35 69  1  0  0  0  0
 35 73  1  0  0  0  0
 36 37  2  0  0  0  0
 36 47  1  0  0  0  0
 36 48  1  0  0  0  0
 37 86  1  0  0  0  0
 38 70  1  0  0  0  0
 38 78  2  0  0  0  0
 39 74  1  0  0  0  0
 39 80  2  0  0  0  0
 40 57  1  0  0  0  0
 40 76  1  0  0  0  0
 40 81  2  0  0  0  0
 41 65  1  0  0  0  0
 41 71  1  0  0  0  0
 41 82  2  0  0  0  0
 42 66  1  0  0  0  0
 42 77  1  0  0  0  0
 42 83  2  0  0  0  0
 43 72  1  0  0  0  0
 43 75  1  0  0  0  0
 43 84  2  0  0  0  0
 44 49  1  0  0  0  0
 45 57  1  0  0  0  0
 46 71  1  0  0  0  0
 47 53  1  0  0  0  0
 48 70  1  0  0  0  0
 49 51  1  0  0  0  0
 50 52  1  0  0  0  0
 50 54  1  0  0  0  0
 51 56  1  0  0  0  0
 52 58  1  0  0  0  0
 53 70  1  0  0  0  0
 54 72  1  0  0  0  0
 55 58  1  0  0  0  0
 55 72  1  0  0  0  0
 56 76  1  0  0  0  0
 57 71  1  0  0  0  0
 58 69  1  0  0  0  0
 60 66  1  0  0  0  0
 61 67  1  0  0  0  0
 62 67  1  0  0  0  0
 63 67  1  0  0  0  0
 64 79  1  0  0  0  0
 65 67  1  0  0  0  0
 65 77  1  0  0  0  0
 66 79  1  0  0  0  0
 68 69  1  0  0  0  0
M  CHG  2  78   1  79   1
M  ISO  4  37 101  43 100  75 100  86 101
M  END
> <Batch ID>
0143

> <Smiles>
CC#Cc1cc([100NH:0][100C:0](=O)N2CCCC(n3nc(-c4ccc(Oc5ccc(F)cc5F)cc4)c(C(N)=O)c3N)C2)ccc1C(=N)N1CCC(=[101CH:1][101O:1]c2ccc3c(c2)CN(C(=O)C(NC(=O)C(C)NC)C(C)(C)C)C(C(=O)NC2CCCc4ccccc42)C3)C1

> <Shape>
0.209

> <Color>
0.178

> <Negative vol penalty>
0.000

$$$$

  -OEChem-04052303003D

 85 93  0     1  0  0  0  0  0999 V2000
  -34.0956  -27.0935   16.9498 C   0  0  0  0  0  0  0  0  0  0  0  0
  -34.5824  -27.2071   18.2481 C   0  0  0  0  0  0  0  0  0  0  0  0
  -23.1922   -9.8176   19.9321 C   0  0  0  0  0  0  0  0  0  0  0  0
  -23.5730   -9.9987   22.3110 C   0  0  0  0  0  0  0  0  0  0  0  0
  -32.8509  -26.5081   16.7219 C   0  0  0  0  0  0  0  0  0  0  0  0
  -33.8242  -26.7363   19.3194 C   0  0  0  0  0  0  0  0  0  0  0  0
  -36.4125  -21.6884   23.7592 C   0  0  0  0  0  0  0  0  0  0  0  0
  -31.7454  -12.7399   26.4196 C   0  0  0  0  0  0  0  0  0  0  0  0
  -32.8305  -13.6132   26.3459 C   0  0  0  0  0  0  0  0  0  0  0  0
  -22.4279   -8.6698   20.1418 C   0  0  0  0  0  0  0  0  0  0  0  0
  -22.8086   -8.8509   22.5207 C   0  0  0  0  0  0  0  0  0  0  0  0
  -36.9178  -20.8780   24.7761 C   0  0  0  0  0  0  0  0  0  0  0  0
  -23.2144   -5.5048   22.2564 C   0  0  0  0  0  0  0  0  0  0  0  0
  -23.7152   -4.5443   23.1351 C   0  0  0  0  0  0  0  0  0  0  0  0
  -34.7762  -20.9321   25.8981 C   0  0  0  0  0  0  0  0  0  0  0  0
  -32.4131  -13.9328   23.9877 C   0  0  0  0  0  0  0  0  0  0  0  0
  -21.7599   -4.8014   24.5306 C   0  0  0  0  0  0  0  0  0  0  0  0
  -23.7648  -10.4820   21.0167 C   0  0  0  0  0  0  0  0  0  0  0  0
  -24.0995  -12.9991   20.7724 C   0  0  0  0  0  0  0  0  0  0  0  0
  -32.0813  -26.0211   17.7902 C   0  0  0  0  0  0  0  0  0  0  0  0
  -35.0811  -22.1116   23.8001 C   0  0  0  0  0  0  0  0  0  0  0  0
  -32.5674  -26.1450   19.1058 C   0  0  0  0  0  0  0  0  0  0  0  0
  -34.2610  -21.7338   24.8759 C   0  0  0  0  0  0  0  0  0  0  0  0
  -30.9942  -12.4629   25.2774 C   0  0  0  0  0  0  0  0  0  0  0  0
  -33.1643  -14.2097   25.1300 C   0  0  0  0  0  0  0  0  0  0  0  0
  -31.3280  -13.0594   24.0615 C   0  0  0  0  0  0  0  0  0  0  0  0
  -22.2361   -8.1865   21.4361 C   0  0  0  0  0  0  0  0  0  0  0  0
  -36.1017  -20.5010   25.8430 C   0  0  0  0  0  0  0  0  0  0  0  0
  -21.9863   -6.1137   22.5148 C   0  0  0  0  0  0  0  0  0  0  0  0
  -22.9880   -4.1926   24.2722 C   0  0  0  0  0  0  0  0  0  0  0  0
  -21.2591   -5.7620   23.6519 C   0  0  0  0  0  0  0  0  0  0  0  0
  -24.5549  -11.6674   20.8007 C   0  0  0  0  0  0  0  0  0  0  0  0
  -25.2293  -13.7435   20.5358 C   0  0  0  0  0  0  0  0  0  0  0  0
  -22.7737  -13.5171   20.9447 C   0  0  0  0  0  0  0  0  0  0  0  0
  -32.3304  -24.0485   22.1392 C   0  0  0  0  0  0  0  0  0  0  0  0
  -36.1529  -16.3945   25.7518 C   0  0  0  0  0  0  0  0  0  0  0  0
  -31.0696  -21.4795   23.2441 C   0  0  0  0  0  0  0  0  0  0  0  0
  -30.1578  -18.3467   24.2398 C   0  0  0  0  0  0  0  0  0  0  0  0
  -31.0364  -12.7916   21.5736 C   0  0  0  0  0  0  0  0  0  0  0  0
  -30.7209  -25.4389   17.4987 C   0  0  0  0  0  0  0  0  0  0  0  0
  -34.5117  -23.0359   22.7583 C   0  0  0  0  0  0  0  0  0  0  0  0
  -32.8450  -22.2412   24.8959 C   0  0  0  0  0  0  0  0  0  0  0  0
  -30.1455  -24.6264   18.6558 C   0  0  0  0  0  0  0  0  0  0  0  0
  -29.5193  -13.4707   18.4249 C   0  0  0  0  0  0  0  0  0  0  0  0
  -30.3055  -25.3827   19.9708 C   0  0  0  0  0  0  0  0  0  0  0  0
  -28.0319  -13.2124   18.6759 C   0  0  0  0  0  0  0  0  0  0  0  0
  -30.4028  -12.4871   19.1901 C   0  0  0  0  0  0  0  0  0  0  0  0
  -28.6454  -12.1431   20.8820 C   0  0  0  0  0  0  0  0  0  0  0  0
  -31.7855  -25.6238   20.2919 C   0  0  1  0  0  0  0  0  0  0  0  0
  -33.0296  -22.7577   22.4498 C   0  0  1  0  0  0  0  0  0  0  0  0
  -27.7172  -13.1502   20.1834 C   0  0  2  0  0  0  0  0  0  0  0  0
  -29.8373  -11.5234   25.3859 C   0  0  0  0  0  0  0  0  0  0  0  0
  -28.6921  -16.3308   24.5325 C   0  0  0  0  0  0  0  0  0  0  0  0
  -29.9998  -23.0549   25.6269 C   0  0  0  0  0  0  0  0  0  0  0  0
  -28.6562  -21.0409   26.2648 C   0  0  0  0  0  0  0  0  0  0  0  0
  -28.2403  -22.1754   24.0824 C   0  0  0  0  0  0  0  0  0  0  0  0
  -31.0033  -17.2108   21.6410 C   0  0  0  0  0  0  0  0  0  0  0  0
  -37.1089  -16.8382   26.8499 C   0  0  0  0  0  0  0  0  0  0  0  0
  -35.0742  -15.4218   26.1831 C   0  0  0  0  0  0  0  0  0  0  0  0
  -36.4345  -17.6077   27.9814 C   0  0  0  0  0  0  0  0  0  0  0  0
  -35.6800  -18.8376   27.4899 C   0  0  0  0  0  0  0  0  0  1  0  0
  -30.3493  -20.8155   24.3903 C   0  0  1  0  0  0  0  0  0  0  0  0
  -29.3754  -17.2533   23.5350 C   0  0  2  0  0  0  0  0  0  0  0  0
  -29.3397  -21.7699   25.0883 C   0  0  0  0  0  0  0  0  0  0  0  0
  -25.8714  -11.5683   20.5981 N   0  0  0  0  0  0  0  0  0  0  0  0
  -26.2529  -12.8472   20.4401 N   0  0  0  0  0  0  0  0  0  0  0  0
  -32.2599  -22.1509   23.5490 N   0  0  0  0  0  0  0  0  0  0  0  0
  -30.0506  -12.4852   20.6117 N   0  0  0  0  0  0  0  0  0  0  0  0
  -25.4371  -15.0706   20.4022 N   0  0  0  0  0  0  0  0  0  0  0  0
  -21.7286  -12.6133   21.1800 N   0  0  0  0  0  0  0  0  0  0  0  0
  -30.5771  -12.7907   22.8903 N   0  0  0  0  0  0  0  0  0  0  0  0
  -34.2438  -15.0784   25.0570 N   0  0  0  0  0  0  0  0  0  0  0  0
  -32.3937  -24.4166   20.8088 N   0  0  0  0  0  0  0  0  0  0  0  0
  -29.7474  -19.6029   23.8465 N   0  0  0  0  0  0  0  0  0  0  0  0
  -30.2830  -16.4342   22.6827 N   0  3  0  0  0  0  0  0  0  0  0  0
  -22.5206  -14.7437   20.8753 O   0  0  0  0  0  0  0  0  0  0  0  0
  -31.7727  -24.6653   23.0392 O   0  0  0  0  0  0  0  0  0  0  0  0
  -36.2670  -16.7788   24.5887 O   0  0  0  0  0  0  0  0  0  0  0  0
  -30.5893  -21.4111   22.1093 O   0  0  0  0  0  0  0  0  0  0  0  0
  -31.0418  -18.1101   25.0602 O   0  0  0  0  0  0  0  0  0  0  0  0
  -32.1957  -13.0634   21.2509 O   0  0  0  0  0  0  0  0  0  0  0  0
  -21.4901   -7.0666   21.6411 O   0  0  0  0  0  0  0  0  0  0  0  0
  -36.6001  -19.7060   26.8300 O   0  0  0  0  0  0  0  0  0  1  0  0
  -23.4683   -3.2690   25.1151 F   0  0  0  0  0  0  0  0  0  0  0  0
  -20.0781   -6.3427   23.9049 F   0  0  0  0  0  0  0  0  0  0  0  0
  1  2  1  0  0  0  0
  1  5  2  0  0  0  0
  2  6  2  0  0  0  0
  3 10  2  0  0  0  0
  3 18  1  0  0  0  0
  4 11  1  0  0  0  0
  4 18  2  0  0  0  0
  5 20  1  0  0  0  0
  6 22  1  0  0  0  0
  7 12  2  0  0  0  0
  7 21  1  0  0  0  0
  8  9  2  0  0  0  0
  8 24  1  0  0  0  0
  9 25  1  0  0  0  0
 10 27  1  0  0  0  0
 11 27  2  0  0  0  0
 12 28  1  0  0  0  0
 13 14  2  0  0  0  0
 13 29  1  0  0  0  0
 14 30  1  0  0  0  0
 15 23  1  0  0  0  0
 15 28  2  0  0  0  0
 16 25  2  0  0  0  0
 16 26  1  0  0  0  0
 17 30  2  0  0  0  0
 17 31  1  0  0  0  0
 18 32  1  0  0  0  0
 19 32  1  0  0  0  0
 19 33  2  0  0  0  0
 19 34  1  0  0  0  0
 20 22  2  0  0  0  0
 20 40  1  0  0  0  0
 21 23  2  0  0  0  0
 21 41  1  0  0  0  0
 22 49  1  0  0  0  0
 23 42  1  0  0  0  0
 24 26  2  0  0  0  0
 24 52  1  0  0  0  0
 25 72  1  0  0  0  0
 26 71  1  0  0  0  0
 27 82  1  0  0  0  0
 28 83  1  0  0  0  0
 29 31  2  0  0  0  0
 29 82  1  0  0  0  0
 30 84  1  0  0  0  0
 31 85  1  0  0  0  0
 32 65  2  0  0  0  0
 33 66  1  0  0  0  0
 33 69  1  0  0  0  0
 34 70  1  0  0  0  0
 34 76  2  0  0  0  0
 35 50  1  0  0  0  0
 35 73  1  0  0  0  0
 35 77  2  0  0  0  0
 36 58  1  0  0  0  0
 36 59  1  0  0  0  0
 36 78  2  0  0  0  0
 37 62  1  0  0  0  0
 37 67  1  0  0  0  0
 37 79  2  0  0  0  0
 38 63  1  0  0  0  0
 38 74  1  0  0  0  0
 38 80  2  0  0  0  0
 39 68  1  0  0  0  0
 39 71  1  0  0  0  0
 39 81  2  0  0  0  0
 40 43  1  0  0  0  0
 41 50  1  0  0  0  0
 42 67  1  0  0  0  0
 43 45  1  0  0  0  0
 44 46  1  0  0  0  0
 44 47  1  0  0  0  0
 45 49  1  0  0  0  0
 46 51  1  0  0  0  0
 47 68  1  0  0  0  0
 48 51  1  0  0  0  0
 48 68  1  0  0  0  0
 49 73  1  0  0  0  0
 50 67  1  0  0  0  0
 51 66  1  0  0  0  0
 53 63  1  0  0  0  0
 54 64  1  0  0  0  0
 55 64  1  0  0  0  0
 56 64  1  0  0  0  0
 57 75  1  0  0  0  0
 58 60  1  0  0  0  0
 59 72  1  0  0  0  0
 60 61  1  0  0  0  0
 61 83  1  0  0  0  0
 62 64  1  0  0  0  0
 62 74  1  0  0  0  0
 63 75  1  0  0  0  0
 65 66  1  0  0  0  0
M  CHG  1  75   1
M  ISO  4  39 100  61 101  71 100  83 101
M  END
> <Batch ID>
0143

> <Smiles>
CNC(C)C(=O)NC(C(=O)N1Cc2cc([101O:1][101CH2:1]CCC(=O)CNc3ccc(C)c([100NH:0][100C:0](=O)N4CCCC(n5nc(-c6ccc(Oc7ccc(F)cc7F)cc6)c(C(N)=O)c5N)C4)c3)ccc2CC1C(=O)NC1CCCc2ccccc21)C(C)(C)C

> <Shape>
0.185

> <Color>
0.182

> <Negative vol penalty>
0.000

$$$$

  -OEChem-04052303003D

 87 95  0     1  0  0  0  0  0999 V2000
  -20.5635  -37.4839   24.4539 C   0  0  0  0  0  0  0  0  0  0  0  0
  -20.3394  -36.7434   23.2976 C   0  0  0  0  0  0  0  0  0  0  0  0
  -24.9475  -18.7687   18.6652 C   0  0  0  0  0  0  0  0  0  0  0  0
  -24.7614   -8.3656   21.4706 C   0  0  0  0  0  0  0  0  0  0  0  0
  -23.1797  -10.0210   20.6993 C   0  0  0  0  0  0  0  0  0  0  0  0
  -25.6462  -19.8297   19.2411 C   0  0  0  0  0  0  0  0  0  0  0  0
  -21.8665  -37.6994   24.9006 C   0  0  0  0  0  0  0  0  0  0  0  0
  -21.4183  -36.2190   22.5868 C   0  0  0  0  0  0  0  0  0  0  0  0
  -22.9325  -28.8396   20.5180 C   0  0  0  0  0  0  0  0  0  0  0  0
  -25.5403  -17.5092   18.5771 C   0  0  0  0  0  0  0  0  0  0  0  0
  -23.8193   -7.8904   22.3828 C   0  0  0  0  0  0  0  0  0  0  0  0
  -22.2375   -9.5458   21.6115 C   0  0  0  0  0  0  0  0  0  0  0  0
  -23.3878  -27.5523   20.2323 C   0  0  0  0  0  0  0  0  0  0  0  0
  -21.0826   -5.9053   22.3312 C   0  0  0  0  0  0  0  0  0  0  0  0
  -20.9186   -4.5239   22.4335 C   0  0  0  0  0  0  0  0  0  0  0  0
  -27.5308  -18.3717   19.6406 C   0  0  0  0  0  0  0  0  0  0  0  0
  -25.6741  -28.3385   20.2813 C   0  0  0  0  0  0  0  0  0  0  0  0
  -21.5416   -4.6226   24.7657 C   0  0  0  0  0  0  0  0  0  0  0  0
  -24.4416   -9.4309   20.6288 C   0  0  0  0  0  0  0  0  0  0  0  0
  -26.9379  -19.6312   19.7288 C   0  0  0  0  0  0  0  0  0  0  0  0
  -25.6082   -9.4903   18.3610 C   0  0  0  0  0  0  0  0  0  0  0  0
  -22.9615  -37.1691   24.2003 C   0  0  0  0  0  0  0  0  0  0  0  0
  -23.8481  -29.8794   20.7020 C   0  0  0  0  0  0  0  0  0  0  0  0
  -22.7373  -36.4287   23.0239 C   0  0  0  0  0  0  0  0  0  0  0  0
  -25.2246  -29.6275   20.5801 C   0  0  0  0  0  0  0  0  0  0  0  0
  -26.8320  -17.3107   19.0647 C   0  0  0  0  0  0  0  0  0  0  0  0
  -22.5574   -8.4804   22.4533 C   0  0  0  0  0  0  0  0  0  0  0  0
  -24.7552  -27.3025   20.1140 C   0  0  0  0  0  0  0  0  0  0  0  0
  -21.4761   -6.6454   23.4461 C   0  0  0  0  0  0  0  0  0  0  0  0
  -21.1481   -3.8826   23.6507 C   0  0  0  0  0  0  0  0  0  0  0  0
  -21.7056   -6.0041   24.6634 C   0  0  0  0  0  0  0  0  0  0  0  0
  -25.4146   -9.9226   19.6866 C   0  0  0  0  0  0  0  0  0  0  0  0
  -26.6434  -10.2637   17.8954 C   0  0  0  0  0  0  0  0  0  0  0  0
  -27.6782  -20.7537   20.3392 C   0  0  0  0  0  0  0  0  0  0  0  0
  -24.9144   -8.4800   17.6169 C   0  0  0  0  0  0  0  0  0  0  0  0
  -24.3900  -33.5112   21.4715 C   0  0  0  0  0  0  0  0  0  0  0  0
  -26.5406  -24.1828   20.6149 C   0  0  0  0  0  0  0  0  0  0  0  0
  -26.5575  -31.9482   22.9780 C   0  0  0  0  0  0  0  0  0  0  0  0
  -28.5139  -29.8337   24.8052 C   0  0  0  0  0  0  0  0  0  0  0  0
  -28.7065  -15.6634   19.4094 C   0  0  0  0  0  0  0  0  0  0  0  0
  -24.3541  -37.4686   24.6958 C   0  0  0  0  0  0  0  0  0  0  0  0
  -23.4002  -31.2942   20.9504 C   0  0  0  0  0  0  0  0  0  0  0  0
  -26.1714  -30.7837   20.7519 C   0  0  0  0  0  0  0  0  0  0  0  0
  -25.4236  -36.5620   24.0919 C   0  0  0  0  0  0  0  0  0  0  0  0
  -30.5371  -12.6095   19.4021 C   0  0  0  0  0  0  0  0  0  0  0  0
  -25.2373  -36.4490   22.5822 C   0  0  0  0  0  0  0  0  0  0  0  0
  -29.4491  -11.5347   19.3474 C   0  0  0  0  0  0  0  0  0  0  0  0
  -30.1148  -13.8010   20.2599 C   0  0  0  0  0  0  0  0  0  0  0  0
  -27.7339  -13.3226   19.8459 C   0  0  0  0  0  0  0  0  0  0  0  0
  -23.8804  -35.8225   22.2391 C   0  0  1  0  0  0  0  0  0  0  0  0
  -24.3436  -32.0702   21.8870 C   0  0  1  0  0  0  0  0  0  0  0  0
  -28.0875  -12.1314   18.9406 C   0  0  2  0  0  0  0  0  0  0  0  0
  -30.3583  -29.8327   26.5067 C   0  0  0  0  0  0  0  0  0  0  0  0
  -28.5642  -32.6715   20.7976 C   0  0  0  0  0  0  0  0  0  0  0  0
  -30.3756  -31.7440   22.2560 C   0  0  0  0  0  0  0  0  0  0  0  0
  -29.0324  -33.6986   23.0293 C   0  0  0  0  0  0  0  0  0  0  0  0
  -29.1698  -22.0192   22.6025 C   0  0  0  0  0  0  0  0  0  0  0  0
  -26.9008  -22.8159   23.3052 C   0  0  0  0  0  0  0  0  0  0  0  0
  -26.8389  -28.4154   26.7906 C   0  0  0  0  0  0  0  0  0  0  0  0
  -27.8723  -23.6700   21.1528 C   0  0  0  0  0  0  0  0  0  0  0  0
  -26.4735  -25.6750   20.3507 C   0  0  0  0  0  0  0  0  0  1  0  0
  -27.9650  -31.4076   22.9678 C   0  0  1  0  0  0  0  0  0  0  0  0
  -28.8543  -29.8012   26.2842 C   0  0  2  0  0  0  0  0  0  0  0  0
  -28.9621  -32.3643   22.2551 C   0  0  0  0  0  0  0  0  0  0  0  0
  -27.7942  -22.4706   22.1099 C   0  0  0  0  0  0  0  0  0  0  0  0
  -26.2590  -10.8951   20.0404 N   0  0  0  0  0  0  0  0  0  0  0  0
  -26.9934  -11.0802   18.9303 N   0  0  0  0  0  0  0  0  0  0  0  0
  -25.7451  -31.6178   21.8864 N   0  0  0  0  0  0  0  0  0  0  0  0
  -28.8185  -14.3162   19.8137 N   0  0  0  0  0  0  0  0  0  0  0  0
  -27.2793  -10.3181   16.7058 N   0  0  0  0  0  0  0  0  0  0  0  0
  -28.8333  -21.1201   19.7838 N   0  0  0  0  0  0  0  0  0  0  0  0
  -23.8762   -7.7806   18.2472 N   0  0  0  0  0  0  0  0  0  0  0  0
  -27.4335  -16.0309   18.9747 N   0  0  0  0  0  0  0  0  0  0  0  0
  -23.9226  -34.3887   22.4312 N   0  0  0  0  0  0  0  0  0  0  0  0
  -28.3021  -31.1207   24.3579 N   0  0  0  0  0  0  0  0  0  0  0  0
  -27.1536  -21.3417   21.4165 N   0  3  0  0  0  0  0  0  0  0  0  0
  -28.3119  -28.5640   26.9135 N   0  3  0  0  0  0  0  0  0  0  0  0
  -25.2173   -8.1943   16.4336 O   0  0  0  0  0  0  0  0  0  0  0  0
  -24.8196  -33.8068   20.3626 O   0  0  0  0  0  0  0  0  0  0  0  0
  -25.5654  -23.4547   20.4396 O   0  0  0  0  0  0  0  0  0  0  0  0
  -26.1875  -32.6493   23.9239 O   0  0  0  0  0  0  0  0  0  0  0  0
  -28.4465  -28.8191   24.1147 O   0  0  0  0  0  0  0  0  0  0  0  0
  -29.6755  -16.4269   19.4204 O   0  0  0  0  0  0  0  0  0  0  0  0
  -21.6377   -8.0168   23.3432 O   0  0  0  0  0  0  0  0  0  0  0  0
  -25.1930  -26.0425   19.8393 O   0  0  0  0  0  0  0  0  0  1  0  0
  -20.9891   -2.5562   23.7492 F   0  0  0  0  0  0  0  0  0  0  0  0
  -22.0827   -6.7099   25.7383 F   0  0  0  0  0  0  0  0  0  0  0  0
  1  2  1  0  0  0  0
  1  7  2  0  0  0  0
  2  8  2  0  0  0  0
  3  6  2  0  0  0  0
  3 10  1  0  0  0  0
  4 11  2  0  0  0  0
  4 19  1  0  0  0  0
  5 12  1  0  0  0  0
  5 19  2  0  0  0  0
  6 20  1  0  0  0  0
  7 22  1  0  0  0  0
  8 24  1  0  0  0  0
  9 13  2  0  0  0  0
  9 23  1  0  0  0  0
 10 26  2  0  0  0  0
 11 27  1  0  0  0  0
 12 27  2  0  0  0  0
 13 28  1  0  0  0  0
 14 15  2  0  0  0  0
 14 29  1  0  0  0  0
 15 30  1  0  0  0  0
 16 20  2  0  0  0  0
 16 26  1  0  0  0  0
 17 25  1  0  0  0  0
 17 28  2  0  0  0  0
 18 30  2  0  0  0  0
 18 31  1  0  0  0  0
 19 32  1  0  0  0  0
 20 34  1  0  0  0  0
 21 32  1  0  0  0  0
 21 33  2  0  0  0  0
 21 35  1  0  0  0  0
 22 24  2  0  0  0  0
 22 41  1  0  0  0  0
 23 25  2  0  0  0  0
 23 42  1  0  0  0  0
 24 50  1  0  0  0  0
 25 43  1  0  0  0  0
 26 73  1  0  0  0  0
 27 84  1  0  0  0  0
 28 85  1  0  0  0  0
 29 31  2  0  0  0  0
 29 84  1  0  0  0  0
 30 86  1  0  0  0  0
 31 87  1  0  0  0  0
 32 66  2  0  0  0  0
 33 67  1  0  0  0  0
 33 70  1  0  0  0  0
 34 71  1  0  0  0  0
 34 76  2  0  0  0  0
 35 72  1  0  0  0  0
 35 78  2  0  0  0  0
 36 51  1  0  0  0  0
 36 74  1  0  0  0  0
 36 79  2  0  0  0  0
 37 60  1  0  0  0  0
 37 61  1  0  0  0  0
 37 80  2  0  0  0  0
 38 62  1  0  0  0  0
 38 68  1  0  0  0  0
 38 81  2  0  0  0  0
 39 63  1  0  0  0  0
 39 75  1  0  0  0  0
 39 82  2  0  0  0  0
 40 69  1  0  0  0  0
 40 73  1  0  0  0  0
 40 83  2  0  0  0  0
 41 44  1  0  0  0  0
 42 51  1  0  0  0  0
 43 68  1  0  0  0  0
 44 46  1  0  0  0  0
 45 47  1  0  0  0  0
 45 48  1  0  0  0  0
 46 50  1  0  0  0  0
 47 52  1  0  0  0  0
 48 69  1  0  0  0  0
 49 52  1  0  0  0  0
 49 69  1  0  0  0  0
 50 74  1  0  0  0  0
 51 68  1  0  0  0  0
 52 67  1  0  0  0  0
 53 63  1  0  0  0  0
 54 64  1  0  0  0  0
 55 64  1  0  0  0  0
 56 64  1  0  0  0  0
 57 65  1  0  0  0  0
 58 65  1  0  0  0  0
 59 77  1  0  0  0  0
 60 65  1  0  0  0  0
 61 85  1  0  0  0  0
 62 64  1  0  0  0  0
 62 75  1  0  0  0  0
 63 77  1  0  0  0  0
 65 76  1  0  0  0  0
 66 67  1  0  0  0  0
M  CHG  2  76   1  77   1
M  ISO  4  40 100  61 101  73 100  85 101
M  END
> <Batch ID>
0143

> <Smiles>
CNC(C)C(=O)NC(C(=O)N1Cc2cc([101O:1][101CH2:1]C(=O)CC(C)(C)NC(=N)c3cccc([100NH:0][100C:0](=O)N4CCCC(n5nc(-c6ccc(Oc7ccc(F)cc7F)cc6)c(C(N)=O)c5N)C4)c3)ccc2CC1C(=O)NC1CCCc2ccccc21)C(C)(C)C

> <Shape>
0.270

> <Color>
0.067

> <Negative vol penalty>
0.000

$$$$

  -OEChem-04052303003D

 90 99  0     1  0  0  0  0  0999 V2000
  -27.0887  -37.9070   25.5051 C   0  0  0  0  0  0  0  0  0  0  0  0
  -27.1614  -36.7700   26.3035 C   0  0  0  0  0  0  0  0  0  0  0  0
  -23.0524   -9.9854   21.2475 C   0  0  0  0  0  0  0  0  0  0  0  0
  -23.7920  -10.7992   23.3988 C   0  0  0  0  0  0  0  0  0  0  0  0
  -26.1837  -37.9567   24.4456 C   0  0  0  0  0  0  0  0  0  0  0  0
  -26.3284  -35.6824   26.0434 C   0  0  0  0  0  0  0  0  0  0  0  0
  -29.0649  -29.1755   24.6069 C   0  0  0  0  0  0  0  0  0  0  0  0
  -22.2981   -8.9976   21.8806 C   0  0  0  0  0  0  0  0  0  0  0  0
  -23.0376   -9.8114   24.0318 C   0  0  0  0  0  0  0  0  0  0  0  0
  -29.5071  -27.8545   24.5318 C   0  0  0  0  0  0  0  0  0  0  0  0
  -19.3315   -8.7755   23.4877 C   0  0  0  0  0  0  0  0  0  0  0  0
  -18.0286   -8.5656   23.0359 C   0  0  0  0  0  0  0  0  0  0  0  0
  -31.8501  -19.4021   22.3331 C   0  0  0  0  0  0  0  0  0  0  0  0
  -29.8808  -18.1908   21.6320 C   0  0  0  0  0  0  0  0  0  0  0  0
  -27.2341  -27.1017   24.1931 C   0  0  0  0  0  0  0  0  0  0  0  0
  -32.0640  -17.1811   21.4064 C   0  0  0  0  0  0  0  0  0  0  0  0
  -18.5860   -6.2787   22.4912 C   0  0  0  0  0  0  0  0  0  0  0  0
  -23.7994  -10.8862   22.0066 C   0  0  0  0  0  0  0  0  0  0  0  0
  -30.4659  -19.3349   22.1745 C   0  0  0  0  0  0  0  0  0  0  0  0
  -24.1604  -13.2050   21.0063 C   0  0  0  0  0  0  0  0  0  0  0  0
  -25.3460  -36.8655   24.1665 C   0  0  0  0  0  0  0  0  0  0  0  0
  -27.7058  -29.4664   24.4599 C   0  0  0  0  0  0  0  0  0  0  0  0
  -25.4105  -35.7181   24.9800 C   0  0  0  0  0  0  0  0  0  0  0  0
  -26.7868  -28.4241   24.2550 C   0  0  0  0  0  0  0  0  0  0  0  0
  -32.6492  -18.3252   21.9490 C   0  0  0  0  0  0  0  0  0  0  0  0
  -30.6798  -17.1139   21.2479 C   0  0  0  0  0  0  0  0  0  0  0  0
  -22.2907   -8.9105   23.2727 C   0  0  0  0  0  0  0  0  0  0  0  0
  -28.5939  -26.8202   24.3256 C   0  0  0  0  0  0  0  0  0  0  0  0
  -20.2617   -7.7371   23.4411 C   0  0  0  0  0  0  0  0  0  0  0  0
  -17.6559   -7.3172   22.5377 C   0  0  0  0  0  0  0  0  0  0  0  0
  -19.8889   -6.4887   22.9429 C   0  0  0  0  0  0  0  0  0  0  0  0
  -24.5793  -11.9066   21.3533 C   0  0  0  0  0  0  0  0  0  0  0  0
  -25.2611  -13.7739   20.4136 C   0  0  0  0  0  0  0  0  0  0  0  0
  -29.6220  -20.4728   22.5809 C   0  0  0  0  0  0  0  0  0  0  0  0
  -22.8900  -13.8401   21.2023 C   0  0  0  0  0  0  0  0  0  0  0  0
  -25.0333  -32.0972   24.3476 C   0  0  0  0  0  0  0  0  0  0  0  0
  -24.3641  -30.0533   22.1601 C   0  0  0  0  0  0  0  0  0  0  0  0
  -24.2136  -27.8092   19.5953 C   0  0  0  0  0  0  0  0  0  0  0  0
  -30.7329  -14.7942   20.2669 C   0  0  0  0  0  0  0  0  0  0  0  0
  -24.3506  -36.9840   23.0396 C   0  0  0  0  0  0  0  0  0  0  0  0
  -27.1771  -30.8685   24.5952 C   0  0  0  0  0  0  0  0  0  0  0  0
  -25.3302  -28.7809   24.1370 C   0  0  0  0  0  0  0  0  0  0  0  0
  -23.7659  -35.6442   22.5999 C   0  0  0  0  0  0  0  0  0  0  0  0
  -29.6222  -11.7035   18.8917 C   0  0  0  0  0  0  0  0  0  0  0  0
  -29.4702  -22.7876   19.8005 C   0  0  0  0  0  0  0  0  0  0  0  0
  -23.3407  -34.8233   23.8132 C   0  0  0  0  0  0  0  0  0  0  0  0
  -28.1767  -11.5876   19.3810 C   0  0  0  0  0  0  0  0  0  0  0  0
  -28.2085  -23.1336   20.5843 C   0  0  0  0  0  0  0  0  0  0  0  0
  -29.8524  -21.4076   20.3205 C   0  0  0  0  0  0  0  0  0  0  0  0
  -30.5282  -12.3387   19.9450 C   0  0  0  0  0  0  0  0  0  0  0  0
  -28.6144  -13.5112   20.9607 C   0  0  0  0  0  0  0  0  0  0  0  0
  -24.5409  -34.5084   24.7143 C   0  0  1  0  0  0  0  0  0  0  0  0
  -25.9829  -31.1553   23.6674 C   0  0  1  0  0  0  0  0  0  0  0  0
  -27.6508  -12.9366   19.9095 C   0  0  2  0  0  0  0  0  0  0  0  0
  -28.4770  -22.5828   21.9881 C   0  0  2  0  0  0  0  0  0  0  0  0
  -22.8245  -27.1892   17.5994 C   0  0  0  0  0  0  0  0  0  0  0  0
  -34.5169  -18.5996   23.6169 C   0  0  0  0  0  0  0  0  0  0  0  0
  -34.7350  -19.5860   21.3113 C   0  0  0  0  0  0  0  0  0  0  0  0
  -34.9207  -17.1303   21.6523 C   0  0  0  0  0  0  0  0  0  0  0  0
  -22.2851  -28.7940   24.0028 C   0  0  0  0  0  0  0  0  0  0  0  0
  -21.4945  -27.4273   22.0598 C   0  0  0  0  0  0  0  0  0  0  0  0
  -21.3410  -29.9157   21.9768 C   0  0  0  0  0  0  0  0  0  0  0  0
  -26.4632  -28.2928   17.7341 C   0  0  0  0  0  0  0  0  0  0  0  0
  -29.2112  -23.5682   22.8850 C   0  0  0  0  0  0  0  0  0  0  0  0
  -28.2790  -24.6386   23.4318 C   0  0  0  0  0  0  0  0  0  1  0  0
  -23.6046  -28.8063   21.7837 C   0  0  1  0  0  0  0  0  0  0  0  0
  -24.0106  -27.9972   18.1027 C   0  0  2  0  0  0  0  0  0  0  0  0
  -34.1292  -18.3967   22.1194 C   0  0  0  0  0  0  0  0  0  0  0  0
  -22.2085  -28.7347   22.4641 C   0  0  0  0  0  0  0  0  0  0  0  0
  -25.8471  -11.6646   21.0095 N   0  0  0  0  0  0  0  0  0  0  0  0
  -26.2343  -12.8188   20.4402 N   0  0  0  0  0  0  0  0  0  0  0  0
  -29.3492  -21.4243   21.7050 N   0  0  0  0  0  0  0  0  0  0  0  0
  -25.1731  -29.9811   23.3007 N   0  0  0  0  0  0  0  0  0  0  0  0
  -29.9689  -13.6150   20.3957 N   0  0  0  0  0  0  0  0  0  0  0  0
  -25.4817  -14.9930   19.8774 N   0  0  0  0  0  0  0  0  0  0  0  0
  -21.8686  -13.1123   21.8280 N   0  0  0  0  0  0  0  0  0  0  0  0
  -30.0850  -15.9510   20.6988 N   0  0  0  0  0  0  0  0  0  0  0  0
  -25.3279  -33.4328   24.1503 N   0  0  0  0  0  0  0  0  0  0  0  0
  -23.5609  -28.7796   20.3257 N   0  0  0  0  0  0  0  0  0  0  0  0
  -29.1468  -20.5234   23.8219 N   0  3  0  0  0  0  0  0  0  0  0  0
  -25.2253  -27.5637   17.3560 N   0  3  0  0  0  0  0  0  0  0  0  0
  -22.6621  -15.0125   20.8188 O   0  0  0  0  0  0  0  0  0  0  0  0
  -24.1006  -31.6467   25.0023 O   0  0  0  0  0  0  0  0  0  0  0  0
  -24.2410  -31.0669   21.4668 O   0  0  0  0  0  0  0  0  0  0  0  0
  -24.8811  -26.8910   20.0663 O   0  0  0  0  0  0  0  0  0  0  0  0
  -31.8672  -14.7828   19.7820 O   0  0  0  0  0  0  0  0  0  0  0  0
  -21.5545   -7.9469   23.8907 O   0  0  0  0  0  0  0  0  0  0  0  0
  -29.0330  -25.5333   24.2488 O   0  0  0  0  0  0  0  0  0  1  0  0
  -16.4043   -7.1153   22.1053 F   0  0  0  0  0  0  0  0  0  0  0  0
  -20.7778   -5.4869   22.8968 F   0  0  0  0  0  0  0  0  0  0  0  0
  1  2  1  0  0  0  0
  1  5  2  0  0  0  0
  2  6  2  0  0  0  0
  3  8  2  0  0  0  0
  3 18  1  0  0  0  0
  4  9  1  0  0  0  0
  4 18  2  0  0  0  0
  5 21  1  0  0  0  0
  6 23  1  0  0  0  0
  7 10  2  0  0  0  0
  7 22  1  0  0  0  0
  8 27  1  0  0  0  0
  9 27  2  0  0  0  0
 10 28  1  0  0  0  0
 11 12  2  0  0  0  0
 11 29  1  0  0  0  0
 12 30  1  0  0  0  0
 13 19  2  0  0  0  0
 13 25  1  0  0  0  0
 14 19  1  0  0  0  0
 14 26  2  0  0  0  0
 15 24  1  0  0  0  0
 15 28  2  0  0  0  0
 16 25  2  0  0  0  0
 16 26  1  0  0  0  0
 17 30  2  0  0  0  0
 17 31  1  0  0  0  0
 18 32  1  0  0  0  0
 19 34  1  0  0  0  0
 20 32  1  0  0  0  0
 20 33  2  0  0  0  0
 20 35  1  0  0  0  0
 21 23  2  0  0  0  0
 21 40  1  0  0  0  0
 22 24  2  0  0  0  0
 22 41  1  0  0  0  0
 23 52  1  0  0  0  0
 24 42  1  0  0  0  0
 25 68  1  0  0  0  0
 26 77  1  0  0  0  0
 27 87  1  0  0  0  0
 28 88  1  0  0  0  0
 29 31  2  0  0  0  0
 29 87  1  0  0  0  0
 30 89  1  0  0  0  0
 31 90  1  0  0  0  0
 32 70  2  0  0  0  0
 33 71  1  0  0  0  0
 33 75  1  0  0  0  0
 34 72  1  0  0  0  0
 34 80  2  0  0  0  0
 35 76  1  0  0  0  0
 35 82  2  0  0  0  0
 36 53  1  0  0  0  0
 36 78  1  0  0  0  0
 36 83  2  0  0  0  0
 37 66  1  0  0  0  0
 37 73  1  0  0  0  0
 37 84  2  0  0  0  0
 38 67  1  0  0  0  0
 38 79  1  0  0  0  0
 38 85  2  0  0  0  0
 39 74  1  0  0  0  0
 39 77  1  0  0  0  0
 39 86  2  0  0  0  0
 40 43  1  0  0  0  0
 41 53  1  0  0  0  0
 42 73  1  0  0  0  0
 43 46  1  0  0  0  0
 44 47  1  0  0  0  0
 44 50  1  0  0  0  0
 45 48  1  0  0  0  0
 45 49  1  0  0  0  0
 46 52  1  0  0  0  0
 47 54  1  0  0  0  0
 48 55  1  0  0  0  0
 49 72  1  0  0  0  0
 50 74  1  0  0  0  0
 51 54  1  0  0  0  0
 51 74  1  0  0  0  0
 52 78  1  0  0  0  0
 53 73  1  0  0  0  0
 54 71  1  0  0  0  0
 55 64  1  0  0  0  0
 55 72  1  0  0  0  0
 56 67  1  0  0  0  0
 57 68  1  0  0  0  0
 58 68  1  0  0  0  0
 59 68  1  0  0  0  0
 60 69  1  0  0  0  0
 61 69  1  0  0  0  0
 62 69  1  0  0  0  0
 63 81  1  0  0  0  0
 64 65  1  0  0  0  0
 65 88  1  0  0  0  0
 66 69  1  0  0  0  0
 66 79  1  0  0  0  0
 67 81  1  0  0  0  0
 70 71  1  0  0  0  0
M  CHG  2  80   1  81   1
M  ISO  4  39 100  65 101  77 100  88 101
M  END
> <Batch ID>
0143

> <Smiles>
CNC(C)C(=O)NC(C(=O)N1Cc2cc([101O:1][101CH2:1]CC3CCCN3C(=N)c3cc([100NH:0][100C:0](=O)N4CCCC(n5nc(-c6ccc(Oc7ccc(F)cc7F)cc6)c(C(N)=O)c5N)C4)cc(C(C)(C)C)c3)ccc2CC1C(=O)NC1CCCc2ccccc21)C(C)(C)C

> <Shape>
0.335

> <Color>
0.151

> <Negative vol penalty>
0.000

$$$$

  -OEChem-04052303003D

 86 94  0     1  0  0  0  0  0999 V2000
  -18.5086  -29.4234   17.1585 C   0  0  0  0  0  0  0  0  0  0  0  0
  -19.7958  -29.5103   17.6791 C   0  0  0  0  0  0  0  0  0  0  0  0
  -26.4818  -12.5269   21.6695 C   0  0  0  0  0  0  0  0  0  0  0  0
  -25.9592  -13.6263   19.5826 C   0  0  0  0  0  0  0  0  0  0  0  0
  -17.5055  -28.7839   17.8857 C   0  0  0  0  0  0  0  0  0  0  0  0
  -20.0804  -28.9588   18.9277 C   0  0  0  0  0  0  0  0  0  0  0  0
  -24.4096  -26.3315   18.9500 C   0  0  0  0  0  0  0  0  0  0  0  0
  -25.2209  -11.9305   21.6711 C   0  0  0  0  0  0  0  0  0  0  0  0
  -24.6983  -13.0298   19.5841 C   0  0  0  0  0  0  0  0  0  0  0  0
  -25.5965  -27.0605   19.0095 C   0  0  0  0  0  0  0  0  0  0  0  0
  -23.6992   -9.3179   20.1572 C   0  0  0  0  0  0  0  0  0  0  0  0
  -23.6245   -7.9607   20.4703 C   0  0  0  0  0  0  0  0  0  0  0  0
  -25.7446  -26.6145   21.3756 C   0  0  0  0  0  0  0  0  0  0  0  0
  -29.9500  -22.6561   19.1892 C   0  0  0  0  0  0  0  0  0  0  0  0
  -22.1996   -8.4734   22.3529 C   0  0  0  0  0  0  0  0  0  0  0  0
  -29.0822  -22.2882   17.1673 C   0  0  0  0  0  0  0  0  0  0  0  0
  -26.8509  -13.3749   20.6253 C   0  0  0  0  0  0  0  0  0  0  0  0
  -29.3357  -13.4793   20.0571 C   0  0  0  0  0  0  0  0  0  0  0  0
  -17.7802  -28.2157   19.1396 C   0  0  0  0  0  0  0  0  0  0  0  0
  -23.8746  -25.7467   20.1068 C   0  0  0  0  0  0  0  0  0  0  0  0
  -19.0797  -28.3122   19.6730 C   0  0  0  0  0  0  0  0  0  0  0  0
  -24.5522  -25.8764   21.3276 C   0  0  0  0  0  0  0  0  0  0  0  0
  -29.6813  -23.2582   17.9368 C   0  0  0  0  0  0  0  0  0  0  0  0
  -24.3292  -12.1819   20.6284 C   0  0  0  0  0  0  0  0  0  0  0  0
  -26.2627  -27.2046   20.2230 C   0  0  0  0  0  0  0  0  0  0  0  0
  -23.0242  -10.2529   20.9420 C   0  0  0  0  0  0  0  0  0  0  0  0
  -22.8747   -7.5385   21.5681 C   0  0  0  0  0  0  0  0  0  0  0  0
  -22.2744   -9.8307   22.0398 C   0  0  0  0  0  0  0  0  0  0  0  0
  -28.1531  -13.9917   20.6234 C   0  0  0  0  0  0  0  0  0  0  0  0
  -30.2855  -14.4354   20.3219 C   0  0  0  0  0  0  0  0  0  0  0  0
  -29.4958  -21.3611   19.0957 C   0  0  0  0  0  0  0  0  0  0  0  0
  -29.5559  -12.2490   19.3545 C   0  0  0  0  0  0  0  0  0  0  0  0
  -21.1750  -26.0874   21.7498 C   0  0  0  0  0  0  0  0  0  0  0  0
  -29.7017  -28.0895   19.4946 C   0  0  0  0  0  0  0  0  0  0  0  0
  -22.3428  -23.5761   23.4385 C   0  0  0  0  0  0  0  0  0  0  0  0
  -30.5611  -25.5906   18.2722 C   0  0  0  0  0  0  0  0  0  0  0  0
  -25.0603  -21.7695   24.4377 C   0  0  0  0  0  0  0  0  0  0  0  0
  -29.9859  -20.3166   21.3352 C   0  0  0  0  0  0  0  0  0  0  0  0
  -16.6522  -27.5760   19.9096 C   0  0  0  0  0  0  0  0  0  0  0  0
  -22.6075  -24.9409   20.0208 C   0  0  0  0  0  0  0  0  0  0  0  0
  -24.0303  -25.2510   22.5945 C   0  0  0  0  0  0  0  0  0  0  0  0
  -17.1250  -26.6894   21.0588 C   0  0  0  0  0  0  0  0  0  0  0  0
  -31.3768  -17.8518   23.4955 C   0  0  0  0  0  0  0  0  0  0  0  0
  -18.2011  -27.4001   21.8734 C   0  0  0  0  0  0  0  0  0  0  0  0
  -30.8205  -16.5350   22.9489 C   0  0  0  0  0  0  0  0  0  0  0  0
  -30.3545  -18.9829   23.3992 C   0  0  0  0  0  0  0  0  0  0  0  0
  -29.2196  -17.8681   21.5181 C   0  0  0  0  0  0  0  0  0  0  0  0
  -19.4334  -27.7046   21.0130 C   0  0  1  0  0  0  0  0  0  0  0  0
  -21.8833  -24.8215   21.3583 C   0  0  1  0  0  0  0  0  0  0  0  0
  -30.2357  -16.7144   21.5342 C   0  0  2  0  0  0  0  0  0  0  0  0
  -25.7033  -19.7946   25.8461 C   0  0  0  0  0  0  0  0  0  0  0  0
  -30.4649  -29.3873   17.4723 C   0  0  0  0  0  0  0  0  0  0  0  0
  -32.1516  -28.3423   18.9659 C   0  0  0  0  0  0  0  0  0  0  0  0
  -21.9459  -25.2479   25.9599 C   0  0  0  0  0  0  0  0  0  0  0  0
  -23.4471  -23.6516   27.1707 C   0  0  0  0  0  0  0  0  0  0  0  0
  -21.3004  -22.8428   26.1906 C   0  0  0  0  0  0  0  0  0  0  0  0
  -26.1921  -20.3322   22.1114 C   0  0  0  0  0  0  0  0  0  0  0  0
  -28.2384  -27.9281   19.1144 C   0  0  0  0  0  0  0  0  0  1  0  0
  -30.6892  -26.8882   17.4828 C   0  0  0  0  0  0  0  0  0  0  0  0
  -23.2234  -23.4227   24.6550 C   0  0  1  0  0  0  0  0  0  0  0  0
  -25.3259  -20.2750   24.4534 C   0  0  2  0  0  0  0  0  0  0  0  0
  -30.7467  -28.1603   18.3590 C   0  0  0  0  0  0  0  0  0  0  0  0
  -22.4883  -23.8048   25.9707 C   0  0  0  0  0  0  0  0  0  0  0  0
  -28.3328  -15.1810   21.2043 N   0  0  0  0  0  0  0  0  0  0  0  0
  -29.6394  -15.4237   21.0045 N   0  0  0  0  0  0  0  0  0  0  0  0
  -22.7845  -24.4782   22.4602 N   0  0  0  0  0  0  0  0  0  0  0  0
  -29.8475  -19.0964   22.0300 N   0  0  0  0  0  0  0  0  0  0  0  0
  -31.6021  -14.5186   20.0353 N   0  0  0  0  0  0  0  0  0  0  0  0
  -28.4707  -11.3815   19.1700 N   0  0  0  0  0  0  0  0  0  0  0  0
  -29.9597  -24.5838   17.5289 N   0  0  0  0  0  0  0  0  0  0  0  0
  -29.4960  -20.2956   20.0297 N   0  0  0  0  0  0  0  0  0  0  0  0
  -20.2316  -26.5108   20.8331 N   0  0  0  0  0  0  0  0  0  0  0  0
  -23.7241  -22.0527   24.6265 N   0  0  0  0  0  0  0  0  0  0  0  0
  -26.4391  -19.9369   23.5220 N   0  3  0  0  0  0  0  0  0  0  0  0
  -30.6852  -11.9211   18.9179 O   0  0  0  0  0  0  0  0  0  0  0  0
  -21.4619  -26.6384   22.8061 O   0  0  0  0  0  0  0  0  0  0  0  0
  -30.0376  -28.1306   20.6808 O   0  0  0  0  0  0  0  0  0  0  0  0
  -21.3050  -22.9144   23.3558 O   0  0  0  0  0  0  0  0  0  0  0  0
  -30.9599  -25.5277   19.4320 O   0  0  0  0  0  0  0  0  0  0  0  0
  -25.9497  -22.6025   24.2780 O   0  0  0  0  0  0  0  0  0  0  0  0
  -30.5256  -21.2991   21.8503 O   0  0  0  0  0  0  0  0  0  0  0  0
  -28.9653  -21.1289   17.8664 O   0  0  0  0  0  0  0  0  0  0  0  0
  -23.0988  -11.5999   20.6295 O   0  0  0  0  0  0  0  0  0  0  0  0
  -27.4210  -27.9162   20.2841 O   0  0  0  0  0  0  0  0  0  1  0  0
  -22.8017   -6.2350   21.8677 F   0  0  0  0  0  0  0  0  0  0  0  0
  -21.6228  -10.7241   22.7967 F   0  0  0  0  0  0  0  0  0  0  0  0
  1  2  1  0  0  0  0
  1  5  2  0  0  0  0
  2  6  2  0  0  0  0
  3  8  2  0  0  0  0
  3 17  1  0  0  0  0
  4  9  1  0  0  0  0
  4 17  2  0  0  0  0
  5 19  1  0  0  0  0
  6 21  1  0  0  0  0
  7 10  2  0  0  0  0
  7 20  1  0  0  0  0
  8 24  1  0  0  0  0
  9 24  2  0  0  0  0
 10 25  1  0  0  0  0
 11 12  2  0  0  0  0
 11 26  1  0  0  0  0
 12 27  1  0  0  0  0
 13 22  1  0  0  0  0
 13 25  2  0  0  0  0
 14 23  1  0  0  0  0
 14 31  2  0  0  0  0
 15 27  2  0  0  0  0
 15 28  1  0  0  0  0
 16 23  2  0  0  0  0
 16 82  1  0  0  0  0
 17 29  1  0  0  0  0
 18 29  1  0  0  0  0
 18 30  2  0  0  0  0
 18 32  1  0  0  0  0
 19 21  2  0  0  0  0
 19 39  1  0  0  0  0
 20 22  2  0  0  0  0
 20 40  1  0  0  0  0
 21 48  1  0  0  0  0
 22 41  1  0  0  0  0
 23 70  1  0  0  0  0
 24 83  1  0  0  0  0
 25 84  1  0  0  0  0
 26 28  2  0  0  0  0
 26 83  1  0  0  0  0
 27 85  1  0  0  0  0
 28 86  1  0  0  0  0
 29 64  2  0  0  0  0
 30 65  1  0  0  0  0
 30 68  1  0  0  0  0
 31 71  1  0  0  0  0
 31 82  1  0  0  0  0
 32 69  1  0  0  0  0
 32 75  2  0  0  0  0
 33 49  1  0  0  0  0
 33 72  1  0  0  0  0
 33 76  2  0  0  0  0
 34 58  1  0  0  0  0
 34 62  1  0  0  0  0
 34 77  2  0  0  0  0
 35 60  1  0  0  0  0
 35 66  1  0  0  0  0
 35 78  2  0  0  0  0
 36 59  1  0  0  0  0
 36 70  1  0  0  0  0
 36 79  2  0  0  0  0
 37 61  1  0  0  0  0
 37 73  1  0  0  0  0
 37 80  2  0  0  0  0
 38 67  1  0  0  0  0
 38 71  1  0  0  0  0
 38 81  2  0  0  0  0
 39 42  1  0  0  0  0
 40 49  1  0  0  0  0
 41 66  1  0  0  0  0
 42 44  1  0  0  0  0
 43 45  1  0  0  0  0
 43 46  1  0  0  0  0
 44 48  1  0  0  0  0
 45 50  1  0  0  0  0
 46 67  1  0  0  0  0
 47 50  1  0  0  0  0
 47 67  1  0  0  0  0
 48 72  1  0  0  0  0
 49 66  1  0  0  0  0
 50 65  1  0  0  0  0
 51 61  1  0  0  0  0
 52 62  1  0  0  0  0
 53 62  1  0  0  0  0
 54 63  1  0  0  0  0
 55 63  1  0  0  0  0
 56 63  1  0  0  0  0
 57 74  1  0  0  0  0
 58 84  1  0  0  0  0
 59 62  1  0  0  0  0
 60 63  1  0  0  0  0
 60 73  1  0  0  0  0
 61 74  1  0  0  0  0
 64 65  1  0  0  0  0
M  CHG  1  74   1
M  ISO  4  38 100  58 101  71 100  84 101
M  END
> <Batch ID>
0143

> <Smiles>
CNC(C)C(=O)NC(C(=O)N1Cc2cc([101O:1][101CH2:1]C(=O)C(C)(C)CC(=O)Nc3coc([100NH:0][100C:0](=O)N4CCCC(n5nc(-c6ccc(Oc7ccc(F)cc7F)cc6)c(C(N)=O)c5N)C4)c3)ccc2CC1C(=O)NC1CCCc2ccccc21)C(C)(C)C

> <Shape>
0.258

> <Color>
0.068

> <Negative vol penalty>
0.000

$$$$

  -OEChem-04052303003D

 88 97  0     1  0  0  0  0  0999 V2000
  -24.8250  -23.1365   15.0126 C   0  0  0  0  0  0  0  0  0  0  0  0
  -24.3578  -23.7407   16.1754 C   0  0  0  0  0  0  0  0  0  0  0  0
  -28.0467  -14.4398   19.2113 C   0  0  0  0  0  0  0  0  0  0  0  0
  -25.9469  -15.2739   20.0669 C   0  0  0  0  0  0  0  0  0  0  0  0
  -22.7797  -24.1165   23.6489 C   0  0  0  0  0  0  0  0  0  0  0  0
  -21.6574  -22.9220   21.8739 C   0  0  0  0  0  0  0  0  0  0  0  0
  -26.1944  -22.9525   14.8257 C   0  0  0  0  0  0  0  0  0  0  0  0
  -25.2598  -24.1603   17.1526 C   0  0  0  0  0  0  0  0  0  0  0  0
  -24.1907  -28.7809   18.9278 C   0  0  0  0  0  0  0  0  0  0  0  0
  -24.0111  -23.6649   23.1742 C   0  0  0  0  0  0  0  0  0  0  0  0
  -22.8888  -22.4705   21.3991 C   0  0  0  0  0  0  0  0  0  0  0  0
  -27.6801  -13.1441   19.5747 C   0  0  0  0  0  0  0  0  0  0  0  0
  -25.5802  -13.9781   20.4304 C   0  0  0  0  0  0  0  0  0  0  0  0
  -23.1523  -28.8832   19.8525 C   0  0  0  0  0  0  0  0  0  0  0  0
  -24.3741  -11.2128   18.9076 C   0  0  0  0  0  0  0  0  0  0  0  0
  -23.0787  -10.7970   18.5998 C   0  0  0  0  0  0  0  0  0  0  0  0
  -24.7649  -28.9717   21.6444 C   0  0  0  0  0  0  0  0  0  0  0  0
  -22.6403  -10.4257   20.9465 C   0  0  0  0  0  0  0  0  0  0  0  0
  -27.1801  -15.5048   19.4574 C   0  0  0  0  0  0  0  0  0  0  0  0
  -21.6028  -23.7450   22.9988 C   0  0  0  0  0  0  0  0  0  0  0  0
  -27.8625  -17.3108   17.7900 C   0  0  0  0  0  0  0  0  0  0  0  0
  -27.1141  -23.3787   15.7968 C   0  0  0  0  0  0  0  0  0  0  0  0
  -25.5259  -28.7622   19.3560 C   0  0  0  0  0  0  0  0  0  0  0  0
  -26.6426  -23.9805   16.9791 C   0  0  0  0  0  0  0  0  0  0  0  0
  -25.8185  -28.8717   20.7229 C   0  0  0  0  0  0  0  0  0  0  0  0
  -24.0657  -22.8420   22.0493 C   0  0  0  0  0  0  0  0  0  0  0  0
  -26.4469  -12.9132   20.1842 C   0  0  0  0  0  0  0  0  0  0  0  0
  -23.4392  -28.9757   21.2113 C   0  0  0  0  0  0  0  0  0  0  0  0
  -24.8026  -11.2350   20.2348 C   0  0  0  0  0  0  0  0  0  0  0  0
  -22.2118  -10.4035   19.6193 C   0  0  0  0  0  0  0  0  0  0  0  0
  -23.9358  -10.8415   21.2543 C   0  0  0  0  0  0  0  0  0  0  0  0
  -27.5585  -16.8437   19.0827 C   0  0  0  0  0  0  0  0  0  0  0  0
  -28.1571  -18.6408   17.9660 C   0  0  0  0  0  0  0  0  0  0  0  0
  -20.2872  -24.2272   23.5060 C   0  0  0  0  0  0  0  0  0  0  0  0
  -27.8773  -16.6056   16.5417 C   0  0  0  0  0  0  0  0  0  0  0  0
  -27.9106  -26.6684   19.1746 C   0  0  0  0  0  0  0  0  0  0  0  0
  -29.6273  -29.1017   20.4610 C   0  0  0  0  0  0  0  0  0  0  0  0
  -29.1475  -31.5962   23.0231 C   0  0  0  0  0  0  0  0  0  0  0  0
  -26.5779  -22.6598   22.0962 C   0  0  0  0  0  0  0  0  0  0  0  0
  -28.5820  -23.1154   15.5715 C   0  0  0  0  0  0  0  0  0  0  0  0
  -26.6353  -28.6783   18.3439 C   0  0  0  0  0  0  0  0  0  0  0  0
  -27.2357  -28.8766   21.2326 C   0  0  0  0  0  0  0  0  0  0  0  0
  -29.4941  -23.9270   16.4878 C   0  0  0  0  0  0  0  0  0  0  0  0
  -18.1440  -27.8572   21.8218 C   0  0  0  0  0  0  0  0  0  0  0  0
  -29.8915  -21.6930   21.2232 C   0  0  0  0  0  0  0  0  0  0  0  0
  -28.9948  -23.8663   17.9279 C   0  0  0  0  0  0  0  0  0  0  0  0
  -29.6965  -20.3854   20.4523 C   0  0  0  0  0  0  0  0  0  0  0  0
  -18.4177  -26.7369   22.8186 C   0  0  0  0  0  0  0  0  0  0  0  0
  -18.6475  -29.2033   22.3304 C   0  0  0  0  0  0  0  0  0  0  0  0
  -28.9007  -21.8234   22.3786 C   0  0  0  0  0  0  0  0  0  0  0  0
  -27.2949  -20.3435   21.2383 C   0  0  0  0  0  0  0  0  0  0  0  0
  -27.5912  -24.4715   18.0512 C   0  0  1  0  0  0  0  0  0  0  0  0
  -27.9409  -28.1508   18.9308 C   0  0  1  0  0  0  0  0  0  0  0  0
  -28.2277  -20.1969   20.0250 C   0  0  2  0  0  0  0  0  0  0  0  0
  -19.8920  -26.6789   23.2171 C   0  0  2  0  0  0  0  0  0  0  0  0
  -20.1137  -29.1805   22.7701 C   0  0  2  0  0  0  0  0  0  0  0  0
  -30.1661  -33.8736   23.2941 C   0  0  0  0  0  0  0  0  0  0  0  0
  -31.6715  -27.6612   22.2092 C   0  0  0  0  0  0  0  0  0  0  0  0
  -31.6593  -29.6448   23.7368 C   0  0  0  0  0  0  0  0  0  0  0  0
  -32.4083  -29.8993   21.3710 C   0  0  0  0  0  0  0  0  0  0  0  0
  -19.8583  -28.3792   25.1391 C   0  0  0  0  0  0  0  0  0  0  0  0
  -26.4917  -32.8934   23.1758 C   0  0  0  0  0  0  0  0  0  0  0  0
  -20.1826  -25.5631   24.2155 C   0  0  0  0  0  0  0  0  0  0  0  0
  -21.0958  -29.0784   21.6035 C   0  0  0  0  0  0  0  0  0  1  0  0
  -29.9523  -29.5562   21.8634 C   0  0  1  0  0  0  0  0  0  0  0  0
  -28.9556  -33.0876   22.8149 C   0  0  2  0  0  0  0  0  0  0  0  0
  -31.3987  -29.1765   22.2892 C   0  0  0  0  0  0  0  0  0  0  0  0
  -27.6514  -17.7992   20.0114 N   0  0  0  0  0  0  0  0  0  0  0  0
  -19.2232  -23.5041   23.3492 N   0  0  0  0  0  0  0  0  0  0  0  0
  -28.0173  -18.8800   19.3014 N   0  0  0  0  0  0  0  0  0  0  0  0
  -28.2855  -28.7860   20.2044 N   0  0  0  0  0  0  0  0  0  0  0  0
  -27.5299  -21.6375   21.8980 N   0  0  0  0  0  0  0  0  0  0  0  0
  -28.5195  -19.6172   17.1071 N   0  0  0  0  0  0  0  0  0  0  0  0
  -27.5490  -15.2431   16.5401 N   0  0  0  0  0  0  0  0  0  0  0  0
  -25.3172  -22.3840   21.5678 N   0  0  0  0  0  0  0  0  0  0  0  0
  -27.6615  -25.9170   18.0421 N   0  0  0  0  0  0  0  0  0  0  0  0
  -29.6739  -30.9877   21.9034 N   0  0  0  0  0  0  0  0  0  0  0  0
  -20.3531  -28.0326   23.7512 N   0  3  1  0  0  0  0  0  0  0  0  0
  -27.7587  -33.5654   23.5633 N   0  3  0  0  0  0  0  0  0  0  0  0
  -28.1889  -17.1633   15.4622 O   0  0  0  0  0  0  0  0  0  0  0  0
  -28.1006  -26.2383   20.3063 O   0  0  0  0  0  0  0  0  0  0  0  0
  -30.5293  -29.0362   19.6222 O   0  0  0  0  0  0  0  0  0  0  0  0
  -28.8625  -31.0285   24.0753 O   0  0  0  0  0  0  0  0  0  0  0  0
  -26.8675  -23.7145   22.6668 O   0  0  0  0  0  0  0  0  0  0  0  0
  -26.0887  -11.6488   20.5388 O   0  0  0  0  0  0  0  0  0  0  0  0
  -22.4276  -29.0750   22.1161 O   0  0  0  0  0  0  0  0  0  1  0  0
  -20.9674  -10.0057   19.3237 F   0  0  0  0  0  0  0  0  0  0  0  0
  -24.3414  -10.8618   22.5313 F   0  0  0  0  0  0  0  0  0  0  0  0
  1  2  1  0  0  0  0
  1  7  2  0  0  0  0
  2  8  2  0  0  0  0
  3 12  2  0  0  0  0
  3 19  1  0  0  0  0
  4 13  1  0  0  0  0
  4 19  2  0  0  0  0
  5 10  2  0  0  0  0
  5 20  1  0  0  0  0
  6 11  1  0  0  0  0
  6 20  2  0  0  0  0
  7 22  1  0  0  0  0
  8 24  1  0  0  0  0
  9 14  2  0  0  0  0
  9 23  1  0  0  0  0
 10 26  1  0  0  0  0
 11 26  2  0  0  0  0
 12 27  1  0  0  0  0
 13 27  2  0  0  0  0
 14 28  1  0  0  0  0
 15 16  2  0  0  0  0
 15 29  1  0  0  0  0
 16 30  1  0  0  0  0
 17 25  1  0  0  0  0
 17 28  2  0  0  0  0
 18 30  2  0  0  0  0
 18 31  1  0  0  0  0
 19 32  1  0  0  0  0
 20 34  1  0  0  0  0
 21 32  1  0  0  0  0
 21 33  2  0  0  0  0
 21 35  1  0  0  0  0
 22 24  2  0  0  0  0
 22 40  1  0  0  0  0
 23 25  2  0  0  0  0
 23 41  1  0  0  0  0
 24 52  1  0  0  0  0
 25 42  1  0  0  0  0
 26 75  1  0  0  0  0
 27 85  1  0  0  0  0
 28 86  1  0  0  0  0
 29 31  2  0  0  0  0
 29 85  1  0  0  0  0
 30 87  1  0  0  0  0
 31 88  1  0  0  0  0
 32 68  2  0  0  0  0
 33 70  1  0  0  0  0
 33 73  1  0  0  0  0
 34 63  1  0  0  0  0
 34 69  2  0  0  0  0
 35 74  1  0  0  0  0
 35 80  2  0  0  0  0
 36 53  1  0  0  0  0
 36 76  1  0  0  0  0
 36 81  2  0  0  0  0
 37 65  1  0  0  0  0
 37 71  1  0  0  0  0
 37 82  2  0  0  0  0
 38 66  1  0  0  0  0
 38 77  1  0  0  0  0
 38 83  2  0  0  0  0
 39 72  1  0  0  0  0
 39 75  1  0  0  0  0
 39 84  2  0  0  0  0
 40 43  1  0  0  0  0
 41 53  1  0  0  0  0
 42 71  1  0  0  0  0
 43 46  1  0  0  0  0
 44 48  1  0  0  0  0
 44 49  1  0  0  0  0
 45 47  1  0  0  0  0
 45 50  1  0  0  0  0
 46 52  1  0  0  0  0
 47 54  1  0  0  0  0
 48 55  1  0  0  0  0
 49 56  1  0  0  0  0
 50 72  1  0  0  0  0
 51 54  1  0  0  0  0
 51 72  1  0  0  0  0
 52 76  1  0  0  0  0
 53 71  1  0  0  0  0
 54 70  1  0  0  0  0
 55 63  1  0  0  0  0
 55 78  1  0  0  0  0
 56 64  1  0  0  0  0
 56 78  1  0  0  0  0
 57 66  1  0  0  0  0
 58 67  1  0  0  0  0
 59 67  1  0  0  0  0
 60 67  1  0  0  0  0
 61 78  1  0  0  0  0
 62 79  1  0  0  0  0
 64 86  1  0  0  0  0
 65 67  1  0  0  0  0
 65 77  1  0  0  0  0
 66 79  1  0  0  0  0
 68 70  1  0  0  0  0
M  CHG  2  78   1  79   1
M  ISO  4  39 100  64 101  75 100  86 101
M  END
> <Batch ID>
0143

> <Smiles>
CNC(C)C(=O)NC(C(=O)N1Cc2cc([101O:1][101CH2:1]C3CCCC(CC(=N)c4ccc([100NH:0][100C:0](=O)N5CCCC(n6nc(-c7ccc(Oc8ccc(F)cc8F)cc7)c(C(N)=O)c6N)C5)cc4)N3C)ccc2CC1C(=O)NC1CCCc2ccccc21)C(C)(C)C

> <Shape>
0.235

> <Color>
0.056

> <Negative vol penalty>
0.000

$$$$

  -OEChem-04052303003D

 87 95  0     1  0  0  0  0  0999 V2000
  -30.5765  -12.2563   19.8672 C   0  0  0  0  0  0  0  0  0  0  0  0
  -30.2383  -13.3566   20.6486 C   0  0  0  0  0  0  0  0  0  0  0  0
  -24.1689  -29.8317   20.0773 C   0  0  0  0  0  0  0  0  0  0  0  0
  -24.3573  -28.4451   22.0468 C   0  0  0  0  0  0  0  0  0  0  0  0
  -29.7179  -11.8322   18.8538 C   0  0  0  0  0  0  0  0  0  0  0  0
  -29.0418  -14.0340   20.4163 C   0  0  0  0  0  0  0  0  0  0  0  0
  -26.5492  -15.0973   24.6943 C   0  0  0  0  0  0  0  0  0  0  0  0
  -22.8307  -30.0817   20.3813 C   0  0  0  0  0  0  0  0  0  0  0  0
  -23.0191  -28.6950   22.3508 C   0  0  0  0  0  0  0  0  0  0  0  0
  -27.0071  -16.1786   25.4460 C   0  0  0  0  0  0  0  0  0  0  0  0
  -19.9863  -27.6071   21.3264 C   0  0  0  0  0  0  0  0  0  0  0  0
  -19.1955  -26.5238   21.7092 C   0  0  0  0  0  0  0  0  0  0  0  0
  -25.2565  -17.5559   24.5198 C   0  0  0  0  0  0  0  0  0  0  0  0
  -28.8686  -21.6768   22.0796 C   0  0  0  0  0  0  0  0  0  0  0  0
  -29.1596  -20.5466   19.9642 C   0  0  0  0  0  0  0  0  0  0  0  0
  -18.7623  -27.5907   23.8332 C   0  0  0  0  0  0  0  0  0  0  0  0
  -24.9322  -29.0134   20.9101 C   0  0  0  0  0  0  0  0  0  0  0  0
  -27.4346  -29.4982   21.0131 C   0  0  0  0  0  0  0  0  0  0  0  0
  -28.5058  -12.4988   18.6153 C   0  0  0  0  0  0  0  0  0  0  0  0
  -25.4464  -15.2404   23.8400 C   0  0  0  0  0  0  0  0  0  0  0  0
  -28.1669  -13.6191   19.3979 C   0  0  0  0  0  0  0  0  0  0  0  0
  -24.7851  -16.4743   23.7603 C   0  0  0  0  0  0  0  0  0  0  0  0
  -28.8431  -19.2627   21.9862 C   0  0  0  0  0  0  0  0  0  0  0  0
  -29.0711  -21.7280   20.7005 C   0  0  0  0  0  0  0  0  0  0  0  0
  -28.7546  -20.4441   22.7225 C   0  0  0  0  0  0  0  0  0  0  0  0
  -22.2558  -29.5134   21.5180 C   0  0  0  0  0  0  0  0  0  0  0  0
  -26.3625  -17.4089   25.3567 C   0  0  0  0  0  0  0  0  0  0  0  0
  -20.1653  -28.6821   22.1970 C   0  0  0  0  0  0  0  0  0  0  0  0
  -18.5834  -26.5156   22.9626 C   0  0  0  0  0  0  0  0  0  0  0  0
  -29.0456  -19.3139   20.6071 C   0  0  0  0  0  0  0  0  0  0  0  0
  -19.5532  -28.6740   23.4503 C   0  0  0  0  0  0  0  0  0  0  0  0
  -26.3144  -28.7543   20.5963 C   0  0  0  0  0  0  0  0  0  0  0  0
  -28.5066  -28.8472   20.4532 C   0  0  0  0  0  0  0  0  0  0  0  0
  -27.5002  -30.6725   21.8330 C   0  0  0  0  0  0  0  0  0  0  0  0
  -24.9865  -14.9704   20.7064 C   0  0  0  0  0  0  0  0  0  0  0  0
  -21.8763  -15.4039   21.5194 C   0  0  0  0  0  0  0  0  0  0  0  0
  -28.4411  -21.4946   24.9862 C   0  0  0  0  0  0  0  0  0  0  0  0
  -19.6107  -16.6252   23.7604 C   0  0  0  0  0  0  0  0  0  0  0  0
  -29.3898  -23.2077   18.6867 C   0  0  0  0  0  0  0  0  0  0  0  0
  -27.6323  -12.0323   17.4777 C   0  0  0  0  0  0  0  0  0  0  0  0
  -24.9485  -14.0573   23.0561 C   0  0  0  0  0  0  0  0  0  0  0  0
  -23.5843  -16.6746   22.8735 C   0  0  0  0  0  0  0  0  0  0  0  0
  -26.2074  -12.5761   17.5412 C   0  0  0  0  0  0  0  0  0  0  0  0
  -29.6921  -26.1377   16.6866 C   0  0  0  0  0  0  0  0  0  0  0  0
  -26.2198  -14.0732   17.8331 C   0  0  0  0  0  0  0  0  0  0  0  0
  -28.9674  -27.2103   17.5030 C   0  0  0  0  0  0  0  0  0  0  0  0
  -29.0048  -24.7781   16.7997 C   0  0  0  0  0  0  0  0  0  0  0  0
  -28.0513  -25.3831   18.9892 C   0  0  0  0  0  0  0  0  0  0  0  0
  -26.8661  -14.3649   19.1928 C   0  0  1  0  0  0  0  0  0  0  0  0
  -24.1325  -14.4537   21.8296 C   0  0  1  0  0  0  0  0  0  0  0  0
  -28.7438  -26.7554   18.9585 C   0  0  2  0  0  0  0  0  0  0  0  0
  -28.7227  -17.9299   22.6515 C   0  0  0  0  0  0  0  0  0  0  0  0
  -17.1405  -16.8642   24.1328 C   0  0  0  0  0  0  0  0  0  0  0  0
  -21.7931  -17.6806   19.4897 C   0  0  0  0  0  0  0  0  0  0  0  0
  -19.6739  -18.4687   20.5649 C   0  0  0  0  0  0  0  0  0  0  0  0
  -19.7661  -16.2157   19.4979 C   0  0  0  0  0  0  0  0  0  0  0  0
  -26.7110  -20.3754   28.2927 C   0  0  0  0  0  0  0  0  0  0  0  0
  -25.9046  -22.0901   26.6676 C   0  0  0  0  0  0  0  0  0  0  0  0
  -19.7099  -15.0071   26.2364 C   0  0  0  0  0  0  0  0  0  0  0  0
  -28.2232  -21.0571   26.4291 C   0  0  0  0  0  0  0  0  0  0  0  0
  -26.1000  -19.6972   25.9486 C   0  0  0  0  0  0  0  0  0  1  0  0
  -20.9718  -16.6010   21.6865 C   0  0  1  0  0  0  0  0  0  0  0  0
  -18.3709  -16.0050   24.3790 C   0  0  2  0  0  0  0  0  0  0  0  0
  -20.5750  -17.2386   20.3251 C   0  0  0  0  0  0  0  0  0  0  0  0
  -26.7416  -20.8067   26.8104 C   0  0  0  0  0  0  0  0  0  0  0  0
  -26.6442  -27.7108   19.8306 N   0  0  0  0  0  0  0  0  0  0  0  0
  -27.9838  -27.7943   19.7618 N   0  0  0  0  0  0  0  0  0  0  0  0
  -23.1394  -15.4893   22.1220 N   0  0  0  0  0  0  0  0  0  0  0  0
  -28.8303  -24.4107   18.2067 N   0  0  0  0  0  0  0  0  0  0  0  0
  -29.8361  -29.0786   20.4898 N   0  0  0  0  0  0  0  0  0  0  0  0
  -26.3037  -31.2110   22.3258 N   0  0  0  0  0  0  0  0  0  0  0  0
  -28.5497  -20.4127   24.1223 N   0  0  0  0  0  0  0  0  0  0  0  0
  -29.1870  -22.9801   20.0475 N   0  0  0  0  0  0  0  0  0  0  0  0
  -25.9400  -14.0726   20.2657 N   0  0  0  0  0  0  0  0  0  0  0  0
  -19.8393  -16.1483   22.4870 N   0  0  0  0  0  0  0  0  0  0  0  0
  -18.5486  -15.8494   25.8505 N   0  3  0  0  0  0  0  0  0  0  0  0
  -28.5863  -31.2373   22.1068 O   0  0  0  0  0  0  0  0  0  0  0  0
  -24.7937  -16.0995   20.2709 O   0  0  0  0  0  0  0  0  0  0  0  0
  -21.4742  -14.4262   20.8839 O   0  0  0  0  0  0  0  0  0  0  0  0
  -28.5079  -22.6876   24.7026 O   0  0  0  0  0  0  0  0  0  0  0  0
  -20.3046  -17.4530   24.3467 O   0  0  0  0  0  0  0  0  0  0  0  0
  -30.0269  -22.4494   17.9511 O   0  0  0  0  0  0  0  0  0  0  0  0
  -20.9501  -29.7573   21.8151 O   0  0  0  0  0  0  0  0  0  0  0  0
  -26.8077  -18.4661   26.0888 O   0  0  0  0  0  0  0  0  0  1  0  0
  -17.8227  -25.4759   23.3295 F   0  0  0  0  0  0  0  0  0  0  0  0
  -29.1305  -18.1845   19.8901 F   0  0  0  0  0  0  0  0  0  0  0  0
  -19.7205  -29.7044   24.2905 F   0  0  0  0  0  0  0  0  0  0  0  0
  1  2  1  0  0  0  0
  1  5  2  0  0  0  0
  2  6  2  0  0  0  0
  3  8  2  0  0  0  0
  3 17  1  0  0  0  0
  4  9  1  0  0  0  0
  4 17  2  0  0  0  0
  5 19  1  0  0  0  0
  6 21  1  0  0  0  0
  7 10  2  0  0  0  0
  7 20  1  0  0  0  0
  8 26  1  0  0  0  0
  9 26  2  0  0  0  0
 10 27  1  0  0  0  0
 11 12  2  0  0  0  0
 11 28  1  0  0  0  0
 12 29  1  0  0  0  0
 13 22  1  0  0  0  0
 13 27  2  0  0  0  0
 14 24  2  0  0  0  0
 14 25  1  0  0  0  0
 15 24  1  0  0  0  0
 15 30  2  0  0  0  0
 16 29  2  0  0  0  0
 16 31  1  0  0  0  0
 17 32  1  0  0  0  0
 18 32  1  0  0  0  0
 18 33  2  0  0  0  0
 18 34  1  0  0  0  0
 19 21  2  0  0  0  0
 19 40  1  0  0  0  0
 20 22  2  0  0  0  0
 20 41  1  0  0  0  0
 21 49  1  0  0  0  0
 22 42  1  0  0  0  0
 23 25  2  0  0  0  0
 23 30  1  0  0  0  0
 23 52  1  0  0  0  0
 24 73  1  0  0  0  0
 25 72  1  0  0  0  0
 26 83  1  0  0  0  0
 27 84  1  0  0  0  0
 28 31  2  0  0  0  0
 28 83  1  0  0  0  0
 29 85  1  0  0  0  0
 30 86  1  0  0  0  0
 31 87  1  0  0  0  0
 32 66  2  0  0  0  0
 33 67  1  0  0  0  0
 33 70  1  0  0  0  0
 34 71  1  0  0  0  0
 34 77  2  0  0  0  0
 35 50  1  0  0  0  0
 35 74  1  0  0  0  0
 35 78  2  0  0  0  0
 36 62  1  0  0  0  0
 36 68  1  0  0  0  0
 36 79  2  0  0  0  0
 37 60  1  0  0  0  0
 37 72  1  0  0  0  0
 37 80  2  0  0  0  0
 38 63  1  0  0  0  0
 38 75  1  0  0  0  0
 38 81  2  0  0  0  0
 39 69  1  0  0  0  0
 39 73  1  0  0  0  0
 39 82  2  0  0  0  0
 40 43  1  0  0  0  0
 41 50  1  0  0  0  0
 42 68  1  0  0  0  0
 43 45  1  0  0  0  0
 44 46  1  0  0  0  0
 44 47  1  0  0  0  0
 45 49  1  0  0  0  0
 46 51  1  0  0  0  0
 47 69  1  0  0  0  0
 48 51  1  0  0  0  0
 48 69  1  0  0  0  0
 49 74  1  0  0  0  0
 50 68  1  0  0  0  0
 51 67  1  0  0  0  0
 53 63  1  0  0  0  0
 54 64  1  0  0  0  0
 55 64  1  0  0  0  0
 56 64  1  0  0  0  0
 57 65  1  0  0  0  0
 58 65  1  0  0  0  0
 59 76  1  0  0  0  0
 60 65  1  0  0  0  0
 61 65  1  0  0  0  0
 61 84  1  0  0  0  0
 62 64  1  0  0  0  0
 62 75  1  0  0  0  0
 63 76  1  0  0  0  0
 66 67  1  0  0  0  0
M  CHG  1  76   1
M  ISO  4  39 100  61 101  73 100  84 101
M  END
> <Batch ID>
0143

> <Smiles>
CNC(C)C(=O)NC(C(=O)N1Cc2cc([101O:1][101CH2:1]C(C)(C)CC(=O)Nc3cc([100NH:0][100C:0](=O)N4CCCC(n5nc(-c6ccc(Oc7ccc(F)cc7F)cc6)c(C(N)=O)c5N)C4)cc(F)c3C)ccc2CC1C(=O)NC1CCCc2ccccc21)C(C)(C)C

> <Shape>
0.266

> <Color>
0.059

> <Negative vol penalty>
0.000

$$$$

  -OEChem-04052303003D

 86 95  0     1  0  0  0  0  0999 V2000
  -28.5643  -37.5543   24.9201 C   0  0  0  0  0  0  0  0  0  0  0  0
  -29.0491  -36.3866   24.3396 C   0  0  0  0  0  0  0  0  0  0  0  0
  -24.3326   -9.0003   21.5001 C   0  0  0  0  0  0  0  0  0  0  0  0
  -24.6547  -10.5503   23.3252 C   0  0  0  0  0  0  0  0  0  0  0  0
  -29.3413  -20.4968   19.2835 C   0  0  0  0  0  0  0  0  0  0  0  0
  -26.9376  -20.5142   19.5264 C   0  0  0  0  0  0  0  0  0  0  0  0
  -27.3870  -37.5237   25.6663 C   0  0  0  0  0  0  0  0  0  0  0  0
  -28.3573  -35.1874   24.5060 C   0  0  0  0  0  0  0  0  0  0  0  0
  -27.8371  -30.6419   20.4349 C   0  0  0  0  0  0  0  0  0  0  0  0
  -29.3103  -19.1180   19.0751 C   0  0  0  0  0  0  0  0  0  0  0  0
  -26.9065  -19.1354   19.3180 C   0  0  0  0  0  0  0  0  0  0  0  0
  -24.0872   -7.9754   22.4138 C   0  0  0  0  0  0  0  0  0  0  0  0
  -24.4092   -9.5254   24.2389 C   0  0  0  0  0  0  0  0  0  0  0  0
  -28.5143  -29.4321   20.2881 C   0  0  0  0  0  0  0  0  0  0  0  0
  -21.5217   -6.9264   24.3505 C   0  0  0  0  0  0  0  0  0  0  0  0
  -20.4382   -6.0835   24.1035 C   0  0  0  0  0  0  0  0  0  0  0  0
  -26.7549  -28.3076   21.4960 C   0  0  0  0  0  0  0  0  0  0  0  0
  -21.9334   -4.1878   24.0137 C   0  0  0  0  0  0  0  0  0  0  0  0
  -24.6164  -10.2878   21.9558 C   0  0  0  0  0  0  0  0  0  0  0  0
  -28.1549  -21.1950   19.5093 C   0  0  0  0  0  0  0  0  0  0  0  0
  -23.9262  -12.2190   20.4386 C   0  0  0  0  0  0  0  0  0  0  0  0
  -26.6753  -36.3254   25.8339 C   0  0  0  0  0  0  0  0  0  0  0  0
  -26.6170  -30.6956   21.1240 C   0  0  0  0  0  0  0  0  0  0  0  0
  -27.1701  -35.1405   25.2563 C   0  0  0  0  0  0  0  0  0  0  0  0
  -26.0629  -29.5189   21.6479 C   0  0  0  0  0  0  0  0  0  0  0  0
  -28.0929  -18.4373   19.0923 C   0  0  0  0  0  0  0  0  0  0  0  0
  -24.1254   -8.2379   23.7832 C   0  0  0  0  0  0  0  0  0  0  0  0
  -27.9746  -28.2652   20.8212 C   0  0  0  0  0  0  0  0  0  0  0  0
  -22.8111   -6.4001   24.4290 C   0  0  0  0  0  0  0  0  0  0  0  0
  -20.6440   -4.7142   23.9351 C   0  0  0  0  0  0  0  0  0  0  0  0
  -23.0169   -5.0308   24.2607 C   0  0  0  0  0  0  0  0  0  0  0  0
  -24.8706  -11.3468   21.0124 C   0  0  0  0  0  0  0  0  0  0  0  0
  -24.6662  -13.0339   19.6171 C   0  0  0  0  0  0  0  0  0  0  0  0
  -28.1876  -22.6519   19.7296 C   0  0  0  0  0  0  0  0  0  0  0  0
  -22.5071  -12.2865   20.6311 C   0  0  0  0  0  0  0  0  0  0  0  0
  -25.5857  -32.1623   23.7486 C   0  0  0  0  0  0  0  0  0  0  0  0
  -22.7197  -30.9542   22.8275 C   0  0  0  0  0  0  0  0  0  0  0  0
  -21.0043  -28.5799   21.0762 C   0  0  0  0  0  0  0  0  0  0  0  0
  -29.1462  -16.1934   18.6428 C   0  0  0  0  0  0  0  0  0  0  0  0
  -25.4327  -36.3325   26.6886 C   0  0  0  0  0  0  0  0  0  0  0  0
  -25.8858  -32.0039   21.2505 C   0  0  0  0  0  0  0  0  0  0  0  0
  -24.7459  -29.5195   22.3787 C   0  0  0  0  0  0  0  0  0  0  0  0
  -24.5594  -35.0941   26.5042 C   0  0  0  0  0  0  0  0  0  0  0  0
  -29.4859  -12.6895   18.1094 C   0  0  0  0  0  0  0  0  0  0  0  0
  -28.1015  -24.2643   16.4885 C   0  0  0  0  0  0  0  0  0  0  0  0
  -25.4124  -33.8298   26.5364 C   0  0  0  0  0  0  0  0  0  0  0  0
  -28.2378  -12.0996   18.7699 C   0  0  0  0  0  0  0  0  0  0  0  0
  -27.5717  -25.3563   17.4121 C   0  0  0  0  0  0  0  0  0  0  0  0
  -27.9453  -22.9897   17.3082 C   0  0  0  0  0  0  0  0  0  0  0  0
  -30.0301  -13.8842   18.8906 C   0  0  0  0  0  0  0  0  0  0  0  0
  -27.8017  -14.3511   19.8318 C   0  0  0  0  0  0  0  0  0  0  0  0
  -26.4348  -33.8249   25.3935 C   0  0  1  0  0  0  0  0  0  0  0  0
  -24.9029  -32.0287   22.4169 C   0  0  1  0  0  0  0  0  0  0  0  0
  -27.1794  -13.1856   19.0457 C   0  0  2  0  0  0  0  0  0  0  0  0
  -28.0614  -24.9408   18.8026 C   0  0  2  0  0  0  0  0  0  0  0  0
  -18.6703  -27.8279   20.5431 C   0  0  0  0  0  0  0  0  0  0  0  0
  -22.4773  -29.7381   25.6154 C   0  0  0  0  0  0  0  0  0  0  0  0
  -20.6603  -28.2574   24.7356 C   0  0  0  0  0  0  0  0  0  0  0  0
  -20.3635  -30.7341   24.7243 C   0  0  0  0  0  0  0  0  0  0  0  0
  -21.3995  -29.0231   18.1768 C   0  0  0  0  0  0  0  0  0  0  0  0
  -29.4569  -25.4558   19.1218 C   0  0  0  0  0  0  0  0  0  0  0  0
  -29.4417  -26.9253   19.5142 C   0  0  0  0  0  0  0  0  0  1  0  0
  -21.9679  -29.6707   23.0852 C   0  0  1  0  0  0  0  0  0  0  0  0
  -19.8446  -28.6880   20.1026 C   0  0  2  0  0  0  0  0  0  0  0  0
  -21.3930  -29.6000   24.5281 C   0  0  0  0  0  0  0  0  0  0  0  0
  -26.1155  -11.5852   20.5910 N   0  0  0  0  0  0  0  0  0  0  0  0
  -25.9584  -12.6164   19.7436 N   0  0  0  0  0  0  0  0  0  0  0  0
  -28.0888  -23.4675   18.6943 N   0  0  0  0  0  0  0  0  0  0  0  0
  -24.0723  -30.8245   22.4818 N   0  0  0  0  0  0  0  0  0  0  0  0
  -28.9729  -14.8736   19.1106 N   0  0  0  0  0  0  0  0  0  0  0  0
  -24.3310  -14.0597   18.8060 N   0  0  0  0  0  0  0  0  0  0  0  0
  -21.9079  -11.3744   21.5105 N   0  0  0  0  0  0  0  0  0  0  0  0
  -28.0613  -17.0366   18.8805 N   0  0  0  0  0  0  0  0  0  0  0  0
  -25.7954  -33.4694   24.1448 N   0  0  0  0  0  0  0  0  0  0  0  0
  -20.9603  -29.5699   22.0350 N   0  0  0  0  0  0  0  0  0  0  0  0
  -28.3141  -23.1228   20.9667 N   0  3  0  0  0  0  0  0  0  0  0  0
  -20.2666  -28.2467   18.7432 N   0  3  0  0  0  0  0  0  0  0  0  0
  -21.7893  -13.1201   20.0282 O   0  0  0  0  0  0  0  0  0  0  0  0
  -25.8979  -31.1541   24.3714 O   0  0  0  0  0  0  0  0  0  0  0  0
  -22.1268  -32.0317   22.9222 O   0  0  0  0  0  0  0  0  0  0  0  0
  -21.8613  -27.7025   20.9965 O   0  0  0  0  0  0  0  0  0  0  0  0
  -30.1698  -16.5423   18.0490 O   0  0  0  0  0  0  0  0  0  0  0  0
  -23.8857   -7.2381   24.6751 O   0  0  0  0  0  0  0  0  0  0  0  0
  -28.6339  -27.0831   20.6799 O   0  0  0  0  0  0  0  0  0  1  0  0
  -19.6032   -3.9046   23.6994 F   0  0  0  0  0  0  0  0  0  0  0  0
  -24.2532   -4.5192   24.3362 F   0  0  0  0  0  0  0  0  0  0  0  0
  1  2  1  0  0  0  0
  1  7  2  0  0  0  0
  2  8  2  0  0  0  0
  3 12  2  0  0  0  0
  3 19  1  0  0  0  0
  4 13  1  0  0  0  0
  4 19  2  0  0  0  0
  5 10  2  0  0  0  0
  5 20  1  0  0  0  0
  6 11  1  0  0  0  0
  6 20  2  0  0  0  0
  7 22  1  0  0  0  0
  8 24  1  0  0  0  0
  9 14  2  0  0  0  0
  9 23  1  0  0  0  0
 10 26  1  0  0  0  0
 11 26  2  0  0  0  0
 12 27  1  0  0  0  0
 13 27  2  0  0  0  0
 14 28  1  0  0  0  0
 15 16  2  0  0  0  0
 15 29  1  0  0  0  0
 16 30  1  0  0  0  0
 17 25  1  0  0  0  0
 17 28  2  0  0  0  0
 18 30  2  0  0  0  0
 18 31  1  0  0  0  0
 19 32  1  0  0  0  0
 20 34  1  0  0  0  0
 21 32  1  0  0  0  0
 21 33  2  0  0  0  0
 21 35  1  0  0  0  0
 22 24  2  0  0  0  0
 22 40  1  0  0  0  0
 23 25  2  0  0  0  0
 23 41  1  0  0  0  0
 24 52  1  0  0  0  0
 25 42  1  0  0  0  0
 26 73  1  0  0  0  0
 27 83  1  0  0  0  0
 28 84  1  0  0  0  0
 29 31  2  0  0  0  0
 29 83  1  0  0  0  0
 30 85  1  0  0  0  0
 31 86  1  0  0  0  0
 32 66  2  0  0  0  0
 33 67  1  0  0  0  0
 33 71  1  0  0  0  0
 34 68  1  0  0  0  0
 34 76  2  0  0  0  0
 35 72  1  0  0  0  0
 35 78  2  0  0  0  0
 36 53  1  0  0  0  0
 36 74  1  0  0  0  0
 36 79  2  0  0  0  0
 37 63  1  0  0  0  0
 37 69  1  0  0  0  0
 37 80  2  0  0  0  0
 38 64  1  0  0  0  0
 38 75  1  0  0  0  0
 38 81  2  0  0  0  0
 39 70  1  0  0  0  0
 39 73  1  0  0  0  0
 39 82  2  0  0  0  0
 40 43  1  0  0  0  0
 41 53  1  0  0  0  0
 42 69  1  0  0  0  0
 43 46  1  0  0  0  0
 44 47  1  0  0  0  0
 44 50  1  0  0  0  0
 45 48  1  0  0  0  0
 45 49  1  0  0  0  0
 46 52  1  0  0  0  0
 47 54  1  0  0  0  0
 48 55  1  0  0  0  0
 49 68  1  0  0  0  0
 50 70  1  0  0  0  0
 51 54  1  0  0  0  0
 51 70  1  0  0  0  0
 52 74  1  0  0  0  0
 53 69  1  0  0  0  0
 54 67  1  0  0  0  0
 55 61  1  0  0  0  0
 55 68  1  0  0  0  0
 56 64  1  0  0  0  0
 57 65  1  0  0  0  0
 58 65  1  0  0  0  0
 59 65  1  0  0  0  0
 60 77  1  0  0  0  0
 61 62  1  0  0  0  0
 62 84  1  0  0  0  0
 63 65  1  0  0  0  0
 63 75  1  0  0  0  0
 64 77  1  0  0  0  0
 66 67  1  0  0  0  0
M  CHG  2  76   1  77   1
M  ISO  4  39 100  62 101  73 100  84 101
M  END
> <Batch ID>
0143

> <Smiles>
CNC(C)C(=O)NC(C(=O)N1Cc2cc([101O:1][101CH2:1]CC3CCCN3C(=N)c3ccc([100NH:0][100C:0](=O)N4CCCC(n5nc(-c6ccc(Oc7ccc(F)cc7F)cc6)c(C(N)=O)c5N)C4)cc3)ccc2CC1C(=O)NC1CCCc2ccccc21)C(C)(C)C

> <Shape>
0.340

> <Color>
0.098

> <Negative vol penalty>
0.000

$$$$

  -OEChem-04052303003D

 86 95  0     1  0  0  0  0  0999 V2000
  -31.6255  -12.4709   18.1857 C   0  0  0  0  0  0  0  0  0  0  0  0
  -31.2726  -13.3477   19.2065 C   0  0  0  0  0  0  0  0  0  0  0  0
  -21.7976  -28.6688   20.8187 C   0  0  0  0  0  0  0  0  0  0  0  0
  -22.6673  -27.0484   22.3854 C   0  0  0  0  0  0  0  0  0  0  0  0
  -30.6616  -12.0373   17.2764 C   0  0  0  0  0  0  0  0  0  0  0  0
  -29.9556  -13.7923   19.3179 C   0  0  0  0  0  0  0  0  0  0  0  0
  -28.2590  -13.6642   24.0876 C   0  0  0  0  0  0  0  0  0  0  0  0
  -20.5335  -28.5483   21.3958 C   0  0  0  0  0  0  0  0  0  0  0  0
  -21.4032  -26.9279   22.9626 C   0  0  0  0  0  0  0  0  0  0  0  0
  -28.6697  -14.6904   24.9373 C   0  0  0  0  0  0  0  0  0  0  0  0
  -18.9338  -29.6844   24.1496 C   0  0  0  0  0  0  0  0  0  0  0  0
  -18.2263  -30.8576   24.4114 C   0  0  0  0  0  0  0  0  0  0  0  0
  -26.5550  -15.8029   24.6061 C   0  0  0  0  0  0  0  0  0  0  0  0
  -16.4501  -30.1117   22.9534 C   0  0  0  0  0  0  0  0  0  0  0  0
  -30.3940  -20.7142   22.7943 C   0  0  0  0  0  0  0  0  0  0  0  0
  -22.8645  -27.9188   21.3135 C   0  0  0  0  0  0  0  0  0  0  0  0
  -24.9547  -29.2076   20.6223 C   0  0  0  0  0  0  0  0  0  0  0  0
  -29.3301  -12.4692   17.3825 C   0  0  0  0  0  0  0  0  0  0  0  0
  -26.9953  -13.7052   23.4812 C   0  0  0  0  0  0  0  0  0  0  0  0
  -28.9733  -13.3651   18.4084 C   0  0  0  0  0  0  0  0  0  0  0  0
  -26.1296  -14.7747   23.7512 C   0  0  0  0  0  0  0  0  0  0  0  0
  -30.1502  -21.6726   23.7532 C   0  0  0  0  0  0  0  0  0  0  0  0
  -29.6097  -22.8657   23.1922 C   0  0  0  0  0  0  0  0  0  0  0  0
  -20.3363  -27.6779   22.4677 C   0  0  0  0  0  0  0  0  0  0  0  0
  -27.8188  -15.7614   25.1944 C   0  0  0  0  0  0  0  0  0  0  0  0
  -18.3996  -28.7249   23.2896 C   0  0  0  0  0  0  0  0  0  0  0  0
  -16.9844  -31.0712   23.8133 C   0  0  0  0  0  0  0  0  0  0  0  0
  -17.1577  -28.9385   22.6915 C   0  0  0  0  0  0  0  0  0  0  0  0
  -24.1705  -28.0424   20.7174 C   0  0  0  0  0  0  0  0  0  0  0  0
  -26.0970  -28.8010   19.9770 C   0  0  0  0  0  0  0  0  0  0  0  0
  -29.4612  -22.7737   21.8257 C   0  0  0  0  0  0  0  0  0  0  0  0
  -24.6757  -30.5385   21.0767 C   0  0  0  0  0  0  0  0  0  0  0  0
  -25.9493  -13.8221   20.4819 C   0  0  0  0  0  0  0  0  0  0  0  0
  -23.0479  -13.4807   21.8918 C   0  0  0  0  0  0  0  0  0  0  0  0
  -21.1204  -13.8590   24.6826 C   0  0  0  0  0  0  0  0  0  0  0  0
  -28.8555  -23.5222   19.4978 C   0  0  0  0  0  0  0  0  0  0  0  0
  -28.3334  -12.0104   16.3477 C   0  0  0  0  0  0  0  0  0  0  0  0
  -26.5567  -12.5770   22.5882 C   0  0  0  0  0  0  0  0  0  0  0  0
  -24.7549  -14.8557   23.1411 C   0  0  0  0  0  0  0  0  0  0  0  0
  -26.8808  -12.2344   16.7599 C   0  0  0  0  0  0  0  0  0  0  0  0
  -27.6637  -25.5523   16.8266 C   0  0  0  0  0  0  0  0  0  0  0  0
  -26.6958  -13.6407   17.3209 C   0  0  0  0  0  0  0  0  0  0  0  0
  -26.7086  -26.5312   17.5134 C   0  0  0  0  0  0  0  0  0  0  0  0
  -31.0262  -20.0719   25.6230 C   0  0  0  0  0  0  0  0  0  0  0  0
  -29.1660  -21.6492   26.1414 C   0  0  0  0  0  0  0  0  0  0  0  0
  -30.0284  -18.9191   25.4511 C   0  0  0  0  0  0  0  0  0  0  0  0
  -28.1389  -20.5284   25.9490 C   0  0  0  0  0  0  0  0  0  0  0  0
  -27.5963  -24.1605   17.4528 C   0  0  0  0  0  0  0  0  0  0  0  0
  -26.8297  -25.1039   19.5956 C   0  0  0  0  0  0  0  0  0  0  0  0
  -27.5498  -13.8504   18.5771 C   0  0  1  0  0  0  0  0  0  0  0  0
  -25.4485  -12.9779   21.6195 C   0  0  1  0  0  0  0  0  0  0  0  0
  -26.9094  -26.5359   19.0416 C   0  0  2  0  0  0  0  0  0  0  0  0
  -30.4342  -21.4651   25.2577 C   0  0  0  0  0  0  0  0  0  0  0  0
  -28.7106  -19.1219   26.2295 C   0  0  0  0  0  0  0  0  0  0  0  0
  -29.2488  -24.0671   23.9857 C   0  0  0  0  0  0  0  0  0  0  0  0
  -31.4722  -22.5376   25.6630 C   0  0  0  0  0  0  0  0  0  0  0  0
  -28.9425  -18.9233   27.7409 C   0  0  0  0  0  0  0  0  0  0  0  0
  -18.7777  -13.5272   25.5184 C   0  0  0  0  0  0  0  0  0  0  0  0
  -22.1555  -15.9713   20.3718 C   0  0  0  0  0  0  0  0  0  0  0  0
  -20.2019  -16.1365   21.9289 C   0  0  0  0  0  0  0  0  0  0  0  0
  -20.4571  -14.1376   20.4585 C   0  0  0  0  0  0  0  0  0  0  0  0
  -22.0075  -11.9412   26.7549 C   0  0  0  0  0  0  0  0  0  0  0  0
  -27.6880  -18.0654   25.7693 C   0  0  0  0  0  0  0  0  0  1  0  0
  -22.0056  -14.4275   22.4359 C   0  0  1  0  0  0  0  0  0  0  0  0
  -20.1614  -12.9116   25.3805 C   0  0  2  0  0  0  0  0  0  0  0  0
  -21.2316  -15.1680   21.3089 C   0  0  0  0  0  0  0  0  0  0  0  0
  -24.7642  -26.9756   20.1757 N   0  0  0  0  0  0  0  0  0  0  0  0
  -25.9337  -27.4689   19.7340 N   0  0  0  0  0  0  0  0  0  0  0  0
  -24.3746  -13.7315   22.2699 N   0  0  0  0  0  0  0  0  0  0  0  0
  -27.7995  -24.2427   18.9008 N   0  0  0  0  0  0  0  0  0  0  0  0
  -27.2151  -29.4566   19.5994 N   0  0  0  0  0  0  0  0  0  0  0  0
  -25.0659  -30.8972   22.3742 N   0  0  0  0  0  0  0  0  0  0  0  0
  -28.9708  -23.7035   20.8756 N   0  0  0  0  0  0  0  0  0  0  0  0
  -26.9306  -13.2159   19.7209 N   0  0  0  0  0  0  0  0  0  0  0  0
  -21.1587  -13.6367   23.3223 N   0  0  0  0  0  0  0  0  0  0  0  0
  -20.6643  -12.5758   26.7425 N   0  3  0  0  0  0  0  0  0  0  0  0
  -24.0827  -31.3796   20.3594 O   0  0  0  0  0  0  0  0  0  0  0  0
  -25.4791  -14.9401   20.3065 O   0  0  0  0  0  0  0  0  0  0  0  0
  -22.6971  -12.5484   21.1642 O   0  0  0  0  0  0  0  0  0  0  0  0
  -21.7679  -14.7135   25.2836 O   0  0  0  0  0  0  0  0  0  0  0  0
  -29.6194  -22.8190   18.8314 O   0  0  0  0  0  0  0  0  0  0  0  0
  -19.1029  -27.5603   23.0313 O   0  0  0  0  0  0  0  0  0  0  0  0
  -28.2175  -16.7647   26.0228 O   0  0  0  0  0  0  0  0  0  1  0  0
  -16.3043  -32.1972   24.0660 F   0  0  0  0  0  0  0  0  0  0  0  0
  -16.6387  -28.0198   21.8654 F   0  0  0  0  0  0  0  0  0  0  0  0
  -29.9719  -21.2537   21.2248 S   0  0  0  0  0  0  0  0  0  0  0  0
  1  2  1  0  0  0  0
  1  5  2  0  0  0  0
  2  6  2  0  0  0  0
  3  8  2  0  0  0  0
  3 16  1  0  0  0  0
  4  9  1  0  0  0  0
  4 16  2  0  0  0  0
  5 18  1  0  0  0  0
  6 20  1  0  0  0  0
  7 10  2  0  0  0  0
  7 19  1  0  0  0  0
  8 24  1  0  0  0  0
  9 24  2  0  0  0  0
 10 25  1  0  0  0  0
 11 12  2  0  0  0  0
 11 26  1  0  0  0  0
 12 27  1  0  0  0  0
 13 21  1  0  0  0  0
 13 25  2  0  0  0  0
 14 27  2  0  0  0  0
 14 28  1  0  0  0  0
 15 22  2  0  0  0  0
 15 86  1  0  0  0  0
 16 29  1  0  0  0  0
 17 29  1  0  0  0  0
 17 30  2  0  0  0  0
 17 32  1  0  0  0  0
 18 20  2  0  0  0  0
 18 37  1  0  0  0  0
 19 21  2  0  0  0  0
 19 38  1  0  0  0  0
 20 50  1  0  0  0  0
 21 39  1  0  0  0  0
 22 23  1  0  0  0  0
 22 53  1  0  0  0  0
 23 31  2  0  0  0  0
 23 55  1  0  0  0  0
 24 82  1  0  0  0  0
 25 83  1  0  0  0  0
 26 28  2  0  0  0  0
 26 82  1  0  0  0  0
 27 84  1  0  0  0  0
 28 85  1  0  0  0  0
 29 67  2  0  0  0  0
 30 68  1  0  0  0  0
 30 71  1  0  0  0  0
 31 73  1  0  0  0  0
 31 86  1  0  0  0  0
 32 72  1  0  0  0  0
 32 77  2  0  0  0  0
 33 51  1  0  0  0  0
 33 74  1  0  0  0  0
 33 78  2  0  0  0  0
 34 64  1  0  0  0  0
 34 69  1  0  0  0  0
 34 79  2  0  0  0  0
 35 65  1  0  0  0  0
 35 75  1  0  0  0  0
 35 80  2  0  0  0  0
 36 70  1  0  0  0  0
 36 73  1  0  0  0  0
 36 81  2  0  0  0  0
 37 40  1  0  0  0  0
 38 51  1  0  0  0  0
 39 69  1  0  0  0  0
 40 42  1  0  0  0  0
 41 43  1  0  0  0  0
 41 48  1  0  0  0  0
 42 50  1  0  0  0  0
 43 52  1  0  0  0  0
 44 46  1  0  0  0  0
 44 53  1  0  0  0  0
 45 47  1  0  0  0  0
 45 53  1  0  0  0  0
 46 54  1  0  0  0  0
 47 54  1  0  0  0  0
 48 70  1  0  0  0  0
 49 52  1  0  0  0  0
 49 70  1  0  0  0  0
 50 74  1  0  0  0  0
 51 69  1  0  0  0  0
 52 68  1  0  0  0  0
 53 56  1  0  0  0  0
 54 57  1  0  0  0  0
 54 63  1  0  0  0  0
 58 65  1  0  0  0  0
 59 66  1  0  0  0  0
 60 66  1  0  0  0  0
 61 66  1  0  0  0  0
 62 76  1  0  0  0  0
 63 83  1  0  0  0  0
 64 66  1  0  0  0  0
 64 75  1  0  0  0  0
 65 76  1  0  0  0  0
 67 68  1  0  0  0  0
M  CHG  1  76   1
M  ISO  4  36 100  63 101  73 100  83 101
M  END
> <Batch ID>
0143

> <Smiles>
CNC(C)C(=O)NC(C(=O)N1Cc2cc([101O:1][101CH2:1]C3(C)CCC(C)(c4csc([100NH:0][100C:0](=O)N5CCCC(n6nc(-c7ccc(Oc8ccc(F)cc8F)cc7)c(C(N)=O)c6N)C5)c4C)CC3)ccc2CC1C(=O)NC1CCCc2ccccc21)C(C)(C)C

> <Shape>
0.230

> <Color>
0.056

> <Negative vol penalty>
0.000

$$$$

  -OEChem-04052303003D

 87 96  0     1  0  0  0  0  0999 V2000
  -31.1004  -34.2252   24.6673 C   0  0  0  0  0  0  0  0  0  0  0  0
  -31.0048  -33.2710   23.6594 C   0  0  0  0  0  0  0  0  0  0  0  0
  -24.1776   -9.2333   20.0965 C   0  0  0  0  0  0  0  0  0  0  0  0
  -22.9425  -10.4422   21.7847 C   0  0  0  0  0  0  0  0  0  0  0  0
  -30.2318  -34.1760   25.7568 C   0  0  0  0  0  0  0  0  0  0  0  0
  -30.0412  -32.2664   23.7410 C   0  0  0  0  0  0  0  0  0  0  0  0
  -26.9848  -29.7103   19.0902 C   0  0  0  0  0  0  0  0  0  0  0  0
  -27.4861  -20.4872   20.7836 C   0  0  0  0  0  0  0  0  0  0  0  0
  -27.2581  -19.2589   21.4040 C   0  0  0  0  0  0  0  0  0  0  0  0
  -23.4014   -8.1002   20.3400 C   0  0  0  0  0  0  0  0  0  0  0  0
  -22.1663   -9.3092   22.0282 C   0  0  0  0  0  0  0  0  0  0  0  0
  -27.1707  -28.5212   18.3864 C   0  0  0  0  0  0  0  0  0  0  0  0
  -20.0974   -6.6278   23.3474 C   0  0  0  0  0  0  0  0  0  0  0  0
  -19.8605   -6.2777   24.6766 C   0  0  0  0  0  0  0  0  0  0  0  0
  -25.5535  -27.4338   19.8083 C   0  0  0  0  0  0  0  0  0  0  0  0
  -29.6388  -18.9597   21.6866 C   0  0  0  0  0  0  0  0  0  0  0  0
  -22.2376   -6.0403   25.0377 C   0  0  0  0  0  0  0  0  0  0  0  0
  -23.9482  -10.4043   20.8189 C   0  0  0  0  0  0  0  0  0  0  0  0
  -24.4885  -12.6020   19.6416 C   0  0  0  0  0  0  0  0  0  0  0  0
  -29.2507  -33.1760   25.8470 C   0  0  0  0  0  0  0  0  0  0  0  0
  -26.0884  -29.7673   20.1671 C   0  0  0  0  0  0  0  0  0  0  0  0
  -29.1596  -32.2030   24.8334 C   0  0  0  0  0  0  0  0  0  0  0  0
  -25.3562  -28.6255   20.5225 C   0  0  0  0  0  0  0  0  0  0  0  0
  -29.8668  -20.1880   21.0661 C   0  0  0  0  0  0  0  0  0  0  0  0
  -28.7905  -20.9517   20.6146 C   0  0  0  0  0  0  0  0  0  0  0  0
  -28.3344  -18.4952   21.8555 C   0  0  0  0  0  0  0  0  0  0  0  0
  -22.3957   -8.1382   21.3059 C   0  0  0  0  0  0  0  0  0  0  0  0
  -26.4572  -27.3820   18.7472 C   0  0  0  0  0  0  0  0  0  0  0  0
  -21.4044   -6.6842   22.8633 C   0  0  0  0  0  0  0  0  0  0  0  0
  -20.9306   -5.9839   25.5218 C   0  0  0  0  0  0  0  0  0  0  0  0
  -22.4745   -6.3905   23.7084 C   0  0  0  0  0  0  0  0  0  0  0  0
  -24.7500  -11.5749   20.5682 C   0  0  0  0  0  0  0  0  0  0  0  0
  -25.5403  -13.4730   19.7886 C   0  0  0  0  0  0  0  0  0  0  0  0
  -28.7971  -23.8822   18.4425 C   0  0  0  0  0  0  0  0  0  0  0  0
  -23.3927  -12.7550   18.7297 C   0  0  0  0  0  0  0  0  0  0  0  0
  -28.2022  -24.5227   17.4297 C   0  0  0  0  0  0  0  0  0  0  0  0
  -26.3532  -30.3719   23.2764 C   0  0  0  0  0  0  0  0  0  0  0  0
  -23.1148  -30.2078   23.1872 C   0  0  0  0  0  0  0  0  0  0  0  0
  -20.3150  -29.0408   21.6232 C   0  0  0  0  0  0  0  0  0  0  0  0
  -29.0574  -16.3663   22.9919 C   0  0  0  0  0  0  0  0  0  0  0  0
  -28.3653  -33.1358   27.0672 C   0  0  0  0  0  0  0  0  0  0  0  0
  -25.8795  -31.0646   20.8991 C   0  0  0  0  0  0  0  0  0  0  0  0
  -24.3667  -28.6396   21.6579 C   0  0  0  0  0  0  0  0  0  0  0  0
  -29.2689  -24.5275   19.7064 C   0  0  0  0  0  0  0  0  0  0  0  0
  -27.1272  -32.2600   26.8927 C   0  0  0  0  0  0  0  0  0  0  0  0
  -29.9017  -12.9754   22.3090 C   0  0  0  0  0  0  0  0  0  0  0  0
  -27.5046  -30.9201   26.2690 C   0  0  0  0  0  0  0  0  0  0  0  0
  -28.6152  -12.3933   21.7190 C   0  0  0  0  0  0  0  0  0  0  0  0
  -29.0567  -23.4311   20.7454 C   0  0  0  0  0  0  0  0  0  0  0  0
  -29.6110  -13.9820   23.4207 C   0  0  0  0  0  0  0  0  0  0  0  0
  -27.3942  -14.4761   22.4662 C   0  0  0  0  0  0  0  0  0  0  0  0
  -28.1112  -31.1124   24.8739 C   0  0  1  0  0  0  0  0  0  0  0  0
  -28.9783  -22.3893   18.5436 C   0  0  1  0  0  0  0  0  0  0  0  0
  -25.3215  -30.8736   22.3060 C   0  0  1  0  0  0  0  0  0  0  0  0
  -27.6344  -13.5054   21.2984 C   0  0  2  0  0  0  0  0  0  0  0  0
  -31.2739  -20.6611   20.8967 C   0  0  0  0  0  0  0  0  0  0  0  0
  -27.7583  -23.7962   16.1928 C   0  0  0  0  0  0  0  0  0  0  0  0
  -30.3036  -21.9675   17.9111 C   0  0  0  0  0  0  0  0  0  0  0  0
  -17.8122  -29.0398   21.8059 C   0  0  0  0  0  0  0  0  0  0  0  0
  -23.2821  -28.1494   25.4333 C   0  0  0  0  0  0  0  0  0  0  0  0
  -20.9182  -27.5022   24.9220 C   0  0  0  0  0  0  0  0  0  0  0  0
  -21.4378  -29.8198   25.6843 C   0  0  0  0  0  0  0  0  0  0  0  0
  -20.0080  -30.4048   19.0147 C   0  0  0  0  0  0  0  0  0  0  0  0
  -27.9238  -25.9981   17.4864 C   0  0  0  0  0  0  0  0  0  1  0  0
  -22.0952  -29.1063   23.3497 C   0  0  1  0  0  0  0  0  0  0  0  0
  -19.0282  -29.7334   21.2119 C   0  0  2  0  0  0  0  0  0  0  0  0
  -21.9533  -28.6433   24.8271 C   0  0  0  0  0  0  0  0  0  0  0  0
  -25.8795  -11.7735   21.2530 N   0  0  0  0  0  0  0  0  0  0  0  0
  -26.3370  -12.9354   20.7563 N   0  0  0  0  0  0  0  0  0  0  0  0
  -28.9985  -22.1729   19.9959 N   0  0  3  0  0  0  0  0  0  0  0  0
  -24.2023  -29.9302   22.3470 N   0  0  0  0  0  0  0  0  0  0  0  0
  -28.6785  -15.0079   22.9485 N   0  0  0  0  0  0  0  0  0  0  0  0
  -25.8521  -14.6385   19.1831 N   0  0  0  0  0  0  0  0  0  0  0  0
  -22.3984  -11.7676   18.7083 N   0  0  0  0  0  0  0  0  0  0  0  0
  -28.1025  -17.2477   22.4862 N   0  0  0  0  0  0  0  0  0  0  0  0
  -27.0711  -31.3733   23.9020 N   0  0  0  0  0  0  0  0  0  0  0  0
  -20.8582  -29.6046   22.7582 N   0  0  0  0  0  0  0  0  0  0  0  0
  -18.8913  -29.7331   19.7280 N   0  3  0  0  0  0  0  0  0  0  0  0
  -23.3067  -13.7301   17.9452 O   0  0  0  0  0  0  0  0  0  0  0  0
  -26.4870  -29.1657   23.4461 O   0  0  0  0  0  0  0  0  0  0  0  0
  -22.9485  -31.2777   23.7782 O   0  0  0  0  0  0  0  0  0  0  0  0
  -20.7887  -28.0920   21.0020 O   0  0  0  0  0  0  0  0  0  0  0  0
  -30.1596  -16.7192   23.4192 O   0  0  0  0  0  0  0  0  0  0  0  0
  -21.6380   -7.0328   21.5436 O   0  0  0  0  0  0  0  0  0  0  0  0
  -26.6372  -26.2199   18.0624 O   0  0  0  0  0  0  0  0  0  1  0  0
  -20.7031   -5.6492   26.7986 F   0  0  0  0  0  0  0  0  0  0  0  0
  -23.7323   -6.4441   23.2494 F   0  0  0  0  0  0  0  0  0  0  0  0
  1  2  1  0  0  0  0
  1  5  2  0  0  0  0
  2  6  2  0  0  0  0
  3 10  2  0  0  0  0
  3 18  1  0  0  0  0
  4 11  1  0  0  0  0
  4 18  2  0  0  0  0
  5 20  1  0  0  0  0
  6 22  1  0  0  0  0
  7 12  2  0  0  0  0
  7 21  1  0  0  0  0
  8  9  2  0  0  0  0
  8 25  1  0  0  0  0
  9 26  1  0  0  0  0
 10 27  1  0  0  0  0
 11 27  2  0  0  0  0
 12 28  1  0  0  0  0
 13 14  2  0  0  0  0
 13 29  1  0  0  0  0
 14 30  1  0  0  0  0
 15 23  1  0  0  0  0
 15 28  2  0  0  0  0
 16 24  1  0  0  0  0
 16 26  2  0  0  0  0
 17 30  2  0  0  0  0
 17 31  1  0  0  0  0
 18 32  1  0  0  0  0
 19 32  1  0  0  0  0
 19 33  2  0  0  0  0
 19 35  1  0  0  0  0
 20 22  2  0  0  0  0
 20 41  1  0  0  0  0
 21 23  2  0  0  0  0
 21 42  1  0  0  0  0
 22 52  1  0  0  0  0
 23 43  1  0  0  0  0
 24 25  2  0  0  0  0
 24 56  1  0  0  0  0
 25 70  1  0  0  0  0
 26 75  1  0  0  0  0
 27 84  1  0  0  0  0
 28 85  1  0  0  0  0
 29 31  2  0  0  0  0
 29 84  1  0  0  0  0
 30 86  1  0  0  0  0
 31 87  1  0  0  0  0
 32 68  2  0  0  0  0
 33 69  1  0  0  0  0
 33 73  1  0  0  0  0
 34 36  2  0  0  0  0
 34 44  1  0  0  0  0
 34 53  1  0  0  0  0
 35 74  1  0  0  0  0
 35 79  2  0  0  0  0
 36 57  1  0  0  0  0
 36 64  1  0  0  0  0
 37 54  1  0  0  0  0
 37 76  1  0  0  0  0
 37 80  2  0  0  0  0
 38 65  1  0  0  0  0
 38 71  1  0  0  0  0
 38 81  2  0  0  0  0
 39 66  1  0  0  0  0
 39 77  1  0  0  0  0
 39 82  2  0  0  0  0
 40 72  1  0  0  0  0
 40 75  1  0  0  0  0
 40 83  2  0  0  0  0
 41 45  1  0  0  0  0
 42 54  1  0  0  0  0
 43 71  1  0  0  0  0
 44 49  1  0  0  0  0
 45 47  1  0  0  0  0
 46 48  1  0  0  0  0
 46 50  1  0  0  0  0
 47 52  1  0  0  0  0
 48 55  1  0  0  0  0
 49 70  1  0  0  0  0
 50 72  1  0  0  0  0
 51 55  1  0  0  0  0
 51 72  1  0  0  0  0
 52 76  1  0  0  0  0
 53 58  1  0  0  0  0
 53 70  1  0  0  0  0
 54 71  1  0  0  0  0
 55 69  1  0  0  0  0
 59 66  1  0  0  0  0
 60 67  1  0  0  0  0
 61 67  1  0  0  0  0
 62 67  1  0  0  0  0
 63 78  1  0  0  0  0
 64 85  1  0  0  0  0
 65 67  1  0  0  0  0
 65 77  1  0  0  0  0
 66 78  1  0  0  0  0
 68 69  1  0  0  0  0
M  CHG  1  78   1
M  ISO  4  40 100  64 101  75 100  85 101
M  END
> <Batch ID>
0143

> <Smiles>
CNC(C)C(=O)NC(C(=O)N1Cc2cc([101O:1][101CH2:1]C(C)=C3CCN(c4ccc([100NH:0][100C:0](=O)N5CCCC(n6nc(-c7ccc(Oc8ccc(F)cc8F)cc7)c(C(N)=O)c6N)C5)cc4C)C3C)ccc2CC1C(=O)NC1CCCc2ccccc21)C(C)(C)C

> <Shape>
0.301

> <Color>
0.121

> <Negative vol penalty>
0.000

$$$$

  -OEChem-04052303003D

 89 98  0     1  0  0  0  0  0999 V2000
  -24.0275  -21.6062   17.1046 C   0  0  0  0  0  0  0  0  0  0  0  0
  -25.1112  -20.7622   16.8834 C   0  0  0  0  0  0  0  0  0  0  0  0
  -26.4195  -27.7453   18.8902 C   0  0  0  0  0  0  0  0  0  0  0  0
  -26.4074  -27.0115   21.1920 C   0  0  0  0  0  0  0  0  0  0  0  0
  -23.3322  -21.5444   18.3114 C   0  0  0  0  0  0  0  0  0  0  0  0
  -25.5007  -19.8566   17.8695 C   0  0  0  0  0  0  0  0  0  0  0  0
  -28.3388  -13.3250   18.6442 C   0  0  0  0  0  0  0  0  0  0  0  0
  -29.1843  -18.4487   24.2858 C   0  0  0  0  0  0  0  0  0  0  0  0
  -28.9845  -19.3442   23.2352 C   0  0  0  0  0  0  0  0  0  0  0  0
  -25.2179  -28.4219   19.0996 C   0  0  0  0  0  0  0  0  0  0  0  0
  -25.2057  -27.6882   21.4014 C   0  0  0  0  0  0  0  0  0  0  0  0
  -29.3819  -12.6750   19.3024 C   0  0  0  0  0  0  0  0  0  0  0  0
  -24.2020  -30.8694   21.9425 C   0  0  0  0  0  0  0  0  0  0  0  0
  -24.0847  -31.6350   23.1025 C   0  0  0  0  0  0  0  0  0  0  0  0
  -28.0571  -12.6018   21.3170 C   0  0  0  0  0  0  0  0  0  0  0  0
  -30.6444  -18.1766   21.9242 C   0  0  0  0  0  0  0  0  0  0  0  0
  -22.2043  -30.2885   23.8011 C   0  0  0  0  0  0  0  0  0  0  0  0
  -27.0142  -27.0400   19.9364 C   0  0  0  0  0  0  0  0  0  0  0  0
  -29.5575  -26.8476   19.8894 C   0  0  0  0  0  0  0  0  0  0  0  0
  -23.7075  -20.6308   19.3091 C   0  0  0  0  0  0  0  0  0  0  0  0
  -27.1491  -13.6285   19.3217 C   0  0  0  0  0  0  0  0  0  0  0  0
  -24.8106  -19.7834   19.0914 C   0  0  0  0  0  0  0  0  0  0  0  0
  -26.9994  -13.2534   20.6644 C   0  0  0  0  0  0  0  0  0  0  0  0
  -30.1141  -17.4171   24.1556 C   0  0  0  0  0  0  0  0  0  0  0  0
  -30.8441  -17.2810   22.9748 C   0  0  0  0  0  0  0  0  0  0  0  0
  -29.7146  -19.2082   22.0544 C   0  0  0  0  0  0  0  0  0  0  0  0
  -24.6110  -28.3934   20.3552 C   0  0  0  0  0  0  0  0  0  0  0  0
  -29.2423  -12.3159   20.6398 C   0  0  0  0  0  0  0  0  0  0  0  0
  -23.3204  -29.8134   21.7117 C   0  0  0  0  0  0  0  0  0  0  0  0
  -23.0859  -31.3445   24.0318 C   0  0  0  0  0  0  0  0  0  0  0  0
  -22.3215  -29.5229   22.6410 C   0  0  0  0  0  0  0  0  0  0  0  0
  -28.2552  -26.3404   19.7206 C   0  0  0  0  0  0  0  0  0  0  0  0
  -30.3801  -25.7981   19.5600 C   0  0  0  0  0  0  0  0  0  0  0  0
  -29.9855  -28.1509   20.3066 C   0  0  0  0  0  0  0  0  0  0  0  0
  -25.6117  -16.3098   20.0638 C   0  0  0  0  0  0  0  0  0  0  0  0
  -23.3355  -14.2529   21.1173 C   0  0  0  0  0  0  0  0  0  0  0  0
  -22.5553  -11.1348   22.2644 C   0  0  0  0  0  0  0  0  0  0  0  0
  -29.6550  -19.8673   19.6237 C   0  0  0  0  0  0  0  0  0  0  0  0
  -22.9548  -20.6334   20.6160 C   0  0  0  0  0  0  0  0  0  0  0  0
  -26.0231  -14.3061   18.5900 C   0  0  0  0  0  0  0  0  0  0  0  0
  -25.7347  -13.5383   21.4311 C   0  0  0  0  0  0  0  0  0  0  0  0
  -23.1987  -19.3863   21.4619 C   0  0  0  0  0  0  0  0  0  0  0  0
  -30.5300  -21.8755   16.8169 C   0  0  0  0  0  0  0  0  0  0  0  0
  -24.6889  -19.0664   21.5239 C   0  0  0  0  0  0  0  0  0  0  0  0
  -30.1701  -23.2953   17.2606 C   0  0  0  0  0  0  0  0  0  0  0  0
  -33.7207  -15.1029   22.2063 C   0  0  0  0  0  0  0  0  0  0  0  0
  -29.5311  -20.8465   17.3432 C   0  0  0  0  0  0  0  0  0  0  0  0
  -33.1890  -16.4886   22.5764 C   0  0  0  0  0  0  0  0  0  0  0  0
  -28.9425  -22.3082   19.2369 C   0  0  0  0  0  0  0  0  0  0  0  0
  -31.4411  -14.8420   22.9132 C   0  0  0  0  0  0  0  0  0  0  0  0
  -25.2482  -18.7705   20.1271 C   0  0  1  0  0  0  0  0  0  0  0  0
  -25.0522  -15.0250   19.5216 C   0  0  1  0  0  0  0  0  0  0  0  0
  -29.9563  -23.3721   18.7851 C   0  0  2  0  0  0  0  0  0  0  0  0
  -32.8112  -14.1557   22.9865 C   0  0  1  0  0  0  0  0  0  0  0  0
  -30.3076  -16.4720   25.2965 C   0  0  0  0  0  0  0  0  0  0  0  0
  -20.6184   -9.7632   23.0794 C   0  0  0  0  0  0  0  0  0  0  0  0
  -23.4240  -15.7208   23.7907 C   0  0  0  0  0  0  0  0  0  0  0  0
  -22.2262  -13.7772   24.8184 C   0  0  0  0  0  0  0  0  0  0  0  0
  -21.1279  -15.1047   23.0144 C   0  0  0  0  0  0  0  0  0  0  0  0
  -32.3222  -10.3156   22.8206 C   0  0  0  0  0  0  0  0  0  0  0  0
  -31.9041  -11.9342   24.6769 C   0  0  0  0  0  0  0  0  0  0  0  0
  -22.8698   -9.1749   20.0692 C   0  0  0  0  0  0  0  0  0  0  0  0
  -32.7997  -12.7389   22.4341 C   0  0  0  0  0  0  0  0  0  0  0  0
  -30.3801  -11.9098   22.6882 C   0  0  0  0  0  0  0  0  0  1  0  0
  -23.0427  -13.5618   22.4271 C   0  0  1  0  0  0  0  0  0  0  0  0
  -21.4552  -10.1641   21.8745 C   0  0  2  0  0  0  0  0  0  0  0  0
  -22.4799  -14.5374   23.4990 C   0  0  0  0  0  0  0  0  0  0  0  0
  -31.8441  -11.7460   23.1505 C   0  0  0  0  0  0  0  0  0  0  0  0
  -28.2460  -25.0677   19.3154 N   0  0  0  0  0  0  0  0  0  0  0  0
  -29.5527  -24.7664   19.2267 N   0  0  0  0  0  0  0  0  0  0  0  0
  -31.7680  -16.2674   22.8300 N   0  0  3  0  0  0  0  0  0  0  0  0
  -24.6648  -14.2083   20.6736 N   0  0  0  0  0  0  0  0  0  0  0  0
  -29.3829  -20.9759   18.7945 N   0  0  0  0  0  0  0  0  0  0  0  0
  -31.7232  -25.6665   19.5259 N   0  0  0  0  0  0  0  0  0  0  0  0
  -29.0090  -29.1105   20.6066 N   0  0  0  0  0  0  0  0  0  0  0  0
  -29.5115  -20.1186   20.9878 N   0  0  0  0  0  0  0  0  0  0  0  0
  -24.8870  -17.4322   19.7111 N   0  0  0  0  0  0  0  0  0  0  0  0
  -22.1575  -12.4461   22.1111 N   0  0  0  0  0  0  0  0  0  0  0  0
  -22.0405   -8.9305   21.2773 N   0  3  0  0  0  0  0  0  0  0  0  0
  -31.1979  -28.4604   20.3946 O   0  0  0  0  0  0  0  0  0  0  0  0
  -26.6251  -16.2846   20.7523 O   0  0  0  0  0  0  0  0  0  0  0  0
  -22.4172  -14.8055   20.5066 O   0  0  0  0  0  0  0  0  0  0  0  0
  -23.6562  -10.7666   22.6683 O   0  0  0  0  0  0  0  0  0  0  0  0
  -30.0169  -18.7830   19.1596 O   0  0  0  0  0  0  0  0  0  0  0  0
  -33.2249  -14.1138   24.3526 O   0  0  0  0  0  0  0  0  0  0  0  0
  -23.4386  -29.0537   20.5599 O   0  0  0  0  0  0  0  0  0  0  0  0
  -30.2591  -11.6820   21.2847 O   0  0  0  0  0  0  0  0  0  1  0  0
  -22.9744  -32.0788   25.1465 F   0  0  0  0  0  0  0  0  0  0  0  0
  -21.4723  -28.5089   22.4253 F   0  0  0  0  0  0  0  0  0  0  0  0
  1  2  1  0  0  0  0
  1  5  2  0  0  0  0
  2  6  2  0  0  0  0
  3 10  2  0  0  0  0
  3 18  1  0  0  0  0
  4 11  1  0  0  0  0
  4 18  2  0  0  0  0
  5 20  1  0  0  0  0
  6 22  1  0  0  0  0
  7 12  2  0  0  0  0
  7 21  1  0  0  0  0
  8  9  2  0  0  0  0
  8 24  1  0  0  0  0
  9 26  1  0  0  0  0
 10 27  1  0  0  0  0
 11 27  2  0  0  0  0
 12 28  1  0  0  0  0
 13 14  2  0  0  0  0
 13 29  1  0  0  0  0
 14 30  1  0  0  0  0
 15 23  1  0  0  0  0
 15 28  2  0  0  0  0
 16 25  1  0  0  0  0
 16 26  2  0  0  0  0
 17 30  2  0  0  0  0
 17 31  1  0  0  0  0
 18 32  1  0  0  0  0
 19 32  1  0  0  0  0
 19 33  2  0  0  0  0
 19 34  1  0  0  0  0
 20 22  2  0  0  0  0
 20 39  1  0  0  0  0
 21 23  2  0  0  0  0
 21 40  1  0  0  0  0
 22 51  1  0  0  0  0
 23 41  1  0  0  0  0
 24 25  2  0  0  0  0
 24 55  1  0  0  0  0
 25 71  1  0  0  0  0
 26 76  1  0  0  0  0
 27 86  1  0  0  0  0
 28 87  1  0  0  0  0
 29 31  2  0  0  0  0
 29 86  1  0  0  0  0
 30 88  1  0  0  0  0
 31 89  1  0  0  0  0
 32 69  2  0  0  0  0
 33 70  1  0  0  0  0
 33 74  1  0  0  0  0
 34 75  1  0  0  0  0
 34 80  2  0  0  0  0
 35 52  1  0  0  0  0
 35 77  1  0  0  0  0
 35 81  2  0  0  0  0
 36 65  1  0  0  0  0
 36 72  1  0  0  0  0
 36 82  2  0  0  0  0
 37 66  1  0  0  0  0
 37 78  1  0  0  0  0
 37 83  2  0  0  0  0
 38 73  1  0  0  0  0
 38 76  1  0  0  0  0
 38 84  2  0  0  0  0
 39 42  1  0  0  0  0
 40 52  1  0  0  0  0
 41 72  1  0  0  0  0
 42 44  1  0  0  0  0
 43 45  1  0  0  0  0
 43 47  1  0  0  0  0
 44 51  1  0  0  0  0
 45 53  1  0  0  0  0
 46 48  1  0  0  0  0
 46 54  1  0  0  0  0
 47 73  1  0  0  0  0
 48 71  1  0  0  0  0
 49 53  1  0  0  0  0
 49 73  1  0  0  0  0
 50 54  1  0  0  0  0
 50 71  1  0  0  0  0
 51 77  1  0  0  0  0
 52 72  1  0  0  0  0
 53 70  1  0  0  0  0
 54 63  1  0  0  0  0
 54 85  1  0  0  0  0
 56 66  1  0  0  0  0
 57 67  1  0  0  0  0
 58 67  1  0  0  0  0
 59 67  1  0  0  0  0
 60 68  1  0  0  0  0
 61 68  1  0  0  0  0
 62 79  1  0  0  0  0
 63 68  1  0  0  0  0
 64 68  1  0  0  0  0
 64 87  1  0  0  0  0
 65 67  1  0  0  0  0
 65 78  1  0  0  0  0
 66 79  1  0  0  0  0
 69 70  1  0  0  0  0
M  CHG  1  79   1
M  ISO  4  38 100  64 101  76 100  87 101
M  END
> <Batch ID>
0143

> <Smiles>
CNC(C)C(=O)NC(C(=O)N1Cc2cc([101O:1][101CH2:1]C(C)(C)CC3(O)CCN(c4cc([100NH:0][100C:0](=O)N5CCCC(n6nc(-c7ccc(Oc8ccc(F)cc8F)cc7)c(C(N)=O)c6N)C5)ccc4C)C3)ccc2CC1C(=O)NC1CCCc2ccccc21)C(C)(C)C

> <Shape>
0.273

> <Color>
0.066

> <Negative vol penalty>
0.000

$$$$

  -OEChem-04052303003D

 84 93  0     1  0  0  0  0  0999 V2000
  -25.8684  -21.0856   16.2354 C   0  0  0  0  0  0  0  0  0  0  0  0
  -26.7297  -20.0517   16.5885 C   0  0  0  0  0  0  0  0  0  0  0  0
  -23.4191  -28.6548   22.2221 C   0  0  0  0  0  0  0  0  0  0  0  0
  -25.5382  -29.6426   21.6131 C   0  0  0  0  0  0  0  0  0  0  0  0
  -24.6640  -21.2516   16.9178 C   0  0  0  0  0  0  0  0  0  0  0  0
  -26.3875  -19.1838   17.6249 C   0  0  0  0  0  0  0  0  0  0  0  0
  -27.2576  -14.3321   16.4635 C   0  0  0  0  0  0  0  0  0  0  0  0
  -30.4120  -19.8264   17.8262 C   0  0  0  0  0  0  0  0  0  0  0  0
  -30.8721  -18.5532   17.4849 C   0  0  0  0  0  0  0  0  0  0  0  0
  -23.0857  -29.8081   22.9324 C   0  0  0  0  0  0  0  0  0  0  0  0
  -25.2047  -30.7959   22.3233 C   0  0  0  0  0  0  0  0  0  0  0  0
  -28.5768  -13.8868   16.5358 C   0  0  0  0  0  0  0  0  0  0  0  0
  -25.1507  -31.8069   25.5491 C   0  0  0  0  0  0  0  0  0  0  0  0
  -26.1251  -32.3615   26.3790 C   0  0  0  0  0  0  0  0  0  0  0  0
  -30.8305  -17.8229   19.8304 C   0  0  0  0  0  0  0  0  0  0  0  0
  -28.1205  -12.9044   18.6913 C   0  0  0  0  0  0  0  0  0  0  0  0
  -26.0402  -34.4139   25.1072 C   0  0  0  0  0  0  0  0  0  0  0  0
  -24.6455  -28.5721   21.5626 C   0  0  0  0  0  0  0  0  0  0  0  0
  -24.7269  -27.1111   19.4730 C   0  0  0  0  0  0  0  0  0  0  0  0
  -24.3024  -20.3795   17.9567 C   0  0  0  0  0  0  0  0  0  0  0  0
  -26.3614  -14.0759   17.5112 C   0  0  0  0  0  0  0  0  0  0  0  0
  -25.1777  -19.3392   18.3227 C   0  0  0  0  0  0  0  0  0  0  0  0
  -30.3812  -19.0771   20.1421 C   0  0  0  0  0  0  0  0  0  0  0  0
  -26.7899  -13.3454   18.6287 C   0  0  0  0  0  0  0  0  0  0  0  0
  -30.1958  -20.0191   19.1611 C   0  0  0  0  0  0  0  0  0  0  0  0
  -31.0802  -17.5619   18.4755 C   0  0  0  0  0  0  0  0  0  0  0  0
  -23.9784  -30.8786   22.9830 C   0  0  0  0  0  0  0  0  0  0  0  0
  -29.0092  -13.1753   17.6511 C   0  0  0  0  0  0  0  0  0  0  0  0
  -24.6211  -32.5559   24.4982 C   0  0  0  0  0  0  0  0  0  0  0  0
  -26.5698  -33.6649   26.1581 C   0  0  0  0  0  0  0  0  0  0  0  0
  -25.0658  -33.8593   24.2773 C   0  0  0  0  0  0  0  0  0  0  0  0
  -24.9908  -27.3808   20.8292 C   0  0  0  0  0  0  0  0  0  0  0  0
  -25.2514  -25.8590   19.2636 C   0  0  0  0  0  0  0  0  0  0  0  0
  -24.0669  -27.9200   18.4902 C   0  0  0  0  0  0  0  0  0  0  0  0
  -24.6933  -15.8800   19.5277 C   0  0  0  0  0  0  0  0  0  0  0  0
  -23.4218  -13.0302   20.4134 C   0  0  0  0  0  0  0  0  0  0  0  0
  -31.8129  -15.1915   18.9099 C   0  0  0  0  0  0  0  0  0  0  0  0
  -23.7587   -9.6391   20.5967 C   0  0  0  0  0  0  0  0  0  0  0  0
  -29.2350  -22.2141   19.7753 C   0  0  0  0  0  0  0  0  0  0  0  0
  -23.0118  -20.6276   18.6966 C   0  0  0  0  0  0  0  0  0  0  0  0
  -24.9345  -14.5400   17.4058 C   0  0  0  0  0  0  0  0  0  0  0  0
  -29.9306  -20.0515   21.1907 C   0  0  0  0  0  0  0  0  0  0  0  0
  -25.8617  -13.0266   19.7711 C   0  0  0  0  0  0  0  0  0  0  0  0
  -22.5514  -19.4372   19.5341 C   0  0  0  0  0  0  0  0  0  0  0  0
  -26.9944  -22.4310   22.5599 C   0  0  0  0  0  0  0  0  0  0  0  0
  -23.7142  -18.8728   20.3442 C   0  0  0  0  0  0  0  0  0  0  0  0
  -26.2233  -23.7106   22.2256 C   0  0  0  0  0  0  0  0  0  0  0  0
  -28.4711  -22.5790   22.2090 C   0  0  0  0  0  0  0  0  0  0  0  0
  -27.9870  -24.2290   20.4701 C   0  0  0  0  0  0  0  0  0  0  0  0
  -24.8304  -18.3622   19.4250 C   0  0  1  0  0  0  0  0  0  0  0  0
  -24.2461  -14.6674   18.7613 C   0  0  1  0  0  0  0  0  0  0  0  0
  -26.4775  -24.1611   20.7735 C   0  0  2  0  0  0  0  0  0  0  0  0
  -22.5707   -7.5824   21.4067 C   0  0  0  0  0  0  0  0  0  0  0  0
  -31.9446  -12.6715   15.9814 C   0  0  0  0  0  0  0  0  0  0  0  0
  -24.1799  -13.7265   23.2857 C   0  0  0  0  0  0  0  0  0  0  0  0
  -23.8567  -11.3164   23.8816 C   0  0  0  0  0  0  0  0  0  0  0  0
  -21.9336  -12.6575   23.0296 C   0  0  0  0  0  0  0  0  0  0  0  0
  -23.6402   -8.4928   17.8707 C   0  0  0  0  0  0  0  0  0  0  0  0
  -32.3080  -14.0090   18.0828 C   0  0  0  0  0  0  0  0  0  0  0  0
  -23.7718  -11.9743   21.4339 C   0  0  1  0  0  0  0  0  0  0  0  0
  -22.8120   -8.5114   20.2271 C   0  0  2  0  0  0  0  0  0  0  0  0
  -31.2844  -13.5269   17.0547 C   0  0  2  0  0  0  0  0  0  1  0  0
  -23.4538  -12.4262   22.8872 C   0  0  0  0  0  0  0  0  0  0  0  0
  -25.6327  -26.3805   21.4385 N   0  0  0  0  0  0  0  0  0  0  0  0
  -25.7766  -25.4700   20.4606 N   0  0  0  0  0  0  0  0  0  0  0  0
  -29.7521  -20.9748   20.0536 N   0  0  0  0  0  0  0  0  0  0  0  0
  -24.4779  -13.5074   19.6242 N   0  0  0  0  0  0  0  0  0  0  0  0
  -28.6212  -22.9446   20.7983 N   0  0  0  0  0  0  0  0  0  0  0  0
  -25.3097  -25.0639   18.1742 N   0  0  0  0  0  0  0  0  0  0  0  0
  -23.5889  -29.1803   18.8739 N   0  0  0  0  0  0  0  0  0  0  0  0
  -31.5456  -16.3022   18.0936 N   0  0  0  0  0  0  0  0  0  0  0  0
  -24.4766  -17.0744   18.8675 N   0  0  0  0  0  0  0  0  0  0  0  0
  -23.0767  -10.7602   21.0200 N   0  0  0  0  0  0  0  0  0  0  0  0
  -23.3754   -7.7091   19.1046 N   0  3  0  0  0  0  0  0  0  0  0  0
  -23.8914  -27.5297   17.3111 O   0  0  0  0  0  0  0  0  0  0  0  0
  -25.1963  -15.7422   20.6366 O   0  0  0  0  0  0  0  0  0  0  0  0
  -22.2530  -13.4122   20.3150 O   0  0  0  0  0  0  0  0  0  0  0  0
  -31.6824  -15.1283   20.1277 O   0  0  0  0  0  0  0  0  0  0  0  0
  -24.9809   -9.5345   20.5212 O   0  0  0  0  0  0  0  0  0  0  0  0
  -29.2837  -22.6601   18.6191 O   0  0  0  0  0  0  0  0  0  0  0  0
  -23.6533  -32.0042   23.6757 O   0  0  0  0  0  0  0  0  0  0  0  0
  -30.3037  -12.7376   17.7250 O   0  0  0  0  0  0  0  0  0  1  0  0
  -27.5044  -34.1978   26.9560 F   0  0  0  0  0  0  0  0  0  0  0  0
  -24.5599  -34.5841   23.2701 F   0  0  0  0  0  0  0  0  0  0  0  0
  1  2  1  0  0  0  0
  1  5  2  0  0  0  0
  2  6  2  0  0  0  0
  3 10  2  0  0  0  0
  3 18  1  0  0  0  0
  4 11  1  0  0  0  0
  4 18  2  0  0  0  0
  5 20  1  0  0  0  0
  6 22  1  0  0  0  0
  7 12  2  0  0  0  0
  7 21  1  0  0  0  0
  8  9  2  0  0  0  0
  8 25  1  0  0  0  0
  9 26  1  0  0  0  0
 10 27  1  0  0  0  0
 11 27  2  0  0  0  0
 12 28  1  0  0  0  0
 13 14  2  0  0  0  0
 13 29  1  0  0  0  0
 14 30  1  0  0  0  0
 15 23  1  0  0  0  0
 15 26  2  0  0  0  0
 16 24  1  0  0  0  0
 16 28  2  0  0  0  0
 17 30  2  0  0  0  0
 17 31  1  0  0  0  0
 18 32  1  0  0  0  0
 19 32  1  0  0  0  0
 19 33  2  0  0  0  0
 19 34  1  0  0  0  0
 20 22  2  0  0  0  0
 20 40  1  0  0  0  0
 21 24  2  0  0  0  0
 21 41  1  0  0  0  0
 22 50  1  0  0  0  0
 23 25  2  0  0  0  0
 23 42  1  0  0  0  0
 24 43  1  0  0  0  0
 25 66  1  0  0  0  0
 26 71  1  0  0  0  0
 27 81  1  0  0  0  0
 28 82  1  0  0  0  0
 29 31  2  0  0  0  0
 29 81  1  0  0  0  0
 30 83  1  0  0  0  0
 31 84  1  0  0  0  0
 32 64  2  0  0  0  0
 33 65  1  0  0  0  0
 33 69  1  0  0  0  0
 34 70  1  0  0  0  0
 34 75  2  0  0  0  0
 35 51  1  0  0  0  0
 35 72  1  0  0  0  0
 35 76  2  0  0  0  0
 36 60  1  0  0  0  0
 36 67  1  0  0  0  0
 36 77  2  0  0  0  0
 37 59  1  0  0  0  0
 37 71  1  0  0  0  0
 37 78  2  0  0  0  0
 38 61  1  0  0  0  0
 38 73  1  0  0  0  0
 38 79  2  0  0  0  0
 39 66  1  0  0  0  0
 39 68  1  0  0  0  0
 39 80  2  0  0  0  0
 40 44  1  0  0  0  0
 41 51  1  0  0  0  0
 42 66  1  0  0  0  0
 43 67  1  0  0  0  0
 44 46  1  0  0  0  0
 45 47  1  0  0  0  0
 45 48  1  0  0  0  0
 46 50  1  0  0  0  0
 47 52  1  0  0  0  0
 48 68  1  0  0  0  0
 49 52  1  0  0  0  0
 49 68  1  0  0  0  0
 50 72  1  0  0  0  0
 51 67  1  0  0  0  0
 52 65  1  0  0  0  0
 53 61  1  0  0  0  0
 54 62  1  0  0  0  0
 55 63  1  0  0  0  0
 56 63  1  0  0  0  0
 57 63  1  0  0  0  0
 58 74  1  0  0  0  0
 59 62  1  0  0  0  0
 60 63  1  0  0  0  0
 60 73  1  0  0  0  0
 61 74  1  0  0  0  0
 62 82  1  0  0  0  0
 64 65  1  0  0  0  0
M  CHG  1  74   1
M  ISO  4  39 100  62 101  66 100  82 101
M  END
> <Batch ID>
0143

> <Smiles>
CNC(C)C(=O)NC(C(=O)N1Cc2cc([101O:1][101CH:1](C)CC(=O)Nc3ccc4c(c3)C[100N:0]4[100C:0](=O)N3CCCC(n4nc(-c5ccc(Oc6ccc(F)cc6F)cc5)c(C(N)=O)c4N)C3)ccc2CC1C(=O)NC1CCCc2ccccc21)C(C)(C)C

> <Shape>
0.241

> <Color>
0.069

> <Negative vol penalty>
0.000

$$$$

  -OEChem-04052303003D

 87 96  0     1  0  0  0  0  0999 V2000
  -24.8972  -29.6757   30.5297 C   0  0  0  0  0  0  0  0  0  0  0  0
  -24.6987  -28.4536   29.8952 C   0  0  0  0  0  0  0  0  0  0  0  0
  -22.6714  -10.1964   20.1658 C   0  0  0  0  0  0  0  0  0  0  0  0
  -24.3136   -9.4277   21.7625 C   0  0  0  0  0  0  0  0  0  0  0  0
  -25.0814  -30.8315   29.7721 C   0  0  0  0  0  0  0  0  0  0  0  0
  -24.6832  -28.3869   28.5024 C   0  0  0  0  0  0  0  0  0  0  0  0
  -27.3840  -24.4945   26.7137 C   0  0  0  0  0  0  0  0  0  0  0  0
  -32.1231  -16.4567   22.6293 C   0  0  0  0  0  0  0  0  0  0  0  0
  -21.9343   -9.0286   20.3618 C   0  0  0  0  0  0  0  0  0  0  0  0
  -23.5764   -8.2599   21.9585 C   0  0  0  0  0  0  0  0  0  0  0  0
  -26.7970  -23.2313   26.7735 C   0  0  0  0  0  0  0  0  0  0  0  0
  -21.9418   -5.2381   23.1481 C   0  0  0  0  0  0  0  0  0  0  0  0
  -21.7490   -4.8044   24.4597 C   0  0  0  0  0  0  0  0  0  0  0  0
  -32.7470  -17.2802   23.5664 C   0  0  0  0  0  0  0  0  0  0  0  0
  -26.1970  -23.4064   24.4436 C   0  0  0  0  0  0  0  0  0  0  0  0
  -30.5905  -18.1082   24.2743 C   0  0  0  0  0  0  0  0  0  0  0  0
  -20.6245   -6.8784   24.9802 C   0  0  0  0  0  0  0  0  0  0  0  0
  -23.8612  -10.3959   20.8662 C   0  0  0  0  0  0  0  0  0  0  0  0
  -24.1978  -12.9245   20.8897 C   0  0  0  0  0  0  0  0  0  0  0  0
  -25.0778  -30.7774   28.3693 C   0  0  0  0  0  0  0  0  0  0  0  0
  -27.3723  -25.2289   25.5192 C   0  0  0  0  0  0  0  0  0  0  0  0
  -24.8662  -29.5433   27.7253 C   0  0  0  0  0  0  0  0  0  0  0  0
  -26.7868  -24.6776   24.3706 C   0  0  0  0  0  0  0  0  0  0  0  0
  -29.9666  -17.2847   23.3371 C   0  0  0  0  0  0  0  0  0  0  0  0
  -30.7329  -16.4590   22.5146 C   0  0  0  0  0  0  0  0  0  0  0  0
  -22.3867   -8.0604   21.2581 C   0  0  0  0  0  0  0  0  0  0  0  0
  -26.2008  -22.6883   25.6392 C   0  0  0  0  0  0  0  0  0  0  0  0
  -21.4760   -6.4920   22.7525 C   0  0  0  0  0  0  0  0  0  0  0  0
  -21.0903   -5.6245   25.3757 C   0  0  0  0  0  0  0  0  0  0  0  0
  -20.8173   -7.3122   23.6685 C   0  0  0  0  0  0  0  0  0  0  0  0
  -31.9807  -18.1059   24.3890 C   0  0  0  0  0  0  0  0  0  0  0  0
  -24.6234  -11.6018   20.6638 C   0  0  0  0  0  0  0  0  0  0  0  0
  -25.2813  -13.6968   20.5489 C   0  0  0  0  0  0  0  0  0  0  0  0
  -22.9359  -13.4116   21.3652 C   0  0  0  0  0  0  0  0  0  0  0  0
  -25.6486  -19.2028   24.8136 C   0  0  0  0  0  0  0  0  0  0  0  0
  -26.1466  -28.0182   24.6128 C   0  0  0  0  0  0  0  0  0  0  0  0
  -27.7772  -27.4032   21.8769 C   0  0  0  0  0  0  0  0  0  0  0  0
  -28.3993  -24.5422   19.7686 C   0  0  0  0  0  0  0  0  0  0  0  0
  -30.7489  -14.7426   20.6707 C   0  0  0  0  0  0  0  0  0  0  0  0
  -25.2339  -32.0609   27.5929 C   0  0  0  0  0  0  0  0  0  0  0  0
  -28.0333  -26.5789   25.4641 C   0  0  0  0  0  0  0  0  0  0  0  0
  -26.7656  -25.4168   23.0585 C   0  0  0  0  0  0  0  0  0  0  0  0
  -25.5775  -31.8447   26.1214 C   0  0  0  0  0  0  0  0  0  0  0  0
  -29.5872  -12.4715   18.1867 C   0  0  0  0  0  0  0  0  0  0  0  0
  -27.7448  -16.3233   24.1601 C   0  0  0  0  0  0  0  0  0  0  0  0
  -24.6748  -30.7757   25.5138 C   0  0  0  0  0  0  0  0  0  0  0  0
  -28.1573  -12.1516   18.6283 C   0  0  0  0  0  0  0  0  0  0  0  0
  -26.2951  -16.8129   24.2003 C   0  0  0  0  0  0  0  0  0  0  0  0
  -27.8159  -18.6451   23.6148 C   0  0  0  0  0  0  0  0  0  0  0  0
  -30.5273  -12.6304   19.3804 C   0  0  0  0  0  0  0  0  0  0  0  0
  -28.6491  -13.2670   20.8421 C   0  0  0  0  0  0  0  0  0  0  0  0
  -28.4611  -17.3073   23.2347 C   0  0  1  0  0  0  0  0  0  0  0  0
  -24.8675  -29.4264   26.2165 C   0  0  1  0  0  0  0  0  0  0  0  0
  -27.5103  -27.4545   24.3296 C   0  0  1  0  0  0  0  0  0  0  0  0
  -27.6518  -13.1620   19.6768 C   0  0  2  0  0  0  0  0  0  0  0  0
  -26.3273  -18.2990   23.7872 C   0  0  2  0  0  0  0  0  0  0  0  0
  -25.6003  -18.4848   22.4790 C   0  0  0  0  0  0  0  0  0  0  0  0
  -30.3196  -24.0318   18.2359 C   0  0  0  0  0  0  0  0  0  0  0  0
  -26.0079  -28.6405   19.7208 C   0  0  0  0  0  0  0  0  0  0  0  0
  -26.8377  -26.8907   18.1340 C   0  0  0  0  0  0  0  0  0  0  0  0
  -28.4366  -28.5222   19.1362 C   0  0  0  0  0  0  0  0  0  0  0  0
  -28.9329  -21.9578   21.1085 C   0  0  0  0  0  0  0  0  0  0  0  0
  -25.6301  -20.6827   24.4956 C   0  0  0  0  0  0  0  0  0  1  0  0
  -27.4645  -26.6909   20.5831 C   0  0  1  0  0  0  0  0  0  0  0  0
  -29.7130  -23.7982   19.6107 C   0  0  2  0  0  0  0  0  0  0  0  0
  -27.1742  -27.6787   19.4180 C   0  0  0  0  0  0  0  0  0  0  0  0
  -25.8793  -11.5339   20.2140 N   0  0  0  0  0  0  0  0  0  0  0  0
  -26.2521  -12.8237   20.1545 N   0  0  0  0  0  0  0  0  0  0  0  0
  -27.4194  -26.7359   23.0569 N   0  0  0  0  0  0  0  0  0  0  0  0
  -29.9859  -13.6059   20.3292 N   0  0  0  0  0  0  0  0  0  0  0  0
  -25.4888  -15.0307   20.5509 N   0  0  0  0  0  0  0  0  0  0  0  0
  -22.7595  -13.5730   22.7462 N   0  0  0  0  0  0  0  0  0  0  0  0
  -30.1180  -15.6157   21.5562 N   0  0  0  0  0  0  0  0  0  0  0  0
  -26.0828  -28.7874   25.7590 N   0  0  0  0  0  0  0  0  0  0  0  0
  -28.5816  -25.7861   20.3350 N   0  0  0  0  0  0  0  0  0  0  0  0
  -29.5036  -22.3335   19.7893 N   0  3  0  0  0  0  0  0  0  0  0  0
  -21.9872  -13.6797   20.5896 O   0  0  0  0  0  0  0  0  0  0  0  0
  -25.1485  -18.7424   25.8388 O   0  0  0  0  0  0  0  0  0  0  0  0
  -25.2212  -27.7746   23.8473 O   0  0  0  0  0  0  0  0  0  0  0  0
  -28.3254  -28.5077   21.8420 O   0  0  0  0  0  0  0  0  0  0  0  0
  -27.3197  -24.0689   19.4206 O   0  0  0  0  0  0  0  0  0  0  0  0
  -31.8677  -14.9414   20.1904 O   0  0  0  0  0  0  0  0  0  0  0  0
  -21.6675   -6.9208   21.4498 O   0  0  0  0  0  0  0  0  0  0  0  0
  -25.6266  -21.4558   25.6950 O   0  0  0  0  0  0  0  0  0  1  0  0
  -20.9039   -5.2073   26.6348 F   0  0  0  0  0  0  0  0  0  0  0  0
  -20.3665   -8.5173   23.2940 F   0  0  0  0  0  0  0  0  0  0  0  0
  -32.7510  -19.1211   25.5459 Cl  0  0  0  0  0  0  0  0  0  0  0  0
  1  2  1  0  0  0  0
  1  5  2  0  0  0  0
  2  6  2  0  0  0  0
  3  9  2  0  0  0  0
  3 18  1  0  0  0  0
  4 10  1  0  0  0  0
  4 18  2  0  0  0  0
  5 20  1  0  0  0  0
  6 22  1  0  0  0  0
  7 11  2  0  0  0  0
  7 21  1  0  0  0  0
  8 14  2  0  0  0  0
  8 25  1  0  0  0  0
  9 26  1  0  0  0  0
 10 26  2  0  0  0  0
 11 27  1  0  0  0  0
 12 13  2  0  0  0  0
 12 28  1  0  0  0  0
 13 29  1  0  0  0  0
 14 31  1  0  0  0  0
 15 23  1  0  0  0  0
 15 27  2  0  0  0  0
 16 24  1  0  0  0  0
 16 31  2  0  0  0  0
 17 29  2  0  0  0  0
 17 30  1  0  0  0  0
 18 32  1  0  0  0  0
 19 32  1  0  0  0  0
 19 33  2  0  0  0  0
 19 34  1  0  0  0  0
 20 22  2  0  0  0  0
 20 40  1  0  0  0  0
 21 23  2  0  0  0  0
 21 41  1  0  0  0  0
 22 53  1  0  0  0  0
 23 42  1  0  0  0  0
 24 25  2  0  0  0  0
 24 52  1  0  0  0  0
 25 73  1  0  0  0  0
 26 83  1  0  0  0  0
 27 84  1  0  0  0  0
 28 30  2  0  0  0  0
 28 83  1  0  0  0  0
 29 85  1  0  0  0  0
 30 86  1  0  0  0  0
 31 87  1  0  0  0  0
 32 67  2  0  0  0  0
 33 68  1  0  0  0  0
 33 71  1  0  0  0  0
 34 72  1  0  0  0  0
 34 77  2  0  0  0  0
 35 56  1  0  0  0  0
 35 63  1  0  0  0  0
 35 78  2  0  0  0  0
 36 54  1  0  0  0  0
 36 74  1  0  0  0  0
 36 79  2  0  0  0  0
 37 64  1  0  0  0  0
 37 69  1  0  0  0  0
 37 80  2  0  0  0  0
 38 65  1  0  0  0  0
 38 75  1  0  0  0  0
 38 81  2  0  0  0  0
 39 70  1  0  0  0  0
 39 73  1  0  0  0  0
 39 82  2  0  0  0  0
 40 43  1  0  0  0  0
 41 54  1  0  0  0  0
 42 69  1  0  0  0  0
 43 46  1  0  0  0  0
 44 47  1  0  0  0  0
 44 50  1  0  0  0  0
 45 48  1  0  0  0  0
 45 52  1  0  0  0  0
 46 53  1  0  0  0  0
 47 55  1  0  0  0  0
 48 56  1  0  0  0  0
 49 52  1  0  0  0  0
 49 56  1  0  0  0  0
 50 70  1  0  0  0  0
 51 55  1  0  0  0  0
 51 70  1  0  0  0  0
 53 74  1  0  0  0  0
 54 69  1  0  0  0  0
 55 68  1  0  0  0  0
 56 57  1  0  0  0  0
 58 65  1  0  0  0  0
 59 66  1  0  0  0  0
 60 66  1  0  0  0  0
 61 66  1  0  0  0  0
 62 76  1  0  0  0  0
 63 84  1  0  0  0  0
 64 66  1  0  0  0  0
 64 75  1  0  0  0  0
 65 76  1  0  0  0  0
 67 68  1  0  0  0  0
M  CHG  1  76   1
M  ISO  4  39 100  63 101  73 100  84 101
M  END
> <Batch ID>
0143

> <Smiles>
CNC(C)C(=O)NC(C(=O)N1Cc2cc([101O:1][101CH2:1]C(=O)C3(C)CCC(c4cc(Cl)ccc4[100NH:0][100C:0](=O)N4CCCC(n5nc(-c6ccc(Oc7ccc(F)cc7F)cc6)c(C(N)=O)c5N)C4)C3)ccc2CC1C(=O)NC1CCCc2ccccc21)C(C)(C)C

> <Shape>
0.277

> <Color>
0.180

> <Negative vol penalty>
0.000

$$$$

  -OEChem-04052303003D

 85 93  0     1  0  0  0  0  0999 V2000
  -26.9612  -23.5662   17.6855 C   0  0  0  0  0  0  0  0  0  0  0  0
  -25.8063  -24.0573   18.2860 C   0  0  0  0  0  0  0  0  0  0  0  0
  -27.7099  -12.9570   20.4670 C   0  0  0  0  0  0  0  0  0  0  0  0
  -25.7367  -13.2440   19.1027 C   0  0  0  0  0  0  0  0  0  0  0  0
  -28.2113  -23.8992   18.2052 C   0  0  0  0  0  0  0  0  0  0  0  0
  -25.9010  -24.8807   19.4073 C   0  0  0  0  0  0  0  0  0  0  0  0
  -22.8287  -28.8971   19.1332 C   0  0  0  0  0  0  0  0  0  0  0  0
  -27.3087  -11.6568   20.7738 C   0  0  0  0  0  0  0  0  0  0  0  0
  -25.3355  -11.9438   19.4094 C   0  0  0  0  0  0  0  0  0  0  0  0
  -21.4788  -28.6863   19.4109 C   0  0  0  0  0  0  0  0  0  0  0  0
  -23.8628  -10.3350   21.9928 C   0  0  0  0  0  0  0  0  0  0  0  0
  -22.5266  -10.1336   22.3386 C   0  0  0  0  0  0  0  0  0  0  0  0
  -21.8075  -29.5543   21.6375 C   0  0  0  0  0  0  0  0  0  0  0  0
  -19.8242  -21.5692   19.5413 C   0  0  0  0  0  0  0  0  0  0  0  0
  -21.9134  -21.7579   20.7398 C   0  0  0  0  0  0  0  0  0  0  0  0
  -21.7616  -20.3346   18.7934 C   0  0  0  0  0  0  0  0  0  0  0  0
  -22.2705   -8.6242   20.4695 C   0  0  0  0  0  0  0  0  0  0  0  0
  -26.9239  -13.7506   19.6315 C   0  0  0  0  0  0  0  0  0  0  0  0
  -28.1432  -15.5032   18.2353 C   0  0  0  0  0  0  0  0  0  0  0  0
  -28.3217  -24.7350   19.3277 C   0  0  0  0  0  0  0  0  0  0  0  0
  -23.6819  -29.4288   20.1108 C   0  0  0  0  0  0  0  0  0  0  0  0
  -27.1538  -25.2241   19.9434 C   0  0  0  0  0  0  0  0  0  0  0  0
  -23.1673  -29.7733   21.3688 C   0  0  0  0  0  0  0  0  0  0  0  0
  -20.5712  -22.1065   20.5896 C   0  0  0  0  0  0  0  0  0  0  0  0
  -20.4194  -20.6832   18.6432 C   0  0  0  0  0  0  0  0  0  0  0  0
  -22.5086  -20.8719   19.8417 C   0  0  0  0  0  0  0  0  0  0  0  0
  -26.1216  -11.1501   20.2450 C   0  0  0  0  0  0  0  0  0  0  0  0
  -20.9686  -29.0122   20.6641 C   0  0  0  0  0  0  0  0  0  0  0  0
  -24.4029   -9.6810   20.8854 C   0  0  0  0  0  0  0  0  0  0  0  0
  -21.7304   -9.2782   21.5770 C   0  0  0  0  0  0  0  0  0  0  0  0
  -23.6067   -8.8256   20.1238 C   0  0  0  0  0  0  0  0  0  0  0  0
  -27.3375  -15.0940   19.3148 C   0  0  0  0  0  0  0  0  0  0  0  0
  -28.2419  -16.8657   18.3777 C   0  0  0  0  0  0  0  0  0  0  0  0
  -28.7481  -14.7216   17.1966 C   0  0  0  0  0  0  0  0  0  0  0  0
  -26.2738  -28.3915   21.6305 C   0  0  0  0  0  0  0  0  0  0  0  0
  -19.3699  -25.4646   22.1064 C   0  0  0  0  0  0  0  0  0  0  0  0
  -26.3037  -31.4069   22.8258 C   0  0  0  0  0  0  0  0  0  0  0  0
  -24.5592  -34.2406   23.5832 C   0  0  0  0  0  0  0  0  0  0  0  0
  -24.7546  -20.9616   20.9792 C   0  0  0  0  0  0  0  0  0  0  0  0
  -29.6932  -25.0288   19.8819 C   0  0  0  0  0  0  0  0  0  0  0  0
  -25.1299  -29.6751   19.7866 C   0  0  0  0  0  0  0  0  0  0  0  0
  -24.0371  -30.3658   22.4462 C   0  0  0  0  0  0  0  0  0  0  0  0
  -29.7196  -26.2108   20.8475 C   0  0  0  0  0  0  0  0  0  0  0  0
  -28.1735  -20.2965   21.7183 C   0  0  0  0  0  0  0  0  0  0  0  0
  -28.5770  -26.1049   21.8524 C   0  0  0  0  0  0  0  0  0  0  0  0
  -28.4221  -18.9268   21.0823 C   0  0  0  0  0  0  0  0  0  0  0  0
  -26.7716  -20.3978   22.3168 C   0  0  0  0  0  0  0  0  0  0  0  0
  -25.9270  -18.6824   20.7633 C   0  0  0  0  0  0  0  0  0  0  0  0
  -27.2162  -26.1402   21.1463 C   0  0  1  0  0  0  0  0  0  0  0  0
  -26.0165  -29.7429   21.0263 C   0  0  1  0  0  0  0  0  0  0  0  0
  -27.3031  -18.5549   20.0898 C   0  0  2  0  0  0  0  0  0  0  0  0
  -24.8481  -36.5228   24.5858 C   0  0  0  0  0  0  0  0  0  0  0  0
  -26.4054  -30.1673   25.6120 C   0  0  0  0  0  0  0  0  0  0  0  0
  -25.7398  -32.3913   26.5497 C   0  0  0  0  0  0  0  0  0  0  0  0
  -27.8868  -32.1581   25.3012 C   0  0  0  0  0  0  0  0  0  0  0  0
  -23.7193  -35.5744   21.0784 C   0  0  0  0  0  0  0  0  0  0  0  0
  -19.9272  -23.0649   21.5610 C   0  0  0  0  0  0  0  0  0  0  0  0
  -20.0457  -24.5238   21.1245 C   0  0  0  0  0  0  0  0  0  0  0  0
  -18.2496  -26.3304   21.5524 C   0  0  0  0  0  0  0  0  0  0  0  0
  -18.0582  -27.6435   22.3044 C   0  0  0  0  0  0  0  0  0  0  0  0
  -19.3073  -28.5171   22.2922 C   0  0  0  0  0  0  0  0  0  1  0  0
  -25.7010  -32.0845   24.0327 C   0  0  1  0  0  0  0  0  0  0  0  0
  -24.8459  -35.7049   23.3038 C   0  0  2  0  0  0  0  0  0  0  0  0
  -26.4170  -31.6874   25.3545 C   0  0  0  0  0  0  0  0  0  0  0  0
  -26.9520  -16.1140   20.0861 N   0  0  0  0  0  0  0  0  0  0  0  0
  -27.5179  -17.1776   19.4906 N   0  0  0  0  0  0  0  0  0  0  0  0
  -25.4474  -30.5817   22.0830 N   0  0  0  0  0  0  0  0  0  0  0  0
  -25.7636  -20.0353   21.3181 N   0  0  0  0  0  0  0  0  0  0  0  0
  -19.6636  -20.1400   17.5831 N   0  0  0  0  0  0  0  0  0  0  0  0
  -28.8766  -17.8154   17.6582 N   0  0  0  0  0  0  0  0  0  0  0  0
  -28.5452  -13.3348   17.1997 N   0  0  0  0  0  0  0  0  0  0  0  0
  -23.8723  -20.5185   19.9945 N   0  0  0  0  0  0  0  0  0  0  0  0
  -26.8777  -27.4957   20.7689 N   0  0  0  0  0  0  0  0  0  0  0  0
  -25.7202  -33.5155   23.7494 N   0  0  0  0  0  0  0  0  0  0  0  0
  -23.8144  -36.2691   22.3881 N   0  3  0  0  0  0  0  0  0  0  0  0
  -29.4615  -15.2356   16.3020 O   0  0  0  0  0  0  0  0  0  0  0  0
  -25.9499  -28.1777   22.7929 O   0  0  0  0  0  0  0  0  0  0  0  0
  -19.7105  -25.4952   23.2886 O   0  0  0  0  0  0  0  0  0  0  0  0
  -27.4886  -31.6081   22.5481 O   0  0  0  0  0  0  0  0  0  0  0  0
  -23.4193  -33.7862   23.6513 O   0  0  0  0  0  0  0  0  0  0  0  0
  -24.6951  -22.0770   21.5030 O   0  0  0  0  0  0  0  0  0  0  0  0
  -25.7299   -9.8814   20.5439 O   0  0  0  0  0  0  0  0  0  0  0  0
  -19.6516  -28.8068   20.9380 O   0  0  0  0  0  0  0  0  0  1  0  0
  -20.4477   -9.0837   21.9100 F   0  0  0  0  0  0  0  0  0  0  0  0
  -24.1203   -8.1937   19.0595 F   0  0  0  0  0  0  0  0  0  0  0  0
  1  2  1  0  0  0  0
  1  5  2  0  0  0  0
  2  6  2  0  0  0  0
  3  8  2  0  0  0  0
  3 18  1  0  0  0  0
  4  9  1  0  0  0  0
  4 18  2  0  0  0  0
  5 20  1  0  0  0  0
  6 22  1  0  0  0  0
  7 10  2  0  0  0  0
  7 21  1  0  0  0  0
  8 27  1  0  0  0  0
  9 27  2  0  0  0  0
 10 28  1  0  0  0  0
 11 12  2  0  0  0  0
 11 29  1  0  0  0  0
 12 30  1  0  0  0  0
 13 23  1  0  0  0  0
 13 28  2  0  0  0  0
 14 24  1  0  0  0  0
 14 25  2  0  0  0  0
 15 24  2  0  0  0  0
 15 26  1  0  0  0  0
 16 25  1  0  0  0  0
 16 26  2  0  0  0  0
 17 30  2  0  0  0  0
 17 31  1  0  0  0  0
 18 32  1  0  0  0  0
 19 32  1  0  0  0  0
 19 33  2  0  0  0  0
 19 34  1  0  0  0  0
 20 22  2  0  0  0  0
 20 40  1  0  0  0  0
 21 23  2  0  0  0  0
 21 41  1  0  0  0  0
 22 49  1  0  0  0  0
 23 42  1  0  0  0  0
 24 57  1  0  0  0  0
 25 69  1  0  0  0  0
 26 72  1  0  0  0  0
 27 82  1  0  0  0  0
 28 83  1  0  0  0  0
 29 31  2  0  0  0  0
 29 82  1  0  0  0  0
 30 84  1  0  0  0  0
 31 85  1  0  0  0  0
 32 65  2  0  0  0  0
 33 66  1  0  0  0  0
 33 70  1  0  0  0  0
 34 71  1  0  0  0  0
 34 76  2  0  0  0  0
 35 50  1  0  0  0  0
 35 73  1  0  0  0  0
 35 77  2  0  0  0  0
 36 58  1  0  0  0  0
 36 59  1  0  0  0  0
 36 78  2  0  0  0  0
 37 62  1  0  0  0  0
 37 67  1  0  0  0  0
 37 79  2  0  0  0  0
 38 63  1  0  0  0  0
 38 74  1  0  0  0  0
 38 80  2  0  0  0  0
 39 68  1  0  0  0  0
 39 72  1  0  0  0  0
 39 81  2  0  0  0  0
 40 43  1  0  0  0  0
 41 50  1  0  0  0  0
 42 67  1  0  0  0  0
 43 45  1  0  0  0  0
 44 46  1  0  0  0  0
 44 47  1  0  0  0  0
 45 49  1  0  0  0  0
 46 51  1  0  0  0  0
 47 68  1  0  0  0  0
 48 51  1  0  0  0  0
 48 68  1  0  0  0  0
 49 73  1  0  0  0  0
 50 67  1  0  0  0  0
 51 66  1  0  0  0  0
 52 63  1  0  0  0  0
 53 64  1  0  0  0  0
 54 64  1  0  0  0  0
 55 64  1  0  0  0  0
 56 75  1  0  0  0  0
 57 58  1  0  0  0  0
 59 60  1  0  0  0  0
 60 61  1  0  0  0  0
 61 83  1  0  0  0  0
 62 64  1  0  0  0  0
 62 74  1  0  0  0  0
 63 75  1  0  0  0  0
 65 66  1  0  0  0  0
M  CHG  1  75   1
M  ISO  4  39 100  61 101  72 100  83 101
M  END
> <Batch ID>
0143

> <Smiles>
CNC(C)C(=O)NC(C(=O)N1Cc2cc([101O:1][101CH2:1]CCC(=O)CCc3cc(N)cc([100NH:0][100C:0](=O)N4CCCC(n5nc(-c6ccc(Oc7ccc(F)cc7F)cc6)c(C(N)=O)c5N)C4)c3)ccc2CC1C(=O)NC1CCCc2ccccc21)C(C)(C)C

> <Shape>
0.285

> <Color>
0.069

> <Negative vol penalty>
0.000

$$$$
